
#######################################################################
#
#                 Cambridge Crystallographic Data Centre
#                                CCDC 
#
#######################################################################
#
# If this CIF has been generated from an entry in the Cambridge 
# Structural Database, then it will include bibliographic, chemical, 
# crystal, experimental, refinement or atomic coordinate data resulting 
# from the CCDC's data processing and validation procedures.
#
#######################################################################

data_XUBZAW
_chemical_formula_moiety         
'C60 H72 N24 O12,C6 H18 N2 2+,2(Cl1 1-),18.5(H2 O1)'
_chemical_name_systematic        
'hexakis(Butano)cucurbit(6)uril hexane-1,6-diammonium clathrate dichloride hydrate'
_symmetry_cell_setting           monoclinic
_symmetry_space_group_name_H-M   'C 2/m'
_symmetry_Int_Tables_number      12
_space_group_name_Hall           '-C 2y'
loop_
_symmetry_equiv_pos_site_id
_symmetry_equiv_pos_as_xyz
1 x,y,z
2 -x,y,-z
3 1/2+x,1/2+y,z
4 1/2-x,1/2+y,-z
5 -x,-y,-z
6 x,-y,z
7 1/2-x,1/2-y,-z
8 1/2+x,1/2-y,z
_cell_length_a                   29.588(6)
_cell_length_b                   17.891(4)
_cell_length_c                   15.725(3)
_cell_angle_alpha                90
_cell_angle_beta                 103.50(3)
_cell_angle_gamma                90
_cell_volume                     8094.17
_exptl_crystal_colour            colorless
_exptl_crystal_description       rhombohedral
_cell_formula_units_Z            4
loop_
_atom_site_label
_atom_site_type_symbol
_atom_site_fract_x
_atom_site_fract_y
_atom_site_fract_z
Cl2 Cl 0.01866(9) 0.5000 0.42481(17)
O1 O 0.57246(14) -0.1676(2) 0.2059(2)
O2 O 0.45511(12) -0.17081(18) 0.1885(2)
O3 O 0.63689(17) 0.0000 0.2217(3)
O4 O 0.60122(15) 0.0000 -0.1737(3)
N1 N 0.54742(13) -0.2434(2) 0.0859(2)
N2 N 0.61286(14) -0.1789(2) 0.0970(2)
N3 N 0.46409(13) -0.2446(2) 0.0728(2)
N4 N 0.60199(13) -0.1819(2) -0.0612(2)
N5 N 0.65683(14) -0.0623(2) 0.1071(2)
N6 N 0.64244(13) -0.0621(2) -0.0513(2)
C1 C 0.50880(16) -0.2753(3) 0.1153(3)
H1 H 0.5139 -0.2673 0.1792
H2 H 0.5082 -0.3299 0.1050
C2 C 0.57728(17) -0.1938(3) 0.1368(3)
C3 C 0.61088(16) -0.2247(3) 0.0198(3)
C4 C 0.56436(16) -0.2701(3) 0.0114(3)
C5 C 0.65266(19) -0.2770(3) 0.0289(4)
H3 H 0.6582 -0.3030 0.0860
H4 H 0.6807 -0.2471 0.0278
C6 C 0.57223(17) -0.3545(3) 0.0127(3)
H5 H 0.5895 -0.3701 0.0718
H6 H 0.5419 -0.3805 -0.0007
C7 C 0.6451(2) -0.3343(3) -0.0438(5)
H7 H 0.6454 -0.3088 -0.0995
H8 H 0.6712 -0.3704 -0.0316
C8 C 0.5997(2) -0.3767(3) -0.0545(4)
H9 H 0.5803 -0.3676 -0.1140
H10 H 0.6065 -0.4310 -0.0491
C9 C 0.44084(16) -0.1962(2) 0.1149(3)
C10 C 0.65383(19) -0.1367(3) 0.1413(3)
H11 H 0.6819 -0.1650 0.1369
H12 H 0.6538 -0.1328 0.2041
C11 C 0.63562(17) -0.1361(3) -0.0902(3)
H13 H 0.6658 -0.1626 -0.0769
H14 H 0.6257 -0.1306 -0.1545
C12 C 0.6486(2) 0.0000 0.1516(4)
C13 C 0.67501(15) -0.0443(3) 0.0311(3)
C14 C 0.72279(17) -0.0760(3) 0.0360(4)
H15 H 0.7222 -0.1308 0.0444
H16 H 0.7318 -0.0663 -0.0198
C15 C 0.7591(2) -0.0407(4) 0.1121(4)
H17 H 0.7904 -0.0585 0.1090
H18 H 0.7531 -0.0585 0.1680
C16 C 0.6257(2) 0.0000 -0.0986(4)
O1E O 0.57246(14) 0.1676(2) 0.2059(2)
O1D O 0.42754(14) 0.1676(2) -0.2059(2)
O1A O 0.42754(14) -0.1676(2) -0.2059(2)
O2D O 0.54489(12) 0.17081(18) -0.1885(2)
O2A O 0.54489(12) -0.17081(18) -0.1885(2)
O2E O 0.45511(12) 0.17081(18) 0.1885(2)
O3A O 0.36311(17) 0.0000 -0.2217(3)
O4A O 0.39878(15) 0.0000 0.1737(3)
N1A N 0.45258(13) -0.2434(2) -0.0859(2)
N1E N 0.54742(13) 0.2434(2) 0.0859(2)
N1D N 0.45258(13) 0.2434(2) -0.0859(2)
N2E N 0.61286(14) 0.1789(2) 0.0970(2)
N2D N 0.38714(14) 0.1789(2) -0.0970(2)
N2A N 0.38714(14) -0.1789(2) -0.0970(2)
N3A N 0.53591(13) -0.2446(2) -0.0728(2)
N3E N 0.46409(13) 0.2446(2) 0.0728(2)
N3D N 0.53591(13) 0.2446(2) -0.0728(2)
N4E N 0.60199(13) 0.1819(2) -0.0612(2)
N4D N 0.39801(13) 0.1819(2) 0.0612(2)
N4A N 0.39801(13) -0.1819(2) 0.0612(2)
N5E N 0.65683(14) 0.0623(2) 0.1071(2)
N5D N 0.34317(14) 0.0623(2) -0.1071(2)
N5A N 0.34317(14) -0.0623(2) -0.1071(2)
N6E N 0.64244(13) 0.0621(2) -0.0513(2)
N6D N 0.35756(13) 0.0621(2) 0.0513(2)
N6A N 0.35756(13) -0.0621(2) 0.0513(2)
C1A C 0.49120(16) -0.2753(3) -0.1153(3)
C1E C 0.50880(16) 0.2753(3) 0.1153(3)
C1D C 0.49120(16) 0.2753(3) -0.1153(3)
H1D H 0.4861 0.2673 -0.1792
H1E H 0.5139 0.2673 0.1792
H1A H 0.4861 -0.2673 -0.1792
H2D H 0.4918 0.3299 -0.1050
H2E H 0.5082 0.3299 0.1050
H2A H 0.4918 -0.3299 -0.1050
C2E C 0.57728(17) 0.1938(3) 0.1368(3)
C2D C 0.42272(17) 0.1938(3) -0.1368(3)
C2A C 0.42272(17) -0.1938(3) -0.1368(3)
C3E C 0.61088(16) 0.2247(3) 0.0198(3)
C3D C 0.38912(16) 0.2247(3) -0.0198(3)
C3A C 0.38912(16) -0.2247(3) -0.0198(3)
C4A C 0.43564(16) -0.2701(3) -0.0114(3)
C4D C 0.43564(16) 0.2701(3) -0.0114(3)
C4E C 0.56436(16) 0.2701(3) 0.0114(3)
C5E C 0.65266(19) 0.2770(3) 0.0289(4)
C5A C 0.34734(19) -0.2770(3) -0.0289(4)
C5D C 0.34734(19) 0.2770(3) -0.0289(4)
H3E H 0.6582 0.3030 0.0860
H3A H 0.3418 -0.3030 -0.0860
H3D H 0.3418 0.3030 -0.0860
H4E H 0.6807 0.2471 0.0278
H4A H 0.3193 -0.2471 -0.0278
H4D H 0.3193 0.2471 -0.0278
C6E C 0.57223(17) 0.3545(3) 0.0127(3)
C6A C 0.42777(17) -0.3545(3) -0.0127(3)
C6D C 0.42777(17) 0.3545(3) -0.0127(3)
H5E H 0.5895 0.3701 0.0718
H5A H 0.4105 -0.3701 -0.0718
H5D H 0.4105 0.3701 -0.0718
H6E H 0.5419 0.3805 -0.0007
H6A H 0.4581 -0.3805 0.0007
H6D H 0.4581 0.3805 0.0007
C7E C 0.6451(2) 0.3343(3) -0.0438(5)
C7A C 0.3549(2) -0.3343(3) 0.0438(5)
C7D C 0.3549(2) 0.3343(3) 0.0438(5)
H7E H 0.6454 0.3088 -0.0995
H7A H 0.3546 -0.3088 0.0995
H7D H 0.3546 0.3088 0.0995
H8E H 0.6712 0.3704 -0.0316
H8A H 0.3288 -0.3704 0.0316
H8D H 0.3288 0.3704 0.0316
C8E C 0.5997(2) 0.3767(3) -0.0545(4)
C8A C 0.4003(2) -0.3767(3) 0.0545(4)
C8D C 0.4003(2) 0.3767(3) 0.0545(4)
H9E H 0.5803 0.3676 -0.1140
H9A H 0.4197 -0.3676 0.1140
H9D H 0.4197 0.3676 0.1140
H10E H 0.6065 0.4310 -0.0491
H10A H 0.3935 -0.4310 0.0491
H10D H 0.3935 0.4310 0.0491
C9D C 0.55916(16) 0.1962(2) -0.1149(3)
C9A C 0.55916(16) -0.1962(2) -0.1149(3)
C9E C 0.44084(16) 0.1962(2) 0.1149(3)
C10E C 0.65383(19) 0.1367(3) 0.1413(3)
C10D C 0.34617(19) 0.1367(3) -0.1413(3)
C10A C 0.34617(19) -0.1367(3) -0.1413(3)
H11D H 0.3181 0.1650 -0.1369
H11A H 0.3181 -0.1650 -0.1369
H11E H 0.6819 0.1650 0.1369
H12D H 0.3462 0.1328 -0.2041
H12A H 0.3462 -0.1328 -0.2041
H12E H 0.6538 0.1328 0.2041
C11E C 0.63562(17) 0.1361(3) -0.0902(3)
C11D C 0.36438(17) 0.1361(3) 0.0902(3)
C11A C 0.36438(17) -0.1361(3) 0.0902(3)
H13E H 0.6658 0.1626 -0.0769
H13A H 0.3342 -0.1626 0.0769
H13D H 0.3342 0.1626 0.0769
H14E H 0.6257 0.1306 -0.1545
H14A H 0.3743 -0.1306 0.1545
H14D H 0.3743 0.1306 0.1545
C12A C 0.3514(2) 0.0000 -0.1516(4)
C13E C 0.67501(15) 0.0443(3) 0.0311(3)
C13D C 0.32499(15) 0.0443(3) -0.0311(3)
C13A C 0.32499(15) -0.0443(3) -0.0311(3)
C14E C 0.72279(17) 0.0760(3) 0.0360(4)
C14D C 0.27721(17) 0.0760(3) -0.0360(4)
C14A C 0.27721(17) -0.0760(3) -0.0360(4)
H15E H 0.7222 0.1308 0.0444
H15D H 0.2778 0.1308 -0.0444
H15A H 0.2778 -0.1308 -0.0444
H16E H 0.7318 0.0663 -0.0198
H16D H 0.2682 0.0663 0.0198
H16A H 0.2682 -0.0663 0.0198
C15E C 0.7591(2) 0.0407(4) 0.1121(4)
C15D C 0.2409(2) 0.0407(4) -0.1121(4)
C15A C 0.2409(2) -0.0407(4) -0.1121(4)
H17E H 0.7904 0.0585 0.1090
H17A H 0.2096 -0.0585 -0.1090
H17D H 0.2096 0.0585 -0.1090
H18E H 0.7531 0.0585 0.1680
H18A H 0.2469 -0.0585 -0.1680
H18D H 0.2469 0.0585 -0.1680
C16A C 0.3743(2) 0.0000 0.0986(4)
O5 O -0.07248(11) -0.16864(17) 0.6509(2)
O6 O -0.04850(10) -0.15740(16) 0.28005(19)
O7 O -0.13447(15) 0.0000 0.6111(3)
O8 O -0.11454(14) 0.0000 0.2322(3)
N7 N -0.04635(13) -0.23827(19) 0.5488(2)
N8 N -0.11418(13) -0.1797(2) 0.5076(2)
N9 N -0.03767(13) -0.23775(19) 0.3984(2)
N10 N -0.10478(12) -0.17675(19) 0.3581(2)
N11 N -0.15692(12) -0.0621(2) 0.4796(2)
N12 N -0.14984(12) -0.0622(2) 0.3281(2)
C17 C -0.07741(15) -0.1927(2) 0.5765(3)
C18 C -0.06419(16) -0.2656(2) 0.4597(3)
C19 C -0.11190(15) -0.2232(2) 0.4300(3)
C20 C -0.07043(17) -0.3500(2) 0.4553(3)
H19 H -0.0395 -0.3743 0.4689
H20 H -0.0871 -0.3660 0.4999
C21 C -0.15264(16) -0.2772(2) 0.4023(3)
H21 H -0.1815 -0.2487 0.3780
H22 H -0.1571 -0.3054 0.4539
C22 C -0.09761(17) -0.3754(3) 0.3652(3)
H23 H -0.0781 -0.3687 0.3226
H24 H -0.1048 -0.4293 0.3675
C23 C -0.14333(18) -0.3314(3) 0.3337(4)
H25 H -0.1695 -0.3672 0.3182
H26 H -0.1419 -0.3031 0.2803
C24 C -0.06207(15) -0.1874(2) 0.3397(3)
C25 C -0.00622(15) -0.2682(2) 0.6107(3)
H27 H -0.0056 -0.3231 0.6032
H28 H -0.0097 -0.2581 0.6707
C26 C -0.15411(16) -0.1362(2) 0.5176(3)
H29 H -0.1531 -0.1314 0.5808
H30 H -0.1828 -0.1640 0.4903
C27 C -0.14127(15) -0.1362(2) 0.2984(3)
H31 H -0.1704 -0.1656 0.2892
H32 H -0.1329 -0.1319 0.2412
C28 C -0.1475(2) 0.0000 0.5315(4)
C29 C -0.17870(14) -0.0444(2) 0.3888(3)
C30 C -0.22749(16) -0.0763(3) 0.3605(3)
H33 H -0.2401 -0.0659 0.2976
H34 H -0.2263 -0.1311 0.3687
C31 C -0.25973(17) -0.0422(3) 0.4133(4)
H35 H -0.2501 -0.0601 0.4745
H36 H -0.2918 -0.0601 0.3889
C32 C -0.1356(2) 0.0000 0.2904(4)
O5E O -0.07248(11) 0.16864(17) 0.6509(2)
O5D O 0.07248(11) 0.16864(17) 0.3491(2)
O5A O 0.07248(11) -0.16864(17) 0.3491(2)
O6E O -0.04850(10) 0.15740(16) 0.28005(19)
O6D O 0.04850(10) 0.15740(16) 0.71995(19)
O6A O 0.04850(10) -0.15740(16) 0.71995(19)
O7A O 0.13447(15) 0.0000 0.3889(3)
O8A O 0.11454(14) 0.0000 0.7678(3)
N7E N -0.04635(13) 0.23827(19) 0.5488(2)
N7D N 0.04635(13) 0.23827(19) 0.4512(2)
N7A N 0.04635(13) -0.23827(19) 0.4512(2)
N8E N -0.11418(13) 0.1797(2) 0.5076(2)
N8D N 0.11418(13) 0.1797(2) 0.4924(2)
N8A N 0.11418(13) -0.1797(2) 0.4924(2)
N9E N -0.03767(13) 0.23775(19) 0.3984(2)
N9D N 0.03767(13) 0.23775(19) 0.6016(2)
N9A N 0.03767(13) -0.23775(19) 0.6016(2)
N10E N -0.10478(12) 0.17675(19) 0.3581(2)
N10D N 0.10478(12) 0.17675(19) 0.6419(2)
N10A N 0.10478(12) -0.17675(19) 0.6419(2)
N11E N -0.15692(12) 0.0621(2) 0.4796(2)
N11D N 0.15692(12) 0.0621(2) 0.5204(2)
N11A N 0.15692(12) -0.0621(2) 0.5204(2)
N12E N -0.14984(12) 0.0622(2) 0.3281(2)
N12D N 0.14984(12) 0.0622(2) 0.6719(2)
N12A N 0.14984(12) -0.0622(2) 0.6719(2)
C17E C -0.07741(15) 0.1927(2) 0.5765(3)
C17D C 0.07741(15) 0.1927(2) 0.4235(3)
C17A C 0.07741(15) -0.1927(2) 0.4235(3)
C18E C -0.06419(16) 0.2656(2) 0.4597(3)
C18D C 0.06419(16) 0.2656(2) 0.5403(3)
C18A C 0.06419(16) -0.2656(2) 0.5403(3)
C19E C -0.11190(15) 0.2232(2) 0.4300(3)
C19D C 0.11190(15) 0.2232(2) 0.5700(3)
C19A C 0.11190(15) -0.2232(2) 0.5700(3)
C20E C -0.07043(17) 0.3500(2) 0.4553(3)
C20D C 0.07043(17) 0.3500(2) 0.5447(3)
C20A C 0.07043(17) -0.3500(2) 0.5447(3)
H19E H -0.0395 0.3743 0.4689
H19D H 0.0395 0.3743 0.5311
H19A H 0.0395 -0.3743 0.5311
H20E H -0.0871 0.3660 0.4999
H20D H 0.0871 0.3660 0.5001
H20A H 0.0871 -0.3660 0.5001
C21E C -0.15264(16) 0.2772(2) 0.4023(3)
C21D C 0.15264(16) 0.2772(2) 0.5977(3)
C21A C 0.15264(16) -0.2772(2) 0.5977(3)
H21E H -0.1815 0.2487 0.3780
H21D H 0.1815 0.2487 0.6220
H21A H 0.1815 -0.2487 0.6220
H22E H -0.1571 0.3054 0.4539
H22D H 0.1571 0.3054 0.5461
H22A H 0.1571 -0.3054 0.5461
C22E C -0.09761(17) 0.3754(3) 0.3652(3)
C22D C 0.09761(17) 0.3754(3) 0.6348(3)
C22A C 0.09761(17) -0.3754(3) 0.6348(3)
H23E H -0.0781 0.3687 0.3226
H23D H 0.0781 0.3687 0.6774
H23A H 0.0781 -0.3687 0.6774
H24E H -0.1048 0.4293 0.3675
H24D H 0.1048 0.4293 0.6325
H24A H 0.1048 -0.4293 0.6325
C23E C -0.14333(18) 0.3314(3) 0.3337(4)
C23D C 0.14333(18) 0.3314(3) 0.6663(4)
C23A C 0.14333(18) -0.3314(3) 0.6663(4)
H25E H -0.1695 0.3672 0.3182
H25D H 0.1695 0.3672 0.6818
H25A H 0.1695 -0.3672 0.6818
H26E H -0.1419 0.3031 0.2803
H26D H 0.1419 0.3031 0.7197
H26A H 0.1419 -0.3031 0.7197
C24E C -0.06207(15) 0.1874(2) 0.3397(3)
C24D C 0.06207(15) 0.1874(2) 0.6603(3)
C24A C 0.06207(15) -0.1874(2) 0.6603(3)
C25D C 0.00622(15) 0.2682(2) 0.3893(3)
C25E C -0.00622(15) 0.2682(2) 0.6107(3)
C25A C 0.00622(15) -0.2682(2) 0.3893(3)
H27E H -0.0056 0.3231 0.6032
H27A H 0.0056 -0.3231 0.3968
H27D H 0.0056 0.3231 0.3968
H28E H -0.0097 0.2581 0.6707
H28A H 0.0097 -0.2581 0.3293
H28D H 0.0097 0.2581 0.3293
C26E C -0.15411(16) 0.1362(2) 0.5176(3)
C26D C 0.15411(16) 0.1362(2) 0.4824(3)
C26A C 0.15411(16) -0.1362(2) 0.4824(3)
H29D H 0.1531 0.1314 0.4192
H29A H 0.1531 -0.1314 0.4192
H29E H -0.1531 0.1314 0.5808
H30D H 0.1828 0.1640 0.5097
H30A H 0.1828 -0.1640 0.5097
H30E H -0.1828 0.1640 0.4903
C27E C -0.14127(15) 0.1362(2) 0.2984(3)
C27D C 0.14127(15) 0.1362(2) 0.7016(3)
C27A C 0.14127(15) -0.1362(2) 0.7016(3)
H31E H -0.1704 0.1656 0.2892
H31A H 0.1704 -0.1656 0.7108
H31D H 0.1704 0.1656 0.7108
H32E H -0.1329 0.1319 0.2412
H32A H 0.1329 -0.1319 0.7588
H32D H 0.1329 0.1319 0.7588
C28A C 0.1475(2) 0.0000 0.4685(4)
C29E C -0.17870(14) 0.0444(2) 0.3888(3)
C29D C 0.17870(14) 0.0444(2) 0.6112(3)
C29A C 0.17870(14) -0.0444(2) 0.6112(3)
C30E C -0.22749(16) 0.0763(3) 0.3605(3)
C30D C 0.22749(16) 0.0763(3) 0.6395(3)
C30A C 0.22749(16) -0.0763(3) 0.6395(3)
H33E H -0.2401 0.0659 0.2976
H33D H 0.2401 0.0659 0.7024
H33A H 0.2401 -0.0659 0.7024
H34E H -0.2263 0.1311 0.3687
H34D H 0.2263 0.1311 0.6313
H34A H 0.2263 -0.1311 0.6313
C31E C -0.25973(17) 0.0422(3) 0.4133(4)
C31D C 0.25973(17) 0.0422(3) 0.5867(4)
C31A C 0.25973(17) -0.0422(3) 0.5867(4)
H35E H -0.2501 0.0601 0.4745
H35A H 0.2501 -0.0601 0.5255
H35D H 0.2501 0.0601 0.5255
H36E H -0.2918 0.0601 0.3889
H36A H 0.2918 -0.0601 0.6111
H36D H 0.2918 0.0601 0.6111
C32A C 0.1356(2) 0.0000 0.7096(4)
N13 N -0.01972(19) 0.0000 0.2572(4)
H37 H -0.0147 0.0129 0.2042
H38 H -0.0394 0.0335 0.2730
H39 H -0.0325 -0.0465 0.2539
C33 C 0.0247(3) 0.0000 0.3227(5)
H40 H 0.0388 0.0504 0.3251
H41 H 0.0462 -0.0358 0.3045
C34 C 0.0193(4) -0.0211(4) 0.4136(6)
H42 H 0.0002 -0.0670 0.4103
H43 H 0.0501 -0.0312 0.4525
C35 C -0.0037(4) 0.0414(6) 0.4494(7)
H44 H -0.0374 0.0394 0.4228
H45 H 0.0082 -0.0892 0.4315
N13A N 0.01972(19) 0.0000 0.7428(4)
H37E H -0.0147 -0.0129 0.2042
H37A H 0.0147 0.0129 0.7958
H37D H 0.0147 -0.0129 0.7958
H38E H -0.0394 -0.0335 0.2730
H38A H 0.0394 0.0335 0.7270
H38D H 0.0394 -0.0335 0.7270
H39E H -0.0325 0.0465 0.2539
H39D H 0.0325 0.0465 0.7461
H39A H 0.0325 -0.0465 0.7461
C33A C -0.0247(3) 0.0000 0.6773(5)
H40E H 0.0388 -0.0504 0.3251
H40A H -0.0388 0.0504 0.6749
H40D H -0.0388 -0.0504 0.6749
H41E H 0.0462 0.0358 0.3045
H41D H -0.0462 0.0358 0.6955
H41A H -0.0462 -0.0358 0.6955
C34E C 0.0193(4) 0.0211(4) 0.4136(6)
C34A C -0.0193(4) -0.0211(4) 0.5864(6)
C34D C -0.0193(4) 0.0211(4) 0.5864(6)
H42E H 0.0002 0.0670 0.4103
H42A H -0.0002 -0.0670 0.5897
H42D H -0.0002 0.0670 0.5897
H43E H 0.0501 0.0312 0.4525
H43D H -0.0501 0.0312 0.5475
H43A H -0.0501 -0.0312 0.5475
C35E C -0.0037(4) -0.0414(6) 0.4494(7)
C35A C 0.0037(4) 0.0414(6) 0.5506(7)
C35D C 0.0037(4) -0.0414(6) 0.5506(7)
H44E H -0.0374 -0.0394 0.4228
H44D H 0.0374 -0.0394 0.5772
H44A H 0.0374 0.0394 0.5772
H45D H -0.0082 0.0892 0.5685
H45A H -0.0082 -0.0892 0.5685
H45E H 0.0082 0.0892 0.4315
N14 N 0.5023(3) 0.0320(5) -0.2322(5)
H46 H 0.5008 -0.0191 -0.2888
H47 H 0.4889 0.0775 -0.2305
H48 H 0.5326 0.0341 -0.2025
C36 C 0.4781(4) -0.0233(5) -0.1922(6)
H49 H 0.4442 -0.0262 -0.2178
H50 H 0.4926 0.0735 -0.1856
C37 C 0.4923(6) 0.0282(6) -0.1085(6)
H51 H 0.4698 0.0689 -0.1073
H52 H 0.5243 0.0482 -0.0989
C38 C 0.4881(5) -0.0349(6) -0.0500(4)
H53 H 0.4545 -0.0427 -0.0550
H54 H 0.4996 0.0799 -0.0752
N14E N 0.5023(3) -0.0320(5) -0.2322(5)
N14A N 0.4977(3) 0.0320(5) 0.2322(5)
N14D N 0.4977(3) -0.0320(5) 0.2322(5)
H46E H 0.5008 0.0191 -0.2888
H46A H 0.4992 -0.0191 0.2888
H46D H 0.4992 0.0191 0.2888
H47E H 0.4889 -0.0775 -0.2305
H47A H 0.5111 0.0775 0.2305
H47D H 0.5111 -0.0775 0.2305
H48E H 0.5326 -0.0341 -0.2025
H48D H 0.4674 -0.0341 0.2025
H48A H 0.4674 0.0341 0.2025
C36E C 0.4781(4) 0.0233(5) -0.1922(6)
C36A C 0.5219(4) -0.0233(5) 0.1922(6)
C36D C 0.5219(4) 0.0233(5) 0.1922(6)
H49E H 0.4442 0.0262 -0.2178
H49A H 0.5558 -0.0262 0.2178
H49D H 0.5558 0.0262 0.2178
H50E H 0.4926 -0.0735 -0.1856
H50D H 0.5074 -0.0735 0.1856
H50A H 0.5074 0.0735 0.1856
C37E C 0.4923(6) -0.0282(6) -0.1085(6)
C37A C 0.5077(6) 0.0282(6) 0.1085(6)
C37D C 0.5077(6) -0.0282(6) 0.1085(6)
H51E H 0.4698 -0.0689 -0.1073
H51A H 0.5302 0.0689 0.1073
H51D H 0.5302 -0.0689 0.1073
H52E H 0.5243 -0.0482 -0.0989
H52D H 0.4757 -0.0482 0.0989
H52A H 0.4757 0.0482 0.0989
C38E C 0.4881(5) 0.0349(6) -0.0500(4)
C38A C 0.5119(5) -0.0349(6) 0.0500(4)
C38D C 0.5119(5) 0.0349(6) 0.0500(4)
H53E H 0.4545 0.0427 -0.0550
H53D H 0.5455 0.0427 0.0550
H53A H 0.5455 -0.0427 0.0550
H54D H 0.5004 -0.0799 0.0752
H54A H 0.5004 0.0799 0.0752
H54E H 0.4996 -0.0799 -0.0752
O9 O 0.31738(17) 0.0000 0.2401(3)
O10 O 0.13093(13) 0.1524(3) 0.2374(2)
O11 O 0.36938(14) 0.1488(3) -0.3718(2)
O12 O 0.12422(18) 0.5000 0.4348(4)
O13 O 0.3134(2) 0.5000 -0.0904(5)
O14 O 0.1154(2) 0.0000 0.1835(7)
O15 O 0.24864(16) 0.1075(3) 0.1742(4)
O16 O 0.23898(18) 0.2337(3) 0.8056(4)
O17 O 0.3085(3) 0.0000 0.4095(5)
O18 O 0.2500 0.2500 -0.5000
O20 O 0.2009(4) 0.2636(6) -0.6674(10)
O22 O 0.2265(8) 0.1359(14) -0.6779(17)
Cl1 Cl 0.48413(9) 0.5000 -0.09615(17)
O19? O 0.2235(3) 0.2681(6) -0.5930(10)
O21? O 0.2181(19) 0.214(3) -0.725(3)
O23? O 0.2453(10) 0.1107(18) -0.6259(19)
O24? O 0.2225(6) 0.0614(12) -0.6510(11)
O25? O 0.2318(2) 0.2467(4) 0.8576(6)
loop_
_geom_bond_atom_site_label_1
_geom_bond_atom_site_label_2
_geom_bond_site_symmetry_1
_geom_bond_site_symmetry_2
O1 C2 1_555 1_555
O2 C9 1_555 1_555
O3 C12 1_555 1_555
O4 C16 1_555 1_555
N1 C1 1_555 1_555
N2 C2 1_555 1_555
N3 C1 1_555 1_555
N4 C3 1_555 1_555
N5 C10 1_555 1_555
N6 C11 1_555 1_555
C1 H1 1_555 1_555
H2 C1 1_555 1_555
C2 N1 1_555 1_555
C3 N2 1_555 1_555
C4 N1 1_555 1_555
C5 C3 1_555 1_555
H3 C5 1_555 1_555
H4 C5 1_555 1_555
C6 C4 1_555 1_555
H5 C6 1_555 1_555
H6 C6 1_555 1_555
C7 C5 1_555 1_555
H7 C7 1_555 1_555
H8 C7 1_555 1_555
C8 C6 1_555 1_555
H9 C8 1_555 1_555
H10 C8 1_555 1_555
C9 N3 1_555 1_555
C10 N2 1_555 1_555
H11 C10 1_555 1_555
H12 C10 1_555 1_555
C11 N4 1_555 1_555
H13 C11 1_555 1_555
H14 C11 1_555 1_555
C12 N5 1_555 1_555
C13 N5 1_555 1_555
C14 C13 1_555 1_555
H15 C14 1_555 1_555
H16 C14 1_555 1_555
C15 C14 1_555 1_555
H17 C15 1_555 1_555
H18 C15 1_555 1_555
C16 N6 1_555 1_555
O5 C17 1_555 1_555
O6 C24 1_555 1_555
O7 C28 1_555 1_555
O8 C32 1_555 1_555
N7 C17 1_555 1_555
N8 C17 1_555 1_555
N9 C18 1_555 1_555
N10 C19 1_555 1_555
N11 C26 1_555 1_555
N12 C27 1_555 1_555
C18 N7 1_555 1_555
C19 N8 1_555 1_555
C20 C18 1_555 1_555
H19 C20 1_555 1_555
H20 C20 1_555 1_555
C21 C19 1_555 1_555
H21 C21 1_555 1_555
H22 C21 1_555 1_555
C22 C20 1_555 1_555
H23 C22 1_555 1_555
H24 C22 1_555 1_555
C23 C21 1_555 1_555
H25 C23 1_555 1_555
H26 C23 1_555 1_555
C24 N9 1_555 1_555
C25 N7 1_555 1_555
H27 C25 1_555 1_555
H28 C25 1_555 1_555
C26 N8 1_555 1_555
H29 C26 1_555 1_555
H30 C26 1_555 1_555
C27 N10 1_555 1_555
H31 C27 1_555 1_555
H32 C27 1_555 1_555
C28 N11 1_555 1_555
C29 N11 1_555 1_555
C30 C29 1_555 1_555
H33 C30 1_555 1_555
H34 C30 1_555 1_555
C31 C30 1_555 1_555
H35 C31 1_555 1_555
H36 C31 1_555 1_555
C32 N12 1_555 1_555
N13 H37 1_555 1_555
H37 H37E 1_555 1_555
H38 N13 1_555 1_555
H39 N13 1_555 1_555
C33 N13 1_555 1_555
H40 C33 1_555 1_555
H41 C33 1_555 1_555
C34 C33 1_555 1_555
H42 C34 1_555 1_555
H43 C34 1_555 1_555
C35 C34 1_555 1_555
H44 C35 1_555 1_555
H45 C34 1_555 1_555
N14 H46 1_555 1_555
H46 N14E 1_555 1_555
H47 N14 1_555 1_555
H48 N14 1_555 1_555
C36 N14 1_555 1_555
H49 C36 1_555 1_555
H50 N14 1_555 1_555
C37 C36 1_555 1_555
H51 C37 1_555 1_555
H52 C37 1_555 1_555
C38 C37 1_555 1_555
H53 C38 1_555 1_555
H54 C37 1_555 1_555
O1E C2E 1_555 1_555
O1D C2D 1_555 1_555
O1A C2A 1_555 1_555
O2D C9D 1_555 1_555
O2A C9A 1_555 1_555
O2E C9E 1_555 1_555
O3A C12A 1_555 1_555
O4A C16A 1_555 1_555
N1A C1A 1_555 1_555
N1E C1E 1_555 1_555
N1D C1D 1_555 1_555
N2E C2E 1_555 1_555
N2D C2D 1_555 1_555
N2A C2A 1_555 1_555
N3A C4 1_555 1_555
N3E C1E 1_555 1_555
N3D C1D 1_555 1_555
N4E C3E 1_555 1_555
N4D C3D 1_555 1_555
N4A C9 1_555 1_555
N5E C12 1_555 1_555
N5D C10D 1_555 1_555
N5A C10A 1_555 1_555
N6E C16 1_555 1_555
N6D C11D 1_555 1_555
N6A C11A 1_555 1_555
C1A N3A 1_555 1_555
C1E H1E 1_555 1_555
C1D H1D 1_555 1_555
H1A C1A 1_555 1_555
H2D C1D 1_555 1_555
H2E C1E 1_555 1_555
H2A C1A 1_555 1_555
C2E N1E 1_555 1_555
C2D N1D 1_555 1_555
C2A N1A 1_555 1_555
C3E N2E 1_555 1_555
C3D N2D 1_555 1_555
C3A N2A 1_555 1_555
C4A N3 1_555 1_555
C4D N1D 1_555 1_555
C4E N1E 1_555 1_555
C5E C3E 1_555 1_555
C5A C3A 1_555 1_555
C5D C3D 1_555 1_555
H3E C5E 1_555 1_555
H3A C5A 1_555 1_555
H3D C5D 1_555 1_555
H4E C5E 1_555 1_555
H4A C5A 1_555 1_555
H4D C5D 1_555 1_555
C6E C4E 1_555 1_555
C6A C4A 1_555 1_555
C6D C4D 1_555 1_555
H5E C6E 1_555 1_555
H5A C6A 1_555 1_555
H5D C6D 1_555 1_555
H6E C6E 1_555 1_555
H6A C6A 1_555 1_555
H6D C6D 1_555 1_555
C7E C5E 1_555 1_555
C7A C5A 1_555 1_555
C7D C5D 1_555 1_555
H7E C7E 1_555 1_555
H7A C7A 1_555 1_555
H7D C7D 1_555 1_555
H8E C7E 1_555 1_555
H8A C7A 1_555 1_555
H8D C7D 1_555 1_555
C8E C6E 1_555 1_555
C8A C6A 1_555 1_555
C8D C6D 1_555 1_555
H9E C8E 1_555 1_555
H9A C8A 1_555 1_555
H9D C8D 1_555 1_555
H10E C8E 1_555 1_555
H10A C8A 1_555 1_555
H10D C8D 1_555 1_555
C9D N3D 1_555 1_555
C9A N4 1_555 1_555
C9E N3E 1_555 1_555
C10E N2E 1_555 1_555
C10D N2D 1_555 1_555
C10A N2A 1_555 1_555
H11D C10D 1_555 1_555
H11A C10A 1_555 1_555
H11E C10E 1_555 1_555
H12D C10D 1_555 1_555
H12A C10A 1_555 1_555
H12E C10E 1_555 1_555
C11E N4E 1_555 1_555
C11D N4D 1_555 1_555
C11A N4A 1_555 1_555
H13E C11E 1_555 1_555
H13A C11A 1_555 1_555
H13D C11D 1_555 1_555
H14E C11E 1_555 1_555
H14A C11A 1_555 1_555
H14D C11D 1_555 1_555
C12A N5D 1_555 1_555
C13E C13 1_555 1_555
C13D N5D 1_555 1_555
C13A N5A 1_555 1_555
C14E C13E 1_555 1_555
C14D C13D 1_555 1_555
C14A C13A 1_555 1_555
H15E C14E 1_555 1_555
H15D C14D 1_555 1_555
H15A C14A 1_555 1_555
H16E C14E 1_555 1_555
H16D C14D 1_555 1_555
H16A C14A 1_555 1_555
C15E C15 1_555 1_555
C15D C14D 1_555 1_555
C15A C14A 1_555 1_555
H17E C15E 1_555 1_555
H17A C15A 1_555 1_555
H17D C15D 1_555 1_555
H18E C15E 1_555 1_555
H18A C15A 1_555 1_555
H18D C15D 1_555 1_555
C16A N6D 1_555 1_555
O5E C17E 1_555 1_555
O5D C17D 1_555 1_555
O5A C17A 1_555 1_555
O6E C24E 1_555 1_555
O6D C24D 1_555 1_555
O6A C24A 1_555 1_555
O7A C28A 1_555 1_555
O8A C32A 1_555 1_555
N7E C17E 1_555 1_555
N7D C17D 1_555 1_555
N7A C17A 1_555 1_555
N8E C17E 1_555 1_555
N8D C17D 1_555 1_555
N8A C17A 1_555 1_555
N9E C18E 1_555 1_555
N9D C18D 1_555 1_555
N9A C25 1_555 1_555
N10E C19E 1_555 1_555
N10D C19D 1_555 1_555
N10A C19A 1_555 1_555
N11E C28 1_555 1_555
N11D C26D 1_555 1_555
N11A C26A 1_555 1_555
N12E C32 1_555 1_555
N12D C27D 1_555 1_555
N12A C27A 1_555 1_555
C18E N7E 1_555 1_555
C18D N7D 1_555 1_555
C18A N7A 1_555 1_555
C19E N8E 1_555 1_555
C19D N8D 1_555 1_555
C19A N8A 1_555 1_555
C20E C18E 1_555 1_555
C20D C18D 1_555 1_555
C20A C18A 1_555 1_555
H19E C20E 1_555 1_555
H19D C20D 1_555 1_555
H19A C20A 1_555 1_555
H20E C20E 1_555 1_555
H20D C20D 1_555 1_555
H20A C20A 1_555 1_555
C21E C19E 1_555 1_555
C21D C19D 1_555 1_555
C21A C19A 1_555 1_555
H21E C21E 1_555 1_555
H21D C21D 1_555 1_555
H21A C21A 1_555 1_555
H22E C21E 1_555 1_555
H22D C21D 1_555 1_555
H22A C21A 1_555 1_555
C22E C20E 1_555 1_555
C22D C20D 1_555 1_555
C22A C20A 1_555 1_555
H23E C22E 1_555 1_555
H23D C22D 1_555 1_555
H23A C22A 1_555 1_555
H24E C22E 1_555 1_555
H24D C22D 1_555 1_555
H24A C22A 1_555 1_555
C23E C21E 1_555 1_555
C23D C21D 1_555 1_555
C23A C21A 1_555 1_555
H25E C23E 1_555 1_555
H25D C23D 1_555 1_555
H25A C23A 1_555 1_555
H26E C23E 1_555 1_555
H26D C23D 1_555 1_555
H26A C23A 1_555 1_555
C24E N9E 1_555 1_555
C24D N9D 1_555 1_555
C24A N9A 1_555 1_555
C25D N7D 1_555 1_555
C25E N7E 1_555 1_555
C25A N9 1_555 1_555
H27E C25E 1_555 1_555
H27A C25A 1_555 1_555
H27D C25D 1_555 1_555
H28E C25E 1_555 1_555
H28A C25A 1_555 1_555
H28D C25D 1_555 1_555
C26E N8E 1_555 1_555
C26D N8D 1_555 1_555
C26A N8A 1_555 1_555
H29D C26D 1_555 1_555
H29A C26A 1_555 1_555
H29E C26E 1_555 1_555
H30D C26D 1_555 1_555
H30A C26A 1_555 1_555
H30E C26E 1_555 1_555
C27E N10E 1_555 1_555
C27D N10D 1_555 1_555
C27A N10A 1_555 1_555
H31E C27E 1_555 1_555
H31A C27A 1_555 1_555
H31D C27D 1_555 1_555
H32E C27E 1_555 1_555
H32A C27A 1_555 1_555
H32D C27D 1_555 1_555
C28A N11D 1_555 1_555
C29E C29 1_555 1_555
C29D N11D 1_555 1_555
C29A N11A 1_555 1_555
C30E C29E 1_555 1_555
C30D C29D 1_555 1_555
C30A C29A 1_555 1_555
H33E C30E 1_555 1_555
H33D C30D 1_555 1_555
H33A C30A 1_555 1_555
H34E C30E 1_555 1_555
H34D C30D 1_555 1_555
H34A C30A 1_555 1_555
C31E C31 1_555 1_555
C31D C30D 1_555 1_555
C31A C30A 1_555 1_555
H35E C31E 1_555 1_555
H35A C31A 1_555 1_555
H35D C31D 1_555 1_555
H36E C31E 1_555 1_555
H36A C31A 1_555 1_555
H36D C31D 1_555 1_555
C32A N12D 1_555 1_555
N13A H37A 1_555 1_555
H37E N13 1_555 1_555
H37A H37D 1_555 1_555
H37D N13A 1_555 1_555
H38E N13 1_555 1_555
H38A N13A 1_555 1_555
H38D N13A 1_555 1_555
H39E N13 1_555 1_555
H39D N13A 1_555 1_555
H39A N13A 1_555 1_555
C33A N13A 1_555 1_555
H40E C33 1_555 1_555
H40A C33A 1_555 1_555
H40D C33A 1_555 1_555
H41E C33 1_555 1_555
H41D C33A 1_555 1_555
H41A C33A 1_555 1_555
C34E C33 1_555 1_555
C34A C33A 1_555 1_555
C34D C33A 1_555 1_555
H42E C35 1_555 1_555
H42A C34A 1_555 1_555
H42D C34D 1_555 1_555
H43E C34E 1_555 1_555
H43D C34D 1_555 1_555
H43A C34A 1_555 1_555
C35E C34 1_555 1_555
C35A C35 1_555 1_555
C35D C34A 1_555 1_555
H44E C35E 1_555 1_555
H44D C35D 1_555 1_555
H44A C35A 1_555 1_555
H45D C34D 1_555 1_555
H45A C34A 1_555 1_555
H45E C35 1_555 1_555
N14E N14 1_555 1_555
N14A N14D 1_555 1_555
N14D H46A 1_555 1_555
H46E N14 1_555 1_555
H46A N14A 1_555 1_555
H46D N14A 1_555 1_555
H47E C36 1_555 1_555
H47A N14A 1_555 1_555
H47D N14D 1_555 1_555
H48E N14E 1_555 1_555
H48D N14D 1_555 1_555
H48A N14A 1_555 1_555
C36E N14 1_555 1_555
C36A N14A 1_555 1_555
C36D N14A 1_555 1_555
H49E C36E 1_555 1_555
H49A C36A 1_555 1_555
H49D C36D 1_555 1_555
H50E C36 1_555 1_555
H50D N14D 1_555 1_555
H50A N14A 1_555 1_555
C37E C36 1_555 1_555
C37A C36A 1_555 1_555
C37D C36A 1_555 1_555
H51E C38 1_555 1_555
H51A C37A 1_555 1_555
H51D C37D 1_555 1_555
H52E C37E 1_555 1_555
H52D C37D 1_555 1_555
H52A C37A 1_555 1_555
C38E C37 1_555 1_555
C38A C38 1_555 1_555
C38D C37A 1_555 1_555
H53E C38E 1_555 1_555
H53D C38D 1_555 1_555
H53A C38A 1_555 1_555
H54D C37D 1_555 1_555
H54A C37A 1_555 1_555
H54E C38 1_555 1_555
N6 C13 1_555 1_555
C3 C4 1_555 1_555
C7 C8 1_555 1_555
N10 C24 1_555 1_555
N12 C29 1_555 1_555
C18 C19 1_555 1_555
C22 C23 1_555 1_555
H38 H39E 1_555 1_555
H39 H38E 1_555 1_555
H40 H41E 1_555 1_555
H41 H40E 1_555 1_555
C34 C34E 1_555 1_555
H42 H45 1_555 1_555
H42 C35E 1_555 1_555
C35 C34E 1_555 1_555
C35 C35E 1_555 1_555
H45 C35E 1_555 1_555
H46 H46E 1_555 1_555
H47 H50 1_555 1_555
H47 C36E 1_555 1_555
C36 N14E 1_555 1_555
C36 C36E 1_555 1_555
H50 C36E 1_555 1_555
C37 C36E 1_555 1_555
C37 C37E 1_555 1_555
H51 C38E 1_555 1_555
C38 C37E 1_555 1_555
C38 C38E 1_555 1_555
H54 C38E 1_555 1_555
N1A C4A 1_555 1_555
N3A C9A 1_555 1_555
N3E C4D 1_555 1_555
N3D C4E 1_555 1_555
N4E C9D 1_555 1_555
N4D C9E 1_555 1_555
N4A C3A 1_555 1_555
N5E C10E 1_555 1_555
N5E C13E 1_555 1_555
N5A C12A 1_555 1_555
N6E C11E 1_555 1_555
N6E C13E 1_555 1_555
N6D C13D 1_555 1_555
N6A C13A 1_555 1_555
N6A C16A 1_555 1_555
C3E C4E 1_555 1_555
C3D C4D 1_555 1_555
C3A C4A 1_555 1_555
C7E C8E 1_555 1_555
C7A C8A 1_555 1_555
C7D C8D 1_555 1_555
C13D C13A 1_555 1_555
C14E C15E 1_555 1_555
C15D C15A 1_555 1_555
N7A C25A 1_555 1_555
N9E C25D 1_555 1_555
N9D C25E 1_555 1_555
N9A C18A 1_555 1_555
N10E C24E 1_555 1_555
N10D C24D 1_555 1_555
N10A C24A 1_555 1_555
N11E C26E 1_555 1_555
N11E C29E 1_555 1_555
N11A C28A 1_555 1_555
N12E C27E 1_555 1_555
N12E C29E 1_555 1_555
N12D C29D 1_555 1_555
N12A C29A 1_555 1_555
N12A C32A 1_555 1_555
C18E C19E 1_555 1_555
C18D C19D 1_555 1_555
C18A C19A 1_555 1_555
C22E C23E 1_555 1_555
C22D C23D 1_555 1_555
C22A C23A 1_555 1_555
C29D C29A 1_555 1_555
C30E C31E 1_555 1_555
C31D C31A 1_555 1_555
H38A H39D 1_555 1_555
H38D H39A 1_555 1_555
H40A H41D 1_555 1_555
H40D H41A 1_555 1_555
C34E H42E 1_555 1_555
C34E C35E 1_555 1_555
C34E H45E 1_555 1_555
C34A C34D 1_555 1_555
C34A C35A 1_555 1_555
C34D C35A 1_555 1_555
C34D C35D 1_555 1_555
H42E H45E 1_555 1_555
H42A C35D 1_555 1_555
H42A H45A 1_555 1_555
H42D C35A 1_555 1_555
H42D H45D 1_555 1_555
C35E C35D 1_555 1_555
C35A C35D 1_555 1_555
C35A H45D 1_555 1_555
C35D H45A 1_555 1_555
N14E H46E 1_555 1_555
N14E H47E 1_555 1_555
N14E C36E 1_555 1_555
N14E H50E 1_555 1_555
N14D H46D 1_555 1_555
N14D C36A 1_555 1_555
N14D C36D 1_555 1_555
H46A H46D 1_555 1_555
H47E H50E 1_555 1_555
H47A C36D 1_555 1_555
H47A H50A 1_555 1_555
H47D C36A 1_555 1_555
H47D H50D 1_555 1_555
C36E C37E 1_555 1_555
C36A C36D 1_555 1_555
C36A H50D 1_555 1_555
C36D H50A 1_555 1_555
C36D C37A 1_555 1_555
C36D C37D 1_555 1_555
C37E H51E 1_555 1_555
C37E C38E 1_555 1_555
C37E H54E 1_555 1_555
C37A C37D 1_555 1_555
C37A C38A 1_555 1_555
C37D C38A 1_555 1_555
C37D C38D 1_555 1_555
H51A C38D 1_555 1_555
H51D C38A 1_555 1_555
C38E C38D 1_555 1_555
C38A C38D 1_555 1_555
C38A H54D 1_555 1_555
C38D H54A 1_555 1_555

#END
