
#######################################################################
#
#                 Cambridge Crystallographic Data Centre
#                                CCDC 
#
#######################################################################
#
# If this CIF has been generated from an entry in the Cambridge 
# Structural Database, then it will include bibliographic, chemical, 
# crystal, experimental, refinement or atomic coordinate data resulting 
# from the CCDC's data processing and validation procedures.
#
#######################################################################

data_XUCBAA
_chemical_compound_source        'whole plants of Scutellaria barbata'
_chemical_name_common            'Scutolide K'
_chemical_formula_moiety         'C34 H38 O8'
_chemical_name_systematic        
"(1S,3R,4aR,5S,6R,6aR,10aS,10bS)-5-Hydroxy-4a,6a,7,10b-tetramethyl-5'-oxo-1,2,4',4a,5,5',6,6a,9,10,10a,10b-dodecahydrospiro[benzo[f]chromene-3,3'-furan]-1,6-diyl dibenzoate"
_chemical_properties_biological  
'Tested for anti-EBV (Epstein-Barr virus) lytic replication activity'
_symmetry_cell_setting           orthorhombic
_symmetry_space_group_name_H-M   'P 21 21 21'
_symmetry_Int_Tables_number      19
_space_group_name_Hall           'P 2ac 2ab'
loop_
_symmetry_equiv_pos_site_id
_symmetry_equiv_pos_as_xyz
1 x,y,z
2 1/2-x,-y,1/2+z
3 1/2+x,1/2-y,-z
4 -x,1/2+y,1/2-z
_cell_length_a                   9.67492(11)
_cell_length_b                   14.41358(14)
_cell_length_c                   20.62930(17)
_cell_angle_alpha                90
_cell_angle_beta                 90
_cell_angle_gamma                90
_cell_volume                     2876.76
_exptl_crystal_colour            colorless
_exptl_crystal_description       block
_cell_formula_units_Z            4
_exptl_crystal_recrystallization_method dichloromethane/methanol
loop_
_atom_site_label
_atom_site_type_symbol
_atom_site_fract_x
_atom_site_fract_y
_atom_site_fract_z
O1 O 0.14221(12) 0.93963(7) 0.10454(5)
O2 O 0.30228(11) 1.38554(7) 0.15661(5)
O3 O 0.16480(11) 1.14755(6) 0.24589(4)
O4 O 0.07763(13) 1.33027(7) 0.22614(5)
H1 H 0.1057 1.3115 0.2613
O5 O 0.21418(12) 1.00610(8) 0.37888(5)
O6 O -0.03643(14) 0.85411(9) 0.14058(5)
C1 C 0.16215(16) 1.05409(10) 0.26986(6)
O7 O 0.37174(15) 1.40948(8) 0.25999(5)
C2 C 0.35476(16) 1.53796(10) 0.18733(7)
C3 C 0.34285(17) 1.23319(10) 0.10873(6)
C4 C 0.34296(17) 1.43852(10) 0.20660(7)
C5 C 0.34013(18) 1.56668(11) 0.12317(7)
H2 H 0.3177 1.5239 0.0911
C6 C 0.12965(17) 1.27251(10) 0.17596(7)
H3 H 0.0852 1.2923 0.1356
C7 C 0.07770(18) 0.98832(11) 0.36982(7)
C8 C 0.38593(16) 1.60264(11) 0.23521(7)
H4 H 0.3960 1.5837 0.2780
C9 C 0.50195(17) 1.23861(10) 0.10720(6)
C10 C 0.28435(17) 1.28665(10) 0.16737(6)
H5 H 0.3331 1.2680 0.2069
O8 O 0.01231(14) 0.94710(9) 0.40995(5)
C11 C 0.09024(16) 1.17060(10) 0.18690(6)
C12 C 0.19612(17) 0.98382(10) 0.21579(7)
H6 H 0.2944 0.9851 0.2066
H7 H 0.1719 0.9217 0.2299
C13 C 0.17049(19) 0.82568(11) -0.00415(7)
H8 H 0.2084 0.8848 -0.0071
C14 C 0.52779(17) 1.07055(11) 0.07680(7)
H9 H 0.5538 1.0283 0.1113
H10 H 0.5716 1.0493 0.0372
C15 C 0.37169(17) 1.06786(11) 0.06816(7)
H11 H 0.3392 1.0045 0.0721
H12 H 0.3477 1.0901 0.0252
C16 C 0.05716(18) 0.86610(11) 0.10275(7)
C17 C 0.3591(2) 1.65917(12) 0.10734(8)
H13 H 0.3516 1.6781 0.0644
C18 C 0.1935(2) 0.76076(12) -0.05270(8)
H14 H 0.2465 0.7770 -0.0886
C19 C 0.30125(16) 1.12878(10) 0.11962(6)
H15 H 0.3453 1.1114 0.1606
C20 C 0.29037(18) 1.27656(11) 0.04474(7)
H16 H 0.3406 1.3326 0.0361
H17 H 0.1937 1.2904 0.0486
H18 H 0.3043 1.2335 0.0098
C21 C 0.14411(16) 1.10819(10) 0.12991(6)
C22 C 0.38937(19) 1.72376(11) 0.15527(9)
H19 H 0.4011 1.7859 0.1446
C23 C -0.06644(17) 1.16705(11) 0.19724(7)
H20 H -0.0956 1.1036 0.2008
H21 H -0.1121 1.1957 0.1611
H22 H -0.0898 1.1996 0.2363
C24 C 0.08972(18) 0.80085(11) 0.04912(7)
C25 C 0.57284(18) 1.33035(11) 0.11875(7)
H23 H 0.5325 1.3768 0.0913
H24 H 0.6695 1.3245 0.1090
H25 H 0.5616 1.3481 0.1633
C26 C 0.57959(18) 1.16523(11) 0.09267(6)
H26 H 0.6748 1.1739 0.0924
C27 C 0.27297(17) 1.05184(11) 0.32343(6)
H27 H 0.3539 1.0184 0.3085
H28 H 0.3006 1.1145 0.3347
C28 C 0.1389(2) 0.67249(12) -0.04855(8)
H29 H 0.1553 0.6297 -0.0814
C29 C 0.0362(2) 0.71192(11) 0.05308(8)
H30 H -0.0164 0.6950 0.0889
C30 C 0.40193(18) 1.69510(11) 0.21895(8)
H31 H 0.4213 1.7384 0.2511
C31 C 0.05692(18) 1.12047(12) 0.06826(7)
H32 H -0.0341 1.0960 0.0755
H33 H 0.0998 1.0878 0.0330
H34 H 0.0506 1.1852 0.0578
C32 C 0.11559(17) 1.00827(10) 0.15501(7)
H35 H 0.0171 1.0046 0.1658
C33 C 0.0599(2) 0.64796(12) 0.00445(8)
H36 H 0.0228 0.5886 0.0074
C34 C 0.02954(17) 1.02978(11) 0.30684(7)
H37 H -0.0255 1.0849 0.3146
H38 H -0.0255 0.9855 0.2826
loop_
_geom_bond_atom_site_label_1
_geom_bond_atom_site_label_2
_geom_bond_site_symmetry_1
_geom_bond_site_symmetry_2
O1 C16 1_555 1_555
O2 C4 1_555 1_555
O3 C1 1_555 1_555
O4 H1 1_555 1_555
O5 C7 1_555 1_555
O6 C16 1_555 1_555
C1 C12 1_555 1_555
O7 C4 1_555 1_555
C2 C4 1_555 1_555
C3 C9 1_555 1_555
C5 C2 1_555 1_555
H2 C5 1_555 1_555
C6 O4 1_555 1_555
H3 C6 1_555 1_555
C7 O8 1_555 1_555
C8 C2 1_555 1_555
H4 C8 1_555 1_555
C9 C25 1_555 1_555
C10 O2 1_555 1_555
H5 C10 1_555 1_555
C11 O3 1_555 1_555
C12 H6 1_555 1_555
H7 C12 1_555 1_555
C13 H8 1_555 1_555
C14 H9 1_555 1_555
H10 C14 1_555 1_555
C15 C14 1_555 1_555
H11 C15 1_555 1_555
H12 C15 1_555 1_555
C16 C24 1_555 1_555
C17 C5 1_555 1_555
H13 C17 1_555 1_555
C18 C13 1_555 1_555
H14 C18 1_555 1_555
C19 C3 1_555 1_555
H15 C19 1_555 1_555
C20 C3 1_555 1_555
H16 C20 1_555 1_555
H17 C20 1_555 1_555
H18 C20 1_555 1_555
C21 C11 1_555 1_555
C22 C17 1_555 1_555
H19 C22 1_555 1_555
C23 C11 1_555 1_555
H20 C23 1_555 1_555
H21 C23 1_555 1_555
H22 C23 1_555 1_555
C24 C13 1_555 1_555
C25 H23 1_555 1_555
H24 C25 1_555 1_555
H25 C25 1_555 1_555
C26 C9 1_555 1_555
H26 C26 1_555 1_555
C27 O5 1_555 1_555
H27 C27 1_555 1_555
H28 C27 1_555 1_555
C28 C18 1_555 1_555
H29 C28 1_555 1_555
C29 C24 1_555 1_555
H30 C29 1_555 1_555
C30 C8 1_555 1_555
H31 C30 1_555 1_555
C31 C21 1_555 1_555
H32 C31 1_555 1_555
H33 C31 1_555 1_555
H34 C31 1_555 1_555
C32 O1 1_555 1_555
H35 C32 1_555 1_555
C33 C28 1_555 1_555
H36 C33 1_555 1_555
C34 C1 1_555 1_555
H37 C34 1_555 1_555
H38 C34 1_555 1_555
C1 C27 1_555 1_555
C3 C10 1_555 1_555
C6 C10 1_555 1_555
C6 C11 1_555 1_555
C7 C34 1_555 1_555
C12 C32 1_555 1_555
C14 C26 1_555 1_555
C15 C19 1_555 1_555
C19 C21 1_555 1_555
C21 C32 1_555 1_555
C22 C30 1_555 1_555
C29 C33 1_555 1_555

#END
