
#######################################################################
#
#                 Cambridge Crystallographic Data Centre
#                                CCDC 
#
#######################################################################
#
# If this CIF has been generated from an entry in the Cambridge 
# Structural Database, then it will include bibliographic, chemical, 
# crystal, experimental, refinement or atomic coordinate data resulting 
# from the CCDC's data processing and validation procedures.
#
#######################################################################

data_XUCHOU
_chemical_formula_moiety         'C10 H10 N2 2+,C4 O4 2-'
_chemical_name_systematic        "4,4'-Bipyridinium but-2-ynedioate"
_symmetry_cell_setting           triclinic
_symmetry_space_group_name_H-M   'P -1'
_symmetry_Int_Tables_number      2
_space_group_name_Hall           '-P 1'
loop_
_symmetry_equiv_pos_site_id
_symmetry_equiv_pos_as_xyz
1 x,y,z
2 -x,-y,-z
_cell_length_a                   3.8050(3)
_cell_length_b                   8.6739(7)
_cell_length_c                   9.9138(8)
_cell_angle_alpha                114.334(3)
_cell_angle_beta                 96.159(3)
_cell_angle_gamma                98.995(3)
_cell_volume                     289.052
_exptl_crystal_colour            colorless
_exptl_crystal_description       plate
_cell_formula_units_Z            1
loop_
_atom_site_label
_atom_site_type_symbol
_atom_site_fract_x
_atom_site_fract_y
_atom_site_fract_z
N1 N 0.2778(3) 0.38063(13) 0.24637(11)
H1 H 0.210(4) 0.4767(14) 0.3075(15)
C1 C 0.3057(3) 0.25583(15) 0.28971(13)
H2 H 0.2642 0.2713 0.3868
C2 C 0.3942(3) 0.10455(15) 0.19538(13)
H3 H 0.4137 0.0166 0.2276
C3 C 0.4546(3) 0.08125(13) 0.05294(12)
C4 C 0.4219(3) 0.21391(16) 0.01106(14)
H4 H 0.4609 0.2026 -0.0853
C5 C 0.3326(4) 0.36181(16) 0.11060(15)
H5 H 0.3098 0.4521 0.0817
N1A N 0.7222(3) -0.38063(13) -0.24637(11)
H1A H 0.790(4) -0.4767(14) -0.3075(15)
C1A C 0.6943(3) -0.25583(15) -0.28971(13)
H2A H 0.7358 -0.2713 -0.3868
C2A C 0.6058(3) -0.10455(15) -0.19538(13)
H3A H 0.5863 -0.0166 -0.2276
C3A C 0.5454(3) -0.08125(13) -0.05294(12)
C4A C 0.5781(3) -0.21391(16) -0.01106(14)
H4A H 0.5391 -0.2026 0.0853
C5A C 0.6674(4) -0.36181(16) -0.11060(15)
H5A H 0.6902 -0.4521 -0.0817
C6 C 0.0882(3) 0.76011(15) 0.36049(13)
C7 C 0.0243(3) 0.93075(16) 0.45982(14)
O1 O 0.1344(3) 0.73297(12) 0.23308(11)
O2 O 0.0909(3) 0.65538(11) 0.41973(10)
C6A C -0.0882(3) 1.23989(15) 0.63951(13)
C7A C -0.0243(3) 1.06925(16) 0.54018(14)
O1A O -0.1344(3) 1.26703(12) 0.76692(11)
O2A O -0.0909(3) 1.34462(11) 0.58027(10)
loop_
_geom_bond_atom_site_label_1
_geom_bond_atom_site_label_2
_geom_bond_site_symmetry_1
_geom_bond_site_symmetry_2
N1 H1 1_555 1_555
C1 N1 1_555 1_555
H2 C1 1_555 1_555
C2 C1 1_555 1_555
H3 C2 1_555 1_555
C3 C2 1_555 1_555
C4 C3 1_555 1_555
H4 C4 1_555 1_555
C5 N1 1_555 1_555
H5 C5 1_555 1_555
C6 C7 1_555 1_555
C7 C7A 1_555 1_555
O1 C6 1_555 1_555
O2 C6 1_555 1_555
N1A H1A 1_555 1_555
C1A N1A 1_555 1_555
H2A C1A 1_555 1_555
C2A C1A 1_555 1_555
H3A C2A 1_555 1_555
C3A C3 1_555 1_555
C4A C3A 1_555 1_555
H4A C4A 1_555 1_555
C5A N1A 1_555 1_555
H5A C5A 1_555 1_555
C6A C7A 1_555 1_555
O1A C6A 1_555 1_555
O2A C6A 1_555 1_555
C4 C5 1_555 1_555
C2A C3A 1_555 1_555
C4A C5A 1_555 1_555

#END
