
#######################################################################
#
#                 Cambridge Crystallographic Data Centre
#                                CCDC 
#
#######################################################################
#
# If this CIF has been generated from an entry in the Cambridge 
# Structural Database, then it will include bibliographic, chemical, 
# crystal, experimental, refinement or atomic coordinate data resulting 
# from the CCDC's data processing and validation procedures.
#
#######################################################################

data_XUCMOY
_chemical_name_common            
4,5,9,10,14,15,21-Heptaethyl-20-methyl-22,23,24,25-tetraazapentacyclo[16.3.1.1$3,6!.1$8,11!.1$13,16!]pentacosa-1(22),2,4,6,8(24),9,11,13,15,17,20-undecaen-19-one
_chemical_formula_moiety         'C36 H44 N4 O1'
_chemical_name_systematic        
3,7,8,12,13,17,18-Heptaethyl-2a-methyl-2-oxo-2a-homoporphyrin
_symmetry_cell_setting           triclinic
_symmetry_space_group_name_H-M   'P -1'
_symmetry_Int_Tables_number      2
_space_group_name_Hall           '-P 1'
loop_
_symmetry_equiv_pos_site_id
_symmetry_equiv_pos_as_xyz
1 x,y,z
2 -x,-y,-z
_cell_length_a                   9.221(3)
_cell_length_b                   13.466(4)
_cell_length_c                   13.493(4)
_cell_angle_alpha                71.062(4)
_cell_angle_beta                 73.391(4)
_cell_angle_gamma                76.189(4)
_cell_volume                     1498.8
_exptl_crystal_colour            black
_exptl_crystal_description       plate
_cell_formula_units_Z            2
_exptl_crystal_recrystallization_method methanol/dichloromethane
loop_
_atom_site_label
_atom_site_type_symbol
_atom_site_fract_x
_atom_site_fract_y
_atom_site_fract_z
C1 C 0.2857(4) 0.3262(2) 0.1506(3)
H2 H 0.3335 0.3437 0.0761
C2 C 0.3156(4) 0.2205(2) 0.2120(2)
C3 C 0.4138(4) 0.0459(3) 0.2572(3)
C4 C 0.3002(4) 0.0755(2) 0.3465(3)
C5 C 0.4305(10) 0.1391(7) 0.1804(6)
C6 C 0.5409(8) 0.1509(7) 0.0716(6)
H3 H 0.5780 0.2200 0.0478
H4 H 0.6306 0.0934 0.0766
C7 C 0.4604(9) 0.1452(6) -0.0084(6)
H5 H 0.4187 0.0785 0.0176
H6 H 0.5333 0.1480 -0.0779
H7 H 0.3766 0.2055 -0.0172
C11 C 0.4993(5) -0.0644(3) 0.2600(4)
H13 H 0.5372 -0.0711 0.1856
H14 H 0.4287 -0.1164 0.3004
C12 C 0.6348(5) -0.0900(3) 0.3129(4)
H15 H 0.7084 -0.0416 0.2703
H16 H 0.6850 -0.1636 0.3166
H17 H 0.5980 -0.0813 0.3858
C13 C 0.2710(7) -0.0059(4) 0.4389(5)
H18 H 0.3268 -0.0755 0.4417
N1 N 0.0777(6) 0.1105(4) 0.5344(4)
H19 H 0.0870 0.1703 0.4829
C14 C 0.1605(7) 0.0130(4) 0.5283(5)
C15 C 0.1098(8) -0.0634(5) 0.6289(5)
C16 C 0.0032(5) -0.0091(4) 0.6936(4)
C17 C -0.0224(6) 0.1008(4) 0.6334(4)
C18 C 0.1796(9) -0.1789(6) 0.6584(7)
H20 H 0.1895 -0.2085 0.5981
H21 H 0.1092 -0.2176 0.7219
C19 C 0.3382(11) -0.1990(9) 0.6842(11)
H22 H 0.4053 -0.1544 0.6254
H23 H 0.3832 -0.2741 0.6923
H24 H 0.3269 -0.1814 0.7513
C20 C -0.0755(6) -0.0521(4) 0.8094(4)
H25 H -0.0724 -0.1295 0.8249
H26 H -0.1845 -0.0181 0.8209
C21 C -0.0005(8) -0.0321(5) 0.8879(4)
H27 H 0.1064 -0.0677 0.8786
H28 H -0.0562 -0.0605 0.9619
H29 H -0.0039 0.0445 0.8732
N3 N 0.2434(3) 0.18220(19) 0.31714(19)
C31 C -0.1302(6) 0.1793(4) 0.6687(4)
H43 H -0.1864 0.1539 0.7403
N4 N -0.1142(6) 0.3436(3) 0.5251(4)
C32 C -0.1769(6) 0.2882(4) 0.6241(4)
C33 C -0.3060(6) 0.3363(4) 0.6994(4)
C34 C -0.3524(6) 0.4502(3) 0.6657(5)
C35 C -0.2838(8) 0.5042(5) 0.5683(6)
C36 C -0.1651(6) 0.4494(4) 0.4939(4)
C37 C -0.1080(7) 0.5112(4) 0.3910(5)
H44 H -0.1552 0.5837 0.3789
O1 O -0.3693(5) 0.2817(3) 0.7869(3)
C38 C -0.4826(6) 0.4964(4) 0.7431(4)
H45 H -0.4530 0.5555 0.7562
H46 H -0.5061 0.4414 0.8111
H47 H -0.5733 0.5225 0.7122
C39 C -0.3227(10) 0.6293(7) 0.5321(9)
H48 H -0.3475 0.6581 0.5948
H49 H -0.2342 0.6597 0.4792
C40 C -0.4608(11) 0.6571(10) 0.4815(10)
H50 H -0.4347 0.6278 0.4197
H51 H -0.4888 0.7346 0.4574
H52 H -0.5475 0.6267 0.5348
N6 N 0.0901(6) 0.3955(4) 0.2925(4)
H63 H 0.0833 0.3348 0.3430
C51 C 0.0029(7) 0.4911(5) 0.3016(5)
C52 C 0.0550(7) 0.5699(4) 0.2007(5)
C53 C 0.1665(7) 0.5177(4) 0.1343(5)
C54 C 0.1899(8) 0.4076(5) 0.1932(5)
C55 C -0.0104(7) 0.6872(5) 0.1778(6)
H64 H -0.0305 0.7097 0.2441
H65 H 0.0664 0.7281 0.1223
C56 C -0.1517(10) 0.7119(9) 0.1407(7)
H66 H -0.1333 0.6873 0.0767
H67 H -0.1863 0.7890 0.1229
H68 H -0.2306 0.6761 0.1977
C57 C 0.2576(10) 0.5667(7) 0.0241(6)
H69 H 0.2757 0.6372 0.0213
H70 H 0.3585 0.5211 0.0102
C58 C 0.1790(12) 0.5785(9) -0.0568(7)
H71 H 0.1555 0.5094 -0.0512
H72 H 0.2440 0.6054 -0.1279
H73 H 0.0834 0.6289 -0.0470
H1? H 0.3580 0.3429 0.0838
C8? C 0.4036(15) 0.1323(10) 0.1662(8)
C9? C 0.4910(11) 0.1444(9) 0.0505(7)
H8? H 0.4681 0.0903 0.0245
H9? H 0.4524 0.2153 0.0065
C10? C 0.6617(10) 0.1336(8) 0.0318(7)
H10? H 0.6872 0.1955 0.0426
H11? H 0.7095 0.1297 -0.0420
H12? H 0.6999 0.0687 0.0826
C22? C -0.1036(10) 0.5500(6) 0.3488(6)
H30? H -0.1437 0.6238 0.3350
N2? N -0.0986(7) 0.3805(5) 0.4890(5)
H31? H -0.0345 0.3407 0.4495
C23? C -0.1471(9) 0.4865(6) 0.4537(7)
C24? C -0.2495(10) 0.5226(6) 0.5425(6)
C25? C -0.2592(8) 0.4364(5) 0.6282(5)
C26? C -0.1656(9) 0.3452(6) 0.5963(6)
C27? C -0.3416(12) 0.6300(8) 0.5354(11)
H32? H -0.2731 0.6832 0.4938
H33? H -0.3797 0.6387 0.6090
C28? C -0.4789(13) 0.6555(12) 0.4839(13)
H34? H -0.4440 0.6447 0.4119
H35? H -0.5271 0.7297 0.4785
H36? H -0.5536 0.6085 0.5284
C29? C -0.3526(9) 0.4308(7) 0.7429(6)
H37? H -0.2936 0.3787 0.7939
H38? H -0.3665 0.5012 0.7556
C30? C -0.5092(9) 0.3993(7) 0.7668(7)
H39? H -0.5634 0.4442 0.7108
H40? H -0.5687 0.4088 0.8369
H41? H -0.4967 0.3246 0.7681
H42? H 0.1743 0.2187 0.3579
C41? C -0.1432(8) 0.2440(6) 0.6633(6)
H53? H -0.2020 0.2378 0.7348
N5? N 0.0416(8) 0.1363(5) 0.5561(6)
C42? C -0.0513(9) 0.1469(6) 0.6488(6)
C43? C -0.0721(8) 0.0591(5) 0.7511(6)
C44? C 0.0140(9) -0.0432(6) 0.7444(7)
C45? C 0.1063(14) -0.0527(8) 0.6501(8)
C46? C 0.1225(10) 0.0391(7) 0.5507(7)
C47? C 0.2290(10) 0.0213(6) 0.4604(8)
H54? H 0.2734 -0.0518 0.4759
O2? O -0.1577(7) 0.0744(4) 0.8373(4)
C48? C -0.0096(9) -0.1319(6) 0.8476(7)
H55? H -0.0760 -0.1768 0.8436
H56? H -0.0580 -0.1015 0.9084
H57? H 0.0897 -0.1749 0.8578
C49? C 0.1855(14) -0.1686(8) 0.6379(10)
H58? H 0.1170 -0.2214 0.6812
H59? H 0.2100 -0.1692 0.5617
C50? C 0.3323(16) -0.1938(13) 0.6791(15)
H60? H 0.4083 -0.1520 0.6262
H61? H 0.3734 -0.2698 0.6901
H62? H 0.3090 -0.1759 0.7474
N7? N 0.0717(11) 0.4104(7) 0.2679(7)
C59? C -0.0038(12) 0.5138(7) 0.2602(8)
C60? C 0.0365(14) 0.5823(7) 0.1529(8)
C61? C 0.1423(14) 0.5181(8) 0.0951(7)
C62? C 0.1685(14) 0.4138(8) 0.1682(7)
C63? C -0.0081(13) 0.7056(8) 0.1168(9)
H74? H -0.0052 0.7369 0.1730
H75? H 0.0640 0.7363 0.0495
C64? C -0.1631(13) 0.7276(10) 0.0996(11)
H76? H -0.2023 0.8038 0.0879
H77? H -0.2299 0.6874 0.1630
H78? H -0.1614 0.7062 0.0363
C65? C 0.2442(14) 0.5581(11) -0.0174(8)
H79? H 0.2656 0.6297 -0.0272
H80? H 0.3431 0.5092 -0.0262
C66? C 0.1616(17) 0.5620(13) -0.0963(9)
H81? H 0.2123 0.6014 -0.1679
H82? H 0.0558 0.5977 -0.0774
H83? H 0.1610 0.4894 -0.0967
loop_
_geom_bond_atom_site_label_1
_geom_bond_atom_site_label_2
_geom_bond_site_symmetry_1
_geom_bond_site_symmetry_2
C1 H2 1_555 1_555
C2 C1 1_555 1_555
C3 C4 1_555 1_555
C4 C13 1_555 1_555
C5 C2 1_555 1_555
C6 C5 1_555 1_555
H3 C6 1_555 1_555
H4 C6 1_555 1_555
C7 C6 1_555 1_555
H5 C7 1_555 1_555
H6 C7 1_555 1_555
H7 C7 1_555 1_555
C11 C3 1_555 1_555
H13 C11 1_555 1_555
H14 C11 1_555 1_555
C12 C11 1_555 1_555
H15 C12 1_555 1_555
H16 C12 1_555 1_555
H17 C12 1_555 1_555
C13 H18 1_555 1_555
N1 H19 1_555 1_555
C14 C13 1_555 1_555
C15 C14 1_555 1_555
C16 C15 1_555 1_555
C17 N1 1_555 1_555
C18 C15 1_555 1_555
H20 C18 1_555 1_555
H21 C18 1_555 1_555
C19 C18 1_555 1_555
H22 C19 1_555 1_555
H23 C19 1_555 1_555
H24 C19 1_555 1_555
C20 C16 1_555 1_555
H25 C20 1_555 1_555
H26 C20 1_555 1_555
C21 C20 1_555 1_555
H27 C21 1_555 1_555
H28 C21 1_555 1_555
H29 C21 1_555 1_555
N3 C2 1_555 1_555
C31 C17 1_555 1_555
H43 C31 1_555 1_555
N4 C32 1_555 1_555
C32 C31 1_555 1_555
C33 C32 1_555 1_555
C34 C33 1_555 1_555
C35 C34 1_555 1_555
C36 N4 1_555 1_555
C37 C36 1_555 1_555
H44 C37 1_555 1_555
O1 C33 1_555 1_555
C38 C34 1_555 1_555
H45 C38 1_555 1_555
H46 C38 1_555 1_555
H47 C38 1_555 1_555
C39 C35 1_555 1_555
H48 C39 1_555 1_555
H49 C39 1_555 1_555
C40 C39 1_555 1_555
H50 C40 1_555 1_555
H51 C40 1_555 1_555
H52 C40 1_555 1_555
N6 H63 1_555 1_555
C51 C37 1_555 1_555
C52 C51 1_555 1_555
C53 C52 1_555 1_555
C54 C1 1_555 1_555
C55 C52 1_555 1_555
H64 C55 1_555 1_555
H65 C55 1_555 1_555
C56 C55 1_555 1_555
H66 C56 1_555 1_555
H67 C56 1_555 1_555
H68 C56 1_555 1_555
C57 C53 1_555 1_555
H69 C57 1_555 1_555
H70 C57 1_555 1_555
C58 C57 1_555 1_555
H71 C58 1_555 1_555
H72 C58 1_555 1_555
H73 C58 1_555 1_555
C3 C5 1_555 1_555
C4 N3 1_555 1_555
N1 C14 1_555 1_555
C16 C17 1_555 1_555
C35 C36 1_555 1_555
N6 C51 1_555 1_555
N6 C54 1_555 1_555
C53 C54 1_555 1_555

#END
