
#######################################################################
#
#                 Cambridge Crystallographic Data Centre
#                                CCDC 
#
#######################################################################
#
# If this CIF has been generated from an entry in the Cambridge 
# Structural Database, then it will include bibliographic, chemical, 
# crystal, experimental, refinement or atomic coordinate data resulting 
# from the CCDC's data processing and validation procedures.
#
#######################################################################

data_XUCTAS
_chemical_formula_moiety         'C74 H92 N8 O2 Si4,2(C2 H3 N1)'
_chemical_name_systematic        
"6,10,17,21-tetrakis((triisopropylsilyl)ethynyl)quinoxalino[2,3-b]quinoxalino[2',3':6,7]quinoxalino[2,3-i]phenazine-8,19-dione acetonitrile solvate"
_symmetry_cell_setting           triclinic
_symmetry_space_group_name_H-M   'P -1'
_symmetry_Int_Tables_number      2
_space_group_name_Hall           '-P 1'
loop_
_symmetry_equiv_pos_site_id
_symmetry_equiv_pos_as_xyz
1 x,y,z
2 -x,-y,-z
_cell_length_a                   7.758(14)
_cell_length_b                   14.40(2)
_cell_length_c                   18.31(4)
_cell_angle_alpha                110.45(4)
_cell_angle_beta                 96.59(4)
_cell_angle_gamma                101.37(3)
_cell_volume                     1841.05
_exptl_crystal_colour            green
_exptl_crystal_description       prism
_cell_formula_units_Z            1
loop_
_atom_site_label
_atom_site_type_symbol
_atom_site_fract_x
_atom_site_fract_y
_atom_site_fract_z
C1 C 0.8931(12) -0.0559(7) 0.5754(6)
H1 H 0.9608 -0.0210 0.6282
C2 C 0.8726(13) -0.1566(7) 0.5374(6)
H2 H 0.9308 -0.1920 0.5636
C3 C 0.7680(12) -0.2125(7) 0.4600(5)
H3 H 0.7537 -0.2844 0.4359
C4 C 0.6872(12) -0.1634(7) 0.4199(5)
H4 H 0.6187 -0.2004 0.3674
C5 C 0.7067(13) -0.0570(7) 0.4572(6)
C6 C 0.6502(12) 0.0929(7) 0.4543(5)
C7 C 0.5655(12) 0.1441(6) 0.4134(5)
C8 C 0.5792(12) 0.2475(7) 0.4548(5)
C9 C 0.5019(11) 0.3938(7) 0.4575(5)
C10 C 0.4077(13) 0.4478(7) 0.4146(6)
C11 C 0.5921(12) 0.4449(7) 0.5366(5)
C12 C 0.6755(11) 0.3017(6) 0.5338(5)
C13 C 0.7674(12) 0.2504(7) 0.5726(6)
C14 C 0.7501(12) 0.1453(7) 0.5328(5)
C15 C 0.8116(11) -0.0018(6) 0.5352(5)
C16 C 0.4721(12) 0.0963(6) 0.3343(5)
C17 C 0.3949(12) 0.0642(6) 0.2659(5)
C18 C 0.2471(13) -0.1077(7) 0.1103(5)
H5 H 0.1574 -0.1415 0.1342
C19 C 0.4201(13) -0.1423(7) 0.1232(6)
H6 H 0.4016 -0.2140 0.0877
H7 H 0.4498 -0.1356 0.1786
H8 H 0.5188 -0.0993 0.1114
C20 C 0.1698(14) -0.1467(7) 0.0206(5)
H9 H 0.2620 -0.1238 -0.0061
H10 H 0.0665 -0.1192 0.0123
H11 H 0.1316 -0.2217 -0.0014
C21 C 0.0684(12) 0.0706(7) 0.1646(5)
H12 H 0.0215 0.0637 0.1092
C22 C -0.0692(12) 0.0013(8) 0.1844(6)
H13 H -0.0315 0.0080 0.2393
H14 H -0.0836 -0.0697 0.1482
H15 H -0.1838 0.0196 0.1787
C23 C 0.0983(14) 0.1833(7) 0.2177(7)
H16 H -0.0174 0.2011 0.2182
H17 H 0.1765 0.2262 0.1971
H18 H 0.1548 0.1951 0.2719
C24 C 0.4473(12) 0.1082(7) 0.1212(5)
H19 H 0.5253 0.0630 0.0973
C25 C 0.5727(13) 0.2051(7) 0.1830(6)
H20 H 0.6610 0.2350 0.1580
H21 H 0.6349 0.1888 0.2249
H22 H 0.5036 0.2542 0.2063
C26 C 0.3473(12) 0.1273(7) 0.0522(6)
H23 H 0.2619 0.1675 0.0716
H24 H 0.2824 0.0615 0.0100
H25 H 0.4340 0.1652 0.0311
C27 C 0.8700(12) 0.3052(7) 0.6513(6)
C28 C 0.9587(12) 0.3540(6) 0.7172(6)
C29 C 1.1469(13) 0.3066(7) 0.8412(5)
H26 H 1.0273 0.2605 0.8356
C30 C 1.2451(14) 0.3378(7) 0.9268(5)
H27 H 1.2520 0.2761 0.9372
H28 H 1.1797 0.3773 0.9636
H29 H 1.3666 0.3798 0.9344
C31 C 1.2444(14) 0.2415(7) 0.7825(6)
H30 H 1.3668 0.2815 0.7889
H31 H 1.1796 0.2215 0.7279
H32 H 1.2487 0.1798 0.7933
C32 C 0.9621(13) 0.4848(7) 0.8837(5)
H33 H 1.0379 0.5207 0.9384
C33 C 0.7975(12) 0.4071(7) 0.8873(6)
H34 H 0.7204 0.4442 0.9185
H35 H 0.8381 0.3632 0.9125
H36 H 0.7297 0.3647 0.8333
C34 C 0.9033(13) 0.5653(7) 0.8572(6)
H37 H 0.8349 0.5322 0.8024
H38 H 1.0095 0.6172 0.8600
H39 H 0.8279 0.5981 0.8923
C35 C 1.2924(12) 0.5129(6) 0.8147(5)
H40 H 1.2400 0.5627 0.7987
C36 C 1.4169(13) 0.5758(7) 0.8958(6)
H41 H 1.4682 0.5300 0.9157
H42 H 1.3484 0.6110 0.9334
H43 H 1.5139 0.6264 0.8904
C37 C 1.4035(13) 0.4709(7) 0.7525(6)
H44 H 1.4955 0.5277 0.7516
H45 H 1.3246 0.4353 0.6999
H46 H 1.4613 0.4228 0.7661
N1 N 0.6285(10) -0.0096(6) 0.4160(5)
N2 N 0.4957(10) 0.2980(6) 0.4160(4)
N3 N 0.6805(10) 0.4010(6) 0.5752(5)
N4 N 0.8341(10) 0.0974(6) 0.5736(4)
O1 O 0.3380(9) 0.4045(5) 0.3455(4)
Si1 Si 0.2869(4) 0.0328(2) 0.16292(16)
Si2 Si 1.1000(4) 0.4157(2) 0.81649(16)
C1A C 0.1069(12) 1.0559(7) 0.4246(6)
H1A H 0.0392 1.0210 0.3718
C2A C 0.1274(13) 1.1566(7) 0.4626(6)
H2A H 0.0692 1.1920 0.4364
C3A C 0.2320(12) 1.2125(7) 0.5400(5)
H3A H 0.2463 1.2844 0.5641
C4A C 0.3128(12) 1.1634(7) 0.5801(5)
H4A H 0.3813 1.2004 0.6326
C5A C 0.2933(13) 1.0570(7) 0.5428(6)
C6A C 0.3498(12) 0.9071(7) 0.5457(5)
C7A C 0.4345(12) 0.8559(6) 0.5866(5)
C8A C 0.4208(12) 0.7525(7) 0.5452(5)
C9A C 0.4981(11) 0.6062(7) 0.5425(5)
C10A C 0.5923(13) 0.5522(7) 0.5854(6)
C11A C 0.4079(12) 0.5551(7) 0.4634(5)
C12A C 0.3245(11) 0.6983(6) 0.4662(5)
C13A C 0.2326(12) 0.7496(7) 0.4274(6)
C14A C 0.2499(12) 0.8547(7) 0.4672(5)
C15A C 0.1884(11) 1.0018(6) 0.4648(5)
C16A C 0.5279(12) 0.9037(6) 0.6657(5)
C17A C 0.6051(12) 0.9358(6) 0.7341(5)
C18A C 0.7529(13) 1.1077(7) 0.8897(5)
H5A H 0.8426 1.1415 0.8658
C19A C 0.5799(13) 1.1423(7) 0.8768(6)
H6A H 0.5984 1.2140 0.9123
H7A H 0.5502 1.1356 0.8214
H8A H 0.4812 1.0993 0.8886
C20A C 0.8302(14) 1.1467(7) 0.9794(5)
H9A H 0.7380 1.1238 1.0061
H10A H 0.9335 1.1192 0.9877
H11A H 0.8684 1.2217 1.0014
C21A C 0.9316(12) 0.9294(7) 0.8354(5)
H12A H 0.9785 0.9363 0.8908
C22A C 1.0692(12) 0.9987(8) 0.8156(6)
H13A H 1.0315 0.9920 0.7607
H14A H 1.0836 1.0697 0.8518
H15A H 1.1838 0.9804 0.8213
C23A C 0.9017(14) 0.8167(7) 0.7823(7)
H16A H 1.0174 0.7989 0.7818
H17A H 0.8235 0.7738 0.8029
H18A H 0.8452 0.8049 0.7281
C24A C 0.5527(12) 0.8918(7) 0.8788(5)
H19A H 0.4747 0.9370 0.9027
C25A C 0.4273(13) 0.7949(7) 0.8170(6)
H20A H 0.3390 0.7650 0.8420
H21A H 0.3651 0.8112 0.7751
H22A H 0.4964 0.7458 0.7937
C26A C 0.6527(12) 0.8727(7) 0.9478(6)
H23A H 0.7381 0.8325 0.9284
H24A H 0.7176 0.9385 0.9900
H25A H 0.5660 0.8348 0.9689
C27A C 0.1300(12) 0.6948(7) 0.3487(6)
C28A C 0.0413(12) 0.6460(6) 0.2828(6)
C29A C -0.1469(13) 0.6934(7) 0.1588(5)
H26A H -0.0273 0.7395 0.1644
C30A C -0.2451(14) 0.6622(7) 0.0732(5)
H27A H -0.2520 0.7239 0.0628
H28A H -0.1797 0.6227 0.0364
H29A H -0.3666 0.6202 0.0656
C31A C -0.2444(14) 0.7585(7) 0.2175(6)
H30A H -0.3668 0.7185 0.2111
H31A H -0.1796 0.7785 0.2721
H32A H -0.2487 0.8202 0.2067
C32A C 0.0379(13) 0.5152(7) 0.1163(5)
H33A H -0.0379 0.4793 0.0616
C33A C 0.2025(12) 0.5929(7) 0.1127(6)
H34A H 0.2796 0.5558 0.0815
H35A H 0.1619 0.6368 0.0875
H36A H 0.2703 0.6353 0.1667
C34A C 0.0967(13) 0.4347(7) 0.1428(6)
H37A H 0.1651 0.4678 0.1976
H38A H -0.0095 0.3828 0.1400
H39A H 0.1721 0.4019 0.1077
C35A C -0.2924(12) 0.4871(6) 0.1853(5)
H40A H -0.2400 0.4373 0.2013
C36A C -0.4169(13) 0.4242(7) 0.1042(6)
H41A H -0.4682 0.4700 0.0843
H42A H -0.3484 0.3890 0.0666
H43A H -0.5139 0.3736 0.1096
C37A C -0.4035(13) 0.5291(7) 0.2475(6)
H44A H -0.4955 0.4723 0.2484
H45A H -0.3246 0.5647 0.3001
H46A H -0.4613 0.5772 0.2339
N1A N 0.3715(10) 1.0096(6) 0.5840(5)
N2A N 0.5043(10) 0.7020(6) 0.5840(4)
N3A N 0.3195(10) 0.5990(6) 0.4248(5)
N4A N 0.1659(10) 0.9026(6) 0.4264(4)
O1A O 0.6620(9) 0.5955(5) 0.6545(4)
Si1A Si 0.7131(4) 0.9672(2) 0.83708(16)
Si2A Si -0.1000(4) 0.5843(2) 0.18351(16)
C38 C 0.8859(14) 0.5055(9) 0.4182(7)
C39 C 0.9214(15) 0.4210(8) 0.3566(6)
H47 H 0.9550 0.3730 0.3791
H48 H 1.0199 0.4468 0.3340
H49 H 0.8135 0.3857 0.3146
N5 N 0.8530(14) 0.5697(7) 0.4690(6)
loop_
_geom_bond_atom_site_label_1
_geom_bond_atom_site_label_2
_geom_bond_site_symmetry_1
_geom_bond_site_symmetry_2
C1 H1 1_555 1_555
C2 C1 1_555 1_555
H2 C2 1_555 1_555
C3 C2 1_555 1_555
H3 C3 1_555 1_555
C4 C3 1_555 1_555
H4 C4 1_555 1_555
C5 C4 1_555 1_555
C6 C7 1_555 1_555
C7 C8 1_555 1_555
C8 C12 1_555 1_555
C9 C10 1_555 1_555
C10 O1 1_555 1_555
C11 C9 1_555 1_555
C12 C13 1_555 1_555
C13 C14 1_555 1_555
C14 C6 1_555 1_555
C15 C1 1_555 1_555
C16 C7 1_555 1_555
C17 C16 1_555 1_555
C18 H5 1_555 1_555
C19 C18 1_555 1_555
H6 C19 1_555 1_555
H7 C19 1_555 1_555
H8 C19 1_555 1_555
C20 C18 1_555 1_555
H9 C20 1_555 1_555
H10 C20 1_555 1_555
H11 C20 1_555 1_555
C21 H12 1_555 1_555
C22 C21 1_555 1_555
H13 C22 1_555 1_555
H14 C22 1_555 1_555
H15 C22 1_555 1_555
C23 C21 1_555 1_555
H16 C23 1_555 1_555
H17 C23 1_555 1_555
H18 C23 1_555 1_555
C24 H19 1_555 1_555
C25 C24 1_555 1_555
H20 C25 1_555 1_555
H21 C25 1_555 1_555
H22 C25 1_555 1_555
C26 C24 1_555 1_555
H23 C26 1_555 1_555
H24 C26 1_555 1_555
H25 C26 1_555 1_555
C27 C13 1_555 1_555
C28 C27 1_555 1_555
C29 H26 1_555 1_555
C30 C29 1_555 1_555
H27 C30 1_555 1_555
H28 C30 1_555 1_555
H29 C30 1_555 1_555
C31 C29 1_555 1_555
H30 C31 1_555 1_555
H31 C31 1_555 1_555
H32 C31 1_555 1_555
C32 H33 1_555 1_555
C33 C32 1_555 1_555
H34 C33 1_555 1_555
H35 C33 1_555 1_555
H36 C33 1_555 1_555
C34 C32 1_555 1_555
H37 C34 1_555 1_555
H38 C34 1_555 1_555
H39 C34 1_555 1_555
C35 H40 1_555 1_555
C36 C35 1_555 1_555
H41 C36 1_555 1_555
H42 C36 1_555 1_555
H43 C36 1_555 1_555
C37 C35 1_555 1_555
H44 C37 1_555 1_555
H45 C37 1_555 1_555
H46 C37 1_555 1_555
N1 C5 1_555 1_555
N2 C8 1_555 1_555
N3 C11 1_555 1_555
N4 C14 1_555 1_555
Si1 C17 1_555 1_555
Si2 C28 1_555 1_555
C38 C39 1_555 1_555
C39 H47 1_555 1_555
H48 C39 1_555 1_555
H49 C39 1_555 1_555
N5 C38 1_555 1_555
C1A H1A 1_555 1_555
C2A C1A 1_555 1_555
H2A C2A 1_555 1_555
C3A C2A 1_555 1_555
H3A C3A 1_555 1_555
C4A C3A 1_555 1_555
H4A C4A 1_555 1_555
C5A C4A 1_555 1_555
C6A C7A 1_555 1_555
C7A C8A 1_555 1_555
C8A C12A 1_555 1_555
C9A C10A 1_555 1_555
C10A C11 1_555 1_555
C11A C10 1_555 1_555
C12A C13A 1_555 1_555
C13A C14A 1_555 1_555
C14A C6A 1_555 1_555
C15A C1A 1_555 1_555
C16A C7A 1_555 1_555
C17A C16A 1_555 1_555
C18A H5A 1_555 1_555
C19A C18A 1_555 1_555
H6A C19A 1_555 1_555
H7A C19A 1_555 1_555
H8A C19A 1_555 1_555
C20A C18A 1_555 1_555
H9A C20A 1_555 1_555
H10A C20A 1_555 1_555
H11A C20A 1_555 1_555
C21A H12A 1_555 1_555
C22A C21A 1_555 1_555
H13A C22A 1_555 1_555
H14A C22A 1_555 1_555
H15A C22A 1_555 1_555
C23A C21A 1_555 1_555
H16A C23A 1_555 1_555
H17A C23A 1_555 1_555
H18A C23A 1_555 1_555
C24A H19A 1_555 1_555
C25A C24A 1_555 1_555
H20A C25A 1_555 1_555
H21A C25A 1_555 1_555
H22A C25A 1_555 1_555
C26A C24A 1_555 1_555
H23A C26A 1_555 1_555
H24A C26A 1_555 1_555
H25A C26A 1_555 1_555
C27A C13A 1_555 1_555
C28A C27A 1_555 1_555
C29A H26A 1_555 1_555
C30A C29A 1_555 1_555
H27A C30A 1_555 1_555
H28A C30A 1_555 1_555
H29A C30A 1_555 1_555
C31A C29A 1_555 1_555
H30A C31A 1_555 1_555
H31A C31A 1_555 1_555
H32A C31A 1_555 1_555
C32A H33A 1_555 1_555
C33A C32A 1_555 1_555
H34A C33A 1_555 1_555
H35A C33A 1_555 1_555
H36A C33A 1_555 1_555
C34A C32A 1_555 1_555
H37A C34A 1_555 1_555
H38A C34A 1_555 1_555
H39A C34A 1_555 1_555
C35A H40A 1_555 1_555
C36A C35A 1_555 1_555
H41A C36A 1_555 1_555
H42A C36A 1_555 1_555
H43A C36A 1_555 1_555
C37A C35A 1_555 1_555
H44A C37A 1_555 1_555
H45A C37A 1_555 1_555
H46A C37A 1_555 1_555
N1A C5A 1_555 1_555
N2A C8A 1_555 1_555
N3A C11A 1_555 1_555
N4A C14A 1_555 1_555
O1A C10A 1_555 1_555
Si1A C17A 1_555 1_555
Si2A C28A 1_555 1_555
C5 C15 1_555 1_555
C6 N1 1_555 1_555
C9 N2 1_555 1_555
C12 N3 1_555 1_555
C15 N4 1_555 1_555
C18 Si1 1_555 1_555
C21 Si1 1_555 1_555
C24 Si1 1_555 1_555
C29 Si2 1_555 1_555
C32 Si2 1_555 1_555
C35 Si2 1_555 1_555
C5A C15A 1_555 1_555
C6A N1A 1_555 1_555
C9A C11A 1_555 1_555
C9A N2A 1_555 1_555
C12A N3A 1_555 1_555
C15A N4A 1_555 1_555
C18A Si1A 1_555 1_555
C21A Si1A 1_555 1_555
C24A Si1A 1_555 1_555
C29A Si2A 1_555 1_555
C32A Si2A 1_555 1_555
C35A Si2A 1_555 1_555

#END
