
#######################################################################
#
#                 Cambridge Crystallographic Data Centre
#                                CCDC 
#
#######################################################################
#
# If this CIF has been generated from an entry in the Cambridge 
# Structural Database, then it will include bibliographic, chemical, 
# crystal, experimental, refinement or atomic coordinate data resulting 
# from the CCDC's data processing and validation procedures.
#
#######################################################################

data_XUDBOO
_chemical_formula_moiety         'C42 H26 Cl4 N4'
_chemical_name_systematic        
2'-(2-Chlorophenyl)-4,4',5,5'-tetraphenyl-2-(2,3,5-trichlorophenyl)-2'H-1,2'-biimidazole
_symmetry_cell_setting           monoclinic
_symmetry_space_group_name_H-M   'P 21/n'
_symmetry_Int_Tables_number      14
_space_group_name_Hall           '-P 2yn'
loop_
_symmetry_equiv_pos_site_id
_symmetry_equiv_pos_as_xyz
1 x,y,z
2 1/2-x,1/2+y,1/2-z
3 -x,-y,-z
4 1/2+x,1/2-y,1/2+z
_cell_length_a                   12.350(2)
_cell_length_b                   15.981(3)
_cell_length_c                   18.000(3)
_cell_angle_alpha                90
_cell_angle_beta                 107.400(2)
_cell_angle_gamma                90
_cell_volume                     3390.01
_exptl_crystal_colour            yellow
_exptl_crystal_description       block
_cell_formula_units_Z            4
_exptl_crystal_recrystallization_method acetonitrile/dichloromethane
loop_
_atom_site_label
_atom_site_type_symbol
_atom_site_fract_x
_atom_site_fract_y
_atom_site_fract_z
Cl1 Cl 0.14077(4) 0.68526(4) 0.13767(3)
Cl2 Cl 0.39188(4) 0.62122(3) 0.18798(3)
Cl3 Cl 0.72186(5) 0.89897(4) 0.15267(3)
Cl4 Cl 0.26426(5) 0.94860(4) -0.00406(3)
N1 N 0.61946(14) 0.73330(10) 0.33028(10)
N2 N 0.54649(13) 0.84509(10) 0.24166(9)
N3 N 0.59014(14) 0.67396(11) 0.08505(10)
C1 C 0.24414(17) 0.73923(14) 0.10967(12)
N4 N 0.64256(13) 0.73156(10) 0.20284(9)
C2 C 0.37168(17) 0.87682(13) 0.26698(11)
C3 C 0.55809(17) 0.72232(13) 0.13296(11)
C4 C 0.47645(16) 0.72363(13) 0.39726(11)
C5 C 0.47560(17) 0.63653(13) 0.40375(12)
H1 H 0.5076 0.6027 0.3723
C6 C 0.29924(18) 0.85540(13) 0.04711(11)
C7 C 0.21449(18) 0.81151(14) 0.06688(12)
H2 H 0.1383 0.8309 0.0513
C8 C 0.52650(16) 0.76070(12) 0.33968(11)
C9 C 0.27511(17) 0.83956(14) 0.27750(12)
H3 H 0.2807 0.7863 0.3018
C10 C 0.84208(16) 0.67270(12) 0.26086(11)
C11 C 0.73424(16) 0.68362(12) 0.19717(11)
C12 C 0.48005(16) 0.83123(12) 0.28318(11)
C13 C 0.44020(17) 0.75557(13) 0.11219(12)
C14 C 0.74872(16) 0.83770(13) 0.30032(12)
C15 C 0.36279(18) 0.95614(14) 0.23189(13)
H4 H 0.4279 0.9822 0.2245
C16 C 0.78512(17) 0.89430(13) 0.25369(12)
C17 C 0.80816(18) 0.83581(14) 0.37951(12)
H5 H 0.7864 0.7972 0.4126
C18 C 0.69995(17) 0.64880(13) 0.12367(12)
C19 C 0.75836(17) 0.59153(13) 0.08407(12)
C20 C 0.35637(17) 0.71080(13) 0.13230(11)
C21 C 0.42782(19) 0.59948(15) 0.45643(13)
H6 H 0.4246 0.5402 0.4596
C22 C 0.41121(17) 0.82798(14) 0.06902(12)
H7 H 0.4673 0.8589 0.0544
C23 C 0.16242(19) 0.95661(15) 0.21758(13)
H8 H 0.0907 0.9834 0.1995
C24 C 0.38490(18) 0.64880(15) 0.50435(14)
H9 H 0.3538 0.6233 0.5410
C25 C 0.43216(17) 0.77280(14) 0.44463(12)
H10 H 0.4324 0.8320 0.4401
C26 C 0.87530(18) 0.94832(14) 0.28473(14)
H11 H 0.8984 0.9864 0.2519
C27 C 0.25880(19) 0.99596(14) 0.20815(14)
H12 H 0.2527 1.0501 0.1854
C28 C 0.8615(2) 0.48450(15) 0.00231(14)
H13 H 0.8965 0.4477 -0.0250
C29 C 0.71736(18) 0.58489(14) 0.00292(13)
H14 H 0.6536 0.6173 -0.0248
C30 C 0.38719(19) 0.73525(16) 0.49895(13)
H15 H 0.3582 0.7689 0.5322
C31 C 0.76818(19) 0.53174(15) -0.03784(13)
H16 H 0.7392 0.5278 -0.0929
C32 C 0.8524(2) 0.54347(14) 0.12333(13)
H17 H 0.8812 0.5468 0.1784
C33 C 0.94906(19) 0.60497(15) 0.38049(13)
H18 H 0.9511 0.5701 0.4236
C34 C 1.04778(19) 0.63945(16) 0.37368(14)
H19 H 1.1180 0.6284 0.4121
C35 C 0.84564(17) 0.62139(14) 0.32382(12)
H20 H 0.7776 0.5973 0.3285
C36 C 0.93142(18) 0.94638(15) 0.36383(15)
H21 H 0.9922 0.9840 0.3857
C37 C 0.89872(19) 0.88958(15) 0.41075(14)
H22 H 0.9384 0.8872 0.4648
C38 C 1.04466(19) 0.69026(16) 0.31079(15)
H23 H 1.1130 0.7137 0.3060
C39 C 0.17056(18) 0.87998(14) 0.25260(13)
H24 H 0.1051 0.8544 0.2599
C40 C 0.9038(2) 0.49146(16) 0.08329(14)
H25 H 0.9687 0.4600 0.1108
C41 C 0.94219(18) 0.70721(15) 0.25460(13)
H26 H 0.9406 0.7425 0.2118
C42 C 0.64122(16) 0.78584(12) 0.26881(11)
loop_
_geom_bond_atom_site_label_1
_geom_bond_atom_site_label_2
_geom_bond_site_symmetry_1
_geom_bond_site_symmetry_2
Cl1 C1 1_555 1_555
Cl2 C20 1_555 1_555
Cl3 C16 1_555 1_555
Cl4 C6 1_555 1_555
N1 C8 1_555 1_555
N2 C12 1_555 1_555
N3 C3 1_555 1_555
C1 C7 1_555 1_555
N4 C3 1_555 1_555
C2 C9 1_555 1_555
C3 C13 1_555 1_555
C4 C5 1_555 1_555
C5 H1 1_555 1_555
C6 C7 1_555 1_555
C7 H2 1_555 1_555
C8 C4 1_555 1_555
C9 H3 1_555 1_555
C10 C11 1_555 1_555
C11 N4 1_555 1_555
C12 C2 1_555 1_555
C13 C20 1_555 1_555
C14 C16 1_555 1_555
C15 C2 1_555 1_555
H4 C15 1_555 1_555
C16 C26 1_555 1_555
C17 C14 1_555 1_555
H5 C17 1_555 1_555
C18 N3 1_555 1_555
C19 C18 1_555 1_555
C20 C1 1_555 1_555
C21 C5 1_555 1_555
H6 C21 1_555 1_555
C22 C6 1_555 1_555
H7 C22 1_555 1_555
C23 H8 1_555 1_555
C24 C21 1_555 1_555
H9 C24 1_555 1_555
C25 C4 1_555 1_555
H10 C25 1_555 1_555
C26 H11 1_555 1_555
C27 C15 1_555 1_555
H12 C27 1_555 1_555
C28 H13 1_555 1_555
C29 C19 1_555 1_555
H14 C29 1_555 1_555
C30 C24 1_555 1_555
H15 C30 1_555 1_555
C31 C28 1_555 1_555
H16 C31 1_555 1_555
C32 C19 1_555 1_555
H17 C32 1_555 1_555
C33 H18 1_555 1_555
C34 C33 1_555 1_555
H19 C34 1_555 1_555
C35 C10 1_555 1_555
H20 C35 1_555 1_555
C36 C26 1_555 1_555
H21 C36 1_555 1_555
C37 C17 1_555 1_555
H22 C37 1_555 1_555
C38 C34 1_555 1_555
H23 C38 1_555 1_555
C39 C9 1_555 1_555
H24 C39 1_555 1_555
C40 C28 1_555 1_555
H25 C40 1_555 1_555
C41 C10 1_555 1_555
H26 C41 1_555 1_555
C42 N1 1_555 1_555
N2 C42 1_555 1_555
N4 C42 1_555 1_555
C8 C12 1_555 1_555
C11 C18 1_555 1_555
C13 C22 1_555 1_555
C14 C42 1_555 1_555
C23 C27 1_555 1_555
C23 C39 1_555 1_555
C25 C30 1_555 1_555
C29 C31 1_555 1_555
C32 C40 1_555 1_555
C33 C35 1_555 1_555
C36 C37 1_555 1_555
C38 C41 1_555 1_555

#END
