
#######################################################################
#
#                 Cambridge Crystallographic Data Centre
#                                CCDC 
#
#######################################################################
#
# If this CIF has been generated from an entry in the Cambridge 
# Structural Database, then it will include bibliographic, chemical, 
# crystal, experimental, refinement or atomic coordinate data resulting 
# from the CCDC's data processing and validation procedures.
#
#######################################################################

data_XUDMEQ
_chemical_formula_moiety         'C30 H23 N7'
_chemical_name_systematic        
4-((1,3-diphenyl-1H-pyrazol-5-yl)diazenyl)-1,3-diphenyl-1H-pyrazol-5-amine
_symmetry_cell_setting           triclinic
_symmetry_space_group_name_H-M   'P -1'
_symmetry_Int_Tables_number      2
_space_group_name_Hall           '-P 1'
loop_
_symmetry_equiv_pos_site_id
_symmetry_equiv_pos_as_xyz
1 x,y,z
2 -x,-y,-z
_cell_length_a                   7.2005(4)
_cell_length_b                   11.6168(7)
_cell_length_c                   14.5499(9)
_cell_angle_alpha                91.675(3)
_cell_angle_beta                 91.919(3)
_cell_angle_gamma                97.404(3)
_cell_volume                     1205.54
_exptl_crystal_colour            orange
_cell_formula_units_Z            2
loop_
_atom_site_label
_atom_site_type_symbol
_atom_site_fract_x
_atom_site_fract_y
_atom_site_fract_z
N1 N 0.2541(5) 0.0390(3) 0.0988(2)
N2 N 0.2765(5) -0.0452(3) 0.1522(2)
N3 N 0.2718(5) 0.0663(3) 0.3811(2)
N4 N 0.2245(5) 0.0275(3) -0.1469(2)
N5 N 0.2339(5) 0.0795(3) -0.0614(2)
N6 N 0.2977(5) -0.0485(3) 0.3967(2)
N7 N 0.2278(5) 0.1881(3) 0.2534(3)
H1 H 0.2147 0.2467 0.2890
H2 H 0.2213 0.1942 0.1947
C1 C 0.2074(8) -0.3251(5) -0.3591(4)
H3 H 0.1983 -0.3780 -0.4088
C2 C 0.1821(8) -0.3631(5) -0.2706(4)
H4 H 0.1565 -0.4424 -0.2613
C3 C 0.1939(7) -0.2863(4) -0.1956(3)
H5 H 0.1787 -0.3139 -0.1366
C4 C 0.2286(6) -0.1679(4) -0.2090(3)
C5 C 0.2333(6) -0.0856(3) -0.1313(3)
C6 C 0.2461(6) -0.1053(4) -0.0381(3)
H6 H 0.2526 -0.1763 -0.0109
C7 C 0.2475(6) 0.0004(3) 0.0061(3)
C8 C 0.2819(6) -0.0177(3) 0.2445(3)
C9 C 0.2587(6) 0.0864(4) 0.2899(3)
C10 C 0.2583(6) 0.1431(4) 0.4591(3)
C11 C 0.1944(6) 0.0991(4) 0.5397(3)
H7 H 0.1585 0.0197 0.5439
C12 C 0.1828(7) 0.1716(5) 0.6146(4)
H8 H 0.1415 0.1411 0.6698
C13 C 0.2317(7) 0.2891(5) 0.6085(4)
H9 H 0.2183 0.3382 0.6588
C14 C 0.2205(6) 0.2015(4) -0.0528(3)
C15 C 0.3275(7) 0.2708(4) 0.0149(3)
H10 H 0.4085 0.2385 0.0549
C16 C 0.3114(9) 0.3871(4) 0.0216(4)
H11 H 0.3836 0.4335 0.0661
C17 C 0.1919(9) 0.4364(5) -0.0355(4)
H12 H 0.1809 0.5151 -0.0295
C18 C 0.0899(7) 0.3683(5) -0.1010(4)
H13 H 0.0082 0.4015 -0.1400
C19 C 0.1036(6) 0.2505(4) -0.1118(3)
H14 H 0.0345 0.2058 -0.1583
C20 C 0.2995(7) 0.3339(4) 0.5298(4)
H15 H 0.3366 0.4134 0.5269
C21 C 0.3136(7) 0.2623(4) 0.4541(3)
H16 H 0.3597 0.2931 0.3999
C22 C 0.3052(6) -0.0966(3) 0.3140(3)
C23 C 0.3226(6) -0.2211(3) 0.3025(3)
C24 C 0.4178(6) -0.2616(4) 0.2292(3)
H17 H 0.4743 -0.2092 0.1882
C25 C 0.4295(7) -0.3787(4) 0.2164(4)
H18 H 0.4944 -0.4047 0.1674
C26 C 0.3461(7) -0.4562(4) 0.2758(4)
H19 H 0.3519 -0.5352 0.2665
C27 C 0.2521(7) -0.4170(4) 0.3501(4)
H20 H 0.1966 -0.4697 0.3911
C28 C 0.2413(6) -0.3006(4) 0.3630(3)
H21 H 0.1786 -0.2749 0.4129
C29 C 0.2583(6) -0.1302(4) -0.2978(3)
H22 H 0.2869 -0.0511 -0.3071
C30 C 0.2462(8) -0.2079(4) -0.3726(3)
H23 H 0.2642 -0.1809 -0.4316
loop_
_geom_bond_atom_site_label_1
_geom_bond_atom_site_label_2
_geom_bond_site_symmetry_1
_geom_bond_site_symmetry_2
N1 N2 1_555 1_555
N2 C8 1_555 1_555
N3 N6 1_555 1_555
N4 N5 1_555 1_555
N5 C7 1_555 1_555
N6 C22 1_555 1_555
N7 H1 1_555 1_555
H2 N7 1_555 1_555
C1 H3 1_555 1_555
C2 C1 1_555 1_555
H4 C2 1_555 1_555
C3 C2 1_555 1_555
H5 C3 1_555 1_555
C4 C3 1_555 1_555
C5 N4 1_555 1_555
C6 C5 1_555 1_555
H6 C6 1_555 1_555
C7 N1 1_555 1_555
C8 C9 1_555 1_555
C9 N3 1_555 1_555
C10 N3 1_555 1_555
C11 C10 1_555 1_555
H7 C11 1_555 1_555
C12 C11 1_555 1_555
H8 C12 1_555 1_555
C13 C12 1_555 1_555
H9 C13 1_555 1_555
C14 N5 1_555 1_555
C15 C14 1_555 1_555
H10 C15 1_555 1_555
C16 C15 1_555 1_555
H11 C16 1_555 1_555
C17 C16 1_555 1_555
H12 C17 1_555 1_555
C18 C17 1_555 1_555
H13 C18 1_555 1_555
C19 C14 1_555 1_555
H14 C19 1_555 1_555
C20 C13 1_555 1_555
H15 C20 1_555 1_555
C21 C10 1_555 1_555
H16 C21 1_555 1_555
C22 C8 1_555 1_555
C23 C22 1_555 1_555
C24 C23 1_555 1_555
H17 C24 1_555 1_555
C25 C24 1_555 1_555
H18 C25 1_555 1_555
C26 C25 1_555 1_555
H19 C26 1_555 1_555
C27 C26 1_555 1_555
H20 C27 1_555 1_555
C28 C23 1_555 1_555
H21 C28 1_555 1_555
C29 C4 1_555 1_555
H22 C29 1_555 1_555
C30 C1 1_555 1_555
H23 C30 1_555 1_555
N7 C9 1_555 1_555
C4 C5 1_555 1_555
C6 C7 1_555 1_555
C18 C19 1_555 1_555
C20 C21 1_555 1_555
C27 C28 1_555 1_555
C29 C30 1_555 1_555

#END
