
#######################################################################
#
#                 Cambridge Crystallographic Data Centre
#                                CCDC 
#
#######################################################################
#
# If this CIF has been generated from an entry in the Cambridge 
# Structural Database, then it will include bibliographic, chemical, 
# crystal, experimental, refinement or atomic coordinate data resulting 
# from the CCDC's data processing and validation procedures.
#
#######################################################################

data_XUDPIW
_chemical_formula_moiety         
'C48 H60 N24 O12,C20 H28 N4 2+,2(N1 O3 1-),24(H2 O1)'
_chemical_name_systematic        
'Dodecamethylcucurbit(6)uril 9,10-bis(N-(2-ammonioethyl)aminomethyl)anthracene monohydrate clathrate dinitrate tricosahydrate'
_symmetry_cell_setting           monoclinic
_symmetry_space_group_name_H-M   'C 2/m'
_symmetry_Int_Tables_number      12
_space_group_name_Hall           '-C 2y'
loop_
_symmetry_equiv_pos_site_id
_symmetry_equiv_pos_as_xyz
1 x,y,z
2 -x,y,-z
3 1/2+x,1/2+y,z
4 1/2-x,1/2+y,-z
5 -x,-y,-z
6 x,-y,z
7 1/2-x,1/2-y,-z
8 1/2+x,1/2-y,z
_cell_length_a                   17.2396(19)
_cell_length_b                   17.6734(19)
_cell_length_c                   15.0635(16)
_cell_angle_alpha                90
_cell_angle_beta                 93.241(4)
_cell_angle_gamma                90
_cell_volume                     4582.24
_exptl_crystal_colour            'light green'
_cell_formula_units_Z            2
loop_
_atom_site_label
_atom_site_type_symbol
_atom_site_fract_x
_atom_site_fract_y
_atom_site_fract_z
O2 O 0.17107(13) 0.22386(10) 0.30767(13)
O3 O 0.0551(3) 0.5000 0.98051(17)
O4 O 0.24664(14) 0.14576(14) 0.70871(15)
O5 O 0.54038(14) 0.35288(12) 0.30581(17)
O6 O 0.1029(2) 0.1426(2) 0.64606(18)
O7 O 0.0634(5) 0.0000 0.4774(4)
O8 O 0.0853(3) 0.04218(14) 0.9396(3)
O9 O 0.2284(3) 0.2125(6) 0.5663(4)
C1 C -0.23712(7) 0.5000 1.10013(8)
C2 C -0.19791(5) 0.54394(6) 1.24345(6)
C3 C -0.07111(7) 0.5000 1.27575(8)
C4 C -0.23960(6) 0.63761(6) 1.11967(8)
H1 H -0.2635 0.6655 1.1664
H2 H -0.2776 0.6339 1.0698
C5 C -0.08722(7) 0.63739(7) 1.28345(7)
H3 H -0.1253 0.6659 1.3147
H4 H -0.0408 0.6331 1.3226
C6 C -0.16489(7) 0.69513(6) 1.00437(7)
C7 C -0.12297(7) 0.72497(6) 1.15137(7)
C8 C -0.07181(8) 0.76776(7) 1.08733(8)
C9 C 0.00569(7) 0.68921(8) 1.18213(8)
C10 C -0.07702(7) 0.77201(8) 0.91696(8)
H5 H -0.1176 0.7634 0.8708
H6 H -0.0694 0.8263 0.9220
C11 C -0.24832(12) 0.56494(13) 1.31514(12)
H7 H -0.3010 0.5511 1.2985
H8 H -0.2315 0.5388 1.3687
H9 H -0.2453 0.6185 1.3250
C12 C -0.16166(18) 0.77874(18) 1.21102(19)
H10 H -0.1981 0.8093 1.1764
H11 H -0.1885 0.7508 1.2545
H12 H -0.1232 0.8107 1.2405
C13 C -0.08859(16) 0.85020(12) 1.09509(15)
H13 H -0.1421 0.8595 1.0772
H14 H -0.0787 0.8660 1.1556
H15 H -0.0558 0.8782 1.0574
N1 N -0.22196(5) 0.56252(5) 1.15162(5)
N2 N -0.17473(5) 0.67981(5) 1.09216(6)
N3 N -0.11715(5) 0.56346(5) 1.26539(5)
N4 N -0.06823(5) 0.67937(6) 1.20459(6)
N5 N -0.10332(6) 0.74441(5) 0.99929(6)
N6 N 0.00538(6) 0.73806(6) 1.11095(6)
O10 O -0.26132(5) 0.5000 1.02289(6)
O11 O -0.20405(5) 0.67105(5) 0.94074(5)
O12 O -0.00076(6) 0.5000 1.29374(6)
O13 O 0.06367(5) 0.66017(6) 1.21890(6)
C1A C 0.23712(7) 0.5000 0.89987(8)
C2E C -0.19791(5) 0.45606(6) 1.24345(6)
C2D C 0.19791(5) 0.45606(6) 0.75655(6)
C2A C 0.19791(5) 0.54394(6) 0.75655(6)
C3A C 0.07111(7) 0.5000 0.72425(8)
C4E C -0.23960(6) 0.36239(6) 1.11967(8)
C4A C 0.23960(6) 0.63761(6) 0.88033(8)
C4D C 0.23960(6) 0.36239(6) 0.88033(8)
H1E H -0.2635 0.3345 1.1664
H1A H 0.2635 0.6655 0.8336
H1D H 0.2635 0.3345 0.8336
H2E H -0.2776 0.3661 1.0698
H2A H 0.2776 0.6339 0.9302
H2D H 0.2776 0.3661 0.9302
C5E C -0.08722(7) 0.36261(7) 1.28345(7)
C5D C 0.08722(7) 0.36261(7) 0.71655(7)
C5A C 0.08722(7) 0.63739(7) 0.71655(7)
H3E H -0.1253 0.3341 1.3147
H3D H 0.1253 0.3341 0.6853
H3A H 0.1253 0.6659 0.6853
H4E H -0.0408 0.3669 1.3226
H4D H 0.0408 0.3669 0.6774
H4A H 0.0408 0.6331 0.6774
C6E C -0.16489(7) 0.30487(6) 1.00437(7)
C6D C 0.16489(7) 0.30487(6) 0.99563(7)
C6A C 0.16489(7) 0.69513(6) 0.99563(7)
C7E C -0.12297(7) 0.27503(6) 1.15137(7)
C7A C 0.12297(7) 0.72497(6) 0.84863(7)
C7D C 0.12297(7) 0.27503(6) 0.84863(7)
C8E C -0.07181(8) 0.23224(7) 1.08733(8)
C8A C 0.07181(8) 0.76776(7) 0.91267(8)
C8D C 0.07181(8) 0.23224(7) 0.91267(8)
C9E C 0.00569(7) 0.31079(8) 1.18213(8)
C9D C -0.00569(7) 0.31079(8) 0.81787(8)
C9A C -0.00569(7) 0.68921(8) 0.81787(8)
C10D C 0.07702(7) 0.22799(8) 1.08304(8)
C10E C -0.07702(7) 0.22799(8) 0.91696(8)
C10A C 0.07702(7) 0.77201(8) 1.08304(8)
H5D H 0.1176 0.2366 1.1292
H5E H -0.1176 0.2366 0.8708
H5A H 0.1176 0.7634 1.1292
H6D H 0.0694 0.1737 1.0780
H6E H -0.0694 0.1737 0.9220
H6A H 0.0694 0.8263 1.0780
C11E C -0.24832(12) 0.43506(13) 1.31514(12)
C11A C 0.24832(12) 0.56494(13) 0.68486(12)
C11D C 0.24832(12) 0.43506(13) 0.68486(12)
H7E H -0.3010 0.4489 1.2985
H7A H 0.3010 0.5511 0.7015
H7D H 0.3010 0.4489 0.7015
H8E H -0.2315 0.4612 1.3687
H8A H 0.2315 0.5388 0.6313
H8D H 0.2315 0.4612 0.6313
H9E H -0.2453 0.3815 1.3250
H9A H 0.2453 0.6185 0.6750
H9D H 0.2453 0.3815 0.6750
C12E C -0.16166(18) 0.22126(18) 1.21102(19)
C12A C 0.16166(18) 0.77874(18) 0.78898(19)
C12D C 0.16166(18) 0.22126(18) 0.78898(19)
H10E H -0.1981 0.1907 1.1764
H10A H 0.1981 0.8093 0.8236
H10D H 0.1981 0.1907 0.8236
H11E H -0.1885 0.2492 1.2545
H11A H 0.1885 0.7508 0.7455
H11D H 0.1885 0.2492 0.7455
H12E H -0.1232 0.1893 1.2405
H12A H 0.1232 0.8107 0.7595
H12D H 0.1232 0.1893 0.7595
C13D C 0.08859(16) 0.14980(12) 0.90491(15)
C13E C -0.08859(16) 0.14980(12) 1.09509(15)
C13A C 0.08859(16) 0.85020(12) 0.90491(15)
H13D H 0.1421 0.1405 0.9228
H13E H -0.1421 0.1405 1.0772
H13A H 0.1421 0.8595 0.9228
H14D H 0.0787 0.1340 0.8444
H14E H -0.0787 0.1340 1.1556
H14A H 0.0787 0.8660 0.8444
H15D H 0.0558 0.1218 0.9426
H15E H -0.0558 0.1218 1.0574
H15A H 0.0558 0.8782 0.9426
N1E N -0.22196(5) 0.43748(5) 1.15162(5)
N1A N 0.22196(5) 0.56252(5) 0.84838(5)
N1D N 0.22196(5) 0.43748(5) 0.84838(5)
N2E N -0.17473(5) 0.32019(5) 1.09216(6)
N2A N 0.17473(5) 0.67981(5) 0.90784(6)
N2D N 0.17473(5) 0.32019(5) 0.90784(6)
N3E N -0.11715(5) 0.43654(5) 1.26539(5)
N3A N 0.11715(5) 0.56346(5) 0.73461(5)
N3D N 0.11715(5) 0.43654(5) 0.73461(5)
N4E N -0.06823(5) 0.32063(6) 1.20459(6)
N4D N 0.06823(5) 0.32063(6) 0.79541(6)
N4A N 0.06823(5) 0.67937(6) 0.79541(6)
N5E N -0.10332(6) 0.25559(5) 0.99929(6)
N5D N 0.10332(6) 0.25559(5) 1.00071(6)
N5A N 0.10332(6) 0.74441(5) 1.00071(6)
N6A N -0.00538(6) 0.73806(6) 0.88905(6)
N6E N 0.00538(6) 0.26194(6) 1.11095(6)
N6D N -0.00538(6) 0.26194(6) 0.88905(6)
O10A O 0.26132(5) 0.5000 0.97711(6)
O11D O 0.20405(5) 0.32895(5) 1.05926(5)
O11A O 0.20405(5) 0.67105(5) 1.05926(5)
O11E O -0.20405(5) 0.32895(5) 0.94074(5)
O12A O 0.00076(6) 0.5000 0.70626(6)
O13E O 0.06367(5) 0.33983(6) 1.21890(6)
O13D O -0.06367(5) 0.33983(6) 0.78110(6)
O13A O -0.06367(5) 0.66017(6) 0.78110(6)
C14 C -0.16086(13) 0.5000 0.81337(12)
C15 C -0.17259(13) 0.53626(14) 0.71433(14)
C16 C -0.15716(11) 0.5000 0.56003(10)
C17 C -0.07669(9) 0.5000 0.52566(9)
C18 C -0.03896(7) 0.56812(8) 0.51325(6)
C19 C -0.07399(11) 0.64057(9) 0.52664(8)
H16 H -0.1246 0.6416 0.5448
C20 C -0.03814(16) 0.70724(11) 0.51453(9)
H17 H -0.0634 0.7526 0.5252
N7 N -0.21768(15) 0.46736(11) 0.84729(12)
N8 N -0.15126(10) 0.46455(13) 0.66060(10)
C14A C 0.16086(13) 0.5000 0.18663(12)
C15E C -0.17259(13) 0.46374(14) 0.71433(14)
C15A C 0.17259(13) 0.53626(14) 0.28567(14)
C15D C 0.17259(13) 0.46374(14) 0.28567(14)
C16A C 0.15716(11) 0.5000 0.43997(10)
C17A C 0.07669(9) 0.5000 0.47434(9)
C18A C 0.03896(7) 0.56812(8) 0.48675(6)
C18D C 0.03896(7) 0.43188(8) 0.48675(6)
C18E C -0.03896(7) 0.43188(8) 0.51325(6)
C19E C -0.07399(11) 0.35943(9) 0.52664(8)
C19D C 0.07399(11) 0.35943(9) 0.47336(8)
C19A C 0.07399(11) 0.64057(9) 0.47336(8)
H16E H -0.1246 0.3584 0.5448
H16D H 0.1246 0.3584 0.4552
H16A H 0.1246 0.6416 0.4552
C20E C -0.03814(16) 0.29276(11) 0.51453(9)
C20D C 0.03814(16) 0.29276(11) 0.48547(9)
C20A C 0.03814(16) 0.70724(11) 0.48547(9)
H17D H 0.0634 0.2474 0.4748
H17E H -0.0634 0.2474 0.5252
H17A H 0.0634 0.7526 0.4748
N7E N -0.21768(15) 0.53264(11) 0.84729(12)
N7A N 0.21768(15) 0.46736(11) 0.15271(12)
N7D N 0.21768(15) 0.53264(11) 0.15271(12)
N8E N -0.15126(10) 0.53545(13) 0.66060(10)
N8A N 0.15126(10) 0.46455(13) 0.33940(10)
N8D N 0.15126(10) 0.53545(13) 0.33940(10)
N9 N 0.07379(12) 0.0000 0.16161(15)
O14 O 0.10558(18) 0.06073(12) 0.1643(2)
O15 O 0.0307(4) 0.0000 0.2372(2)
O14E O 0.10558(18) -0.06073(12) 0.1643(2)
O1 O 0.36066(10) 0.5000 0.23639(13)
O16? O 0.06360(19) 0.0000 0.0660(2)
loop_
_geom_bond_atom_site_label_1
_geom_bond_atom_site_label_2
_geom_bond_site_symmetry_1
_geom_bond_site_symmetry_2
C1 N1 1_555 1_555
C2 C11 1_555 1_555
C3 N3 1_555 1_555
C4 H1 1_555 1_555
H2 C4 1_555 1_555
C5 H3 1_555 1_555
H4 C5 1_555 1_555
C6 N2 1_555 1_555
C7 C8 1_555 1_555
C8 C13 1_555 1_555
C9 N4 1_555 1_555
C10 H5 1_555 1_555
H6 C10 1_555 1_555
C11 H7 1_555 1_555
H8 C11 1_555 1_555
H9 C11 1_555 1_555
C12 C7 1_555 1_555
H10 C12 1_555 1_555
H11 C12 1_555 1_555
H12 C12 1_555 1_555
C13 H13 1_555 1_555
H14 C13 1_555 1_555
H15 C13 1_555 1_555
N1 C2 1_555 1_555
N2 C4 1_555 1_555
N3 C2 1_555 1_555
N4 C5 1_555 1_555
N5 C6 1_555 1_555
N6 C8 1_555 1_555
O10 C1 1_555 1_555
O11 C6 1_555 1_555
O12 C3 1_555 1_555
O13 C9 1_555 1_555
C14 C15 1_555 1_555
C15 N8 1_555 1_555
C16 C17 1_555 1_555
C17 C18 1_555 1_555
C18 C19 1_555 1_555
C19 H16 1_555 1_555
C20 C19 1_555 1_555
H17 C20 1_555 1_555
N7 C14 1_555 1_555
N8 C16 1_555 1_555
N9 O14 1_555 1_555
O15 N9 1_555 1_555
C1A N1A 1_555 1_555
C2E C2 1_555 1_555
C2D C2A 1_555 1_555
C2A C11A 1_555 1_555
C3A N3A 1_555 1_555
C4E H1E 1_555 1_555
C4A H1A 1_555 1_555
C4D H1D 1_555 1_555
H2E C4E 1_555 1_555
H2A C4A 1_555 1_555
H2D C4D 1_555 1_555
C5E H3E 1_555 1_555
C5D H3D 1_555 1_555
C5A H3A 1_555 1_555
H4E C5E 1_555 1_555
H4D C5D 1_555 1_555
H4A C5A 1_555 1_555
C6E N2E 1_555 1_555
C6D N2D 1_555 1_555
C6A N2A 1_555 1_555
C7E C8E 1_555 1_555
C7A C8A 1_555 1_555
C7D C8D 1_555 1_555
C8E C13E 1_555 1_555
C8A C13A 1_555 1_555
C8D C13D 1_555 1_555
C9E N4E 1_555 1_555
C9D N4D 1_555 1_555
C9A N4A 1_555 1_555
C10D H5D 1_555 1_555
C10E H5E 1_555 1_555
C10A N6 1_555 1_555
H5A C10A 1_555 1_555
H6D C10D 1_555 1_555
H6E C10E 1_555 1_555
H6A C10A 1_555 1_555
C11E C2E 1_555 1_555
C11A H7A 1_555 1_555
C11D C2D 1_555 1_555
H7E C11E 1_555 1_555
H7D C11D 1_555 1_555
H8E C11E 1_555 1_555
H8A C11A 1_555 1_555
H8D C11D 1_555 1_555
H9E C11E 1_555 1_555
H9A C11A 1_555 1_555
H9D C11D 1_555 1_555
C12E C7E 1_555 1_555
C12A C7A 1_555 1_555
C12D C7D 1_555 1_555
H10E C12E 1_555 1_555
H10A C12A 1_555 1_555
H10D C12D 1_555 1_555
H11E C12E 1_555 1_555
H11A C12A 1_555 1_555
H11D C12D 1_555 1_555
H12E C12E 1_555 1_555
H12A C12A 1_555 1_555
H12D C12D 1_555 1_555
C13D H13D 1_555 1_555
C13E H13E 1_555 1_555
C13A H13A 1_555 1_555
H14D C13D 1_555 1_555
H14E C13E 1_555 1_555
H14A C13A 1_555 1_555
H15D C13D 1_555 1_555
H15E C13E 1_555 1_555
H15A C13A 1_555 1_555
N1E C1 1_555 1_555
N1A C2A 1_555 1_555
N1D C1A 1_555 1_555
N2E C4E 1_555 1_555
N2A C4A 1_555 1_555
N2D C4D 1_555 1_555
N3E C3 1_555 1_555
N3A C2A 1_555 1_555
N3D C2D 1_555 1_555
N4E C5E 1_555 1_555
N4D C5D 1_555 1_555
N4A C5A 1_555 1_555
N5E C6E 1_555 1_555
N5D C6D 1_555 1_555
N5A C6A 1_555 1_555
N6A C10 1_555 1_555
N6E C8E 1_555 1_555
N6D C8D 1_555 1_555
O10A C1A 1_555 1_555
O11D C6D 1_555 1_555
O11A C6A 1_555 1_555
O11E C6E 1_555 1_555
O12A C3A 1_555 1_555
O13E C9E 1_555 1_555
O13D C9D 1_555 1_555
O13A C9A 1_555 1_555
C14A C15A 1_555 1_555
C15E C14 1_555 1_555
C15A C15D 1_555 1_555
C15D C14A 1_555 1_555
C16A C17A 1_555 1_555
C17A C18A 1_555 1_555
C18A C18 1_555 1_555
C18D C17A 1_555 1_555
C18E C17 1_555 1_555
C19E C18E 1_555 1_555
C19D C18D 1_555 1_555
C19A C18A 1_555 1_555
H16E C19E 1_555 1_555
H16D C19D 1_555 1_555
H16A C19A 1_555 1_555
C20E C19E 1_555 1_555
C20D C19D 1_555 1_555
C20A C20 1_555 1_555
H17D C20D 1_555 1_555
H17E C20E 1_555 1_555
H17A C20A 1_555 1_555
N7E C14 1_555 1_555
N7A C14A 1_555 1_555
N7D C14A 1_555 1_555
N8E C15 1_555 1_555
N8A C15A 1_555 1_555
N8D C15A 1_555 1_555
O14E N9 1_555 1_555
C4 N1 1_555 1_555
C5 N3 1_555 1_555
C7 N2 1_555 1_555
C7 N4 1_555 1_555
C8 N5 1_555 1_555
C9 N6 1_555 1_555
C10 N5 1_555 1_555
C15 C15E 1_555 1_555
C16 N8E 1_555 1_555
N7 N7E 1_555 1_555
N8 C15E 1_555 1_555
N8 N8E 1_555 1_555
C2E N1E 1_555 1_555
C2E N3E 1_555 1_555
C2D N1D 1_555 1_555
C3A N3D 1_555 1_555
C4E N1E 1_555 1_555
C4A N1A 1_555 1_555
C4D N1D 1_555 1_555
C5E N3E 1_555 1_555
C5D N3D 1_555 1_555
C5A N3A 1_555 1_555
C7E N2E 1_555 1_555
C7E N4E 1_555 1_555
C7A N2A 1_555 1_555
C7A N4A 1_555 1_555
C7D N2D 1_555 1_555
C7D N4D 1_555 1_555
C8E N5E 1_555 1_555
C8A N5A 1_555 1_555
C8A N6A 1_555 1_555
C8D N5D 1_555 1_555
C9E N6E 1_555 1_555
C9D N6D 1_555 1_555
C9A N6A 1_555 1_555
C10D N5D 1_555 1_555
C10D N6E 1_555 1_555
C10E N5E 1_555 1_555
C10E N6D 1_555 1_555
C10A N5A 1_555 1_555
C15E N8E 1_555 1_555
C15D N8A 1_555 1_555
C15D N8D 1_555 1_555
C16A N8A 1_555 1_555
C16A N8D 1_555 1_555
C18D C18E 1_555 1_555
C19A C20A 1_555 1_555
C20E C20D 1_555 1_555
N7A N7D 1_555 1_555
N8A N8D 1_555 1_555

#END
