
#######################################################################
#
#                 Cambridge Crystallographic Data Centre
#                                CCDC 
#
#######################################################################
#
# If this CIF has been generated from an entry in the Cambridge 
# Structural Database, then it will include bibliographic, chemical, 
# crystal, experimental, refinement or atomic coordinate data resulting 
# from the CCDC's data processing and validation procedures.
#
#######################################################################

data_XUDWUO01
_chemical_formula_moiety         'C13 H9 I1 N2 O2'
_chemical_name_systematic        2-Iodo-N-(2-nitrobenzylidene)aniline
_symmetry_cell_setting           monoclinic
_symmetry_space_group_name_H-M   'C 2/c'
_symmetry_Int_Tables_number      15
_space_group_name_Hall           '-C 2yn'
loop_
_symmetry_equiv_pos_site_id
_symmetry_equiv_pos_as_xyz
1 x,y,z
2 1/2+x,1/2+y,z
3 -x,y,1/2-z
4 1/2-x,1/2+y,1/2-z
5 -x,-y,-z
6 1/2-x,1/2-y,-z
7 x,-y,1/2+z
8 1/2+x,1/2-y,1/2+z
_cell_length_a                   22.4142(15)
_cell_length_b                   3.8614(2)
_cell_length_c                   14.6957(10)
_cell_angle_alpha                90
_cell_angle_beta                 107.423(3)
_cell_angle_gamma                90
_cell_volume                     1213.56
_exptl_crystal_colour            brown
_exptl_crystal_description       plate
_cell_formula_units_Z            4
_exptl_crystal_recrystallization_method acetone
loop_
_atom_site_label
_atom_site_type_symbol
_atom_site_fract_x
_atom_site_fract_y
_atom_site_fract_z
O1 O 0.6262(6) 0.048(3) 0.3586(8)
O2 O 0.5372(5) -0.011(3) 0.3825(9)
N1 N 0.7241(5) 0.183(4) 0.4983(9)
N2 N 0.5919(6) 0.071(9) 0.4092(16)
C1 C 0.6760(6) 0.314(6) 0.5315(10)
C2 C 0.6127(6) 0.232(6) 0.5018(11)
C3 C 0.5769(6) 0.279(7) 0.5634(13)
H1 H 0.5337 0.2224 0.5432
C4 C 0.6043(8) 0.408(7) 0.6547(12)
H2 H 0.5799 0.4402 0.6968
C5 C 0.6676(8) 0.491(7) 0.6843(10)
H3 H 0.6864 0.5790 0.7467
C6 C 0.7034(6) 0.444(7) 0.6227(11)
H4 H 0.7467 0.5001 0.6430
C7 C 0.7169(5) 0.292(7) 0.4704(11)
H5 H 0.6982 0.2569 0.4039
O3 O 0.6327(5) -0.046(3) 0.3803(9)
O4 O 0.5385(5) 0.115(3) 0.3805(9)
N4 N 0.5956(5) 0.099(8) 0.4151(13)
C14 C 0.6810(6) 0.349(5) 0.5428(12)
C15 C 0.6181(6) 0.262(5) 0.5080(10)
C16 C 0.5783(6) 0.327(5) 0.5626(13)
H10 H 0.5353 0.2668 0.5389
C17 C 0.6014(8) 0.479(4) 0.6520(12)
H11 H 0.5742 0.5237 0.6893
C18 C 0.6643(9) 0.567(5) 0.6867(10)
H12 H 0.6801 0.6711 0.7478
C19 C 0.7041(6) 0.502(5) 0.6321(13)
H13 H 0.7471 0.5616 0.6559
O1E O 0.8738(6) 0.452(3) 0.6414(8)
O2E O 0.9628(5) 0.511(3) 0.6175(9)
N1E N 0.7759(5) 0.317(4) 0.5017(9)
N2E N 0.9081(6) 0.429(9) 0.5908(16)
C1E C 0.8240(6) 0.186(6) 0.4685(10)
C2E C 0.8873(6) 0.268(6) 0.4982(11)
C3E C 0.9231(6) 0.221(7) 0.4366(13)
H1E H 0.9663 0.2776 0.4568
C4E C 0.8957(8) 0.092(7) 0.3453(12)
H2E H 0.9201 0.0598 0.3032
C5E C 0.8324(8) 0.009(7) 0.3157(10)
H3E H 0.8136 -0.0790 0.2533
C6E C 0.7966(6) 0.056(7) 0.3773(11)
H4E H 0.7533 -0.0001 0.3570
C7E C 0.7831(5) 0.208(7) 0.5296(11)
H5E H 0.8018 0.2431 0.5961
O3E O 0.8673(5) 0.546(3) 0.6197(9)
O4E O 0.9615(5) 0.385(3) 0.6195(9)
N4E N 0.9044(5) 0.401(8) 0.5849(13)
C14E C 0.8190(6) 0.151(5) 0.4572(12)
C15E C 0.8819(6) 0.238(5) 0.4920(10)
C16E C 0.9217(6) 0.173(5) 0.4374(13)
H10E H 0.9647 0.2332 0.4611
C17E C 0.8986(8) 0.021(4) 0.3480(12)
H11E H 0.9258 -0.0237 0.3107
C18E C 0.8357(9) -0.067(5) 0.3133(10)
H12E H 0.8199 -0.1711 0.2522
C19E C 0.7959(6) -0.002(5) 0.3679(13)
H13E H 0.7529 -0.0616 0.3441
I1? I 0.9190(5) 0.479(2) 0.6312(5)
C8? C 0.8160(6) 0.212(4) 0.4483(9)
C9? C 0.8788(6) 0.285(6) 0.4923(10)
C10? C 0.9225(6) 0.229(8) 0.4437(14)
H6? H 0.9654 0.2791 0.4738
C11? C 0.9034(8) 0.100(8) 0.3512(14)
H7? H 0.9332 0.0623 0.3180
C12? C 0.8406(9) 0.027(6) 0.3072(9)
H8? H 0.8276 -0.0609 0.2439
C13? C 0.7969(6) 0.083(5) 0.3557(9)
H9? H 0.7540 0.0329 0.3257
I2? I 0.5767(5) 0.070(2) 0.3531(5)
N3? N 0.7199(8) 0.319(9) 0.4786(15)
C20? C 0.7730(9) 0.176(8) 0.5099(17)
H14? H 0.7839 0.0779 0.5720
C21? C 0.6795(6) 0.336(7) 0.5366(13)
C22? C 0.6172(7) 0.249(6) 0.4935(9)
C23? C 0.5736(5) 0.291(6) 0.5428(10)
H15? H 0.5311 0.2310 0.5133
C24? C 0.5922(7) 0.420(7) 0.6353(10)
H16? H 0.5624 0.4487 0.6690
C25? C 0.6545(8) 0.507(7) 0.6785(10)
H17? H 0.6672 0.5955 0.7417
C26? C 0.6981(6) 0.465(8) 0.6292(13)
H18? H 0.7406 0.5246 0.6587
loop_
_geom_bond_atom_site_label_1
_geom_bond_atom_site_label_2
_geom_bond_site_symmetry_1
_geom_bond_site_symmetry_2
O1 N2 1_555 1_555
O2 N2 1_555 1_555
N1 C1 1_555 1_555
N2 C2 1_555 1_555
C1 C2 1_555 1_555
C2 C3 1_555 1_555
C3 H1 1_555 1_555
H1 C16 1_555 1_555
C4 C3 1_555 1_555
H2 C4 1_555 1_555
C5 C4 1_555 1_555
H3 C5 1_555 1_555
C6 C1 1_555 1_555
H4 C6 1_555 1_555
C7 N1 1_555 1_555
H5 C7 1_555 1_555
O3 O1 1_555 1_555
O4 O2 1_555 1_555
N4 O1 1_555 1_555
C14 N1 1_555 1_555
C15 N2 1_555 1_555
C16 C2 1_555 1_555
H10 C3 1_555 1_555
C17 C3 1_555 1_555
H11 C4 1_555 1_555
C18 C4 1_555 1_555
H12 C5 1_555 1_555
C19 C1 1_555 1_555
H13 C6 1_555 1_555
O1E N2E 1_555 1_555
O2E N2E 1_555 1_555
N1E N1 1_555 1_555
N2E C2E 1_555 1_555
C1E N1E 1_555 1_555
C2E C1E 1_555 1_555
C3E C2E 1_555 1_555
H1E C3E 1_555 1_555
C4E C3E 1_555 1_555
H2E C4E 1_555 1_555
C5E C4E 1_555 1_555
H3E C5E 1_555 1_555
C6E C1E 1_555 1_555
H4E C6E 1_555 1_555
C7E N1 1_555 1_555
H5E C7E 1_555 1_555
O3E O1E 1_555 1_555
O4E O2E 1_555 1_555
N4E O1E 1_555 1_555
C14E N1E 1_555 1_555
C15E N2E 1_555 1_555
C16E C2E 1_555 1_555
H10E C3E 1_555 1_555
C17E C3E 1_555 1_555
H11E C4E 1_555 1_555
C18E C4E 1_555 1_555
H12E C5E 1_555 1_555
C19E C1E 1_555 1_555
H13E C6E 1_555 1_555
O2 N4 1_555 1_555
N2 O3 1_555 1_555
N2 O4 1_555 1_555
N2 N4 1_555 1_555
C1 C7 1_555 1_555
C1 C14 1_555 1_555
C1 C15 1_555 1_555
C2 N4 1_555 1_555
C2 C14 1_555 1_555
C2 C15 1_555 1_555
C3 C15 1_555 1_555
C3 C16 1_555 1_555
H1 H10 1_555 1_555
C4 C16 1_555 1_555
C4 C17 1_555 1_555
H2 C17 1_555 1_555
H2 H11 1_555 1_555
C5 C6 1_555 1_555
C5 C17 1_555 1_555
C5 C18 1_555 1_555
C5 C19 1_555 1_555
H3 C18 1_555 1_555
H3 H12 1_555 1_555
C6 C14 1_555 1_555
C6 C18 1_555 1_555
C6 C19 1_555 1_555
H4 C19 1_555 1_555
H4 H13 1_555 1_555
C7 C14 1_555 1_555
C7 N1E 1_555 1_555
C7 C7E 1_555 1_555
O3 N4 1_555 1_555
O4 N4 1_555 1_555
N4 C15 1_555 1_555
C14 C15 1_555 1_555
C14 C19 1_555 1_555
C15 C16 1_555 1_555
C16 H10 1_555 1_555
C16 C17 1_555 1_555
C17 H11 1_555 1_555
C17 C18 1_555 1_555
C18 H12 1_555 1_555
C18 C19 1_555 1_555
C19 H13 1_555 1_555
O2E N4E 1_555 1_555
N1E C7E 1_555 1_555
N2E O3E 1_555 1_555
N2E O4E 1_555 1_555
N2E N4E 1_555 1_555
C1E C7E 1_555 1_555
C1E C14E 1_555 1_555
C1E C15E 1_555 1_555
C2E N4E 1_555 1_555
C2E C14E 1_555 1_555
C2E C15E 1_555 1_555
C3E C15E 1_555 1_555
C3E C16E 1_555 1_555
H1E C16E 1_555 1_555
H1E H10E 1_555 1_555
C4E C16E 1_555 1_555
C4E C17E 1_555 1_555
H2E C17E 1_555 1_555
H2E H11E 1_555 1_555
C5E C6E 1_555 1_555
C5E C17E 1_555 1_555
C5E C18E 1_555 1_555
C5E C19E 1_555 1_555
H3E C18E 1_555 1_555
H3E H12E 1_555 1_555
C6E C14E 1_555 1_555
C6E C18E 1_555 1_555
C6E C19E 1_555 1_555
H4E C19E 1_555 1_555
H4E H13E 1_555 1_555
C7E C14E 1_555 1_555
O3E N4E 1_555 1_555
O4E N4E 1_555 1_555
N4E C15E 1_555 1_555
C14E C15E 1_555 1_555
C14E C19E 1_555 1_555
C15E C16E 1_555 1_555
C16E H10E 1_555 1_555
C16E C17E 1_555 1_555
C17E H11E 1_555 1_555
C17E C18E 1_555 1_555
C18E H12E 1_555 1_555
C18E C19E 1_555 1_555
C19E H13E 1_555 1_555

#END
