
#######################################################################
#
#                 Cambridge Crystallographic Data Centre
#                                CCDC 
#
#######################################################################
#
# If this CIF has been generated from an entry in the Cambridge 
# Structural Database, then it will include bibliographic, chemical, 
# crystal, experimental, refinement or atomic coordinate data resulting 
# from the CCDC's data processing and validation procedures.
#
#######################################################################

data_XUDXEZ
_chemical_formula_moiety         'C13 H9 I1 N2 O2'
_chemical_name_systematic        4-Nitrobenzylidene-2'-iodoaniline
_symmetry_cell_setting           monoclinic
_symmetry_space_group_name_H-M   'P 21/c'
_symmetry_Int_Tables_number      14
_space_group_name_Hall           '-P 2ybc'
loop_
_symmetry_equiv_pos_site_id
_symmetry_equiv_pos_as_xyz
1 x,y,z
2 x,1/2-y,1/2+z
3 -x,-y,-z
4 -x,1/2+y,1/2-z
_cell_length_a                   10.1401(7)
_cell_length_b                   13.7454(10)
_cell_length_c                   9.7829(6)
_cell_angle_alpha                90
_cell_angle_beta                 113.961(4)
_cell_angle_gamma                90
_cell_volume                     1246.03
_exptl_crystal_colour            yellow
_exptl_crystal_description       block
_cell_formula_units_Z            4
_exptl_crystal_recrystallization_method ethanol
loop_
_atom_site_label
_atom_site_type_symbol
_atom_site_fract_x
_atom_site_fract_y
_atom_site_fract_z
C1 C 0.3128(4) 0.4375(3) 0.3258(5)
C2 C 0.3493(4) 0.4817(3) 0.2182(5)
C3 C 0.3804(4) 0.5804(3) 0.2266(5)
C4 C 0.3716(4) 0.6320(3) 0.3438(5)
N1 N 0.4031(4) 0.7373(2) 0.3532(4)
O1 O 0.3712(4) 0.7858(2) 0.4390(4)
O2 O 0.4591(4) 0.7706(2) 0.2739(4)
C5 C 0.3348(4) 0.5904(3) 0.4515(5)
C6 C 0.3041(4) 0.4926(3) 0.4413(5)
C7 C 0.2754(4) 0.3332(3) 0.3088(5)
N2 N 0.2389(4) 0.2895(3) 0.4031(4)
C8 C 0.1994(5) 0.1901(3) 0.3750(5)
C9 C 0.0769(5) 0.1582(3) 0.3934(5)
I1 I -0.04322(3) 0.256503(19) 0.46080(3)
C10 C 0.0321(5) 0.0621(3) 0.3637(5)
C11 C 0.1110(5) -0.0027(3) 0.3221(5)
C12 C 0.2366(6) 0.0272(3) 0.3083(5)
C13 C 0.2788(5) 0.1236(3) 0.3336(5)
H1 H 0.3529 0.4441 0.1384
H2 H 0.4067 0.6113 0.1544
H3 H 0.3306 0.6284 0.5308
H4 H 0.2769 0.4624 0.5133
H5 H 0.2786 0.2981 0.2265
H6 H -0.0536 0.0414 0.3723
H7 H 0.0803 -0.0685 0.3025
H8 H 0.2927 -0.0183 0.2818
H9 H 0.3632 0.1443 0.3223
loop_
_geom_bond_atom_site_label_1
_geom_bond_atom_site_label_2
_geom_bond_site_symmetry_1
_geom_bond_site_symmetry_2
C1 C2 1_555 1_555
C2 C3 1_555 1_555
C3 C4 1_555 1_555
C4 N1 1_555 1_555
N1 O1 1_555 1_555
O2 N1 1_555 1_555
C5 C4 1_555 1_555
C6 C1 1_555 1_555
C7 C1 1_555 1_555
N2 C7 1_555 1_555
C8 N2 1_555 1_555
C9 C8 1_555 1_555
I1 C9 1_555 1_555
C10 C9 1_555 1_555
C11 C10 1_555 1_555
C12 C11 1_555 1_555
C13 C8 1_555 1_555
H1 C2 1_555 1_555
H2 C3 1_555 1_555
H3 C5 1_555 1_555
H4 C6 1_555 1_555
H5 C7 1_555 1_555
H6 C10 1_555 1_555
H7 C11 1_555 1_555
H8 C12 1_555 1_555
H9 C13 1_555 1_555
C5 C6 1_555 1_555
C12 C13 1_555 1_555

#END
