
#######################################################################
#
#                 Cambridge Crystallographic Data Centre
#                                CCDC 
#
#######################################################################
#
# If this CIF has been generated from an entry in the Cambridge 
# Structural Database, then it will include bibliographic, chemical, 
# crystal, experimental, refinement or atomic coordinate data resulting 
# from the CCDC's data processing and validation procedures.
#
#######################################################################

data_XUFNIW
_chemical_formula_moiety         'C14 H13 F2 N1 O3 S2'
_chemical_name_systematic        
N-p-Tosyl-S-difluoromethyl-S-phenylsulfoximine
_symmetry_cell_setting           monoclinic
_symmetry_space_group_name_H-M   'P 21/n'
_symmetry_Int_Tables_number      14
_space_group_name_Hall           '-P 2yn'
loop_
_symmetry_equiv_pos_site_id
_symmetry_equiv_pos_as_xyz
1 x,y,z
2 1/2-x,1/2+y,1/2-z
3 -x,-y,-z
4 1/2+x,1/2-y,1/2+z
_cell_length_a                   10.0146(11)
_cell_length_b                   9.3156(10)
_cell_length_c                   16.9927(19)
_cell_angle_alpha                90
_cell_angle_beta                 100.270(2)
_cell_angle_gamma                90
_cell_volume                     1559.88
_exptl_crystal_colour            colorless
_exptl_crystal_description       prismatic
_chemical_melting_point          '96-98 deg.C'
_cell_formula_units_Z            4
loop_
_atom_site_label
_atom_site_type_symbol
_atom_site_fract_x
_atom_site_fract_y
_atom_site_fract_z
S1 S 0.86117(6) 0.68260(6) 0.11868(4)
S2 S 0.94482(6) 0.68021(7) 0.28162(3)
F1 F 0.62654(15) 0.7358(2) 0.15780(12)
F2 F 0.66195(19) 0.8387(2) 0.05057(10)
O1 O 0.95770(17) 0.77015(18) 0.08828(11)
O2 O 0.91002(17) 0.82937(17) 0.27281(10)
O3 O 0.89285(16) 0.5991(2) 0.34027(10)
N1 N 0.89975(18) 0.5972(2) 0.19655(11)
C1 C 0.7185(3) 0.8054(3) 0.12510(17)
H1 H 0.7501 0.8916 0.1559
C2 C 0.7906(2) 0.5531(2) 0.04856(13)
C3 C 0.7094(2) 0.4466(3) 0.06982(14)
H2 H 0.6925 0.4403 0.1218
C4 C 0.6538(3) 0.3494(3) 0.01237(16)
H3 H 0.5969 0.2774 0.0251
C5 C 0.6816(3) 0.3580(3) -0.06295(16)
H4 H 0.6445 0.2912 -0.1013
C6 C 0.7637(3) 0.4643(3) -0.08269(15)
H5 H 0.7823 0.4692 -0.1343
C7 C 0.8189(3) 0.5639(3) -0.02686(14)
H6 H 0.8743 0.6369 -0.0400
C8 C 1.1227(2) 0.6663(2) 0.30292(12)
C9 C 1.1834(2) 0.5713(3) 0.36016(14)
H7 H 1.1310 0.5116 0.3863
C10 C 1.3229(3) 0.5654(3) 0.37833(17)
H8 H 1.3642 0.5016 0.4173
C11 C 1.4027(2) 0.6524(3) 0.33988(17)
C12 C 1.3391(3) 0.7470(3) 0.28294(16)
H9 H 1.3914 0.8073 0.2571
C13 C 1.1998(2) 0.7544(3) 0.26346(14)
H10 H 1.1583 0.8178 0.2243
C14 C 1.5556(3) 0.6477(4) 0.3607(2)
H11 H 1.5827 0.5794 0.4028
H12 H 1.5894 0.7410 0.3781
H13 H 1.5920 0.6198 0.3144
loop_
_geom_bond_atom_site_label_1
_geom_bond_atom_site_label_2
_geom_bond_site_symmetry_1
_geom_bond_site_symmetry_2
S1 O1 1_555 1_555
S2 O2 1_555 1_555
F1 C1 1_555 1_555
F2 C1 1_555 1_555
O3 S2 1_555 1_555
N1 S1 1_555 1_555
C1 S1 1_555 1_555
H1 C1 1_555 1_555
C2 S1 1_555 1_555
C3 C2 1_555 1_555
H2 C3 1_555 1_555
C4 C3 1_555 1_555
H3 C4 1_555 1_555
C5 C4 1_555 1_555
H4 C5 1_555 1_555
C6 C5 1_555 1_555
H5 C6 1_555 1_555
C7 C2 1_555 1_555
H6 C7 1_555 1_555
C8 S2 1_555 1_555
C9 C8 1_555 1_555
H7 C9 1_555 1_555
C10 C9 1_555 1_555
H8 C10 1_555 1_555
C11 C10 1_555 1_555
C12 C11 1_555 1_555
H9 C12 1_555 1_555
C13 C8 1_555 1_555
H10 C13 1_555 1_555
C14 C11 1_555 1_555
H11 C14 1_555 1_555
H12 C14 1_555 1_555
H13 C14 1_555 1_555
S2 N1 1_555 1_555
C6 C7 1_555 1_555
C12 C13 1_555 1_555

#END
