
#######################################################################
#
#                 Cambridge Crystallographic Data Centre
#                                CCDC 
#
#######################################################################
#
# If this CIF has been generated from an entry in the Cambridge 
# Structural Database, then it will include bibliographic, chemical, 
# crystal, experimental, refinement or atomic coordinate data resulting 
# from the CCDC's data processing and validation procedures.
#
#######################################################################

data_XUGDIO
_chemical_formula_moiety         'C22 H20 Br1 N1 O3'
_chemical_name_systematic        
'Ethyl 2-(4-bromophenyl)-3-cyano-4-phenyl-4-vinyltetrahydrofuran-3-carboxylate'
_symmetry_cell_setting           tetragonal
_symmetry_space_group_name_H-M   'P 41'
_symmetry_Int_Tables_number      76
_space_group_name_Hall           'P 4w'
loop_
_symmetry_equiv_pos_site_id
_symmetry_equiv_pos_as_xyz
1 x,y,z
2 -y,x,1/4+z
3 -x,-y,1/2+z
4 y,-x,3/4+z
_cell_length_a                   12.3961(4)
_cell_length_b                   12.3961(4)
_cell_length_c                   26.636(2)
_cell_angle_alpha                90
_cell_angle_beta                 90
_cell_angle_gamma                90
_cell_volume                     4092.98
_cell_formula_units_Z            8
loop_
_atom_site_label
_atom_site_type_symbol
_atom_site_fract_x
_atom_site_fract_y
_atom_site_fract_z
Br1 Br -0.07490(17) -0.61163(15) -0.15568(11)
O1 O -0.4717(8) -0.9864(8) -0.1208(4)
C1 C -0.2975(8) -1.1088(10) -0.1605(4)
C2 C -0.2431(12) -0.7565(12) -0.1688(6)
H1 H -0.2501 -0.7207 -0.2002
C3 C -0.1689(11) -0.7264(10) -0.1368(6)
C4 C -0.4290(9) -1.2829(10) -0.1272(4)
C5 C -0.3139(11) -0.8441(11) -0.1562(5)
H2 H -0.3703 -0.8643 -0.1784
C6 C -0.3519(13) -1.4529(14) -0.1396(8)
H3 H -0.2939 -1.5011 -0.1332
C7 C -0.2991(10) -0.9001(11) -0.1104(5)
C8 C -0.5141(13) -1.3180(16) -0.1558(9)
H4 H -0.5702 -1.2685 -0.1636
O2 O -0.2445(11) -1.1237(14) -0.0282(4)
C9 C -0.3440(11) -1.3534(13) -0.1212(7)
H5 H -0.2805 -1.3312 -0.1041
C10 C -0.1516(13) -0.7790(13) -0.0912(7)
H6 H -0.0952 -0.7568 -0.0694
C11 C -0.5120(11) -1.0913(14) -0.1282(6)
H7 H -0.5167 -1.1072 -0.1646
H8 H -0.5853 -1.0974 -0.1137
O3 O -0.1524(8) -1.1695(11) -0.0966(5)
C12 C -0.3713(11) -0.9888(11) -0.0958(4)
H9 H -0.3846 -0.9840 -0.0588
N1 N -0.2781(12) -1.1086(14) -0.2025(4)
C13 C -0.3269(8) -1.1053(10) -0.1082(4)
C14 C -0.4356(8) -1.1723(10) -0.1025(4)
C15 C -0.2340(10) -1.1361(11) -0.0733(5)
C16 C -0.2182(15) -0.8642(13) -0.0784(5)
H10 H -0.2084 -0.8990 -0.0469
C17 C -0.4665(13) -1.1804(13) -0.0480(5)
H11 H -0.4614 -1.1160 -0.0287
C18 C -0.499(3) -1.266(2) -0.0244(8)
H12 H -0.5059 -1.3327 -0.0419
H13 H -0.5169 -1.2624 0.0102
C19 C -0.4356(17) -1.4903(18) -0.1664(8)
H14 H -0.4347 -1.5614 -0.1797
C20 C -0.044(4) -1.311(3) -0.0668(15)
H15 H -0.0896 -1.3431 -0.0927
H16 H -0.0650 -1.3385 -0.0337
H17 H 0.0319 -1.3302 -0.0733
C21 C -0.5216(19) -1.4244(19) -0.1743(11)
H18 H -0.5841 -1.4490 -0.1914
C22 C -0.0549(16) -1.197(3) -0.0676(15)
H19 H 0.0094 -1.1643 -0.0834
H20 H -0.0613 -1.1696 -0.0329
Br2 Br -0.5649(2) -0.76299(19) -0.2315(2)
O4 O -0.9733(8) -0.3927(8) -0.2472(5)
C23 C -1.0082(9) -0.2863(12) -0.2336(5)
H21 H -1.0045 -0.2768 -0.1968
H22 H -1.0836 -0.2747 -0.2445
C24 C -0.6641(14) -0.6515(12) -0.2427(8)
C25 C -0.9229(9) -0.1009(10) -0.2325(4)
C26 C -0.7347(11) -0.2454(11) -0.2923(4)
C27 C -0.8010(10) -0.4833(9) -0.2628(4)
C28 C -0.8270(8) -0.2763(9) -0.2574(3)
O5 O -0.7462(12) -0.2450(13) -0.3376(4)
C29 C -1.0154(12) -0.0565(15) -0.2103(7)
H23 H -1.0806 -0.0967 -0.2098
O6 O -0.6440(8) -0.2279(13) -0.2685(5)
C30 C -0.8101(12) -0.5409(11) -0.2180(5)
H24 H -0.8640 -0.5226 -0.1941
C31 C -0.7389(16) -0.6258(14) -0.2088(8)
H25 H -0.7437 -0.6653 -0.1783
C32 C -0.8744(10) -0.3884(10) -0.2731(4)
H26 H -0.8900 -0.3865 -0.3099
C33 C -0.6570(15) -0.5920(14) -0.2877(8)
H27 H -0.6022 -0.6081 -0.3115
C34 C -0.8343(14) -0.0389(13) -0.2310(7)
H28 H -0.7695 -0.0668 -0.2450
C35 C -0.5480(17) -0.193(2) -0.2956(12)
H29 H -0.5124 -0.1337 -0.2772
H30 H -0.5683 -0.1669 -0.3293
C36 C -0.9338(8) -0.2068(9) -0.2595(4)
C37 C -0.9648(12) -0.1815(12) -0.3133(4)
H31 H -0.9131 -0.1473 -0.3343
N2 N -0.7757(10) -0.2895(11) -0.1624(4)
C38 C -0.919(2) 0.1015(16) -0.1868(8)
H32 H -0.9152 0.1674 -0.1687
C39 C -0.7938(7) -0.2837(8) -0.2055(4)
C40 C -0.7272(16) -0.5131(14) -0.2967(6)
H33 H -0.7249 -0.4769 -0.3281
C41 C -1.0616(18) -0.2052(16) -0.3325(7)
H34 H -1.1145 -0.2394 -0.3122
H35 H -1.0775 -0.1878 -0.3664
C42 C -0.832(2) 0.0629(15) -0.2105(9)
H36 H -0.7688 0.1057 -0.2131
C43 C -1.012(2) 0.046(2) -0.1890(10)
H37 H -1.0765 0.0769 -0.1759
C44 C -0.474(2) -0.285(4) -0.300(2)
H38 H -0.5020 -0.3364 -0.3249
H39 H -0.4663 -0.3209 -0.2676
H40 H -0.4028 -0.2591 -0.3113
loop_
_geom_bond_atom_site_label_1
_geom_bond_atom_site_label_2
_geom_bond_site_symmetry_1
_geom_bond_site_symmetry_2
Br1 C3 1_555 1_555
O1 C11 1_555 1_555
C1 N1 1_555 1_555
C2 H1 1_555 1_555
C3 C2 1_555 1_555
C4 C8 1_555 1_555
C5 C2 1_555 1_555
H2 C5 1_555 1_555
C6 H3 1_555 1_555
C7 C5 1_555 1_555
C8 H4 1_555 1_555
O2 C15 1_555 1_555
C9 C4 1_555 1_555
H5 C9 1_555 1_555
C10 C3 1_555 1_555
H6 C10 1_555 1_555
C11 H7 1_555 1_555
H8 C11 1_555 1_555
O3 C15 1_555 1_555
C12 O1 1_555 1_555
H9 C12 1_555 1_555
C13 C1 1_555 1_555
C14 C4 1_555 1_555
C15 C13 1_555 1_555
C16 C7 1_555 1_555
H10 C16 1_555 1_555
C17 C14 1_555 1_555
H11 C17 1_555 1_555
C18 C17 1_555 1_555
H12 C18 1_555 1_555
H13 C18 1_555 1_555
C19 C6 1_555 1_555
H14 C19 1_555 1_555
C20 H15 1_555 1_555
H16 C20 1_555 1_555
H17 C20 1_555 1_555
C21 C8 1_555 1_555
H18 C21 1_555 1_555
C22 O3 1_555 1_555
H19 C22 1_555 1_555
H20 C22 1_555 1_555
Br2 C24 1_555 1_555
O4 C23 1_555 1_555
C23 H21 1_555 1_555
H22 C23 1_555 1_555
C24 C31 1_555 1_555
C25 C29 1_555 1_555
C26 C28 1_555 1_555
C27 C30 1_555 1_555
C28 C32 1_555 1_555
O5 C26 1_555 1_555
C29 H23 1_555 1_555
O6 C26 1_555 1_555
C30 H24 1_555 1_555
C31 C30 1_555 1_555
H25 C31 1_555 1_555
C32 O4 1_555 1_555
H26 C32 1_555 1_555
C33 C24 1_555 1_555
H27 C33 1_555 1_555
C34 C25 1_555 1_555
H28 C34 1_555 1_555
C35 O6 1_555 1_555
H29 C35 1_555 1_555
H30 C35 1_555 1_555
C36 C23 1_555 1_555
C37 C36 1_555 1_555
H31 C37 1_555 1_555
N2 C39 1_555 1_555
C38 H32 1_555 1_555
C39 C28 1_555 1_555
C40 C27 1_555 1_555
H33 C40 1_555 1_555
C41 C37 1_555 1_555
H34 C41 1_555 1_555
H35 C41 1_555 1_555
C42 C34 1_555 1_555
H36 C42 1_555 1_555
C43 C29 1_555 1_555
H37 C43 1_555 1_555
C44 C35 1_555 1_555
H38 C44 1_555 1_555
H39 C44 1_555 1_555
H40 C44 1_555 1_555
C6 C9 1_555 1_555
C7 C12 1_555 1_555
C10 C16 1_555 1_555
C11 C14 1_555 1_555
C12 C13 1_555 1_555
C13 C14 1_555 1_555
C19 C21 1_555 1_555
C20 C22 1_555 1_555
C25 C36 1_555 1_555
C27 C32 1_555 1_555
C28 C36 1_555 1_555
C33 C40 1_555 1_555
C38 C42 1_555 1_555
C38 C43 1_555 1_555

#END
