
#######################################################################
#
#                 Cambridge Crystallographic Data Centre
#                                CCDC 
#
#######################################################################
#
# If this CIF has been generated from an entry in the Cambridge 
# Structural Database, then it will include bibliographic, chemical, 
# crystal, experimental, refinement or atomic coordinate data resulting 
# from the CCDC's data processing and validation procedures.
#
#######################################################################

data_XUGGOX
_chemical_formula_moiety         'C9 H20 N1 1+,Cl1 O4 1-'
_chemical_name_systematic        '1-Methyl-1-propylpiperidinium perchlorate'
_symmetry_cell_setting           orthorhombic
_symmetry_space_group_name_H-M   'P 21 21 21'
_symmetry_Int_Tables_number      19
_space_group_name_Hall           'P 2ac 2ab'
loop_
_symmetry_equiv_pos_site_id
_symmetry_equiv_pos_as_xyz
1 x,y,z
2 1/2-x,-y,1/2+z
3 -x,1/2+y,1/2-z
4 1/2+x,1/2-y,-z
_cell_length_a                   8.0231(16)
_cell_length_b                   12.525(3)
_cell_length_c                   12.668(3)
_cell_angle_alpha                90
_cell_angle_beta                 90
_cell_angle_gamma                90
_cell_volume                     1273
_exptl_crystal_colour            colorless
_exptl_crystal_description       Prism
_cell_formula_units_Z            4
loop_
_atom_site_label
_atom_site_type_symbol
_atom_site_fract_x
_atom_site_fract_y
_atom_site_fract_z
Cl1 Cl 0.21513(12) 0.20153(7) 0.23619(7)
O1 O 0.2886(8) 0.2046(4) 0.3300(4)
O2 O 0.1559(6) 0.3027(3) 0.2106(5)
O3 O 0.0817(6) 0.1250(4) 0.2399(5)
O4 O 0.3167(8) 0.1669(5) 0.1647(6)
C1 C 0.7104(8) 1.0706(4) 0.4015(4)
H1 H 0.7666 1.0243 0.3514
H2 H 0.6467 1.1224 0.3613
N1 N 0.5915(4) 1.0043(2) 0.4654(3)
C2 C 0.6875(7) 0.9298(3) 0.5296(4)
H3 H 0.6110 0.8919 0.5755
H4 H 0.7381 0.8776 0.4830
C3 C 0.4814(7) 1.0647(3) 0.5324(4)
H5 H 0.5441 1.0958 0.5891
H6 H 0.3974 1.0182 0.5608
H7 H 0.4292 1.1202 0.4920
C4 C 0.4956(7) 0.9535(3) 0.3737(5)
H8 H 0.4562 1.0107 0.3286
H9 H 0.5742 0.9118 0.3327
C5 C 0.8148(7) 0.9755(6) 0.5929(4)
H10 H 0.8789 0.9195 0.6267
H11 H 0.7656 1.0197 0.6474
C6 C 0.2685(7) 0.8393(4) 0.3169(5)
H12 H 0.1824 0.7955 0.3469
H13 H 0.3416 0.7957 0.2751
H14 H 0.2191 0.8932 0.2730
C7 C 0.3586(7) 0.8875(7) 0.3971(6)
H15 H 0.3987 0.8311 0.4431
H16 H 0.2808 0.9298 0.4382
C8 C 0.8312(8) 1.1252(6) 0.4603(6)
H17 H 0.7782 1.1757 0.5077
H18 H 0.9050 1.1643 0.4136
C9 C 0.9292(8) 1.0433(7) 0.5230(6)
H19 H 1.0104 1.0796 0.5669
H20 H 0.9891 0.9970 0.4747
loop_
_geom_bond_atom_site_label_1
_geom_bond_atom_site_label_2
_geom_bond_site_symmetry_1
_geom_bond_site_symmetry_2
Cl1 O1 1_555 1_555
O2 Cl1 1_555 1_555
O3 Cl1 1_555 1_555
O4 Cl1 1_555 1_555
C1 H1 1_555 1_555
H2 C1 1_555 1_555
N1 C1 1_555 1_555
C2 N1 1_555 1_555
H3 C2 1_555 1_555
H4 C2 1_555 1_555
C3 N1 1_555 1_555
H5 C3 1_555 1_555
H6 C3 1_555 1_555
H7 C3 1_555 1_555
C4 N1 1_555 1_555
H8 C4 1_555 1_555
H9 C4 1_555 1_555
C5 C2 1_555 1_555
H10 C5 1_555 1_555
H11 C5 1_555 1_555
C6 H12 1_555 1_555
H13 C6 1_555 1_555
H14 C6 1_555 1_555
C7 C4 1_555 1_555
H15 C7 1_555 1_555
H16 C7 1_555 1_555
C8 C1 1_555 1_555
H17 C8 1_555 1_555
H18 C8 1_555 1_555
C9 C5 1_555 1_555
H19 C9 1_555 1_555
H20 C9 1_555 1_555
C6 C7 1_555 1_555
C8 C9 1_555 1_555

#END
