
#######################################################################
#
#                 Cambridge Crystallographic Data Centre
#                                CCDC 
#
#######################################################################
#
# If this CIF has been generated from an entry in the Cambridge 
# Structural Database, then it will include bibliographic, chemical, 
# crystal, experimental, refinement or atomic coordinate data resulting 
# from the CCDC's data processing and validation procedures.
#
#######################################################################

data_XUGHUE
_chemical_formula_moiety         'C64 H70 N4,2(C1 H1 Cl3)'
_chemical_name_systematic        
"10,10'-(1,4-Phenylene)bis(9-dodecyl-9H-pyreno[4,5-d]imidazole) chloroform solvate"
_symmetry_cell_setting           triclinic
_symmetry_space_group_name_H-M   'P -1'
_symmetry_Int_Tables_number      2
_space_group_name_Hall           '-P 1'
loop_
_symmetry_equiv_pos_site_id
_symmetry_equiv_pos_as_xyz
1 x,y,z
2 -x,-y,-z
_cell_length_a                   8.6861(11)
_cell_length_b                   13.2067(17)
_cell_length_c                   14.1760(18)
_cell_angle_alpha                110.536(2)
_cell_angle_beta                 90.2000(10)
_cell_angle_gamma                99.830(2)
_cell_volume                     1496.95
_exptl_crystal_colour            colorless
_exptl_crystal_description       block
_cell_formula_units_Z            1
loop_
_atom_site_label
_atom_site_type_symbol
_atom_site_fract_x
_atom_site_fract_y
_atom_site_fract_z
C1 C 0.3672(3) 0.82889(19) 0.43764(19)
C2 C 0.4360(3) 0.77706(18) 0.35072(19)
C3 C 0.4562(3) 0.8194(2) 0.2709(2)
C4 C 0.5292(3) 0.7707(2) 0.1842(2)
H1 H 0.5675 0.7067 0.1760
C5 C 0.5456(4) 0.8163(3) 0.1096(2)
H2 H 0.5960 0.7834 0.0520
C6 C 0.4875(4) 0.9104(3) 0.1205(3)
H3 H 0.4978 0.9397 0.0695
C7 C 0.4140(4) 0.9621(2) 0.2063(3)
C8 C 0.3533(4) 1.0602(3) 0.2193(3)
H4 H 0.3598 1.0890 0.1680
C9 C 0.2877(4) 1.1109(3) 0.3041(3)
H5 H 0.2504 1.1748 0.3104
C10 C 0.2731(3) 1.0705(2) 0.3851(3)
C11 C 0.2085(4) 1.1256(2) 0.4738(3)
H6 H 0.1731 1.1902 0.4805
C12 C 0.1959(4) 1.0867(2) 0.5515(3)
H7 H 0.1537 1.1255 0.6106
C13 C 0.2458(3) 0.9895(2) 0.5426(2)
H8 H 0.2351 0.9634 0.5956
C14 C 0.3115(3) 0.93056(19) 0.4556(2)
C15 C 0.3275(3) 0.9720(2) 0.3747(2)
C16 C 0.3982(3) 0.9176(2) 0.2846(2)
C17 C 0.4378(3) 0.67684(19) 0.44113(19)
C18 C 0.4671(3) 0.58801(19) 0.47433(19)
C19 C 0.3571(3) 0.5318(2) 0.5175(2)
H9 H 0.2600 0.5527 0.5299
C20 C 0.6105(3) 0.5548(2) 0.4574(2)
H10 H 0.6863 0.5915 0.4287
C21 C 0.3203(3) 0.7849(2) 0.59861(19)
H11 H 0.3555 0.8621 0.6382
H12 H 0.3717 0.7427 0.6287
C22 C 0.1446(3) 0.7559(2) 0.6044(2)
H13 H 0.0945 0.8064 0.5847
H14 H 0.1068 0.6824 0.5563
C23 C 0.0968(4) 0.7604(3) 0.7077(3)
H15 H -0.0154 0.7347 0.7037
H16 H 0.1476 0.7103 0.7274
C24 C 0.1361(5) 0.8717(3) 0.7873(3)
H17 H 0.0997 0.9242 0.7630
H18 H 0.2490 0.8924 0.7992
C25 C 0.0641(6) 0.8792(3) 0.8879(3)
H19 H 0.0987 0.9531 0.9362
H20 H -0.0489 0.8678 0.8774
C26 C 0.1021(6) 0.8023(4) 0.9312(3)
H21 H 0.2152 0.8121 0.9399
H22 H 0.0644 0.7283 0.8839
C27 C 0.0329(5) 0.8132(3) 1.0341(3)
H23 H 0.0765 0.8851 1.0832
H24 H -0.0795 0.8083 1.0270
C28 C 0.0658(4) 0.7273(3) 1.0722(3)
H25 H 0.1783 0.7319 1.0772
H26 H 0.0214 0.6559 1.0226
C29 C 0.0044(4) 0.7331(3) 1.1728(3)
H27 H -0.1079 0.7303 1.1690
H28 H 0.0517 0.8029 1.2236
C30 C 0.0374(4) 0.6411(3) 1.2052(3)
H29 H -0.0103 0.5715 1.1542
H30 H 0.1496 0.6436 1.2078
C31 C -0.0205(4) 0.6439(3) 1.3053(3)
H31 H -0.1321 0.6442 1.3041
H32 H 0.0309 0.7117 1.3573
C32 C 0.0092(5) 0.5477(3) 1.3322(3)
H33 H -0.0455 0.4805 1.2828
H34 H -0.0276 0.5546 1.3976
H35 H 0.1194 0.5468 1.3334
N1 N 0.3688(2) 0.76367(16) 0.49590(15)
N2 N 0.4798(2) 0.68284(16) 0.35337(16)
C1A C 0.6328(3) 0.17111(19) 0.56236(19)
C2A C 0.5640(3) 0.22294(18) 0.64928(19)
C3A C 0.5438(3) 0.1806(2) 0.7291(2)
C4A C 0.4708(3) 0.2293(2) 0.8158(2)
H1A H 0.4325 0.2933 0.8240
C5A C 0.4544(4) 0.1837(3) 0.8904(2)
H2A H 0.4040 0.2166 0.9480
C6A C 0.5125(4) 0.0896(3) 0.8795(3)
H3A H 0.5022 0.0603 0.9305
C7A C 0.5860(4) 0.0379(2) 0.7937(3)
C8A C 0.6467(4) -0.0602(3) 0.7807(3)
H4A H 0.6402 -0.0890 0.8320
C9A C 0.7123(4) -0.1109(3) 0.6959(3)
H5A H 0.7496 -0.1748 0.6896
C10A C 0.7269(3) -0.0705(2) 0.6149(3)
C11A C 0.7915(4) -0.1256(2) 0.5262(3)
H6A H 0.8269 -0.1902 0.5195
C12A C 0.8041(4) -0.0867(2) 0.4485(3)
H7A H 0.8463 -0.1255 0.3894
C13A C 0.7542(3) 0.0105(2) 0.4574(2)
H8A H 0.7649 0.0366 0.4044
C14A C 0.6885(3) 0.06944(19) 0.5444(2)
C15A C 0.6725(3) 0.0280(2) 0.6253(2)
C16A C 0.6018(3) 0.0824(2) 0.7154(2)
C17A C 0.5622(3) 0.32316(19) 0.55887(19)
C18A C 0.5329(3) 0.41199(19) 0.52567(19)
C19A C 0.6429(3) 0.4682(2) 0.4825(2)
H9A H 0.7400 0.4473 0.4701
C20A C 0.3895(3) 0.4452(2) 0.5426(2)
H10A H 0.3137 0.4085 0.5713
C21A C 0.6797(3) 0.2151(2) 0.40139(19)
H11A H 0.6445 0.1379 0.3618
H12A H 0.6283 0.2573 0.3713
C22A C 0.8554(3) 0.2441(2) 0.3956(2)
H13A H 0.9055 0.1936 0.4153
H14A H 0.8932 0.3176 0.4437
C23A C 0.9032(4) 0.2396(3) 0.2923(3)
H15A H 1.0154 0.2653 0.2963
H16A H 0.8524 0.2897 0.2726
C24A C 0.8639(5) 0.1283(3) 0.2127(3)
H17A H 0.9003 0.0758 0.2370
H18A H 0.7510 0.1076 0.2008
C25A C 0.9359(6) 0.1208(3) 0.1121(3)
H19A H 0.9013 0.0469 0.0638
H20A H 1.0489 0.1322 0.1226
C26A C 0.8979(6) 0.1977(4) 0.0688(3)
H21A H 0.7848 0.1879 0.0601
H22A H 0.9356 0.2717 0.1161
C27A C 0.9671(5) 0.1868(3) -0.0341(3)
H23A H 0.9235 0.1149 -0.0832
H24A H 1.0795 0.1917 -0.0270
C28A C 0.9342(4) 0.2727(3) -0.0722(3)
H25A H 0.8217 0.2681 -0.0772
H26A H 0.9786 0.3441 -0.0226
C29A C 0.9956(4) 0.2669(3) -0.1728(3)
H27A H 1.1079 0.2697 -0.1690
H28A H 0.9483 0.1971 -0.2236
C30A C 0.9626(4) 0.3589(3) -0.2052(3)
H29A H 1.0103 0.4285 -0.1542
H30A H 0.8504 0.3564 -0.2078
C31A C 1.0205(4) 0.3561(3) -0.3053(3)
H31A H 1.1321 0.3558 -0.3041
H32A H 0.9691 0.2883 -0.3573
C32A C 0.9908(5) 0.4523(3) -0.3322(3)
H33A H 1.0455 0.5195 -0.2828
H34A H 1.0276 0.4454 -0.3976
H35A H 0.8806 0.4532 -0.3334
N1A N 0.6312(2) 0.23633(16) 0.50410(15)
N2A N 0.5202(2) 0.31716(16) 0.64663(16)
C33 C 0.4612(5) 0.4447(3) 0.1787(3)
H36 H 0.4716 0.5150 0.2351
Cl1 Cl 0.3285(3) 0.4438(2) 0.0884(2)
Cl2 Cl 0.6402(3) 0.4379(3) 0.1290(2)
Cl3 Cl 0.4025(7) 0.3397(3) 0.2205(2)
Cl4? Cl 0.405(4) 0.4585(10) 0.0779(8)
Cl5? Cl 0.6022(14) 0.3724(11) 0.1696(15)
Cl6? Cl 0.3185(19) 0.3600(15) 0.2096(19)
loop_
_geom_bond_atom_site_label_1
_geom_bond_atom_site_label_2
_geom_bond_site_symmetry_1
_geom_bond_site_symmetry_2
C1 C2 1_555 1_555
C2 C3 1_555 1_555
C3 C4 1_555 1_555
C4 H1 1_555 1_555
C5 C4 1_555 1_555
H2 C5 1_555 1_555
C6 C5 1_555 1_555
H3 C6 1_555 1_555
C7 C6 1_555 1_555
C8 C7 1_555 1_555
H4 C8 1_555 1_555
C9 C8 1_555 1_555
H5 C9 1_555 1_555
C10 C9 1_555 1_555
C11 C10 1_555 1_555
H6 C11 1_555 1_555
C12 C11 1_555 1_555
H7 C12 1_555 1_555
C13 C12 1_555 1_555
H8 C13 1_555 1_555
C14 C1 1_555 1_555
C15 C10 1_555 1_555
C16 C3 1_555 1_555
C17 C18 1_555 1_555
C18 C19 1_555 1_555
C19 H9 1_555 1_555
C20 C18 1_555 1_555
H10 C20 1_555 1_555
C21 H11 1_555 1_555
H12 C21 1_555 1_555
C22 C21 1_555 1_555
H13 C22 1_555 1_555
H14 C22 1_555 1_555
C23 C22 1_555 1_555
H15 C23 1_555 1_555
H16 C23 1_555 1_555
C24 C23 1_555 1_555
H17 C24 1_555 1_555
H18 C24 1_555 1_555
C25 C24 1_555 1_555
H19 C25 1_555 1_555
H20 C25 1_555 1_555
C26 C25 1_555 1_555
H21 C26 1_555 1_555
H22 C26 1_555 1_555
C27 C26 1_555 1_555
H23 C27 1_555 1_555
H24 C27 1_555 1_555
C28 C27 1_555 1_555
H25 C28 1_555 1_555
H26 C28 1_555 1_555
C29 C28 1_555 1_555
H27 C29 1_555 1_555
H28 C29 1_555 1_555
C30 C29 1_555 1_555
H29 C30 1_555 1_555
H30 C30 1_555 1_555
C31 C30 1_555 1_555
H31 C31 1_555 1_555
H32 C31 1_555 1_555
C32 C31 1_555 1_555
H33 C32 1_555 1_555
H34 C32 1_555 1_555
H35 C32 1_555 1_555
N1 C1 1_555 1_555
N2 C2 1_555 1_555
C33 H36 1_555 1_555
Cl1 C33 1_555 1_555
Cl2 C33 1_555 1_555
Cl3 C33 1_555 1_555
C1A C2A 1_555 1_555
C2A C3A 1_555 1_555
C3A C4A 1_555 1_555
C4A H1A 1_555 1_555
C5A C4A 1_555 1_555
H2A C5A 1_555 1_555
C6A C5A 1_555 1_555
H3A C6A 1_555 1_555
C7A C6A 1_555 1_555
C8A C7A 1_555 1_555
H4A C8A 1_555 1_555
C9A C8A 1_555 1_555
H5A C9A 1_555 1_555
C10A C9A 1_555 1_555
C11A C10A 1_555 1_555
H6A C11A 1_555 1_555
C12A C11A 1_555 1_555
H7A C12A 1_555 1_555
C13A C12A 1_555 1_555
H8A C13A 1_555 1_555
C14A C1A 1_555 1_555
C15A C10A 1_555 1_555
C16A C3A 1_555 1_555
C17A C18A 1_555 1_555
C18A C19A 1_555 1_555
C19A C20 1_555 1_555
H9A C19A 1_555 1_555
C20A C19 1_555 1_555
H10A C20A 1_555 1_555
C21A H11A 1_555 1_555
H12A C21A 1_555 1_555
C22A C21A 1_555 1_555
H13A C22A 1_555 1_555
H14A C22A 1_555 1_555
C23A C22A 1_555 1_555
H15A C23A 1_555 1_555
H16A C23A 1_555 1_555
C24A C23A 1_555 1_555
H17A C24A 1_555 1_555
H18A C24A 1_555 1_555
C25A C24A 1_555 1_555
H19A C25A 1_555 1_555
H20A C25A 1_555 1_555
C26A C25A 1_555 1_555
H21A C26A 1_555 1_555
H22A C26A 1_555 1_555
C27A C26A 1_555 1_555
H23A C27A 1_555 1_555
H24A C27A 1_555 1_555
C28A C27A 1_555 1_555
H25A C28A 1_555 1_555
H26A C28A 1_555 1_555
C29A C28A 1_555 1_555
H27A C29A 1_555 1_555
H28A C29A 1_555 1_555
C30A C29A 1_555 1_555
H29A C30A 1_555 1_555
H30A C30A 1_555 1_555
C31A C30A 1_555 1_555
H31A C31A 1_555 1_555
H32A C31A 1_555 1_555
C32A C31A 1_555 1_555
H33A C32A 1_555 1_555
H34A C32A 1_555 1_555
H35A C32A 1_555 1_555
N1A C1A 1_555 1_555
N2A C2A 1_555 1_555
C7 C16 1_555 1_555
C13 C14 1_555 1_555
C14 C15 1_555 1_555
C15 C16 1_555 1_555
C17 N1 1_555 1_555
C17 N2 1_555 1_555
C21 N1 1_555 1_555
C7A C16A 1_555 1_555
C13A C14A 1_555 1_555
C14A C15A 1_555 1_555
C15A C16A 1_555 1_555
C17A N1A 1_555 1_555
C17A N2A 1_555 1_555
C18A C20A 1_555 1_555
C21A N1A 1_555 1_555

#END
