
#######################################################################
#
#                 Cambridge Crystallographic Data Centre
#                                CCDC 
#
#######################################################################
#
# If this CIF has been generated from an entry in the Cambridge 
# Structural Database, then it will include bibliographic, chemical, 
# crystal, experimental, refinement or atomic coordinate data resulting 
# from the CCDC's data processing and validation procedures.
#
#######################################################################

data_XUGNUK
_chemical_formula_moiety         'C17 H27 N1 O3,H2 O1'
_chemical_name_systematic        
'(3R,3aR,4aR,8aR,9aR)-3-((Dimethylamino)methyl)-4a-hydroxy-8a-methyl-5-methylenedecahydronaphtho[2,3-b]furan-2(3H)-one monohydrate'
_chemical_properties_biological  'cytotoxic activity'
_symmetry_cell_setting           monoclinic
_symmetry_space_group_name_H-M   'P 21'
_symmetry_Int_Tables_number      4
_space_group_name_Hall           'P 2yb'
loop_
_symmetry_equiv_pos_site_id
_symmetry_equiv_pos_as_xyz
1 x,y,z
2 -x,1/2+y,-z
_cell_length_a                   11.1066(12)
_cell_length_b                   6.1319(6)
_cell_length_c                   12.8531(13)
_cell_angle_alpha                90
_cell_angle_beta                 102.040(3)
_cell_angle_gamma                90
_cell_volume                     856.099
_exptl_crystal_colour            colorless
_exptl_crystal_description       prismatic
_cell_formula_units_Z            2
loop_
_atom_site_label
_atom_site_type_symbol
_atom_site_fract_x
_atom_site_fract_y
_atom_site_fract_z
N1 N 0.6002(2) 1.1669(4) 0.2768(2)
O1 O 0.29127(18) 0.5632(3) 0.32213(17)
O2 O 0.2675(2) 0.8924(4) 0.00858(15)
O3 O 0.3395(2) 1.2158(4) -0.02814(18)
C1 C 0.0443(3) 0.5061(6) 0.2158(3)
H1 H -0.0173 0.4648 0.1537
H2 H 0.0941 0.3784 0.2395
C2 C -0.0202(3) 0.5778(7) 0.3039(4)
H3 H -0.0798 0.6905 0.2769
H4 H -0.0643 0.4549 0.3255
C3 C 0.0713(3) 0.6645(7) 0.4001(3)
H5 H 0.0266 0.7277 0.4500
H6 H 0.1204 0.5447 0.4354
C4 C 0.1550(3) 0.8343(6) 0.3688(3)
C5 C 0.2215(2) 0.7569(4) 0.2843(2)
C6 C 0.3090(2) 0.9267(5) 0.2545(2)
H7 H 0.3631 0.9801 0.3187
H8 H 0.2618 1.0491 0.2198
C7 C 0.3864(2) 0.8304(5) 0.1803(2)
H9 H 0.4481 0.7299 0.2195
C8 C 0.3072(3) 0.7148(5) 0.0855(2)
H10 H 0.3601 0.6159 0.0552
C9 C 0.1981(3) 0.5871(5) 0.1043(2)
H11 H 0.2264 0.4428 0.1290
H12 H 0.1411 0.5693 0.0365
C10 C 0.1268(3) 0.6846(5) 0.1842(2)
C11 C 0.3495(3) 1.0553(6) 0.0276(2)
C12 C 0.4485(3) 1.0034(5) 0.1238(2)
H13 H 0.5157 0.9315 0.0983
C13 C 0.5016(3) 1.2061(5) 0.1841(2)
H14 H 0.5329 1.3011 0.1355
H15 H 0.4355 1.2830 0.2072
C14 C 0.6401(3) 1.3767(7) 0.3263(3)
H16 H 0.5711 1.4497 0.3450
H17 H 0.6729 1.4652 0.2772
H18 H 0.7025 1.3530 0.3892
C15 C 0.7064(3) 1.0580(7) 0.2483(3)
H19 H 0.7362 1.1442 0.1967
H20 H 0.6820 0.9169 0.2189
H21 H 0.7704 1.0415 0.3107
C16 C 0.0454(3) 0.8750(6) 0.1330(3)
H22 H -0.0214 0.8195 0.0799
H23 H 0.0937 0.9738 0.1006
H24 H 0.0132 0.9506 0.1867
C17 C 0.1669(3) 1.0292(6) 0.4111(3)
H25 H 0.1227 1.0671 0.4624
H26 H 0.2195 1.1300 0.3898
H27 H 0.331(3) 0.590(6) 0.390(3)
O4 O 0.4495(4) 0.5296(11) 0.5214(3)
H28 H 0.392(2) 0.433(4) 0.534(2)
H29 H 0.441(6) 0.552(13) 0.584(2)
loop_
_geom_bond_atom_site_label_1
_geom_bond_atom_site_label_2
_geom_bond_site_symmetry_1
_geom_bond_site_symmetry_2
N1 C13 1_555 1_555
O1 C5 1_555 1_555
O2 C8 1_555 1_555
O3 C11 1_555 1_555
C1 H1 1_555 1_555
H2 C1 1_555 1_555
C2 C1 1_555 1_555
H3 C2 1_555 1_555
H4 C2 1_555 1_555
C3 C2 1_555 1_555
H5 C3 1_555 1_555
H6 C3 1_555 1_555
C4 C3 1_555 1_555
C5 C4 1_555 1_555
C6 C5 1_555 1_555
H7 C6 1_555 1_555
H8 C6 1_555 1_555
C7 C6 1_555 1_555
H9 C7 1_555 1_555
C8 C7 1_555 1_555
H10 C8 1_555 1_555
C9 C8 1_555 1_555
H11 C9 1_555 1_555
H12 C9 1_555 1_555
C10 C1 1_555 1_555
C11 O2 1_555 1_555
C12 C7 1_555 1_555
H13 C12 1_555 1_555
C13 C12 1_555 1_555
H14 C13 1_555 1_555
H15 C13 1_555 1_555
C14 N1 1_555 1_555
H16 C14 1_555 1_555
H17 C14 1_555 1_555
H18 C14 1_555 1_555
C15 N1 1_555 1_555
H19 C15 1_555 1_555
H20 C15 1_555 1_555
H21 C15 1_555 1_555
C16 C10 1_555 1_555
H22 C16 1_555 1_555
H23 C16 1_555 1_555
H24 C16 1_555 1_555
C17 C4 1_555 1_555
H25 C17 1_555 1_555
H26 C17 1_555 1_555
H27 O1 1_555 1_555
O4 H28 1_555 1_555
H29 O4 1_555 1_555
C5 C10 1_555 1_555
C9 C10 1_555 1_555
C11 C12 1_555 1_555

#END
