
#######################################################################
#
#                 Cambridge Crystallographic Data Centre
#                                CCDC 
#
#######################################################################
#
# If this CIF has been generated from an entry in the Cambridge 
# Structural Database, then it will include bibliographic, chemical, 
# crystal, experimental, refinement or atomic coordinate data resulting 
# from the CCDC's data processing and validation procedures.
#
#######################################################################

data_XUGNUJ
_chemical_formula_moiety         'C19 H23 Br1 N2 O2 S1'
_chemical_name_systematic        
4-Bromo-N-((1S,2R)-1-phenyl-2-(pyrrolidin-1-yl)propyl)benzenesulfonamide
_symmetry_cell_setting           monoclinic
_symmetry_space_group_name_H-M   'P 21'
_symmetry_Int_Tables_number      4
_space_group_name_Hall           'P 2yb'
loop_
_symmetry_equiv_pos_site_id
_symmetry_equiv_pos_as_xyz
1 x,y,z
2 -x,1/2+y,-z
_cell_length_a                   9.232(3)
_cell_length_b                   9.528(3)
_cell_length_c                   11.026(4)
_cell_angle_alpha                90
_cell_angle_beta                 93.783(5)
_cell_angle_gamma                90
_cell_volume                     967.761
_exptl_crystal_colour            colorless
_exptl_crystal_description       block
_cell_formula_units_Z            2
loop_
_atom_site_label
_atom_site_type_symbol
_atom_site_fract_x
_atom_site_fract_y
_atom_site_fract_z
Br1 Br 0.46753(3) 0.24220(4) 0.09271(3)
S1 S -0.03116(7) 0.27937(7) 0.46803(6)
N1 N 0.0399(2) 0.3563(2) 0.5869(2)
H1 H 0.050(3) 0.442(2) 0.582(2)
N2 N -0.0370(2) 0.3768(2) 0.83043(18)
O1 O -0.07032(19) 0.13872(19) 0.50399(17)
O2 O -0.14042(18) 0.37154(19) 0.41513(15)
C1 C 0.3196(3) 0.2498(4) 0.2036(2)
C2 C 0.2295(3) 0.3643(3) 0.2009(2)
H2 H 0.2422 0.4383 0.1449
C3 C 0.1197(3) 0.3714(3) 0.2804(2)
H3 H 0.0560 0.4498 0.2791
C4 C 0.1042(2) 0.2630(3) 0.3615(2)
C5 C 0.1964(3) 0.1470(3) 0.3652(3)
H4 H 0.1844 0.0733 0.4217
C6 C 0.3054(3) 0.1409(3) 0.2852(2)
H5 H 0.3698 0.0630 0.2862
C7 C 0.1285(2) 0.2822(3) 0.6830(2)
H6 H 0.0833 0.1877 0.6924
C8 C 0.1163(3) 0.3608(3) 0.8049(2)
H7 H 0.1642 0.3016 0.8708
C9 C 0.1933(3) 0.5032(3) 0.8072(2)
H8 H 0.1456 0.5649 0.7457
H9 H 0.2951 0.4900 0.7898
H10 H 0.1883 0.5458 0.8878
C10 C -0.1178(2) 0.2448(4) 0.8328(2)
H11 H -0.0622 0.1726 0.8808
H12 H -0.1407 0.2087 0.7495
C11 C -0.2554(3) 0.2848(3) 0.8931(2)
H13 H -0.2979 0.2025 0.9324
H14 H -0.3286 0.3251 0.8333
C12 C -0.2028(3) 0.3946(4) 0.9875(3)
H15 H -0.2728 0.4732 0.9893
H16 H -0.1915 0.3521 1.0696
C13 C -0.0566(3) 0.4462(3) 0.9477(2)
H17 H -0.0572 0.5495 0.9381
H18 H 0.0226 0.4200 1.0084
C14 C 0.2853(3) 0.2571(3) 0.6533(2)
C15 C 0.3618(3) 0.3507(3) 0.5854(2)
H19 H 0.3176 0.4359 0.5577
C16 C 0.5043(3) 0.3199(3) 0.5576(3)
H20 H 0.5567 0.3841 0.5113
C17 C 0.5684(3) 0.1955(4) 0.5980(3)
H21 H 0.6646 0.1736 0.5785
C18 C 0.4933(3) 0.1048(4) 0.6657(3)
H22 H 0.5378 0.0200 0.6941
C19 C 0.3520(3) 0.1350(3) 0.6936(3)
H23 H 0.3010 0.0707 0.7410
loop_
_geom_bond_atom_site_label_1
_geom_bond_atom_site_label_2
_geom_bond_site_symmetry_1
_geom_bond_site_symmetry_2
Br1 C1 1_555 1_555
S1 N1 1_555 1_555
N1 H1 1_555 1_555
N2 C8 1_555 1_555
O1 S1 1_555 1_555
O2 S1 1_555 1_555
C1 C2 1_555 1_555
C2 H2 1_555 1_555
C3 C2 1_555 1_555
H3 C3 1_555 1_555
C4 S1 1_555 1_555
C5 C4 1_555 1_555
H4 C5 1_555 1_555
C6 C1 1_555 1_555
H5 C6 1_555 1_555
C7 N1 1_555 1_555
H6 C7 1_555 1_555
C8 C7 1_555 1_555
H7 C8 1_555 1_555
C9 C8 1_555 1_555
H8 C9 1_555 1_555
H9 C9 1_555 1_555
H10 C9 1_555 1_555
C10 N2 1_555 1_555
H11 C10 1_555 1_555
H12 C10 1_555 1_555
C11 C10 1_555 1_555
H13 C11 1_555 1_555
H14 C11 1_555 1_555
C12 C11 1_555 1_555
H15 C12 1_555 1_555
H16 C12 1_555 1_555
C13 N2 1_555 1_555
H17 C13 1_555 1_555
H18 C13 1_555 1_555
C14 C7 1_555 1_555
C15 C14 1_555 1_555
H19 C15 1_555 1_555
C16 C15 1_555 1_555
H20 C16 1_555 1_555
C17 C16 1_555 1_555
H21 C17 1_555 1_555
C18 C17 1_555 1_555
H22 C18 1_555 1_555
C19 C14 1_555 1_555
H23 C19 1_555 1_555
C3 C4 1_555 1_555
C5 C6 1_555 1_555
C12 C13 1_555 1_555
C18 C19 1_555 1_555

#END
