
#######################################################################
#
#                 Cambridge Crystallographic Data Centre
#                                CCDC 
#
#######################################################################
#
# If this CIF has been generated from an entry in the Cambridge 
# Structural Database, then it will include bibliographic, chemical, 
# crystal, experimental, refinement or atomic coordinate data resulting 
# from the CCDC's data processing and validation procedures.
#
#######################################################################

data_XUGNOD
_chemical_formula_moiety         'C13 H18 Br1 N1 O1'
_chemical_name_systematic        
(1R,2S)-1-(4-Bromophenyl)-1-(pyrrolidin-1-yl)propan-2-ol
_symmetry_cell_setting           monoclinic
_symmetry_space_group_name_H-M   'P 21'
_symmetry_Int_Tables_number      4
_space_group_name_Hall           'P 2yb'
loop_
_symmetry_equiv_pos_site_id
_symmetry_equiv_pos_as_xyz
1 x,y,z
2 -x,1/2+y,-z
_cell_length_a                   9.1637(12)
_cell_length_b                   7.3171(8)
_cell_length_c                   10.0120(14)
_cell_angle_alpha                90
_cell_angle_beta                 99.744(10)
_cell_angle_gamma                90
_cell_volume                     661.637
_exptl_crystal_colour            colorless
_exptl_crystal_description       prism
_chemical_melting_point          113-115deg.C
_cell_formula_units_Z            2
_exptl_crystal_recrystallization_method dichloromethane
loop_
_atom_site_label
_atom_site_type_symbol
_atom_site_fract_x
_atom_site_fract_y
_atom_site_fract_z
Br1 Br 0.98030(4) 0.76161(8) 0.58520(4)
O1 O 0.5442(3) 0.3087(3) 0.0324(2)
H1 H 0.563(4) 0.216(4) -0.008(4)
N1 N 0.3449(3) 0.5379(3) 0.1430(2)
C1 C 0.5855(4) 0.1079(5) 0.2273(3)
H2 H 0.5979 0.0018 0.1740
H3 H 0.5449 0.0721 0.3057
H4 H 0.6797 0.1656 0.2555
C2 C 0.4805(3) 0.2414(6) 0.1428(3)
H5 H 0.3894 0.1756 0.1059
C3 C 0.4393(3) 0.4032(4) 0.2258(3)
H6 H 0.3795 0.3528 0.2895
C4 C 0.5716(3) 0.4932(4) 0.3114(3)
C5 C 0.6700(4) 0.5986(5) 0.2554(3)
H7 H 0.6551 0.6157 0.1620
C6 C 0.7923(4) 0.6805(4) 0.3363(4)
H8 H 0.8580 0.7514 0.2972
C7 C 0.8136(4) 0.6549(5) 0.4739(4)
C8 C 0.7178(4) 0.5503(5) 0.5337(3)
H9 H 0.7331 0.5330 0.6270
C9 C 0.5975(4) 0.4714(4) 0.4508(4)
H10 H 0.5318 0.4011 0.4904
C10 C 0.2901(3) 0.6797(4) 0.2282(3)
H11 H 0.3672 0.7676 0.2605
H12 H 0.2559 0.6249 0.3056
C11 C 0.1631(3) 0.7698(7) 0.1341(3)
H13 H 0.0870 0.8104 0.1839
H14 H 0.1978 0.8739 0.0883
C12 C 0.1048(4) 0.6222(6) 0.0342(4)
H15 H 0.1051 0.6637 -0.0578
H16 H 0.0043 0.5899 0.0432
C13 C 0.2071(3) 0.4583(5) 0.0666(4)
H17 H 0.1650 0.3696 0.1212
H18 H 0.2256 0.3995 -0.0157
loop_
_geom_bond_atom_site_label_1
_geom_bond_atom_site_label_2
_geom_bond_site_symmetry_1
_geom_bond_site_symmetry_2
Br1 C7 1_555 1_555
O1 H1 1_555 1_555
N1 C3 1_555 1_555
C1 H2 1_555 1_555
H3 C1 1_555 1_555
H4 C1 1_555 1_555
C2 O1 1_555 1_555
H5 C2 1_555 1_555
C3 C2 1_555 1_555
H6 C3 1_555 1_555
C4 C3 1_555 1_555
C5 C4 1_555 1_555
H7 C5 1_555 1_555
C6 C5 1_555 1_555
H8 C6 1_555 1_555
C7 C6 1_555 1_555
C8 C7 1_555 1_555
H9 C8 1_555 1_555
C9 C4 1_555 1_555
H10 C9 1_555 1_555
C10 N1 1_555 1_555
H11 C10 1_555 1_555
H12 C10 1_555 1_555
C11 C10 1_555 1_555
H13 C11 1_555 1_555
H14 C11 1_555 1_555
C12 C11 1_555 1_555
H15 C12 1_555 1_555
H16 C12 1_555 1_555
C13 N1 1_555 1_555
H17 C13 1_555 1_555
H18 C13 1_555 1_555
C1 C2 1_555 1_555
C8 C9 1_555 1_555
C12 C13 1_555 1_555

#END
