
#######################################################################
#
#                 Cambridge Crystallographic Data Centre
#                                CCDC 
#
#######################################################################
#
# If this CIF has been generated from an entry in the Cambridge 
# Structural Database, then it will include bibliographic, chemical, 
# crystal, experimental, refinement or atomic coordinate data resulting 
# from the CCDC's data processing and validation procedures.
#
#######################################################################

data_XUGPOF
_chemical_name_common            "20'-Azidoleurosidine ethyl acetate solvate"
_chemical_formula_moiety         'C46 H57 N7 O8,C4 H8 O2'
_chemical_name_systematic        
'Methyl 4-acetoxy-15-(17-azido-17-ethyl-13-(methoxycarbonyl)-1,11-diazatetracyclo[13.3.1.0^4,12^.0^5,10^]nonadeca-4(12),5,7,9-tetraen-13-yl)-3-hydroxy-16-methoxy-1-methyl-6,7-didehydroaspidospermidine-3-carboxylate ethyl acetate solvate'
_chemical_properties_biological  'cytotoxic activity'
_symmetry_cell_setting           orthorhombic
_symmetry_space_group_name_H-M   'P 21 21 21'
_symmetry_Int_Tables_number      19
_space_group_name_Hall           'P 2ac 2ab'
loop_
_symmetry_equiv_pos_site_id
_symmetry_equiv_pos_as_xyz
1 x,y,z
2 1/2-x,-y,1/2+z
3 -x,1/2+y,1/2-z
4 1/2+x,1/2-y,-z
_cell_length_a                   9.4272(19)
_cell_length_b                   20.353(4)
_cell_length_c                   27.946(6)
_cell_angle_alpha                90
_cell_angle_beta                 90
_cell_angle_gamma                90
_cell_volume                     5362.05
_exptl_crystal_colour            colorless
_exptl_crystal_description       parallelepiped
_cell_formula_units_Z            4
_exptl_crystal_recrystallization_method 'ethyl acetate'
loop_
_atom_site_label
_atom_site_type_symbol
_atom_site_fract_x
_atom_site_fract_y
_atom_site_fract_z
O1 O 0.0990(5) 0.3565(2) 0.14611(15)
O2 O 0.6643(5) 0.0478(2) 0.10921(15)
H1 H 0.6716 0.0504 0.1391
O3 O 0.5260(5) 0.1193(3) 0.00956(17)
O4 O 0.4988(6) 0.0174(2) 0.04006(18)
O5 O 0.7765(5) 0.1600(3) 0.05593(16)
O6 O 0.7108(6) 0.2567(3) 0.0211(2)
O7 O 0.1076(6) 0.4649(2) 0.21952(17)
O8 O 0.3050(5) 0.4470(2) 0.17596(18)
N1 N 0.3454(5) 0.1547(3) 0.09969(19)
N2 N 0.6890(6) 0.0946(3) 0.1969(2)
N3 N -0.0404(8) 0.1785(3) 0.3595(3)
N4 N -0.0281(12) 0.1694(5) 0.4028(4)
N5 N -0.011(2) 0.1561(6) 0.4442(6)
N6 N 0.1747(6) 0.2801(3) 0.3655(2)
N7 N 0.5018(6) 0.3901(3) 0.24290(19)
H2 H 0.5199 0.3847 0.2123
C1 C 0.3746(7) 0.2600(3) 0.2021(2)
H3 H 0.4314 0.2606 0.2302
C2 C 0.2793(7) 0.3116(3) 0.1944(2)
C3 C 0.1994(7) 0.3076(3) 0.1520(2)
C4 C 0.2146(7) 0.2578(3) 0.1180(2)
H4 H 0.1607 0.2576 0.0893
C5 C 0.3127(6) 0.2083(3) 0.1282(2)
C6 C 0.3899(7) 0.2080(3) 0.1702(2)
C7 C 0.4797(7) 0.1468(3) 0.1729(2)
C8 C 0.4481(7) 0.1135(3) 0.1235(2)
H5 H 0.4025 0.0700 0.1298
C9 C 0.5822(8) 0.1013(3) 0.0921(2)
C10 C 0.6605(7) 0.1657(3) 0.0912(2)
H6 H 0.5937 0.2007 0.0801
C11 C 0.7239(7) 0.1872(3) 0.1394(3)
C12 C 0.6413(7) 0.1595(3) 0.1809(3)
H7 H 0.6513 0.1906 0.2084
C13 C 0.4424(8) 0.1023(4) 0.2160(2)
H8 H 0.3770 0.0668 0.2061
H9 H 0.3965 0.1282 0.2416
C14 C 0.5862(8) 0.0727(3) 0.2341(3)
H10 H 0.6117 0.0904 0.2660
H11 H 0.5816 0.0242 0.2358
C15 C 0.8375(8) 0.0941(4) 0.2150(3)
H12 H 0.8702 0.0482 0.2194
H13 H 0.8426 0.1168 0.2463
C16 C 0.9294(8) 0.1281(4) 0.1796(3)
H14 H 1.0289 0.1213 0.1812
C17 C 0.8799(8) 0.1672(4) 0.1461(3)
H15 H 0.9466 0.1846 0.1240
C18 C 0.2460(7) 0.3633(3) 0.2323(2)
C19 C 0.1107(7) 0.3413(3) 0.2605(2)
H16 H 0.1011 0.3706 0.2886
H17 H 0.0276 0.3495 0.2396
C20 C 0.1001(8) 0.2713(4) 0.2783(3)
H18 H 0.1216 0.2424 0.2502
C21 C -0.0544(8) 0.2555(4) 0.2935(3)
H19 H -0.0832 0.2133 0.2787
H20 H -0.1180 0.2902 0.2810
C22 C -0.0748(7) 0.2505(3) 0.3488(3)
C23 C 0.0279(8) 0.2969(4) 0.3740(3)
H21 H 0.0092 0.2958 0.4088
H22 H 0.0106 0.3423 0.3627
C24 C 0.2030(9) 0.2525(4) 0.3169(3)
H23 H 0.2042 0.2040 0.3195
H24 H 0.2990 0.2666 0.3069
C25 C 0.2723(9) 0.3313(4) 0.3825(3)
H25 H 0.3686 0.3119 0.3841
H26 H 0.2447 0.3429 0.4156
C26 C 0.2819(8) 0.3943(3) 0.3540(2)
H27 H 0.1863 0.4048 0.3414
H28 H 0.3095 0.4303 0.3760
C27 C 0.3843(7) 0.3935(3) 0.3128(2)
C28 C 0.3700(7) 0.3796(3) 0.2642(2)
C29 C 0.5988(8) 0.4099(3) 0.2762(2)
C30 C 0.5305(7) 0.4131(3) 0.3201(2)
C31 C 0.6077(8) 0.4323(3) 0.3606(2)
H29 H 0.5636 0.4327 0.3912
C32 C 0.7507(8) 0.4511(3) 0.3559(3)
H30 H 0.8039 0.4649 0.3830
C33 C 0.8123(8) 0.4489(3) 0.3108(3)
H31 H 0.9087 0.4620 0.3080
C34 C 0.7446(7) 0.4294(3) 0.2707(3)
H32 H 0.7906 0.4286 0.2404
C35 C 0.0469(8) 0.3681(4) 0.0996(3)
H33 H 0.1265 0.3769 0.0779
H34 H -0.0168 0.4062 0.1001
H35 H -0.0052 0.3294 0.0884
C36 C 0.2313(8) 0.1245(4) 0.0704(2)
H36 H 0.1427 0.1241 0.0888
H37 H 0.2578 0.0794 0.0621
H38 H 0.2180 0.1501 0.0411
C37 C 0.5351(8) 0.0831(4) 0.0421(3)
C38 C 0.4457(11) -0.0060(5) -0.0068(3)
H39 H 0.3724 0.0241 -0.0186
H40 H 0.4052 -0.0501 -0.0031
H41 H 0.5242 -0.0076 -0.0298
C39 C 0.7849(9) 0.2083(5) 0.0220(3)
C40 C 0.8964(10) 0.1913(6) -0.0122(3)
H42 H 0.9409 0.2316 -0.0242
H43 H 0.8551 0.1669 -0.0390
H44 H 0.9681 0.1641 0.0037
C41 C 0.7224(8) 0.2638(4) 0.1402(3)
H45 H 0.7726 0.2796 0.1113
H46 H 0.6226 0.2785 0.1376
C42 C 0.7867(9) 0.2971(4) 0.1828(3)
H47 H 0.7186 0.2969 0.2093
H48 H 0.8109 0.3425 0.1746
H49 H 0.8728 0.2736 0.1925
C43 C 0.2057(9) 0.4315(4) 0.2098(2)
C44 C 0.2771(11) 0.5082(5) 0.1501(3)
H50 H 0.1915 0.5031 0.1306
H51 H 0.3579 0.5184 0.1294
H52 H 0.2633 0.5440 0.1731
C45 C -0.2301(8) 0.2641(4) 0.3633(3)
H53 H -0.2401 0.2557 0.3981
H54 H -0.2506 0.3111 0.3578
C46 C -0.3404(9) 0.2233(4) 0.3369(3)
H55 H -0.3348 0.2326 0.3025
H56 H -0.4353 0.2344 0.3487
H57 H -0.3221 0.1765 0.3424
O9 O 0.328(2) 0.5269(11) 0.0324(7)
O10 O 0.4805(14) 0.6047(6) -0.0014(4)
C47 C 0.399(2) 0.5130(9) -0.0388(6)
H58 H 0.4963 0.5077 -0.0505
H59 H 0.3404 0.5328 -0.0640
H60 H 0.3601 0.4699 -0.0302
C48 C 0.399(2) 0.5469(11) -0.0052(8)
C49 C 0.421(5) 0.661(3) 0.0281(18)
H61 H 0.3614 0.6475 0.0555
H62 H 0.3767 0.6967 0.0092
C50 C 0.563(7) 0.671(3) 0.039(2)
H63 H 0.6168 0.6779 0.0094
H64 H 0.6004 0.6322 0.0557
H65 H 0.5726 0.7096 0.0596
O11 O 0.6422(10) 0.4343(6) 0.1557(3)
O12 O 0.724(2) 0.5025(6) 0.1036(4)
C51 C 0.590(2) 0.4174(7) 0.0763(5)
H66 H 0.6642 0.3941 0.0588
H67 H 0.5490 0.4517 0.0558
H68 H 0.5150 0.3864 0.0856
C52 C 0.6512(14) 0.4482(7) 0.1201(6)
C53 C 0.721(3) 0.5639(10) 0.1503(13)
H69 H 0.7190 0.6103 0.1396
H70 H 0.6561 0.5552 0.1775
C54 C 0.851(2) 0.5355(12) 0.1530(7)
H71 H 0.8419 0.4880 0.1478
H72 H 0.8920 0.5435 0.1846
H73 H 0.9130 0.5543 0.1284
loop_
_geom_bond_atom_site_label_1
_geom_bond_atom_site_label_2
_geom_bond_site_symmetry_1
_geom_bond_site_symmetry_2
O1 C3 1_555 1_555
O2 H1 1_555 1_555
O3 C37 1_555 1_555
O4 C37 1_555 1_555
O5 C10 1_555 1_555
O6 C39 1_555 1_555
O7 C43 1_555 1_555
O8 C43 1_555 1_555
N1 C5 1_555 1_555
N2 C12 1_555 1_555
N3 N4 1_555 1_555
N4 N5 1_555 1_555
N6 C23 1_555 1_555
N7 H2 1_555 1_555
C1 H3 1_555 1_555
C2 C1 1_555 1_555
C3 C2 1_555 1_555
C4 C3 1_555 1_555
H4 C4 1_555 1_555
C5 C4 1_555 1_555
C6 C1 1_555 1_555
C7 C6 1_555 1_555
C8 N1 1_555 1_555
H5 C8 1_555 1_555
C9 O2 1_555 1_555
C10 C9 1_555 1_555
H6 C10 1_555 1_555
C11 C10 1_555 1_555
C12 C7 1_555 1_555
H7 C12 1_555 1_555
C13 C7 1_555 1_555
H8 C13 1_555 1_555
H9 C13 1_555 1_555
C14 N2 1_555 1_555
H10 C14 1_555 1_555
H11 C14 1_555 1_555
C15 N2 1_555 1_555
H12 C15 1_555 1_555
H13 C15 1_555 1_555
C16 C15 1_555 1_555
H14 C16 1_555 1_555
C17 C11 1_555 1_555
H15 C17 1_555 1_555
C18 C2 1_555 1_555
C19 C18 1_555 1_555
H16 C19 1_555 1_555
H17 C19 1_555 1_555
C20 C19 1_555 1_555
H18 C20 1_555 1_555
C21 C20 1_555 1_555
H19 C21 1_555 1_555
H20 C21 1_555 1_555
C22 N3 1_555 1_555
C23 C22 1_555 1_555
H21 C23 1_555 1_555
H22 C23 1_555 1_555
C24 N6 1_555 1_555
H23 C24 1_555 1_555
H24 C24 1_555 1_555
C25 N6 1_555 1_555
H25 C25 1_555 1_555
H26 C25 1_555 1_555
C26 C25 1_555 1_555
H27 C26 1_555 1_555
H28 C26 1_555 1_555
C27 C26 1_555 1_555
C28 N7 1_555 1_555
C29 N7 1_555 1_555
C30 C27 1_555 1_555
C31 C30 1_555 1_555
H29 C31 1_555 1_555
C32 C31 1_555 1_555
H30 C32 1_555 1_555
C33 C32 1_555 1_555
H31 C33 1_555 1_555
C34 C29 1_555 1_555
H32 C34 1_555 1_555
C35 O1 1_555 1_555
H33 C35 1_555 1_555
H34 C35 1_555 1_555
H35 C35 1_555 1_555
C36 N1 1_555 1_555
H36 C36 1_555 1_555
H37 C36 1_555 1_555
H38 C36 1_555 1_555
C37 C9 1_555 1_555
C38 O4 1_555 1_555
H39 C38 1_555 1_555
H40 C38 1_555 1_555
H41 C38 1_555 1_555
C39 O5 1_555 1_555
C40 C39 1_555 1_555
H42 C40 1_555 1_555
H43 C40 1_555 1_555
H44 C40 1_555 1_555
C41 C11 1_555 1_555
H45 C41 1_555 1_555
H46 C41 1_555 1_555
C42 C41 1_555 1_555
H47 C42 1_555 1_555
H48 C42 1_555 1_555
H49 C42 1_555 1_555
C43 C18 1_555 1_555
C44 O8 1_555 1_555
H50 C44 1_555 1_555
H51 C44 1_555 1_555
H52 C44 1_555 1_555
C45 C22 1_555 1_555
H53 C45 1_555 1_555
H54 C45 1_555 1_555
C46 C45 1_555 1_555
H55 C46 1_555 1_555
H56 C46 1_555 1_555
H57 C46 1_555 1_555
O9 C48 1_555 1_555
O10 C48 1_555 1_555
C47 H58 1_555 1_555
H59 C47 1_555 1_555
H60 C47 1_555 1_555
C48 C47 1_555 1_555
C49 O10 1_555 1_555
H61 C49 1_555 1_555
H62 C49 1_555 1_555
C50 C49 1_555 1_555
H63 C50 1_555 1_555
H64 C50 1_555 1_555
H65 C50 1_555 1_555
O11 C52 1_555 1_555
O12 C52 1_555 1_555
C51 H66 1_555 1_555
H67 C51 1_555 1_555
H68 C51 1_555 1_555
C52 C51 1_555 1_555
C53 O12 1_555 1_555
H69 C53 1_555 1_555
H70 C53 1_555 1_555
C54 C53 1_555 1_555
H71 C54 1_555 1_555
H72 C54 1_555 1_555
H73 C54 1_555 1_555
C5 C6 1_555 1_555
C7 C8 1_555 1_555
C8 C9 1_555 1_555
C11 C12 1_555 1_555
C13 C14 1_555 1_555
C16 C17 1_555 1_555
C18 C28 1_555 1_555
C20 C24 1_555 1_555
C21 C22 1_555 1_555
C27 C28 1_555 1_555
C29 C30 1_555 1_555
C33 C34 1_555 1_555

#END
