
#######################################################################
#
#                 Cambridge Crystallographic Data Centre
#                                CCDC 
#
#######################################################################
#
# If this CIF has been generated from an entry in the Cambridge 
# Structural Database, then it will include bibliographic, chemical, 
# crystal, experimental, refinement or atomic coordinate data resulting 
# from the CCDC's data processing and validation procedures.
#
#######################################################################

data_XUGVUR
_chemical_name_common            
N,N'-bis(3-Chloro-5-S-(l-menthyloxy)-2(5H)-4-furanonyl)-propane-1,3-diamine
_chemical_formula_moiety         'C31 H48 Cl2 N2 O6'
_chemical_name_systematic        
4,4'-(Propane-1,3-diyldiimino)bis(3-chloro-5-S-((2-isopropyl-5-methylcyclohexyl)oxy)furan-2(5H)-one)
_symmetry_cell_setting           monoclinic
_symmetry_space_group_name_H-M   'C 2'
_symmetry_Int_Tables_number      5
_space_group_name_Hall           'C 2y'
loop_
_symmetry_equiv_pos_site_id
_symmetry_equiv_pos_as_xyz
1 x,y,z
2 -x,y,-z
3 1/2+x,1/2+y,z
4 1/2-x,1/2+y,-z
_cell_length_a                   16.1091(4)
_cell_length_b                   11.1880(3)
_cell_length_c                   19.2854(5)
_cell_angle_alpha                90
_cell_angle_beta                 106.297(2)
_cell_angle_gamma                90
_cell_volume                     3336.12
_exptl_crystal_colour            colorless
_exptl_crystal_description       block
_chemical_melting_point          155.4-155.9deg.C
_cell_formula_units_Z            4
_exptl_crystal_recrystallization_method acetone
loop_
_atom_site_label
_atom_site_type_symbol
_atom_site_fract_x
_atom_site_fract_y
_atom_site_fract_z
Cl1 Cl 0.04531(10) 0.30984(16) 0.43431(8)
Cl2 Cl 0.29724(10) 0.29147(15) 0.53165(7)
O1 O 0.13288(18) 0.3180(3) 0.21654(14)
O2 O 0.1145(2) 0.4837(3) 0.28449(16)
O3 O 0.0219(3) 0.5514(3) 0.3442(2)
O4 O 0.4060(3) 0.5164(4) 0.4313(2)
O5 O 0.3325(3) 0.5562(4) 0.5114(2)
O6 O 0.3964(2) 0.4092(3) 0.32561(16)
N1 N 0.1838(3) 0.1927(4) 0.36056(19)
H1 H 0.1755 0.1568 0.3975
N2 N 0.4091(3) 0.1963(5) 0.4156(2)
H2 H 0.4469 0.1863 0.3923
C1 C 0.1767(4) 0.3149(6) 0.0351(2)
H3 H 0.2394 0.3149 0.0499
H4 H 0.1575 0.2603 -0.0053
C2 C 0.1441(3) 0.2700(5) 0.0981(2)
H5 H 0.0808 0.2703 0.0807
C3 C 0.1686(3) 0.3614(4) 0.1596(2)
H6 H 0.2317 0.3633 0.1784
C4 C 0.1370(3) 0.4868(4) 0.1351(3)
H7 H 0.1566 0.5418 0.1752
H8 H 0.0743 0.4877 0.1201
C5 C 0.1706(4) 0.5280(5) 0.0724(3)
H9 H 0.2340 0.5283 0.0894
C6 C 0.1442(4) 0.4409(6) 0.0106(3)
H10 H 0.1678 0.4664 -0.0280
H11 H 0.0816 0.4399 -0.0079
C7 C 0.1706(4) 0.1416(6) 0.1199(3)
H12 H 0.1477 0.1223 0.1606
C8 C 0.2678(4) 0.1234(5) 0.1461(3)
H13 H 0.2916 0.1278 0.1058
H14 H 0.2801 0.0465 0.1686
H15 H 0.2931 0.1846 0.1804
C9 C 0.1408(4) 0.6567(6) 0.0503(3)
H16 H 0.0788 0.6590 0.0332
H17 H 0.1648 0.6828 0.0126
H18 H 0.1602 0.7086 0.0913
C10 C 0.1626(3) 0.3768(4) 0.2827(2)
H19 H 0.2244 0.3950 0.2928
C11 C 0.1463(3) 0.2987(5) 0.3423(2)
C12 C 0.0690(3) 0.4733(5) 0.3356(3)
C13 C 0.0906(3) 0.3592(4) 0.3697(2)
C14 C 0.2381(3) 0.1338(5) 0.3218(3)
H20 H 0.2717 0.1940 0.3055
H21 H 0.2012 0.0949 0.2794
C15 C 0.2990(4) 0.0425(5) 0.3661(3)
H22 H 0.3286 0.0030 0.3350
H23 H 0.2650 -0.0176 0.3820
C16 C 0.3667(4) 0.0898(5) 0.4319(3)
H24 H 0.3393 0.1081 0.4695
H25 H 0.4097 0.0283 0.4502
C17 C 0.3949(3) 0.3087(6) 0.4334(2)
C18 C 0.4311(4) 0.4101(5) 0.3998(3)
H26 H 0.4942 0.4043 0.4124
C19 C 0.3515(3) 0.3555(5) 0.4768(3)
C20 C 0.3589(4) 0.4812(6) 0.4774(3)
C21 C 0.4355(3) 0.4956(5) 0.2870(3)
H27 H 0.4935 0.5155 0.3175
C22 C 0.4439(3) 0.4360(4) 0.2188(2)
H28 H 0.3850 0.4172 0.1896
C23 C 0.4793(4) 0.5276(5) 0.1762(3)
H29 H 0.5385 0.5462 0.2029
H30 H 0.4804 0.4923 0.1306
C24 C 0.4284(4) 0.6425(6) 0.1612(3)
H31 H 0.4573 0.6982 0.1373
H32 H 0.3714 0.6264 0.1289
C25 C 0.4190(4) 0.6982(5) 0.2292(4)
H33 H 0.4772 0.7191 0.2587
C26 C 0.3823(4) 0.6080(5) 0.2728(3)
H34 H 0.3815 0.6438 0.3184
H35 H 0.3232 0.5884 0.2463
C27 C 0.4941(4) 0.3169(6) 0.2313(3)
H36 H 0.4678 0.2658 0.2606
C28 C 0.4863(4) 0.2526(6) 0.1605(4)
H37 H 0.4265 0.2481 0.1333
H38 H 0.5095 0.1734 0.1701
H39 H 0.5179 0.2958 0.1331
C29 C 0.3665(5) 0.8140(7) 0.2154(4)
H40 H 0.3085 0.7970 0.1870
H41 H 0.3927 0.8692 0.1898
H42 H 0.3653 0.8485 0.2607
C30 C 0.5896(4) 0.3328(6) 0.2726(4)
H43 H 0.6178 0.2564 0.2790
H44 H 0.5940 0.3675 0.3191
H45 H 0.6168 0.3845 0.2458
C31 C 0.1309(5) 0.0516(6) 0.0600(3)
H46 H 0.0698 0.0654 0.0421
H47 H 0.1410 -0.0281 0.0789
H48 H 0.1571 0.0610 0.0213
loop_
_geom_bond_atom_site_label_1
_geom_bond_atom_site_label_2
_geom_bond_site_symmetry_1
_geom_bond_site_symmetry_2
Cl1 C13 1_555 1_555
Cl2 C19 1_555 1_555
O1 C3 1_555 1_555
O2 C10 1_555 1_555
O3 C12 1_555 1_555
O4 C18 1_555 1_555
O5 C20 1_555 1_555
O6 C18 1_555 1_555
N1 H1 1_555 1_555
N2 H2 1_555 1_555
C1 H3 1_555 1_555
H4 C1 1_555 1_555
C2 C1 1_555 1_555
H5 C2 1_555 1_555
C3 C2 1_555 1_555
H6 C3 1_555 1_555
C4 C3 1_555 1_555
H7 C4 1_555 1_555
H8 C4 1_555 1_555
C5 C4 1_555 1_555
H9 C5 1_555 1_555
C6 C1 1_555 1_555
H10 C6 1_555 1_555
H11 C6 1_555 1_555
C7 C2 1_555 1_555
H12 C7 1_555 1_555
C8 C7 1_555 1_555
H13 C8 1_555 1_555
H14 C8 1_555 1_555
H15 C8 1_555 1_555
C9 C5 1_555 1_555
H16 C9 1_555 1_555
H17 C9 1_555 1_555
H18 C9 1_555 1_555
C10 O1 1_555 1_555
H19 C10 1_555 1_555
C11 N1 1_555 1_555
C12 O2 1_555 1_555
C13 C11 1_555 1_555
C14 N1 1_555 1_555
H20 C14 1_555 1_555
H21 C14 1_555 1_555
C15 C14 1_555 1_555
H22 C15 1_555 1_555
H23 C15 1_555 1_555
C16 N2 1_555 1_555
H24 C16 1_555 1_555
H25 C16 1_555 1_555
C17 N2 1_555 1_555
C18 C17 1_555 1_555
H26 C18 1_555 1_555
C19 C17 1_555 1_555
C20 O4 1_555 1_555
C21 O6 1_555 1_555
H27 C21 1_555 1_555
C22 C21 1_555 1_555
H28 C22 1_555 1_555
C23 C22 1_555 1_555
H29 C23 1_555 1_555
H30 C23 1_555 1_555
C24 C23 1_555 1_555
H31 C24 1_555 1_555
H32 C24 1_555 1_555
C25 C24 1_555 1_555
H33 C25 1_555 1_555
C26 C21 1_555 1_555
H34 C26 1_555 1_555
H35 C26 1_555 1_555
C27 C22 1_555 1_555
H36 C27 1_555 1_555
C28 C27 1_555 1_555
H37 C28 1_555 1_555
H38 C28 1_555 1_555
H39 C28 1_555 1_555
C29 C25 1_555 1_555
H40 C29 1_555 1_555
H41 C29 1_555 1_555
H42 C29 1_555 1_555
C30 C27 1_555 1_555
H43 C30 1_555 1_555
H44 C30 1_555 1_555
H45 C30 1_555 1_555
C31 C7 1_555 1_555
H46 C31 1_555 1_555
H47 C31 1_555 1_555
H48 C31 1_555 1_555
C5 C6 1_555 1_555
C10 C11 1_555 1_555
C12 C13 1_555 1_555
C15 C16 1_555 1_555
C19 C20 1_555 1_555
C25 C26 1_555 1_555

#END
