
#######################################################################
#
#                 Cambridge Crystallographic Data Centre
#                                CCDC 
#
#######################################################################
#
# If this CIF has been generated from an entry in the Cambridge 
# Structural Database, then it will include bibliographic, chemical, 
# crystal, experimental, refinement or atomic coordinate data resulting 
# from the CCDC's data processing and validation procedures.
#
#######################################################################

data_XUGVAX
_chemical_formula_moiety         'C14 H19 N3 O1'
_chemical_name_systematic        
1-((3R)-3-(4-Methoxyphenyl)pentyl)-1H-1,2,4-triazole
_chemical_properties_biological  'antifungal activity'
_symmetry_cell_setting           monoclinic
_symmetry_space_group_name_H-M   'P 21'
_symmetry_Int_Tables_number      4
_space_group_name_Hall           'P 2yb'
loop_
_symmetry_equiv_pos_site_id
_symmetry_equiv_pos_as_xyz
1 x,y,z
2 -x,1/2+y,-z
_cell_length_a                   5.4025(9)
_cell_length_b                   7.5161(12)
_cell_length_c                   16.974(3)
_cell_angle_alpha                90
_cell_angle_beta                 91.821(3)
_cell_angle_gamma                90
_cell_volume                     688.894
_exptl_crystal_colour            colorless
_exptl_crystal_description       block
_cell_formula_units_Z            2
loop_
_atom_site_label
_atom_site_type_symbol
_atom_site_fract_x
_atom_site_fract_y
_atom_site_fract_z
C1 C 0.5557(7) -0.3252(6) 0.93041(18)
H1 H 0.4510 -0.4234 0.9299
C2 C 0.8595(6) -0.1670(5) 0.95300(17)
H2 H 1.0134 -0.1245 0.9703
C3 C 0.7197(7) 0.1058(5) 0.88046(17)
H3 H 0.8535 0.1665 0.9089
H4 H 0.5674 0.1697 0.8899
C4 C 0.7685(6) 0.1084(4) 0.79362(16)
H5 H 0.6377 0.0436 0.7656
H6 H 0.9234 0.0475 0.7847
C5 C 0.7825(5) 0.2979(4) 0.75980(14)
H7 H 0.6357 0.3621 0.7769
C6 C 0.7676(4) 0.2908(3) 0.67021(14)
C7 C 0.9429(4) 0.2009(5) 0.62701(16)
H8 H 1.0727 0.1431 0.6537
C8 C 0.9298(5) 0.1950(5) 0.54599(15)
H9 H 1.0505 0.1350 0.5185
C9 C 0.7359(5) 0.2789(3) 0.50546(14)
C10 C 0.5582(5) 0.3676(4) 0.54665(14)
H10 H 0.4271 0.4234 0.5198
C11 C 0.5757(4) 0.3731(3) 0.62773(15)
H11 H 0.4552 0.4340 0.6549
C12 C 1.0083(6) 0.4016(5) 0.78985(16)
H12 H 1.0115 0.4008 0.8470
H13 H 1.1563 0.3413 0.7730
C13 C 1.0157(7) 0.5921(6) 0.76188(19)
H14 H 1.0303 0.5944 0.7057
H15 H 1.1554 0.6515 0.7864
H16 H 0.8660 0.6516 0.7758
C14 C 0.5417(6) 0.3440(5) 0.38134(16)
H17 H 0.3890 0.2887 0.3952
H18 H 0.5660 0.3285 0.3260
H19 H 0.5353 0.4687 0.3933
N1 N 0.4971(5) -0.1766(4) 0.89389(16)
N2 N 0.6990(4) -0.0757(4) 0.91024(13)
N3 N 0.7752(6) -0.3259(5) 0.96815(16)
O1 O 0.7399(4) 0.2649(3) 0.42459(10)
loop_
_geom_bond_atom_site_label_1
_geom_bond_atom_site_label_2
_geom_bond_site_symmetry_1
_geom_bond_site_symmetry_2
C1 H1 1_555 1_555
C2 H2 1_555 1_555
C3 H3 1_555 1_555
H4 C3 1_555 1_555
C4 C3 1_555 1_555
H5 C4 1_555 1_555
H6 C4 1_555 1_555
C5 C4 1_555 1_555
H7 C5 1_555 1_555
C6 C5 1_555 1_555
C7 C6 1_555 1_555
H8 C7 1_555 1_555
C8 C7 1_555 1_555
H9 C8 1_555 1_555
C9 C8 1_555 1_555
C10 C9 1_555 1_555
H10 C10 1_555 1_555
C11 C6 1_555 1_555
H11 C11 1_555 1_555
C12 C5 1_555 1_555
H12 C12 1_555 1_555
H13 C12 1_555 1_555
C13 C12 1_555 1_555
H14 C13 1_555 1_555
H15 C13 1_555 1_555
H16 C13 1_555 1_555
C14 H17 1_555 1_555
H18 C14 1_555 1_555
H19 C14 1_555 1_555
N1 C1 1_555 1_555
N2 C2 1_555 1_555
N3 C1 1_555 1_555
O1 C9 1_555 1_555
C2 N3 1_555 1_555
C3 N2 1_555 1_555
C10 C11 1_555 1_555
C14 O1 1_555 1_555
N1 N2 1_555 1_555

#END
