
#######################################################################
#
#                 Cambridge Crystallographic Data Centre
#                                CCDC 
#
#######################################################################
#
# If this CIF has been generated from an entry in the Cambridge 
# Structural Database, then it will include bibliographic, chemical, 
# crystal, experimental, refinement or atomic coordinate data resulting 
# from the CCDC's data processing and validation procedures.
#
#######################################################################

data_XUHBAE
_chemical_name_common            'Aspochalasin N'
_chemical_formula_moiety         'C27 H39 N1 O4'
_chemical_name_systematic        
3-Isobutyl-4,5,8-trimethyl-14-(2-oxopropyl)-2,3,3a,4,6a,9,10,11,13,14-decahydro-1H-cycloundeca[d]isoindole-1,12,15-trione
_chemical_properties_biological  'tested for anti-cancer activity'
_symmetry_cell_setting           monoclinic
_symmetry_space_group_name_H-M   'P 21'
_symmetry_Int_Tables_number      4
_space_group_name_Hall           'P 2yb'
loop_
_symmetry_equiv_pos_site_id
_symmetry_equiv_pos_as_xyz
1 x,y,z
2 -x,1/2+y,-z
_cell_length_a                   8.9019(12)
_cell_length_b                   11.0753(14)
_cell_length_c                   12.7340(16)
_cell_angle_alpha                90
_cell_angle_beta                 98.0760(10)
_cell_angle_gamma                90
_cell_volume                     1243.01
_cell_formula_units_Z            2
loop_
_atom_site_label
_atom_site_type_symbol
_atom_site_fract_x
_atom_site_fract_y
_atom_site_fract_z
N1 N 0.7607(3) 0.3240(4) 0.3074(3)
H1 H 0.8495 0.3293 0.3438
O1 O 0.6432(3) 0.2648(3) 0.4446(2)
O2 O 0.2772(3) 0.3972(3) 0.2080(2)
O3 O 0.0842(3) 0.3660(3) 0.3979(2)
O4 O 0.4961(4) 0.6636(3) 0.2892(3)
C1 C 0.6401(4) 0.2909(4) 0.3508(3)
C2 C 0.5003(4) 0.2892(4) 0.2671(3)
C3 C 0.5656(5) 0.3153(4) 0.1618(3)
H2 H 0.5121 0.3854 0.1277
C4 C 0.7339(5) 0.3508(4) 0.1949(4)
H3 H 0.7971 0.2969 0.1586
C5 C 0.3770(4) 0.3832(4) 0.2818(3)
C6 C 0.3827(4) 0.4590(4) 0.3812(3)
H4 H 0.4886 0.4842 0.3998
C7 C 0.3422(4) 0.3885(4) 0.4765(3)
H5 H 0.4116 0.3208 0.4889
H6 H 0.3607 0.4406 0.5383
C8 C 0.1839(4) 0.3405(4) 0.4698(3)
C9 C 0.1511(5) 0.2594(5) 0.5591(4)
H7 H 0.0899 0.3037 0.6033
H8 H 0.2462 0.2391 0.6024
C10 C 0.0694(5) 0.1436(5) 0.5226(4)
H9 H -0.0199 0.1632 0.4727
H10 H 0.0356 0.1043 0.5832
C11 C 0.1691(5) 0.0558(4) 0.4700(4)
H11 H 0.2603 0.0400 0.5193
H12 H 0.1150 -0.0201 0.4578
C12 C 0.2151(4) 0.0968(3) 0.3674(3)
C13 C 0.3592(4) 0.1225(3) 0.3587(3)
H13 H 0.4284 0.1156 0.4203
C14 C 0.4223(4) 0.1611(4) 0.2612(3)
H14 H 0.3364 0.1653 0.2040
C15 C 0.5327(4) 0.0712(4) 0.2265(4)
H15 H 0.5571 0.0013 0.2656
C16 C 0.5941(5) 0.0928(5) 0.1402(4)
C17 C 0.5445(5) 0.2086(6) 0.0831(3)
H16 H 0.4348 0.2009 0.0617
C18 C 0.7930(13) 0.4813(9) 0.1964(13)
H17 H 0.7239 0.5331 0.2281
H18 H 0.8910 0.4850 0.2406
C19 C 0.8094(14) 0.5296(10) 0.0854(11)
H19 H 0.7142 0.5260 0.0364
C20 C 0.942(3) 0.455(2) 0.045(2)
H20 H 1.0367 0.4742 0.0872
H21 H 0.9471 0.4744 -0.0280
H22 H 0.9221 0.3698 0.0507
C21 C 0.878(2) 0.657(2) 0.0949(17)
H23 H 0.8094 0.7110 0.1227
H24 H 0.8960 0.6844 0.0262
H25 H 0.9727 0.6550 0.1418
C22 C 0.2907(4) 0.5744(4) 0.3601(3)
H26 H 0.1966 0.5550 0.3151
H27 H 0.2647 0.6039 0.4270
C23 C 0.3683(5) 0.6737(4) 0.3087(3)
C24 C 0.2791(6) 0.7865(5) 0.2851(4)
H28 H 0.3428 0.8475 0.2610
H29 H 0.2419 0.8139 0.3481
H30 H 0.1950 0.7708 0.2308
C25 C 0.0881(4) 0.1027(5) 0.2764(4)
H31 H 0.1092 0.1647 0.2279
H32 H -0.0052 0.1208 0.3028
H33 H 0.0792 0.0263 0.2404
C26 C 0.7080(6) 0.0096(6) 0.1004(5)
H34 H 0.7294 -0.0567 0.1488
H35 H 0.8000 0.0533 0.0955
H36 H 0.6672 -0.0206 0.0317
C27 C 0.6122(7) 0.2351(8) -0.0197(4)
H37 H 0.7208 0.2311 -0.0054
H38 H 0.5820 0.3144 -0.0449
H39 H 0.5757 0.1764 -0.0727
C28? C 0.731(2) 0.4764(13) 0.1416(15)
C29? C 0.887(2) 0.5332(15) 0.1414(15)
C30? C 0.822(3) 0.666(3) 0.119(2)
C31? C 0.964(5) 0.501(4) 0.046(4)
H40? H 0.6823 0.4690 0.0689
H41? H 0.6700 0.5304 0.1780
H42? H 0.9538 0.5254 0.2092
H43? H 0.7847 0.6742 0.0451
H44? H 0.9010 0.7236 0.1391
H45? H 0.7406 0.6792 0.1599
H46? H 0.9600 0.4147 0.0361
H47? H 1.0679 0.5265 0.0584
H48? H 0.9126 0.5399 -0.0157
loop_
_geom_bond_atom_site_label_1
_geom_bond_atom_site_label_2
_geom_bond_site_symmetry_1
_geom_bond_site_symmetry_2
N1 H1 1_555 1_555
O1 C1 1_555 1_555
O2 C5 1_555 1_555
O3 C8 1_555 1_555
O4 C23 1_555 1_555
C1 N1 1_555 1_555
C2 C1 1_555 1_555
C3 C2 1_555 1_555
H2 C3 1_555 1_555
C4 N1 1_555 1_555
H3 C4 1_555 1_555
C5 C2 1_555 1_555
C6 C5 1_555 1_555
H4 C6 1_555 1_555
C7 C6 1_555 1_555
H5 C7 1_555 1_555
H6 C7 1_555 1_555
C8 C7 1_555 1_555
C9 C8 1_555 1_555
H7 C9 1_555 1_555
H8 C9 1_555 1_555
C10 C9 1_555 1_555
H9 C10 1_555 1_555
H10 C10 1_555 1_555
C11 C10 1_555 1_555
H11 C11 1_555 1_555
H12 C11 1_555 1_555
C12 C11 1_555 1_555
C13 C12 1_555 1_555
H13 C13 1_555 1_555
C14 C2 1_555 1_555
H14 C14 1_555 1_555
C15 C14 1_555 1_555
H15 C15 1_555 1_555
C16 C15 1_555 1_555
C17 C3 1_555 1_555
H16 C17 1_555 1_555
C18 C4 1_555 1_555
H17 C18 1_555 1_555
H18 C18 1_555 1_555
C19 C18 1_555 1_555
H19 C19 1_555 1_555
C20 C19 1_555 1_555
H20 C20 1_555 1_555
H21 C20 1_555 1_555
H22 C20 1_555 1_555
C21 C19 1_555 1_555
H23 C21 1_555 1_555
H24 C21 1_555 1_555
H25 C21 1_555 1_555
C22 C6 1_555 1_555
H26 C22 1_555 1_555
H27 C22 1_555 1_555
C23 C22 1_555 1_555
C24 C23 1_555 1_555
H28 C24 1_555 1_555
H29 C24 1_555 1_555
H30 C24 1_555 1_555
C25 C12 1_555 1_555
H31 C25 1_555 1_555
H32 C25 1_555 1_555
H33 C25 1_555 1_555
C26 C16 1_555 1_555
H34 C26 1_555 1_555
H35 C26 1_555 1_555
H36 C26 1_555 1_555
C27 C17 1_555 1_555
H37 C27 1_555 1_555
H38 C27 1_555 1_555
H39 C27 1_555 1_555
C3 C4 1_555 1_555
C13 C14 1_555 1_555
C16 C17 1_555 1_555

#END
