
#######################################################################
#
#                 Cambridge Crystallographic Data Centre
#                                CCDC 
#
#######################################################################
#
# If this CIF has been generated from an entry in the Cambridge 
# Structural Database, then it will include bibliographic, chemical, 
# crystal, experimental, refinement or atomic coordinate data resulting 
# from the CCDC's data processing and validation procedures.
#
#######################################################################

data_XUHCAF
_chemical_formula_moiety         'C13 H12 F3 N1 O3'
_chemical_name_systematic        
'(+-)-Ethyl 3,3,3-trifluoro-2-hydroxy-2-(indole-3-yl)propionate'
_symmetry_cell_setting           monoclinic
_symmetry_space_group_name_H-M   'P 21/c'
_symmetry_Int_Tables_number      14
_space_group_name_Hall           '-P 2ybc'
loop_
_symmetry_equiv_pos_site_id
_symmetry_equiv_pos_as_xyz
1 x,y,z
2 -x,1/2+y,1/2-z
3 -x,-y,-z
4 x,1/2-y,1/2+z
_cell_length_a                   11.332(2)
_cell_length_b                   11.318(3)
_cell_length_c                   20.077(4)
_cell_angle_alpha                90
_cell_angle_beta                 94.751(3)
_cell_angle_gamma                90
_cell_volume                     2566.14
_exptl_crystal_colour            colorless
_exptl_crystal_description       platelet
_chemical_melting_point          '346-347 K'
_cell_formula_units_Z            8
_exptl_crystal_recrystallization_method 'dichloromethane/petroleum ether'
loop_
_atom_site_label
_atom_site_type_symbol
_atom_site_fract_x
_atom_site_fract_y
_atom_site_fract_z
F1 F 0.27687(9) 0.03803(9) 0.19966(5)
F2 F 0.10300(8) 0.11457(10) 0.19048(5)
F3 F 0.25198(9) 0.21927(10) 0.22841(5)
N1 N 0.12866(12) -0.06793(12) 0.00374(7)
O1 O 0.16309(9) 0.28232(10) 0.10124(6)
H1 H 0.1974 0.3412 0.1195
O2 O 0.39734(10) 0.31983(10) 0.11009(6)
O3 O 0.43822(9) 0.12589(10) 0.10969(6)
C1 C 0.15552(13) 0.01232(14) -0.04426(8)
C2 C 0.14370(14) 0.00393(16) -0.11352(8)
H2 H 0.1124 -0.0652 -0.1353
C3 C 0.17903(14) 0.09966(16) -0.14966(8)
H3 H 0.1720 0.0963 -0.1971
C4 C 0.22522(14) 0.20202(15) -0.11734(8)
H4 H 0.2490 0.2665 -0.1434
C5 C 0.23670(14) 0.21049(14) -0.04854(8)
H5 H 0.2680 0.2799 -0.0271
C6 C 0.20123(13) 0.11437(13) -0.01089(7)
C7 C 0.19848(13) 0.09175(14) 0.05972(7)
C8 C 0.15416(13) -0.01955(14) 0.06588(8)
H6 H 0.1427 -0.0577 0.1070
C9 C 0.23486(13) 0.18125(13) 0.11254(7)
C10 C 0.21645(14) 0.13679(15) 0.18296(8)
C11 C 0.36676(13) 0.21818(14) 0.11053(7)
C12 C 0.56376(14) 0.15243(16) 0.10353(9)
H7 H 0.6136 0.0879 0.1238
H8 H 0.5857 0.2265 0.1277
C13 C 0.58512(17) 0.16537(18) 0.03122(10)
H9 H 0.5658 0.0910 0.0078
H10 H 0.6685 0.1848 0.0273
H11 H 0.5350 0.2287 0.0112
H12 H 0.0970(17) -0.1392(11) -0.0023(10)
F4 F 0.06681(9) 0.59205(10) 0.21488(5)
F5 F 0.12692(9) 0.76800(9) 0.19511(5)
F6 F 0.23240(9) 0.65513(9) 0.26263(5)
N2 N 0.02318(12) 0.66087(12) -0.00156(7)
O4 O 0.24863(10) 0.48465(9) 0.16555(6)
H13 H 0.3215 0.4702 0.1678
O5 O 0.44188(10) 0.60497(10) 0.15775(6)
O6 O 0.34648(9) 0.77898(10) 0.14263(6)
C14 C 0.11801(14) 0.61610(14) -0.03236(8)
C15 C 0.13062(16) 0.60005(15) -0.10032(8)
H14 H 0.0690 0.6199 -0.1334
C16 C 0.23676(17) 0.55402(16) -0.11724(9)
H15 H 0.2486 0.5422 -0.1631
C17 C 0.32762(16) 0.52424(16) -0.06852(9)
H16 H 0.3994 0.4923 -0.0820
C18 C 0.31490(14) 0.54032(14) -0.00129(8)
H17 H 0.3769 0.5196 0.0314
C19 C 0.20799(13) 0.58806(13) 0.01780(8)
C20 C 0.16268(13) 0.61869(13) 0.08081(8)
C21 C 0.05025(14) 0.66080(14) 0.06626(8)
H18 H -0.0013 0.6862 0.0984
C22 C 0.22909(13) 0.60518(13) 0.14820(8)
C23 C 0.16256(15) 0.65641(15) 0.20512(8)
C24 C 0.35287(14) 0.66335(14) 0.15009(7)
C25 C 0.46023(15) 0.84208(16) 0.14768(9)
H19 H 0.4503 0.9197 0.1252
H20 H 0.5192 0.7961 0.1247
C26 C 0.50451(16) 0.86016(18) 0.21949(10)
H21 H 0.4453 0.9040 0.2425
H22 H 0.5787 0.9051 0.2218
H23 H 0.5185 0.7832 0.2411
H24 H -0.0474(11) 0.6806(17) -0.0218(9)
loop_
_geom_bond_atom_site_label_1
_geom_bond_atom_site_label_2
_geom_bond_site_symmetry_1
_geom_bond_site_symmetry_2
F1 C10 1_555 1_555
F2 C10 1_555 1_555
F3 C10 1_555 1_555
N1 C1 1_555 1_555
O1 H1 1_555 1_555
O2 C11 1_555 1_555
O3 C11 1_555 1_555
C1 C2 1_555 1_555
C2 H2 1_555 1_555
C3 C2 1_555 1_555
H3 C3 1_555 1_555
C4 C3 1_555 1_555
H4 C4 1_555 1_555
C5 C4 1_555 1_555
H5 C5 1_555 1_555
C6 C1 1_555 1_555
C7 C6 1_555 1_555
C8 N1 1_555 1_555
H6 C8 1_555 1_555
C9 O1 1_555 1_555
C10 C9 1_555 1_555
C11 C9 1_555 1_555
C12 O3 1_555 1_555
H7 C12 1_555 1_555
H8 C12 1_555 1_555
C13 C12 1_555 1_555
H9 C13 1_555 1_555
H10 C13 1_555 1_555
H11 C13 1_555 1_555
H12 N1 1_555 1_555
F4 C23 1_555 1_555
F5 C23 1_555 1_555
F6 C23 1_555 1_555
N2 C14 1_555 1_555
O4 H13 1_555 1_555
O5 C24 1_555 1_555
O6 C24 1_555 1_555
C14 C15 1_555 1_555
C15 H14 1_555 1_555
C16 C15 1_555 1_555
H15 C16 1_555 1_555
C17 C16 1_555 1_555
H16 C17 1_555 1_555
C18 C17 1_555 1_555
H17 C18 1_555 1_555
C19 C14 1_555 1_555
C20 C19 1_555 1_555
C21 N2 1_555 1_555
H18 C21 1_555 1_555
C22 O4 1_555 1_555
C23 C22 1_555 1_555
C24 C22 1_555 1_555
C25 O6 1_555 1_555
H19 C25 1_555 1_555
H20 C25 1_555 1_555
C26 C25 1_555 1_555
H21 C26 1_555 1_555
H22 C26 1_555 1_555
H23 C26 1_555 1_555
H24 N2 1_555 1_555
C5 C6 1_555 1_555
C7 C8 1_555 1_555
C7 C9 1_555 1_555
C18 C19 1_555 1_555
C20 C21 1_555 1_555
C20 C22 1_555 1_555

#END
