
#######################################################################
#
#                 Cambridge Crystallographic Data Centre
#                                CCDC 
#
#######################################################################
#
# If this CIF has been generated from an entry in the Cambridge 
# Structural Database, then it will include bibliographic, chemical, 
# crystal, experimental, refinement or atomic coordinate data resulting 
# from the CCDC's data processing and validation procedures.
#
#######################################################################

data_XUHKUI
_chemical_formula_moiety         'C36 H36 N24 O12,C18 H22 N2 O4 2+,2(N1 O3 1-)'
_chemical_name_systematic        
'(2)-((1,6-bis(4-Carboxypyridinio)hexane)-(cucurbit(6)uril)) pseudorotaxane dinitrate unknown solvate'
_symmetry_cell_setting           triclinic
_symmetry_space_group_name_H-M   'P -1'
_symmetry_Int_Tables_number      2
_space_group_name_Hall           '-P 1'
loop_
_symmetry_equiv_pos_site_id
_symmetry_equiv_pos_as_xyz
1 x,y,z
2 -x,-y,-z
_cell_length_a                   12.5869(4)
_cell_length_b                   16.1378(8)
_cell_length_c                   17.8631(7)
_cell_angle_alpha                87.780(4)
_cell_angle_beta                 89.749(3)
_cell_angle_gamma                67.888(4)
_cell_volume                     3358.84
_exptl_crystal_colour            colorless
_exptl_crystal_description       block
_cell_formula_units_Z            2
loop_
_atom_site_label
_atom_site_type_symbol
_atom_site_fract_x
_atom_site_fract_y
_atom_site_fract_z
O1 O -0.0911(7) 0.7398(6) -0.3295(4)
O2 O 0.2707(5) 0.3555(5) -0.3241(4)
O3 O 0.0336(6) 0.7775(5) -0.4992(4)
O4 O -0.0613(6) 0.7376(6) -0.6763(4)
O5 O 0.3095(5) 0.3526(6) -0.6574(4)
O6 O 0.4064(6) 0.3994(6) -0.4816(4)
N1 N 0.3484(7) 0.5371(8) -0.5467(4)
N2 N 0.0212(5) 0.6083(6) -0.7442(4)
N3 N 0.3408(5) 0.5353(7) -0.4228(4)
N4 N 0.1989(6) 0.6857(6) -0.5522(4)
N5 N 0.1597(6) 0.4584(7) -0.7267(4)
N6 N -0.0218(6) 0.6081(7) -0.2572(5)
N7 N 0.1315(6) 0.6510(7) -0.6696(4)
N8 N 0.1190(7) 0.4549(8) -0.2583(5)
N9 N 0.2406(9) 0.5005(11) -0.3138(5)
N10 N 0.2816(7) 0.5074(8) -0.6641(5)
C1 C 0.3054(7) 0.6263(9) -0.4433(5)
H1 H 0.3588 0.6499 -0.4212
N11 N 0.0979(9) 0.6532(8) -0.3141(5)
N12 N 0.1905(7) 0.6871(8) -0.4306(5)
C2 C 0.2262(10) 0.4351(11) -0.3045(7)
C3 C 0.3675(7) 0.4821(8) -0.4851(5)
C4 C 0.2622(8) 0.4341(10) -0.6806(5)
C5 C 0.0211(8) 0.6704(9) -0.6963(5)
C6 C 0.3773(7) 0.5015(8) -0.6222(5)
H2 H 0.4519 0.4775 -0.6400
C7 C -0.0120(9) 0.6773(9) -0.3055(6)
C8 C 0.3168(7) 0.6298(8) -0.5310(5)
H3 H 0.3730 0.6547 -0.5483
C9 C 0.0893(8) 0.5424(9) -0.2307(5)
H4 H 0.0975 0.5412 -0.1761
C10 C 0.1363(8) 0.5434(9) -0.7561(5)
H5 H 0.1557 0.5420 -0.8093
C11 C 0.1310(7) 0.3930(8) -0.7651(5)
H6 H 0.1294 0.4059 -0.8187
H7 H 0.1898 0.3342 -0.7549
C12 C 0.3489(8) 0.4945(9) -0.3474(5)
H8 H 0.3983 0.4318 -0.3491
H9 H 0.3857 0.5227 -0.3148
C13 C 0.2111(8) 0.5791(9) -0.7111(5)
H10 H 0.2576 0.6013 -0.7444
C14 C 0.1653(8) 0.7135(9) -0.6301(5)
H11 H 0.1019 0.7711 -0.6314
H12 H 0.2290 0.7211 -0.6560
C15 C 0.1726(8) 0.5776(9) -0.2712(5)
H13 H 0.2199 0.5942 -0.2359
C16 C 0.1328(8) 0.7277(9) -0.4959(6)
C17 C -0.0836(8) 0.6077(9) -0.7746(5)
H14 H -0.1240 0.6467 -0.8135
C18 C 0.1441(9) 0.7161(10) -0.3551(6)
H15 H 0.0832 0.7748 -0.3605
H16 H 0.2045 0.7220 -0.3248
O1A O 0.0911(7) 0.2602(6) -0.6705(4)
O2A O -0.2707(5) 0.6445(5) -0.6759(4)
O3A O -0.0336(6) 0.2225(5) -0.5008(4)
O4A O 0.0613(6) 0.2624(6) -0.3237(4)
O5A O -0.3095(5) 0.6474(6) -0.3426(4)
O6A O -0.4064(6) 0.6006(6) -0.5184(4)
N1A N -0.3484(7) 0.4629(8) -0.4533(4)
N2A N -0.0212(5) 0.3917(6) -0.2558(4)
N3A N -0.3408(5) 0.4647(7) -0.5772(4)
N4A N -0.1989(6) 0.3143(6) -0.4478(4)
N5A N -0.1597(6) 0.5416(7) -0.2733(4)
N6A N 0.0218(6) 0.3919(7) -0.7428(5)
N7A N -0.1315(6) 0.3490(7) -0.3304(4)
N8A N -0.1190(7) 0.5451(8) -0.7417(5)
N9A N -0.2406(9) 0.4995(11) -0.6862(5)
N10A N -0.2816(7) 0.4926(8) -0.3359(5)
C1A C -0.3054(7) 0.3737(9) -0.5567(5)
H1A H -0.3588 0.3501 -0.5788
N11A N -0.0979(9) 0.3468(8) -0.6859(5)
N12A N -0.1905(7) 0.3129(8) -0.5694(5)
C2A C -0.2262(10) 0.5649(11) -0.6955(7)
C3A C -0.3675(7) 0.5179(8) -0.5149(5)
C4A C -0.2622(8) 0.5659(10) -0.3194(5)
C5A C -0.0211(8) 0.3296(9) -0.3037(5)
C6A C -0.3773(7) 0.4985(8) -0.3778(5)
H2A H -0.4519 0.5225 -0.3600
C7A C 0.0120(9) 0.3227(9) -0.6945(6)
C8A C -0.3168(7) 0.3702(8) -0.4690(5)
H3A H -0.3730 0.3453 -0.4517
C9A C -0.0893(8) 0.4576(9) -0.7693(5)
H4A H -0.0975 0.4588 -0.8239
C10A C -0.1363(8) 0.4566(9) -0.2439(5)
H5A H -0.1557 0.4580 -0.1907
C11A C -0.1310(7) 0.6070(8) -0.2349(5)
H6A H -0.1294 0.5941 -0.1813
H7A H -0.1898 0.6658 -0.2451
C12A C -0.3489(8) 0.5055(9) -0.6526(5)
H8A H -0.3983 0.5682 -0.6509
H9A H -0.3857 0.4773 -0.6852
C13A C -0.2111(8) 0.4209(9) -0.2889(5)
H10A H -0.2576 0.3987 -0.2556
C14A C -0.1653(8) 0.2865(9) -0.3699(5)
H11A H -0.1019 0.2289 -0.3686
H12A H -0.2290 0.2789 -0.3440
C15A C -0.1726(8) 0.4224(9) -0.7288(5)
H13A H -0.2199 0.4058 -0.7641
C16A C -0.1328(8) 0.2723(9) -0.5041(6)
C17A C 0.0836(8) 0.3923(9) -0.2254(5)
H14A H 0.1240 0.3533 -0.1865
C18A C -0.1441(9) 0.2839(10) -0.6449(6)
H15A H -0.0832 0.2252 -0.6395
H16A H -0.2045 0.2780 -0.6752
O7 O -0.0616(7) 1.1719(7) 0.2138(4)
O8 O 0.1216(6) 0.7711(7) 0.1887(4)
O9 O 0.3680(8) 0.9871(7) -0.0619(4)
O10 O -0.1512(7) 0.7984(8) 0.0978(4)
O11 O 0.3284(7) 0.8069(6) -0.1188(4)
N13 N 0.1807(7) 1.1919(9) 0.0320(4)
N14 N 0.2936(7) 0.7627(7) 0.1279(4)
N15 N 0.0982(9) 1.1792(9) 0.1545(5)
N16 N 0.0749(7) 0.7302(8) -0.1111(4)
N17 N 0.1735(7) 0.7025(7) 0.0758(4)
O12 O 0.1729(7) 0.9546(8) 0.2493(4)
N18 N 0.3703(6) 0.7743(6) 0.0067(4)
N19 N 0.2468(8) 0.7189(8) -0.0459(4)
N20 N 0.2537(6) 1.0347(9) 0.1741(4)
N21 N 0.3990(6) 0.8949(7) 0.0490(4)
N22 N 0.3224(7) 0.8858(8) 0.1696(5)
N23 N 0.3411(7) 1.0498(7) 0.0532(5)
N24 N -0.0074(8) 0.7300(7) 0.0132(4)
C19 C 0.1236(9) 1.2369(9) 0.0977(6)
H17 H 0.1624 1.2730 0.1191
C20 C 0.3379(8) 0.7960(9) 0.1873(5)
H18 H 0.3719 0.7639 0.2309
C21 C 0.2722(8) 0.6773(9) 0.0289(5)
H19 H 0.3082 0.6121 0.0266
C22 C 0.3525(8) 0.7141(8) 0.0639(5)
H20 H 0.4251 0.6661 0.0789
C23 C 0.3531(8) 1.0108(9) 0.1314(5)
H21 H 0.4081 1.0290 0.1580
C24 C 0.4038(8) 0.9158(8) 0.1247(5)
H22 H 0.4820 0.8904 0.1452
C25 C 0.4460(9) 0.8100(9) 0.0145(5)
H23 H 0.5218 0.7837 -0.0005
C26 C 0.1970(8) 0.6926(9) -0.1074(5)
H24 H 0.2218 0.6279 -0.1049
H25 H 0.2265 0.7092 -0.1534
C27 C 0.1867(8) 0.7485(8) 0.1361(5)
C28 C 0.2481(9) 0.9613(10) 0.2033(6)
C29 C -0.0136(9) 1.2070(9) 0.1658(6)
C30 C 0.1878(9) 1.1254(9) 0.2054(5)
H26 H 0.1547 1.1176 0.2531
H27 H 0.2398 1.1557 0.2142
C31 C 0.3095(9) 1.1409(10) 0.0296(6)
H28 H 0.3358 1.1442 -0.0211
H29 H 0.3471 1.1689 0.0617
C32 C -0.0016(9) 0.7035(10) -0.0634(5)
H30 H 0.0138 0.6395 -0.0663
C33 C -0.1098(9) 0.7848(10) 0.0340(6)
C34 C 0.3714(9) 0.9850(9) 0.0029(6)
C35 C 0.3170(9) 0.7667(9) -0.0573(5)
C36 C 0.0839(10) 0.6844(9) 0.0698(5)
H31 H 0.0753 0.6409 0.1022
O7A O 0.0616(7) 0.8281(7) -0.2138(4)
O8A O -0.1216(6) 1.2289(7) -0.1887(4)
O9A O -0.3680(8) 1.0129(7) 0.0619(4)
O10A O 0.1512(7) 1.2016(8) -0.0978(4)
O11A O -0.3284(7) 1.1931(6) 0.1188(4)
N13A N -0.1807(7) 0.8081(9) -0.0320(4)
N14A N -0.2936(7) 1.2373(7) -0.1279(4)
N15A N -0.0982(9) 0.8208(9) -0.1545(5)
N16A N -0.0749(7) 1.2698(8) 0.1111(4)
N17A N -0.1735(7) 1.2975(7) -0.0758(4)
O12A O -0.1729(7) 1.0454(8) -0.2493(4)
N18A N -0.3703(6) 1.2257(6) -0.0067(4)
N19A N -0.2468(8) 1.2811(8) 0.0459(4)
N20A N -0.2537(6) 0.9653(9) -0.1741(4)
N21A N -0.3990(6) 1.1051(7) -0.0490(4)
N22A N -0.3224(7) 1.1142(8) -0.1696(5)
N23A N -0.3411(7) 0.9502(7) -0.0532(5)
N24A N 0.0074(8) 1.2700(7) -0.0132(4)
C19A C -0.1236(9) 0.7631(9) -0.0977(6)
H17A H -0.1624 0.7270 -0.1191
C20A C -0.3379(8) 1.2040(9) -0.1873(5)
H18A H -0.3719 1.2361 -0.2309
C21A C -0.2722(8) 1.3227(9) -0.0289(5)
H19A H -0.3082 1.3879 -0.0266
C22A C -0.3525(8) 1.2859(8) -0.0639(5)
H20A H -0.4251 1.3339 -0.0789
C23A C -0.3531(8) 0.9892(9) -0.1314(5)
H21A H -0.4081 0.9710 -0.1580
C24A C -0.4038(8) 1.0842(8) -0.1247(5)
H22A H -0.4820 1.1096 -0.1452
C25A C -0.4460(9) 1.1900(9) -0.0145(5)
H23A H -0.5218 1.2163 0.0005
C26A C -0.1970(8) 1.3074(9) 0.1074(5)
H24A H -0.2218 1.3721 0.1049
H25A H -0.2265 1.2908 0.1534
C27A C -0.1867(8) 1.2515(8) -0.1361(5)
C28A C -0.2481(9) 1.0387(10) -0.2033(6)
C29A C 0.0136(9) 0.7930(9) -0.1658(6)
C30A C -0.1878(9) 0.8746(9) -0.2054(5)
H26A H -0.1547 0.8824 -0.2531
H27A H -0.2398 0.8443 -0.2142
C31A C -0.3095(9) 0.8591(10) -0.0296(6)
H28A H -0.3358 0.8558 0.0211
H29A H -0.3471 0.8311 -0.0617
C32A C 0.0016(9) 1.2965(10) 0.0634(5)
H30A H -0.0138 1.3605 0.0663
C33A C 0.1098(9) 1.2152(10) -0.0340(6)
C34A C -0.3714(9) 1.0150(9) -0.0029(6)
C35A C -0.3170(9) 1.2333(9) 0.0573(5)
C36A C -0.0839(10) 1.3156(9) -0.0698(5)
H31A H -0.0753 1.3591 -0.1022
O13 O -0.5948(7) 1.0078(10) -0.3774(7)
H32 H -0.6327 1.0223 -0.3392
C37 C -0.4868(11) 0.9910(11) -0.3620(8)
O14 O -0.4485(8) 1.0264(10) -0.3181(7)
C38 C -0.1172(10) 0.6172(10) -0.4794(6)
H33 H -0.0796 0.6308 -0.4370
H34 H -0.1732 0.5939 -0.4603
C39 C -0.1777(10) 0.7021(10) -0.5269(6)
H35 H -0.1208 0.7227 -0.5485
H36 H -0.2182 0.6885 -0.5678
N25 N -0.2580(5) 0.7728(5) -0.4850(3)
C40 C -0.2218(4) 0.8361(5) -0.4549(4)
H37 H -0.1467 0.8320 -0.4617
C41 C -0.2978(6) 0.9053(5) -0.4146(5)
H38 H -0.2736 0.9476 -0.3944
C42 C -0.4100(5) 0.9113(5) -0.4044(4)
C43 C -0.4461(4) 0.8481(6) -0.4346(5)
H39 H -0.5212 0.8521 -0.4278
C44 C -0.3702(5) 0.7789(5) -0.4749(4)
H40 H -0.3944 0.7366 -0.4950
C45 C -0.0303(10) 0.5479(10) -0.5244(6)
H41 H 0.0285 0.5697 -0.5406
H42 H -0.0671 0.5377 -0.5688
O13A O 0.5948(7) -0.0078(10) -0.6226(7)
H32A H 0.6327 -0.0223 -0.6608
C37A C 0.4868(11) 0.0090(11) -0.6380(8)
O14A O 0.4485(8) -0.0264(10) -0.6819(7)
C38A C 0.1172(10) 0.3828(10) -0.5206(6)
H33A H 0.0796 0.3692 -0.5630
H34A H 0.1732 0.4061 -0.5397
C39A C 0.1777(10) 0.2979(10) -0.4731(6)
H35A H 0.1208 0.2773 -0.4515
H36A H 0.2182 0.3115 -0.4322
N25A N 0.2580(5) 0.2272(5) -0.5150(3)
C40A C 0.2218(4) 0.1639(5) -0.5451(4)
H37A H 0.1467 0.1680 -0.5383
C41A C 0.2978(6) 0.0947(5) -0.5854(5)
H38A H 0.2736 0.0524 -0.6056
C42A C 0.4100(5) 0.0887(5) -0.5956(4)
C43A C 0.4461(4) 0.1519(6) -0.5654(5)
H39A H 0.5212 0.1479 -0.5722
C44A C 0.3702(5) 0.2211(5) -0.5251(4)
H40A H 0.3944 0.2634 -0.5050
C45A C 0.0303(10) 0.4521(10) -0.4756(6)
H41A H -0.0285 0.4303 -0.4594
H42A H 0.0671 0.4623 -0.4312
N26 N 0.4763(15) 0.4779(10) 0.1739(9)
O15 O 0.4667(14) 0.5610(11) 0.2014(10)
O16 O 0.3791(18) 0.4766(13) 0.1616(12)
O17 O 0.555(3) 0.472(2) 0.156(2)
C46 C 0.0299(10) 1.0281(11) -0.0266(6)
H43 H -0.0187 1.0912 -0.0294
H44 H 0.1038 1.0217 -0.0058
O18 O 0.2662(11) 0.8534(9) -0.4652(8)
C47 C 0.1094(11) 1.0433(11) -0.1532(7)
H45 H 0.0637 1.1070 -0.1549
H46 H 0.1834 1.0335 -0.1306
C48 C 0.0449(10) 0.9892(11) -0.1053(6)
H47 H -0.0290 0.9985 -0.1277
H48 H 0.0908 0.9255 -0.1027
O19 O 0.1355(12) 0.9875(10) -0.5090(6)
C49 C 0.1773(13) 0.9388(14) -0.4647(7)
N27 N 0.1242(7) 1.0079(6) -0.2300(3)
C50 C 0.2133(7) 0.9285(6) -0.2466(3)
H49 H 0.2606 0.8930 -0.2084
C51 C 0.2316(7) 0.9022(6) -0.3203(4)
H50 H 0.2912 0.8491 -0.3314
C52 C 0.1609(8) 0.9554(7) -0.3773(3)
C53 C 0.0718(7) 1.0348(7) -0.3607(3)
H51 H 0.0245 1.0703 -0.3989
C54 C 0.0535(7) 1.0611(6) -0.2870(4)
H52 H -0.0061 1.1142 -0.2759
C46A C -0.0299(10) 0.9719(11) 0.0266(6)
H43A H 0.0187 0.9088 0.0294
H44A H -0.1038 0.9783 0.0058
O18A O -0.2662(11) 1.1466(9) 0.4652(8)
C47A C -0.1094(11) 0.9567(11) 0.1532(7)
H45A H -0.0637 0.8930 0.1549
H46A H -0.1834 0.9665 0.1306
C48A C -0.0449(10) 1.0108(11) 0.1053(6)
H47A H 0.0290 1.0015 0.1277
H48A H -0.0908 1.0745 0.1027
O19A O -0.1355(12) 1.0125(10) 0.5090(6)
C49A C -0.1773(13) 1.0612(14) 0.4647(7)
N27A N -0.1242(7) 0.9921(6) 0.2300(3)
C50A C -0.2133(7) 1.0715(6) 0.2466(3)
H49A H -0.2606 1.1070 0.2084
C51A C -0.2316(7) 1.0978(6) 0.3203(4)
H50A H -0.2912 1.1509 0.3314
C52A C -0.1609(8) 1.0446(7) 0.3773(3)
C53A C -0.0718(7) 0.9652(7) 0.3607(3)
H51A H -0.0245 0.9297 0.3989
C54A C -0.0535(7) 0.9389(6) 0.2870(4)
H52A H 0.0061 0.8858 0.2759
N28 N 0.1702(17) 0.4316(16) 0.0001(13)
O20 O 0.124(2) 0.4700(16) 0.0579(16)
O21 O 0.1918(18) 0.4781(15) -0.0369(13)
O22 O 0.198(4) 0.355(4) -0.026(3)
loop_
_geom_bond_atom_site_label_1
_geom_bond_atom_site_label_2
_geom_bond_site_symmetry_1
_geom_bond_site_symmetry_2
O1 C7 1_555 1_555
O2 C2 1_555 1_555
O3 C16 1_555 1_555
O4 C5 1_555 1_555
O5 C4 1_555 1_555
O6 C3 1_555 1_555
N1 C3 1_555 1_555
N2 C5 1_555 1_555
N3 C1 1_555 1_555
N4 C8 1_555 1_555
N5 C4 1_555 1_555
N6 C7 1_555 1_555
N7 C5 1_555 1_555
N8 C2 1_555 1_555
N9 C2 1_555 1_555
N10 C4 1_555 1_555
C1 H1 1_555 1_555
N11 C7 1_555 1_555
N12 C1 1_555 1_555
C3 N3 1_555 1_555
C6 N1 1_555 1_555
H2 C6 1_555 1_555
C8 N1 1_555 1_555
H3 C8 1_555 1_555
C9 N6 1_555 1_555
H4 C9 1_555 1_555
C10 N2 1_555 1_555
H5 C10 1_555 1_555
C11 N5 1_555 1_555
H6 C11 1_555 1_555
H7 C11 1_555 1_555
C12 N3 1_555 1_555
H8 C12 1_555 1_555
H9 C12 1_555 1_555
C13 N7 1_555 1_555
H10 C13 1_555 1_555
C14 N4 1_555 1_555
H11 C14 1_555 1_555
H12 C14 1_555 1_555
C15 N9 1_555 1_555
H13 C15 1_555 1_555
C16 N4 1_555 1_555
C17 N2 1_555 1_555
H14 C17 1_555 1_555
C18 N11 1_555 1_555
H15 C18 1_555 1_555
H16 C18 1_555 1_555
O7 C29 1_555 1_555
O8 C27 1_555 1_555
O9 C34 1_555 1_555
O10 C33 1_555 1_555
O11 C35 1_555 1_555
N13 C19 1_555 1_555
N14 C20 1_555 1_555
N15 C19 1_555 1_555
N16 C26 1_555 1_555
N17 C21 1_555 1_555
O12 C28 1_555 1_555
N18 C22 1_555 1_555
N19 C21 1_555 1_555
N20 C23 1_555 1_555
N21 C24 1_555 1_555
N22 C20 1_555 1_555
N23 C23 1_555 1_555
N24 C32 1_555 1_555
C19 H17 1_555 1_555
C20 H18 1_555 1_555
C21 H19 1_555 1_555
C22 N14 1_555 1_555
H20 C22 1_555 1_555
C23 H21 1_555 1_555
C24 N22 1_555 1_555
H22 C24 1_555 1_555
C25 N18 1_555 1_555
H23 C25 1_555 1_555
C26 N19 1_555 1_555
H24 C26 1_555 1_555
H25 C26 1_555 1_555
C27 N14 1_555 1_555
C28 N20 1_555 1_555
C29 N15 1_555 1_555
C30 N15 1_555 1_555
H26 C30 1_555 1_555
H27 C30 1_555 1_555
C31 N13 1_555 1_555
H28 C31 1_555 1_555
H29 C31 1_555 1_555
C32 N16 1_555 1_555
H30 C32 1_555 1_555
C33 N24 1_555 1_555
C34 N21 1_555 1_555
C35 N18 1_555 1_555
C36 N17 1_555 1_555
H31 C36 1_555 1_555
O13 H32 1_555 1_555
C37 O13 1_555 1_555
O14 C37 1_555 1_555
C38 H33 1_555 1_555
H34 C38 1_555 1_555
C39 C38 1_555 1_555
H35 C39 1_555 1_555
H36 C39 1_555 1_555
N25 C39 1_555 1_555
C40 N25 1_555 1_555
H37 C40 1_555 1_555
C41 C40 1_555 1_555
H38 C41 1_555 1_555
C42 C37 1_555 1_555
C43 C42 1_555 1_555
H39 C43 1_555 1_555
C44 N25 1_555 1_555
H40 C44 1_555 1_555
C45 C38 1_555 1_555
H41 C45 1_555 1_555
H42 C45 1_555 1_555
N26 O15 1_555 1_555
O16 N26 1_555 1_555
O17 N26 1_555 1_555
C46 H43 1_555 1_555
H44 C46 1_555 1_555
O18 C49 1_555 1_555
C47 H45 1_555 1_555
H46 C47 1_555 1_555
C48 C46 1_555 1_555
H47 C48 1_555 1_555
H48 C48 1_555 1_555
O19 C49 1_555 1_555
C49 C52 1_555 1_555
N27 C47 1_555 1_555
C50 N27 1_555 1_555
H49 C50 1_555 1_555
C51 C50 1_555 1_555
H50 C51 1_555 1_555
C52 C51 1_555 1_555
C53 C52 1_555 1_555
H51 C53 1_555 1_555
C54 N27 1_555 1_555
H52 C54 1_555 1_555
N28 O20 1_555 1_555
O21 N28 1_555 1_555
O22 N28 1_555 1_555
O1A C7A 1_555 1_555
O2A C2A 1_555 1_555
O3A C16A 1_555 1_555
O4A C5A 1_555 1_555
O5A C4A 1_555 1_555
O6A C3A 1_555 1_555
N1A C3A 1_555 1_555
N2A C5A 1_555 1_555
N3A C1A 1_555 1_555
N4A C8A 1_555 1_555
N5A C4A 1_555 1_555
N6A C11 1_555 1_555
N7A C5A 1_555 1_555
N8A C17 1_555 1_555
N9A C2A 1_555 1_555
N10A C4A 1_555 1_555
C1A H1A 1_555 1_555
N11A C7A 1_555 1_555
N12A C1A 1_555 1_555
C2A N8A 1_555 1_555
C3A N3A 1_555 1_555
C6A N1A 1_555 1_555
H2A C6A 1_555 1_555
C7A N6A 1_555 1_555
C8A N1A 1_555 1_555
H3A C8A 1_555 1_555
C9A N6A 1_555 1_555
H4A C9A 1_555 1_555
C10A N2A 1_555 1_555
H5A C10A 1_555 1_555
C11A N6 1_555 1_555
H6A C11A 1_555 1_555
H7A C11A 1_555 1_555
C12A N3A 1_555 1_555
H8A C12A 1_555 1_555
H9A C12A 1_555 1_555
C13A N7A 1_555 1_555
H10A C13A 1_555 1_555
C14A N4A 1_555 1_555
H11A C14A 1_555 1_555
H12A C14A 1_555 1_555
C15A N9A 1_555 1_555
H13A C15A 1_555 1_555
C16A N4A 1_555 1_555
C17A N8 1_555 1_555
H14A C17A 1_555 1_555
C18A N11A 1_555 1_555
H15A C18A 1_555 1_555
H16A C18A 1_555 1_555
O7A C29A 1_555 1_555
O8A C27A 1_555 1_555
O9A C34A 1_555 1_555
O10A C33A 1_555 1_555
O11A C35A 1_555 1_555
N13A C33 1_555 1_555
N14A C20A 1_555 1_555
N15A C19A 1_555 1_555
N16A C29 1_555 1_555
N17A C21A 1_555 1_555
O12A C28A 1_555 1_555
N18A C22A 1_555 1_555
N19A C21A 1_555 1_555
N20A C23A 1_555 1_555
N21A C24A 1_555 1_555
N22A C20A 1_555 1_555
N23A C23A 1_555 1_555
N24A C32A 1_555 1_555
C19A C32 1_555 1_555
H17A C19A 1_555 1_555
C20A H18A 1_555 1_555
C21A H19A 1_555 1_555
C22A N14A 1_555 1_555
H20A C22A 1_555 1_555
C23A H21A 1_555 1_555
C24A N22A 1_555 1_555
H22A C24A 1_555 1_555
C25A N18A 1_555 1_555
H23A C25A 1_555 1_555
C26A N16A 1_555 1_555
H24A C26A 1_555 1_555
H25A C26A 1_555 1_555
C27A N14A 1_555 1_555
C28A N20A 1_555 1_555
C29A N16 1_555 1_555
C30A N15A 1_555 1_555
H26A C30A 1_555 1_555
H27A C30A 1_555 1_555
C31A N13A 1_555 1_555
H28A C31A 1_555 1_555
H29A C31A 1_555 1_555
C32A C19 1_555 1_555
H30A C32A 1_555 1_555
C33A N13 1_555 1_555
C34A N21A 1_555 1_555
C35A N18A 1_555 1_555
C36A N17A 1_555 1_555
H31A C36A 1_555 1_555
O13A H32A 1_555 1_555
C37A O13A 1_555 1_555
O14A C37A 1_555 1_555
C38A H33A 1_555 1_555
H34A C38A 1_555 1_555
C39A C38A 1_555 1_555
H35A C39A 1_555 1_555
H36A C39A 1_555 1_555
N25A C39A 1_555 1_555
C40A N25A 1_555 1_555
H37A C40A 1_555 1_555
C41A C40A 1_555 1_555
H38A C41A 1_555 1_555
C42A C37A 1_555 1_555
C43A C42A 1_555 1_555
H39A C43A 1_555 1_555
C44A N25A 1_555 1_555
H40A C44A 1_555 1_555
C45A C45 1_555 1_555
H41A C45A 1_555 1_555
H42A C45A 1_555 1_555
C46A C46 1_555 1_555
H43A C46A 1_555 1_555
H44A C46A 1_555 1_555
O18A C49A 1_555 1_555
C47A H45A 1_555 1_555
H46A C47A 1_555 1_555
C48A C46A 1_555 1_555
H47A C48A 1_555 1_555
H48A C48A 1_555 1_555
O19A C49A 1_555 1_555
C49A C52A 1_555 1_555
N27A C47A 1_555 1_555
C50A N27A 1_555 1_555
H49A C50A 1_555 1_555
C51A C50A 1_555 1_555
H50A C51A 1_555 1_555
C52A C51A 1_555 1_555
C53A C52A 1_555 1_555
H51A C53A 1_555 1_555
C54A N27A 1_555 1_555
H52A C54A 1_555 1_555
N5 C10 1_555 1_555
N7 C14 1_555 1_555
N8 C9 1_555 1_555
N9 C12 1_555 1_555
N10 C6 1_555 1_555
N10 C13 1_555 1_555
C1 C8 1_555 1_555
N11 C15 1_555 1_555
N12 C16 1_555 1_555
N12 C18 1_555 1_555
C9 C15 1_555 1_555
C10 C13 1_555 1_555
N17 C27 1_555 1_555
N19 C35 1_555 1_555
N20 C30 1_555 1_555
N21 C25 1_555 1_555
N22 C28 1_555 1_555
N23 C31 1_555 1_555
N23 C34 1_555 1_555
N24 C36 1_555 1_555
C21 C22 1_555 1_555
C23 C24 1_555 1_555
C41 C42 1_555 1_555
C43 C44 1_555 1_555
C47 C48 1_555 1_555
C53 C54 1_555 1_555
N2A C17A 1_555 1_555
N5A C10A 1_555 1_555
N5A C11A 1_555 1_555
N7A C14A 1_555 1_555
N8A C9A 1_555 1_555
N9A C12A 1_555 1_555
N10A C6A 1_555 1_555
N10A C13A 1_555 1_555
C1A C8A 1_555 1_555
N11A C15A 1_555 1_555
N12A C16A 1_555 1_555
N12A C18A 1_555 1_555
C9A C15A 1_555 1_555
C10A C13A 1_555 1_555
N13A C19A 1_555 1_555
N15A C29A 1_555 1_555
N16A C32A 1_555 1_555
N17A C27A 1_555 1_555
N19A C26A 1_555 1_555
N19A C35A 1_555 1_555
N20A C30A 1_555 1_555
N21A C25A 1_555 1_555
N22A C28A 1_555 1_555
N23A C31A 1_555 1_555
N23A C34A 1_555 1_555
N24A C33A 1_555 1_555
N24A C36A 1_555 1_555
C21A C22A 1_555 1_555
C23A C24A 1_555 1_555
C38A C45A 1_555 1_555
C41A C42A 1_555 1_555
C43A C44A 1_555 1_555
C47A C48A 1_555 1_555
C53A C54A 1_555 1_555

#END
