
#######################################################################
#
#                 Cambridge Crystallographic Data Centre
#                                CCDC 
#
#######################################################################
#
# If this CIF has been generated from an entry in the Cambridge 
# Structural Database, then it will include bibliographic, chemical, 
# crystal, experimental, refinement or atomic coordinate data resulting 
# from the CCDC's data processing and validation procedures.
#
#######################################################################

data_XUHLOB
_chemical_formula_moiety         'C22 H32 N2 O3 Si2'
_chemical_name_systematic        
rac-1,3-Dihydroxy-1,3-bis((2-dimethylaminomethyl)phenyl)-1,3-divinyldisiloxane
_symmetry_cell_setting           monoclinic
_symmetry_space_group_name_H-M   'C 2/c'
_symmetry_Int_Tables_number      15
_space_group_name_Hall           '-C 2yn'
loop_
_symmetry_equiv_pos_site_id
_symmetry_equiv_pos_as_xyz
1 x,y,z
2 1/2+x,1/2+y,z
3 x,-y,1/2+z
4 1/2+x,1/2-y,1/2+z
5 -x,-y,-z
6 1/2-x,1/2-y,-z
7 -x,y,1/2-z
8 1/2-x,1/2+y,1/2-z
_cell_length_a                   22.072(3)
_cell_length_b                   8.8469(10)
_cell_length_c                   13.774(2)
_cell_angle_alpha                90.00
_cell_angle_beta                 117.091(9)
_cell_angle_gamma                90.00
_cell_volume                     2394.54
_cell_formula_units_Z            4
loop_
_atom_site_label
_atom_site_type_symbol
_atom_site_fract_x
_atom_site_fract_y
_atom_site_fract_z
Si1 Si 0.41989(3) 0.26468(7) 0.21095(5)
O1 O 0.40684(9) 0.4334(2) 0.24294(14)
O2 O 0.5000 0.2353(3) 0.2500
C1 C 0.37276(12) 0.3406(3) -0.01761(18)
C2 C 0.37020(10) 0.2394(3) 0.05943(17)
N1 N 0.39846(11) 0.5948(2) 0.07036(17)
C3 C 0.41902(13) 0.4763(3) 0.0160(2)
H1 H 0.4649 0.4436 0.0650
H2 H 0.4199 0.5191 -0.0482
C4 C 0.32584(12) 0.1162(3) 0.0199(2)
H3 H 0.3236 0.0475 0.0693
C5 C 0.39376(14) 0.1253(3) 0.2841(2)
C6 C 0.33200(15) 0.3146(4) -0.1288(2)
H4 H 0.3342 0.3807 -0.1796
C7 C 0.28873(15) 0.1930(4) -0.1643(2)
H5 H 0.2618 0.1778 -0.2386
C8 C 0.43537(19) 0.0291(4) 0.3549(3)
C9 C 0.28502(14) 0.0937(4) -0.0908(2)
H6 H 0.2554 0.0118 -0.1150
C10 C 0.33108(17) 0.6545(4) -0.0008(3)
H7 H 0.3191 0.7295 0.0378
H8 H 0.2984 0.5738 -0.0230
H9 H 0.3314 0.6994 -0.0640
C11 C 0.44864(18) 0.7184(4) 0.1035(3)
H10 H 0.4357 0.7961 0.1391
H11 H 0.4502 0.7597 0.0402
H12 H 0.4927 0.6801 0.1528
H13 H 0.4054(15) 0.493(3) 0.200(2)
H14 H 0.3480(15) 0.127(3) 0.272(2)
H15 H 0.4176(16) -0.047(4) 0.388(2)
H16 H 0.4809(18) 0.033(4) 0.375(3)
Si1F Si 0.58011(3) 0.26468(7) 0.28905(5)
O1F O 0.59316(9) 0.4334(2) 0.25706(14)
H13F H 0.5946(15) 0.493(3) 0.300(2)
C2F C 0.62980(10) 0.2394(3) 0.44057(17)
C1F C 0.62724(12) 0.3406(3) 0.51761(18)
C3F C 0.58098(13) 0.4763(3) 0.4840(2)
N1F N 0.60154(11) 0.5948(2) 0.42964(17)
C10F C 0.66892(17) 0.6545(4) 0.5008(3)
H7F H 0.6809 0.7295 0.4622
H8F H 0.7016 0.5738 0.5230
H9F H 0.6686 0.6994 0.5640
C11F C 0.55136(18) 0.7184(4) 0.3965(3)
H10F H 0.5643 0.7961 0.3609
H11F H 0.5498 0.7597 0.4598
H12F H 0.5073 0.6801 0.3472
H1F H 0.5351 0.4436 0.4350
H2F H 0.5801 0.5191 0.5482
C6F C 0.66800(15) 0.3146(4) 0.6288(2)
H4F H 0.6658 0.3807 0.6796
C7F C 0.71127(15) 0.1930(4) 0.6643(2)
H5F H 0.7382 0.1778 0.7386
C9F C 0.71498(14) 0.0937(4) 0.5908(2)
C4F C 0.67416(12) 0.1162(3) 0.4801(2)
H3F H 0.6764 0.0475 0.4307
H6F H 0.7446 0.0118 0.6150
C5F C 0.60624(14) 0.1253(3) 0.2159(2)
C8F C 0.56463(19) 0.0291(4) 0.1451(3)
H15F H 0.5824(16) -0.047(4) 0.112(2)
H16F H 0.5191(18) 0.033(4) 0.125(3)
H14F H 0.6520(15) 0.127(3) 0.228(2)
loop_
_geom_bond_atom_site_label_1
_geom_bond_atom_site_label_2
_geom_bond_site_symmetry_1
_geom_bond_site_symmetry_2
Si1 O1 1_555 1_555
O1 H13 1_555 1_555
O2 Si1 1_555 1_555
C1 C2 1_555 1_555
C2 Si1 1_555 1_555
N1 C3 1_555 1_555
C3 C1 1_555 1_555
H1 C3 1_555 1_555
H2 C3 1_555 1_555
C4 C2 1_555 1_555
H3 C4 1_555 1_555
C5 Si1 1_555 1_555
C6 C1 1_555 1_555
H4 C6 1_555 1_555
C7 C6 1_555 1_555
H5 C7 1_555 1_555
C8 C5 1_555 1_555
C9 C4 1_555 1_555
H6 C9 1_555 1_555
C10 N1 1_555 1_555
H7 C10 1_555 1_555
H8 C10 1_555 1_555
H9 C10 1_555 1_555
C11 N1 1_555 1_555
H10 C11 1_555 1_555
H11 C11 1_555 1_555
H12 C11 1_555 1_555
H14 C5 1_555 1_555
H15 C8 1_555 1_555
H16 C8 1_555 1_555
Si1F O2 1_555 1_555
O1F Si1F 1_555 1_555
H13F O1F 1_555 1_555
C2F Si1F 1_555 1_555
C1F C2F 1_555 1_555
C3F C1F 1_555 1_555
N1F C3F 1_555 1_555
C10F N1F 1_555 1_555
H7F C10F 1_555 1_555
H8F C10F 1_555 1_555
H9F C10F 1_555 1_555
C11F N1F 1_555 1_555
H10F C11F 1_555 1_555
H11F C11F 1_555 1_555
H12F C11F 1_555 1_555
H1F C3F 1_555 1_555
H2F C3F 1_555 1_555
C6F C1F 1_555 1_555
H4F C6F 1_555 1_555
C7F C6F 1_555 1_555
H5F C7F 1_555 1_555
C9F C7F 1_555 1_555
C4F C2F 1_555 1_555
H3F C4F 1_555 1_555
H6F C9F 1_555 1_555
C5F Si1F 1_555 1_555
C8F C5F 1_555 1_555
H15F C8F 1_555 1_555
H16F C8F 1_555 1_555
H14F C5F 1_555 1_555
C7 C9 1_555 1_555
C9F C4F 1_555 1_555

#END
