
#######################################################################
#
#                 Cambridge Crystallographic Data Centre
#                                CCDC 
#
#######################################################################
#
# If this CIF has been generated from an entry in the Cambridge 
# Structural Database, then it will include bibliographic, chemical, 
# crystal, experimental, refinement or atomic coordinate data resulting 
# from the CCDC's data processing and validation procedures.
#
#######################################################################

data_XUHZAD
_chemical_name_common            
'2-(2,3-bis(2-hydroxyethyl)guanidino)acetic acid'
_chemical_formula_moiety         'C7 H15 N3 O4'
_chemical_name_systematic        
((((2-hydroxyethyl)amino)((2-hydroxyethyl)iminio)methyl)amino)acetate
_symmetry_cell_setting           orthorhombic
_symmetry_space_group_name_H-M   'P 21 21 21'
_symmetry_Int_Tables_number      19
_space_group_name_Hall           'P 2ac 2ab'
loop_
_symmetry_equiv_pos_site_id
_symmetry_equiv_pos_as_xyz
1 x,y,z
2 1/2-x,-y,1/2+z
3 -x,1/2+y,1/2-z
4 1/2+x,1/2-y,-z
_cell_length_a                   5.678(5)
_cell_length_b                   10.497(10)
_cell_length_c                   16.627(16)
_cell_angle_alpha                90
_cell_angle_beta                 90
_cell_angle_gamma                90
_cell_volume                     991.002
_cell_formula_units_Z            4
_exptl_crystal_recrystallization_method methanol/water
loop_
_atom_site_label
_atom_site_type_symbol
_atom_site_fract_x
_atom_site_fract_y
_atom_site_fract_z
C1 C 0.3944(3) 0.60214(16) 0.84764(10)
C2 C 0.5930(4) 0.80705(17) 0.87882(11)
H1 H 0.6132 0.8812 0.8447
H2 H 0.7389 0.7590 0.8776
C3 C 0.5487(4) 0.8512(2) 0.96402(12)
H3 H 0.5574 0.7783 0.9998
H4 H 0.6721 0.9102 0.9795
C4 C 0.5909(4) 0.39912(17) 0.88575(13)
H5 H 0.7498 0.3817 0.9042
H6 H 0.5823 0.3746 0.8296
C5 C 0.4220(4) 0.31764(19) 0.93305(13)
H7 H 0.4853 0.2321 0.9377
H8 H 0.4054 0.3522 0.9869
C6 C 0.0912(4) 0.60513(17) 0.74319(12)
H9 H 0.1945 0.6463 0.7047
H10 H -0.0032 0.6707 0.7687
C7 C -0.0689(4) 0.51413(16) 0.69934(12)
N1 N 0.4063(3) 0.72867(13) 0.84586(9)
H11 H 0.2917 0.7679 0.8228
N2 N 0.5475(3) 0.53574(14) 0.89192(10)
H12 H 0.6275 0.5772 0.9272
N3 N 0.2326(3) 0.54217(13) 0.80369(10)
H13 H 0.2112 0.4621 0.8117
O1 O 0.3280(3) 0.91121(14) 0.97409(8)
H14 H 0.3084 0.9636 0.9381
O2 O 0.1965(3) 0.31226(12) 0.89551(10)
H15 H 0.1665 0.2384 0.8832
O3 O -0.0714(3) 0.40172(11) 0.71888(8)
O4 O -0.1899(4) 0.56396(13) 0.64413(10)
loop_
_geom_bond_atom_site_label_1
_geom_bond_atom_site_label_2
_geom_bond_site_symmetry_1
_geom_bond_site_symmetry_2
C1 N1 1_555 1_555
C2 H1 1_555 1_555
H2 C2 1_555 1_555
C3 C2 1_555 1_555
H3 C3 1_555 1_555
H4 C3 1_555 1_555
C4 H5 1_555 1_555
H6 C4 1_555 1_555
C5 C4 1_555 1_555
H7 C5 1_555 1_555
H8 C5 1_555 1_555
C6 H9 1_555 1_555
H10 C6 1_555 1_555
C7 C6 1_555 1_555
N1 C2 1_555 1_555
H11 N1 1_555 1_555
N2 C1 1_555 1_555
H12 N2 1_555 1_555
N3 C1 1_555 1_555
H13 N3 1_555 1_555
O1 C3 1_555 1_555
H14 O1 1_555 1_555
O2 C5 1_555 1_555
H15 O2 1_555 1_555
O3 C7 1_555 1_555
O4 C7 1_555 1_555
C4 N2 1_555 1_555
C6 N3 1_555 1_555

#END
