
#######################################################################
#
#                 Cambridge Crystallographic Data Centre
#                                CCDC 
#
#######################################################################
#
# If this CIF has been generated from an entry in the Cambridge 
# Structural Database, then it will include bibliographic, chemical, 
# crystal, experimental, refinement or atomic coordinate data resulting 
# from the CCDC's data processing and validation procedures.
#
#######################################################################

data_XUHZOR
_chemical_name_common            
'(S)-1-carbamimidoylpyrrolidine-2-carboxylic acid monohydrate'
_chemical_formula_moiety         'C6 H11 N3 O2,H2 O1'
_chemical_name_systematic        
'1-(diaminomethylene)pyrrolidinium-2-carboxylate monohydrate'
_symmetry_cell_setting           orthorhombic
_symmetry_space_group_name_H-M   'P 21 21 21'
_symmetry_Int_Tables_number      19
_space_group_name_Hall           'P 2ac 2ab'
loop_
_symmetry_equiv_pos_site_id
_symmetry_equiv_pos_as_xyz
1 x,y,z
2 1/2-x,-y,1/2+z
3 1/2+x,1/2-y,-z
4 -x,1/2+y,1/2-z
_cell_length_a                   7.8296(15)
_cell_length_b                   10.746(2)
_cell_length_c                   20.179(4)
_cell_angle_alpha                90
_cell_angle_beta                 90
_cell_angle_gamma                90
_cell_volume                     1697.8
_cell_formula_units_Z            8
_exptl_crystal_recrystallization_method 'methanol/ethyl acetate'
loop_
_atom_site_label
_atom_site_type_symbol
_atom_site_fract_x
_atom_site_fract_y
_atom_site_fract_z
O1 O 0.7358(2) 0.00806(13) 0.26759(6)
O2 O 0.73804(19) -0.00421(12) 0.15776(6)
N1 N 0.7822(2) 0.26547(15) 0.26304(7)
N2 N 0.5038(2) 0.30647(16) 0.23015(8)
H1 H 0.5139 0.2573 0.1967
H2 H 0.4093 0.3453 0.2368
N3 N 0.6109(2) 0.39745(16) 0.32299(8)
H3 H 0.6915 0.4083 0.3513
H4 H 0.5146 0.4347 0.3281
C1 C 0.9285(3) 0.2810(2) 0.30769(10)
H5 H 0.8995 0.2555 0.3524
H6 H 0.9664 0.3669 0.3085
C2 C 1.0650(3) 0.1973(2) 0.27877(11)
H7 H 1.1777 0.2327 0.2851
H8 H 1.0616 0.1154 0.2989
C3 C 1.0199(3) 0.1906(2) 0.20590(11)
H9 H 1.0672 0.1163 0.1857
H10 H 1.0623 0.2630 0.1824
C4 C 0.8239(2) 0.18712(19) 0.20528(9)
H11 H 0.7803 0.2254 0.1646
C5 C 0.7593(2) 0.05312(17) 0.21122(9)
C6 C 0.6342(3) 0.32281(18) 0.27139(9)
O3 O 0.44119(19) -0.13365(13) 0.50670(7)
O4 O 0.2968(2) -0.02362(14) 0.58069(7)
N4 N 0.6186(2) 0.06422(14) 0.46231(7)
N5 N 0.8418(2) -0.02901(16) 0.51805(8)
H12 H 0.7928 -0.0155 0.5555
H13 H 0.9391 -0.0661 0.5168
N6 N 0.8509(2) -0.00997(16) 0.40539(8)
H14 H 0.8077 0.0158 0.3687
H15 H 0.9481 -0.0472 0.4055
C7 C 0.5287(3) 0.1014(2) 0.40179(10)
H16 H 0.5049 0.0297 0.3740
H17 H 0.5954 0.1609 0.3766
C8 C 0.3633(3) 0.1602(2) 0.42684(11)
H18 H 0.3376 0.2358 0.4026
H19 H 0.2683 0.1029 0.4222
C9 C 0.3977(3) 0.1886(2) 0.49961(11)
H20 H 0.4549 0.2681 0.5047
H21 H 0.2924 0.1896 0.5250
C10 C 0.5125(3) 0.08195(17) 0.52093(9)
H22 H 0.5829 0.1067 0.5589
C11 C 0.4090(2) -0.03533(17) 0.53761(9)
C12 C 0.7678(3) 0.00705(16) 0.46204(9)
O5 O 0.1283(2) 0.83121(14) 0.44077(7)
H23 H 0.2250 0.8341 0.4598
H24 H 0.0776 0.7640 0.4510
O6 O 0.5664(2) 0.71596(16) 0.39743(7)
H25 H 0.6467 0.6663 0.4077
H26 H 0.5625 0.7838 0.4190
loop_
_geom_bond_atom_site_label_1
_geom_bond_atom_site_label_2
_geom_bond_site_symmetry_1
_geom_bond_site_symmetry_2
O1 C5 1_555 1_555
O2 C5 1_555 1_555
N1 C1 1_555 1_555
N2 H1 1_555 1_555
H2 N2 1_555 1_555
N3 H3 1_555 1_555
H4 N3 1_555 1_555
C1 H5 1_555 1_555
H6 C1 1_555 1_555
C2 C1 1_555 1_555
H7 C2 1_555 1_555
H8 C2 1_555 1_555
C3 C2 1_555 1_555
H9 C3 1_555 1_555
H10 C3 1_555 1_555
C4 N1 1_555 1_555
H11 C4 1_555 1_555
C5 C4 1_555 1_555
C6 N1 1_555 1_555
O3 C11 1_555 1_555
O4 C11 1_555 1_555
N4 C7 1_555 1_555
N5 H12 1_555 1_555
H13 N5 1_555 1_555
N6 H14 1_555 1_555
H15 N6 1_555 1_555
C7 H16 1_555 1_555
H17 C7 1_555 1_555
C8 C7 1_555 1_555
H18 C8 1_555 1_555
H19 C8 1_555 1_555
C9 C8 1_555 1_555
H20 C9 1_555 1_555
H21 C9 1_555 1_555
C10 N4 1_555 1_555
H22 C10 1_555 1_555
C11 C10 1_555 1_555
C12 N4 1_555 1_555
O5 H23 1_555 1_555
H24 O5 1_555 1_555
O6 H25 1_555 1_555
H26 O6 1_555 1_555
N2 C6 1_555 1_555
N3 C6 1_555 1_555
C3 C4 1_555 1_555
N5 C12 1_555 1_555
N6 C12 1_555 1_555
C9 C10 1_555 1_555

#END
