
#######################################################################
#
#                 Cambridge Crystallographic Data Centre
#                                CCDC 
#
#######################################################################
#
# If this CIF has been generated from an entry in the Cambridge 
# Structural Database, then it will include bibliographic, chemical, 
# crystal, experimental, refinement or atomic coordinate data resulting 
# from the CCDC's data processing and validation procedures.
#
#######################################################################

data_XUJBEL
_chemical_formula_moiety         'C38 H27 N3'
_chemical_name_systematic        
2-(pyridin-2-yl)-1-(4-(triphenylvinyl)phenyl)-1H-benzimidazole
_symmetry_cell_setting           orthorhombic
_symmetry_space_group_name_H-M   'P b c a'
_symmetry_Int_Tables_number      61
_space_group_name_Hall           '-P 2ac 2ab'
loop_
_symmetry_equiv_pos_site_id
_symmetry_equiv_pos_as_xyz
1 x,y,z
2 1/2-x,-y,1/2+z
3 1/2+x,1/2-y,-z
4 -x,1/2+y,1/2-z
5 -x,-y,-z
6 1/2+x,y,1/2-z
7 1/2-x,1/2+y,z
8 x,1/2-y,1/2+z
_cell_length_a                   10.5380(14)
_cell_length_b                   19.196(3)
_cell_length_c                   28.158(4)
_cell_angle_alpha                90
_cell_angle_beta                 90
_cell_angle_gamma                90
_cell_volume                     5696.01
_exptl_crystal_colour            colorless
_exptl_crystal_description       cuboid
_cell_formula_units_Z            8
loop_
_atom_site_label
_atom_site_type_symbol
_atom_site_fract_x
_atom_site_fract_y
_atom_site_fract_z
N1 N 0.69602(17) 0.43704(8) 0.53018(6)
C1 C 0.6921(2) 0.41446(10) 0.57905(7)
C2 C 0.59597(19) 0.43681(10) 0.60831(7)
H1 H 0.5313 0.4648 0.5964
C3 C 0.59629(19) 0.41734(10) 0.65558(7)
H2 H 0.5322 0.4333 0.6755
C4 C 0.78634(19) 0.35332(10) 0.64361(7)
H3 H 0.8508 0.3249 0.6551
C5 C 0.68768(18) 0.35469(11) 0.72518(7)
C6 C 0.69022(18) 0.37450(10) 0.67395(7)
C7 C 0.70063(18) 0.28877(11) 0.74047(7)
C8 C 0.70779(19) 0.27093(11) 0.79202(7)
N2 N 0.63112(19) 0.46116(10) 0.45610(6)
C9 C 0.6722(2) 0.41400(11) 0.75899(7)
N3 N 0.54670(18) 0.31327(10) 0.52596(6)
C10 C 0.5263(2) 0.36320(11) 0.49400(7)
C11 C 0.7922(2) 0.30310(11) 0.82276(8)
H4 H 0.8472 0.3371 0.8113
C12 C 0.70699(19) 0.22686(11) 0.70856(7)
C13 C 0.78806(19) 0.37356(10) 0.59672(7)
H5 H 0.8541 0.3596 0.5770
C14 C 0.6156(2) 0.42157(12) 0.49322(7)
C15 C 0.7698(2) 0.49296(11) 0.51435(8)
C16 C 0.7560(3) 0.46878(12) 0.75855(8)
H6 H 0.8202 0.4699 0.7359
C17 C 0.6192(2) 0.21387(12) 0.67338(8)
H7 H 0.5540 0.2455 0.6679
C18 C 0.5748(2) 0.41561(13) 0.79145(8)
H8 H 0.5156 0.3797 0.7918
C19 C 0.6308(2) 0.21922(14) 0.81022(8)
H9 H 0.5757 0.1956 0.7900
C20 C 0.7284(2) 0.50701(12) 0.46894(8)
C21 C 0.4289(2) 0.36010(14) 0.46089(8)
H10 H 0.4179 0.3955 0.4387
C22 C 0.8014(2) 0.17761(12) 0.71539(8)
H11 H 0.8603 0.1842 0.7395
C23 C 0.8663(2) 0.52917(12) 0.53632(9)
H12 H 0.8939 0.5182 0.5668
C24 C 0.6272(3) 0.15391(14) 0.64601(9)
H13 H 0.5662 0.1452 0.6229
C25 C 0.7955(3) 0.28517(14) 0.87007(9)
H14 H 0.8525 0.3072 0.8903
C26 C 0.4670(3) 0.25964(13) 0.52574(8)
H15 H 0.4791 0.2247 0.5482
C27 C 0.8099(3) 0.11913(13) 0.68730(10)
H16 H 0.8752 0.0874 0.6922
C28 C 0.9192(3) 0.58271(13) 0.51032(11)
H17 H 0.9847 0.6088 0.5235
C29 C 0.3685(2) 0.25260(14) 0.49467(9)
H18 H 0.3155 0.2139 0.4960
C30 C 0.7828(3) 0.56102(14) 0.44358(10)
H19 H 0.7561 0.5715 0.4129
C31 C 0.5635(3) 0.46913(17) 0.82330(9)
H20 H 0.4970 0.4692 0.8450
C32 C 0.7157(3) 0.23539(16) 0.88739(9)
H21 H 0.7171 0.2242 0.9195
C33 C 0.7464(3) 0.52234(13) 0.79117(10)
H22 H 0.8057 0.5582 0.7912
C34 C 0.8770(3) 0.59847(14) 0.46494(12)
H23 H 0.9138 0.6355 0.4486
C35 C 0.7236(3) 0.10772(13) 0.65262(10)
H24 H 0.7300 0.0685 0.6334
C36 C 0.6493(3) 0.52234(16) 0.82336(10)
H25 H 0.6418 0.5584 0.8452
C37 C 0.6340(3) 0.20200(16) 0.85765(10)
H26 H 0.5803 0.1676 0.8694
C38 C 0.3493(2) 0.30351(16) 0.46167(9)
H27 H 0.2832 0.2999 0.4400
loop_
_geom_bond_atom_site_label_1
_geom_bond_atom_site_label_2
_geom_bond_site_symmetry_1
_geom_bond_site_symmetry_2
N1 C1 1_555 1_555
C1 C2 1_555 1_555
C2 H1 1_555 1_555
C3 C2 1_555 1_555
H2 C3 1_555 1_555
C4 H3 1_555 1_555
C5 C6 1_555 1_555
C6 C3 1_555 1_555
C7 C5 1_555 1_555
C8 C7 1_555 1_555
N2 C14 1_555 1_555
C9 C5 1_555 1_555
N3 C10 1_555 1_555
C10 C14 1_555 1_555
C11 C8 1_555 1_555
H4 C11 1_555 1_555
C12 C7 1_555 1_555
C13 C1 1_555 1_555
H5 C13 1_555 1_555
C14 N1 1_555 1_555
C15 N1 1_555 1_555
C16 C9 1_555 1_555
H6 C16 1_555 1_555
C17 C12 1_555 1_555
H7 C17 1_555 1_555
C18 C9 1_555 1_555
H8 C18 1_555 1_555
C19 C8 1_555 1_555
H9 C19 1_555 1_555
C20 N2 1_555 1_555
C21 C10 1_555 1_555
H10 C21 1_555 1_555
C22 C12 1_555 1_555
H11 C22 1_555 1_555
C23 C15 1_555 1_555
H12 C23 1_555 1_555
C24 C17 1_555 1_555
H13 C24 1_555 1_555
C25 C11 1_555 1_555
H14 C25 1_555 1_555
C26 N3 1_555 1_555
H15 C26 1_555 1_555
C27 C22 1_555 1_555
H16 C27 1_555 1_555
C28 C23 1_555 1_555
H17 C28 1_555 1_555
C29 C26 1_555 1_555
H18 C29 1_555 1_555
C30 C20 1_555 1_555
H19 C30 1_555 1_555
C31 C18 1_555 1_555
H20 C31 1_555 1_555
C32 C25 1_555 1_555
H21 C32 1_555 1_555
C33 C16 1_555 1_555
H22 C33 1_555 1_555
C34 C28 1_555 1_555
H23 C34 1_555 1_555
C35 C24 1_555 1_555
H24 C35 1_555 1_555
C36 C31 1_555 1_555
H25 C36 1_555 1_555
C37 C19 1_555 1_555
H26 C37 1_555 1_555
C38 C21 1_555 1_555
H27 C38 1_555 1_555
C4 C6 1_555 1_555
C4 C13 1_555 1_555
C15 C20 1_555 1_555
C27 C35 1_555 1_555
C29 C38 1_555 1_555
C30 C34 1_555 1_555
C32 C37 1_555 1_555
C33 C36 1_555 1_555

#END
