
#######################################################################
#
#                 Cambridge Crystallographic Data Centre
#                                CCDC 
#
#######################################################################
#
# If this CIF has been generated from an entry in the Cambridge 
# Structural Database, then it will include bibliographic, chemical, 
# crystal, experimental, refinement or atomic coordinate data resulting 
# from the CCDC's data processing and validation procedures.
#
#######################################################################

data_XUJKOE
_chemical_formula_moiety         'C11 H18 O6 S1'
_chemical_name_systematic        
'((1R,2R,3R,4R,5R)-1-Ethynyl-4-hydroxy-2-methoxy-3-methyltetrahydro-2H-pyran-5-yl)methyl methanesulfonate'
_symmetry_cell_setting           orthorhombic
_symmetry_space_group_name_H-M   'P 21 21 21'
_symmetry_Int_Tables_number      19
_space_group_name_Hall           'P 2ac 2ab'
loop_
_symmetry_equiv_pos_site_id
_symmetry_equiv_pos_as_xyz
1 x,y,z
2 1/2-x,-y,1/2+z
3 -x,1/2+y,1/2-z
4 1/2+x,1/2-y,-z
_cell_length_a                   7.4731(3)
_cell_length_b                   7.7232(4)
_cell_length_c                   22.9395(7)
_cell_angle_alpha                90
_cell_angle_beta                 90
_cell_angle_gamma                90
_cell_volume                     1323.98
_exptl_crystal_colour            colorless
_exptl_crystal_description       prism
_chemical_melting_point          '101-103 deg.C'
_cell_formula_units_Z            4
_exptl_crystal_recrystallization_method chloroform
loop_
_atom_site_label
_atom_site_type_symbol
_atom_site_fract_x
_atom_site_fract_y
_atom_site_fract_z
C1 C -0.3519(3) 0.5118(3) 0.04762(9)
H1 H -0.3116 0.6064 0.0224
H2 H -0.3701 0.5556 0.0873
H3 H -0.4648 0.4650 0.0327
C2 C 0.0837(3) 0.5601(3) 0.05381(8)
H4 H 0.0156 0.6204 0.0229
H5 H 0.1905 0.5052 0.0362
C3 C 0.1379(2) 0.6855(2) 0.10149(8)
H6 H 0.1893 0.6187 0.1349
C4 C 0.3542(2) 0.9065(2) 0.11735(8)
H7 H 0.4399 0.9814 0.0953
C5 C 0.4596(3) 0.8116(3) 0.16160(8)
C6 C 0.5468(3) 0.7306(3) 0.19528(9)
H8 H 0.6165 0.6659 0.2222
C7 C 0.2079(3) 1.0264(2) 0.14207(7)
H9 H 0.1625 1.0986 0.1090
C8 C 0.3788(3) 1.2794(3) 0.16206(9)
H10 H 0.4209 1.3530 0.1940
H11 H 0.3052 1.3482 0.1354
H12 H 0.4819 1.2323 0.1409
C9 C 0.0475(3) 0.9305(3) 0.16778(8)
H13 H -0.0509 1.0171 0.1724
C10 C 0.0799(3) 0.8495(3) 0.22798(8)
H14 H -0.0292 0.7908 0.2411
H15 H 0.1115 0.9406 0.2559
H16 H 0.1779 0.7656 0.2254
C11 C -0.0176(3) 0.7946(3) 0.12352(8)
H17 H -0.1064 0.7170 0.1430
O1 O -0.2472(2) 0.20951(18) 0.08538(6)
O2 O -0.1355(2) 0.30849(18) -0.00979(6)
O3 O -0.02828(18) 0.43042(18) 0.08286(6)
O4 O 0.27573(17) 0.78940(18) 0.07606(5)
O5 O 0.27541(19) 1.14161(18) 0.18497(5)
O6 O -0.09975(18) 0.87137(18) 0.07362(6)
H18 H -0.1639 0.9751 0.0819
S1 S -0.18980(6) 0.34799(6) 0.048591(18)
loop_
_geom_bond_atom_site_label_1
_geom_bond_atom_site_label_2
_geom_bond_site_symmetry_1
_geom_bond_site_symmetry_2
C1 H1 1_555 1_555
H2 C1 1_555 1_555
H3 C1 1_555 1_555
C2 H4 1_555 1_555
H5 C2 1_555 1_555
C3 C2 1_555 1_555
H6 C3 1_555 1_555
C4 H7 1_555 1_555
C5 C4 1_555 1_555
C6 C5 1_555 1_555
H8 C6 1_555 1_555
C7 C4 1_555 1_555
H9 C7 1_555 1_555
C8 H10 1_555 1_555
H11 C8 1_555 1_555
H12 C8 1_555 1_555
C9 C7 1_555 1_555
H13 C9 1_555 1_555
C10 C9 1_555 1_555
H14 C10 1_555 1_555
H15 C10 1_555 1_555
H16 C10 1_555 1_555
C11 C3 1_555 1_555
H17 C11 1_555 1_555
O1 S1 1_555 1_555
O2 S1 1_555 1_555
O3 C2 1_555 1_555
O4 C3 1_555 1_555
O5 C7 1_555 1_555
O6 C11 1_555 1_555
H18 O6 1_555 1_555
S1 C1 1_555 1_555
C4 O4 1_555 1_555
C8 O5 1_555 1_555
C9 C11 1_555 1_555
O3 S1 1_555 1_555

#END
