
#######################################################################
#
#                 Cambridge Crystallographic Data Centre
#                                CCDC 
#
#######################################################################
#
# If this CIF has been generated from an entry in the Cambridge 
# Structural Database, then it will include bibliographic, chemical, 
# crystal, experimental, refinement or atomic coordinate data resulting 
# from the CCDC's data processing and validation procedures.
#
#######################################################################

data_XUJVEF
_chemical_name_common            'Spirolingzhine A'
_chemical_formula_moiety         'C16 H18 O6'
_chemical_name_systematic        
"5-hydroxy-5'-(1-hydroxypropan-2-yl)-3-oxo-3H-spiro[1-benzofuran-2,1'-cyclopentane]-2'-carboxylic acid"
_symmetry_cell_setting           orthorhombic
_symmetry_space_group_name_H-M   'P 21 21 21'
_symmetry_Int_Tables_number      19
_space_group_name_Hall           'P 2ac 2ab'
loop_
_symmetry_equiv_pos_site_id
_symmetry_equiv_pos_as_xyz
1 x,y,z
2 1/2+x,1/2-y,-z
3 -x,1/2+y,1/2-z
4 1/2-x,-y,1/2+z
_cell_length_a                   6.0152(5)
_cell_length_b                   12.8178(9)
_cell_length_c                   18.0567(13)
_cell_angle_alpha                90
_cell_angle_beta                 90
_cell_angle_gamma                90
_cell_volume                     1392.2
_exptl_crystal_colour            yellow
_exptl_crystal_description       prism
_cell_formula_units_Z            4
loop_
_atom_site_label
_atom_site_type_symbol
_atom_site_fract_x
_atom_site_fract_y
_atom_site_fract_z
O1 O 0.8143(3) 0.38957(14) -0.14247(9)
H1 H 0.8864 0.4450 -0.1488
O2 O 0.5691(3) 0.41083(13) 0.32750(9)
H2 H 0.6660 0.3702 0.3446
O3 O 0.1811(3) 0.43843(12) 0.07464(8)
O4 O 0.0989(3) 0.79113(12) 0.09931(9)
O5 O 0.0854(3) 0.67742(12) 0.00545(8)
H3 H 0.0920 0.7321 -0.0201
O6 O 0.5574(3) 0.64993(11) 0.08881(8)
C1 C 0.6600(4) 0.40427(17) -0.08804(12)
C2 C 0.6697(4) 0.48681(17) -0.03831(11)
H4 H 0.7875 0.5361 -0.0398
C3 C 0.4993(4) 0.49448(16) 0.01409(12)
C4 C 0.4613(3) 0.56834(16) 0.07336(11)
C5 C 0.2628(4) 0.52659(17) 0.11735(11)
C6 C 0.3294(4) 0.49460(16) 0.19861(12)
H5 H 0.4647 0.5355 0.2124
C7 C 0.3842(4) 0.37824(17) 0.20945(11)
H6 H 0.2595 0.3368 0.1876
C8 C 0.3974(4) 0.35128(18) 0.29211(12)
H7 H 0.2528 0.3664 0.3160
H8 H 0.4286 0.2759 0.2980
C9 C 0.4838(4) 0.33182(17) -0.08381(12)
H9 H 0.4803 0.2758 -0.1182
C10 C 0.3164(4) 0.33897(17) -0.03178(12)
H10 H 0.1987 0.2896 -0.0298
C11 C 0.3287(4) 0.42242(17) 0.01781(12)
C12 C 0.5989(5) 0.34388(18) 0.17138(12)
H11 H 0.7254 0.3801 0.1939
H12 H 0.5913 0.3612 0.1186
H13 H 0.6176 0.2684 0.1772
C13 C 0.1364(4) 0.53426(19) 0.24637(12)
H14 H 0.0133 0.4830 0.2473
H15 H 0.1861 0.5475 0.2978
C14 C 0.0637(4) 0.63461(18) 0.20928(12)
H16 H 0.1670 0.6924 0.2210
H17 H -0.0884 0.6545 0.2248
C15 C 0.0708(4) 0.60755(17) 0.12658(11)
H18 H -0.0715 0.5711 0.1142
C16 C 0.0875(4) 0.70215(17) 0.07697(12)
loop_
_geom_bond_atom_site_label_1
_geom_bond_atom_site_label_2
_geom_bond_site_symmetry_1
_geom_bond_site_symmetry_2
O1 H1 1_555 1_555
O2 H2 1_555 1_555
O3 C5 1_555 1_555
O4 C16 1_555 1_555
O5 H3 1_555 1_555
O6 C4 1_555 1_555
C1 O1 1_555 1_555
C2 C1 1_555 1_555
H4 C2 1_555 1_555
C3 C2 1_555 1_555
C4 C3 1_555 1_555
C5 C4 1_555 1_555
C6 C5 1_555 1_555
H5 C6 1_555 1_555
C7 C6 1_555 1_555
H6 C7 1_555 1_555
C8 O2 1_555 1_555
H7 C8 1_555 1_555
H8 C8 1_555 1_555
C9 C1 1_555 1_555
H9 C9 1_555 1_555
C10 C9 1_555 1_555
H10 C10 1_555 1_555
C11 O3 1_555 1_555
C12 C7 1_555 1_555
H11 C12 1_555 1_555
H12 C12 1_555 1_555
H13 C12 1_555 1_555
C13 C6 1_555 1_555
H14 C13 1_555 1_555
H15 C13 1_555 1_555
C14 C13 1_555 1_555
H16 C14 1_555 1_555
H17 C14 1_555 1_555
C15 C5 1_555 1_555
H18 C15 1_555 1_555
C16 O5 1_555 1_555
C3 C11 1_555 1_555
C7 C8 1_555 1_555
C10 C11 1_555 1_555
C14 C15 1_555 1_555
C15 C16 1_555 1_555

#END
