
#######################################################################
#
#                 Cambridge Crystallographic Data Centre
#                                CCDC 
#
#######################################################################
#
# If this CIF has been generated from an entry in the Cambridge 
# Structural Database, then it will include bibliographic, chemical, 
# crystal, experimental, refinement or atomic coordinate data resulting 
# from the CCDC's data processing and validation procedures.
#
#######################################################################

data_XUJWOQ
_chemical_formula_moiety         'C15 H12 F1 N1 O2'
_chemical_name_systematic        N-(4-fluorophenyl)-3-oxo-3-phenylpropanamide
_symmetry_cell_setting           monoclinic
_symmetry_space_group_name_H-M   'P 21/n'
_symmetry_Int_Tables_number      14
_space_group_name_Hall           '-P 2yn'
loop_
_symmetry_equiv_pos_site_id
_symmetry_equiv_pos_as_xyz
1 x,y,z
2 1/2-x,1/2+y,1/2-z
3 -x,-y,-z
4 1/2+x,1/2-y,1/2+z
_cell_length_a                   5.4922(2)
_cell_length_b                   29.6563(11)
_cell_length_c                   7.5560(3)
_cell_angle_alpha                90
_cell_angle_beta                 90.762(2)
_cell_angle_gamma                90
_cell_volume                     1230.6
_exptl_crystal_colour            colorless
_exptl_crystal_description       prism
_cell_formula_units_Z            4
loop_
_atom_site_label
_atom_site_type_symbol
_atom_site_fract_x
_atom_site_fract_y
_atom_site_fract_z
C1 C 0.4949(3) 0.07877(6) 0.2155(2)
C2 C 0.3203(3) 0.10331(6) 0.3013(2)
H1 H 0.1841 0.0889 0.3529
C3 C 0.3486(3) 0.14967(5) 0.3104(2)
H2 H 0.2284 0.1674 0.3670
C4 C 0.5504(3) 0.17057(5) 0.2376(2)
C5 C 0.7209(3) 0.14468(6) 0.1483(2)
H3 H 0.8572 0.1588 0.0953
C6 C 0.6915(3) 0.09825(6) 0.1366(2)
H4 H 0.8060 0.0803 0.0749
C7 C 0.7144(3) 0.24642(5) 0.1764(2)
C8 C 0.7225(3) 0.29375(5) 0.2518(2)
H5 H 0.8739 0.3089 0.2139
H6 H 0.7251 0.2922 0.3826
C9 C 0.5040(3) 0.32133(6) 0.1904(2)
C10 C 0.5120(3) 0.37145(6) 0.2120(2)
C11 C 0.3246(3) 0.39684(6) 0.1355(2)
H7 H 0.1935 0.3821 0.0760
C12 C 0.3286(3) 0.44339(6) 0.1458(3)
H8 H 0.2007 0.4606 0.0933
C13 C 0.5191(4) 0.46494(6) 0.2324(3)
H9 H 0.5223 0.4969 0.2387
C14 C 0.7044(3) 0.44008(6) 0.3096(3)
H10 H 0.8342 0.4550 0.3697
C15 C 0.7023(3) 0.39341(6) 0.3001(2)
H11 H 0.8303 0.3764 0.3535
N1 N 0.5791(3) 0.21719(4) 0.26820(19)
H12 H 0.4989 0.2284 0.3581
O1 O 0.8222(3) 0.23660(4) 0.04137(18)
O2 O 0.3281(2) 0.30320(4) 0.12234(19)
F1 F 0.4700(2) 0.03310(3) 0.20786(16)
loop_
_geom_bond_atom_site_label_1
_geom_bond_atom_site_label_2
_geom_bond_site_symmetry_1
_geom_bond_site_symmetry_2
C1 C2 1_555 1_555
C2 H1 1_555 1_555
C3 C2 1_555 1_555
H2 C3 1_555 1_555
C4 C3 1_555 1_555
C5 C4 1_555 1_555
H3 C5 1_555 1_555
C6 C1 1_555 1_555
H4 C6 1_555 1_555
C7 C8 1_555 1_555
C8 H5 1_555 1_555
H6 C8 1_555 1_555
C9 C8 1_555 1_555
C10 C9 1_555 1_555
C11 C10 1_555 1_555
H7 C11 1_555 1_555
C12 C11 1_555 1_555
H8 C12 1_555 1_555
C13 C12 1_555 1_555
H9 C13 1_555 1_555
C14 C13 1_555 1_555
H10 C14 1_555 1_555
C15 C10 1_555 1_555
H11 C15 1_555 1_555
N1 C4 1_555 1_555
H12 N1 1_555 1_555
O1 C7 1_555 1_555
O2 C9 1_555 1_555
F1 C1 1_555 1_555
C5 C6 1_555 1_555
C7 N1 1_555 1_555
C14 C15 1_555 1_555

#END
