
#######################################################################
#
#                 Cambridge Crystallographic Data Centre
#                                CCDC 
#
#######################################################################
#
# If this CIF has been generated from an entry in the Cambridge 
# Structural Database, then it will include bibliographic, chemical, 
# crystal, experimental, refinement or atomic coordinate data resulting 
# from the CCDC's data processing and validation procedures.
#
#######################################################################

data_XUJXAD
_chemical_formula_moiety         'C11 H10 F3 N1 O2'
_chemical_name_systematic        3-oxo-N-(4-(trifluoromethyl)phenyl)butanamide
_symmetry_cell_setting           orthorhombic
_symmetry_space_group_name_H-M   'P b c a'
_symmetry_Int_Tables_number      61
_space_group_name_Hall           '-P 2ac 2ab'
loop_
_symmetry_equiv_pos_site_id
_symmetry_equiv_pos_as_xyz
1 x,y,z
2 1/2-x,-y,1/2+z
3 -x,1/2+y,1/2-z
4 1/2+x,1/2-y,-z
5 -x,-y,-z
6 1/2+x,y,1/2-z
7 x,1/2-y,1/2+z
8 1/2-x,1/2+y,z
_cell_length_a                   9.6390(4)
_cell_length_b                   8.3539(4)
_cell_length_c                   26.6433(13)
_cell_angle_alpha                90
_cell_angle_beta                 90
_cell_angle_gamma                90
_cell_volume                     2145.4
_exptl_crystal_colour            yellow
_exptl_crystal_description       parallelepiped
_cell_formula_units_Z            8
loop_
_atom_site_label
_atom_site_type_symbol
_atom_site_fract_x
_atom_site_fract_y
_atom_site_fract_z
F1 F 0.10654(18) 0.39172(17) 0.98608(5)
F2 F 0.10388(17) 0.15614(17) 1.01487(4)
F3 F 0.29584(13) 0.2703(2) 0.99971(5)
O1 O 0.13224(14) 0.19215(15) 0.67347(5)
O2 O -0.07205(12) 0.02187(16) 0.76244(5)
N1 N 0.15781(14) 0.01778(17) 0.78174(5)
H1 H 0.239(2) 0.009(3) 0.7689(8)
C1 C 0.1564(2) -0.0069(3) 0.61013(7)
H2 H 0.1978 0.0797 0.5903
H3 H 0.0697 -0.0416 0.5943
H4 H 0.2210 -0.0973 0.6118
C2 C 0.12667(16) 0.0522(2) 0.66229(6)
C3 C 0.08700(18) -0.0753(2) 0.70013(6)
H5 H 0.0074 -0.1371 0.6869
H6 H 0.1658 -0.1501 0.7043
C4 C 0.04845(17) -0.00754(18) 0.75092(6)
C5 C 0.15387(16) 0.07757(18) 0.83128(6)
C6 C 0.04039(16) 0.0553(2) 0.86296(6)
H7 H -0.0404 0.0023 0.8511
C7 C 0.04661(16) 0.1114(2) 0.91197(6)
H8 H -0.0310 0.0980 0.9336
C8 C 0.16528(17) 0.1867(2) 0.92970(6)
C9 C 0.27859(17) 0.2080(2) 0.89820(6)
H9 H 0.3600 0.2591 0.9103
C10 C 0.27243(16) 0.1546(2) 0.84912(6)
H10 H 0.3494 0.1704 0.8274
C11 C 0.16846(19) 0.2500(2) 0.98214(7)
loop_
_geom_bond_atom_site_label_1
_geom_bond_atom_site_label_2
_geom_bond_site_symmetry_1
_geom_bond_site_symmetry_2
F1 C11 1_555 1_555
F2 C11 1_555 1_555
F3 C11 1_555 1_555
O1 C2 1_555 1_555
O2 C4 1_555 1_555
N1 H1 1_555 1_555
C1 H2 1_555 1_555
H3 C1 1_555 1_555
H4 C1 1_555 1_555
C2 C1 1_555 1_555
C3 C2 1_555 1_555
H5 C3 1_555 1_555
H6 C3 1_555 1_555
C4 N1 1_555 1_555
C5 N1 1_555 1_555
C6 C5 1_555 1_555
H7 C6 1_555 1_555
C7 C6 1_555 1_555
H8 C7 1_555 1_555
C8 C7 1_555 1_555
C9 C8 1_555 1_555
H9 C9 1_555 1_555
C10 C5 1_555 1_555
H10 C10 1_555 1_555
C11 C8 1_555 1_555
C3 C4 1_555 1_555
C9 C10 1_555 1_555

#END
