
#######################################################################
#
#                 Cambridge Crystallographic Data Centre
#                                CCDC 
#
#######################################################################
#
# If this CIF has been generated from an entry in the Cambridge 
# Structural Database, then it will include bibliographic, chemical, 
# crystal, experimental, refinement or atomic coordinate data resulting 
# from the CCDC's data processing and validation procedures.
#
#######################################################################

data_XUJZEI
_chemical_formula_moiety         'C17 H14 N4,3.5(H2 O1)'
_chemical_name_systematic        
'7-(1H-Benzimidazol-1-yl)-2,4-dimethyl-1,8-naphthyridine hydrate'
_symmetry_cell_setting           monoclinic
_symmetry_space_group_name_H-M   'C 2/c'
_symmetry_Int_Tables_number      15
_space_group_name_Hall           '-C 2yn'
loop_
_symmetry_equiv_pos_site_id
_symmetry_equiv_pos_as_xyz
1 x,y,z
2 -x,y,1/2-z
3 1/2+x,1/2+y,z
4 1/2-x,1/2+y,1/2-z
5 -x,-y,-z
6 x,-y,1/2+z
7 1/2-x,1/2-y,-z
8 1/2+x,1/2-y,1/2+z
_cell_length_a                   24.926(8)
_cell_length_b                   10.608(3)
_cell_length_c                   16.751(5)
_cell_angle_alpha                90
_cell_angle_beta                 110.133(4)
_cell_angle_gamma                90
_cell_volume                     4158.57
_exptl_crystal_colour            colorless
_exptl_crystal_description       block
_cell_formula_units_Z            8
_exptl_crystal_recrystallization_method '95% ethanol'
loop_
_atom_site_label
_atom_site_type_symbol
_atom_site_fract_x
_atom_site_fract_y
_atom_site_fract_z
N1 N 0.74811(14) 0.6028(3) 0.04774(18)
N2 N 0.80120(14) 0.4581(4) 0.0071(2)
N3 N 0.70005(16) 0.7559(3) 0.0951(2)
N4 N 0.66466(19) 0.9088(4) 0.1542(2)
C1 C 0.74862(17) 0.5027(4) -0.0033(2)
C2 C 0.80555(19) 0.3626(4) -0.0415(3)
C3 C 0.7561(2) 0.3026(5) -0.1001(3)
H11 H 0.7607 0.2328 -0.1308
C4 C 0.70285(18) 0.3461(4) -0.1116(2)
C5 C 0.69803(17) 0.4506(4) -0.0622(2)
C6 C 0.6462(2) 0.5074(4) -0.0672(3)
H12 H 0.6120 0.4754 -0.1043
C7 C 0.64566(19) 0.6107(4) -0.0173(3)
H13 H 0.6116 0.6507 -0.0213
C8 C 0.69831(17) 0.6532(4) 0.0396(2)
C9 C 0.6521(2) 0.8217(4) 0.0959(3)
H14 H 0.6152 0.8054 0.0590
C10 C 0.7243(2) 0.9018(4) 0.1944(3)
C11 C 0.7590(3) 0.9713(5) 0.2617(3)
H15 H 0.7439 1.0342 0.2864
C12 C 0.8150(3) 0.9462(5) 0.2907(3)
H16 H 0.8388 0.9925 0.3363
C13 C 0.8388(2) 0.8531(5) 0.2549(3)
H17 H 0.8782 0.8405 0.2751
C14 C 0.8036(2) 0.7781(4) 0.1884(3)
H18 H 0.8185 0.7129 0.1653
C15 C 0.74601(18) 0.8054(4) 0.1587(2)
C16 C 0.8637(2) 0.3155(5) -0.0327(3)
H19 H 0.8920 0.3643 0.0095
H20 H 0.8695 0.3233 -0.0863
H21 H 0.8671 0.2285 -0.0158
C17 C 0.6508(2) 0.2860(5) -0.1760(3)
H22 H 0.6170 0.3281 -0.1748
H23 H 0.6491 0.1986 -0.1621
H24 H 0.6533 0.2932 -0.2317
O1 O 0.5811(2) 0.0509(6) 0.2015(3)
H1 H 0.6109 0.0227 0.1939
H2 H 0.5534 0.0254 0.1587
O2 O 0.90142(17) 0.5731(5) 0.1267(3)
H3 H 0.8679 0.5597 0.0921
H4 H 0.9234 0.5568 0.0990
O3 O 0.4878(4) 0.1346(11) 0.0548(5)
H5 H 0.4866 0.2033 0.0802
H6 H 0.4530 0.1149 0.0290
O4 O 0.4927(6) 0.3585(11) 0.8957(12)
H7 H 0.4865 0.3659 0.9423
H8 H 0.4631 0.3888 0.8581
O5 O 0.5018(6) 0.7767(12) 0.1939(9)
H9 H 0.5218 0.7769 0.1618
H10 H 0.4682 0.7957 0.1615
loop_
_geom_bond_atom_site_label_1
_geom_bond_atom_site_label_2
_geom_bond_site_symmetry_1
_geom_bond_site_symmetry_2
N1 C1 1_555 1_555
N2 C1 1_555 1_555
N3 C8 1_555 1_555
N4 C9 1_555 1_555
O1 H1 1_555 1_555
H2 O1 1_555 1_555
O2 H3 1_555 1_555
H4 O2 1_555 1_555
O3 H5 1_555 1_555
H6 O3 1_555 1_555
O4 H7 1_555 1_555
H8 O4 1_555 1_555
O5 H9 1_555 1_555
H10 O5 1_555 1_555
C1 C5 1_555 1_555
C2 N2 1_555 1_555
C3 C2 1_555 1_555
H11 C3 1_555 1_555
C4 C3 1_555 1_555
C5 C4 1_555 1_555
C6 C5 1_555 1_555
H12 C6 1_555 1_555
C7 C6 1_555 1_555
H13 C7 1_555 1_555
C8 N1 1_555 1_555
C9 N3 1_555 1_555
H14 C9 1_555 1_555
C10 N4 1_555 1_555
C11 C10 1_555 1_555
H15 C11 1_555 1_555
C12 C11 1_555 1_555
H16 C12 1_555 1_555
C13 C12 1_555 1_555
H17 C13 1_555 1_555
C14 C13 1_555 1_555
H18 C14 1_555 1_555
C15 N3 1_555 1_555
C16 C2 1_555 1_555
H19 C16 1_555 1_555
H20 C16 1_555 1_555
H21 C16 1_555 1_555
C17 C4 1_555 1_555
H22 C17 1_555 1_555
H23 C17 1_555 1_555
H24 C17 1_555 1_555
C7 C8 1_555 1_555
C10 C15 1_555 1_555
C14 C15 1_555 1_555

#END
