
#######################################################################
#
#                 Cambridge Crystallographic Data Centre
#                                CCDC 
#
#######################################################################
#
# If this CIF has been generated from an entry in the Cambridge 
# Structural Database, then it will include bibliographic, chemical, 
# crystal, experimental, refinement or atomic coordinate data resulting 
# from the CCDC's data processing and validation procedures.
#
#######################################################################

data_XUKDEN01
_chemical_name_common            D-(-)-4-Hydroxyphenylglycine
_chemical_formula_moiety         'C8 H9 N1 O3'
_chemical_name_systematic        D-(-)-Amino(4-hydroxyphenyl)acetate
_symmetry_cell_setting           orthorhombic
_symmetry_space_group_name_H-M   'P 21 21 21'
_symmetry_Int_Tables_number      19
_space_group_name_Hall           'P 2ac 2ab'
loop_
_symmetry_equiv_pos_site_id
_symmetry_equiv_pos_as_xyz
1 x,y,z
2 1/2-x,-y,1/2+z
3 1/2+x,1/2-y,-z
4 -x,1/2+y,1/2-z
_cell_length_a                   5.83624(17)
_cell_length_b                   8.4245(3)
_cell_length_c                   17.0381(5)
_cell_angle_alpha                90
_cell_angle_beta                 90
_cell_angle_gamma                90
_cell_volume                     837.719
_exptl_crystal_colour            colorless
_exptl_crystal_description       block
_cell_formula_units_Z            4
loop_
_atom_site_label
_atom_site_type_symbol
_atom_site_fract_x
_atom_site_fract_y
_atom_site_fract_z
C1 C 0.8218(4) 0.6736(2) 0.67248(12)
H1 H 0.8643 0.7484 0.6351
C2 C 0.7995(4) 0.7195(3) 0.75027(12)
H2 H 0.8267 0.8242 0.7648
C3 C 0.7367(4) 0.6088(3) 0.80590(11)
C4 C 0.6892(5) 0.4543(3) 0.78378(12)
H3 H 0.6415 0.3806 0.8210
C5 C 0.7130(4) 0.4097(2) 0.70566(12)
H4 H 0.6822 0.3055 0.6911
C6 C 0.7817(3) 0.5177(2) 0.64934(10)
C7 C 0.8146(3) 0.4675(2) 0.56526(10)
H5 H 0.7981 0.3519 0.5622
C8 C 1.0554(3) 0.5127(2) 0.53564(11)
N1 N 0.6394(3) 0.5416(2) 0.51327(9)
H6 H 0.6596 0.5079 0.4642
H7 H 0.6540 0.6467 0.5148
H8 H 0.5000 0.5145 0.5296
O1 O 0.7186(4) 0.6457(2) 0.88365(8)
H9 H 0.7565 0.7384 0.8905
O2 O 1.0735(3) 0.62801(19) 0.49116(10)
O3 O 1.2178(3) 0.4283(2) 0.56048(10)
loop_
_geom_bond_atom_site_label_1
_geom_bond_atom_site_label_2
_geom_bond_site_symmetry_1
_geom_bond_site_symmetry_2
C1 H1 1_555 1_555
C2 C1 1_555 1_555
H2 C2 1_555 1_555
C3 C2 1_555 1_555
C4 C3 1_555 1_555
H3 C4 1_555 1_555
C5 C4 1_555 1_555
H4 C5 1_555 1_555
C6 C1 1_555 1_555
C7 C6 1_555 1_555
H5 C7 1_555 1_555
C8 C7 1_555 1_555
N1 C7 1_555 1_555
H6 N1 1_555 1_555
H7 N1 1_555 1_555
H8 N1 1_555 1_555
O1 C3 1_555 1_555
H9 O1 1_555 1_555
O2 C8 1_555 1_555
O3 C8 1_555 1_555
C5 C6 1_555 1_555

#END
