
#######################################################################
#
#                 Cambridge Crystallographic Data Centre
#                                CCDC 
#
#######################################################################
#
# If this CIF has been generated from an entry in the Cambridge 
# Structural Database, then it will include bibliographic, chemical, 
# crystal, experimental, refinement or atomic coordinate data resulting 
# from the CCDC's data processing and validation procedures.
#
#######################################################################

data_XUKFIS
_chemical_name_common            'Teaching Subset: Fundamental Chemistry'
_chemical_formula_moiety         'C10 H12 Br1 Cl1 F1 I1'
_chemical_name_systematic        
(R,S)-1-bromo-3-chloro-5-fluoro-7-iodoadamantane
_symmetry_cell_setting           monoclinic
_symmetry_space_group_name_H-M   'P 21/c'
_symmetry_Int_Tables_number      14
_space_group_name_Hall           '-P 2ybc'
loop_
_symmetry_equiv_pos_site_id
_symmetry_equiv_pos_as_xyz
1 x,y,z
2 -x,1/2+y,1/2-z
3 -x,-y,-z
4 x,1/2-y,1/2+z
_cell_length_a                   12.4234(6)
_cell_length_b                   12.3944(6)
_cell_length_c                   7.8787(3)
_cell_angle_alpha                90
_cell_angle_beta                 90.0120(10)
_cell_angle_gamma                90
_cell_volume                     1213.17
_exptl_crystal_colour            colorless
_exptl_crystal_description       Cubic
_cell_formula_units_Z            4
loop_
_atom_site_label
_atom_site_type_symbol
_atom_site_fract_x
_atom_site_fract_y
_atom_site_fract_z
I1 I 0.55375(8) 0.18094(9) 0.05412(14)
Br1 Br 0.96661(10) 0.19454(12) 0.40003(19)
Cl1 Cl 0.6568(2) -0.1158(2) 0.5834(3)
F1 F 0.8564(7) -0.1297(8) 0.0074(12)
C1 C 0.6767(8) 0.0854(10) 0.1671(14)
C2 C 0.8501(8) 0.0943(9) 0.3171(14)
C3 C 0.7158(9) -0.0438(9) 0.3982(14)
C4 C 0.8104(10) -0.0576(10) 0.1268(18)
C5 C 0.7247(10) 0.0058(11) 0.0376(15)
H1 H 0.6691 -0.0421 -0.0048
H2 H 0.7553 0.0448 -0.0577
C6 C 0.7615(10) -0.1223(9) 0.2712(18)
H3 H 0.7050 -0.1690 0.2284
H4 H 0.8161 -0.1669 0.3244
C7 C 0.8994(9) 0.0166(11) 0.1889(16)
H5 H 0.9299 0.0563 0.0944
H6 H 0.9562 -0.0253 0.2419
C8 C 0.8002(9) 0.0285(10) 0.4692(14)
H7 H 0.8556 -0.0137 0.5250
H8 H 0.7690 0.0773 0.5518
C9 C 0.7632(8) 0.1627(9) 0.2275(14)
H9 H 0.7330 0.2150 0.3057
H10 H 0.7942 0.2011 0.1319
C10 C 0.6264(8) 0.0236(9) 0.3125(14)
H11 H 0.5700 -0.0234 0.2704
H12 H 0.5951 0.0733 0.3937
loop_
_geom_bond_atom_site_label_1
_geom_bond_atom_site_label_2
_geom_bond_site_symmetry_1
_geom_bond_site_symmetry_2
I1 C1 1_555 1_555
Br1 C2 1_555 1_555
Cl1 C3 1_555 1_555
F1 C4 1_555 1_555
C1 C5 1_555 1_555
C2 C7 1_555 1_555
C3 C6 1_555 1_555
C4 C5 1_555 1_555
C5 H1 1_555 1_555
H2 C5 1_555 1_555
C6 C4 1_555 1_555
H3 C6 1_555 1_555
H4 C6 1_555 1_555
C7 C4 1_555 1_555
H5 C7 1_555 1_555
H6 C7 1_555 1_555
C8 C2 1_555 1_555
H7 C8 1_555 1_555
H8 C8 1_555 1_555
C9 C1 1_555 1_555
H9 C9 1_555 1_555
H10 C9 1_555 1_555
C10 C1 1_555 1_555
H11 C10 1_555 1_555
H12 C10 1_555 1_555
C2 C9 1_555 1_555
C3 C8 1_555 1_555
C3 C10 1_555 1_555

#END
