
#######################################################################
#
#                 Cambridge Crystallographic Data Centre
#                                CCDC 
#
#######################################################################
#
# If this CIF has been generated from an entry in the Cambridge 
# Structural Database, then it will include bibliographic, chemical, 
# crystal, experimental, refinement or atomic coordinate data resulting 
# from the CCDC's data processing and validation procedures.
#
#######################################################################

data_XUKLOG
_chemical_formula_moiety         'C18 H22 N6 O3 S1'
_chemical_name_systematic        
5-((3,5-Dimethyl-1H-pyrazol-1-yl)methyl)-4-((3,4,5-trimethoxybenzylidene)amino)-2,4-dihydro-3H-1,2,4-triazole-3-thione
_symmetry_cell_setting           triclinic
_symmetry_space_group_name_H-M   'P -1'
_symmetry_Int_Tables_number      2
_space_group_name_Hall           '-P 1'
loop_
_symmetry_equiv_pos_site_id
_symmetry_equiv_pos_as_xyz
1 x,y,z
2 -x,-y,-z
_cell_length_a                   7.8772(17)
_cell_length_b                   8.2986(18)
_cell_length_c                   15.392(3)
_cell_angle_alpha                93.360(4)
_cell_angle_beta                 94.609(4)
_cell_angle_gamma                93.584(4)
_cell_volume                     998.906
_cell_formula_units_Z            2
loop_
_atom_site_label
_atom_site_type_symbol
_atom_site_fract_x
_atom_site_fract_y
_atom_site_fract_z
S1 S 0.27744(14) 0.14494(12) -0.02117(6)
N1 N 0.2336(3) 0.7374(3) 0.18342(15)
N2 N 0.0805(3) 0.6806(3) 0.20756(16)
N3 N 0.1668(3) 0.4306(3) -0.07166(15)
N4 N 0.1520(3) 0.5882(3) -0.04112(16)
N5 N 0.2965(3) 0.4551(3) 0.05617(15)
N6 N 0.3666(4) 0.4283(3) 0.14013(16)
O1 O 0.9713(3) 0.1325(3) 0.31365(15)
O2 O 0.8162(3) 0.1829(3) 0.46101(14)
O3 O 0.5037(3) 0.2894(3) 0.45876(13)
C1 C -0.0413(5) 0.6169(5) 0.3445(2)
H1 H -0.1334 0.5688 0.3049
H2 H -0.0798 0.7077 0.3772
H3 H -0.0033 0.5385 0.3838
C2 C 0.1032(4) 0.6727(4) 0.2938(2)
C3 C 0.2693(5) 0.7251(4) 0.3238(2)
H4 H 0.3152 0.7327 0.3816
C4 C 0.3527(4) 0.7635(4) 0.2526(2)
C5 C 0.5307(5) 0.8218(6) 0.2441(3)
H5 H 0.5842 0.7443 0.2085
H6 H 0.5916 0.8358 0.3009
H7 H 0.5324 0.9235 0.2173
C6 C 0.2569(5) 0.7552(4) 0.0920(2)
H8 H 0.3712 0.8027 0.0871
H9 H 0.1768 0.8297 0.0694
C7 C 0.2324(4) 0.5996(4) 0.03681(18)
C8 C 0.2492(4) 0.3423(4) -0.01270(19)
C9 C 0.4942(4) 0.3405(4) 0.1425(2)
H10 H 0.5363 0.3037 0.0907
C10 C 0.5743(4) 0.2976(4) 0.22602(19)
C11 C 0.4934(4) 0.3202(4) 0.30287(19)
H11 H 0.3874 0.3640 0.3016
C12 C 0.5715(4) 0.2774(4) 0.38044(19)
C13 C 0.7340(4) 0.2160(4) 0.38254(19)
C14 C 0.8138(4) 0.1929(4) 0.3054(2)
C15 C 0.7342(4) 0.2327(4) 0.2271(2)
H12 H 0.7864 0.2165 0.1755
C16 C 1.0549(5) 0.1081(5) 0.2358(3)
H13 H 0.9845 0.0357 0.1950
H14 H 1.1621 0.0623 0.2493
H15 H 1.0747 0.2100 0.2105
C17 C 0.7776(5) 0.0215(5) 0.4843(2)
H16 H 0.6574 0.0054 0.4902
H17 H 0.8400 0.0043 0.5388
H18 H 0.8094 -0.0536 0.4396
C18 C 0.3387(5) 0.3521(5) 0.4598(2)
H19 H 0.3436 0.4599 0.4402
H20 H 0.3039 0.3544 0.5182
H21 H 0.2579 0.2843 0.4218
loop_
_geom_bond_atom_site_label_1
_geom_bond_atom_site_label_2
_geom_bond_site_symmetry_1
_geom_bond_site_symmetry_2
S1 C8 1_555 1_555
N1 N2 1_555 1_555
N2 C2 1_555 1_555
N3 N4 1_555 1_555
N4 C7 1_555 1_555
N5 N6 1_555 1_555
N6 C9 1_555 1_555
O1 C14 1_555 1_555
O2 C13 1_555 1_555
O3 C12 1_555 1_555
C1 H1 1_555 1_555
H2 C1 1_555 1_555
H3 C1 1_555 1_555
C2 C1 1_555 1_555
C3 C2 1_555 1_555
H4 C3 1_555 1_555
C4 N1 1_555 1_555
C5 C4 1_555 1_555
H5 C5 1_555 1_555
H6 C5 1_555 1_555
H7 C5 1_555 1_555
C6 N1 1_555 1_555
H8 C6 1_555 1_555
H9 C6 1_555 1_555
C7 N5 1_555 1_555
C8 N3 1_555 1_555
C9 H10 1_555 1_555
C10 C9 1_555 1_555
C11 C10 1_555 1_555
H11 C11 1_555 1_555
C12 C11 1_555 1_555
C13 C12 1_555 1_555
C14 C13 1_555 1_555
C15 C10 1_555 1_555
H12 C15 1_555 1_555
C16 O1 1_555 1_555
H13 C16 1_555 1_555
H14 C16 1_555 1_555
H15 C16 1_555 1_555
C17 O2 1_555 1_555
H16 C17 1_555 1_555
H17 C17 1_555 1_555
H18 C17 1_555 1_555
C18 O3 1_555 1_555
H19 C18 1_555 1_555
H20 C18 1_555 1_555
H21 C18 1_555 1_555
N5 C8 1_555 1_555
C3 C4 1_555 1_555
C6 C7 1_555 1_555
C14 C15 1_555 1_555

#END
