
#######################################################################
#
#                 Cambridge Crystallographic Data Centre
#                                CCDC 
#
#######################################################################
#
# If this CIF has been generated from an entry in the Cambridge 
# Structural Database, then it will include bibliographic, chemical, 
# crystal, experimental, refinement or atomic coordinate data resulting 
# from the CCDC's data processing and validation procedures.
#
#######################################################################

data_XUKPUP
_chemical_formula_moiety         'C15 H20 Cl1 N1 O3 S1'
_chemical_name_systematic        
3-(1-Chloroethylidene)-4-ethoxy-1-(toluene-4-sulfonyl)pyrrolidine
_symmetry_cell_setting           monoclinic
_symmetry_space_group_name_H-M   'P 21/c'
_symmetry_Int_Tables_number      14
_space_group_name_Hall           '-P 2ybc'
loop_
_symmetry_equiv_pos_site_id
_symmetry_equiv_pos_as_xyz
1 x,y,z
2 -x,1/2+y,1/2-z
3 -x,-y,-z
4 x,1/2-y,1/2+z
_cell_length_a                   9.8846(14)
_cell_length_b                   20.844(3)
_cell_length_c                   8.5533(12)
_cell_angle_alpha                90
_cell_angle_beta                 104.475(2)
_cell_angle_gamma                90
_cell_volume                     1706.34
_exptl_crystal_colour            colorless
_exptl_crystal_description       prismatic
_chemical_melting_point          '74-75 deg.C'
_cell_formula_units_Z            4
loop_
_atom_site_label
_atom_site_type_symbol
_atom_site_fract_x
_atom_site_fract_y
_atom_site_fract_z
S1 S 0.12179(7) 0.33492(3) 0.29836(9)
Cl1 Cl 0.66603(13) 0.42023(6) 0.58524(14)
N1 N 0.2808(2) 0.30888(11) 0.3676(2)
O1 O 0.5098(2) 0.20931(10) 0.4824(2)
O2 O 0.0375(2) 0.27994(10) 0.2471(3)
O3 O 0.0944(2) 0.37565(10) 0.4196(2)
C1 C 0.3883(3) 0.35617(15) 0.4358(3)
H1 H 0.3835 0.3690 0.5432
H2 H 0.3794 0.3939 0.3677
C2 C 0.5215(3) 0.32096(16) 0.4404(3)
C3 C 0.4887(3) 0.25743(15) 0.3598(3)
H3 H 0.5483 0.2494 0.2859
C4 C 0.3373(3) 0.26365(14) 0.2676(3)
H4 H 0.3292 0.2807 0.1602
H5 H 0.2897 0.2226 0.2589
C5 C 0.6487(4) 0.3437(2) 0.5012(4)
C6 C 0.7834(4) 0.3098(3) 0.5068(6)
H6 H 0.8337 0.3035 0.6172
H7 H 0.8388 0.3352 0.4526
H8 H 0.7642 0.2689 0.4541
C7 C 0.5224(5) 0.14769(18) 0.4235(5)
H9 H 0.6015 0.1464 0.3756
H10 H 0.4390 0.1375 0.3399
C8 C 0.5414(5) 0.10033(19) 0.5504(5)
H11 H 0.6251 0.1098 0.6320
H12 H 0.5491 0.0585 0.5063
H13 H 0.4627 0.1012 0.5972
C9 C 0.1221(3) 0.38149(12) 0.1283(3)
C10 C 0.0966(3) 0.35311(14) -0.0227(3)
H14 H 0.0733 0.3099 -0.0353
C11 C 0.1060(3) 0.38935(15) -0.1537(4)
H15 H 0.0874 0.3702 -0.2551
C12 C 0.1420(3) 0.45319(14) -0.1389(4)
C13 C 0.1659(3) 0.48083(14) 0.0132(4)
H16 H 0.1889 0.5241 0.0255
C14 C 0.1565(3) 0.44586(13) 0.1459(3)
H17 H 0.1731 0.4653 0.2468
C15 C 0.1542(4) 0.49213(18) -0.2826(4)
H18 H 0.2455 0.4862 -0.3006
H19 H 0.1404 0.5367 -0.2627
H20 H 0.0847 0.4783 -0.3762
loop_
_geom_bond_atom_site_label_1
_geom_bond_atom_site_label_2
_geom_bond_site_symmetry_1
_geom_bond_site_symmetry_2
S1 N1 1_555 1_555
Cl1 C5 1_555 1_555
N1 C1 1_555 1_555
O1 C3 1_555 1_555
O2 S1 1_555 1_555
O3 S1 1_555 1_555
C1 H1 1_555 1_555
H2 C1 1_555 1_555
C2 C1 1_555 1_555
C3 C2 1_555 1_555
H3 C3 1_555 1_555
C4 N1 1_555 1_555
H4 C4 1_555 1_555
H5 C4 1_555 1_555
C5 C2 1_555 1_555
C6 C5 1_555 1_555
H6 C6 1_555 1_555
H7 C6 1_555 1_555
H8 C6 1_555 1_555
C7 O1 1_555 1_555
H9 C7 1_555 1_555
H10 C7 1_555 1_555
C8 C7 1_555 1_555
H11 C8 1_555 1_555
H12 C8 1_555 1_555
H13 C8 1_555 1_555
C9 S1 1_555 1_555
C10 C9 1_555 1_555
H14 C10 1_555 1_555
C11 C10 1_555 1_555
H15 C11 1_555 1_555
C12 C11 1_555 1_555
C13 C12 1_555 1_555
H16 C13 1_555 1_555
C14 C9 1_555 1_555
H17 C14 1_555 1_555
C15 C12 1_555 1_555
H18 C15 1_555 1_555
H19 C15 1_555 1_555
H20 C15 1_555 1_555
C3 C4 1_555 1_555
C13 C14 1_555 1_555

#END
