
#######################################################################
#
#                 Cambridge Crystallographic Data Centre
#                                CCDC 
#
#######################################################################
#
# If this CIF has been generated from an entry in the Cambridge 
# Structural Database, then it will include bibliographic, chemical, 
# crystal, experimental, refinement or atomic coordinate data resulting 
# from the CCDC's data processing and validation procedures.
#
#######################################################################

data_XUKSUR
_chemical_compound_source        'whole plant of Kinostemon alborubrum (HEMSL.)'
_chemical_name_common            'Kinalborin C pyridine solvate'
_chemical_formula_moiety         'C20 H24 O6,C5 H5 N1'
_chemical_name_systematic        
"(2'S,3'R,5S,5'aS,7'R,8'aR,8'bR)-5-(Furan-3-yl)-3',4,4',5,5',5'a,7',8',8'a,8'b-decahydro-8'b-hydroxymethyl-7'-methylspiro[furan-3(2H),6'-[6H]naphtho[1,8-bc]furan]-2,2'(2'aH)-dione pyridine solvate"
_symmetry_cell_setting           monoclinic
_symmetry_space_group_name_H-M   'P 21'
_symmetry_Int_Tables_number      4
_space_group_name_Hall           'P 2yb'
loop_
_symmetry_equiv_pos_site_id
_symmetry_equiv_pos_as_xyz
1 x,y,z
2 -x,1/2+y,-z
_cell_length_a                   10.526(2)
_cell_length_b                   8.429(2)
_cell_length_c                   13.089(2)
_cell_angle_alpha                90
_cell_angle_beta                 106.830(10)
_cell_angle_gamma                90
_cell_volume                     1111.56
_exptl_crystal_colour            colorless
_chemical_melting_point          '170-172 deg.C'
_cell_formula_units_Z            2
loop_
_atom_site_label
_atom_site_type_symbol
_atom_site_fract_x
_atom_site_fract_y
_atom_site_fract_z
O1 O 0.1436(4) 0.6382(5) 0.6054(3)
O2 O 0.3438(4) 0.3116(6) 0.2746(3)
O3 O 0.1090(9) 0.1489(12) -0.0465(4)
O4 O 0.0324(4) 0.4861(6) 0.6890(3)
O5 O 0.4623(3) 0.4875(6) 0.3882(3)
O6 O 0.5259(4) 0.4848(6) 0.7237(3)
H1 H 0.5641 0.5684 0.7201
C1 C 0.2404(5) 0.1939(7) 0.4995(4)
H2 H 0.3334 0.1649 0.5173
H3 H 0.1938 0.1423 0.4330
C2 C 0.1821(7) 0.1401(8) 0.5885(4)
H4 H 0.0866 0.1548 0.5646
H5 H 0.1992 0.0277 0.6011
C3 C 0.2373(6) 0.2277(8) 0.6922(4)
H6 H 0.3240 0.1842 0.7286
H7 H 0.1800 0.2086 0.7371
C4 C 0.2512(5) 0.4069(7) 0.6803(4)
H8 H 0.3131 0.4445 0.7471
C5 C 0.3079(4) 0.4583(7) 0.5906(3)
C6 C 0.2728(5) 0.6332(7) 0.5830(4)
H9 H 0.3380 0.6891 0.6405
C7 C 0.2682(6) 0.7118(7) 0.4794(4)
H10 H 0.3587 0.7270 0.4770
H11 H 0.2291 0.8161 0.4787
C8 C 0.1921(5) 0.6250(6) 0.3788(4)
H12 H 0.0984 0.6298 0.3767
C9 C 0.2275(4) 0.4464(6) 0.3786(4)
C10 C 0.2256(4) 0.3724(6) 0.4875(3)
H13 H 0.1339 0.3901 0.4883
C11 C 0.1278(5) 0.3586(7) 0.2864(4)
H14 H 0.0657 0.2980 0.3130
H15 H 0.0782 0.4336 0.2336
C12 C 0.2097(6) 0.2478(8) 0.2371(4)
H16 H 0.2084 0.1404 0.2653
C13 C 0.1710(6) 0.2419(8) 0.1202(5)
C14 C 0.1490(10) 0.3673(12) 0.0464(6)
H17 H 0.1582 0.4748 0.0628
C15 C 0.1123(8) 0.3044(15) -0.0517(5)
H18 H 0.0920 0.3627 -0.1147
C16 C 0.1410(13) 0.1147(12) 0.0597(7)
H19 H 0.1417 0.0124 0.0865
C17 C 0.2031(6) 0.7131(8) 0.2800(4)
H20 H 0.2923 0.7050 0.2755
H21 H 0.1808 0.8227 0.2848
H22 H 0.1430 0.6669 0.2175
C18 C 0.1295(5) 0.5080(7) 0.6602(4)
C19 C 0.4596(5) 0.4311(9) 0.6195(4)
H23 H 0.4770 0.3188 0.6144
H24 H 0.4945 0.4867 0.5686
C20 C 0.3571(5) 0.4206(7) 0.3515(4)
C21 C 0.3056(13) 0.744(2) 1.0303(8)
H25 H 0.2643 0.6902 1.0739
C22 C 0.3131(14) 0.8104(14) 0.8545(5)
H26 H 0.2722 0.8207 0.7817
N1 N 0.4293(11) 0.8024(17) 1.0710(5)
C23 C 0.2410(7) 0.7648(19) 0.9232(10)
H27 H 0.1499 0.7484 0.8973
C24 C 0.4476(13) 0.8402(18) 0.8974(9)
H28 H 0.5016 0.8517 0.8529
C25 C 0.5011(9) 0.8528(18) 1.0070(10)
H29 H 0.5853 0.8955 1.0360
loop_
_geom_bond_atom_site_label_1
_geom_bond_atom_site_label_2
_geom_bond_site_symmetry_1
_geom_bond_site_symmetry_2
O1 C6 1_555 1_555
O2 C12 1_555 1_555
O3 C15 1_555 1_555
O4 C18 1_555 1_555
O5 C20 1_555 1_555
O6 H1 1_555 1_555
C1 H2 1_555 1_555
H3 C1 1_555 1_555
C2 C1 1_555 1_555
H4 C2 1_555 1_555
H5 C2 1_555 1_555
C3 C2 1_555 1_555
H6 C3 1_555 1_555
H7 C3 1_555 1_555
C4 C3 1_555 1_555
H8 C4 1_555 1_555
C5 C4 1_555 1_555
C6 C5 1_555 1_555
H9 C6 1_555 1_555
C7 C6 1_555 1_555
H10 C7 1_555 1_555
H11 C7 1_555 1_555
C8 C7 1_555 1_555
H12 C8 1_555 1_555
C9 C8 1_555 1_555
C10 C1 1_555 1_555
H13 C10 1_555 1_555
C11 C9 1_555 1_555
H14 C11 1_555 1_555
H15 C11 1_555 1_555
C12 C11 1_555 1_555
H16 C12 1_555 1_555
C13 C12 1_555 1_555
C14 C13 1_555 1_555
H17 C14 1_555 1_555
C15 C14 1_555 1_555
H18 C15 1_555 1_555
C16 O3 1_555 1_555
H19 C16 1_555 1_555
C17 C8 1_555 1_555
H20 C17 1_555 1_555
H21 C17 1_555 1_555
H22 C17 1_555 1_555
C18 O1 1_555 1_555
C19 O6 1_555 1_555
H23 C19 1_555 1_555
H24 C19 1_555 1_555
C20 O2 1_555 1_555
C21 H25 1_555 1_555
C22 H26 1_555 1_555
N1 C21 1_555 1_555
C23 C21 1_555 1_555
H27 C23 1_555 1_555
C24 C22 1_555 1_555
H28 C24 1_555 1_555
C25 N1 1_555 1_555
H29 C25 1_555 1_555
C4 C18 1_555 1_555
C5 C19 1_555 1_555
C5 C10 1_555 1_555
C9 C10 1_555 1_555
C9 C20 1_555 1_555
C13 C16 1_555 1_555
C22 C23 1_555 1_555
C24 C25 1_555 1_555

#END
