
#######################################################################
#
#                 Cambridge Crystallographic Data Centre
#                                CCDC 
#
#######################################################################
#
# If this CIF has been generated from an entry in the Cambridge 
# Structural Database, then it will include bibliographic, chemical, 
# crystal, experimental, refinement or atomic coordinate data resulting 
# from the CCDC's data processing and validation procedures.
#
#######################################################################

data_XULBOW
_chemical_formula_moiety         'C22 H31 N1 O7'
_chemical_name_systematic        
N-(2-(3,4-Dimethoxyphenyl)ethyl)-2-(1,4,8,11-tetraoxadispiro(4.1.4.3)tetradec-12-yl)acetamide
_symmetry_cell_setting           orthorhombic
_symmetry_space_group_name_H-M   'P c a 21'
_symmetry_Int_Tables_number      29
_space_group_name_Hall           'P 2c -2ac'
loop_
_symmetry_equiv_pos_site_id
_symmetry_equiv_pos_as_xyz
1 x,y,z
2 -x,-y,1/2+z
3 1/2+x,-y,z
4 1/2-x,y,1/2+z
_cell_length_a                   34.4152(6)
_cell_length_b                   5.23940(10)
_cell_length_c                   11.5206(2)
_cell_angle_alpha                90
_cell_angle_beta                 90
_cell_angle_gamma                90
_cell_volume                     2077.34
_exptl_crystal_colour            colorless
_exptl_crystal_description       'fragment of plate'
_chemical_melting_point          '416 K'
_cell_formula_units_Z            4
loop_
_atom_site_label
_atom_site_type_symbol
_atom_site_fract_x
_atom_site_fract_y
_atom_site_fract_z
O1 O 0.13624(5) 0.5541(3) -0.01406(15)
O2 O 0.09400(5) 0.4429(3) -0.39465(14)
O3 O 0.06933(4) 0.0630(3) -0.33847(13)
O4 O -0.04007(4) 0.4742(3) -0.2735(2)
O5 O -0.01190(4) 0.0805(3) -0.25997(18)
O6 O 0.24268(5) 0.3059(3) 0.53713(16)
O7 O 0.20593(5) -0.0090(4) 0.66986(16)
N1 N 0.14251(6) 0.1334(4) 0.02475(17)
C1 C 0.13346(6) 0.3292(4) -0.0450(2)
C2 C 0.11945(6) 0.2579(4) -0.16604(19)
H1 H 0.1172 0.0700 -0.1722
H2 H 0.1386 0.3163 -0.2244
C3 C 0.07994(6) 0.3805(4) -0.19089(18)
H3 H 0.0827 0.5693 -0.1811
C4 C 0.06699(6) 0.3283(4) -0.31563(18)
C5 C 0.02633(6) 0.4337(4) -0.3389(2)
H4 H 0.0275 0.6225 -0.3387
H5 H 0.0179 0.3789 -0.4172
C6 C -0.00386(6) 0.3469(4) -0.2503(2)
C7 C 0.00941(7) 0.4013(5) -0.1284(2)
H6 H -0.0096 0.3299 -0.0728
H7 H 0.0106 0.5882 -0.1162
C8 C 0.04906(6) 0.2865(5) -0.10517(19)
H8 H 0.0472 0.0983 -0.1102
H9 H 0.0572 0.3307 -0.0253
C9 C 0.07425(7) 0.0408(4) -0.4610(2)
H10 H 0.0488 0.0370 -0.5011
H11 H 0.0889 -0.1156 -0.4810
C10 C 0.09721(7) 0.2806(4) -0.4935(2)
H12 H 0.1247 0.2383 -0.5093
H13 H 0.0860 0.3633 -0.5630
C11 C -0.06836(7) 0.2867(5) -0.2977(4)
H14 H -0.0844 0.3371 -0.3652
H15 H -0.0855 0.2597 -0.2299
C12 C -0.04624(8) 0.0584(5) -0.3231(4)
H16 H -0.0608 -0.0958 -0.2991
H17 H -0.0406 0.0466 -0.4072
C13 C 0.15442(7) 0.1648(4) 0.14505(19)
H18 H 0.1311 0.1657 0.1955
H19 H 0.1678 0.3308 0.1542
C14 C 0.18156(6) -0.0498(4) 0.1827(2)
H20 H 0.1703 -0.2158 0.1592
H21 H 0.2069 -0.0302 0.1428
C15 C 0.18798(6) -0.0486(4) 0.3123(2)
C16 C 0.21314(6) 0.1313(4) 0.3622(2)
H22 H 0.2266 0.2488 0.3138
C17 C 0.21861(6) 0.1392(4) 0.4810(2)
C18 C 0.19871(6) -0.0338(5) 0.55335(19)
C19 C 0.17443(6) -0.2131(4) 0.5039(2)
H23 H 0.1612 -0.3322 0.5519
C20 C 0.16922(6) -0.2203(4) 0.3844(2)
H24 H 0.1525 -0.3452 0.3516
C21 C 0.26471(7) 0.4728(5) 0.4653(3)
H25 H 0.2810 0.5829 0.5140
H26 H 0.2470 0.5785 0.4190
H27 H 0.2813 0.3721 0.4135
C22 C 0.19096(9) -0.2051(6) 0.7424(3)
H28 H 0.1979 -0.1696 0.8233
H29 H 0.2020 -0.3696 0.7190
H30 H 0.1626 -0.2115 0.7348
H31 H 0.1384(8) -0.014(6) 0.001(3)
loop_
_geom_bond_atom_site_label_1
_geom_bond_atom_site_label_2
_geom_bond_site_symmetry_1
_geom_bond_site_symmetry_2
O1 C1 1_555 1_555
O2 C4 1_555 1_555
O3 C4 1_555 1_555
O4 C6 1_555 1_555
O5 C6 1_555 1_555
O6 C17 1_555 1_555
O7 C18 1_555 1_555
N1 C1 1_555 1_555
C1 C2 1_555 1_555
C2 H1 1_555 1_555
H2 C2 1_555 1_555
C3 C2 1_555 1_555
H3 C3 1_555 1_555
C4 C3 1_555 1_555
C5 C4 1_555 1_555
H4 C5 1_555 1_555
H5 C5 1_555 1_555
C6 C5 1_555 1_555
C7 C6 1_555 1_555
H6 C7 1_555 1_555
H7 C7 1_555 1_555
C8 C3 1_555 1_555
H8 C8 1_555 1_555
H9 C8 1_555 1_555
C9 O3 1_555 1_555
H10 C9 1_555 1_555
H11 C9 1_555 1_555
C10 O2 1_555 1_555
H12 C10 1_555 1_555
H13 C10 1_555 1_555
C11 O4 1_555 1_555
H14 C11 1_555 1_555
H15 C11 1_555 1_555
C12 O5 1_555 1_555
H16 C12 1_555 1_555
H17 C12 1_555 1_555
C13 N1 1_555 1_555
H18 C13 1_555 1_555
H19 C13 1_555 1_555
C14 C13 1_555 1_555
H20 C14 1_555 1_555
H21 C14 1_555 1_555
C15 C14 1_555 1_555
C16 C15 1_555 1_555
H22 C16 1_555 1_555
C17 C16 1_555 1_555
C18 C17 1_555 1_555
C19 C18 1_555 1_555
H23 C19 1_555 1_555
C20 C15 1_555 1_555
H24 C20 1_555 1_555
C21 O6 1_555 1_555
H25 C21 1_555 1_555
H26 C21 1_555 1_555
H27 C21 1_555 1_555
C22 O7 1_555 1_555
H28 C22 1_555 1_555
H29 C22 1_555 1_555
H30 C22 1_555 1_555
H31 N1 1_555 1_555
C7 C8 1_555 1_555
C9 C10 1_555 1_555
C11 C12 1_555 1_555
C19 C20 1_555 1_555

#END
