
#######################################################################
#
#                 Cambridge Crystallographic Data Centre
#                                CCDC 
#
#######################################################################
#
# If this CIF has been generated from an entry in the Cambridge 
# Structural Database, then it will include bibliographic, chemical, 
# crystal, experimental, refinement or atomic coordinate data resulting 
# from the CCDC's data processing and validation procedures.
#
#######################################################################

data_XULBOX
_chemical_formula_moiety         'C33 H23 Cl2 N3 O4'
_chemical_name_systematic        
19-(biphenyl-4-yl)-1,16-dichloro-22,22-dimethoxy-3,14,19-triazahexacyclo[14.5.1.0^2,15^.0^4,13^.0^6,11^.0^17,21^]docosa-2,4,6,8,10,12,14-heptaene-18,20-dione
_symmetry_cell_setting           monoclinic
_symmetry_space_group_name_H-M   'P 21/n'
_symmetry_Int_Tables_number      14
_space_group_name_Hall           '-P 2yn'
loop_
_symmetry_equiv_pos_site_id
_symmetry_equiv_pos_as_xyz
1 x,y,z
2 1/2-x,1/2+y,1/2-z
3 -x,-y,-z
4 1/2+x,1/2-y,1/2+z
_cell_length_a                   15.2806(3)
_cell_length_b                   23.2066(5)
_cell_length_c                   16.8714(4)
_cell_angle_alpha                90
_cell_angle_beta                 109.3636(11)
_cell_angle_gamma                90
_cell_volume                     5644.36
_exptl_crystal_colour            yellow
_exptl_crystal_description       plate
_cell_formula_units_Z            8
loop_
_atom_site_label
_atom_site_type_symbol
_atom_site_fract_x
_atom_site_fract_y
_atom_site_fract_z
Cl1 Cl 0.74053(5) 0.30130(3) 0.32969(4)
Cl2 Cl 1.01219(5) 0.15516(3) 0.28135(4)
O1 O 0.89124(13) 0.26755(8) 0.22528(11)
O2 O 0.95757(12) 0.27631(8) 0.37059(11)
O3 O 0.69508(14) 0.18338(8) 0.43585(13)
O4 O 0.88703(13) 0.05656(8) 0.36506(11)
N1 N 0.66595(15) 0.19734(9) 0.20356(13)
N2 N 0.80739(15) 0.12242(9) 0.17933(13)
N3 N 0.77738(15) 0.10956(9) 0.40096(13)
C1 C 0.83645(18) 0.20301(11) 0.40332(16)
H1 H 0.8669 0.2280 0.4531
C2 C 0.80244(18) 0.23915(11) 0.32081(17)
C3 C 0.89712(18) 0.24661(11) 0.30340(16)
C4 C 0.91327(17) 0.17947(11) 0.30182(16)
C5 C 0.90586(18) 0.16028(11) 0.38782(16)
H2 H 0.9674 0.1619 0.4336
C6 C 0.75308(18) 0.19937(11) 0.24837(16)
C7 C 0.82314(18) 0.16270(11) 0.23584(16)
C8 C 0.64471(18) 0.15556(11) 0.14041(16)
C9 C 0.55444(19) 0.15092(11) 0.08615(17)
H3 H 0.5083 0.1758 0.0934
C10 C 0.52941(19) 0.11054(11) 0.02079(17)
C11 C 0.4371(2) 0.10557(12) -0.03589(18)
H4 H 0.3903 0.1306 -0.0302
C12 C 0.4149(2) 0.06514(13) -0.09856(19)
H5 H 0.3529 0.0623 -0.1358
C13 C 0.4830(2) 0.02790(13) -0.10822(19)
H6 H 0.4665 -0.0004 -0.1514
C14 C 0.5731(2) 0.03193(13) -0.05602(18)
H7 H 0.6186 0.0068 -0.0639
C15 C 0.59923(19) 0.07331(12) 0.00998(17)
C16 C 0.69074(19) 0.07790(12) 0.06489(16)
H8 H 0.7370 0.0529 0.0581
C17 C 0.71451(18) 0.11836(11) 0.12889(16)
C18 C 0.8667(2) 0.32773(12) 0.20836(19)
H9 H 0.7994 0.3322 0.1939
H10 H 0.8857 0.3409 0.1614
H11 H 0.8983 0.3507 0.2584
C19 C 1.04552(19) 0.29295(13) 0.3631(2)
H12 H 1.0775 0.2587 0.3527
H13 H 1.0837 0.3115 0.4154
H14 H 1.0350 0.3200 0.3163
C20 C 0.76060(19) 0.16678(12) 0.41698(16)
C21 C 0.86045(18) 0.10196(12) 0.38351(15)
C22 C 0.71464(18) 0.06346(11) 0.40182(17)
C23 C 0.68248(19) 0.02707(12) 0.33305(17)
H15 H 0.7015 0.0323 0.2854
C24 C 0.62209(19) -0.01701(12) 0.33502(18)
H16 H 0.6006 -0.0424 0.2884
C25 C 0.59217(19) -0.02491(12) 0.40361(18)
C26 C 0.6248(2) 0.01274(13) 0.47144(19)
H17 H 0.6045 0.0083 0.5186
C27 C 0.6862(2) 0.05639(12) 0.47125(18)
H18 H 0.7088 0.0814 0.5183
C28 C 0.5284(2) -0.07322(13) 0.4053(2)
C29 C 0.4528(2) -0.08689(15) 0.3351(2)
H19 H 0.4402 -0.0645 0.2855
C30 C 0.3955(3) -0.13297(18) 0.3367(3)
H20 H 0.3431 -0.1413 0.2888
C31 C 0.4144(3) -0.16655(19) 0.4076(3)
H21 H 0.3761 -0.1988 0.4078
C32 C 0.4884(3) -0.15384(17) 0.4781(3)
H22 H 0.5006 -0.1767 0.5272
C33 C 0.5452(2) -0.10746(14) 0.4772(2)
H23 H 0.5962 -0.0987 0.5260
Cl3 Cl 0.62039(5) 0.44834(3) 0.42712(4)
Cl4 Cl 0.28441(5) 0.49647(3) 0.17159(5)
O5 O 0.40409(13) 0.45696(8) 0.37515(12)
O6 O 0.44258(13) 0.54403(8) 0.32540(12)
O7 O 0.70431(12) 0.43697(8) 0.25704(12)
O8 O 0.42360(13) 0.44938(8) 0.04837(11)
N4 N 0.52844(15) 0.34324(10) 0.31492(14)
N5 N 0.35623(15) 0.36598(10) 0.17848(14)
N6 N 0.56960(14) 0.43278(9) 0.14343(13)
C34 C 0.56405(17) 0.48545(11) 0.26048(16)
H24 H 0.5935 0.5233 0.2825
C35 C 0.53403(18) 0.45224(12) 0.32734(16)
C36 C 0.44142(19) 0.48437(12) 0.31964(17)
C37 C 0.39630(18) 0.46964(11) 0.22346(16)
C38 C 0.47162(18) 0.49345(11) 0.18803(16)
H25 H 0.4603 0.5349 0.1718
C39 C 0.49416(18) 0.39419(11) 0.29229(16)
C40 C 0.40759(18) 0.40515(12) 0.22650(16)
C41 C 0.47400(19) 0.29896(12) 0.26680(18)
C42 C 0.5019(2) 0.24234(13) 0.2886(2)
H26 H 0.5563 0.2347 0.3350
C43 C 0.4495(2) 0.19638(13) 0.2419(2)
C44 C 0.4752(3) 0.13755(14) 0.2650(3)
H27 H 0.5278 0.1289 0.3125
C45 C 0.4225(3) 0.09423(16) 0.2174(3)
H28 H 0.4388 0.0553 0.2329
C46 C 0.3453(3) 0.10579(16) 0.1466(3)
H29 H 0.3108 0.0746 0.1146
C47 C 0.3189(2) 0.16034(15) 0.1230(3)
H30 H 0.2664 0.1672 0.0745
C48 C 0.3691(2) 0.20785(13) 0.1703(2)
C49 C 0.3417(2) 0.26501(12) 0.1499(2)
H31 H 0.2885 0.2729 0.1024
C50 C 0.39096(19) 0.31031(12) 0.19795(18)
C51 C 0.3121(2) 0.47269(15) 0.3712(2)
H32 H 0.3047 0.5146 0.3648
H33 H 0.3017 0.4606 0.4230
H34 H 0.2670 0.4536 0.3230
C52 C 0.4949(2) 0.56919(14) 0.40559(19)
H35 H 0.4915 0.5439 0.4510
H36 H 0.4689 0.6070 0.4111
H37 H 0.5598 0.5737 0.4090
C53 C 0.62389(18) 0.45010(11) 0.22368(16)
C54 C 0.48106(18) 0.45751(11) 0.11604(17)
C55 C 0.60601(17) 0.39635(11) 0.09262(16)
C56 C 0.59956(18) 0.33732(11) 0.09921(16)
H38 H 0.5670 0.3210 0.1330
C57 C 0.64150(19) 0.30207(12) 0.05557(17)
H39 H 0.6359 0.2614 0.0588
C58 C 0.69138(18) 0.32495(12) 0.00737(16)
C59 C 0.69291(18) 0.38498(12) -0.00092(17)
H40 H 0.7236 0.4016 -0.0360
C60 C 0.65031(18) 0.42050(12) 0.04139(16)
H41 H 0.6516 0.4612 0.0352
C61 C 0.74313(18) 0.28574(12) -0.03092(17)
C62 C 0.7849(2) 0.23616(13) 0.0122(2)
H42 H 0.7833 0.2294 0.0673
C63 C 0.8285(2) 0.19676(15) -0.0237(2)
H43 H 0.8565 0.1633 0.0065
C64 C 0.8312(3) 0.20637(16) -0.1037(3)
H44 H 0.8593 0.1788 -0.1294
C65 C 0.7931(2) 0.25597(16) -0.1464(2)
H45 H 0.7967 0.2630 -0.2006
C66 C 0.7496(2) 0.29555(13) -0.11066(19)
H46 H 0.7239 0.3296 -0.1405
loop_
_geom_bond_atom_site_label_1
_geom_bond_atom_site_label_2
_geom_bond_site_symmetry_1
_geom_bond_site_symmetry_2
Cl1 C2 1_555 1_555
Cl2 C4 1_555 1_555
O1 C3 1_555 1_555
O2 C3 1_555 1_555
O3 C20 1_555 1_555
O4 C21 1_555 1_555
N1 C6 1_555 1_555
N2 C7 1_555 1_555
N3 C20 1_555 1_555
C1 H1 1_555 1_555
C2 C1 1_555 1_555
C3 C2 1_555 1_555
C4 C3 1_555 1_555
C5 C1 1_555 1_555
H2 C5 1_555 1_555
C6 C2 1_555 1_555
C7 C4 1_555 1_555
C8 N1 1_555 1_555
C9 C8 1_555 1_555
H3 C9 1_555 1_555
C10 C9 1_555 1_555
C11 C10 1_555 1_555
H4 C11 1_555 1_555
C12 C11 1_555 1_555
H5 C12 1_555 1_555
C13 C12 1_555 1_555
H6 C13 1_555 1_555
C14 C13 1_555 1_555
H7 C14 1_555 1_555
C15 C10 1_555 1_555
C16 C15 1_555 1_555
H8 C16 1_555 1_555
C17 N2 1_555 1_555
C18 O1 1_555 1_555
H9 C18 1_555 1_555
H10 C18 1_555 1_555
H11 C18 1_555 1_555
C19 O2 1_555 1_555
H12 C19 1_555 1_555
H13 C19 1_555 1_555
H14 C19 1_555 1_555
C20 C1 1_555 1_555
C21 N3 1_555 1_555
C22 N3 1_555 1_555
C23 C22 1_555 1_555
H15 C23 1_555 1_555
C24 C23 1_555 1_555
H16 C24 1_555 1_555
C25 C24 1_555 1_555
C26 C25 1_555 1_555
H17 C26 1_555 1_555
C27 C22 1_555 1_555
H18 C27 1_555 1_555
C28 C25 1_555 1_555
C29 C28 1_555 1_555
H19 C29 1_555 1_555
C30 C29 1_555 1_555
H20 C30 1_555 1_555
C31 C30 1_555 1_555
H21 C31 1_555 1_555
C32 C31 1_555 1_555
H22 C32 1_555 1_555
C33 C28 1_555 1_555
H23 C33 1_555 1_555
Cl3 C35 1_555 1_555
Cl4 C37 1_555 1_555
O5 C36 1_555 1_555
O6 C36 1_555 1_555
O7 C53 1_555 1_555
O8 C54 1_555 1_555
N4 C39 1_555 1_555
N5 C40 1_555 1_555
N6 C53 1_555 1_555
C34 H24 1_555 1_555
C35 C34 1_555 1_555
C36 C35 1_555 1_555
C37 C36 1_555 1_555
C38 C34 1_555 1_555
H25 C38 1_555 1_555
C39 C35 1_555 1_555
C40 C37 1_555 1_555
C41 N4 1_555 1_555
C42 C41 1_555 1_555
H26 C42 1_555 1_555
C43 C42 1_555 1_555
C44 C43 1_555 1_555
H27 C44 1_555 1_555
C45 C44 1_555 1_555
H28 C45 1_555 1_555
C46 C45 1_555 1_555
H29 C46 1_555 1_555
C47 C46 1_555 1_555
H30 C47 1_555 1_555
C48 C43 1_555 1_555
C49 C48 1_555 1_555
H31 C49 1_555 1_555
C50 N5 1_555 1_555
C51 O5 1_555 1_555
H32 C51 1_555 1_555
H33 C51 1_555 1_555
H34 C51 1_555 1_555
C52 O6 1_555 1_555
H35 C52 1_555 1_555
H36 C52 1_555 1_555
H37 C52 1_555 1_555
C53 C34 1_555 1_555
C54 N6 1_555 1_555
C55 N6 1_555 1_555
C56 C55 1_555 1_555
H38 C56 1_555 1_555
C57 C56 1_555 1_555
H39 C57 1_555 1_555
C58 C57 1_555 1_555
C59 C58 1_555 1_555
H40 C59 1_555 1_555
C60 C55 1_555 1_555
H41 C60 1_555 1_555
C61 C58 1_555 1_555
C62 C61 1_555 1_555
H42 C62 1_555 1_555
C63 C62 1_555 1_555
H43 C63 1_555 1_555
C64 C63 1_555 1_555
H44 C64 1_555 1_555
C65 C64 1_555 1_555
H45 C65 1_555 1_555
C66 C61 1_555 1_555
H46 C66 1_555 1_555
C4 C5 1_555 1_555
C5 C21 1_555 1_555
C6 C7 1_555 1_555
C8 C17 1_555 1_555
C14 C15 1_555 1_555
C16 C17 1_555 1_555
C26 C27 1_555 1_555
C32 C33 1_555 1_555
C37 C38 1_555 1_555
C38 C54 1_555 1_555
C39 C40 1_555 1_555
C41 C50 1_555 1_555
C47 C48 1_555 1_555
C49 C50 1_555 1_555
C59 C60 1_555 1_555
C65 C66 1_555 1_555

#END
