
#######################################################################
#
#                 Cambridge Crystallographic Data Centre
#                                CCDC 
#
#######################################################################
#
# If this CIF has been generated from an entry in the Cambridge 
# Structural Database, then it will include bibliographic, chemical, 
# crystal, experimental, refinement or atomic coordinate data resulting 
# from the CCDC's data processing and validation procedures.
#
#######################################################################

data_XULBIR
_chemical_formula_moiety         'C25 H20 Cl2 N4 O5'
_chemical_name_systematic        
N-(4-(1,12-dichloro-18,18-dimethoxy-14,16-dioxo-3,10,15-triazapentacyclo[10.5.1.0^2,11^.0^4,9^.0^13,17^]octadeca-2,4,6,8,10-pentaen-15-yl)phenyl)acetamide
_symmetry_cell_setting           monoclinic
_symmetry_space_group_name_H-M   'P 21/n'
_symmetry_Int_Tables_number      14
_space_group_name_Hall           '-P 2yn'
loop_
_symmetry_equiv_pos_site_id
_symmetry_equiv_pos_as_xyz
1 x,y,z
2 1/2-x,1/2+y,1/2-z
3 -x,-y,-z
4 1/2+x,1/2-y,1/2+z
_cell_length_a                   14.6114(19)
_cell_length_b                   10.2193(13)
_cell_length_c                   17.131(2)
_cell_angle_alpha                90
_cell_angle_beta                 112.044(2)
_cell_angle_gamma                90
_cell_volume                     2370.97
_exptl_crystal_colour            colorless
_exptl_crystal_description       chunk
_cell_formula_units_Z            4
loop_
_atom_site_label
_atom_site_type_symbol
_atom_site_fract_x
_atom_site_fract_y
_atom_site_fract_z
Cl1 Cl -0.21316(7) 0.74862(9) 0.29046(6)
Cl2 Cl -0.15038(7) 1.01499(8) 0.02862(5)
O1 O 0.5218(2) 1.0197(3) 0.3912(2)
O2 O -0.28251(16) 0.9766(2) 0.13516(14)
O3 O -0.26588(16) 0.7638(2) 0.09499(14)
O4 O 0.04049(17) 0.6584(3) 0.33802(15)
O5 O 0.08540(18) 0.8637(3) 0.11925(15)
N1 N -0.0565(2) 0.9814(3) 0.34661(16)
N2 N -0.03039(19) 1.1180(2) 0.20924(16)
N3 N 0.08405(19) 0.7735(3) 0.24203(17)
N4 N 0.4912(2) 0.8177(3) 0.42494(19)
H1 H 0.5185 0.7516 0.4560
C1 C -0.0026(2) 1.0954(3) 0.35875(19)
C2 C 0.0432(3) 1.1459(4) 0.4412(2)
H2 H 0.0367 1.1020 0.4864
C3 C 0.0967(3) 1.2580(4) 0.4548(2)
H3 H 0.1269 1.2900 0.5094
C4 C 0.1069(3) 1.3259(4) 0.3877(2)
H4 H 0.1432 1.4031 0.3981
C5 C 0.0644(2) 1.2806(3) 0.3078(2)
H5 H 0.0717 1.3268 0.2637
C6 C 0.0094(2) 1.1637(3) 0.2913(2)
C7 C -0.0801(2) 1.0102(3) 0.20099(19)
C8 C -0.1287(2) 0.9283(3) 0.12334(18)
C9 C -0.0692(2) 0.7995(3) 0.13164(19)
H6 H -0.0955 0.7476 0.0798
C10 C 0.0406(2) 0.8176(3) 0.1589(2)
C11 C 0.0172(2) 0.7124(3) 0.2714(2)
C12 C -0.0850(2) 0.7290(3) 0.20502(19)
H7 H -0.1170 0.6440 0.1870
C13 C -0.1528(2) 0.8233(3) 0.23070(19)
C14 C -0.0935(2) 0.9445(3) 0.2687(2)
C15 C 0.1879(2) 0.7849(3) 0.2910(2)
C16 C 0.2293(3) 0.9066(3) 0.3121(2)
H8 H 0.1895 0.9805 0.2955
C17 C 0.3290(3) 0.9211(3) 0.3574(2)
H9 H 0.3562 1.0042 0.3712
C18 C 0.3886(2) 0.8111(3) 0.3824(2)
C19 C 0.3458(2) 0.6876(3) 0.3629(2)
H10 H 0.3848 0.6133 0.3808
C20 C 0.2465(2) 0.6748(3) 0.3174(2)
H11 H 0.2185 0.5920 0.3043
C21 C 0.5522(3) 0.9149(4) 0.4230(2)
C22 C 0.6607(3) 0.8836(4) 0.4608(3)
H12 H 0.6797 0.8389 0.4199
H13 H 0.6739 0.8286 0.5093
H14 H 0.6978 0.9632 0.4774
C23 C -0.2198(2) 0.8735(3) 0.1406(2)
C24 C -0.3708(3) 0.9483(4) 0.1505(3)
H15 H -0.3913 0.8601 0.1336
H16 H -0.4223 1.0076 0.1187
H17 H -0.3578 0.9583 0.2094
C25 C -0.3240(3) 0.7812(4) 0.0066(2)
H18 H -0.3615 0.8607 -0.0013
H19 H -0.3682 0.7085 -0.0135
H20 H -0.2811 0.7862 -0.0241
loop_
_geom_bond_atom_site_label_1
_geom_bond_atom_site_label_2
_geom_bond_site_symmetry_1
_geom_bond_site_symmetry_2
Cl1 C13 1_555 1_555
Cl2 C8 1_555 1_555
O1 C21 1_555 1_555
O2 C23 1_555 1_555
O3 C23 1_555 1_555
O4 C11 1_555 1_555
O5 C10 1_555 1_555
N1 C1 1_555 1_555
N2 C6 1_555 1_555
N3 C10 1_555 1_555
N4 H1 1_555 1_555
C1 C2 1_555 1_555
C2 H2 1_555 1_555
C3 C2 1_555 1_555
H3 C3 1_555 1_555
C4 C3 1_555 1_555
H4 C4 1_555 1_555
C5 C4 1_555 1_555
H5 C5 1_555 1_555
C6 C1 1_555 1_555
C7 N2 1_555 1_555
C8 C7 1_555 1_555
C9 C8 1_555 1_555
H6 C9 1_555 1_555
C10 C9 1_555 1_555
C11 N3 1_555 1_555
C12 C9 1_555 1_555
H7 C12 1_555 1_555
C13 C12 1_555 1_555
C14 N1 1_555 1_555
C15 N3 1_555 1_555
C16 C15 1_555 1_555
H8 C16 1_555 1_555
C17 C16 1_555 1_555
H9 C17 1_555 1_555
C18 N4 1_555 1_555
C19 C18 1_555 1_555
H10 C19 1_555 1_555
C20 C15 1_555 1_555
H11 C20 1_555 1_555
C21 N4 1_555 1_555
C22 C21 1_555 1_555
H12 C22 1_555 1_555
H13 C22 1_555 1_555
H14 C22 1_555 1_555
C23 C8 1_555 1_555
C24 O2 1_555 1_555
H15 C24 1_555 1_555
H16 C24 1_555 1_555
H17 C24 1_555 1_555
C25 O3 1_555 1_555
H18 C25 1_555 1_555
H19 C25 1_555 1_555
H20 C25 1_555 1_555
C5 C6 1_555 1_555
C7 C14 1_555 1_555
C11 C12 1_555 1_555
C13 C14 1_555 1_555
C13 C23 1_555 1_555
C17 C18 1_555 1_555
C19 C20 1_555 1_555

#END
