
#######################################################################
#
#                 Cambridge Crystallographic Data Centre
#                                CCDC 
#
#######################################################################
#
# If this CIF has been generated from an entry in the Cambridge 
# Structural Database, then it will include bibliographic, chemical, 
# crystal, experimental, refinement or atomic coordinate data resulting 
# from the CCDC's data processing and validation procedures.
#
#######################################################################

data_XULCUE
_chemical_formula_moiety         'C34 H27 Cl2 N3 O4,0.5(C6 H6)'
_chemical_name_systematic        
'15-(9-anthrylmethyl)-1,12-dichloro-18,18-dimethoxy-6,7-dimethyl-3,10,15-triazapentacyclo[10.5.1.0^2,11^.0^4,9^.0^13,17^]octadeca-2,4,6,8,10-pentaene-14,16-dione benzene solvate'
_symmetry_cell_setting           monoclinic
_symmetry_space_group_name_H-M   'C 2/c'
_symmetry_Int_Tables_number      15
_space_group_name_Hall           '-C 2yn'
loop_
_symmetry_equiv_pos_site_id
_symmetry_equiv_pos_as_xyz
1 x,y,z
2 -x,y,1/2-z
3 1/2+x,1/2+y,z
4 1/2-x,1/2+y,1/2-z
5 -x,-y,-z
6 x,-y,1/2+z
7 1/2-x,1/2-y,-z
8 1/2+x,1/2-y,1/2+z
_cell_length_a                   23.420(3)
_cell_length_b                   11.3132(12)
_cell_length_c                   26.437(3)
_cell_angle_alpha                90
_cell_angle_beta                 115.560(2)
_cell_angle_gamma                90
_cell_volume                     6319.1
_exptl_crystal_colour            colorless
_exptl_crystal_description       chunk
_cell_formula_units_Z            8
loop_
_atom_site_label
_atom_site_type_symbol
_atom_site_fract_x
_atom_site_fract_y
_atom_site_fract_z
Cl1 Cl 0.45825(4) 0.30675(8) 0.32563(4)
Cl2 Cl 0.26308(5) 0.02205(9) 0.17432(4)
N1 N 0.43996(13) 0.0645(2) 0.37336(11)
N2 N 0.34526(13) -0.0901(2) 0.29437(12)
N3 N 0.27096(13) 0.2043(3) 0.33985(12)
O1 O 0.20090(12) 0.0780(2) 0.27407(12)
O2 O 0.35043(12) 0.3369(2) 0.38726(10)
O3 O 0.41663(12) 0.1181(2) 0.22971(11)
O4 O 0.33856(12) 0.2616(2) 0.19284(10)
C1 C 0.39021(15) 0.2165(3) 0.29663(14)
C2 C 0.39812(15) 0.0968(3) 0.32441(14)
C3 C 0.43508(15) -0.0531(3) 0.38507(14)
C4 C 0.47715(17) -0.0990(3) 0.43688(15)
H1 H 0.5059 -0.0483 0.4633
C5 C 0.47749(18) -0.2164(3) 0.45025(16)
C6 C 0.43442(18) -0.2938(3) 0.40947(17)
C7 C 0.39182(18) -0.2504(3) 0.35893(17)
H2 H 0.3635 -0.3022 0.3328
C8 C 0.38968(16) -0.1299(3) 0.34545(15)
C9 C 0.35091(15) 0.0223(3) 0.28624(14)
C10 C 0.31297(16) 0.0987(3) 0.23635(14)
C11 C 0.27691(15) 0.1928(3) 0.25375(14)
H3 H 0.2473 0.2362 0.2208
C12 C 0.24377(16) 0.1488(3) 0.28796(15)
C13 C 0.32101(15) 0.2791(3) 0.34644(15)
C14 C 0.32909(15) 0.2756(3) 0.29314(14)
H4 H 0.3242 0.3548 0.2768
C15 C 0.24382(18) 0.1982(4) 0.38078(16)
H5 H 0.2094 0.1414 0.3675
H6 H 0.2260 0.2748 0.3823
C16 C 0.29032(18) 0.1639(4) 0.43941(17)
C17 C 0.3152(2) 0.2489(4) 0.48253(18)
C18 C 0.2993(2) 0.3721(4) 0.4751(2)
H7 H 0.2698 0.3989 0.4404
C19 C 0.3265(3) 0.4505(5) 0.5179(3)
H8 H 0.3154 0.5299 0.5121
C20 C 0.3711(3) 0.4125(6) 0.5707(3)
H9 H 0.3900 0.4676 0.5992
C21 C 0.3869(3) 0.2985(6) 0.5808(2)
H10 H 0.4163 0.2754 0.6163
C22 C 0.3595(2) 0.2121(5) 0.53788(19)
C23 C 0.3756(2) 0.0950(5) 0.54747(19)
H11 H 0.4045 0.0722 0.5832
C24 C 0.3509(2) 0.0097(4) 0.50659(18)
C25 C 0.3678(2) -0.1118(5) 0.5177(2)
H12 H 0.3969 -0.1346 0.5533
C26 C 0.3425(3) -0.1939(5) 0.4775(3)
H13 H 0.3539 -0.2729 0.4855
C27 C 0.2990(3) -0.1611(4) 0.4234(2)
H14 H 0.2810 -0.2191 0.3962
C28 C 0.2826(2) -0.0463(4) 0.40997(19)
H15 H 0.2546 -0.0267 0.3735
C29 C 0.30762(18) 0.0439(4) 0.45083(16)
C30 C 0.5227(2) -0.2608(4) 0.50726(17)
H16 H 0.5482 -0.3230 0.5031
H17 H 0.4991 -0.2906 0.5266
H18 H 0.5494 -0.1972 0.5284
C31 C 0.4357(2) -0.4248(4) 0.4215(2)
H19 H 0.4060 -0.4650 0.3887
H20 H 0.4245 -0.4374 0.4520
H21 H 0.4774 -0.4552 0.4314
C32 C 0.36718(16) 0.1768(3) 0.23390(15)
C33 C 0.4055(2) 0.0719(5) 0.17553(19)
H22 H 0.3896 -0.0073 0.1719
H23 H 0.4445 0.0717 0.1717
H24 H 0.3751 0.1206 0.1468
C34 C 0.3788(2) 0.3489(4) 0.1856(2)
H25 H 0.3783 0.4193 0.2057
H26 H 0.3637 0.3669 0.1465
H27 H 0.4212 0.3189 0.1999
C35 C 0.5000 0.8219(8) 0.2500
H28 H 0.5000 0.9041 0.2500
C36 C 0.4491(3) 0.7604(8) 0.2495(3)
H29 H 0.4140 0.8001 0.2488
C37 C 0.4512(3) 0.6452(7) 0.2500(3)
H30 H 0.4173 0.6028 0.2504
C38 C 0.5000 0.5874(8) 0.2500
H31 H 0.5000 0.5052 0.2500
C36A C 0.5509(3) 0.7604(8) 0.2505(3)
H29A H 0.5860 0.8001 0.2512
C37A C 0.5488(3) 0.6452(7) 0.2500(3)
H30A H 0.5827 0.6028 0.2496
loop_
_geom_bond_atom_site_label_1
_geom_bond_atom_site_label_2
_geom_bond_site_symmetry_1
_geom_bond_site_symmetry_2
Cl1 C1 1_555 1_555
Cl2 C10 1_555 1_555
N1 C2 1_555 1_555
N2 C8 1_555 1_555
N3 C12 1_555 1_555
O1 C12 1_555 1_555
O2 C13 1_555 1_555
O3 C32 1_555 1_555
O4 C32 1_555 1_555
C1 C2 1_555 1_555
C2 C9 1_555 1_555
C3 N1 1_555 1_555
C4 C3 1_555 1_555
H1 C4 1_555 1_555
C5 C4 1_555 1_555
C6 C5 1_555 1_555
C7 C6 1_555 1_555
H2 C7 1_555 1_555
C8 C3 1_555 1_555
C9 N2 1_555 1_555
C10 C9 1_555 1_555
C11 C10 1_555 1_555
H3 C11 1_555 1_555
C12 C11 1_555 1_555
C13 N3 1_555 1_555
C14 C1 1_555 1_555
H4 C14 1_555 1_555
C15 N3 1_555 1_555
H5 C15 1_555 1_555
H6 C15 1_555 1_555
C16 C15 1_555 1_555
C17 C16 1_555 1_555
C18 C17 1_555 1_555
H7 C18 1_555 1_555
C19 C18 1_555 1_555
H8 C19 1_555 1_555
C20 C19 1_555 1_555
H9 C20 1_555 1_555
C21 C20 1_555 1_555
H10 C21 1_555 1_555
C22 C17 1_555 1_555
C23 C22 1_555 1_555
H11 C23 1_555 1_555
C24 C23 1_555 1_555
C25 C24 1_555 1_555
H12 C25 1_555 1_555
C26 C25 1_555 1_555
H13 C26 1_555 1_555
C27 C26 1_555 1_555
H14 C27 1_555 1_555
C28 C27 1_555 1_555
H15 C28 1_555 1_555
C29 C16 1_555 1_555
C30 C5 1_555 1_555
H16 C30 1_555 1_555
H17 C30 1_555 1_555
H18 C30 1_555 1_555
C31 C6 1_555 1_555
H19 C31 1_555 1_555
H20 C31 1_555 1_555
H21 C31 1_555 1_555
C32 C1 1_555 1_555
C33 O3 1_555 1_555
H22 C33 1_555 1_555
H23 C33 1_555 1_555
H24 C33 1_555 1_555
C34 O4 1_555 1_555
H25 C34 1_555 1_555
H26 C34 1_555 1_555
H27 C34 1_555 1_555
C35 H28 1_555 1_555
C36 C35 1_555 1_555
H29 C36 1_555 1_555
C37 C36 1_555 1_555
H30 C37 1_555 1_555
C38 C37 1_555 1_555
H31 C38 1_555 1_555
C36A C35 1_555 1_555
H29A C36A 1_555 1_555
C37A C38 1_555 1_555
H30A C37A 1_555 1_555
C7 C8 1_555 1_555
C10 C32 1_555 1_555
C11 C14 1_555 1_555
C13 C14 1_555 1_555
C21 C22 1_555 1_555
C24 C29 1_555 1_555
C28 C29 1_555 1_555
C36A C37A 1_555 1_555

#END
