
#######################################################################
#
#                 Cambridge Crystallographic Data Centre
#                                CCDC 
#
#######################################################################
#
# If this CIF has been generated from an entry in the Cambridge 
# Structural Database, then it will include bibliographic, chemical, 
# crystal, experimental, refinement or atomic coordinate data resulting 
# from the CCDC's data processing and validation procedures.
#
#######################################################################

data_XULNID
_chemical_formula_moiety         'C54 H44 Cl4 N6 O8,3(C6 H6)'
_chemical_name_systematic        
"15,15'-(Anthracene-9,10-diylbis(methylene))bis(1,12-dichloro-18,18-dimethoxy-6,7-dimethyl-3,10,15-triazapentacyclo[10.5.1.0^2,11^.0^4,9^.0^13,17^]octadeca-2(11),3,5,7,9-pentaene-14,16-dione) benzene solvate"
_symmetry_cell_setting           monoclinic
_symmetry_space_group_name_H-M   'C 2/c'
_symmetry_Int_Tables_number      15
_space_group_name_Hall           '-C 2yn'
loop_
_symmetry_equiv_pos_site_id
_symmetry_equiv_pos_as_xyz
1 x,y,z
2 -x,y,1/2-z
3 1/2+x,1/2+y,z
4 1/2-x,1/2+y,1/2-z
5 -x,-y,-z
6 x,-y,1/2+z
7 1/2-x,1/2-y,-z
8 1/2+x,1/2-y,1/2+z
_cell_length_a                   23.6157(11)
_cell_length_b                   11.2692(5)
_cell_length_c                   23.8771(11)
_cell_angle_alpha                90
_cell_angle_beta                 97.277(3)
_cell_angle_gamma                90
_cell_volume                     6303.23
_exptl_crystal_colour            colorless
_exptl_crystal_description       chunk
_cell_formula_units_Z            4
loop_
_atom_site_label
_atom_site_type_symbol
_atom_site_fract_x
_atom_site_fract_y
_atom_site_fract_z
C1 C 0.18329(11) 0.8010(2) 0.26820(11)
C2 C 0.16070(11) 0.8772(2) 0.21832(11)
C3 C 0.14234(12) 1.0285(2) 0.15731(12)
C4 C 0.14771(13) 1.1478(3) 0.14155(13)
H1 H 0.1686 1.1994 0.1666
C5 C 0.12320(13) 1.1907(3) 0.09048(14)
C6 C 0.09063(13) 1.1127(3) 0.05258(13)
C7 C 0.08264(13) 0.9979(3) 0.06821(13)
H2 H 0.0599 0.9484 0.0437
C8 C 0.10782(12) 0.9525(2) 0.12032(12)
C9 C 0.12424(11) 0.8030(2) 0.18226(11)
C10 C 0.12362(11) 0.6829(2) 0.21062(11)
C11 C 0.22274(11) 0.7045(2) 0.24807(11)
H3 H 0.2414 0.6596 0.2804
C12 C 0.26641(11) 0.7464(2) 0.21165(11)
C13 C 0.20601(11) 0.6227(2) 0.15351(11)
C14 C 0.18243(11) 0.6234(2) 0.20984(11)
H4 H 0.1824 0.5431 0.2256
C15 C 0.29590(12) 0.6944(3) 0.11709(11)
H5 H 0.3146 0.6177 0.1176
H6 H 0.3250 0.7531 0.1288
C16 C 0.27071(11) 0.7213(2) 0.05691(11)
C17 C 0.25697(12) 0.8398(2) 0.04179(11)
C18 C 0.26432(13) 0.9345(3) 0.08214(13)
H7 H 0.2775 0.9168 0.1196
C19 C 0.25274(15) 1.0486(3) 0.06768(15)
H8 H 0.2591 1.1084 0.0946
C20 C 0.26395(12) 0.6316(2) 0.01570(11)
C21 C 0.27692(14) 0.5092(3) 0.02816(13)
H9 H 0.2912 0.4882 0.0649
C22 C 0.26905(16) 0.4236(3) -0.01166(15)
H10 H 0.2781 0.3454 -0.0019
C23 C 0.13229(17) 1.3189(3) 0.07518(17)
H11 H 0.1539 1.3585 0.1065
H12 H 0.0960 1.3573 0.0664
H13 H 0.1528 1.3224 0.0430
C24 C 0.06474(17) 1.1571(3) -0.00508(15)
H14 H 0.0458 1.0928 -0.0262
H15 H 0.0944 1.1880 -0.0250
H16 H 0.0376 1.2187 -0.0005
C25 C 0.12898(12) 0.7232(2) 0.27444(12)
C26 C 0.10429(15) 0.5485(3) 0.32509(16)
H17 H 0.0664 0.5801 0.3164
H18 H 0.1104 0.5248 0.3640
H19 H 0.1087 0.4810 0.3015
C27 C 0.07401(17) 0.8268(4) 0.33823(15)
H20 H 0.0958 0.7774 0.3657
H21 H 0.0346 0.8251 0.3442
H22 H 0.0880 0.9068 0.3420
Cl1 Cl 0.21483(4) 0.87788(7) 0.32867(3)
Cl2 Cl 0.06483(3) 0.59309(7) 0.18548(4)
N1 N 0.17062(10) 0.98861(19) 0.20824(10)
N2 N 0.09773(10) 0.8357(2) 0.13356(10)
N3 N 0.25493(9) 0.69264(19) 0.15915(9)
O1 O 0.30531(8) 0.81460(19) 0.22476(8)
O2 O 0.18726(9) 0.57068(18) 0.11161(8)
O3 O 0.14544(8) 0.63816(18) 0.31512(8)
O4 O 0.07946(9) 0.78376(19) 0.28252(9)
C1F C 0.31671(11) 0.6990(2) -0.26820(11)
C2F C 0.33930(11) 0.6228(2) -0.21832(11)
C3F C 0.35766(12) 0.4715(2) -0.15731(12)
C4F C 0.35229(13) 0.3522(3) -0.14155(13)
H1F H 0.3314 0.3006 -0.1666
C5F C 0.37680(13) 0.3093(3) -0.09048(14)
C6F C 0.40937(13) 0.3873(3) -0.05258(13)
C7F C 0.41736(13) 0.5021(3) -0.06821(13)
H2F H 0.4401 0.5516 -0.0437
C8F C 0.39218(12) 0.5475(2) -0.12032(12)
C9F C 0.37576(11) 0.6970(2) -0.18226(11)
C10F C 0.37638(11) 0.8171(2) -0.21062(11)
C11F C 0.27726(11) 0.7955(2) -0.24807(11)
H3F H 0.2586 0.8404 -0.2804
C12F C 0.23359(11) 0.7536(2) -0.21165(11)
C13F C 0.29399(11) 0.8773(2) -0.15351(11)
C14F C 0.31757(11) 0.8766(2) -0.20984(11)
H4F H 0.3176 0.9569 -0.2256
C15F C 0.20410(12) 0.8056(3) -0.11709(11)
H5F H 0.1854 0.8823 -0.1176
H6F H 0.1750 0.7469 -0.1288
C16F C 0.22929(11) 0.7787(2) -0.05691(11)
C17F C 0.24303(12) 0.6602(2) -0.04179(11)
C18F C 0.23568(13) 0.5655(3) -0.08214(13)
H7F H 0.2225 0.5832 -0.1196
C19F C 0.24726(15) 0.4514(3) -0.06768(15)
H8F H 0.2409 0.3916 -0.0946
C20F C 0.23605(12) 0.8684(2) -0.01570(11)
C21F C 0.22308(14) 0.9908(3) -0.02816(13)
H9F H 0.2088 1.0118 -0.0649
C22F C 0.23095(16) 1.0764(3) 0.01166(15)
H10F H 0.2219 1.1546 0.0019
C23F C 0.36771(17) 0.1811(3) -0.07518(17)
H11F H 0.3461 0.1415 -0.1065
H12F H 0.4040 0.1427 -0.0664
H13F H 0.3472 0.1776 -0.0430
C24F C 0.43526(17) 0.3429(3) 0.00508(15)
H14F H 0.4542 0.4072 0.0262
H15F H 0.4056 0.3120 0.0250
H16F H 0.4624 0.2813 0.0005
C25F C 0.37102(12) 0.7768(2) -0.27444(12)
C26F C 0.39571(15) 0.9515(3) -0.32509(16)
H17F H 0.4336 0.9199 -0.3164
H18F H 0.3896 0.9752 -0.3640
H19F H 0.3913 1.0190 -0.3015
C27F C 0.42599(17) 0.6732(4) -0.33823(15)
H20F H 0.4042 0.7226 -0.3657
H21F H 0.4654 0.6749 -0.3442
H22F H 0.4120 0.5932 -0.3420
Cl1F Cl 0.28517(4) 0.62212(7) -0.32867(3)
Cl2F Cl 0.43517(3) 0.90691(7) -0.18548(4)
N1F N 0.32938(10) 0.51139(19) -0.20824(10)
N2F N 0.40227(10) 0.6643(2) -0.13356(10)
N3F N 0.24507(9) 0.80736(19) -0.15915(9)
O1F O 0.19469(8) 0.68540(19) -0.22476(8)
O2F O 0.31274(9) 0.92932(18) -0.11161(8)
O3F O 0.35456(8) 0.86184(18) -0.31512(8)
O4F O 0.42054(9) 0.71624(19) -0.28252(9)
C28 C 0.0394(2) 0.2427(6) 0.40365(19)
H23 H 0.0256 0.1910 0.3748
C29 C 0.0797(2) 0.2056(4) 0.4460(2)
H24 H 0.0934 0.1283 0.4461
C30 C 0.09963(19) 0.2804(6) 0.4877(2)
H25 H 0.1273 0.2543 0.5163
C31 C 0.0806(3) 0.3909(6) 0.4888(2)
H26 H 0.0945 0.4414 0.5182
C32 C 0.0396(3) 0.4313(5) 0.4460(3)
H27 H 0.0260 0.5088 0.4461
C33 C 0.0200(2) 0.3542(6) 0.4040(2)
H28 H -0.0074 0.3796 0.3751
C34 C 0.0000 0.3037(6) 0.2500
H29 H 0.0000 0.3863 0.2500
C35 C 0.04857(19) 0.2461(5) 0.25163(19)
H30 H 0.0824 0.2886 0.2524
C36 C 0.0503(3) 0.1282(7) 0.2522(2)
H31 H 0.0851 0.0888 0.2540
C37 C 0.0000 0.0645(7) 0.2500
H32 H 0.0000 -0.0180 0.2500
C35A C -0.04857(19) 0.2461(5) 0.24837(19)
H30A H -0.0824 0.2886 0.2476
C36A C -0.0503(3) 0.1282(7) 0.2478(2)
H31A H -0.0851 0.0888 0.2460
loop_
_geom_bond_atom_site_label_1
_geom_bond_atom_site_label_2
_geom_bond_site_symmetry_1
_geom_bond_site_symmetry_2
C1 C2 1_555 1_555
C2 C9 1_555 1_555
C3 C4 1_555 1_555
C4 H1 1_555 1_555
C5 C4 1_555 1_555
C6 C5 1_555 1_555
C7 C6 1_555 1_555
H2 C7 1_555 1_555
C8 C3 1_555 1_555
C9 C10 1_555 1_555
C10 C14 1_555 1_555
C11 C1 1_555 1_555
H3 C11 1_555 1_555
C12 C11 1_555 1_555
C13 C14 1_555 1_555
C14 C11 1_555 1_555
H4 C14 1_555 1_555
C15 H5 1_555 1_555
H6 C15 1_555 1_555
C16 C15 1_555 1_555
C17 C16 1_555 1_555
C18 C17 1_555 1_555
H7 C18 1_555 1_555
C19 C18 1_555 1_555
H8 C19 1_555 1_555
C20 C16 1_555 1_555
C21 C20 1_555 1_555
H9 C21 1_555 1_555
C22 C21 1_555 1_555
H10 C22 1_555 1_555
C23 C5 1_555 1_555
H11 C23 1_555 1_555
H12 C23 1_555 1_555
H13 C23 1_555 1_555
C24 C6 1_555 1_555
H14 C24 1_555 1_555
H15 C24 1_555 1_555
H16 C24 1_555 1_555
C25 C1 1_555 1_555
C26 H17 1_555 1_555
H18 C26 1_555 1_555
H19 C26 1_555 1_555
C27 H20 1_555 1_555
H21 C27 1_555 1_555
H22 C27 1_555 1_555
Cl1 C1 1_555 1_555
Cl2 C10 1_555 1_555
N1 C2 1_555 1_555
N2 C8 1_555 1_555
N3 C12 1_555 1_555
O1 C12 1_555 1_555
O2 C13 1_555 1_555
O3 C25 1_555 1_555
O4 C25 1_555 1_555
C28 H23 1_555 1_555
C29 C28 1_555 1_555
H24 C29 1_555 1_555
C30 C29 1_555 1_555
H25 C30 1_555 1_555
C31 C30 1_555 1_555
H26 C31 1_555 1_555
C32 C31 1_555 1_555
H27 C32 1_555 1_555
C33 C28 1_555 1_555
H28 C33 1_555 1_555
C34 H29 1_555 1_555
C35 C34 1_555 1_555
H30 C35 1_555 1_555
C36 C35 1_555 1_555
H31 C36 1_555 1_555
C37 C36 1_555 1_555
H32 C37 1_555 1_555
C1F C2F 1_555 1_555
C2F C9F 1_555 1_555
C3F C4F 1_555 1_555
C4F H1F 1_555 1_555
C5F C4F 1_555 1_555
C6F C5F 1_555 1_555
C7F C6F 1_555 1_555
H2F C7F 1_555 1_555
C8F C3F 1_555 1_555
C9F C10F 1_555 1_555
C10F C14F 1_555 1_555
C11F C1F 1_555 1_555
H3F C11F 1_555 1_555
C12F C11F 1_555 1_555
C13F C14F 1_555 1_555
C14F C11F 1_555 1_555
H4F C14F 1_555 1_555
C15F H5F 1_555 1_555
H6F C15F 1_555 1_555
C16F C15F 1_555 1_555
C17F C20 1_555 1_555
C18F C17F 1_555 1_555
H7F C18F 1_555 1_555
C19F C22 1_555 1_555
H8F C19F 1_555 1_555
C20F C17 1_555 1_555
C21F C20F 1_555 1_555
H9F C21F 1_555 1_555
C22F C19 1_555 1_555
H10F C22F 1_555 1_555
C23F C5F 1_555 1_555
H11F C23F 1_555 1_555
H12F C23F 1_555 1_555
H13F C23F 1_555 1_555
C24F C6F 1_555 1_555
H14F C24F 1_555 1_555
H15F C24F 1_555 1_555
H16F C24F 1_555 1_555
C25F C1F 1_555 1_555
C26F H17F 1_555 1_555
H18F C26F 1_555 1_555
H19F C26F 1_555 1_555
C27F H20F 1_555 1_555
H21F C27F 1_555 1_555
H22F C27F 1_555 1_555
Cl1F C1F 1_555 1_555
Cl2F C10F 1_555 1_555
N1F C2F 1_555 1_555
N2F C8F 1_555 1_555
N3F C12F 1_555 1_555
O1F C12F 1_555 1_555
O2F C13F 1_555 1_555
O3F C25F 1_555 1_555
O4F C25F 1_555 1_555
C35A C34 1_555 1_555
H30A C35A 1_555 1_555
C36A C37 1_555 1_555
H31A C36A 1_555 1_555
C3 N1 1_555 1_555
C7 C8 1_555 1_555
C9 N2 1_555 1_555
C10 C25 1_555 1_555
C13 N3 1_555 1_555
C15 N3 1_555 1_555
C26 O3 1_555 1_555
C27 O4 1_555 1_555
C32 C33 1_555 1_555
C3F N1F 1_555 1_555
C7F C8F 1_555 1_555
C9F N2F 1_555 1_555
C10F C25F 1_555 1_555
C13F N3F 1_555 1_555
C15F N3F 1_555 1_555
C16F C17F 1_555 1_555
C16F C20F 1_555 1_555
C18F C19F 1_555 1_555
C21F C22F 1_555 1_555
C26F O3F 1_555 1_555
C27F O4F 1_555 1_555
C35A C36A 1_555 1_555

#END
