
#######################################################################
#
#                 Cambridge Crystallographic Data Centre
#                                CCDC 
#
#######################################################################
#
# If this CIF has been generated from an entry in the Cambridge 
# Structural Database, then it will include bibliographic, chemical, 
# crystal, experimental, refinement or atomic coordinate data resulting 
# from the CCDC's data processing and validation procedures.
#
#######################################################################

data_XULQUS
_chemical_formula_moiety         'C22 H14 O3'
_chemical_name_systematic        5-(9-Anthryl)-2-hydroxyisophthalaldehyde
_symmetry_cell_setting           monoclinic
_symmetry_space_group_name_H-M   'P 21/n'
_symmetry_Int_Tables_number      14
_space_group_name_Hall           '-P 2yn'
loop_
_symmetry_equiv_pos_site_id
_symmetry_equiv_pos_as_xyz
1 x,y,z
2 1/2-x,1/2+y,1/2-z
3 -x,-y,-z
4 1/2+x,1/2-y,1/2+z
_cell_length_a                   9.9711(8)
_cell_length_b                   8.5750(7)
_cell_length_c                   18.8530(15)
_cell_angle_alpha                90
_cell_angle_beta                 98.4541(12)
_cell_angle_gamma                90
_cell_volume                     1594.46
_exptl_crystal_colour            yellow
_exptl_crystal_description       polyhedron
_cell_formula_units_Z            4
loop_
_atom_site_label
_atom_site_type_symbol
_atom_site_fract_x
_atom_site_fract_y
_atom_site_fract_z
C1 C 0.30780(16) 0.90180(18) 0.27942(8)
C2 C 0.18060(16) 0.83980(19) 0.28433(8)
H1 H 0.1356 0.7808 0.2453
C3 C 0.11699(17) 0.8613(2) 0.34455(9)
O1 O 0.12427(17) 0.96781(18) 0.46272(7)
H2 H 0.030(4) 0.903(5) 0.4512(18)
C4 C 0.18167(19) 0.9493(2) 0.40269(8)
C5 C 0.30681(19) 1.0176(2) 0.39793(8)
C6 C 0.36840(17) 0.99149(19) 0.33704(8)
H3 H 0.4547 1.0365 0.3348
O2 O -0.07248(16) 0.7915(2) 0.40029(8)
C7 C -0.0127(2) 0.7862(3) 0.34814(11)
H4 H -0.0535 0.7294 0.3074
O3 O 0.48553(19) 1.1746(2) 0.45515(9)
C8 C 0.3769(3) 1.1157(2) 0.45667(10)
H5 H 0.3336 1.1328 0.4976
C9 C 0.19529(17) 1.01635(19) 0.13652(8)
H6 H 0.1497 1.0378 0.1763
C10 C 0.14313(19) 1.0722(2) 0.07058(9)
H7 H 0.0624 1.1325 0.0651
C11 C 0.2083(2) 1.0411(2) 0.01000(9)
H8 H 0.1714 1.0813 -0.0357
C12 C 0.3228(2) 0.9542(2) 0.01733(9)
H9 H 0.3648 0.9328 -0.0237
C13 C 0.38183(17) 0.8941(2) 0.08554(8)
C14 C 0.50016(18) 0.8051(2) 0.09342(9)
H10 H 0.5430 0.7849 0.0526
C15 C 0.55697(17) 0.7453(2) 0.15952(9)
C16 C 0.67354(19) 0.6464(2) 0.16622(11)
H11 H 0.7155 0.6251 0.1252
C17 C 0.7251(2) 0.5827(3) 0.23001(12)
H12 H 0.8006 0.5142 0.2331
C18 C 0.66704(19) 0.6177(2) 0.29230(11)
H13 H 0.7050 0.5738 0.3370
C19 C 0.55738(17) 0.7137(2) 0.28892(9)
H14 H 0.5214 0.7376 0.3316
C20 C 0.49537(16) 0.77909(19) 0.22216(8)
C21 C 0.37584(15) 0.86998(18) 0.21525(8)
C22 C 0.31713(16) 0.92613(18) 0.14714(8)
loop_
_geom_bond_atom_site_label_1
_geom_bond_atom_site_label_2
_geom_bond_site_symmetry_1
_geom_bond_site_symmetry_2
C1 C2 1_555 1_555
C2 H1 1_555 1_555
C3 C2 1_555 1_555
O1 H2 1_555 1_555
C4 C3 1_555 1_555
C5 C4 1_555 1_555
C6 C1 1_555 1_555
H3 C6 1_555 1_555
O2 C7 1_555 1_555
C7 C3 1_555 1_555
H4 C7 1_555 1_555
O3 C8 1_555 1_555
C8 C5 1_555 1_555
H5 C8 1_555 1_555
C9 H6 1_555 1_555
C10 C9 1_555 1_555
H7 C10 1_555 1_555
C11 C10 1_555 1_555
H8 C11 1_555 1_555
C12 C11 1_555 1_555
H9 C12 1_555 1_555
C13 C12 1_555 1_555
C14 C13 1_555 1_555
H10 C14 1_555 1_555
C15 C14 1_555 1_555
C16 C15 1_555 1_555
H11 C16 1_555 1_555
C17 C16 1_555 1_555
H12 C17 1_555 1_555
C18 C17 1_555 1_555
H13 C18 1_555 1_555
C19 C18 1_555 1_555
H14 C19 1_555 1_555
C20 C15 1_555 1_555
C21 C1 1_555 1_555
C22 C9 1_555 1_555
O1 C4 1_555 1_555
C5 C6 1_555 1_555
C13 C22 1_555 1_555
C19 C20 1_555 1_555
C20 C21 1_555 1_555
C21 C22 1_555 1_555

#END
