
#######################################################################
#
#                 Cambridge Crystallographic Data Centre
#                                CCDC 
#
#######################################################################
#
# If this CIF has been generated from an entry in the Cambridge 
# Structural Database, then it will include bibliographic, chemical, 
# crystal, experimental, refinement or atomic coordinate data resulting 
# from the CCDC's data processing and validation procedures.
#
#######################################################################

data_XULWUW
_chemical_formula_moiety         'C23 H23 N3 O3 S1'
_chemical_name_systematic        
N-(6-Methoxy-2-methyl-8-quinolyl)-((5-dimethylamino)-1-naphthyl)sulfonamide
_symmetry_cell_setting           triclinic
_symmetry_space_group_name_H-M   'P -1'
_symmetry_Int_Tables_number      2
_space_group_name_Hall           '-P 1'
loop_
_symmetry_equiv_pos_site_id
_symmetry_equiv_pos_as_xyz
1 x,y,z
2 -x,-y,-z
_cell_length_a                   9.344(5)
_cell_length_b                   13.702(3)
_cell_length_c                   8.289(3)
_cell_angle_alpha                94.74(3)
_cell_angle_beta                 100.04(3)
_cell_angle_gamma                104.06(3)
_cell_volume                     1004.98
_exptl_crystal_colour            'pale yellow'
_exptl_crystal_description       block
_cell_formula_units_Z            2
loop_
_atom_site_label
_atom_site_type_symbol
_atom_site_fract_x
_atom_site_fract_y
_atom_site_fract_z
S1 S 0.46836(4) -0.37394(3) 0.18212(5)
O1 O 0.83331(14) -0.01427(9) 0.11295(16)
O2 O 0.39545(13) -0.45593(9) 0.26079(15)
O3 O 0.61786(12) -0.36693(9) 0.15615(15)
N1 N 0.30638(15) -0.14197(10) 0.34369(16)
H1 H 0.3821 -0.2707 0.3309
N2 N 0.47348(14) -0.27040(10) 0.30180(16)
N3 N -0.10592(15) -0.32795(11) -0.35132(17)
C1 C 0.22020(18) -0.08083(13) 0.3679(2)
C2 C 0.0739(2) -0.12483(15) 0.4195(2)
H2 H 0.0637 -0.1967 0.4308
H3 H -0.0101 -0.1183 0.3357
H4 H 0.0726 -0.0882 0.5257
C3 C 0.2606(2) 0.02222(13) 0.3430(2)
H5 H 0.1970 0.0645 0.3633
C4 C 0.3902(2) 0.06145(13) 0.2898(2)
H6 H 0.4171 0.1308 0.2733
C5 C 0.48460(18) -0.00208(12) 0.2593(2)
C6 C 0.61990(19) 0.03179(12) 0.1993(2)
H7 H 0.6529 0.1002 0.1796
C7 C 0.70157(18) -0.03631(12) 0.1706(2)
C8 C 0.8888(2) 0.08784(13) 0.0814(2)
H8 H 0.9828 0.0943 0.0411
H9 H 0.9076 0.1343 0.1838
H10 H 0.8138 0.1048 -0.0022
C9 C 0.65585(17) -0.13830(12) 0.2016(2)
H11 H 0.7151 -0.1838 0.1820
C10 C 0.52651(17) -0.17126(11) 0.25970(18)
C11 C 0.43610(17) -0.10354(12) 0.28912(18)
C12 C 0.35423(16) -0.36746(11) -0.00906(18)
C13 C 0.42490(18) -0.35533(13) -0.1404(2)
H12 H 0.5263 -0.3591 -0.1295
C14 C 0.34739(19) -0.33731(14) -0.2913(2)
H13 H 0.3966 -0.3286 -0.3823
C15 C 0.20123(18) -0.33223(13) -0.3077(2)
H14 H 0.1515 -0.3172 -0.4090
C16 C 0.12205(16) -0.34887(11) -0.17660(18)
C17 C -0.03222(16) -0.34509(11) -0.19511(19)
C18 C -0.2375(2) -0.28852(15) -0.3485(2)
H15 H -0.2805 -0.2791 -0.4608
H16 H -0.2072 -0.2233 -0.2772
H17 H -0.3129 -0.3368 -0.3055
C19 C -0.1466(2) -0.41590(15) -0.4797(2)
H18 H -0.1966 -0.3984 -0.5832
H19 H -0.2149 -0.4729 -0.4449
H20 H -0.0553 -0.4351 -0.4966
C20 C -0.10051(18) -0.35418(13) -0.0611(2)
H21 H -0.2010 -0.3487 -0.0711
C21 C -0.02350(18) -0.37150(13) 0.0905(2)
H22 H -0.0735 -0.3782 0.1810
C22 C 0.12164(17) -0.37896(12) 0.1111(2)
H23 H 0.1704 -0.3926 0.2141
C23 C 0.19932(16) -0.36631(11) -0.02126(18)
loop_
_geom_bond_atom_site_label_1
_geom_bond_atom_site_label_2
_geom_bond_site_symmetry_1
_geom_bond_site_symmetry_2
S1 O2 1_555 1_555
O1 C7 1_555 1_555
O3 S1 1_555 1_555
N1 C1 1_555 1_555
H1 N2 1_555 1_555
N2 S1 1_555 1_555
N3 C17 1_555 1_555
C1 C2 1_555 1_555
C2 H2 1_555 1_555
H3 C2 1_555 1_555
H4 C2 1_555 1_555
C3 C1 1_555 1_555
H5 C3 1_555 1_555
C4 C3 1_555 1_555
H6 C4 1_555 1_555
C5 C4 1_555 1_555
C6 C5 1_555 1_555
H7 C6 1_555 1_555
C7 C6 1_555 1_555
C8 O1 1_555 1_555
H8 C8 1_555 1_555
H9 C8 1_555 1_555
H10 C8 1_555 1_555
C9 C7 1_555 1_555
H11 C9 1_555 1_555
C10 N2 1_555 1_555
C11 N1 1_555 1_555
C12 S1 1_555 1_555
C13 C12 1_555 1_555
H12 C13 1_555 1_555
C14 C13 1_555 1_555
H13 C14 1_555 1_555
C15 C14 1_555 1_555
H14 C15 1_555 1_555
C16 C15 1_555 1_555
C17 C16 1_555 1_555
C18 N3 1_555 1_555
H15 C18 1_555 1_555
H16 C18 1_555 1_555
H17 C18 1_555 1_555
C19 N3 1_555 1_555
H18 C19 1_555 1_555
H19 C19 1_555 1_555
H20 C19 1_555 1_555
C20 C17 1_555 1_555
H21 C20 1_555 1_555
C21 C20 1_555 1_555
H22 C21 1_555 1_555
C22 C21 1_555 1_555
H23 C22 1_555 1_555
C23 C12 1_555 1_555
C5 C11 1_555 1_555
C9 C10 1_555 1_555
C10 C11 1_555 1_555
C16 C23 1_555 1_555
C22 C23 1_555 1_555

#END
