
#######################################################################
#
#                 Cambridge Crystallographic Data Centre
#                                CCDC 
#
#######################################################################
#
# If this CIF has been generated from an entry in the Cambridge 
# Structural Database, then it will include bibliographic, chemical, 
# crystal, experimental, refinement or atomic coordinate data resulting 
# from the CCDC's data processing and validation procedures.
#
#######################################################################

data_XULWIK
_chemical_formula_moiety         'C16 H18 O4 Se1'
_chemical_name_systematic        
2-(1-(Phenylselenonyl)-1-(phenyl)ethoxy)ethanol
_symmetry_cell_setting           monoclinic
_symmetry_space_group_name_H-M   'P 21/c'
_symmetry_Int_Tables_number      14
_space_group_name_Hall           '-P 2ybc'
loop_
_symmetry_equiv_pos_site_id
_symmetry_equiv_pos_as_xyz
1 x,y,z
2 -x,1/2+y,1/2-z
3 -x,-y,-z
4 x,1/2-y,1/2+z
_cell_length_a                   9.831(6)
_cell_length_b                   17.720(8)
_cell_length_c                   9.706(6)
_cell_angle_alpha                90
_cell_angle_beta                 112.72(4)
_cell_angle_gamma                90
_cell_volume                     1559.63
_exptl_crystal_colour            colorless
_exptl_crystal_description       plate
_chemical_melting_point          '120-121 deg.C'
_cell_formula_units_Z            4
_exptl_crystal_recrystallization_method ether/hexane
loop_
_atom_site_label
_atom_site_type_symbol
_atom_site_fract_x
_atom_site_fract_y
_atom_site_fract_z
Se1 Se 0.40463(3) 0.534088(17) -0.22579(3)
O1 O 0.1262(3) 0.60408(15) -0.0396(3)
H1 H 0.1761 0.5681 -0.0789
O2 O 0.3310(2) 0.68887(12) -0.1315(2)
O3 O 0.3225(3) 0.50596(12) -0.1179(2)
O4 O 0.5048(3) 0.47146(13) -0.2642(3)
C1 C 0.2024(4) 0.6679(2) 0.0377(4)
H2 H 0.2917 0.6517 0.1190
H3 H 0.1416 0.6941 0.0807
C2 C 0.2424(4) 0.7214(2) -0.0596(4)
H4 H 0.1525 0.7408 -0.1356
H5 H 0.2953 0.7637 0.0007
C3 C 0.4726(3) 0.66275(18) -0.0347(3)
H6 H 0.4617 0.6284 0.0395
C4 C 0.5315(3) 0.61954(17) -0.1336(3)
H7 H 0.6302 0.6016 -0.0747
H8 H 0.5371 0.6527 -0.2107
C5 C 0.2535(3) 0.56296(17) -0.4121(3)
C6 C 0.2789(4) 0.55126(17) -0.5414(4)
H9 H 0.3711 0.5360 -0.5364
C7 C 0.1649(5) 0.5627(2) -0.6770(4)
H10 H 0.1790 0.5544 -0.7652
C8 C 0.0297(4) 0.5867(2) -0.6820(4)
H11 H -0.0473 0.5942 -0.7739
C9 C 0.0072(4) 0.5998(2) -0.5520(4)
H12 H -0.0839 0.6169 -0.5569
C10 C 0.1195(4) 0.58757(19) -0.4156(4)
H13 H 0.1051 0.5958 -0.3275
C11 C 0.5790(3) 0.72556(17) 0.0449(3)
C12 C 0.5707(4) 0.79560(19) -0.0194(4)
H14 H 0.4961 0.8057 -0.1118
C13 C 0.6731(4) 0.8513(2) 0.0528(4)
H15 H 0.6667 0.8984 0.0087
C14 C 0.7829(4) 0.8369(2) 0.1878(4)
H16 H 0.8523 0.8739 0.2354
C15 C 0.7906(4) 0.7676(2) 0.2535(4)
H17 H 0.8648 0.7579 0.3463
C16 C 0.6897(4) 0.71215(19) 0.1831(4)
H18 H 0.6959 0.6654 0.2287
loop_
_geom_bond_atom_site_label_1
_geom_bond_atom_site_label_2
_geom_bond_site_symmetry_1
_geom_bond_site_symmetry_2
Se1 O3 1_555 1_555
O1 H1 1_555 1_555
O2 C2 1_555 1_555
O4 Se1 1_555 1_555
C1 O1 1_555 1_555
H2 C1 1_555 1_555
H3 C1 1_555 1_555
C2 C1 1_555 1_555
H4 C2 1_555 1_555
H5 C2 1_555 1_555
C3 O2 1_555 1_555
H6 C3 1_555 1_555
C4 Se1 1_555 1_555
H7 C4 1_555 1_555
H8 C4 1_555 1_555
C5 Se1 1_555 1_555
C6 C5 1_555 1_555
H9 C6 1_555 1_555
C7 C6 1_555 1_555
H10 C7 1_555 1_555
C8 C7 1_555 1_555
H11 C8 1_555 1_555
C9 C8 1_555 1_555
H12 C9 1_555 1_555
C10 C5 1_555 1_555
H13 C10 1_555 1_555
C11 C3 1_555 1_555
C12 C11 1_555 1_555
H14 C12 1_555 1_555
C13 C12 1_555 1_555
H15 C13 1_555 1_555
C14 C13 1_555 1_555
H16 C14 1_555 1_555
C15 C14 1_555 1_555
H17 C15 1_555 1_555
C16 C11 1_555 1_555
H18 C16 1_555 1_555
C3 C4 1_555 1_555
C9 C10 1_555 1_555
C15 C16 1_555 1_555

#END
