
#######################################################################
#
#                 Cambridge Crystallographic Data Centre
#                                CCDC 
#
#######################################################################
#
# If this CIF has been generated from an entry in the Cambridge 
# Structural Database, then it will include bibliographic, chemical, 
# crystal, experimental, refinement or atomic coordinate data resulting 
# from the CCDC's data processing and validation procedures.
#
#######################################################################

data_XUMHEU
_chemical_formula_moiety         
'C66 H168 Mg13 N24 2+,2(C32 H12 B1 F24 1-),3(C5 H12),C4 H8 O1'
_chemical_name_systematic        
'hexakis(\m~3~-Hydrido)-hexakis(1,4,7-trimethyl-1,4,7,10-tetra-azacyclododecane)-dodecakis(\m~2~-hydrido)-trideca-magnesium bis(tetrakis(3,5-bis(trifluoromethyl)phenyl)borate) n-pentane tetrahydrofuran solvate'
_symmetry_cell_setting           triclinic
_symmetry_space_group_name_H-M   'P -1'
_symmetry_Int_Tables_number      2
_space_group_name_Hall           '-P 1'
loop_
_symmetry_equiv_pos_site_id
_symmetry_equiv_pos_as_xyz
1 x,y,z
2 -x,-y,-z
_cell_length_a                   14.5664(13)
_cell_length_b                   17.7966(16)
_cell_length_c                   18.8970(17)
_cell_angle_alpha                69.3318(17)
_cell_angle_beta                 84.6512(18)
_cell_angle_gamma                81.0978(18)
_cell_volume                     4524.27
_exptl_crystal_colour            colorless
_exptl_crystal_description       block
_cell_formula_units_Z            1
_chemical_properties_physical    
'Air-sensitive, Moisture-sensitive, Hygroscopic, Oxygen-sensitive'
_exptl_crystal_recrystallization_method tetrahydrofuran/pentane
loop_
_atom_site_label
_atom_site_type_symbol
_atom_site_fract_x
_atom_site_fract_y
_atom_site_fract_z
Mg1 Mg 0.0000 0.0000 0.5000
H1 H -0.029(2) -0.0594(18) 0.4386(17)
H2 H -0.051(2) 0.0920(18) 0.4121(17)
Mg2 Mg -0.08715(7) 0.03610(6) 0.34160(6)
Mg3 Mg 0.07654(7) 0.13133(6) 0.35175(6)
Mg4 Mg -0.15416(7) -0.10365(6) 0.48622(6)
Mg5 Mg -0.08288(7) 0.21576(6) 0.25241(6)
Mg6 Mg 0.27860(7) 0.13504(6) 0.37522(6)
Mg7 Mg -0.11447(7) -0.12362(6) 0.33085(6)
H3 H 0.012(2) 0.0939(18) 0.2899(17)
H4 H -0.186(2) -0.0252(18) 0.3902(17)
H5 H -0.073(2) -0.0310(18) 0.2809(17)
H6 H 0.132(2) 0.1789(18) 0.4099(17)
H7 H 0.011(2) 0.2337(18) 0.2972(17)
H8 H -0.280(2) -0.1009(18) 0.5229(17)
N1 N -0.17921(17) 0.13686(16) 0.26986(14)
N2 N -0.06622(18) 0.20035(17) 0.13463(15)
N3 N -0.12615(18) 0.34033(16) 0.17613(15)
N4 N -0.19356(17) 0.26085(16) 0.33036(15)
N5 N 0.20750(17) 0.13695(16) 0.28493(14)
N6 N 0.33182(18) 0.00629(17) 0.36959(16)
N7 N 0.43079(19) 0.14156(18) 0.35220(16)
N8 N 0.27900(18) 0.26913(16) 0.30387(15)
N9 N -0.14470(17) -0.19954(15) 0.43826(14)
N10 N 0.02859(18) -0.20052(16) 0.36034(15)
N11 N -0.09666(18) -0.17855(16) 0.24186(15)
N12 N -0.26654(18) -0.13483(16) 0.31392(15)
C1 C -0.1964(2) 0.1234(2) 0.20041(18)
H9 H -0.2453 0.1658 0.1723
H10 H -0.2190 0.0702 0.2135
C2 C -0.1090(2) 0.1252(2) 0.15112(19)
H11 H -0.0636 0.0779 0.1766
H12 H -0.1236 0.1206 0.1028
C3 C -0.1212(2) 0.2724(2) 0.08184(18)
H13 H -0.1624 0.2539 0.0543
H14 H -0.0781 0.3051 0.0441
C4 C -0.1797(2) 0.3253(2) 0.12076(19)
H15 H -0.2028 0.3776 0.0823
H16 H -0.2342 0.2987 0.1471
C5 C -0.1866(2) 0.3856(2) 0.2193(2)
H17 H -0.2259 0.4312 0.1839
H18 H -0.1472 0.4084 0.2445
C6 C -0.2486(2) 0.3318(2) 0.2787(2)
H19 H -0.2852 0.3634 0.3081
H20 H -0.2928 0.3136 0.2533
C7 C -0.2497(2) 0.1932(2) 0.36478(19)
H21 H -0.3104 0.2139 0.3838
H22 H -0.2173 0.1520 0.4084
C8 C -0.2657(2) 0.1545(2) 0.3089(2)
H23 H -0.2928 0.1037 0.3357
H24 H -0.3104 0.1914 0.2716
C9 C 0.0275(2) 0.1864(2) 0.10118(19)
H25 H 0.0646 0.1413 0.1380
H26 H 0.0577 0.2354 0.0877
H27 H 0.0227 0.1731 0.0557
C10 C -0.0486(2) 0.3863(2) 0.1389(2)
H28 H -0.0042 0.3541 0.1152
H29 H -0.0172 0.3981 0.1767
H30 H -0.0727 0.4371 0.1002
C11 C -0.1566(2) 0.2805(2) 0.3905(2)
H31 H -0.1163 0.2332 0.4217
H32 H -0.2082 0.2953 0.4223
H33 H -0.1206 0.3261 0.3678
C12 C 0.2341(2) 0.0691(2) 0.2583(2)
H34 H 0.2865 0.0807 0.2203
H35 H 0.1811 0.0613 0.2335
C13 C 0.2623(2) -0.0060(2) 0.3227(2)
H36 H 0.2893 -0.0496 0.3028
H37 H 0.2066 -0.0236 0.3549
C14 C 0.4241(2) 0.0109(2) 0.3328(2)
H38 H 0.4187 0.0375 0.2774
H39 H 0.4577 -0.0443 0.3428
C15 C 0.4795(5) 0.0606(5) 0.3639(5)
H40 H 0.4883 0.0319 0.4187
H41 H 0.5417 0.0647 0.3379
C16 C 0.4332(5) 0.1993(5) 0.2792(5)
H42 H 0.4189 0.1735 0.2436
H43 H 0.4979 0.2118 0.2670
C17 C 0.3713(2) 0.2771(2) 0.2633(2)
H44 H 0.3620 0.3010 0.2082
H45 H 0.4023 0.3149 0.2778
C18 C 0.2041(2) 0.2834(2) 0.25093(19)
H46 H 0.2109 0.3336 0.2073
H47 H 0.1431 0.2914 0.2770
C19 C 0.2056(2) 0.2139(2) 0.22214(18)
H48 H 0.1498 0.2227 0.1926
H49 H 0.2612 0.2120 0.1881
C20 C 0.3338(3) -0.0602(2) 0.4428(2)
H50 H 0.3756 -0.0512 0.4759
H51 H 0.3562 -0.1117 0.4349
H52 H 0.2710 -0.0623 0.4664
C21 C 0.4688(5) 0.1721(5) 0.4098(5)
H53 H 0.4597 0.1339 0.4612
H54 H 0.4355 0.2255 0.4059
H55 H 0.5353 0.1761 0.3986
C22 C 0.2574(3) 0.3296(2) 0.3421(2)
H56 H 0.1979 0.3221 0.3709
H57 H 0.2532 0.3842 0.3042
H58 H 0.3068 0.3226 0.3767
C23 C -0.0718(2) -0.2665(2) 0.47072(19)
H59 H -0.0794 -0.3131 0.4557
H60 H -0.0772 -0.2840 0.5267
C24 C 0.0228(2) -0.2404(2) 0.44330(18)
H61 H 0.0357 -0.2025 0.4678
H62 H 0.0709 -0.2884 0.4583
C25 C 0.0349(2) -0.2597(2) 0.3212(2)
H63 H -0.0022 -0.3037 0.3503
H64 H 0.1005 -0.2840 0.3185
C26 C -0.0002(2) -0.2197(2) 0.24274(19)
H65 H 0.0411 -0.1796 0.2124
H66 H 0.0025 -0.2612 0.2185
C27 C -0.1649(2) -0.2375(2) 0.2683(2)
H67 H -0.1470 -0.2781 0.3180
H68 H -0.1641 -0.2663 0.2320
C28 C -0.2625(2) -0.1954(2) 0.2758(2)
H69 H -0.2873 -0.1680 0.2246
H70 H -0.3030 -0.2368 0.3048
C29 C -0.3025(2) -0.1654(2) 0.39358(19)
H71 H -0.3607 -0.1884 0.3954
H72 H -0.3176 -0.1196 0.4126
C30 C -0.2342(2) -0.2293(2) 0.44471(19)
H73 H -0.2588 -0.2438 0.4978
H74 H -0.2258 -0.2786 0.4307
C31 C 0.1091(2) -0.1551(2) 0.3386(2)
H75 H 0.1030 -0.1151 0.3641
H76 H 0.1116 -0.1272 0.2837
H77 H 0.1664 -0.1927 0.3536
C32 C -0.1154(2) -0.1214(2) 0.16529(19)
H78 H -0.1781 -0.0919 0.1650
H79 H -0.1109 -0.1512 0.1300
H80 H -0.0698 -0.0829 0.1497
C33 C -0.3286(2) -0.0613(2) 0.2738(2)
H81 H -0.3276 -0.0202 0.2971
H82 H -0.3921 -0.0743 0.2770
H83 H -0.3073 -0.0403 0.2205
H84 H 0.122(2) 0.0334(18) 0.4497(17)
H1A H 0.029(2) 0.0594(18) 0.5614(17)
H2A H 0.051(2) -0.0920(18) 0.5879(17)
Mg2A Mg 0.08715(7) -0.03610(6) 0.65840(6)
Mg3A Mg -0.07654(7) -0.13133(6) 0.64825(6)
Mg4A Mg 0.15416(7) 0.10365(6) 0.51378(6)
Mg5A Mg 0.08288(7) -0.21576(6) 0.74759(6)
Mg6A Mg -0.27860(7) -0.13504(6) 0.62478(6)
Mg7A Mg 0.11447(7) 0.12362(6) 0.66915(6)
H3A H -0.012(2) -0.0939(18) 0.7101(17)
H4A H 0.186(2) 0.0252(18) 0.6098(17)
H5A H 0.073(2) 0.0310(18) 0.7191(17)
H6A H -0.132(2) -0.1789(18) 0.5901(17)
H7A H -0.011(2) -0.2337(18) 0.7028(17)
H8A H 0.280(2) 0.1009(18) 0.4771(17)
N1A N 0.17921(17) -0.13686(16) 0.73014(14)
N2A N 0.06622(18) -0.20035(17) 0.86537(15)
N3A N 0.12615(18) -0.34033(16) 0.82387(15)
N4A N 0.19356(17) -0.26085(16) 0.66964(15)
N5A N -0.20750(17) -0.13695(16) 0.71507(14)
N6A N -0.33182(18) -0.00629(17) 0.63041(16)
N7A N -0.43079(19) -0.14156(18) 0.64780(16)
N8A N -0.27900(18) -0.26913(16) 0.69613(15)
N9A N 0.14470(17) 0.19954(15) 0.56174(14)
N10A N -0.02859(18) 0.20052(16) 0.63966(15)
N11A N 0.09666(18) 0.17855(16) 0.75814(15)
N12A N 0.26654(18) 0.13483(16) 0.68608(15)
C1A C 0.1964(2) -0.1234(2) 0.79959(18)
H9A H 0.2453 -0.1658 0.8277
H10A H 0.2190 -0.0702 0.7865
C2A C 0.1090(2) -0.1252(2) 0.84888(19)
H11A H 0.0636 -0.0779 0.8234
H12A H 0.1236 -0.1206 0.8972
C3A C 0.1212(2) -0.2724(2) 0.91816(18)
H13A H 0.1624 -0.2539 0.9457
H14A H 0.0781 -0.3051 0.9559
C4A C 0.1797(2) -0.3253(2) 0.87924(19)
H15A H 0.2028 -0.3776 0.9177
H16A H 0.2342 -0.2987 0.8529
C5A C 0.1866(2) -0.3856(2) 0.7807(2)
H17A H 0.2259 -0.4312 0.8161
H18A H 0.1472 -0.4084 0.7555
C6A C 0.2486(2) -0.3318(2) 0.7213(2)
H19A H 0.2852 -0.3634 0.6919
H20A H 0.2928 -0.3136 0.7467
C7A C 0.2497(2) -0.1932(2) 0.63522(19)
H21A H 0.3104 -0.2139 0.6162
H22A H 0.2173 -0.1520 0.5916
C8A C 0.2657(2) -0.1545(2) 0.6911(2)
H23A H 0.2928 -0.1037 0.6643
H24A H 0.3104 -0.1914 0.7284
C9A C -0.0275(2) -0.1864(2) 0.89882(19)
H25A H -0.0646 -0.1413 0.8620
H26A H -0.0577 -0.2354 0.9123
H27A H -0.0227 -0.1731 0.9443
C10A C 0.0486(2) -0.3863(2) 0.8611(2)
H28A H 0.0042 -0.3541 0.8848
H29A H 0.0172 -0.3981 0.8233
H30A H 0.0727 -0.4371 0.8998
C11A C 0.1566(2) -0.2805(2) 0.6095(2)
H31A H 0.1163 -0.2332 0.5783
H32A H 0.2082 -0.2953 0.5777
H33A H 0.1206 -0.3261 0.6322
C12A C -0.2341(2) -0.0691(2) 0.7417(2)
H34A H -0.2865 -0.0807 0.7797
H35A H -0.1811 -0.0613 0.7665
C13A C -0.2623(2) 0.0060(2) 0.6773(2)
H36A H -0.2893 0.0496 0.6972
H37A H -0.2066 0.0236 0.6451
C14A C -0.4241(2) -0.0109(2) 0.6672(2)
H38A H -0.4187 -0.0375 0.7226
H39A H -0.4577 0.0443 0.6572
C15A C -0.4795(5) -0.0606(5) 0.6361(5)
H40A H -0.4883 -0.0319 0.5813
H41A H -0.5417 -0.0647 0.6621
C16A C -0.4332(5) -0.1993(5) 0.7208(5)
H42A H -0.4189 -0.1735 0.7564
H43A H -0.4979 -0.2118 0.7330
C17A C -0.3713(2) -0.2771(2) 0.7367(2)
H44A H -0.3620 -0.3010 0.7918
H45A H -0.4023 -0.3149 0.7222
C18A C -0.2041(2) -0.2834(2) 0.74907(19)
H46A H -0.2109 -0.3336 0.7927
H47A H -0.1431 -0.2914 0.7230
C19A C -0.2056(2) -0.2139(2) 0.77786(18)
H48A H -0.1498 -0.2227 0.8074
H49A H -0.2612 -0.2120 0.8119
C20A C -0.3338(3) 0.0602(2) 0.5572(2)
H50A H -0.3756 0.0512 0.5241
H51A H -0.3562 0.1117 0.5651
H52A H -0.2710 0.0623 0.5336
C21A C -0.4688(5) -0.1721(5) 0.5902(5)
H53A H -0.4597 -0.1339 0.5388
H54A H -0.4355 -0.2255 0.5941
H55A H -0.5353 -0.1761 0.6014
C22A C -0.2574(3) -0.3296(2) 0.6579(2)
H56A H -0.1979 -0.3221 0.6291
H57A H -0.2532 -0.3842 0.6958
H58A H -0.3068 -0.3226 0.6233
C23A C 0.0718(2) 0.2665(2) 0.52928(19)
H59A H 0.0794 0.3131 0.5443
H60A H 0.0772 0.2840 0.4733
C24A C -0.0228(2) 0.2404(2) 0.55670(18)
H61A H -0.0357 0.2025 0.5322
H62A H -0.0709 0.2884 0.5417
C25A C -0.0349(2) 0.2597(2) 0.6788(2)
H63A H 0.0022 0.3037 0.6497
H64A H -0.1005 0.2840 0.6815
C26A C 0.0002(2) 0.2197(2) 0.75726(19)
H65A H -0.0411 0.1796 0.7876
H66A H -0.0025 0.2612 0.7815
C27A C 0.1649(2) 0.2375(2) 0.7317(2)
H67A H 0.1470 0.2781 0.6820
H68A H 0.1641 0.2663 0.7680
C28A C 0.2625(2) 0.1954(2) 0.7242(2)
H69A H 0.2873 0.1680 0.7754
H70A H 0.3030 0.2368 0.6952
C29A C 0.3025(2) 0.1654(2) 0.60642(19)
H71A H 0.3607 0.1884 0.6046
H72A H 0.3176 0.1196 0.5874
C30A C 0.2342(2) 0.2293(2) 0.55529(19)
H73A H 0.2588 0.2438 0.5022
H74A H 0.2258 0.2786 0.5693
C31A C -0.1091(2) 0.1551(2) 0.6614(2)
H75A H -0.1030 0.1151 0.6359
H76A H -0.1116 0.1272 0.7163
H77A H -0.1664 0.1927 0.6464
C32A C 0.1154(2) 0.1214(2) 0.83471(19)
H78A H 0.1781 0.0919 0.8350
H79A H 0.1109 0.1512 0.8700
H80A H 0.0698 0.0829 0.8503
C33A C 0.3286(2) 0.0613(2) 0.7262(2)
H81A H 0.3276 0.0202 0.7029
H82A H 0.3921 0.0743 0.7230
H83A H 0.3073 0.0403 0.7795
H84A H -0.122(2) -0.0334(18) 0.5503(17)
F1 F -0.08505(15) 0.71465(13) 0.08324(12)
F2 F -0.04271(13) 0.60942(13) 0.05247(10)
F3 F -0.14823(13) 0.60658(15) 0.13998(11)
F4 F -0.02039(19) 0.54361(13) 0.40968(12)
F5 F 0.10716(15) 0.46250(15) 0.41704(11)
F6 F -0.01692(15) 0.43569(13) 0.38544(12)
F7 F 0.5188(6) 0.7790(5) -0.0415(5)
F8 F 0.4264(5) 0.7669(5) -0.1198(4)
F9 F 0.4357(4) 0.8829(3) -0.1175(4)
F10 F 0.06686(15) 0.90435(14) 0.04541(15)
F11 F 0.15146(19) 0.93120(14) 0.11649(13)
F12 F 0.16437(17) 0.98842(13) -0.00383(14)
F13 F 0.3678(5) 0.8112(3) 0.2889(3)
F14 F 0.4976(4) 0.7467(4) 0.3431(4)
F15 F 0.3601(4) 0.7351(4) 0.4082(3)
F16 F 0.51272(18) 0.43979(14) 0.45295(12)
F17 F 0.38495(18) 0.40005(15) 0.44268(13)
F18 F 0.49760(17) 0.39413(13) 0.36484(12)
F19 F 0.1534(4) 0.4162(5) 0.0628(3)
F20 F 0.2118(4) 0.4708(4) -0.0355(3)
F21 F 0.2735(4) 0.3352(3) 0.0404(4)
F22 F 0.59254(12) 0.39459(12) 0.05879(11)
F23 F 0.60582(13) 0.47753(14) 0.11525(12)
F24 F 0.56643(13) 0.36040(14) 0.17894(11)
B1 B 0.2759(2) 0.6157(2) 0.16548(19)
C34 C 0.1684(2) 0.60125(18) 0.19550(16)
C35 C 0.0957(2) 0.62441(18) 0.14588(17)
H85 H 0.1080 0.6543 0.0941
C36 C 0.0061(2) 0.60575(18) 0.16888(17)
C37 C -0.0152(2) 0.56347(19) 0.24406(18)
H86 H -0.0763 0.5504 0.2603
C38 C 0.0549(2) 0.54077(18) 0.29486(17)
C39 C 0.1439(2) 0.55958(18) 0.27133(17)
H87 H 0.1902 0.5437 0.3079
C40 C -0.0671(2) 0.6330(2) 0.11222(18)
C41 C 0.0321(2) 0.4961(2) 0.37656(19)
C42 C 0.2811(2) 0.70513(19) 0.10041(17)
C43 C 0.3527(2) 0.7202(2) 0.04427(17)
H88 H 0.3978 0.6763 0.0420
C44 C 0.3603(2) 0.7973(2) -0.00825(18)
C45 C 0.2969(2) 0.8629(2) -0.00723(18)
H89 H 0.3022 0.9154 -0.0431
C46 C 0.2252(2) 0.8505(2) 0.04730(18)
C47 C 0.2181(2) 0.77297(19) 0.09988(18)
H90 H 0.1682 0.7662 0.1368
C48 C 0.4377(2) 0.8084(2) -0.0672(2)
C49 C 0.1533(3) 0.9185(2) 0.0509(2)
C50 C 0.3360(2) 0.60805(19) 0.23775(17)
C51 C 0.3507(2) 0.6751(2) 0.25573(18)
H91 H 0.3282 0.7278 0.2231
C52 C 0.3971(2) 0.6673(2) 0.3197(2)
C53 C 0.4316(2) 0.5912(2) 0.36856(19)
H92 H 0.4634 0.5857 0.4122
C54 C 0.4185(2) 0.5234(2) 0.35220(18)
C55 C 0.3716(2) 0.5327(2) 0.28840(17)
H93 H 0.3632 0.4855 0.2786
C56 C 0.4111(3) 0.7403(3) 0.3369(2)
C57 C 0.4531(3) 0.4403(2) 0.40263(19)
C58 C 0.3201(2) 0.54444(18) 0.13035(16)
C59 C 0.2663(2) 0.50829(18) 0.09675(16)
H94 H 0.2011 0.5250 0.0945
C60 C 0.3045(2) 0.44907(18) 0.06667(16)
C61 C 0.3986(2) 0.42161(19) 0.06944(16)
H95 H 0.4247 0.3806 0.0494
C62 C 0.4538(2) 0.45592(19) 0.10259(16)
C63 C 0.4153(2) 0.51641(19) 0.13110(16)
H96 H 0.4553 0.5397 0.1520
C64 C 0.2435(2) 0.41477(19) 0.03024(17)
C65 C 0.5539(2) 0.4227(2) 0.11315(18)
C66 C 0.6101(13) 0.6594(10) 0.1670(10)
H97 H 0.5427 0.6615 0.1648
H98 H 0.6405 0.6570 0.1193
H99 H 0.6234 0.7080 0.1752
C67 C 0.6491(15) 0.5795(11) 0.2363(10)
H100 H 0.5986 0.5448 0.2514
H101 H 0.7004 0.5505 0.2139
C68 C 0.6816(15) 0.5792(12) 0.3035(10)
H102 H 0.6284 0.6018 0.3297
H103 H 0.7274 0.6183 0.2892
C69 C 0.7254(14) 0.5040(11) 0.3610(10)
H104 H 0.7852 0.4849 0.3394
H105 H 0.6844 0.4613 0.3726
C70 C 0.7432(14) 0.5162(13) 0.4347(10)
H106 H 0.7934 0.5497 0.4256
H107 H 0.7612 0.4634 0.4734
H108 H 0.6865 0.5431 0.4521
O1 O 0.6496(5) 0.9280(4) 0.0870(4)
C71 C 0.5482(8) 0.9051(7) 0.1130(8)
H109 H 0.5267 0.9149 0.1607
H110 H 0.5030 0.9353 0.0734
C72 C 0.5638(7) 0.8149(6) 0.1245(6)
H111 H 0.5671 0.7825 0.1791
H112 H 0.5120 0.8001 0.1038
C73 C 0.6529(8) 0.7992(7) 0.0838(7)
H113 H 0.6987 0.7628 0.1204
H114 H 0.6428 0.7726 0.0477
C74 C 0.6886(8) 0.8769(8) 0.0427(7)
H115 H 0.7574 0.8700 0.0411
H116 H 0.6670 0.9003 -0.0097
H117? H 0.4287 -0.0164 0.2949
H118? H 0.4703 -0.0199 0.3713
C75? C 0.4504(5) 0.0946(4) 0.2940(4)
H119? H 0.4131 0.1233 0.2487
H120? H 0.5170 0.0915 0.2776
C76? C 0.4482(5) 0.2281(5) 0.3113(5)
H121? H 0.4574 0.2530 0.3489
H122? H 0.5062 0.2285 0.2793
H123? H 0.3716 0.2601 0.2187
H124? H 0.3815 0.3347 0.2448
C77? C 0.4888(5) 0.1026(5) 0.4136(4)
H125? H 0.4723 0.0481 0.4410
H126? H 0.4807 0.1339 0.4479
H127? H 0.5538 0.0987 0.3949
F25? F 0.5190(4) 0.7577(4) -0.0376(4)
F26? F 0.4196(4) 0.7895(5) -0.1253(3)
F27? F 0.4606(4) 0.8837(3) -0.0942(4)
F28? F 0.5112(7) 0.7543(6) -0.0575(7)
F29? F 0.4156(9) 0.8382(10) -0.1359(6)
F30? F 0.4805(7) 0.8779(5) -0.0617(7)
F31? F 0.3484(8) 0.7954(7) 0.3194(8)
F32? F 0.4948(7) 0.7682(7) 0.3047(8)
F33? F 0.4146(9) 0.7271(6) 0.4108(6)
F34? F 0.4120(7) 0.8076(4) 0.2742(4)
F35? F 0.4890(5) 0.7282(5) 0.3740(5)
F36? F 0.3519(5) 0.7642(5) 0.3792(5)
F37? F 0.1727(4) 0.3881(4) 0.0703(3)
F38? F 0.2357(5) 0.4551(4) -0.0435(3)
F39? F 0.2884(4) 0.3508(4) 0.0112(4)
F40? F 0.1468(7) 0.4407(7) 0.0403(7)
F41? F 0.2581(9) 0.4359(8) -0.0449(7)
F42? F 0.2452(10) 0.3392(8) 0.0540(7)
C78? C 0.6270(6) 0.5903(5) 0.2074(5)
H128? H 0.6770 0.5642 0.1822
H129? H 0.5991 0.6411 0.1706
H130? H 0.5793 0.5541 0.2286
C79? C 0.6670(6) 0.6084(5) 0.2715(5)
H131? H 0.7182 0.6415 0.2497
H132? H 0.6178 0.6415 0.2916
C80? C 0.7028(6) 0.5362(5) 0.3356(5)
H133? H 0.6536 0.5004 0.3541
H134? H 0.7562 0.5061 0.3164
C81? C 0.7321(6) 0.5528(5) 0.3985(5)
H135? H 0.6815 0.5881 0.4146
H136? H 0.7868 0.5826 0.3821
C82? C 0.7592(6) 0.4707(5) 0.4707(5)
H137? H 0.7064 0.4394 0.4856
H138? H 0.7741 0.4854 0.5132
H139? H 0.8133 0.4379 0.4566
C83? C 0.714(2) 0.841(2) 0.0015(18)
H140? H 0.7805 0.8473 -0.0020
H141? H 0.6900 0.8621 -0.0494
H142? H 0.7072 0.7833 0.0247
C84? C 0.657(2) 0.891(2) 0.053(2)
H143? H 0.6811 0.8672 0.1049
H144? H 0.6705 0.9476 0.0319
C85? C 0.5568(18) 0.890(2) 0.0582(19)
H145? H 0.5288 0.9477 0.0369
H146? H 0.5433 0.8637 0.0231
C86? C 0.5056(19) 0.8554(19) 0.1271(16)
H147? H 0.5426 0.8464 0.1714
H148? H 0.4871 0.8032 0.1299
C87? C 0.4069(18) 0.9287(18) 0.1229(19)
H149? H 0.4252 0.9748 0.1325
H150? H 0.3598 0.9045 0.1613
H151? H 0.3811 0.9471 0.0726
C88? C 0.4546(18) 0.929(2) 0.1286(19)
H152? H 0.4225 0.9156 0.0920
H153? H 0.4274 0.9821 0.1301
H154? H 0.4479 0.8877 0.1789
C89? C 0.566(2) 0.9299(19) 0.103(2)
H155? H 0.5784 0.9858 0.0726
H156? H 0.6045 0.9101 0.1481
C90? C 0.589(2) 0.878(2) 0.059(2)
H157? H 0.5354 0.8483 0.0659
H158? H 0.5895 0.9150 0.0054
C91? C 0.669(2) 0.819(2) 0.0637(18)
H159? H 0.6519 0.7661 0.0687
H160? H 0.7072 0.8130 0.1069
C92? C 0.729(2) 0.863(2) -0.0235(16)
H161? H 0.7638 0.9038 -0.0201
H162? H 0.6837 0.8876 -0.0634
H163? H 0.7717 0.8202 -0.0357
loop_
_geom_bond_atom_site_label_1
_geom_bond_atom_site_label_2
_geom_bond_site_symmetry_1
_geom_bond_site_symmetry_2
Mg1 H1 1_555 1_555
H1 Mg2 1_555 1_555
H2 Mg1 1_555 1_555
Mg2 H2 1_555 1_555
Mg3 H2 1_555 1_555
Mg4 H1 1_555 1_555
Mg5 H7 1_555 1_555
Mg6 N5 1_555 1_555
Mg7 H5 1_555 1_555
H3 Mg2 1_555 1_555
H4 Mg2 1_555 1_555
H5 Mg2 1_555 1_555
H6 Mg3 1_555 1_555
H7 Mg3 1_555 1_555
H8 Mg4 1_555 1_555
N1 Mg2 1_555 1_555
N2 Mg5 1_555 1_555
N3 Mg5 1_555 1_555
N4 Mg5 1_555 1_555
N5 Mg3 1_555 1_555
N6 Mg6 1_555 1_555
N7 Mg6 1_555 1_555
N8 Mg6 1_555 1_555
N9 Mg4 1_555 1_555
N10 Mg7 1_555 1_555
N11 Mg7 1_555 1_555
N12 Mg7 1_555 1_555
C1 N1 1_555 1_555
H9 C1 1_555 1_555
H10 C1 1_555 1_555
C2 N2 1_555 1_555
H11 C2 1_555 1_555
H12 C2 1_555 1_555
C3 N2 1_555 1_555
H13 C3 1_555 1_555
H14 C3 1_555 1_555
C4 N3 1_555 1_555
H15 C4 1_555 1_555
H16 C4 1_555 1_555
C5 N3 1_555 1_555
H17 C5 1_555 1_555
H18 C5 1_555 1_555
C6 N4 1_555 1_555
H19 C6 1_555 1_555
H20 C6 1_555 1_555
C7 N4 1_555 1_555
H21 C7 1_555 1_555
H22 C7 1_555 1_555
C8 N1 1_555 1_555
H23 C8 1_555 1_555
H24 C8 1_555 1_555
C9 N2 1_555 1_555
H25 C9 1_555 1_555
H26 C9 1_555 1_555
H27 C9 1_555 1_555
C10 N3 1_555 1_555
H28 C10 1_555 1_555
H29 C10 1_555 1_555
H30 C10 1_555 1_555
C11 N4 1_555 1_555
H31 C11 1_555 1_555
H32 C11 1_555 1_555
H33 C11 1_555 1_555
C12 N5 1_555 1_555
H34 C12 1_555 1_555
H35 C12 1_555 1_555
C13 N6 1_555 1_555
H36 C13 1_555 1_555
H37 C13 1_555 1_555
C14 N6 1_555 1_555
H38 C14 1_555 1_555
H39 C14 1_555 1_555
C15 N7 1_555 1_555
H40 C15 1_555 1_555
H41 C15 1_555 1_555
C16 N7 1_555 1_555
H42 C16 1_555 1_555
H43 C16 1_555 1_555
C17 N8 1_555 1_555
H44 C17 1_555 1_555
H45 C17 1_555 1_555
C18 N8 1_555 1_555
H46 C18 1_555 1_555
H47 C18 1_555 1_555
C19 N5 1_555 1_555
H48 C19 1_555 1_555
H49 C19 1_555 1_555
C20 N6 1_555 1_555
H50 C20 1_555 1_555
H51 C20 1_555 1_555
H52 C20 1_555 1_555
C21 N7 1_555 1_555
H53 C21 1_555 1_555
H54 C21 1_555 1_555
H55 C21 1_555 1_555
C22 N8 1_555 1_555
H56 C22 1_555 1_555
H57 C22 1_555 1_555
H58 C22 1_555 1_555
C23 N9 1_555 1_555
H59 C23 1_555 1_555
H60 C23 1_555 1_555
C24 N10 1_555 1_555
H61 C24 1_555 1_555
H62 C24 1_555 1_555
C25 N10 1_555 1_555
H63 C25 1_555 1_555
H64 C25 1_555 1_555
C26 N11 1_555 1_555
H65 C26 1_555 1_555
H66 C26 1_555 1_555
C27 N11 1_555 1_555
H67 C27 1_555 1_555
H68 C27 1_555 1_555
C28 N12 1_555 1_555
H69 C28 1_555 1_555
H70 C28 1_555 1_555
C29 N12 1_555 1_555
H71 C29 1_555 1_555
H72 C29 1_555 1_555
C30 N9 1_555 1_555
H73 C30 1_555 1_555
H74 C30 1_555 1_555
C31 N10 1_555 1_555
H75 C31 1_555 1_555
H76 C31 1_555 1_555
H77 C31 1_555 1_555
C32 N11 1_555 1_555
H78 C32 1_555 1_555
H79 C32 1_555 1_555
H80 C32 1_555 1_555
C33 N12 1_555 1_555
H81 C33 1_555 1_555
H82 C33 1_555 1_555
H83 C33 1_555 1_555
H84 Mg1 1_555 1_555
F1 C40 1_555 1_555
F2 C40 1_555 1_555
F3 C40 1_555 1_555
F4 C41 1_555 1_555
F5 C41 1_555 1_555
F6 C41 1_555 1_555
F7 C48 1_555 1_555
F8 C48 1_555 1_555
F9 C48 1_555 1_555
F10 C49 1_555 1_555
F11 C49 1_555 1_555
F12 C49 1_555 1_555
F13 C56 1_555 1_555
F14 C56 1_555 1_555
F15 C56 1_555 1_555
F16 C57 1_555 1_555
F17 C57 1_555 1_555
F18 C57 1_555 1_555
F19 C64 1_555 1_555
F20 C64 1_555 1_555
F21 C64 1_555 1_555
F22 C65 1_555 1_555
F23 C65 1_555 1_555
F24 C65 1_555 1_555
B1 C34 1_555 1_555
C34 C35 1_555 1_555
C35 H85 1_555 1_555
C36 C35 1_555 1_555
C37 C36 1_555 1_555
H86 C37 1_555 1_555
C38 C37 1_555 1_555
C39 C34 1_555 1_555
H87 C39 1_555 1_555
C40 C36 1_555 1_555
C41 C38 1_555 1_555
C42 B1 1_555 1_555
C43 C42 1_555 1_555
H88 C43 1_555 1_555
C44 C43 1_555 1_555
C45 C44 1_555 1_555
H89 C45 1_555 1_555
C46 C45 1_555 1_555
C47 C42 1_555 1_555
H90 C47 1_555 1_555
C48 C44 1_555 1_555
C49 C46 1_555 1_555
C50 B1 1_555 1_555
C51 C50 1_555 1_555
H91 C51 1_555 1_555
C52 C51 1_555 1_555
C53 C52 1_555 1_555
H92 C53 1_555 1_555
C54 C53 1_555 1_555
C55 C50 1_555 1_555
H93 C55 1_555 1_555
C56 C52 1_555 1_555
C57 C54 1_555 1_555
C58 B1 1_555 1_555
C59 C58 1_555 1_555
H94 C59 1_555 1_555
C60 C59 1_555 1_555
C61 C60 1_555 1_555
H95 C61 1_555 1_555
C62 C61 1_555 1_555
C63 C58 1_555 1_555
H96 C63 1_555 1_555
C64 C60 1_555 1_555
C65 C62 1_555 1_555
C66 H97 1_555 1_555
H98 C66 1_555 1_555
H99 C66 1_555 1_555
C67 C66 1_555 1_555
H100 C67 1_555 1_555
H101 C67 1_555 1_555
C68 C67 1_555 1_555
H102 C68 1_555 1_555
H103 C68 1_555 1_555
C69 C68 1_555 1_555
H104 C69 1_555 1_555
H105 C69 1_555 1_555
C70 C69 1_555 1_555
H106 C70 1_555 1_555
H107 C70 1_555 1_555
H108 C70 1_555 1_555
O1 C71 1_555 1_555
C71 H109 1_555 1_555
H110 C71 1_555 1_555
C72 C71 1_555 1_555
H111 C72 1_555 1_555
H112 C72 1_555 1_555
C73 C72 1_555 1_555
H113 C73 1_555 1_555
H114 C73 1_555 1_555
C74 O1 1_555 1_555
H115 C74 1_555 1_555
H116 C74 1_555 1_555
H1A Mg1 1_555 1_555
H2A Mg1 1_555 1_555
Mg2A H1A 1_555 1_555
Mg3A H2A 1_555 1_555
Mg4A H6 1_555 1_555
Mg5A H7A 1_555 1_555
Mg6A H8 1_555 1_555
Mg7A H5A 1_555 1_555
H3A Mg2A 1_555 1_555
H4A Mg2A 1_555 1_555
H5A Mg2A 1_555 1_555
H6A Mg4 1_555 1_555
H7A Mg3A 1_555 1_555
H8A Mg6 1_555 1_555
N1A Mg2A 1_555 1_555
N2A Mg5A 1_555 1_555
N3A Mg5A 1_555 1_555
N4A Mg5A 1_555 1_555
N5A Mg3A 1_555 1_555
N6A Mg6A 1_555 1_555
N7A Mg6A 1_555 1_555
N8A Mg6A 1_555 1_555
N9A Mg4A 1_555 1_555
N10A Mg7A 1_555 1_555
N11A Mg7A 1_555 1_555
N12A Mg7A 1_555 1_555
C1A N1A 1_555 1_555
H9A C1A 1_555 1_555
H10A C1A 1_555 1_555
C2A N2A 1_555 1_555
H11A C2A 1_555 1_555
H12A C2A 1_555 1_555
C3A N2A 1_555 1_555
H13A C3A 1_555 1_555
H14A C3A 1_555 1_555
C4A N3A 1_555 1_555
H15A C4A 1_555 1_555
H16A C4A 1_555 1_555
C5A N3A 1_555 1_555
H17A C5A 1_555 1_555
H18A C5A 1_555 1_555
C6A N4A 1_555 1_555
H19A C6A 1_555 1_555
H20A C6A 1_555 1_555
C7A N4A 1_555 1_555
H21A C7A 1_555 1_555
H22A C7A 1_555 1_555
C8A N1A 1_555 1_555
H23A C8A 1_555 1_555
H24A C8A 1_555 1_555
C9A N2A 1_555 1_555
H25A C9A 1_555 1_555
H26A C9A 1_555 1_555
H27A C9A 1_555 1_555
C10A N3A 1_555 1_555
H28A C10A 1_555 1_555
H29A C10A 1_555 1_555
H30A C10A 1_555 1_555
C11A N4A 1_555 1_555
H31A C11A 1_555 1_555
H32A C11A 1_555 1_555
H33A C11A 1_555 1_555
C12A N5A 1_555 1_555
H34A C12A 1_555 1_555
H35A C12A 1_555 1_555
C13A N6A 1_555 1_555
H36A C13A 1_555 1_555
H37A C13A 1_555 1_555
C14A N6A 1_555 1_555
H38A C14A 1_555 1_555
H39A C14A 1_555 1_555
C15A N7A 1_555 1_555
H40A C15A 1_555 1_555
H41A C15A 1_555 1_555
C16A N7A 1_555 1_555
H42A C16A 1_555 1_555
H43A C16A 1_555 1_555
C17A N8A 1_555 1_555
H44A C17A 1_555 1_555
H45A C17A 1_555 1_555
C18A N8A 1_555 1_555
H46A C18A 1_555 1_555
H47A C18A 1_555 1_555
C19A N5A 1_555 1_555
H48A C19A 1_555 1_555
H49A C19A 1_555 1_555
C20A N6A 1_555 1_555
H50A C20A 1_555 1_555
H51A C20A 1_555 1_555
H52A C20A 1_555 1_555
C21A N7A 1_555 1_555
H53A C21A 1_555 1_555
H54A C21A 1_555 1_555
H55A C21A 1_555 1_555
C22A N8A 1_555 1_555
H56A C22A 1_555 1_555
H57A C22A 1_555 1_555
H58A C22A 1_555 1_555
C23A N9A 1_555 1_555
H59A C23A 1_555 1_555
H60A C23A 1_555 1_555
C24A N10A 1_555 1_555
H61A C24A 1_555 1_555
H62A C24A 1_555 1_555
C25A N10A 1_555 1_555
H63A C25A 1_555 1_555
H64A C25A 1_555 1_555
C26A N11A 1_555 1_555
H65A C26A 1_555 1_555
H66A C26A 1_555 1_555
C27A N11A 1_555 1_555
H67A C27A 1_555 1_555
H68A C27A 1_555 1_555
C28A N12A 1_555 1_555
H69A C28A 1_555 1_555
H70A C28A 1_555 1_555
C29A N12A 1_555 1_555
H71A C29A 1_555 1_555
H72A C29A 1_555 1_555
C30A N9A 1_555 1_555
H73A C30A 1_555 1_555
H74A C30A 1_555 1_555
C31A N10A 1_555 1_555
H75A C31A 1_555 1_555
H76A C31A 1_555 1_555
H77A C31A 1_555 1_555
C32A N11A 1_555 1_555
H78A C32A 1_555 1_555
H79A C32A 1_555 1_555
H80A C32A 1_555 1_555
C33A N12A 1_555 1_555
H81A C33A 1_555 1_555
H82A C33A 1_555 1_555
H83A C33A 1_555 1_555
H84A Mg1 1_555 1_555
Mg3 H3 1_555 1_555
Mg3 H84 1_555 1_555
Mg4 H4 1_555 1_555
Mg4 H84A 1_555 1_555
Mg5 N1 1_555 1_555
Mg7 N9 1_555 1_555
C1 C2 1_555 1_555
C3 C4 1_555 1_555
C5 C6 1_555 1_555
C7 C8 1_555 1_555
C12 C13 1_555 1_555
C14 C15 1_555 1_555
C16 C17 1_555 1_555
C18 C19 1_555 1_555
C23 C24 1_555 1_555
C25 C26 1_555 1_555
C27 C28 1_555 1_555
C29 C30 1_555 1_555
H84 Mg4A 1_555 1_555
C38 C39 1_555 1_555
C46 C47 1_555 1_555
C54 C55 1_555 1_555
C62 C63 1_555 1_555
C73 C74 1_555 1_555
H1A Mg4A 1_555 1_555
H2A Mg2A 1_555 1_555
Mg3A H3A 1_555 1_555
Mg3A H6A 1_555 1_555
Mg3A H84A 1_555 1_555
Mg4A H4A 1_555 1_555
Mg4A H8A 1_555 1_555
Mg5A N1A 1_555 1_555
Mg6A N5A 1_555 1_555
Mg7A N9A 1_555 1_555
C1A C2A 1_555 1_555
C3A C4A 1_555 1_555
C5A C6A 1_555 1_555
C7A C8A 1_555 1_555
C12A C13A 1_555 1_555
C14A C15A 1_555 1_555
C16A C17A 1_555 1_555
C18A C19A 1_555 1_555
C23A C24A 1_555 1_555
C25A C26A 1_555 1_555
C27A C28A 1_555 1_555
C29A C30A 1_555 1_555

#END
