
#######################################################################
#
#                 Cambridge Crystallographic Data Centre
#                                CCDC 
#
#######################################################################
#
# If this CIF has been generated from an entry in the Cambridge 
# Structural Database, then it will include bibliographic, chemical, 
# crystal, experimental, refinement or atomic coordinate data resulting 
# from the CCDC's data processing and validation procedures.
#
#######################################################################

data_XUMMAV
_chemical_name_common            Isoprerubialatin
_chemical_formula_moiety         'C27 H20 O7'
_chemical_name_systematic        
"Methyl 12'-hydroxy-5,5-dimethyl-3',10',19'-trioxo-1'H,5H-spiro[furan-2,20'-pentacyclo[10.7.1.0^2,11^.0^4,9^.0^13,18^]icosa[2(11),4,6,8,13,15,17]heptaene]-1'-carboxylate"
_symmetry_cell_setting           triclinic
_symmetry_space_group_name_H-M   'P -1'
_symmetry_Int_Tables_number      2
_space_group_name_Hall           '-P 1'
loop_
_symmetry_equiv_pos_site_id
_symmetry_equiv_pos_as_xyz
1 x,y,z
2 -x,-y,-z
_cell_length_a                   8.8361(7)
_cell_length_b                   12.3328(9)
_cell_length_c                   13.8367(10)
_cell_angle_alpha                105.070(6)
_cell_angle_beta                 96.854(6)
_cell_angle_gamma                103.977(6)
_cell_volume                     1385.93
_cell_formula_units_Z            2
loop_
_atom_site_label
_atom_site_type_symbol
_atom_site_fract_x
_atom_site_fract_y
_atom_site_fract_z
C1 C 0.0400(11) 0.2271(8) 0.1378(7)
C2 C 0.1529(11) 0.2215(8) 0.2211(7)
C3 C 0.2816(11) 0.3255(8) 0.2946(7)
C4 C 0.1977(11) 0.3843(8) 0.3748(7)
C5 C 0.1490(11) 0.3222(8) 0.4505(7)
C6 C 0.0836(12) 0.3738(9) 0.5297(8)
H1 H 0.0702 0.4493 0.5362
C7 C 0.0374(14) 0.3165(11) 0.5995(8)
H2 H -0.0056 0.3528 0.6547
C8 C 0.0549(14) 0.2036(11) 0.5878(9)
H3 H 0.0189 0.1620 0.6335
C9 C 0.1244(13) 0.1530(10) 0.5101(8)
H4 H 0.1396 0.0781 0.5044
C10 C 0.1718(11) 0.2103(8) 0.4409(7)
C11 C 0.2507(11) 0.1568(8) 0.3557(7)
C12 C 0.1338(10) 0.1272(8) 0.2546(7)
C13 C 0.0089(11) 0.0169(8) 0.2045(7)
C14 C -0.0987(10) 0.0164(8) 0.1126(7)
C15 C -0.2188(11) -0.0875(9) 0.0575(8)
H5 H -0.2250 -0.1566 0.0769
C16 C -0.3273(12) -0.0904(10) -0.0243(8)
H6 H -0.4105 -0.1596 -0.0596
C17 C -0.3115(14) 0.0113(10) -0.0535(8)
H7 H -0.3842 0.0100 -0.1106
C18 C -0.1943(12) 0.1130(9) -0.0026(8)
H8 H -0.1861 0.1806 -0.0247
C19 C -0.0876(11) 0.1169(8) 0.0816(7)
C20 C 0.3849(11) 0.2576(8) 0.3448(7)
C21 C 0.5054(12) 0.3293(8) 0.4396(8)
H9 H 0.4814 0.3742 0.4997
C22 C 0.6478(12) 0.3220(9) 0.4287(8)
H10 H 0.7409 0.3598 0.4801
C23 C 0.6442(11) 0.2460(9) 0.3242(8)
C24 C 0.6932(14) 0.1369(11) 0.3232(10)
H11 H 0.6327 0.0956 0.3643
H12 H 0.8070 0.1584 0.3516
H13 H 0.6715 0.0856 0.2528
C25 C 0.7362(13) 0.3163(13) 0.2620(10)
H14 H 0.7251 0.2653 0.1927
H15 H 0.8489 0.3467 0.2947
H16 H 0.6932 0.3819 0.2591
C26 C 0.3821(12) 0.4110(9) 0.2505(8)
C27 C 0.4756(18) 0.4354(12) 0.1034(11)
H17 H 0.4260 0.4966 0.0963
H18 H 0.4818 0.3884 0.0358
H19 H 0.5828 0.4716 0.1450
O1 O 0.0446(9) 0.3195(6) 0.1188(5)
O2 O 0.1645(8) 0.4739(6) 0.3738(5)
O3 O 0.3022(8) 0.0657(6) 0.3768(5)
H20 H 0.3704 0.0515 0.3417
O4 O -0.0069(10) -0.0672(7) 0.2353(6)
O5 O 0.4751(8) 0.2119(6) 0.2767(5)
O6 O 0.4615(9) 0.5068(6) 0.2996(6)
O7 O 0.3809(9) 0.3607(6) 0.1525(5)
loop_
_geom_bond_atom_site_label_1
_geom_bond_atom_site_label_2
_geom_bond_site_symmetry_1
_geom_bond_site_symmetry_2
C1 C2 1_555 1_555
C2 C3 1_555 1_555
C3 C4 1_555 1_555
C4 C5 1_555 1_555
C5 C6 1_555 1_555
C6 H1 1_555 1_555
C7 C6 1_555 1_555
H2 C7 1_555 1_555
C8 C7 1_555 1_555
H3 C8 1_555 1_555
C9 C8 1_555 1_555
H4 C9 1_555 1_555
C10 C5 1_555 1_555
C11 C10 1_555 1_555
C12 C2 1_555 1_555
C13 C12 1_555 1_555
C14 C13 1_555 1_555
C15 C14 1_555 1_555
H5 C15 1_555 1_555
C16 C15 1_555 1_555
H6 C16 1_555 1_555
C17 C16 1_555 1_555
H7 C17 1_555 1_555
C18 C17 1_555 1_555
H8 C18 1_555 1_555
C19 C1 1_555 1_555
C20 C3 1_555 1_555
C21 C20 1_555 1_555
H9 C21 1_555 1_555
C22 C21 1_555 1_555
H10 C22 1_555 1_555
C23 C22 1_555 1_555
C24 C23 1_555 1_555
H11 C24 1_555 1_555
H12 C24 1_555 1_555
H13 C24 1_555 1_555
C25 C23 1_555 1_555
H14 C25 1_555 1_555
H15 C25 1_555 1_555
H16 C25 1_555 1_555
C26 C3 1_555 1_555
C27 H17 1_555 1_555
H18 C27 1_555 1_555
H19 C27 1_555 1_555
O1 C1 1_555 1_555
O2 C4 1_555 1_555
O3 C11 1_555 1_555
H20 O3 1_555 1_555
O4 C13 1_555 1_555
O5 C20 1_555 1_555
O6 C26 1_555 1_555
O7 C26 1_555 1_555
C9 C10 1_555 1_555
C11 C12 1_555 1_555
C11 C20 1_555 1_555
C14 C19 1_555 1_555
C18 C19 1_555 1_555
C23 O5 1_555 1_555
C27 O7 1_555 1_555

#END
