
#######################################################################
#
#                 Cambridge Crystallographic Data Centre
#                                CCDC 
#
#######################################################################
#
# If this CIF has been generated from an entry in the Cambridge 
# Structural Database, then it will include bibliographic, chemical, 
# crystal, experimental, refinement or atomic coordinate data resulting 
# from the CCDC's data processing and validation procedures.
#
#######################################################################

data_XUMPUQ
_chemical_formula_moiety         'C17 H10 F6 O2 S2'
_chemical_name_systematic        
'1,2-bis(2-Methyl-5-formyl-thiophen-3-yl) perfluorocyclopentene'
_symmetry_cell_setting           orthorhombic
_symmetry_space_group_name_H-M   'P b c n'
_symmetry_Int_Tables_number      60
_space_group_name_Hall           '-P 2n 2ab'
loop_
_symmetry_equiv_pos_site_id
_symmetry_equiv_pos_as_xyz
1 x,y,z
2 1/2-x,1/2-y,1/2+z
3 -x,y,1/2-z
4 1/2+x,1/2-y,-z
5 -x,-y,-z
6 1/2+x,1/2+y,1/2-z
7 x,-y,1/2+z
8 1/2-x,1/2+y,z
_cell_length_a                   12.182(2)
_cell_length_b                   8.7063(13)
_cell_length_c                   16.622(3)
_cell_angle_alpha                90
_cell_angle_beta                 90
_cell_angle_gamma                90
_cell_volume                     1762.93
_exptl_crystal_colour            colorless
_exptl_crystal_description       prism
_chemical_melting_point          456K
_cell_formula_units_Z            4
_chemical_properties_physical    light-sensitive
_exptl_crystal_preparation       photochromic
loop_
_atom_site_label
_atom_site_type_symbol
_atom_site_fract_x
_atom_site_fract_y
_atom_site_fract_z
S1 S 0.47799(12) 0.17254(14) 0.42525(7)
F1 F 0.5110(5) -0.3945(4) 0.3848(2)
F2 F 0.3550(3) -0.3915(4) 0.3302(3)
F3 F 0.4225(4) -0.5584(6) 0.2267(3)
O1 O 0.2762(4) 0.2224(5) 0.5344(2)
C1 C 0.4811(3) -0.2034(4) 0.2881(2)
C2 C 0.4614(4) -0.3646(5) 0.3172(3)
C3 C 0.5000 -0.4678(7) 0.2500
C4 C 0.5304(4) 0.0468(5) 0.3560(2)
C5 C 0.4593(3) -0.0743(5) 0.3428(2)
C6 C 0.3635(4) -0.0639(5) 0.3909(2)
H1 H 0.3077 -0.1368 0.3903
C7 C 0.3614(4) 0.0644(5) 0.4382(3)
C8 C 0.2760(5) 0.1063(6) 0.4950(3)
H2 H 0.2173 0.0390 0.5014
C9 C 0.6412(4) 0.0748(6) 0.3207(3)
H3 H 0.6582 -0.0052 0.2830
H4 H 0.6951 0.0756 0.3628
H5 H 0.6415 0.1722 0.2935
C1B C 0.5189(3) -0.2034(4) 0.2119(2)
C2B C 0.5386(4) -0.3646(5) 0.1828(3)
F1B F 0.4890(5) -0.3945(4) 0.1152(2)
F2B F 0.6450(3) -0.3915(4) 0.1698(3)
F3B F 0.5775(4) -0.5584(6) 0.2733(3)
C5B C 0.5407(3) -0.0743(5) 0.1572(2)
C4B C 0.4696(4) 0.0468(5) 0.1440(2)
S1B S 0.52201(12) 0.17254(14) 0.07475(7)
C7B C 0.6386(4) 0.0644(5) 0.0618(3)
C6B C 0.6365(4) -0.0639(5) 0.1091(2)
H1B H 0.6923 -0.1368 0.1097
C8B C 0.7240(5) 0.1063(6) 0.0050(3)
O1B O 0.7238(4) 0.2224(5) -0.0344(2)
H2B H 0.7827 0.0390 -0.0014
C9B C 0.3588(4) 0.0748(6) 0.1793(3)
H3B H 0.3418 -0.0052 0.2170
H4B H 0.3049 0.0756 0.1372
H5B H 0.3585 0.1722 0.2065
loop_
_geom_bond_atom_site_label_1
_geom_bond_atom_site_label_2
_geom_bond_site_symmetry_1
_geom_bond_site_symmetry_2
S1 C4 1_555 1_555
F1 C2 1_555 1_555
F2 C2 1_555 1_555
F3 C3 1_555 1_555
O1 C8 1_555 1_555
C1 C2 1_555 1_555
C2 C3 1_555 1_555
C3 C2B 1_555 1_555
C4 C5 1_555 1_555
C5 C1 1_555 1_555
C6 C5 1_555 1_555
H1 C6 1_555 1_555
C7 S1 1_555 1_555
C8 C7 1_555 1_555
H2 C8 1_555 1_555
C9 C4 1_555 1_555
H3 C9 1_555 1_555
H4 C9 1_555 1_555
H5 C9 1_555 1_555
C1B C1 1_555 1_555
C2B C1B 1_555 1_555
F1B C2B 1_555 1_555
F2B C2B 1_555 1_555
F3B C3 1_555 1_555
C5B C1B 1_555 1_555
C4B C5B 1_555 1_555
S1B C4B 1_555 1_555
C7B S1B 1_555 1_555
C6B C5B 1_555 1_555
H1B C6B 1_555 1_555
C8B C7B 1_555 1_555
O1B C8B 1_555 1_555
H2B C8B 1_555 1_555
C9B C4B 1_555 1_555
H3B C9B 1_555 1_555
H4B C9B 1_555 1_555
H5B C9B 1_555 1_555
C6 C7 1_555 1_555
C7B C6B 1_555 1_555

#END
