
#######################################################################
#
#                 Cambridge Crystallographic Data Centre
#                                CCDC 
#
#######################################################################
#
# If this CIF has been generated from an entry in the Cambridge 
# Structural Database, then it will include bibliographic, chemical, 
# crystal, experimental, refinement or atomic coordinate data resulting 
# from the CCDC's data processing and validation procedures.
#
#######################################################################

data_XUMSOO
_chemical_formula_moiety         'C18 H15 Br1'
_chemical_name_systematic        
4-Bromo-1,2-diphenyltricyclo[3.1.0.0^2,4^]hexane
_symmetry_cell_setting           monoclinic
_symmetry_space_group_name_H-M   'P 21/a'
_symmetry_Int_Tables_number      14
_space_group_name_Hall           '-P 2yab'
loop_
_symmetry_equiv_pos_site_id
_symmetry_equiv_pos_as_xyz
1 x,y,z
2 1/2-x,1/2+y,-z
3 -x,-y,-z
4 1/2+x,1/2-y,z
_cell_length_a                   8.0650(3)
_cell_length_b                   20.7270(8)
_cell_length_c                   9.3050(4)
_cell_angle_alpha                90
_cell_angle_beta                 112.974(2)
_cell_angle_gamma                90
_cell_volume                     1432.08
_exptl_crystal_colour            colorless
_exptl_crystal_description       prism
_cell_formula_units_Z            4
loop_
_atom_site_label
_atom_site_type_symbol
_atom_site_fract_x
_atom_site_fract_y
_atom_site_fract_z
Br1 Br 0.59390(10) 0.10395(4) 0.18002(9)
C1 C 0.3498(9) 0.1091(4) 0.0288(8)
C2 C 0.2355(9) 0.0515(4) -0.0200(8)
H1 H 0.2822 0.0116 0.0358
H2 H 0.1642 0.0462 -0.1306
C3 C 0.1783(8) 0.1036(3) 0.0652(7)
C4 C 0.1003(8) 0.1598(3) -0.0458(7)
C5 C 0.2209(9) 0.2182(3) 0.0123(9)
H3 H 0.1797 0.2586 -0.0426
H4 H 0.2866 0.2225 0.1241
C6 C 0.2794(9) 0.1669(4) -0.0690(8)
H5 H 0.2853 0.1729 -0.1713
C7 C 0.1594(9) 0.0950(3) 0.2164(8)
C8 C 0.2294(10) 0.0424(4) 0.3118(8)
H6 H 0.2934 0.0113 0.2827
C9 C 0.2048(13) 0.0354(5) 0.4524(9)
H7 H 0.2506 -0.0005 0.5153
C10 C 0.1129(13) 0.0819(7) 0.4965(10)
H8 H 0.0987 0.0784 0.5907
C11 C 0.0424(10) 0.1334(5) 0.3998(10)
H9 H -0.0233 0.1643 0.4277
C12 C 0.0663(8) 0.1405(4) 0.2634(8)
H10 H 0.0192 0.1766 0.2013
C13 C -0.0819(8) 0.1609(3) -0.1679(7)
C14 C -0.2188(8) 0.1236(3) -0.1520(8)
H11 H -0.1940 0.0996 -0.0616
C15 C -0.3899(9) 0.1219(4) -0.2683(9)
H12 H -0.4779 0.0966 -0.2547
C16 C -0.4325(10) 0.1568(4) -0.4034(9)
H13 H -0.5478 0.1555 -0.4813
C17 C -0.2993(10) 0.1938(4) -0.4204(8)
H14 H -0.3249 0.2174 -0.5116
C18 C -0.1273(9) 0.1965(4) -0.3035(8)
H15 H -0.0410 0.2229 -0.3167
loop_
_geom_bond_atom_site_label_1
_geom_bond_atom_site_label_2
_geom_bond_site_symmetry_1
_geom_bond_site_symmetry_2
Br1 C1 1_555 1_555
C1 C2 1_555 1_555
C2 H1 1_555 1_555
H2 C2 1_555 1_555
C3 C1 1_555 1_555
C4 C3 1_555 1_555
C5 C4 1_555 1_555
H3 C5 1_555 1_555
H4 C5 1_555 1_555
C6 C1 1_555 1_555
H5 C6 1_555 1_555
C7 C3 1_555 1_555
C8 C7 1_555 1_555
H6 C8 1_555 1_555
C9 C8 1_555 1_555
H7 C9 1_555 1_555
C10 C9 1_555 1_555
H8 C10 1_555 1_555
C11 C10 1_555 1_555
H9 C11 1_555 1_555
C12 C7 1_555 1_555
H10 C12 1_555 1_555
C13 C4 1_555 1_555
C14 C13 1_555 1_555
H11 C14 1_555 1_555
C15 C14 1_555 1_555
H12 C15 1_555 1_555
C16 C15 1_555 1_555
H13 C16 1_555 1_555
C17 C16 1_555 1_555
H14 C17 1_555 1_555
C18 C13 1_555 1_555
H15 C18 1_555 1_555
C2 C3 1_555 1_555
C4 C6 1_555 1_555
C5 C6 1_555 1_555
C11 C12 1_555 1_555
C17 C18 1_555 1_555

#END
