
#######################################################################
#
#                 Cambridge Crystallographic Data Centre
#                                CCDC 
#
#######################################################################
#
# If this CIF has been generated from an entry in the Cambridge 
# Structural Database, then it will include bibliographic, chemical, 
# crystal, experimental, refinement or atomic coordinate data resulting 
# from the CCDC's data processing and validation procedures.
#
#######################################################################

data_XUMSAA
_chemical_formula_moiety         'C18 H14 Br2'
_chemical_name_systematic        
1,2-Dibromo-4,5-diphenyltricyclo[3.1.0.0^2,4^]hexane
_symmetry_cell_setting           monoclinic
_symmetry_space_group_name_H-M   'P 21/c'
_symmetry_Int_Tables_number      14
_space_group_name_Hall           '-P 2ybc'
loop_
_symmetry_equiv_pos_site_id
_symmetry_equiv_pos_as_xyz
1 x,y,z
2 -x,1/2+y,1/2-z
3 -x,-y,-z
4 x,1/2-y,1/2+z
_cell_length_a                   10.3703(2)
_cell_length_b                   17.3085(3)
_cell_length_c                   16.8815(3)
_cell_angle_alpha                90
_cell_angle_beta                 90.4970(10)
_cell_angle_gamma                90
_cell_volume                     3030.02
_exptl_crystal_colour            colorless
_exptl_crystal_description       prism
_cell_formula_units_Z            8
loop_
_atom_site_label
_atom_site_type_symbol
_atom_site_fract_x
_atom_site_fract_y
_atom_site_fract_z
Br1 Br 0.23189(5) 0.44640(3) 0.89692(3)
Br2 Br 0.38701(5) 0.31087(3) 0.72659(3)
C1 C 0.1843(4) 0.3546(3) 0.8417(3)
C2 C 0.1421(4) 0.2823(3) 0.8818(3)
H1 H 0.1993 0.2410 0.8677
H2 H 0.1450 0.2899 0.9381
C3 C 0.0476(4) 0.3212(3) 0.8256(3)
C4 C -0.0796(4) 0.3538(3) 0.8475(3)
C5 C -0.1138(5) 0.3666(3) 0.9259(3)
H3 H -0.0535 0.3545 0.9676
C6 C -0.2342(5) 0.3972(3) 0.9444(3)
H4 H -0.2559 0.4049 0.9990
C7 C -0.3203(5) 0.4158(3) 0.8844(3)
H5 H -0.4035 0.4367 0.8968
C8 C -0.2870(5) 0.4046(3) 0.8068(3)
H6 H -0.3457 0.4185 0.7648
C9 C -0.1685(4) 0.3729(3) 0.7883(3)
H7 H -0.1468 0.3640 0.7339
C10 C 0.2188(4) 0.3438(3) 0.7578(3)
C11 C 0.1248(4) 0.3777(3) 0.6999(3)
H8 H 0.1004 0.4283 0.7176
H9 H 0.1642 0.3814 0.6488
C12 C 0.0875(4) 0.3032(3) 0.7405(3)
C13 C 0.0665(4) 0.2283(3) 0.7018(3)
C14 C -0.0184(4) 0.1758(3) 0.7343(3)
H10 H -0.0668 0.1901 0.7802
C15 C -0.0349(5) 0.1029(3) 0.7011(3)
H11 H -0.0946 0.0670 0.7239
C16 C 0.0351(5) 0.0814(3) 0.6354(3)
H12 H 0.0258 0.0306 0.6132
C17 C 0.1199(5) 0.1343(3) 0.6019(3)
H13 H 0.1670 0.1202 0.5553
C18 C 0.1345(5) 0.2065(3) 0.6342(3)
H14 H 0.1932 0.2423 0.6103
Br3 Br 0.88425(5) 0.16319(4) 1.01558(4)
Br4 Br 0.68487(6) 0.03249(3) 0.85058(3)
C19 C 0.7100(4) 0.1337(3) 0.9928(3)
C20 C 0.6246(5) 0.1007(3) 1.0540(3)
H15 H 0.5959 0.0506 1.0368
H16 H 0.6716 0.0957 1.1030
C21 C 0.5844(4) 0.1762(3) 1.0168(3)
C22 C 0.5715(4) 0.2509(3) 1.0574(3)
C23 C 0.6479(4) 0.2709(3) 1.1230(3)
H17 H 0.7098 0.2349 1.1439
C24 C 0.6338(5) 0.3418(3) 1.1589(3)
H18 H 0.6887 0.3554 1.2029
C25 C 0.5427(5) 0.3944(3) 1.1325(3)
H19 H 0.5339 0.4430 1.1593
C26 C 0.4666(5) 0.3754(3) 1.0674(3)
H20 H 0.4036 0.4112 1.0472
C27 C 0.4822(4) 0.3045(3) 1.0310(3)
H21 H 0.4288 0.2927 0.9859
C28 C 0.6615(5) 0.1243(3) 0.9113(3)
C29 C 0.6183(5) 0.1990(3) 0.8743(3)
H22 H 0.6803 0.2387 0.8862
H23 H 0.6120 0.1923 0.8180
C30 C 0.5310(4) 0.1610(3) 0.9337(3)
C31 C 0.4018(4) 0.1277(3) 0.9161(3)
C32 C 0.3629(5) 0.1098(3) 0.8396(3)
H24 H 0.4196 0.1211 0.7964
C33 C 0.2450(5) 0.0759(3) 0.8252(3)
H25 H 0.2194 0.0630 0.7720
C34 C 0.1621(5) 0.0601(3) 0.8866(4)
H26 H 0.0804 0.0361 0.8757
C35 C 0.1989(5) 0.0778(3) 0.9633(3)
H27 H 0.1411 0.0674 1.0061
C36 C 0.3178(4) 0.1119(3) 0.9776(3)
H28 H 0.3436 0.1246 1.0308
loop_
_geom_bond_atom_site_label_1
_geom_bond_atom_site_label_2
_geom_bond_site_symmetry_1
_geom_bond_site_symmetry_2
Br1 C1 1_555 1_555
Br2 C10 1_555 1_555
C1 C2 1_555 1_555
C2 H1 1_555 1_555
H2 C2 1_555 1_555
C3 C1 1_555 1_555
C4 C3 1_555 1_555
C5 C4 1_555 1_555
H3 C5 1_555 1_555
C6 C5 1_555 1_555
H4 C6 1_555 1_555
C7 C6 1_555 1_555
H5 C7 1_555 1_555
C8 C7 1_555 1_555
H6 C8 1_555 1_555
C9 C4 1_555 1_555
H7 C9 1_555 1_555
C10 C1 1_555 1_555
C11 C10 1_555 1_555
H8 C11 1_555 1_555
H9 C11 1_555 1_555
C12 C3 1_555 1_555
C13 C12 1_555 1_555
C14 C13 1_555 1_555
H10 C14 1_555 1_555
C15 C14 1_555 1_555
H11 C15 1_555 1_555
C16 C15 1_555 1_555
H12 C16 1_555 1_555
C17 C16 1_555 1_555
H13 C17 1_555 1_555
C18 C13 1_555 1_555
H14 C18 1_555 1_555
Br3 C19 1_555 1_555
Br4 C28 1_555 1_555
C19 C20 1_555 1_555
C20 H15 1_555 1_555
H16 C20 1_555 1_555
C21 C19 1_555 1_555
C22 C21 1_555 1_555
C23 C22 1_555 1_555
H17 C23 1_555 1_555
C24 C23 1_555 1_555
H18 C24 1_555 1_555
C25 C24 1_555 1_555
H19 C25 1_555 1_555
C26 C25 1_555 1_555
H20 C26 1_555 1_555
C27 C22 1_555 1_555
H21 C27 1_555 1_555
C28 C19 1_555 1_555
C29 C28 1_555 1_555
H22 C29 1_555 1_555
H23 C29 1_555 1_555
C30 C21 1_555 1_555
C31 C30 1_555 1_555
C32 C31 1_555 1_555
H24 C32 1_555 1_555
C33 C32 1_555 1_555
H25 C33 1_555 1_555
C34 C33 1_555 1_555
H26 C34 1_555 1_555
C35 C34 1_555 1_555
H27 C35 1_555 1_555
C36 C31 1_555 1_555
H28 C36 1_555 1_555
C2 C3 1_555 1_555
C8 C9 1_555 1_555
C10 C12 1_555 1_555
C11 C12 1_555 1_555
C17 C18 1_555 1_555
C20 C21 1_555 1_555
C26 C27 1_555 1_555
C28 C30 1_555 1_555
C29 C30 1_555 1_555
C35 C36 1_555 1_555

#END
