
#######################################################################
#
#                 Cambridge Crystallographic Data Centre
#                                CCDC 
#
#######################################################################
#
# If this CIF has been generated from an entry in the Cambridge 
# Structural Database, then it will include bibliographic, chemical, 
# crystal, experimental, refinement or atomic coordinate data resulting 
# from the CCDC's data processing and validation procedures.
#
#######################################################################

data_XUMSUU
_chemical_formula_moiety         'C18 H13 Br1'
_chemical_name_systematic        4'-Bromo-1,1':2',1''-terphenyl
_symmetry_cell_setting           triclinic
_symmetry_space_group_name_H-M   'P -1'
_symmetry_Int_Tables_number      2
_space_group_name_Hall           '-P 1'
loop_
_symmetry_equiv_pos_site_id
_symmetry_equiv_pos_as_xyz
1 x,y,z
2 -x,-y,-z
_cell_length_a                   7.2730(2)
_cell_length_b                   9.7040(3)
_cell_length_c                   10.5070(4)
_cell_angle_alpha                84.253(2)
_cell_angle_beta                 79.546(2)
_cell_angle_gamma                77.971(2)
_cell_volume                     711.734
_exptl_crystal_colour            colorless
_exptl_crystal_description       prism
_cell_formula_units_Z            2
loop_
_atom_site_label
_atom_site_type_symbol
_atom_site_fract_x
_atom_site_fract_y
_atom_site_fract_z
Br1 Br 0.23210(10) 0.44333(8) 0.68769(7)
C1 C 0.2604(8) 0.6067(7) 0.5764(6)
C2 C 0.3083(10) 0.7206(8) 0.6232(6)
H1 H 0.3302 0.7159 0.7110
C3 C 0.3261(9) 0.8371(8) 0.5414(6)
H2 H 0.3579 0.9150 0.5766
C4 C 0.2903(8) 0.8489(6) 0.4134(6)
C5 C 0.2370(8) 0.7325(6) 0.3688(5)
C6 C 0.2239(8) 0.6137(6) 0.4518(6)
H3 H 0.1926 0.5315 0.4238
C7 C 0.1885(8) 0.7332(6) 0.2361(5)
C8 C 0.0465(9) 0.8351(7) 0.1917(7)
H4 H -0.0277 0.9104 0.2427
C9 C -0.0067(10) 0.8250(8) 0.0741(7)
H5 H -0.1049 0.8952 0.0426
C10 C 0.0809(11) 0.7141(9) -0.0027(7)
H6 H 0.0362 0.7138 -0.0944
C11 C 0.2220(11) 0.6149(8) 0.0405(6)
H7 H 0.2822 0.5362 -0.0107
C12 C 0.2760(9) 0.6235(7) 0.1567(6)
H8 H 0.3764 0.5516 0.1835
C13 C 0.3154(9) 0.9768(7) 0.3297(6)
C14 C 0.4521(10) 0.9712(7) 0.2167(6)
H9 H 0.5310 0.8820 0.1934
C15 C 0.4784(11) 1.0915(7) 0.1384(7)
H10 H 0.5862 1.0809 0.0602
C16 C 0.3711(10) 1.2190(7) 0.1709(7)
H11 H 0.3740 1.2948 0.1131
C17 C 0.2361(11) 1.2283(7) 0.2784(9)
H12 H 0.1562 1.3197 0.2906
C18 C 0.2084(9) 1.1092(7) 0.3614(8)
H13 H 0.1219 1.1163 0.4423
loop_
_geom_bond_atom_site_label_1
_geom_bond_atom_site_label_2
_geom_bond_site_symmetry_1
_geom_bond_site_symmetry_2
Br1 C1 1_555 1_555
C1 C2 1_555 1_555
C2 H1 1_555 1_555
C3 C2 1_555 1_555
H2 C3 1_555 1_555
C4 C3 1_555 1_555
C5 C4 1_555 1_555
C6 C1 1_555 1_555
H3 C6 1_555 1_555
C7 C5 1_555 1_555
C8 C7 1_555 1_555
H4 C8 1_555 1_555
C9 C8 1_555 1_555
H5 C9 1_555 1_555
C10 C9 1_555 1_555
H6 C10 1_555 1_555
C11 C10 1_555 1_555
H7 C11 1_555 1_555
C12 C7 1_555 1_555
H8 C12 1_555 1_555
C13 C4 1_555 1_555
C14 C13 1_555 1_555
H9 C14 1_555 1_555
C15 C14 1_555 1_555
H10 C15 1_555 1_555
C16 C15 1_555 1_555
H11 C16 1_555 1_555
C17 C16 1_555 1_555
H12 C17 1_555 1_555
C18 C13 1_555 1_555
H13 C18 1_555 1_555
C5 C6 1_555 1_555
C11 C12 1_555 1_555
C17 C18 1_555 1_555

#END
