
#######################################################################
#
#                 Cambridge Crystallographic Data Centre
#                                CCDC 
#
#######################################################################
#
# If this CIF has been generated from an entry in the Cambridge 
# Structural Database, then it will include bibliographic, chemical, 
# crystal, experimental, refinement or atomic coordinate data resulting 
# from the CCDC's data processing and validation procedures.
#
#######################################################################

data_XUMSII
_chemical_formula_moiety         'C18 H12 Br2'
_chemical_name_systematic        4',5'-Dibromo-1,1':2',1''-terphenyl
_symmetry_cell_setting           orthorhombic
_symmetry_space_group_name_H-M   'P c a b'
_symmetry_Int_Tables_number      61
_space_group_name_Hall           '-P 2bc 2ac'
loop_
_symmetry_equiv_pos_site_id
_symmetry_equiv_pos_as_xyz
1 x,y,z
2 -x,1/2-y,1/2+z
3 1/2+x,-y,1/2-z
4 1/2-x,1/2+y,-z
5 -x,-y,-z
6 x,1/2+y,1/2-z
7 1/2-x,y,1/2+z
8 1/2+x,1/2-y,z
_cell_length_a                   7.90300(10)
_cell_length_b                   11.5700(2)
_cell_length_c                   32.8950(7)
_cell_angle_alpha                90
_cell_angle_beta                 90
_cell_angle_gamma                90
_cell_volume                     3007.84
_exptl_crystal_colour            colorless
_exptl_crystal_description       prism
_cell_formula_units_Z            8
loop_
_atom_site_label
_atom_site_type_symbol
_atom_site_fract_x
_atom_site_fract_y
_atom_site_fract_z
Br1 Br 0.63051(5) 0.95950(4) 0.056877(14)
Br2 Br 0.77490(5) 0.74812(4) -0.004290(13)
C1 C 0.6235(5) 0.8023(3) 0.07277(13)
C2 C 0.6805(5) 0.7154(4) 0.04714(12)
C3 C 0.6720(5) 0.6006(4) 0.05966(12)
H1 H 0.7107 0.5403 0.0419
C4 C 0.6086(5) 0.5725(3) 0.09768(12)
C5 C 0.5463(4) 0.6604(4) 0.12364(12)
C6 C 0.5551(5) 0.7744(4) 0.11027(12)
H2 H 0.5133 0.8355 0.1273
C7 C 0.4690(5) 0.6355(3) 0.16397(12)
C8 C 0.5189(5) 0.6961(4) 0.19837(14)
H3 H 0.6014 0.7566 0.1960
C9 C 0.4467(6) 0.6727(4) 0.23570(14)
H4 H 0.4841 0.7150 0.2592
C10 C 0.3261(6) 0.5866(4) 0.23977(14)
H5 H 0.2763 0.5704 0.2658
C11 C 0.2750(5) 0.5260(4) 0.20568(13)
H6 H 0.1932 0.4651 0.2082
C12 C 0.3442(5) 0.5503(3) 0.16810(13)
H7 H 0.3048 0.5098 0.1445
C13 C 0.6066(5) 0.4473(3) 0.10981(12)
C14 C 0.6825(5) 0.4100(4) 0.14560(13)
H8 H 0.7423 0.4640 0.1625
C15 C 0.6775(5) 0.2953(4) 0.15682(13)
H9 H 0.7304 0.2711 0.1816
C16 C 0.5959(5) 0.2160(4) 0.13221(13)
H10 H 0.5907 0.1362 0.1401
C17 C 0.5209(5) 0.2504(3) 0.09643(13)
H11 H 0.4634 0.1959 0.0793
C18 C 0.5287(5) 0.3659(3) 0.08522(12)
H12 H 0.4800 0.3909 0.0599
loop_
_geom_bond_atom_site_label_1
_geom_bond_atom_site_label_2
_geom_bond_site_symmetry_1
_geom_bond_site_symmetry_2
Br1 C1 1_555 1_555
Br2 C2 1_555 1_555
C1 C2 1_555 1_555
C2 C3 1_555 1_555
C3 H1 1_555 1_555
C4 C3 1_555 1_555
C5 C4 1_555 1_555
C6 C1 1_555 1_555
H2 C6 1_555 1_555
C7 C5 1_555 1_555
C8 C7 1_555 1_555
H3 C8 1_555 1_555
C9 C8 1_555 1_555
H4 C9 1_555 1_555
C10 C9 1_555 1_555
H5 C10 1_555 1_555
C11 C10 1_555 1_555
H6 C11 1_555 1_555
C12 C7 1_555 1_555
H7 C12 1_555 1_555
C13 C4 1_555 1_555
C14 C13 1_555 1_555
H8 C14 1_555 1_555
C15 C14 1_555 1_555
H9 C15 1_555 1_555
C16 C15 1_555 1_555
H10 C16 1_555 1_555
C17 C16 1_555 1_555
H11 C17 1_555 1_555
C18 C13 1_555 1_555
H12 C18 1_555 1_555
C5 C6 1_555 1_555
C11 C12 1_555 1_555
C17 C18 1_555 1_555

#END
