
#######################################################################
#
#                 Cambridge Crystallographic Data Centre
#                                CCDC 
#
#######################################################################
#
# If this CIF has been generated from an entry in the Cambridge 
# Structural Database, then it will include bibliographic, chemical, 
# crystal, experimental, refinement or atomic coordinate data resulting 
# from the CCDC's data processing and validation procedures.
#
#######################################################################

data_XUMVOQ
_chemical_formula_moiety         'C23 H28 N2 O1'
_chemical_name_systematic        4,4'-bis(Piperidino)benzophenone
_symmetry_cell_setting           trigonal
_symmetry_space_group_name_H-M   'P 31 2 1'
_symmetry_Int_Tables_number      152
_space_group_name_Hall           'P 31 2"'
loop_
_symmetry_equiv_pos_site_id
_symmetry_equiv_pos_as_xyz
1 x,y,z
2 -y,x-y,1/3+z
3 -x+y,-x,2/3+z
4 y,x,-z
5 x-y,-y,2/3-z
6 -x,-x+y,1/3-z
_cell_length_a                   9.4811(11)
_cell_length_b                   9.4811(11)
_cell_length_c                   18.180(3)
_cell_angle_alpha                90
_cell_angle_beta                 90
_cell_angle_gamma                120
_cell_volume                     1415.28
_exptl_crystal_colour            yellow
_exptl_crystal_description       plate
_chemical_melting_point          152deg.C
_cell_formula_units_Z            3
loop_
_atom_site_label
_atom_site_type_symbol
_atom_site_fract_x
_atom_site_fract_y
_atom_site_fract_z
O1 O 0.01582(11) 0.01582(11) 0.0000
N1 N 0.45151(10) 0.36078(10) 0.28156(4)
C1 C 0.14563(15) 0.14563(15) 0.0000
C2 C 0.23554(12) 0.20784(12) 0.07066(5)
C3 C 0.19840(12) 0.09648(12) 0.12793(5)
H1 H 0.1215(16) -0.0195(16) 0.1181(7)
C4 C 0.27014(12) 0.14390(12) 0.19658(5)
H2 H 0.2448(18) 0.0624(19) 0.2333(8)
C5 C 0.38334(12) 0.30813(12) 0.21161(5)
C6 C 0.41956(13) 0.42137(12) 0.15414(5)
H3 H 0.4878(17) 0.5354(17) 0.1643(7)
C7 C 0.34703(13) 0.37199(12) 0.08583(5)
H4 H 0.3728(17) 0.4544(18) 0.0492(7)
C8 C 0.39796(13) 0.23880(12) 0.34039(5)
H5 H 0.2798(17) 0.1681(16) 0.3355(6)
H6 H 0.4479(17) 0.1681(16) 0.3343(7)
C9 C 0.44070(13) 0.31969(14) 0.41584(6)
H7 H 0.4096(17) 0.2370(17) 0.4558(7)
H8 H 0.3767(18) 0.3776(17) 0.4229(7)
C10 C 0.62114(15) 0.44390(15) 0.42228(6)
H9 H 0.6443(18) 0.4975(18) 0.4729(8)
H10 H 0.685(2) 0.386(2) 0.4173(8)
C11 C 0.67036(16) 0.56748(15) 0.36031(6)
H11 H 0.6118(19) 0.624(2) 0.3642(8)
H12 H 0.791(2) 0.651(2) 0.3637(7)
C12 C 0.62609(13) 0.48215(15) 0.28581(6)
H13 H 0.6509(19) 0.560(2) 0.2481(7)
H14 H 0.691(2) 0.422(2) 0.2761(9)
C2C C 0.20784(12) 0.23554(12) -0.07066(5)
C3C C 0.09648(12) 0.19840(12) -0.12793(5)
H1C H -0.0195(16) 0.1215(16) -0.1181(7)
C4C C 0.14390(12) 0.27014(12) -0.19658(5)
H2C H 0.0624(19) 0.2448(18) -0.2333(8)
C5C C 0.30813(12) 0.38334(12) -0.21161(5)
N1C N 0.36078(10) 0.45151(10) -0.28156(4)
C8C C 0.23880(12) 0.39796(13) -0.34039(5)
H5C H 0.1681(16) 0.2798(17) -0.3355(6)
H6C H 0.1681(16) 0.4479(17) -0.3343(7)
C9C C 0.31969(14) 0.44070(13) -0.41584(6)
H7C H 0.2370(17) 0.4096(17) -0.4558(7)
H8C H 0.3776(17) 0.3767(18) -0.4229(7)
C10C C 0.44390(15) 0.62114(15) -0.42228(6)
H9C H 0.4975(18) 0.6443(18) -0.4729(8)
H10C H 0.386(2) 0.685(2) -0.4173(8)
C11C C 0.56748(15) 0.67036(16) -0.36031(6)
H11C H 0.624(2) 0.6118(19) -0.3642(8)
H12C H 0.651(2) 0.791(2) -0.3637(7)
C12C C 0.48215(15) 0.62609(13) -0.28581(6)
H13C H 0.560(2) 0.6509(19) -0.2481(7)
H14C H 0.422(2) 0.691(2) -0.2761(9)
C6C C 0.42137(12) 0.41956(13) -0.15414(5)
H3C H 0.5354(17) 0.4878(17) -0.1643(7)
C7C C 0.37199(12) 0.34703(13) -0.08583(5)
H4C H 0.4544(18) 0.3728(17) -0.0492(7)
loop_
_geom_bond_atom_site_label_1
_geom_bond_atom_site_label_2
_geom_bond_site_symmetry_1
_geom_bond_site_symmetry_2
O1 C1 1_555 1_555
N1 C5 1_555 1_555
C1 C2 1_555 1_555
C2 C3 1_555 1_555
C3 H1 1_555 1_555
C4 C3 1_555 1_555
H2 C4 1_555 1_555
C5 C4 1_555 1_555
C6 C5 1_555 1_555
H3 C6 1_555 1_555
C7 C2 1_555 1_555
H4 C7 1_555 1_555
C8 N1 1_555 1_555
H5 C8 1_555 1_555
H6 C8 1_555 1_555
C9 C8 1_555 1_555
H7 C9 1_555 1_555
H8 C9 1_555 1_555
C10 C9 1_555 1_555
H9 C10 1_555 1_555
H10 C10 1_555 1_555
C11 C10 1_555 1_555
H11 C11 1_555 1_555
H12 C11 1_555 1_555
C12 N1 1_555 1_555
H13 C12 1_555 1_555
H14 C12 1_555 1_555
C2C C1 1_555 1_555
C3C C2C 1_555 1_555
H1C C3C 1_555 1_555
C4C C3C 1_555 1_555
H2C C4C 1_555 1_555
C5C C4C 1_555 1_555
N1C C5C 1_555 1_555
C8C N1C 1_555 1_555
H5C C8C 1_555 1_555
H6C C8C 1_555 1_555
C9C C8C 1_555 1_555
H7C C9C 1_555 1_555
H8C C9C 1_555 1_555
C10C C9C 1_555 1_555
H9C C10C 1_555 1_555
H10C C10C 1_555 1_555
C11C C10C 1_555 1_555
H11C C11C 1_555 1_555
H12C C11C 1_555 1_555
C12C N1C 1_555 1_555
H13C C12C 1_555 1_555
H14C C12C 1_555 1_555
C6C C5C 1_555 1_555
H3C C6C 1_555 1_555
C7C C2C 1_555 1_555
H4C C7C 1_555 1_555
C6 C7 1_555 1_555
C11 C12 1_555 1_555
C11C C12C 1_555 1_555
C6C C7C 1_555 1_555

#END
