
#######################################################################
#
#                 Cambridge Crystallographic Data Centre
#                                CCDC 
#
#######################################################################
#
# If this CIF has been generated from an entry in the Cambridge 
# Structural Database, then it will include bibliographic, chemical, 
# crystal, experimental, refinement or atomic coordinate data resulting 
# from the CCDC's data processing and validation procedures.
#
#######################################################################

data_XUMWAD
_chemical_formula_moiety         'C30 H26 N2 O2'
_chemical_name_systematic        1,4-bis(4-Benzoylphenyl)piperazine
_symmetry_cell_setting           triclinic
_symmetry_space_group_name_H-M   'P -1'
_symmetry_Int_Tables_number      2
_space_group_name_Hall           '-P 1'
loop_
_symmetry_equiv_pos_site_id
_symmetry_equiv_pos_as_xyz
1 x,y,z
2 -x,-y,-z
_cell_length_a                   10.340(2)
_cell_length_b                   10.799(2)
_cell_length_c                   11.272(2)
_cell_angle_alpha                72.062(4)
_cell_angle_beta                 73.361(4)
_cell_angle_gamma                74.549(4)
_cell_volume                     1125.18
_exptl_crystal_colour            yellow
_exptl_crystal_description       block
_chemical_melting_point          213deg.C
_cell_formula_units_Z            2
loop_
_atom_site_label
_atom_site_type_symbol
_atom_site_fract_x
_atom_site_fract_y
_atom_site_fract_z
O1 O 0.78953(19) -0.28295(17) 0.5868(2)
N1 N 0.9826(2) -0.8649(2) 0.9267(2)
C1 C 0.9020(3) -0.3374(2) 0.6126(3)
C2 C 0.9255(3) -0.4757(2) 0.6892(3)
C3 C 1.0558(3) -0.5583(3) 0.6818(3)
H1 H 1.142(3) -0.528(2) 0.621(2)
C4 C 1.0744(3) -0.6870(3) 0.7554(3)
H2 H 1.168(3) -0.740(2) 0.747(3)
C5 C 0.9640(3) -0.7390(2) 0.8431(3)
C6 C 0.8327(3) -0.6566(3) 0.8482(3)
H3 H 0.753(3) -0.687(3) 0.909(3)
C7 C 0.8150(3) -0.5292(3) 0.7721(3)
H4 H 0.720(3) -0.470(3) 0.776(3)
C8 C 0.8668(4) -0.9293(4) 0.9892(5)
H5 H 0.784(4) -0.857(4) 1.031(4)
H6 H 0.829(7) -0.952(6) 0.944(7)
C9 C 1.1061(4) -0.9595(4) 0.8962(4)
H7 H 1.189(4) -0.915(3) 0.854(4)
H8 H 1.111(4) -0.997(4) 0.830(4)
C10 C 1.0145(3) -0.2596(2) 0.5679(3)
C11 C 1.0278(3) -0.1717(3) 0.4483(3)
H9 H 0.963(3) -0.164(2) 0.398(3)
C12 C 1.1245(3) -0.0919(3) 0.4087(3)
H10 H 1.132(3) -0.032(2) 0.325(3)
C13 C 1.2050(3) -0.0952(3) 0.4892(3)
H11 H 1.273(2) -0.035(2) 0.461(2)
C14 C 1.1920(3) -0.1823(3) 0.6080(3)
H12 H 1.252(2) -0.192(2) 0.663(2)
C15 C 1.0991(3) -0.2660(3) 0.6468(3)
H13 H 1.089(3) -0.328(3) 0.733(3)
C9A C 0.8939(4) -1.0405(4) 1.1038(4)
N1A N 1.0174(2) -1.1351(2) 1.0733(2)
C5A C 1.0360(3) -1.2610(2) 1.1569(3)
C4A C 0.9256(3) -1.3130(3) 1.2446(3)
C3A C 0.9442(3) -1.4417(3) 1.3182(3)
C2A C 1.0745(3) -1.5243(2) 1.3108(3)
C1A C 1.0980(3) -1.6626(2) 1.3874(3)
O1A O 1.21047(19) -1.71705(17) 1.4132(2)
C10A C 0.9855(3) -1.7404(2) 1.4321(3)
C11A C 0.9722(3) -1.8283(3) 1.5517(3)
H9A H 1.037(3) -1.836(2) 1.602(3)
C12A C 0.8755(3) -1.9081(3) 1.5913(3)
H10A H 0.868(3) -1.968(2) 1.675(3)
C13A C 0.7950(3) -1.9048(3) 1.5108(3)
H11A H 0.727(2) -1.965(2) 1.539(2)
C14A C 0.8080(3) -1.8177(3) 1.3920(3)
H12A H 0.748(2) -1.808(2) 1.337(2)
C15A C 0.9009(3) -1.7340(3) 1.3532(3)
H13A H 0.911(3) -1.672(3) 1.267(3)
C7A C 1.1850(3) -1.4708(3) 1.2279(3)
C6A C 1.1673(3) -1.3434(3) 1.1518(3)
H3A H 1.247(3) -1.313(3) 1.091(3)
H4A H 1.280(3) -1.530(3) 1.224(3)
H1A H 0.858(3) -1.472(2) 1.379(2)
H2A H 0.832(3) -1.260(2) 1.253(3)
C8A C 1.1332(4) -1.0707(4) 1.0108(5)
H5A H 1.216(4) -1.143(4) 0.969(4)
H6A H 1.171(7) -1.048(6) 1.056(7)
H7A H 0.811(4) -1.085(3) 1.146(4)
H8A H 0.889(4) -1.003(4) 1.170(4)
O2 O 0.4223(2) -0.23788(17) 0.8128(2)
N2 N 0.4764(2) 0.37152(18) 0.5814(2)
C16 C 0.5000(3) -0.1788(2) 0.8285(3)
C17 C 0.4927(3) -0.0352(2) 0.7691(3)
C18 C 0.5357(3) 0.0487(2) 0.8166(3)
H14 H 0.570(2) 0.010(2) 0.894(2)
C19 C 0.5286(3) 0.1813(3) 0.7569(3)
H15 H 0.564(3) 0.233(3) 0.789(3)
C20 C 0.4787(2) 0.2382(2) 0.6443(3)
C21 C 0.4304(3) 0.1548(3) 0.6003(3)
H16 H 0.394(2) 0.187(2) 0.533(3)
C22 C 0.4359(3) 0.0226(3) 0.6626(3)
H17 H 0.407(2) -0.035(2) 0.625(2)
C23 C 0.5803(3) 0.4338(3) 0.5932(3)
H18 H 0.585(3) 0.406(3) 0.686(3)
H19 H 0.668(3) 0.404(3) 0.538(3)
C24 C 0.4551(3) 0.4163(3) 0.4509(3)
H20 H 0.538(3) 0.382(2) 0.386(3)
H21 H 0.378(3) 0.380(2) 0.446(3)
C25 C 0.6028(3) -0.2560(2) 0.9095(3)
C26 C 0.7308(3) -0.2239(3) 0.8858(3)
H22 H 0.757(3) -0.147(3) 0.819(3)
C27 C 0.8251(3) -0.3027(3) 0.9588(3)
H23 H 0.911(3) -0.275(2) 0.941(2)
C28 C 0.7908(4) -0.4131(3) 1.0524(3)
H24 H 0.858(3) -0.469(3) 1.100(3)
C29 C 0.6656(4) -0.4472(3) 1.0752(3)
H25 H 0.634(3) -0.522(3) 1.139(3)
C30 C 0.5711(3) -0.3680(3) 1.0038(3)
H26 H 0.481(3) -0.389(2) 1.013(2)
C24A C 0.5449(3) 0.5837(3) 0.5491(3)
N2A N 0.5236(2) 0.62848(18) 0.4186(2)
C20A C 0.5213(2) 0.7618(2) 0.3557(3)
C19A C 0.4714(3) 0.8187(3) 0.2431(3)
C18A C 0.4643(3) 0.9513(2) 0.1834(3)
C17A C 0.5073(3) 1.0352(2) 0.2309(3)
C16A C 0.5000(3) 1.1788(2) 0.1715(3)
O2A O 0.5777(2) 1.23788(17) 0.1872(2)
C25A C 0.3972(3) 1.2560(2) 0.0905(3)
C26A C 0.2692(3) 1.2239(3) 0.1142(3)
H22A H 0.243(3) 1.147(3) 0.181(3)
C27A C 0.1749(3) 1.3027(3) 0.0412(3)
H23A H 0.089(3) 1.275(2) 0.059(2)
C28A C 0.2092(4) 1.4131(3) -0.0524(3)
H24A H 0.142(3) 1.469(3) -0.100(3)
C29A C 0.3344(4) 1.4472(3) -0.0752(3)
H25A H 0.366(3) 1.522(3) -0.139(3)
C30A C 0.4289(3) 1.3680(3) -0.0038(3)
H26A H 0.519(3) 1.389(2) -0.013(2)
C22A C 0.5641(3) 0.9774(3) 0.3374(3)
C21A C 0.5696(3) 0.8452(3) 0.3997(3)
H16A H 0.606(2) 0.813(2) 0.467(3)
H17A H 0.593(2) 1.035(2) 0.375(2)
H14A H 0.430(2) 0.990(2) 0.106(2)
H15A H 0.436(3) 0.767(3) 0.211(3)
C23A C 0.4197(3) 0.5662(3) 0.4068(3)
H18A H 0.415(3) 0.594(3) 0.314(3)
H19A H 0.332(3) 0.596(3) 0.462(3)
H20A H 0.462(3) 0.618(2) 0.614(3)
H21A H 0.622(3) 0.620(2) 0.554(3)
loop_
_geom_bond_atom_site_label_1
_geom_bond_atom_site_label_2
_geom_bond_site_symmetry_1
_geom_bond_site_symmetry_2
O1 C1 1_555 1_555
N1 C5 1_555 1_555
C1 C2 1_555 1_555
C2 C3 1_555 1_555
C3 H1 1_555 1_555
C4 C3 1_555 1_555
H2 C4 1_555 1_555
C5 C4 1_555 1_555
C6 C5 1_555 1_555
H3 C6 1_555 1_555
C7 C2 1_555 1_555
H4 C7 1_555 1_555
C8 N1 1_555 1_555
H5 C8 1_555 1_555
H6 C8 1_555 1_555
C9 N1 1_555 1_555
H7 C9 1_555 1_555
H8 C9 1_555 1_555
C10 C1 1_555 1_555
C11 C10 1_555 1_555
H9 C11 1_555 1_555
C12 C11 1_555 1_555
H10 C12 1_555 1_555
C13 C12 1_555 1_555
H11 C13 1_555 1_555
C14 C13 1_555 1_555
H12 C14 1_555 1_555
C15 C10 1_555 1_555
H13 C15 1_555 1_555
O2 C16 1_555 1_555
N2 C20 1_555 1_555
C16 C17 1_555 1_555
C17 C18 1_555 1_555
C18 H14 1_555 1_555
C19 C18 1_555 1_555
H15 C19 1_555 1_555
C20 C19 1_555 1_555
C21 C20 1_555 1_555
H16 C21 1_555 1_555
C22 C17 1_555 1_555
H17 C22 1_555 1_555
C23 N2 1_555 1_555
H18 C23 1_555 1_555
H19 C23 1_555 1_555
C24 N2 1_555 1_555
H20 C24 1_555 1_555
H21 C24 1_555 1_555
C25 C16 1_555 1_555
C26 C25 1_555 1_555
H22 C26 1_555 1_555
C27 C26 1_555 1_555
H23 C27 1_555 1_555
C28 C27 1_555 1_555
H24 C28 1_555 1_555
C29 C28 1_555 1_555
H25 C29 1_555 1_555
C30 C25 1_555 1_555
H26 C30 1_555 1_555
C9A C8 1_555 1_555
N1A C9A 1_555 1_555
C5A N1A 1_555 1_555
C4A C5A 1_555 1_555
C3A C4A 1_555 1_555
C2A C3A 1_555 1_555
C1A C2A 1_555 1_555
O1A C1A 1_555 1_555
C10A C1A 1_555 1_555
C11A C10A 1_555 1_555
H9A C11A 1_555 1_555
C12A C11A 1_555 1_555
H10A C12A 1_555 1_555
C13A C12A 1_555 1_555
H11A C13A 1_555 1_555
C14A C13A 1_555 1_555
H12A C14A 1_555 1_555
C15A C10A 1_555 1_555
H13A C15A 1_555 1_555
C7A C2A 1_555 1_555
C6A C5A 1_555 1_555
H3A C6A 1_555 1_555
H4A C7A 1_555 1_555
H1A C3A 1_555 1_555
H2A C4A 1_555 1_555
C8A C9 1_555 1_555
H5A C8A 1_555 1_555
H6A C8A 1_555 1_555
H7A C9A 1_555 1_555
H8A C9A 1_555 1_555
C24A C23 1_555 1_555
N2A C24A 1_555 1_555
C20A N2A 1_555 1_555
C19A C20A 1_555 1_555
C18A C19A 1_555 1_555
C17A C18A 1_555 1_555
C16A C17A 1_555 1_555
O2A C16A 1_555 1_555
C25A C16A 1_555 1_555
C26A C25A 1_555 1_555
H22A C26A 1_555 1_555
C27A C26A 1_555 1_555
H23A C27A 1_555 1_555
C28A C27A 1_555 1_555
H24A C28A 1_555 1_555
C29A C28A 1_555 1_555
H25A C29A 1_555 1_555
C30A C25A 1_555 1_555
H26A C30A 1_555 1_555
C22A C17A 1_555 1_555
C21A C20A 1_555 1_555
H16A C21A 1_555 1_555
H17A C22A 1_555 1_555
H14A C18A 1_555 1_555
H15A C19A 1_555 1_555
C23A C24 1_555 1_555
H18A C23A 1_555 1_555
H19A C23A 1_555 1_555
H20A C24A 1_555 1_555
H21A C24A 1_555 1_555
C6 C7 1_555 1_555
C14 C15 1_555 1_555
C21 C22 1_555 1_555
C29 C30 1_555 1_555
N1A C8A 1_555 1_555
C14A C15A 1_555 1_555
C7A C6A 1_555 1_555
N2A C23A 1_555 1_555
C29A C30A 1_555 1_555
C22A C21A 1_555 1_555

#END
