
#######################################################################
#
#                 Cambridge Crystallographic Data Centre
#                                CCDC 
#
#######################################################################
#
# If this CIF has been generated from an entry in the Cambridge 
# Structural Database, then it will include bibliographic, chemical, 
# crystal, experimental, refinement or atomic coordinate data resulting 
# from the CCDC's data processing and validation procedures.
#
#######################################################################

data_XUMWUY
_chemical_formula_moiety         'C18 H27 B1 Li1 N9 O3'
_chemical_name_systematic        
(1,1',1''-(1H-Imidazol-1-yl)-\l^5^-boranetriyl)-tris(1H-imidazole)-(2,2',2''-(nitrilo)triethanol)-lithium
_symmetry_cell_setting           orthorhombic
_symmetry_space_group_name_H-M   'P 21 21 21'
_symmetry_Int_Tables_number      19
_space_group_name_Hall           'P 2ac 2ab'
loop_
_symmetry_equiv_pos_site_id
_symmetry_equiv_pos_as_xyz
1 x,y,z
2 1/2-x,-y,1/2+z
3 -x,1/2+y,1/2-z
4 1/2+x,1/2-y,-z
_cell_length_a                   7.44740(10)
_cell_length_b                   10.1434(2)
_cell_length_c                   30.0269(5)
_cell_angle_alpha                90
_cell_angle_beta                 90
_cell_angle_gamma                90
_cell_volume                     2268.29
_exptl_crystal_colour            colorless
_exptl_crystal_description       prism
_cell_formula_units_Z            4
loop_
_atom_site_label
_atom_site_type_symbol
_atom_site_fract_x
_atom_site_fract_y
_atom_site_fract_z
Li1 Li 0.3099(7) 0.1154(5) 0.08767(17)
B1 B 0.7687(5) 0.4741(3) 0.17788(11)
N1 N 0.1706(4) -0.0067(2) 0.03214(8)
N2 N 0.9396(4) 0.5045(3) 0.29480(9)
N3 N 0.4617(4) 0.2118(2) 0.13766(8)
N4 N 1.0983(4) 0.4414(3) 0.08537(9)
N5 N 0.6442(4) 0.5956(2) 0.17354(8)
N6 N 0.8648(4) 0.4708(2) 0.22369(8)
N7 N 0.6573(3) 0.3484(2) 0.17079(7)
N8 N 0.9180(3) 0.4846(2) 0.14266(8)
N9 N 0.5246(4) 0.7798(3) 0.14542(11)
C1 C 0.4690(6) -0.1053(4) 0.03871(12)
H1 H 0.5300 -0.1895 0.0410
H2 H 0.5235 -0.0563 0.0145
C2 C 0.1615(5) 0.2196(3) 0.00413(12)
H3 H 0.1875 0.2736 -0.0217
H4 H 0.0382 0.2358 0.0130
C3 C -0.0195(5) -0.0389(4) 0.09750(11)
H5 H -0.1433 -0.0375 0.1076
H6 H 0.0341 -0.1218 0.1065
C4 C -0.0121(5) -0.0252(4) 0.04792(11)
H7 H -0.0624 -0.1037 0.0343
H8 H -0.0848 0.0495 0.0389
C5 C 0.1849(5) 0.0774(3) -0.00737(10)
H9 H 0.0939 0.0518 -0.0288
H10 H 0.3015 0.0647 -0.0211
C6 C 0.2729(5) -0.1283(3) 0.02843(13)
H11 H 0.2612 -0.1631 -0.0015
H12 H 0.2247 -0.1931 0.0490
C7 C 1.0163(5) 0.3985(3) 0.23279(10)
H13 H 1.0778 0.3447 0.2129
C8 C 0.9575(5) 0.4031(3) 0.10874(10)
H14 H 0.8922 0.3272 0.1024
C9 C 0.4990(5) 0.6299(3) 0.19933(11)
H15 H 0.4561 0.5839 0.2239
C10 C 1.0494(5) 0.5802(3) 0.14092(12)
H16 H 1.0626 0.6505 0.1605
C11 C 1.1546(5) 0.5536(3) 0.10599(12)
H17 H 1.2521 0.6044 0.0971
C12 C 1.0601(5) 0.4198(3) 0.27594(11)
H18 H 1.1576 0.3822 0.2906
C13 C 0.4300(5) 0.7422(3) 0.18259(13)
H19 H 0.3326 0.7876 0.1944
C14 C 0.6888(5) 0.2231(3) 0.18613(10)
H20 H 0.7760 0.1985 0.2067
C15 C 0.6500(5) 0.6889(3) 0.14164(11)
H21 H 0.7350 0.6891 0.1190
C16 C 0.5710(5) 0.1424(3) 0.16607(10)
H22 H 0.5643 0.0519 0.1708
C17 C 0.8266(5) 0.5326(3) 0.26240(10)
H23 H 0.7297 0.5896 0.2659
C18 C 0.5188(4) 0.3336(3) 0.14190(10)
H24 H 0.4685 0.4038 0.1264
O1 O 0.4909(3) -0.0348(2) 0.07883(8)
H25 H 0.4953 -0.0867 0.0997
O2 O 0.2785(3) 0.2538(2) 0.03934(6)
H26 H 0.2457 0.3236 0.0505
O3 O 0.0767(3) 0.0683(2) 0.11651(7)
H27 H 0.0658 0.0665 0.1437
loop_
_geom_bond_atom_site_label_1
_geom_bond_atom_site_label_2
_geom_bond_site_symmetry_1
_geom_bond_site_symmetry_2
Li1 N1 1_555 1_555
B1 N5 1_555 1_555
N1 C4 1_555 1_555
N2 C12 1_555 1_555
N3 Li1 1_555 1_555
N4 C8 1_555 1_555
N5 C9 1_555 1_555
N6 B1 1_555 1_555
N7 B1 1_555 1_555
N8 B1 1_555 1_555
N9 C13 1_555 1_555
C1 H1 1_555 1_555
H2 C1 1_555 1_555
C2 H3 1_555 1_555
H4 C2 1_555 1_555
C3 H5 1_555 1_555
H6 C3 1_555 1_555
C4 C3 1_555 1_555
H7 C4 1_555 1_555
H8 C4 1_555 1_555
C5 N1 1_555 1_555
H9 C5 1_555 1_555
H10 C5 1_555 1_555
C6 N1 1_555 1_555
H11 C6 1_555 1_555
H12 C6 1_555 1_555
C7 N6 1_555 1_555
H13 C7 1_555 1_555
C8 N8 1_555 1_555
H14 C8 1_555 1_555
C9 H15 1_555 1_555
C10 N8 1_555 1_555
H16 C10 1_555 1_555
C11 N4 1_555 1_555
H17 C11 1_555 1_555
C12 C7 1_555 1_555
H18 C12 1_555 1_555
C13 C9 1_555 1_555
H19 C13 1_555 1_555
C14 N7 1_555 1_555
H20 C14 1_555 1_555
C15 N5 1_555 1_555
H21 C15 1_555 1_555
C16 N3 1_555 1_555
H22 C16 1_555 1_555
C17 N2 1_555 1_555
H23 C17 1_555 1_555
C18 N3 1_555 1_555
H24 C18 1_555 1_555
O1 Li1 1_555 1_555
H25 O1 1_555 1_555
O2 Li1 1_555 1_555
H26 O2 1_555 1_555
O3 Li1 1_555 1_555
H27 O3 1_555 1_555
N6 C17 1_555 1_555
N7 C18 1_555 1_555
N9 C15 1_555 1_555
C1 C6 1_555 1_555
C1 O1 1_555 1_555
C2 C5 1_555 1_555
C2 O2 1_555 1_555
C3 O3 1_555 1_555
C10 C11 1_555 1_555
C14 C16 1_555 1_555

#END
