
#######################################################################
#
#                 Cambridge Crystallographic Data Centre
#                                CCDC 
#
#######################################################################
#
# If this CIF has been generated from an entry in the Cambridge 
# Structural Database, then it will include bibliographic, chemical, 
# crystal, experimental, refinement or atomic coordinate data resulting 
# from the CCDC's data processing and validation procedures.
#
#######################################################################

data_XUMWOS
_chemical_formula_moiety         'C4 H12 Li1 O4 1+,C16 H20 B1 N8 1-'
_chemical_name_systematic        
'bis(Ethylene glycol)-lithium tris(2-methylimidazolyl)borate'
_symmetry_cell_setting           tetragonal
_symmetry_space_group_name_H-M   'I -4'
_symmetry_Int_Tables_number      82
_space_group_name_Hall           'I -4'
loop_
_symmetry_equiv_pos_site_id
_symmetry_equiv_pos_as_xyz
1 x,y,z
2 -x,-y,z
3 y,-x,-z
4 -y,x,-z
5 1/2+x,1/2+y,1/2+z
6 1/2-x,1/2-y,1/2+z
7 1/2+y,1/2-x,1/2-z
8 1/2-y,1/2+x,1/2-z
_cell_length_a                   10.1374(9)
_cell_length_b                   10.1374(9)
_cell_length_c                   24.286(4)
_cell_angle_alpha                90
_cell_angle_beta                 90
_cell_angle_gamma                90
_cell_volume                     2495.8
_exptl_crystal_colour            colorless
_exptl_crystal_description       diamond
_cell_formula_units_Z            4
loop_
_atom_site_label
_atom_site_type_symbol
_atom_site_fract_x
_atom_site_fract_y
_atom_site_fract_z
O1 O 0.5886(4) -0.3626(4) -0.24013(16)
H1 H 0.568(7) -0.328(7) -0.210(3)
O2 O 0.6712(3) -0.5229(3) -0.31778(13)
H2 H 0.685(6) -0.555(6) -0.353(3)
Li1 Li 0.5000 -0.5000 -0.2800(4)
C1 C 0.7279(5) -0.3835(7) -0.2440(3)
C2 C 0.7579(6) -0.4185(6) -0.3017(2)
O1A O 0.4114(4) -0.6374(4) -0.24013(16)
H1A H 0.432(7) -0.672(7) -0.210(3)
O2A O 0.3288(3) -0.4771(3) -0.31778(13)
H2A H 0.315(6) -0.445(6) -0.353(3)
C1A C 0.2721(5) -0.6165(7) -0.2440(3)
C2A C 0.2421(6) -0.5815(6) -0.3017(2)
B1 B 0.5000 0.0000 -0.0330(2)
N1 N 0.5020(3) -0.1247(3) -0.07026(13)
N2 N 0.5427(4) -0.2598(4) -0.14038(16)
N3 N 0.7556(4) 0.0411(4) 0.07603(14)
N4 N 0.6233(3) 0.0023(3) 0.00458(14)
C3 C 0.4466(5) -0.3140(5) -0.1079(2)
H3 H 0.4056 -0.3947 -0.1142
C4 C 0.6731(5) -0.0536(5) -0.14103(19)
H4 H 0.7101 -0.0914 -0.1738
H5 H 0.7421 -0.0380 -0.1147
H6 H 0.6307 0.0284 -0.1499
C5 C 0.4204(4) -0.2322(4) -0.06527(17)
H7 H 0.3585 -0.2462 -0.0376
C6 C 0.5529(5) 0.1764(5) 0.07398(18)
H8 H 0.5888 0.2117 0.1074
H9 H 0.4682 0.1378 0.0814
H10 H 0.5431 0.2459 0.0475
C7 C 0.7312(4) -0.0810(4) 0.00052(17)
H11 H 0.7464 -0.1427 -0.0271
C8 C 0.8099(5) -0.0561(5) 0.04378(18)
H12 H 0.8895 -0.0985 0.0509
C9 C 0.6439(4) 0.0732(4) 0.05164(17)
C10 C 0.5749(4) -0.1458(4) -0.11723(17)
N1A N 0.4980(3) 0.1247(3) -0.07026(13)
N2A N 0.4573(4) 0.2598(4) -0.14038(16)
N3A N 0.2444(4) -0.0411(4) 0.07603(14)
N4A N 0.3767(3) -0.0023(3) 0.00458(14)
C3A C 0.5534(5) 0.3140(5) -0.1079(2)
H3A H 0.5944 0.3947 -0.1142
C4A C 0.3269(5) 0.0536(5) -0.14103(19)
H4A H 0.2899 0.0914 -0.1738
H5A H 0.2579 0.0380 -0.1147
H6A H 0.3693 -0.0284 -0.1499
C5A C 0.5796(4) 0.2322(4) -0.06527(17)
H7A H 0.6415 0.2462 -0.0376
C6A C 0.4471(5) -0.1764(5) 0.07398(18)
H8A H 0.4112 -0.2117 0.1074
H9A H 0.5318 -0.1378 0.0814
H10A H 0.4569 -0.2459 0.0475
C7A C 0.2688(4) 0.0810(4) 0.00052(17)
H11A H 0.2536 0.1427 -0.0271
C8A C 0.1901(5) 0.0561(5) 0.04378(18)
H12A H 0.1105 0.0985 0.0509
C9A C 0.3561(4) -0.0732(4) 0.05164(17)
C10A C 0.4251(4) 0.1458(4) -0.11723(17)
loop_
_geom_bond_atom_site_label_1
_geom_bond_atom_site_label_2
_geom_bond_site_symmetry_1
_geom_bond_site_symmetry_2
O1 H1 1_555 1_555
O2 H2 1_555 1_555
Li1 O1 1_555 1_555
C1 O1 1_555 1_555
C2 O2 1_555 1_555
B1 N1 1_555 1_555
N1 C5 1_555 1_555
N2 C3 1_555 1_555
N3 C8 1_555 1_555
N4 B1 1_555 1_555
C3 H3 1_555 1_555
C4 H4 1_555 1_555
H5 C4 1_555 1_555
H6 C4 1_555 1_555
C5 C3 1_555 1_555
H7 C5 1_555 1_555
C6 H8 1_555 1_555
H9 C6 1_555 1_555
H10 C6 1_555 1_555
C7 N4 1_555 1_555
H11 C7 1_555 1_555
C8 C7 1_555 1_555
H12 C8 1_555 1_555
C9 N3 1_555 1_555
C10 N1 1_555 1_555
O1A Li1 1_555 1_555
H1A O1A 1_555 1_555
O2A Li1 1_555 1_555
H2A O2A 1_555 1_555
C1A O1A 1_555 1_555
C2A O2A 1_555 1_555
N1A B1 1_555 1_555
N2A C3A 1_555 1_555
N3A C8A 1_555 1_555
N4A B1 1_555 1_555
C3A H3A 1_555 1_555
C4A H4A 1_555 1_555
H5A C4A 1_555 1_555
H6A C4A 1_555 1_555
C5A N1A 1_555 1_555
H7A C5A 1_555 1_555
C6A H8A 1_555 1_555
H9A C6A 1_555 1_555
H10A C6A 1_555 1_555
C7A N4A 1_555 1_555
H11A C7A 1_555 1_555
C8A C7A 1_555 1_555
H12A C8A 1_555 1_555
C9A N3A 1_555 1_555
C10A N1A 1_555 1_555
O2 Li1 1_555 1_555
C1 C2 1_555 1_555
N2 C10 1_555 1_555
N4 C9 1_555 1_555
C4 C10 1_555 1_555
C6 C9 1_555 1_555
C1A C2A 1_555 1_555
N2A C10A 1_555 1_555
N4A C9A 1_555 1_555
C3A C5A 1_555 1_555
C4A C10A 1_555 1_555
C6A C9A 1_555 1_555

#END
