
#######################################################################
#
#                 Cambridge Crystallographic Data Centre
#                                CCDC 
#
#######################################################################
#
# If this CIF has been generated from an entry in the Cambridge 
# Structural Database, then it will include bibliographic, chemical, 
# crystal, experimental, refinement or atomic coordinate data resulting 
# from the CCDC's data processing and validation procedures.
#
#######################################################################

data_XUMZEL
_chemical_formula_moiety         'C22 H32 F3 N3 O5'
_chemical_name_systematic        
't-Butyl N-(1,1,1-trifluoro-3-nitropropan-2-yl)phenylalanylleucinate'
_symmetry_cell_setting           monoclinic
_symmetry_space_group_name_H-M   'P 21'
_symmetry_Int_Tables_number      4
_space_group_name_Hall           'P 2yb'
loop_
_symmetry_equiv_pos_site_id
_symmetry_equiv_pos_as_xyz
1 x,y,z
2 -x,1/2+y,-z
_cell_length_a                   12.058(4)
_cell_length_b                   9.950(3)
_cell_length_c                   21.393(6)
_cell_angle_alpha                90
_cell_angle_beta                 92.830(5)
_cell_angle_gamma                90
_cell_volume                     2563.54
_exptl_crystal_colour            colorless
_exptl_crystal_description       platelet
_cell_formula_units_Z            4
loop_
_atom_site_label
_atom_site_type_symbol
_atom_site_fract_x
_atom_site_fract_y
_atom_site_fract_z
F1 F 0.1176(4) 0.1738(8) 0.4006(3)
F2 F 0.1795(5) -0.0113(6) 0.4404(3)
F3 F 0.2034(5) 0.0313(7) 0.3451(3)
O1 O 0.3451(9) 0.2290(10) 0.2645(3)
O2 O 0.4560(6) 0.1141(11) 0.3216(4)
O3 O 0.5110(4) 0.3620(5) 0.4960(2)
O4 O 0.8662(3) 0.1801(6) 0.5534(2)
O5 O 0.7534(4) 0.0029(5) 0.5562(3)
N1 N 0.3807(6) 0.1919(9) 0.3131(3)
N2 N 0.3009(4) 0.2105(6) 0.4811(3)
H1 H 0.307(4) 0.298(7) 0.478(2)
N3 N 0.5881(4) 0.1536(6) 0.5023(2)
H2 H 0.583(5) 0.107(8) 0.528(3)
C1 C 0.2024(7) 0.0921(10) 0.4007(4)
C2 C 0.3088(5) 0.1543(8) 0.4179(3)
H3 H 0.365(5) 0.096(7) 0.429(3)
C3 C 0.3381(7) 0.2614(9) 0.3691(4)
H4 H 0.2726 0.3138 0.3570
H5 H 0.3942 0.3220 0.3869
C4 C 0.3935(5) 0.1795(7) 0.5233(3)
H6 H 0.410(6) 0.074(10) 0.533(4)
C5 C 0.5035(6) 0.2370(7) 0.5064(3)
C6 C 0.6981(5) 0.2046(10) 0.4976(3)
H7 H 0.703(6) 0.288(10) 0.544(3)
C7 C 0.7275(9) 0.2607(12) 0.4405(5)
H8 H 0.7998 0.3033 0.4454
H9 H 0.6736 0.3283 0.4269
C8 C 0.7305(9) 0.1512(10) 0.3932(6)
H10 H 0.650(5) 0.117(7) 0.386(2)
C9 C 0.8277(11) 0.084(3) 0.3895(10)
H11 H 0.8337 0.0173 0.4219
H12 H 0.8884 0.1461 0.3945
H13 H 0.8298 0.0411 0.3494
C10 C 0.7604(19) 0.245(2) 0.3320(8)
H14 H 0.7656 0.1881 0.2958
H15 H 0.8301 0.2893 0.3405
H16 H 0.7030 0.3101 0.3242
C11 C 0.7732(5) 0.1175(9) 0.5382(3)
C12 C 0.9558(5) 0.1250(10) 0.5940(4)
C13 C 1.0064(9) 0.0093(15) 0.5590(7)
H17 H 0.9536 -0.0628 0.5548
H18 H 1.0720 -0.0217 0.5818
H19 H 1.0255 0.0391 0.5182
C14 C 0.9176(8) 0.0890(15) 0.6519(4)
H20 H 0.8869 0.1665 0.6714
H21 H 0.9781 0.0543 0.6779
H22 H 0.8612 0.0212 0.6462
C15 C 1.0358(7) 0.2417(13) 0.6017(6)
H23 H 1.0009 0.3137 0.6233
H24 H 1.0561 0.2722 0.5613
H25 H 1.1011 0.2132 0.6256
C16 C 0.3696(6) 0.2295(9) 0.5888(3)
H26 H 0.3640 0.3267 0.5879
H27 H 0.2983 0.1944 0.6002
C17 C 0.4540(6) 0.1908(9) 0.6372(3)
C18 C 0.4517(10) 0.0740(11) 0.6695(4)
H28 H 0.3928 0.0153 0.6611
C19 C 0.5324(11) 0.0377(12) 0.7141(4)
H29 H 0.5274 -0.0421 0.7364
C20 C 0.6227(8) 0.126(2) 0.7246(4)
H30 H 0.6810 0.1061 0.7533
C21 C 0.6206(9) 0.232(2) 0.6936(3)
H31 H 0.6801 0.2906 0.7003
C22 C 0.5449(7) 0.2675(14) 0.6538(3)
H32 H 0.5515 0.3508 0.6347
F4 F -0.2656(5) 0.3624(9) 1.1815(3)
F5 F -0.2381(6) 0.5418(7) 1.1313(3)
F6 F -0.1407(6) 0.4931(7) 1.2142(2)
O6 O 0.0475(9) 0.2821(10) 1.2588(3)
O7 O 0.1027(6) 0.4114(11) 1.1884(4)
O8 O 0.0173(5) 0.1756(5) 1.0109(3)
O9 O 0.3061(4) 0.3429(6) 0.8947(2)
O10 O 0.1857(5) 0.5170(6) 0.8979(3)
N4 N 0.0411(7) 0.3250(9) 1.2081(4)
N5 N -0.1649(5) 0.3190(6) 1.0675(3)
H33 H -0.142(4) 0.251(4) 1.073(2)
N6 N 0.0748(5) 0.3843(6) 0.9879(3)
H34 H 0.042(6) 0.433(9) 0.972(3)
C23 C -0.1938(10) 0.4459(11) 1.1637(4)
C24 C -0.1092(7) 0.3708(8) 1.1243(3)
H35 H -0.068(4) 0.432(6) 1.111(2)
C25 C -0.0397(8) 0.2677(9) 1.1618(4)
H36 H -0.0894 0.2090 1.1833
H37 H 0.0001 0.2129 1.1328
C26 C -0.1183(6) 0.3541(8) 1.0099(3)
H38 H -0.094(5) 0.453(8) 1.010(3)
C27 C -0.0037(6) 0.2988(8) 1.0033(3)
C28 C 0.1884(6) 0.3454(8) 0.9752(3)
H39 H 0.1925 0.2477 0.9698
C29 C 0.2649(8) 0.3892(12) 1.0329(4)
H40 H 0.2598 0.4863 1.0358
H41 H 0.2320 0.3531 1.0698
C30 C 0.3812(10) 0.3558(16) 1.0379(6)
H42 H 0.4195 0.4042 1.0054
C31 C 0.4342(13) 0.393(3) 1.1015(7)
H43 H 0.4251 0.4875 1.1086
H44 H 0.5118 0.3714 1.1026
H45 H 0.3990 0.3434 1.1336
C32 C 0.3993(14) 0.205(2) 1.0297(9)
H46 H 0.3710 0.1783 0.9888
H47 H 0.3610 0.1570 1.0610
H48 H 0.4773 0.1856 1.0340
C33 C 0.2262(7) 0.4131(9) 0.9188(4)
C34 C 0.3574(10) 0.3905(12) 0.8377(6)
C35 C 0.4072(11) 0.5334(14) 0.8470(6)
H49 H 0.3482 0.5980 0.8478
H50 H 0.4537 0.5538 0.8130
H51 H 0.4506 0.5368 0.8858
C36 C 0.2816(12) 0.3701(17) 0.7825(6)
H52 H 0.2207 0.4320 0.7839
H53 H 0.2538 0.2797 0.7824
H54 H 0.3208 0.3854 0.7452
C37 C 0.4630(14) 0.2866(18) 0.8336(8)
H55 H 0.5130 0.2989 0.8695
H56 H 0.5014 0.3046 0.7962
H57 H 0.4363 0.1956 0.8326
C38 C -0.1952(8) 0.3015(9) 0.9590(4)
H58 H -0.2682 0.3400 0.9638
H59 H -0.2017 0.2049 0.9638
C39 C -0.1596(7) 0.3313(9) 0.8936(3)
C40 C -0.1900(9) 0.4516(10) 0.8636(4)
H60 H -0.2392 0.5084 0.8828
C41 C -0.1514(10) 0.4889(13) 0.8085(4)
H61 H -0.1728 0.5710 0.7910
C42 C -0.0798(12) 0.4061(17) 0.7776(5)
H62 H -0.0514 0.4281 0.7393
C43 C -0.0551(14) 0.2903(18) 0.8084(5)
H63 H -0.0081 0.2303 0.7894
C44 C -0.0926(11) 0.2551(12) 0.8637(4)
H64 H -0.0700 0.1736 0.8814
loop_
_geom_bond_atom_site_label_1
_geom_bond_atom_site_label_2
_geom_bond_site_symmetry_1
_geom_bond_site_symmetry_2
F1 C1 1_555 1_555
F2 C1 1_555 1_555
F3 C1 1_555 1_555
O1 N1 1_555 1_555
O2 N1 1_555 1_555
O3 C5 1_555 1_555
O4 C11 1_555 1_555
O5 C11 1_555 1_555
N1 C3 1_555 1_555
N2 H1 1_555 1_555
N3 H2 1_555 1_555
C1 C2 1_555 1_555
C2 N2 1_555 1_555
H3 C2 1_555 1_555
C3 C2 1_555 1_555
H4 C3 1_555 1_555
H5 C3 1_555 1_555
C4 N2 1_555 1_555
H6 C4 1_555 1_555
C5 N3 1_555 1_555
C6 N3 1_555 1_555
H7 C6 1_555 1_555
C7 C6 1_555 1_555
H8 C7 1_555 1_555
H9 C7 1_555 1_555
C8 C7 1_555 1_555
H10 C8 1_555 1_555
C9 C8 1_555 1_555
H11 C9 1_555 1_555
H12 C9 1_555 1_555
H13 C9 1_555 1_555
C10 C8 1_555 1_555
H14 C10 1_555 1_555
H15 C10 1_555 1_555
H16 C10 1_555 1_555
C11 C6 1_555 1_555
C12 O4 1_555 1_555
C13 C12 1_555 1_555
H17 C13 1_555 1_555
H18 C13 1_555 1_555
H19 C13 1_555 1_555
C14 C12 1_555 1_555
H20 C14 1_555 1_555
H21 C14 1_555 1_555
H22 C14 1_555 1_555
C15 C12 1_555 1_555
H23 C15 1_555 1_555
H24 C15 1_555 1_555
H25 C15 1_555 1_555
C16 C4 1_555 1_555
H26 C16 1_555 1_555
H27 C16 1_555 1_555
C17 C16 1_555 1_555
C18 C17 1_555 1_555
H28 C18 1_555 1_555
C19 C18 1_555 1_555
H29 C19 1_555 1_555
C20 C19 1_555 1_555
H30 C20 1_555 1_555
C21 C20 1_555 1_555
H31 C21 1_555 1_555
C22 C17 1_555 1_555
H32 C22 1_555 1_555
F4 C23 1_555 1_555
F5 C23 1_555 1_555
F6 C23 1_555 1_555
O6 N4 1_555 1_555
O7 N4 1_555 1_555
O8 C27 1_555 1_555
O9 C33 1_555 1_555
O10 C33 1_555 1_555
N4 C25 1_555 1_555
N5 H33 1_555 1_555
N6 H34 1_555 1_555
C23 C24 1_555 1_555
C24 N5 1_555 1_555
H35 C24 1_555 1_555
C25 C24 1_555 1_555
H36 C25 1_555 1_555
H37 C25 1_555 1_555
C26 N5 1_555 1_555
H38 C26 1_555 1_555
C27 N6 1_555 1_555
C28 N6 1_555 1_555
H39 C28 1_555 1_555
C29 C28 1_555 1_555
H40 C29 1_555 1_555
H41 C29 1_555 1_555
C30 C29 1_555 1_555
H42 C30 1_555 1_555
C31 C30 1_555 1_555
H43 C31 1_555 1_555
H44 C31 1_555 1_555
H45 C31 1_555 1_555
C32 C30 1_555 1_555
H46 C32 1_555 1_555
H47 C32 1_555 1_555
H48 C32 1_555 1_555
C33 C28 1_555 1_555
C34 O9 1_555 1_555
C35 C34 1_555 1_555
H49 C35 1_555 1_555
H50 C35 1_555 1_555
H51 C35 1_555 1_555
C36 C34 1_555 1_555
H52 C36 1_555 1_555
H53 C36 1_555 1_555
H54 C36 1_555 1_555
C37 C34 1_555 1_555
H55 C37 1_555 1_555
H56 C37 1_555 1_555
H57 C37 1_555 1_555
C38 C26 1_555 1_555
H58 C38 1_555 1_555
H59 C38 1_555 1_555
C39 C38 1_555 1_555
C40 C39 1_555 1_555
H60 C40 1_555 1_555
C41 C40 1_555 1_555
H61 C41 1_555 1_555
C42 C41 1_555 1_555
H62 C42 1_555 1_555
C43 C42 1_555 1_555
H63 C43 1_555 1_555
C44 C39 1_555 1_555
H64 C44 1_555 1_555
C4 C5 1_555 1_555
C21 C22 1_555 1_555
C26 C27 1_555 1_555
C43 C44 1_555 1_555

#END
