
#######################################################################
#
#                 Cambridge Crystallographic Data Centre
#                                CCDC 
#
#######################################################################
#
# If this CIF has been generated from an entry in the Cambridge 
# Structural Database, then it will include bibliographic, chemical, 
# crystal, experimental, refinement or atomic coordinate data resulting 
# from the CCDC's data processing and validation procedures.
#
#######################################################################

data_XUNDUG
_chemical_name_common            
'Diaqua-bis(monensin A)-magnesium acetonitrile solvate'
_chemical_formula_moiety         'C72 H126 Mg1 O24,5(C2 H3 N1)'
_chemical_name_systematic        
'Diaqua-bis(4-[2-[5-ethyl-5-[5-[6-hydroxy-6-(hydroxymethyl)-3,5-dimethyl-oxan-2-yl]-3-methyloxolan-2-yl]oxolan-2-yl]-9-hydroxy-2,8-dimethyl-1,6-dioxaspiro[4.5]dec-7-yl]-3-methoxy-2-methylpentanoato)-magnesium acetonitrile solvate'
_chemical_properties_biological  'cytotoxic activity'
_symmetry_cell_setting           monoclinic
_symmetry_space_group_name_H-M   'P 21'
_symmetry_Int_Tables_number      4
_space_group_name_Hall           'P 2yb'
loop_
_symmetry_equiv_pos_site_id
_symmetry_equiv_pos_as_xyz
1 x,y,z
2 -x,1/2+y,-z
_cell_length_a                   12.3337(5)
_cell_length_b                   25.1619(9)
_cell_length_c                   14.3112(6)
_cell_angle_alpha                90
_cell_angle_beta                 91.101(4)
_cell_angle_gamma                90
_cell_volume                     4440.51
_exptl_crystal_colour            colorless
_exptl_crystal_description       needle
_cell_formula_units_Z            2
loop_
_atom_site_label
_atom_site_type_symbol
_atom_site_fract_x
_atom_site_fract_y
_atom_site_fract_z
Mg1 Mg 0.86276(11) 0.16440(5) 0.05310(9)
O1 O 0.9523(2) 0.11951(11) -0.03444(19)
O2 O 0.8395(2) 0.06627(11) -0.11367(19)
O3 O 1.1037(3) 0.02592(12) -0.2853(2)
O4 O 0.9305(2) 0.19074(10) -0.35099(18)
O5 O 0.6883(2) 0.16981(12) -0.22424(19)
O6 O 0.8391(2) 0.24925(10) -0.25160(18)
O7 O 0.8191(2) 0.32050(10) -0.09787(19)
O8 O 0.6045(2) 0.28392(10) -0.09401(19)
O9 O 0.5466(2) 0.18300(10) -0.03025(19)
O10 O 0.5524(2) 0.10828(11) -0.12876(19)
H1 H 0.6134 0.1186 -0.1465
O11 O 0.7274(2) 0.11863(10) 0.00524(19)
O12 O 0.7932(2) 0.21435(10) -0.04982(19)
O13 O 0.8766(2) 0.11350(10) 0.16918(19)
C1 C 0.9325(3) 0.08430(17) -0.0942(3)
C2 C 1.0300(4) 0.05895(16) -0.1432(3)
H2 H 1.0970 0.0797 -0.1270
C3 C 1.0148(4) 0.05740(16) -0.2498(3)
H3 H 0.9452 0.0386 -0.2650
C4 C 1.0157(3) 0.11065(16) -0.3033(3)
H4 H 1.0220 0.1019 -0.3712
C5 C 0.9129(3) 0.14472(15) -0.2934(3)
H5 H 0.9068 0.1562 -0.2268
C6 C 0.8077(3) 0.11634(17) -0.3240(3)
H6 H 0.7933 0.0876 -0.2776
C7 C 0.7126(3) 0.15644(16) -0.3205(3)
H7 H 0.6470 0.1393 -0.3496
C8 C 0.7379(3) 0.20562(17) -0.3750(3)
H8 H 0.6801 0.2322 -0.3654
H9 H 0.7386 0.1968 -0.4424
C9 C 0.8473(3) 0.22965(16) -0.3459(3)
C10 C 0.8821(4) 0.27775(17) -0.4042(3)
H10 H 0.8187 0.2990 -0.4252
H11 H 0.9238 0.2666 -0.4593
C11 C 0.9537(4) 0.30881(18) -0.3340(3)
H12 H 0.9446 0.3475 -0.3434
H13 H 1.0311 0.2997 -0.3420
C12 C 0.9160(3) 0.29245(16) -0.2354(3)
C13 C 0.8530(3) 0.33736(16) -0.1887(3)
H14 H 0.9026 0.3685 -0.1805
C14 C 0.7501(3) 0.35619(16) -0.2352(3)
H15 H 0.7074 0.3259 -0.2605
H16 H 0.7655 0.3812 -0.2866
C15 C 0.6906(4) 0.38380(16) -0.1568(3)
H17 H 0.6112 0.3795 -0.1648
H18 H 0.7081 0.4222 -0.1551
C16 C 0.7323(3) 0.35557(16) -0.0663(3)
C17 C 0.6498(3) 0.31762(16) -0.0226(3)
H19 H 0.6908 0.2943 0.0223
C18 C 0.5516(3) 0.34148(17) 0.0310(3)
H20 H 0.5738 0.3487 0.0974
C19 C 0.4774(3) 0.29293(16) 0.0271(3)
H21 H 0.4010 0.3031 0.0373
H22 H 0.4997 0.2663 0.0746
C20 C 0.4922(3) 0.27135(17) -0.0720(3)
H23 H 0.4440 0.2923 -0.1153
C21 C 0.4687(3) 0.21317(16) -0.0881(3)
H24 H 0.4793 0.2044 -0.1554
C22 C 0.3536(3) 0.19890(16) -0.0611(3)
H25 H 0.3450 0.2093 0.0058
C23 C 0.3370(3) 0.13909(17) -0.0674(3)
H26 H 0.3417 0.1278 -0.1334
H27 H 0.2636 0.1301 -0.0455
C24 C 0.4218(3) 0.10864(16) -0.0084(3)
H28 H 0.4119 0.1187 0.0585
C25 C 0.5355(3) 0.12604(16) -0.0363(3)
C26 C 0.6215(3) 0.10432(16) 0.0302(3)
H29 H 0.6075 0.1177 0.0939
H30 H 0.6159 0.0651 0.0317
C27 C 1.0429(4) 0.00160(17) -0.1059(3)
H31 H 1.0494 0.0023 -0.0376
H32 H 1.1082 -0.0144 -0.1318
H33 H 0.9792 -0.0194 -0.1247
C28 C 1.0744(5) -0.0117(2) -0.3555(3)
H34 H 1.0230 -0.0374 -0.3300
H35 H 1.1394 -0.0304 -0.3761
H36 H 1.0405 0.0067 -0.4088
C29 C 1.1176(3) 0.14278(17) -0.2749(3)
H37 H 1.1227 0.1744 -0.3147
H38 H 1.1822 0.1207 -0.2827
H39 H 1.1126 0.1537 -0.2094
C30 C 0.8134(3) 0.09077(17) -0.4195(3)
H40 H 0.7412 0.0780 -0.4386
H41 H 0.8641 0.0608 -0.4169
H42 H 0.8385 0.1170 -0.4649
C31 C 1.0091(3) 0.27385(17) -0.1761(3)
H43 H 0.9819 0.2584 -0.1182
H44 H 1.0566 0.3040 -0.1609
H45 H 1.0501 0.2469 -0.2101
C32 C 0.7814(4) 0.39357(17) 0.0061(3)
H46 H 0.8413 0.4134 -0.0230
H47 H 0.7254 0.4197 0.0237
C33 C 0.8248(4) 0.36678(19) 0.0943(3)
H48 H 0.7641 0.3564 0.1335
H49 H 0.8720 0.3915 0.1288
H50 H 0.8663 0.3351 0.0774
C34 C 0.4944(4) 0.38960(17) -0.0091(3)
H51 H 0.4637 0.3809 -0.0709
H52 H 0.5464 0.4188 -0.0150
H53 H 0.4361 0.4004 0.0324
C35 C 0.2677(4) 0.22816(19) -0.1176(3)
H54 H 0.2757 0.2199 -0.1841
H55 H 0.2760 0.2665 -0.1079
H56 H 0.1957 0.2170 -0.0975
C36 C 0.4052(4) 0.04866(17) -0.0169(3)
H57 H 0.3282 0.0403 -0.0099
H58 H 0.4477 0.0306 0.0321
H59 H 0.4291 0.0367 -0.0783
O14 O 0.9960(2) 0.20970(11) 0.07956(19)
O15 O 0.9636(2) 0.26077(11) 0.2033(2)
O16 O 1.2983(2) 0.30068(11) 0.2083(2)
O17 O 1.2118(2) 0.13195(11) 0.33227(19)
O18 O 0.9273(2) 0.15232(11) 0.35641(19)
O19 O 1.0674(2) 0.07625(10) 0.28779(19)
O20 O 0.9323(2) 0.00689(10) 0.1793(2)
O21 O 0.7552(2) 0.03972(12) 0.2906(2)
O22 O 0.6611(2) 0.14081(11) 0.27295(18)
O23 O 0.7442(2) 0.21027(11) 0.35806(19)
H60 H 0.8047 0.1999 0.3392
O24 O 0.7877(2) 0.20941(10) 0.16060(19)
C37 C 1.0237(3) 0.24423(16) 0.1406(3)
C38 C 1.1379(3) 0.26893(17) 0.1319(3)
H61 H 1.1791 0.2474 0.0858
C39 C 1.2019(3) 0.26917(17) 0.2239(3)
H62 H 1.1576 0.2869 0.2726
C40 C 1.2421(3) 0.21466(17) 0.2620(3)
H63 H 1.2949 0.2228 0.3140
C41 C 1.1560(3) 0.18062(16) 0.3035(3)
H64 H 1.1019 0.1715 0.2532
C42 C 1.0959(3) 0.20375(17) 0.3852(3)
H65 H 1.0527 0.2348 0.3615
C43 C 1.0147(3) 0.16173(17) 0.4223(3)
H66 H 0.9833 0.1756 0.4814
C44 C 1.0749(3) 0.10983(16) 0.4445(3)
H67 H 1.1244 0.1155 0.4989
H68 H 1.0217 0.0822 0.4618
C45 C 1.1398(3) 0.09033(17) 0.3623(3)
C46 C 1.2095(4) 0.04134(17) 0.3803(3)
H69 H 1.2823 0.0513 0.4048
H70 H 1.1749 0.0171 0.4253
C47 C 1.2167(3) 0.01598(17) 0.2853(3)
H71 H 1.2197 -0.0232 0.2908
H72 H 1.2820 0.0284 0.2527
C48 C 1.1118(3) 0.03371(16) 0.2319(3)
C49 C 1.0277(4) -0.01089(17) 0.2289(3)
H73 H 1.0589 -0.0417 0.1942
C50 C 0.9834(3) -0.03122(18) 0.3206(3)
H74 H 1.0338 -0.0570 0.3504
H75 H 0.9706 -0.0016 0.3645
C51 C 0.8785(4) -0.05752(18) 0.2918(3)
H76 H 0.8234 -0.0528 0.3404
H77 H 0.8895 -0.0960 0.2811
C52 C 0.8428(4) -0.02927(17) 0.1998(3)
C53 C 0.7429(4) 0.00668(17) 0.2087(3)
H78 H 0.7422 0.0310 0.1534
C54 C 0.6275(4) -0.01798(18) 0.2144(3)
H79 H 0.5983 -0.0253 0.1500
C55 C 0.5679(4) 0.02852(17) 0.2562(3)
H80 H 0.5004 0.0168 0.2864
H81 H 0.5499 0.0556 0.2082
C56 C 0.6493(3) 0.04975(17) 0.3277(3)
H82 H 0.6424 0.0281 0.3859
C57 C 0.6379(4) 0.10875(18) 0.3548(3)
H83 H 0.6930 0.1171 0.4048
C58 C 0.5242(4) 0.12249(19) 0.3915(3)
H84 H 0.4706 0.1149 0.3399
C59 C 0.5198(3) 0.18060(19) 0.4108(3)
H85 H 0.5676 0.1885 0.4654
H86 H 0.4448 0.1901 0.4278
C60 C 0.5538(3) 0.21574(19) 0.3288(3)
H87 H 0.4979 0.2116 0.2778
C61 C 0.6626(3) 0.19725(17) 0.2907(3)
C62 C 0.6845(3) 0.22229(17) 0.1958(3)
H88 H 0.6280 0.2103 0.1505
H89 H 0.6787 0.2614 0.2015
C63 C 1.1215(4) 0.32383(18) 0.0920(3)
H90 H 1.0793 0.3214 0.0333
H91 H 1.1921 0.3400 0.0799
H92 H 1.0822 0.3458 0.1366
C64 C 1.3116(4) 0.34396(18) 0.2720(4)
H93 H 1.2508 0.3687 0.2641
H94 H 1.3797 0.3625 0.2595
H95 H 1.3133 0.3304 0.3362
C65 C 1.3067(3) 0.18492(17) 0.1874(3)
H96 H 1.2564 0.1697 0.1407
H97 H 1.3489 0.1563 0.2171
H98 H 1.3559 0.2097 0.1568
C66 C 1.1700(4) 0.22360(18) 0.4646(3)
H99 H 1.1265 0.2314 0.5196
H100 H 1.2073 0.2560 0.4448
H101 H 1.2237 0.1962 0.4804
C67 C 1.1364(4) 0.05482(17) 0.1355(3)
H102 H 1.0692 0.0674 0.1053
H103 H 1.1678 0.0264 0.0978
H104 H 1.1881 0.0843 0.1411
C68 C 0.8319(4) -0.06794(17) 0.1170(3)
H105 H 0.9025 -0.0860 0.1088
H106 H 0.7780 -0.0955 0.1327
C69 C 0.7979(4) -0.04239(19) 0.0242(4)
H107 H 0.7272 -0.0252 0.0308
H108 H 0.7928 -0.0698 -0.0243
H109 H 0.8519 -0.0158 0.0066
C70 C 0.6180(4) -0.06823(19) 0.2748(4)
H110 H 0.6373 -0.0597 0.3398
H111 H 0.6675 -0.0955 0.2518
H112 H 0.5434 -0.0815 0.2713
C71 C 0.4918(4) 0.0894(2) 0.4752(3)
H113 H 0.5500 0.0905 0.5228
H114 H 0.4794 0.0526 0.4555
H115 H 0.4252 0.1039 0.5014
C72 C 0.5554(4) 0.27387(19) 0.3579(3)
H116 H 0.4839 0.2840 0.3806
H117 H 0.5735 0.2960 0.3040
H118 H 0.6100 0.2791 0.4077
N1 N 0.6382(6) -0.0144(3) -0.3754(6)
C73 C 0.6466(7) -0.0113(3) -0.2956(6)
C74 C 0.6626(5) -0.0123(2) -0.1955(4)
N2 N 0.3954(5) -0.0714(3) -0.2344(5)
C75 C 0.3842(5) -0.0296(3) -0.2622(5)
C76 C 0.3719(5) 0.0256(2) -0.2960(5)
H119 H 0.4213 0.0489 -0.2605
H120 H 0.2970 0.0373 -0.2875
H121 H 0.3893 0.0272 -0.3625
N3 N 0.7286(6) 0.4197(3) -0.4642(5)
C77 C 0.6404(7) 0.4126(3) -0.4883(5)
C78 C 0.5305(7) 0.4025(3) -0.5225(6)
H122 H 0.5311 0.3966 -0.5901
H123 H 0.4847 0.4333 -0.5088
H124 H 0.5016 0.3710 -0.4915
C79? C 0.8718(7) -0.1332(3) -0.4750(6)
C80? C 0.7654(12) -0.1205(7) -0.5162(12)
C81? C 0.9757(4) 0.3399(2) 0.3345(4)
C82? C 0.8608(5) 0.3430(2) 0.3596(4)
C83? C 0.6809(7) -0.1672(3) -0.5603(6)
C84? C 0.6633(12) -0.2034(6) -0.6385(10)
loop_
_geom_bond_atom_site_label_1
_geom_bond_atom_site_label_2
_geom_bond_site_symmetry_1
_geom_bond_site_symmetry_2
Mg1 O1 1_555 1_555
O1 C1 1_555 1_555
O2 C1 1_555 1_555
O3 C3 1_555 1_555
O4 C5 1_555 1_555
O5 C7 1_555 1_555
O6 C9 1_555 1_555
O7 C13 1_555 1_555
O8 C17 1_555 1_555
O9 C21 1_555 1_555
O10 H1 1_555 1_555
O11 Mg1 1_555 1_555
O12 Mg1 1_555 1_555
O13 Mg1 1_555 1_555
C1 C2 1_555 1_555
C2 H2 1_555 1_555
C3 C2 1_555 1_555
H3 C3 1_555 1_555
C4 C3 1_555 1_555
H4 C4 1_555 1_555
C5 C4 1_555 1_555
H5 C5 1_555 1_555
C6 C5 1_555 1_555
H6 C6 1_555 1_555
C7 C6 1_555 1_555
H7 C7 1_555 1_555
C8 C7 1_555 1_555
H8 C8 1_555 1_555
H9 C8 1_555 1_555
C9 O4 1_555 1_555
C10 C9 1_555 1_555
H10 C10 1_555 1_555
H11 C10 1_555 1_555
C11 C10 1_555 1_555
H12 C11 1_555 1_555
H13 C11 1_555 1_555
C12 O6 1_555 1_555
C13 C12 1_555 1_555
H14 C13 1_555 1_555
C14 C13 1_555 1_555
H15 C14 1_555 1_555
H16 C14 1_555 1_555
C15 C14 1_555 1_555
H17 C15 1_555 1_555
H18 C15 1_555 1_555
C16 O7 1_555 1_555
C17 C16 1_555 1_555
H19 C17 1_555 1_555
C18 C17 1_555 1_555
H20 C18 1_555 1_555
C19 C18 1_555 1_555
H21 C19 1_555 1_555
H22 C19 1_555 1_555
C20 O8 1_555 1_555
H23 C20 1_555 1_555
C21 C20 1_555 1_555
H24 C21 1_555 1_555
C22 C21 1_555 1_555
H25 C22 1_555 1_555
C23 C22 1_555 1_555
H26 C23 1_555 1_555
H27 C23 1_555 1_555
C24 C23 1_555 1_555
H28 C24 1_555 1_555
C25 O9 1_555 1_555
C26 O11 1_555 1_555
H29 C26 1_555 1_555
H30 C26 1_555 1_555
C27 C2 1_555 1_555
H31 C27 1_555 1_555
H32 C27 1_555 1_555
H33 C27 1_555 1_555
C28 O3 1_555 1_555
H34 C28 1_555 1_555
H35 C28 1_555 1_555
H36 C28 1_555 1_555
C29 C4 1_555 1_555
H37 C29 1_555 1_555
H38 C29 1_555 1_555
H39 C29 1_555 1_555
C30 C6 1_555 1_555
H40 C30 1_555 1_555
H41 C30 1_555 1_555
H42 C30 1_555 1_555
C31 C12 1_555 1_555
H43 C31 1_555 1_555
H44 C31 1_555 1_555
H45 C31 1_555 1_555
C32 C16 1_555 1_555
H46 C32 1_555 1_555
H47 C32 1_555 1_555
C33 C32 1_555 1_555
H48 C33 1_555 1_555
H49 C33 1_555 1_555
H50 C33 1_555 1_555
C34 C18 1_555 1_555
H51 C34 1_555 1_555
H52 C34 1_555 1_555
H53 C34 1_555 1_555
C35 C22 1_555 1_555
H54 C35 1_555 1_555
H55 C35 1_555 1_555
H56 C35 1_555 1_555
C36 C24 1_555 1_555
H57 C36 1_555 1_555
H58 C36 1_555 1_555
H59 C36 1_555 1_555
O14 Mg1 1_555 1_555
O15 C37 1_555 1_555
O16 C39 1_555 1_555
O17 C41 1_555 1_555
O18 C43 1_555 1_555
O19 C45 1_555 1_555
O20 C49 1_555 1_555
O21 C53 1_555 1_555
O22 C57 1_555 1_555
O23 H60 1_555 1_555
O24 Mg1 1_555 1_555
C37 O14 1_555 1_555
C38 C37 1_555 1_555
H61 C38 1_555 1_555
C39 C38 1_555 1_555
H62 C39 1_555 1_555
C40 C39 1_555 1_555
H63 C40 1_555 1_555
C41 C40 1_555 1_555
H64 C41 1_555 1_555
C42 C41 1_555 1_555
H65 C42 1_555 1_555
C43 C42 1_555 1_555
H66 C43 1_555 1_555
C44 C43 1_555 1_555
H67 C44 1_555 1_555
H68 C44 1_555 1_555
C45 O17 1_555 1_555
C46 C45 1_555 1_555
H69 C46 1_555 1_555
H70 C46 1_555 1_555
C47 C46 1_555 1_555
H71 C47 1_555 1_555
H72 C47 1_555 1_555
C48 O19 1_555 1_555
C49 C48 1_555 1_555
H73 C49 1_555 1_555
C50 C49 1_555 1_555
H74 C50 1_555 1_555
H75 C50 1_555 1_555
C51 C50 1_555 1_555
H76 C51 1_555 1_555
H77 C51 1_555 1_555
C52 O20 1_555 1_555
C53 C52 1_555 1_555
H78 C53 1_555 1_555
C54 C53 1_555 1_555
H79 C54 1_555 1_555
C55 C54 1_555 1_555
H80 C55 1_555 1_555
H81 C55 1_555 1_555
C56 O21 1_555 1_555
H82 C56 1_555 1_555
C57 C56 1_555 1_555
H83 C57 1_555 1_555
C58 C57 1_555 1_555
H84 C58 1_555 1_555
C59 C58 1_555 1_555
H85 C59 1_555 1_555
H86 C59 1_555 1_555
C60 C59 1_555 1_555
H87 C60 1_555 1_555
C61 O22 1_555 1_555
C62 O24 1_555 1_555
H88 C62 1_555 1_555
H89 C62 1_555 1_555
C63 C38 1_555 1_555
H90 C63 1_555 1_555
H91 C63 1_555 1_555
H92 C63 1_555 1_555
C64 O16 1_555 1_555
H93 C64 1_555 1_555
H94 C64 1_555 1_555
H95 C64 1_555 1_555
C65 C40 1_555 1_555
H96 C65 1_555 1_555
H97 C65 1_555 1_555
H98 C65 1_555 1_555
C66 C42 1_555 1_555
H99 C66 1_555 1_555
H100 C66 1_555 1_555
H101 C66 1_555 1_555
C67 C48 1_555 1_555
H102 C67 1_555 1_555
H103 C67 1_555 1_555
H104 C67 1_555 1_555
C68 C52 1_555 1_555
H105 C68 1_555 1_555
H106 C68 1_555 1_555
C69 C68 1_555 1_555
H107 C69 1_555 1_555
H108 C69 1_555 1_555
H109 C69 1_555 1_555
C70 C54 1_555 1_555
H110 C70 1_555 1_555
H111 C70 1_555 1_555
H112 C70 1_555 1_555
C71 C58 1_555 1_555
H113 C71 1_555 1_555
H114 C71 1_555 1_555
H115 C71 1_555 1_555
C72 C60 1_555 1_555
H116 C72 1_555 1_555
H117 C72 1_555 1_555
H118 C72 1_555 1_555
N1 C73 1_555 1_555
C73 C74 1_555 1_555
N2 C75 1_555 1_555
C75 C76 1_555 1_555
C76 H119 1_555 1_555
H120 C76 1_555 1_555
H121 C76 1_555 1_555
N3 C77 1_555 1_555
C77 C78 1_555 1_555
C78 H122 1_555 1_555
H123 C78 1_555 1_555
H124 C78 1_555 1_555
O10 C25 1_555 1_555
C8 C9 1_555 1_555
C11 C12 1_555 1_555
C15 C16 1_555 1_555
C19 C20 1_555 1_555
C24 C25 1_555 1_555
C25 C26 1_555 1_555
O23 C61 1_555 1_555
C44 C45 1_555 1_555
C47 C48 1_555 1_555
C51 C52 1_555 1_555
C55 C56 1_555 1_555
C60 C61 1_555 1_555
C61 C62 1_555 1_555

#END
