
#######################################################################
#
#                 Cambridge Crystallographic Data Centre
#                                CCDC 
#
#######################################################################
#
# If this CIF has been generated from an entry in the Cambridge 
# Structural Database, then it will include bibliographic, chemical, 
# crystal, experimental, refinement or atomic coordinate data resulting 
# from the CCDC's data processing and validation procedures.
#
#######################################################################

data_XUNHET
_chemical_formula_moiety         '2(C5 H5 N1 O1),C3 H4 O4'
_chemical_name_systematic        'bis(2-Pyridone) malonic acid'
_symmetry_cell_setting           monoclinic
_symmetry_space_group_name_H-M   'P 2/n'
_symmetry_Int_Tables_number      13
_space_group_name_Hall           '-P 2yac'
loop_
_symmetry_equiv_pos_site_id
_symmetry_equiv_pos_as_xyz
1 x,y,z
2 1/2-x,y,1/2-z
3 -x,-y,-z
4 1/2+x,-y,1/2+z
_cell_length_a                   19.2130(9)
_cell_length_b                   4.0306(3)
_cell_length_c                   19.5084(12)
_cell_angle_alpha                90
_cell_angle_beta                 114.668(4)
_cell_angle_gamma                90
_cell_volume                     1372.86
_cell_formula_units_Z            4
loop_
_atom_site_label
_atom_site_type_symbol
_atom_site_fract_x
_atom_site_fract_y
_atom_site_fract_z
O1 O 0.6374(15) 0.005(8) 0.7057(15)
O2 O 0.6956(16) -0.072(8) 0.6301(15)
H1 H 0.6400 0.0597 0.5896
C1 C 0.689(2) -0.118(9) 0.693(2)
C2 C 0.7500 -0.330(13) 0.7500
H2 H 0.7266 -0.4743 0.7757
H3 H 0.7734 -0.4743 0.7243
C1A C 0.811(2) -0.118(9) 0.807(2)
O1A O 0.8626(15) 0.005(8) 0.7943(15)
O2A O 0.8044(16) -0.072(8) 0.8699(15)
H1A H 0.8600 0.0597 0.9104
O3 O 0.2950(15) -0.006(7) 0.8620(15)
O4 O 0.3700(17) -0.052(9) 0.8038(17)
H4 H 0.3400 0.1398 0.9001
C3 C 0.309(2) -0.117(10) 0.809(2)
C4 C 0.2500 -0.328(13) 0.7500
H5 H 0.2248 -0.4724 0.7739
H6 H 0.2752 -0.4724 0.7261
C3A C 0.191(2) -0.117(10) 0.691(2)
O3A O 0.2050(15) -0.006(7) 0.6380(15)
H4A H 0.1600 0.1398 0.5999
O4A O 0.1300(17) -0.052(9) 0.6962(17)
C5 C 0.489(2) -0.483(10) 0.660(2)
H7 H 0.5320 -0.5956 0.6961
C6 C 0.435(2) -0.354(11) 0.680(2)
H8 H 0.4392 -0.3780 0.7297
C7 C 0.373(2) -0.186(11) 0.625(2)
H9 H 0.3349 -0.0934 0.6376
C8 C 0.368(2) -0.152(11) 0.554(2)
H10 H 0.3258 -0.0348 0.5177
O5 O 0.4174(18) -0.259(10) 0.4655(17)
N1 N 0.4819(18) -0.451(9) 0.5876(19)
H11 H 0.5173 -0.5394 0.5757
C9 C 0.424(2) -0.290(10) 0.534(2)
C10 C 0.449(2) -0.219(11) 1.133(2)
H12 H 0.4885 -0.1052 1.1727
C11 C 0.379(3) -0.255(11) 1.134(2)
H13 H 0.3701 -0.1666 1.1743
C12 C 0.322(2) -0.421(12) 1.076(2)
H14 H 0.2737 -0.4515 1.0763
C13 C 0.336(2) -0.538(11) 1.018(2)
H15 H 0.2959 -0.6462 0.9768
O6 O 0.407(3) -0.650(15) 0.955(3)
N2 N 0.463(2) -0.348(10) 1.073(2)
H16 H 0.5079 -0.3261 1.0732
C14 C 0.407(2) -0.503(9) 1.018(2)
O7? O 0.548(7) -0.63(4) 0.593(8)
N3? N 0.424(2) -0.290(10) 0.534(2)
H17? H 0.4204 -0.2719 0.4878
C15? C 0.4819(18) -0.451(9) 0.5876(19)
O8? O 0.535(3) -0.275(15) 1.084(3)
N4? N 0.407(2) -0.503(9) 1.018(2)
H18? H 0.4161 -0.5845 0.9804
C16? C 0.463(2) -0.348(10) 1.073(2)
loop_
_geom_bond_atom_site_label_1
_geom_bond_atom_site_label_2
_geom_bond_site_symmetry_1
_geom_bond_site_symmetry_2
O1 C1 1_555 1_555
O2 H1 1_555 1_555
C1 O2 1_555 1_555
C2 C1 1_555 1_555
H2 C2 1_555 1_555
H3 C2 1_555 1_555
O3 H4 1_555 1_555
O4 C3 1_555 1_555
C3 O3 1_555 1_555
C4 C3 1_555 1_555
H5 C4 1_555 1_555
H6 C4 1_555 1_555
C5 H7 1_555 1_555
C6 C5 1_555 1_555
H8 C6 1_555 1_555
C7 C6 1_555 1_555
H9 C7 1_555 1_555
C8 C7 1_555 1_555
H10 C8 1_555 1_555
O5 C9 1_555 1_555
N1 C5 1_555 1_555
H11 N1 1_555 1_555
C9 C8 1_555 1_555
C10 H12 1_555 1_555
C11 C10 1_555 1_555
H13 C11 1_555 1_555
C12 C11 1_555 1_555
H14 C12 1_555 1_555
C13 C12 1_555 1_555
H15 C13 1_555 1_555
O6 C14 1_555 1_555
N2 C10 1_555 1_555
H16 N2 1_555 1_555
C14 C13 1_555 1_555
C1A C2 1_555 1_555
O1A C1A 1_555 1_555
O2A C1A 1_555 1_555
H1A O2A 1_555 1_555
C3A C4 1_555 1_555
O3A C3A 1_555 1_555
H4A O3A 1_555 1_555
O4A C3A 1_555 1_555
N1 C9 1_555 1_555
N2 C14 1_555 1_555

#END
