
#######################################################################
#
#                 Cambridge Crystallographic Data Centre
#                                CCDC 
#
#######################################################################
#
# If this CIF has been generated from an entry in the Cambridge 
# Structural Database, then it will include bibliographic, chemical, 
# crystal, experimental, refinement or atomic coordinate data resulting 
# from the CCDC's data processing and validation procedures.
#
#######################################################################

data_XUNHIX
_chemical_formula_moiety         'C5 H5 N1 O1,C5 H8 O4'
_chemical_name_systematic        '2-Pyridone glutaric acid'
_symmetry_cell_setting           triclinic
_symmetry_space_group_name_H-M   'P -1'
_symmetry_Int_Tables_number      2
_space_group_name_Hall           '-P 1'
loop_
_symmetry_equiv_pos_site_id
_symmetry_equiv_pos_as_xyz
1 x,y,z
2 -x,-y,-z
_cell_length_a                   5.437(2)
_cell_length_b                   9.592(2)
_cell_length_c                   11.797(2)
_cell_angle_alpha                66.500(10)
_cell_angle_beta                 81.640(10)
_cell_angle_gamma                83.000(10)
_cell_volume                     556.825
_cell_formula_units_Z            2
loop_
_atom_site_label
_atom_site_type_symbol
_atom_site_fract_x
_atom_site_fract_y
_atom_site_fract_z
N1 N 0.4469(4) 0.9568(2) 0.1705(2)
H1 H 0.5504 1.0048 0.1053
O1 O 0.2592(4) 0.8787(2) 0.04875(19)
C1 C 0.2687(5) 0.8793(3) 0.1553(3)
C2 C 0.1062(5) 0.8052(3) 0.2622(3)
H2 H -0.0222 0.7500 0.2567
C3 C 0.1312(6) 0.8119(3) 0.3727(3)
H3 H 0.0204 0.7612 0.4438
C4 C 0.3195(6) 0.8931(3) 0.3828(3)
H4 H 0.3377 0.8980 0.4600
C5 C 0.4735(5) 0.9639(3) 0.2803(3)
H5 H 0.6021 1.0194 0.2851
O2 O 0.0974(4) 0.7895(2) -0.17257(18)
O3 O -0.0914(4) 0.7389(2) 0.01867(18)
H6 H 0.049(6) 0.795(3) 0.026(3)
O4 O -0.3217(4) 0.5794(2) -0.44242(17)
H7 H -0.662(5) 0.446(3) -0.426(3)
O5 O -0.6535(4) 0.4468(2) -0.34697(19)
C6 C -0.0657(5) 0.7321(3) -0.0920(3)
C7 C -0.2632(5) 0.6428(3) -0.1042(2)
H8 H -0.4287 0.6926 -0.0901
H9 H -0.2539 0.5394 -0.0378
C8 C -0.2451(5) 0.6274(3) -0.2282(2)
H10 H -0.2548 0.7299 -0.2959
H11 H -0.0828 0.5747 -0.2427
C9 C -0.4551(5) 0.5378(3) -0.2295(2)
H12 H -0.4368 0.4338 -0.1645
H13 H -0.6152 0.5867 -0.2071
C10 C -0.4677(5) 0.5248(3) -0.3499(3)
loop_
_geom_bond_atom_site_label_1
_geom_bond_atom_site_label_2
_geom_bond_site_symmetry_1
_geom_bond_site_symmetry_2
N1 H1 1_555 1_555
O1 C1 1_555 1_555
C1 N1 1_555 1_555
C2 C1 1_555 1_555
H2 C2 1_555 1_555
C3 C2 1_555 1_555
H3 C3 1_555 1_555
C4 C3 1_555 1_555
H4 C4 1_555 1_555
C5 N1 1_555 1_555
H5 C5 1_555 1_555
O2 C6 1_555 1_555
O3 H6 1_555 1_555
O4 C10 1_555 1_555
H7 O5 1_555 1_555
O5 C10 1_555 1_555
C6 O3 1_555 1_555
C7 C6 1_555 1_555
H8 C7 1_555 1_555
H9 C7 1_555 1_555
C8 C7 1_555 1_555
H10 C8 1_555 1_555
H11 C8 1_555 1_555
C9 C8 1_555 1_555
H12 C9 1_555 1_555
H13 C9 1_555 1_555
C10 C9 1_555 1_555
C4 C5 1_555 1_555

#END
