
#######################################################################
#
#                 Cambridge Crystallographic Data Centre
#                                CCDC 
#
#######################################################################
#
# If this CIF has been generated from an entry in the Cambridge 
# Structural Database, then it will include bibliographic, chemical, 
# crystal, experimental, refinement or atomic coordinate data resulting 
# from the CCDC's data processing and validation procedures.
#
#######################################################################

data_XUNLIC
_chemical_formula_moiety         'C20 H31 N2 O1 1+,Br1 1-,C1 H2 Cl2'
_chemical_name_systematic        
'1-(3,5-Di-t-butyl-2-hydroxyphenyl)-3-isopropyl-1H-imidazol-3-ium bromide dichloromethane solvate'
_symmetry_cell_setting           triclinic
_symmetry_space_group_name_H-M   'P -1'
_symmetry_Int_Tables_number      2
_space_group_name_Hall           '-P 1'
loop_
_symmetry_equiv_pos_site_id
_symmetry_equiv_pos_as_xyz
1 x,y,z
2 -x,-y,-z
_cell_length_a                   9.5080(19)
_cell_length_b                   10.304(2)
_cell_length_c                   13.847(3)
_cell_angle_alpha                69.28(3)
_cell_angle_beta                 78.09(3)
_cell_angle_gamma                69.28(3)
_cell_volume                     1181.66
_chemical_melting_point          280-281deg.C
_cell_formula_units_Z            2
_exptl_crystal_recrystallization_method dichloromethane/n-hexane
loop_
_atom_site_label
_atom_site_type_symbol
_atom_site_fract_x
_atom_site_fract_y
_atom_site_fract_z
O1 O 0.3340(2) 0.9296(2) 0.70472(13)
H1 H 0.2772 0.9912 0.6617
N1 N 0.3031(2) 0.8231(2) 0.55330(15)
N2 N 0.2485(2) 0.9386(2) 0.39529(15)
C1 C 0.2861(3) 0.7430(3) 0.66246(18)
C2 C 0.2565(3) 0.6135(3) 0.68986(19)
H2 H 0.2466 0.5791 0.6387
C3 C 0.2411(3) 0.5327(3) 0.79394(19)
C4 C 0.2598(3) 0.5910(3) 0.86599(19)
H3 H 0.2519 0.5379 0.9358
C5 C 0.2893(3) 0.7217(3) 0.84066(18)
C6 C 0.3017(3) 0.8023(3) 0.73460(19)
C7 C 0.2123(3) 0.3870(3) 0.8238(2)
C8 C 0.3568(4) 0.2762(4) 0.7943(3)
H4 H 0.4375 0.2669 0.8305
H5 H 0.3832 0.3089 0.7209
H6 H 0.3403 0.1833 0.8130
C9 C 0.0827(4) 0.4019(4) 0.7665(2)
H7 H 0.0675 0.3086 0.7843
H8 H 0.1077 0.4365 0.6931
H9 H -0.0081 0.4699 0.7863
C10 C 0.1695(4) 0.3277(3) 0.9396(2)
H10 H 0.2527 0.3079 0.9773
H11 H 0.1456 0.2393 0.9534
H12 H 0.0832 0.3984 0.9609
C11 C 0.3040(3) 0.7820(3) 0.92392(19)
C12 C 0.1758(3) 0.9254(3) 0.9199(2)
H13 H 0.0803 0.9067 0.9354
H14 H 0.1799 0.9937 0.8517
H15 H 0.1872 0.9651 0.9698
C13 C 0.2930(4) 0.6751(3) 1.03392(19)
H16 H 0.1956 0.6604 1.0492
H17 H 0.3063 0.7148 1.0833
H18 H 0.3702 0.5836 1.0378
C14 C 0.4590(3) 0.8065(3) 0.9072(2)
H19 H 0.4668 0.8434 0.9600
H20 H 0.4694 0.8757 0.8403
H21 H 0.5376 0.7158 0.9109
C15 C 0.1960(3) 0.8719(3) 0.48889(18)
H22 H 0.1001 0.8609 0.5069
C16 C 0.3938(3) 0.9339(3) 0.3995(2)
H23 H 0.4565 0.9736 0.3446
C17 C 0.4282(3) 0.8609(3) 0.49834(19)
H24 H 0.5192 0.8401 0.5242
C18 C 0.1588(3) 1.0109(3) 0.30334(19)
H25 H 0.0584 0.9982 0.3253
C19 C 0.1392(3) 1.1733(3) 0.2643(2)
H26 H 0.1008 1.2133 0.3209
H27 H 0.0695 1.2206 0.2120
H28 H 0.2350 1.1886 0.2354
C20 C 0.2338(4) 0.9363(3) 0.2211(2)
H29 H 0.3284 0.9552 0.1937
H30 H 0.1694 0.9732 0.1661
H31 H 0.2513 0.8331 0.2512
Br1 Br 0.88023(3) 0.80397(3) 0.44712(2)
C21 C 0.7722(3) 0.4923(3) 0.6205(2)
H32 H 0.8499 0.4031 0.6507
H33 H 0.8211 0.5576 0.5672
Cl1 Cl 0.67319(9) 0.57400(9) 0.71694(5)
Cl2 Cl 0.64794(9) 0.45283(9) 0.56438(6)
loop_
_geom_bond_atom_site_label_1
_geom_bond_atom_site_label_2
_geom_bond_site_symmetry_1
_geom_bond_site_symmetry_2
O1 H1 1_555 1_555
N1 C1 1_555 1_555
N2 C15 1_555 1_555
C1 C2 1_555 1_555
C2 H2 1_555 1_555
C3 C2 1_555 1_555
C4 C3 1_555 1_555
H3 C4 1_555 1_555
C5 C4 1_555 1_555
C6 O1 1_555 1_555
C7 C3 1_555 1_555
C8 C7 1_555 1_555
H4 C8 1_555 1_555
H5 C8 1_555 1_555
H6 C8 1_555 1_555
C9 C7 1_555 1_555
H7 C9 1_555 1_555
H8 C9 1_555 1_555
H9 C9 1_555 1_555
C10 C7 1_555 1_555
H10 C10 1_555 1_555
H11 C10 1_555 1_555
H12 C10 1_555 1_555
C11 C5 1_555 1_555
C12 C11 1_555 1_555
H13 C12 1_555 1_555
H14 C12 1_555 1_555
H15 C12 1_555 1_555
C13 C11 1_555 1_555
H16 C13 1_555 1_555
H17 C13 1_555 1_555
H18 C13 1_555 1_555
C14 C11 1_555 1_555
H19 C14 1_555 1_555
H20 C14 1_555 1_555
H21 C14 1_555 1_555
C15 N1 1_555 1_555
H22 C15 1_555 1_555
C16 N2 1_555 1_555
H23 C16 1_555 1_555
C17 N1 1_555 1_555
H24 C17 1_555 1_555
C18 N2 1_555 1_555
H25 C18 1_555 1_555
C19 C18 1_555 1_555
H26 C19 1_555 1_555
H27 C19 1_555 1_555
H28 C19 1_555 1_555
C20 C18 1_555 1_555
H29 C20 1_555 1_555
H30 C20 1_555 1_555
H31 C20 1_555 1_555
C21 H32 1_555 1_555
H33 C21 1_555 1_555
Cl1 C21 1_555 1_555
Cl2 C21 1_555 1_555
C1 C6 1_555 1_555
C5 C6 1_555 1_555
C16 C17 1_555 1_555

#END
