
#######################################################################
#
#                 Cambridge Crystallographic Data Centre
#                                CCDC 
#
#######################################################################
#
# If this CIF has been generated from an entry in the Cambridge 
# Structural Database, then it will include bibliographic, chemical, 
# crystal, experimental, refinement or atomic coordinate data resulting 
# from the CCDC's data processing and validation procedures.
#
#######################################################################

data_XUNTAC
_chemical_formula_moiety         'C26 H34 K1 N2 O6 P1'
_chemical_name_systematic        
(3,5-Diphenyl-1,2,4-diazaphospholide)-(18-crown-6)-potassium(i)
_symmetry_cell_setting           monoclinic
_symmetry_space_group_name_H-M   'P 21/c'
_symmetry_Int_Tables_number      14
_space_group_name_Hall           '-P 2ybc'
loop_
_symmetry_equiv_pos_site_id
_symmetry_equiv_pos_as_xyz
1 x,y,z
2 -x,1/2+y,1/2-z
3 -x,-y,-z
4 x,1/2-y,1/2+z
_cell_length_a                   16.800(11)
_cell_length_b                   26.478(18)
_cell_length_c                   13.875(9)
_cell_angle_alpha                90
_cell_angle_beta                 90.000(10)
_cell_angle_gamma                90
_cell_volume                     6172.02
_exptl_crystal_colour            colorless
_exptl_crystal_description       block
_chemical_melting_point          '153 deg.C'
_cell_formula_units_Z            8
_chemical_properties_physical    'air- and moisture-sensitive'
loop_
_atom_site_label
_atom_site_type_symbol
_atom_site_fract_x
_atom_site_fract_y
_atom_site_fract_z
K1 K 0.22743(6) 0.48479(4) 0.46091(7)
P1 P 0.06534(8) 0.32989(6) 0.31765(11)
N1 N 0.1371(2) 0.40414(16) 0.4037(3)
N2 N 0.1378(2) 0.41662(16) 0.3092(3)
O1 O 0.39196(18) 0.46114(11) 0.5230(2)
O2 O 0.2673(2) 0.45994(13) 0.6564(2)
O3 O 0.1428(2) 0.52703(15) 0.6261(3)
O4 O 0.1089(2) 0.55541(15) 0.4381(3)
O5 O 0.2248(2) 0.54842(12) 0.2934(2)
O6 O 0.35413(19) 0.48367(12) 0.3309(2)
C1 C 0.1015(3) 0.3599(2) 0.4200(4)
C2 C 0.0966(3) 0.34099(19) 0.5192(4)
C3 C 0.1437(3) 0.3599(2) 0.5924(4)
H1 H 0.1802 0.3853 0.5781
C4 C 0.1385(4) 0.3426(3) 0.6860(5)
H2 H 0.1715 0.3556 0.7337
C5 C 0.0838(5) 0.3057(3) 0.7078(5)
H3 H 0.0791 0.2938 0.7706
C6 C 0.0371(4) 0.2870(2) 0.6378(6)
H4 H 0.0002 0.2619 0.6524
C7 C 0.0434(3) 0.3042(2) 0.5465(5)
H5 H 0.0101 0.2905 0.4998
C8 C 0.1025(3) 0.3817(2) 0.2524(4)
C9 C 0.0972(3) 0.3878(3) 0.1495(4)
C10 C 0.0886(3) 0.4349(3) 0.1055(5)
H6 H 0.0889 0.4639 0.1435
C11 C 0.0797(4) 0.4396(4) 0.0068(6)
H7 H 0.0752 0.4716 -0.0205
C12 C 0.0776(5) 0.3976(5) -0.0517(6)
H8 H 0.0697 0.4003 -0.1178
C13 C 0.0874(5) 0.3520(4) -0.0087(7)
H9 H 0.0878 0.3231 -0.0468
C14 C 0.0967(4) 0.3471(3) 0.0887(6)
H10 H 0.1029 0.3149 0.1146
C15 C 0.3874(3) 0.4257(2) 0.5987(4)
H11 H 0.4406 0.4153 0.6174
H12 H 0.3584 0.3961 0.5775
C16 C 0.3467(4) 0.4487(2) 0.6814(4)
H13 H 0.3475 0.4255 0.7356
H14 H 0.3741 0.4793 0.7004
C17 C 0.2237(4) 0.4819(3) 0.7328(4)
H15 H 0.2487 0.5133 0.7523
H16 H 0.2235 0.4593 0.7878
C18 C 0.1418(4) 0.4917(3) 0.7017(4)
H17 H 0.1173 0.4605 0.6799
H18 H 0.1108 0.5047 0.7552
C19 C 0.0666(4) 0.5426(3) 0.5981(5)
H19 H 0.0397 0.5584 0.6522
H20 H 0.0355 0.5136 0.5781
C20 C 0.0729(4) 0.5789(2) 0.5178(5)
H21 H 0.0203 0.5908 0.5002
H22 H 0.1044 0.6077 0.5378
C21 C 0.1071(3) 0.5852(2) 0.3531(5)
H23 H 0.1367 0.6162 0.3631
H24 H 0.0526 0.5940 0.3374
C22 C 0.1431(3) 0.5559(2) 0.2729(4)
H25 H 0.1164 0.5236 0.2665
H26 H 0.1372 0.5743 0.2128
C23 C 0.2643(3) 0.5193(2) 0.2207(3)
H27 H 0.2590 0.5357 0.1586
H28 H 0.2405 0.4860 0.2164
C24 C 0.3494(3) 0.5148(2) 0.2469(4)
H29 H 0.3791 0.4997 0.1943
H30 H 0.3716 0.5479 0.2601
C25 C 0.4332(3) 0.4783(2) 0.3620(4)
H31 H 0.4539 0.5106 0.3837
H32 H 0.4664 0.4663 0.3095
C26 C 0.4337(3) 0.4413(2) 0.4425(4)
H33 H 0.4087 0.4101 0.4217
H34 H 0.4881 0.4338 0.4608
K2 K 0.49136(7) 0.30342(4) 0.44195(7)
P2 P 0.61234(9) 0.12183(6) 0.41469(11)
N3 N 0.5100(3) 0.19404(18) 0.4388(3)
N4 N 0.5804(3) 0.21771(17) 0.4271(3)
O7 O 0.3189(2) 0.30044(15) 0.4782(3)
O8 O 0.3768(3) 0.32135(14) 0.2949(3)
O9 O 0.5251(3) 0.36880(16) 0.2799(3)
O10 O 0.6305(3) 0.36553(17) 0.4349(4)
O11 O 0.5683(3) 0.34251(19) 0.6145(3)
O12 O 0.4233(4) 0.28977(16) 0.6250(3)
C27 C 0.5160(3) 0.1439(2) 0.4339(3)
C28 C 0.4448(3) 0.1128(2) 0.4436(3)
C29 C 0.3696(4) 0.1329(3) 0.4492(4)
H35 H 0.3642 0.1678 0.4431
C30 C 0.3021(4) 0.1051(4) 0.4630(5)
H36 H 0.2528 0.1209 0.4647
C31 C 0.3071(5) 0.0545(4) 0.4743(4)
H37 H 0.2620 0.0353 0.4875
C32 C 0.3802(5) 0.0323(3) 0.4657(5)
H38 H 0.3848 -0.0026 0.4693
C33 C 0.4473(4) 0.0616(3) 0.4516(5)
H39 H 0.4964 0.0456 0.4474
C34 C 0.6410(3) 0.1855(2) 0.4120(4)
C35 C 0.7205(4) 0.2053(2) 0.3894(4)
C36 C 0.7415(5) 0.2541(3) 0.4136(6)
H40 H 0.7042 0.2753 0.4422
C37 C 0.8171(6) 0.2715(3) 0.3958(8)
H41 H 0.8307 0.3040 0.4147
C38 C 0.8727(5) 0.2423(4) 0.3511(7)
H42 H 0.9237 0.2544 0.3394
C39 C 0.8516(5) 0.1951(3) 0.3242(6)
H43 H 0.8881 0.1743 0.2931
C40 C 0.7759(4) 0.1782(3) 0.3430(5)
H44 H 0.7623 0.1459 0.3224
C41 C 0.2802(4) 0.2848(3) 0.3931(7)
H45 H 0.2234 0.2820 0.4044
H46 H 0.3001 0.2521 0.3732
C42 C 0.2956(5) 0.3223(3) 0.3178(6)
H47 H 0.2642 0.3146 0.2610
H48 H 0.2808 0.3557 0.3404
C43 C 0.3983(6) 0.3535(3) 0.2173(5)
H49 H 0.3832 0.3880 0.2324
H50 H 0.3698 0.3434 0.1596
C44 C 0.4850(6) 0.3511(3) 0.1992(5)
H51 H 0.5007 0.3165 0.1860
H52 H 0.4985 0.3716 0.1436
C45 C 0.6088(6) 0.3703(4) 0.2657(6)
H53 H 0.6216 0.3904 0.2094
H54 H 0.6294 0.3365 0.2561
C46 C 0.6449(5) 0.3934(3) 0.3541(7)
H55 H 0.7019 0.3965 0.3450
H56 H 0.6234 0.4271 0.3629
C47 C 0.6630(4) 0.3852(3) 0.5233(6)
H57 H 0.6378 0.4172 0.5389
H58 H 0.7197 0.3910 0.5160
C48 C 0.6486(6) 0.3482(3) 0.6022(6)
H59 H 0.6725 0.3160 0.5859
H60 H 0.6726 0.3602 0.6615
C49 C 0.5514(6) 0.3039(3) 0.6849(5)
H61 H 0.5807 0.3107 0.7437
H62 H 0.5680 0.2712 0.6604
C50 C 0.4658(6) 0.3033(3) 0.7050(6)
H63 H 0.4549 0.2797 0.7567
H64 H 0.4491 0.3366 0.7260
C51 C 0.3387(6) 0.2876(3) 0.6405(6)
H65 H 0.3182 0.3212 0.6536
H66 H 0.3269 0.2663 0.6955
C52 C 0.3011(5) 0.2671(3) 0.5542(6)
H67 H 0.3217 0.2337 0.5403
H68 H 0.2439 0.2647 0.5631
loop_
_geom_bond_atom_site_label_1
_geom_bond_atom_site_label_2
_geom_bond_site_symmetry_1
_geom_bond_site_symmetry_2
K1 N1 1_555 1_555
P1 C1 1_555 1_555
N1 N2 1_555 1_555
N2 K1 1_555 1_555
O1 K1 1_555 1_555
O2 K1 1_555 1_555
O3 K1 1_555 1_555
O4 K1 1_555 1_555
O5 K1 1_555 1_555
O6 K1 1_555 1_555
C1 N1 1_555 1_555
C2 C1 1_555 1_555
C3 C2 1_555 1_555
H1 C3 1_555 1_555
C4 C3 1_555 1_555
H2 C4 1_555 1_555
C5 C4 1_555 1_555
H3 C5 1_555 1_555
C6 C5 1_555 1_555
H4 C6 1_555 1_555
C7 C2 1_555 1_555
H5 C7 1_555 1_555
C8 P1 1_555 1_555
C9 C8 1_555 1_555
C10 C9 1_555 1_555
H6 C10 1_555 1_555
C11 C10 1_555 1_555
H7 C11 1_555 1_555
C12 C11 1_555 1_555
H8 C12 1_555 1_555
C13 C12 1_555 1_555
H9 C13 1_555 1_555
C14 C9 1_555 1_555
H10 C14 1_555 1_555
C15 O1 1_555 1_555
H11 C15 1_555 1_555
H12 C15 1_555 1_555
C16 O2 1_555 1_555
H13 C16 1_555 1_555
H14 C16 1_555 1_555
C17 O2 1_555 1_555
H15 C17 1_555 1_555
H16 C17 1_555 1_555
C18 O3 1_555 1_555
H17 C18 1_555 1_555
H18 C18 1_555 1_555
C19 O3 1_555 1_555
H19 C19 1_555 1_555
H20 C19 1_555 1_555
C20 O4 1_555 1_555
H21 C20 1_555 1_555
H22 C20 1_555 1_555
C21 O4 1_555 1_555
H23 C21 1_555 1_555
H24 C21 1_555 1_555
C22 O5 1_555 1_555
H25 C22 1_555 1_555
H26 C22 1_555 1_555
C23 O5 1_555 1_555
H27 C23 1_555 1_555
H28 C23 1_555 1_555
C24 O6 1_555 1_555
H29 C24 1_555 1_555
H30 C24 1_555 1_555
C25 O6 1_555 1_555
H31 C25 1_555 1_555
H32 C25 1_555 1_555
C26 O1 1_555 1_555
H33 C26 1_555 1_555
H34 C26 1_555 1_555
K2 N3 1_555 1_555
P2 C27 1_555 1_555
N3 N4 1_555 1_555
N4 K2 1_555 1_555
O7 K2 1_555 1_555
O8 K2 1_555 1_555
O9 K2 1_555 1_555
O10 K2 1_555 1_555
O11 K2 1_555 1_555
O12 K2 1_555 1_555
C27 N3 1_555 1_555
C28 C27 1_555 1_555
C29 C28 1_555 1_555
H35 C29 1_555 1_555
C30 C29 1_555 1_555
H36 C30 1_555 1_555
C31 C30 1_555 1_555
H37 C31 1_555 1_555
C32 C31 1_555 1_555
H38 C32 1_555 1_555
C33 C28 1_555 1_555
H39 C33 1_555 1_555
C34 P2 1_555 1_555
C35 C34 1_555 1_555
C36 C35 1_555 1_555
H40 C36 1_555 1_555
C37 C36 1_555 1_555
H41 C37 1_555 1_555
C38 C37 1_555 1_555
H42 C38 1_555 1_555
C39 C38 1_555 1_555
H43 C39 1_555 1_555
C40 C35 1_555 1_555
H44 C40 1_555 1_555
C41 O7 1_555 1_555
H45 C41 1_555 1_555
H46 C41 1_555 1_555
C42 O8 1_555 1_555
H47 C42 1_555 1_555
H48 C42 1_555 1_555
C43 O8 1_555 1_555
H49 C43 1_555 1_555
H50 C43 1_555 1_555
C44 O9 1_555 1_555
H51 C44 1_555 1_555
H52 C44 1_555 1_555
C45 O9 1_555 1_555
H53 C45 1_555 1_555
H54 C45 1_555 1_555
C46 O10 1_555 1_555
H55 C46 1_555 1_555
H56 C46 1_555 1_555
C47 O10 1_555 1_555
H57 C47 1_555 1_555
H58 C47 1_555 1_555
C48 O11 1_555 1_555
H59 C48 1_555 1_555
H60 C48 1_555 1_555
C49 O11 1_555 1_555
H61 C49 1_555 1_555
H62 C49 1_555 1_555
C50 O12 1_555 1_555
H63 C50 1_555 1_555
H64 C50 1_555 1_555
C51 O12 1_555 1_555
H65 C51 1_555 1_555
H66 C51 1_555 1_555
C52 O7 1_555 1_555
H67 C52 1_555 1_555
H68 C52 1_555 1_555
N2 C8 1_555 1_555
C6 C7 1_555 1_555
C13 C14 1_555 1_555
C15 C16 1_555 1_555
C17 C18 1_555 1_555
C19 C20 1_555 1_555
C21 C22 1_555 1_555
C23 C24 1_555 1_555
C25 C26 1_555 1_555
N4 C34 1_555 1_555
C32 C33 1_555 1_555
C39 C40 1_555 1_555
C41 C42 1_555 1_555
C43 C44 1_555 1_555
C45 C46 1_555 1_555
C47 C48 1_555 1_555
C49 C50 1_555 1_555
C51 C52 1_555 1_555

#END
