
#######################################################################
#
#                 Cambridge Crystallographic Data Centre
#                                CCDC 
#
#######################################################################
#
# If this CIF has been generated from an entry in the Cambridge 
# Structural Database, then it will include bibliographic, chemical, 
# crystal, experimental, refinement or atomic coordinate data resulting 
# from the CCDC's data processing and validation procedures.
#
#######################################################################

data_XUNZAI
_chemical_formula_moiety         'C50 H36 N4 O1'
_chemical_name_systematic        
3',3''-(1,3,4-Oxadiazole-2,5-diyl)bis(N,N-diphenylbiphenyl-2-amine)
_symmetry_cell_setting           monoclinic
_symmetry_space_group_name_H-M   'P 21/c'
_symmetry_Int_Tables_number      14
_space_group_name_Hall           '-P 2ybc'
loop_
_symmetry_equiv_pos_site_id
_symmetry_equiv_pos_as_xyz
1 x,y,z
2 -x,1/2+y,1/2-z
3 -x,-y,-z
4 x,1/2-y,1/2+z
_cell_length_a                   17.0777(5)
_cell_length_b                   14.5272(5)
_cell_length_c                   16.8848(5)
_cell_angle_alpha                90
_cell_angle_beta                 115.5740(10)
_cell_angle_gamma                90
_cell_volume                     3778.57
_exptl_crystal_colour            colorless
_exptl_crystal_description       block
_cell_formula_units_Z            4
_exptl_crystal_recrystallization_method dichloromethane/ether
loop_
_atom_site_label
_atom_site_type_symbol
_atom_site_fract_x
_atom_site_fract_y
_atom_site_fract_z
C1 C 0.26391(16) 0.40812(17) 0.39789(17)
C2 C 0.14142(17) 0.40219(17) 0.40239(18)
C3 C 0.04946(16) 0.42185(17) 0.37432(18)
C4 C 0.01171(18) 0.40837(18) 0.43127(19)
H1 H 0.0444 0.3861 0.4877
C5 C -0.07507(19) 0.4284(2) 0.4033(2)
H2 H -0.1008 0.4194 0.4413
C6 C -0.12435(18) 0.46155(19) 0.3200(2)
H3 H -0.1827 0.4751 0.3028
C7 C -0.08799(16) 0.47508(17) 0.26141(18)
C8 C -0.00044(16) 0.45499(17) 0.29008(18)
H4 H 0.0254 0.4639 0.2521
C9 C -0.14163(16) 0.50916(18) 0.17036(18)
C10 C -0.22076(18) 0.4669(2) 0.1182(2)
H5 H -0.2394 0.4171 0.1402
C11 C -0.27158(19) 0.4984(3) 0.0346(2)
H6 H -0.3240 0.4693 0.0007
C12 C -0.2458(2) 0.5724(2) 0.0007(2)
H7 H -0.2803 0.5932 -0.0559
C13 C -0.16813(19) 0.6152(2) 0.05166(19)
H8 H -0.1506 0.6655 0.0291
C14 C -0.11570(16) 0.58466(18) 0.13590(18)
C15 C -0.03818(17) 0.68918(17) 0.25722(17)
C16 C -0.11280(18) 0.73324(18) 0.24852(19)
H9 H -0.1627 0.7288 0.1960
C17 C -0.1145(2) 0.78401(19) 0.3169(2)
H10 H -0.1658 0.8120 0.3107
C18 C -0.0406(2) 0.7934(2) 0.3941(2)
H11 H -0.0411 0.8283 0.4400
C19 C 0.0335(2) 0.7505(2) 0.4020(2)
H12 H 0.0838 0.7573 0.4538
C20 C 0.0359(2) 0.6975(2) 0.33545(19)
H13 H 0.0868 0.6675 0.3430
C21 C 0.03037(16) 0.63375(18) 0.16232(16)
C22 C 0.08771(18) 0.70722(19) 0.18125(19)
H14 H 0.0820 0.7577 0.2122
C23 C 0.15329(19) 0.7051(2) 0.1540(2)
H15 H 0.1916 0.7544 0.1675
C24 C 0.1633(2) 0.6328(3) 0.1078(2)
H16 H 0.2074 0.6328 0.0896
C25 C 0.10697(19) 0.5601(2) 0.08878(18)
H17 H 0.1133 0.5102 0.0575
C26 C 0.04116(18) 0.55983(19) 0.11532(17)
H18 H 0.0036 0.5098 0.1017
C27 C 0.32534(16) 0.43653(17) 0.36371(17)
C28 C 0.29631(18) 0.4869(2) 0.28626(19)
H19 H 0.2386 0.5053 0.2580
C29 C 0.35362(19) 0.5093(2) 0.25162(19)
H20 H 0.3345 0.5430 0.1998
C30 C 0.43894(18) 0.48208(19) 0.29337(19)
H21 H 0.4767 0.4971 0.2689
C31 C 0.47002(16) 0.43236(17) 0.37169(17)
C32 C 0.41233(16) 0.41079(16) 0.40677(17)
H22 H 0.4319 0.3788 0.4596
C33 C 0.56237(16) 0.40318(17) 0.41223(16)
C34 C 0.62488(17) 0.46506(18) 0.41212(16)
H23 H 0.6080 0.5243 0.3907
C35 C 0.71056(18) 0.4405(2) 0.44287(19)
H24 H 0.7509 0.4828 0.4416
C36 C 0.73688(18) 0.3541(2) 0.47538(19)
H25 H 0.7950 0.3374 0.4962
C37 C 0.67728(18) 0.2920(2) 0.47719(19)
H26 H 0.6955 0.2333 0.4996
C38 C 0.58999(16) 0.31529(18) 0.44607(17)
C39 C 0.55148(17) 0.21057(19) 0.53467(19)
C40 C 0.58872(19) 0.2668(2) 0.6081(2)
H27 H 0.5967 0.3291 0.6012
C41 C 0.6138(2) 0.2312(3) 0.6907(2)
H28 H 0.6393 0.2695 0.7394
C42 C 0.6018(2) 0.1396(3) 0.7025(2)
H29 H 0.6196 0.1157 0.7587
C43 C 0.5633(2) 0.0839(3) 0.6304(3)
H30 H 0.5539 0.0221 0.6379
C44 C 0.5381(2) 0.1188(2) 0.5465(2)
H31 H 0.5122 0.0804 0.4980
C45 C 0.46370(17) 0.21459(16) 0.37268(18)
C46 C 0.4714(2) 0.2195(2) 0.2941(2)
H32 H 0.5229 0.2405 0.2943
C47 C 0.4042(3) 0.1939(2) 0.2164(2)
H33 H 0.4098 0.2001 0.1643
C48 C 0.3291(2) 0.1594(2) 0.2146(3)
H34 H 0.2840 0.1409 0.1620
C49 C 0.3216(2) 0.1525(2) 0.2921(3)
H35 H 0.2710 0.1282 0.2916
C50 C 0.38731(19) 0.18076(19) 0.3706(2)
H36 H 0.3802 0.1770 0.4220
O1 O 0.18112(10) 0.44116(11) 0.35582(11)
N1 N 0.19318(14) 0.35122(15) 0.46581(15)
N2 N 0.27396(14) 0.35480(15) 0.46254(15)
N3 N -0.03774(13) 0.63399(14) 0.18786(14)
N4 N 0.53098(14) 0.24767(14) 0.45061(15)
loop_
_geom_bond_atom_site_label_1
_geom_bond_atom_site_label_2
_geom_bond_site_symmetry_1
_geom_bond_site_symmetry_2
C1 C27 1_555 1_555
C2 C3 1_555 1_555
C3 C4 1_555 1_555
C4 H1 1_555 1_555
C5 C4 1_555 1_555
H2 C5 1_555 1_555
C6 C5 1_555 1_555
H3 C6 1_555 1_555
C7 C6 1_555 1_555
C8 C3 1_555 1_555
H4 C8 1_555 1_555
C9 C7 1_555 1_555
C10 C9 1_555 1_555
H5 C10 1_555 1_555
C11 C10 1_555 1_555
H6 C11 1_555 1_555
C12 C11 1_555 1_555
H7 C12 1_555 1_555
C13 C12 1_555 1_555
H8 C13 1_555 1_555
C14 C9 1_555 1_555
C15 C16 1_555 1_555
C16 H9 1_555 1_555
C17 C16 1_555 1_555
H10 C17 1_555 1_555
C18 C17 1_555 1_555
H11 C18 1_555 1_555
C19 C18 1_555 1_555
H12 C19 1_555 1_555
C20 C15 1_555 1_555
H13 C20 1_555 1_555
C21 C22 1_555 1_555
C22 H14 1_555 1_555
C23 C22 1_555 1_555
H15 C23 1_555 1_555
C24 C23 1_555 1_555
H16 C24 1_555 1_555
C25 C24 1_555 1_555
H17 C25 1_555 1_555
C26 C21 1_555 1_555
H18 C26 1_555 1_555
C27 C28 1_555 1_555
C28 H19 1_555 1_555
C29 C28 1_555 1_555
H20 C29 1_555 1_555
C30 C29 1_555 1_555
H21 C30 1_555 1_555
C31 C30 1_555 1_555
C32 C27 1_555 1_555
H22 C32 1_555 1_555
C33 C31 1_555 1_555
C34 C33 1_555 1_555
H23 C34 1_555 1_555
C35 C34 1_555 1_555
H24 C35 1_555 1_555
C36 C35 1_555 1_555
H25 C36 1_555 1_555
C37 C36 1_555 1_555
H26 C37 1_555 1_555
C38 C33 1_555 1_555
C39 C40 1_555 1_555
C40 H27 1_555 1_555
C41 C40 1_555 1_555
H28 C41 1_555 1_555
C42 C41 1_555 1_555
H29 C42 1_555 1_555
C43 C42 1_555 1_555
H30 C43 1_555 1_555
C44 C39 1_555 1_555
H31 C44 1_555 1_555
C45 C46 1_555 1_555
C46 H32 1_555 1_555
C47 C46 1_555 1_555
H33 C47 1_555 1_555
C48 C47 1_555 1_555
H34 C48 1_555 1_555
C49 C48 1_555 1_555
H35 C49 1_555 1_555
C50 C45 1_555 1_555
H36 C50 1_555 1_555
O1 C1 1_555 1_555
N1 C2 1_555 1_555
N2 C1 1_555 1_555
N3 C14 1_555 1_555
N4 C38 1_555 1_555
C2 O1 1_555 1_555
C7 C8 1_555 1_555
C13 C14 1_555 1_555
C15 N3 1_555 1_555
C19 C20 1_555 1_555
C21 N3 1_555 1_555
C25 C26 1_555 1_555
C31 C32 1_555 1_555
C37 C38 1_555 1_555
C39 N4 1_555 1_555
C43 C44 1_555 1_555
C45 N4 1_555 1_555
C49 C50 1_555 1_555
N1 N2 1_555 1_555

#END
