
#######################################################################
#
#                 Cambridge Crystallographic Data Centre
#                                CCDC 
#
#######################################################################
#
# If this CIF has been generated from an entry in the Cambridge 
# Structural Database, then it will include bibliographic, chemical, 
# crystal, experimental, refinement or atomic coordinate data resulting 
# from the CCDC's data processing and validation procedures.
#
#######################################################################

data_XUPDAP
_chemical_formula_moiety         'C30 H32 O3'
_chemical_name_systematic        
3-(3-(bicyclo[2.2.1]hept-2-yl)-2',4-dimethoxybiphenyl-2-yl)-1-phenylpropan-1-one
_symmetry_cell_setting           monoclinic
_symmetry_space_group_name_H-M   'P 21/c'
_symmetry_Int_Tables_number      14
_space_group_name_Hall           '-P 2ybc'
loop_
_symmetry_equiv_pos_site_id
_symmetry_equiv_pos_as_xyz
1 x,y,z
2 -x,1/2+y,1/2-z
3 -x,-y,-z
4 x,1/2-y,1/2+z
_cell_length_a                   9.6012(6)
_cell_length_b                   13.4753(10)
_cell_length_c                   18.3926(13)
_cell_angle_alpha                90
_cell_angle_beta                 94.323(6)
_cell_angle_gamma                90
_cell_volume                     2372.85
_exptl_crystal_colour            colorless
_exptl_crystal_description       parallelepiped
_cell_formula_units_Z            4
loop_
_atom_site_label
_atom_site_type_symbol
_atom_site_fract_x
_atom_site_fract_y
_atom_site_fract_z
O1 O 0.51773(15) 0.84494(11) 0.02606(8)
O2 O 0.55359(17) 0.51928(11) 0.26787(8)
O3 O 1.05746(18) 0.48504(16) 0.09500(13)
C1 C 0.5080(2) 0.75295(15) 0.05862(10)
C2 C 0.3811(2) 0.70440(16) 0.06068(11)
H1 H 0.2978 0.7350 0.0405
C3 C 0.3758(2) 0.61105(16) 0.09227(11)
H2 H 0.2884 0.5786 0.0946
C4 C 0.4973(2) 0.56490(15) 0.12051(10)
C5 C 0.6267(2) 0.61384(15) 0.11820(10)
C6 C 0.6338(2) 0.71080(15) 0.08960(10)
C7 C 0.3963(2) 0.88102(17) -0.01507(12)
H3 H 0.4161 0.9463 -0.0353
H4 H 0.3193 0.8867 0.0168
H5 H 0.3701 0.8348 -0.0549
C8 C 0.4856(2) 0.46185(15) 0.14976(11)
C9 C 0.4425(2) 0.38437(16) 0.10333(11)
H6 H 0.4215 0.3977 0.0530
C10 C 0.4295(2) 0.28795(16) 0.12893(12)
H7 H 0.4008 0.2360 0.0963
C11 C 0.4588(2) 0.26824(16) 0.20238(12)
H8 H 0.4500 0.2025 0.2201
C12 C 0.5007(2) 0.34375(16) 0.25006(12)
H9 H 0.5209 0.3299 0.3004
C13 C 0.5133(2) 0.44033(15) 0.22403(11)
C14 C 0.6204(3) 0.49682(19) 0.33748(12)
H10 H 0.6444 0.5586 0.3635
H11 H 0.7056 0.4587 0.3314
H12 H 0.5571 0.4576 0.3655
C15 C 0.7578(2) 0.55615(15) 0.14247(11)
H13 H 0.7377 0.5109 0.1827
H14 H 0.8316 0.6030 0.1611
C16 C 0.8111(2) 0.49523(18) 0.07920(12)
H15 H 0.7406 0.4449 0.0626
H16 H 0.8264 0.5396 0.0376
C17 C 0.9469(2) 0.44434(19) 0.10467(13)
C18 C 0.9452(2) 0.34743(18) 0.14369(12)
C19 C 1.0729(2) 0.3035(2) 0.16664(13)
H17 H 1.1576 0.3359 0.1574
C20 C 1.0772(3) 0.2139(2) 0.20243(15)
H18 H 1.1647 0.1844 0.2171
C21 C 0.9545(3) 0.1665(2) 0.21720(17)
H19 H 0.9580 0.1048 0.2423
C22 C 0.8268(3) 0.2091(2) 0.19544(17)
H20 H 0.7425 0.1767 0.2056
C23 C 0.8222(2) 0.29907(19) 0.15874(14)
H21 H 0.7345 0.3280 0.1437
C24 C 0.7742(2) 0.76442(16) 0.09339(11)
H22 H 0.831(2) 0.7304(19) 0.1313(13)
C25 C 0.7803(3) 0.8764(2) 0.1132(2)
C26 C 1.0307(3) 0.8683(2) 0.08802(14)
C27 C 0.8566(4) 0.7619(3) 0.02495(18)
H23 H 0.8262 0.7130 -0.0139
C28 C 0.8289(3) 0.8900(2) 0.00495(16)
H24 H 0.8848 0.9140 -0.0346
H25 H 0.7290 0.9065 -0.0061
C29 C 0.8806(4) 0.9229(3) 0.0740(2)
H26 H 0.8840 0.9967 0.0794
C30 C 1.0038(4) 0.7713(3) 0.0437(2)
H27 H 1.0546 0.7734 -0.0011
H28 H 1.0378 0.7135 0.0731
C31? C 0.9288(7) 0.9048(5) 0.1378(4)
H29? H 0.9356 0.9780 0.1411
H30? H 0.9526 0.8774 0.1871
C32? C 0.9530(6) 0.8322(5) 0.0190(3)
loop_
_geom_bond_atom_site_label_1
_geom_bond_atom_site_label_2
_geom_bond_site_symmetry_1
_geom_bond_site_symmetry_2
O1 C1 1_555 1_555
O2 C13 1_555 1_555
O3 C17 1_555 1_555
C1 C2 1_555 1_555
C2 H1 1_555 1_555
C3 C2 1_555 1_555
H2 C3 1_555 1_555
C4 C3 1_555 1_555
C5 C4 1_555 1_555
C6 C1 1_555 1_555
C7 O1 1_555 1_555
H3 C7 1_555 1_555
H4 C7 1_555 1_555
H5 C7 1_555 1_555
C8 C4 1_555 1_555
C9 C8 1_555 1_555
H6 C9 1_555 1_555
C10 C9 1_555 1_555
H7 C10 1_555 1_555
C11 C10 1_555 1_555
H8 C11 1_555 1_555
C12 C11 1_555 1_555
H9 C12 1_555 1_555
C13 C8 1_555 1_555
C14 O2 1_555 1_555
H10 C14 1_555 1_555
H11 C14 1_555 1_555
H12 C14 1_555 1_555
C15 C5 1_555 1_555
H13 C15 1_555 1_555
H14 C15 1_555 1_555
C16 C15 1_555 1_555
H15 C16 1_555 1_555
H16 C16 1_555 1_555
C17 C16 1_555 1_555
C18 C17 1_555 1_555
C19 C18 1_555 1_555
H17 C19 1_555 1_555
C20 C19 1_555 1_555
H18 C20 1_555 1_555
C21 C20 1_555 1_555
H19 C21 1_555 1_555
C22 C21 1_555 1_555
H20 C22 1_555 1_555
C23 C18 1_555 1_555
H21 C23 1_555 1_555
C24 C6 1_555 1_555
H22 C24 1_555 1_555
C25 C24 1_555 1_555
C26 C29 1_555 1_555
C27 C24 1_555 1_555
H23 C27 1_555 1_555
C28 C27 1_555 1_555
H24 C28 1_555 1_555
H25 C28 1_555 1_555
C29 C25 1_555 1_555
H26 C29 1_555 1_555
C30 C26 1_555 1_555
H27 C30 1_555 1_555
H28 C30 1_555 1_555
C5 C6 1_555 1_555
C12 C13 1_555 1_555
C22 C23 1_555 1_555
C27 C30 1_555 1_555
C28 C29 1_555 1_555

#END
