
#######################################################################
#
#                 Cambridge Crystallographic Data Centre
#                                CCDC 
#
#######################################################################
#
# If this CIF has been generated from an entry in the Cambridge 
# Structural Database, then it will include bibliographic, chemical, 
# crystal, experimental, refinement or atomic coordinate data resulting 
# from the CCDC's data processing and validation procedures.
#
#######################################################################

data_XUPHAR
_chemical_compound_source        'Whole plant of Asperula maximowiczii'
_chemical_formula_moiety         'C27 H38 O13,2(C1 H4 O1)'
_chemical_name_systematic        'Asperuloide A methanol solvate'
_symmetry_cell_setting           monoclinic
_symmetry_space_group_name_H-M   'C 2'
_symmetry_Int_Tables_number      5
_space_group_name_Hall           'C 2y'
loop_
_symmetry_equiv_pos_site_id
_symmetry_equiv_pos_as_xyz
1 x,y,z
2 -x,y,-z
3 1/2+x,1/2+y,z
4 1/2-x,1/2+y,-z
_cell_length_a                   26.144(7)
_cell_length_b                   8.705(4)
_cell_length_c                   14.209(6)
_cell_angle_alpha                90.00
_cell_angle_beta                 104.49(3)
_cell_angle_gamma                90.00
_cell_volume                     3130.87
_exptl_crystal_colour            colorless
_exptl_crystal_description       needles
_cell_formula_units_Z            4
_exptl_crystal_recrystallization_method methanol/dichloromethane
loop_
_atom_site_label
_atom_site_type_symbol
_atom_site_fract_x
_atom_site_fract_y
_atom_site_fract_z
O1 O 0.8226(4) 1.1105(12) 1.0133(6)
O2 O 0.8525(3) 0.8909(11) 0.9733(5)
O3 O 0.8603(4) 0.6057(9) 0.7399(6)
O4 O 0.8625(3) 0.8136(8) 0.6481(4)
O5 O 0.6885(3) 0.7752(12) 0.4596(7)
O6 O 0.6610(3) 0.7722(9) 0.2971(6)
O7 O 0.7996(3) 0.9338(9) 0.2621(5)
O8 O 0.8889(3) 0.9582(8) 0.3111(5)
O9 O 0.9359(3) 0.7694(9) 0.2626(5)
O10 O 0.9409(11) 0.446(2) 0.2492(18)
O11 O 1.0179(5) 0.7272(18) 0.0900(9)
O12 O 1.0136(5) 1.0474(19) 0.1207(8)
O13 O 0.9161(5) 1.1551(10) 0.1690(6)
C1 C 0.8463(4) 0.8747(11) 0.3294(6)
H1 H 0.8504 0.7653 0.3170
C2 C 0.7535(5) 0.8885(13) 0.2820(8)
H2 H 0.7298 0.9760 0.2673
C3 C 0.7490(4) 0.8347(11) 0.3672(8)
C4 C 0.7947(4) 0.8358(10) 0.4545(7)
H4 H 0.7853 0.9040 0.5025
C5 C 0.8124(5) 0.6801(12) 0.5065(7)
H5 H 0.7893 0.6500 0.5471
H6 H 0.8130 0.5991 0.4598
C6 C 0.8664(4) 0.7150(12) 0.5659(7)
H7 H 0.8866 0.6212 0.5880
C7 C 0.8918(4) 0.8107(13) 0.4989(7)
H8 H 0.9036 0.7373 0.4565
C8 C 0.8464(4) 0.8989(11) 0.4347(6)
H9 H 0.8500 1.0086 0.4506
C9 C 0.9398(5) 0.9008(19) 0.5490(8)
H10 H 0.9659 0.8324 0.5862
H11 H 0.9302 0.9751 0.5915
H12 H 0.9538 0.9526 0.5013
C10 C 0.6974(4) 0.7927(12) 0.3794(9)
C11 C 0.6070(5) 0.749(2) 0.3069(13)
H13 H 0.5835 0.7349 0.2437
H14 H 0.5961 0.8372 0.3375
H15 H 0.6060 0.6595 0.3459
C12 C 0.9072(4) 0.9021(14) 0.2324(6)
H16 H 0.8774 0.8804 0.1766
C13 C 0.9439(6) 1.0203(17) 0.2053(8)
H17 H 0.9695 1.0489 0.2658
C14 C 0.9761(5) 0.9520(18) 0.1372(9)
H18 H 0.9506 0.9398 0.0740
C15 C 0.9965(6) 0.792(2) 0.1663(9)
H19 H 1.0255 0.8006 0.2251
C16 C 0.9566(6) 0.6970(19) 0.1888(9)
H20 H 0.9278 0.6850 0.1300
C17 C 0.9774(7) 0.5351(17) 0.2257(12)
H21 H 0.9904 0.4842 0.1755
H22 H 1.0069 0.5467 0.2822
C18 C 0.8190(5) 1.0100(15) 0.9506(7)
C19 C 0.8525(5) 0.7791(15) 0.8991(7)
H23 H 0.8231 0.7092 0.8938
H24 H 0.8849 0.7197 0.9164
C20 C 0.8482(4) 0.8578(12) 0.8033(7)
H25 H 0.8752 0.9382 0.8121
C21 C 0.7934(4) 0.9332(12) 0.7710(6)
H26 H 0.7947 1.0104 0.7214
C22 C 0.7476(4) 0.8218(15) 0.7285(9)
H27 H 0.7392 0.8225 0.6580
H28 H 0.7567 0.7178 0.7512
C23 C 0.7022(5) 0.8800(18) 0.7642(9)
H29 H 0.6766 0.7993 0.7635
H30 H 0.6849 0.9650 0.7246
C24 C 0.7275(4) 0.9325(16) 0.8678(8)
H31 H 0.7377 0.8411 0.9085
C25 C 0.7794(4) 1.0143(11) 0.8564(6)
H32 H 0.7711 1.1219 0.8386
C26 C 0.6930(6) 1.033(3) 0.9147(14)
H33 H 0.7120 1.0587 0.9798
H34 H 0.6613 0.9788 0.9162
H35 H 0.6840 1.1258 0.8775
C27 C 0.8570(4) 0.7467(13) 0.7301(7)
C28 C 0.5534(12) 0.959(3) 0.5571(19)
O14 O 0.5758(15) 0.826(4) 0.550(2)
C29 C 1.0878(9) 1.373(2) 0.0491(13)
O15 O 1.0353(16) 1.333(6) 0.032(4)
H3? H 0.7387 0.8101 0.2344
loop_
_geom_bond_atom_site_label_1
_geom_bond_atom_site_label_2
_geom_bond_site_symmetry_1
_geom_bond_site_symmetry_2
O1 C18 1_555 1_555
O2 C18 1_555 1_555
O3 C27 1_555 1_555
O4 C6 1_555 1_555
O5 C10 1_555 1_555
O6 C10 1_555 1_555
O7 C1 1_555 1_555
O8 C1 1_555 1_555
O9 C12 1_555 1_555
O10 C17 1_555 1_555
O11 C15 1_555 1_555
O12 C14 1_555 1_555
O13 C13 1_555 1_555
C1 H1 1_555 1_555
C2 O7 1_555 1_555
H2 C2 1_555 1_555
C3 C2 1_555 1_555
C4 C3 1_555 1_555
H4 C4 1_555 1_555
C5 C4 1_555 1_555
H5 C5 1_555 1_555
H6 C5 1_555 1_555
C6 C5 1_555 1_555
H7 C6 1_555 1_555
C7 C6 1_555 1_555
H8 C7 1_555 1_555
C8 C1 1_555 1_555
H9 C8 1_555 1_555
C9 C7 1_555 1_555
H10 C9 1_555 1_555
H11 C9 1_555 1_555
H12 C9 1_555 1_555
C10 C3 1_555 1_555
C11 O6 1_555 1_555
H13 C11 1_555 1_555
H14 C11 1_555 1_555
H15 C11 1_555 1_555
C12 O8 1_555 1_555
H16 C12 1_555 1_555
C13 C12 1_555 1_555
H17 C13 1_555 1_555
C14 C13 1_555 1_555
H18 C14 1_555 1_555
C15 C14 1_555 1_555
H19 C15 1_555 1_555
C16 O9 1_555 1_555
H20 C16 1_555 1_555
C17 C16 1_555 1_555
H21 C17 1_555 1_555
H22 C17 1_555 1_555
C18 C25 1_555 1_555
C19 O2 1_555 1_555
H23 C19 1_555 1_555
H24 C19 1_555 1_555
C20 C19 1_555 1_555
H25 C20 1_555 1_555
C21 C20 1_555 1_555
H26 C21 1_555 1_555
C22 C21 1_555 1_555
H27 C22 1_555 1_555
H28 C22 1_555 1_555
C23 C22 1_555 1_555
H29 C23 1_555 1_555
H30 C23 1_555 1_555
C24 C23 1_555 1_555
H31 C24 1_555 1_555
C25 C21 1_555 1_555
H32 C25 1_555 1_555
C26 C24 1_555 1_555
H33 C26 1_555 1_555
H34 C26 1_555 1_555
H35 C26 1_555 1_555
C27 O4 1_555 1_555
C28 O14 1_555 1_555
C29 O15 1_555 1_555
C4 C8 1_555 1_555
C7 C8 1_555 1_555
C15 C16 1_555 1_555
C20 C27 1_555 1_555
C24 C25 1_555 1_555

#END
