
#######################################################################
#
#                 Cambridge Crystallographic Data Centre
#                                CCDC 
#
#######################################################################
#
# If this CIF has been generated from an entry in the Cambridge 
# Structural Database, then it will include bibliographic, chemical, 
# crystal, experimental, refinement or atomic coordinate data resulting 
# from the CCDC's data processing and validation procedures.
#
#######################################################################

data_XUPJID
_chemical_formula_moiety         'C51 H77 K1 O3 P1,C4 H8 O1'
_chemical_name_systematic        
'((2,7-di-t-butyl-9H-fluoren-9-ylidene)(2,4,6-tri-t-butylphenyl)phosphanuide radical anion)-tris(tetrahydrofuran)-potassium tetrahydrofuran solvate'
_symmetry_cell_setting           orthorhombic
_symmetry_space_group_name_H-M   'P n a 21'
_symmetry_Int_Tables_number      33
_space_group_name_Hall           'P 2c -2n'
loop_
_symmetry_equiv_pos_site_id
_symmetry_equiv_pos_as_xyz
1 x,y,z
2 -x,-y,1/2+z
3 1/2+x,1/2-y,z
4 1/2-x,1/2+y,1/2+z
_cell_length_a                   33.185(3)
_cell_length_b                   10.8157(9)
_cell_length_c                   14.5739(12)
_cell_angle_alpha                90
_cell_angle_beta                 90
_cell_angle_gamma                90
_cell_volume                     5230.85
_exptl_crystal_colour            purple
_exptl_crystal_description       block
_cell_formula_units_Z            4
loop_
_atom_site_label
_atom_site_type_symbol
_atom_site_fract_x
_atom_site_fract_y
_atom_site_fract_z
K1 K 0.20155(3) 1.08299(8) 0.94056(6)
P1 P 0.17114(2) 0.66379(8) 0.88779(6)
O1 O 0.13329(8) 1.2002(3) 0.96680(18)
O2 O 0.24090(9) 1.2788(3) 1.0051(3)
O3 O 0.22380(14) 0.9911(3) 1.0971(2)
C1 C 0.17199(9) 0.8053(3) 0.8285(2)
C2 C 0.14172(10) 0.8803(3) 0.7830(2)
C3 C 0.16086(10) 0.9833(3) 0.7393(2)
C4 C 0.20296(10) 0.9750(3) 0.7582(2)
C5 C 0.20922(10) 0.8666(3) 0.8131(2)
C6 C 0.24846(9) 0.8416(3) 0.8471(2)
H1 H 0.2528 0.7699 0.8835
C7 C 0.28057(10) 0.9196(3) 0.8284(2)
C8 C 0.27360(11) 1.0253(3) 0.7728(2)
H2 H 0.2955 1.0787 0.7588
C9 C 0.23602(11) 1.0521(3) 0.7387(2)
H3 H 0.2323 1.1234 0.7016
C10 C 0.13759(10) 1.0683(3) 0.6912(2)
H4 H 0.1502 1.1365 0.6619
C11 C 0.09590(11) 1.0542(3) 0.6857(2)
H5 H 0.0806 1.1130 0.6521
C12 C 0.07589(10) 0.9546(3) 0.7288(2)
C13 C 0.09908(10) 0.8689(3) 0.7763(2)
H6 H 0.0861 0.8007 0.8050
C14 C 0.03120(11) 0.9406(3) 0.7274(3)
C15 C 0.01935(12) 0.8115(4) 0.6932(3)
H7 H 0.0294 0.7999 0.6305
H8 H -0.0101 0.8036 0.6936
H9 H 0.0311 0.7487 0.7335
C16 C 0.01515(12) 0.9561(4) 0.8269(3)
H10 H -0.0142 0.9469 0.8272
H11 H 0.0224 1.0383 0.8499
H12 H 0.0272 0.8927 0.8665
C17 C 0.00995(13) 1.0368(4) 0.6671(4)
H13 H 0.0195 1.0290 0.6037
H14 H 0.0160 1.1199 0.6900
H15 H -0.0192 1.0228 0.6690
C18 C 0.32302(9) 0.8931(3) 0.8636(2)
C19 C 0.32388(10) 0.7944(4) 0.9388(3)
H16 H 0.3134 0.7164 0.9143
H17 H 0.3072 0.8213 0.9905
H18 H 0.3517 0.7823 0.9596
C20 C 0.34205(12) 1.0112(4) 0.9014(3)
H19 H 0.3264 1.0405 0.9541
H20 H 0.3422 1.0749 0.8535
H21 H 0.3698 0.9941 0.9207
C21 C 0.34881(11) 0.8469(4) 0.7835(3)
H22 H 0.3753 0.8217 0.8064
H23 H 0.3521 0.9134 0.7384
H24 H 0.3355 0.7760 0.7545
C22 C 0.11749(9) 0.6165(3) 0.8926(2)
C23 C 0.09278(10) 0.6508(3) 0.9707(2)
C24 C 0.05255(9) 0.6209(3) 0.9694(2)
H25 H 0.0365 0.6449 1.0204
C25 C 0.03390(9) 0.5579(3) 0.8981(2)
C26 C 0.05815(9) 0.5181(3) 0.8279(2)
H26 H 0.0463 0.4708 0.7801
C27 C 0.09950(10) 0.5434(3) 0.8231(2)
C28 C 0.12281(10) 0.4872(3) 0.7400(2)
C29 C 0.15764(11) 0.4038(3) 0.7737(3)
H27 H 0.1715 0.3678 0.7207
H28 H 0.1467 0.3374 0.8121
H29 H 0.1767 0.4532 0.8096
C30 C 0.09528(12) 0.4038(4) 0.6809(3)
H30 H 0.0739 0.4540 0.6533
H31 H 0.0832 0.3396 0.7196
H32 H 0.1113 0.3650 0.6322
C31 C 0.13900(13) 0.5886(4) 0.6757(3)
H33 H 0.1505 0.5504 0.6206
H34 H 0.1599 0.6362 0.7074
H35 H 0.1169 0.6439 0.6580
C32 C -0.01211(10) 0.5311(3) 0.9024(3)
C33 C -0.02879(12) 0.4788(5) 0.8134(3)
H36 H -0.0140 0.4035 0.7971
H37 H -0.0257 0.5401 0.7643
H38 H -0.0574 0.4591 0.8213
C34 C -0.02043(12) 0.4387(4) 0.9806(3)
H39 H -0.0496 0.4267 0.9870
H40 H -0.0094 0.4713 1.0382
H41 H -0.0076 0.3594 0.9664
C35 C -0.03565(11) 0.6507(4) 0.9227(3)
H42 H -0.0646 0.6328 0.9235
H43 H -0.0299 0.7121 0.8751
H44 H -0.0275 0.6833 0.9826
C36 C 0.10894(10) 0.7181(3) 1.0576(2)
C37 C 0.07469(12) 0.7345(4) 1.1307(3)
H45 H 0.0637 0.6533 1.1470
H46 H 0.0532 0.7863 1.1052
H47 H 0.0858 0.7741 1.1857
C38 C 0.14193(12) 0.6410(4) 1.1042(3)
H48 H 0.1658 0.6382 1.0647
H49 H 0.1320 0.5568 1.1146
H50 H 0.1490 0.6788 1.1632
C39 C 0.12440(12) 0.8486(3) 1.0356(3)
H51 H 0.1315 0.8910 1.0927
H52 H 0.1033 0.8952 1.0037
H53 H 0.1483 0.8427 0.9962
C40 C 0.09405(13) 1.1656(4) 0.9303(3)
H54 H 0.0946 1.0808 0.9048
H55 H 0.0853 1.2238 0.8818
C41 C 0.06650(14) 1.1731(5) 1.0132(3)
H56 H 0.0384 1.1906 0.9942
H57 H 0.0670 1.0947 1.0483
C42 C 0.08303(17) 1.2767(6) 1.0691(4)
H58 H 0.0661 1.3515 1.0627
H59 H 0.0844 1.2535 1.1347
C43 C 0.12592(16) 1.2995(5) 1.0297(3)
H60 H 0.1271 1.3801 0.9976
H61 H 0.1462 1.2993 1.0795
C44 C 0.2025(3) 1.0652(7) 1.1688(4)
H62 H 0.1734 1.0453 1.1713
H63 H 0.2060 1.1551 1.1588
C45 C 0.22424(15) 1.0223(4) 1.2541(3)
H64 H 0.2092 1.0435 1.3106
H65 H 0.2519 1.0564 1.2578
C46 C 0.22445(13) 0.8842(4) 1.2364(3)
H66 H 0.2446 0.8418 1.2753
H67 H 0.1976 0.8475 1.2478
C47 C 0.23571(12) 0.8768(4) 1.1359(3)
H68 H 0.2651 0.8644 1.1288
H69 H 0.2215 0.8074 1.1058
C48 C 0.23339(18) 1.4043(4) 1.0163(3)
H70 H 0.2093 1.4225 0.9786
H71 H 0.2250 1.4147 1.0810
C49 C 0.2897(3) 1.4478(9) 1.0081(7)
H72 H 0.2975 1.4708 0.9448
H73 H 0.2968 1.5157 1.0507
C50 C 0.3082(3) 1.3263(9) 1.0371(6)
H74 H 0.3219 1.2867 0.9843
H75 H 0.3284 1.3401 1.0861
C51 C 0.2781(3) 1.2533(9) 1.0681(6)
H76 H 0.2716 1.2735 1.1327
H77 H 0.2860 1.1651 1.0646
O4 O 0.12416(9) 0.8783(4) 0.3332(2)
C56 C 0.0972(2) 0.8139(5) 0.3887(4)
H86 H 0.1114 0.7454 0.4200
H87 H 0.0755 0.7778 0.3503
C57 C 0.07900(14) 0.8990(4) 0.4589(3)
H88 H 0.0877 0.8764 0.5217
H89 H 0.0492 0.8977 0.4560
C58 C 0.09542(15) 1.0234(4) 0.4313(4)
H90 H 0.0741 1.0874 0.4332
H91 H 0.1178 1.0487 0.4720
C59 C 0.10988(15) 1.0031(5) 0.3357(4)
H92 H 0.0876 1.0150 0.2913
H93 H 0.1319 1.0615 0.3205
C52? C 0.2407(4) 1.0828(10) 1.1718(8)
H78? H 0.2705 1.0850 1.1722
H79? H 0.2300 1.1676 1.1638
C53? C 0.25936(18) 1.4956(4) 0.9996(3)
H80? H 0.2599 1.5594 1.0483
H81? H 0.2557 1.5341 0.9385
C54? C 0.2947(5) 1.4072(15) 1.0038(12)
H82? H 0.3080 1.4157 1.0643
H83? H 0.3146 1.4309 0.9562
C55? C 0.2833(3) 1.2756(9) 0.9901(7)
H84? H 0.2897 1.2474 0.9271
H85? H 0.2969 1.2210 1.0349
loop_
_geom_bond_atom_site_label_1
_geom_bond_atom_site_label_2
_geom_bond_site_symmetry_1
_geom_bond_site_symmetry_2
K1 O1 1_555 1_555
P1 C1 1_555 1_555
O1 C40 1_555 1_555
O2 K1 1_555 1_555
O3 K1 1_555 1_555
C1 C2 1_555 1_555
C2 C3 1_555 1_555
C3 C4 1_555 1_555
C4 K1 1_555 1_555
C5 K1 1_555 1_555
C6 K1 1_555 1_555
H1 C6 1_555 1_555
C7 C6 1_555 1_555
C8 C7 1_555 1_555
H2 C8 1_555 1_555
C9 K1 1_555 1_555
H3 C9 1_555 1_555
C10 C3 1_555 1_555
H4 C10 1_555 1_555
C11 C10 1_555 1_555
H5 C11 1_555 1_555
C12 C11 1_555 1_555
C13 C2 1_555 1_555
H6 C13 1_555 1_555
C14 C12 1_555 1_555
C15 C14 1_555 1_555
H7 C15 1_555 1_555
H8 C15 1_555 1_555
H9 C15 1_555 1_555
C16 C14 1_555 1_555
H10 C16 1_555 1_555
H11 C16 1_555 1_555
H12 C16 1_555 1_555
C17 C14 1_555 1_555
H13 C17 1_555 1_555
H14 C17 1_555 1_555
H15 C17 1_555 1_555
C18 C7 1_555 1_555
C19 C18 1_555 1_555
H16 C19 1_555 1_555
H17 C19 1_555 1_555
H18 C19 1_555 1_555
C20 C18 1_555 1_555
H19 C20 1_555 1_555
H20 C20 1_555 1_555
H21 C20 1_555 1_555
C21 C18 1_555 1_555
H22 C21 1_555 1_555
H23 C21 1_555 1_555
H24 C21 1_555 1_555
C22 P1 1_555 1_555
C23 C22 1_555 1_555
C24 C23 1_555 1_555
H25 C24 1_555 1_555
C25 C24 1_555 1_555
C26 C25 1_555 1_555
H26 C26 1_555 1_555
C27 C22 1_555 1_555
C28 C27 1_555 1_555
C29 C28 1_555 1_555
H27 C29 1_555 1_555
H28 C29 1_555 1_555
H29 C29 1_555 1_555
C30 C28 1_555 1_555
H30 C30 1_555 1_555
H31 C30 1_555 1_555
H32 C30 1_555 1_555
C31 C28 1_555 1_555
H33 C31 1_555 1_555
H34 C31 1_555 1_555
H35 C31 1_555 1_555
C32 C25 1_555 1_555
C33 C32 1_555 1_555
H36 C33 1_555 1_555
H37 C33 1_555 1_555
H38 C33 1_555 1_555
C34 C32 1_555 1_555
H39 C34 1_555 1_555
H40 C34 1_555 1_555
H41 C34 1_555 1_555
C35 C32 1_555 1_555
H42 C35 1_555 1_555
H43 C35 1_555 1_555
H44 C35 1_555 1_555
C36 C23 1_555 1_555
C37 C36 1_555 1_555
H45 C37 1_555 1_555
H46 C37 1_555 1_555
H47 C37 1_555 1_555
C38 C36 1_555 1_555
H48 C38 1_555 1_555
H49 C38 1_555 1_555
H50 C38 1_555 1_555
C39 C36 1_555 1_555
H51 C39 1_555 1_555
H52 C39 1_555 1_555
H53 C39 1_555 1_555
C40 H54 1_555 1_555
H55 C40 1_555 1_555
C41 C40 1_555 1_555
H56 C41 1_555 1_555
H57 C41 1_555 1_555
C42 C41 1_555 1_555
H58 C42 1_555 1_555
H59 C42 1_555 1_555
C43 O1 1_555 1_555
H60 C43 1_555 1_555
H61 C43 1_555 1_555
C44 O3 1_555 1_555
H62 C44 1_555 1_555
H63 C44 1_555 1_555
C45 C44 1_555 1_555
H64 C45 1_555 1_555
H65 C45 1_555 1_555
C46 C45 1_555 1_555
H66 C46 1_555 1_555
H67 C46 1_555 1_555
C47 O3 1_555 1_555
H68 C47 1_555 1_555
H69 C47 1_555 1_555
C48 O2 1_555 1_555
H70 C48 1_555 1_555
H71 C48 1_555 1_555
C49 C48 1_555 1_555
H72 C49 1_555 1_555
H73 C49 1_555 1_555
C50 C49 1_555 1_555
H74 C50 1_555 1_555
H75 C50 1_555 1_555
C51 O2 1_555 1_555
H76 C51 1_555 1_555
H77 C51 1_555 1_555
O4 C56 1_555 1_555
C56 H86 1_555 1_555
H87 C56 1_555 1_555
C57 C56 1_555 1_555
H88 C57 1_555 1_555
H89 C57 1_555 1_555
C58 C57 1_555 1_555
H90 C58 1_555 1_555
H91 C58 1_555 1_555
C59 O4 1_555 1_555
H92 C59 1_555 1_555
H93 C59 1_555 1_555
C1 C5 1_555 1_555
C4 C5 1_555 1_555
C4 C9 1_555 1_555
C5 C6 1_555 1_555
C8 C9 1_555 1_555
C12 C13 1_555 1_555
C26 C27 1_555 1_555
C42 C43 1_555 1_555
C46 C47 1_555 1_555
C50 C51 1_555 1_555
C58 C59 1_555 1_555

#END
