
#######################################################################
#
#                 Cambridge Crystallographic Data Centre
#                                CCDC 
#
#######################################################################
#
# If this CIF has been generated from an entry in the Cambridge 
# Structural Database, then it will include bibliographic, chemical, 
# crystal, experimental, refinement or atomic coordinate data resulting 
# from the CCDC's data processing and validation procedures.
#
#######################################################################

data_XUPMOL
_chemical_formula_moiety         'C22 H23 N1 O2'
_chemical_name_systematic        
3'-(Benzylamino)-6'-methyl-2H-spiro[cyclohexane-1,2'-indene]-1',2(3'H)-dione
_symmetry_cell_setting           monoclinic
_symmetry_space_group_name_H-M   'P 21/c'
_symmetry_Int_Tables_number      14
_space_group_name_Hall           '-P 2ybc'
loop_
_symmetry_equiv_pos_site_id
_symmetry_equiv_pos_as_xyz
1 x,y,z
2 -x,1/2+y,1/2-z
3 -x,-y,-z
4 x,1/2-y,1/2+z
_cell_length_a                   6.2144(4)
_cell_length_b                   13.7639(8)
_cell_length_c                   21.0254(13)
_cell_angle_alpha                90
_cell_angle_beta                 98.1950(10)
_cell_angle_gamma                90
_cell_volume                     1780.03
_exptl_crystal_colour            colorless
_exptl_crystal_description       plate
_cell_formula_units_Z            4
loop_
_atom_site_label
_atom_site_type_symbol
_atom_site_fract_x
_atom_site_fract_y
_atom_site_fract_z
O1 O 0.2757(3) 0.08113(12) 0.46409(8)
O2 O 0.2256(2) 0.10439(11) 0.27730(7)
N1 N 0.5483(3) -0.03783(12) 0.27052(8)
H1 H 0.4590 -0.0676 0.2405
C1 C 0.5150(3) -0.03607(14) 0.33736(9)
H2 H 0.6482 -0.0653 0.3625
C2 C 0.3263(3) -0.09925(14) 0.34953(9)
C3 C 0.2557(3) -0.18627(15) 0.32036(10)
H3 H 0.3218 -0.2116 0.2858
C4 C 0.0867(3) -0.23539(15) 0.34265(10)
H4 H 0.0353 -0.2941 0.3221
C5 C -0.0107(3) -0.20136(14) 0.39450(10)
C6 C 0.0594(3) -0.11355(14) 0.42266(9)
H5 H -0.0044 -0.0885 0.4577
C7 C 0.2242(3) -0.06273(14) 0.39885(9)
C8 C 0.3158(3) 0.03278(14) 0.41894(9)
C9 C 0.4739(3) 0.06291(14) 0.37139(9)
C10 C 0.6837(3) 0.10813(15) 0.40813(9)
H6 H 0.7324 0.0676 0.4464
H7 H 0.7988 0.1057 0.3801
C11 C 0.6609(4) 0.21256(16) 0.42993(10)
H8 H 0.8048 0.2376 0.4494
H9 H 0.5625 0.2149 0.4630
C12 C 0.5699(4) 0.27637(18) 0.37305(13)
H10 H 0.5562 0.3441 0.3879
H11 H 0.6715 0.2762 0.3408
C13 C 0.3491(4) 0.23961(17) 0.34239(13)
H12 H 0.2430 0.2515 0.3725
H13 H 0.3021 0.2781 0.3031
C14 C 0.3417(3) 0.13373(15) 0.32479(10)
C15 C -0.1873(4) -0.25935(17) 0.41910(12)
H14 H -0.2359 -0.2252 0.4554
H15 H -0.1307 -0.3234 0.4332
H16 H -0.3101 -0.2672 0.3847
C16 C 0.7424(3) 0.01400(17) 0.25709(10)
H17 H 0.8729 -0.0151 0.2825
H18 H 0.7336 0.0828 0.2702
C17 C 0.7630(3) 0.00890(15) 0.18686(10)
C18 C 0.9332(3) -0.04029(16) 0.16507(10)
H19 H 1.0392 -0.0722 0.1949
C19 C 0.9495(4) -0.04310(19) 0.10018(11)
H20 H 1.0660 -0.0773 0.0857
C20 C 0.7975(4) 0.0034(2) 0.05645(11)
H21 H 0.8094 0.0013 0.0119
C21 C 0.6285(4) 0.05302(18) 0.07742(11)
H22 H 0.5240 0.0855 0.0474
C22 C 0.6113(4) 0.05538(17) 0.14220(10)
H23 H 0.4938 0.0893 0.1564
loop_
_geom_bond_atom_site_label_1
_geom_bond_atom_site_label_2
_geom_bond_site_symmetry_1
_geom_bond_site_symmetry_2
O1 C8 1_555 1_555
O2 C14 1_555 1_555
N1 H1 1_555 1_555
C1 N1 1_555 1_555
H2 C1 1_555 1_555
C2 C1 1_555 1_555
C3 C2 1_555 1_555
H3 C3 1_555 1_555
C4 C3 1_555 1_555
H4 C4 1_555 1_555
C5 C4 1_555 1_555
C6 C5 1_555 1_555
H5 C6 1_555 1_555
C7 C2 1_555 1_555
C8 C7 1_555 1_555
C9 C1 1_555 1_555
C10 C9 1_555 1_555
H6 C10 1_555 1_555
H7 C10 1_555 1_555
C11 C10 1_555 1_555
H8 C11 1_555 1_555
H9 C11 1_555 1_555
C12 C11 1_555 1_555
H10 C12 1_555 1_555
H11 C12 1_555 1_555
C13 C12 1_555 1_555
H12 C13 1_555 1_555
H13 C13 1_555 1_555
C14 C9 1_555 1_555
C15 C5 1_555 1_555
H14 C15 1_555 1_555
H15 C15 1_555 1_555
H16 C15 1_555 1_555
C16 N1 1_555 1_555
H17 C16 1_555 1_555
H18 C16 1_555 1_555
C17 C16 1_555 1_555
C18 C17 1_555 1_555
H19 C18 1_555 1_555
C19 C18 1_555 1_555
H20 C19 1_555 1_555
C20 C19 1_555 1_555
H21 C20 1_555 1_555
C21 C20 1_555 1_555
H22 C21 1_555 1_555
C22 C17 1_555 1_555
H23 C22 1_555 1_555
C6 C7 1_555 1_555
C8 C9 1_555 1_555
C13 C14 1_555 1_555
C21 C22 1_555 1_555

#END
