
#######################################################################
#
#                 Cambridge Crystallographic Data Centre
#                                CCDC 
#
#######################################################################
#
# If this CIF has been generated from an entry in the Cambridge 
# Structural Database, then it will include bibliographic, chemical, 
# crystal, experimental, refinement or atomic coordinate data resulting 
# from the CCDC's data processing and validation procedures.
#
#######################################################################

data_XUPNAY
_chemical_formula_moiety         'C22 H21 N1 O2'
_chemical_name_systematic        
10-Benzyl-10-azatetracyclo[9.3.2.0^1,9^.0^3,8^]hexadeca-3,5,7-triene-2,15-dione
_symmetry_cell_setting           orthorhombic
_symmetry_space_group_name_H-M   'P 21 21 21'
_symmetry_Int_Tables_number      19
_space_group_name_Hall           'P 2ac 2ab'
loop_
_symmetry_equiv_pos_site_id
_symmetry_equiv_pos_as_xyz
1 x,y,z
2 1/2-x,-y,1/2+z
3 -x,1/2+y,1/2-z
4 1/2+x,1/2-y,-z
_cell_length_a                   6.694(3)
_cell_length_b                   7.849(3)
_cell_length_c                   32.464(13)
_cell_angle_alpha                90
_cell_angle_beta                 90
_cell_angle_gamma                90
_cell_volume                     1705.7
_exptl_crystal_colour            yellow
_cell_formula_units_Z            4
loop_
_atom_site_label
_atom_site_type_symbol
_atom_site_fract_x
_atom_site_fract_y
_atom_site_fract_z
O1 O 0.4300(6) 0.2153(5) 0.03230(10)
O2 O 0.4323(5) 0.1577(5) 0.12445(10)
N1 N 0.7152(6) 0.6033(5) 0.13232(12)
C1 C 0.6655(7) 0.5507(6) 0.09002(14)
H1 H 0.7788 0.5849 0.0717
C2 C 0.4767(8) 0.6275(7) 0.07276(15)
C3 C 0.4031(8) 0.7922(7) 0.07509(16)
H2 H 0.4688 0.8738 0.0919
C4 C 0.2356(8) 0.8384(8) 0.05318(17)
H3 H 0.1876 0.9521 0.0549
C5 C 0.1355(8) 0.7211(7) 0.02854(16)
H4 H 0.0213 0.7552 0.0132
C6 C 0.2032(8) 0.5541(7) 0.02639(15)
H5 H 0.1357 0.4720 0.0100
C7 C 0.3728(7) 0.5101(6) 0.04889(15)
C8 C 0.4687(7) 0.3429(6) 0.05192(14)
C9 C 0.6325(7) 0.3535(7) 0.08480(15)
C10 C 0.5557(7) 0.2719(7) 0.12486(15)
C11 C 0.6504(8) 0.3342(8) 0.16451(15)
H6 H 0.5466 0.3854 0.1823
H7 H 0.7098 0.2366 0.1794
C12 C 0.8078(8) 0.4627(7) 0.15584(16)
H8 H 0.8487 0.5113 0.1830
C13 C 1.0007(8) 0.3850(8) 0.13595(17)
H9 H 1.0673 0.4746 0.1195
H10 H 1.0935 0.3517 0.1583
C14 C 0.9656(8) 0.2306(8) 0.10844(16)
H11 H 1.0958 0.1939 0.0970
H12 H 0.9144 0.1364 0.1258
C15 C 0.8218(7) 0.2569(7) 0.07288(16)
H13 H 0.7836 0.1443 0.0616
H14 H 0.8911 0.3205 0.0508
C16 C 0.8300(8) 0.7566(7) 0.13367(15)
H15 H 0.7790 0.8366 0.1126
H16 H 0.9707 0.7300 0.1268
C17 C 0.8219(9) 0.8427(7) 0.17577(15)
C18 C 0.9886(10) 0.9220(7) 0.19161(17)
H17 H 1.1126 0.9162 0.1774
C19 C 0.9736(13) 1.0123(7) 0.22929(19)
H18 H 1.0872 1.0691 0.2402
C20 C 0.7946(13) 1.0179(9) 0.25010(19)
H19 H 0.7852 1.0759 0.2757
C21 C 0.6359(11) 0.9420(8) 0.23424(18)
H20 H 0.5128 0.9475 0.2488
C22 C 0.6431(10) 0.8545(8) 0.19704(17)
H21 H 0.5259 0.8030 0.1862
loop_
_geom_bond_atom_site_label_1
_geom_bond_atom_site_label_2
_geom_bond_site_symmetry_1
_geom_bond_site_symmetry_2
O1 C8 1_555 1_555
O2 C10 1_555 1_555
N1 C1 1_555 1_555
C1 H1 1_555 1_555
C2 C1 1_555 1_555
C3 C2 1_555 1_555
H2 C3 1_555 1_555
C4 C3 1_555 1_555
H3 C4 1_555 1_555
C5 C4 1_555 1_555
H4 C5 1_555 1_555
C6 C5 1_555 1_555
H5 C6 1_555 1_555
C7 C2 1_555 1_555
C8 C7 1_555 1_555
C9 C1 1_555 1_555
C10 C9 1_555 1_555
C11 C10 1_555 1_555
H6 C11 1_555 1_555
H7 C11 1_555 1_555
C12 N1 1_555 1_555
H8 C12 1_555 1_555
C13 C12 1_555 1_555
H9 C13 1_555 1_555
H10 C13 1_555 1_555
C14 C13 1_555 1_555
H11 C14 1_555 1_555
H12 C14 1_555 1_555
C15 C9 1_555 1_555
H13 C15 1_555 1_555
H14 C15 1_555 1_555
C16 N1 1_555 1_555
H15 C16 1_555 1_555
H16 C16 1_555 1_555
C17 C16 1_555 1_555
C18 C17 1_555 1_555
H17 C18 1_555 1_555
C19 C18 1_555 1_555
H18 C19 1_555 1_555
C20 C19 1_555 1_555
H19 C20 1_555 1_555
C21 C20 1_555 1_555
H20 C21 1_555 1_555
C22 C17 1_555 1_555
H21 C22 1_555 1_555
C6 C7 1_555 1_555
C8 C9 1_555 1_555
C11 C12 1_555 1_555
C14 C15 1_555 1_555
C21 C22 1_555 1_555

#END
