
#######################################################################
#
#                 Cambridge Crystallographic Data Centre
#                                CCDC 
#
#######################################################################
#
# If this CIF has been generated from an entry in the Cambridge 
# Structural Database, then it will include bibliographic, chemical, 
# crystal, experimental, refinement or atomic coordinate data resulting 
# from the CCDC's data processing and validation procedures.
#
#######################################################################

data_XUPNED
_chemical_formula_moiety         'C12 H15 O1 P1 S1'
_chemical_name_systematic        '1-Benzothiophen-2-yl(t-butyl)phosphine oxide'
_symmetry_cell_setting           orthorhombic
_symmetry_space_group_name_H-M   'P 21 21 21'
_symmetry_Int_Tables_number      19
_space_group_name_Hall           'P 2ac 2ab'
loop_
_symmetry_equiv_pos_site_id
_symmetry_equiv_pos_as_xyz
1 x,y,z
2 1/2-x,-y,1/2+z
3 -x,1/2+y,1/2-z
4 1/2+x,1/2-y,-z
_cell_length_a                   9.2832(2)
_cell_length_b                   11.2563(2)
_cell_length_c                   11.6948(2)
_cell_angle_alpha                90
_cell_angle_beta                 90
_cell_angle_gamma                90
_cell_volume                     1222.04
_cell_formula_units_Z            4
loop_
_atom_site_label
_atom_site_type_symbol
_atom_site_fract_x
_atom_site_fract_y
_atom_site_fract_z
P1 P 0.23586(5) 0.10792(4) 0.09430(4)
H1 H 0.1980 0.0852 0.0192
S1 S 0.38640(5) 0.33337(5) 0.17830(4)
C1 C 0.25480(19) 0.26627(16) 0.09334(15)
C2 C 0.22366(19) 0.46700(17) 0.05058(15)
C3 C 0.1768(2) 0.34677(17) 0.03061(16)
H2 H 0.1024 0.3262 -0.0189
C4 C 0.0998(2) 0.06739(17) 0.19885(17)
C5 C 0.3479(2) 0.68336(18) 0.10977(19)
H3 H 0.3883 0.7565 0.1284
C6 C 0.4001(2) 0.58192(19) 0.16087(18)
H4 H 0.4743 0.5853 0.2142
O1 O 0.37555(16) 0.04566(14) 0.10827(14)
C7 C 0.1725(2) 0.57294(17) 0.00039(16)
H5 H 0.0973 0.5710 -0.0522
C8 C 0.2350(2) 0.67858(18) 0.03021(18)
H6 H 0.2019 0.7486 -0.0029
C9 C -0.0384(2) 0.13557(18) 0.1762(2)
H7 H -0.1094 0.1139 0.2321
H8 H -0.0733 0.1167 0.1011
H9 H -0.0197 0.2193 0.1811
C10 C 0.3373(2) 0.47312(18) 0.12965(16)
C11 C 0.1570(3) 0.0963(3) 0.3179(2)
H10 H 0.0861 0.0752 0.3741
H11 H 0.1770 0.1798 0.3230
H12 H 0.2438 0.0522 0.3316
C12 C 0.0691(3) -0.0651(2) 0.1831(3)
H13 H -0.0023 -0.0900 0.2375
H14 H 0.1562 -0.1094 0.1951
H15 H 0.0343 -0.0790 0.1070
loop_
_geom_bond_atom_site_label_1
_geom_bond_atom_site_label_2
_geom_bond_site_symmetry_1
_geom_bond_site_symmetry_2
P1 H1 1_555 1_555
S1 C1 1_555 1_555
C1 P1 1_555 1_555
C2 C3 1_555 1_555
C3 C1 1_555 1_555
H2 C3 1_555 1_555
C4 P1 1_555 1_555
C5 H3 1_555 1_555
C6 C5 1_555 1_555
H4 C6 1_555 1_555
O1 P1 1_555 1_555
C7 C2 1_555 1_555
H5 C7 1_555 1_555
C8 C5 1_555 1_555
H6 C8 1_555 1_555
C9 C4 1_555 1_555
H7 C9 1_555 1_555
H8 C9 1_555 1_555
H9 C9 1_555 1_555
C10 S1 1_555 1_555
C11 C4 1_555 1_555
H10 C11 1_555 1_555
H11 C11 1_555 1_555
H12 C11 1_555 1_555
C12 C4 1_555 1_555
H13 C12 1_555 1_555
H14 C12 1_555 1_555
H15 C12 1_555 1_555
C2 C10 1_555 1_555
C6 C10 1_555 1_555
C7 C8 1_555 1_555

#END
