
#######################################################################
#
#                 Cambridge Crystallographic Data Centre
#                                CCDC 
#
#######################################################################
#
# If this CIF has been generated from an entry in the Cambridge 
# Structural Database, then it will include bibliographic, chemical, 
# crystal, experimental, refinement or atomic coordinate data resulting 
# from the CCDC's data processing and validation procedures.
#
#######################################################################

data_XUPYUE
_chemical_formula_moiety         'C42 H24 Br6,2(C1 H2 Cl2)'
_chemical_name_systematic        
'hexakis(4-bromophenyl)benzene dichloromethane solvate'
_symmetry_cell_setting           monoclinic
_symmetry_space_group_name_H-M   'C 2/c'
_symmetry_Int_Tables_number      15
_space_group_name_Hall           '-C 2yn'
loop_
_symmetry_equiv_pos_site_id
_symmetry_equiv_pos_as_xyz
1 x,y,z
2 -x,y,1/2-z
3 1/2+x,1/2+y,z
4 1/2-x,1/2+y,1/2-z
5 -x,-y,-z
6 x,-y,1/2+z
7 1/2-x,1/2-y,-z
8 1/2+x,1/2-y,1/2+z
_cell_length_a                   11.813(3)
_cell_length_b                   21.075(5)
_cell_length_c                   17.867(5)
_cell_angle_alpha                90
_cell_angle_beta                 98.478(5)
_cell_angle_gamma                90
_cell_volume                     4399.54
_cell_formula_units_Z            4
loop_
_atom_site_label
_atom_site_type_symbol
_atom_site_fract_x
_atom_site_fract_y
_atom_site_fract_z
Br1 Br 1.0000 0.36184(5) 0.7500
Br2 Br 0.63983(8) 0.19464(4) 0.44593(6)
Br3 Br 0.65073(8) -0.19133(5) 0.44374(6)
Br4 Br 1.0000 -0.35571(5) 0.7500
C1 C 1.0000 0.0696(4) 0.7500
C2 C 0.9280(5) 0.0362(3) 0.6935(4)
C3 C 0.9285(5) -0.0301(3) 0.6942(4)
C4 C 1.0000 -0.0632(4) 0.7500
C5 C 1.0000 0.1407(4) 0.7500
C6 C 0.9226(6) 0.1746(3) 0.7859(4)
H1 H 0.8709 0.1529 0.8111
C7 C 0.9215(8) 0.2398(4) 0.7846(5)
H2 H 0.8675 0.2620 0.8071
C8 C 1.0000 0.2719(5) 0.7500
C9 C 0.8549(6) 0.0729(3) 0.6338(4)
C10 C 0.7452(7) 0.0909(4) 0.6402(5)
H3 H 0.7136 0.0788 0.6827
C11 C 0.6802(7) 0.1269(4) 0.5846(5)
H4 H 0.6055 0.1380 0.5897
C12 C 0.7256(7) 0.1456(3) 0.5233(5)
C13 C 0.8346(8) 0.1279(4) 0.5136(5)
H5 H 0.8648 0.1399 0.4706
C14 C 0.8985(7) 0.0917(4) 0.5698(5)
H6 H 0.9725 0.0798 0.5640
C15 C 0.8572(6) -0.0665(3) 0.6322(4)
C16 C 0.7413(6) -0.0773(4) 0.6323(4)
H7 H 0.7047 -0.0601 0.6702
C17 C 0.6802(7) -0.1140(4) 0.5752(5)
H8 H 0.6021 -0.1204 0.5744
C18 C 0.7337(7) -0.1404(3) 0.5211(5)
C19 C 0.8478(8) -0.1318(4) 0.5219(5)
H9 H 0.8847 -0.1509 0.4853
C20 C 0.9085(7) -0.0946(4) 0.5774(5)
H10 H 0.9865 -0.0885 0.5773
C21 C 1.0000 -0.1352(4) 0.7500
C22 C 0.9112(6) -0.1679(3) 0.7719(5)
H11 H 0.8507 -0.1459 0.7875
C23 C 0.9096(7) -0.2334(4) 0.7711(5)
H12 H 0.8475 -0.2553 0.7849
C24 C 1.0000 -0.2659(5) 0.7500
Br2A Br 1.36017(8) 0.19464(4) 1.05407(6)
Br3A Br 1.34927(8) -0.19133(5) 1.05626(6)
C2A C 1.0720(5) 0.0362(3) 0.8065(4)
C3A C 1.0715(5) -0.0301(3) 0.8058(4)
C6A C 1.0774(6) 0.1746(3) 0.7141(4)
H1A H 1.1291 0.1529 0.6889
C7A C 1.0785(8) 0.2398(4) 0.7154(5)
H2A H 1.1325 0.2620 0.6929
C9A C 1.1451(6) 0.0729(3) 0.8662(4)
C10A C 1.2548(7) 0.0909(4) 0.8598(5)
H3A H 1.2864 0.0788 0.8173
C11A C 1.3198(7) 0.1269(4) 0.9154(5)
H4A H 1.3945 0.1380 0.9103
C12A C 1.2744(7) 0.1456(3) 0.9767(5)
C13A C 1.1654(8) 0.1279(4) 0.9864(5)
H5A H 1.1352 0.1399 1.0294
C14A C 1.1015(7) 0.0917(4) 0.9302(5)
H6A H 1.0275 0.0798 0.9360
C15A C 1.1428(6) -0.0665(3) 0.8678(4)
C16A C 1.2587(6) -0.0773(4) 0.8677(4)
H7A H 1.2953 -0.0601 0.8298
C17A C 1.3198(7) -0.1140(4) 0.9248(5)
H8A H 1.3979 -0.1204 0.9256
C18A C 1.2663(7) -0.1404(3) 0.9789(5)
C19A C 1.1522(8) -0.1318(4) 0.9781(5)
H9A H 1.1153 -0.1509 1.0147
C20A C 1.0915(7) -0.0946(4) 0.9226(5)
H10A H 1.0135 -0.0885 0.9227
C22A C 1.0888(6) -0.1679(3) 0.7281(5)
H11A H 1.1493 -0.1459 0.7125
C23A C 1.0904(7) -0.2334(4) 0.7289(5)
H12A H 1.1525 -0.2553 0.7151
C25 C 0.6734(11) 0.0039(6) 0.4072(8)
H13 H 0.6956 -0.0264 0.4475
H14 H 0.6830 0.0457 0.4299
Cl1 Cl 0.5396(3) -0.00537(15) 0.3813(3)
Cl2 Cl 0.7698(4) -0.00199(16) 0.3485(2)
loop_
_geom_bond_atom_site_label_1
_geom_bond_atom_site_label_2
_geom_bond_site_symmetry_1
_geom_bond_site_symmetry_2
Br1 C8 1_555 1_555
Br2 C12 1_555 1_555
Br3 C18 1_555 1_555
Br4 C24 1_555 1_555
C1 C2 1_555 1_555
C2 C3 1_555 1_555
C3 C4 1_555 1_555
C4 C21 1_555 1_555
C5 C1 1_555 1_555
C6 C5 1_555 1_555
H1 C6 1_555 1_555
C7 C6 1_555 1_555
H2 C7 1_555 1_555
C8 C7 1_555 1_555
C9 C2 1_555 1_555
C10 C9 1_555 1_555
H3 C10 1_555 1_555
C11 C10 1_555 1_555
H4 C11 1_555 1_555
C12 C11 1_555 1_555
C13 C12 1_555 1_555
H5 C13 1_555 1_555
C14 C9 1_555 1_555
H6 C14 1_555 1_555
C15 C3 1_555 1_555
C16 C15 1_555 1_555
H7 C16 1_555 1_555
C17 C16 1_555 1_555
H8 C17 1_555 1_555
C18 C17 1_555 1_555
C19 C18 1_555 1_555
H9 C19 1_555 1_555
C20 C15 1_555 1_555
H10 C20 1_555 1_555
C21 C22 1_555 1_555
C22 H11 1_555 1_555
C23 C22 1_555 1_555
H12 C23 1_555 1_555
C24 C23 1_555 1_555
C25 H13 1_555 1_555
H14 C25 1_555 1_555
Cl1 C25 1_555 1_555
Cl2 C25 1_555 1_555
Br2A C12A 1_555 1_555
Br3A C18A 1_555 1_555
C2A C1 1_555 1_555
C3A C4 1_555 1_555
C6A C5 1_555 1_555
H1A C6A 1_555 1_555
C7A C8 1_555 1_555
H2A C7A 1_555 1_555
C9A C2A 1_555 1_555
C10A C9A 1_555 1_555
H3A C10A 1_555 1_555
C11A C10A 1_555 1_555
H4A C11A 1_555 1_555
C12A C11A 1_555 1_555
C13A C12A 1_555 1_555
H5A C13A 1_555 1_555
C14A C9A 1_555 1_555
H6A C14A 1_555 1_555
C15A C3A 1_555 1_555
C16A C15A 1_555 1_555
H7A C16A 1_555 1_555
C17A C16A 1_555 1_555
H8A C17A 1_555 1_555
C18A C17A 1_555 1_555
C19A C18A 1_555 1_555
H9A C19A 1_555 1_555
C20A C15A 1_555 1_555
H10A C20A 1_555 1_555
C22A C21 1_555 1_555
H11A C22A 1_555 1_555
C23A C24 1_555 1_555
H12A C23A 1_555 1_555
C13 C14 1_555 1_555
C19 C20 1_555 1_555
C2A C3A 1_555 1_555
C6A C7A 1_555 1_555
C13A C14A 1_555 1_555
C19A C20A 1_555 1_555
C22A C23A 1_555 1_555

#END
