
#######################################################################
#
#                 Cambridge Crystallographic Data Centre
#                                CCDC 
#
#######################################################################
#
# If this CIF has been generated from an entry in the Cambridge 
# Structural Database, then it will include bibliographic, chemical, 
# crystal, experimental, refinement or atomic coordinate data resulting 
# from the CCDC's data processing and validation procedures.
#
#######################################################################

data_XUPZIT
_chemical_formula_moiety         'C42 H30,C7 H8'
_chemical_name_systematic        'hexaphenylbenzene toluene solvate'
_symmetry_cell_setting           tetragonal
_symmetry_space_group_name_H-M   'P 42 21 2'
_symmetry_Int_Tables_number      94
_space_group_name_Hall           'P 4n 2n'
loop_
_symmetry_equiv_pos_site_id
_symmetry_equiv_pos_as_xyz
1 x,y,z
2 1/2-y,1/2+x,1/2+z
3 -x,-y,z
4 1/2+y,1/2-x,1/2+z
5 1/2+x,1/2-y,1/2-z
6 y,x,-z
7 1/2-x,1/2+y,1/2-z
8 -y,-x,-z
_cell_length_a                   13.504(3)
_cell_length_b                   13.504(3)
_cell_length_c                   10.184(2)
_cell_angle_alpha                90
_cell_angle_beta                 90
_cell_angle_gamma                90
_cell_volume                     1857.13
_cell_formula_units_Z            2
loop_
_atom_site_label
_atom_site_type_symbol
_atom_site_fract_x
_atom_site_fract_y
_atom_site_fract_z
C1 C 0.8993(4) -0.0271(5) 1.0016(6)
C2 C 0.9256(4) 0.0744(4) 1.0000
C3 C 0.7927(2) -0.0554(3) 1.0044(4)
C4 C 0.7541(4) -0.0981(3) 1.1175(3)
H1 H 0.7947 -0.1087 1.1899
C5 C 0.6548(4) -0.1251(4) 1.1223(4)
H2 H 0.6290 -0.1538 1.1980
C6 C 0.5942(3) -0.1094(4) 1.0141(6)
H3 H 0.5277 -0.1266 1.0196
C7 C 0.6328(3) -0.0666(3) 0.9010(5)
H4 H 0.5922 -0.0560 0.8285
C8 C 0.7320(3) -0.0396(3) 0.8961(3)
H5 H 0.7579 -0.0109 0.8204
C9 C 0.8491(4) 0.1509(4) 1.0000
C10 C 0.8410(5) 0.2201(5) 0.8961(6)
H6 H 0.8851 0.2171 0.8261
C11 C 0.7680(6) 0.2922(6) 0.8976(8)
H7 H 0.7636 0.3372 0.8288
C12 C 0.7024(5) 0.2976(5) 1.0000
H8 H 0.6537 0.3463 1.0000
C1E C 0.9729(5) -0.1007(4) 0.9984(6)
C2B C 1.0744(4) -0.0744(4) 1.0000
C3E C 0.9446(3) -0.2073(2) 0.9956(4)
C4E C 0.9019(3) -0.2459(4) 0.8825(3)
H1E H 0.8913 -0.2053 0.8101
C5E C 0.8749(4) -0.3452(4) 0.8777(4)
H2E H 0.8462 -0.3710 0.8020
C6E C 0.8906(4) -0.4058(3) 0.9859(6)
H3E H 0.8734 -0.4723 0.9804
C7E C 0.9334(3) -0.3672(3) 1.0990(5)
H4E H 0.9440 -0.4078 1.1715
C8E C 0.9604(3) -0.2680(3) 1.1039(3)
H5E H 0.9891 -0.2421 1.1796
C9B C 1.1509(4) -0.1509(4) 1.0000
C10E C 1.2201(5) -0.1590(5) 1.1039(6)
H6E H 1.2171 -0.1149 1.1739
C11E C 1.2922(6) -0.2320(6) 1.1024(8)
H7E H 1.3372 -0.2364 1.1712
C12B C 1.2976(5) -0.2976(5) 1.0000
H8B H 1.3463 -0.3463 1.0000
C1G C 1.0271(5) 0.1007(4) 0.9984(6)
C3G C 1.0554(3) 0.2073(2) 0.9956(4)
C4G C 1.0981(3) 0.2459(4) 0.8825(3)
H1G H 1.1087 0.2053 0.8101
C5G C 1.1251(4) 0.3452(4) 0.8777(4)
H2G H 1.1538 0.3710 0.8020
C6G C 1.1094(4) 0.4058(3) 0.9859(6)
H3G H 1.1266 0.4723 0.9804
C7G C 1.0666(3) 0.3672(3) 1.0990(5)
H4G H 1.0560 0.4078 1.1715
C8G C 1.0396(3) 0.2680(3) 1.1039(3)
H5G H 1.0109 0.2421 1.1796
C10G C 0.7799(5) 0.1590(5) 1.1039(6)
H6G H 0.7829 0.1149 1.1739
C11G C 0.7078(6) 0.2320(6) 1.1024(8)
H7G H 0.6628 0.2364 1.1712
C1B C 1.1007(4) 0.0271(5) 1.0016(6)
C3B C 1.2073(2) 0.0554(3) 1.0044(4)
C4B C 1.2459(4) 0.0981(3) 1.1175(3)
H1B H 1.2053 0.1087 1.1899
C5B C 1.3452(4) 0.1251(4) 1.1223(4)
H2B H 1.3710 0.1538 1.1980
C6B C 1.4058(3) 0.1094(4) 1.0141(6)
H3B H 1.4723 0.1266 1.0196
C7B C 1.3672(3) 0.0666(3) 0.9010(5)
H4B H 1.4078 0.0560 0.8285
C8B C 1.2680(3) 0.0396(3) 0.8961(3)
H5B H 1.2421 0.0109 0.8204
C10B C 1.1590(5) -0.2201(5) 0.8961(6)
H6B H 1.1149 -0.2171 0.8261
C11B C 1.2320(6) -0.2922(6) 0.8976(8)
H7B H 1.2364 -0.3372 0.8288
Br1? Br 0.48248(16) -0.15804(19) 1.0094(3)
C13? C 0.3798(10) 0.3798(10) 0.0000
H9? H 0.3630 0.3660 -0.0889
H10? H 0.4041 0.3249 0.0444
H11? H 0.3220 0.4070 0.0444
C14? C 0.4585(8) 0.4585(8) 0.0000
C15? C 0.5000 0.5000 0.1130(9)
H12? H 0.4766 0.4743 0.1953
C16? C 0.5697(13) 0.5721(13) 0.1121(15)
H13? H 0.5922 0.5990 0.1941
C17? C 0.6099(10) 0.6099(10) 0.0000
H14? H 0.6578 0.6593 0.0182
loop_
_geom_bond_atom_site_label_1
_geom_bond_atom_site_label_2
_geom_bond_site_symmetry_1
_geom_bond_site_symmetry_2
C1 C2 1_555 1_555
C2 C9 1_555 1_555
C3 C1 1_555 1_555
C4 C3 1_555 1_555
H1 C4 1_555 1_555
C5 C4 1_555 1_555
H2 C5 1_555 1_555
C6 C5 1_555 1_555
H3 C6 1_555 1_555
C7 C6 1_555 1_555
H4 C7 1_555 1_555
C8 C3 1_555 1_555
H5 C8 1_555 1_555
C9 C10 1_555 1_555
C10 H6 1_555 1_555
C11 C10 1_555 1_555
H7 C11 1_555 1_555
C12 C11 1_555 1_555
H8 C12 1_555 1_555
C1E C1 1_555 1_555
C2B C1E 1_555 1_555
C3E C1E 1_555 1_555
C4E C3E 1_555 1_555
H1E C4E 1_555 1_555
C5E C4E 1_555 1_555
H2E C5E 1_555 1_555
C6E C5E 1_555 1_555
H3E C6E 1_555 1_555
C7E C6E 1_555 1_555
H4E C7E 1_555 1_555
C8E C3E 1_555 1_555
H5E C8E 1_555 1_555
C9B C2B 1_555 1_555
C10E C9B 1_555 1_555
H6E C10E 1_555 1_555
C11E C10E 1_555 1_555
H7E C11E 1_555 1_555
C12B C11E 1_555 1_555
H8B C12B 1_555 1_555
C1G C2 1_555 1_555
C3G C1G 1_555 1_555
C4G C3G 1_555 1_555
H1G C4G 1_555 1_555
C5G C4G 1_555 1_555
H2G C5G 1_555 1_555
C6G C5G 1_555 1_555
H3G C6G 1_555 1_555
C7G C6G 1_555 1_555
H4G C7G 1_555 1_555
C8G C3G 1_555 1_555
H5G C8G 1_555 1_555
C10G C9 1_555 1_555
H6G C10G 1_555 1_555
C11G C12 1_555 1_555
H7G C11G 1_555 1_555
C1B C2B 1_555 1_555
C3B C1B 1_555 1_555
C4B C3B 1_555 1_555
H1B C4B 1_555 1_555
C5B C4B 1_555 1_555
H2B C5B 1_555 1_555
C6B C5B 1_555 1_555
H3B C6B 1_555 1_555
C7B C6B 1_555 1_555
H4B C7B 1_555 1_555
C8B C3B 1_555 1_555
H5B C8B 1_555 1_555
C10B C9B 1_555 1_555
H6B C10B 1_555 1_555
C11B C12B 1_555 1_555
H7B C11B 1_555 1_555
C7 C8 1_555 1_555
C7E C8E 1_555 1_555
C1G C1B 1_555 1_555
C7G C8G 1_555 1_555
C10G C11G 1_555 1_555
C7B C8B 1_555 1_555
C10B C11B 1_555 1_555

#END
