
#######################################################################
#
#                 Cambridge Crystallographic Data Centre
#                                CCDC 
#
#######################################################################
#
# If this CIF has been generated from an entry in the Cambridge 
# Structural Database, then it will include bibliographic, chemical, 
# crystal, experimental, refinement or atomic coordinate data resulting 
# from the CCDC's data processing and validation procedures.
#
#######################################################################

data_XUPZEP
_chemical_formula_moiety         'C42 H28 Br2'
_chemical_name_systematic        
1,4-bis(4-bromophenyl)-2,3,5,6-tetraphenylbenzene
_symmetry_cell_setting           orthorhombic
_symmetry_space_group_name_H-M   'P c c n'
_symmetry_Int_Tables_number      56
_space_group_name_Hall           '-P 2ab 2ac'
loop_
_symmetry_equiv_pos_site_id
_symmetry_equiv_pos_as_xyz
1 x,y,z
2 1/2+x,-y,1/2-z
3 -x,1/2+y,1/2-z
4 1/2-x,1/2-y,z
5 -x,-y,-z
6 1/2-x,y,1/2+z
7 x,1/2-y,1/2+z
8 1/2+x,1/2+y,-z
_cell_length_a                   22.952(2)
_cell_length_b                   11.3454(11)
_cell_length_c                   12.2080(12)
_cell_angle_alpha                90
_cell_angle_beta                 90
_cell_angle_gamma                90
_cell_volume                     3178.96
_exptl_crystal_description       block
_cell_formula_units_Z            4
loop_
_atom_site_label
_atom_site_type_symbol
_atom_site_fract_x
_atom_site_fract_y
_atom_site_fract_z
Br1 Br 0.195789(8) 0.890578(16) 0.216039(17)
C1 C 0.54457(7) 0.91476(12) 0.00474(11)
C2 C 0.48895(7) 0.88888(12) 0.04693(11)
C3 C 0.44475(7) 0.97417(12) 0.04278(11)
C4 C 0.59271(7) 0.82591(12) 0.00978(12)
C5 C 0.61218(7) 0.76914(14) -0.08445(13)
H1 H 0.5937 0.7847 -0.1526
C6 C 0.65836(8) 0.68982(14) -0.07992(15)
H2 H 0.6712 0.6516 -0.1448
C7 C 0.68574(8) 0.66627(15) 0.01897(15)
H3 H 0.7174 0.6125 0.0219
C8 C 0.66660(8) 0.72170(16) 0.11349(14)
H4 H 0.6850 0.7056 0.1816
C9 C 0.62035(8) 0.80119(15) 0.10859(13)
H5 H 0.6075 0.8390 0.1737
C10 C 0.47521(7) 0.76720(12) 0.08784(12)
C11 C 0.48200(8) 0.73646(14) 0.19738(13)
H6 H 0.4954 0.7934 0.2486
C12 C 0.46927(8) 0.62209(15) 0.23242(14)
H7 H 0.4743 0.6013 0.3072
C13 C 0.44934(7) 0.53938(14) 0.15862(14)
H8 H 0.4410 0.4615 0.1825
C14 C 0.44153(8) 0.56951(15) 0.05000(14)
H9 H 0.4274 0.5127 -0.0006
C15 C 0.45440(8) 0.68325(14) 0.01473(13)
H10 H 0.4489 0.7037 -0.0600
C16 C 0.38544(7) 0.94775(13) 0.08688(12)
C17 C 0.37353(8) 0.95708(15) 0.19864(13)
H11 H 0.4041 0.9752 0.2483
C18 C 0.31721(8) 0.94005(16) 0.23808(14)
H12 H 0.3091 0.9474 0.3141
C19 C 0.27327(7) 0.91237(13) 0.16522(14)
C20 C 0.28394(8) 0.90025(15) 0.05449(14)
H13 H 0.2534 0.8800 0.0054
C21 C 0.34049(7) 0.91845(15) 0.01631(13)
H14 H 0.3483 0.9106 -0.0597
Br1D Br 0.804211(8) 1.109422(16) -0.216039(17)
C1D C 0.45543(7) 1.08524(12) -0.00474(11)
C2D C 0.51105(7) 1.11112(12) -0.04693(11)
C3D C 0.55525(7) 1.02583(12) -0.04278(11)
C4D C 0.40729(7) 1.17409(12) -0.00978(12)
C5D C 0.38782(7) 1.23086(14) 0.08445(13)
H1D H 0.4063 1.2153 0.1526
C6D C 0.34164(8) 1.31018(14) 0.07992(15)
H2D H 0.3288 1.3484 0.1448
C7D C 0.31426(8) 1.33373(15) -0.01897(15)
H3D H 0.2826 1.3875 -0.0219
C8D C 0.33340(8) 1.27830(16) -0.11349(14)
H4D H 0.3150 1.2944 -0.1816
C9D C 0.37965(8) 1.19881(15) -0.10859(13)
H5D H 0.3925 1.1610 -0.1737
C10D C 0.52479(7) 1.23280(12) -0.08784(12)
C11D C 0.51800(8) 1.26354(14) -0.19738(13)
H6D H 0.5046 1.2066 -0.2486
C12D C 0.53073(8) 1.37791(15) -0.23242(14)
H7D H 0.5257 1.3987 -0.3072
C13D C 0.55066(7) 1.46062(14) -0.15862(14)
H8D H 0.5590 1.5385 -0.1825
C14D C 0.55847(8) 1.43049(15) -0.05000(14)
H9D H 0.5726 1.4873 0.0006
C15D C 0.54560(8) 1.31675(14) -0.01473(13)
H10D H 0.5511 1.2963 0.0600
C16D C 0.61456(7) 1.05225(13) -0.08688(12)
C17D C 0.62647(8) 1.04292(15) -0.19864(13)
H11D H 0.5959 1.0248 -0.2483
C18D C 0.68279(8) 1.05995(16) -0.23808(14)
H12D H 0.6909 1.0526 -0.3141
C19D C 0.72673(7) 1.08763(13) -0.16522(14)
C20D C 0.71606(8) 1.09975(15) -0.05449(14)
H13D H 0.7466 1.1200 -0.0054
C21D C 0.65951(7) 1.08155(15) -0.01631(13)
H14D H 0.6517 1.0894 0.0597
loop_
_geom_bond_atom_site_label_1
_geom_bond_atom_site_label_2
_geom_bond_site_symmetry_1
_geom_bond_site_symmetry_2
Br1 C19 1_555 1_555
C1 C2 1_555 1_555
C2 C3 1_555 1_555
C3 C16 1_555 1_555
C4 C1 1_555 1_555
C5 C4 1_555 1_555
H1 C5 1_555 1_555
C6 C5 1_555 1_555
H2 C6 1_555 1_555
C7 C6 1_555 1_555
H3 C7 1_555 1_555
C8 C7 1_555 1_555
H4 C8 1_555 1_555
C9 C4 1_555 1_555
H5 C9 1_555 1_555
C10 C2 1_555 1_555
C11 C10 1_555 1_555
H6 C11 1_555 1_555
C12 C11 1_555 1_555
H7 C12 1_555 1_555
C13 C12 1_555 1_555
H8 C13 1_555 1_555
C14 C13 1_555 1_555
H9 C14 1_555 1_555
C15 C10 1_555 1_555
H10 C15 1_555 1_555
C16 C17 1_555 1_555
C17 H11 1_555 1_555
C18 C17 1_555 1_555
H12 C18 1_555 1_555
C19 C18 1_555 1_555
C20 C19 1_555 1_555
H13 C20 1_555 1_555
C21 C16 1_555 1_555
H14 C21 1_555 1_555
Br1D C19D 1_555 1_555
C1D C3 1_555 1_555
C2D C1D 1_555 1_555
C3D C1 1_555 1_555
C4D C1D 1_555 1_555
C5D C4D 1_555 1_555
H1D C5D 1_555 1_555
C6D C5D 1_555 1_555
H2D C6D 1_555 1_555
C7D C6D 1_555 1_555
H3D C7D 1_555 1_555
C8D C7D 1_555 1_555
H4D C8D 1_555 1_555
C9D C4D 1_555 1_555
H5D C9D 1_555 1_555
C10D C2D 1_555 1_555
C11D C10D 1_555 1_555
H6D C11D 1_555 1_555
C12D C11D 1_555 1_555
H7D C12D 1_555 1_555
C13D C12D 1_555 1_555
H8D C13D 1_555 1_555
C14D C13D 1_555 1_555
H9D C14D 1_555 1_555
C15D C10D 1_555 1_555
H10D C15D 1_555 1_555
C16D C3D 1_555 1_555
C17D C16D 1_555 1_555
H11D C17D 1_555 1_555
C18D C17D 1_555 1_555
H12D C18D 1_555 1_555
C19D C18D 1_555 1_555
C20D C19D 1_555 1_555
H13D C20D 1_555 1_555
C21D C16D 1_555 1_555
H14D C21D 1_555 1_555
C8 C9 1_555 1_555
C14 C15 1_555 1_555
C20 C21 1_555 1_555
C2D C3D 1_555 1_555
C8D C9D 1_555 1_555
C14D C15D 1_555 1_555
C20D C21D 1_555 1_555

#END
