
#######################################################################
#
#                 Cambridge Crystallographic Data Centre
#                                CCDC 
#
#######################################################################
#
# If this CIF has been generated from an entry in the Cambridge 
# Structural Database, then it will include bibliographic, chemical, 
# crystal, experimental, refinement or atomic coordinate data resulting 
# from the CCDC's data processing and validation procedures.
#
#######################################################################

data_XUQMED
_chemical_formula_moiety         'C17 H17 Cl1 O4'
_chemical_name_systematic        
'2-chloro-3-(hydroxymethoxy)-3-phenylpropyl benzoate'
_symmetry_cell_setting           monoclinic
_symmetry_space_group_name_H-M   'P 21'
_symmetry_Int_Tables_number      4
_space_group_name_Hall           'P 2yb'
loop_
_symmetry_equiv_pos_site_id
_symmetry_equiv_pos_as_xyz
1 x,y,z
2 -x,1/2+y,-z
_cell_length_a                   12.049(2)
_cell_length_b                   5.3230(11)
_cell_length_c                   13.632(3)
_cell_angle_alpha                90
_cell_angle_beta                 114.50(3)
_cell_angle_gamma                90
_cell_volume                     795.591
_cell_formula_units_Z            2
loop_
_atom_site_label
_atom_site_type_symbol
_atom_site_fract_x
_atom_site_fract_y
_atom_site_fract_z
Cl1 Cl 1.16828(6) 0.21580(15) 0.95413(6)
O1 O 1.10454(16) 0.7379(4) 0.73063(13)
O2 O 0.91571(17) 0.3982(4) 0.77877(14)
O3 O 0.82719(19) 0.2527(5) 0.88315(16)
C1 C 1.1509(2) 0.5002(6) 0.7860(2)
H1 H 1.1053 0.3606 0.7401
C2 C 1.2843(3) 0.4756(6) 0.8090(2)
C3 C 1.3224(3) 0.2803(6) 0.7642(3)
H2 H 1.2662 0.1638 0.7203
C4 C 1.4446(3) 0.2578(8) 0.7849(3)
H3 H 1.4702 0.1253 0.7549
C5 C 1.5281(3) 0.4287(8) 0.8490(3)
H4 H 1.6100 0.4122 0.8622
C6 C 1.4910(3) 0.6232(8) 0.8933(3)
H5 H 1.5475 0.7397 0.9369
C7 C 1.3696(3) 0.6464(6) 0.8733(2)
H6 H 1.3447 0.7795 0.9036
C8 C 1.0324(13) 0.711(2) 0.6260(6)
H7 H 0.9586 0.8020 0.6157
H8 H 1.0716 0.8086 0.5893
O4 O 0.9975(17) 0.5260(18) 0.5729(6)
C9 C 1.1238(2) 0.5132(5) 0.8857(2)
H9 H 1.1743 0.6456 0.9334
C10 C 0.9925(2) 0.5651(6) 0.8621(2)
H10 H 0.9789 0.5404 0.9267
H11 H 0.9727 0.7380 0.8389
C11 C 0.8376(2) 0.2509(7) 0.7990(2)
C12 C 0.7673(2) 0.0854(6) 0.7070(2)
C13 C 0.7738(3) 0.1041(7) 0.6084(2)
H12 H 0.8238 0.2241 0.5979
C14 C 0.7050(4) -0.0576(9) 0.5250(3)
H13 H 0.7094 -0.0465 0.4586
C15 C 0.6312(3) -0.2326(8) 0.5409(3)
H14 H 0.5850 -0.3394 0.4848
C16 C 0.6245(3) -0.2524(8) 0.6382(3)
H15 H 0.5742 -0.3727 0.6484
C17 C 0.6920(3) -0.0948(6) 0.7208(3)
H16 H 0.6872 -0.1087 0.7869
C18? C 1.0693(14) 0.755(2) 0.6240(6)
H17? H 0.9854 0.8128 0.5926
H18? H 1.1181 0.8856 0.6111
O5? O 1.0754(13) 0.570(2) 0.5751(5)
loop_
_geom_bond_atom_site_label_1
_geom_bond_atom_site_label_2
_geom_bond_site_symmetry_1
_geom_bond_site_symmetry_2
Cl1 C9 1_555 1_555
O1 C1 1_555 1_555
O2 C10 1_555 1_555
O3 C11 1_555 1_555
C1 H1 1_555 1_555
C2 C1 1_555 1_555
C3 C2 1_555 1_555
H2 C3 1_555 1_555
C4 C3 1_555 1_555
H3 C4 1_555 1_555
C5 C4 1_555 1_555
H4 C5 1_555 1_555
C6 C5 1_555 1_555
H5 C6 1_555 1_555
C7 C2 1_555 1_555
H6 C7 1_555 1_555
C8 O1 1_555 1_555
H7 C8 1_555 1_555
H8 C8 1_555 1_555
O4 C8 1_555 1_555
C9 C1 1_555 1_555
H9 C9 1_555 1_555
C10 C9 1_555 1_555
H10 C10 1_555 1_555
H11 C10 1_555 1_555
C11 O2 1_555 1_555
C12 C11 1_555 1_555
C13 C12 1_555 1_555
H12 C13 1_555 1_555
C14 C13 1_555 1_555
H13 C14 1_555 1_555
C15 C14 1_555 1_555
H14 C15 1_555 1_555
C16 C15 1_555 1_555
H15 C16 1_555 1_555
C17 C12 1_555 1_555
H16 C17 1_555 1_555
C6 C7 1_555 1_555
C16 C17 1_555 1_555

#END
