
#######################################################################
#
#                 Cambridge Crystallographic Data Centre
#                                CCDC 
#
#######################################################################
#
# If this CIF has been generated from an entry in the Cambridge 
# Structural Database, then it will include bibliographic, chemical, 
# crystal, experimental, refinement or atomic coordinate data resulting 
# from the CCDC's data processing and validation procedures.
#
#######################################################################

data_XUQMUT
_chemical_formula_moiety         'C18 H25 N1 O6'
_chemical_name_systematic        
'dimethyl 2-((1-(benzyloxy)-3-methylbutan-2-yl)(oxido)azanylidene)succinate'
_symmetry_cell_setting           triclinic
_symmetry_space_group_name_H-M   'P 1'
_symmetry_Int_Tables_number      1
_space_group_name_Hall           'P 1'
loop_
_symmetry_equiv_pos_site_id
_symmetry_equiv_pos_as_xyz
1 x,y,z
_cell_length_a                   6.5131(13)
_cell_length_b                   7.9315(16)
_cell_length_c                   9.954(2)
_cell_angle_alpha                90.89(3)
_cell_angle_beta                 94.28(3)
_cell_angle_gamma                112.44(3)
_cell_volume                     473.408
_exptl_crystal_colour            colorless
_exptl_crystal_description       block
_cell_formula_units_Z            1
loop_
_atom_site_label
_atom_site_type_symbol
_atom_site_fract_x
_atom_site_fract_y
_atom_site_fract_z
O1 O 1.0332(4) 0.8171(4) 0.5207(3)
O2 O 0.5071(4) 0.3533(4) 0.7110(3)
N1 N 0.8272(4) 0.7197(4) 0.5208(3)
O3 O 0.3627(4) 0.4590(5) 0.5387(3)
C1 C 0.7595(5) 0.5792(5) 0.5980(3)
C2 C 0.5222(5) 0.4639(5) 0.6086(3)
O4 O 0.7429(7) 0.5847(5) 0.2650(3)
O5 O 0.9933(6) 0.7770(5) 0.8427(3)
C3 C 0.9411(5) 0.5401(5) 0.6742(4)
H1 H 1.0487 0.5386 0.6123
H2 H 0.8779 0.4192 0.7093
O6 O 1.2527(5) 0.6590(5) 0.8264(4)
C4 C 1.0608(6) 0.6751(5) 0.7892(4)
C5 C 0.2854(8) 0.2267(7) 0.7300(7)
H3 H 0.2177 0.1589 0.6467
H4 H 0.1980 0.2927 0.7580
H5 H 0.2925 0.1441 0.7980
C6 C 0.6780(6) 0.7789(5) 0.4272(4)
H6 H 0.5228 0.6955 0.4325
C7 C 0.7036(7) 0.9730(6) 0.4709(5)
H7 H 0.8592 1.0551 0.4649
C8 C 0.7440(13) 0.7616(10) 0.2866(5)
H8 H 0.6397 0.7818 0.2203
H9 H 0.8916 0.8526 0.2769
C9 C 0.8926(9) 0.4163(7) 0.1290(4)
C10 C 0.9449(11) 0.1656(8) 0.0142(7)
H10 H 0.9087 0.0798 -0.0575
C11 C 0.5562(11) 1.0381(9) 0.3782(7)
H11 H 0.6039 1.0463 0.2888
H12 H 0.5672 1.1561 0.4106
H13 H 0.4043 0.9531 0.3767
C12 C 1.0530(9) 0.4179(8) 0.2248(5)
H14 H 1.0924 0.5016 0.2980
C13 C 0.6498(10) 0.9789(7) 0.6159(6)
H15 H 0.4953 0.9051 0.6226
H16 H 0.6793 1.1027 0.6447
H17 H 0.7406 0.9328 0.6723
C14 C 1.1564(11) 0.3000(10) 0.2154(7)
H18 H 1.2659 0.3042 0.2824
C15 C 0.7747(12) 0.5437(9) 0.1312(5)
H19 H 0.8612 0.6557 0.0897
H20 H 0.6312 0.4889 0.0793
C16 C 1.1042(12) 0.1761(9) 0.1110(7)
H21 H 1.1794 0.0976 0.1062
C17 C 0.8316(9) 0.2864(10) 0.0219(5)
H22 H 0.7184 0.2791 -0.0435
C18 C 1.3820(12) 0.7698(13) 0.9415(7)
H23 H 1.4102 0.8958 0.9267
H24 H 1.5212 0.7544 0.9550
H25 H 1.3013 0.7336 1.0200
loop_
_geom_bond_atom_site_label_1
_geom_bond_atom_site_label_2
_geom_bond_site_symmetry_1
_geom_bond_site_symmetry_2
O1 N1 1_555 1_555
O2 C2 1_555 1_555
N1 C1 1_555 1_555
O3 C2 1_555 1_555
C1 C2 1_555 1_555
O4 C8 1_555 1_555
O5 C4 1_555 1_555
C3 C1 1_555 1_555
H1 C3 1_555 1_555
H2 C3 1_555 1_555
O6 C4 1_555 1_555
C4 C3 1_555 1_555
C5 O2 1_555 1_555
H3 C5 1_555 1_555
H4 C5 1_555 1_555
H5 C5 1_555 1_555
C6 N1 1_555 1_555
H6 C6 1_555 1_555
C7 C6 1_555 1_555
H7 C7 1_555 1_555
C8 C6 1_555 1_555
H8 C8 1_555 1_555
H9 C8 1_555 1_555
C9 C12 1_555 1_555
C10 H10 1_555 1_555
C11 C7 1_555 1_555
H11 C11 1_555 1_555
H12 C11 1_555 1_555
H13 C11 1_555 1_555
C12 H14 1_555 1_555
C13 C7 1_555 1_555
H15 C13 1_555 1_555
H16 C13 1_555 1_555
H17 C13 1_555 1_555
C14 C12 1_555 1_555
H18 C14 1_555 1_555
C15 O4 1_555 1_555
H19 C15 1_555 1_555
H20 C15 1_555 1_555
C16 C10 1_555 1_555
H21 C16 1_555 1_555
C17 C9 1_555 1_555
H22 C17 1_555 1_555
C18 O6 1_555 1_555
H23 C18 1_555 1_555
H24 C18 1_555 1_555
H25 C18 1_555 1_555
C9 C15 1_555 1_555
C10 C17 1_555 1_555
C14 C16 1_555 1_555

#END
