
#######################################################################
#
#                 Cambridge Crystallographic Data Centre
#                                CCDC 
#
#######################################################################
#
# If this CIF has been generated from an entry in the Cambridge 
# Structural Database, then it will include bibliographic, chemical, 
# crystal, experimental, refinement or atomic coordinate data resulting 
# from the CCDC's data processing and validation procedures.
#
#######################################################################

data_XUQMIH
_chemical_formula_moiety         'C17 H16 Cl1 N1 O3'
_chemical_name_systematic        
'2-chloro-3-(methyl(phenyl)amino)-3-oxo-1-phenylpropyl formate'
_symmetry_cell_setting           orthorhombic
_symmetry_space_group_name_H-M   'P 21 21 21'
_symmetry_Int_Tables_number      19
_space_group_name_Hall           'P 2ac 2ab'
loop_
_symmetry_equiv_pos_site_id
_symmetry_equiv_pos_as_xyz
1 x,y,z
2 1/2-x,-y,1/2+z
3 -x,1/2+y,1/2-z
4 1/2+x,1/2-y,-z
_cell_length_a                   7.799(4)
_cell_length_b                   10.222(5)
_cell_length_c                   20.921(10)
_cell_angle_alpha                90
_cell_angle_beta                 90
_cell_angle_gamma                90
_cell_volume                     1667.85
_exptl_crystal_colour            colorless
_exptl_crystal_description       BLOCK
_cell_formula_units_Z            4
loop_
_atom_site_label
_atom_site_type_symbol
_atom_site_fract_x
_atom_site_fract_y
_atom_site_fract_z
C1 C 0.5906(3) 0.7929(2) 0.15982(11)
H1 H 0.6127 0.7680 0.2018
C2 C 0.7256(3) 0.8170(3) 0.11867(15)
H2 H 0.8380 0.8081 0.1329
C3 C 0.6935(4) 0.8541(3) 0.05656(14)
H3 H 0.7845 0.8691 0.0288
C4 C 0.5293(5) 0.8691(3) 0.03560(11)
H4 H 0.5088 0.8956 -0.0062
C5 C 0.3916(3) 0.8449(2) 0.07662(9)
H5 H 0.2795 0.8551 0.0622
C6 C 0.4233(2) 0.80550(17) 0.13923(8)
C7 C 0.2747(2) 0.77422(16) 0.18245(7)
H6 H 0.1669 0.7872 0.1592
C8 C 0.2692(2) 0.84967(17) 0.24526(8)
H7 H 0.3745 0.8343 0.2697
C9 C 0.1131(2) 0.80508(19) 0.28379(8)
C10 C -0.0063(3) 0.7304(4) 0.38356(11)
H8 H -0.1063 0.7256 0.3569
H9 H -0.0271 0.7898 0.4182
H10 H 0.0191 0.6451 0.4003
C11 C 0.2937(2) 0.80654(19) 0.38015(7)
C12 C 0.3220(3) 0.9331(2) 0.40039(10)
H11 H 0.2432 0.9986 0.3909
C13 C 0.4684(3) 0.9617(3) 0.43487(11)
H12 H 0.4900 1.0473 0.4476
C14 C 0.5817(3) 0.8646(3) 0.45031(10)
H13 H 0.6791 0.8845 0.4740
C15 C 0.5527(3) 0.7379(3) 0.43110(12)
H14 H 0.6300 0.6723 0.4419
C16 C 0.4076(3) 0.7085(2) 0.39554(10)
H15 H 0.3874 0.6232 0.3822
C17 C 0.1948(3) 0.5503(2) 0.17109(11)
H16 H 0.1991 0.4643 0.1854
Cl1 Cl 0.24502(11) 1.01920(5) 0.22920(3)
N1 N 0.1388(2) 0.77685(19) 0.34585(7)
O1 O -0.02613(17) 0.79343(16) 0.25779(7)
O2 O 0.1084(3) 0.5720(2) 0.12557(10)
O3 O 0.28671(18) 0.63877(13) 0.20358(6)
loop_
_geom_bond_atom_site_label_1
_geom_bond_atom_site_label_2
_geom_bond_site_symmetry_1
_geom_bond_site_symmetry_2
C1 H1 1_555 1_555
C2 C1 1_555 1_555
H2 C2 1_555 1_555
C3 C2 1_555 1_555
H3 C3 1_555 1_555
C4 C3 1_555 1_555
H4 C4 1_555 1_555
C5 C4 1_555 1_555
H5 C5 1_555 1_555
C6 C1 1_555 1_555
C7 C6 1_555 1_555
H6 C7 1_555 1_555
C8 C7 1_555 1_555
H7 C8 1_555 1_555
C9 C8 1_555 1_555
C10 H8 1_555 1_555
H9 C10 1_555 1_555
H10 C10 1_555 1_555
C11 C12 1_555 1_555
C12 H11 1_555 1_555
C13 C12 1_555 1_555
H12 C13 1_555 1_555
C14 C13 1_555 1_555
H13 C14 1_555 1_555
C15 C14 1_555 1_555
H14 C15 1_555 1_555
C16 C11 1_555 1_555
H15 C16 1_555 1_555
C17 H16 1_555 1_555
Cl1 C8 1_555 1_555
N1 C9 1_555 1_555
O1 C9 1_555 1_555
O2 C17 1_555 1_555
O3 C7 1_555 1_555
C5 C6 1_555 1_555
C10 N1 1_555 1_555
C11 N1 1_555 1_555
C15 C16 1_555 1_555
C17 O3 1_555 1_555

#END
