
#######################################################################
#
#                 Cambridge Crystallographic Data Centre
#                                CCDC 
#
#######################################################################
#
# If this CIF has been generated from an entry in the Cambridge 
# Structural Database, then it will include bibliographic, chemical, 
# crystal, experimental, refinement or atomic coordinate data resulting 
# from the CCDC's data processing and validation procedures.
#
#######################################################################

data_XUQMON
_chemical_formula_moiety         'C23 H35 N1 O5'
_chemical_name_systematic        
'dimethyl 2-(oxido(1-(2,4,6-triisopropylphenyl)ethyl)azanylidene)succinate'
_symmetry_cell_setting           monoclinic
_symmetry_space_group_name_H-M   'P 21'
_symmetry_Int_Tables_number      4
_space_group_name_Hall           'P 2yb'
loop_
_symmetry_equiv_pos_site_id
_symmetry_equiv_pos_as_xyz
1 x,y,z
2 -x,1/2+y,-z
_cell_length_a                   15.553(5)
_cell_length_b                   9.326(5)
_cell_length_c                   32.444(5)
_cell_angle_alpha                90
_cell_angle_beta                 94.255(5)
_cell_angle_gamma                90
_cell_volume                     4692.94
_exptl_crystal_colour            colorless
_exptl_crystal_description       plate
_cell_formula_units_Z            8
loop_
_atom_site_label
_atom_site_type_symbol
_atom_site_fract_x
_atom_site_fract_y
_atom_site_fract_z
O1 O 0.3433(2) 0.3671(5) 0.03837(12)
O2 O 0.4858(3) 0.8660(5) 0.07181(14)
O3 O 0.4372(3) 0.3993(5) 0.09288(14)
O4 O 0.2193(3) 0.7228(5) 0.08436(13)
O5 O 0.4656(3) 0.6751(5) 0.03179(13)
N1 N 0.2504(3) 0.5989(5) 0.07839(13)
C1 C 0.3347(3) 0.5741(7) 0.08059(16)
C2 C 0.1965(3) 0.2099(7) 0.08210(16)
C3 C 0.2498(4) -0.0219(7) 0.17725(18)
H1 H 0.2338 -0.1093 0.1605
C4 C 0.1861(3) 0.4783(7) 0.07030(18)
H2 H 0.190(4) 0.462(5) 0.0411(19)
C5 C 0.1999(3) 0.3493(6) 0.09936(15)
C6 C 0.1751(5) 0.1798(8) 0.03684(18)
H3 H 0.186(5) 0.248(6) 0.022(2)
C7 C 0.2149(3) 0.3660(6) 0.14194(16)
C8 C 0.2283(3) 0.1079(6) 0.15045(17)
C9 C 0.2165(4) 0.5091(7) 0.16425(17)
H4 H 0.2051 0.5858 0.1430
C10 C 0.3931(4) 0.6936(7) 0.09427(18)
H5 H 0.4293 0.6631 0.1191
H6 H 0.3579 0.7764 0.1022
C11 C 0.3460(4) -0.0270(9) 0.1883(2)
H7 H 0.3764 -0.0314 0.1629
H8 H 0.3600 -0.1122 0.2052
H9 H 0.3638 0.0593 0.2039
C12 C 0.4510(3) 0.7407(7) 0.06138(18)
C13 C 0.1457(5) 0.5192(8) 0.1952(2)
H10 H 0.0894 0.4982 0.1808
H11 H 0.1451 0.6161 0.2068
H12 H 0.1576 0.4495 0.2175
C14 C 0.3049(5) 0.5389(8) 0.1867(2)
H13 H 0.3159 0.4693 0.2091
H14 H 0.3057 0.6361 0.1982
H15 H 0.3497 0.5304 0.1671
C15 C 0.2285(4) 0.2454(6) 0.16642(17)
H16 H 0.2385 0.2577 0.1955
C16 C 0.2117(3) 0.0940(6) 0.10852(17)
H17 H 0.2105 0.0004 0.0970
C17 C 0.2295(6) 0.0591(9) 0.0200(2)
H18 H 0.2152 -0.0318 0.0330
H19 H 0.2908 0.0803 0.0263
H20 H 0.2173 0.0518 -0.0100
C18 C 0.2007(4) -0.0268(8) 0.2163(2)
H21 H 0.2158 0.0572 0.2335
H22 H 0.2162 -0.1143 0.2319
H23 H 0.1385 -0.0266 0.2086
C19 C 0.0942(4) 0.5368(8) 0.0698(2)
H24 H 0.0872 0.6159 0.0500
H25 H 0.0834 0.5717 0.0975
H26 H 0.0531 0.4603 0.0618
C20 C 0.5453(5) 0.9237(9) 0.0438(3)
H27 H 0.5129 0.9648 0.0196
H28 H 0.5828 0.8468 0.0350
H29 H 0.5806 0.9985 0.0579
C21 C 0.3696(3) 0.4354(7) 0.06734(18)
C22 C 0.0791(6) 0.1433(12) 0.0291(3)
H30 H 0.0647 0.1319 -0.0006
H31 H 0.0444 0.2209 0.0397
H32 H 0.0668 0.0537 0.0434
C23 C 0.4784(5) 0.2661(9) 0.0827(3)
H33 H 0.4949 0.2703 0.0541
H34 H 0.4381 0.1864 0.0855
H35 H 0.5299 0.2513 0.1015
O6 O 0.8300(2) 0.3462(5) 0.56500(13)
O7 O 0.9756(3) -0.0164(5) 0.59837(13)
O8 O 0.7941(3) 0.3348(5) 0.63029(14)
O9 O 0.7708(2) -0.0195(5) 0.55236(13)
N2 N 0.9472(3) 0.1130(5) 0.59648(13)
O10 O 0.7500(4) -0.1928(6) 0.59738(18)
C24 C 1.1217(4) 0.1991(8) 0.70254(19)
H36 H 1.1279 0.1057 0.7163
H37 H 1.1269 0.2755 0.7233
H38 H 1.1669 0.2103 0.6833
C25 C 1.0195(4) 0.6094(7) 0.66172(18)
C26 C 1.0102(3) 0.2288(7) 0.58456(17)
H39 H 0.986(4) 0.245(5) 0.5560(18)
C27 C 1.0223(3) 0.3484(6) 0.65553(16)
C28 C 1.0119(3) 0.3606(6) 0.61220(15)
C29 C 1.0331(4) 0.2081(7) 0.67868(16)
H40 H 1.0289 0.1285 0.6580
C30 C 0.9940(4) 0.5232(8) 0.54762(18)
H41 H 0.973(4) 0.456(6) 0.535(2)
C31 C 0.9608(4) 0.1869(7) 0.70841(18)
H42 H 0.9653 0.0907 0.7205
H43 H 0.9045 0.1978 0.6931
H44 H 0.9668 0.2588 0.7305
C32 C 0.8300(3) 0.2846(6) 0.59730(19)
C33 C 0.8170(4) 0.0234(7) 0.62168(18)
H45 H 0.7707 0.0647 0.6373
H46 H 0.8552 -0.0330 0.6413
C34 C 0.8680(3) 0.1428(6) 0.60549(16)
C35 C 0.9369(5) 0.6516(8) 0.5358(2)
H47 H 0.8834 0.6450 0.5499
H48 H 0.9233 0.6522 0.5058
H49 H 0.9673 0.7402 0.5442
C36 C 1.0251(3) 0.4728(7) 0.67896(17)
H50 H 1.0311 0.4644 0.7082
C37 C 1.0990(4) 0.1618(7) 0.58309(19)
H51 H 1.1388 0.2323 0.5726
H52 H 1.0954 0.0782 0.5648
H53 H 1.1203 0.1318 0.6110
C38 C 0.9420(6) 0.7476(10) 0.7127(3)
H54 H 0.9400 0.6620 0.7302
H55 H 0.8902 0.7512 0.6936
H56 H 0.9445 0.8335 0.7302
C39 C 1.0040(3) 0.4971(6) 0.59361(16)
C40 C 0.7297(4) -0.1039(9) 0.5197(2)
H57 H 0.6733 -0.1361 0.5277
H58 H 0.7656 -0.1874 0.5146
H59 H 0.7220 -0.0458 0.4945
C41 C 1.1040(6) 0.7530(10) 0.7150(3)
H60 H 1.1095 0.6703 0.7336
H61 H 1.1037 0.8415 0.7312
H62 H 1.1528 0.7546 0.6975
C42 C 0.7584(5) 0.4779(8) 0.6269(3)
H63 H 0.7314 0.5020 0.6523
H64 H 0.7151 0.4821 0.6034
H65 H 0.8046 0.5467 0.6226
C43 C 1.0215(5) 0.7416(8) 0.6882(2)
H66 H 1.0188 0.8262 0.6692
C44 C 1.0099(3) 0.6177(6) 0.61949(18)
H67 H 1.0072 0.7100 0.6071
C45 C 1.0807(5) 0.5364(10) 0.5295(2)
H68 H 1.1106 0.6219 0.5408
H69 H 1.0721 0.5447 0.4994
H70 H 1.1155 0.4511 0.5367
C46 C 0.7770(4) -0.0761(7) 0.5897(2)
O11 O 0.3329(2) 0.3607(6) 0.57505(14)
O12 O 0.4746(2) -0.0084(5) 0.60377(13)
O13 O 0.2951(3) 0.3406(5) 0.63960(14)
O14 O 0.2747(3) -0.0163(6) 0.56254(15)
N3 N 0.4476(3) 0.1208(5) 0.60197(14)
C47 C 0.5445(4) 0.6188(7) 0.66053(18)
C48 C 0.5495(4) 0.4834(7) 0.67845(16)
H71 H 0.5613 0.4767 0.7075
C49 C 0.5089(3) 0.2322(7) 0.58660(16)
H72 H 0.487(4) 0.247(5) 0.5594(17)
C50 C 0.4936(4) 0.5251(7) 0.54797(18)
H73 H 0.472(4) 0.453(6) 0.534(2)
C51 C 0.3708(3) 0.1528(6) 0.61381(17)
C52 C 0.5599(6) 0.7551(8) 0.6852(2)
H74 H 0.5467 0.8376 0.6661
C53 C 0.5955(3) 0.1605(7) 0.58147(17)
H75 H 0.6213 0.1306 0.6086
H76 H 0.6340 0.2285 0.5690
H77 H 0.5869 0.0764 0.5635
C54 C 0.5492(4) 0.2172(7) 0.67993(16)
H78 H 0.5404 0.1361 0.6599
C55 C 0.6403(4) 0.2063(8) 0.70094(19)
H79 H 0.6496 0.2840 0.7211
H80 H 0.6825 0.2141 0.6801
H81 H 0.6472 0.1137 0.7151
C56 C 0.5120(3) 0.5023(7) 0.59427(16)
C57 C 0.4811(5) 0.2054(8) 0.7119(2)
H82 H 0.4851 0.1109 0.7251
H83 H 0.4234 0.2177 0.6981
H84 H 0.4914 0.2801 0.7330
C58 C 0.5197(3) 0.3663(6) 0.61348(14)
O15 O 0.2583(4) -0.1868(6) 0.6083(3)
C59 C 0.5382(3) 0.3583(7) 0.65600(15)
C60 C 0.3227(4) 0.0339(7) 0.6315(2)
H85 H 0.2765 0.0748 0.6473
H86 H 0.3623 -0.0200 0.6511
C61 C 0.3320(3) 0.2966(7) 0.6066(2)
C62 C 0.5772(5) 0.5348(10) 0.5262(2)
H87 H 0.6090 0.6211 0.5354
H88 H 0.5636 0.5397 0.4962
H89 H 0.6127 0.4499 0.5329
C63 C 0.2827(4) -0.0691(8) 0.5998(3)
C64 C 0.4374(5) 0.6568(8) 0.5377(2)
H90 H 0.3868 0.6544 0.5539
H91 H 0.4187 0.6563 0.5082
H92 H 0.4708 0.7440 0.5443
C65 C 0.5260(4) 0.6245(6) 0.61841(18)
H93 H 0.5227 0.7156 0.6053
C66 C 0.2552(5) 0.4818(9) 0.6365(3)
H94 H 0.2289 0.5040 0.6622
H95 H 0.2107 0.4826 0.6134
H96 H 0.2991 0.5539 0.6316
C67 C 0.6548(7) 0.7663(10) 0.7008(3)
H97 H 0.6697 0.6868 0.7197
H98 H 0.6648 0.8576 0.7153
H99 H 0.6908 0.7617 0.6773
C68 C 0.2335(5) -0.1049(10) 0.5304(3)
H100 H 0.1765 -0.1344 0.5383
H101 H 0.2689 -0.1902 0.5265
H102 H 0.2272 -0.0505 0.5045
C69 C 0.5009(9) 0.7665(11) 0.7200(3)
H103 H 0.5131 0.6877 0.7395
H104 H 0.4408 0.7607 0.7087
H105 H 0.5106 0.8583 0.7342
O16 O 0.7730(3) 0.7276(5) 0.12975(14)
O17 O 0.9811(3) 0.7573(5) 0.13266(14)
O18 O 0.9334(3) 0.3520(6) 0.17768(14)
O19 O 0.9222(2) 0.3736(5) 0.10909(13)
N4 N 0.7990(3) 0.5989(6) 0.12721(14)
C70 C 0.6608(3) 0.4946(7) 0.18108(16)
H106 H 0.6799 0.5794 0.1653
O20 O 0.9657(4) 0.8849(6) 0.18976(17)
C71 C 0.6880(4) 0.1001(6) 0.16057(19)
C72 C 0.7238(3) 0.3575(7) 0.12060(15)
C73 C 0.7434(3) 0.2252(7) 0.10208(17)
C74 C 0.6852(3) 0.3608(7) 0.15858(16)
C75 C 0.7455(4) 0.4972(7) 0.09891(17)
H107 H 0.779(4) 0.487(6) 0.0758(18)
C76 C 0.7033(4) 0.5029(8) 0.22476(18)
H108 H 0.6791 0.4286 0.2419
H109 H 0.6927 0.5975 0.2365
H110 H 0.7656 0.4879 0.2241
C77 C 0.7246(3) 0.0991(7) 0.12286(19)
H111 H 0.7374 0.0096 0.1107
C78 C 1.0318(5) 0.8711(9) 0.1165(3)
H112 H 1.0557 0.8389 0.0910
H113 H 1.0790 0.8963 0.1369
H114 H 0.9952 0.9553 0.1107
C79 C 0.8662(4) 0.5553(7) 0.15071(17)
C80 C 0.6704(4) -0.0383(7) 0.1829(2)
H115 H 0.6934 -0.1187 0.1665
C81 C 0.6679(4) 0.5766(8) 0.08008(19)
H116 H 0.6868 0.6587 0.0642
H117 H 0.6330 0.6106 0.1021
H118 H 0.6332 0.5121 0.0617
C82 C 0.7807(4) 0.2134(8) 0.06005(18)
H119 H 0.816(4) 0.285(6) 0.0577(19)
C83 C 0.6689(3) 0.2306(6) 0.17728(17)
H120 H 0.6433 0.2319 0.2030
C84 C 0.8365(5) 0.0811(9) 0.0560(2)
H121 H 0.8650 0.0860 0.0300
H122 H 0.8004 -0.0050 0.0560
H123 H 0.8803 0.0769 0.0793
C85 C 0.7147(6) -0.0444(10) 0.2250(3)
H124 H 0.7764 -0.0266 0.2234
H125 H 0.7063 -0.1395 0.2369
H126 H 0.6904 0.0288 0.2424
C86 C 0.5620(4) 0.5026(8) 0.1824(2)
H127 H 0.5347 0.4907 0.1544
H128 H 0.5460 0.5960 0.1933
H129 H 0.5425 0.4262 0.2002
C87 C 0.9519(4) 0.7808(7) 0.1694(2)
C88 C 0.9011(4) 0.6552(7) 0.1832(2)
H130 H 0.9384 0.5997 0.2035
H131 H 0.8522 0.6924 0.1979
C89 C 0.7096(4) 0.2180(9) 0.02537(18)
H132 H 0.7352 0.2241 -0.0013
H133 H 0.6730 0.3020 0.0289
H134 H 0.6746 0.1307 0.0261
C90 C 0.9092(3) 0.4178(7) 0.14324(19)
C91 C 0.5735(5) -0.0609(10) 0.1839(3)
H135 H 0.5485 0.0193 0.1985
H136 H 0.5627 -0.1507 0.1983
H137 H 0.5470 -0.0657 0.1556
C92 C 0.9757(7) 0.2151(10) 0.1724(3)
H138 H 1.0246 0.2283 0.1554
H139 H 0.9346 0.1475 0.1587
H140 H 0.9964 0.1771 0.1995
loop_
_geom_bond_atom_site_label_1
_geom_bond_atom_site_label_2
_geom_bond_site_symmetry_1
_geom_bond_site_symmetry_2
O1 C21 1_555 1_555
O2 C12 1_555 1_555
O3 C21 1_555 1_555
O4 N1 1_555 1_555
O5 C12 1_555 1_555
N1 C1 1_555 1_555
C1 C10 1_555 1_555
C2 C5 1_555 1_555
C3 H1 1_555 1_555
C4 N1 1_555 1_555
H2 C4 1_555 1_555
C5 C4 1_555 1_555
C6 C2 1_555 1_555
H3 C6 1_555 1_555
C7 C5 1_555 1_555
C8 C3 1_555 1_555
C9 C7 1_555 1_555
H4 C9 1_555 1_555
C10 H5 1_555 1_555
H6 C10 1_555 1_555
C11 C3 1_555 1_555
H7 C11 1_555 1_555
H8 C11 1_555 1_555
H9 C11 1_555 1_555
C12 C10 1_555 1_555
C13 C9 1_555 1_555
H10 C13 1_555 1_555
H11 C13 1_555 1_555
H12 C13 1_555 1_555
C14 C9 1_555 1_555
H13 C14 1_555 1_555
H14 C14 1_555 1_555
H15 C14 1_555 1_555
C15 C7 1_555 1_555
H16 C15 1_555 1_555
C16 C2 1_555 1_555
H17 C16 1_555 1_555
C17 C6 1_555 1_555
H18 C17 1_555 1_555
H19 C17 1_555 1_555
H20 C17 1_555 1_555
C18 C3 1_555 1_555
H21 C18 1_555 1_555
H22 C18 1_555 1_555
H23 C18 1_555 1_555
C19 C4 1_555 1_555
H24 C19 1_555 1_555
H25 C19 1_555 1_555
H26 C19 1_555 1_555
C20 O2 1_555 1_555
H27 C20 1_555 1_555
H28 C20 1_555 1_555
H29 C20 1_555 1_555
C21 C1 1_555 1_555
C22 C6 1_555 1_555
H30 C22 1_555 1_555
H31 C22 1_555 1_555
H32 C22 1_555 1_555
C23 O3 1_555 1_555
H33 C23 1_555 1_555
H34 C23 1_555 1_555
H35 C23 1_555 1_555
O6 C32 1_555 1_555
O7 N2 1_555 1_555
O8 C32 1_555 1_555
O9 C40 1_555 1_555
N2 C26 1_555 1_555
O10 C46 1_555 1_555
C24 H36 1_555 1_555
H37 C24 1_555 1_555
H38 C24 1_555 1_555
C25 C36 1_555 1_555
C26 H39 1_555 1_555
C27 C28 1_555 1_555
C28 C26 1_555 1_555
C29 C24 1_555 1_555
H40 C29 1_555 1_555
C30 H41 1_555 1_555
C31 C29 1_555 1_555
H42 C31 1_555 1_555
H43 C31 1_555 1_555
H44 C31 1_555 1_555
C32 C34 1_555 1_555
C33 H45 1_555 1_555
H46 C33 1_555 1_555
C34 N2 1_555 1_555
C35 C30 1_555 1_555
H47 C35 1_555 1_555
H48 C35 1_555 1_555
H49 C35 1_555 1_555
C36 C27 1_555 1_555
H50 C36 1_555 1_555
C37 C26 1_555 1_555
H51 C37 1_555 1_555
H52 C37 1_555 1_555
H53 C37 1_555 1_555
C38 H54 1_555 1_555
H55 C38 1_555 1_555
H56 C38 1_555 1_555
C39 C28 1_555 1_555
C40 H57 1_555 1_555
H58 C40 1_555 1_555
H59 C40 1_555 1_555
C41 H60 1_555 1_555
H61 C41 1_555 1_555
H62 C41 1_555 1_555
C42 O8 1_555 1_555
H63 C42 1_555 1_555
H64 C42 1_555 1_555
H65 C42 1_555 1_555
C43 C25 1_555 1_555
H66 C43 1_555 1_555
C44 C25 1_555 1_555
H67 C44 1_555 1_555
C45 C30 1_555 1_555
H68 C45 1_555 1_555
H69 C45 1_555 1_555
H70 C45 1_555 1_555
C46 O9 1_555 1_555
O11 C61 1_555 1_555
O12 N3 1_555 1_555
O13 C61 1_555 1_555
O14 C63 1_555 1_555
N3 C49 1_555 1_555
C47 C48 1_555 1_555
C48 H71 1_555 1_555
C49 H72 1_555 1_555
C50 H73 1_555 1_555
C51 N3 1_555 1_555
C52 C47 1_555 1_555
H74 C52 1_555 1_555
C53 C49 1_555 1_555
H75 C53 1_555 1_555
H76 C53 1_555 1_555
H77 C53 1_555 1_555
C54 H78 1_555 1_555
C55 C54 1_555 1_555
H79 C55 1_555 1_555
H80 C55 1_555 1_555
H81 C55 1_555 1_555
C56 C50 1_555 1_555
C57 C54 1_555 1_555
H82 C57 1_555 1_555
H83 C57 1_555 1_555
H84 C57 1_555 1_555
C58 C49 1_555 1_555
O15 C63 1_555 1_555
C59 C48 1_555 1_555
C60 C51 1_555 1_555
H85 C60 1_555 1_555
H86 C60 1_555 1_555
C61 C51 1_555 1_555
C62 C50 1_555 1_555
H87 C62 1_555 1_555
H88 C62 1_555 1_555
H89 C62 1_555 1_555
C63 C60 1_555 1_555
C64 C50 1_555 1_555
H90 C64 1_555 1_555
H91 C64 1_555 1_555
H92 C64 1_555 1_555
C65 C47 1_555 1_555
H93 C65 1_555 1_555
C66 O13 1_555 1_555
H94 C66 1_555 1_555
H95 C66 1_555 1_555
H96 C66 1_555 1_555
C67 C52 1_555 1_555
H97 C67 1_555 1_555
H98 C67 1_555 1_555
H99 C67 1_555 1_555
C68 O14 1_555 1_555
H100 C68 1_555 1_555
H101 C68 1_555 1_555
H102 C68 1_555 1_555
C69 C52 1_555 1_555
H103 C69 1_555 1_555
H104 C69 1_555 1_555
H105 C69 1_555 1_555
O16 N4 1_555 1_555
O17 C78 1_555 1_555
O18 C90 1_555 1_555
O19 C90 1_555 1_555
N4 C75 1_555 1_555
C70 H106 1_555 1_555
O20 C87 1_555 1_555
C71 C77 1_555 1_555
C72 C73 1_555 1_555
C73 C77 1_555 1_555
C74 C70 1_555 1_555
C75 C72 1_555 1_555
H107 C75 1_555 1_555
C76 C70 1_555 1_555
H108 C76 1_555 1_555
H109 C76 1_555 1_555
H110 C76 1_555 1_555
C77 H111 1_555 1_555
C78 H112 1_555 1_555
H113 C78 1_555 1_555
H114 C78 1_555 1_555
C79 N4 1_555 1_555
C80 C71 1_555 1_555
H115 C80 1_555 1_555
C81 C75 1_555 1_555
H116 C81 1_555 1_555
H117 C81 1_555 1_555
H118 C81 1_555 1_555
C82 C73 1_555 1_555
H119 C82 1_555 1_555
C83 C71 1_555 1_555
H120 C83 1_555 1_555
C84 C82 1_555 1_555
H121 C84 1_555 1_555
H122 C84 1_555 1_555
H123 C84 1_555 1_555
C85 C80 1_555 1_555
H124 C85 1_555 1_555
H125 C85 1_555 1_555
H126 C85 1_555 1_555
C86 C70 1_555 1_555
H127 C86 1_555 1_555
H128 C86 1_555 1_555
H129 C86 1_555 1_555
C87 O17 1_555 1_555
C88 C79 1_555 1_555
H130 C88 1_555 1_555
H131 C88 1_555 1_555
C89 C82 1_555 1_555
H132 C89 1_555 1_555
H133 C89 1_555 1_555
H134 C89 1_555 1_555
C90 C79 1_555 1_555
C91 C80 1_555 1_555
H135 C91 1_555 1_555
H136 C91 1_555 1_555
H137 C91 1_555 1_555
C92 O18 1_555 1_555
H138 C92 1_555 1_555
H139 C92 1_555 1_555
H140 C92 1_555 1_555
C8 C15 1_555 1_555
C8 C16 1_555 1_555
C27 C29 1_555 1_555
C30 C39 1_555 1_555
C33 C34 1_555 1_555
C33 C46 1_555 1_555
C38 C43 1_555 1_555
C39 C44 1_555 1_555
C41 C43 1_555 1_555
C54 C59 1_555 1_555
C56 C58 1_555 1_555
C56 C65 1_555 1_555
C58 C59 1_555 1_555
C72 C74 1_555 1_555
C74 C83 1_555 1_555
C87 C88 1_555 1_555

#END
