
#######################################################################
#
#                 Cambridge Crystallographic Data Centre
#                                CCDC 
#
#######################################################################
#
# If this CIF has been generated from an entry in the Cambridge 
# Structural Database, then it will include bibliographic, chemical, 
# crystal, experimental, refinement or atomic coordinate data resulting 
# from the CCDC's data processing and validation procedures.
#
#######################################################################

data_XUQNUU
_chemical_compound_source        'stems of Mallotus japonicus'
_chemical_name_common            'Mallonicusin A'
_chemical_formula_moiety         'C20 H32 O4'
_chemical_name_systematic        
8-(4,5-dihydroxy-3-methylenepentyl)-3-hydroxy-4,4,8a-trimethyl-7-methyleneoctahydronaphthalen-2(1H)-one
_symmetry_cell_setting           orthorhombic
_symmetry_space_group_name_H-M   'P 21 21 21'
_symmetry_Int_Tables_number      19
_space_group_name_Hall           'P 2ac 2ab'
loop_
_symmetry_equiv_pos_site_id
_symmetry_equiv_pos_as_xyz
1 x,y,z
2 1/2+x,1/2-y,-z
3 -x,1/2+y,1/2-z
4 1/2-x,-y,1/2+z
_cell_length_a                   6.08540(10)
_cell_length_b                   13.6015(2)
_cell_length_c                   22.6317(3)
_cell_angle_alpha                90
_cell_angle_beta                 90
_cell_angle_gamma                90
_cell_volume                     1873.24
_exptl_crystal_colour            colorless
_exptl_crystal_description       prism
_chemical_melting_point          '140-141 deg.C'
_cell_formula_units_Z            4
loop_
_atom_site_label
_atom_site_type_symbol
_atom_site_fract_x
_atom_site_fract_y
_atom_site_fract_z
O1 O -0.1539(3) -0.40812(12) 0.01476(7)
O2 O 0.0740(3) -0.55369(12) -0.04233(7)
H1 H -0.0349 -0.5684 -0.0213
C1 C -0.0824(3) -0.28732(14) -0.05981(7)
H2 H 0.0688 -0.2636 -0.0674
H3 H -0.1531 -0.2413 -0.0317
C2 C -0.0733(4) -0.38829(15) -0.03288(8)
C3 C 0.0328(3) -0.46454(15) -0.07169(9)
H4 H 0.1789 -0.4375 -0.0838
C4 C -0.1045(3) -0.47749(14) -0.12935(8)
C5 C -0.1257(3) -0.37389(13) -0.15832(7)
H5 H 0.0287 -0.3546 -0.1680
C6 C -0.2430(4) -0.37645(15) -0.21813(8)
H6 H -0.3996 -0.3933 -0.2121
H7 H -0.1764 -0.4282 -0.2431
C7 C -0.2265(4) -0.27655(16) -0.25009(8)
H8 H -0.0726 -0.2650 -0.2624
H9 H -0.3192 -0.2778 -0.2860
C8 C -0.3001(4) -0.19450(15) -0.21054(8)
C9 C -0.1701(3) -0.19040(13) -0.15311(8)
H10 H -0.0115 -0.1917 -0.1647
C10 C -0.2135(3) -0.28854(13) -0.11848(7)
C11 C -0.2031(4) -0.09530(13) -0.11790(8)
H11 H -0.3623 -0.0820 -0.1138
H12 H -0.1411 -0.1036 -0.0778
C12 C -0.0924(4) -0.00799(15) -0.14813(9)
H13 H 0.0639 -0.0175 -0.1488
H14 H -0.1431 -0.0019 -0.1881
C13 C -0.4678(4) -0.13697(17) -0.22461(10)
H15 H -0.5449 -0.1472 -0.2606
H16 H -0.5110 -0.0855 -0.1987
O3 O -0.1083(5) 0.15452(19) -0.01137(12)
H17 H -0.2064 0.1189 0.0036
O4 O 0.3627(5) 0.1641(2) -0.03157(14)
H18 H 0.3348 0.2067 -0.0058
C14 C -0.1484(14) 0.0852(5) -0.1112(3)
C15 C -0.0006(10) 0.1019(4) -0.0577(3)
H19 H 0.0535 0.0373 -0.0424
C16 C 0.1941(19) 0.1655(12) -0.0762(5)
H20 H 0.2549 0.1408 -0.1139
H21 H 0.1440 0.2340 -0.0825
C17 C -0.2950(8) 0.1530(3) -0.1274(2)
H22 H -0.3080 0.2124 -0.1056
H23 H -0.3863 0.1419 -0.1608
C18 C -0.3237(3) -0.52833(14) -0.11495(9)
H24 H -0.4093 -0.5363 -0.1513
H25 H -0.4067 -0.4881 -0.0868
H26 H -0.2948 -0.5930 -0.0976
C19 C 0.0280(4) -0.54528(16) -0.17024(10)
H27 H -0.0536 -0.5557 -0.2071
H28 H 0.0520 -0.6086 -0.1506
H29 H 0.1701 -0.5148 -0.1791
C20 C -0.4590(3) -0.29608(13) -0.10293(8)
H30 H -0.4858 -0.3572 -0.0812
H31 H -0.5461 -0.2960 -0.1393
H32 H -0.5013 -0.2399 -0.0784
O5? O -0.2059(6) 0.2044(3) -0.05427(17)
H33? H -0.1466 0.2331 -0.0256
O6? O 0.2387(9) 0.1578(3) -0.0109(2)
H34? H 0.2425 0.2172 -0.0009
C21? C -0.1484(14) 0.0932(5) -0.1315(3)
C22? C -0.0768(10) 0.1205(5) -0.0705(3)
H35? H -0.1019 0.0649 -0.0424
C23? C 0.1659(16) 0.1500(13) -0.0714(5)
H36? H 0.2535 0.0999 -0.0927
H37? H 0.1841 0.2139 -0.0919
C24? C -0.2633(9) 0.1460(4) -0.1675(3)
H38? H -0.3101 0.1192 -0.2042
H39? H -0.3009 0.2116 -0.1574
loop_
_geom_bond_atom_site_label_1
_geom_bond_atom_site_label_2
_geom_bond_site_symmetry_1
_geom_bond_site_symmetry_2
O1 C2 1_555 1_555
O2 H1 1_555 1_555
C1 H2 1_555 1_555
H3 C1 1_555 1_555
C2 C1 1_555 1_555
C3 O2 1_555 1_555
H4 C3 1_555 1_555
C4 C3 1_555 1_555
C5 C4 1_555 1_555
H5 C5 1_555 1_555
C6 C5 1_555 1_555
H6 C6 1_555 1_555
H7 C6 1_555 1_555
C7 C6 1_555 1_555
H8 C7 1_555 1_555
H9 C7 1_555 1_555
C8 C7 1_555 1_555
C9 C8 1_555 1_555
H10 C9 1_555 1_555
C10 C1 1_555 1_555
C11 C9 1_555 1_555
H11 C11 1_555 1_555
H12 C11 1_555 1_555
C12 C11 1_555 1_555
H13 C12 1_555 1_555
H14 C12 1_555 1_555
C13 C8 1_555 1_555
H15 C13 1_555 1_555
H16 C13 1_555 1_555
O3 H17 1_555 1_555
O4 H18 1_555 1_555
C14 C12 1_555 1_555
C15 O3 1_555 1_555
H19 C15 1_555 1_555
C16 O4 1_555 1_555
H20 C16 1_555 1_555
H21 C16 1_555 1_555
C17 C14 1_555 1_555
H22 C17 1_555 1_555
H23 C17 1_555 1_555
C18 C4 1_555 1_555
H24 C18 1_555 1_555
H25 C18 1_555 1_555
H26 C18 1_555 1_555
C19 C4 1_555 1_555
H27 C19 1_555 1_555
H28 C19 1_555 1_555
H29 C19 1_555 1_555
C20 C10 1_555 1_555
H30 C20 1_555 1_555
H31 C20 1_555 1_555
H32 C20 1_555 1_555
C2 C3 1_555 1_555
C5 C10 1_555 1_555
C9 C10 1_555 1_555
C14 C15 1_555 1_555
C15 C16 1_555 1_555

#END
