
#######################################################################
#
#                 Cambridge Crystallographic Data Centre
#                                CCDC 
#
#######################################################################
#
# If this CIF has been generated from an entry in the Cambridge 
# Structural Database, then it will include bibliographic, chemical, 
# crystal, experimental, refinement or atomic coordinate data resulting 
# from the CCDC's data processing and validation procedures.
#
#######################################################################

data_XUQNIG
_chemical_formula_moiety         'C20 H34 N8 2+,2(N1 O3 1-)'
_chemical_name_systematic        
'1,4,7,10-tetrakis(2-Cyanoethyl)-1,7-diazonia-4,10-diazacyclododecane dinitrate'
_symmetry_cell_setting           monoclinic
_symmetry_space_group_name_H-M   'P 21/n'
_symmetry_Int_Tables_number      14
_space_group_name_Hall           '-P 2yn'
loop_
_symmetry_equiv_pos_site_id
_symmetry_equiv_pos_as_xyz
1 x,y,z
2 1/2+x,1/2-y,1/2+z
3 -x,-y,-z
4 1/2-x,1/2+y,1/2-z
_cell_length_a                   10.332(3)
_cell_length_b                   19.083(5)
_cell_length_c                   13.402(3)
_cell_angle_alpha                90
_cell_angle_beta                 107.67(2)
_cell_angle_gamma                90
_cell_volume                     2517.75
_exptl_crystal_colour            colorless
_exptl_crystal_description       plate
_cell_formula_units_Z            4
_exptl_crystal_recrystallization_method 'dilute nitric acid/ethanol'
loop_
_atom_site_label
_atom_site_type_symbol
_atom_site_fract_x
_atom_site_fract_y
_atom_site_fract_z
N1 N -0.2386(3) 0.2079(2) 0.2454(3)
N2 N 0.0168(3) 0.1851(2) 0.1867(2)
N3 N -0.0139(3) 0.0331(2) 0.2088(2)
N4 N -0.2515(3) 0.0538(2) 0.2721(2)
N5 N -0.2023(4) 0.3602(3) 0.5371(3)
N6 N 0.4579(4) 0.2728(2) 0.3754(3)
N7 N 0.3225(5) -0.1275(3) 0.4126(4)
N8 N -0.6156(4) 0.0805(2) 0.3301(4)
C1 C -0.2213(4) 0.2310(2) 0.1460(3)
C2 C -0.0753(4) 0.2477(2) 0.1566(3)
C3 C -0.0076(4) 0.1334(2) 0.0984(3)
C4 C 0.0516(4) 0.0632(2) 0.1358(3)
C5 C -0.1387(4) -0.0048(2) 0.1555(3)
C6 C -0.2250(4) -0.0149(2) 0.2276(3)
C7 C -0.3578(4) 0.0958(2) 0.1938(3)
C8 C -0.3674(4) 0.1699(2) 0.2265(3)
C9 C -0.2377(4) 0.2707(2) 0.3112(3)
C10 C -0.2034(5) 0.2514(3) 0.4240(4)
C11 C -0.2032(5) 0.3140(3) 0.4866(4)
C12 C 0.1628(4) 0.2074(2) 0.2180(3)
C13 C 0.2088(4) 0.2338(2) 0.3291(3)
C14 C 0.3499(4) 0.2554(2) 0.3556(3)
C15 C 0.0816(4) -0.0054(2) 0.2933(3)
C16 C 0.1445(5) -0.0693(2) 0.2575(4)
C17 C 0.2445(6) -0.1028(3) 0.3435(5)
C18 C -0.2740(4) 0.0445(2) 0.3767(3)
C19 C -0.4010(4) 0.0037(2) 0.3739(3)
C20 C -0.5228(4) 0.0463(3) 0.3492(4)
H1 H -0.16739 0.07942 0.28975
H2 H -0.00742 0.16461 0.24042
H3 H -0.27203 0.27285 0.11893
H4 H -0.25149 0.19323 0.09041
H5 H -0.04192 0.28502 0.21589
H6 H -0.06675 0.26521 0.08752
H7 H -0.10680 0.13463 0.07042
H8 H 0.03533 0.15237 0.04709
H9 H 0.16128 0.06925 0.17585
H10 H 0.04217 0.03245 0.07630
H11 H -0.18978 0.02312 0.08937
H12 H -0.12588 -0.05238 0.13593
H13 H -0.31640 -0.03448 0.18387
H14 H -0.18155 -0.04685 0.28592
H15 H -0.33862 0.09577 0.12502
H16 H -0.44779 0.07193 0.18577
H17 H -0.44387 0.19689 0.16825
H18 H -0.39054 0.16867 0.29108
H19 H -0.17071 0.30603 0.29857
H20 H -0.32378 0.29716 0.29702
H21 H -0.11458 0.22200 0.44674
H22 H -0.26466 0.21565 0.44222
H23 H 0.23076 0.16420 0.21840
H24 H 0.16871 0.24451 0.17174
H25 H 0.21054 0.19261 0.37318
H26 H 0.14069 0.26964 0.33990
H27 H 0.03787 -0.02207 0.35168
H28 H 0.15552 0.02355 0.33135
H29 H 0.18676 -0.05839 0.20024
H30 H 0.07062 -0.10248 0.22595
H31 H -0.19472 0.01902 0.42337
H32 H -0.27464 0.09142 0.40765
H33 H -0.40876 -0.03842 0.33121
H34 H -0.38465 -0.01475 0.44446
O1 O 0.050(3) 0.356(2) 0.433(2)
O4 O 0.041(2) 0.399(1) 0.305(1)
O6 O 0.211(5) 0.426(2) 0.436(4)
N9 N 0.1003(5) 0.4069(3) 0.3910(3)
O9 O 0.0007(3) 0.1294(2) 0.3953(2)
O10 O 0.198(1) 0.1136(6) 0.5079(8)
O12 O 0.0189(6) 0.1143(4) 0.5573(4)
N10 N 0.0727(4) 0.1145(2) 0.4843(3)
O2? O 0.136(3) 0.363(1) 0.457(2)
O3? O 0.208(2) 0.387(1) 0.440(2)
O5? O 0.009(2) 0.3824(9) 0.319(2)
O7? O 0.048(2) 0.460(1) 0.432(1)
O8? O 0.121(2) 0.4700(6) 0.389(1)
O11? O 0.184(3) 0.122(2) 0.523(3)
O13? O 0.025(1) 0.0585(8) 0.517(1)
loop_
_geom_bond_atom_site_label_1
_geom_bond_atom_site_label_2
_geom_bond_site_symmetry_1
_geom_bond_site_symmetry_2
N1 C1 1_555 1_555
N2 C2 1_555 1_555
N3 C4 1_555 1_555
N4 C6 1_555 1_555
N5 C11 1_555 1_555
N6 C14 1_555 1_555
N7 C17 1_555 1_555
N8 C20 1_555 1_555
C1 C2 1_555 1_555
C2 H5 1_555 1_555
C3 N2 1_555 1_555
C4 C3 1_555 1_555
C5 N3 1_555 1_555
C6 C5 1_555 1_555
C7 N4 1_555 1_555
C8 N1 1_555 1_555
C9 N1 1_555 1_555
C10 C9 1_555 1_555
C11 C10 1_555 1_555
C12 N2 1_555 1_555
C13 C12 1_555 1_555
C14 C13 1_555 1_555
C15 N3 1_555 1_555
C16 C15 1_555 1_555
C17 C16 1_555 1_555
C18 N4 1_555 1_555
C19 C18 1_555 1_555
C20 C19 1_555 1_555
O1 N9 1_555 1_555
O4 N9 1_555 1_555
O6 N9 1_555 1_555
O9 N10 1_555 1_555
O10 N10 1_555 1_555
O12 N10 1_555 1_555
H1 N4 1_555 1_555
H2 N2 1_555 1_555
H3 C1 1_555 1_555
H4 C1 1_555 1_555
H6 C2 1_555 1_555
H7 C3 1_555 1_555
H8 C3 1_555 1_555
H9 C4 1_555 1_555
H10 C4 1_555 1_555
H11 C5 1_555 1_555
H12 C5 1_555 1_555
H13 C6 1_555 1_555
H14 C6 1_555 1_555
H15 C7 1_555 1_555
H16 C7 1_555 1_555
H17 C8 1_555 1_555
H18 C8 1_555 1_555
H19 C9 1_555 1_555
H20 C9 1_555 1_555
H21 C10 1_555 1_555
H22 C10 1_555 1_555
H23 C12 1_555 1_555
H24 C12 1_555 1_555
H25 C13 1_555 1_555
H26 C13 1_555 1_555
H27 C15 1_555 1_555
H28 C15 1_555 1_555
H29 C16 1_555 1_555
H30 C16 1_555 1_555
H31 C18 1_555 1_555
H32 C18 1_555 1_555
H33 C19 1_555 1_555
H34 C19 1_555 1_555
C7 C8 1_555 1_555

#END
