
#######################################################################
#
#                 Cambridge Crystallographic Data Centre
#                                CCDC 
#
#######################################################################
#
# If this CIF has been generated from an entry in the Cambridge 
# Structural Database, then it will include bibliographic, chemical, 
# crystal, experimental, refinement or atomic coordinate data resulting 
# from the CCDC's data processing and validation procedures.
#
#######################################################################

data_XUQSOS
_chemical_formula_moiety         'C28 H24 O3 S1'
_chemical_name_systematic        
2,4-Dibenzoyl-3-(ethylsulfanyl)-5-phenylcyclohex-2-en-1-one
_symmetry_cell_setting           monoclinic
_symmetry_space_group_name_H-M   'P 21/n'
_symmetry_Int_Tables_number      14
_space_group_name_Hall           '-P 2yn'
loop_
_symmetry_equiv_pos_site_id
_symmetry_equiv_pos_as_xyz
1 x,y,z
2 1/2-x,1/2+y,1/2-z
3 -x,-y,-z
4 1/2+x,1/2-y,1/2+z
_cell_length_a                   13.159(2)
_cell_length_b                   14.135(2)
_cell_length_c                   13.883(3)
_cell_angle_alpha                90
_cell_angle_beta                 116.723(3)
_cell_angle_gamma                90
_cell_volume                     2306.46
_cell_formula_units_Z            4
loop_
_atom_site_label
_atom_site_type_symbol
_atom_site_fract_x
_atom_site_fract_y
_atom_site_fract_z
S1 S 0.09941(7) 0.14071(7) 0.92600(6)
O1 O 0.2447(2) 0.28911(15) 1.14129(16)
O2 O 0.35747(19) 0.02899(15) 0.90917(17)
O3 O 0.49470(18) 0.25993(15) 1.13658(15)
C1 C 0.2305(2) 0.17522(18) 0.9348(2)
C2 C 0.2527(2) 0.17038(18) 0.83716(19)
H1 H 0.1811 0.1817 0.7723
C3 C 0.3392(2) 0.24883(19) 0.8458(2)
H2 H 0.3048 0.3082 0.8533
C4 C 0.4475(2) 0.2376(2) 0.9515(2)
H3 H 0.4849 0.1790 0.9499
H4 H 0.4990 0.2893 0.9590
C5 C 0.4225(3) 0.23693(19) 1.0467(2)
C6 C 0.3095(2) 0.20862(18) 1.0302(2)
C7 C 0.2873(3) 0.2171(2) 1.1279(2)
C8 C 0.2986(2) 0.0727(2) 0.8280(2)
C9 C 0.0377(3) 0.0610(2) 0.8136(2)
H5 H 0.0214 0.0941 0.7471
H6 H 0.0902 0.0098 0.8221
C10 C -0.0703(3) 0.0223(3) 0.8101(3)
H7 H -0.1045 -0.0210 0.7508
H8 H -0.1220 0.0734 0.8008
H9 H -0.0533 -0.0102 0.8763
C11 C 0.3209(2) 0.1388(2) 1.2066(2)
C12 C 0.3296(3) 0.1548(2) 1.3082(2)
H10 H 0.3148 0.2147 1.3263
C13 C 0.3601(3) 0.0829(3) 1.3827(2)
H11 H 0.3669 0.0945 1.4513
C14 C 0.3803(3) -0.0056(3) 1.3557(3)
H12 H 0.4001 -0.0545 1.4058
C15 C 0.3715(3) -0.0228(2) 1.2546(3)
H13 H 0.3846 -0.0834 1.2364
C16 C 0.3433(3) 0.0497(2) 1.1803(2)
H14 H 0.3394 0.0385 1.1127
C17 C 0.2748(3) 0.0352(2) 0.7191(2)
C18 C 0.3503(3) -0.0305(2) 0.7134(3)
H15 H 0.4133 -0.0493 0.7759
C19 C 0.3319(4) -0.0681(2) 0.6147(4)
H16 H 0.3839 -0.1106 0.6108
C20 C 0.2374(4) -0.0429(3) 0.5230(3)
H17 H 0.2245 -0.0694 0.4572
C21 C 0.1619(3) 0.0210(2) 0.5276(3)
H18 H 0.0975 0.0376 0.4652
C22 C 0.1815(3) 0.0612(2) 0.6254(2)
H19 H 0.1311 0.1063 0.6278
C23 C 0.3583(3) 0.26201(18) 0.7466(2)
C24 C 0.2723(3) 0.3018(2) 0.6551(2)
H20 H 0.2033 0.3170 0.6547
C25 C 0.2872(3) 0.3193(2) 0.5648(3)
H21 H 0.2282 0.3454 0.5039
C26 C 0.3885(4) 0.2984(3) 0.5641(3)
H22 H 0.3986 0.3103 0.5031
C27 C 0.4742(4) 0.2599(2) 0.6535(3)
H23 H 0.5432 0.2456 0.6535
C28 C 0.4596(3) 0.2419(2) 0.7446(3)
H24 H 0.5192 0.2159 0.8052
loop_
_geom_bond_atom_site_label_1
_geom_bond_atom_site_label_2
_geom_bond_site_symmetry_1
_geom_bond_site_symmetry_2
S1 C1 1_555 1_555
O1 C7 1_555 1_555
O2 C8 1_555 1_555
O3 C5 1_555 1_555
C1 C2 1_555 1_555
C2 H1 1_555 1_555
C3 C2 1_555 1_555
H2 C3 1_555 1_555
C4 C3 1_555 1_555
H3 C4 1_555 1_555
H4 C4 1_555 1_555
C5 C4 1_555 1_555
C6 C1 1_555 1_555
C7 C6 1_555 1_555
C8 C2 1_555 1_555
C9 S1 1_555 1_555
H5 C9 1_555 1_555
H6 C9 1_555 1_555
C10 C9 1_555 1_555
H7 C10 1_555 1_555
H8 C10 1_555 1_555
H9 C10 1_555 1_555
C11 C7 1_555 1_555
C12 C11 1_555 1_555
H10 C12 1_555 1_555
C13 C12 1_555 1_555
H11 C13 1_555 1_555
C14 C13 1_555 1_555
H12 C14 1_555 1_555
C15 C14 1_555 1_555
H13 C15 1_555 1_555
C16 C11 1_555 1_555
H14 C16 1_555 1_555
C17 C8 1_555 1_555
C18 C17 1_555 1_555
H15 C18 1_555 1_555
C19 C18 1_555 1_555
H16 C19 1_555 1_555
C20 C19 1_555 1_555
H17 C20 1_555 1_555
C21 C20 1_555 1_555
H18 C21 1_555 1_555
C22 C17 1_555 1_555
H19 C22 1_555 1_555
C23 C3 1_555 1_555
C24 C23 1_555 1_555
H20 C24 1_555 1_555
C25 C24 1_555 1_555
H21 C25 1_555 1_555
C26 C25 1_555 1_555
H22 C26 1_555 1_555
C27 C26 1_555 1_555
H23 C27 1_555 1_555
C28 C23 1_555 1_555
H24 C28 1_555 1_555
C5 C6 1_555 1_555
C15 C16 1_555 1_555
C21 C22 1_555 1_555
C27 C28 1_555 1_555

#END
