
#######################################################################
#
#                 Cambridge Crystallographic Data Centre
#                                CCDC 
#
#######################################################################
#
# If this CIF has been generated from an entry in the Cambridge 
# Structural Database, then it will include bibliographic, chemical, 
# crystal, experimental, refinement or atomic coordinate data resulting 
# from the CCDC's data processing and validation procedures.
#
#######################################################################

data_XUQTAF
_chemical_formula_moiety         'C25 H21 N1 O5,H2 O1'
_chemical_name_systematic        
'22-Hydroxy-23-(hydroxymethyl)-11-methyl-24-oxa-20-azahexacyclo[19.3.1.0^2,19^.0^5,18^.0^7,16^.0^8,13^]pentacosa-2,4,7,9,11,13,15,18-octaene-6,17-dione monohydrate'
_symmetry_cell_setting           monoclinic
_symmetry_space_group_name_H-M   'C 2'
_symmetry_Int_Tables_number      5
_space_group_name_Hall           'C 2y'
loop_
_symmetry_equiv_pos_site_id
_symmetry_equiv_pos_as_xyz
1 x,y,z
2 -x,y,-z
3 1/2+x,1/2+y,z
4 1/2-x,1/2+y,-z
_cell_length_a                   18.730(3)
_cell_length_b                   9.2370(13)
_cell_length_c                   25.600(4)
_cell_angle_alpha                90
_cell_angle_beta                 110.787(2)
_cell_angle_gamma                90
_cell_volume                     4140.73
_exptl_crystal_colour            red
_exptl_crystal_description       prismatic
_cell_formula_units_Z            8
loop_
_atom_site_label
_atom_site_type_symbol
_atom_site_fract_x
_atom_site_fract_y
_atom_site_fract_z
N1 N 0.1594(5) 0.5695(10) 0.1914(4)
H1 H 0.2045 0.5491 0.1920
O1 O 0.2635(5) 0.9960(13) 0.3800(4)
O2 O 0.2998(4) 0.6854(10) 0.2157(3)
O3 O -0.0256(3) 0.6945(8) 0.1447(3)
O4 O 0.1145(3) 0.6236(8) 0.0770(3)
H2 H 0.0936 0.6411 0.0436
O5 O -0.0826(4) 0.7380(8) 0.0249(3)
H3 H -0.1233 0.7629 0.0274
C1 C 0.4036(8) 1.1361(16) 0.4006(4)
H4 H 0.3589 1.1477 0.4082
C2 C 0.4653(7) 1.2199(19) 0.4274(5)
H5 H 0.4608 1.2875 0.4530
C3 C 0.5339(7) 1.2118(17) 0.4193(5)
C4 C 0.5366(7) 1.1123(15) 0.3790(5)
H6 H 0.5808 1.1080 0.3705
C5 C 0.4773(6) 1.0197(16) 0.3510(5)
C6 C 0.4808(7) 0.9255(14) 0.3077(5)
H7 H 0.5264 0.9164 0.3012
C7 C 0.4201(6) 0.8510(14) 0.2767(4)
H8 H 0.4232 0.7947 0.2475
C8 C 0.3506(6) 0.8551(15) 0.2871(4)
C9 C 0.3447(6) 0.9413(12) 0.3303(4)
C10 C 0.4069(6) 1.0284(14) 0.3603(4)
C11 C 0.2710(5) 0.9361(13) 0.3415(4)
C12 C 0.2062(6) 0.8436(14) 0.3021(4)
C13 C 0.2154(6) 0.7543(13) 0.2613(4)
C14 C 0.2886(6) 0.7587(15) 0.2520(5)
C15 C 0.1520(6) 0.6697(12) 0.2282(4)
C16 C 0.0803(5) 0.6901(13) 0.2335(4)
C17 C 0.0759(6) 0.7807(12) 0.2749(4)
H9 H 0.0292 0.7898 0.2799
C18 C 0.1376(6) 0.8590(12) 0.3096(4)
H10 H 0.1328 0.9198 0.3371
C19 C 0.0121(6) 0.6124(13) 0.1952(4)
H11 H -0.0240 0.5968 0.2145
C20 C 0.0360(5) 0.4639(11) 0.1791(4)
H12 H 0.0589 0.4047 0.2121
H13 H -0.0080 0.4132 0.1537
C21 C 0.0940(6) 0.4949(13) 0.1508(4)
H14 H 0.1110 0.4035 0.1396
C22 C 0.0569(6) 0.5853(12) 0.1009(4)
H15 H 0.0164 0.5291 0.0735
C23 C 0.0228(5) 0.7261(10) 0.1139(4)
H16 H 0.0652 0.7855 0.1378
C24 C -0.0215(6) 0.8156(12) 0.0649(4)
H17 H -0.0422 0.8989 0.0778
H18 H 0.0127 0.8511 0.0469
C25 C 0.6022(9) 1.305(2) 0.4495(6)
H19 H 0.5865 1.4038 0.4485
H20 H 0.6392 1.2959 0.4316
H21 H 0.6245 1.2731 0.4876
N2 N 0.8070(4) 0.6638(9) 0.1469(3)
H22 H 0.8481 0.7145 0.1595
O6 O 0.6715(5) 0.8428(13) 0.3167(4)
O7 O 0.8889(4) 0.8417(10) 0.2272(3)
O8 O 0.6325(4) 0.5668(10) 0.0516(3)
O9 O 0.7836(4) 0.8001(8) 0.0392(3)
H23 H 0.8032 0.7916 0.0154
O10 O 0.5388(8) 0.760(3) -0.0219(9)
H24 H 0.5330 0.7305 0.0065
C26 C 0.7631(9) 1.0115(18) 0.4097(5)
H25 H 0.7176 0.9598 0.3987
C27 C 0.7792(11) 1.094(2) 0.4546(6)
H26 H 0.7459 1.0933 0.4743
C28 C 0.8445(11) 1.182(2) 0.4737(6)
C29 C 0.8942(9) 1.1717(16) 0.4453(5)
H27 H 0.9386 1.2268 0.4571
C30 C 0.8798(7) 1.0811(16) 0.3992(5)
C31 C 0.9317(8) 1.0807(18) 0.3686(5)
H28 H 0.9737 1.1424 0.3797
C32 C 0.9203(6) 0.9928(13) 0.3245(4)
H29 H 0.9572 0.9833 0.3081
C33 C 0.8500(7) 0.9141(14) 0.3033(4)
C34 C 0.7966(6) 0.9173(14) 0.3266(4)
C35 C 0.8105(7) 0.9954(15) 0.3764(5)
C36 C 0.7244(6) 0.8291(15) 0.3021(4)
C37 C 0.7144(6) 0.7477(11) 0.2499(4)
C38 C 0.7723(6) 0.7456(13) 0.2264(4)
C39 C 0.8393(6) 0.8349(14) 0.2484(4)
C40 C 0.7590(6) 0.6671(13) 0.1759(5)
C41 C 0.6919(6) 0.5745(13) 0.1541(5)
C42 C 0.6400(7) 0.5856(12) 0.1823(5)
H30 H 0.5945 0.5345 0.1672
C43 C 0.6497(6) 0.6635(12) 0.2291(5)
H31 H 0.6139 0.6602 0.2466
C44 C 0.6760(6) 0.4897(14) 0.1015(4)
H32 H 0.6472 0.4029 0.1039
C45 C 0.7506(7) 0.4421(12) 0.0977(5)
H33 H 0.7421 0.3854 0.0642
H34 H 0.7790 0.3837 0.1299
C46 C 0.7948(6) 0.5815(11) 0.0962(4)
H35 H 0.8442 0.5563 0.0936
C47 C 0.7477(5) 0.6660(12) 0.0444(4)
H36 H 0.7446 0.6066 0.0119
C48 C 0.6649(6) 0.6966(15) 0.0407(5)
H37 H 0.6660 0.7683 0.0692
C49 C 0.6158(6) 0.7527(19) -0.0153(5)
H38 H 0.6333 0.8485 -0.0205
H39 H 0.6216 0.6902 -0.0440
C50 C 0.8587(12) 1.277(2) 0.5237(7)
H40 H 0.8599 1.2192 0.5552
H41 H 0.8186 1.3474 0.5160
H42 H 0.9068 1.3257 0.5320
O11 O 0.7660(5) 0.0248(12) 0.1022(5)
H43 H 0.736(4) 0.094(7) 0.096(4)
O12 O 0.9276(14) 0.077(4) 0.1698(12)
H44 H 0.9727(19) 0.081(8) 0.186(2)
H45? H 0.5762 0.6782 -0.0856
H46? H 0.5641 0.7562 -0.0164
H47? H 0.6316 0.8493 -0.0198
O13? O 0.6171(12) 0.670(4) -0.0597(8)
loop_
_geom_bond_atom_site_label_1
_geom_bond_atom_site_label_2
_geom_bond_site_symmetry_1
_geom_bond_site_symmetry_2
N1 H1 1_555 1_555
O1 C11 1_555 1_555
O2 C14 1_555 1_555
O3 C19 1_555 1_555
O4 H2 1_555 1_555
O5 H3 1_555 1_555
C1 H4 1_555 1_555
C2 C1 1_555 1_555
H5 C2 1_555 1_555
C3 C2 1_555 1_555
C4 C3 1_555 1_555
H6 C4 1_555 1_555
C5 C4 1_555 1_555
C6 C5 1_555 1_555
H7 C6 1_555 1_555
C7 C6 1_555 1_555
H8 C7 1_555 1_555
C8 C7 1_555 1_555
C9 C8 1_555 1_555
C10 C1 1_555 1_555
C11 C9 1_555 1_555
C12 C11 1_555 1_555
C13 C12 1_555 1_555
C14 C8 1_555 1_555
C15 N1 1_555 1_555
C16 C15 1_555 1_555
C17 C16 1_555 1_555
H9 C17 1_555 1_555
C18 C12 1_555 1_555
H10 C18 1_555 1_555
C19 C16 1_555 1_555
H11 C19 1_555 1_555
C20 C19 1_555 1_555
H12 C20 1_555 1_555
H13 C20 1_555 1_555
C21 N1 1_555 1_555
H14 C21 1_555 1_555
C22 O4 1_555 1_555
H15 C22 1_555 1_555
C23 O3 1_555 1_555
H16 C23 1_555 1_555
C24 O5 1_555 1_555
H17 C24 1_555 1_555
H18 C24 1_555 1_555
C25 C3 1_555 1_555
H19 C25 1_555 1_555
H20 C25 1_555 1_555
H21 C25 1_555 1_555
N2 H22 1_555 1_555
O6 C36 1_555 1_555
O7 C39 1_555 1_555
O8 C44 1_555 1_555
O9 H23 1_555 1_555
O10 H24 1_555 1_555
C26 H25 1_555 1_555
C27 C26 1_555 1_555
H26 C27 1_555 1_555
C28 C27 1_555 1_555
C29 C28 1_555 1_555
H27 C29 1_555 1_555
C30 C29 1_555 1_555
C31 C30 1_555 1_555
H28 C31 1_555 1_555
C32 C31 1_555 1_555
H29 C32 1_555 1_555
C33 C32 1_555 1_555
C34 C33 1_555 1_555
C35 C26 1_555 1_555
C36 C34 1_555 1_555
C37 C36 1_555 1_555
C38 C37 1_555 1_555
C39 C33 1_555 1_555
C40 N2 1_555 1_555
C41 C40 1_555 1_555
C42 C41 1_555 1_555
H30 C42 1_555 1_555
C43 C37 1_555 1_555
H31 C43 1_555 1_555
C44 C41 1_555 1_555
H32 C44 1_555 1_555
C45 C44 1_555 1_555
H33 C45 1_555 1_555
H34 C45 1_555 1_555
C46 N2 1_555 1_555
H35 C46 1_555 1_555
C47 O9 1_555 1_555
H36 C47 1_555 1_555
C48 O8 1_555 1_555
H37 C48 1_555 1_555
C49 O10 1_555 1_555
H38 C49 1_555 1_555
H39 C49 1_555 1_555
C50 C28 1_555 1_555
H40 C50 1_555 1_555
H41 C50 1_555 1_555
H42 C50 1_555 1_555
O11 H43 1_555 1_555
O12 H44 1_555 1_555
C5 C10 1_555 1_555
C9 C10 1_555 1_555
C13 C14 1_555 1_555
C13 C15 1_555 1_555
C17 C18 1_555 1_555
C20 C21 1_555 1_555
C21 C22 1_555 1_555
C22 C23 1_555 1_555
C23 C24 1_555 1_555
C30 C35 1_555 1_555
C34 C35 1_555 1_555
C38 C39 1_555 1_555
C38 C40 1_555 1_555
C42 C43 1_555 1_555
C45 C46 1_555 1_555
C46 C47 1_555 1_555
C47 C48 1_555 1_555
C48 C49 1_555 1_555

#END
