
#######################################################################
#
#                 Cambridge Crystallographic Data Centre
#                                CCDC 
#
#######################################################################
#
# If this CIF has been generated from an entry in the Cambridge 
# Structural Database, then it will include bibliographic, chemical, 
# crystal, experimental, refinement or atomic coordinate data resulting 
# from the CCDC's data processing and validation procedures.
#
#######################################################################

data_XUQWEM
_chemical_formula_moiety         'C96 H74 N4 O8 S2,1.5(C1 H2 Cl2),2(C6 H14)'
_chemical_name_systematic        
"4,8,14,18-tetrakis(2,6-diisopropylphenyl)-1,11-dithia-4,8,14,18-tetraaza-cyclopenta[4,10,3'']naphtho[2'',1'',8'':10,5,6]anthra[2,1,9,8,7-defghi]indeno[5''',6''',7''',1''',2''':1',12',11']tetrapheno[9',8',7',6',5'-qrstuv]hexacene-3,5,7,9,13,15,17,19(4H,8H,14H,18H)-octaone dichloromethane hexane solvate"
_symmetry_cell_setting           triclinic
_symmetry_space_group_name_H-M   'P -1'
_symmetry_Int_Tables_number      2
_space_group_name_Hall           '-P 1'
loop_
_symmetry_equiv_pos_site_id
_symmetry_equiv_pos_as_xyz
1 x,y,z
2 -x,-y,-z
_cell_length_a                   8.3321(14)
_cell_length_b                   15.291(3)
_cell_length_c                   20.134(4)
_cell_angle_alpha                73.673(4)
_cell_angle_beta                 86.124(6)
_cell_angle_gamma                85.033(6)
_cell_volume                     2449.99
_exptl_crystal_colour            colorless
_exptl_crystal_description       prism
_cell_formula_units_Z            1
loop_
_atom_site_label
_atom_site_type_symbol
_atom_site_fract_x
_atom_site_fract_y
_atom_site_fract_z
S1 S 0.29446(9) -0.43295(5) 1.16387(4)
N1 N 0.7280(3) -0.27833(15) 0.87895(12)
N2 N 0.1283(3) -0.15106(19) 1.35534(13)
O1 O 0.6320(3) -0.41942(13) 0.91214(11)
O2 O 0.8469(2) -0.14523(13) 0.85407(10)
O3 O 0.2321(3) -0.01245(16) 1.33257(11)
O4 O 0.0307(4) -0.29175(19) 1.38120(13)
C1 C 0.6340(4) -0.34477(18) 0.92238(15)
C2 C 0.5455(3) -0.31913(18) 0.98050(14)
C3 C 0.4740(3) -0.38768(19) 1.03147(14)
H1 H 0.4828 -0.4487 1.0282
C4 C 0.3882(4) -0.36562(18) 1.08804(15)
C5 C 0.3789(3) -0.27519(19) 1.08880(15)
C6 C 0.3067(4) -0.25957(19) 1.14930(14)
C7 C 0.2539(4) -0.33834(19) 1.19733(15)
C8 C 0.1837(4) -0.3299(2) 1.26104(15)
H2 H 0.1402 -0.3807 1.2940
C9 C 0.1796(4) -0.2456(2) 1.27451(15)
C10 C 0.1063(4) -0.2337(2) 1.34077(16)
C11 C 0.2115(4) -0.0780(2) 1.31258(15)
C12 C 0.2612(4) -0.08516(19) 1.24235(15)
C13 C 0.2453(4) -0.1680(2) 1.22612(15)
C14 C 0.3046(3) -0.17486(19) 1.16197(14)
C15 C 0.3670(3) -0.09975(19) 1.10973(14)
C16 C 0.4386(3) -0.11575(19) 1.04665(14)
C17 C 0.4472(3) -0.20414(19) 1.03747(14)
C18 C 0.5349(3) -0.22577(18) 0.98101(14)
C19 C 0.6119(3) -0.15660(19) 0.93075(14)
C20 C 0.7381(3) -0.18875(18) 0.88460(14)
C21 C 0.6349(3) 0.01525(19) 0.87637(14)
C22 C 0.5861(3) -0.06363(19) 0.93309(13)
C23 C 0.5056(3) -0.04429(18) 0.99449(13)
C24 C 0.3237(4) -0.01189(19) 1.19290(14)
H3 H 0.3394 0.0421 1.2054
C25 C 0.8318(3) -0.30732(18) 0.82652(14)
C26 C 0.9863(4) -0.34723(19) 0.84337(16)
C27 C 1.0760(4) -0.3792(2) 0.79322(19)
H4 H 1.1813 -0.4072 0.8030
C28 C 1.0155(4) -0.3712(3) 0.72960(18)
H5 H 1.0796 -0.3931 0.6960
C29 C 0.8647(4) -0.3323(2) 0.71486(17)
H6 H 0.8250 -0.3275 0.6708
C30 C 0.7668(4) -0.2991(2) 0.76225(16)
C31 C 1.0573(4) -0.3546(2) 0.91222(17)
H7 H 0.9661 -0.3491 0.9461
C32 C 1.1519(5) -0.4461(2) 0.9412(2)
H8 H 1.0868 -0.4959 0.9399
H9 H 1.1777 -0.4523 0.9892
H10 H 1.2520 -0.4487 0.9131
C33 C 1.1655(5) -0.2763(2) 0.9057(2)
H11 H 1.2543 -0.2792 0.8718
H12 H 1.2093 -0.2819 0.9508
H13 H 1.1021 -0.2178 0.8905
C34 C 0.5994(4) -0.2592(3) 0.74415(17)
H14 H 0.5518 -0.2339 0.7824
C35 C 0.4927(5) -0.3308(3) 0.7368(3)
H15 H 0.5349 -0.3547 0.6982
H16 H 0.3829 -0.3033 0.7276
H17 H 0.4911 -0.3808 0.7797
C36 C 0.6002(6) -0.1812(3) 0.6765(2)
H18 H 0.6825 -0.1396 0.6777
H19 H 0.4941 -0.1475 0.6716
H20 H 0.6246 -0.2066 0.6371
C37 C 0.0267(6) -0.1230(4) 1.4101(2)
C38 C 0.0790(7) -0.1551(4) 1.4774(3)
C39 C -0.0092(8) -0.1302(5) 1.5312(2)
H21 H 0.0265 -0.1521 1.5771
C40 C -0.1496(7) -0.0734(5) 1.5177(2)
H22 H -0.2099 -0.0564 1.5545
C41 C -0.2018(5) -0.0413(4) 1.4505(3)
H23 H -0.2978 -0.0025 1.4413
C42 C -0.1137(6) -0.0661(4) 1.3967(2)
C43 C 0.2359(11) -0.2110(6) 1.4927(5)
H24 H 0.2739 -0.2301 1.4503
C44 C 0.3655(12) -0.1548(10) 1.5082(8)
H25 H 0.3802 -0.1010 1.4688
H26 H 0.4675 -0.1924 1.5162
H27 H 0.3315 -0.1353 1.5497
C45 C 0.2189(17) -0.2974(7) 1.5523(7)
H28 H 0.1335 -0.3320 1.5429
H29 H 0.1912 -0.2807 1.5954
H30 H 0.3211 -0.3350 1.5567
C46 C -0.1722(8) -0.0285(5) 1.3244(4)
H31 H -0.1008 -0.0568 1.2930
C47 C -0.1599(11) 0.0754(5) 1.2994(5)
H32 H -0.0484 0.0894 1.3020
H33 H -0.2309 0.1047 1.3289
H34 H -0.1927 0.0983 1.2514
C48 C -0.3444(8) -0.0517(7) 1.3197(5)
H35 H -0.3510 -0.1181 1.3363
H36 H -0.3756 -0.0300 1.2714
H37 H -0.4174 -0.0221 1.3484
S1A S 0.70554(9) 0.43295(5) 0.83613(4)
N1A N 0.2720(3) 0.27833(15) 1.12105(12)
N2A N 0.8717(3) 0.15106(19) 0.64466(13)
O1A O 0.3680(3) 0.41942(13) 1.08786(11)
O2A O 0.1531(2) 0.14523(13) 1.14593(10)
O3A O 0.7679(3) 0.01245(16) 0.66743(11)
O4A O 0.9693(4) 0.29175(19) 0.61880(13)
C1A C 0.3660(4) 0.34477(18) 1.07762(15)
C2A C 0.4545(3) 0.31913(18) 1.01950(14)
C3A C 0.5260(3) 0.38768(19) 0.96853(14)
H1A H 0.5172 0.4487 0.9718
C4A C 0.6118(4) 0.36562(18) 0.91196(15)
C5A C 0.6211(3) 0.27519(19) 0.91120(15)
C6A C 0.6933(4) 0.25957(19) 0.85070(14)
C7A C 0.7461(4) 0.33834(19) 0.80267(15)
C8A C 0.8163(4) 0.3299(2) 0.73896(15)
H2A H 0.8598 0.3807 0.7060
C9A C 0.8204(4) 0.2456(2) 0.72549(15)
C10A C 0.8937(4) 0.2337(2) 0.65923(16)
C11A C 0.7885(4) 0.0780(2) 0.68742(15)
C12A C 0.7388(4) 0.08516(19) 0.75765(15)
C13A C 0.7547(4) 0.1680(2) 0.77388(15)
C14A C 0.6954(3) 0.17486(19) 0.83803(14)
C15A C 0.6330(3) 0.09975(19) 0.89027(14)
C16A C 0.5614(3) 0.11575(19) 0.95335(14)
C17A C 0.5528(3) 0.20414(19) 0.96253(14)
C18A C 0.4651(3) 0.22577(18) 1.01899(14)
C19A C 0.3881(3) 0.15660(19) 1.06925(14)
C20A C 0.2619(3) 0.18875(18) 1.11540(14)
C21A C 0.3651(3) -0.01525(19) 1.12363(14)
C22A C 0.4139(3) 0.06363(19) 1.06691(13)
C23A C 0.4944(3) 0.04429(18) 1.00551(13)
C24A C 0.6763(4) 0.01189(19) 0.80710(14)
H3A H 0.6606 -0.0421 0.7946
C25A C 0.1682(3) 0.30732(18) 1.17348(14)
C26A C 0.0137(4) 0.34723(19) 1.15663(16)
C27A C -0.0760(4) 0.3792(2) 1.20678(19)
H4A H -0.1813 0.4072 1.1970
C28A C -0.0155(4) 0.3712(3) 1.27040(18)
H5A H -0.0796 0.3931 1.3040
C29A C 0.1353(4) 0.3323(2) 1.28514(17)
H6A H 0.1750 0.3275 1.3292
C30A C 0.2332(4) 0.2991(2) 1.23775(16)
C31A C -0.0573(4) 0.3546(2) 1.08778(17)
H7A H 0.0339 0.3491 1.0539
C32A C -0.1519(5) 0.4461(2) 1.0588(2)
H8A H -0.0868 0.4959 1.0601
H9A H -0.1777 0.4523 1.0108
H10A H -0.2520 0.4487 1.0869
C33A C -0.1655(5) 0.2763(2) 1.0943(2)
H11A H -0.2543 0.2792 1.1282
H12A H -0.2093 0.2819 1.0492
H13A H -0.1021 0.2178 1.1095
C34A C 0.4006(4) 0.2592(3) 1.25585(17)
H14A H 0.4482 0.2339 1.2176
C35A C 0.5073(5) 0.3308(3) 1.2632(3)
H15A H 0.4651 0.3547 1.3018
H16A H 0.6171 0.3033 1.2724
H17A H 0.5089 0.3808 1.2203
C36A C 0.3998(6) 0.1812(3) 1.3235(2)
H18A H 0.3175 0.1396 1.3223
H19A H 0.5059 0.1475 1.3284
H20A H 0.3754 0.2066 1.3629
C37A C 0.9733(6) 0.1230(4) 0.5899(2)
C38A C 0.9210(7) 0.1551(4) 0.5226(3)
C39A C 1.0092(8) 0.1302(5) 0.4688(2)
H21A H 0.9735 0.1521 0.4229
C40A C 1.1496(7) 0.0734(5) 0.4823(2)
H22A H 1.2099 0.0564 0.4455
C41A C 1.2018(5) 0.0413(4) 0.5495(3)
H23A H 1.2978 0.0025 0.5587
C42A C 1.1137(6) 0.0661(4) 0.6033(2)
C43A C 0.7641(11) 0.2110(6) 0.5073(5)
H24A H 0.7261 0.2301 0.5497
C44A C 0.6345(12) 0.1548(10) 0.4918(8)
H25A H 0.6198 0.1010 0.5312
H26A H 0.5325 0.1924 0.4838
H27A H 0.6685 0.1353 0.4503
C45A C 0.7811(17) 0.2974(7) 0.4477(7)
H28A H 0.8665 0.3320 0.4571
H29A H 0.8088 0.2807 0.4046
H30A H 0.6789 0.3350 0.4433
C46A C 1.1722(8) 0.0285(5) 0.6756(4)
H31A H 1.1008 0.0568 0.7070
C47A C 1.1599(11) -0.0754(5) 0.7006(5)
H32A H 1.0484 -0.0894 0.6980
H33A H 1.2309 -0.1047 0.6711
H34A H 1.1927 -0.0983 0.7486
C48A C 1.3444(8) 0.0517(7) 0.6803(5)
H35A H 1.3510 0.1181 0.6637
H36A H 1.3756 0.0300 0.7286
H37A H 1.4174 0.0221 0.6516
C49 C 0.8965(6) 0.7060(4) 0.0810(3)
H38 H 0.9995 0.6704 0.0922
H39 H 0.9156 0.7640 0.0464
H40 H 0.8259 0.6715 0.0624
C50 C 0.8138(7) 0.7253(4) 0.1484(4)
H41 H 0.8908 0.7543 0.1695
H42 H 0.7193 0.7693 0.1354
C51 C 0.7613(8) 0.6445(5) 0.1999(4)
H43 H 0.8561 0.6002 0.2114
H44 H 0.6836 0.6164 0.1785
C52 C 0.6832(8) 0.6574(5) 0.2674(4)
H45 H 0.7597 0.6878 0.2876
H46 H 0.5868 0.7004 0.2556
C53 C 0.6335(11) 0.5778(6) 0.3213(4)
H47 H 0.7301 0.5358 0.3354
H48 H 0.5598 0.5455 0.3012
C54 C 0.5496(12) 0.5971(7) 0.3858(4)
H49 H 0.6203 0.6299 0.4060
H50 H 0.5258 0.5393 0.4198
H51 H 0.4489 0.6346 0.3733
Cl1 Cl 0.0364(6) 0.47571(18) 0.41680(15)
Cl2 Cl 0.3217(5) 0.3724(4) 0.4479(2)
C55 C 0.1261(14) 0.3785(7) 0.4679(5)
H52 H 0.1085 0.3779 0.5172
H53 H 0.0775 0.3248 0.4615
C56? C 0.0688(8) -0.1522(5) 1.4233(2)
C57? C 0.1548(7) -0.1838(5) 1.4832(3)
C58? C 0.0866(8) -0.1735(5) 1.5458(2)
C59? C -0.0676(8) -0.1316(6) 1.5484(3)
C60? C -0.1536(6) -0.1000(5) 1.4884(4)
C61? C -0.0854(7) -0.1103(5) 1.4259(3)
C62? C 0.3258(10) -0.2258(5) 1.4794(4)
C63? C 0.4484(11) -0.1692(7) 1.4979(6)
C64? C 0.3401(15) -0.3238(5) 1.5261(6)
C65? C -0.1743(11) -0.0745(7) 1.3613(5)
C66? C -0.1762(19) 0.0299(7) 1.3357(8)
C67? C -0.3405(14) -0.1078(12) 1.3660(9)
H54? H 0.1454 -0.1951 1.5867
H55? H -0.1142 -0.1246 1.5911
H56? H -0.2590 -0.0714 1.4902
H57? H 0.3514 -0.2278 1.4306
H58? H 0.4402 -0.1071 1.4667
H59? H 0.5573 -0.1972 1.4931
H60? H 0.4267 -0.1668 1.5459
H61? H 0.2604 -0.3594 1.5137
H62? H 0.3204 -0.3235 1.5746
H63? H 0.4487 -0.3514 1.5199
H64? H -0.1113 -0.0983 1.3252
H65? H -0.0653 0.0485 1.3303
H66? H -0.2372 0.0566 1.3695
H67? H -0.2273 0.0514 1.2910
H68? H -0.3339 -0.1747 1.3819
H69? H -0.3868 -0.0873 1.3202
H70? H -0.4091 -0.0830 1.3988
loop_
_geom_bond_atom_site_label_1
_geom_bond_atom_site_label_2
_geom_bond_site_symmetry_1
_geom_bond_site_symmetry_2
S1 C4 1_555 1_555
N1 C1 1_555 1_555
N2 C10 1_555 1_555
O1 C1 1_555 1_555
O2 C20 1_555 1_555
O3 C11 1_555 1_555
O4 C10 1_555 1_555
C1 C2 1_555 1_555
C2 C3 1_555 1_555
C3 H1 1_555 1_555
C4 C3 1_555 1_555
C5 C4 1_555 1_555
C6 C5 1_555 1_555
C7 S1 1_555 1_555
C8 C7 1_555 1_555
H2 C8 1_555 1_555
C9 C8 1_555 1_555
C10 C9 1_555 1_555
C11 N2 1_555 1_555
C12 C11 1_555 1_555
C13 C9 1_555 1_555
C14 C6 1_555 1_555
C15 C14 1_555 1_555
C16 C15 1_555 1_555
C17 C5 1_555 1_555
C18 C2 1_555 1_555
C19 C18 1_555 1_555
C20 N1 1_555 1_555
C21 C22 1_555 1_555
C22 C19 1_555 1_555
C23 C16 1_555 1_555
C24 C12 1_555 1_555
H3 C24 1_555 1_555
C25 N1 1_555 1_555
C26 C25 1_555 1_555
C27 C26 1_555 1_555
H4 C27 1_555 1_555
C28 C27 1_555 1_555
H5 C28 1_555 1_555
C29 C28 1_555 1_555
H6 C29 1_555 1_555
C30 C25 1_555 1_555
C31 C26 1_555 1_555
H7 C31 1_555 1_555
C32 C31 1_555 1_555
H8 C32 1_555 1_555
H9 C32 1_555 1_555
H10 C32 1_555 1_555
C33 C31 1_555 1_555
H11 C33 1_555 1_555
H12 C33 1_555 1_555
H13 C33 1_555 1_555
C34 C30 1_555 1_555
H14 C34 1_555 1_555
C35 C34 1_555 1_555
H15 C35 1_555 1_555
H16 C35 1_555 1_555
H17 C35 1_555 1_555
C36 C34 1_555 1_555
H18 C36 1_555 1_555
H19 C36 1_555 1_555
H20 C36 1_555 1_555
C37 N2 1_555 1_555
C38 C37 1_555 1_555
C39 C38 1_555 1_555
H21 C39 1_555 1_555
C40 C39 1_555 1_555
H22 C40 1_555 1_555
C41 C40 1_555 1_555
H23 C41 1_555 1_555
C42 C37 1_555 1_555
C43 C38 1_555 1_555
H24 C43 1_555 1_555
C44 C43 1_555 1_555
H25 C44 1_555 1_555
H26 C44 1_555 1_555
H27 C44 1_555 1_555
C45 C43 1_555 1_555
H28 C45 1_555 1_555
H29 C45 1_555 1_555
H30 C45 1_555 1_555
C46 C42 1_555 1_555
H31 C46 1_555 1_555
C47 C46 1_555 1_555
H32 C47 1_555 1_555
H33 C47 1_555 1_555
H34 C47 1_555 1_555
C48 C46 1_555 1_555
H35 C48 1_555 1_555
H36 C48 1_555 1_555
H37 C48 1_555 1_555
C49 H38 1_555 1_555
H39 C49 1_555 1_555
H40 C49 1_555 1_555
C50 C49 1_555 1_555
H41 C50 1_555 1_555
H42 C50 1_555 1_555
C51 C50 1_555 1_555
H43 C51 1_555 1_555
H44 C51 1_555 1_555
C52 C51 1_555 1_555
H45 C52 1_555 1_555
H46 C52 1_555 1_555
C53 C52 1_555 1_555
H47 C53 1_555 1_555
H48 C53 1_555 1_555
C54 C53 1_555 1_555
H49 C54 1_555 1_555
H50 C54 1_555 1_555
H51 C54 1_555 1_555
Cl1 C55 1_555 1_555
Cl2 C55 1_555 1_555
C55 H52 1_555 1_555
H53 C55 1_555 1_555
S1A C4A 1_555 1_555
N1A C1A 1_555 1_555
N2A C10A 1_555 1_555
O1A C1A 1_555 1_555
O2A C20A 1_555 1_555
O3A C11A 1_555 1_555
O4A C10A 1_555 1_555
C1A C2A 1_555 1_555
C2A C3A 1_555 1_555
C3A H1A 1_555 1_555
C4A C3A 1_555 1_555
C5A C4A 1_555 1_555
C6A C5A 1_555 1_555
C7A S1A 1_555 1_555
C8A C7A 1_555 1_555
H2A C8A 1_555 1_555
C9A C8A 1_555 1_555
C10A C9A 1_555 1_555
C11A N2A 1_555 1_555
C12A C11A 1_555 1_555
C13A C9A 1_555 1_555
C14A C6A 1_555 1_555
C15A C21 1_555 1_555
C16A C15A 1_555 1_555
C17A C5A 1_555 1_555
C18A C2A 1_555 1_555
C19A C18A 1_555 1_555
C20A N1A 1_555 1_555
C21A C15 1_555 1_555
C22A C19A 1_555 1_555
C23A C23 1_555 1_555
C24A C21 1_555 1_555
H3A C24A 1_555 1_555
C25A N1A 1_555 1_555
C26A C25A 1_555 1_555
C27A C26A 1_555 1_555
H4A C27A 1_555 1_555
C28A C27A 1_555 1_555
H5A C28A 1_555 1_555
C29A C28A 1_555 1_555
H6A C29A 1_555 1_555
C30A C25A 1_555 1_555
C31A C26A 1_555 1_555
H7A C31A 1_555 1_555
C32A C31A 1_555 1_555
H8A C32A 1_555 1_555
H9A C32A 1_555 1_555
H10A C32A 1_555 1_555
C33A C31A 1_555 1_555
H11A C33A 1_555 1_555
H12A C33A 1_555 1_555
H13A C33A 1_555 1_555
C34A C30A 1_555 1_555
H14A C34A 1_555 1_555
C35A C34A 1_555 1_555
H15A C35A 1_555 1_555
H16A C35A 1_555 1_555
H17A C35A 1_555 1_555
C36A C34A 1_555 1_555
H18A C36A 1_555 1_555
H19A C36A 1_555 1_555
H20A C36A 1_555 1_555
C37A N2A 1_555 1_555
C38A C37A 1_555 1_555
C39A C38A 1_555 1_555
H21A C39A 1_555 1_555
C40A C39A 1_555 1_555
H22A C40A 1_555 1_555
C41A C40A 1_555 1_555
H23A C41A 1_555 1_555
C42A C37A 1_555 1_555
C43A C38A 1_555 1_555
H24A C43A 1_555 1_555
C44A C43A 1_555 1_555
H25A C44A 1_555 1_555
H26A C44A 1_555 1_555
H27A C44A 1_555 1_555
C45A C43A 1_555 1_555
H28A C45A 1_555 1_555
H29A C45A 1_555 1_555
H30A C45A 1_555 1_555
C46A C42A 1_555 1_555
H31A C46A 1_555 1_555
C47A C46A 1_555 1_555
H32A C47A 1_555 1_555
H33A C47A 1_555 1_555
H34A C47A 1_555 1_555
C48A C46A 1_555 1_555
H35A C48A 1_555 1_555
H36A C48A 1_555 1_555
H37A C48A 1_555 1_555
C6 C7 1_555 1_555
C12 C13 1_555 1_555
C13 C14 1_555 1_555
C16 C17 1_555 1_555
C17 C18 1_555 1_555
C19 C20 1_555 1_555
C22 C23 1_555 1_555
C24 C21A 1_555 1_555
C29 C30 1_555 1_555
C41 C42 1_555 1_555
C6A C7A 1_555 1_555
C12A C13A 1_555 1_555
C12A C24A 1_555 1_555
C13A C14A 1_555 1_555
C14A C15A 1_555 1_555
C16A C17A 1_555 1_555
C16A C23A 1_555 1_555
C17A C18A 1_555 1_555
C19A C20A 1_555 1_555
C21A C22A 1_555 1_555
C22A C23A 1_555 1_555
C29A C30A 1_555 1_555
C41A C42A 1_555 1_555

#END
