
#######################################################################
#
#                 Cambridge Crystallographic Data Centre
#                                CCDC 
#
#######################################################################
#
# If this CIF has been generated from an entry in the Cambridge 
# Structural Database, then it will include bibliographic, chemical, 
# crystal, experimental, refinement or atomic coordinate data resulting 
# from the CCDC's data processing and validation procedures.
#
#######################################################################

data_XUQXUD
_chemical_formula_moiety         'C20 H25 N1 O6'
_chemical_name_systematic        
2,2,6',6'-Tetramethyl-4'-(4-methylphenyl)dihydro-5'H-spiro[1,3-dioxolo[4,5-c]pyran-6,2'-[1,4]oxazinane]-5',7(4H)-dione
_symmetry_cell_setting           orthorhombic
_symmetry_space_group_name_H-M   'P 21 21 21'
_symmetry_Int_Tables_number      19
_space_group_name_Hall           'P 2ac 2ab'
loop_
_symmetry_equiv_pos_site_id
_symmetry_equiv_pos_as_xyz
1 x,y,z
2 1/2-x,-y,1/2+z
3 -x,1/2+y,1/2-z
4 1/2+x,1/2-y,-z
_cell_length_a                   10.4164(3)
_cell_length_b                   17.5391(5)
_cell_length_c                   21.0938(6)
_cell_angle_alpha                90
_cell_angle_beta                 90
_cell_angle_gamma                90
_cell_volume                     3853.72
_exptl_crystal_colour            colorless
_exptl_crystal_description       plate
_cell_formula_units_Z            8
loop_
_atom_site_label
_atom_site_type_symbol
_atom_site_fract_x
_atom_site_fract_y
_atom_site_fract_z
N1 N 0.3810(2) 0.03911(12) 0.10693(10)
O1 O 0.18902(17) 0.10497(10) 0.18298(8)
O2 O 0.42688(19) 0.16080(12) 0.27703(9)
O3 O 0.2414(2) 0.25656(11) 0.32607(9)
O4 O 0.0913(2) 0.16334(11) 0.30830(9)
O5 O 0.32660(19) 0.19391(10) 0.13319(8)
O6 O 0.3490(2) 0.05984(11) 0.00166(8)
C1 C 0.3135(2) 0.13747(15) 0.18012(12)
C2 C 0.0866(3) 0.15892(16) 0.19290(12)
H1 H 0.0061 0.1314 0.1963
H2 H 0.0809 0.1922 0.1563
C3 C 0.1044(3) 0.20689(15) 0.25134(12)
H3 H 0.0420 0.2487 0.2513
C4 C 0.2386(3) 0.23867(15) 0.26050(12)
H4 H 0.2508 0.2847 0.2349
C5 C 0.3382(3) 0.17843(14) 0.24324(12)
C6 C 0.1515(3) 0.20607(16) 0.35755(13)
C7 C 0.2230(4) 0.15157(19) 0.40020(14)
H5 H 0.2826 0.1223 0.3754
H6 H 0.1630 0.1179 0.4204
H7 H 0.2688 0.1799 0.4319
C8 C 0.0547(4) 0.2552(2) 0.39298(17)
H8 H 0.0119 0.2883 0.3636
H9 H 0.0985 0.2852 0.4243
H10 H -0.0073 0.2230 0.4134
C9 C 0.4062(3) 0.07266(14) 0.16945(11)
H11 H 0.4938 0.0914 0.1713
H12 H 0.3954 0.0344 0.2022
C10 C 0.3554(2) 0.08417(15) 0.05577(12)
C11 C 0.3291(3) 0.16923(15) 0.06686(11)
C12 C 0.1991(3) 0.18811(16) 0.03736(13)
H13 H 0.1806 0.2412 0.0436
H14 H 0.1336 0.1579 0.0572
H15 H 0.2015 0.1771 -0.0072
C13 C 0.4369(3) 0.21525(17) 0.03620(13)
H16 H 0.4216 0.2687 0.0427
H17 H 0.4393 0.2047 -0.0084
H18 H 0.5175 0.2013 0.0550
C14 C 0.3859(3) -0.04215(15) 0.10043(12)
C15 C 0.4852(3) -0.08287(16) 0.12772(13)
H19 H 0.5519 -0.0573 0.1478
C16 C 0.4853(3) -0.16215(17) 0.12514(14)
H20 H 0.5527 -0.1891 0.1435
C17 C 0.3867(4) -0.20156(17) 0.09567(14)
C18 C 0.2870(3) -0.15986(17) 0.06932(13)
H21 H 0.2193 -0.1854 0.0500
C19 C 0.2860(3) -0.08055(16) 0.07124(13)
H22 H 0.2186 -0.0535 0.0530
C20 C 0.3860(5) -0.28762(17) 0.09295(17)
H23 H 0.4617 -0.3070 0.1134
H24 H 0.3848 -0.3039 0.0495
H25 H 0.3112 -0.3067 0.1143
N2 N 0.7244(2) 0.28286(12) 0.18080(11)
O7 O 0.59332(18) 0.38718(10) 0.10297(8)
O8 O 0.37741(19) 0.39632(11) 0.22268(9)
O9 O 0.36927(19) 0.46826(12) 0.04768(9)
O10 O 0.28271(19) 0.50837(11) 0.14203(9)
O11 O 0.67153(19) 0.44035(10) 0.19779(9)
O12 O 0.93264(18) 0.31274(11) 0.16084(9)
C21 C 0.5815(2) 0.39082(14) 0.16991(12)
C22 C 0.5932(3) 0.46066(15) 0.07299(12)
H26 H 0.6072 0.4542 0.0278
H27 H 0.6637 0.4907 0.0897
C23 C 0.4690(2) 0.50321(15) 0.08328(12)
H28 H 0.4790 0.5565 0.0701
C24 C 0.4165(2) 0.49987(15) 0.15080(12)
H29 H 0.4494 0.5433 0.1750
C25 C 0.4498(3) 0.42558(15) 0.18553(11)
C26 C 0.2497(3) 0.47663(15) 0.08101(13)
C27 C 0.1630(3) 0.53376(18) 0.04783(15)
H30 H 0.2054 0.5823 0.0457
H31 H 0.0843 0.5389 0.0711
H32 H 0.1446 0.5162 0.0057
C28 C 0.1905(3) 0.39856(17) 0.08641(15)
H33 H 0.2491 0.3650 0.1077
H34 H 0.1727 0.3791 0.0448
H35 H 0.1121 0.4018 0.1101
C29 C 0.5945(3) 0.31015(15) 0.19463(13)
H36 H 0.5793 0.3092 0.2400
H37 H 0.5317 0.2774 0.1743
C30 C 0.8249(3) 0.33220(15) 0.17764(12)
C31 C 0.8037(3) 0.41253(15) 0.20328(13)
C32 C 0.8900(3) 0.46938(15) 0.17029(14)
H38 H 0.8700 0.4705 0.1259
H39 H 0.9781 0.4546 0.1759
H40 H 0.8768 0.5191 0.1881
C33 C 0.8330(3) 0.40841(17) 0.27446(13)
H41 H 0.8213 0.4579 0.2931
H42 H 0.9201 0.3922 0.2806
H43 H 0.7759 0.3726 0.2943
C34 C 0.7457(3) 0.20275(14) 0.16968(12)
C35 C 0.7767(3) 0.17691(15) 0.10928(12)
H44 H 0.7799 0.2108 0.0754
C36 C 0.8030(3) 0.09975(16) 0.10000(13)
H45 H 0.8253 0.0828 0.0597
C37 C 0.7967(3) 0.04748(15) 0.14973(13)
C38 C 0.7633(3) 0.07438(15) 0.20950(13)
H46 H 0.7579 0.0404 0.2432
C39 C 0.7377(3) 0.15143(15) 0.21985(12)
H47 H 0.7153 0.1685 0.2601
C40 C 0.8323(3) -0.03502(16) 0.13941(16)
H48 H 0.8219 -0.0627 0.1783
H49 H 0.9202 -0.0382 0.1259
H50 H 0.7777 -0.0566 0.1075
loop_
_geom_bond_atom_site_label_1
_geom_bond_atom_site_label_2
_geom_bond_site_symmetry_1
_geom_bond_site_symmetry_2
N1 C9 1_555 1_555
O1 C1 1_555 1_555
O2 C5 1_555 1_555
O3 C4 1_555 1_555
O4 C3 1_555 1_555
O5 C1 1_555 1_555
O6 C10 1_555 1_555
C1 C5 1_555 1_555
C2 O1 1_555 1_555
H1 C2 1_555 1_555
H2 C2 1_555 1_555
C3 C2 1_555 1_555
H3 C3 1_555 1_555
C4 C3 1_555 1_555
H4 C4 1_555 1_555
C5 C4 1_555 1_555
C6 O3 1_555 1_555
C7 C6 1_555 1_555
H5 C7 1_555 1_555
H6 C7 1_555 1_555
H7 C7 1_555 1_555
C8 C6 1_555 1_555
H8 C8 1_555 1_555
H9 C8 1_555 1_555
H10 C8 1_555 1_555
C9 C1 1_555 1_555
H11 C9 1_555 1_555
H12 C9 1_555 1_555
C10 N1 1_555 1_555
C11 O5 1_555 1_555
C12 C11 1_555 1_555
H13 C12 1_555 1_555
H14 C12 1_555 1_555
H15 C12 1_555 1_555
C13 C11 1_555 1_555
H16 C13 1_555 1_555
H17 C13 1_555 1_555
H18 C13 1_555 1_555
C14 N1 1_555 1_555
C15 C14 1_555 1_555
H19 C15 1_555 1_555
C16 C15 1_555 1_555
H20 C16 1_555 1_555
C17 C16 1_555 1_555
C18 C17 1_555 1_555
H21 C18 1_555 1_555
C19 C14 1_555 1_555
H22 C19 1_555 1_555
C20 C17 1_555 1_555
H23 C20 1_555 1_555
H24 C20 1_555 1_555
H25 C20 1_555 1_555
N2 C29 1_555 1_555
O7 C21 1_555 1_555
O8 C25 1_555 1_555
O9 C23 1_555 1_555
O10 C24 1_555 1_555
O11 C21 1_555 1_555
O12 C30 1_555 1_555
C21 C25 1_555 1_555
C22 O7 1_555 1_555
H26 C22 1_555 1_555
H27 C22 1_555 1_555
C23 C22 1_555 1_555
H28 C23 1_555 1_555
C24 C23 1_555 1_555
H29 C24 1_555 1_555
C25 C24 1_555 1_555
C26 O9 1_555 1_555
C27 C26 1_555 1_555
H30 C27 1_555 1_555
H31 C27 1_555 1_555
H32 C27 1_555 1_555
C28 C26 1_555 1_555
H33 C28 1_555 1_555
H34 C28 1_555 1_555
H35 C28 1_555 1_555
C29 C21 1_555 1_555
H36 C29 1_555 1_555
H37 C29 1_555 1_555
C30 N2 1_555 1_555
C31 O11 1_555 1_555
C32 C31 1_555 1_555
H38 C32 1_555 1_555
H39 C32 1_555 1_555
H40 C32 1_555 1_555
C33 C31 1_555 1_555
H41 C33 1_555 1_555
H42 C33 1_555 1_555
H43 C33 1_555 1_555
C34 N2 1_555 1_555
C35 C34 1_555 1_555
H44 C35 1_555 1_555
C36 C35 1_555 1_555
H45 C36 1_555 1_555
C37 C36 1_555 1_555
C38 C37 1_555 1_555
H46 C38 1_555 1_555
C39 C34 1_555 1_555
H47 C39 1_555 1_555
C40 C37 1_555 1_555
H48 C40 1_555 1_555
H49 C40 1_555 1_555
H50 C40 1_555 1_555
O4 C6 1_555 1_555
C10 C11 1_555 1_555
C18 C19 1_555 1_555
O10 C26 1_555 1_555
C30 C31 1_555 1_555
C38 C39 1_555 1_555

#END
