
#######################################################################
#
#                 Cambridge Crystallographic Data Centre
#                                CCDC 
#
#######################################################################
#
# If this CIF has been generated from an entry in the Cambridge 
# Structural Database, then it will include bibliographic, chemical, 
# crystal, experimental, refinement or atomic coordinate data resulting 
# from the CCDC's data processing and validation procedures.
#
#######################################################################

data_XURCUK
_chemical_formula_moiety         'C20 H21 N1 O5 S1'
_chemical_name_systematic        
2,2-dimethyl-5-((4-methylphenyl)sulfonyl)-6-(3-nitrophenyl)-3,4-dihydro-2H-pyran
_symmetry_cell_setting           triclinic
_symmetry_space_group_name_H-M   'P -1'
_symmetry_Int_Tables_number      2
_space_group_name_Hall           '-P 1'
loop_
_symmetry_equiv_pos_site_id
_symmetry_equiv_pos_as_xyz
1 x,y,z
2 -x,-y,-z
_cell_length_a                   9.0782(4)
_cell_length_b                   9.6023(5)
_cell_length_c                   11.7138(6)
_cell_angle_alpha                73.4370(10)
_cell_angle_beta                 77.7750(10)
_cell_angle_gamma                70.6410(10)
_cell_volume                     915.609
_exptl_crystal_colour            colorless
_cell_formula_units_Z            2
loop_
_atom_site_label
_atom_site_type_symbol
_atom_site_fract_x
_atom_site_fract_y
_atom_site_fract_z
S1 S -0.09360(4) 0.38412(4) 0.17907(3)
O1 O -0.23637(17) -0.25180(16) 0.45815(12)
O2 O -0.17972(15) -0.08943(14) 0.52271(10)
O3 O 0.33163(11) 0.08000(11) 0.17146(9)
O4 O -0.11092(12) 0.54462(12) 0.13482(9)
O5 O -0.15878(12) 0.31166(12) 0.11802(9)
N1 N -0.16882(15) -0.15586(15) 0.44520(11)
C1 C -0.4333(2) 0.3189(2) 0.68784(14)
H1 H -0.4050 0.3799 0.7294
H2 H -0.4052 0.2124 0.7321
H3 H -0.5468 0.3558 0.6835
C2 C -0.34541(18) 0.33227(17) 0.56275(13)
C3 C -0.38117(19) 0.27270(19) 0.48007(15)
H4 H -0.4612 0.2229 0.5033
C4 C -0.30179(18) 0.28499(18) 0.36456(14)
H5 H -0.3273 0.2436 0.3092
C5 C -0.18516(17) 0.35768(16) 0.32976(13)
C6 C 0.10951(16) 0.29644(16) 0.18119(12)
C7 C 0.17414(16) 0.14770(16) 0.18441(12)
C8 C 0.09157(16) 0.03043(16) 0.20474(13)
C9 C 0.00037(16) -0.00629(16) 0.31380(13)
H6 H -0.0128 0.0445 0.3756
C10 C -0.07077(17) -0.11871(16) 0.33007(13)
C11 C -0.05355(18) -0.19774(17) 0.24349(13)
H7 H -0.1056 -0.2732 0.2570
C12 C 0.43876(17) 0.17555(17) 0.13860(13)
C13 C 0.37136(17) 0.30359(17) 0.20449(13)
H8 H 0.4424 0.3688 0.1828
H9 H 0.3652 0.2601 0.2922
C14 C 0.20765(17) 0.39969(17) 0.17257(13)
H10 H 0.1568 0.4673 0.2285
H11 H 0.2162 0.4636 0.0900
C15 C -0.22754(19) 0.40377(18) 0.52645(14)
H12 H -0.2012 0.4442 0.5820
C16 C -0.14721(18) 0.41767(17) 0.41089(13)
H13 H -0.0673 0.4676 0.3874
C17 C 0.45655(18) 0.23327(18) 0.00280(13)
H14 H 0.5029 0.1470 -0.0351
H15 H 0.5253 0.2995 -0.0212
H16 H 0.3529 0.2905 -0.0228
C18 C 0.59130(17) 0.06661(18) 0.18151(14)
H17 H 0.5758 0.0326 0.2692
H18 H 0.6737 0.1181 0.1573
H19 H 0.6230 -0.0213 0.1457
C19 C 0.11417(17) -0.05056(17) 0.11756(13)
H20 H 0.1799 -0.0282 0.0442
C20 C 0.04163(18) -0.16358(17) 0.13682(13)
H21 H 0.0575 -0.2175 0.0766
loop_
_geom_bond_atom_site_label_1
_geom_bond_atom_site_label_2
_geom_bond_site_symmetry_1
_geom_bond_site_symmetry_2
S1 O4 1_555 1_555
O1 N1 1_555 1_555
O2 N1 1_555 1_555
O3 C7 1_555 1_555
O5 S1 1_555 1_555
N1 C10 1_555 1_555
C1 H1 1_555 1_555
H2 C1 1_555 1_555
H3 C1 1_555 1_555
C2 C1 1_555 1_555
C3 C2 1_555 1_555
H4 C3 1_555 1_555
C4 C3 1_555 1_555
H5 C4 1_555 1_555
C5 S1 1_555 1_555
C6 S1 1_555 1_555
C7 C6 1_555 1_555
C8 C7 1_555 1_555
C9 C8 1_555 1_555
H6 C9 1_555 1_555
C10 C9 1_555 1_555
C11 C10 1_555 1_555
H7 C11 1_555 1_555
C12 O3 1_555 1_555
C13 C12 1_555 1_555
H8 C13 1_555 1_555
H9 C13 1_555 1_555
C14 C6 1_555 1_555
H10 C14 1_555 1_555
H11 C14 1_555 1_555
C15 C2 1_555 1_555
H12 C15 1_555 1_555
C16 C5 1_555 1_555
H13 C16 1_555 1_555
C17 C12 1_555 1_555
H14 C17 1_555 1_555
H15 C17 1_555 1_555
H16 C17 1_555 1_555
C18 C12 1_555 1_555
H17 C18 1_555 1_555
H18 C18 1_555 1_555
H19 C18 1_555 1_555
C19 C8 1_555 1_555
H20 C19 1_555 1_555
C20 C11 1_555 1_555
H21 C20 1_555 1_555
C4 C5 1_555 1_555
C13 C14 1_555 1_555
C15 C16 1_555 1_555
C19 C20 1_555 1_555

#END
