
#######################################################################
#
#                 Cambridge Crystallographic Data Centre
#                                CCDC 
#
#######################################################################
#
# If this CIF has been generated from an entry in the Cambridge 
# Structural Database, then it will include bibliographic, chemical, 
# crystal, experimental, refinement or atomic coordinate data resulting 
# from the CCDC's data processing and validation procedures.
#
#######################################################################

data_XURCOE
_chemical_formula_moiety         'C20 H22 O3 S1'
_chemical_name_systematic        
2,2-dimethyl-5-((4-methylphenyl)sulfonyl)-6-phenyl-3,4-dihydro-2H-pyran
_symmetry_cell_setting           monoclinic
_symmetry_space_group_name_H-M   'P 21/n'
_symmetry_Int_Tables_number      14
_space_group_name_Hall           '-P 2yn'
loop_
_symmetry_equiv_pos_site_id
_symmetry_equiv_pos_as_xyz
1 x,y,z
2 1/2-x,1/2+y,1/2-z
3 -x,-y,-z
4 1/2+x,1/2-y,1/2+z
_cell_length_a                   11.7068(7)
_cell_length_b                   6.0607(4)
_cell_length_c                   24.6616(15)
_cell_angle_alpha                90
_cell_angle_beta                 103.6740(10)
_cell_angle_gamma                90
_cell_volume                     1700.18
_exptl_crystal_colour            colorless
_exptl_crystal_description       Tabular
_cell_formula_units_Z            4
loop_
_atom_site_label
_atom_site_type_symbol
_atom_site_fract_x
_atom_site_fract_y
_atom_site_fract_z
S1 S 0.42965(3) 0.50989(6) 0.11046(2)
O1 O 0.46962(9) 0.33948(17) 0.07843(4)
O2 O 0.16968(8) 0.92437(18) 0.04104(4)
O3 O 0.38397(9) 0.44289(18) 0.15729(4)
C1 C 0.84956(13) 1.0887(3) 0.21084(6)
H1 H 0.8290 1.2449 0.2044
H2 H 0.9157 1.0531 0.1943
H3 H 0.8719 1.0597 0.2511
C2 C 0.74513(13) 0.9480(3) 0.18426(6)
C3 C 0.63101(13) 1.0212(2) 0.18173(6)
H4 H 0.6194 1.1622 0.1964
C4 C 0.53424(12) 0.8921(2) 0.15818(6)
H5 H 0.4570 0.9436 0.1569
C5 C 0.55152(12) 0.6864(2) 0.13644(5)
C6 C 0.33217(12) 0.6784(2) 0.06370(5)
C7 C 0.23776(12) 0.7765(2) 0.07553(5)
C8 C 0.18995(11) 0.7453(2) 0.12601(5)
C9 C 0.13255(12) 0.5501(3) 0.13315(6)
H6 H 0.1255 0.4350 0.1064
C10 C 0.08565(13) 0.5242(3) 0.17948(6)
H7 H 0.0462 0.3913 0.1844
C11 C 0.09624(13) 0.6919(3) 0.21859(6)
H8 H 0.0647 0.6730 0.2504
C12 C 0.19305(13) 0.9746(2) -0.01394(6)
C13 C 0.15090(14) 1.2107(3) -0.02485(6)
H9 H 0.0675 1.2195 -0.0246
H10 H 0.1615 1.2582 -0.0613
H11 H 0.1965 1.3069 0.0043
C14 C 0.11822(13) 0.8171(3) -0.05587(6)
H12 H 0.1403 0.6646 -0.0450
H13 H 0.1312 0.8456 -0.0931
H14 H 0.0350 0.8398 -0.0565
C15 C 0.32411(12) 0.9536(3) -0.01106(6)
H15 H 0.3671 1.0706 0.0136
H16 H 0.3378 0.9758 -0.0488
C16 C 0.37213(12) 0.7288(3) 0.01103(6)
H17 H 0.3430 0.6138 -0.0174
H18 H 0.4591 0.7300 0.0191
C17 C 0.15257(13) 0.8869(3) 0.21142(6)
H19 H 0.1598 1.0013 0.2384
C18 C 0.19861(12) 0.9156(3) 0.16477(6)
H20 H 0.2357 1.0505 0.1594
C19 C 0.66428(12) 0.6102(2) 0.13780(6)
H21 H 0.6755 0.4705 0.1224
C20 C 0.76038(12) 0.7414(3) 0.16210(6)
H22 H 0.8376 0.6893 0.1636
loop_
_geom_bond_atom_site_label_1
_geom_bond_atom_site_label_2
_geom_bond_site_symmetry_1
_geom_bond_site_symmetry_2
S1 O1 1_555 1_555
O2 C7 1_555 1_555
O3 S1 1_555 1_555
C1 H1 1_555 1_555
H2 C1 1_555 1_555
H3 C1 1_555 1_555
C2 C1 1_555 1_555
C3 C2 1_555 1_555
H4 C3 1_555 1_555
C4 C3 1_555 1_555
H5 C4 1_555 1_555
C5 S1 1_555 1_555
C6 S1 1_555 1_555
C7 C6 1_555 1_555
C8 C7 1_555 1_555
C9 C8 1_555 1_555
H6 C9 1_555 1_555
C10 C9 1_555 1_555
H7 C10 1_555 1_555
C11 C10 1_555 1_555
H8 C11 1_555 1_555
C12 O2 1_555 1_555
C13 C12 1_555 1_555
H9 C13 1_555 1_555
H10 C13 1_555 1_555
H11 C13 1_555 1_555
C14 C12 1_555 1_555
H12 C14 1_555 1_555
H13 C14 1_555 1_555
H14 C14 1_555 1_555
C15 C12 1_555 1_555
H15 C15 1_555 1_555
H16 C15 1_555 1_555
C16 C6 1_555 1_555
H17 C16 1_555 1_555
H18 C16 1_555 1_555
C17 C11 1_555 1_555
H19 C17 1_555 1_555
C18 C8 1_555 1_555
H20 C18 1_555 1_555
C19 C5 1_555 1_555
H21 C19 1_555 1_555
C20 C2 1_555 1_555
H22 C20 1_555 1_555
C4 C5 1_555 1_555
C15 C16 1_555 1_555
C17 C18 1_555 1_555
C19 C20 1_555 1_555

#END
