
#######################################################################
#
#                 Cambridge Crystallographic Data Centre
#                                CCDC 
#
#######################################################################
#
# If this CIF has been generated from an entry in the Cambridge 
# Structural Database, then it will include bibliographic, chemical, 
# crystal, experimental, refinement or atomic coordinate data resulting 
# from the CCDC's data processing and validation procedures.
#
#######################################################################

data_XURHUO
_chemical_formula_moiety         'C19 H18 O2'
_chemical_name_systematic        2-(3-Hydroxy-1-phenylpropyl)-1-naphthol
_symmetry_cell_setting           orthorhombic
_symmetry_space_group_name_H-M   'P 21 21 21'
_symmetry_Int_Tables_number      19
_space_group_name_Hall           'P 2ac 2ab'
loop_
_symmetry_equiv_pos_site_id
_symmetry_equiv_pos_as_xyz
1 x,y,z
2 1/2-x,-y,1/2+z
3 -x,1/2+y,1/2-z
4 1/2+x,1/2-y,-z
_cell_length_a                   5.788(2)
_cell_length_b                   10.571(4)
_cell_length_c                   23.447(10)
_cell_angle_alpha                90
_cell_angle_beta                 90
_cell_angle_gamma                90
_cell_volume                     1434.6
_exptl_crystal_colour            colorless
_exptl_crystal_description       stick
_cell_formula_units_Z            4
loop_
_atom_site_label
_atom_site_type_symbol
_atom_site_fract_x
_atom_site_fract_y
_atom_site_fract_z
C1 C 0.6570(3) 0.25395(16) 0.88497(8)
H1 H 0.5306 0.3065 0.8788
C2 C 0.6572(4) 0.13456(18) 0.86158(9)
H2 H 0.5325 0.1074 0.8398
C3 C 0.8417(4) 0.05579(17) 0.87056(8)
H3 H 0.8438 -0.0248 0.8546
C4 C 1.0211(4) 0.09647(17) 0.90286(9)
H4 H 1.1459 0.0430 0.9094
C5 C 1.0206(3) 0.21692(15) 0.92627(8)
H5 H 1.1451 0.2432 0.9483
C6 C 0.8387(3) 0.29789(14) 0.91730(6)
C7 C 0.8290(3) 0.43315(13) 0.93982(7)
H6 H 0.6877 0.4408 0.9626
C8 C 0.8083(3) 0.52541(13) 0.89039(6)
C9 C 0.9641(3) 0.51781(16) 0.84429(7)
H7 H 1.0782 0.4559 0.8448
C10 C 0.9526(3) 0.59802(16) 0.79939(8)
H8 H 1.0613 0.5921 0.7703
C11 C 0.7783(3) 0.69015(15) 0.79630(7)
C12 C 0.7567(4) 0.77323(18) 0.74944(8)
H9 H 0.8643 0.7696 0.7200
C13 C 0.5818(4) 0.85806(19) 0.74668(8)
H10 H 0.5711 0.9128 0.7157
C14 C 0.4182(4) 0.86362(18) 0.78994(8)
H11 H 0.2956 0.9202 0.7871
C15 C 0.4353(3) 0.78751(16) 0.83626(7)
H12 H 0.3256 0.7933 0.8651
C16 C 0.6172(3) 0.69990(15) 0.84119(6)
C17 C 0.6442(3) 0.61853(13) 0.88913(6)
C18 C 1.0315(3) 0.46547(14) 0.97887(7)
H13 H 1.0272 0.4099 1.0118
H14 H 1.1746 0.4492 0.9586
C19 C 1.0320(3) 0.60049(16) 0.99922(8)
H15 H 1.1677 0.6139 1.0227
H16 H 1.0447 0.6558 0.9664
O1 O 0.8338(2) 0.63562(12) 1.03086(5)
H17 H 0.7199 0.6333 1.0101
O2 O 0.5040(2) 0.63063(10) 0.93592(5)
H18 H 0.4506 0.7024 0.9370
loop_
_geom_bond_atom_site_label_1
_geom_bond_atom_site_label_2
_geom_bond_site_symmetry_1
_geom_bond_site_symmetry_2
C1 H1 1_555 1_555
C2 C1 1_555 1_555
H2 C2 1_555 1_555
C3 C2 1_555 1_555
H3 C3 1_555 1_555
C4 C3 1_555 1_555
H4 C4 1_555 1_555
C5 C4 1_555 1_555
H5 C5 1_555 1_555
C6 C1 1_555 1_555
C7 C6 1_555 1_555
H6 C7 1_555 1_555
C8 C7 1_555 1_555
C9 C8 1_555 1_555
H7 C9 1_555 1_555
C10 C9 1_555 1_555
H8 C10 1_555 1_555
C11 C10 1_555 1_555
C12 C11 1_555 1_555
H9 C12 1_555 1_555
C13 C12 1_555 1_555
H10 C13 1_555 1_555
C14 C13 1_555 1_555
H11 C14 1_555 1_555
C15 C14 1_555 1_555
H12 C15 1_555 1_555
C16 C11 1_555 1_555
C17 C8 1_555 1_555
C18 C7 1_555 1_555
H13 C18 1_555 1_555
H14 C18 1_555 1_555
C19 C18 1_555 1_555
H15 C19 1_555 1_555
H16 C19 1_555 1_555
O1 C19 1_555 1_555
H17 O1 1_555 1_555
O2 C17 1_555 1_555
H18 O2 1_555 1_555
C5 C6 1_555 1_555
C15 C16 1_555 1_555
C16 C17 1_555 1_555

#END
