
#######################################################################
#
#                 Cambridge Crystallographic Data Centre
#                                CCDC 
#
#######################################################################
#
# If this CIF has been generated from an entry in the Cambridge 
# Structural Database, then it will include bibliographic, chemical, 
# crystal, experimental, refinement or atomic coordinate data resulting 
# from the CCDC's data processing and validation procedures.
#
#######################################################################

data_XURKAW
_chemical_formula_moiety         'C29 H34 N1 P1'
_chemical_name_systematic        
(R,S)-2,6-Di-isopropyl-N-(2-diphenylphosphinocyclopentylidene)aniline
_symmetry_cell_setting           monoclinic
_symmetry_space_group_name_H-M   'P 21/n'
_symmetry_Int_Tables_number      14
_space_group_name_Hall           '-P 2yn'
loop_
_symmetry_equiv_pos_site_id
_symmetry_equiv_pos_as_xyz
1 x,y,z
2 1/2+x,1/2-y,1/2+z
3 -x,-y,-z
4 1/2-x,1/2+y,1/2-z
_cell_length_a                   16.8779(13)
_cell_length_b                   16.7624(13)
_cell_length_c                   18.4817(14)
_cell_angle_alpha                90
_cell_angle_beta                 97.356(3)
_cell_angle_gamma                90
_cell_volume                     5185.7
_exptl_crystal_colour            colorless
_exptl_crystal_description       rod
_cell_formula_units_Z            8
_exptl_crystal_recrystallization_method methanol
loop_
_atom_site_label
_atom_site_type_symbol
_atom_site_fract_x
_atom_site_fract_y
_atom_site_fract_z
P1 P 0.41383(2) 0.16650(3) 0.37514(2)
N1 N 0.25828(7) 0.20009(7) 0.27445(6)
C1 C 0.31071(9) 0.16235(9) 0.24582(8)
C2 C 0.30034(10) 0.10197(13) 0.18448(11)
H1 H 0.2653 0.1222 0.1431
H2 H 0.2789 0.0527 0.2005
C3 C 0.38421(11) 0.09114(15) 0.16437(12)
H3 H 0.3904 0.0390 0.1439
H4 H 0.3967 0.1306 0.1293
C4 C 0.43703(10) 0.10077(12) 0.23664(11)
H5 H 0.4912 0.1133 0.2287
H6 H 0.4373 0.0531 0.2658
C5 C 0.39844(8) 0.16961(9) 0.27406(8)
H7 H 0.4188 0.2197 0.2573
C6 C 0.51999(9) 0.14012(9) 0.39386(8)
C7 C 0.53944(10) 0.07259(11) 0.43477(9)
H8 H 0.4989 0.0428 0.4510
C8 C 0.61711(11) 0.04801(12) 0.45140(10)
H9 H 0.6290 0.0031 0.4797
C9 C 0.67731(11) 0.09080(12) 0.42709(10)
H10 H 0.7298 0.0745 0.4378
C10 C 0.65948(10) 0.15763(11) 0.38612(10)
H11 H 0.7004 0.1867 0.3697
C11 C 0.58196(9) 0.18235(10) 0.36954(9)
H12 H 0.5709 0.2276 0.3415
C12 C 0.41804(8) 0.27200(10) 0.40029(9)
C13 C 0.45428(11) 0.29266(14) 0.46947(11)
H13 H 0.4774 0.2537 0.5007
C14 C 0.45669(13) 0.36995(16) 0.49321(14)
H14 H 0.4820 0.3827 0.5393
C15 C 0.42276(12) 0.42852(14) 0.44989(14)
H15 H 0.4247 0.4804 0.4665
C16 C 0.38638(11) 0.41066(12) 0.38173(12)
H16 H 0.3629 0.4507 0.3520
C17 C 0.38368(10) 0.33291(10) 0.35724(10)
H17 H 0.3586 0.3215 0.3107
C18 C 0.17570(8) 0.18940(9) 0.24810(8)
C19 C 0.13366(9) 0.12796(10) 0.27759(9)
C20 C 0.05270(10) 0.12208(12) 0.25374(11)
H18 H 0.0234 0.0814 0.2713
C21 C 0.01475(11) 0.17495(13) 0.20478(11)
H19 H -0.0394 0.1695 0.1897
C22 C 0.05657(11) 0.23563(12) 0.17805(10)
H20 H 0.0302 0.2712 0.1451
C23 C 0.13769(9) 0.24491(10) 0.19935(8)
C24 C 0.17448(10) 0.07255(10) 0.33559(10)
H21 H 0.2299 0.0673 0.3262
C25 C 0.13854(17) -0.01057(13) 0.33321(18)
H22 H 0.1688 -0.0431 0.3690
H23 H 0.1399 -0.0329 0.2856
H24 H 0.0845 -0.0078 0.3437
C26 C 0.1754(2) 0.10797(18) 0.41063(12)
H25 H 0.2012 0.1585 0.4120
H26 H 0.2037 0.0736 0.4462
H27 H 0.1218 0.1144 0.4215
C27 C 0.18327(11) 0.31280(11) 0.17014(10)
H28 H 0.2340 0.3172 0.2016
C28 C 0.2023(3) 0.2947(2) 0.09375(16)
H29 H 0.2439 0.2560 0.0960
H30 H 0.2196 0.3424 0.0724
H31 H 0.1558 0.2749 0.0644
C29 C 0.1411(2) 0.39153(14) 0.1722(2)
H32 H 0.0912 0.3900 0.1413
H33 H 0.1740 0.4321 0.1554
H34 H 0.1319 0.4027 0.2215
P2 P 0.92090(2) 0.32793(3) 0.40902(2)
N2 N 0.76814(7) 0.31691(7) 0.29681(6)
C30 C 0.82338(8) 0.35896(9) 0.27710(8)
C31 C 0.81686(10) 0.42611(11) 0.22213(10)
H35 H 0.7865 0.4698 0.2386
H36 H 0.7915 0.4083 0.1750
C32 C 0.90286(10) 0.45009(13) 0.21753(12)
H37 H 0.9064 0.5062 0.2080
H38 H 0.9246 0.4213 0.1791
C33 C 0.94643(10) 0.42955(12) 0.29139(12)
H39 H 1.0030 0.4241 0.2888
H40 H 0.9382 0.4697 0.3273
C34 C 0.90935(8) 0.35002(9) 0.31082(8)
H41 H 0.9339 0.3074 0.2854
C35 C 1.02871(9) 0.34740(10) 0.42842(9)
C36 C 1.08568(9) 0.31183(11) 0.39144(10)
H42 H 1.0712 0.2704 0.3594
C37 C 1.16366(10) 0.33662(12) 0.40173(11)
H43 H 1.2014 0.3123 0.3766
C38 C 1.18638(12) 0.39757(13) 0.44903(11)
H44 H 1.2388 0.4151 0.4555
C39 C 1.13137(12) 0.43277(12) 0.48716(11)
H45 H 1.1464 0.4739 0.5193
C40 C 1.05319(11) 0.40746(10) 0.47709(10)
H46 H 1.0165 0.4310 0.5039
C41 C 0.91815(9) 0.21932(10) 0.41305(10)
C42 C 0.88714(10) 0.16978(11) 0.35738(12)
H47 H 0.8681 0.1918 0.3125
C43 C 0.88351(12) 0.08832(13) 0.36630(16)
H48 H 0.8632 0.0564 0.3274
C44 C 0.91001(14) 0.05547(16) 0.43198(19)
H49 H 0.9070 0.0011 0.4384
C45 C 0.94080(17) 0.1022(2) 0.48795(18)
H50 H 0.9591 0.0785 0.5323
C46 C 0.94451(13) 0.18312(17) 0.47895(14)
H51 H 0.9651 0.2138 0.5187
C47 C 0.68834(8) 0.32968(9) 0.26400(8)
C48 C 0.65763(10) 0.28283(10) 0.20472(9)
C49 C 0.57809(11) 0.29262(12) 0.17749(11)
H52 H 0.5565 0.2618 0.1383
C50 C 0.53079(11) 0.34565(12) 0.20732(12)
H53 H 0.4778 0.3512 0.1879
C51 C 0.56168(10) 0.39070(11) 0.26584(11)
H54 H 0.5287 0.4267 0.2856
C52 C 0.64069(9) 0.38431(9) 0.29579(9)
C53 C 0.70885(13) 0.22203(14) 0.17126(11)
H55 H 0.7606 0.2222 0.2015
C54 C 0.6757(2) 0.13909(14) 0.17400(17)
H56 H 0.6731 0.1246 0.2240
H57 H 0.7105 0.1034 0.1528
H58 H 0.6235 0.1364 0.1472
C55 C 0.7237(3) 0.24614(19) 0.09547(18)
H59 H 0.7520 0.2047 0.0744
H60 H 0.7550 0.2935 0.0984
H61 H 0.6741 0.2555 0.0655
C56 C 0.67481(10) 0.43216(10) 0.36197(9)
H62 H 0.7305 0.4430 0.3561
C57 C 0.67471(15) 0.38405(14) 0.43142(11)
H63 H 0.6213 0.3690 0.4374
H64 H 0.6966 0.4151 0.4726
H65 H 0.7065 0.3375 0.4282
C58 C 0.63430(13) 0.51235(12) 0.36751(15)
H66 H 0.6372 0.5414 0.3232
H67 H 0.6605 0.5415 0.4081
H68 H 0.5796 0.5043 0.3743
loop_
_geom_bond_atom_site_label_1
_geom_bond_atom_site_label_2
_geom_bond_site_symmetry_1
_geom_bond_site_symmetry_2
P1 C5 1_555 1_555
N1 C1 1_555 1_555
C1 C2 1_555 1_555
C2 H1 1_555 1_555
H2 C2 1_555 1_555
C3 C2 1_555 1_555
H3 C3 1_555 1_555
H4 C3 1_555 1_555
C4 C3 1_555 1_555
H5 C4 1_555 1_555
H6 C4 1_555 1_555
C5 C1 1_555 1_555
H7 C5 1_555 1_555
C6 P1 1_555 1_555
C7 C6 1_555 1_555
H8 C7 1_555 1_555
C8 C7 1_555 1_555
H9 C8 1_555 1_555
C9 C8 1_555 1_555
H10 C9 1_555 1_555
C10 C9 1_555 1_555
H11 C10 1_555 1_555
C11 C6 1_555 1_555
H12 C11 1_555 1_555
C12 P1 1_555 1_555
C13 C12 1_555 1_555
H13 C13 1_555 1_555
C14 C13 1_555 1_555
H14 C14 1_555 1_555
C15 C14 1_555 1_555
H15 C15 1_555 1_555
C16 C15 1_555 1_555
H16 C16 1_555 1_555
C17 C12 1_555 1_555
H17 C17 1_555 1_555
C18 N1 1_555 1_555
C19 C18 1_555 1_555
C20 C19 1_555 1_555
H18 C20 1_555 1_555
C21 C20 1_555 1_555
H19 C21 1_555 1_555
C22 C21 1_555 1_555
H20 C22 1_555 1_555
C23 C18 1_555 1_555
C24 C19 1_555 1_555
H21 C24 1_555 1_555
C25 C24 1_555 1_555
H22 C25 1_555 1_555
H23 C25 1_555 1_555
H24 C25 1_555 1_555
C26 C24 1_555 1_555
H25 C26 1_555 1_555
H26 C26 1_555 1_555
H27 C26 1_555 1_555
C27 C23 1_555 1_555
H28 C27 1_555 1_555
C28 C27 1_555 1_555
H29 C28 1_555 1_555
H30 C28 1_555 1_555
H31 C28 1_555 1_555
C29 C27 1_555 1_555
H32 C29 1_555 1_555
H33 C29 1_555 1_555
H34 C29 1_555 1_555
P2 C34 1_555 1_555
N2 C30 1_555 1_555
C30 C31 1_555 1_555
C31 H35 1_555 1_555
H36 C31 1_555 1_555
C32 C31 1_555 1_555
H37 C32 1_555 1_555
H38 C32 1_555 1_555
C33 C32 1_555 1_555
H39 C33 1_555 1_555
H40 C33 1_555 1_555
C34 C30 1_555 1_555
H41 C34 1_555 1_555
C35 P2 1_555 1_555
C36 C35 1_555 1_555
H42 C36 1_555 1_555
C37 C36 1_555 1_555
H43 C37 1_555 1_555
C38 C37 1_555 1_555
H44 C38 1_555 1_555
C39 C38 1_555 1_555
H45 C39 1_555 1_555
C40 C35 1_555 1_555
H46 C40 1_555 1_555
C41 P2 1_555 1_555
C42 C41 1_555 1_555
H47 C42 1_555 1_555
C43 C42 1_555 1_555
H48 C43 1_555 1_555
C44 C43 1_555 1_555
H49 C44 1_555 1_555
C45 C44 1_555 1_555
H50 C45 1_555 1_555
C46 C41 1_555 1_555
H51 C46 1_555 1_555
C47 N2 1_555 1_555
C48 C47 1_555 1_555
C49 C48 1_555 1_555
H52 C49 1_555 1_555
C50 C49 1_555 1_555
H53 C50 1_555 1_555
C51 C50 1_555 1_555
H54 C51 1_555 1_555
C52 C47 1_555 1_555
C53 C48 1_555 1_555
H55 C53 1_555 1_555
C54 C53 1_555 1_555
H56 C54 1_555 1_555
H57 C54 1_555 1_555
H58 C54 1_555 1_555
C55 C53 1_555 1_555
H59 C55 1_555 1_555
H60 C55 1_555 1_555
H61 C55 1_555 1_555
C56 C52 1_555 1_555
H62 C56 1_555 1_555
C57 C56 1_555 1_555
H63 C57 1_555 1_555
H64 C57 1_555 1_555
H65 C57 1_555 1_555
C58 C56 1_555 1_555
H66 C58 1_555 1_555
H67 C58 1_555 1_555
H68 C58 1_555 1_555
C4 C5 1_555 1_555
C10 C11 1_555 1_555
C16 C17 1_555 1_555
C22 C23 1_555 1_555
C33 C34 1_555 1_555
C39 C40 1_555 1_555
C45 C46 1_555 1_555
C51 C52 1_555 1_555

#END
