
#######################################################################
#
#                 Cambridge Crystallographic Data Centre
#                                CCDC 
#
#######################################################################
#
# If this CIF has been generated from an entry in the Cambridge 
# Structural Database, then it will include bibliographic, chemical, 
# crystal, experimental, refinement or atomic coordinate data resulting 
# from the CCDC's data processing and validation procedures.
#
#######################################################################

data_XURKEA
_chemical_formula_moiety         'C30 H36 N1 P1'
_chemical_name_systematic        
(R,S)-2,6-Diisopropyl-N-(2-diphenylphosphino-cyclohexylidene)aniline
_symmetry_cell_setting           triclinic
_symmetry_space_group_name_H-M   'P -1'
_symmetry_Int_Tables_number      2
_space_group_name_Hall           '-P 1'
loop_
_symmetry_equiv_pos_site_id
_symmetry_equiv_pos_as_xyz
1 x,y,z
2 -x,-y,-z
_cell_length_a                   10.610(2)
_cell_length_b                   11.637(4)
_cell_length_c                   12.044(4)
_cell_angle_alpha                72.33(3)
_cell_angle_beta                 65.56(2)
_cell_angle_gamma                86.80(2)
_cell_volume                     1285.76
_exptl_crystal_colour            colorless
_exptl_crystal_description       parallelepiped
_cell_formula_units_Z            2
_exptl_crystal_recrystallization_method methanol
loop_
_atom_site_label
_atom_site_type_symbol
_atom_site_fract_x
_atom_site_fract_y
_atom_site_fract_z
P1 P 0.12774(5) 0.60764(5) 0.20588(4)
N1 N -0.0149(1) 0.3164(1) 0.2247(1)
C1 C 0.0736(2) 0.3623(2) 0.2477(2)
C2 C 0.1023(2) 0.3155(2) 0.3662(2)
C3 C 0.2564(2) 0.2939(2) 0.3293(2)
C4 C 0.3522(2) 0.4044(2) 0.2291(2)
C5 C 0.3198(2) 0.4465(2) 0.1121(2)
C6 C 0.1658(2) 0.4720(2) 0.1465(2)
C7 C -0.1061(2) 0.2128(2) 0.3159(2)
C8 C -0.2374(2) 0.2305(2) 0.4011(2)
C9 C -0.3319(2) 0.1302(2) 0.4806(2)
C10 C -0.2977(2) 0.0147(2) 0.4761(2)
C11 C -0.1672(2) -0.0007(2) 0.3921(2)
C12 C -0.0680(2) 0.0961(2) 0.3098(2)
C13 C -0.0391(2) 0.6476(2) 0.1996(2)
C14 C -0.0885(2) 0.6276(2) 0.1164(2)
C15 C -0.2148(2) 0.6668(2) 0.1197(2)
C16 C -0.2930(2) 0.7280(2) 0.2025(2)
C17 C -0.2458(2) 0.7484(2) 0.2852(3)
C18 C -0.1205(2) 0.7071(2) 0.2846(2)
C19 C 0.2522(2) 0.7222(2) 0.0634(2)
C20 C 0.3622(2) 0.7675(2) 0.0752(2)
C21 C 0.4620(2) 0.8527(2) -0.0268(2)
C22 C 0.4505(3) 0.8946(2) -0.1413(3)
C23 C 0.3425(3) 0.8512(3) -0.1549(2)
C24 C 0.2430(2) 0.7648(2) -0.0533(2)
C25 C -0.2787(2) 0.3566(2) 0.4067(2)
C26 C -0.4084(3) 0.3857(3) 0.3842(3)
C27 C -0.2979(3) 0.3735(3) 0.5327(3)
C28 C 0.0723(2) 0.0739(2) 0.2177(2)
C29 C 0.1437(2) -0.0217(2) 0.2867(3)
C30 C 0.0614(3) 0.0376(2) 0.1108(2)
H1 H 0.036(2) 0.246(2) 0.422(2)
H2 H 0.079(2) 0.377(2) 0.414(2)
H3 H 0.282(2) 0.230(2) 0.283(2)
H4 H 0.275(2) 0.273(2) 0.404(2)
H5 H 0.452(2) 0.385(2) 0.203(2)
H6 H 0.338(2) 0.470(2) 0.276(2)
H7 H 0.333(2) 0.382(2) 0.069(2)
H8 H 0.378(2) 0.520(2) 0.053(2)
H9 H 0.148(2) 0.491(2) 0.070(2)
H10 H -0.424(2) 0.141(2) 0.540(2)
H11 H -0.361(2) -0.051(2) 0.523(2)
H12 H -0.144(2) -0.079(2) 0.383(2)
H13 H -0.037(2) 0.585(2) 0.052(2)
H14 H -0.248(2) 0.649(2) 0.069(2)
H15 H -0.381(2) 0.748(2) 0.204(2)
H16 H -0.305(3) 0.791(3) 0.351(2)
H17 H -0.086(2) 0.722(2) 0.337(2)
H18 H 0.366(2) 0.742(2) 0.152(2)
H19 H 0.537(2) 0.884(2) -0.013(2)
H20 H -0.203(2) 0.413(2) 0.337(2)
H21 H 0.129(2) 0.146(2) 0.181(2)
H22 H 0.523(2) 0.954(2) -0.214(2)
H23 H 0.331(3) 0.874(2) -0.236(2)
H24 H 0.169(2) 0.737(2) -0.072(2)
H25 H -0.433(3) 0.469(2) 0.382(2)
H26 H -0.392(3) 0.366(2) 0.314(2)
H27 H -0.488(3) 0.327(3) 0.450(3)
H28 H -0.312(3) 0.466(3) 0.522(2)
H29 H -0.359(3) 0.310(3) 0.595(3)
H30 H -0.220(3) 0.355(2) 0.544(2)
H31 H 0.236(2) -0.026(2) 0.232(2)
H32 H 0.154(3) 0.001(2) 0.352(2)
H33 H 0.091(3) -0.097(2) 0.320(2)
H34 H 0.153(2) 0.027(2) 0.050(2)
H35 H -0.007(3) -0.023(2) 0.141(2)
H36 H 0.008(3) 0.095(3) 0.062(3)
loop_
_geom_bond_atom_site_label_1
_geom_bond_atom_site_label_2
_geom_bond_site_symmetry_1
_geom_bond_site_symmetry_2
P1 C6 1_555 1_555
N1 C1 1_555 1_555
C1 C2 1_555 1_555
C2 C3 1_555 1_555
C3 C4 1_555 1_555
C4 C5 1_555 1_555
C5 C6 1_555 1_555
C6 C1 1_555 1_555
C7 N1 1_555 1_555
C8 C7 1_555 1_555
C9 C8 1_555 1_555
C10 C9 1_555 1_555
C11 C10 1_555 1_555
C12 C7 1_555 1_555
C13 P1 1_555 1_555
C14 C13 1_555 1_555
C15 C14 1_555 1_555
C16 C15 1_555 1_555
C17 C16 1_555 1_555
C18 C13 1_555 1_555
C19 P1 1_555 1_555
C20 C19 1_555 1_555
C21 C20 1_555 1_555
C22 C21 1_555 1_555
C23 C22 1_555 1_555
C24 C19 1_555 1_555
C25 C8 1_555 1_555
C26 C25 1_555 1_555
C27 C25 1_555 1_555
C28 C12 1_555 1_555
C29 C28 1_555 1_555
C30 C28 1_555 1_555
H1 C2 1_555 1_555
H2 C2 1_555 1_555
H3 C3 1_555 1_555
H4 C3 1_555 1_555
H5 C4 1_555 1_555
H6 C4 1_555 1_555
H7 C5 1_555 1_555
H8 C5 1_555 1_555
H9 C6 1_555 1_555
H10 C9 1_555 1_555
H11 C10 1_555 1_555
H12 C11 1_555 1_555
H13 C14 1_555 1_555
H14 C15 1_555 1_555
H15 C16 1_555 1_555
H16 C17 1_555 1_555
H17 C18 1_555 1_555
H18 C20 1_555 1_555
H19 C21 1_555 1_555
H20 C25 1_555 1_555
H21 C28 1_555 1_555
H22 C22 1_555 1_555
H23 C23 1_555 1_555
H24 C24 1_555 1_555
H25 C26 1_555 1_555
H26 C26 1_555 1_555
H27 C26 1_555 1_555
H28 C27 1_555 1_555
H29 C27 1_555 1_555
H30 C27 1_555 1_555
H31 C29 1_555 1_555
H32 C29 1_555 1_555
H33 C29 1_555 1_555
H34 C30 1_555 1_555
H35 C30 1_555 1_555
H36 C30 1_555 1_555
C11 C12 1_555 1_555
C17 C18 1_555 1_555
C23 C24 1_555 1_555

#END
