
#######################################################################
#
#                 Cambridge Crystallographic Data Centre
#                                CCDC 
#
#######################################################################
#
# If this CIF has been generated from an entry in the Cambridge 
# Structural Database, then it will include bibliographic, chemical, 
# crystal, experimental, refinement or atomic coordinate data resulting 
# from the CCDC's data processing and validation procedures.
#
#######################################################################

data_XURLED
_chemical_formula_moiety         'C24 H4 F14 S2'
_chemical_name_systematic        
2,6-bis(2,3,5,6-Tetrafluoro-4-(trifluoromethyl)phenyl)thieno[2,3-f][1]benzothiophene
_symmetry_cell_setting           triclinic
_symmetry_space_group_name_H-M   'P -1'
_symmetry_Int_Tables_number      2
_space_group_name_Hall           '-P 1'
loop_
_symmetry_equiv_pos_site_id
_symmetry_equiv_pos_as_xyz
1 x,y,z
2 -x,-y,-z
_cell_length_a                   6.3778(5)
_cell_length_b                   7.8235(6)
_cell_length_c                   10.9923(8)
_cell_angle_alpha                88.429(3)
_cell_angle_beta                 77.042(3)
_cell_angle_gamma                76.840(3)
_cell_volume                     520.314
_exptl_crystal_colour            yellow
_exptl_crystal_description       needle
_cell_formula_units_Z            1
loop_
_atom_site_label
_atom_site_type_symbol
_atom_site_fract_x
_atom_site_fract_y
_atom_site_fract_z
C1 C 0.4015(4) 0.6631(3) 0.5662(2)
H1 H 0.3368 0.7719 0.6103
C2 C 0.6082(4) 0.6344(3) 0.4853(2)
S1 S 0.76569(11) 0.78849(9) 0.45480(6)
C3 C 0.9761(10) 0.6374(8) 0.3533(7)
C4 C 0.9182(5) 0.4839(4) 0.3457(3)
H2 H 1.0120 0.3886 0.2942
C5 C 0.7058(4) 0.4729(3) 0.4201(2)
C6 C 1.1786(4) 0.6879(3) 0.2874(2)
C7 C 1.2132(4) 0.8555(3) 0.2964(2)
C8 C 1.4021(4) 0.9042(3) 0.2353(2)
C9 C 1.5717(4) 0.7887(3) 0.1582(2)
C10 C 1.5403(4) 0.6221(4) 0.1469(3)
C11 C 1.3514(4) 0.5736(3) 0.2091(3)
F1 F 1.0563(3) 0.9810(2) 0.36548(16)
F2 F 1.4150(3) 1.0691(2) 0.25027(15)
F3 F 1.6933(3) 0.4998(2) 0.0734(2)
F4 F 1.3404(3) 0.4089(2) 0.19093(19)
C12 C 1.7718(4) 0.8465(4) 0.0859(3)
F5 F 1.8345(12) 0.9515(9) 0.1584(7)
F6 F 1.7297(15) 0.942(2) -0.0115(9)
F7 F 1.9442(18) 0.7168(12) 0.0485(14)
C1A C 0.5985(4) 0.3369(3) 0.4338(2)
H1A H 0.6632 0.2281 0.3897
C2A C 0.3918(4) 0.3656(3) 0.5147(2)
S1A S 0.23431(11) 0.21151(9) 0.54520(6)
C3A C 0.0239(10) 0.3626(8) 0.6467(7)
C4A C 0.0818(5) 0.5161(4) 0.6543(3)
H2A H -0.0120 0.6114 0.7058
C5A C 0.2942(4) 0.5271(3) 0.5799(2)
C6A C -0.1786(4) 0.3121(3) 0.7126(2)
C7A C -0.2132(4) 0.1445(3) 0.7036(2)
C8A C -0.4021(4) 0.0958(3) 0.7647(2)
C9A C -0.5717(4) 0.2113(3) 0.8418(2)
C10A C -0.5403(4) 0.3779(4) 0.8531(3)
C11A C -0.3514(4) 0.4264(3) 0.7909(3)
F1A F -0.0563(3) 0.0190(2) 0.63452(16)
F2A F -0.4150(3) -0.0691(2) 0.74973(15)
F3A F -0.6933(3) 0.5002(2) 0.9266(2)
F4A F -0.3404(3) 0.5911(2) 0.80907(19)
C12A C -0.7718(4) 0.1535(4) 0.9141(3)
F5A F -0.8345(12) 0.0485(9) 0.8416(7)
F6A F -0.7297(15) 0.058(2) 1.0115(9)
F7A F -0.9442(18) 0.2832(12) 0.9515(14)
C13? C 0.800(3) 0.714(2) 0.4358(18)
H3? H 0.8078 0.8215 0.4714
C14? C 0.964(9) 0.635(5) 0.341(7)
S2? S 0.9449(10) 0.4160(8) 0.3088(5)
F8? F 1.952(3) 0.716(3) 0.073(2)
F9? F 1.820(3) 0.984(3) 0.129(3)
F10? F 1.753(3) 0.872(4) -0.0326(13)
loop_
_geom_bond_atom_site_label_1
_geom_bond_atom_site_label_2
_geom_bond_site_symmetry_1
_geom_bond_site_symmetry_2
C1 H1 1_555 1_555
C2 C1 1_555 1_555
S1 C2 1_555 1_555
C3 S1 1_555 1_555
C4 C3 1_555 1_555
H2 C4 1_555 1_555
C5 C2 1_555 1_555
C6 C3 1_555 1_555
C7 C6 1_555 1_555
C8 C7 1_555 1_555
C9 C8 1_555 1_555
C10 C9 1_555 1_555
C11 C6 1_555 1_555
F1 C7 1_555 1_555
F2 C8 1_555 1_555
F3 C10 1_555 1_555
F4 C11 1_555 1_555
C12 C9 1_555 1_555
F5 C12 1_555 1_555
F6 C12 1_555 1_555
F7 C12 1_555 1_555
C1A C5 1_555 1_555
H1A C1A 1_555 1_555
C2A C1A 1_555 1_555
S1A C2A 1_555 1_555
C3A S1A 1_555 1_555
C4A C3A 1_555 1_555
H2A C4A 1_555 1_555
C5A C1 1_555 1_555
C6A C3A 1_555 1_555
C7A C6A 1_555 1_555
C8A C7A 1_555 1_555
C9A C8A 1_555 1_555
C10A C9A 1_555 1_555
C11A C6A 1_555 1_555
F1A C7A 1_555 1_555
F2A C8A 1_555 1_555
F3A C10A 1_555 1_555
F4A C11A 1_555 1_555
C12A C9A 1_555 1_555
F5A C12A 1_555 1_555
F6A C12A 1_555 1_555
F7A C12A 1_555 1_555
C4 C5 1_555 1_555
C10 C11 1_555 1_555
C2A C5A 1_555 1_555
C4A C5A 1_555 1_555
C10A C11A 1_555 1_555

#END
