
#######################################################################
#
#                 Cambridge Crystallographic Data Centre
#                                CCDC 
#
#######################################################################
#
# If this CIF has been generated from an entry in the Cambridge 
# Structural Database, then it will include bibliographic, chemical, 
# crystal, experimental, refinement or atomic coordinate data resulting 
# from the CCDC's data processing and validation procedures.
#
#######################################################################

data_XURLON
_chemical_formula_moiety         'C46 H52 F10 O2 S2'
_chemical_name_systematic        
4,8-bis(Dodecyloxy)-2,6-bis(pentafluorophenyl)thieno[2,3-f][1]benzothiophene
_symmetry_cell_setting           triclinic
_symmetry_space_group_name_H-M   'P -1'
_symmetry_Int_Tables_number      2
_space_group_name_Hall           '-P 1'
loop_
_symmetry_equiv_pos_site_id
_symmetry_equiv_pos_as_xyz
1 x,y,z
2 -x,-y,-z
_cell_length_a                   4.6213(8)
_cell_length_b                   15.382(3)
_cell_length_c                   15.430(3)
_cell_angle_alpha                82.659(11)
_cell_angle_beta                 85.210(8)
_cell_angle_gamma                88.615(10)
_cell_volume                     1083.95
_exptl_crystal_colour            yellow
_exptl_crystal_description       'thin flat needle'
_cell_formula_units_Z            1
loop_
_atom_site_label
_atom_site_type_symbol
_atom_site_fract_x
_atom_site_fract_y
_atom_site_fract_z
F1 F -0.3712(10) 0.8137(3) 0.7199(3)
F2 F -0.7715(12) 0.7958(4) 0.8510(4)
F3 F -0.8912(11) 0.9240(4) 0.9574(3)
F4 F -0.5804(11) 1.0741(4) 0.9264(3)
F5 F -0.1664(10) 1.0941(3) 0.7977(3)
C1 C 0.4512(15) 0.9189(5) 0.4695(5)
C2 C 0.298(3) 0.9418(7) 0.5438(9)
S1 S 0.0398(5) 0.88198(17) 0.60820(14)
C3 C -0.026(3) 0.9698(8) 0.6776(8)
C4 C 0.153(3) 1.0312(8) 0.6529(7)
H1 H 0.1606 1.0805 0.6840
C5 C 0.342(3) 1.0228(6) 0.5761(7)
C6 C -0.2455(14) 0.9535(5) 0.7511(4)
C7 C -0.4106(16) 0.8788(5) 0.7694(5)
C8 C -0.6200(17) 0.8688(6) 0.8388(5)
C9 C -0.6762(17) 0.9347(6) 0.8911(5)
C10 C -0.5235(18) 1.0093(6) 0.8755(5)
C11 C -0.3105(17) 1.0185(6) 0.8073(4)
O1 O 0.3844(11) 0.8406(3) 0.4408(3)
C12 C 0.571(2) 0.7645(5) 0.4667(5)
H2 H 0.5143 0.7396 0.5279
H3 H 0.7763 0.7827 0.4629
C13 C 0.537(2) 0.6975(6) 0.4064(6)
H4 H 0.3293 0.6822 0.4097
H5 H 0.6458 0.6439 0.4277
C14 C 0.639(2) 0.7247(6) 0.3120(5)
H6 H 0.8483 0.7376 0.3087
H7 H 0.5364 0.7799 0.2917
C15 C 0.594(2) 0.6586(6) 0.2481(5)
H8 H 0.6926 0.6027 0.2685
H9 H 0.3839 0.6468 0.2494
C16 C 0.708(2) 0.6887(6) 0.1533(6)
H10 H 0.6156 0.7457 0.1337
H11 H 0.9200 0.6981 0.1516
C17 C 0.654(2) 0.6247(6) 0.0897(6)
H12 H 0.4415 0.6180 0.0883
H13 H 0.7366 0.5667 0.1108
C18 C 0.786(2) 0.6543(6) -0.0036(6)
H14 H 0.7079 0.7133 -0.0235
H15 H 0.9988 0.6595 -0.0020
C19 C 0.729(2) 0.5936(6) -0.0697(6)
H16 H 0.5163 0.5899 -0.0728
H17 H 0.8018 0.5341 -0.0491
C20 C 0.869(2) 0.6222(6) -0.1611(6)
H18 H 0.8006 0.6826 -0.1802
H19 H 1.0812 0.6244 -0.1576
C21 C 0.812(2) 0.5662(7) -0.2304(6)
H20 H 0.5996 0.5618 -0.2326
H21 H 0.8892 0.5064 -0.2133
C22 C 0.945(3) 0.5996(7) -0.3216(6)
H22 H 1.1576 0.6045 -0.3192
H23 H 0.8672 0.6593 -0.3388
C23 C 0.890(3) 0.5421(7) -0.3933(6)
H24 H 0.9883 0.4852 -0.3812
H25 H 0.9657 0.5713 -0.4506
H26 H 0.6808 0.5332 -0.3937
F1A F 1.3712(10) 1.1863(3) 0.2801(3)
F2A F 1.7715(12) 1.2042(4) 0.1490(4)
F3A F 1.8912(11) 1.0760(4) 0.0426(3)
F4A F 1.5804(11) 0.9259(4) 0.0736(3)
F5A F 1.1664(10) 0.9059(3) 0.2023(3)
C1A C 0.5488(15) 1.0811(5) 0.5305(5)
C2A C 0.702(3) 1.0582(7) 0.4562(9)
S1A S 0.9602(5) 1.11802(17) 0.39180(14)
C3A C 1.026(3) 1.0302(8) 0.3224(8)
C4A C 0.847(3) 0.9688(8) 0.3471(7)
H1A H 0.8394 0.9195 0.3160
C5A C 0.658(3) 0.9772(6) 0.4239(7)
C6A C 1.2455(14) 1.0465(5) 0.2489(4)
C7A C 1.4106(16) 1.1212(5) 0.2306(5)
C8A C 1.6200(17) 1.1312(6) 0.1612(5)
C9A C 1.6762(17) 1.0653(6) 0.1089(5)
C10A C 1.5235(18) 0.9907(6) 0.1245(5)
C11A C 1.3105(17) 0.9815(6) 0.1927(4)
O1A O 0.6156(11) 1.1594(3) 0.5592(3)
C12A C 0.429(2) 1.2355(5) 0.5333(5)
H2A H 0.4857 1.2604 0.4721
H3A H 0.2237 1.2173 0.5371
C13A C 0.463(2) 1.3025(6) 0.5936(6)
H4A H 0.6707 1.3178 0.5903
H5A H 0.3542 1.3561 0.5723
C14A C 0.361(2) 1.2753(6) 0.6880(5)
H6A H 0.1517 1.2624 0.6913
H7A H 0.4636 1.2201 0.7083
C15A C 0.406(2) 1.3414(6) 0.7519(5)
H8A H 0.3074 1.3973 0.7315
H9A H 0.6161 1.3532 0.7506
C16A C 0.292(2) 1.3113(6) 0.8467(6)
H10A H 0.3844 1.2543 0.8663
H11A H 0.0800 1.3019 0.8484
C17A C 0.346(2) 1.3753(6) 0.9103(6)
H12A H 0.5585 1.3820 0.9117
H13A H 0.2634 1.4333 0.8892
C18A C 0.214(2) 1.3457(6) 1.0036(6)
H14A H 0.2921 1.2867 1.0235
H15A H 0.0012 1.3405 1.0020
C19A C 0.271(2) 1.4064(6) 1.0697(6)
H16A H 0.4837 1.4101 1.0728
H17A H 0.1982 1.4659 1.0491
C20A C 0.131(2) 1.3778(6) 1.1611(6)
H18A H 0.1994 1.3174 1.1802
H19A H -0.0812 1.3756 1.1576
C21A C 0.188(2) 1.4338(7) 1.2304(6)
H20A H 0.4004 1.4382 1.2326
H21A H 0.1108 1.4936 1.2133
C22A C 0.055(3) 1.4004(7) 1.3216(6)
H22A H -0.1576 1.3955 1.3192
H23A H 0.1328 1.3407 1.3388
C23A C 0.110(3) 1.4579(7) 1.3933(6)
H24A H 0.0117 1.5148 1.3812
H25A H 0.0343 1.4287 1.4506
H26A H 0.3192 1.4668 1.3937
C24? C 0.278(11) 0.957(3) 0.548(3)
C25? C 0.043(8) 0.922(2) 0.607(2)
H27? H -0.0690 0.8746 0.5943
C26? C -0.012(14) 0.955(2) 0.678(3)
S2? S 0.156(2) 1.0643(7) 0.6616(7)
C27? C 0.342(10) 1.042(2) 0.567(2)
loop_
_geom_bond_atom_site_label_1
_geom_bond_atom_site_label_2
_geom_bond_site_symmetry_1
_geom_bond_site_symmetry_2
F1 C7 1_555 1_555
F2 C8 1_555 1_555
F3 C9 1_555 1_555
F4 C10 1_555 1_555
F5 C11 1_555 1_555
C1 C2 1_555 1_555
C2 S1 1_555 1_555
S1 C3 1_555 1_555
C3 C4 1_555 1_555
C4 H1 1_555 1_555
C5 C2 1_555 1_555
C6 C3 1_555 1_555
C7 C6 1_555 1_555
C8 C7 1_555 1_555
C9 C8 1_555 1_555
C10 C9 1_555 1_555
C11 C6 1_555 1_555
O1 C1 1_555 1_555
C12 O1 1_555 1_555
H2 C12 1_555 1_555
H3 C12 1_555 1_555
C13 C12 1_555 1_555
H4 C13 1_555 1_555
H5 C13 1_555 1_555
C14 C13 1_555 1_555
H6 C14 1_555 1_555
H7 C14 1_555 1_555
C15 C14 1_555 1_555
H8 C15 1_555 1_555
H9 C15 1_555 1_555
C16 C15 1_555 1_555
H10 C16 1_555 1_555
H11 C16 1_555 1_555
C17 C16 1_555 1_555
H12 C17 1_555 1_555
H13 C17 1_555 1_555
C18 C17 1_555 1_555
H14 C18 1_555 1_555
H15 C18 1_555 1_555
C19 C18 1_555 1_555
H16 C19 1_555 1_555
H17 C19 1_555 1_555
C20 C19 1_555 1_555
H18 C20 1_555 1_555
H19 C20 1_555 1_555
C21 C20 1_555 1_555
H20 C21 1_555 1_555
H21 C21 1_555 1_555
C22 C21 1_555 1_555
H22 C22 1_555 1_555
H23 C22 1_555 1_555
C23 C22 1_555 1_555
H24 C23 1_555 1_555
H25 C23 1_555 1_555
H26 C23 1_555 1_555
F1A C7A 1_555 1_555
F2A C8A 1_555 1_555
F3A C9A 1_555 1_555
F4A C10A 1_555 1_555
F5A C11A 1_555 1_555
C1A C5 1_555 1_555
C2A C1A 1_555 1_555
S1A C2A 1_555 1_555
C3A S1A 1_555 1_555
C4A C3A 1_555 1_555
H1A C4A 1_555 1_555
C5A C1 1_555 1_555
C6A C3A 1_555 1_555
C7A C6A 1_555 1_555
C8A C7A 1_555 1_555
C9A C8A 1_555 1_555
C10A C9A 1_555 1_555
C11A C6A 1_555 1_555
O1A C1A 1_555 1_555
C12A O1A 1_555 1_555
H2A C12A 1_555 1_555
H3A C12A 1_555 1_555
C13A C12A 1_555 1_555
H4A C13A 1_555 1_555
H5A C13A 1_555 1_555
C14A C13A 1_555 1_555
H6A C14A 1_555 1_555
H7A C14A 1_555 1_555
C15A C14A 1_555 1_555
H8A C15A 1_555 1_555
H9A C15A 1_555 1_555
C16A C15A 1_555 1_555
H10A C16A 1_555 1_555
H11A C16A 1_555 1_555
C17A C16A 1_555 1_555
H12A C17A 1_555 1_555
H13A C17A 1_555 1_555
C18A C17A 1_555 1_555
H14A C18A 1_555 1_555
H15A C18A 1_555 1_555
C19A C18A 1_555 1_555
H16A C19A 1_555 1_555
H17A C19A 1_555 1_555
C20A C19A 1_555 1_555
H18A C20A 1_555 1_555
H19A C20A 1_555 1_555
C21A C20A 1_555 1_555
H20A C21A 1_555 1_555
H21A C21A 1_555 1_555
C22A C21A 1_555 1_555
H22A C22A 1_555 1_555
H23A C22A 1_555 1_555
C23A C22A 1_555 1_555
H24A C23A 1_555 1_555
H25A C23A 1_555 1_555
H26A C23A 1_555 1_555
C4 C5 1_555 1_555
C10 C11 1_555 1_555
C2A C5A 1_555 1_555
C4A C5A 1_555 1_555
C10A C11A 1_555 1_555

#END
