
#######################################################################
#
#                 Cambridge Crystallographic Data Centre
#                                CCDC 
#
#######################################################################
#
# If this CIF has been generated from an entry in the Cambridge 
# Structural Database, then it will include bibliographic, chemical, 
# crystal, experimental, refinement or atomic coordinate data resulting 
# from the CCDC's data processing and validation procedures.
#
#######################################################################

data_XURMAA
_chemical_formula_moiety         'C24 H8 F10 O2 S2'
_chemical_name_systematic        
4,8-Dimethoxy-2,6-bis(pentafluorophenyl)thieno[2,3-f][1]benzothiophene
_symmetry_cell_setting           triclinic
_symmetry_space_group_name_H-M   'P -1'
_symmetry_Int_Tables_number      2
_space_group_name_Hall           '-P 1'
loop_
_symmetry_equiv_pos_site_id
_symmetry_equiv_pos_as_xyz
1 x,y,z
2 -x,-y,-z
_cell_length_a                   7.1780(5)
_cell_length_b                   7.9513(4)
_cell_length_c                   9.4507(5)
_cell_angle_alpha                98.625(3)
_cell_angle_beta                 93.623(3)
_cell_angle_gamma                105.298(3)
_cell_volume                     511.402
_exptl_crystal_colour            yellow
_exptl_crystal_description       'twinned blade'
_cell_formula_units_Z            1
loop_
_atom_site_label
_atom_site_type_symbol
_atom_site_fract_x
_atom_site_fract_y
_atom_site_fract_z
C1 C 0.5456(6) 0.6865(5) 0.5400(4)
C2 C 0.5816(6) 0.5820(6) 0.6359(4)
S1 S 0.68244(18) 0.65741(13) 0.81191(11)
C3 C 0.6629(6) 0.4375(6) 0.8388(5)
C4 C 0.5833(10) 0.3155(8) 0.7138(6)
H1 H 0.5627 0.1914 0.7071
C5 C 0.5369(6) 0.3957(5) 0.5990(4)
C6 C 0.7279(6) 0.4043(5) 0.9795(4)
C7 C 0.7979(6) 0.5397(5) 1.0984(4)
C8 C 0.8529(6) 0.5071(5) 1.2321(4)
C9 C 0.8443(7) 0.3390(6) 1.2522(5)
C10 C 0.7801(7) 0.2032(5) 1.1365(5)
C11 C 0.7242(7) 0.2364(5) 1.0048(5)
F1 F 0.8121(4) 0.7068(3) 1.0883(3)
F2 F 0.9185(4) 0.6422(3) 1.3410(3)
F3 F 0.9007(4) 0.3088(4) 1.3796(3)
F4 F 0.7738(5) 0.0390(4) 1.1544(3)
F5 F 0.6652(4) 0.0963(3) 0.8990(3)
O1 O 0.5856(4) 0.8660(4) 0.5818(3)
C12 C 0.7696(7) 0.9593(6) 0.5450(5)
H2 H 0.8727 0.9232 0.5949
H3 H 0.7894 1.0869 0.5742
H4 H 0.7731 0.9319 0.4408
C1A C 0.4544(6) 0.3135(5) 0.4600(4)
C2A C 0.4184(6) 0.4180(6) 0.3641(4)
S1A S 0.31756(18) 0.34259(13) 0.18809(11)
C3A C 0.3371(6) 0.5625(6) 0.1612(5)
C4A C 0.4167(10) 0.6845(8) 0.2862(6)
H1A H 0.4373 0.8086 0.2929
C5A C 0.4631(6) 0.6043(5) 0.4010(4)
C6A C 0.2721(6) 0.5957(5) 0.0205(4)
C7A C 0.2021(6) 0.4603(5) -0.0984(4)
C8A C 0.1471(6) 0.4929(5) -0.2321(4)
C9A C 0.1557(7) 0.6610(6) -0.2522(5)
C10A C 0.2199(7) 0.7968(5) -0.1365(5)
C11A C 0.2758(7) 0.7636(5) -0.0048(5)
F1A F 0.1879(4) 0.2932(3) -0.0883(3)
F2A F 0.0815(4) 0.3578(3) -0.3410(3)
F3A F 0.0993(4) 0.6912(4) -0.3796(3)
F4A F 0.2262(5) 0.9610(4) -0.1544(3)
F5A F 0.3348(4) 0.9037(3) 0.1010(3)
O1A O 0.4144(4) 0.1340(4) 0.4182(3)
C12A C 0.2304(7) 0.0407(6) 0.4550(5)
H2A H 0.1273 0.0768 0.4051
H3A H 0.2106 -0.0869 0.4258
H4A H 0.2269 0.0681 0.5592
C13? C 0.687(18) 0.650(3) 0.772(6)
H5? H 0.7249 0.7723 0.8134
C14? C 0.728(11) 0.517(4) 0.838(5)
S2? S 0.586(7) 0.306(3) 0.748(3)
loop_
_geom_bond_atom_site_label_1
_geom_bond_atom_site_label_2
_geom_bond_site_symmetry_1
_geom_bond_site_symmetry_2
C1 C2 1_555 1_555
C2 S1 1_555 1_555
S1 C3 1_555 1_555
C3 C4 1_555 1_555
C4 H1 1_555 1_555
C5 C2 1_555 1_555
C6 C3 1_555 1_555
C7 C6 1_555 1_555
C8 C7 1_555 1_555
C9 C8 1_555 1_555
C10 C9 1_555 1_555
C11 C6 1_555 1_555
F1 C7 1_555 1_555
F2 C8 1_555 1_555
F3 C9 1_555 1_555
F4 C10 1_555 1_555
F5 C11 1_555 1_555
O1 C1 1_555 1_555
C12 O1 1_555 1_555
H2 C12 1_555 1_555
H3 C12 1_555 1_555
H4 C12 1_555 1_555
C1A C5 1_555 1_555
C2A C1A 1_555 1_555
S1A C2A 1_555 1_555
C3A S1A 1_555 1_555
C4A C3A 1_555 1_555
H1A C4A 1_555 1_555
C5A C1 1_555 1_555
C6A C3A 1_555 1_555
C7A C6A 1_555 1_555
C8A C7A 1_555 1_555
C9A C8A 1_555 1_555
C10A C9A 1_555 1_555
C11A C6A 1_555 1_555
F1A C7A 1_555 1_555
F2A C8A 1_555 1_555
F3A C9A 1_555 1_555
F4A C10A 1_555 1_555
F5A C11A 1_555 1_555
O1A C1A 1_555 1_555
C12A O1A 1_555 1_555
H2A C12A 1_555 1_555
H3A C12A 1_555 1_555
H4A C12A 1_555 1_555
C4 C5 1_555 1_555
C10 C11 1_555 1_555
C2A C5A 1_555 1_555
C4A C5A 1_555 1_555
C10A C11A 1_555 1_555

#END
