
#######################################################################
#
#                 Cambridge Crystallographic Data Centre
#                                CCDC 
#
#######################################################################
#
# If this CIF has been generated from an entry in the Cambridge 
# Structural Database, then it will include bibliographic, chemical, 
# crystal, experimental, refinement or atomic coordinate data resulting 
# from the CCDC's data processing and validation procedures.
#
#######################################################################

data_XURMUU
_chemical_formula_moiety         'C46 H44 F14 S2 Si2'
_chemical_name_systematic        
((2,6-bis(2,3,5,6-Tetrafluoro-4-(trifluoromethyl)phenyl)thieno[2,3-f][1]benzothiene-4,8-diyl)diethyne-2,1-diyl)bis(tri-isopropylsilane)
_symmetry_cell_setting           triclinic
_symmetry_space_group_name_H-M   'P -1'
_symmetry_Int_Tables_number      2
_space_group_name_Hall           '-P 1'
loop_
_symmetry_equiv_pos_site_id
_symmetry_equiv_pos_as_xyz
1 x,y,z
2 -x,-y,-z
_cell_length_a                   8.2620(2)
_cell_length_b                   9.4062(2)
_cell_length_c                   15.0435(4)
_cell_angle_alpha                89.9820(10)
_cell_angle_beta                 95.5870(11)
_cell_angle_gamma                107.6110(11)
_cell_volume                     1108.48
_exptl_crystal_colour            yellow
_exptl_crystal_description       rod
_cell_formula_units_Z            1
loop_
_atom_site_label
_atom_site_type_symbol
_atom_site_fract_x
_atom_site_fract_y
_atom_site_fract_z
Si1 Si 0.68549(8) 0.77272(7) 0.86395(4)
F1 F 0.02040(17) 0.81028(14) 0.56762(8)
F2 F -0.22921(17) 0.91642(14) 0.51979(9)
F3 F -0.29047(17) 0.69333(15) 0.23114(8)
F4 F -0.04301(17) 0.58452(15) 0.27876(8)
F5 F -0.48773(18) 0.91105(16) 0.40835(10)
F6 F -0.35761(18) 0.99195(15) 0.29351(10)
F7 F -0.53945(18) 0.77260(16) 0.29003(10)
C1 C 0.5466(3) 0.5751(2) 0.58648(14)
C2 C 0.4055(3) 0.5857(2) 0.53019(14)
S1 S 0.27286(9) 0.68692(8) 0.55620(4)
C3 C 0.1490(3) 0.6344(2) 0.45222(14)
C4 C 0.2109(4) 0.5442(3) 0.4035(2)
H1 H 0.1599 0.5051 0.3458
C5 C 0.3578(3) 0.5126(2) 0.44567(14)
C6 C 0.0046(3) 0.6913(2) 0.42637(15)
C7 C -0.0544(3) 0.7777(2) 0.48297(15)
C8 C -0.1877(3) 0.8331(2) 0.45841(15)
C9 C -0.2731(3) 0.8072(2) 0.37340(15)
C10 C -0.2167(3) 0.7216(2) 0.31553(15)
C11 C -0.0845(3) 0.6656(2) 0.34124(15)
C12 C -0.4147(3) 0.8705(3) 0.34204(16)
C13 C 0.5909(3) 0.6458(2) 0.67309(16)
C14 C 0.6277(3) 0.7019(3) 0.74709(16)
C15 C 0.7460(3) 0.6222(2) 0.93004(14)
H2 H 0.6396 0.5605 0.9546
C16 C 0.8064(3) 0.5146(3) 0.87513(16)
H3 H 0.9079 0.5706 0.8471
H4 H 0.7155 0.4639 0.8287
H5 H 0.8345 0.4405 0.9144
C17 C 0.8757(3) 0.6878(3) 1.01143(16)
H6 H 0.8912 0.6066 1.0488
H7 H 0.8331 0.7543 1.0464
H8 H 0.9852 0.7443 0.9909
C18 C 0.8658(3) 0.9514(2) 0.86315(15)
H9 H 0.9016 0.9879 0.9266
C19 C 1.0227(3) 0.9294(3) 0.82451(17)
H10 H 0.9931 0.8980 0.7614
H11 H 1.0588 0.8526 0.8576
H12 H 1.1160 1.0235 0.8299
C20 C 0.8102(3) 1.0732(3) 0.81243(16)
H13 H 0.9065 1.1652 0.8151
H14 H 0.7155 1.0919 0.8399
H15 H 0.7732 1.0404 0.7499
C21 C 0.4899(3) 0.8003(3) 0.90613(15)
H16 H 0.4746 0.8939 0.8802
C22 C 0.5101(3) 0.8201(3) 1.00837(16)
H17 H 0.4078 0.8377 1.0278
H18 H 0.6101 0.9056 1.0269
H19 H 0.5252 0.7297 1.0356
C23 C 0.3298(3) 0.6715(3) 0.87495(17)
H20 H 0.3484 0.5765 0.8916
H21 H 0.3062 0.6728 0.8099
H22 H 0.2325 0.6827 0.9034
Si1A Si 0.31451(8) 0.22728(7) 0.13605(4)
F1A F 0.97960(17) 0.18972(14) 0.43238(8)
F2A F 1.22921(17) 0.08358(14) 0.48021(9)
F3A F 1.29047(17) 0.30667(15) 0.76886(8)
F4A F 1.04301(17) 0.41548(15) 0.72124(8)
F5A F 1.48773(18) 0.08895(16) 0.59165(10)
F6A F 1.35761(18) 0.00805(15) 0.70649(10)
F7A F 1.53945(18) 0.22740(16) 0.70997(10)
C1A C 0.4534(3) 0.4249(2) 0.41352(14)
C2A C 0.5945(3) 0.4143(2) 0.46981(14)
S1A S 0.72714(9) 0.31308(8) 0.44380(4)
C3A C 0.8510(3) 0.3656(2) 0.54778(14)
C4A C 0.7891(4) 0.4558(3) 0.5965(2)
H1A H 0.8401 0.4949 0.6542
C5A C 0.6422(3) 0.4874(2) 0.55433(14)
C6A C 0.9954(3) 0.3087(2) 0.57363(15)
C7A C 1.0544(3) 0.2223(2) 0.51703(15)
C8A C 1.1877(3) 0.1669(2) 0.54159(15)
C9A C 1.2731(3) 0.1928(2) 0.62660(15)
C10A C 1.2167(3) 0.2784(2) 0.68447(15)
C11A C 1.0845(3) 0.3344(2) 0.65876(15)
C12A C 1.4147(3) 0.1295(3) 0.65796(16)
C13A C 0.4091(3) 0.3542(2) 0.32691(16)
C14A C 0.3723(3) 0.2981(3) 0.25291(16)
C15A C 0.2540(3) 0.3778(2) 0.06996(14)
H2A H 0.3604 0.4395 0.0454
C16A C 0.1936(3) 0.4854(3) 0.12487(16)
H3A H 0.0921 0.4294 0.1529
H4A H 0.2845 0.5361 0.1713
H5A H 0.1655 0.5595 0.0856
C17A C 0.1243(3) 0.3122(3) -0.01143(16)
H6A H 0.1088 0.3934 -0.0488
H7A H 0.1669 0.2457 -0.0464
H8A H 0.0148 0.2557 0.0091
C18A C 0.1342(3) 0.0486(2) 0.13685(15)
H9A H 0.0984 0.0121 0.0734
C19A C -0.0227(3) 0.0706(3) 0.17549(17)
H10A H 0.0069 0.1020 0.2386
H11A H -0.0588 0.1474 0.1424
H12A H -0.1160 -0.0235 0.1701
C20A C 0.1898(3) -0.0732(3) 0.18757(16)
H13A H 0.0935 -0.1652 0.1849
H14A H 0.2845 -0.0919 0.1601
H15A H 0.2268 -0.0404 0.2501
C21A C 0.5101(3) 0.1997(3) 0.09387(15)
H16A H 0.5254 0.1061 0.1198
C22A C 0.4899(3) 0.1799(3) -0.00837(16)
H17A H 0.5922 0.1623 -0.0278
H18A H 0.3899 0.0944 -0.0269
H19A H 0.4748 0.2703 -0.0356
C23A C 0.6702(3) 0.3285(3) 0.12505(17)
H20A H 0.6516 0.4235 0.1084
H21A H 0.6938 0.3272 0.1901
H22A H 0.7675 0.3173 0.0966
C24? C 0.265(4) 0.653(4) 0.5273(16)
H23? H 0.2547 0.7103 0.5774
S2? S 0.1879(15) 0.5108(13) 0.3732(7)
loop_
_geom_bond_atom_site_label_1
_geom_bond_atom_site_label_2
_geom_bond_site_symmetry_1
_geom_bond_site_symmetry_2
Si1 C14 1_555 1_555
F1 C7 1_555 1_555
F2 C8 1_555 1_555
F3 C10 1_555 1_555
F4 C11 1_555 1_555
F5 C12 1_555 1_555
F6 C12 1_555 1_555
F7 C12 1_555 1_555
C1 C2 1_555 1_555
C2 S1 1_555 1_555
S1 C3 1_555 1_555
C3 C4 1_555 1_555
C4 H1 1_555 1_555
C5 C2 1_555 1_555
C6 C3 1_555 1_555
C7 C6 1_555 1_555
C8 C7 1_555 1_555
C9 C8 1_555 1_555
C10 C9 1_555 1_555
C11 C6 1_555 1_555
C12 C9 1_555 1_555
C13 C1 1_555 1_555
C14 C13 1_555 1_555
C15 Si1 1_555 1_555
H2 C15 1_555 1_555
C16 C15 1_555 1_555
H3 C16 1_555 1_555
H4 C16 1_555 1_555
H5 C16 1_555 1_555
C17 C15 1_555 1_555
H6 C17 1_555 1_555
H7 C17 1_555 1_555
H8 C17 1_555 1_555
C18 Si1 1_555 1_555
H9 C18 1_555 1_555
C19 C18 1_555 1_555
H10 C19 1_555 1_555
H11 C19 1_555 1_555
H12 C19 1_555 1_555
C20 C18 1_555 1_555
H13 C20 1_555 1_555
H14 C20 1_555 1_555
H15 C20 1_555 1_555
C21 Si1 1_555 1_555
H16 C21 1_555 1_555
C22 C21 1_555 1_555
H17 C22 1_555 1_555
H18 C22 1_555 1_555
H19 C22 1_555 1_555
C23 C21 1_555 1_555
H20 C23 1_555 1_555
H21 C23 1_555 1_555
H22 C23 1_555 1_555
Si1A C14A 1_555 1_555
F1A C7A 1_555 1_555
F2A C8A 1_555 1_555
F3A C10A 1_555 1_555
F4A C11A 1_555 1_555
F5A C12A 1_555 1_555
F6A C12A 1_555 1_555
F7A C12A 1_555 1_555
C1A C5 1_555 1_555
C2A C1A 1_555 1_555
S1A C2A 1_555 1_555
C3A S1A 1_555 1_555
C4A C3A 1_555 1_555
H1A C4A 1_555 1_555
C5A C1 1_555 1_555
C6A C3A 1_555 1_555
C7A C6A 1_555 1_555
C8A C7A 1_555 1_555
C9A C8A 1_555 1_555
C10A C9A 1_555 1_555
C11A C6A 1_555 1_555
C12A C9A 1_555 1_555
C13A C1A 1_555 1_555
C14A C13A 1_555 1_555
C15A Si1A 1_555 1_555
H2A C15A 1_555 1_555
C16A C15A 1_555 1_555
H3A C16A 1_555 1_555
H4A C16A 1_555 1_555
H5A C16A 1_555 1_555
C17A C15A 1_555 1_555
H6A C17A 1_555 1_555
H7A C17A 1_555 1_555
H8A C17A 1_555 1_555
C18A Si1A 1_555 1_555
H9A C18A 1_555 1_555
C19A C18A 1_555 1_555
H10A C19A 1_555 1_555
H11A C19A 1_555 1_555
H12A C19A 1_555 1_555
C20A C18A 1_555 1_555
H13A C20A 1_555 1_555
H14A C20A 1_555 1_555
H15A C20A 1_555 1_555
C21A Si1A 1_555 1_555
H16A C21A 1_555 1_555
C22A C21A 1_555 1_555
H17A C22A 1_555 1_555
H18A C22A 1_555 1_555
H19A C22A 1_555 1_555
C23A C21A 1_555 1_555
H20A C23A 1_555 1_555
H21A C23A 1_555 1_555
H22A C23A 1_555 1_555
C4 C5 1_555 1_555
C10 C11 1_555 1_555
C2A C5A 1_555 1_555
C4A C5A 1_555 1_555
C10A C11A 1_555 1_555

#END
