
#######################################################################
#
#                 Cambridge Crystallographic Data Centre
#                                CCDC 
#
#######################################################################
#
# If this CIF has been generated from an entry in the Cambridge 
# Structural Database, then it will include bibliographic, chemical, 
# crystal, experimental, refinement or atomic coordinate data resulting 
# from the CCDC's data processing and validation procedures.
#
#######################################################################

data_XUSJAY
_chemical_formula_moiety         'C29 H18 F12 N6'
_chemical_name_systematic        
N,N'-bis(3,5-bis(trifluoromethyl)phenyl)-2-(9-ethyl-9H-purin-6-yl)benzene-1,3-diamine
_symmetry_cell_setting           triclinic
_symmetry_space_group_name_H-M   'P -1'
_symmetry_Int_Tables_number      2
_space_group_name_Hall           '-P 1'
loop_
_symmetry_equiv_pos_site_id
_symmetry_equiv_pos_as_xyz
1 x,y,z
2 -x,-y,-z
_cell_length_a                   11.3172(4)
_cell_length_b                   11.5725(4)
_cell_length_c                   13.2555(5)
_cell_angle_alpha                93.226(2)
_cell_angle_beta                 106.108(2)
_cell_angle_gamma                118.872(2)
_cell_volume                     1422.74
_exptl_crystal_colour            orange
_exptl_crystal_description       platy
_cell_formula_units_Z            2
loop_
_atom_site_label
_atom_site_type_symbol
_atom_site_fract_x
_atom_site_fract_y
_atom_site_fract_z
F1 F -0.06778(15) 0.05811(13) 0.14441(10)
N1 N 0.23656(17) 0.18936(16) 0.58738(12)
H1 H 0.2721 0.2105 0.5370
N2 N 0.40628(17) 0.39187(16) 0.31953(12)
N3 N -0.08715(16) 0.34932(16) 0.42948(12)
H2 H -0.1141 0.3989 0.4549
N4 N 0.23589(16) 0.51161(15) 0.50090(12)
N5 N 0.24109(17) 0.22312(16) 0.37110(12)
F2 F 0.30608(15) 0.20424(15) 0.98371(10)
C1 C 0.08441(19) 0.28011(18) 0.51481(13)
N6 N 0.40632(17) 0.58271(16) 0.40700(12)
C2 C 0.4616(2) 0.0638(2) 0.73107(15)
C3 C -0.04709(19) 0.27562(18) 0.49771(13)
C4 C 0.3147(2) 0.18112(19) 0.77780(14)
H3 H 0.2648 0.2196 0.7943
C5 C 0.30780(19) 0.15375(18) 0.67135(14)
F3 F 0.65981(15) 0.03301(16) 0.77763(11)
C6 C 0.19486(18) 0.37952(18) 0.47472(13)
C7 C 0.25979(19) 0.34618(18) 0.41263(13)
C8 C 0.3830(2) 0.09464(19) 0.64921(14)
H4 H 0.3801 0.0760 0.5791
C9 C 0.3960(2) 0.15076(19) 0.85851(14)
F4 F 0.09577(15) 0.22910(14) 0.11052(12)
C10 C 0.36211(19) 0.45176(19) 0.38111(14)
C11 C -0.08692(19) 0.34905(19) 0.32498(14)
C12 C 0.11194(19) 0.19423(18) 0.57686(14)
C13 C -0.07036(19) 0.25597(19) 0.26713(14)
H5 H -0.0597 0.1902 0.2986
F5 F 0.4144(2) 0.09775(18) 1.02890(11)
F6 F 0.54901(19) -0.0006(2) 0.60928(11)
C14 C -0.10600(19) 0.44468(19) 0.27428(15)
H6 H -0.1183 0.5067 0.3109
C15 C 0.4703(2) 0.0914(2) 0.83683(15)
H7 H 0.5240 0.0708 0.8915
C16 C 0.3377(2) 0.60275(19) 0.46716(15)
H8 H 0.3642 0.6923 0.4887
C17 C -0.1385(2) 0.1993(2) 0.55065(15)
H9 H -0.2224 0.2002 0.5423
F7 F -0.20616(19) 0.58741(17) 0.14966(13)
F8 F 0.53390(16) 0.30716(17) 1.02590(11)
C18 C -0.1067(2) 0.4475(2) 0.16990(15)
F9 F -0.12089(18) 0.12513(16) -0.00020(10)
F10 F -0.16848(18) 0.52303(17) 0.01316(11)
C19 C 0.0162(2) 0.1157(2) 0.62608(15)
H10 H 0.0340 0.0588 0.6662
C20 C 0.3291(2) 0.2569(2) 0.31639(15)
H11 H 0.3382 0.1934 0.2783
C21 C 0.5046(2) 0.4578(2) 0.26044(16)
H12 H 0.5385 0.4000 0.2415
H13 H 0.5875 0.5425 0.3066
C22 C 0.4313(2) 0.4856(2) 0.15915(15)
H14 H 0.4979 0.5284 0.1224
H15 H 0.3992 0.5442 0.1778
H16 H 0.3500 0.4017 0.1129
C23 C -0.0699(2) 0.2620(2) 0.16316(15)
C24 C -0.0878(2) 0.3574(2) 0.11279(15)
H17 H -0.0870 0.3608 0.0430
F11 F 0.45326(18) -0.14330(16) 0.69872(16)
C25 C -0.1054(2) 0.1220(2) 0.61564(16)
H18 H -0.1655 0.0738 0.6527
F12 F 0.00878(18) 0.67133(16) 0.14866(14)
C26 C 0.5323(2) -0.0093(3) 0.70457(16)
C27 C 0.4119(2) 0.1894(2) 0.97349(16)
C28 C -0.1185(3) 0.5567(2) 0.12026(18)
C29 C -0.0420(2) 0.1681(2) 0.10441(16)
loop_
_geom_bond_atom_site_label_1
_geom_bond_atom_site_label_2
_geom_bond_site_symmetry_1
_geom_bond_site_symmetry_2
F1 C29 1_555 1_555
N1 H1 1_555 1_555
N2 C10 1_555 1_555
N3 H2 1_555 1_555
N4 C6 1_555 1_555
N5 C7 1_555 1_555
F2 C27 1_555 1_555
C1 C3 1_555 1_555
N6 C10 1_555 1_555
C2 C8 1_555 1_555
C3 N3 1_555 1_555
C4 H3 1_555 1_555
C5 N1 1_555 1_555
F3 C26 1_555 1_555
C6 C1 1_555 1_555
C7 C6 1_555 1_555
C8 C5 1_555 1_555
H4 C8 1_555 1_555
C9 C4 1_555 1_555
F4 C29 1_555 1_555
C10 C7 1_555 1_555
C11 N3 1_555 1_555
C12 N1 1_555 1_555
C13 C11 1_555 1_555
H5 C13 1_555 1_555
F5 C27 1_555 1_555
F6 C26 1_555 1_555
C14 C11 1_555 1_555
H6 C14 1_555 1_555
C15 C2 1_555 1_555
H7 C15 1_555 1_555
C16 N4 1_555 1_555
H8 C16 1_555 1_555
C17 C3 1_555 1_555
H9 C17 1_555 1_555
F7 C28 1_555 1_555
F8 C27 1_555 1_555
C18 C14 1_555 1_555
F9 C29 1_555 1_555
F10 C28 1_555 1_555
C19 C12 1_555 1_555
H10 C19 1_555 1_555
C20 N2 1_555 1_555
H11 C20 1_555 1_555
C21 N2 1_555 1_555
H12 C21 1_555 1_555
H13 C21 1_555 1_555
C22 C21 1_555 1_555
H14 C22 1_555 1_555
H15 C22 1_555 1_555
H16 C22 1_555 1_555
C23 C13 1_555 1_555
C24 C18 1_555 1_555
H17 C24 1_555 1_555
F11 C26 1_555 1_555
C25 C17 1_555 1_555
H18 C25 1_555 1_555
F12 C28 1_555 1_555
C26 C2 1_555 1_555
C27 C9 1_555 1_555
C28 C18 1_555 1_555
C29 C23 1_555 1_555
N5 C20 1_555 1_555
C1 C12 1_555 1_555
N6 C16 1_555 1_555
C4 C5 1_555 1_555
C9 C15 1_555 1_555
C19 C25 1_555 1_555
C23 C24 1_555 1_555

#END
