
#######################################################################
#
#                 Cambridge Crystallographic Data Centre
#                                CCDC 
#
#######################################################################
#
# If this CIF has been generated from an entry in the Cambridge 
# Structural Database, then it will include bibliographic, chemical, 
# crystal, experimental, refinement or atomic coordinate data resulting 
# from the CCDC's data processing and validation procedures.
#
#######################################################################

data_XUSREK
_chemical_formula_moiety         'C18 H8 F12 I2'
_chemical_name_systematic        
1,1'-(1,1,2,2,3,3,4,4,5,5,6,6-dodecafluorohexane-1,6-diyl)bis(2-iodobenzene)
_symmetry_cell_setting           monoclinic
_symmetry_space_group_name_H-M   'P 21/c'
_symmetry_Int_Tables_number      14
_space_group_name_Hall           '-P 2ybc'
loop_
_symmetry_equiv_pos_site_id
_symmetry_equiv_pos_as_xyz
1 x,y,z
2 -x,1/2+y,1/2-z
3 -x,-y,-z
4 x,1/2-y,1/2+z
_cell_length_a                   14.8632(18)
_cell_length_b                   10.1182(13)
_cell_length_c                   6.5713(8)
_cell_angle_alpha                90
_cell_angle_beta                 92.484(2)
_cell_angle_gamma                90
_cell_volume                     987.322
_exptl_crystal_colour            colorless
_cell_formula_units_Z            2
loop_
_atom_site_label
_atom_site_type_symbol
_atom_site_fract_x
_atom_site_fract_y
_atom_site_fract_z
I1 I 0.63744(2) 0.86705(2) 0.52636(2)
F1 F 0.82248(7) 0.81706(10) 0.72826(16)
F2 F 0.89438(7) 0.91881(11) 0.97701(15)
F3 F 0.91864(8) 1.13172(10) 0.76103(19)
F4 F 0.82945(7) 1.06431(12) 0.51132(16)
F5 F 0.93147(8) 0.86752(10) 0.42125(19)
F6 F 1.01707(8) 0.88651(11) 0.69811(18)
C1 C 0.75178(12) 1.00272(17) 0.8792(3)
C2 C 0.66650(12) 0.98719(17) 0.7835(3)
C3 C 0.59313(13) 1.05430(19) 0.8581(3)
C4 C 0.60391(15) 1.13656(19) 1.0264(3)
C5 C 0.68819(14) 1.1541(2) 1.1201(3)
C6 C 0.83735(12) 0.93722(17) 0.8128(3)
C7 C 0.76126(13) 1.08731(19) 1.0468(3)
C8 C 0.88867(11) 1.02378(17) 0.6599(3)
C9 C 0.96760(11) 0.95332(17) 0.5562(3)
H1 H 0.6982(16) 1.210(3) 1.234(4)
H2 H 0.5350(16) 1.044(2) 0.795(3)
H3 H 0.5531(17) 1.183(2) 1.082(4)
H4 H 0.8183(19) 1.098(3) 1.119(4)
I1B I 1.36256(2) 1.13295(2) 0.47364(2)
F1B F 1.17752(7) 1.18294(10) 0.27174(16)
F2B F 1.10562(7) 1.08119(11) 0.02299(15)
F3B F 1.08136(8) 0.86828(10) 0.23897(19)
F4B F 1.17055(7) 0.93569(12) 0.48868(16)
F5B F 1.06853(8) 1.13248(10) 0.57875(19)
F6B F 0.98293(8) 1.11349(11) 0.30189(18)
C1B C 1.24822(12) 0.99728(17) 0.1208(3)
C2B C 1.33350(12) 1.01281(17) 0.2165(3)
C3B C 1.40687(13) 0.94570(19) 0.1419(3)
C4B C 1.39609(15) 0.86344(19) -0.0264(3)
C5B C 1.31181(14) 0.8459(2) -0.1201(3)
C6B C 1.16265(12) 1.06278(17) 0.1872(3)
C7B C 1.23874(13) 0.91269(19) -0.0468(3)
C8B C 1.11133(11) 0.97622(17) 0.3401(3)
C9B C 1.03240(11) 1.04668(17) 0.4438(3)
H1B H 1.3018(16) 0.790(3) -0.234(4)
H2B H 1.4650(16) 0.956(2) 0.205(3)
H3B H 1.4469(17) 0.817(2) -0.082(4)
H4B H 1.1817(19) 0.902(3) -0.119(4)
loop_
_geom_bond_atom_site_label_1
_geom_bond_atom_site_label_2
_geom_bond_site_symmetry_1
_geom_bond_site_symmetry_2
I1 C2 1_555 1_555
F1 C6 1_555 1_555
F2 C6 1_555 1_555
F3 C8 1_555 1_555
F4 C8 1_555 1_555
F5 C9 1_555 1_555
F6 C9 1_555 1_555
C1 C2 1_555 1_555
C2 C3 1_555 1_555
C3 C4 1_555 1_555
C4 C5 1_555 1_555
C5 C7 1_555 1_555
C6 C1 1_555 1_555
C7 C1 1_555 1_555
C8 C6 1_555 1_555
C9 C8 1_555 1_555
H1 C5 1_555 1_555
H2 C3 1_555 1_555
H3 C4 1_555 1_555
H4 C7 1_555 1_555
I1B C2B 1_555 1_555
F1B C6B 1_555 1_555
F2B C6B 1_555 1_555
F3B C8B 1_555 1_555
F4B C8B 1_555 1_555
F5B C9B 1_555 1_555
F6B C9B 1_555 1_555
C1B C2B 1_555 1_555
C2B C3B 1_555 1_555
C3B C4B 1_555 1_555
C4B C5B 1_555 1_555
C5B C7B 1_555 1_555
C6B C1B 1_555 1_555
C7B C1B 1_555 1_555
C8B C6B 1_555 1_555
C9B C9 1_555 1_555
H1B C5B 1_555 1_555
H2B C3B 1_555 1_555
H3B C4B 1_555 1_555
H4B C7B 1_555 1_555
C8B C9B 1_555 1_555

#END
