
#######################################################################
#
#                 Cambridge Crystallographic Data Centre
#                                CCDC 
#
#######################################################################
#
# If this CIF has been generated from an entry in the Cambridge 
# Structural Database, then it will include bibliographic, chemical, 
# crystal, experimental, refinement or atomic coordinate data resulting 
# from the CCDC's data processing and validation procedures.
#
#######################################################################

data_XUSZOA
_chemical_name_common            
'bis(C-Ethylcalix[4]resorcinarene) tetramethylammonium clathrate chloride methanol solvate monohydrate'
_chemical_formula_moiety         
'C4 H12 N1 1+,Cl1 1-,2(C36 H40 O8),6(C1 H4 O1),H2 O1'
_chemical_name_systematic        
'bis(2,8,14,20-Tetraethyl-4,6,10,12,16,18,22,24-octahydroxycalix(4)arene) tetramethylammonium clathrate chloride methanol solvate monohydrate'
_symmetry_cell_setting           monoclinic
_symmetry_space_group_name_H-M   'C 2/c'
_symmetry_Int_Tables_number      15
_space_group_name_Hall           '-C 2yn'
loop_
_symmetry_equiv_pos_site_id
_symmetry_equiv_pos_as_xyz
1 x,y,z
2 1/2+x,1/2+y,z
3 x,-y,1/2+z
4 1/2+x,1/2-y,1/2+z
5 -x,-y,-z
6 1/2-x,1/2-y,-z
7 -x,y,1/2-z
8 1/2-x,1/2+y,1/2-z
_cell_length_a                   27.4410(4)
_cell_length_b                   27.4283(6)
_cell_length_c                   26.0750(5)
_cell_angle_alpha                90
_cell_angle_beta                 121.702(2)
_cell_angle_gamma                90
_cell_volume                     16697.3
_cell_formula_units_Z            8
loop_
_atom_site_label
_atom_site_type_symbol
_atom_site_fract_x
_atom_site_fract_y
_atom_site_fract_z
Cl2 Cl 0.0000 0.61846(11) 0.2500
Cl3 Cl 0.24317(12) 0.12496(8) 0.75020(11)
O1 O 0.0347(2) 0.21030(16) 0.57314(19)
H1 H -0.0009 0.2101 0.5580
O2 O -0.0753(2) 0.19744(16) 0.5401(2)
H2 H -0.0916 0.1704 0.5273
O9 O -0.1966(2) 0.19377(17) 0.6202(2)
H9 H -0.1918 0.1989 0.6543
O11 O 0.1935(2) 0.20509(15) 0.7761(2)
H11 H 0.1941 0.1754 0.7685
C1 C 0.1187(3) 0.2629(2) 0.7504(3)
C2 C -0.1301(3) 0.26066(19) 0.6471(2)
C11 C -0.0689(3) 0.2631(2) 0.6050(2)
C12 C 0.0667(3) 0.28071(19) 0.7060(3)
H17 H 0.0498 0.3058 0.7168
C13 C 0.1421(3) 0.2250(2) 0.7334(3)
C14 C -0.0880(3) 0.2825(2) 0.6403(3)
H18 H -0.0714 0.3121 0.6611
C15 C -0.0214(3) 0.28659(19) 0.5995(3)
H19 H -0.0284 0.2771 0.5592
C17 C 0.0369(3) 0.26494(19) 0.6468(3)
C18 C -0.0942(3) 0.2191(2) 0.5750(3)
C23 C -0.1541(3) 0.2178(2) 0.6159(3)
C26 C 0.1135(3) 0.2071(2) 0.6749(3)
H25 H 0.1293 0.1810 0.6643
C27 C 0.0617(3) 0.2278(2) 0.6321(3)
C31 C 0.1516(3) 0.28317(19) 0.8143(3)
H29 H 0.1924 0.2727 0.8326
C40 C -0.0218(3) 0.3422(2) 0.6010(3)
H36 H -0.0132 0.3530 0.6412
H37 H -0.0607 0.3540 0.5708
C44 C 0.0214(3) 0.3655(2) 0.5882(3)
H40 H 0.0161 0.4009 0.5850
H41 H 0.0155 0.3527 0.5503
H42 H 0.0604 0.3578 0.6211
C45 C -0.1365(3) 0.1969(2) 0.5802(3)
H43 H -0.1534 0.1674 0.5593
C47 C 0.1515(3) 0.33955(19) 0.8154(3)
H47 H 0.1115 0.3512 0.7963
H48 H 0.1726 0.3508 0.8578
C49 C 0.1785(3) 0.3618(2) 0.7831(3)
H49 H 0.1814 0.3972 0.7891
H50 H 0.1548 0.3546 0.7399
H51 H 0.2169 0.3481 0.7994
C2F C 0.1301(3) 0.26066(19) 0.8529(2)
C14F C 0.0880(3) 0.2825(2) 0.8597(3)
C11F C 0.0689(3) 0.2631(2) 0.8950(2)
C15F C 0.0214(3) 0.28659(19) 0.9005(3)
H19F H 0.0284 0.2771 0.9408
C17F C -0.0369(3) 0.26494(19) 0.8532(3)
C12F C -0.0667(3) 0.28071(19) 0.7940(3)
C1F C -0.1187(3) 0.2629(2) 0.7496(3)
C13F C -0.1421(3) 0.2250(2) 0.7666(3)
O11F O -0.1935(2) 0.20509(15) 0.7239(2)
H11F H -0.1941 0.1754 0.7315
C26F C -0.1135(3) 0.2071(2) 0.8251(3)
H25F H -0.1293 0.1810 0.8357
C27F C -0.0617(3) 0.2278(2) 0.8679(3)
O1F O -0.0347(2) 0.21030(16) 0.92686(19)
H1F H 0.0009 0.2101 0.9420
C31F C -0.1516(3) 0.28317(19) 0.6857(3)
H29F H -0.1924 0.2727 0.6674
C47F C -0.1515(3) 0.33955(19) 0.6846(3)
H47F H -0.1115 0.3512 0.7037
H48F H -0.1726 0.3508 0.6422
C49F C -0.1785(3) 0.3618(2) 0.7169(3)
H49F H -0.1814 0.3972 0.7109
H50F H -0.1548 0.3546 0.7601
H51F H -0.2169 0.3481 0.7006
H17F H -0.0498 0.3058 0.7832
C40F C 0.0218(3) 0.3422(2) 0.8990(3)
H36F H 0.0132 0.3530 0.8588
H37F H 0.0607 0.3540 0.9292
C44F C -0.0214(3) 0.3655(2) 0.9118(3)
H40F H -0.0161 0.4009 0.9150
H41F H -0.0155 0.3527 0.9497
H42F H -0.0604 0.3578 0.8789
C18F C 0.0942(3) 0.2191(2) 0.9250(3)
O2F O 0.0753(2) 0.19744(16) 0.9599(2)
H2F H 0.0916 0.1704 0.9727
C45F C 0.1365(3) 0.1969(2) 0.9198(3)
C23F C 0.1541(3) 0.2178(2) 0.8841(3)
O9F O 0.1966(2) 0.19377(17) 0.8798(2)
H9F H 0.1918 0.1989 0.8457
H43F H 0.1534 0.1674 0.9407
H18F H 0.0714 0.3121 0.8389
O3 O -0.1740(2) 0.49704(17) 0.07298(19)
H3 H -0.1528 0.5178 0.0705
O4 O 0.0025(2) 0.25346(17) 0.42684(19)
H4 H 0.0254 0.2314 0.4305
O5 O -0.0674(2) 0.55544(15) 0.2761(2)
H5 H -0.0695 0.5830 0.2609
O6 O 0.0334(2) 0.34667(15) 0.4601(2)
H6 H 0.0200 0.3189 0.4466
O7 O -0.1770(2) 0.40357(15) 0.0399(2)
H7 H -0.1746 0.4312 0.0549
O8 O -0.1348(3) 0.24319(16) 0.1198(2)
H8 H -0.1067 0.2394 0.1551
O10 O -0.0935(2) 0.19485(15) 0.2235(2)
H10 H -0.0689 0.1728 0.2402
O12 O -0.0042(2) 0.50699(16) 0.3797(2)
H12 H -0.0296 0.5220 0.3492
C3 C -0.1379(3) 0.4940(2) 0.2501(3)
C4 C -0.1384(3) 0.25622(19) 0.2498(3)
C5 C -0.0871(3) 0.32142(19) 0.4003(3)
H13 H -0.0577 0.3082 0.4407
C6 C -0.1268(3) 0.49461(19) 0.3140(2)
H14 H -0.1073 0.5263 0.3325
C7 C -0.1877(3) 0.29616(19) 0.1470(3)
C8 C -0.2374(3) 0.42897(19) 0.0989(3)
H15 H -0.2481 0.4422 0.0585
C9 C -0.1779(3) 0.4630(2) 0.2060(3)
H16 H -0.1970 0.4403 0.2171
C10 C -0.1919(3) 0.46313(19) 0.1461(3)
C16 C -0.1031(3) 0.40868(19) 0.3591(2)
H20 H -0.1431 0.4023 0.3381
C19 C -0.0849(3) 0.4543(2) 0.3529(3)
C20 C -0.2122(3) 0.34163(19) 0.1405(3)
H21 H -0.2311 0.3480 0.1616
C21 C -0.0880(3) 0.28674(19) 0.3537(3)
C22 C -0.1428(3) 0.3229(2) 0.3991(3)
H22 H -0.1738 0.3347 0.3592
H23 H -0.1391 0.3463 0.4299
C24 C -0.1336(3) 0.2869(2) 0.2945(3)
H24 H -0.1636 0.3096 0.2837
C25 C -0.0257(3) 0.4624(2) 0.3844(3)
C28 C -0.0066(3) 0.3816(2) 0.4252(3)
C29 C -0.1201(3) 0.5266(2) 0.1749(3)
H26 H -0.0998 0.5481 0.1641
C30 C -0.1813(3) 0.4939(2) 0.3156(3)
H27 H -0.1711 0.4940 0.3581
H28 H -0.2025 0.4634 0.2968
C32 C -0.1078(3) 0.5255(2) 0.2336(3)
C33 C -0.0453(3) 0.2243(2) 0.3249(3)
H30 H -0.0140 0.2031 0.3354
C34 C -0.0439(3) 0.2541(2) 0.3682(3)
C35 C -0.1909(3) 0.2557(2) 0.1856(3)
H31 H -0.1896 0.2241 0.1671
C36 C -0.1567(3) 0.3241(2) 0.0805(3)
H32 H -0.1368 0.3181 0.0604
C37 C -0.2104(3) 0.3788(2) 0.1046(2)
C38 C 0.0129(3) 0.4269(2) 0.4191(3)
H33 H 0.0528 0.4331 0.4391
C39 C -0.2920(3) 0.4275(2) 0.1006(3)
H34 H -0.3191 0.4041 0.0699
H35 H -0.2827 0.4155 0.1405
C41 C -0.2466(3) 0.2558(2) 0.1848(3)
H38 H -0.2489 0.2864 0.2036
H39 H -0.2789 0.2557 0.1424
C42 C -0.1603(3) 0.2875(2) 0.1156(3)
C43 C -0.0914(3) 0.2248(2) 0.2668(3)
C46 C -0.2207(3) 0.5376(2) 0.2827(3)
H44 H -0.2524 0.5378 0.2897
H45 H -0.2359 0.5349 0.2394
H46 H -0.1987 0.5679 0.2981
C48 C -0.1816(3) 0.3686(2) 0.0749(3)
C50 C -0.1625(3) 0.4959(2) 0.1314(3)
C51 C -0.3211(4) 0.4768(2) 0.0890(3)
H52 H -0.3567 0.4734 0.0889
H53 H -0.3299 0.4893 0.0498
H54 H -0.2955 0.4997 0.1208
C52 C -0.2532(3) 0.2130(2) 0.2173(3)
H55 H -0.2920 0.2129 0.2100
H56 H -0.2253 0.2160 0.2607
H57 H -0.2464 0.1826 0.2023
C53 C -0.1592(4) 0.2732(2) 0.4112(3)
H58 H -0.1910 0.2769 0.4179
H59 H -0.1262 0.2589 0.4471
H60 H -0.1710 0.2519 0.3765
C72 C -0.0650(3) 0.3711(2) 0.3953(2)
O13 O 0.1335(2) 0.05306(17) 0.96056(19)
H61 H 0.1533 0.0492 0.9449
O14 O 0.2107(2) 0.03941(16) 0.92710(19)
H62 H 0.2256 0.0663 0.9278
O15 O 0.1674(2) 0.04459(15) 0.7236(2)
H63 H 0.1750 0.0744 0.7306
C54 C 0.1186(3) -0.0128(2) 0.7500(3)
C55 C 0.1101(3) -0.03114(19) 0.7940(2)
H64 H 0.0821 -0.0559 0.7829
C56 C 0.1405(3) -0.01531(19) 0.8543(3)
C57 C -0.0278(3) -0.0115(2) 0.8530(3)
O16 O -0.0677(2) 0.05561(16) 0.8783(2)
H65 H -0.0583 0.0723 0.9092
C58 C 0.0760(3) -0.0129(2) 0.8948(3)
C59 C 0.0806(3) 0.0309(2) 0.9248(3)
C60 C 0.1288(3) -0.03659(19) 0.9007(3)
H66 H 0.1620 -0.0273 0.9412
C61 C 0.0335(3) 0.0531(2) 0.9201(3)
H67 H 0.0378 0.0825 0.9413
C62 C 0.0220(3) -0.0323(2) 0.8594(3)
H68 H 0.0180 -0.0616 0.8380
C63 C 0.0869(3) -0.03353(19) 0.6853(2)
H69 H 0.1094 -0.0234 0.6669
C64 C 0.0858(3) -0.08931(19) 0.6848(3)
H70 H 0.0653 -0.1008 0.7044
H71 H 0.0644 -0.1009 0.6426
C65 C 0.1797(3) 0.0217(2) 0.8678(3)
C66 C 0.1266(3) -0.0927(2) 0.8989(3)
H72 H 0.1178 -0.1045 0.9290
H73 H 0.0953 -0.1033 0.8586
C67 C 0.1891(3) 0.0425(2) 0.8252(3)
H74 H 0.2161 0.0681 0.8360
C68 C 0.1459(3) -0.1114(2) 0.7173(3)
H75 H 0.1431 -0.1468 0.7113
H76 H 0.1653 -0.1043 0.7605
H77 H 0.1679 -0.0974 0.7011
C69 C 0.1584(3) 0.0251(2) 0.7666(3)
C70 C -0.0196(3) 0.0327(2) 0.8849(3)
C71 C 0.1829(3) -0.1155(2) 0.9119(3)
H78 H 0.1795 -0.1511 0.9106
H79 H 0.2140 -0.1054 0.9520
H80 H 0.1913 -0.1046 0.8815
C57F C 0.0278(3) -0.0115(2) 0.6470(3)
C62F C -0.0220(3) -0.0323(2) 0.6406(3)
C58F C -0.0760(3) -0.0129(2) 0.6052(3)
C59F C -0.0806(3) 0.0309(2) 0.5752(3)
O13F O -0.1335(2) 0.05306(17) 0.53944(19)
H61F H -0.1533 0.0492 0.5551
C61F C -0.0335(3) 0.0531(2) 0.5799(3)
H67F H -0.0378 0.0825 0.5587
C70F C 0.0196(3) 0.0327(2) 0.6151(3)
O16F O 0.0677(2) 0.05561(16) 0.6217(2)
H65F H 0.0583 0.0723 0.5908
C60F C -0.1288(3) -0.03659(19) 0.5993(3)
C56F C -0.1405(3) -0.01531(19) 0.6457(3)
C55F C -0.1101(3) -0.03114(19) 0.7060(2)
C54F C -0.1186(3) -0.0128(2) 0.7500(3)
C63F C -0.0869(3) -0.03353(19) 0.8147(2)
H69F H -0.1094 -0.0234 0.8331
C64F C -0.0858(3) -0.08931(19) 0.8152(3)
H70F H -0.0653 -0.1008 0.7956
H71F H -0.0644 -0.1009 0.8574
C68F C -0.1459(3) -0.1114(2) 0.7827(3)
H75F H -0.1431 -0.1468 0.7887
H76F H -0.1653 -0.1043 0.7395
H77F H -0.1679 -0.0974 0.7989
C69F C -0.1584(3) 0.0251(2) 0.7334(3)
O15F O -0.1674(2) 0.04459(15) 0.7764(2)
H63F H -0.1750 0.0744 0.7694
C67F C -0.1891(3) 0.0425(2) 0.6748(3)
C65F C -0.1797(3) 0.0217(2) 0.6322(3)
O14F O -0.2107(2) 0.03941(16) 0.57290(19)
H62F H -0.2256 0.0663 0.5722
H74F H -0.2161 0.0681 0.6640
H64F H -0.0821 -0.0559 0.7171
H66F H -0.1620 -0.0273 0.5588
C66F C -0.1266(3) -0.0927(2) 0.6011(3)
H72F H -0.1178 -0.1045 0.5710
H73F H -0.0953 -0.1033 0.6414
C71F C -0.1829(3) -0.1155(2) 0.5881(3)
H78F H -0.1795 -0.1511 0.5894
H79F H -0.2140 -0.1054 0.5480
H80F H -0.1913 -0.1046 0.6185
H68F H -0.0180 -0.0616 0.6620
N1 N 0.0000 0.1250(3) 0.7500
C75 C 0.0472(7) 0.0926(5) 0.7872(6)
H87 H 0.0366 0.0592 0.7720
H88 H 0.0561 0.0940 0.8288
H89 H 0.0809 0.1026 0.7860
C76 C 0.0111(7) 0.1567(5) 0.7137(6)
H90 H 0.0495 0.1502 0.7214
H91 H 0.0086 0.1907 0.7236
H92 H -0.0174 0.1508 0.6710
C75F C -0.0472(7) 0.0926(5) 0.7128(6)
H87F H -0.0366 0.0592 0.7280
H88F H -0.0561 0.0940 0.6712
H89F H -0.0809 0.1026 0.7140
C76F C -0.0111(7) 0.1567(5) 0.7863(6)
H90F H -0.0495 0.1502 0.7786
H91F H -0.0086 0.1907 0.7764
H92F H 0.0174 0.1508 0.8290
N2 N 0.0000 0.3754(3) 0.2500
C73 C -0.0496(6) 0.4056(5) 0.2100(6)
H81 H -0.0590 0.4264 0.2341
H82 H -0.0824 0.3845 0.1839
H83 H -0.0407 0.4259 0.1850
C74 C -0.0108(7) 0.3448(5) 0.2885(6)
H84 H -0.0183 0.3655 0.3143
H85 H 0.0227 0.3243 0.3137
H86 H -0.0442 0.3241 0.2634
C73F C 0.0496(6) 0.4056(5) 0.2900(6)
H81F H 0.0590 0.4264 0.2659
H82F H 0.0824 0.3845 0.3161
H83F H 0.0407 0.4259 0.3150
C74F C 0.0108(7) 0.3448(5) 0.2115(6)
H84F H 0.0183 0.3655 0.1857
H85F H -0.0227 0.3243 0.1863
H86F H 0.0442 0.3241 0.2366
O17 O 0.2651(2) 0.12484(17) 0.9532(2)
H93 H 0.2362 0.1429 0.9345
C77 C 0.2959(4) 0.1376(3) 1.0147(3)
H94 H 0.3252 0.1619 1.0221
H95 H 0.3144 0.1086 1.0391
H96 H 0.2696 0.1514 1.0256
O18 O 0.1019(2) 0.53886(17) 0.4531(2)
H97 H 0.0729 0.5212 0.4327
C78 C 0.1186(4) 0.5372(3) 0.5142(3)
H98 H 0.0911 0.5556 0.5198
H99 H 0.1567 0.5517 0.5391
H100 H 0.1196 0.5032 0.5264
O19 O -0.1415(2) 0.3760(2) -0.0314(2)
H101 H -0.1118 0.3586 -0.0142
C79 C -0.1772(8) 0.3595(15) -0.0894(9)
H102 H -0.2062 0.3378 -0.0906
H103 H -0.1548 0.3416 -0.1026
H104 H -0.1962 0.3873 -0.1162
O20 O -0.0620(2) 0.12404(17) 0.95299(19)
H108 H -0.0563 0.1535 0.9493
C81 C -0.0314(4) 0.1115(3) 1.0135(3)
H109 H -0.0028 0.1367 1.0365
H110 H -0.0121 0.0802 1.0186
H111 H -0.0577 0.1086 1.0281
O21 O 0.1409(2) 0.12547(18) 1.0315(2)
H112 H 0.1410 0.0983 1.0166
C82 C 0.1538(9) 0.1192(6) 1.0883(7)
H113 H 0.1378 0.1462 1.0994
H114 H 0.1955 0.1185 1.1156
H115 H 0.1374 0.0883 1.0913
O22 O 0.1009(2) 0.21142(18) 0.4528(2)
H119 H 0.1152 0.2133 0.4312
C84 C 0.1447(4) 0.2119(3) 0.5136(3)
H120 H 0.1306 0.1978 0.5379
H121 H 0.1570 0.2456 0.5265
H122 H 0.1772 0.1927 0.5190
Cl1 Cl 0.0000 0.13212(10) 0.2500
C80? C -0.1625(14) 0.3928(14) -0.0875(10)
H105? H -0.2042 0.3957 -0.1080
H106? H -0.1527 0.3701 -0.1097
H107? H -0.1459 0.4248 -0.0857
C83? C 0.1885(10) 0.1322(6) 1.0882(7)
H116? H 0.2048 0.1645 1.0907
H117? H 0.2171 0.1071 1.0961
H118? H 0.1775 0.1297 1.1183
loop_
_geom_bond_atom_site_label_1
_geom_bond_atom_site_label_2
_geom_bond_site_symmetry_1
_geom_bond_site_symmetry_2
O1 H1 1_555 1_555
O2 H2 1_555 1_555
O3 H3 1_555 1_555
O4 H4 1_555 1_555
O5 H5 1_555 1_555
O6 H6 1_555 1_555
O7 H7 1_555 1_555
O8 H8 1_555 1_555
O9 H9 1_555 1_555
O10 H10 1_555 1_555
O11 H11 1_555 1_555
C1 C12 1_555 1_555
O12 H12 1_555 1_555
C2 C14 1_555 1_555
C3 C6 1_555 1_555
C4 C24 1_555 1_555
C5 H13 1_555 1_555
C6 H14 1_555 1_555
C7 C20 1_555 1_555
C8 H15 1_555 1_555
C9 C3 1_555 1_555
H16 C9 1_555 1_555
C10 C8 1_555 1_555
C11 C14 1_555 1_555
C12 H17 1_555 1_555
C13 O11 1_555 1_555
C14 H18 1_555 1_555
C15 C11 1_555 1_555
H19 C15 1_555 1_555
C16 H20 1_555 1_555
C17 C12 1_555 1_555
C18 O2 1_555 1_555
C19 C6 1_555 1_555
C20 H21 1_555 1_555
C21 C5 1_555 1_555
C22 C5 1_555 1_555
H22 C22 1_555 1_555
H23 C22 1_555 1_555
C23 O9 1_555 1_555
C24 C21 1_555 1_555
H24 C24 1_555 1_555
C25 O12 1_555 1_555
C26 C13 1_555 1_555
H25 C26 1_555 1_555
C27 O1 1_555 1_555
C28 O6 1_555 1_555
C29 H26 1_555 1_555
C30 C6 1_555 1_555
H27 C30 1_555 1_555
H28 C30 1_555 1_555
C31 C1 1_555 1_555
H29 C31 1_555 1_555
C32 O5 1_555 1_555
C33 H30 1_555 1_555
C34 O4 1_555 1_555
C35 C4 1_555 1_555
H31 C35 1_555 1_555
C36 H32 1_555 1_555
C37 C8 1_555 1_555
C38 C25 1_555 1_555
H33 C38 1_555 1_555
C39 C8 1_555 1_555
H34 C39 1_555 1_555
H35 C39 1_555 1_555
C40 C15 1_555 1_555
H36 C40 1_555 1_555
H37 C40 1_555 1_555
C41 C35 1_555 1_555
H38 C41 1_555 1_555
H39 C41 1_555 1_555
C42 O8 1_555 1_555
C43 O10 1_555 1_555
C44 C40 1_555 1_555
H40 C44 1_555 1_555
H41 C44 1_555 1_555
H42 C44 1_555 1_555
C45 C18 1_555 1_555
H43 C45 1_555 1_555
C46 C30 1_555 1_555
H44 C46 1_555 1_555
H45 C46 1_555 1_555
H46 C46 1_555 1_555
C47 C31 1_555 1_555
H47 C47 1_555 1_555
H48 C47 1_555 1_555
C48 O7 1_555 1_555
C49 C47 1_555 1_555
H49 C49 1_555 1_555
H50 C49 1_555 1_555
H51 C49 1_555 1_555
C50 O3 1_555 1_555
C51 C39 1_555 1_555
H52 C51 1_555 1_555
H53 C51 1_555 1_555
H54 C51 1_555 1_555
C52 C41 1_555 1_555
H55 C52 1_555 1_555
H56 C52 1_555 1_555
H57 C52 1_555 1_555
C53 C22 1_555 1_555
H58 C53 1_555 1_555
H59 C53 1_555 1_555
H60 C53 1_555 1_555
O13 H61 1_555 1_555
O14 H62 1_555 1_555
O15 H63 1_555 1_555
C54 C55 1_555 1_555
C55 H64 1_555 1_555
C56 C55 1_555 1_555
C57 C62 1_555 1_555
O16 H65 1_555 1_555
C58 C59 1_555 1_555
C59 O13 1_555 1_555
C60 C56 1_555 1_555
H66 C60 1_555 1_555
C61 C59 1_555 1_555
H67 C61 1_555 1_555
C62 C58 1_555 1_555
H68 C62 1_555 1_555
C63 C54 1_555 1_555
H69 C63 1_555 1_555
C64 C63 1_555 1_555
H70 C64 1_555 1_555
H71 C64 1_555 1_555
C65 O14 1_555 1_555
C66 C60 1_555 1_555
H72 C66 1_555 1_555
H73 C66 1_555 1_555
C67 C65 1_555 1_555
H74 C67 1_555 1_555
C68 C64 1_555 1_555
H75 C68 1_555 1_555
H76 C68 1_555 1_555
H77 C68 1_555 1_555
C69 O15 1_555 1_555
C70 C57 1_555 1_555
C71 C66 1_555 1_555
H78 C71 1_555 1_555
H79 C71 1_555 1_555
H80 C71 1_555 1_555
N1 C75 1_555 1_555
N2 C73 1_555 1_555
C72 C5 1_555 1_555
C73 H81 1_555 1_555
H82 C73 1_555 1_555
H83 C73 1_555 1_555
C74 N2 1_555 1_555
H84 C74 1_555 1_555
H85 C74 1_555 1_555
H86 C74 1_555 1_555
C75 H87 1_555 1_555
H88 C75 1_555 1_555
H89 C75 1_555 1_555
C76 N1 1_555 1_555
H90 C76 1_555 1_555
H91 C76 1_555 1_555
H92 C76 1_555 1_555
O17 H93 1_555 1_555
C77 O17 1_555 1_555
H94 C77 1_555 1_555
H95 C77 1_555 1_555
H96 C77 1_555 1_555
O18 H97 1_555 1_555
C78 O18 1_555 1_555
H98 C78 1_555 1_555
H99 C78 1_555 1_555
H100 C78 1_555 1_555
O19 H101 1_555 1_555
C79 O19 1_555 1_555
H102 C79 1_555 1_555
H103 C79 1_555 1_555
H104 C79 1_555 1_555
O20 H108 1_555 1_555
C81 O20 1_555 1_555
H109 C81 1_555 1_555
H110 C81 1_555 1_555
H111 C81 1_555 1_555
O21 H112 1_555 1_555
C82 O21 1_555 1_555
H113 C82 1_555 1_555
H114 C82 1_555 1_555
H115 C82 1_555 1_555
O22 H119 1_555 1_555
C84 O22 1_555 1_555
H120 C84 1_555 1_555
H121 C84 1_555 1_555
H122 C84 1_555 1_555
C2F C31 1_555 1_555
C14F C2F 1_555 1_555
C11F C14F 1_555 1_555
C15F C11F 1_555 1_555
H19F C15F 1_555 1_555
C17F C15F 1_555 1_555
C12F C17F 1_555 1_555
C1F C12F 1_555 1_555
C13F C1F 1_555 1_555
O11F C13F 1_555 1_555
H11F O11F 1_555 1_555
C26F C13F 1_555 1_555
H25F C26F 1_555 1_555
C27F C17F 1_555 1_555
O1F C27F 1_555 1_555
H1F O1F 1_555 1_555
C31F C2 1_555 1_555
H29F C31F 1_555 1_555
C47F C31F 1_555 1_555
H47F C47F 1_555 1_555
H48F C47F 1_555 1_555
C49F C47F 1_555 1_555
H49F C49F 1_555 1_555
H50F C49F 1_555 1_555
H51F C49F 1_555 1_555
H17F C12F 1_555 1_555
C40F C15F 1_555 1_555
H36F C40F 1_555 1_555
H37F C40F 1_555 1_555
C44F C40F 1_555 1_555
H40F C44F 1_555 1_555
H41F C44F 1_555 1_555
H42F C44F 1_555 1_555
C18F C11F 1_555 1_555
O2F C18F 1_555 1_555
H2F O2F 1_555 1_555
C45F C18F 1_555 1_555
C23F C2F 1_555 1_555
O9F C23F 1_555 1_555
H9F O9F 1_555 1_555
H43F C45F 1_555 1_555
H18F C14F 1_555 1_555
C57F C63 1_555 1_555
C62F C57F 1_555 1_555
C58F C62F 1_555 1_555
C59F C58F 1_555 1_555
O13F C59F 1_555 1_555
H61F O13F 1_555 1_555
C61F C59F 1_555 1_555
H67F C61F 1_555 1_555
C70F C57F 1_555 1_555
O16F C70F 1_555 1_555
H65F O16F 1_555 1_555
C60F C58F 1_555 1_555
C56F C60F 1_555 1_555
C55F C56F 1_555 1_555
C54F C55F 1_555 1_555
C63F C57 1_555 1_555
H69F C63F 1_555 1_555
C64F C63F 1_555 1_555
H70F C64F 1_555 1_555
H71F C64F 1_555 1_555
C68F C64F 1_555 1_555
H75F C68F 1_555 1_555
H76F C68F 1_555 1_555
H77F C68F 1_555 1_555
C69F C54F 1_555 1_555
O15F C69F 1_555 1_555
H63F O15F 1_555 1_555
C67F C69F 1_555 1_555
C65F C56F 1_555 1_555
O14F C65F 1_555 1_555
H62F O14F 1_555 1_555
H74F C67F 1_555 1_555
H64F C55F 1_555 1_555
H66F C60F 1_555 1_555
C66F C60F 1_555 1_555
H72F C66F 1_555 1_555
H73F C66F 1_555 1_555
C71F C66F 1_555 1_555
H78F C71F 1_555 1_555
H79F C71F 1_555 1_555
H80F C71F 1_555 1_555
H68F C62F 1_555 1_555
C75F N1 1_555 1_555
H87F C75F 1_555 1_555
H88F C75F 1_555 1_555
H89F C75F 1_555 1_555
C76F N1 1_555 1_555
H90F C76F 1_555 1_555
H91F C76F 1_555 1_555
H92F C76F 1_555 1_555
C73F N2 1_555 1_555
H81F C73F 1_555 1_555
H82F C73F 1_555 1_555
H83F C73F 1_555 1_555
C74F N2 1_555 1_555
H84F C74F 1_555 1_555
H85F C74F 1_555 1_555
H86F C74F 1_555 1_555
C1 C13 1_555 1_555
C2 C23 1_555 1_555
C3 C32 1_555 1_555
C4 C43 1_555 1_555
C7 C35 1_555 1_555
C7 C42 1_555 1_555
C9 C10 1_555 1_555
C10 C50 1_555 1_555
C11 C18 1_555 1_555
C15 C17 1_555 1_555
C16 C72 1_555 1_555
C16 C19 1_555 1_555
C17 C27 1_555 1_555
C19 C25 1_555 1_555
C20 C37 1_555 1_555
C21 C34 1_555 1_555
C23 C45 1_555 1_555
C26 C27 1_555 1_555
C28 C38 1_555 1_555
C28 C72 1_555 1_555
C29 C32 1_555 1_555
C29 C50 1_555 1_555
C33 C34 1_555 1_555
C33 C43 1_555 1_555
C36 C42 1_555 1_555
C36 C48 1_555 1_555
C37 C48 1_555 1_555
C54 C69 1_555 1_555
C56 C65 1_555 1_555
O16 C70 1_555 1_555
C58 C60 1_555 1_555
C61 C70 1_555 1_555
C67 C69 1_555 1_555
C1F C31F 1_555 1_555
C26F C27F 1_555 1_555
C45F C23F 1_555 1_555
C61F C70F 1_555 1_555
C54F C63F 1_555 1_555
C67F C65F 1_555 1_555

#END
