
#######################################################################
#
#                 Cambridge Crystallographic Data Centre
#                                CCDC 
#
#######################################################################
#
# If this CIF has been generated from an entry in the Cambridge 
# Structural Database, then it will include bibliographic, chemical, 
# crystal, experimental, refinement or atomic coordinate data resulting 
# from the CCDC's data processing and validation procedures.
#
#######################################################################

data_XUSZUG
_chemical_name_common            
'bis(C-Ethycalix[4]lresorcinarene) tetramethylammonium clathrate chloride hydrate'
_chemical_formula_moiety         'C4 H12 N1 1+,Cl1 1-,2(C36 H40 O8),4.5(H2 O1)'
_chemical_name_systematic        
'bis(2,8,14,20-Tetraethyl-4,6,10,12,16,18,22,24-octahydroxycalix(4)arene) tetramethylammonium clathrate chloride hydrate'
_symmetry_cell_setting           orthorhombic
_symmetry_space_group_name_H-M   'P n n n'
_symmetry_Int_Tables_number      48
_space_group_name_Hall           '-P 2ab 2bc'
loop_
_symmetry_equiv_pos_site_id
_symmetry_equiv_pos_as_xyz
1 x,y,z
2 1/2+x,1/2+y,-z
3 -x,1/2+y,1/2+z
4 1/2+x,-y,1/2+z
5 -x,-y,-z
6 1/2-x,1/2-y,z
7 x,1/2-y,1/2-z
8 1/2-x,y,1/2-z
_cell_length_a                   13.6265(3)
_cell_length_b                   14.2716(2)
_cell_length_c                   20.8343(4)
_cell_angle_alpha                90
_cell_angle_beta                 90
_cell_angle_gamma                90
_cell_volume                     4051.69
_exptl_crystal_colour            colorless
_exptl_crystal_description       block
_cell_formula_units_Z            2
loop_
_atom_site_label
_atom_site_type_symbol
_atom_site_fract_x
_atom_site_fract_y
_atom_site_fract_z
N1 N 0.7500 0.2500 0.2500
C19 C 0.8338(15) 0.2258(14) 0.2885(9)
H21 H 0.8647 0.2831 0.3047
H22 H 0.8810 0.1909 0.2623
H23 H 0.8127 0.1868 0.3247
C20 C 0.780(3) 0.159(2) 0.2738(16)
H24 H 0.8361 0.1660 0.3029
H25 H 0.7994 0.1187 0.2376
H26 H 0.7255 0.1293 0.2968
C19F C 0.8338(15) 0.2742(14) 0.2115(9)
C19E C 0.6662(15) 0.2742(14) 0.2885(9)
C19G C 0.6662(15) 0.2258(14) 0.2115(9)
C20G C 0.720(3) 0.159(2) 0.2262(16)
C20E C 0.720(3) 0.341(2) 0.2738(16)
H21E H 0.6353 0.2169 0.3047
H22E H 0.6190 0.3091 0.2623
H23E H 0.6873 0.3132 0.3247
C20F C 0.780(3) 0.341(2) 0.2262(16)
H21F H 0.8647 0.2169 0.1953
H22F H 0.8810 0.3091 0.2377
H23F H 0.8127 0.3132 0.1753
H24F H 0.8361 0.3340 0.1971
H25F H 0.7994 0.3813 0.2624
H24E H 0.6639 0.3340 0.3029
H25E H 0.7006 0.3813 0.2376
H26F H 0.7255 0.3707 0.2032
H26E H 0.7745 0.3707 0.2968
H21G H 0.6353 0.2831 0.1953
H22G H 0.6190 0.1909 0.2377
H23G H 0.6873 0.1868 0.1753
H24G H 0.6639 0.1660 0.1971
H25G H 0.7006 0.1187 0.2624
H26G H 0.7745 0.1293 0.2032
O1 O 0.5435(3) 0.5246(3) 0.16434(19)
H1 H 0.5998 0.5472 0.1591
O2 O 0.7224(3) 0.6004(3) 0.14775(19)
H2 H 0.7458 0.6316 0.1783
C1 C 0.5908(4) 0.4156(3) 0.0805(2)
C2 C 0.7631(4) 0.4790(3) 0.0765(2)
C3 C 0.7908(4) 0.5364(3) 0.1270(2)
O3 O 1.0424(3) 0.4590(3) 0.1563(2)
H3 H 1.0557 0.5080 0.1769
C4 C 0.5141(4) 0.2597(3) 0.0819(3)
C5 C 0.5764(4) 0.3254(3) 0.0557(2)
H4 H 0.6120 0.3084 0.0183
C6 C 0.6603(4) 0.4847(3) 0.0477(2)
H5 H 0.6350 0.5487 0.0583
C7 C 0.9266(4) 0.4066(3) 0.0797(2)
C8 C 0.8320(4) 0.4147(3) 0.0548(2)
H6 H 0.8135 0.3737 0.0209
C9 C 0.5385(4) 0.4379(3) 0.1355(2)
C10 C 0.9505(4) 0.4664(4) 0.1305(2)
C11 C 0.8829(4) 0.5303(4) 0.1543(2)
H7 H 0.8999 0.5697 0.1893
C12 C 0.4646(5) 0.2853(4) 0.1379(3)
C13 C 0.4996(4) 0.1630(3) 0.0516(3)
H8 H 0.4331 0.1410 0.0652
O4 O 0.4016(4) 0.2243(3) 0.1679(3)
H9 H 0.4187 0.1690 0.1599
C14 C 0.4986(5) 0.1651(4) -0.0216(3)
H10 H 0.5630 0.1880 -0.0370
H11 H 0.4898 0.1004 -0.0377
C15 C 0.4769(5) 0.3737(4) 0.1639(3)
H12 H 0.4423 0.3904 0.2018
C16 C 0.6602(5) 0.4779(4) -0.0259(2)
H13 H 0.6867 0.4162 -0.0389
H14 H 0.5919 0.4823 -0.0418
C17 C 0.7213(6) 0.5550(5) -0.0566(3)
H15 H 0.7153 0.5512 -0.1034
H16 H 0.7902 0.5473 -0.0443
H17 H 0.6976 0.6162 -0.0419
C18 C 0.4188(6) 0.2264(4) -0.0493(4)
H18 H 0.4168 0.2185 -0.0960
H19 H 0.4325 0.2921 -0.0389
H20 H 0.3554 0.2084 -0.0308
C7E C 0.5734(4) 0.0934(3) 0.0797(2)
C8E C 0.6680(4) 0.0853(3) 0.0548(2)
C2E C 0.7369(4) 0.0210(3) 0.0765(2)
C3E C 0.7092(4) -0.0364(3) 0.1270(2)
O2E O 0.7776(3) -0.1004(3) 0.14775(19)
H2E H 0.7542 -0.1316 0.1783
C11E C 0.6171(4) -0.0303(4) 0.1543(2)
C10E C 0.5495(4) 0.0336(4) 0.1305(2)
O3E O 0.4576(3) 0.0410(3) 0.1563(2)
H3E H 0.4443 -0.0080 0.1769
H7E H 0.6001 -0.0697 0.1893
C6E C 0.8397(4) 0.0153(3) 0.0477(2)
C1E C 0.9092(4) 0.0844(3) 0.0805(2)
C5E C 0.9236(4) 0.1746(3) 0.0557(2)
C4E C 0.9859(4) 0.2403(3) 0.0819(3)
C12E C 1.0354(5) 0.2147(4) 0.1379(3)
O4E O 1.0984(4) 0.2757(3) 0.1679(3)
H9E H 1.0813 0.3310 0.1599
C15E C 1.0231(5) 0.1263(4) 0.1639(3)
C9E C 0.9615(4) 0.0621(3) 0.1355(2)
O1E O 0.9565(3) -0.0246(3) 0.16434(19)
H1E H 0.9002 -0.0472 0.1591
H12E H 1.0577 0.1096 0.2018
C13E C 1.0004(4) 0.3370(3) 0.0516(3)
H8E H 1.0669 0.3590 0.0652
C14E C 1.0014(5) 0.3349(4) -0.0216(3)
H10E H 0.9370 0.3120 -0.0370
H11E H 1.0102 0.3996 -0.0377
C18E C 1.0812(6) 0.2736(4) -0.0493(4)
H18E H 1.0832 0.2815 -0.0960
H19E H 1.0675 0.2079 -0.0389
H20E H 1.1446 0.2916 -0.0308
H4E H 0.8880 0.1916 0.0183
H5E H 0.8650 -0.0487 0.0583
C16E C 0.8398(5) 0.0221(4) -0.0259(2)
H13E H 0.8133 0.0838 -0.0389
H14E H 0.9081 0.0177 -0.0418
C17E C 0.7787(6) -0.0550(5) -0.0566(3)
H15E H 0.7847 -0.0512 -0.1034
H16E H 0.7098 -0.0473 -0.0443
H17E H 0.8024 -0.1162 -0.0419
H6E H 0.6865 0.1263 0.0209
O5 O 0.4232(6) -0.0951(5) 0.2430(3)
O8 O 0.2500 -0.043(5) 0.2500
Cl1 Cl 0.7500 -0.2500 0.2500
O6? O 0.2500 0.1953(11) 0.2500
O7? O 0.4451(17) -0.2122(14) 0.2405(13)
loop_
_geom_bond_atom_site_label_1
_geom_bond_atom_site_label_2
_geom_bond_site_symmetry_1
_geom_bond_site_symmetry_2
N1 C19 1_555 1_555
O1 H1 1_555 1_555
O2 H2 1_555 1_555
C1 C5 1_555 1_555
C2 C3 1_555 1_555
C3 O2 1_555 1_555
O3 H3 1_555 1_555
C4 C5 1_555 1_555
C5 H4 1_555 1_555
C6 C1 1_555 1_555
H5 C6 1_555 1_555
C7 C8 1_555 1_555
C8 C2 1_555 1_555
H6 C8 1_555 1_555
C9 O1 1_555 1_555
C10 O3 1_555 1_555
C11 C3 1_555 1_555
H7 C11 1_555 1_555
C12 C4 1_555 1_555
C13 C4 1_555 1_555
H8 C13 1_555 1_555
O4 C12 1_555 1_555
H9 O4 1_555 1_555
C14 C13 1_555 1_555
H10 C14 1_555 1_555
H11 C14 1_555 1_555
C15 C9 1_555 1_555
H12 C15 1_555 1_555
C16 C6 1_555 1_555
H13 C16 1_555 1_555
H14 C16 1_555 1_555
C17 C16 1_555 1_555
H15 C17 1_555 1_555
H16 C17 1_555 1_555
H17 C17 1_555 1_555
C18 C14 1_555 1_555
H18 C18 1_555 1_555
H19 C18 1_555 1_555
H20 C18 1_555 1_555
C19 H21 1_555 1_555
H22 C19 1_555 1_555
H23 C19 1_555 1_555
C20 N1 1_555 1_555
H24 C19 1_555 1_555
H25 C20 1_555 1_555
H26 C20 1_555 1_555
C19F N1 1_555 1_555
C19E N1 1_555 1_555
C19G N1 1_555 1_555
C20G N1 1_555 1_555
C20E N1 1_555 1_555
H21E C19E 1_555 1_555
H22E C19E 1_555 1_555
H23E C19E 1_555 1_555
C20F N1 1_555 1_555
H21F C19F 1_555 1_555
H22F C19F 1_555 1_555
H23F C19F 1_555 1_555
H24F C19F 1_555 1_555
H25F C20E 1_555 1_555
H24E C19E 1_555 1_555
H25E C20E 1_555 1_555
H26F C20F 1_555 1_555
H26E C20E 1_555 1_555
H21G C19G 1_555 1_555
H22G C19G 1_555 1_555
H23G C19G 1_555 1_555
H24G C19G 1_555 1_555
H25G C20 1_555 1_555
H26G H25 1_555 1_555
C7E C13 1_555 1_555
C8E C7E 1_555 1_555
C2E C8E 1_555 1_555
C3E C2E 1_555 1_555
O2E C3E 1_555 1_555
H2E O2E 1_555 1_555
C11E C3E 1_555 1_555
C10E C7E 1_555 1_555
O3E C10E 1_555 1_555
H3E O3E 1_555 1_555
H7E C11E 1_555 1_555
C6E C2E 1_555 1_555
C1E C6E 1_555 1_555
C5E C1E 1_555 1_555
C4E C5E 1_555 1_555
C12E C4E 1_555 1_555
O4E C12E 1_555 1_555
H9E O4E 1_555 1_555
C15E C12E 1_555 1_555
C9E C1E 1_555 1_555
O1E C9E 1_555 1_555
H1E O1E 1_555 1_555
H12E C15E 1_555 1_555
C13E C7 1_555 1_555
H8E C13E 1_555 1_555
C14E C13E 1_555 1_555
H10E C14E 1_555 1_555
H11E C14E 1_555 1_555
C18E C14E 1_555 1_555
H18E C18E 1_555 1_555
H19E C18E 1_555 1_555
H20E C18E 1_555 1_555
H4E C5E 1_555 1_555
H5E C6E 1_555 1_555
C16E C6E 1_555 1_555
H13E C16E 1_555 1_555
H14E C16E 1_555 1_555
C17E C16E 1_555 1_555
H15E C17E 1_555 1_555
H16E C17E 1_555 1_555
H17E C17E 1_555 1_555
H6E C8E 1_555 1_555
C1 C9 1_555 1_555
C2 C6 1_555 1_555
C7 C10 1_555 1_555
C10 C11 1_555 1_555
C12 C15 1_555 1_555
C19 C19F 1_555 1_555
C19 C20 1_555 1_555
H23 C20 1_555 1_555
H23 H24 1_555 1_555
C20 H24 1_555 1_555
C20 C20G 1_555 1_555
H25 C20G 1_555 1_555
H26 H25G 1_555 1_555
C19F C20F 1_555 1_555
C19E C19G 1_555 1_555
C19E C20E 1_555 1_555
C19G C20G 1_555 1_555
C20G H24G 1_555 1_555
C20G H25G 1_555 1_555
C20G H26G 1_555 1_555
C20G H23G 1_555 1_555
C20E C20F 1_555 1_555
C20E H24E 1_555 1_555
C20E H23E 1_555 1_555
H23E H24E 1_555 1_555
C20F H24F 1_555 1_555
C20F H25F 1_555 1_555
C20F H23F 1_555 1_555
C20F H25E 1_555 1_555
H23F H24F 1_555 1_555
H25F H26E 1_555 1_555
H25E H26F 1_555 1_555
H23G H24G 1_555 1_555
C11E C10E 1_555 1_555
C4E C13E 1_555 1_555
C15E C9E 1_555 1_555

#END
