
#######################################################################
#
#                 Cambridge Crystallographic Data Centre
#                                CCDC 
#
#######################################################################
#
# If this CIF has been generated from an entry in the Cambridge 
# Structural Database, then it will include bibliographic, chemical, 
# crystal, experimental, refinement or atomic coordinate data resulting 
# from the CCDC's data processing and validation procedures.
#
#######################################################################

data_XUTBAP
_chemical_name_common            
'bis(C-Methylcalix[4]resorcinarene) tetramethylammonium clathrate bromide methanol solvate'
_chemical_formula_moiety         'C4 H12 N1 1+,Br1 1-,2(C36 H40 O8),8(C1 H4 O1)'
_chemical_name_systematic        
'bis(2,8,14,20-Tetraethyl-4,6,10,12,16,18,22,24-octahydroxycalix(4)arene) tetramethylammonium clathrate bromide methanol solvate'
_symmetry_cell_setting           tetragonal
_symmetry_space_group_name_H-M   'I 4/m'
_symmetry_Int_Tables_number      87
_space_group_name_Hall           '-I 4'
loop_
_symmetry_equiv_pos_site_id
_symmetry_equiv_pos_as_xyz
1 x,y,z
2 -y,x,z
3 y,-x,z
4 1/2+x,1/2+y,1/2+z
5 1/2-y,1/2+x,1/2+z
6 1/2+y,1/2-x,1/2+z
7 x,y,-z
8 1/2+x,1/2+y,1/2-z
9 -x,-y,-z
10 y,-x,-z
11 -y,x,-z
12 1/2-x,1/2-y,1/2-z
13 1/2+y,1/2-x,1/2-z
14 1/2-y,1/2+x,1/2-z
15 -x,-y,z
16 1/2-x,1/2-y,1/2+z
_cell_length_a                   14.2230(7)
_cell_length_b                   14.2230(7)
_cell_length_c                   21.5472(15)
_cell_angle_alpha                90
_cell_angle_beta                 90
_cell_angle_gamma                90
_cell_volume                     4358.86
_exptl_crystal_colour            colorless
_exptl_crystal_description       block
_cell_formula_units_Z            2
loop_
_atom_site_label
_atom_site_type_symbol
_atom_site_fract_x
_atom_site_fract_y
_atom_site_fract_z
O1 O -0.3478(3) 0.0065(2) 0.1006(2)
H1 H -0.3260 -0.0468 0.0921
O2 O -0.1778(3) 0.2941(3) 0.0991(2)
H2 H -0.2297 0.3178 0.0890
C1 C -0.1583(3) 0.0907(3) 0.2012(2)
H3 H -0.1218 0.0700 0.2355
C2 C -0.1406(3) 0.1798(3) 0.1770(2)
C3 C -0.1926(4) 0.2075(3) 0.1255(3)
C4 C -0.2271(3) 0.0298(3) 0.1776(2)
C5 C -0.2451(3) -0.0672(3) 0.2055(2)
H4 H -0.3103 -0.0853 0.1928
C6 C -0.2615(4) 0.1491(4) 0.1012(3)
H5 H -0.2981 0.1699 0.0670
C7 C -0.2775(4) 0.0617(3) 0.1262(2)
C8 C -0.3197(4) -0.0061(5) 0.3052(3)
H6 H -0.3164 -0.0104 0.3505
H7 H -0.3817 -0.0271 0.2911
H8 H -0.3095 0.0592 0.2924
C9 C -0.2439(4) -0.0686(4) 0.2765(2)
H9 H -0.2531 -0.1340 0.2910
H10 H -0.1815 -0.0474 0.2912
C5B C -0.0672(3) 0.2451(3) 0.2055(2)
C4B C 0.0298(3) 0.2271(3) 0.1776(2)
C1B C 0.0907(3) 0.1583(3) 0.2012(2)
H3B H 0.0700 0.1218 0.2355
C2B C 0.1798(3) 0.1406(3) 0.1770(2)
C3B C 0.2075(3) 0.1926(4) 0.1255(3)
O2B O 0.2941(3) 0.1778(3) 0.0991(2)
H2B H 0.3178 0.2297 0.0890
C6B C 0.1491(4) 0.2615(4) 0.1012(3)
H5B H 0.1699 0.2981 0.0670
C7B C 0.0617(3) 0.2775(4) 0.1262(2)
O1B O 0.0065(2) 0.3478(3) 0.1006(2)
H1B H -0.0468 0.3260 0.0921
C5N C 0.2451(3) 0.0672(3) 0.2055(2)
C4N C 0.2271(3) -0.0298(3) 0.1776(2)
C1N C 0.1583(3) -0.0907(3) 0.2012(2)
H3N H 0.1218 -0.0700 0.2355
C2N C 0.1406(3) -0.1798(3) 0.1770(2)
C3N C 0.1926(4) -0.2075(3) 0.1255(3)
O2N O 0.1778(3) -0.2941(3) 0.0991(2)
H2N H 0.2297 -0.3178 0.0890
C6N C 0.2615(4) -0.1491(4) 0.1012(3)
H5N H 0.2981 -0.1699 0.0670
C7N C 0.2775(4) -0.0617(3) 0.1262(2)
O1N O 0.3478(3) -0.0065(2) 0.1006(2)
H1N H 0.3260 0.0468 0.0921
C5A C 0.0672(3) -0.2451(3) 0.2055(2)
C4A C -0.0298(3) -0.2271(3) 0.1776(2)
C1A C -0.0907(3) -0.1583(3) 0.2012(2)
H3A H -0.0700 -0.1218 0.2355
C2A C -0.1798(3) -0.1406(3) 0.1770(2)
C3A C -0.2075(3) -0.1926(4) 0.1255(3)
O2A O -0.2941(3) -0.1778(3) 0.0991(2)
H2A H -0.3178 -0.2297 0.0890
C6A C -0.1491(4) -0.2615(4) 0.1012(3)
H5A H -0.1699 -0.2981 0.0670
C7A C -0.0617(3) -0.2775(4) 0.1262(2)
O1A O -0.0065(2) -0.3478(3) 0.1006(2)
H1A H 0.0468 -0.3260 0.0921
H4A H 0.0853 -0.3103 0.1928
C9A C 0.0686(4) -0.2439(4) 0.2765(2)
C8A C 0.0061(5) -0.3197(4) 0.3052(3)
H6A H 0.0104 -0.3164 0.3505
H7A H 0.0271 -0.3817 0.2911
H8A H -0.0592 -0.3095 0.2924
H9A H 0.1340 -0.2531 0.2910
H10A H 0.0474 -0.1815 0.2912
H4N H 0.3103 0.0853 0.1928
C9N C 0.2439(4) 0.0686(4) 0.2765(2)
C8N C 0.3197(4) 0.0061(5) 0.3052(3)
H6N H 0.3164 0.0104 0.3505
H7N H 0.3817 0.0271 0.2911
H8N H 0.3095 -0.0592 0.2924
H9N H 0.2531 0.1340 0.2910
H10N H 0.1815 0.0474 0.2912
H4B H -0.0853 0.3103 0.1928
C9B C -0.0686(4) 0.2439(4) 0.2765(2)
C8B C -0.0061(5) 0.3197(4) 0.3052(3)
H6B H -0.0104 0.3164 0.3505
H7B H -0.0271 0.3817 0.2911
H8B H 0.0592 0.3095 0.2924
H9B H -0.1340 0.2531 0.2910
H10B H -0.0474 0.1815 0.2912
N1 N 0.0000 0.0000 0.0000
C10 C 0.0000 0.0000 0.06590(5)
C11 C -0.022(3) 0.107(3) 0.023(2)
C10F C 0.0000 0.0000 -0.06590(5)
C11F C -0.022(3) 0.107(3) -0.023(2)
C11A C -0.107(3) -0.022(3) 0.023(2)
C11J C -0.107(3) -0.022(3) -0.023(2)
C11B C 0.107(3) 0.022(3) 0.023(2)
C11I C 0.107(3) 0.022(3) -0.023(2)
C11H C 0.022(3) -0.107(3) -0.023(2)
C11N C 0.022(3) -0.107(3) 0.023(2)
O4 O -0.4280(4) 0.0837(4) 0.0000
C13 C -0.5017(6) 0.1459(7) 0.0000
Br1 Br 0.0000 0.0000 0.36034(13)
O3? O -0.3395(6) 0.3718(7) 0.0625(4)
H11? H -0.3778 0.4053 0.0823
C12? C -0.3620(16) 0.3737(17) 0.0000
H12? H -0.3046 0.3664 -0.0247
H13? H -0.3920 0.4338 -0.0101
H14? H -0.4054 0.3221 -0.0094
H15? H -0.4217 0.0606 0.0357
H16? H -0.4850 0.2013 0.0247
H17? H -0.5573 0.1157 0.0180
H18? H -0.5154 0.1653 -0.0427
loop_
_geom_bond_atom_site_label_1
_geom_bond_atom_site_label_2
_geom_bond_site_symmetry_1
_geom_bond_site_symmetry_2
O1 H1 1_555 1_555
O2 H2 1_555 1_555
C1 H3 1_555 1_555
C2 C1 1_555 1_555
C3 O2 1_555 1_555
C4 C1 1_555 1_555
C5 C4 1_555 1_555
H4 C5 1_555 1_555
C6 C3 1_555 1_555
H5 C6 1_555 1_555
C7 O1 1_555 1_555
C8 H6 1_555 1_555
H7 C8 1_555 1_555
H8 C8 1_555 1_555
C9 C5 1_555 1_555
H9 C9 1_555 1_555
H10 C9 1_555 1_555
N1 C10 1_555 1_555
C11 N1 1_555 1_555
O4 C13 1_555 1_555
C5B C2 1_555 1_555
C4B C5B 1_555 1_555
C1B C4B 1_555 1_555
H3B C1B 1_555 1_555
C2B C1B 1_555 1_555
C3B C2B 1_555 1_555
O2B C3B 1_555 1_555
H2B O2B 1_555 1_555
C6B C3B 1_555 1_555
H5B C6B 1_555 1_555
C7B C4B 1_555 1_555
O1B C7B 1_555 1_555
H1B O1B 1_555 1_555
C5N C2B 1_555 1_555
C4N C5N 1_555 1_555
C1N C4N 1_555 1_555
H3N C1N 1_555 1_555
C2N C1N 1_555 1_555
C3N C2N 1_555 1_555
O2N C3N 1_555 1_555
H2N O2N 1_555 1_555
C6N C3N 1_555 1_555
H5N C6N 1_555 1_555
C7N C4N 1_555 1_555
O1N C7N 1_555 1_555
H1N O1N 1_555 1_555
C5A C2N 1_555 1_555
C4A C5A 1_555 1_555
C1A C4A 1_555 1_555
H3A C1A 1_555 1_555
C2A C5 1_555 1_555
C3A C2A 1_555 1_555
O2A C3A 1_555 1_555
H2A O2A 1_555 1_555
C6A C3A 1_555 1_555
H5A C6A 1_555 1_555
C7A C4A 1_555 1_555
O1A C7A 1_555 1_555
H1A O1A 1_555 1_555
H4A C5A 1_555 1_555
C9A C5A 1_555 1_555
C8A C9A 1_555 1_555
H6A C8A 1_555 1_555
H7A C8A 1_555 1_555
H8A C8A 1_555 1_555
H9A C9A 1_555 1_555
H10A C9A 1_555 1_555
H4N C5N 1_555 1_555
C9N C5N 1_555 1_555
C8N C9N 1_555 1_555
H6N C8N 1_555 1_555
H7N C8N 1_555 1_555
H8N C8N 1_555 1_555
H9N C9N 1_555 1_555
H10N C9N 1_555 1_555
H4B C5B 1_555 1_555
C9B C5B 1_555 1_555
C8B C9B 1_555 1_555
H6B C8B 1_555 1_555
H7B C8B 1_555 1_555
H8B C8B 1_555 1_555
H9B C9B 1_555 1_555
H10B C9B 1_555 1_555
C10F N1 1_555 1_555
C11F N1 1_555 1_555
C11A N1 1_555 1_555
C11J N1 1_555 1_555
C11B N1 1_555 1_555
C11I N1 1_555 1_555
C11H N1 1_555 1_555
C11N N1 1_555 1_555
C2 C3 1_555 1_555
C4 C7 1_555 1_555
C6 C7 1_555 1_555
C8 C9 1_555 1_555
C11 C11F 1_555 1_555
C6B C7B 1_555 1_555
C6N C7N 1_555 1_555
C1A C2A 1_555 1_555
C6A C7A 1_555 1_555
C11A C11J 1_555 1_555
C11B C11I 1_555 1_555
C11H C11N 1_555 1_555

#END
