
#######################################################################
#
#                 Cambridge Crystallographic Data Centre
#                                CCDC 
#
#######################################################################
#
# If this CIF has been generated from an entry in the Cambridge 
# Structural Database, then it will include bibliographic, chemical, 
# crystal, experimental, refinement or atomic coordinate data resulting 
# from the CCDC's data processing and validation procedures.
#
#######################################################################

data_XUTBET
_chemical_name_common            
'bis(C-n-Propylcalix[4]resorcinarene) tetramethylammonium chloride methanol solvate'
_chemical_formula_moiety         'C4 H12 N1 1+,Cl1 1-,2(C40 H48 O8),4(C1 H4 O1)'
_chemical_name_systematic        
'bis(2,8,14,20-Tetra-n-propyl-4,6,10,12,16,18,22,24-octahydroxycalix(4)arene) tetramethylammonium chloride methanol solvate'
_symmetry_cell_setting           monoclinic
_symmetry_space_group_name_H-M   'C 2/c'
_symmetry_Int_Tables_number      15
_space_group_name_Hall           '-C 2yn'
loop_
_symmetry_equiv_pos_site_id
_symmetry_equiv_pos_as_xyz
1 x,y,z
2 1/2+x,1/2+y,z
3 x,-y,1/2+z
4 1/2+x,1/2-y,1/2+z
5 -x,-y,-z
6 1/2-x,1/2-y,-z
7 -x,y,1/2-z
8 1/2-x,1/2+y,1/2-z
_cell_length_a                   22.4960(4)
_cell_length_b                   13.7567(3)
_cell_length_c                   27.7823(6)
_cell_angle_alpha                90
_cell_angle_beta                 100.6560(10)
_cell_angle_gamma                90
_cell_volume                     8449.54
_exptl_crystal_colour            colorless
_exptl_crystal_description       block
_cell_formula_units_Z            4
loop_
_atom_site_label
_atom_site_type_symbol
_atom_site_fract_x
_atom_site_fract_y
_atom_site_fract_z
Cl1 Cl 0.0000 0.64574(12) 0.2500
O1 O 0.13440(16) 0.5486(3) 0.19137(12)
H1 H 0.1667 0.5368 0.2111
C1 C 0.1276(3) 0.6527(5) 0.1845(2)
H2 H 0.1318 0.6847 0.2164
H3 H 0.0876 0.6670 0.1651
H4 H 0.1589 0.6770 0.1672
O2 O 0.09162(14) 0.4962(3) 0.30173(11)
H5 H 0.0665 0.5361 0.2868
O3 O 0.24084(16) 0.0724(2) 0.24675(10)
H6 H 0.2428 0.0931 0.2186
O4 O -0.08458(14) 0.3946(3) 0.36383(11)
H7 H -0.1005 0.4380 0.3443
O5 O 0.17715(17) 0.3984(3) 0.26094(11)
H8 H 0.1537 0.4302 0.2752
O6 O -0.07752(17) -0.1190(3) 0.36573(14)
H9 H -0.0479 -0.1505 0.3594
O7 O -0.13246(15) 0.2094(3) 0.37155(13)
H10 H -0.1170 0.2652 0.3731
C2 C 0.0733(2) 0.3231(4) 0.39654(15)
H11 H 0.0978 0.2799 0.4185
C3 C 0.0029(2) 0.4477(4) 0.33252(15)
H12 H -0.0213 0.4908 0.3104
O8 O 0.01657(16) -0.2115(3) 0.33614(12)
H13 H 0.0108 -0.2461 0.3108
C4 C 0.2270(2) 0.0219(3) 0.34299(14)
H14 H 0.2523 -0.0116 0.3220
O9 O 0.17683(17) -0.1037(3) 0.25940(11)
H15 H 0.1958 -0.0520 0.2565
C5 C -0.0008(2) -0.0084(3) 0.40764(14)
C6 C 0.1014(2) 0.3790(3) 0.36520(14)
C7 C 0.0104(2) 0.0877(3) 0.42299(14)
H16 H 0.0493 0.1023 0.4413
C8 C 0.0972(2) -0.1534(4) 0.29722(15)
H17 H 0.0833 -0.1933 0.2695
C9 C 0.0117(2) 0.3270(3) 0.39762(14)
C10 C 0.1954(2) 0.1985(3) 0.34872(14)
H18 H 0.1902 0.1843 0.3811
C11 C -0.1012(2) 0.0460(4) 0.37009(16)
H19 H -0.1403 0.0318 0.3518
C12 C -0.0233(2) 0.3914(4) 0.36424(15)
C13 C 0.0644(2) 0.4408(3) 0.33325(15)
C14 C 0.21411(19) 0.1233(3) 0.32168(15)
C15 C -0.0870(2) 0.1401(4) 0.38533(15)
C16 C 0.2073(2) 0.2371(4) 0.25472(15)
H20 H 0.2110 0.2504 0.2219
C17 C 0.1347(2) -0.0358(3) 0.37570(14)
H21 H 0.1471 0.0067 0.4026
C18 C 0.16922(19) -0.0374(3) 0.33917(14)
C19 C 0.1885(2) 0.3097(4) 0.28304(15)
C20 C -0.0590(2) -0.0276(4) 0.38131(15)
C21 C 0.18392(19) 0.2924(3) 0.33188(14)
C22 C 0.0838(2) -0.0914(3) 0.37579(14)
C23 C -0.0310(2) 0.1636(3) 0.41359(14)
C24 C 0.2650(2) 0.0246(4) 0.39500(15)
H22 H 0.3013 0.0650 0.3946
H23 H 0.2410 0.0566 0.4170
C25 C 0.2743(2) 0.3769(4) 0.41808(17)
H24 H 0.2827 0.4439 0.4082
H25 H 0.2861 0.3318 0.3937
C26 C 0.0475(2) -0.0869(3) 0.41783(14)
H26 H 0.0258 -0.1504 0.4178
C27 C 0.2850(2) -0.0744(4) 0.41592(16)
H27 H 0.3044 -0.1104 0.3921
H28 H 0.2491 -0.1118 0.4210
C28 C 0.1485(2) -0.0962(4) 0.29897(15)
C29 C 0.2205(2) 0.1462(3) 0.27373(14)
C30 C 0.0898(2) -0.0782(3) 0.46765(14)
H29 H 0.1144 -0.0185 0.4679
H30 H 0.0651 -0.0713 0.4935
C31 C 0.2077(2) 0.3667(4) 0.41689(15)
H31 H 0.1947 0.4183 0.4376
H32 H 0.2000 0.3033 0.4314
C32 C -0.0170(2) 0.2665(3) 0.43271(14)
H33 H -0.0567 0.2977 0.4344
C33 C 0.1689(2) 0.3735(3) 0.36516(14)
H34 H 0.1801 0.4359 0.3507
C34 C 0.0218(3) 0.3676(4) 0.50870(16)
H35 H 0.0444 0.4127 0.4909
H36 H -0.0201 0.3922 0.5053
C35 C 0.1316(2) -0.1643(4) 0.47975(16)
H37 H 0.1476 -0.1825 0.4501
H38 H 0.1079 -0.2201 0.4885
C36 C 0.0664(2) -0.1522(4) 0.33610(15)
C37 C 0.0205(2) 0.2677(4) 0.48530(15)
H39 H 0.0030 0.2204 0.5057
H40 H 0.0624 0.2470 0.4844
C38 C 0.1844(2) -0.1464(4) 0.52133(17)
H41 H 0.2111 -0.0968 0.5115
H42 H 0.2071 -0.2069 0.5292
H43 H 0.1693 -0.1238 0.5503
C39 C 0.3131(3) 0.3562(5) 0.4675(2)
H44 H 0.3019 0.4004 0.4919
H45 H 0.3558 0.3659 0.4656
H46 H 0.3069 0.2888 0.4769
C40 C 0.3295(2) -0.0664(4) 0.46441(17)
H47 H 0.3652 -0.0298 0.4594
H48 H 0.3417 -0.1317 0.4765
H49 H 0.3100 -0.0326 0.4884
C41 C 0.0501(3) 0.3673(5) 0.56109(18)
H50 H 0.0243 0.3314 0.5798
H51 H 0.0549 0.4343 0.5731
H52 H 0.0898 0.3359 0.5652
O10 O 0.24875(16) 0.1289(3) 0.15588(11)
H53 H 0.2171 0.1538 0.1398
C42 C 0.2993(3) 0.1652(5) 0.1385(2)
H54 H 0.2945 0.2353 0.1326
H55 H 0.3028 0.1324 0.1078
H56 H 0.3360 0.1533 0.1629
N1 N 0.0000 0.1453(5) 0.2500
C43 C 0.0488(8) 0.2050(12) 0.2396(6)
H57 H 0.0659 0.2427 0.2688
H58 H 0.0333 0.2494 0.2126
H59 H 0.0802 0.1634 0.2304
C44 C 0.0237(9) 0.0972(14) 0.2934(6)
H60 H 0.0371 0.1450 0.3193
H61 H 0.0582 0.0573 0.2886
H62 H -0.0075 0.0555 0.3029
C43F C -0.0488(8) 0.2050(12) 0.2604(6)
H57F H -0.0659 0.2427 0.2312
H58F H -0.0333 0.2494 0.2874
H59F H -0.0802 0.1634 0.2696
C44F C -0.0237(9) 0.0972(14) 0.2066(6)
H60F H -0.0371 0.1450 0.1807
H61F H -0.0582 0.0573 0.2114
H62F H 0.0075 0.0555 0.1971
loop_
_geom_bond_atom_site_label_1
_geom_bond_atom_site_label_2
_geom_bond_site_symmetry_1
_geom_bond_site_symmetry_2
O1 H1 1_555 1_555
C1 O1 1_555 1_555
H2 C1 1_555 1_555
H3 C1 1_555 1_555
H4 C1 1_555 1_555
O2 H5 1_555 1_555
O3 H6 1_555 1_555
O4 H7 1_555 1_555
O5 H8 1_555 1_555
O6 H9 1_555 1_555
O7 H10 1_555 1_555
C2 H11 1_555 1_555
C3 H12 1_555 1_555
O8 H13 1_555 1_555
C4 H14 1_555 1_555
O9 H15 1_555 1_555
C5 C7 1_555 1_555
C6 C2 1_555 1_555
C7 H16 1_555 1_555
C8 H17 1_555 1_555
C9 C2 1_555 1_555
C10 H18 1_555 1_555
C11 H19 1_555 1_555
C12 O4 1_555 1_555
C13 O2 1_555 1_555
C14 C4 1_555 1_555
C15 O7 1_555 1_555
C16 H20 1_555 1_555
C17 H21 1_555 1_555
C18 C4 1_555 1_555
C19 O5 1_555 1_555
C20 O6 1_555 1_555
C21 C10 1_555 1_555
C22 C17 1_555 1_555
C23 C7 1_555 1_555
C24 C4 1_555 1_555
H22 C24 1_555 1_555
H23 C24 1_555 1_555
C25 H24 1_555 1_555
H25 C25 1_555 1_555
C26 C5 1_555 1_555
H26 C26 1_555 1_555
C27 C24 1_555 1_555
H27 C27 1_555 1_555
H28 C27 1_555 1_555
C28 O9 1_555 1_555
C29 O3 1_555 1_555
C30 C26 1_555 1_555
H29 C30 1_555 1_555
H30 C30 1_555 1_555
C31 C25 1_555 1_555
H31 C31 1_555 1_555
H32 C31 1_555 1_555
C32 C9 1_555 1_555
H33 C32 1_555 1_555
C33 C6 1_555 1_555
H34 C33 1_555 1_555
C34 H35 1_555 1_555
H36 C34 1_555 1_555
C35 C30 1_555 1_555
H37 C35 1_555 1_555
H38 C35 1_555 1_555
C36 O8 1_555 1_555
C37 C32 1_555 1_555
H39 C37 1_555 1_555
H40 C37 1_555 1_555
C38 C35 1_555 1_555
H41 C38 1_555 1_555
H42 C38 1_555 1_555
H43 C38 1_555 1_555
C39 C25 1_555 1_555
H44 C39 1_555 1_555
H45 C39 1_555 1_555
H46 C39 1_555 1_555
C40 C27 1_555 1_555
H47 C40 1_555 1_555
H48 C40 1_555 1_555
H49 C40 1_555 1_555
C41 C34 1_555 1_555
H50 C41 1_555 1_555
H51 C41 1_555 1_555
H52 C41 1_555 1_555
O10 H53 1_555 1_555
C42 O10 1_555 1_555
H54 C42 1_555 1_555
H55 C42 1_555 1_555
H56 C42 1_555 1_555
N1 C43 1_555 1_555
C43 H57 1_555 1_555
H58 C43 1_555 1_555
H59 C43 1_555 1_555
C44 N1 1_555 1_555
H60 C44 1_555 1_555
H61 C44 1_555 1_555
H62 C44 1_555 1_555
C43F N1 1_555 1_555
H57F C43F 1_555 1_555
H58F C43F 1_555 1_555
H59F C43F 1_555 1_555
C44F N1 1_555 1_555
H60F C44F 1_555 1_555
H61F C44F 1_555 1_555
H62F C44F 1_555 1_555
C3 C13 1_555 1_555
C3 C12 1_555 1_555
C5 C20 1_555 1_555
C6 C13 1_555 1_555
C8 C36 1_555 1_555
C8 C28 1_555 1_555
C9 C12 1_555 1_555
C10 C14 1_555 1_555
C11 C15 1_555 1_555
C11 C20 1_555 1_555
C14 C29 1_555 1_555
C15 C23 1_555 1_555
C16 C29 1_555 1_555
C16 C19 1_555 1_555
C17 C18 1_555 1_555
C18 C28 1_555 1_555
C19 C21 1_555 1_555
C21 C33 1_555 1_555
C22 C26 1_555 1_555
C22 C36 1_555 1_555
C23 C32 1_555 1_555
C31 C33 1_555 1_555
C34 C37 1_555 1_555

#END
