
#######################################################################
#
#                 Cambridge Crystallographic Data Centre
#                                CCDC 
#
#######################################################################
#
# If this CIF has been generated from an entry in the Cambridge 
# Structural Database, then it will include bibliographic, chemical, 
# crystal, experimental, refinement or atomic coordinate data resulting 
# from the CCDC's data processing and validation procedures.
#
#######################################################################

data_XUTCEU
_chemical_formula_moiety         'C4 H12 N2 2+,2(C6 H4 N1 O3 1-),2(H2 O1)'
_chemical_name_systematic        
'Piperazinedi-ium bis(2-nitrophenolate) dihydrate'
_symmetry_cell_setting           monoclinic
_symmetry_space_group_name_H-M   'P 21'
_symmetry_Int_Tables_number      4
_space_group_name_Hall           'P 2yb'
loop_
_symmetry_equiv_pos_site_id
_symmetry_equiv_pos_as_xyz
1 x,y,z
2 -x,1/2+y,-z
_cell_length_a                   7.7530(10)
_cell_length_b                   10.888(2)
_cell_length_c                   11.378(2)
_cell_angle_alpha                90
_cell_angle_beta                 97.100(10)
_cell_angle_gamma                90
_cell_volume                     953.105
_exptl_crystal_colour            orange-red
_exptl_crystal_description       'hexagonal plate'
_cell_formula_units_Z            2
loop_
_atom_site_label
_atom_site_type_symbol
_atom_site_fract_x
_atom_site_fract_y
_atom_site_fract_z
O1 O 0.4034(2) 0.60153(18) 0.69218(15)
O2 O 0.2702(3) 0.3752(2) 0.63068(18)
O3 O 0.1428(4) 0.2868(3) 0.7634(2)
N1 N 0.2466(3) 0.3632(2) 0.7349(2)
C1 C 0.4124(3) 0.5533(3) 0.7979(2)
C2 C 0.4924(4) 0.6174(3) 0.8966(2)
H5 H 0.5417 0.6936 0.8849
C3 C 0.5013(5) 0.5726(3) 1.0103(3)
H6 H 0.5565 0.6188 1.0727
C4 C 0.4302(4) 0.4608(3) 1.0333(2)
H7 H 0.4392 0.4303 1.1102
C5 C 0.3462(4) 0.3956(3) 0.9414(2)
H8 H 0.2933 0.3215 0.9560
C6 C 0.3388(3) 0.4390(3) 0.8254(2)
O4 O 0.0732(2) 0.33614(18) 0.30568(16)
O5 O 0.2028(3) 0.5608(2) 0.37317(17)
O6 O 0.2924(3) 0.6635(2) 0.2318(2)
N2 N 0.1997(3) 0.5827(2) 0.2673(2)
C7 C 0.0284(3) 0.3946(3) 0.2060(2)
C8 C -0.0821(4) 0.3395(3) 0.1131(3)
H9 H -0.1250 0.2612 0.1242
C9 C -0.1285(5) 0.3974(4) 0.0070(3)
H10 H -0.2023 0.3576 -0.0516
C10 C -0.0678(5) 0.5139(4) -0.0149(3)
H11 H -0.0990 0.5518 -0.0877
C11 C 0.0381(4) 0.5716(3) 0.0720(2)
H12 H 0.0797 0.6498 0.0587
C12 C 0.0849(4) 0.5149(3) 0.1807(2)
N3 N 0.4417(3) 0.9832(2) 0.47299(18)
H1 H 0.5166 1.0190 0.4291
H2 H 0.5023 0.9311 0.5239
N4 N 0.0955(3) 0.9520(2) 0.53092(18)
H3 H 0.0354 1.0038 0.4794
H4 H 0.0200 0.9165 0.5745
C13 C 0.3594(4) 1.0786(3) 0.5405(2)
H13 H 0.3036 1.1393 0.4861
H14 H 0.4480 1.1199 0.5940
C14 C 0.2271(4) 1.0227(3) 0.6102(2)
H15 H 0.2848 0.9685 0.6704
H16 H 0.1697 1.0870 0.6498
C15 C 0.1792(4) 0.8554(3) 0.4640(3)
H17 H 0.0914 0.8132 0.4107
H18 H 0.2362 0.7956 0.5188
C16 C 0.3100(3) 0.9134(3) 0.3943(2)
H19 H 0.3672 0.8500 0.3534
H20 H 0.2511 0.9682 0.3353
O7 O 0.0437(3) 0.6121(2) 0.6390(2)
H22 H 0.009(5) 0.676(2) 0.666(3)
H23 H 0.1498(15) 0.604(4) 0.647(3)
O8 O 0.4309(3) 0.3238(2) 0.3468(2)
H21 H 0.470(4) 0.2576(16) 0.328(2)
H24 H 0.3240(15) 0.317(3) 0.335(3)
loop_
_geom_bond_atom_site_label_1
_geom_bond_atom_site_label_2
_geom_bond_site_symmetry_1
_geom_bond_site_symmetry_2
O1 C1 1_555 1_555
O2 N1 1_555 1_555
O3 N1 1_555 1_555
O4 C7 1_555 1_555
O5 N2 1_555 1_555
O6 N2 1_555 1_555
N1 C6 1_555 1_555
N2 C12 1_555 1_555
N3 H1 1_555 1_555
H2 N3 1_555 1_555
N4 H3 1_555 1_555
H4 N4 1_555 1_555
C1 C2 1_555 1_555
C2 H5 1_555 1_555
C3 C2 1_555 1_555
H6 C3 1_555 1_555
C4 C3 1_555 1_555
H7 C4 1_555 1_555
C5 C4 1_555 1_555
H8 C5 1_555 1_555
C6 C1 1_555 1_555
C7 C8 1_555 1_555
C8 H9 1_555 1_555
C9 C8 1_555 1_555
H10 C9 1_555 1_555
C10 C9 1_555 1_555
H11 C10 1_555 1_555
C11 C10 1_555 1_555
H12 C11 1_555 1_555
C12 C7 1_555 1_555
C13 N3 1_555 1_555
H13 C13 1_555 1_555
H14 C13 1_555 1_555
C14 N4 1_555 1_555
H15 C14 1_555 1_555
H16 C14 1_555 1_555
C15 N4 1_555 1_555
H17 C15 1_555 1_555
H18 C15 1_555 1_555
C16 N3 1_555 1_555
H19 C16 1_555 1_555
H20 C16 1_555 1_555
O7 H22 1_555 1_555
O8 H21 1_555 1_555
H23 O7 1_555 1_555
H24 O8 1_555 1_555
C5 C6 1_555 1_555
C11 C12 1_555 1_555
C13 C14 1_555 1_555
C15 C16 1_555 1_555

#END
