
#######################################################################
#
#                 Cambridge Crystallographic Data Centre
#                                CCDC 
#
#######################################################################
#
# If this CIF has been generated from an entry in the Cambridge 
# Structural Database, then it will include bibliographic, chemical, 
# crystal, experimental, refinement or atomic coordinate data resulting 
# from the CCDC's data processing and validation procedures.
#
#######################################################################

data_XUTCOE
_chemical_formula_moiety         'C24 H20 N4 O2'
_chemical_name_systematic        
"N-(\a-(1-Phenyl-3-methylpyrazol-5-on-4-ylidene)benzyl)-N'-salicylidene hydrazine"
_symmetry_cell_setting           monoclinic
_symmetry_space_group_name_H-M   'C 2/c'
_symmetry_Int_Tables_number      15
_space_group_name_Hall           '-C 2yn'
loop_
_symmetry_equiv_pos_site_id
_symmetry_equiv_pos_as_xyz
1 x,y,z
2 1/2+x,1/2+y,z
3 x,-y,1/2+z
4 1/2+x,1/2-y,1/2+z
5 -x,-y,-z
6 1/2-x,1/2-y,-z
7 -x,y,1/2-z
8 1/2-x,1/2+y,1/2-z
_cell_length_a                   21.796(5)
_cell_length_b                   18.370(3)
_cell_length_c                   20.843(3)
_cell_angle_alpha                90
_cell_angle_beta                 95.440(10)
_cell_angle_gamma                90
_cell_volume                     8307.79
_exptl_crystal_colour            red
_exptl_crystal_description       rhombi
_chemical_melting_point          195-196deg.C
_cell_formula_units_Z            16
_exptl_crystal_recrystallization_method methanol
loop_
_atom_site_label
_atom_site_type_symbol
_atom_site_fract_x
_atom_site_fract_y
_atom_site_fract_z
O1 O 0.82125(9) 0.63969(11) 0.13467(12)
H1 H 0.7835 0.6409 0.1332
O2 O 0.53544(8) 0.53380(10) 0.16559(9)
N1 N 0.71121(10) 0.58891(12) 0.15214(11)
N2 N 0.64837(10) 0.59418(12) 0.15430(11)
H2 H 0.6270 0.5554 0.1585
N3 N 0.46046(11) 0.70282(12) 0.16143(12)
N4 N 0.46169(10) 0.62647(12) 0.16746(11)
C1 C 0.84161(15) 0.5728(2) 0.15400(15)
C2 C 0.90507(16) 0.5621(2) 0.15962(17)
H3 H 0.9314 0.5999 0.1508
C3 C 0.92822(18) 0.4953(3) 0.17829(19)
H4 H 0.9706 0.4880 0.1818
C4 C 0.89045(19) 0.4391(3) 0.19186(18)
H5 H 0.9070 0.3942 0.2045
C5 C 0.82719(16) 0.44986(19) 0.18655(15)
H6 H 0.8014 0.4115 0.1954
C6 C 0.80142(14) 0.51718(19) 0.16819(14)
C7 C 0.73548(13) 0.52694(16) 0.16608(13)
H7 H 0.7105 0.4878 0.1749
C8 C 0.62012(13) 0.65886(16) 0.14990(13)
C9 C 0.65866(12) 0.72294(15) 0.13694(17)
C10 C 0.68864(14) 0.76212(17) 0.18576(16)
H8 H 0.6858 0.7483 0.2283
C11 C 0.72329(16) 0.82232(18) 0.17246(19)
H9 H 0.7436 0.8487 0.2062
C12 C 0.72791(15) 0.84321(18) 0.1112(2)
H10 H 0.7511 0.8840 0.1026
C13 C 0.69872(18) 0.8046(2) 0.06215(19)
H11 H 0.7020 0.8185 0.0197
C14 C 0.66358(15) 0.74369(18) 0.07531(17)
H12 H 0.6435 0.7173 0.0415
C15 C 0.52041(13) 0.59878(16) 0.16368(13)
C16 C 0.55827(12) 0.66240(15) 0.15556(13)
C17 C 0.51643(14) 0.72273(15) 0.15444(15)
C18 C 0.52951(13) 0.80238(14) 0.14646(17)
H13 H 0.4919 0.8295 0.1469
H14 H 0.5466 0.8101 0.1062
H15 H 0.5584 0.8184 0.1812
C19 C 0.40559(13) 0.58971(15) 0.17374(13)
C20 C 0.40414(13) 0.51581(15) 0.18567(13)
H16 H 0.4404 0.4888 0.1893
C21 C 0.34816(14) 0.48224(16) 0.19218(13)
H17 H 0.3472 0.4327 0.2010
C22 C 0.29384(13) 0.52099(17) 0.18579(13)
H18 H 0.2563 0.4978 0.1891
C23 C 0.29607(13) 0.59457(17) 0.17444(14)
H19 H 0.2598 0.6216 0.1710
C24 C 0.35142(13) 0.62889(15) 0.16807(13)
H20 H 0.3522 0.6786 0.1599
O3 O -0.00837(10) 0.30387(12) 0.56683(13)
H21 H 0.0248 0.3131 0.5532
O4 O 0.23060(8) 0.25864(10) 0.40252(10)
N5 N 0.08906(10) 0.27614(13) 0.50452(11)
N6 N 0.14466(10) 0.29205(13) 0.48127(11)
H22 H 0.1621 0.2597 0.4593
N7 N 0.31493(10) 0.41878(12) 0.43593(11)
N8 N 0.30381(9) 0.35206(11) 0.40404(11)
C25 C -0.02356(14) 0.23380(19) 0.55345(15)
C26 C -0.07703(14) 0.2080(2) 0.57728(15)
H23 H -0.1005 0.2386 0.6008
C27 C -0.09474(16) 0.1378(2) 0.56582(19)
H24 H -0.1302 0.1206 0.5822
C28 C -0.06135(17) 0.0918(2) 0.5306(2)
H25 H -0.0742 0.0440 0.5230
C29 C -0.00825(14) 0.11737(17) 0.50655(16)
H26 H 0.0144 0.0865 0.4824
C30 C 0.01151(13) 0.18839(17) 0.51803(14)
C31 C 0.06881(13) 0.21101(16) 0.49472(13)
H27 H 0.0913 0.1781 0.4724
C32 C 0.17220(13) 0.35674(16) 0.49213(13)
C33 C 0.14166(13) 0.41000(17) 0.53172(15)
C34 C 0.13798(13) 0.39877(18) 0.59652(17)
H28 H 0.1534 0.3560 0.6158
C35 C 0.11147(19) 0.4509(2) 0.6332(2)
H29 H 0.1102 0.4438 0.6772
C36 C 0.0875(2) 0.5120(3) 0.6047(3)
H30 H 0.0694 0.5467 0.6294
C37 C 0.08951(19) 0.5235(2) 0.5401(3)
H31 H 0.0729 0.5658 0.5210
C38 C 0.11651(15) 0.4718(2) 0.50341(18)
H32 H 0.1176 0.4791 0.4594
C39 C 0.25120(13) 0.31885(16) 0.42159(14)
C40 C 0.22659(12) 0.36981(15) 0.46536(13)
C41 C 0.26913(13) 0.42895(15) 0.47083(13)
C42 C 0.26835(13) 0.49701(15) 0.50966(14)
H33 H 0.3067 0.5224 0.5080
H34 H 0.2628 0.4850 0.5536
H35 H 0.2350 0.5275 0.4924
C43 C 0.34242(12) 0.33136(15) 0.35631(13)
C44 C 0.32677(13) 0.27486(16) 0.31507(15)
H36 H 0.2906 0.2490 0.3186
C45 C 0.36480(15) 0.25635(17) 0.26810(15)
H37 H 0.3542 0.2179 0.2401
C46 C 0.41833(14) 0.29480(18) 0.26276(16)
H38 H 0.4441 0.2822 0.2314
C47 C 0.43334(13) 0.35107(17) 0.30340(15)
H39 H 0.4694 0.3771 0.2995
C48 C 0.39613(12) 0.37007(15) 0.35028(13)
H40 H 0.4069 0.4087 0.3779
loop_
_geom_bond_atom_site_label_1
_geom_bond_atom_site_label_2
_geom_bond_site_symmetry_1
_geom_bond_site_symmetry_2
O1 H1 1_555 1_555
O2 C15 1_555 1_555
N1 N2 1_555 1_555
N2 H2 1_555 1_555
N3 N4 1_555 1_555
N4 C15 1_555 1_555
C1 O1 1_555 1_555
C2 C1 1_555 1_555
H3 C2 1_555 1_555
C3 C2 1_555 1_555
H4 C3 1_555 1_555
C4 C3 1_555 1_555
H5 C4 1_555 1_555
C5 C4 1_555 1_555
H6 C5 1_555 1_555
C6 C1 1_555 1_555
C7 N1 1_555 1_555
H7 C7 1_555 1_555
C8 N2 1_555 1_555
C9 C8 1_555 1_555
C10 C9 1_555 1_555
H8 C10 1_555 1_555
C11 C10 1_555 1_555
H9 C11 1_555 1_555
C12 C11 1_555 1_555
H10 C12 1_555 1_555
C13 C12 1_555 1_555
H11 C13 1_555 1_555
C14 C9 1_555 1_555
H12 C14 1_555 1_555
C15 C16 1_555 1_555
C16 C8 1_555 1_555
C17 N3 1_555 1_555
C18 C17 1_555 1_555
H13 C18 1_555 1_555
H14 C18 1_555 1_555
H15 C18 1_555 1_555
C19 N4 1_555 1_555
C20 C19 1_555 1_555
H16 C20 1_555 1_555
C21 C20 1_555 1_555
H17 C21 1_555 1_555
C22 C21 1_555 1_555
H18 C22 1_555 1_555
C23 C22 1_555 1_555
H19 C23 1_555 1_555
C24 C19 1_555 1_555
H20 C24 1_555 1_555
O3 H21 1_555 1_555
O4 C39 1_555 1_555
N5 N6 1_555 1_555
N6 H22 1_555 1_555
N7 N8 1_555 1_555
N8 C39 1_555 1_555
C25 O3 1_555 1_555
C26 C25 1_555 1_555
H23 C26 1_555 1_555
C27 C26 1_555 1_555
H24 C27 1_555 1_555
C28 C27 1_555 1_555
H25 C28 1_555 1_555
C29 C28 1_555 1_555
H26 C29 1_555 1_555
C30 C25 1_555 1_555
C31 N5 1_555 1_555
H27 C31 1_555 1_555
C32 N6 1_555 1_555
C33 C32 1_555 1_555
C34 C33 1_555 1_555
H28 C34 1_555 1_555
C35 C34 1_555 1_555
H29 C35 1_555 1_555
C36 C35 1_555 1_555
H30 C36 1_555 1_555
C37 C36 1_555 1_555
H31 C37 1_555 1_555
C38 C33 1_555 1_555
H32 C38 1_555 1_555
C39 C40 1_555 1_555
C40 C32 1_555 1_555
C41 N7 1_555 1_555
C42 C41 1_555 1_555
H33 C42 1_555 1_555
H34 C42 1_555 1_555
H35 C42 1_555 1_555
C43 N8 1_555 1_555
C44 C43 1_555 1_555
H36 C44 1_555 1_555
C45 C44 1_555 1_555
H37 C45 1_555 1_555
C46 C45 1_555 1_555
H38 C46 1_555 1_555
C47 C46 1_555 1_555
H39 C47 1_555 1_555
C48 C43 1_555 1_555
H40 C48 1_555 1_555
C5 C6 1_555 1_555
C6 C7 1_555 1_555
C13 C14 1_555 1_555
C16 C17 1_555 1_555
C23 C24 1_555 1_555
C29 C30 1_555 1_555
C30 C31 1_555 1_555
C37 C38 1_555 1_555
C40 C41 1_555 1_555
C47 C48 1_555 1_555

#END
