
#######################################################################
#
#                 Cambridge Crystallographic Data Centre
#                                CCDC 
#
#######################################################################
#
# If this CIF has been generated from an entry in the Cambridge 
# Structural Database, then it will include bibliographic, chemical, 
# crystal, experimental, refinement or atomic coordinate data resulting 
# from the CCDC's data processing and validation procedures.
#
#######################################################################

data_XUTDOG
_chemical_formula_moiety         
'2(C36 H30 N1 P2 1+),C6 N6 S6 Si1 2-,2(C2 H3 N1)'
_chemical_name_systematic        
'bis(bis(Triphenylphosphino)iminium) hexakis(thiocyanato)silicate acetonitrile solvate'
_symmetry_cell_setting           triclinic
_symmetry_space_group_name_H-M   'P -1'
_symmetry_Int_Tables_number      2
_space_group_name_Hall           '-P 1'
loop_
_symmetry_equiv_pos_site_id
_symmetry_equiv_pos_as_xyz
1 x,y,z
2 -x,-y,-z
_cell_length_a                   10.7540(4)
_cell_length_b                   13.4160(6)
_cell_length_c                   14.4498(5)
_cell_angle_alpha                100.540(2)
_cell_angle_beta                 102.120(2)
_cell_angle_gamma                96.806(2)
_cell_volume                     1977.01
_exptl_crystal_colour            colorless
_exptl_crystal_description       block
_cell_formula_units_Z            1
loop_
_atom_site_label
_atom_site_type_symbol
_atom_site_fract_x
_atom_site_fract_y
_atom_site_fract_z
Si1 Si 0.5000 1.0000 0.0000
S1 S 0.86494(4) 1.23891(3) 0.06448(3)
S2 S 0.37092(7) 1.30078(5) 0.12107(4)
S3 S 0.62359(5) 0.94311(4) 0.30871(3)
N1 N 0.65492(13) 1.08199(11) 0.01900(10)
N2 N 0.43045(13) 1.11319(11) 0.04125(10)
N3 N 0.54388(14) 0.98198(11) 0.12461(10)
C1 C 0.74334(15) 1.14802(13) 0.03735(11)
C2 C 0.40439(17) 1.19218(15) 0.07365(12)
C3 C 0.57710(15) 0.96524(13) 0.20195(12)
S1A S 0.13506(4) 0.76109(3) -0.06448(3)
S2A S 0.62908(7) 0.69922(5) -0.12107(4)
S3A S 0.37641(5) 1.05689(4) -0.30871(3)
N1A N 0.34508(13) 0.91801(11) -0.01900(10)
N2A N 0.56955(13) 0.88681(11) -0.04125(10)
N3A N 0.45612(14) 1.01802(11) -0.12461(10)
C1A C 0.25666(15) 0.85198(13) -0.03735(11)
C2A C 0.59561(17) 0.80782(15) -0.07365(12)
C3A C 0.42290(15) 1.03476(13) -0.20195(12)
P1 P 0.31840(4) 0.68070(3) 0.34130(3)
P2 P 0.08796(4) 0.78241(3) 0.29552(3)
N4 N 0.23412(12) 0.76877(10) 0.32877(9)
C4 C 0.23049(14) 0.55580(12) 0.33733(11)
C5 C 0.20931(15) 0.47607(13) 0.25557(11)
H1 H 0.2446 0.4861 0.2023
C6 C 0.13624(15) 0.38191(14) 0.25244(13)
H2 H 0.1209 0.3280 0.1967
C7 C 0.08589(16) 0.36676(14) 0.33052(13)
H3 H 0.0360 0.3025 0.3280
C8 C 0.10805(17) 0.44525(15) 0.41253(13)
H4 H 0.0747 0.4341 0.4663
C9 C 0.17876(16) 0.53985(14) 0.41584(12)
H5 H 0.1921 0.5939 0.4713
C10 C 0.43220(14) 0.71870(13) 0.45743(11)
C11 C 0.48420(16) 0.64533(14) 0.50481(12)
H6 H 0.4572 0.5742 0.4768
C12 C 0.57520(16) 0.67641(15) 0.59272(12)
H7 H 0.6102 0.6266 0.6247
C13 C 0.61460(16) 0.77976(15) 0.63349(12)
H8 H 0.6769 0.8007 0.6935
C14 C 0.56391(16) 0.85354(15) 0.58746(12)
H9 H 0.5915 0.9245 0.6161
C15 C 0.47243(15) 0.82317(13) 0.49917(11)
H10 H 0.4376 0.8734 0.4676
C16 C 0.40912(14) 0.66232(12) 0.24983(11)
C17 C 0.51261(16) 0.60794(14) 0.26247(13)
H11 H 0.5367 0.5833 0.3202
C18 C 0.57983(17) 0.59010(16) 0.19064(14)
H12 H 0.6491 0.5521 0.1987
C19 C 0.54620(17) 0.62765(15) 0.10671(13)
H13 H 0.5931 0.6158 0.0580
C20 C 0.44455(17) 0.68219(14) 0.09419(12)
H14 H 0.4221 0.7080 0.0369
C21 C 0.37500(15) 0.69941(13) 0.16523(11)
H15 H 0.3047 0.7362 0.1562
C22 C 0.08693(15) 0.89299(12) 0.24079(11)
C23 C 0.19877(16) 0.93684(13) 0.21945(11)
H16 H 0.2776 0.9125 0.2387
C24 C 0.19447(18) 1.01672(13) 0.16960(12)
H17 H 0.2704 1.0465 0.1545
C25 C 0.07960(19) 1.05259(14) 0.14207(13)
H18 H 0.0770 1.1067 0.1078
C26 C -0.03166(18) 1.00994(15) 0.16429(13)
H19 H -0.1098 1.0355 0.1458
C27 C -0.02925(16) 0.92999(13) 0.21347(12)
H20 H -0.1055 0.9006 0.2285
C28 C -0.01296(14) 0.67712(12) 0.20528(11)
C29 C -0.02909(16) 0.68146(14) 0.10721(12)
H21 H 0.0058 0.7419 0.0898
C30 C -0.09596(18) 0.59759(15) 0.03586(12)
H22 H -0.1070 0.6007 -0.0305
C31 C -0.14695(16) 0.50896(14) 0.06078(13)
H23 H -0.1925 0.4517 0.0115
C32 C -0.13158(15) 0.50388(13) 0.15761(12)
H24 H -0.1663 0.4430 0.1744
C33 C -0.06537(14) 0.58789(13) 0.23006(12)
H25 H -0.0558 0.5847 0.2963
C34 C 0.01524(15) 0.80780(12) 0.39729(11)
C35 C -0.11777(15) 0.78501(13) 0.38744(12)
H26 H -0.1726 0.7507 0.3266
C36 C -0.16967(16) 0.81296(14) 0.46741(12)
H27 H -0.2598 0.7965 0.4612
C37 C -0.09035(17) 0.86452(14) 0.55565(12)
H28 H -0.1264 0.8839 0.6096
C38 C 0.04187(17) 0.88818(14) 0.56581(12)
H29 H 0.0959 0.9239 0.6265
C39 C 0.09495(16) 0.85937(13) 0.48694(11)
H30 H 0.1854 0.8747 0.4940
N5 N 0.2588(2) 0.56236(19) 0.65821(13)
C40 C 0.3116(2) 0.76076(18) 0.71762(16)
H31 H 0.3137 0.7927 0.6621
H32 H 0.3957 0.7798 0.7640
H33 H 0.2450 0.7846 0.7491
C41 C 0.2826(2) 0.6499(2) 0.68462(14)
loop_
_geom_bond_atom_site_label_1
_geom_bond_atom_site_label_2
_geom_bond_site_symmetry_1
_geom_bond_site_symmetry_2
Si1 N1 1_555 1_555
S1 C1 1_555 1_555
S2 C2 1_555 1_555
S3 C3 1_555 1_555
N1 C1 1_555 1_555
N2 Si1 1_555 1_555
N3 Si1 1_555 1_555
C2 N2 1_555 1_555
C3 N3 1_555 1_555
P1 N4 1_555 1_555
P2 N4 1_555 1_555
C4 P1 1_555 1_555
C5 C4 1_555 1_555
H1 C5 1_555 1_555
C6 C5 1_555 1_555
H2 C6 1_555 1_555
C7 C6 1_555 1_555
H3 C7 1_555 1_555
C8 C7 1_555 1_555
H4 C8 1_555 1_555
C9 C4 1_555 1_555
H5 C9 1_555 1_555
C10 P1 1_555 1_555
C11 C10 1_555 1_555
H6 C11 1_555 1_555
C12 C11 1_555 1_555
H7 C12 1_555 1_555
C13 C12 1_555 1_555
H8 C13 1_555 1_555
C14 C13 1_555 1_555
H9 C14 1_555 1_555
C15 C10 1_555 1_555
H10 C15 1_555 1_555
C16 P1 1_555 1_555
C17 C16 1_555 1_555
H11 C17 1_555 1_555
C18 C17 1_555 1_555
H12 C18 1_555 1_555
C19 C18 1_555 1_555
H13 C19 1_555 1_555
C20 C19 1_555 1_555
H14 C20 1_555 1_555
C21 C16 1_555 1_555
H15 C21 1_555 1_555
C22 P2 1_555 1_555
C23 C22 1_555 1_555
H16 C23 1_555 1_555
C24 C23 1_555 1_555
H17 C24 1_555 1_555
C25 C24 1_555 1_555
H18 C25 1_555 1_555
C26 C25 1_555 1_555
H19 C26 1_555 1_555
C27 C22 1_555 1_555
H20 C27 1_555 1_555
C28 P2 1_555 1_555
C29 C28 1_555 1_555
H21 C29 1_555 1_555
C30 C29 1_555 1_555
H22 C30 1_555 1_555
C31 C30 1_555 1_555
H23 C31 1_555 1_555
C32 C31 1_555 1_555
H24 C32 1_555 1_555
C33 C28 1_555 1_555
H25 C33 1_555 1_555
C34 P2 1_555 1_555
C35 C34 1_555 1_555
H26 C35 1_555 1_555
C36 C35 1_555 1_555
H27 C36 1_555 1_555
C37 C36 1_555 1_555
H28 C37 1_555 1_555
C38 C37 1_555 1_555
H29 C38 1_555 1_555
C39 C34 1_555 1_555
H30 C39 1_555 1_555
N5 C41 1_555 1_555
C40 H31 1_555 1_555
H32 C40 1_555 1_555
H33 C40 1_555 1_555
C41 C40 1_555 1_555
S1A C1A 1_555 1_555
S2A C2A 1_555 1_555
S3A C3A 1_555 1_555
N1A Si1 1_555 1_555
N2A Si1 1_555 1_555
N3A Si1 1_555 1_555
C1A N1A 1_555 1_555
C2A N2A 1_555 1_555
C3A N3A 1_555 1_555
C8 C9 1_555 1_555
C14 C15 1_555 1_555
C20 C21 1_555 1_555
C26 C27 1_555 1_555
C32 C33 1_555 1_555
C38 C39 1_555 1_555

#END
