
#######################################################################
#
#                 Cambridge Crystallographic Data Centre
#                                CCDC 
#
#######################################################################
#
# If this CIF has been generated from an entry in the Cambridge 
# Structural Database, then it will include bibliographic, chemical, 
# crystal, experimental, refinement or atomic coordinate data resulting 
# from the CCDC's data processing and validation procedures.
#
#######################################################################

data_XUTDUL
_chemical_formula_moiety         'C34 H27 N3 O6,C1 H1 Cl3'
_chemical_name_systematic        
'5-((4-Nitrophenyl)azo)-25,26,27,28-tetrahydroxycalix(4)arene chloroform solvate'
_symmetry_cell_setting           monoclinic
_symmetry_space_group_name_H-M   'P 21/n'
_symmetry_Int_Tables_number      14
_space_group_name_Hall           '-P 2yn'
loop_
_symmetry_equiv_pos_site_id
_symmetry_equiv_pos_as_xyz
1 x,y,z
2 1/2+x,1/2-y,1/2+z
3 -x,-y,-z
4 1/2-x,1/2+y,1/2-z
_cell_length_a                   15.9306(13)
_cell_length_b                   10.6293(9)
_cell_length_c                   20.3194(17)
_cell_angle_alpha                90
_cell_angle_beta                 110.480(2)
_cell_angle_gamma                90
_cell_volume                     3223.23
_exptl_crystal_colour            red
_exptl_crystal_description       block
_chemical_melting_point          575-577K
_cell_formula_units_Z            4
loop_
_atom_site_label
_atom_site_type_symbol
_atom_site_fract_x
_atom_site_fract_y
_atom_site_fract_z
C1 C 0.6631(2) 1.7235(4) -0.1051(2)
C2 C 0.6789(3) 1.6500(4) -0.1563(2)
C3 C 0.7448(3) 1.5568(4) -0.1335(3)
H1 H 0.7567 1.5055 -0.1663
C4 C 0.7924(2) 1.5403(4) -0.0624(3)
C5 C 0.7721(3) 1.6122(4) -0.0149(3)
H2 H 0.8031 1.5986 0.0327
C6 C 0.7083(3) 1.7035(4) -0.0340(2)
C7 C 0.6852(3) 1.7772(5) 0.0218(2)
H3 H 0.7355 1.7726 0.0658
H4 H 0.6766 1.8649 0.0079
C8 C 0.5200(3) 1.7856(4) -0.0004(2)
C9 C 0.6028(3) 1.7301(4) 0.0335(2)
C10 C 0.6055(3) 1.6276(5) 0.0756(2)
H5 H 0.6603 1.5887 0.0985
C11 C 0.5293(3) 1.5802(5) 0.0852(2)
H6 H 0.5328 1.5113 0.1142
C12 C 0.4489(3) 1.6374(5) 0.0508(2)
H7 H 0.3974 1.6048 0.0559
C13 C 0.4413(3) 1.7434(4) 0.0081(2)
C14 C 0.3523(3) 1.8070(5) -0.0277(2)
H8 H 0.3196 1.8104 0.0045
H9 H 0.3626 1.8927 -0.0394
C15 C 0.3125(2) 1.7538(4) -0.1552(2)
C16 C 0.2670(3) 1.6855(4) -0.2167(2)
C17 C 0.2010(3) 1.6037(4) -0.2134(3)
H10 H 0.1700 1.5559 -0.2528
C18 C 0.1802(3) 1.5913(5) -0.1542(3)
H11 H 0.1338 1.5385 -0.1539
C19 C 0.2285(3) 1.6577(5) -0.0945(3)
H12 H 0.2152 1.6470 -0.0538
C20 C 0.2960(3) 1.7395(4) -0.0939(2)
C21 C 0.2882(3) 1.6995(5) -0.2830(2)
H13 H 0.2978 1.7877 -0.2902
H14 H 0.2372 1.6710 -0.3226
C22 C 0.4558(3) 1.6798(4) -0.2612(2)
C23 C 0.3707(3) 1.6252(5) -0.2806(2)
C24 C 0.3638(4) 1.4960(5) -0.2971(3)
H15 H 0.3080 1.4574 -0.3109
C25 C 0.4367(4) 1.4269(5) -0.2932(3)
H16 H 0.4305 1.3419 -0.3048
C26 C 0.5213(4) 1.4827(5) -0.2717(2)
H17 H 0.5711 1.4337 -0.2681
C27 C 0.5326(3) 1.6094(4) -0.2555(2)
C28 C 0.6248(3) 1.6668(5) -0.2340(2)
H18 H 0.6190 1.7560 -0.2449
H19 H 0.6571 1.6287 -0.2614
C29 C 0.9572(3) 1.3027(5) -0.0310(3)
C30 C 0.9895(4) 1.2343(6) -0.0717(3)
H20 H 0.9666 1.2458 -0.1201
C31 C 1.0547(4) 1.1486(5) -0.0438(3)
H21 H 1.0761 1.1009 -0.0730
C32 C 1.0889(3) 1.1322(4) 0.0268(3)
C33 C 1.0592(4) 1.1992(6) 0.0701(3)
H22 H 1.0829 1.1866 0.1185
C34 C 0.9918(4) 1.2883(6) 0.0412(4)
H23 H 0.9706 1.3372 0.0700
O1 O 0.5186(2) 1.8894(3) -0.04242(17)
H25 H 0.4691 1.8925 -0.0775
O2 O 0.37481(19) 1.8443(3) -0.15737(16)
H26 H 0.4277 1.8192 -0.1529
O3 O 0.46106(19) 1.8067(3) -0.24778(15)
H27 H 0.5120 1.8291 -0.2178
O4 O 0.60306(18) 1.8196(3) -0.12759(15)
H28 H 0.5768 1.8501 -0.1008
O5 O 1.1912(4) 0.9865(5) 0.0195(4)
O6 O 1.1881(3) 1.0325(6) 0.1230(3)
N1 N 1.1607(3) 1.0410(5) 0.0569(4)
N2 N 0.8830(3) 1.3952(4) -0.0709(2)
N3 N 0.8658(3) 1.4492(4) -0.0275(2)
C35 C 1.1269(3) 1.3978(4) 0.3106(3)
H24 H 1.1618 1.4639 0.3419
Cl1 Cl 1.02863(10) 1.37928(15) 0.32787(9)
Cl2 Cl 1.19122(11) 1.26319(14) 0.32883(13)
Cl3 Cl 1.10187(14) 1.4511(2) 0.22471(10)
loop_
_geom_bond_atom_site_label_1
_geom_bond_atom_site_label_2
_geom_bond_site_symmetry_1
_geom_bond_site_symmetry_2
C1 C2 1_555 1_555
C2 C3 1_555 1_555
C3 H1 1_555 1_555
C4 C3 1_555 1_555
C5 C4 1_555 1_555
H2 C5 1_555 1_555
C6 C1 1_555 1_555
C7 C6 1_555 1_555
H3 C7 1_555 1_555
H4 C7 1_555 1_555
C8 C9 1_555 1_555
C9 C7 1_555 1_555
C10 C9 1_555 1_555
H5 C10 1_555 1_555
C11 C10 1_555 1_555
H6 C11 1_555 1_555
C12 C11 1_555 1_555
H7 C12 1_555 1_555
C13 C8 1_555 1_555
C14 C13 1_555 1_555
H8 C14 1_555 1_555
H9 C14 1_555 1_555
C15 C16 1_555 1_555
C16 C17 1_555 1_555
C17 H10 1_555 1_555
C18 C17 1_555 1_555
H11 C18 1_555 1_555
C19 C18 1_555 1_555
H12 C19 1_555 1_555
C20 C14 1_555 1_555
C21 C16 1_555 1_555
H13 C21 1_555 1_555
H14 C21 1_555 1_555
C22 C23 1_555 1_555
C23 C21 1_555 1_555
C24 C23 1_555 1_555
H15 C24 1_555 1_555
C25 C24 1_555 1_555
H16 C25 1_555 1_555
C26 C25 1_555 1_555
H17 C26 1_555 1_555
C27 C22 1_555 1_555
C28 C2 1_555 1_555
H18 C28 1_555 1_555
H19 C28 1_555 1_555
C29 C30 1_555 1_555
C30 H20 1_555 1_555
C31 C30 1_555 1_555
H21 C31 1_555 1_555
C32 C31 1_555 1_555
C33 C32 1_555 1_555
H22 C33 1_555 1_555
C34 C29 1_555 1_555
H23 C34 1_555 1_555
C35 H24 1_555 1_555
O1 C8 1_555 1_555
H25 O1 1_555 1_555
O2 C15 1_555 1_555
H26 O2 1_555 1_555
O3 C22 1_555 1_555
H27 O3 1_555 1_555
O4 C1 1_555 1_555
H28 O4 1_555 1_555
O5 N1 1_555 1_555
O6 N1 1_555 1_555
N1 C32 1_555 1_555
N2 C29 1_555 1_555
N3 C4 1_555 1_555
Cl1 C35 1_555 1_555
Cl2 C35 1_555 1_555
Cl3 C35 1_555 1_555
C5 C6 1_555 1_555
C12 C13 1_555 1_555
C15 C20 1_555 1_555
C19 C20 1_555 1_555
C26 C27 1_555 1_555
C27 C28 1_555 1_555
C33 C34 1_555 1_555
N2 N3 1_555 1_555

#END
