
#######################################################################
#
#                 Cambridge Crystallographic Data Centre
#                                CCDC 
#
#######################################################################
#
# If this CIF has been generated from an entry in the Cambridge 
# Structural Database, then it will include bibliographic, chemical, 
# crystal, experimental, refinement or atomic coordinate data resulting 
# from the CCDC's data processing and validation procedures.
#
#######################################################################

data_XUTJUT
_chemical_formula_moiety         'C19 H22 O2'
_chemical_name_systematic        4-benzyl-2,2-dimethyl-5-phenyl-1,3-dioxane
_symmetry_cell_setting           triclinic
_symmetry_space_group_name_H-M   'P -1'
_symmetry_Int_Tables_number      2
_space_group_name_Hall           '-P 1'
loop_
_symmetry_equiv_pos_site_id
_symmetry_equiv_pos_as_xyz
1 x,y,z
2 -x,-y,-z
_cell_length_a                   5.9971(15)
_cell_length_b                   9.656(2)
_cell_length_c                   13.868(3)
_cell_angle_alpha                101.487(5)
_cell_angle_beta                 101.758(5)
_cell_angle_gamma                93.650(5)
_cell_volume                     765.908
_exptl_crystal_colour            colorless
_exptl_crystal_description       plate
_cell_formula_units_Z            2
loop_
_atom_site_label
_atom_site_type_symbol
_atom_site_fract_x
_atom_site_fract_y
_atom_site_fract_z
O1 O 0.6059(2) 0.63199(14) 0.91179(10)
O2 O 0.7148(2) 0.69347(14) 0.77207(9)
C1 C 0.7197(4) 0.7409(2) 0.87700(14)
C2 C 0.9633(4) 0.7897(2) 0.93903(16)
H1 H 0.9597 0.8215 1.0103
H2 H 1.0293 0.8685 0.9151
H3 H 1.0573 0.7105 0.9314
C3 C 0.5701(4) 0.8614(2) 0.88448(17)
H4 H 0.5675 0.8980 0.9554
H5 H 0.4140 0.8264 0.8459
H6 H 0.6321 0.9377 0.8570
C4 C 0.7032(3) 0.5015(2) 0.89635(14)
H7 H 0.6123 0.4296 0.9186
H8 H 0.8609 0.5147 0.9383
C5 C 0.7105(3) 0.44599(19) 0.78520(13)
H9 H 0.5498 0.4188 0.7450
C6 C 0.8201(3) 0.56603(19) 0.74676(14)
H10 H 0.9865 0.5844 0.7805
C7 C 0.8382(3) 0.3151(2) 0.77512(13)
C8 C 0.7247(3) 0.1834(2) 0.72345(14)
H11 H 0.5664 0.1756 0.6925
C9 C 0.8403(4) 0.0620(2) 0.71636(15)
H12 H 0.7606 -0.0277 0.6809
C10 C 1.0712(4) 0.0723(2) 0.76103(15)
H13 H 1.1503 -0.0102 0.7563
C11 C 1.1852(4) 0.2024(2) 0.81225(15)
H14 H 1.3435 0.2097 0.8429
C12 C 1.0707(3) 0.3230(2) 0.81950(14)
H15 H 1.1516 0.4122 0.8552
C13 C 0.7984(3) 0.5320(2) 0.63345(13)
H16 H 0.8499 0.4371 0.6135
H17 H 0.6347 0.5266 0.5999
C14 C 0.9343(3) 0.63874(19) 0.59540(13)
C15 C 1.1686(3) 0.6715(2) 0.63414(14)
H18 H 1.2429 0.6261 0.6847
C16 C 1.2952(3) 0.7687(2) 0.60056(14)
H19 H 1.4551 0.7898 0.6283
C17 C 1.1907(3) 0.8357(2) 0.52674(14)
H20 H 1.2778 0.9038 0.5046
C18 C 0.9589(3) 0.8030(2) 0.48549(14)
H21 H 0.8871 0.8467 0.4335
C19 C 0.8306(3) 0.7060(2) 0.52003(14)
H22 H 0.6707 0.6853 0.4921
O3? O 0.818(3) 0.6180(16) 0.9514(12)
O4? O 0.948(3) 0.6743(17) 0.8115(11)
C20? C 0.891(4) 0.724(2) 0.9045(15)
C21? C 1.126(5) 0.787(3) 0.972(2)
H23? H 1.1074 0.8313 1.0397
H24? H 1.1951 0.8592 0.9430
H25? H 1.2266 0.7115 0.9771
C22? C 0.702(4) 0.816(3) 0.891(2)
H26? H 0.6661 0.8538 0.9560
H27? H 0.5656 0.7595 0.8448
H28? H 0.7492 0.8947 0.8617
loop_
_geom_bond_atom_site_label_1
_geom_bond_atom_site_label_2
_geom_bond_site_symmetry_1
_geom_bond_site_symmetry_2
O1 C1 1_555 1_555
O2 C1 1_555 1_555
C1 C2 1_555 1_555
C2 H1 1_555 1_555
H2 C2 1_555 1_555
H3 C2 1_555 1_555
C3 C1 1_555 1_555
H4 C3 1_555 1_555
H5 C3 1_555 1_555
H6 C3 1_555 1_555
C4 O1 1_555 1_555
H7 C4 1_555 1_555
H8 C4 1_555 1_555
C5 C4 1_555 1_555
H9 C5 1_555 1_555
C6 O2 1_555 1_555
H10 C6 1_555 1_555
C7 C5 1_555 1_555
C8 C7 1_555 1_555
H11 C8 1_555 1_555
C9 C8 1_555 1_555
H12 C9 1_555 1_555
C10 C9 1_555 1_555
H13 C10 1_555 1_555
C11 C10 1_555 1_555
H14 C11 1_555 1_555
C12 C7 1_555 1_555
H15 C12 1_555 1_555
C13 C6 1_555 1_555
H16 C13 1_555 1_555
H17 C13 1_555 1_555
C14 C13 1_555 1_555
C15 C14 1_555 1_555
H18 C15 1_555 1_555
C16 C15 1_555 1_555
H19 C16 1_555 1_555
C17 C16 1_555 1_555
H20 C17 1_555 1_555
C18 C17 1_555 1_555
H21 C18 1_555 1_555
C19 C14 1_555 1_555
H22 C19 1_555 1_555
C5 C6 1_555 1_555
C11 C12 1_555 1_555
C18 C19 1_555 1_555

#END
