
#######################################################################
#
#                 Cambridge Crystallographic Data Centre
#                                CCDC 
#
#######################################################################
#
# If this CIF has been generated from an entry in the Cambridge 
# Structural Database, then it will include bibliographic, chemical, 
# crystal, experimental, refinement or atomic coordinate data resulting 
# from the CCDC's data processing and validation procedures.
#
#######################################################################

data_XUTJON
_chemical_formula_moiety         'C8 H16 O3'
_chemical_name_systematic        4-isopropylcyclopentane-1,2,4-triol
_symmetry_cell_setting           monoclinic
_symmetry_space_group_name_H-M   'P 21/c'
_symmetry_Int_Tables_number      14
_space_group_name_Hall           '-P 2ybc'
loop_
_symmetry_equiv_pos_site_id
_symmetry_equiv_pos_as_xyz
1 x,y,z
2 -x,1/2+y,1/2-z
3 -x,-y,-z
4 x,1/2-y,1/2+z
_cell_length_a                   12.0281(12)
_cell_length_b                   7.0900(7)
_cell_length_c                   10.6409(10)
_cell_angle_alpha                90
_cell_angle_beta                 114.176(3)
_cell_angle_gamma                90
_cell_volume                     827.857
_cell_formula_units_Z            4
loop_
_atom_site_label
_atom_site_type_symbol
_atom_site_fract_x
_atom_site_fract_y
_atom_site_fract_z
O1 O 0.64833(8) 0.41464(11) 0.20614(9)
H1 H 0.5930(14) 0.440(2) 0.2321(17)
O2 O 0.49465(8) 0.08412(11) 0.16869(9)
H2 H 0.4585(14) 0.178(2) 0.1214(16)
O3 O 0.64056(8) -0.10342(12) 0.46668(8)
H3 H 0.6460(15) -0.042(2) 0.5356(15)
C1 C 0.69542(10) 0.23168(15) 0.25276(12)
H4 H 0.7750 0.2203 0.2444
C2 C 0.71866(11) 0.18667(16) 0.40264(11)
H5 H 0.6517 0.2359 0.4246
H6 H 0.7963 0.2435 0.4670
C3 C 0.72474(10) -0.03181(16) 0.41348(11)
C4 C 0.85403(11) -0.10742(17) 0.50021(12)
H7 H 0.9082 -0.0617 0.4562
C5 C 0.85777(12) -0.32329(18) 0.49998(12)
H8 H 0.9422 -0.3661 0.5484
H9 H 0.8249 -0.3691 0.4048
H10 H 0.8086 -0.3728 0.5466
C6 C 0.61448(11) 0.06857(16) 0.17222(12)
H11 H 0.6123 0.0582 0.0775
C7 C 0.67866(11) -0.09881(15) 0.26121(12)
H12 H 0.7480 -0.1397 0.2404
H13 H 0.6216 -0.2060 0.2442
C8 C 0.90725(11) -0.03508(18) 0.64878(12)
H14 H 0.8542 -0.0729 0.6939
H15 H 0.9130 0.1028 0.6487
H16 H 0.9887 -0.0888 0.6989
loop_
_geom_bond_atom_site_label_1
_geom_bond_atom_site_label_2
_geom_bond_site_symmetry_1
_geom_bond_site_symmetry_2
O1 H1 1_555 1_555
O2 H2 1_555 1_555
O3 H3 1_555 1_555
C1 O1 1_555 1_555
H4 C1 1_555 1_555
C2 C1 1_555 1_555
H5 C2 1_555 1_555
H6 C2 1_555 1_555
C3 O3 1_555 1_555
C4 C3 1_555 1_555
H7 C4 1_555 1_555
C5 C4 1_555 1_555
H8 C5 1_555 1_555
H9 C5 1_555 1_555
H10 C5 1_555 1_555
C6 O2 1_555 1_555
H11 C6 1_555 1_555
C7 C3 1_555 1_555
H12 C7 1_555 1_555
H13 C7 1_555 1_555
C8 C4 1_555 1_555
H14 C8 1_555 1_555
H15 C8 1_555 1_555
H16 C8 1_555 1_555
C1 C6 1_555 1_555
C2 C3 1_555 1_555
C6 C7 1_555 1_555

#END
