
#######################################################################
#
#                 Cambridge Crystallographic Data Centre
#                                CCDC 
#
#######################################################################
#
# If this CIF has been generated from an entry in the Cambridge 
# Structural Database, then it will include bibliographic, chemical, 
# crystal, experimental, refinement or atomic coordinate data resulting 
# from the CCDC's data processing and validation procedures.
#
#######################################################################

data_XUTWIS
_chemical_formula_moiety         'C17 H9 N5'
_chemical_name_systematic        
3-(Pyrazin-2-yl)-as-triazino(5,6-f)acenaphthylene
_symmetry_cell_setting           monoclinic
_symmetry_space_group_name_H-M   'C c'
_symmetry_Int_Tables_number      9
_space_group_name_Hall           'C -2yc'
loop_
_symmetry_equiv_pos_site_id
_symmetry_equiv_pos_as_xyz
1 x,y,z
2 x,-y,1/2+z
3 1/2+x,1/2+y,z
4 1/2+x,1/2-y,1/2+z
_cell_length_a                   11.133(10)
_cell_length_b                   26.01(2)
_cell_length_c                   13.574(12)
_cell_angle_alpha                90
_cell_angle_beta                 106.140(16)
_cell_angle_gamma                90
_cell_volume                     3775.69
_exptl_crystal_colour            orange
_exptl_crystal_description       block
_cell_formula_units_Z            12
_exptl_crystal_recrystallization_method ethanol
loop_
_atom_site_label
_atom_site_type_symbol
_atom_site_fract_x
_atom_site_fract_y
_atom_site_fract_z
C1 C -0.1659(8) 0.1004(3) 0.6432(6)
H1 H -0.1913 0.0697 0.6665
N1 N -0.0653(5) 0.17996(19) 0.6868(4)
N2 N 0.0011(4) 0.27329(17) 0.6307(3)
N3 N -0.0816(4) 0.24797(17) 0.4547(3)
N4 N -0.0493(4) 0.29344(18) 0.4197(4)
C4 C -0.1026(7) 0.1348(2) 0.7133(5)
H4 H -0.0845 0.1265 0.7826
N13 N -0.1935(6) 0.1083(2) 0.5426(4)
C5 C -0.1549(7) 0.1529(3) 0.5156(6)
H5 H -0.1702 0.1600 0.4460
C6 C -0.0928(5) 0.18967(19) 0.5857(4)
C7 C -0.0549(6) 0.2404(2) 0.5547(5)
C8 C 0.0322(5) 0.31679(19) 0.5964(4)
C9 C 0.0979(5) 0.3611(2) 0.6532(5)
C10 C 0.1456(7) 0.3736(2) 0.7541(5)
H6 H 0.1353 0.3517 0.8053
C11 C 0.2104(6) 0.4202(2) 0.7793(6)
H7 H 0.2420 0.4288 0.8481
C12 C 0.2291(6) 0.4534(2) 0.7071(5)
H8 H 0.2745 0.4834 0.7275
C13 C 0.1791(6) 0.4423(2) 0.5998(5)
C14 C 0.1883(6) 0.4714(2) 0.5152(6)
H9 H 0.2300 0.5028 0.5253
C15 C 0.1355(7) 0.4535(3) 0.4170(6)
H10 H 0.1441 0.4732 0.3622
C16 C 0.0698(6) 0.4073(2) 0.3957(6)
H11 H 0.0337 0.3967 0.3285
C17 C 0.1140(6) 0.3960(2) 0.5781(5)
C18 C 0.0600(6) 0.3779(2) 0.4769(5)
C19 C 0.0068(5) 0.32729(18) 0.4889(4)
C2 C 0.3323(6) 0.7277(2) 0.1431(5)
H2 H 0.3042 0.7578 0.1664
N5 N 0.4451(5) 0.65001(18) 0.1878(4)
N6 N 0.5189(4) 0.55822(16) 0.1318(3)
N7 N 0.4344(4) 0.58235(17) -0.0452(3)
N8 N 0.4653(4) 0.53672(18) -0.0796(3)
C20 C 0.4004(6) 0.6937(2) 0.2127(5)
H12 H 0.4166 0.7018 0.2819
N14 N 0.3044(5) 0.71906(18) 0.0418(4)
C21 C 0.3506(5) 0.6755(2) 0.0150(5)
H13 H 0.3372 0.6684 -0.0544
C22 C 0.4177(5) 0.64044(19) 0.0863(4)
C23 C 0.4604(5) 0.5907(2) 0.0556(4)
C24 C 0.5497(5) 0.51418(19) 0.0981(4)
C25 C 0.6148(5) 0.4700(2) 0.1545(4)
C26 C 0.6673(6) 0.4588(2) 0.2574(5)
H14 H 0.6622 0.4819 0.3084
C27 C 0.7279(6) 0.4118(2) 0.2816(5)
H15 H 0.7649 0.4042 0.3503
C28 C 0.7362(6) 0.3761(2) 0.2098(5)
H16 H 0.7769 0.3450 0.2303
C29 C 0.6824(6) 0.3865(2) 0.1034(5)
C30 C 0.6816(6) 0.3546(2) 0.0184(6)
H17 H 0.7186 0.3223 0.0288
C31 C 0.6254(7) 0.3718(2) -0.0796(6)
H18 H 0.6260 0.3503 -0.1342
C32 C 0.5676(6) 0.4199(2) -0.1016(5)
H19 H 0.5303 0.4300 -0.1689
C33 C 0.6238(5) 0.4338(2) 0.0811(5)
C34 C 0.5675(6) 0.4516(2) -0.0210(5)
C35 C 0.5206(5) 0.50288(19) -0.0090(4)
C3 C 0.4575(8) -0.0630(3) 0.0410(6)
H3 H 0.4904 -0.0922 0.0188
N9 N 0.3433(5) 0.0141(2) -0.0052(5)
N10 N 0.2682(5) 0.10563(17) 0.0502(4)
N11 N 0.3550(4) 0.08148(18) 0.2259(4)
N12 N 0.3240(5) 0.12726(17) 0.2615(4)
C36 C 0.3877(6) -0.0298(2) -0.0307(5)
H20 H 0.3708 -0.0384 -0.0998
N15 N 0.4797(6) -0.0550(2) 0.1395(5)
C37 C 0.4348(6) -0.0115(2) 0.1648(6)
H21 H 0.4480 -0.0042 0.2341
C38 C 0.3699(5) 0.0233(2) 0.0945(5)
C39 C 0.3277(6) 0.0733(2) 0.1258(5)
C40 C 0.2359(5) 0.14947(18) 0.0841(5)
C41 C 0.1682(5) 0.1933(2) 0.0274(5)
C42 C 0.1185(6) 0.2047(2) -0.0733(5)
H22 H 0.1266 0.1822 -0.1243
C43 C 0.0544(6) 0.2517(2) -0.0986(6)
H23 H 0.0182 0.2596 -0.1673
C44 C 0.0437(6) 0.2863(2) -0.0248(6)
H24 H 0.0004 0.3169 -0.0445
C45 C 0.0976(6) 0.2759(2) 0.0806(5)
C46 C 0.0928(6) 0.3063(2) 0.1654(5)
H25 H 0.0521 0.3379 0.1548
C47 C 0.1476(6) 0.2897(2) 0.2632(5)
H26 H 0.1422 0.3102 0.3178
C48 C 0.2119(6) 0.2426(2) 0.2843(5)
H27 H 0.2507 0.2326 0.3515
C49 C 0.1594(6) 0.2289(2) 0.1038(5)
C50 C 0.2160(6) 0.2117(2) 0.2033(5)
C51 C 0.2643(5) 0.1604(2) 0.1910(4)
loop_
_geom_bond_atom_site_label_1
_geom_bond_atom_site_label_2
_geom_bond_site_symmetry_1
_geom_bond_site_symmetry_2
C1 H1 1_555 1_555
N1 C4 1_555 1_555
N2 C7 1_555 1_555
N3 N4 1_555 1_555
N4 C19 1_555 1_555
C2 H2 1_555 1_555
N5 C20 1_555 1_555
N6 C23 1_555 1_555
N7 N8 1_555 1_555
N8 C35 1_555 1_555
C3 H3 1_555 1_555
N9 C36 1_555 1_555
N10 C39 1_555 1_555
N11 N12 1_555 1_555
N12 C51 1_555 1_555
C4 C1 1_555 1_555
H4 C4 1_555 1_555
N13 C1 1_555 1_555
C5 N13 1_555 1_555
H5 C5 1_555 1_555
C6 N1 1_555 1_555
C7 N3 1_555 1_555
C8 N2 1_555 1_555
C9 C8 1_555 1_555
C10 C9 1_555 1_555
H6 C10 1_555 1_555
C11 C10 1_555 1_555
H7 C11 1_555 1_555
C12 C11 1_555 1_555
H8 C12 1_555 1_555
C13 C12 1_555 1_555
C14 C13 1_555 1_555
H9 C14 1_555 1_555
C15 C14 1_555 1_555
H10 C15 1_555 1_555
C16 C15 1_555 1_555
H11 C16 1_555 1_555
C17 C9 1_555 1_555
C18 C16 1_555 1_555
C19 C8 1_555 1_555
C20 C2 1_555 1_555
H12 C20 1_555 1_555
N14 C2 1_555 1_555
C21 N14 1_555 1_555
H13 C21 1_555 1_555
C22 N5 1_555 1_555
C23 N7 1_555 1_555
C24 N6 1_555 1_555
C25 C24 1_555 1_555
C26 C25 1_555 1_555
H14 C26 1_555 1_555
C27 C26 1_555 1_555
H15 C27 1_555 1_555
C28 C27 1_555 1_555
H16 C28 1_555 1_555
C29 C28 1_555 1_555
C30 C29 1_555 1_555
H17 C30 1_555 1_555
C31 C30 1_555 1_555
H18 C31 1_555 1_555
C32 C31 1_555 1_555
H19 C32 1_555 1_555
C33 C25 1_555 1_555
C34 C32 1_555 1_555
C35 C24 1_555 1_555
C36 C3 1_555 1_555
H20 C36 1_555 1_555
N15 C3 1_555 1_555
C37 N15 1_555 1_555
H21 C37 1_555 1_555
C38 N9 1_555 1_555
C39 N11 1_555 1_555
C40 N10 1_555 1_555
C41 C40 1_555 1_555
C42 C41 1_555 1_555
H22 C42 1_555 1_555
C43 C42 1_555 1_555
H23 C43 1_555 1_555
C44 C43 1_555 1_555
H24 C44 1_555 1_555
C45 C44 1_555 1_555
C46 C45 1_555 1_555
H25 C46 1_555 1_555
C47 C46 1_555 1_555
H26 C47 1_555 1_555
C48 C47 1_555 1_555
H27 C48 1_555 1_555
C49 C41 1_555 1_555
C50 C48 1_555 1_555
C51 C40 1_555 1_555
C5 C6 1_555 1_555
C6 C7 1_555 1_555
C13 C17 1_555 1_555
C17 C18 1_555 1_555
C18 C19 1_555 1_555
C21 C22 1_555 1_555
C22 C23 1_555 1_555
C29 C33 1_555 1_555
C33 C34 1_555 1_555
C34 C35 1_555 1_555
C37 C38 1_555 1_555
C38 C39 1_555 1_555
C45 C49 1_555 1_555
C49 C50 1_555 1_555
C50 C51 1_555 1_555

#END
