
#######################################################################
#
#                 Cambridge Crystallographic Data Centre
#                                CCDC 
#
#######################################################################
#
# If this CIF has been generated from an entry in the Cambridge 
# Structural Database, then it will include bibliographic, chemical, 
# crystal, experimental, refinement or atomic coordinate data resulting 
# from the CCDC's data processing and validation procedures.
#
#######################################################################

data_XUTZOD
_chemical_formula_moiety         'C22 H24 N2 O3 S1'
_chemical_name_systematic        
6a,7-Dimethyl-3-((4-methylphenyl)sulfonyl)-1,2,3,5,6a,7-hexahydropyrrolo[3',2':3,4]pyrano[2,3-b]indole
_symmetry_cell_setting           monoclinic
_symmetry_space_group_name_H-M   'P 21/c'
_symmetry_Int_Tables_number      14
_space_group_name_Hall           '-P 2ybc'
loop_
_symmetry_equiv_pos_site_id
_symmetry_equiv_pos_as_xyz
1 x,y,z
2 -x,1/2+y,1/2-z
3 -x,-y,-z
4 x,1/2-y,1/2+z
_cell_length_a                   7.37040(10)
_cell_length_b                   28.9115(5)
_cell_length_c                   9.1711(6)
_cell_angle_alpha                90
_cell_angle_beta                 94.841(7)
_cell_angle_gamma                90
_cell_volume                     1947.29
_exptl_crystal_colour            colorless
_exptl_crystal_description       prism
_cell_formula_units_Z            4
loop_
_atom_site_label
_atom_site_type_symbol
_atom_site_fract_x
_atom_site_fract_y
_atom_site_fract_z
S1 S 0.39210(10) 0.42318(2) -0.10119(7)
O1 O 0.6188(3) 0.39354(6) 0.4604(2)
O2 O 0.4427(3) 0.44586(7) -0.2299(2)
O3 O 0.2192(3) 0.43240(7) -0.0477(2)
N1 N 0.5497(3) 0.43685(7) 0.0281(2)
N2 N 0.9293(3) 0.39622(8) 0.4486(3)
C1 C 0.5216(5) 0.21760(10) -0.1384(4)
H1 H 0.4930 0.2038 -0.0479
H2 H 0.6485 0.2132 -0.1506
H3 H 0.4499 0.2033 -0.2183
C2 C 0.4799(4) 0.26851(9) -0.1357(3)
C3 C 0.5561(4) 0.29890(10) -0.2312(3)
H4 H 0.6303 0.2873 -0.2998
C4 C 0.5239(4) 0.34594(10) -0.2265(3)
H5 H 0.5762 0.3658 -0.2908
C5 C 0.4126(4) 0.36305(9) -0.1246(3)
C6 C 0.7430(4) 0.41547(8) 0.2365(3)
C7 C 0.8293(3) 0.36800(9) 0.2217(3)
C8 C 0.9374(4) 0.35913(10) 0.3523(3)
C9 C 1.0318(4) 0.31781(11) 0.3710(4)
H6 H 1.1020 0.3116 0.4578
C10 C 1.0196(4) 0.28598(11) 0.2576(4)
H7 H 1.0825 0.2582 0.2691
C11 C 0.4097(4) 0.41866(9) 0.2567(3)
H8 H 0.2928 0.4243 0.2139
C12 C 0.4366(4) 0.40674(10) 0.4153(3)
H9 H 0.4040 0.4332 0.4725
H10 H 0.3554 0.3816 0.4355
C13 C 0.7619(4) 0.42118(9) 0.4043(3)
C14 C 0.8393(4) 0.45159(9) 0.1449(3)
H11 H 0.8265 0.4825 0.1835
H12 H 0.9677 0.4445 0.1428
C15 C 0.7389(4) 0.44684(10) -0.0070(3)
H13 H 0.7449 0.4753 -0.0627
H14 H 0.7880 0.4217 -0.0615
C16 C 0.9159(4) 0.29470(10) 0.1279(4)
H15 H 0.9108 0.2730 0.0529
C17 C 0.8181(4) 0.33627(9) 0.1090(3)
H16 H 0.7473 0.3423 0.0223
C18 C 0.5493(4) 0.42133(8) 0.1764(3)
C19 C 0.9810(5) 0.38912(14) 0.6032(4)
H17 H 0.9100 0.3644 0.6390
H18 H 0.9593 0.4170 0.6561
H19 H 1.1079 0.3813 0.6169
C20 C 0.7564(5) 0.47001(10) 0.4621(3)
H20 H 0.6520 0.4857 0.4161
H21 H 0.8651 0.4861 0.4409
H22 H 0.7485 0.4693 0.5660
C21 C 0.3281(4) 0.33332(10) -0.0313(3)
H23 H 0.2492 0.3447 0.0340
C22 C 0.3645(4) 0.28647(10) -0.0383(3)
H24 H 0.3099 0.2664 0.0242
loop_
_geom_bond_atom_site_label_1
_geom_bond_atom_site_label_2
_geom_bond_site_symmetry_1
_geom_bond_site_symmetry_2
S1 O2 1_555 1_555
O1 C12 1_555 1_555
O3 S1 1_555 1_555
N1 S1 1_555 1_555
N2 C8 1_555 1_555
C1 H1 1_555 1_555
H2 C1 1_555 1_555
H3 C1 1_555 1_555
C2 C1 1_555 1_555
C3 C2 1_555 1_555
H4 C3 1_555 1_555
C4 C3 1_555 1_555
H5 C4 1_555 1_555
C5 S1 1_555 1_555
C6 C7 1_555 1_555
C7 C8 1_555 1_555
C8 C9 1_555 1_555
C9 H6 1_555 1_555
C10 C9 1_555 1_555
H7 C10 1_555 1_555
C11 H8 1_555 1_555
C12 C11 1_555 1_555
H9 C12 1_555 1_555
H10 C12 1_555 1_555
C13 O1 1_555 1_555
C14 C6 1_555 1_555
H11 C14 1_555 1_555
H12 C14 1_555 1_555
C15 N1 1_555 1_555
H13 C15 1_555 1_555
H14 C15 1_555 1_555
C16 C10 1_555 1_555
H15 C16 1_555 1_555
C17 C7 1_555 1_555
H16 C17 1_555 1_555
C18 N1 1_555 1_555
C19 N2 1_555 1_555
H17 C19 1_555 1_555
H18 C19 1_555 1_555
H19 C19 1_555 1_555
C20 C13 1_555 1_555
H20 C20 1_555 1_555
H21 C20 1_555 1_555
H22 C20 1_555 1_555
C21 C5 1_555 1_555
H23 C21 1_555 1_555
C22 C2 1_555 1_555
H24 C22 1_555 1_555
N2 C13 1_555 1_555
C4 C5 1_555 1_555
C6 C13 1_555 1_555
C6 C18 1_555 1_555
C11 C18 1_555 1_555
C14 C15 1_555 1_555
C16 C17 1_555 1_555
C21 C22 1_555 1_555

#END
