
#######################################################################
#
#                 Cambridge Crystallographic Data Centre
#                                CCDC 
#
#######################################################################
#
# If this CIF has been generated from an entry in the Cambridge 
# Structural Database, then it will include bibliographic, chemical, 
# crystal, experimental, refinement or atomic coordinate data resulting 
# from the CCDC's data processing and validation procedures.
#
#######################################################################

data_XUVBAT
_chemical_formula_moiety         'C25 H26 N2 O2'
_chemical_name_systematic        
1-((3-((4-Hydroxypent-3-en-2-ylidene)amino)-2,4,6-trimethylphenyl)carbonoimidoyl)-2-naphthol
_symmetry_cell_setting           triclinic
_symmetry_space_group_name_H-M   'P -1'
_symmetry_Int_Tables_number      2
_space_group_name_Hall           '-P 1'
loop_
_symmetry_equiv_pos_site_id
_symmetry_equiv_pos_as_xyz
1 x,y,z
2 -x,-y,-z
_cell_length_a                   8.0864(4)
_cell_length_b                   9.4932(5)
_cell_length_c                   14.1197(6)
_cell_angle_alpha                76.550(4)
_cell_angle_beta                 81.398(4)
_cell_angle_gamma                86.999(4)
_cell_volume                     1042.15
_exptl_crystal_colour            colorless
_exptl_crystal_description       block
_cell_formula_units_Z            2
loop_
_atom_site_label
_atom_site_type_symbol
_atom_site_fract_x
_atom_site_fract_y
_atom_site_fract_z
O1 O 0.7041(2) 0.76502(18) 0.28117(12)
H1 H 0.7544 0.6990 0.3173
O2 O 0.6447(2) -0.0849(2) 0.71257(12)
H2 H 0.6946 -0.0156 0.6722
N1 N 0.7909(2) 0.4949(2) 0.36367(13)
N2 N 0.8803(2) 0.0909(2) 0.63497(13)
C1 C 0.7100(3) 0.4578(3) 0.29648(16)
C2 C 0.7159(4) 0.3029(3) 0.2894(2)
H3 H 0.8323 0.2679 0.2837
H4 H 0.6675 0.2948 0.2313
H5 H 0.6516 0.2443 0.3486
C3 C 0.6242(3) 0.5605(3) 0.23492(17)
H6 H 0.5605 0.5278 0.1931
C4 C 0.6246(3) 0.7110(3) 0.22974(16)
C5 C 0.5231(4) 0.8103(3) 0.1604(2)
H7 H 0.5070 0.9041 0.1787
H8 H 0.4140 0.7675 0.1642
H9 H 0.5820 0.8242 0.0931
C6 C 0.9020(3) 0.3973(2) 0.41882(15)
C7 C 0.8394(3) 0.2988(2) 0.50515(15)
C8 C 0.9516(3) 0.1973(2) 0.55216(15)
C9 C 1.1212(3) 0.1926(2) 0.51285(15)
C10 C 1.1775(3) 0.2993(3) 0.43016(16)
H10 H 1.2936 0.3019 0.4056
C11 C 1.0718(3) 0.4020(3) 0.38197(16)
C12 C 0.6572(3) 0.3013(3) 0.54653(19)
H11 H 0.6040 0.3904 0.5132
H12 H 0.6460 0.2977 0.6171
H13 H 0.6028 0.2172 0.5363
C13 C 1.2419(3) 0.0731(3) 0.54959(18)
H14 H 1.3319 0.0654 0.4961
H15 H 1.1828 -0.0188 0.5723
H16 H 1.2896 0.0952 0.6042
C14 C 1.1375(3) 0.5093(3) 0.28908(18)
H17 H 1.2601 0.5072 0.2804
H18 H 1.0963 0.6068 0.2937
H19 H 1.0989 0.4839 0.2327
C15 C 0.9512(3) 0.0452(3) 0.71342(16)
H20 H 1.0508 0.0896 0.7190
C16 C 0.8828(3) -0.0704(2) 0.79180(15)
C17 C 0.7312(3) -0.1321(3) 0.78626(17)
C18 C 0.6652(3) -0.2506(3) 0.86230(19)
H21 H 0.5612 -0.2904 0.8593
C19 C 0.7494(4) -0.3065(3) 0.93838(19)
H22 H 0.7044 -0.3871 0.9872
C20 C 0.9033(3) -0.2489(3) 0.94819(17)
C21 C 0.9883(4) -0.3085(4) 1.0287(2)
H23 H 0.9424 -0.3889 1.0774
C22 C 1.1340(4) -0.2533(4) 1.0379(2)
H24 H 1.1905 -0.2950 1.0924
C23 C 1.2010(4) -0.1352(4) 0.9670(2)
H25 H 1.3034 -0.0963 0.9737
C24 C 1.1221(3) -0.0740(3) 0.88790(18)
H26 H 1.1705 0.0068 0.8406
C25 C 0.9702(3) -0.1287(3) 0.87529(16)
loop_
_geom_bond_atom_site_label_1
_geom_bond_atom_site_label_2
_geom_bond_site_symmetry_1
_geom_bond_site_symmetry_2
O1 H1 1_555 1_555
O2 H2 1_555 1_555
N1 C1 1_555 1_555
N2 C8 1_555 1_555
C1 C2 1_555 1_555
C2 H3 1_555 1_555
H4 C2 1_555 1_555
H5 C2 1_555 1_555
C3 C1 1_555 1_555
H6 C3 1_555 1_555
C4 O1 1_555 1_555
C5 C4 1_555 1_555
H7 C5 1_555 1_555
H8 C5 1_555 1_555
H9 C5 1_555 1_555
C6 N1 1_555 1_555
C7 C6 1_555 1_555
C8 C7 1_555 1_555
C9 C8 1_555 1_555
C10 C9 1_555 1_555
H10 C10 1_555 1_555
C11 C6 1_555 1_555
C12 C7 1_555 1_555
H11 C12 1_555 1_555
H12 C12 1_555 1_555
H13 C12 1_555 1_555
C13 C9 1_555 1_555
H14 C13 1_555 1_555
H15 C13 1_555 1_555
H16 C13 1_555 1_555
C14 C11 1_555 1_555
H17 C14 1_555 1_555
H18 C14 1_555 1_555
H19 C14 1_555 1_555
C15 N2 1_555 1_555
H20 C15 1_555 1_555
C16 C15 1_555 1_555
C17 O2 1_555 1_555
C18 C17 1_555 1_555
H21 C18 1_555 1_555
C19 C18 1_555 1_555
H22 C19 1_555 1_555
C20 C19 1_555 1_555
C21 C20 1_555 1_555
H23 C21 1_555 1_555
C22 C21 1_555 1_555
H24 C22 1_555 1_555
C23 C22 1_555 1_555
H25 C23 1_555 1_555
C24 C23 1_555 1_555
H26 C24 1_555 1_555
C25 C16 1_555 1_555
C3 C4 1_555 1_555
C10 C11 1_555 1_555
C16 C17 1_555 1_555
C20 C25 1_555 1_555
C24 C25 1_555 1_555

#END
