
#######################################################################
#
#                 Cambridge Crystallographic Data Centre
#                                CCDC 
#
#######################################################################
#
# If this CIF has been generated from an entry in the Cambridge 
# Structural Database, then it will include bibliographic, chemical, 
# crystal, experimental, refinement or atomic coordinate data resulting 
# from the CCDC's data processing and validation procedures.
#
#######################################################################

data_XUVSOY
_chemical_formula_moiety         'C32 H70 Mg2 N6 O2'
_chemical_name_systematic        
bis(\m-1-(dimethylamino)-2-methylpropan-2-olato)-bis(propan-2-yl[N-(propan-2-yl)ethanimidoyl]amido)-di-magnesium
_symmetry_cell_setting           monoclinic
_symmetry_space_group_name_H-M   'P 21/c'
_symmetry_Int_Tables_number      14
_space_group_name_Hall           '-P 2ybc'
loop_
_symmetry_equiv_pos_site_id
_symmetry_equiv_pos_as_xyz
1 x,y,z
2 -x,1/2+y,1/2-z
3 -x,-y,-z
4 x,1/2-y,1/2+z
_cell_length_a                   9.7480(3)
_cell_length_b                   15.5262(5)
_cell_length_c                   12.7331(4)
_cell_angle_alpha                90
_cell_angle_beta                 103.379(2)
_cell_angle_gamma                90
_cell_volume                     1874.85
_exptl_crystal_colour            silver
_exptl_crystal_description       Block
_cell_formula_units_Z            2
_chemical_properties_physical    Air-sensitive
loop_
_atom_site_label
_atom_site_type_symbol
_atom_site_fract_x
_atom_site_fract_y
_atom_site_fract_z
Mg1 Mg 0.55451(6) 0.96381(4) 0.11520(5)
O1 O 0.40501(13) 0.94117(8) -0.02268(10)
N1 N 0.69244(16) 0.98098(10) 0.27476(12)
N2 N 0.70869(16) 0.86901(10) 0.16819(12)
N3 N 0.36621(16) 0.92253(10) 0.18013(12)
C1 C 0.7249(2) 1.03734(12) 0.37063(15)
C2 C 0.6040(2) 1.10285(13) 0.35347(17)
H1 H 0.5990 1.1340 0.2858
H2 H 0.6210 1.1438 0.4137
H3 H 0.5148 1.0726 0.3500
C3 C 0.7263(2) 0.99110(15) 0.47795(16)
H4 H 0.6386 0.9585 0.4711
H5 H 0.7345 1.0338 0.5357
H6 H 0.8068 0.9516 0.4952
C4 C 0.8632(2) 1.08842(14) 0.38141(17)
H7 H 0.8625 1.1178 0.3131
H8 H 0.9435 1.0488 0.3988
H9 H 0.8714 1.1312 0.4392
C5 C 0.76682(19) 0.79111(11) 0.12870(16)
C6 C 0.7747(3) 0.71316(14) 0.2036(2)
H10 H 0.6822 0.7034 0.2194
H11 H 0.8446 0.7241 0.2711
H12 H 0.8024 0.6621 0.1683
C7 C 0.9091(3) 0.80633(16) 0.1007(3)
H13 H 0.9032 0.8575 0.0549
H14 H 0.9335 0.7561 0.0621
H15 H 0.9817 0.8151 0.1673
C8 C 0.6614(3) 0.76710(16) 0.02440(19)
H16 H 0.6520 0.8151 -0.0268
H17 H 0.5695 0.7549 0.0401
H18 H 0.6949 0.7159 -0.0071
C9 C 0.76351(18) 0.91028(12) 0.26042(14)
C10 C 0.8961(2) 0.88013(15) 0.34017(17)
H19 H 0.8716 0.8608 0.4068
H20 H 0.9634 0.9279 0.3565
H21 H 0.9386 0.8324 0.3086
C11 C 0.28479(18) 0.89125(11) -0.02038(14)
C12 C 0.29910(19) 0.85967(11) 0.09649(14)
H22 H 0.2041 0.8456 0.1069
H23 H 0.3553 0.8059 0.1069
C13 C 0.14833(19) 0.94178(13) -0.06438(16)
H24 H 0.1693 1.0036 -0.0624
H25 H 0.0809 0.9299 -0.0198
H26 H 0.1076 0.9241 -0.1390
C14 C 0.2784(2) 0.80994(12) -0.09022(15)
H27 H 0.3693 0.8016 -0.1093
H28 H 0.2041 0.8165 -0.1562
H29 H 0.2578 0.7598 -0.0497
C15 C 0.4026(2) 0.87694(13) 0.28427(16)
H30 H 0.3160 0.8615 0.3065
H31 H 0.4605 0.9144 0.3389
H32 H 0.4555 0.8245 0.2767
C16 C 0.2702(2) 0.99421(13) 0.18852(17)
H33 H 0.1921 0.9728 0.2178
H34 H 0.2328 1.0189 0.1168
H35 H 0.3219 1.0386 0.2366
Mg1B Mg 0.44549(6) 1.03619(4) -0.11520(5)
O1B O 0.59499(13) 1.05883(8) 0.02268(10)
N1B N 0.30756(16) 1.01902(10) -0.27476(12)
N2B N 0.29131(16) 1.13099(10) -0.16819(12)
N3B N 0.63379(16) 1.07747(10) -0.18013(12)
C1B C 0.2751(2) 0.96266(12) -0.37063(15)
C2B C 0.3960(2) 0.89715(13) -0.35347(17)
H1B H 0.4010 0.8660 -0.2858
H2B H 0.3790 0.8562 -0.4137
H3B H 0.4852 0.9274 -0.3500
C3B C 0.2737(2) 1.00890(15) -0.47795(16)
H4B H 0.3614 1.0415 -0.4711
H5B H 0.2655 0.9662 -0.5357
H6B H 0.1932 1.0484 -0.4952
C4B C 0.1368(2) 0.91158(14) -0.38141(17)
H7B H 0.1375 0.8822 -0.3131
H8B H 0.0565 0.9512 -0.3988
H9B H 0.1286 0.8688 -0.4392
C5B C 0.23318(19) 1.20889(11) -0.12870(16)
C6B C 0.2253(3) 1.28684(14) -0.2036(2)
H10B H 0.3178 1.2966 -0.2194
H11B H 0.1554 1.2759 -0.2711
H12B H 0.1976 1.3379 -0.1683
C7B C 0.0909(3) 1.19367(16) -0.1007(3)
H13B H 0.0968 1.1425 -0.0549
H14B H 0.0665 1.2439 -0.0621
H15B H 0.0183 1.1849 -0.1673
C8B C 0.3386(3) 1.23290(16) -0.02440(19)
H16B H 0.3480 1.1849 0.0268
H17B H 0.4305 1.2451 -0.0401
H18B H 0.3051 1.2841 0.0071
C9B C 0.23649(18) 1.08972(12) -0.26042(14)
C10B C 0.1039(2) 1.11987(15) -0.34017(17)
H19B H 0.1284 1.1392 -0.4068
H20B H 0.0366 1.0721 -0.3565
H21B H 0.0614 1.1676 -0.3086
C11B C 0.71521(18) 1.10875(11) 0.02038(14)
C12B C 0.70090(19) 1.14033(11) -0.09649(14)
H22B H 0.7959 1.1544 -0.1069
H23B H 0.6447 1.1941 -0.1069
C13B C 0.85167(19) 1.05822(13) 0.06438(16)
H24B H 0.8307 0.9964 0.0624
H25B H 0.9191 1.0701 0.0198
H26B H 0.8924 1.0759 0.1390
C14B C 0.7216(2) 1.19006(12) 0.09022(15)
H27B H 0.6307 1.1984 0.1093
H28B H 0.7959 1.1835 0.1562
H29B H 0.7422 1.2402 0.0497
C15B C 0.5974(2) 1.12306(13) -0.28427(16)
H30B H 0.6840 1.1385 -0.3065
H31B H 0.5395 1.0856 -0.3389
H32B H 0.5445 1.1755 -0.2767
C16B C 0.7298(2) 1.00579(13) -0.18852(17)
H33B H 0.8079 1.0272 -0.2178
H34B H 0.7672 0.9811 -0.1168
H35B H 0.6781 0.9614 -0.2366
loop_
_geom_bond_atom_site_label_1
_geom_bond_atom_site_label_2
_geom_bond_site_symmetry_1
_geom_bond_site_symmetry_2
Mg1 O1 1_555 1_555
O1 C11 1_555 1_555
N1 Mg1 1_555 1_555
N2 Mg1 1_555 1_555
N3 Mg1 1_555 1_555
C1 N1 1_555 1_555
C2 C1 1_555 1_555
H1 C2 1_555 1_555
H2 C2 1_555 1_555
H3 C2 1_555 1_555
C3 C1 1_555 1_555
H4 C3 1_555 1_555
H5 C3 1_555 1_555
H6 C3 1_555 1_555
C4 C1 1_555 1_555
H7 C4 1_555 1_555
H8 C4 1_555 1_555
H9 C4 1_555 1_555
C5 N2 1_555 1_555
C6 C5 1_555 1_555
H10 C6 1_555 1_555
H11 C6 1_555 1_555
H12 C6 1_555 1_555
C7 C5 1_555 1_555
H13 C7 1_555 1_555
H14 C7 1_555 1_555
H15 C7 1_555 1_555
C8 C5 1_555 1_555
H16 C8 1_555 1_555
H17 C8 1_555 1_555
H18 C8 1_555 1_555
C9 N1 1_555 1_555
C10 C9 1_555 1_555
H19 C10 1_555 1_555
H20 C10 1_555 1_555
H21 C10 1_555 1_555
C11 C12 1_555 1_555
C12 N3 1_555 1_555
H22 C12 1_555 1_555
H23 C12 1_555 1_555
C13 C11 1_555 1_555
H24 C13 1_555 1_555
H25 C13 1_555 1_555
H26 C13 1_555 1_555
C14 C11 1_555 1_555
H27 C14 1_555 1_555
H28 C14 1_555 1_555
H29 C14 1_555 1_555
C15 N3 1_555 1_555
H30 C15 1_555 1_555
H31 C15 1_555 1_555
H32 C15 1_555 1_555
C16 N3 1_555 1_555
H33 C16 1_555 1_555
H34 C16 1_555 1_555
H35 C16 1_555 1_555
Mg1B O1 1_555 1_555
O1B Mg1 1_555 1_555
N1B Mg1B 1_555 1_555
N2B Mg1B 1_555 1_555
N3B Mg1B 1_555 1_555
C1B N1B 1_555 1_555
C2B C1B 1_555 1_555
H1B C2B 1_555 1_555
H2B C2B 1_555 1_555
H3B C2B 1_555 1_555
C3B C1B 1_555 1_555
H4B C3B 1_555 1_555
H5B C3B 1_555 1_555
H6B C3B 1_555 1_555
C4B C1B 1_555 1_555
H7B C4B 1_555 1_555
H8B C4B 1_555 1_555
H9B C4B 1_555 1_555
C5B N2B 1_555 1_555
C6B C5B 1_555 1_555
H10B C6B 1_555 1_555
H11B C6B 1_555 1_555
H12B C6B 1_555 1_555
C7B C5B 1_555 1_555
H13B C7B 1_555 1_555
H14B C7B 1_555 1_555
H15B C7B 1_555 1_555
C8B C5B 1_555 1_555
H16B C8B 1_555 1_555
H17B C8B 1_555 1_555
H18B C8B 1_555 1_555
C9B N1B 1_555 1_555
C10B C9B 1_555 1_555
H19B C10B 1_555 1_555
H20B C10B 1_555 1_555
H21B C10B 1_555 1_555
C11B O1B 1_555 1_555
C12B N3B 1_555 1_555
H22B C12B 1_555 1_555
H23B C12B 1_555 1_555
C13B C11B 1_555 1_555
H24B C13B 1_555 1_555
H25B C13B 1_555 1_555
H26B C13B 1_555 1_555
C14B C11B 1_555 1_555
H27B C14B 1_555 1_555
H28B C14B 1_555 1_555
H29B C14B 1_555 1_555
C15B N3B 1_555 1_555
H30B C15B 1_555 1_555
H31B C15B 1_555 1_555
H32B C15B 1_555 1_555
C16B N3B 1_555 1_555
H33B C16B 1_555 1_555
H34B C16B 1_555 1_555
H35B C16B 1_555 1_555
N2 C9 1_555 1_555
Mg1B O1B 1_555 1_555
N2B C9B 1_555 1_555
C11B C12B 1_555 1_555

#END
