
#######################################################################
#
#                 Cambridge Crystallographic Data Centre
#                                CCDC 
#
#######################################################################
#
# If this CIF has been generated from an entry in the Cambridge 
# Structural Database, then it will include bibliographic, chemical, 
# crystal, experimental, refinement or atomic coordinate data resulting 
# from the CCDC's data processing and validation procedures.
#
#######################################################################

data_XUVSIS
_chemical_formula_moiety         'C28 H62 Mg2 N6 O2'
_chemical_name_systematic        
bis(\m-1-(dimethylamino)-2-methylpropan-2-olato)-bis(propan-2-yl[N-(propan-2-yl)ethanimidoyl]amido)-di-magnesium
_symmetry_cell_setting           monoclinic
_symmetry_space_group_name_H-M   'P 21/n'
_symmetry_Int_Tables_number      14
_space_group_name_Hall           '-P 2yn'
loop_
_symmetry_equiv_pos_site_id
_symmetry_equiv_pos_as_xyz
1 x,y,z
2 1/2-x,1/2+y,1/2-z
3 -x,-y,-z
4 1/2+x,1/2-y,1/2+z
_cell_length_a                   9.2417(2)
_cell_length_b                   17.0645(4)
_cell_length_c                   11.2446(2)
_cell_angle_alpha                90
_cell_angle_beta                 99.2310(10)
_cell_angle_gamma                90
_cell_volume                     1750.36
_exptl_crystal_colour            silver
_exptl_crystal_description       Block
_cell_formula_units_Z            2
_chemical_properties_physical    Air-sensitive
loop_
_atom_site_label
_atom_site_type_symbol
_atom_site_fract_x
_atom_site_fract_y
_atom_site_fract_z
Mg1 Mg 0.90543(5) 0.97181(3) 0.88333(4)
O1 O 1.00991(12) 0.93077(6) 1.04269(9)
N1 N 0.76590(14) 1.00002(8) 0.71501(11)
N2 N 0.96532(14) 0.92406(8) 0.72747(11)
N3 N 0.74588(14) 0.88211(7) 0.93288(11)
C1 C 0.84594(17) 0.82240(9) 0.99634(14)
H1 H 0.8863 0.7906 0.9358
H2 H 0.7888 0.7870 1.0409
C2 C 0.97494(17) 0.85713(8) 1.08599(13)
C3 C 0.65180(18) 0.84341(10) 0.83200(15)
H3 H 0.5874 0.8058 0.8635
H4 H 0.7131 0.8158 0.7820
H5 H 0.5922 0.8828 0.7832
C4 C 0.65319(19) 0.91800(10) 1.01259(15)
H6 H 0.5841 0.8789 1.0341
H7 H 0.5987 0.9620 0.9710
H8 H 0.7150 0.9370 1.0859
C5 C 0.9391(2) 0.86347(10) 1.21467(14)
H9 H 1.0233 0.8858 1.2680
H10 H 0.9177 0.8112 1.2436
H11 H 0.8536 0.8974 1.2144
C6 C 1.10455(18) 0.80109(9) 1.08814(16)
H12 H 1.1889 0.8210 1.1439
H13 H 1.1302 0.7972 1.0071
H14 H 1.0776 0.7492 1.1148
C7 C 0.84735(17) 0.95344(9) 0.65780(13)
C8 C 1.06795(18) 0.87292(10) 0.68011(14)
H15 H 1.0649 0.8849 0.5927
C9 C 1.22164(19) 0.88971(11) 0.74648(16)
H16 H 1.2449 0.9452 0.7372
H17 H 1.2926 0.8572 0.7128
H18 H 1.2264 0.8775 0.8322
C10 C 1.0299(2) 0.78655(10) 0.69322(19)
H19 H 0.9309 0.7764 0.6500
H20 H 1.0340 0.7739 0.7787
H21 H 1.1005 0.7539 0.6593
C11 C 0.81019(19) 0.93370(11) 0.52457(14)
H22 H 0.8115 0.9817 0.4769
H23 H 0.7124 0.9100 0.5081
H24 H 0.8827 0.8967 0.5028
C12 C 0.63250(17) 1.03677(9) 0.65301(14)
H25 H 0.5759 0.9971 0.5988
C13 C 0.6642(2) 1.10738(11) 0.57700(16)
H26 H 0.7239 1.0906 0.5171
H27 H 0.7173 1.1473 0.6294
H28 H 0.5715 1.1293 0.5359
C14 C 0.53956(18) 1.06296(10) 0.74624(15)
H29 H 0.5192 1.0178 0.7949
H30 H 0.4470 1.0850 0.7051
H31 H 0.5928 1.1029 0.7986
Mg1B Mg 1.09457(5) 1.02819(3) 1.11667(4)
O1B O 0.99009(12) 1.06923(6) 0.95731(9)
N1B N 1.23410(14) 0.99998(8) 1.28499(11)
N2B N 1.03468(14) 1.07594(8) 1.27253(11)
N3B N 1.25412(14) 1.11789(7) 1.06712(11)
C1B C 1.15406(17) 1.17760(9) 1.00366(14)
H1B H 1.1137 1.2094 1.0642
H2B H 1.2112 1.2130 0.9591
C2B C 1.02506(17) 1.14287(8) 0.91401(13)
C3B C 1.34820(18) 1.15659(10) 1.16800(15)
H3B H 1.4126 1.1942 1.1365
H4B H 1.2869 1.1842 1.2180
H5B H 1.4078 1.1172 1.2168
C4B C 1.34681(19) 1.08200(10) 0.98741(15)
H6B H 1.4159 1.1211 0.9659
H7B H 1.4013 1.0380 1.0290
H8B H 1.2850 1.0630 0.9141
C5B C 1.0609(2) 1.13653(10) 0.78533(14)
H9B H 0.9767 1.1142 0.7320
H10B H 1.0823 1.1888 0.7564
H11B H 1.1464 1.1026 0.7856
C6B C 0.89545(18) 1.19891(9) 0.91186(16)
H12B H 0.8111 1.1790 0.8561
H13B H 0.8698 1.2028 0.9929
H14B H 0.9224 1.2508 0.8852
C7B C 1.15265(17) 1.04656(9) 1.34220(13)
C8B C 0.93205(18) 1.12708(10) 1.31989(14)
H15B H 0.9351 1.1151 1.4073
C9B C 0.77836(19) 1.11029(11) 1.25352(16)
H16B H 0.7551 1.0548 1.2628
H17B H 0.7074 1.1428 1.2872
H18B H 0.7736 1.1225 1.1678
C10B C 0.9701(2) 1.21345(10) 1.30678(19)
H19B H 1.0691 1.2236 1.3500
H20B H 0.9660 1.2261 1.2213
H21B H 0.8995 1.2461 1.3407
C11B C 1.18981(19) 1.06630(11) 1.47543(14)
H22B H 1.1885 1.0183 1.5231
H23B H 1.2876 1.0900 1.4919
H24B H 1.1173 1.1033 1.4972
C12B C 1.36750(17) 0.96323(9) 1.34699(14)
H25B H 1.4241 1.0029 1.4012
C13B C 1.3358(2) 0.89262(11) 1.42300(16)
H26B H 1.2761 0.9094 1.4829
H27B H 1.2827 0.8527 1.3706
H28B H 1.4285 0.8707 1.4641
C14B C 1.46044(18) 0.93704(10) 1.25376(15)
H29B H 1.4808 0.9822 1.2051
H30B H 1.5530 0.9150 1.2949
H31B H 1.4072 0.8971 1.2014
loop_
_geom_bond_atom_site_label_1
_geom_bond_atom_site_label_2
_geom_bond_site_symmetry_1
_geom_bond_site_symmetry_2
Mg1 O1 1_555 1_555
O1 C2 1_555 1_555
N1 Mg1 1_555 1_555
N2 Mg1 1_555 1_555
N3 Mg1 1_555 1_555
C1 N3 1_555 1_555
H1 C1 1_555 1_555
H2 C1 1_555 1_555
C2 C1 1_555 1_555
C3 N3 1_555 1_555
H3 C3 1_555 1_555
H4 C3 1_555 1_555
H5 C3 1_555 1_555
C4 N3 1_555 1_555
H6 C4 1_555 1_555
H7 C4 1_555 1_555
H8 C4 1_555 1_555
C5 C2 1_555 1_555
H9 C5 1_555 1_555
H10 C5 1_555 1_555
H11 C5 1_555 1_555
C6 C2 1_555 1_555
H12 C6 1_555 1_555
H13 C6 1_555 1_555
H14 C6 1_555 1_555
C7 N1 1_555 1_555
C8 N2 1_555 1_555
H15 C8 1_555 1_555
C9 C8 1_555 1_555
H16 C9 1_555 1_555
H17 C9 1_555 1_555
H18 C9 1_555 1_555
C10 C8 1_555 1_555
H19 C10 1_555 1_555
H20 C10 1_555 1_555
H21 C10 1_555 1_555
C11 C7 1_555 1_555
H22 C11 1_555 1_555
H23 C11 1_555 1_555
H24 C11 1_555 1_555
C12 N1 1_555 1_555
H25 C12 1_555 1_555
C13 C12 1_555 1_555
H26 C13 1_555 1_555
H27 C13 1_555 1_555
H28 C13 1_555 1_555
C14 C12 1_555 1_555
H29 C14 1_555 1_555
H30 C14 1_555 1_555
H31 C14 1_555 1_555
Mg1B O1 1_555 1_555
O1B Mg1 1_555 1_555
N1B Mg1B 1_555 1_555
N2B Mg1B 1_555 1_555
N3B Mg1B 1_555 1_555
C1B N3B 1_555 1_555
H1B C1B 1_555 1_555
H2B C1B 1_555 1_555
C2B O1B 1_555 1_555
C3B N3B 1_555 1_555
H3B C3B 1_555 1_555
H4B C3B 1_555 1_555
H5B C3B 1_555 1_555
C4B N3B 1_555 1_555
H6B C4B 1_555 1_555
H7B C4B 1_555 1_555
H8B C4B 1_555 1_555
C5B C2B 1_555 1_555
H9B C5B 1_555 1_555
H10B C5B 1_555 1_555
H11B C5B 1_555 1_555
C6B C2B 1_555 1_555
H12B C6B 1_555 1_555
H13B C6B 1_555 1_555
H14B C6B 1_555 1_555
C7B N1B 1_555 1_555
C8B N2B 1_555 1_555
H15B C8B 1_555 1_555
C9B C8B 1_555 1_555
H16B C9B 1_555 1_555
H17B C9B 1_555 1_555
H18B C9B 1_555 1_555
C10B C8B 1_555 1_555
H19B C10B 1_555 1_555
H20B C10B 1_555 1_555
H21B C10B 1_555 1_555
C11B C7B 1_555 1_555
H22B C11B 1_555 1_555
H23B C11B 1_555 1_555
H24B C11B 1_555 1_555
C12B N1B 1_555 1_555
H25B C12B 1_555 1_555
C13B C12B 1_555 1_555
H26B C13B 1_555 1_555
H27B C13B 1_555 1_555
H28B C13B 1_555 1_555
C14B C12B 1_555 1_555
H29B C14B 1_555 1_555
H30B C14B 1_555 1_555
H31B C14B 1_555 1_555
N2 C7 1_555 1_555
Mg1B O1B 1_555 1_555
N2B C7B 1_555 1_555
C1B C2B 1_555 1_555

#END
