
#######################################################################
#
#                 Cambridge Crystallographic Data Centre
#                                CCDC 
#
#######################################################################
#
# If this CIF has been generated from an entry in the Cambridge 
# Structural Database, then it will include bibliographic, chemical, 
# crystal, experimental, refinement or atomic coordinate data resulting 
# from the CCDC's data processing and validation procedures.
#
#######################################################################

data_XUVYOE
_chemical_formula_moiety         'C14 H14 O2'
_chemical_name_systematic        
9-hydroxy-2,9,10,10a-tetrahydrobenzo[f]azulen-4(1H)-one
_symmetry_cell_setting           monoclinic
_symmetry_space_group_name_H-M   'P 21/c'
_symmetry_Int_Tables_number      14
_space_group_name_Hall           '-P 2ybc'
loop_
_symmetry_equiv_pos_site_id
_symmetry_equiv_pos_as_xyz
1 x,y,z
2 -x,1/2+y,1/2-z
3 -x,-y,-z
4 x,1/2-y,1/2+z
_cell_length_a                   7.9979(4)
_cell_length_b                   7.4197(4)
_cell_length_c                   19.3497(9)
_cell_angle_alpha                90
_cell_angle_beta                 92.978(2)
_cell_angle_gamma                90
_cell_volume                     1146.7
_exptl_crystal_colour            white
_exptl_crystal_description       block
_cell_formula_units_Z            4
loop_
_atom_site_label
_atom_site_type_symbol
_atom_site_fract_x
_atom_site_fract_y
_atom_site_fract_z
O1 O 0.49846(15) 1.19170(14) 0.08648(6)
O2 O 0.66488(12) 0.76133(15) 0.04566(5)
H1 H 0.6206 0.7734 0.0068
C1 C 0.49650(17) 1.04092(18) 0.11259(7)
C2 C 0.62195(17) 0.98506(19) 0.16693(7)
C3 C 0.7560(2) 1.0807(2) 0.18807(8)
H2 H 0.7832 1.1925 0.1701
C4 C 0.8575(2) 0.9868(3) 0.24417(10)
H3 H 0.8833 1.0673 0.2828
H4 H 0.9613 0.9412 0.2271
C5 C 0.7449(2) 0.8330(3) 0.26540(8)
H5 H 0.6916 0.8626 0.3079
H6 H 0.8095 0.7233 0.2727
C6 C 0.61189(18) 0.8081(2) 0.20511(7)
H7 H 0.5010 0.7964 0.2239
C7 C 0.64470(19) 0.6450(2) 0.15904(8)
H8 H 0.7646 0.6337 0.1548
H9 H 0.6068 0.5374 0.1820
C8 C 0.56055(17) 0.65248(19) 0.08658(8)
H10 H 0.5565 0.5303 0.0673
C9 C 0.38377(17) 0.72850(19) 0.08453(7)
C10 C 0.24698(19) 0.6182(2) 0.06810(8)
H11 H 0.2637 0.4960 0.0602
C11 C 0.08579(19) 0.6878(3) 0.06337(9)
H12 H -0.0047 0.6115 0.0538
C12 C 0.05895(19) 0.8695(3) 0.07283(8)
H13 H -0.0492 0.9159 0.0696
C13 C 0.19399(18) 0.9822(2) 0.08721(8)
H14 H 0.1765 1.1053 0.0923
C14 C 0.35603(16) 0.91305(19) 0.09420(7)
loop_
_geom_bond_atom_site_label_1
_geom_bond_atom_site_label_2
_geom_bond_site_symmetry_1
_geom_bond_site_symmetry_2
O1 C1 1_555 1_555
O2 H1 1_555 1_555
C1 C2 1_555 1_555
C2 C3 1_555 1_555
C3 H2 1_555 1_555
C4 C3 1_555 1_555
H3 C4 1_555 1_555
H4 C4 1_555 1_555
C5 C4 1_555 1_555
H5 C5 1_555 1_555
H6 C5 1_555 1_555
C6 C2 1_555 1_555
H7 C6 1_555 1_555
C7 C6 1_555 1_555
H8 C7 1_555 1_555
H9 C7 1_555 1_555
C8 O2 1_555 1_555
H10 C8 1_555 1_555
C9 C8 1_555 1_555
C10 C9 1_555 1_555
H11 C10 1_555 1_555
C11 C10 1_555 1_555
H12 C11 1_555 1_555
C12 C11 1_555 1_555
H13 C12 1_555 1_555
C13 C12 1_555 1_555
H14 C13 1_555 1_555
C14 C1 1_555 1_555
C5 C6 1_555 1_555
C7 C8 1_555 1_555
C9 C14 1_555 1_555
C13 C14 1_555 1_555

#END
