
#######################################################################
#
#                 Cambridge Crystallographic Data Centre
#                                CCDC 
#
#######################################################################
#
# If this CIF has been generated from an entry in the Cambridge 
# Structural Database, then it will include bibliographic, chemical, 
# crystal, experimental, refinement or atomic coordinate data resulting 
# from the CCDC's data processing and validation procedures.
#
#######################################################################

data_XUVYUK
_chemical_formula_moiety         'C16 H12 F3 N1 O2 S1'
_chemical_name_systematic        
(3-(4-methylphenyl)-2-(2,2,2-trifluoroethoxy)-2H-aziren-2-yl)(2-thienyl)methanone
_symmetry_cell_setting           monoclinic
_symmetry_space_group_name_H-M   'P 21/c'
_symmetry_Int_Tables_number      14
_space_group_name_Hall           '-P 2ybc'
loop_
_symmetry_equiv_pos_site_id
_symmetry_equiv_pos_as_xyz
1 x,y,z
2 -x,1/2+y,1/2-z
3 -x,-y,-z
4 x,1/2-y,1/2+z
_cell_length_a                   8.891(4)
_cell_length_b                   16.505(7)
_cell_length_c                   10.648(5)
_cell_angle_alpha                90
_cell_angle_beta                 101.244(7)
_cell_angle_gamma                90
_cell_volume                     1532.56
_exptl_crystal_colour            colorless
_exptl_crystal_description       Prism
_cell_formula_units_Z            4
loop_
_atom_site_label
_atom_site_type_symbol
_atom_site_fract_x
_atom_site_fract_y
_atom_site_fract_z
F1 F 0.1361(4) 0.0961(2) 0.6897(3)
F2 F 0.0980(4) 0.0464(2) 0.8683(3)
F3 F 0.1888(4) -0.02881(18) 0.7348(3)
O1 O 0.3512(4) 0.14830(19) 0.8941(3)
O2 O 0.6301(4) 0.1208(2) 1.0283(3)
N1 N 0.4623(5) 0.2220(2) 0.7298(4)
C1 C 0.4285(5) 0.2739(3) 0.8076(4)
C2 C 0.3745(5) 0.3557(3) 0.8167(4)
C3 C 0.3327(5) 0.4028(3) 0.7072(5)
H1 H 0.3399 0.3811 0.6259
C4 C 0.2810(6) 0.4807(3) 0.7164(5)
H2 H 0.2500 0.5119 0.6409
C5 C 0.2734(5) 0.5148(3) 0.8362(5)
C6 C 0.3148(5) 0.4674(3) 0.9449(5)
H3 H 0.3091 0.4895 1.0262
C7 C 0.3648(5) 0.3877(3) 0.9369(5)
H4 H 0.3918 0.3555 1.0119
C8 C 0.2280(6) 0.6020(3) 0.8482(5)
H5 H 0.1703 0.6071 0.9173
H6 H 0.1639 0.6199 0.7674
H7 H 0.3203 0.6357 0.8675
C9 C 0.4708(5) 0.1967(3) 0.8695(4)
C10 C 0.3536(6) 0.0667(3) 0.8489(5)
H8 H 0.3906 0.0295 0.9213
H9 H 0.4231 0.0623 0.7870
C11 C 0.1931(6) 0.0452(3) 0.7856(5)
C12 C 0.6243(6) 0.1760(3) 0.9509(4)
C13 C 0.7653(5) 0.2200(3) 0.9377(4)
S1 S 0.9309(3) 0.18673(17) 1.0366(3)
C14 C 0.7885(12) 0.2816(7) 0.8585(11)
H10 H 0.7085 0.3076 0.7984
C15 C 0.9563(10) 0.3053(8) 0.8763(12)
H11 H 1.0009 0.3474 0.8327
C16 C 1.0307(12) 0.2538(7) 0.9678(10)
H12 H 1.1404 0.2558 0.9933
S2? S 0.7733(6) 0.2963(3) 0.8307(6)
C17? C 0.9030(13) 0.1989(12) 1.009(2)
H13? H 0.9154 0.1546 1.0686
C18? C 1.037(2) 0.2522(13) 0.988(2)
H14? H 1.1432 0.2520 1.0290
C19? C 0.9604(14) 0.2997(17) 0.893(2)
H15? H 1.0197 0.3392 0.8563
loop_
_geom_bond_atom_site_label_1
_geom_bond_atom_site_label_2
_geom_bond_site_symmetry_1
_geom_bond_site_symmetry_2
F1 C11 1_555 1_555
F2 C11 1_555 1_555
F3 C11 1_555 1_555
O1 C9 1_555 1_555
O2 C12 1_555 1_555
N1 C1 1_555 1_555
C1 C2 1_555 1_555
C2 C3 1_555 1_555
C3 H1 1_555 1_555
C4 C3 1_555 1_555
H2 C4 1_555 1_555
C5 C4 1_555 1_555
C6 C5 1_555 1_555
H3 C6 1_555 1_555
C7 C2 1_555 1_555
H4 C7 1_555 1_555
C8 C5 1_555 1_555
H5 C8 1_555 1_555
H6 C8 1_555 1_555
H7 C8 1_555 1_555
C9 N1 1_555 1_555
C10 O1 1_555 1_555
H8 C10 1_555 1_555
H9 C10 1_555 1_555
C11 C10 1_555 1_555
C12 C9 1_555 1_555
C13 C12 1_555 1_555
S1 C13 1_555 1_555
C14 C13 1_555 1_555
H10 C14 1_555 1_555
C15 C14 1_555 1_555
H11 C15 1_555 1_555
C16 S1 1_555 1_555
H12 C16 1_555 1_555
C1 C9 1_555 1_555
C6 C7 1_555 1_555
C15 C16 1_555 1_555

#END
