
#######################################################################
#
#                 Cambridge Crystallographic Data Centre
#                                CCDC 
#
#######################################################################
#
# If this CIF has been generated from an entry in the Cambridge 
# Structural Database, then it will include bibliographic, chemical, 
# crystal, experimental, refinement or atomic coordinate data resulting 
# from the CCDC's data processing and validation procedures.
#
#######################################################################

data_XUWCOJ
_chemical_formula_moiety         'C52 H72 S2 Si1'
_chemical_name_systematic        
trimethyl(3,7,11,15,19-penta-t-butyl-22-(2-t-butyl-1,3-dithiolan-2-yl)docosa-3,7,11,15,19-pentaene-1,5,9,13,17,21-hexayn-1-yl)silane
_symmetry_cell_setting           monoclinic
_symmetry_space_group_name_H-M   'P 21/c'
_symmetry_Int_Tables_number      14
_space_group_name_Hall           '-P 2ybc'
loop_
_symmetry_equiv_pos_site_id
_symmetry_equiv_pos_as_xyz
1 x,y,z
2 -x,1/2+y,1/2-z
3 -x,-y,-z
4 x,1/2-y,1/2+z
_cell_length_a                   41.33(10)
_cell_length_b                   10.25(2)
_cell_length_c                   11.98(6)
_cell_angle_alpha                90
_cell_angle_beta                 97.7(4)
_cell_angle_gamma                90
_cell_volume                     5029.36
_cell_formula_units_Z            4
loop_
_atom_site_label
_atom_site_type_symbol
_atom_site_fract_x
_atom_site_fract_y
_atom_site_fract_z
S1 S 0.43301(3) 0.36499(13) 0.64380(10)
S2 S 0.40758(3) 0.23228(15) 0.82857(10)
Si1 Si 0.03372(3) 0.13686(16) -0.25622(12)
C1 C 0.39031(14) 0.3526(7) 0.6283(5)
H1 H 0.3810 0.4417 0.6275
H2 H 0.3827 0.3123 0.5544
C2 C 0.37753(12) 0.2781(8) 0.7146(4)
H3 H 0.3671 0.1982 0.6802
H4 H 0.3604 0.3301 0.7445
C3 C 0.44053(10) 0.2259(5) 0.7400(4)
C4 C 0.43683(11) 0.1058(6) 0.6745(4)
C5 C 0.43115(11) 0.0107(6) 0.6184(4)
C6 C 0.42493(12) -0.1044(5) 0.5511(4)
H5 H 0.4415 -0.1693 0.5567
C7 C 0.39739(12) -0.1267(5) 0.4809(4)
C8 C 0.37244(13) -0.0314(6) 0.4705(3)
C9 C 0.35148(13) 0.0525(6) 0.4587(3)
C10 C 0.32831(12) 0.1550(5) 0.4420(4)
H6 H 0.3307 0.2258 0.4936
C11 C 0.30328(12) 0.1590(5) 0.3587(4)
C12 C 0.29873(11) 0.0529(6) 0.2822(4)
C13 C 0.29348(11) -0.0386(6) 0.2189(4)
C14 C 0.28594(13) -0.1479(5) 0.1473(4)
H7 H 0.3019 -0.2147 0.1468
C15 C 0.25741(13) -0.1615(5) 0.0803(4)
C16 C 0.23405(13) -0.0583(6) 0.0780(3)
C17 C 0.21476(14) 0.0318(6) 0.0742(4)
C18 C 0.19399(13) 0.1413(5) 0.0700(4)
H8 H 0.1993 0.2081 0.1243
C19 C 0.16734(12) 0.1573(5) -0.0053(4)
C20 C 0.15889(12) 0.0574(6) -0.0867(4)
C21 C 0.15082(12) -0.0291(6) -0.1520(4)
C22 C 0.14251(13) -0.1355(5) -0.2269(4)
H9 H 0.1588 -0.1995 -0.2334
C23 C 0.11313(13) -0.1509(5) -0.2890(4)
C24 C 0.08843(14) -0.0555(6) -0.2812(4)
C25 C 0.06675(14) 0.0224(6) -0.2746(4)
C26 C 0.47509(11) 0.2359(6) 0.8120(4)
C27 C 0.47786(13) 0.3593(5) 0.8843(4)
H10 H 0.4616 0.3563 0.9369
H11 H 0.4739 0.4360 0.8357
H12 H 0.4998 0.3645 0.9268
C28 C 0.48110(12) 0.1162(5) 0.8859(4)
H13 H 0.4649 0.1127 0.9386
H14 H 0.5031 0.1205 0.9283
H15 H 0.4792 0.0378 0.8387
C29 C 0.50095(12) 0.2399(6) 0.7304(4)
H16 H 0.5228 0.2468 0.7736
H17 H 0.4969 0.3155 0.6804
H18 H 0.4996 0.1599 0.6852
C30 C 0.39139(11) -0.2492(5) 0.4074(4)
C31 C 0.41926(13) -0.3447(5) 0.4280(4)
H19 H 0.4393 -0.3033 0.4103
H20 H 0.4144 -0.4215 0.3799
H21 H 0.4222 -0.3715 0.5072
C32 C 0.38641(14) -0.2096(6) 0.2839(4)
H22 H 0.4063 -0.1675 0.2651
H23 H 0.3680 -0.1486 0.2703
H24 H 0.3817 -0.2873 0.2368
C33 C 0.36007(13) -0.3162(5) 0.4347(4)
H25 H 0.3629 -0.3422 0.5141
H26 H 0.3557 -0.3936 0.3871
H27 H 0.3417 -0.2555 0.4202
C34 C 0.27894(11) 0.2712(5) 0.3394(4)
C35 C 0.28960(13) 0.3881(5) 0.4136(4)
H28 H 0.3109 0.4189 0.3970
H29 H 0.2913 0.3625 0.4930
H30 H 0.2735 0.4581 0.3985
C36 C 0.24558(11) 0.2226(5) 0.3647(4)
H31 H 0.2473 0.1953 0.4436
H32 H 0.2386 0.1484 0.3157
H33 H 0.2295 0.2930 0.3508
C37 C 0.27573(13) 0.3135(5) 0.2159(4)
H34 H 0.2969 0.3445 0.1985
H35 H 0.2597 0.3840 0.2027
H36 H 0.2686 0.2393 0.1673
C38 C 0.24795(12) -0.2773(5) 0.0043(4)
C39 C 0.27382(15) -0.3847(5) 0.0206(4)
H37 H 0.2771 -0.4121 0.0997
H38 H 0.2944 -0.3513 0.0000
H39 H 0.2665 -0.4593 -0.0273
C40 C 0.24331(14) -0.2324(6) -0.1188(4)
H40 H 0.2639 -0.1972 -0.1377
H41 H 0.2265 -0.1647 -0.1295
H42 H 0.2366 -0.3067 -0.1679
C41 C 0.21547(14) -0.3326(6) 0.0332(5)
H43 H 0.2182 -0.3600 0.1123
H44 H 0.2090 -0.4078 -0.0152
H45 H 0.1985 -0.2653 0.0209
C42 C 0.14549(11) 0.2773(5) -0.0110(4)
C43 C 0.15821(14) 0.3788(5) 0.0762(4)
H46 H 0.1590 0.3414 0.1518
H47 H 0.1436 0.4546 0.0693
H48 H 0.1802 0.4060 0.0639
C44 C 0.11118(12) 0.2346(6) 0.0092(4)
H49 H 0.1030 0.1684 -0.0465
H50 H 0.0965 0.3102 0.0019
H51 H 0.1121 0.1979 0.0851
C45 C 0.14397(14) 0.3374(6) -0.1278(4)
H52 H 0.1359 0.2724 -0.1848
H53 H 0.1658 0.3659 -0.1401
H54 H 0.1292 0.4125 -0.1338
C46 C 0.10435(12) -0.2641(6) -0.3686(4)
C47 C 0.13136(15) -0.3664(6) -0.3611(5)
H55 H 0.1510 -0.3277 -0.3847
H56 H 0.1242 -0.4400 -0.4104
H57 H 0.1362 -0.3972 -0.2832
C48 C 0.09768(16) -0.2148(6) -0.4885(4)
H58 H 0.0805 -0.1485 -0.4940
H59 H 0.0906 -0.2875 -0.5390
H60 H 0.1176 -0.1765 -0.5102
C49 C 0.07334(15) -0.3300(6) -0.3366(5)
H61 H 0.0556 -0.2660 -0.3410
H62 H 0.0778 -0.3639 -0.2596
H63 H 0.0669 -0.4020 -0.3887
C50 C 0.04887(15) 0.3060(6) -0.2664(5)
H64 H 0.0552 0.3202 -0.3415
H65 H 0.0679 0.3197 -0.2092
H66 H 0.0316 0.3676 -0.2539
C51 C 0.02140(13) 0.1030(7) -0.1166(4)
H67 H 0.0137 0.0128 -0.1142
H68 H 0.0038 0.1626 -0.1031
H69 H 0.0402 0.1157 -0.0583
C52 C -0.00105(14) 0.1101(7) -0.3686(4)
H70 H 0.0058 0.1294 -0.4421
H71 H -0.0192 0.1676 -0.3562
H72 H -0.0082 0.0190 -0.3671
loop_
_geom_bond_atom_site_label_1
_geom_bond_atom_site_label_2
_geom_bond_site_symmetry_1
_geom_bond_site_symmetry_2
S1 C1 1_555 1_555
S2 C2 1_555 1_555
Si1 C25 1_555 1_555
C1 H1 1_555 1_555
H2 C1 1_555 1_555
C2 C1 1_555 1_555
H3 C2 1_555 1_555
H4 C2 1_555 1_555
C3 S1 1_555 1_555
C4 C3 1_555 1_555
C5 C4 1_555 1_555
C6 C5 1_555 1_555
H5 C6 1_555 1_555
C7 C6 1_555 1_555
C8 C7 1_555 1_555
C9 C8 1_555 1_555
C10 C9 1_555 1_555
H6 C10 1_555 1_555
C11 C10 1_555 1_555
C12 C11 1_555 1_555
C13 C12 1_555 1_555
C14 C13 1_555 1_555
H7 C14 1_555 1_555
C15 C14 1_555 1_555
C16 C15 1_555 1_555
C17 C16 1_555 1_555
C18 C17 1_555 1_555
H8 C18 1_555 1_555
C19 C18 1_555 1_555
C20 C19 1_555 1_555
C21 C20 1_555 1_555
C22 C21 1_555 1_555
H9 C22 1_555 1_555
C23 C22 1_555 1_555
C24 C23 1_555 1_555
C25 C24 1_555 1_555
C26 C3 1_555 1_555
C27 C26 1_555 1_555
H10 C27 1_555 1_555
H11 C27 1_555 1_555
H12 C27 1_555 1_555
C28 C26 1_555 1_555
H13 C28 1_555 1_555
H14 C28 1_555 1_555
H15 C28 1_555 1_555
C29 C26 1_555 1_555
H16 C29 1_555 1_555
H17 C29 1_555 1_555
H18 C29 1_555 1_555
C30 C7 1_555 1_555
C31 C30 1_555 1_555
H19 C31 1_555 1_555
H20 C31 1_555 1_555
H21 C31 1_555 1_555
C32 C30 1_555 1_555
H22 C32 1_555 1_555
H23 C32 1_555 1_555
H24 C32 1_555 1_555
C33 C30 1_555 1_555
H25 C33 1_555 1_555
H26 C33 1_555 1_555
H27 C33 1_555 1_555
C34 C11 1_555 1_555
C35 C34 1_555 1_555
H28 C35 1_555 1_555
H29 C35 1_555 1_555
H30 C35 1_555 1_555
C36 C34 1_555 1_555
H31 C36 1_555 1_555
H32 C36 1_555 1_555
H33 C36 1_555 1_555
C37 C34 1_555 1_555
H34 C37 1_555 1_555
H35 C37 1_555 1_555
H36 C37 1_555 1_555
C38 C15 1_555 1_555
C39 C38 1_555 1_555
H37 C39 1_555 1_555
H38 C39 1_555 1_555
H39 C39 1_555 1_555
C40 C38 1_555 1_555
H40 C40 1_555 1_555
H41 C40 1_555 1_555
H42 C40 1_555 1_555
C41 C38 1_555 1_555
H43 C41 1_555 1_555
H44 C41 1_555 1_555
H45 C41 1_555 1_555
C42 C19 1_555 1_555
C43 C42 1_555 1_555
H46 C43 1_555 1_555
H47 C43 1_555 1_555
H48 C43 1_555 1_555
C44 C42 1_555 1_555
H49 C44 1_555 1_555
H50 C44 1_555 1_555
H51 C44 1_555 1_555
C45 C42 1_555 1_555
H52 C45 1_555 1_555
H53 C45 1_555 1_555
H54 C45 1_555 1_555
C46 C23 1_555 1_555
C47 C46 1_555 1_555
H55 C47 1_555 1_555
H56 C47 1_555 1_555
H57 C47 1_555 1_555
C48 C46 1_555 1_555
H58 C48 1_555 1_555
H59 C48 1_555 1_555
H60 C48 1_555 1_555
C49 C46 1_555 1_555
H61 C49 1_555 1_555
H62 C49 1_555 1_555
H63 C49 1_555 1_555
C50 Si1 1_555 1_555
H64 C50 1_555 1_555
H65 C50 1_555 1_555
H66 C50 1_555 1_555
C51 Si1 1_555 1_555
H67 C51 1_555 1_555
H68 C51 1_555 1_555
H69 C51 1_555 1_555
C52 Si1 1_555 1_555
H70 C52 1_555 1_555
H71 C52 1_555 1_555
H72 C52 1_555 1_555
S2 C3 1_555 1_555

#END
