
#######################################################################
#
#                 Cambridge Crystallographic Data Centre
#                                CCDC 
#
#######################################################################
#
# If this CIF has been generated from an entry in the Cambridge 
# Structural Database, then it will include bibliographic, chemical, 
# crystal, experimental, refinement or atomic coordinate data resulting 
# from the CCDC's data processing and validation procedures.
#
#######################################################################

data_XUWFEC
_chemical_name_common            'Icariin 2-methylpropan-1-ol solvate'
_chemical_formula_moiety         'C33 H40 O15,C4 H10 O1'
_chemical_name_systematic        
'5-hydroxy-2-(4-methoxyphenyl)-8-(3-methylbut-2-en-1-yl)-7-((3,4,5-trihydroxy-6-(hydroxymethyl)tetrahydro-2H-pyran-2-yl)oxy)-3-((3,4,5-trihydroxy-6-methyltetrahydro-2H-pyran-2-yl)oxy)-4H-chromen-4-one 2-methylpropan-1-ol solvate'
_symmetry_cell_setting           orthorhombic
_symmetry_space_group_name_H-M   'P 21 21 21'
_symmetry_Int_Tables_number      19
_space_group_name_Hall           'P 2ac 2ab'
loop_
_symmetry_equiv_pos_site_id
_symmetry_equiv_pos_as_xyz
1 x,y,z
2 1/2-x,-y,1/2+z
3 1/2+x,1/2-y,-z
4 -x,1/2+y,1/2-z
_cell_length_a                   9.8572(2)
_cell_length_b                   23.1109(4)
_cell_length_c                   31.8420(5)
_cell_angle_alpha                90
_cell_angle_beta                 90
_cell_angle_gamma                90
_cell_volume                     7253.89
_exptl_crystal_colour            yellow
_exptl_crystal_description       prism
_cell_formula_units_Z            8
loop_
_atom_site_label
_atom_site_type_symbol
_atom_site_fract_x
_atom_site_fract_y
_atom_site_fract_z
O1 O -0.0402(3) 0.16545(10) 0.70564(8)
O2 O 0.0446(3) -0.00694(11) 0.70924(9)
O3 O 0.1908(4) 0.01110(12) 0.77539(10)
H1 H 0.1613 -0.0069 0.7544
O4 O -0.3627(5) 0.25247(18) 0.54869(12)
O5 O -0.1156(3) 0.03606(11) 0.64441(7)
O6 O 0.0278(3) 0.04186(12) 0.58534(8)
O7 O -0.2450(3) 0.01326(14) 0.50886(8)
H2 H -0.2165 0.0176 0.4842
O8 O -0.2420(3) -0.09124(12) 0.55527(8)
H3 H -0.2017 -0.1190 0.5669
O9 O 0.0270(3) -0.08285(12) 0.58696(9)
H4 H -0.0012 -0.1161 0.5808
O10 O 0.1986(3) 0.20438(11) 0.82942(7)
O11 O 0.2689(3) 0.15595(10) 0.88834(7)
O12 O 0.2266(3) 0.11764(13) 0.97303(8)
H5 H 0.2367 0.1042 0.9973
O13 O 0.5284(3) 0.19200(12) 0.96747(8)
H6 H 0.5714 0.1619 0.9610
O14 O 0.4794(3) 0.30170(11) 0.92662(8)
H7 H 0.4911 0.2970 0.9525
O15 O 0.3813(3) 0.29358(11) 0.84370(7)
H8 H 0.4605 0.3054 0.8485
C1 C -0.0882(4) 0.12943(16) 0.67487(11)
C2 C -0.0615(4) 0.07173(16) 0.67499(11)
C3 C 0.0183(4) 0.04613(16) 0.70822(11)
C4 C 0.1546(5) 0.06690(16) 0.77272(12)
C5 C 0.1997(5) 0.10567(16) 0.80262(12)
H9 H 0.2558 0.0929 0.8250
C6 C 0.1623(4) 0.16376(16) 0.79973(11)
C7 C 0.0828(4) 0.18522(16) 0.76719(11)
C8 C 0.0391(4) 0.14462(16) 0.73779(11)
C9 C 0.0715(4) 0.08592(16) 0.73936(11)
C10 C -0.1642(4) 0.16251(17) 0.64302(11)
C11 C -0.1242(5) 0.21839(17) 0.63351(13)
H10 H -0.0519 0.2355 0.6488
C12 C -0.1877(5) 0.24992(19) 0.60201(14)
H11 H -0.1587 0.2881 0.5955
C13 C -0.2937(5) 0.2249(2) 0.58037(14)
C14 C -0.3407(5) 0.1701(2) 0.59048(14)
H12 H -0.4169 0.1542 0.5764
C15 C -0.2744(4) 0.13885(18) 0.62159(12)
H13 H -0.3046 0.1009 0.6284
C16 C 0.0525(4) 0.24937(16) 0.76330(11)
H14 H -0.0294 0.2550 0.7458
H15 H 0.0339 0.2656 0.7915
C17 C 0.1707(4) 0.28089(16) 0.74374(12)
H16 H 0.2179 0.2608 0.7222
C18 C 0.2169(4) 0.33363(17) 0.75307(12)
C19 C 0.1577(5) 0.37263(18) 0.78597(13)
H17 H 0.1066 0.4038 0.7724
H18 H 0.2309 0.3893 0.8029
H19 H 0.0968 0.3503 0.8041
C20 C 0.3316(5) 0.3599(2) 0.72878(16)
H20 H 0.4068 0.3685 0.7479
H21 H 0.3007 0.3957 0.7153
H22 H 0.3622 0.3326 0.7072
C21 C -0.3012(9) 0.3045(3) 0.5320(2)
H23 H -0.2894 0.3327 0.5547
H24 H -0.3599 0.3209 0.5103
H25 H -0.2126 0.2950 0.5199
C22 C -0.0176(4) 0.00711(16) 0.61862(11)
H26 H 0.0624 -0.0026 0.6366
C23 C -0.0732(5) 0.05349(18) 0.55345(12)
H27 H -0.1476 0.0770 0.5663
C24 C -0.1346(4) -0.00194(17) 0.53564(11)
H28 H -0.0647 -0.0244 0.5197
C25 C -0.1905(4) -0.03763(16) 0.57138(11)
H29 H -0.2665 -0.0159 0.5849
C26 C -0.0821(4) -0.04951(15) 0.60410(11)
H30 H -0.1228 -0.0702 0.6286
C27 C -0.0055(7) 0.0889(2) 0.52032(15)
H31 H 0.0105 0.1281 0.5310
H32 H -0.0638 0.0908 0.4954
H33 H 0.0814 0.0711 0.5128
C28 C 0.3101(4) 0.19455(15) 0.85648(10)
H34 H 0.3898 0.1790 0.8406
C29 C 0.3798(4) 0.14416(16) 0.91681(11)
H35 H 0.4591 0.1295 0.9003
C30 C 0.4202(4) 0.20024(16) 0.93888(10)
H36 H 0.3399 0.2143 0.9551
C31 C 0.4565(4) 0.24630(15) 0.90688(11)
H37 H 0.5406 0.2343 0.8916
C32 C 0.3420(4) 0.25343(16) 0.87556(10)
H38 H 0.2598 0.2684 0.8904
C33 C 0.3328(4) 0.09710(16) 0.94669(11)
H39 H 0.3002 0.0634 0.9304
H40 H 0.4101 0.0843 0.9642
O16 O 0.5048(3) 0.66614(11) 0.77855(7)
O17 O 0.4101(3) 0.49488(11) 0.77030(8)
O18 O 0.2442(4) 0.51876(12) 0.71047(9)
H41 H 0.2788 0.4993 0.7300
O19 O 0.8218(5) 0.74697(16) 0.93749(12)
O20 O 0.5873(3) 0.53182(11) 0.83274(8)
O21 O 0.4867(3) 0.52696(11) 0.89872(8)
O22 O 0.7440(3) 0.44210(13) 0.95541(8)
H42 H 0.8126 0.4345 0.9408
O23 O 0.6784(3) 0.36580(11) 0.88592(9)
H43 H 0.6156 0.3479 0.8981
O24 O 0.4082(3) 0.40801(11) 0.87380(8)
H44 H 0.4238 0.3723 0.8739
O25 O 0.2482(3) 0.71516(10) 0.66123(7)
O26 O 0.1978(3) 0.66318(10) 0.60246(7)
O27 O 0.2808(3) 0.61190(12) 0.52797(8)
H45 H 0.2750 0.6082 0.5018
O28 O -0.0224(3) 0.69159(12) 0.51158(8)
H46 H -0.0942 0.6778 0.5217
O29 O 0.0093(3) 0.80578(11) 0.55155(8)
H47 H -0.0048 0.7999 0.5259
O30 O 0.0724(3) 0.80371(11) 0.63666(8)
H48 H 0.1213 0.8334 0.6354
C34 C 0.5565(4) 0.62791(16) 0.80735(11)
C35 C 0.5290(4) 0.57038(16) 0.80475(11)
C36 C 0.4382(4) 0.54762(17) 0.77284(11)
C37 C 0.2858(4) 0.57443(16) 0.71343(11)
C38 C 0.2371(4) 0.61539(16) 0.68566(11)
H49 H 0.1734 0.6049 0.6646
C39 C 0.2834(4) 0.67304(15) 0.68903(11)
C40 C 0.3711(4) 0.69112(16) 0.72093(11)
C41 C 0.4174(4) 0.64788(16) 0.74792(11)
C42 C 0.3795(4) 0.58983(16) 0.74504(11)
C43 C 0.6322(4) 0.65981(17) 0.83989(12)
C44 C 0.5915(5) 0.71569(18) 0.84944(13)
H50 H 0.5208 0.7331 0.8336
C45 C 0.6527(5) 0.7469(2) 0.88198(14)
H51 H 0.6234 0.7850 0.8885
C46 C 0.7562(6) 0.7213(2) 0.90434(14)
C47 C 0.8038(5) 0.66662(19) 0.89323(13)
H52 H 0.8798 0.6506 0.9074
C48 C 0.7412(5) 0.63570(18) 0.86184(13)
H53 H 0.7720 0.5979 0.8551
C49 C 0.4094(4) 0.75305(15) 0.72781(10)
H54 H 0.3998 0.7745 0.7011
H55 H 0.5058 0.7552 0.7365
C50 C 0.3217(4) 0.78136(16) 0.76113(11)
H56 H 0.3105 0.7605 0.7866
C51 C 0.2595(4) 0.83164(16) 0.75865(12)
C52 C 0.2622(5) 0.87144(18) 0.72156(13)
H57 H 0.3154 0.9060 0.7284
H58 H 0.1693 0.8828 0.7144
H59 H 0.3036 0.8516 0.6976
C53 C 0.1752(5) 0.85373(19) 0.79495(14)
H60 H 0.0800 0.8565 0.7863
H61 H 0.2079 0.8920 0.8034
H62 H 0.1829 0.8270 0.8187
C54 C 0.4886(4) 0.50230(16) 0.85867(11)
H63 H 0.3970 0.5075 0.8457
C55 C 0.6056(4) 0.51699(17) 0.92405(11)
H64 H 0.6858 0.5347 0.9098
C56 C 0.6295(4) 0.45169(17) 0.92848(11)
H65 H 0.5476 0.4339 0.9417
C57 C 0.6483(4) 0.42582(16) 0.88533(11)
H66 H 0.7270 0.4459 0.8720
C58 C 0.5233(4) 0.43791(15) 0.85805(11)
H67 H 0.5416 0.4254 0.8285
C59 C 0.5826(5) 0.5475(2) 0.96508(13)
H68 H 0.5804 0.5894 0.9603
H69 H 0.6564 0.5381 0.9845
H70 H 0.4960 0.5350 0.9771
C60 C 0.1470(4) 0.70494(15) 0.63129(10)
H71 H 0.0619 0.6908 0.6450
C61 C 0.0989(4) 0.64895(15) 0.57084(10)
H72 H 0.0128 0.6370 0.5850
C62 C 0.0714(4) 0.70305(15) 0.54463(10)
H73 H 0.1591 0.7154 0.5316
C63 C 0.0230(4) 0.75176(16) 0.57275(10)
H74 H -0.0670 0.7408 0.5849
C64 C 0.1224(4) 0.76178(15) 0.60861(10)
H75 H 0.2103 0.7758 0.5967
C65 C 0.1535(4) 0.59841(16) 0.54673(11)
H76 H 0.1646 0.5650 0.5659
H77 H 0.0880 0.5874 0.5246
C66 C 0.7490(8) 0.7964(3) 0.95629(19)
H78 H 0.8023 0.8121 0.9796
H79 H 0.6605 0.7834 0.9667
H80 H 0.7358 0.8265 0.9350
O31 O 0.6767(4) 0.96240(19) 0.92680(10)
H81 H 0.7431 0.9601 0.9104
C67 C 0.5249(6) 0.9537(3) 0.86706(17)
H82 H 0.6069 0.9449 0.8497
C68 C 0.5705(7) 0.9888(3) 0.90677(19)
H83 H 0.5979 1.0283 0.8982
H84 H 0.4932 0.9924 0.9264
C69 C 0.4613(8) 0.8987(3) 0.8797(3)
H85 H 0.5268 0.8754 0.8955
H86 H 0.4327 0.8774 0.8546
H87 H 0.3821 0.9067 0.8974
C70 C 0.4326(7) 0.9934(3) 0.8422(2)
H88 H 0.4816 1.0289 0.8351
H89 H 0.3527 1.0030 0.8592
H90 H 0.4037 0.9739 0.8164
O32 O 0.8700(4) 0.99108(19) 0.86870(11)
H91 H 0.8367 1.0032 0.8460
C71 C 1.0013(8) 0.9674(4) 0.8610(2)
H92 H 1.0713 0.9959 0.8693
H93 H 1.0117 0.9597 0.8306
C72 C 1.0218(8) 0.9129(4) 0.8848(2)
H94 H 1.1129 0.8972 0.8769
C73 C 1.0201(9) 0.9207(4) 0.9295(2)
H95 H 1.0331 0.8833 0.9433
H96 H 0.9327 0.9372 0.9380
H97 H 1.0934 0.9471 0.9376
C74 C 0.9106(9) 0.8674(4) 0.8695(3)
H98 H 0.9159 0.8630 0.8389
H99 H 0.8201 0.8812 0.8773
H100 H 0.9276 0.8299 0.8829
loop_
_geom_bond_atom_site_label_1
_geom_bond_atom_site_label_2
_geom_bond_site_symmetry_1
_geom_bond_site_symmetry_2
O1 C1 1_555 1_555
O2 C3 1_555 1_555
O3 H1 1_555 1_555
O4 C13 1_555 1_555
O5 C2 1_555 1_555
O6 C22 1_555 1_555
O7 H2 1_555 1_555
O8 H3 1_555 1_555
O9 H4 1_555 1_555
O10 C6 1_555 1_555
O11 C28 1_555 1_555
O12 H5 1_555 1_555
O13 H6 1_555 1_555
O14 H7 1_555 1_555
O15 H8 1_555 1_555
C1 C2 1_555 1_555
C2 C3 1_555 1_555
C3 C9 1_555 1_555
C4 O3 1_555 1_555
C5 C4 1_555 1_555
H9 C5 1_555 1_555
C6 C5 1_555 1_555
C7 C6 1_555 1_555
C8 O1 1_555 1_555
C9 C4 1_555 1_555
C10 C1 1_555 1_555
C11 C10 1_555 1_555
H10 C11 1_555 1_555
C12 C11 1_555 1_555
H11 C12 1_555 1_555
C13 C12 1_555 1_555
C14 C13 1_555 1_555
H12 C14 1_555 1_555
C15 C10 1_555 1_555
H13 C15 1_555 1_555
C16 C7 1_555 1_555
H14 C16 1_555 1_555
H15 C16 1_555 1_555
C17 C16 1_555 1_555
H16 C17 1_555 1_555
C18 C17 1_555 1_555
C19 C18 1_555 1_555
H17 C19 1_555 1_555
H18 C19 1_555 1_555
H19 C19 1_555 1_555
C20 C18 1_555 1_555
H20 C20 1_555 1_555
H21 C20 1_555 1_555
H22 C20 1_555 1_555
C21 O4 1_555 1_555
H23 C21 1_555 1_555
H24 C21 1_555 1_555
H25 C21 1_555 1_555
C22 O5 1_555 1_555
H26 C22 1_555 1_555
C23 O6 1_555 1_555
H27 C23 1_555 1_555
C24 O7 1_555 1_555
H28 C24 1_555 1_555
C25 O8 1_555 1_555
H29 C25 1_555 1_555
C26 O9 1_555 1_555
H30 C26 1_555 1_555
C27 C23 1_555 1_555
H31 C27 1_555 1_555
H32 C27 1_555 1_555
H33 C27 1_555 1_555
C28 O10 1_555 1_555
H34 C28 1_555 1_555
C29 O11 1_555 1_555
H35 C29 1_555 1_555
C30 O13 1_555 1_555
H36 C30 1_555 1_555
C31 O14 1_555 1_555
H37 C31 1_555 1_555
C32 O15 1_555 1_555
H38 C32 1_555 1_555
C33 O12 1_555 1_555
H39 C33 1_555 1_555
H40 C33 1_555 1_555
O16 C34 1_555 1_555
O17 C36 1_555 1_555
O18 H41 1_555 1_555
O19 C46 1_555 1_555
O20 C35 1_555 1_555
O21 C54 1_555 1_555
O22 H42 1_555 1_555
O23 H43 1_555 1_555
O24 H44 1_555 1_555
O25 C39 1_555 1_555
O26 C60 1_555 1_555
O27 H45 1_555 1_555
O28 H46 1_555 1_555
O29 H47 1_555 1_555
O30 H48 1_555 1_555
C34 C35 1_555 1_555
C35 C36 1_555 1_555
C36 C42 1_555 1_555
C37 O18 1_555 1_555
C38 C37 1_555 1_555
H49 C38 1_555 1_555
C39 C38 1_555 1_555
C40 C39 1_555 1_555
C41 O16 1_555 1_555
C42 C37 1_555 1_555
C43 C34 1_555 1_555
C44 C43 1_555 1_555
H50 C44 1_555 1_555
C45 C44 1_555 1_555
H51 C45 1_555 1_555
C46 C45 1_555 1_555
C47 C46 1_555 1_555
H52 C47 1_555 1_555
C48 C43 1_555 1_555
H53 C48 1_555 1_555
C49 C40 1_555 1_555
H54 C49 1_555 1_555
H55 C49 1_555 1_555
C50 C49 1_555 1_555
H56 C50 1_555 1_555
C51 C50 1_555 1_555
C52 C51 1_555 1_555
H57 C52 1_555 1_555
H58 C52 1_555 1_555
H59 C52 1_555 1_555
C53 C51 1_555 1_555
H60 C53 1_555 1_555
H61 C53 1_555 1_555
H62 C53 1_555 1_555
C54 O20 1_555 1_555
H63 C54 1_555 1_555
C55 O21 1_555 1_555
H64 C55 1_555 1_555
C56 O22 1_555 1_555
H65 C56 1_555 1_555
C57 O23 1_555 1_555
H66 C57 1_555 1_555
C58 O24 1_555 1_555
H67 C58 1_555 1_555
C59 C55 1_555 1_555
H68 C59 1_555 1_555
H69 C59 1_555 1_555
H70 C59 1_555 1_555
C60 O25 1_555 1_555
H71 C60 1_555 1_555
C61 O26 1_555 1_555
H72 C61 1_555 1_555
C62 O28 1_555 1_555
H73 C62 1_555 1_555
C63 O29 1_555 1_555
H74 C63 1_555 1_555
C64 O30 1_555 1_555
H75 C64 1_555 1_555
C65 O27 1_555 1_555
H76 C65 1_555 1_555
H77 C65 1_555 1_555
C66 O19 1_555 1_555
H78 C66 1_555 1_555
H79 C66 1_555 1_555
H80 C66 1_555 1_555
O31 H81 1_555 1_555
C67 H82 1_555 1_555
C68 O31 1_555 1_555
H83 C68 1_555 1_555
H84 C68 1_555 1_555
C69 C67 1_555 1_555
H85 C69 1_555 1_555
H86 C69 1_555 1_555
H87 C69 1_555 1_555
C70 C67 1_555 1_555
H88 C70 1_555 1_555
H89 C70 1_555 1_555
H90 C70 1_555 1_555
O32 H91 1_555 1_555
C71 O32 1_555 1_555
H92 C71 1_555 1_555
H93 C71 1_555 1_555
C72 C71 1_555 1_555
H94 C72 1_555 1_555
C73 C72 1_555 1_555
H95 C73 1_555 1_555
H96 C73 1_555 1_555
H97 C73 1_555 1_555
C74 C72 1_555 1_555
H98 C74 1_555 1_555
H99 C74 1_555 1_555
H100 C74 1_555 1_555
C7 C8 1_555 1_555
C8 C9 1_555 1_555
C14 C15 1_555 1_555
C22 C26 1_555 1_555
C23 C24 1_555 1_555
C24 C25 1_555 1_555
C25 C26 1_555 1_555
C28 C32 1_555 1_555
C29 C30 1_555 1_555
C29 C33 1_555 1_555
C30 C31 1_555 1_555
C31 C32 1_555 1_555
C40 C41 1_555 1_555
C41 C42 1_555 1_555
C47 C48 1_555 1_555
C54 C58 1_555 1_555
C55 C56 1_555 1_555
C56 C57 1_555 1_555
C57 C58 1_555 1_555
C60 C64 1_555 1_555
C61 C62 1_555 1_555
C61 C65 1_555 1_555
C62 C63 1_555 1_555
C63 C64 1_555 1_555
C67 C68 1_555 1_555

#END
