
#######################################################################
#
#                 Cambridge Crystallographic Data Centre
#                                CCDC 
#
#######################################################################
#
# If this CIF has been generated from an entry in the Cambridge 
# Structural Database, then it will include bibliographic, chemical, 
# crystal, experimental, refinement or atomic coordinate data resulting 
# from the CCDC's data processing and validation procedures.
#
#######################################################################

data_XUWFAY
_chemical_name_common            'Icariin propan-2-ol solvate'
_chemical_formula_moiety         'C33 H40 O15,C3 H8 O1'
_chemical_name_systematic        
'5-hydroxy-2-(4-methoxyphenyl)-8-(3-methylbut-2-en-1-yl)-7-((3,4,5-trihydroxy-6-(hydroxymethyl)tetrahydro-2H-pyran-2-yl)oxy)-3-((3,4,5-trihydroxy-6-methyltetrahydro-2H-pyran-2-yl)oxy)-4H-chromen-4-one propan-2-ol solvate'
_symmetry_cell_setting           orthorhombic
_symmetry_space_group_name_H-M   'P 21 21 21'
_symmetry_Int_Tables_number      19
_space_group_name_Hall           'P 2ac 2ab'
loop_
_symmetry_equiv_pos_site_id
_symmetry_equiv_pos_as_xyz
1 x,y,z
2 1/2+x,1/2-y,-z
3 -x,1/2+y,1/2-z
4 1/2-x,-y,1/2+z
_cell_length_a                   9.8490(4)
_cell_length_b                   23.0547(10)
_cell_length_c                   31.6595(15)
_cell_angle_alpha                90
_cell_angle_beta                 90
_cell_angle_gamma                90
_cell_volume                     7188.79
_exptl_crystal_colour            yellow
_exptl_crystal_description       prism
_cell_formula_units_Z            8
loop_
_atom_site_label
_atom_site_type_symbol
_atom_site_fract_x
_atom_site_fract_y
_atom_site_fract_z
O1 O 1.1633(4) 0.4916(2) 0.13849(15)
H1 H 1.1801 0.5034 0.1624
C1 C 0.9348(10) 0.5177(4) 0.1518(4)
H2 H 0.9498 0.5255 0.1812
H3 H 0.8414 0.5074 0.1474
H4 H 0.9560 0.5517 0.1356
C2 C 0.9758(13) 0.4713(5) 0.0913(4)
H5 H 0.9668 0.5113 0.0836
H6 H 0.8893 0.4524 0.0890
H7 H 1.0397 0.4528 0.0728
C3 C 1.0273(8) 0.4668(4) 0.1376(3)
H8 H 1.0146 0.4295 0.1519
O2 O -0.3929(4) 0.27094(15) 0.05359(12)
O3 O 0.2025(2) 0.21814(10) 0.32470(7)
O4 O 0.2663(2) 0.16602(10) 0.38289(8)
O5 O 0.5151(3) 0.19584(11) 0.46658(8)
O6 O 0.2455(4) 0.02986(12) 0.26272(10)
H9 H 0.2171 0.0114 0.2425
O7 O 0.0847(3) 0.00858(10) 0.19898(9)
O8 O -0.0860(2) 0.04958(10) 0.13528(8)
O9 O 0.0638(2) 0.04987(11) 0.07695(8)
O10 O -0.1973(3) 0.02459(14) -0.00436(10)
H10 H -0.1613 0.0421 -0.0239
O11 O -0.2232(3) -0.07637(12) 0.04637(9)
O12 O 0.0433(2) -0.07443(11) 0.08052(9)
H11 H 0.0090 -0.1047 0.0721
O13 O 0.3779(2) 0.30851(11) 0.34676(8)
H12 H 0.325(4) 0.3031(16) 0.3307(13)
O14 O 0.4642(3) 0.30874(11) 0.43071(8)
O15 O 0.2166(3) 0.11855(12) 0.46510(9)
H13 H 0.1923 0.0905 0.4791
C4 C -0.4905(6) 0.2453(2) 0.02779(19)
H14 H -0.4477 0.2177 0.0094
H15 H -0.5343 0.2747 0.0111
H16 H -0.5568 0.2260 0.0450
C5 C -0.3215(5) 0.23510(19) 0.08073(15)
C6 C -0.3357(4) 0.17836(18) 0.08459(14)
H17 H -0.3992 0.1591 0.0680
C7 C -0.2575(4) 0.14728(17) 0.11294(13)
H18 H -0.2707 0.1075 0.1154
C8 C -0.1608(4) 0.17385(16) 0.13750(12)
C9 C -0.0745(4) 0.14149(16) 0.16808(12)
O16 O -0.0348(2) 0.17700(10) 0.20018(8)
C10 C 0.0508(4) 0.15793(16) 0.23134(11)
C11 C 0.0868(4) 0.19806(15) 0.26242(11)
C12 C 0.1767(4) 0.17801(15) 0.29341(12)
C13 C 0.3093(4) 0.20796(15) 0.35350(11)
H19 H 0.3909 0.1948 0.3386
C14 C 0.3732(4) 0.15229(15) 0.41284(11)
H20 H 0.4538 0.1401 0.3970
C15 C 0.3258(4) 0.10239(15) 0.43881(12)
H21 H 0.2973 0.0711 0.4203
H22 H 0.4002 0.0883 0.4561
C16 C 0.4085(3) 0.20644(14) 0.43767(11)
H23 H 0.3281 0.2178 0.4539
C17 C 0.0437(4) 0.26073(15) 0.26099(12)
H24 H 0.0239 0.2740 0.2894
H25 H -0.0386 0.2643 0.2444
C18 C 0.1532(4) 0.29828(16) 0.24196(13)
H26 H 0.1988 0.2823 0.2190
C19 C 0.1934(4) 0.35067(17) 0.25325(14)
C20 C 0.3073(6) 0.3808(2) 0.23020(19)
H27 H 0.3501 0.3540 0.2112
H28 H 0.3728 0.3946 0.2503
H29 H 0.2714 0.4129 0.2145
C21 C 0.1327(5) 0.38398(18) 0.28908(16)
H30 H 0.0836 0.4167 0.2782
H31 H 0.2037 0.3973 0.3075
H32 H 0.0719 0.3594 0.3046
C22 C 0.0983(4) 0.10114(15) 0.23049(12)
C23 C 0.1919(4) 0.08492(16) 0.26188(13)
C24 C 0.2278(4) 0.12269(16) 0.29367(13)
H33 H 0.2862 0.1108 0.3151
C25 C 0.0503(4) 0.06087(16) 0.19852(12)
C26 C -0.0365(4) 0.08478(15) 0.16661(12)
C27 C 0.0109(4) 0.01731(16) 0.11057(13)
H34 H 0.0862 0.0060 0.1290
C28 C -0.0267(4) 0.06315(17) 0.04228(14)
C29 C -0.0969(4) 0.00836(18) 0.02564(13)
H35 H -0.0296 -0.0168 0.0121
C30 C -0.1623(4) -0.02342(16) 0.06126(13)
H36 H -0.2339 0.0012 0.0731
C31 C -0.0603(3) -0.03686(15) 0.09593(12)
H37 H -0.1068 -0.0552 0.1198
C32 C -0.2260(5) 0.2634(2) 0.10599(16)
H38 H -0.2172 0.3035 0.1041
C33 C -0.1451(5) 0.23325(18) 0.13347(15)
H39 H -0.0799 0.2526 0.1494
C34 C 0.3355(3) 0.26462(14) 0.37559(11)
H40 H 0.2521 0.2773 0.3897
C35 C 0.4444(4) 0.25638(15) 0.40792(11)
H41 H 0.5291 0.2467 0.3933
C36 C 0.0606(6) 0.0914(2) 0.00850(16)
H42 H 0.1213 0.1187 0.0214
H43 H 0.0034 0.1112 -0.0114
H44 H 0.1122 0.0621 -0.0059
H45 H -0.090(5) 0.090(2) 0.0564(16)
H46 H -0.314(5) -0.078(2) 0.0649(16)
H47 H 0.464(5) 0.300(2) 0.4518(17)
O17 O -0.1196(5) 0.0360(3) 0.91011(14)
H48 H -0.1506 0.0030 0.9109
C37 C -0.0118(9) 0.0367(3) 0.8868(3)
H49 H 0.0504 0.0182 0.9069
C38 C 0.0059(9) -0.0043(3) 0.8517(3)
H50 H 0.1007 -0.0076 0.8451
H51 H -0.0425 0.0095 0.8274
H52 H -0.0287 -0.0416 0.8598
C39 C 0.0538(9) 0.0882(3) 0.8832(3)
H53 H 0.0001 0.1143 0.8665
H54 H 0.1401 0.0823 0.8698
H55 H 0.0675 0.1045 0.9108
O18 O 0.7865(2) 0.17084(10) 0.39275(7)
O19 O 0.7373(2) 0.22541(10) 0.33471(8)
O20 O 0.4321(2) 0.04906(10) 0.15235(8)
O21 O 0.5349(2) 0.03679(10) 0.08676(8)
O22 O 0.7047(3) 0.11615(12) 0.46694(10)
H56 H 0.6755 0.0875 0.4792
O23 O 0.6096(3) 0.01082(11) 0.21493(9)
O24 O 0.2736(2) -0.05073(11) 0.03430(8)
H57 H 0.2151 -0.0675 0.0481
O25 O 0.3391(2) -0.12159(10) 0.10795(9)
H58 H 0.3373 -0.1352 0.0840
O26 O 0.6094(2) -0.07920(10) 0.11763(8)
H59 H 0.5928 -0.1140 0.1192
O27 O 0.1290(6) 0.27342(18) 0.07075(16)
O28 O 0.7695(3) 0.03374(11) 0.27764(9)
H60 H 0.7379 0.0145 0.2582
O29 O 0.9087(3) 0.31314(11) 0.36294(8)
H61 H 0.9217 0.3429 0.3766
O30 O 0.9814(3) 0.30863(11) 0.44832(9)
H62 H 0.9607 0.3030 0.4731
O31 O 1.0121(3) 0.19164(11) 0.48358(8)
C40 C 0.8264(4) 0.10221(16) 0.44678(13)
H63 H 0.8107 0.0710 0.4268
H64 H 0.8916 0.0887 0.4675
C41 C 0.8841(4) 0.15411(15) 0.42379(11)
H65 H 0.9677 0.1423 0.4094
C42 C 0.8377(4) 0.21391(14) 0.36482(11)
H66 H 0.9217 0.2008 0.3513
C43 C 0.7077(4) 0.18419(15) 0.30451(12)
C44 C 0.6207(4) 0.20319(14) 0.27283(11)
C45 C 0.5844(4) 0.16151(15) 0.24344(11)
C46 C 0.6288(4) 0.10379(15) 0.24421(11)
C47 C 0.5771(4) 0.06334(16) 0.21371(12)
C48 C 0.4879(4) 0.08691(16) 0.18209(12)
C49 C 0.5293(4) 0.01631(15) 0.12852(12)
H67 H 0.6188 0.0221 0.1414
C50 C 0.4162(4) 0.02508(16) 0.06042(12)
H68 H 0.3374 0.0453 0.0723
C51 C 0.4469(5) 0.0496(2) 0.01794(14)
H69 H 0.4571 0.0909 0.0201
H70 H 0.3739 0.0408 -0.0011
H71 H 0.5296 0.0330 0.0074
C52 C 0.3890(3) -0.03973(16) 0.06056(12)
H72 H 0.4679 -0.0596 0.0484
C53 C 0.3677(3) -0.06173(14) 0.10571(12)
H73 H 0.2906 -0.0407 0.1179
C54 C 0.4946(3) -0.04699(15) 0.13178(12)
H74 H 0.4772 -0.0565 0.1615
C55 C 0.4513(4) 0.14337(16) 0.18176(12)
O32 O 0.4967(2) 0.18008(10) 0.21285(8)
C56 C 0.3670(4) 0.17723(16) 0.15225(13)
C57 C 0.2653(4) 0.15188(18) 0.12741(13)
H75 H 0.2489 0.1122 0.1290
C58 C 0.1892(5) 0.18649(19) 0.10038(15)
H76 H 0.1232 0.1695 0.0834
C59 C 0.2094(5) 0.2446(2) 0.09826(16)
C60 C 0.3092(5) 0.2692(2) 0.12258(16)
H77 H 0.3251 0.3089 0.1211
C61 C 0.3857(5) 0.23544(17) 0.14911(14)
H78 H 0.4526 0.2529 0.1655
C62 C 0.7193(4) 0.08816(16) 0.27592(12)
C63 C 0.7606(4) 0.12731(15) 0.30602(12)
H79 H 0.8220 0.1166 0.3269
C64 C 0.5752(4) 0.26518(14) 0.26868(11)
H80 H 0.5818 0.2842 0.2959
H81 H 0.4809 0.2661 0.2599
C65 C 0.6607(4) 0.29746(15) 0.23691(12)
H82 H 0.6749 0.2793 0.2111
C66 C 0.7178(4) 0.34911(17) 0.24199(13)
C67 C 0.8073(5) 0.3753(2) 0.20860(16)
H83 H 0.8933 0.3854 0.2208
H84 H 0.7648 0.4094 0.1974
H85 H 0.8210 0.3477 0.1863
C68 C 0.7033(5) 0.38569(19) 0.28057(16)
H86 H 0.6483 0.4189 0.2742
H87 H 0.7913 0.3982 0.2898
H88 H 0.6608 0.3634 0.3025
C69 C 0.8616(3) 0.26930(14) 0.38989(11)
H89 H 0.7756 0.2817 0.4026
C70 C 0.9621(4) 0.25655(14) 0.42476(11)
H90 H 1.0490 0.2459 0.4118
C71 C 0.9152(4) 0.20632(15) 0.45181(11)
H91 H 0.8309 0.2179 0.4659
C72 C 0.1536(8) 0.3330(3) 0.0661(2)
H92 H 0.1720 0.3498 0.0932
H93 H 0.0753 0.3513 0.0539
H94 H 0.2305 0.3387 0.0479
H95 H 1.085(5) 0.173(2) 0.4755(17)
loop_
_geom_bond_atom_site_label_1
_geom_bond_atom_site_label_2
_geom_bond_site_symmetry_1
_geom_bond_site_symmetry_2
O1 H1 1_555 1_555
C1 H2 1_555 1_555
H3 C1 1_555 1_555
H4 C1 1_555 1_555
C2 H5 1_555 1_555
H6 C2 1_555 1_555
H7 C2 1_555 1_555
C3 O1 1_555 1_555
H8 C3 1_555 1_555
O2 C4 1_555 1_555
O3 C12 1_555 1_555
O4 C13 1_555 1_555
O5 C16 1_555 1_555
O6 H9 1_555 1_555
O7 C25 1_555 1_555
O8 C26 1_555 1_555
O9 C27 1_555 1_555
O10 H10 1_555 1_555
O11 C30 1_555 1_555
O12 H11 1_555 1_555
O13 H12 1_555 1_555
O14 C35 1_555 1_555
O15 H13 1_555 1_555
C4 H14 1_555 1_555
H15 C4 1_555 1_555
H16 C4 1_555 1_555
C5 O2 1_555 1_555
C6 C5 1_555 1_555
H17 C6 1_555 1_555
C7 C6 1_555 1_555
H18 C7 1_555 1_555
C8 C7 1_555 1_555
C9 C8 1_555 1_555
O16 C9 1_555 1_555
C10 O16 1_555 1_555
C11 C10 1_555 1_555
C12 C11 1_555 1_555
C13 O3 1_555 1_555
H19 C13 1_555 1_555
C14 O4 1_555 1_555
H20 C14 1_555 1_555
C15 O15 1_555 1_555
H21 C15 1_555 1_555
H22 C15 1_555 1_555
C16 C14 1_555 1_555
H23 C16 1_555 1_555
C17 C11 1_555 1_555
H24 C17 1_555 1_555
H25 C17 1_555 1_555
C18 C17 1_555 1_555
H26 C18 1_555 1_555
C19 C18 1_555 1_555
C20 C19 1_555 1_555
H27 C20 1_555 1_555
H28 C20 1_555 1_555
H29 C20 1_555 1_555
C21 C19 1_555 1_555
H30 C21 1_555 1_555
H31 C21 1_555 1_555
H32 C21 1_555 1_555
C22 C10 1_555 1_555
C23 O6 1_555 1_555
C24 C12 1_555 1_555
H33 C24 1_555 1_555
C25 C22 1_555 1_555
C26 C9 1_555 1_555
C27 O8 1_555 1_555
H34 C27 1_555 1_555
C28 O9 1_555 1_555
C29 O10 1_555 1_555
H35 C29 1_555 1_555
C30 C29 1_555 1_555
H36 C30 1_555 1_555
C31 O12 1_555 1_555
H37 C31 1_555 1_555
C32 C5 1_555 1_555
H38 C32 1_555 1_555
C33 C8 1_555 1_555
H39 C33 1_555 1_555
C34 O13 1_555 1_555
H40 C34 1_555 1_555
C35 C16 1_555 1_555
H41 C35 1_555 1_555
C36 C28 1_555 1_555
H42 C36 1_555 1_555
H43 C36 1_555 1_555
H44 C36 1_555 1_555
H45 C28 1_555 1_555
H46 O11 1_555 1_555
H47 O14 1_555 1_555
O17 H48 1_555 1_555
C37 O17 1_555 1_555
H49 C37 1_555 1_555
C38 C37 1_555 1_555
H50 C38 1_555 1_555
H51 C38 1_555 1_555
H52 C38 1_555 1_555
C39 C37 1_555 1_555
H53 C39 1_555 1_555
H54 C39 1_555 1_555
H55 C39 1_555 1_555
O18 C41 1_555 1_555
O19 C42 1_555 1_555
O20 C48 1_555 1_555
O21 C49 1_555 1_555
O22 H56 1_555 1_555
O23 C47 1_555 1_555
O24 H57 1_555 1_555
O25 H58 1_555 1_555
O26 H59 1_555 1_555
O27 C59 1_555 1_555
O28 H60 1_555 1_555
O29 H61 1_555 1_555
O30 H62 1_555 1_555
O31 C71 1_555 1_555
C40 O22 1_555 1_555
H63 C40 1_555 1_555
H64 C40 1_555 1_555
C41 C40 1_555 1_555
H65 C41 1_555 1_555
C42 O18 1_555 1_555
H66 C42 1_555 1_555
C43 O19 1_555 1_555
C44 C43 1_555 1_555
C45 C44 1_555 1_555
C46 C45 1_555 1_555
C47 C46 1_555 1_555
C48 C47 1_555 1_555
C49 O20 1_555 1_555
H67 C49 1_555 1_555
C50 O21 1_555 1_555
H68 C50 1_555 1_555
C51 C50 1_555 1_555
H69 C51 1_555 1_555
H70 C51 1_555 1_555
H71 C51 1_555 1_555
C52 O24 1_555 1_555
H72 C52 1_555 1_555
C53 O25 1_555 1_555
H73 C53 1_555 1_555
C54 O26 1_555 1_555
H74 C54 1_555 1_555
C55 C48 1_555 1_555
O32 C45 1_555 1_555
C56 C55 1_555 1_555
C57 C56 1_555 1_555
H75 C57 1_555 1_555
C58 C57 1_555 1_555
H76 C58 1_555 1_555
C59 C58 1_555 1_555
C60 C59 1_555 1_555
H77 C60 1_555 1_555
C61 C56 1_555 1_555
H78 C61 1_555 1_555
C62 O28 1_555 1_555
C63 C43 1_555 1_555
H79 C63 1_555 1_555
C64 C44 1_555 1_555
H80 C64 1_555 1_555
H81 C64 1_555 1_555
C65 C64 1_555 1_555
H82 C65 1_555 1_555
C66 C65 1_555 1_555
C67 C66 1_555 1_555
H83 C67 1_555 1_555
H84 C67 1_555 1_555
H85 C67 1_555 1_555
C68 C66 1_555 1_555
H86 C68 1_555 1_555
H87 C68 1_555 1_555
H88 C68 1_555 1_555
C69 O29 1_555 1_555
H89 C69 1_555 1_555
C70 O30 1_555 1_555
H90 C70 1_555 1_555
C71 C41 1_555 1_555
H91 C71 1_555 1_555
C72 O27 1_555 1_555
H92 C72 1_555 1_555
H93 C72 1_555 1_555
H94 C72 1_555 1_555
H95 O31 1_555 1_555
C1 C3 1_555 1_555
C2 C3 1_555 1_555
C13 C34 1_555 1_555
C14 C15 1_555 1_555
C22 C23 1_555 1_555
C23 C24 1_555 1_555
C25 C26 1_555 1_555
C27 C31 1_555 1_555
C28 C29 1_555 1_555
C30 C31 1_555 1_555
C32 C33 1_555 1_555
C34 C35 1_555 1_555
C42 C69 1_555 1_555
C46 C62 1_555 1_555
C49 C54 1_555 1_555
C50 C52 1_555 1_555
C52 C53 1_555 1_555
C53 C54 1_555 1_555
C55 O32 1_555 1_555
C60 C61 1_555 1_555
C62 C63 1_555 1_555
C69 C70 1_555 1_555
C70 C71 1_555 1_555

#END
