
#######################################################################
#
#                 Cambridge Crystallographic Data Centre
#                                CCDC 
#
#######################################################################
#
# If this CIF has been generated from an entry in the Cambridge 
# Structural Database, then it will include bibliographic, chemical, 
# crystal, experimental, refinement or atomic coordinate data resulting 
# from the CCDC's data processing and validation procedures.
#
#######################################################################

data_XUWNOS
_chemical_formula_moiety         'C16 H14 N4,C1 H1 Cl3'
_chemical_name_systematic        
"6-n-Propylpyrazino(1',2':1,2)pyrimido(4,5-b)indole chloroform solvate"
_symmetry_cell_setting           monoclinic
_symmetry_space_group_name_H-M   'P 21/n'
_symmetry_Int_Tables_number      14
_space_group_name_Hall           '-P 2yn'
loop_
_symmetry_equiv_pos_site_id
_symmetry_equiv_pos_as_xyz
1 x,y,z
2 1/2-x,1/2+y,1/2-z
3 -x,-y,-z
4 1/2+x,1/2-y,1/2+z
_cell_length_a                   9.779(1)
_cell_length_b                   6.802(1)
_cell_length_c                   25.918(3)
_cell_angle_alpha                90
_cell_angle_beta                 96.14(1)
_cell_angle_gamma                90
_cell_volume                     1714.09
_exptl_crystal_colour            'dark red'
_exptl_crystal_description       needles
_cell_formula_units_Z            4
loop_
_atom_site_label
_atom_site_type_symbol
_atom_site_fract_x
_atom_site_fract_y
_atom_site_fract_z
N1 N 0.4274(3) 0.2740(5) -0.0936(1)
N2 N 0.6167(3) 0.2819(5) -0.0281(1)
N3 N 0.8441(4) 0.2768(6) 0.0901(2)
N4 N 0.5600(3) 0.2335(5) 0.0590(1)
C1 C 0.2864(4) 0.2505(6) -0.0914(1)
C2 C 0.1852(4) 0.2550(7) -0.1336(2)
C3 C 0.0510(4) 0.2347(7) -0.1239(2)
C4 C 0.0140(4) 0.2131(7) -0.0741(2)
C5 C 0.1126(4) 0.2060(6) -0.0318(2)
C6 C 0.2502(4) 0.2231(6) -0.0403(1)
C7 C 0.3800(4) 0.2289(6) -0.0080(1)
C8 C 0.4196(4) 0.2072(6) 0.0433(1)
C9 C 0.6141(5) 0.2238(7) 0.1110(2)
C10 C 0.7499(5) 0.2429(8) 0.1244(2)
C11 C 0.7934(4) 0.2891(7) 0.0420(2)
C12 C 0.6517(4) 0.2680(6) 0.0221(2)
C13 C 0.4821(4) 0.2628(6) -0.0443(1)
C14 C 0.3237(4) 0.1606(6) 0.0830(2)
C15 C 0.2714(5) 0.3433(7) 0.1096(2)
C16 C 0.1810(4) 0.2846(7) 0.1511(2)
H1 H 0.2081(4) 0.2714(7) -0.1673(2)
H2 H -0.0176(4) 0.2353(7) -0.1517(2)
H3 H -0.0785(4) 0.2032(7) -0.0690(2)
H4 H 0.0876(4) 0.1901(6) 0.0015(2)
H5 H 0.5556(5) 0.2040(7) 0.1366(2)
H6 H 0.7820(5) 0.2324(8) 0.1594(2)
H7 H 0.8552(4) 0.3143(7) 0.0179(2)
H8 H 0.3707(4) 0.0756(6) 0.1093(2)
H9 H 0.2454(4) 0.0888(6) 0.0663(2)
H10 H 0.3491(5) 0.4191(7) 0.1252(2)
H11 H 0.2193(5) 0.4255(7) 0.0840(2)
H12 H 0.1478(21) 0.4006(7) 0.1668(7)
H13 H 0.2335(9) 0.2071(33) 0.1771(6)
H14 H 0.1044(15) 0.2089(33) 0.1357(2)
C17 C 0.4818(4) -0.2596(7) 0.2063(2)
Cl1 Cl 0.5720(2) -0.0587(3) 0.2357(1)
Cl2 Cl 0.5292(2) -0.4757(3) 0.2400(1)
Cl3 Cl 0.3061(1) -0.2205(2) 0.2047(1)
H15 H 0.5051(4) -0.2723(7) 0.1706(2)
loop_
_geom_bond_atom_site_label_1
_geom_bond_atom_site_label_2
_geom_bond_site_symmetry_1
_geom_bond_site_symmetry_2
N1 C1 1_555 1_555
N2 C12 1_555 1_555
N3 C10 1_555 1_555
N4 C8 1_555 1_555
C1 C2 1_555 1_555
C2 C3 1_555 1_555
C3 C4 1_555 1_555
C4 C5 1_555 1_555
C5 C6 1_555 1_555
C6 C1 1_555 1_555
C7 C6 1_555 1_555
C8 C7 1_555 1_555
C9 N4 1_555 1_555
C10 C9 1_555 1_555
C11 N3 1_555 1_555
C12 N4 1_555 1_555
C13 N1 1_555 1_555
C14 C8 1_555 1_555
C15 C14 1_555 1_555
C16 C15 1_555 1_555
C17 Cl1 1_555 1_555
Cl2 C17 1_555 1_555
Cl3 C17 1_555 1_555
H1 C2 1_555 1_555
H2 C3 1_555 1_555
H3 C4 1_555 1_555
H4 C5 1_555 1_555
H5 C9 1_555 1_555
H6 C10 1_555 1_555
H7 C11 1_555 1_555
H8 C14 1_555 1_555
H9 C14 1_555 1_555
H10 C15 1_555 1_555
H11 C15 1_555 1_555
H12 C16 1_555 1_555
H13 C16 1_555 1_555
H14 C16 1_555 1_555
H15 C17 1_555 1_555
N2 C13 1_555 1_555
C7 C13 1_555 1_555
C11 C12 1_555 1_555

#END
