
#######################################################################
#
#                 Cambridge Crystallographic Data Centre
#                                CCDC 
#
#######################################################################
#
# If this CIF has been generated from an entry in the Cambridge 
# Structural Database, then it will include bibliographic, chemical, 
# crystal, experimental, refinement or atomic coordinate data resulting 
# from the CCDC's data processing and validation procedures.
#
#######################################################################

data_XUWNIM
_chemical_formula_moiety         'C21 H16 N3 1+,I1 1-,0.5(C1 H2 Cl2)'
_chemical_name_systematic        
"5-Methyl-12-phenyl-5H-pyrido(1',2':1,2)pyrimido(4,5-b)indol-11-ium iodide dichloromethane solvate"
_symmetry_cell_setting           monoclinic
_symmetry_space_group_name_H-M   'C 2/m'
_symmetry_Int_Tables_number      12
_space_group_name_Hall           '-C 2y'
loop_
_symmetry_equiv_pos_site_id
_symmetry_equiv_pos_as_xyz
1 x,y,z
2 -x,y,-z
3 1/2+x,1/2+y,z
4 1/2-x,1/2+y,-z
5 -x,-y,-z
6 x,-y,z
7 1/2-x,1/2-y,-z
8 1/2+x,1/2-y,z
_cell_length_a                   18.394(3)
_cell_length_b                   7.146(1)
_cell_length_c                   16.020(2)
_cell_angle_alpha                90
_cell_angle_beta                 96.11(1)
_cell_angle_gamma                90
_cell_volume                     2093.76
_exptl_crystal_colour            yellow
_exptl_crystal_description       needles
_chemical_melting_point          312-313deg.C
_cell_formula_units_Z            4
loop_
_atom_site_label
_atom_site_type_symbol
_atom_site_fract_x
_atom_site_fract_y
_atom_site_fract_z
N1 N 0.7005(3) 0.5000 0.5935(3)
N2 N 0.8098(3) 0.5000 0.8234(3)
N3 N 0.6931(3) 0.5000 0.7409(3)
C1 C 0.7574(4) 0.5000 0.5412(4)
C2 C 0.7526(5) 0.5000 0.4536(5)
C3 C 0.8166(5) 0.5000 0.4193(5)
C4 C 0.8827(5) 0.5000 0.4658(5)
C5 C 0.8876(4) 0.5000 0.5524(4)
C6 C 0.8247(4) 0.5000 0.5907(4)
C7 C 0.8073(3) 0.5000 0.6772(4)
C8 C 0.8488(3) 0.5000 0.7531(4)
C9 C 0.8475(4) 0.5000 0.9013(4)
C10 C 0.8125(4) 0.5000 0.9704(5)
C11 C 0.7361(5) 0.5000 0.9644(4)
C12 C 0.6991(4) 0.5000 0.8885(5)
C13 C 0.7322(3) 0.5000 0.8143(4)
C14 C 0.7297(3) 0.5000 0.6749(4)
C15 C 0.6223(4) 0.5000 0.5652(5)
C16 C 0.9291(3) 0.5000 0.7620(4)
C17 C 0.9671(3) 0.6655(10) 0.7639(4)
C18 C 1.0428(3) 0.6615(12) 0.7678(4)
C19 C 1.0796(4) 0.5000 0.7686(5)
H1 H 0.7078(5) 0.5000 0.4207(5)
H2 H 0.8153(5) 0.5000 0.3612(5)
H3 H 0.9252(5) 0.5000 0.4391(5)
H4 H 0.9329(4) 0.5000 0.5841(4)
H5 H 0.8984(4) 0.5000 0.9065(4)
H6 H 0.8392(4) 0.5000 1.0231(5)
H7 H 0.7118(5) 0.5000 1.0123(4)
H8 H 0.6483(4) 0.5000 0.8848(5)
H9 H 0.6153(4) 0.5000 0.5050(5)
H10 H 0.6001(4) 0.6097 0.5861(5)
H11 H 0.6001(4) 0.3903 0.5861(5)
H12 H 0.9423(3) 0.7791(10) 0.7626(4)
H13 H 1.0685(3) 0.7738(12) 0.7698(4)
H14 H 1.1311 0.5000 0.7772
C18E C 1.0428(3) 0.3385(12) 0.7678(4)
C17E C 0.9671(3) 0.3345(10) 0.7639(4)
H12E H 0.9423(3) 0.2209(10) 0.7626(4)
H13E H 1.0685(3) 0.2262(12) 0.7698(4)
Cl1 Cl 0.0000 0.8101(7) 0.0000
C20 C 0.0270(13) 1.0000 0.0478(10)
H15 H 0.0800(13) 1.0000 0.0559(10)
H16 H 0.0097(13) 1.0000 0.1029(10)
Cl1D Cl 0.0000 1.1899(7) 0.0000
C20D C -0.0270(13) 1.0000 -0.0478(10)
H15D H -0.0800(13) 1.0000 -0.0559(10)
H16D H -0.0097(13) 1.0000 -0.1029(10)
I1 I 0.1999(1) 0.0000 0.2004(1)
loop_
_geom_bond_atom_site_label_1
_geom_bond_atom_site_label_2
_geom_bond_site_symmetry_1
_geom_bond_site_symmetry_2
N1 C1 1_555 1_555
N2 C8 1_555 1_555
N3 C13 1_555 1_555
C1 C2 1_555 1_555
C2 C3 1_555 1_555
C3 C4 1_555 1_555
C4 C5 1_555 1_555
C5 C6 1_555 1_555
C6 C1 1_555 1_555
C7 C6 1_555 1_555
C8 C7 1_555 1_555
C9 N2 1_555 1_555
C10 C9 1_555 1_555
C11 C10 1_555 1_555
C12 C11 1_555 1_555
C13 N2 1_555 1_555
C14 N1 1_555 1_555
C15 N1 1_555 1_555
C16 C8 1_555 1_555
C17 C16 1_555 1_555
C18 C17 1_555 1_555
C19 C18 1_555 1_555
Cl1 C20 1_555 1_555
C20 H15 1_555 1_555
H1 C2 1_555 1_555
H2 C3 1_555 1_555
H3 C4 1_555 1_555
H4 C5 1_555 1_555
H5 C9 1_555 1_555
H6 C10 1_555 1_555
H7 C11 1_555 1_555
H8 C12 1_555 1_555
H9 C15 1_555 1_555
H10 C15 1_555 1_555
H11 C15 1_555 1_555
H12 C17 1_555 1_555
H13 C18 1_555 1_555
H14 C19 1_555 1_555
H16 C20 1_555 1_555
C18E C19 1_555 1_555
C17E C16 1_555 1_555
H12E C17E 1_555 1_555
H13E C18E 1_555 1_555
Cl1D C20 1_555 1_555
C20D Cl1 1_555 1_555
H15D C20D 1_555 1_555
H16D C20D 1_555 1_555
N3 C14 1_555 1_555
C7 C14 1_555 1_555
C12 C13 1_555 1_555
C20 C20D 1_555 1_555
C18E C17E 1_555 1_555
Cl1D C20D 1_555 1_555

#END
