
#######################################################################
#
#                 Cambridge Crystallographic Data Centre
#                                CCDC 
#
#######################################################################
#
# If this CIF has been generated from an entry in the Cambridge 
# Structural Database, then it will include bibliographic, chemical, 
# crystal, experimental, refinement or atomic coordinate data resulting 
# from the CCDC's data processing and validation procedures.
#
#######################################################################

data_XUWPUA
_chemical_formula_moiety         'C21 H18 N3 1+,I3 1-'
_chemical_name_systematic        
"8-(n-Propyl)-13H-isoquinolino(2',1':1,2)pyrimido(4,5-b)indol-7-ium tri-iodide"
_symmetry_cell_setting           triclinic
_symmetry_space_group_name_H-M   'P -1'
_symmetry_Int_Tables_number      2
_space_group_name_Hall           '-P 1'
loop_
_symmetry_equiv_pos_site_id
_symmetry_equiv_pos_as_xyz
1 x,y,z
2 -x,-y,-z
_cell_length_a                   8.9958(5)
_cell_length_b                   10.5068(6)
_cell_length_c                   13.5780(8)
_cell_angle_alpha                108.204(1)
_cell_angle_beta                 102.528(1)
_cell_angle_gamma                104.390(1)
_cell_volume                     1118.73
_cell_formula_units_Z            2
loop_
_atom_site_label
_atom_site_type_symbol
_atom_site_fract_x
_atom_site_fract_y
_atom_site_fract_z
I1 I -0.1783(1) 0.1276(1) -0.0385(1)
I2 I 0.0619(1) 0.2743(1) 0.1874(1)
I3 I 0.2872(1) 0.4136(1) 0.4034(1)
N1 N 0.0652(5) 0.3806(4) 0.8877(4)
N2 N 0.4895(4) 0.6917(4) 0.9827(3)
N3 N 0.3006(4) 0.5448(4) 1.0344(3)
C1 C 0.0085(5) 0.3441(5) 0.7764(4)
C2 C -0.1354(6) 0.2396(6) 0.7015(5)
C3 C -0.1638(7) 0.2235(7) 0.5926(5)
C4 C -0.0559(7) 0.3080(7) 0.5602(5)
C5 C 0.0865(6) 0.4128(6) 0.6354(4)
C6 C 0.1191(5) 0.4307(5) 0.7447(4)
C7 C 0.2518(5) 0.5229(5) 0.8447(4)
C8 C 0.3947(5) 0.6270(4) 0.8716(4)
C9 C 0.6386(5) 0.8018(5) 1.0164(5)
C10 C 0.7330(5) 0.8661(5) 1.1213(5)
C11 C 0.6886(6) 0.8279(5) 1.2033(4)
C12 C 0.7858(7) 0.8940(6) 1.3140(5)
C13 C 0.7367(8) 0.8526(7) 1.3903(5)
C14 C 0.5896(8) 0.7466(7) 1.3616(5)
C15 C 0.4913(6) 0.6782(6) 1.2541(4)
C16 C 0.5407(5) 0.7186(5) 1.1733(4)
C17 C 0.4378(5) 0.6481(5) 1.0603(4)
C18 C 0.2080(5) 0.4850(4) 0.9299(4)
C19 C 0.4519(5) 0.6758(5) 0.7898(4)
C20 C 0.4037(5) 0.8022(5) 0.7794(4)
C21 C 0.4594(6) 0.8459(6) 0.6941(4)
H1 H -0.2085 0.1835 0.7231
H2 H -0.2580 0.1541 0.5400
H3 H -0.0795 0.2941 0.4867
H4 H 0.1582 0.4694 0.6133
H5 H 0.6727 0.8307 0.9644
H6 H 0.8309 0.9382 1.1400
H7 H 0.8842 0.9664 1.3349
H8 H 0.8029 0.8961 1.4630
H9 H 0.5568 0.7213 1.4153
H10 H 0.3934 0.6060 1.2350
H11 H 0.4071 0.5971 0.7189
H12 H 0.5690 0.7029 0.8110
H13 H 0.2869 0.7763 0.7598
H14 H 0.4512 0.8823 0.8495
H15 H 0.4377 0.9311 0.6949
H16 H 0.4024 0.7709 0.6232
H17 H 0.5737 0.8634 0.7099
H18 H 0.0350(50) 0.3540(50) 0.9230(40)
loop_
_geom_bond_atom_site_label_1
_geom_bond_atom_site_label_2
_geom_bond_site_symmetry_1
_geom_bond_site_symmetry_2
I1 I2 1_555 1_555
I2 I3 1_555 1_555
N1 C1 1_555 1_555
N2 C8 1_555 1_555
N3 C17 1_555 1_555
C1 C2 1_555 1_555
C2 C3 1_555 1_555
C3 C4 1_555 1_555
C4 C5 1_555 1_555
C5 C6 1_555 1_555
C6 C1 1_555 1_555
C7 C6 1_555 1_555
C8 C7 1_555 1_555
C9 N2 1_555 1_555
C10 C9 1_555 1_555
C11 C10 1_555 1_555
C12 C11 1_555 1_555
C13 C12 1_555 1_555
C14 C13 1_555 1_555
C15 C14 1_555 1_555
C16 C11 1_555 1_555
C17 N2 1_555 1_555
C18 N1 1_555 1_555
C19 C8 1_555 1_555
C20 C19 1_555 1_555
C21 C20 1_555 1_555
H1 C2 1_555 1_555
H2 C3 1_555 1_555
H3 C4 1_555 1_555
H4 C5 1_555 1_555
H5 C9 1_555 1_555
H6 C10 1_555 1_555
H7 C12 1_555 1_555
H8 C13 1_555 1_555
H9 C14 1_555 1_555
H10 C15 1_555 1_555
H11 C19 1_555 1_555
H12 C19 1_555 1_555
H13 C20 1_555 1_555
H14 C20 1_555 1_555
H15 C21 1_555 1_555
H16 C21 1_555 1_555
H17 C21 1_555 1_555
H18 N1 1_555 1_555
N3 C18 1_555 1_555
C7 C18 1_555 1_555
C15 C16 1_555 1_555
C16 C17 1_555 1_555

#END
