
#######################################################################
#
#                 Cambridge Crystallographic Data Centre
#                                CCDC 
#
#######################################################################
#
# If this CIF has been generated from an entry in the Cambridge 
# Structural Database, then it will include bibliographic, chemical, 
# crystal, experimental, refinement or atomic coordinate data resulting 
# from the CCDC's data processing and validation procedures.
#
#######################################################################

data_XUWPAG
_chemical_formula_moiety         'C19 H12 N4'
_chemical_name_systematic        
6-Phenylpyrimido(6',1':2,3)pyrimido(4,5-b)indole
_symmetry_cell_setting           monoclinic
_symmetry_space_group_name_H-M   'C 2/c'
_symmetry_Int_Tables_number      15
_space_group_name_Hall           '-C 2yn'
loop_
_symmetry_equiv_pos_site_id
_symmetry_equiv_pos_as_xyz
1 x,y,z
2 -x,y,1/2-z
3 1/2+x,1/2+y,z
4 1/2-x,1/2+y,1/2-z
5 -x,-y,-z
6 x,-y,1/2+z
7 1/2-x,1/2-y,-z
8 1/2+x,1/2-y,1/2+z
_cell_length_a                   16.624(1)
_cell_length_b                   7.0045(7)
_cell_length_c                   24.560(3)
_cell_angle_alpha                90
_cell_angle_beta                 99.06(1)
_cell_angle_gamma                90
_cell_volume                     2824.16
_exptl_crystal_colour            yellow
_cell_formula_units_Z            8
_exptl_crystal_recrystallization_method chloroform
loop_
_atom_site_label
_atom_site_type_symbol
_atom_site_fract_x
_atom_site_fract_y
_atom_site_fract_z
N1 N 0.1327(1) -0.0435(3) -0.0088(1)
N2 N 0.3647(1) -0.0096(3) -0.0440(1)
N3 N 0.3200(1) 0.1142(3) 0.1136(1)
N4 N 0.2736(1) 0.0233(2) 0.0215(1)
C1 C 0.0906(1) -0.0994(3) -0.0605(1)
C2 C 0.0075(1) -0.1386(3) -0.0727(1)
C3 C -0.0232(1) -0.1966(4) -0.1254(1)
C4 C 0.0264(1) -0.2165(4) -0.1655(1)
C5 C 0.1088(1) -0.1752(3) -0.1543(1)
C6 C 0.1418(1) -0.1171(3) -0.1012(1)
C7 C 0.2223(1) -0.0680(3) -0.0729(1)
C8 C 0.3010(1) -0.0561(3) -0.0839(1)
C9 C 0.3507(1) 0.0288(3) 0.0065(1)
C10 C 0.4142(1) 0.0819(3) 0.0494(1)
C11 C 0.3969(1) 0.1226(3) 0.0999(1)
C12 C 0.2627(1) 0.0647(3) 0.0749(1)
C13 C 0.2076(1) -0.0277(3) -0.0180(1)
C14 C 0.3229(1) -0.0919(3) -0.1394(1)
C15 C 0.3846(1) -0.2192(4) -0.1456(1)
C16 C 0.4056(1) -0.2502(4) -0.1971(1)
C17 C 0.3671(2) -0.1521(4) -0.2421(1)
C18 C 0.30592 -0.02434 -0.23641
C19 C 0.2836(1) 0.0054(3) -0.1853(1)
H1 H -0.0262(1) -0.1260(3) -0.0461(1)
H2 H -0.0785(1) -0.2231(4) -0.1344(1)
H3 H 0.0038(1) -0.2583(4) -0.2005(1)
H4 H 0.1414(1) -0.1861(3) -0.1817(1)
H5 H 0.4676(1) 0.0887(3) 0.0427(1)
H6 H 0.4396(1) 0.1585(3) 0.1271(1)
H7 H 0.2103(1) 0.0560(3) 0.0834(1)
H8 H 0.4118(1) -0.2838(4) -0.1150(1)
H9 H 0.4462(1) -0.3380(4) -0.2012(1)
H10 H 0.3823(2) -0.1718(4) -0.2765(1)
H11 H 0.2797(2) 0.0418(1) -0.2670(1)
H12 H 0.2421(1) 0.0910(3) -0.1815(1)
loop_
_geom_bond_atom_site_label_1
_geom_bond_atom_site_label_2
_geom_bond_site_symmetry_1
_geom_bond_site_symmetry_2
N1 C1 1_555 1_555
N2 C8 1_555 1_555
N3 C11 1_555 1_555
N4 C9 1_555 1_555
C1 C2 1_555 1_555
C2 C3 1_555 1_555
C3 C4 1_555 1_555
C4 C5 1_555 1_555
C5 C6 1_555 1_555
C6 C1 1_555 1_555
C7 C6 1_555 1_555
C8 C7 1_555 1_555
C9 N2 1_555 1_555
C10 C9 1_555 1_555
C11 C10 1_555 1_555
C12 N3 1_555 1_555
C13 N1 1_555 1_555
C14 C8 1_555 1_555
C15 C14 1_555 1_555
C16 C15 1_555 1_555
C17 C16 1_555 1_555
C18 C17 1_555 1_555
C19 C14 1_555 1_555
H1 C2 1_555 1_555
H2 C3 1_555 1_555
H3 C4 1_555 1_555
H4 C5 1_555 1_555
H5 C10 1_555 1_555
H6 C11 1_555 1_555
H7 C12 1_555 1_555
H8 C15 1_555 1_555
H9 C16 1_555 1_555
H10 C17 1_555 1_555
H11 C18 1_555 1_555
H12 C19 1_555 1_555
N4 C12 1_555 1_555
N4 C13 1_555 1_555
C7 C13 1_555 1_555
C18 C19 1_555 1_555

#END
