
#######################################################################
#
#                 Cambridge Crystallographic Data Centre
#                                CCDC 
#
#######################################################################
#
# If this CIF has been generated from an entry in the Cambridge 
# Structural Database, then it will include bibliographic, chemical, 
# crystal, experimental, refinement or atomic coordinate data resulting 
# from the CCDC's data processing and validation procedures.
#
#######################################################################

data_XUWQAH
_chemical_formula_moiety         'C32 H26 N2 O4,0.5(C3 H6 O1)'
_chemical_name_systematic        
'26,28-bis(Cyanomethoxy)-25,27-dihydroxycalix(4)arene acetone solvate'
_symmetry_cell_setting           triclinic
_symmetry_space_group_name_H-M   'P -1'
_symmetry_Int_Tables_number      2
_space_group_name_Hall           '-P 1'
loop_
_symmetry_equiv_pos_site_id
_symmetry_equiv_pos_as_xyz
1 x,y,z
2 -x,-y,-z
_cell_length_a                   10.1160(17)
_cell_length_b                   11.996(2)
_cell_length_c                   13.148(2)
_cell_angle_alpha                63.331(3)
_cell_angle_beta                 74.392(4)
_cell_angle_gamma                85.077(4)
_cell_volume                     1372.08
_exptl_crystal_colour            white
_cell_formula_units_Z            2
loop_
_atom_site_label
_atom_site_type_symbol
_atom_site_fract_x
_atom_site_fract_y
_atom_site_fract_z
C33 C 0.0435(12) 0.9676(12) 0.0386(10)
C34 C 0.0065(13) 0.8791(15) 0.1429(14)
O5 O 0.1686(13) 1.0283(12) 0.0103(11)
C33A C -0.0435(12) 1.0324(12) -0.0386(10)
C34A C -0.0065(13) 1.1209(15) -0.1429(14)
O5A O -0.1686(13) 0.9717(12) -0.0103(11)
C1 C 0.6925(3) 0.3313(3) 0.4766(3)
C2 C 0.6654(3) 0.3879(4) 0.5517(3)
C3 C 0.6638(3) 0.5139(4) 0.5098(3)
C4 C 0.6880(3) 0.5899(3) 0.3910(3)
C5 C 0.7157(3) 0.5394(3) 0.3109(3)
C6 C 0.7339(3) 0.6224(4) 0.1803(3)
C7 C 0.5987(3) 0.6613(3) 0.1471(3)
C8 C 0.5577(4) 0.7840(3) 0.1173(3)
C9 C 0.4363(4) 0.8222(4) 0.0848(3)
C10 C 0.3548(4) 0.7393(3) 0.0820(3)
C11 C 0.3899(3) 0.6174(3) 0.1118(3)
C12 C 0.2978(4) 0.5232(3) 0.1124(3)
C13 C 0.2191(3) 0.4381(3) 0.2364(3)
C14 C 0.1166(3) 0.4845(4) 0.3003(4)
C15 C 0.0481(4) 0.4100(4) 0.4149(4)
C16 C 0.0850(3) 0.2880(4) 0.4717(3)
C17 C 0.1865(3) 0.2363(3) 0.4128(3)
C18 C 0.2303(3) 0.1050(3) 0.4768(3)
C19 C 0.3225(3) 0.0929(3) 0.5552(3)
C20 C 0.2779(4) 0.0271(3) 0.6760(3)
C21 C 0.3604(4) 0.0118(4) 0.7485(3)
C22 C 0.4917(4) 0.0647(3) 0.6997(3)
C23 C 0.5420(3) 0.1326(3) 0.5785(3)
C24 C 0.6869(3) 0.1904(3) 0.5241(3)
C25 C 0.7214(3) 0.4096(3) 0.3568(3)
C26 C 0.4561(3) 0.1434(3) 0.5078(3)
C27 C 0.2470(3) 0.3121(3) 0.2939(5)
C28 C 0.5137(3) 0.5800(3) 0.1429(3)
C29 C 0.8901(4) 0.3291(5) 0.2432(4)
C30 C 0.9216(5) 0.3196(6) 0.1420(4)
C31 C 0.3000(4) 0.2253(4) 0.1584(3)
C32 C 0.1948(4) 0.1253(4) 0.2224(4)
N1 N 0.9495(9) 0.3089(12) 0.0608(6)
N2 N 0.1109(5) 0.0491(4) 0.2747(4)
O1 O 0.7515(2) 0.3586(2) 0.2761(2)
O2 O 0.3465(2) 0.2598(2) 0.2329(2)
O3 O 0.5090(2) 0.2057(2) 0.3890(2)
O4 O 0.5460(2) 0.4594(2) 0.1670(2)
loop_
_geom_bond_atom_site_label_1
_geom_bond_atom_site_label_2
_geom_bond_site_symmetry_1
_geom_bond_site_symmetry_2
C1 C2 1_555 1_555
C2 C3 1_555 1_555
C3 C4 1_555 1_555
C4 C5 1_555 1_555
C5 C6 1_555 1_555
C6 C7 1_555 1_555
C7 C8 1_555 1_555
C8 C9 1_555 1_555
C9 C10 1_555 1_555
C10 C11 1_555 1_555
C11 C12 1_555 1_555
C12 C13 1_555 1_555
C13 C14 1_555 1_555
C14 C15 1_555 1_555
C15 C16 1_555 1_555
C16 C17 1_555 1_555
C17 C18 1_555 1_555
C18 C19 1_555 1_555
C19 C20 1_555 1_555
C20 C21 1_555 1_555
C21 C22 1_555 1_555
C22 C23 1_555 1_555
C23 C24 1_555 1_555
C24 C1 1_555 1_555
C25 C1 1_555 1_555
C26 C19 1_555 1_555
C27 C13 1_555 1_555
C28 C7 1_555 1_555
C29 C30 1_555 1_555
C30 N1 1_555 1_555
C31 C32 1_555 1_555
C32 N2 1_555 1_555
C33 C34 1_555 1_555
O1 C25 1_555 1_555
O2 C27 1_555 1_555
O3 C26 1_555 1_555
O4 C28 1_555 1_555
O5 C33 1_555 1_555
C33A C33 1_555 1_555
C34A C33A 1_555 1_555
O5A C33A 1_555 1_555
C5 C25 1_555 1_555
C11 C28 1_555 1_555
C17 C27 1_555 1_555
C23 C26 1_555 1_555
C29 O1 1_555 1_555
C31 O2 1_555 1_555

#END
