
#######################################################################
#
#                 Cambridge Crystallographic Data Centre
#                                CCDC 
#
#######################################################################
#
# If this CIF has been generated from an entry in the Cambridge 
# Structural Database, then it will include bibliographic, chemical, 
# crystal, experimental, refinement or atomic coordinate data resulting 
# from the CCDC's data processing and validation procedures.
#
#######################################################################

data_XUXGON
_chemical_formula_moiety         'C21 H22 Cl1 Na1 O11'
_chemical_name_systematic        
(6,9,12,15,18,27-Hexaoxatetracyclo[21.3.1.0^5,26^.0^19,24^]heptacosa-1(26),2,4,19,21,23-hexaen-25-one)-(perchlorato-O)-sodium
_symmetry_cell_setting           monoclinic
_symmetry_space_group_name_H-M   'P 21/n'
_symmetry_Int_Tables_number      14
_space_group_name_Hall           '-P 2yn'
loop_
_symmetry_equiv_pos_site_id
_symmetry_equiv_pos_as_xyz
1 x,y,z
2 1/2-x,1/2+y,1/2-z
3 -x,-y,-z
4 1/2+x,1/2-y,1/2+z
_cell_length_a                   7.1486(10)
_cell_length_b                   11.9293(16)
_cell_length_c                   26.451(4)
_cell_angle_alpha                90
_cell_angle_beta                 96.102(2)
_cell_angle_gamma                90
_cell_volume                     2242.9
_exptl_crystal_colour            yellow
_exptl_crystal_description       block
_cell_formula_units_Z            4
_exptl_crystal_recrystallization_method acetonitrile/ether
loop_
_atom_site_label
_atom_site_type_symbol
_atom_site_fract_x
_atom_site_fract_y
_atom_site_fract_z
Na1 Na 0.9310(3) 0.8511(2) 0.81851(7)
Cl1 Cl 1.08400(19) 0.85960(13) 0.70379(5)
O1 O 1.3365(5) 0.8981(4) 1.03463(13)
O2 O 1.1516(6) 0.8638(3) 0.88511(12)
O3 O 1.0604(5) 1.0739(3) 0.88312(12)
O4 O 0.7856(5) 1.0288(4) 0.80393(12)
O5 O 0.6099(5) 0.8450(4) 0.83797(12)
O6 O 0.8256(5) 0.6603(4) 0.82434(14)
O7 O 1.1263(6) 0.6512(3) 0.89888(14)
O8 O 1.1336(9) 0.9726(5) 0.7187(3)
O9 O 1.0766(11) 0.7978(7) 0.7470(2)
O10 O 0.9127(11) 0.8563(6) 0.6738(3)
O11 O 1.2098(16) 0.8210(11) 0.6769(4)
C1 C 1.1346(7) 1.0847(5) 0.93218(18)
C2 C 1.1465(7) 1.1838(5) 0.9585(2)
H1 H 1.1029 1.2496 0.9425
C3 C 1.2235(8) 1.1860(6) 1.0090(2)
H2 H 1.2328 1.2539 1.0263
C4 C 1.2858(7) 1.0904(6) 1.0336(2)
H3 H 1.3368 1.0928 1.0674
C5 C 1.2717(6) 0.9910(5) 1.00759(17)
C6 C 1.3118(7) 0.7939(6) 1.01440(19)
C7 C 1.3646(8) 0.7040(8) 1.0465(2)
H4 H 1.4209 0.7166 1.0793
C8 C 1.3327(9) 0.5978(8) 1.0291(3)
H5 H 1.3653 0.5377 1.0507
C9 C 1.2532(9) 0.5772(6) 0.9803(3)
H6 H 1.2318 0.5036 0.9696
C10 C 1.2047(8) 0.6639(6) 0.9470(2)
C11 C 1.2365(7) 0.7742(5) 0.96398(17)
C12 C 1.1917(6) 0.8737(5) 0.93115(17)
C13 C 1.1997(6) 0.9830(5) 0.95633(15)
C14 C 0.9609(8) 1.1669(5) 0.85907(19)
H7 H 1.0434 1.2313 0.8581
H8 H 0.8553 1.1875 0.8773
C15 C 0.8932(8) 1.1283(5) 0.80587(19)
H9 H 0.8179 1.1874 0.7887
H10 H 1.0016 1.1165 0.7873
C16 C 0.6046(8) 1.0386(6) 0.8210(2)
H11 H 0.5351 1.0989 0.8031
H12 H 0.6167 1.0555 0.8571
C17 C 0.5038(8) 0.9322(7) 0.8114(2)
H13 H 0.3800 0.9369 0.8231
H14 H 0.4885 0.9163 0.7753
C18 C 0.5254(8) 0.7364(6) 0.8307(2)
H15 H 0.4896 0.7229 0.7948
H16 H 0.4134 0.7319 0.8484
C19 C 0.6649(9) 0.6518(6) 0.8513(2)
H17 H 0.7000 0.6650 0.8872
H18 H 0.6113 0.5772 0.8473
C20 C 0.9510(9) 0.5672(6) 0.8295(3)
H19 H 1.0484 0.5787 0.8072
H20 H 0.8818 0.5004 0.8180
C21 C 1.0431(9) 0.5467(6) 0.8821(3)
H21 H 0.9510 0.5231 0.9043
H22 H 1.1385 0.4890 0.8819
loop_
_geom_bond_atom_site_label_1
_geom_bond_atom_site_label_2
_geom_bond_site_symmetry_1
_geom_bond_site_symmetry_2
Na1 O2 1_555 1_555
Cl1 O8 1_555 1_555
O1 C5 1_555 1_555
O2 C12 1_555 1_555
O3 C1 1_555 1_555
O4 Na1 1_555 1_555
O5 Na1 1_555 1_555
O6 Na1 1_555 1_555
O7 C10 1_555 1_555
O9 Na1 1_555 1_555
O10 Cl1 1_555 1_555
O11 Cl1 1_555 1_555
C1 C2 1_555 1_555
C2 H1 1_555 1_555
C3 C2 1_555 1_555
H2 C3 1_555 1_555
C4 C3 1_555 1_555
H3 C4 1_555 1_555
C5 C4 1_555 1_555
C6 O1 1_555 1_555
C7 C6 1_555 1_555
H4 C7 1_555 1_555
C8 C7 1_555 1_555
H5 C8 1_555 1_555
C9 C8 1_555 1_555
H6 C9 1_555 1_555
C10 C9 1_555 1_555
C11 C6 1_555 1_555
C12 C11 1_555 1_555
C13 C1 1_555 1_555
C14 O3 1_555 1_555
H7 C14 1_555 1_555
H8 C14 1_555 1_555
C15 O4 1_555 1_555
H9 C15 1_555 1_555
H10 C15 1_555 1_555
C16 O4 1_555 1_555
H11 C16 1_555 1_555
H12 C16 1_555 1_555
C17 O5 1_555 1_555
H13 C17 1_555 1_555
H14 C17 1_555 1_555
C18 O5 1_555 1_555
H15 C18 1_555 1_555
H16 C18 1_555 1_555
C19 O6 1_555 1_555
H17 C19 1_555 1_555
H18 C19 1_555 1_555
C20 O6 1_555 1_555
H19 C20 1_555 1_555
H20 C20 1_555 1_555
C21 O7 1_555 1_555
H21 C21 1_555 1_555
H22 C21 1_555 1_555
Cl1 O9 1_555 1_555
C5 C13 1_555 1_555
C10 C11 1_555 1_555
C12 C13 1_555 1_555
C14 C15 1_555 1_555
C16 C17 1_555 1_555
C18 C19 1_555 1_555
C20 C21 1_555 1_555

#END
