
#######################################################################
#
#                 Cambridge Crystallographic Data Centre
#                                CCDC 
#
#######################################################################
#
# If this CIF has been generated from an entry in the Cambridge 
# Structural Database, then it will include bibliographic, chemical, 
# crystal, experimental, refinement or atomic coordinate data resulting 
# from the CCDC's data processing and validation procedures.
#
#######################################################################

data_XUXHAA
_chemical_formula_moiety         'C42 H44 Ca1 O14 2+,2(Cl1 O4 1-),2(C2 H3 N1)'
_chemical_name_systematic        
'bis(6,9,12,15,18,27-Hexaoxatetracyclo[21.3.1.0^5,26^.0^19,24^]heptacosa-1(26),2,4,19,21,23-hexaen-25-one)-calcium diperchlorate acetonitrile solvate'
_symmetry_cell_setting           monoclinic
_symmetry_space_group_name_H-M   'P 21/c'
_symmetry_Int_Tables_number      14
_space_group_name_Hall           '-P 2ybc'
loop_
_symmetry_equiv_pos_site_id
_symmetry_equiv_pos_as_xyz
1 x,y,z
2 -x,1/2+y,1/2-z
3 -x,-y,-z
4 x,1/2-y,1/2+z
_cell_length_a                   16.717(2)
_cell_length_b                   12.6429(11)
_cell_length_c                   23.580(3)
_cell_angle_alpha                90
_cell_angle_beta                 97.681(2)
_cell_angle_gamma                90
_cell_volume                     4938.95
_exptl_crystal_colour            yellow
_exptl_crystal_description       block
_cell_formula_units_Z            4
_exptl_crystal_recrystallization_method acetonitrile/ether
loop_
_atom_site_label
_atom_site_type_symbol
_atom_site_fract_x
_atom_site_fract_y
_atom_site_fract_z
Ca1 Ca 0.25544(6) 0.36026(9) 0.38975(5)
O1 O -0.0596(3) 0.3360(4) 0.5101(2)
O2 O 0.1507(2) 0.3721(3) 0.44199(14)
O3 O 0.0699(2) 0.4782(3) 0.35950(16)
O4 O 0.2180(2) 0.5346(3) 0.33807(17)
O5 O 0.3008(2) 0.5255(3) 0.44475(17)
O6 O 0.3475(2) 0.3332(3) 0.48597(16)
O7 O 0.2170(3) 0.2379(3) 0.51718(15)
O8 O 0.1030(3) -0.0150(3) 0.46544(17)
O9 O 0.2611(2) 0.1742(3) 0.39848(16)
O10 O 0.1397(2) 0.2569(3) 0.33115(15)
O11 O 0.2619(2) 0.3253(3) 0.28387(16)
O12 O 0.3915(2) 0.3790(3) 0.36236(18)
O13 O 0.4665(6) 0.1766(7) 0.3978(4)
O14 O 0.3708(3) 0.0194(4) 0.4173(3)
C1 C 0.1481(4) 0.2378(5) 0.5413(2)
C2 C 0.1405(5) 0.1808(5) 0.5911(3)
H1 H 0.1844 0.1445 0.6104
C3 C 0.0656(6) 0.1795(6) 0.6112(3)
H2 H 0.0607 0.1436 0.6450
C4 C 0.0002(5) 0.2282(6) 0.5835(3)
H3 H -0.0496 0.2229 0.5969
C5 C 0.0081(4) 0.2858(5) 0.5350(3)
C6 C -0.0586(4) 0.3946(5) 0.4617(3)
C7 C -0.1325(4) 0.4397(6) 0.4398(4)
H4 H -0.1782 0.4284 0.4575
C8 C -0.1363(5) 0.5001(6) 0.3922(4)
H5 H -0.1848 0.5322 0.3779
C9 C -0.0700(4) 0.5150(5) 0.3643(3)
H6 H -0.0743 0.5554 0.3310
C10 C 0.0034(4) 0.4697(5) 0.3858(3)
C11 C 0.0104(4) 0.4071(4) 0.4360(2)
C12 C 0.0863(4) 0.3589(4) 0.4619(2)
C13 C 0.0815(4) 0.2922(4) 0.5121(2)
C14 C 0.2909(4) 0.2125(5) 0.5514(3)
H7 H 0.2914 0.1386 0.5626
H8 H 0.2981 0.2557 0.5857
C15 C 0.3572(4) 0.2344(5) 0.5151(3)
H9 H 0.4088 0.2338 0.5394
H10 H 0.3578 0.1782 0.4872
C16 C 0.3517(4) 0.4226(5) 0.5237(3)
H11 H 0.3958 0.4136 0.5546
H12 H 0.3019 0.4289 0.5403
C17 C 0.3649(4) 0.5190(5) 0.4904(3)
H13 H 0.3654 0.5812 0.5146
H14 H 0.4162 0.5147 0.4756
C18 C 0.3067(4) 0.6171(5) 0.4100(3)
H15 H 0.3509 0.6091 0.3876
H16 H 0.3168 0.6794 0.4339
C19 C 0.2304(5) 0.6284(5) 0.3722(3)
H17 H 0.1863 0.6377 0.3947
H18 H 0.2323 0.6899 0.3478
C20 C 0.1507(4) 0.5434(5) 0.2936(2)
H19 H 0.1488 0.4807 0.2698
H20 H 0.1594 0.6037 0.2698
C21 C 0.0710(4) 0.5560(5) 0.3148(3)
H21 H 0.0656 0.6267 0.3298
H22 H 0.0272 0.5436 0.2842
C22 C 0.0893(4) 0.1930(4) 0.3582(2)
C23 C 0.0074(4) 0.2015(5) 0.3461(3)
H23 H -0.0155 0.2483 0.3181
C24 C -0.0416(4) 0.1394(6) 0.3760(3)
H24 H -0.0974 0.1457 0.3682
C25 C -0.0087(4) 0.0695(5) 0.4164(3)
H25 H -0.0416 0.0292 0.4369
C26 C 0.0743(4) 0.0592(5) 0.4267(3)
C27 C 0.1824(5) -0.0428(5) 0.4715(3)
C28 C 0.2030(5) -0.1276(5) 0.5080(3)
H26 H 0.1644 -0.1617 0.5264
C29 C 0.2811(6) -0.1588(6) 0.5157(3)
H27 H 0.2963 -0.2133 0.5414
C30 C 0.3390(5) -0.1130(6) 0.4871(3)
H28 H 0.3913 -0.1398 0.4917
C31 C 0.3195(5) -0.0275(5) 0.4515(3)
C32 C 0.2390(4) 0.0117(5) 0.4438(3)
C33 C 0.2135(4) 0.1073(5) 0.4120(2)
C34 C 0.1253(3) 0.1204(4) 0.3986(2)
C35 C 0.1307(4) 0.2520(5) 0.2702(2)
H29 H 0.1038 0.3150 0.2537
H30 H 0.0990 0.1907 0.2565
C36 C 0.2129(4) 0.2444(6) 0.2543(3)
H31 H 0.2356 0.1753 0.2647
H32 H 0.2112 0.2532 0.2133
C37 C 0.3399(4) 0.3273(6) 0.2667(3)
H33 H 0.3365 0.3464 0.2266
H34 H 0.3649 0.2581 0.2719
C38 C 0.3879(4) 0.4059(6) 0.3023(3)
H35 H 0.4421 0.4083 0.2920
H36 H 0.3638 0.4753 0.2955
C39 C 0.4690(4) 0.3526(7) 0.3900(3)
H37 H 0.4675 0.3537 0.4310
H38 H 0.5063 0.4073 0.3815
C40 C 0.5001(6) 0.2535(9) 0.3755(4)
H39 H 0.4922 0.2457 0.3342
H40 H 0.5577 0.2517 0.3882
C41 C 0.4880(6) 0.0742(10) 0.3840(4)
H41 H 0.5462 0.0665 0.3915
H42 H 0.4714 0.0615 0.3435
C42 C 0.4488(8) -0.0056(9) 0.4186(5)
H43 H 0.4537 -0.0758 0.4028
H44 H 0.4753 -0.0056 0.4578
Cl1 Cl 0.12513(11) 0.89194(13) 0.28685(7)
O15 O 0.1497(3) 0.8646(4) 0.34462(18)
O16 O 0.1536(3) 0.9932(4) 0.2756(2)
O17 O 0.1529(4) 0.8203(4) 0.2487(2)
O18 O 0.0405(3) 0.8950(6) 0.2772(2)
Cl2 Cl 0.49920(16) 0.2156(2) 0.17544(11)
O19 O 0.5048(17) 0.3099(19) 0.1999(15)
O20 O 0.5251(12) 0.218(2) 0.1251(8)
O21 O 0.5106(18) 0.137(2) 0.2086(14)
O22 O 0.4104(7) 0.1908(14) 0.1637(5)
N1 N 0.2548(7) 0.5040(8) 0.1618(4)
C43 C 0.3024(6) 0.6802(8) 0.2002(5)
H45 H 0.2697 0.6990 0.2292
H46 H 0.2960 0.7325 0.1704
H47 H 0.3580 0.6771 0.2167
C44 C 0.2776(6) 0.5788(9) 0.1767(4)
N2 N 0.3331(5) 0.9144(9) 0.1321(4)
C45 C 0.3524(5) 0.9704(7) 0.2374(5)
H48 H 0.3832 0.9169 0.2594
H49 H 0.3005 0.9772 0.2504
H50 H 0.3805 1.0367 0.2422
C46 C 0.3418(6) 0.9414(9) 0.1782(6)
O23? O 0.4988(12) 0.1293(15) 0.1388(10)
O24? O 0.5052(11) 0.193(3) 0.2334(6)
O25? O 0.4496(11) 0.2994(16) 0.1569(7)
O26? O 0.5864(8) 0.2497(13) 0.1761(8)
loop_
_geom_bond_atom_site_label_1
_geom_bond_atom_site_label_2
_geom_bond_site_symmetry_1
_geom_bond_site_symmetry_2
Ca1 O2 1_555 1_555
O1 C5 1_555 1_555
O2 C12 1_555 1_555
O3 C10 1_555 1_555
O4 Ca1 1_555 1_555
O5 Ca1 1_555 1_555
O6 Ca1 1_555 1_555
O7 C1 1_555 1_555
O8 C26 1_555 1_555
O9 Ca1 1_555 1_555
O10 Ca1 1_555 1_555
O11 Ca1 1_555 1_555
O12 Ca1 1_555 1_555
O13 C40 1_555 1_555
O14 C31 1_555 1_555
C1 C2 1_555 1_555
C2 H1 1_555 1_555
C3 C2 1_555 1_555
H2 C3 1_555 1_555
C4 C3 1_555 1_555
H3 C4 1_555 1_555
C5 C4 1_555 1_555
C6 O1 1_555 1_555
C7 C6 1_555 1_555
H4 C7 1_555 1_555
C8 C7 1_555 1_555
H5 C8 1_555 1_555
C9 C8 1_555 1_555
H6 C9 1_555 1_555
C10 C9 1_555 1_555
C11 C6 1_555 1_555
C12 C11 1_555 1_555
C13 C1 1_555 1_555
C14 O7 1_555 1_555
H7 C14 1_555 1_555
H8 C14 1_555 1_555
C15 O6 1_555 1_555
H9 C15 1_555 1_555
H10 C15 1_555 1_555
C16 O6 1_555 1_555
H11 C16 1_555 1_555
H12 C16 1_555 1_555
C17 O5 1_555 1_555
H13 C17 1_555 1_555
H14 C17 1_555 1_555
C18 O5 1_555 1_555
H15 C18 1_555 1_555
H16 C18 1_555 1_555
C19 O4 1_555 1_555
H17 C19 1_555 1_555
H18 C19 1_555 1_555
C20 O4 1_555 1_555
H19 C20 1_555 1_555
H20 C20 1_555 1_555
C21 O3 1_555 1_555
H21 C21 1_555 1_555
H22 C21 1_555 1_555
C22 O10 1_555 1_555
C23 C22 1_555 1_555
H23 C23 1_555 1_555
C24 C23 1_555 1_555
H24 C24 1_555 1_555
C25 C24 1_555 1_555
H25 C25 1_555 1_555
C26 C25 1_555 1_555
C27 O8 1_555 1_555
C28 C27 1_555 1_555
H26 C28 1_555 1_555
C29 C28 1_555 1_555
H27 C29 1_555 1_555
C30 C29 1_555 1_555
H28 C30 1_555 1_555
C31 C30 1_555 1_555
C32 C27 1_555 1_555
C33 O9 1_555 1_555
C34 C22 1_555 1_555
C35 O10 1_555 1_555
H29 C35 1_555 1_555
H30 C35 1_555 1_555
C36 O11 1_555 1_555
H31 C36 1_555 1_555
H32 C36 1_555 1_555
C37 O11 1_555 1_555
H33 C37 1_555 1_555
H34 C37 1_555 1_555
C38 O12 1_555 1_555
H35 C38 1_555 1_555
H36 C38 1_555 1_555
C39 O12 1_555 1_555
H37 C39 1_555 1_555
H38 C39 1_555 1_555
C40 C39 1_555 1_555
H39 C40 1_555 1_555
H40 C40 1_555 1_555
C41 O13 1_555 1_555
H41 C41 1_555 1_555
H42 C41 1_555 1_555
C42 O14 1_555 1_555
H43 C42 1_555 1_555
H44 C42 1_555 1_555
Cl1 O15 1_555 1_555
O16 Cl1 1_555 1_555
O17 Cl1 1_555 1_555
O18 Cl1 1_555 1_555
Cl2 O19 1_555 1_555
O20 Cl2 1_555 1_555
O21 Cl2 1_555 1_555
O22 Cl2 1_555 1_555
N1 C44 1_555 1_555
C43 H45 1_555 1_555
H46 C43 1_555 1_555
H47 C43 1_555 1_555
C44 C43 1_555 1_555
N2 C46 1_555 1_555
C45 H48 1_555 1_555
H49 C45 1_555 1_555
H50 C45 1_555 1_555
C46 C45 1_555 1_555
C5 C13 1_555 1_555
C10 C11 1_555 1_555
C12 C13 1_555 1_555
C14 C15 1_555 1_555
C16 C17 1_555 1_555
C18 C19 1_555 1_555
C20 C21 1_555 1_555
C26 C34 1_555 1_555
C31 C32 1_555 1_555
C32 C33 1_555 1_555
C33 C34 1_555 1_555
C35 C36 1_555 1_555
C37 C38 1_555 1_555
C41 C42 1_555 1_555

#END
