
#######################################################################
#
#                 Cambridge Crystallographic Data Centre
#                                CCDC 
#
#######################################################################
#
# If this CIF has been generated from an entry in the Cambridge 
# Structural Database, then it will include bibliographic, chemical, 
# crystal, experimental, refinement or atomic coordinate data resulting 
# from the CCDC's data processing and validation procedures.
#
#######################################################################

data_XUXJUW
_chemical_formula_moiety         'C29 H37 N3 O5 S1 2+,2(H2 O1),2(Cl1 1-)'
_chemical_name_systematic        
'(2S,3R)-4-(4-(Benzo[d][1,3]dioxol-5-ylmethyl)piperazin-1-yl)-3-hydroxy-1-phenyl-2-(4-toluenesulfonamido)butane bis(hydrochloride) dihydrate'
_symmetry_cell_setting           monoclinic
_symmetry_space_group_name_H-M   'P 21'
_symmetry_Int_Tables_number      4
_space_group_name_Hall           'P 2yb'
loop_
_symmetry_equiv_pos_site_id
_symmetry_equiv_pos_as_xyz
1 x,y,z
2 -x,1/2+y,-z
_cell_length_a                   17.105(6)
_cell_length_b                   9.333(4)
_cell_length_c                   19.305(7)
_cell_angle_alpha                90
_cell_angle_beta                 90.223(4)
_cell_angle_gamma                90
_cell_volume                     3081.85
_exptl_crystal_colour            colorless
_exptl_crystal_description       plate
_cell_formula_units_Z            4
_exptl_crystal_recrystallization_method ethanol
loop_
_atom_site_label
_atom_site_type_symbol
_atom_site_fract_x
_atom_site_fract_y
_atom_site_fract_z
S1 S 0.19426(4) 0.10404(6) 0.78062(3)
N1 N -0.20941(11) 0.3911(2) 0.98074(9)
H1 H -0.2068(15) 0.487(3) 0.9717(14)
N2 N 0.14061(11) 0.2453(2) 0.78078(10)
H2 H 0.1175(16) 0.260(3) 0.7463(15)
N3 N -0.07014(10) 0.3112(2) 0.90184(9)
H3 H -0.0697(15) 0.214(3) 0.9077(13)
O1 O 0.07557(10) 0.19294(18) 0.91629(8)
H4 H 0.0634 0.1328 0.8857
O2 O -0.52750(10) 0.3510(2) 0.88940(9)
O3 O -0.54989(10) 0.5940(2) 0.90493(10)
O4 O 0.21664(11) 0.0742(2) 0.85131(10)
O5 O 0.15479(12) -0.0010(2) 0.73929(11)
C1 C -0.21580(13) 0.3160(2) 0.91270(11)
H5 H -0.2644 0.3463 0.8888
H6 H -0.2187 0.2113 0.9205
C2 C -0.14599(12) 0.3500(2) 0.86748(11)
H7 H -0.1508 0.2968 0.8233
H8 H -0.1459 0.4537 0.8566
C3 C -0.58284(15) 0.4650(3) 0.87824(14)
H9 H -0.5939 0.4756 0.8281
H10 H -0.6325 0.4433 0.9022
C4 C -0.06396(12) 0.3822(2) 0.97152(10)
H11 H -0.0602 0.4873 0.9653
H12 H -0.0158 0.3492 0.9953
C5 C -0.13469(12) 0.3471(2) 1.01590(11)
H13 H -0.1359 0.2428 1.0252
H14 H -0.1301 0.3974 1.0609
C6 C -0.27977(12) 0.3613(2) 1.02653(11)
H15 H -0.2871 0.2565 1.0313
H16 H -0.2704 0.4015 1.0733
C7 C -0.35236(12) 0.4269(2) 0.99588(11)
C8 C -0.40517(12) 0.3417(2) 0.95784(11)
H17 H -0.3970 0.2418 0.9518
C9 C -0.46925(13) 0.4100(3) 0.92983(11)
C10 C -0.48239(13) 0.5543(3) 0.93874(12)
C11 C -0.43189(13) 0.6398(3) 0.97565(12)
H18 H -0.4410 0.7395 0.9811
C12 C -0.36668(13) 0.5736(2) 1.00473(11)
H19 H -0.3310 0.6292 1.0313
C13 C -0.00459(12) 0.3510(2) 0.85329(11)
H20 H -0.0110 0.4521 0.8387
H21 H -0.0076 0.2902 0.8114
C14 C 0.07487(13) 0.3324(2) 0.88715(11)
H22 H 0.0803 0.4041 0.9254
C15 C 0.14147(12) 0.3564(2) 0.83458(11)
H23 H 0.1923 0.3489 0.8602
C16 C 0.13671(13) 0.5071(2) 0.80245(12)
H24 H 0.0987 0.5046 0.7636
H25 H 0.1161 0.5740 0.8377
C17 C 0.21347(13) 0.5658(2) 0.77569(12)
C18 C 0.24655(15) 0.6851(3) 0.80807(13)
H26 H 0.2204 0.7274 0.8463
C19 C 0.31714(16) 0.7436(3) 0.78561(14)
H27 H 0.3386 0.8255 0.8079
C20 C 0.35572(15) 0.6801(3) 0.72998(13)
H28 H 0.4045 0.7173 0.7148
C21 C 0.32317(15) 0.5635(3) 0.69699(13)
H29 H 0.3495 0.5209 0.6590
C22 C 0.25170(14) 0.5073(3) 0.71892(12)
H30 H 0.2291 0.4286 0.6949
C23 C 0.28180(15) 0.1447(3) 0.73616(12)
C24 C 0.35033(15) 0.1673(3) 0.77342(13)
H31 H 0.3499 0.1652 0.8226
C25 C 0.41942(15) 0.1931(3) 0.73806(13)
H32 H 0.4662 0.2112 0.7633
C26 C 0.42085(16) 0.1927(3) 0.66593(14)
C27 C 0.35114(17) 0.1743(3) 0.62936(13)
H33 H 0.3512 0.1787 0.5802
C28 C 0.28189(16) 0.1495(3) 0.66404(14)
H34 H 0.2347 0.1358 0.6389
C29 C 0.49832(17) 0.2119(4) 0.62893(16)
H35 H 0.5352 0.1383 0.6446
H36 H 0.5196 0.3070 0.6394
H37 H 0.4902 0.2029 0.5788
S2 S 1.20361(3) 0.51637(6) 0.30880(3)
H38 H 0.7959(15) 0.167(3) 0.4816(14)
N4 N 0.78962(11) 0.2496(2) 0.48320(10)
N5 N 1.16964(11) 0.3620(2) 0.33061(10)
H39 H 1.1894(16) 0.325(3) 0.3696(15)
N6 N 0.93980(11) 0.3041(2) 0.41661(9)
H40 H 0.9366(15) 0.400(3) 0.4213(14)
O6 O 1.01144(10) 0.4588(2) 0.31990(10)
H41 H 1.0057 0.4806 0.3618
O7 O 0.46063(10) 0.2792(2) 0.39057(10)
O8 O 0.44234(11) 0.0384(2) 0.41400(11)
O9 O 1.23009(10) 0.5826(2) 0.37213(9)
O10 O 1.14700(10) 0.5871(2) 0.26571(10)
C30 C 0.79491(12) 0.3024(3) 0.41026(11)
H42 H 0.7926 0.4084 0.4100
H43 H 0.7496 0.2661 0.3834
C31 C 0.86989(12) 0.2539(2) 0.37589(11)
H44 H 0.8705 0.1481 0.3727
H45 H 0.8723 0.2931 0.3283
C32 C 0.41353(15) 0.1573(3) 0.37448(15)
H46 H 0.4165 0.1357 0.3244
H47 H 0.3583 0.1765 0.3864
C33 C 0.93418(12) 0.2553(2) 0.49050(11)
H48 H 0.9787 0.2950 0.5172
H49 H 0.9379 0.1495 0.4922
C34 C 0.85813(12) 0.3022(2) 0.52391(11)
H50 H 0.8555 0.2640 0.5717
H51 H 0.8565 0.4081 0.5265
C35 C 0.71415(12) 0.2971(3) 0.51688(11)
H52 H 0.7171 0.2776 0.5672
H53 H 0.7078 0.4017 0.5106
C36 C 0.64419(12) 0.2217(3) 0.48701(11)
C37 C 0.58897(13) 0.2996(3) 0.44871(11)
H54 H 0.5960 0.3985 0.4389
C38 C 0.52418(13) 0.2259(3) 0.42604(11)
C39 C 0.51336(13) 0.0816(3) 0.43952(12)
C40 C 0.56725(14) 0.0031(3) 0.47596(12)
H55 H 0.5602 -0.0963 0.4843
C41 C 0.63328(13) 0.0766(3) 0.50024(12)
H56 H 0.6715 0.0260 0.5264
C42 C 1.01513(12) 0.2505(2) 0.38678(11)
H57 H 1.0139 0.1446 0.3843
H58 H 1.0590 0.2786 0.4175
C43 C 1.02854(13) 0.3116(3) 0.31442(12)
H59 H 0.9907 0.2664 0.2814
C44 C 1.11251(13) 0.2816(3) 0.28943(11)
H60 H 1.1167 0.3138 0.2402
C45 C 1.13007(13) 0.1211(3) 0.29215(12)
H61 H 1.1246 0.0893 0.3408
H62 H 1.0893 0.0710 0.2648
C46 C 1.20910(13) 0.0711(3) 0.26642(11)
C47 C 1.24281(15) -0.0498(3) 0.29554(13)
H63 H 1.2165 -0.0971 0.3323
C48 C 1.31356(16) -0.1039(3) 0.27283(13)
H64 H 1.3347 -0.1882 0.2931
C49 C 1.35335(15) -0.0344(3) 0.22034(13)
H65 H 1.4025 -0.0696 0.2052
C50 C 1.32122(15) 0.0863(3) 0.19000(13)
H66 H 1.3483 0.1337 0.1537
C51 C 1.24889(14) 0.1392(3) 0.21251(12)
H67 H 1.2268 0.2215 0.1910
C52 C 1.28719(13) 0.4921(3) 0.25691(12)
C53 C 1.35823(13) 0.4621(3) 0.28908(12)
H68 H 1.3615 0.4527 0.3380
C54 C 1.42470(14) 0.4462(3) 0.24799(13)
H69 H 1.4736 0.4266 0.2694
C55 C 1.42058(14) 0.4584(3) 0.17651(13)
C56 C 1.34851(14) 0.4847(3) 0.14547(12)
H70 H 1.3449 0.4919 0.0965
C57 C 1.28179(14) 0.5008(3) 0.18556(12)
H71 H 1.2326 0.5176 0.1640
C58 C 1.49395(16) 0.4448(3) 0.13305(14)
H72 H 1.5326 0.5156 0.1485
H73 H 1.4810 0.4616 0.0842
H74 H 1.5157 0.3482 0.1384
Cl1 Cl 0.24258(3) 0.47337(6) 0.98723(3)
Cl2 Cl 0.04779(3) 0.37057(6) 0.64146(3)
Cl3 Cl 0.77298(4) 0.68003(6) 0.53380(3)
Cl4 Cl 0.96425(3) 0.72774(6) 0.87899(3)
O11 O 0.18127(11) 0.1766(2) 1.03197(11)
H75 H 0.1397(12) 0.191(4) 1.0545(15)
H76 H 0.2053(17) 0.256(2) 1.0269(18)
O12 O -0.09675(12) 0.0303(2) 0.92189(13)
H77 H -0.1365(15) 0.006(4) 0.9451(18)
H78 H -0.079(2) -0.044(3) 0.9013(19)
O13 O 0.08508(11) 0.08834(19) 0.55981(10)
H79 H 0.1258(12) 0.115(4) 0.5378(15)
H80 H 0.0744(18) 0.153(3) 0.5888(14)
O14 O 0.82206(14) 0.9654(2) 0.46423(11)
H81 H 0.849(2) 0.930(4) 0.4318(14)
H82 H 0.804(2) 0.890(3) 0.4818(19)
loop_
_geom_bond_atom_site_label_1
_geom_bond_atom_site_label_2
_geom_bond_site_symmetry_1
_geom_bond_site_symmetry_2
S1 N2 1_555 1_555
N1 H1 1_555 1_555
N2 H2 1_555 1_555
N3 H3 1_555 1_555
O1 H4 1_555 1_555
O2 C3 1_555 1_555
O3 C3 1_555 1_555
O4 S1 1_555 1_555
O5 S1 1_555 1_555
C1 N1 1_555 1_555
H5 C1 1_555 1_555
H6 C1 1_555 1_555
C2 N3 1_555 1_555
H7 C2 1_555 1_555
H8 C2 1_555 1_555
C3 H9 1_555 1_555
H10 C3 1_555 1_555
C4 N3 1_555 1_555
H11 C4 1_555 1_555
H12 C4 1_555 1_555
C5 N1 1_555 1_555
H13 C5 1_555 1_555
H14 C5 1_555 1_555
C6 N1 1_555 1_555
H15 C6 1_555 1_555
H16 C6 1_555 1_555
C7 C6 1_555 1_555
C8 C7 1_555 1_555
H17 C8 1_555 1_555
C9 O2 1_555 1_555
C10 O3 1_555 1_555
C11 C10 1_555 1_555
H18 C11 1_555 1_555
C12 C7 1_555 1_555
H19 C12 1_555 1_555
C13 N3 1_555 1_555
H20 C13 1_555 1_555
H21 C13 1_555 1_555
C14 O1 1_555 1_555
H22 C14 1_555 1_555
C15 N2 1_555 1_555
H23 C15 1_555 1_555
C16 C15 1_555 1_555
H24 C16 1_555 1_555
H25 C16 1_555 1_555
C17 C16 1_555 1_555
C18 C17 1_555 1_555
H26 C18 1_555 1_555
C19 C18 1_555 1_555
H27 C19 1_555 1_555
C20 C19 1_555 1_555
H28 C20 1_555 1_555
C21 C20 1_555 1_555
H29 C21 1_555 1_555
C22 C17 1_555 1_555
H30 C22 1_555 1_555
C23 S1 1_555 1_555
C24 C23 1_555 1_555
H31 C24 1_555 1_555
C25 C24 1_555 1_555
H32 C25 1_555 1_555
C26 C25 1_555 1_555
C27 C26 1_555 1_555
H33 C27 1_555 1_555
C28 C23 1_555 1_555
H34 C28 1_555 1_555
C29 C26 1_555 1_555
H35 C29 1_555 1_555
H36 C29 1_555 1_555
H37 C29 1_555 1_555
S2 N5 1_555 1_555
H38 N4 1_555 1_555
N4 C30 1_555 1_555
N5 H39 1_555 1_555
N6 H40 1_555 1_555
O6 H41 1_555 1_555
O7 C32 1_555 1_555
O8 C32 1_555 1_555
O9 S2 1_555 1_555
O10 S2 1_555 1_555
C30 H42 1_555 1_555
H43 C30 1_555 1_555
C31 N6 1_555 1_555
H44 C31 1_555 1_555
H45 C31 1_555 1_555
C32 H46 1_555 1_555
H47 C32 1_555 1_555
C33 N6 1_555 1_555
H48 C33 1_555 1_555
H49 C33 1_555 1_555
C34 N4 1_555 1_555
H50 C34 1_555 1_555
H51 C34 1_555 1_555
C35 N4 1_555 1_555
H52 C35 1_555 1_555
H53 C35 1_555 1_555
C36 C35 1_555 1_555
C37 C36 1_555 1_555
H54 C37 1_555 1_555
C38 O7 1_555 1_555
C39 O8 1_555 1_555
C40 C39 1_555 1_555
H55 C40 1_555 1_555
C41 C36 1_555 1_555
H56 C41 1_555 1_555
C42 N6 1_555 1_555
H57 C42 1_555 1_555
H58 C42 1_555 1_555
C43 O6 1_555 1_555
H59 C43 1_555 1_555
C44 N5 1_555 1_555
H60 C44 1_555 1_555
C45 C44 1_555 1_555
H61 C45 1_555 1_555
H62 C45 1_555 1_555
C46 C45 1_555 1_555
C47 C46 1_555 1_555
H63 C47 1_555 1_555
C48 C47 1_555 1_555
H64 C48 1_555 1_555
C49 C48 1_555 1_555
H65 C49 1_555 1_555
C50 C49 1_555 1_555
H66 C50 1_555 1_555
C51 C46 1_555 1_555
H67 C51 1_555 1_555
C52 S2 1_555 1_555
C53 C52 1_555 1_555
H68 C53 1_555 1_555
C54 C53 1_555 1_555
H69 C54 1_555 1_555
C55 C54 1_555 1_555
C56 C55 1_555 1_555
H70 C56 1_555 1_555
C57 C52 1_555 1_555
H71 C57 1_555 1_555
C58 C55 1_555 1_555
H72 C58 1_555 1_555
H73 C58 1_555 1_555
H74 C58 1_555 1_555
O11 H75 1_555 1_555
H76 O11 1_555 1_555
O12 H77 1_555 1_555
H78 O12 1_555 1_555
O13 H79 1_555 1_555
H80 O13 1_555 1_555
O14 H81 1_555 1_555
H82 O14 1_555 1_555
C1 C2 1_555 1_555
C4 C5 1_555 1_555
C8 C9 1_555 1_555
C9 C10 1_555 1_555
C11 C12 1_555 1_555
C13 C14 1_555 1_555
C14 C15 1_555 1_555
C21 C22 1_555 1_555
C27 C28 1_555 1_555
C30 C31 1_555 1_555
C33 C34 1_555 1_555
C37 C38 1_555 1_555
C38 C39 1_555 1_555
C40 C41 1_555 1_555
C42 C43 1_555 1_555
C43 C44 1_555 1_555
C50 C51 1_555 1_555
C56 C57 1_555 1_555

#END
