
#######################################################################
#
#                 Cambridge Crystallographic Data Centre
#                                CCDC 
#
#######################################################################
#
# If this CIF has been generated from an entry in the Cambridge 
# Structural Database, then it will include bibliographic, chemical, 
# crystal, experimental, refinement or atomic coordinate data resulting 
# from the CCDC's data processing and validation procedures.
#
#######################################################################

data_XUXJIK
_chemical_formula_moiety         'C27 H37 N3 O5'
_chemical_name_systematic        
't-Butyl (2S,3R)-4-(4-(benzo[d][1,3]dioxol-5-ylmethyl)piperazin-1-yl)-3-hydroxy-1-phenylbutan-2-ylcarbamate'
_symmetry_cell_setting           orthorhombic
_symmetry_space_group_name_H-M   'P 21 21 21'
_symmetry_Int_Tables_number      19
_space_group_name_Hall           'P 2ac 2ab'
loop_
_symmetry_equiv_pos_site_id
_symmetry_equiv_pos_as_xyz
1 x,y,z
2 1/2-x,-y,1/2+z
3 -x,1/2+y,1/2-z
4 1/2+x,1/2-y,-z
_cell_length_a                   5.5409(15)
_cell_length_b                   17.005(5)
_cell_length_c                   27.202(8)
_cell_angle_alpha                90
_cell_angle_beta                 90
_cell_angle_gamma                90
_cell_volume                     2563.05
_exptl_crystal_colour            colorless
_exptl_crystal_description       plate
_chemical_melting_point          '103-105 deg.C'
_cell_formula_units_Z            4
loop_
_atom_site_label
_atom_site_type_symbol
_atom_site_fract_x
_atom_site_fract_y
_atom_site_fract_z
N1 N 0.5220(5) -0.40762(18) 0.20409(12)
N2 N 0.6038(6) -0.04844(18) 0.07199(11)
H1 H 0.760(8) -0.030(2) 0.0746(14)
N3 N 0.5165(6) -0.29126(17) 0.12661(12)
O1 O 0.7028(8) -0.25447(19) 0.03480(17)
H2 H 0.5760 -0.2651 0.0193
O2 O -0.0231(6) -0.69618(17) 0.20121(11)
O3 O -0.1754(5) -0.67992(16) 0.27973(10)
O4 O 0.4958(5) 0.06774(15) 0.10046(10)
O5 O 0.2025(5) -0.01647(16) 0.07320(10)
C1 C 0.6753(7) -0.2825(2) 0.16939(15)
H3 H 0.5936 -0.2504 0.1948
H4 H 0.8250 -0.2549 0.1595
C2 C 0.7382(7) -0.3625(2) 0.19056(15)
H5 H 0.8324 -0.3926 0.1660
H6 H 0.8406 -0.3553 0.2200
C3 C 0.3676(7) -0.4148(2) 0.16070(13)
H7 H 0.2197 -0.4444 0.1694
H8 H 0.4539 -0.4445 0.1348
C4 C 0.2991(7) -0.3347(2) 0.14139(15)
H9 H 0.1900 -0.3405 0.1128
H10 H 0.2123 -0.3049 0.1672
C5 C 0.5963(7) -0.4856(2) 0.22260(15)
H11 H 0.7100 -0.4785 0.2503
H12 H 0.6827 -0.5141 0.1962
C6 C 0.3862(7) -0.5348(2) 0.23966(15)
C7 C 0.2877(7) -0.5924(2) 0.20809(14)
H13 H 0.3502 -0.6003 0.1760
C8 C 0.0988(8) -0.6364(2) 0.22540(15)
C9 C 0.0081(7) -0.6269(2) 0.27167(14)
C10 C 0.0995(8) -0.5724(2) 0.30379(14)
H14 H 0.0359 -0.5661 0.3360
C11 C 0.2913(7) -0.5265(2) 0.28667(14)
H15 H 0.3593 -0.4882 0.3080
C12 C -0.2082(8) -0.7212(2) 0.23423(14)
H16 H -0.1971 -0.7786 0.2397
H17 H -0.3691 -0.7092 0.2203
C13 C 0.4596(7) -0.2151(2) 0.10342(17)
H18 H 0.4425 -0.1742 0.1291
H19 H 0.3042 -0.2191 0.0856
C14 C 0.6577(8) -0.1915(2) 0.06775(17)
H20 H 0.8084 -0.1806 0.0868
C15 C 0.5874(7) -0.1171(2) 0.03935(14)
H21 H 0.4157 -0.1227 0.0285
C16 C 0.7437(8) -0.1042(2) -0.00646(14)
H22 H 0.9155 -0.1021 0.0034
H23 H 0.7231 -0.1495 -0.0290
C17 C 0.6795(7) -0.0295(2) -0.03329(14)
C18 C 0.4673(8) -0.0231(3) -0.06038(15)
H24 H 0.3612 -0.0669 -0.0624
C19 C 0.4077(8) 0.0463(3) -0.08464(15)
H25 H 0.2636 0.0493 -0.1035
C20 C 0.5579(9) 0.1110(3) -0.08131(15)
H26 H 0.5164 0.1587 -0.0973
C21 C 0.7681(9) 0.1056(3) -0.05462(17)
H27 H 0.8728 0.1497 -0.0524
C22 C 0.8279(8) 0.0356(2) -0.03085(15)
H28 H 0.9738 0.0326 -0.0126
C23 C 0.4144(7) 0.0000(2) 0.08086(14)
C24 C 0.3335(8) 0.1354(2) 0.10696(15)
C25 C 0.5057(10) 0.1979(3) 0.1252(2)
H29 H 0.5828 0.1800 0.1557
H30 H 0.4164 0.2466 0.1316
H31 H 0.6296 0.2077 0.1003
C26 C 0.1434(10) 0.1177(3) 0.14532(19)
H32 H 0.0300 0.0786 0.1324
H33 H 0.0560 0.1660 0.1535
H34 H 0.2212 0.0969 0.1750
C27 C 0.2215(11) 0.1588(3) 0.05839(17)
H35 H 0.3482 0.1638 0.0335
H36 H 0.1379 0.2092 0.0621
H37 H 0.1058 0.1184 0.0481
loop_
_geom_bond_atom_site_label_1
_geom_bond_atom_site_label_2
_geom_bond_site_symmetry_1
_geom_bond_site_symmetry_2
N1 C2 1_555 1_555
N2 H1 1_555 1_555
N3 C1 1_555 1_555
O1 H2 1_555 1_555
O2 C8 1_555 1_555
O3 C9 1_555 1_555
O4 C23 1_555 1_555
O5 C23 1_555 1_555
C1 H3 1_555 1_555
H4 C1 1_555 1_555
C2 C1 1_555 1_555
H5 C2 1_555 1_555
H6 C2 1_555 1_555
C3 N1 1_555 1_555
H7 C3 1_555 1_555
H8 C3 1_555 1_555
C4 N3 1_555 1_555
H9 C4 1_555 1_555
H10 C4 1_555 1_555
C5 N1 1_555 1_555
H11 C5 1_555 1_555
H12 C5 1_555 1_555
C6 C5 1_555 1_555
C7 C6 1_555 1_555
H13 C7 1_555 1_555
C8 C7 1_555 1_555
C9 C8 1_555 1_555
C10 C9 1_555 1_555
H14 C10 1_555 1_555
C11 C6 1_555 1_555
H15 C11 1_555 1_555
C12 O2 1_555 1_555
H16 C12 1_555 1_555
H17 C12 1_555 1_555
C13 N3 1_555 1_555
H18 C13 1_555 1_555
H19 C13 1_555 1_555
C14 O1 1_555 1_555
H20 C14 1_555 1_555
C15 N2 1_555 1_555
H21 C15 1_555 1_555
C16 C15 1_555 1_555
H22 C16 1_555 1_555
H23 C16 1_555 1_555
C17 C16 1_555 1_555
C18 C17 1_555 1_555
H24 C18 1_555 1_555
C19 C18 1_555 1_555
H25 C19 1_555 1_555
C20 C19 1_555 1_555
H26 C20 1_555 1_555
C21 C20 1_555 1_555
H27 C21 1_555 1_555
C22 C17 1_555 1_555
H28 C22 1_555 1_555
C23 N2 1_555 1_555
C24 O4 1_555 1_555
C25 C24 1_555 1_555
H29 C25 1_555 1_555
H30 C25 1_555 1_555
H31 C25 1_555 1_555
C26 C24 1_555 1_555
H32 C26 1_555 1_555
H33 C26 1_555 1_555
H34 C26 1_555 1_555
C27 C24 1_555 1_555
H35 C27 1_555 1_555
H36 C27 1_555 1_555
H37 C27 1_555 1_555
O3 C12 1_555 1_555
C3 C4 1_555 1_555
C10 C11 1_555 1_555
C13 C14 1_555 1_555
C14 C15 1_555 1_555
C21 C22 1_555 1_555

#END
