
#######################################################################
#
#                 Cambridge Crystallographic Data Centre
#                                CCDC 
#
#######################################################################
#
# If this CIF has been generated from an entry in the Cambridge 
# Structural Database, then it will include bibliographic, chemical, 
# crystal, experimental, refinement or atomic coordinate data resulting 
# from the CCDC's data processing and validation procedures.
#
#######################################################################

data_XUXJOQ
_chemical_formula_moiety         'C28 H34 N4 O5 S1'
_chemical_name_systematic        
(2S,3R)-4-(4-(4-Nitrobenzyl)piperazin-1-yl)-3-hydroxy-1-phenyl-2-(4-toluenesulfonamido)butane
_symmetry_cell_setting           orthorhombic
_symmetry_space_group_name_H-M   'P 21 21 21'
_symmetry_Int_Tables_number      19
_space_group_name_Hall           'P 2ac 2ab'
loop_
_symmetry_equiv_pos_site_id
_symmetry_equiv_pos_as_xyz
1 x,y,z
2 1/2-x,-y,1/2+z
3 1/2+x,1/2-y,-z
4 -x,1/2+y,1/2-z
_cell_length_a                   5.5552(2)
_cell_length_b                   19.2012(8)
_cell_length_c                   25.2029(9)
_cell_angle_alpha                90
_cell_angle_beta                 90
_cell_angle_gamma                90
_cell_volume                     2688.31
_exptl_crystal_colour            colorless
_exptl_crystal_description       needle
_cell_formula_units_Z            4
loop_
_atom_site_label
_atom_site_type_symbol
_atom_site_fract_x
_atom_site_fract_y
_atom_site_fract_z
N1 N 0.5309(5) 0.50012(16) 0.39097(12)
N2 N 0.8241(6) 0.15433(17) 0.35234(11)
H1 H 0.985(7) 0.1574(19) 0.3399(14)
N3 N 1.2654(6) 0.75827(17) 0.39181(14)
N4 N 0.5404(6) 0.35109(17) 0.40696(12)
O1 O 0.6788(5) 0.24360(15) 0.47881(9)
H2 H 0.5277 0.2448 0.4801
O2 O 1.3405(6) 0.77402(15) 0.34760(11)
O3 O 1.3555(5) 0.78084(15) 0.43291(11)
O4 O 0.7064(6) 0.17164(15) 0.25967(10)
O5 O 0.4056(4) 0.13216(14) 0.32644(10)
S1 S 0.64598(19) 0.13037(5) 0.30492(4)
C1 C 0.9166(9) -0.1679(2) 0.25249(18)
H3 H 0.9836 -0.1711 0.2166
H4 H 0.7738 -0.1977 0.2551
H5 H 1.0374 -0.1833 0.2783
C2 C 0.6925(7) 0.4678(2) 0.42940(14)
H6 H 0.6141 0.4667 0.4647
H7 H 0.8414 0.4959 0.4324
C3 C 0.7564(7) 0.39390(19) 0.41235(16)
H8 H 0.8428 0.3954 0.3780
H9 H 0.8650 0.3727 0.4390
C4 C 0.3150(7) 0.4579(2) 0.38660(16)
H10 H 0.2037 0.4791 0.3605
H11 H 0.2321 0.4561 0.4213
C5 C 0.3805(7) 0.3850(2) 0.36912(15)
H12 H 0.2319 0.3570 0.3653
H13 H 0.4603 0.3872 0.3340
C6 C 0.4640(7) 0.5710(2) 0.40694(17)
H14 H 0.4036 0.5702 0.4439
H15 H 0.3320 0.5878 0.3839
C7 C 0.6751(7) 0.6211(2) 0.40326(14)
C8 C 0.7669(7) 0.6524(2) 0.44831(15)
H16 H 0.6960 0.6430 0.4819
C9 C 0.9625(7) 0.6975(2) 0.44489(16)
H17 H 1.0281 0.7185 0.4758
C10 C 1.0583(7) 0.71073(19) 0.39559(15)
C11 C 0.9689(8) 0.6816(2) 0.34964(16)
H18 H 1.0372 0.6921 0.3160
C12 C 0.7755(7) 0.6363(2) 0.35431(15)
H19 H 0.7106 0.6153 0.3233
C13 C 0.5951(7) 0.2815(2) 0.38814(14)
H20 H 0.6758 0.2853 0.3532
H21 H 0.4419 0.2562 0.3827
C14 C 0.7541(7) 0.23855(19) 0.42491(13)
H22 H 0.9221 0.2569 0.4223
C15 C 0.7573(7) 0.16152(19) 0.40875(13)
H23 H 0.5901 0.1430 0.4130
C16 C 0.9226(7) 0.11819(19) 0.44411(14)
H24 H 1.0919 0.1313 0.4368
H25 H 0.8883 0.1293 0.4817
C17 C 0.8937(7) 0.0410(2) 0.43580(13)
C18 C 0.6897(7) 0.0066(2) 0.45372(14)
H26 H 0.5677 0.0321 0.4716
C19 C 0.6607(8) -0.0644(2) 0.44609(15)
H27 H 0.5205 -0.0872 0.4589
C20 C 0.8351(8) -0.1018(2) 0.41989(15)
H28 H 0.8154 -0.1504 0.4144
C21 C 1.0383(7) -0.0686(2) 0.40157(16)
H29 H 1.1590 -0.0943 0.3834
C22 C 1.0667(7) 0.0022(2) 0.40958(15)
H30 H 1.2077 0.0247 0.3968
C23 C 0.7197(7) 0.0434(2) 0.28885(13)
C24 C 0.9295(7) 0.0303(2) 0.26117(15)
H31 H 1.0312 0.0677 0.2507
C25 C 0.9911(8) -0.0382(3) 0.24861(17)
H32 H 1.1342 -0.0472 0.2291
C26 C 0.8469(9) -0.0931(2) 0.26409(15)
C27 C 0.6350(9) -0.0789(2) 0.29141(15)
H33 H 0.5329 -0.1162 0.3017
C28 C 0.5705(8) -0.0109(2) 0.30390(15)
H34 H 0.4253 -0.0017 0.3226
loop_
_geom_bond_atom_site_label_1
_geom_bond_atom_site_label_2
_geom_bond_site_symmetry_1
_geom_bond_site_symmetry_2
N1 C2 1_555 1_555
N2 H1 1_555 1_555
N3 O2 1_555 1_555
N4 C3 1_555 1_555
O1 H2 1_555 1_555
O3 N3 1_555 1_555
O4 S1 1_555 1_555
O5 S1 1_555 1_555
S1 N2 1_555 1_555
C1 H3 1_555 1_555
H4 C1 1_555 1_555
H5 C1 1_555 1_555
C2 H6 1_555 1_555
H7 C2 1_555 1_555
C3 C2 1_555 1_555
H8 C3 1_555 1_555
H9 C3 1_555 1_555
C4 N1 1_555 1_555
H10 C4 1_555 1_555
H11 C4 1_555 1_555
C5 N4 1_555 1_555
H12 C5 1_555 1_555
H13 C5 1_555 1_555
C6 N1 1_555 1_555
H14 C6 1_555 1_555
H15 C6 1_555 1_555
C7 C6 1_555 1_555
C8 C7 1_555 1_555
H16 C8 1_555 1_555
C9 C8 1_555 1_555
H17 C9 1_555 1_555
C10 N3 1_555 1_555
C11 C10 1_555 1_555
H18 C11 1_555 1_555
C12 C7 1_555 1_555
H19 C12 1_555 1_555
C13 N4 1_555 1_555
H20 C13 1_555 1_555
H21 C13 1_555 1_555
C14 O1 1_555 1_555
H22 C14 1_555 1_555
C15 N2 1_555 1_555
H23 C15 1_555 1_555
C16 C15 1_555 1_555
H24 C16 1_555 1_555
H25 C16 1_555 1_555
C17 C16 1_555 1_555
C18 C17 1_555 1_555
H26 C18 1_555 1_555
C19 C18 1_555 1_555
H27 C19 1_555 1_555
C20 C19 1_555 1_555
H28 C20 1_555 1_555
C21 C20 1_555 1_555
H29 C21 1_555 1_555
C22 C17 1_555 1_555
H30 C22 1_555 1_555
C23 S1 1_555 1_555
C24 C23 1_555 1_555
H31 C24 1_555 1_555
C25 C24 1_555 1_555
H32 C25 1_555 1_555
C26 C1 1_555 1_555
C27 C26 1_555 1_555
H33 C27 1_555 1_555
C28 C23 1_555 1_555
H34 C28 1_555 1_555
C4 C5 1_555 1_555
C9 C10 1_555 1_555
C11 C12 1_555 1_555
C13 C14 1_555 1_555
C14 C15 1_555 1_555
C21 C22 1_555 1_555
C25 C26 1_555 1_555
C27 C28 1_555 1_555

#END
