
#######################################################################
#
#                 Cambridge Crystallographic Data Centre
#                                CCDC 
#
#######################################################################
#
# If this CIF has been generated from an entry in the Cambridge 
# Structural Database, then it will include bibliographic, chemical, 
# crystal, experimental, refinement or atomic coordinate data resulting 
# from the CCDC's data processing and validation procedures.
#
#######################################################################

data_XUXNUZ
_chemical_compound_source        'Phyllanthus niruri Linn'
_chemical_formula_moiety         'C20 H38 N2 O2'
_chemical_name_systematic        1,12-Diazacyclodocosane-2,11-dione
_symmetry_cell_setting           triclinic
_symmetry_space_group_name_H-M   'P -1'
_symmetry_Int_Tables_number      2
_space_group_name_Hall           '-P 1'
loop_
_symmetry_equiv_pos_site_id
_symmetry_equiv_pos_as_xyz
1 x,y,z
2 -x,-y,-z
_cell_length_a                   9.588(1)
_cell_length_b                   9.850(1)
_cell_length_c                   11.810(1)
_cell_angle_alpha                68.18(1)
_cell_angle_beta                 84.98(1)
_cell_angle_gamma                86.03(1)
_cell_volume                     1030.66
_cell_formula_units_Z            2
_exptl_crystal_recrystallization_method methanol
loop_
_atom_site_label
_atom_site_type_symbol
_atom_site_fract_x
_atom_site_fract_y
_atom_site_fract_z
O1 O 0.4069(2) 0.3093(2) 0.2007(2)
O2 O 1.0988(2) -0.4126(2) 0.8473(2)
N1 N 0.6252(2) 0.3377(2) 0.1125(2)
N2 N 0.8800(2) -0.4263(2) 0.8033(2)
C1 C 0.5935(3) 0.3120(3) 0.0043(2)
C2 C 0.6652(3) 0.1710(3) -0.0006(2)
C3 C 0.6300(3) 0.0353(2) 0.1092(2)
C4 C 0.7016(3) -0.1038(3) 0.1016(2)
C5 C 0.6803(3) -0.2410(3) 0.2154(2)
C6 C 0.7562(3) -0.2417(3) 0.3235(2)
C7 C 0.7425(3) -0.3815(3) 0.4360(2)
C8 C 0.8275(3) -0.3837(3) 0.5398(2)
C9 C 0.8175(3) -0.5238(3) 0.6507(2)
C10 C 0.9139(3) -0.5354(3) 0.7492(2)
C11 C 0.9740(2) -0.3725(3) 0.8488(2)
C12 C 0.9244(3) -0.2562(3) 0.8986(2)
C13 C 0.9805(4) -0.1077(3) 0.8209(3)
C14 C 0.9481(6) -0.0259(7) 0.6888(4)
C15 C 0.7989(5) 0.0315(7) 0.6864(5)
C16 C 0.7655(7) 0.0901(13) 0.5528(6)
C17 C 0.6229(4) 0.1669(4) 0.5425(3)
C18 C 0.5556(4) 0.1899(3) 0.4258(3)
C19 C 0.5867(2) 0.3314(3) 0.3187(2)
C20 C 0.5317(2) 0.3273(2) 0.2048(2)
C21? C 0.8897(13) -0.0715(8) 0.7127(7)
C22? C 0.8847(13) 0.0893(7) 0.6333(9)
C23? C 0.7804(6) 0.1420(20) 0.5343(10)
loop_
_geom_bond_atom_site_label_1
_geom_bond_atom_site_label_2
_geom_bond_site_symmetry_1
_geom_bond_site_symmetry_2
O1 C20 1_555 1_555
O2 C11 1_555 1_555
N1 C1 1_555 1_555
N2 C10 1_555 1_555
C1 C2 1_555 1_555
C2 C3 1_555 1_555
C3 C4 1_555 1_555
C4 C5 1_555 1_555
C5 C6 1_555 1_555
C6 C7 1_555 1_555
C7 C8 1_555 1_555
C8 C9 1_555 1_555
C9 C10 1_555 1_555
C11 N2 1_555 1_555
C12 C11 1_555 1_555
C13 C12 1_555 1_555
C14 C13 1_555 1_555
C15 C14 1_555 1_555
C16 C15 1_555 1_555
C17 C16 1_555 1_555
C18 C17 1_555 1_555
C19 C18 1_555 1_555
C20 N1 1_555 1_555
C19 C20 1_555 1_555

#END
