
#######################################################################
#
#                 Cambridge Crystallographic Data Centre
#                                CCDC 
#
#######################################################################
#
# If this CIF has been generated from an entry in the Cambridge 
# Structural Database, then it will include bibliographic, chemical, 
# crystal, experimental, refinement or atomic coordinate data resulting 
# from the CCDC's data processing and validation procedures.
#
#######################################################################

data_XUXNOT
_chemical_name_common            Bistrifluron
_chemical_formula_moiety         'C16 H7 Cl1 F8 N2 O2'
_chemical_name_systematic        
N-(((2-Chloro-3,5-bis(trifluoromethyl)phenyl)amino)carbonyl)-2,6-difluorobenzamide
_chemical_properties_biological  
'insecticide, an inhibitor of insect development and interferes with the cuticle formation of insects'
_symmetry_cell_setting           triclinic
_symmetry_space_group_name_H-M   'P -1'
_symmetry_Int_Tables_number      2
_space_group_name_Hall           '-P 1'
loop_
_symmetry_equiv_pos_site_id
_symmetry_equiv_pos_as_xyz
1 x,y,z
2 -x,-y,-z
_cell_length_a                   7.794(3)
_cell_length_b                   15.272(6)
_cell_length_c                   15.288(6)
_cell_angle_alpha                89.00(3)
_cell_angle_beta                 77.64(3)
_cell_angle_gamma                79.12(3)
_cell_volume                     1745.1
_cell_formula_units_Z            4
loop_
_atom_site_label
_atom_site_type_symbol
_atom_site_fract_x
_atom_site_fract_y
_atom_site_fract_z
C1 C 0.4676(9) 0.4244(4) 0.1013(4)
C2 C 0.4958(10) 0.5066(4) 0.1241(4)
C3 C 0.3523(13) 0.5762(5) 0.1365(5)
C4 C 0.1866(11) 0.5651(4) 0.1272(5)
C5 C 0.1648(10) 0.4803(4) 0.1058(4)
C6 C 0.3052(9) 0.4084(3) 0.0919(3)
C7 C 0.2869(8) 0.3182(3) 0.0625(3)
C8 C 0.1233(7) 0.1940(3) 0.1119(3)
C9 C 0.2307(6) 0.0545(3) 0.0204(3)
C10 C 0.1551(6) -0.0025(3) 0.0821(3)
C11 C 0.1707(6) -0.0908(3) 0.0600(3)
C12 C 0.2567(6) -0.1237(3) -0.0252(3)
C13 C 0.3324(6) -0.0680(3) -0.0879(3)
C14 C 0.3213(6) 0.0207(3) -0.0646(3)
C15 C 0.0984(8) -0.1529(4) 0.1283(4)
C16 C 0.4239(8) -0.1048(4) -0.1797(4)
Cl1 Cl 0.4220(2) 0.0916(1) -0.1395(1)
F1 F 0.6083(5) 0.3561(2) 0.0899(3)
F2 F 0.0039(5) 0.4685(2) 0.0950(2)
F3 F -0.0405(4) -0.1119(2) 0.1894(2)
F4 F 0.0424(5) -0.2186(2) 0.0927(2)
F5 F 0.2196(5) -0.1913(2) 0.1739(2)
F6 F 0.5950(5) -0.0969(3) -0.2008(2)
F7 F 0.4227(6) -0.1914(2) -0.1874(2)
F8 F 0.3473(5) -0.0650(2) -0.2427(2)
N1 N 0.1563(6) 0.2808(2) 0.1162(3)
N2 N 0.2241(5) 0.1448(2) 0.0399(2)
O1 O 0.3887(6) 0.2803(2) -0.0039(3)
O2 O 0.0143(5) 0.1686(2) 0.1708(2)
loop_
_geom_bond_atom_site_label_1
_geom_bond_atom_site_label_2
_geom_bond_site_symmetry_1
_geom_bond_site_symmetry_2
C1 C2 1_555 1_555
C2 C3 1_555 1_555
C3 C4 1_555 1_555
C4 C5 1_555 1_555
C5 C6 1_555 1_555
C6 C1 1_555 1_555
C7 C6 1_555 1_555
C8 N1 1_555 1_555
C9 C10 1_555 1_555
C10 C11 1_555 1_555
C11 C12 1_555 1_555
C12 C13 1_555 1_555
C13 C14 1_555 1_555
C14 C9 1_555 1_555
C15 C11 1_555 1_555
C16 C13 1_555 1_555
Cl1 C14 1_555 1_555
F1 C1 1_555 1_555
F2 C5 1_555 1_555
F3 C15 1_555 1_555
F4 C15 1_555 1_555
F5 C15 1_555 1_555
F6 C16 1_555 1_555
F7 C16 1_555 1_555
F8 C16 1_555 1_555
N1 C7 1_555 1_555
N2 C8 1_555 1_555
O1 C7 1_555 1_555
O2 C8 1_555 1_555
C9 N2 1_555 1_555

#END
