
#######################################################################
#
#                 Cambridge Crystallographic Data Centre
#                                CCDC 
#
#######################################################################
#
# If this CIF has been generated from an entry in the Cambridge 
# Structural Database, then it will include bibliographic, chemical, 
# crystal, experimental, refinement or atomic coordinate data resulting 
# from the CCDC's data processing and validation procedures.
#
#######################################################################

data_XUXQUC
_chemical_formula_moiety         'C18 H18 N6 O2'
_chemical_name_systematic        
N,N'-Diphenyl-3,6-dimethyl-1,4-dihydro-S-tetrazine-1,4-dicarboxamide
_symmetry_cell_setting           monoclinic
_symmetry_space_group_name_H-M   'P 21/c'
_symmetry_Int_Tables_number      14
_space_group_name_Hall           '-P 2ybc'
loop_
_symmetry_equiv_pos_site_id
_symmetry_equiv_pos_as_xyz
1 x,y,z
2 -x,1/2+y,1/2-z
3 -x,-y,-z
4 x,1/2-y,1/2+z
_cell_length_a                   9.348(2)
_cell_length_b                   6.860(6)
_cell_length_c                   27.929(7)
_cell_angle_alpha                90
_cell_angle_beta                 94.57(2)
_cell_angle_gamma                90
_cell_volume                     1785.32
_cell_formula_units_Z            4
loop_
_atom_site_label
_atom_site_type_symbol
_atom_site_fract_x
_atom_site_fract_y
_atom_site_fract_z
C1 C 0.2129(6) -0.4054(10) 0.1108(2)
C2 C 0.2465(7) -0.5672(10) 0.0857(2)
C3 C 0.3711(8) -0.5707(12) 0.0616(2)
C4 C 0.4553(7) -0.4119(13) 0.0628(2)
C5 C 0.4219(7) -0.2427(11) 0.0878(2)
C6 C 0.2982(6) -0.2425(10) 0.1122(2)
C7 C 0.3473(6) 0.0460(9) 0.1626(2)
C8 C 0.3584(6) 0.3341(10) 0.2159(2)
C9 C 0.0779(6) 0.2722(9) 0.2207(2)
C10 C 0.4980(96) 0.4097(11) 0.2017(2)
C11 C -0.0784(6) 0.3148(9) 0.2182(2)
C12 C 0.1289(6) 0.3401(9) 0.3078(2)
C13 C 0.2122(6) 0.4466(11) 0.3890(2)
C14 C 0.2599(8) 0.6168(13) 0.4101(2)
C15 C 0.2477(9) 0.6425(17) 0.4591(3)
C16 C 0.1895(10) 0.5050(2) 0.4856(3)
C17 C 0.1439(9) 0.3310(2) 0.4651(3)
C18 C 0.1557(7) 0.3015(13) 0.4154(2)
O1 O 0.4785(4) 0.0407(7) 0.1617(2)
O2 O 0.0126(4) 0.2829(7) 0.3177(1)
N1 N 0.2566(5) -0.0783(8) 0.1386(2)
N2 N 0.2840(5) 0.1810(8) 0.1913(2)
N3 N 0.3023(5) 0.4133(8) 0.2510(2)
N4 N 0.1707(5) 0.3285(8) 0.2612(2)
N5 N 0.1329(5) 0.2061(8) 0.1845(2)
N6 N 0.2305(5) 0.4203(8) 0.3392(2)
loop_
_geom_bond_atom_site_label_1
_geom_bond_atom_site_label_2
_geom_bond_site_symmetry_1
_geom_bond_site_symmetry_2
C1 C2 1_555 1_555
C2 C3 1_555 1_555
C3 C4 1_555 1_555
C4 C5 1_555 1_555
C5 C6 1_555 1_555
C6 C1 1_555 1_555
C7 O1 1_555 1_555
C8 C10 1_555 1_555
C9 C11 1_555 1_555
C12 O2 1_555 1_555
C13 C14 1_555 1_555
C14 C15 1_555 1_555
C15 C16 1_555 1_555
C16 C17 1_555 1_555
C17 C18 1_555 1_555
C18 C13 1_555 1_555
N1 C6 1_555 1_555
N2 C7 1_555 1_555
N3 C8 1_555 1_555
N4 C9 1_555 1_555
N5 C9 1_555 1_555
N6 C12 1_555 1_555
C7 N1 1_555 1_555
C8 N2 1_555 1_555
C12 N4 1_555 1_555
C13 N6 1_555 1_555
N2 N5 1_555 1_555
N3 N4 1_555 1_555

#END
