
#######################################################################
#
#                 Cambridge Crystallographic Data Centre
#                                CCDC 
#
#######################################################################
#
# If this CIF has been generated from an entry in the Cambridge 
# Structural Database, then it will include bibliographic, chemical, 
# crystal, experimental, refinement or atomic coordinate data resulting 
# from the CCDC's data processing and validation procedures.
#
#######################################################################

data_XUXTOB
_chemical_name_common            MOSC-1-Mg
_chemical_formula_moiety         'C312 H300 Mg24 O126 S24'
_chemical_name_systematic        
'octakis(\m-benzene-1,3,5-tricarboxylato)-hexakis(\m-5,11,17,23-tetra-t-butyl-2,2,8,8,14,14,20,20-octaoxo-2,8,14,20-tetrathiacalix[4]arene-25,26,27,28-tetrolato)-hexakis(\m-aqua)-tetracosa-magnesium(ii) unknown solvate'
_symmetry_cell_setting           tetragonal
_symmetry_space_group_name_H-M   'I 4/m'
_symmetry_Int_Tables_number      87
_space_group_name_Hall           '-I 4'
loop_
_symmetry_equiv_pos_site_id
_symmetry_equiv_pos_as_xyz
1 x,y,z
2 -x,-y,z
3 -y,x,z
4 y,-x,z
5 1/2+x,1/2+y,1/2+z
6 1/2-x,1/2-y,1/2+z
7 1/2-y,1/2+x,1/2+z
8 1/2+y,1/2-x,1/2+z
9 -x,-y,-z
10 x,y,-z
11 y,-x,-z
12 -y,x,-z
13 1/2-x,1/2-y,1/2-z
14 1/2+x,1/2+y,1/2-z
15 1/2+y,1/2-x,1/2-z
16 1/2-y,1/2+x,1/2-z
_cell_length_a                   26.1265(12)
_cell_length_b                   26.1265(12)
_cell_length_c                   43.923(4)
_cell_angle_alpha                90
_cell_angle_beta                 90
_cell_angle_gamma                90
_cell_volume                     29981.6
_exptl_crystal_colour            colorless
_exptl_crystal_description       block
_cell_formula_units_Z            2
loop_
_atom_site_label
_atom_site_type_symbol
_atom_site_fract_x
_atom_site_fract_y
_atom_site_fract_z
Mg1 Mg 0.20975(16) 0.40885(16) 0.0000
Mg2 Mg 0.25462(11) 0.34015(11) 0.04868(6)
Mg3 Mg 0.29887(16) 0.27146(16) 0.0000
Mg4 Mg 0.43126(11) 0.45557(12) 0.17489(7)
S1 S 0.09259(17) 0.41651(14) 0.0000
S2 S 0.17365(12) 0.28951(10) 0.09000(7)
S3 S 0.25481(15) 0.16133(18) 0.0000
S4 S 0.37279(14) 0.41738(13) 0.23175(9)
O1 O 0.2730(3) 0.3512(3) 0.0000
O2 O 0.1410(4) 0.4430(3) 0.0000
O3 O 0.0478(3) 0.4474(3) 0.0000
O4 O 0.1822(2) 0.3612(2) 0.03395(13)
O5 O 0.2210(2) 0.3190(2) 0.08902(11)
O6 O 0.1545(2) 0.2755(2) 0.11975(16)
O7 O 0.2421(2) 0.2654(2) 0.03381(13)
O8 O 0.3006(4) 0.1939(3) 0.0000
O9 O 0.2625(3) 0.1078(3) 0.0000
O10 O 0.5000 0.5000 0.1615(2)
O11 O 0.3747(2) 0.4185(2) 0.19967(19)
O12 O 0.3312(3) 0.3902(3) 0.24463(16)
O13 O 0.4217(3) 0.5168(2) 0.20502(17)
O14 O 0.3227(3) 0.3257(2) 0.06673(14)
O15 O 0.3559(2) 0.2744(3) 0.02955(18)
O16 O 0.4343(2) 0.3959(2) 0.14513(12)
O17 O 0.5183(2) 0.3796(2) 0.14555(12)
O18 O 0.5401(2) 0.2371(2) 0.03067(15)
O19 O 0.5899(2) 0.2688(2) 0.06658(13)
C1 C 0.1363(4) 0.3547(3) 0.0448(2)
C2 C 0.0891(4) 0.3763(3) 0.0316(2)
C3 C 0.0419(4) 0.3706(4) 0.0445(3)
H1 H 0.0136 0.3877 0.0355
C4 C 0.0337(5) 0.3410(5) 0.0701(3)
C5 C 0.0775(6) 0.3187(4) 0.0827(2)
H2 H 0.0736 0.2999 0.1010
C6 C 0.1250(4) 0.3219(3) 0.0708(2)
C7 C -0.0198(5) 0.3375(6) 0.0856(3)
C8 C -0.0584(6) 0.3218(7) 0.0609(3)
H3 H -0.0910 0.3124 0.0705
H4 H -0.0450 0.2924 0.0495
H5 H -0.0639 0.3505 0.0469
C9 C -0.0302(6) 0.3930(6) 0.0970(4)
H6 H -0.0209 0.4175 0.0811
H7 H -0.0097 0.3996 0.1153
H8 H -0.0666 0.3967 0.1020
C10 C -0.0160(5) 0.2987(6) 0.1116(3)
H9 H -0.0067 0.3164 0.1304
H10 H 0.0103 0.2732 0.1067
H11 H -0.0490 0.2815 0.1142
C11 C 0.2164(4) 0.2277(5) 0.0447(3)
C12 C 0.1830(5) 0.2314(4) 0.0690(3)
C13 C 0.1538(5) 0.1912(5) 0.0811(3)
H12 H 0.1334 0.1965 0.0988
C14 C 0.1550(4) 0.1419(4) 0.0667(3)
C15 C 0.1881(4) 0.1373(4) 0.0443(3)
H13 H 0.1923 0.1044 0.0354
C16 C 0.2184(4) 0.1785(4) 0.0325(2)
C17 C 0.1191(6) 0.0960(5) 0.0766(4)
C18 C 0.0874(6) 0.1089(5) 0.1037(4)
H14 H 0.0584 0.0852 0.1050
H15 H 0.0747 0.1441 0.1017
H16 H 0.1083 0.1060 0.1221
C19 C 0.0821(7) 0.0814(7) 0.0488(4)
H17 H 0.0521 0.0630 0.0565
H18 H 0.1006 0.0596 0.0343
H19 H 0.0710 0.1128 0.0385
C20 C 0.1555(5) 0.0505(5) 0.0813(3)
H20 H 0.1823 0.0601 0.0959
H21 H 0.1712 0.0413 0.0618
H22 H 0.1362 0.0213 0.0893
C21 C 0.3940(5) 0.5210(6) 0.2301(3)
C22 C 0.3899(4) 0.5705(5) 0.2452(3)
C23 C 0.3566(6) 0.5768(6) 0.2699(4)
H23 H 0.3515 0.6098 0.2784
C24 C 0.3320(6) 0.5366(8) 0.2818(4)
C25 C 0.3386(6) 0.4884(6) 0.2707(3)
H24 H 0.3223 0.4603 0.2803
C26 C 0.3704(5) 0.4799(6) 0.2444(3)
C27 C 0.3022(6) 0.5461(6) 0.3140(4)
C28 C 0.3020(7) 0.6001(7) 0.3244(4)
H25 H 0.2883 0.6020 0.3451
H26 H 0.2804 0.6206 0.3107
H27 H 0.3370 0.6136 0.3241
C29 C 0.3309(8) 0.5139(8) 0.3373(4)
H28 H 0.3678 0.5190 0.3348
H29 H 0.3226 0.4777 0.3343
H30 H 0.3208 0.5244 0.3579
C30 C 0.2517(7) 0.5230(8) 0.3058(4)
H31 H 0.2463 0.4918 0.3178
H32 H 0.2514 0.5145 0.2841
H33 H 0.2243 0.5475 0.3102
C31 C 0.41132(19) 0.3044(2) 0.06871(15)
C32 C 0.4172(2) 0.3339(2) 0.09480(15)
H34 H 0.3884 0.3505 0.1036
C33 C 0.4653(3) 0.3391(2) 0.10805(12)
C34 C 0.50738(19) 0.3148(2) 0.09521(13)
H35 H 0.5402 0.3184 0.1043
C35 C 0.5015(2) 0.2853(2) 0.06912(13)
C36 C 0.4534(3) 0.2801(2) 0.05586(12)
H36 H 0.4494 0.2599 0.0380
C37 C 0.3599(5) 0.3005(5) 0.0547(3)
C38 C 0.4757(5) 0.3746(4) 0.1360(2)
C39 C 0.5480(4) 0.2620(4) 0.0550(3)
S2I S 0.17365(12) 0.28951(10) -0.09000(7)
O4I O 0.1822(2) 0.3612(2) -0.03395(13)
O5I O 0.2210(2) 0.3190(2) -0.08902(11)
O6I O 0.1545(2) 0.2755(2) -0.11975(16)
O7I O 0.2421(2) 0.2654(2) -0.03381(13)
C1I C 0.1363(4) 0.3547(3) -0.0448(2)
C2I C 0.0891(4) 0.3763(3) -0.0316(2)
C3I C 0.0419(4) 0.3706(4) -0.0445(3)
H1I H 0.0136 0.3877 -0.0355
C4I C 0.0337(5) 0.3410(5) -0.0701(3)
C5I C 0.0775(6) 0.3187(4) -0.0827(2)
H2I H 0.0736 0.2999 -0.1010
C6I C 0.1250(4) 0.3219(3) -0.0708(2)
C7I C -0.0198(5) 0.3375(6) -0.0856(3)
C8I C -0.0584(6) 0.3218(7) -0.0609(3)
H3I H -0.0910 0.3124 -0.0705
H4I H -0.0450 0.2924 -0.0495
H5I H -0.0639 0.3505 -0.0469
C9I C -0.0302(6) 0.3930(6) -0.0970(4)
H6I H -0.0209 0.4175 -0.0811
H7I H -0.0097 0.3996 -0.1153
H8I H -0.0666 0.3967 -0.1020
C10I C -0.0160(5) 0.2987(6) -0.1116(3)
H9I H -0.0067 0.3164 -0.1304
H10I H 0.0103 0.2732 -0.1067
H11I H -0.0490 0.2815 -0.1142
C11I C 0.2164(4) 0.2277(5) -0.0447(3)
C12I C 0.1830(5) 0.2314(4) -0.0690(3)
C13I C 0.1538(5) 0.1912(5) -0.0811(3)
H12I H 0.1334 0.1965 -0.0988
C14I C 0.1550(4) 0.1419(4) -0.0667(3)
C15I C 0.1881(4) 0.1373(4) -0.0443(3)
H13I H 0.1923 0.1044 -0.0354
C16I C 0.2184(4) 0.1785(4) -0.0325(2)
C17I C 0.1191(6) 0.0960(5) -0.0766(4)
C18I C 0.0874(6) 0.1089(5) -0.1037(4)
H14I H 0.0584 0.0852 -0.1050
H15I H 0.0747 0.1441 -0.1017
H16I H 0.1083 0.1060 -0.1221
C19I C 0.0821(7) 0.0814(7) -0.0488(4)
H17I H 0.0521 0.0630 -0.0565
H18I H 0.1006 0.0596 -0.0343
H19I H 0.0710 0.1128 -0.0385
C20I C 0.1555(5) 0.0505(5) -0.0813(3)
H20I H 0.1823 0.0601 -0.0959
H21I H 0.1712 0.0413 -0.0618
H22I H 0.1362 0.0213 -0.0893
S4B S 0.58262(13) 0.37279(14) 0.23175(9)
O11B O 0.5815(2) 0.3747(2) 0.19967(19)
O12B O 0.6098(3) 0.3312(3) 0.24463(16)
O13B O 0.4832(2) 0.4217(3) 0.20502(17)
C21B C 0.4790(6) 0.3940(5) 0.2301(3)
C22B C 0.4295(5) 0.3899(4) 0.2452(3)
C23B C 0.4232(6) 0.3566(6) 0.2699(4)
H23B H 0.3902 0.3515 0.2784
C24B C 0.4634(8) 0.3320(6) 0.2818(4)
C25B C 0.5116(6) 0.3386(6) 0.2707(3)
H24B H 0.5397 0.3223 0.2803
C26B C 0.5201(6) 0.3704(5) 0.2444(3)
C27B C 0.4539(6) 0.3022(6) 0.3140(4)
C28B C 0.3999(7) 0.3020(7) 0.3244(4)
H25B H 0.3980 0.2883 0.3451
H26B H 0.3794 0.2804 0.3107
H27B H 0.3864 0.3370 0.3241
C29B C 0.4861(8) 0.3309(8) 0.3373(4)
H28B H 0.4810 0.3678 0.3348
H29B H 0.5223 0.3226 0.3343
H30B H 0.4756 0.3208 0.3579
C30B C 0.4770(8) 0.2517(7) 0.3058(4)
H31B H 0.5082 0.2463 0.3178
H32B H 0.4855 0.2514 0.2841
H33B H 0.4525 0.2243 0.3102
S4C S 0.41738(13) 0.62721(14) 0.23175(9)
O11C O 0.4185(2) 0.6253(2) 0.19967(19)
O12C O 0.3902(3) 0.6688(3) 0.24463(16)
O13C O 0.5168(2) 0.5783(3) 0.20502(17)
C21C C 0.5210(6) 0.6060(5) 0.2301(3)
C22C C 0.5705(5) 0.6101(4) 0.2452(3)
C23C C 0.5768(6) 0.6434(6) 0.2699(4)
H23C H 0.6098 0.6485 0.2784
C24C C 0.5366(8) 0.6680(6) 0.2818(4)
C25C C 0.4884(6) 0.6614(6) 0.2707(3)
H24C H 0.4603 0.6777 0.2803
C26C C 0.4799(6) 0.6296(5) 0.2444(3)
C27C C 0.5461(6) 0.6978(6) 0.3140(4)
C28C C 0.6001(7) 0.6980(7) 0.3244(4)
H25C H 0.6020 0.7117 0.3451
H26C H 0.6206 0.7196 0.3107
H27C H 0.6136 0.6630 0.3241
C29C C 0.5139(8) 0.6691(8) 0.3373(4)
H28C H 0.5190 0.6322 0.3348
H29C H 0.4777 0.6774 0.3343
H30C H 0.5244 0.6792 0.3579
C30C C 0.5230(8) 0.7483(7) 0.3058(4)
H31C H 0.4918 0.7537 0.3178
H32C H 0.5145 0.7486 0.2841
H33C H 0.5475 0.7757 0.3102
S4A S 0.62721(14) 0.58262(13) 0.23175(9)
O11A O 0.6253(2) 0.5815(2) 0.19967(19)
O12A O 0.6688(3) 0.6098(3) 0.24463(16)
O13A O 0.5783(3) 0.4832(2) 0.20502(17)
C21A C 0.6060(5) 0.4790(6) 0.2301(3)
C22A C 0.6101(4) 0.4295(5) 0.2452(3)
C23A C 0.6434(6) 0.4232(6) 0.2699(4)
H23A H 0.6485 0.3902 0.2784
C24A C 0.6680(6) 0.4634(8) 0.2818(4)
C25A C 0.6614(6) 0.5116(6) 0.2707(3)
H24A H 0.6777 0.5397 0.2803
C26A C 0.6296(5) 0.5201(6) 0.2444(3)
C27A C 0.6978(6) 0.4539(6) 0.3140(4)
C28A C 0.6980(7) 0.3999(7) 0.3244(4)
H25A H 0.7117 0.3980 0.3451
H26A H 0.7196 0.3794 0.3107
H27A H 0.6630 0.3864 0.3241
C29A C 0.6691(8) 0.4861(8) 0.3373(4)
H28A H 0.6322 0.4810 0.3348
H29A H 0.6774 0.5223 0.3343
H30A H 0.6792 0.4756 0.3579
C30A C 0.7483(7) 0.4770(8) 0.3058(4)
H31A H 0.7537 0.5082 0.3178
H32A H 0.7486 0.4855 0.2841
H33A H 0.7757 0.4525 0.3102
Mg1A Mg 0.79025(16) 0.59115(16) 0.0000
Mg2A Mg 0.74538(11) 0.65985(11) 0.04868(6)
Mg3A Mg 0.70113(16) 0.72854(16) 0.0000
Mg4A Mg 0.56874(11) 0.54443(12) 0.17489(7)
S1A S 0.90741(17) 0.58349(14) 0.0000
S2A S 0.82635(12) 0.71049(10) 0.09000(7)
S3A S 0.74519(15) 0.83867(18) 0.0000
O1A O 0.7270(3) 0.6488(3) 0.0000
O2A O 0.8590(4) 0.5570(3) 0.0000
O3A O 0.9522(3) 0.5526(3) 0.0000
O4A O 0.8178(2) 0.6388(2) 0.03395(13)
O5A O 0.7790(2) 0.6810(2) 0.08902(11)
O6A O 0.8455(2) 0.7245(2) 0.11975(16)
O7A O 0.7579(2) 0.7346(2) 0.03381(13)
O8A O 0.6994(4) 0.8061(3) 0.0000
O9A O 0.7375(3) 0.8922(3) 0.0000
O14A O 0.6773(3) 0.6743(2) 0.06673(14)
O15A O 0.6441(2) 0.7256(3) 0.02955(18)
O16A O 0.5657(2) 0.6041(2) 0.14513(12)
O17A O 0.4817(2) 0.6204(2) 0.14555(12)
O18A O 0.4599(2) 0.7629(2) 0.03067(15)
O19A O 0.4101(2) 0.7312(2) 0.06658(13)
C1A C 0.8637(4) 0.6453(3) 0.0448(2)
C2A C 0.9109(4) 0.6237(3) 0.0316(2)
C3A C 0.9581(4) 0.6294(4) 0.0445(3)
H1A H 0.9864 0.6123 0.0355
C4A C 0.9663(5) 0.6590(5) 0.0701(3)
C5A C 0.9225(6) 0.6813(4) 0.0827(2)
H2A H 0.9264 0.7001 0.1010
C6A C 0.8750(4) 0.6781(3) 0.0708(2)
C7A C 1.0198(5) 0.6625(6) 0.0856(3)
C8A C 1.0584(6) 0.6782(7) 0.0609(3)
H3A H 1.0910 0.6876 0.0705
H4A H 1.0450 0.7076 0.0495
H5A H 1.0639 0.6495 0.0469
C9A C 1.0302(6) 0.6070(6) 0.0970(4)
H6A H 1.0209 0.5825 0.0811
H7A H 1.0097 0.6004 0.1153
H8A H 1.0666 0.6033 0.1020
C10A C 1.0160(5) 0.7013(6) 0.1116(3)
H9A H 1.0067 0.6836 0.1304
H10A H 0.9897 0.7268 0.1067
H11A H 1.0490 0.7185 0.1142
C11A C 0.7836(4) 0.7723(5) 0.0447(3)
C12A C 0.8170(5) 0.7686(4) 0.0690(3)
C13A C 0.8462(5) 0.8088(5) 0.0811(3)
H12A H 0.8666 0.8035 0.0988
C14A C 0.8450(4) 0.8581(4) 0.0667(3)
C15A C 0.8119(4) 0.8627(4) 0.0443(3)
H13A H 0.8077 0.8956 0.0354
C16A C 0.7816(4) 0.8215(4) 0.0325(2)
C17A C 0.8809(6) 0.9040(5) 0.0766(4)
C18A C 0.9126(6) 0.8911(5) 0.1037(4)
H14A H 0.9416 0.9148 0.1050
H15A H 0.9253 0.8559 0.1017
H16A H 0.8917 0.8940 0.1221
C19A C 0.9179(7) 0.9186(7) 0.0488(4)
H17A H 0.9479 0.9370 0.0565
H18A H 0.8994 0.9404 0.0343
H19A H 0.9290 0.8872 0.0385
C20A C 0.8445(5) 0.9495(5) 0.0813(3)
H20A H 0.8177 0.9399 0.0959
H21A H 0.8288 0.9587 0.0618
H22A H 0.8638 0.9787 0.0893
C31A C 0.58868(19) 0.6956(2) 0.06871(15)
C32A C 0.5828(2) 0.6661(2) 0.09480(15)
H34A H 0.6116 0.6495 0.1036
C33A C 0.5347(3) 0.6609(2) 0.10805(12)
C34A C 0.49262(19) 0.6852(2) 0.09521(13)
H35A H 0.4598 0.6816 0.1043
C35A C 0.4985(2) 0.7147(2) 0.06912(13)
C36A C 0.5466(3) 0.7199(2) 0.05586(12)
H36A H 0.5506 0.7401 0.0380
C37A C 0.6401(5) 0.6995(5) 0.0547(3)
C38A C 0.5243(5) 0.6254(4) 0.1360(2)
C39A C 0.4520(4) 0.7380(4) 0.0550(3)
S2H S 0.82635(12) 0.71049(10) -0.09000(7)
O4H O 0.8178(2) 0.6388(2) -0.03395(13)
O5H O 0.7790(2) 0.6810(2) -0.08902(11)
O6H O 0.8455(2) 0.7245(2) -0.11975(16)
O7H O 0.7579(2) 0.7346(2) -0.03381(13)
C1H C 0.8637(4) 0.6453(3) -0.0448(2)
C2H C 0.9109(4) 0.6237(3) -0.0316(2)
C3H C 0.9581(4) 0.6294(4) -0.0445(3)
H1H H 0.9864 0.6123 -0.0355
C4H C 0.9663(5) 0.6590(5) -0.0701(3)
C5H C 0.9225(6) 0.6813(4) -0.0827(2)
H2H H 0.9264 0.7001 -0.1010
C6H C 0.8750(4) 0.6781(3) -0.0708(2)
C7H C 1.0198(5) 0.6625(6) -0.0856(3)
C8H C 1.0584(6) 0.6782(7) -0.0609(3)
H3H H 1.0910 0.6876 -0.0705
H4H H 1.0450 0.7076 -0.0495
H5H H 1.0639 0.6495 -0.0469
C9H C 1.0302(6) 0.6070(6) -0.0970(4)
H6H H 1.0209 0.5825 -0.0811
H7H H 1.0097 0.6004 -0.1153
H8H H 1.0666 0.6033 -0.1020
C10H C 1.0160(5) 0.7013(6) -0.1116(3)
H9H H 1.0067 0.6836 -0.1304
H10H H 0.9897 0.7268 -0.1067
H11H H 1.0490 0.7185 -0.1142
C11H C 0.7836(4) 0.7723(5) -0.0447(3)
C12H C 0.8170(5) 0.7686(4) -0.0690(3)
C13H C 0.8462(5) 0.8088(5) -0.0811(3)
H12H H 0.8666 0.8035 -0.0988
C14H C 0.8450(4) 0.8581(4) -0.0667(3)
C15H C 0.8119(4) 0.8627(4) -0.0443(3)
H13H H 0.8077 0.8956 -0.0354
C16H C 0.7816(4) 0.8215(4) -0.0325(2)
C17H C 0.8809(6) 0.9040(5) -0.0766(4)
C18H C 0.9126(6) 0.8911(5) -0.1037(4)
H14H H 0.9416 0.9148 -0.1050
H15H H 0.9253 0.8559 -0.1017
H16H H 0.8917 0.8940 -0.1221
C19H C 0.9179(7) 0.9186(7) -0.0488(4)
H17H H 0.9479 0.9370 -0.0565
H18H H 0.8994 0.9404 -0.0343
H19H H 0.9290 0.8872 -0.0385
C20H C 0.8445(5) 0.9495(5) -0.0813(3)
H20H H 0.8177 0.9399 -0.0959
H21H H 0.8288 0.9587 -0.0618
H22H H 0.8638 0.9787 -0.0893
Mg1B Mg 0.59115(16) 0.20975(16) 0.0000
Mg2B Mg 0.65985(11) 0.25462(11) 0.04868(6)
Mg3B Mg 0.72854(16) 0.29887(16) 0.0000
Mg4B Mg 0.54443(12) 0.43126(11) 0.17489(7)
S1B S 0.58349(14) 0.09259(17) 0.0000
S2B S 0.71049(10) 0.17365(12) 0.09000(7)
S3B S 0.83867(18) 0.25481(15) 0.0000
O1B O 0.6488(3) 0.2730(3) 0.0000
O2B O 0.5570(3) 0.1410(4) 0.0000
O3B O 0.5526(3) 0.0478(3) 0.0000
O4B O 0.6388(2) 0.1822(2) 0.03395(13)
O5B O 0.6810(2) 0.2210(2) 0.08902(11)
O6B O 0.7245(2) 0.1545(2) 0.11975(16)
O7B O 0.7346(2) 0.2421(2) 0.03381(13)
O8B O 0.8061(3) 0.3006(4) 0.0000
O9B O 0.8922(3) 0.2625(3) 0.0000
O14B O 0.6743(2) 0.3227(3) 0.06673(14)
O15B O 0.7256(3) 0.3559(2) 0.02955(18)
O16B O 0.6041(2) 0.4343(2) 0.14513(12)
O17B O 0.6204(2) 0.5183(2) 0.14555(12)
O18B O 0.7629(2) 0.5401(2) 0.03067(15)
O19B O 0.7312(2) 0.5899(2) 0.06658(13)
C1B C 0.6453(3) 0.1363(4) 0.0448(2)
C2B C 0.6237(3) 0.0891(4) 0.0316(2)
C3B C 0.6294(4) 0.0419(4) 0.0445(3)
H1B H 0.6123 0.0136 0.0355
C4B C 0.6590(5) 0.0337(5) 0.0701(3)
C5B C 0.6813(4) 0.0775(6) 0.0827(2)
H2B H 0.7001 0.0736 0.1010
C6B C 0.6781(3) 0.1250(4) 0.0708(2)
C7B C 0.6625(6) -0.0198(5) 0.0856(3)
C8B C 0.6782(7) -0.0584(6) 0.0609(3)
H3B H 0.6876 -0.0910 0.0705
H4B H 0.7076 -0.0450 0.0495
H5B H 0.6495 -0.0639 0.0469
C9B C 0.6070(6) -0.0302(6) 0.0970(4)
H6B H 0.5825 -0.0209 0.0811
H7B H 0.6004 -0.0097 0.1153
H8B H 0.6033 -0.0666 0.1020
C10B C 0.7013(6) -0.0160(5) 0.1116(3)
H9B H 0.6836 -0.0067 0.1304
H10B H 0.7268 0.0103 0.1067
H11B H 0.7185 -0.0490 0.1142
C11B C 0.7723(5) 0.2164(4) 0.0447(3)
C12B C 0.7686(4) 0.1830(5) 0.0690(3)
C13B C 0.8088(5) 0.1538(5) 0.0811(3)
H12B H 0.8035 0.1334 0.0988
C14B C 0.8581(4) 0.1550(4) 0.0667(3)
C15B C 0.8627(4) 0.1881(4) 0.0443(3)
H13B H 0.8956 0.1923 0.0354
C16B C 0.8215(4) 0.2184(4) 0.0325(2)
C17B C 0.9040(5) 0.1191(6) 0.0766(4)
C18B C 0.8911(5) 0.0874(6) 0.1037(4)
H14B H 0.9148 0.0584 0.1050
H15B H 0.8559 0.0747 0.1017
H16B H 0.8940 0.1083 0.1221
C19B C 0.9186(7) 0.0821(7) 0.0488(4)
H17B H 0.9370 0.0521 0.0565
H18B H 0.9404 0.1006 0.0343
H19B H 0.8872 0.0710 0.0385
C20B C 0.9495(5) 0.1555(5) 0.0813(3)
H20B H 0.9399 0.1823 0.0959
H21B H 0.9587 0.1712 0.0618
H22B H 0.9787 0.1362 0.0893
C31B C 0.6956(2) 0.41132(19) 0.06871(15)
C32B C 0.6661(2) 0.4172(2) 0.09480(15)
H34B H 0.6495 0.3884 0.1036
C33B C 0.6609(2) 0.4653(3) 0.10805(12)
C34B C 0.6852(2) 0.50738(19) 0.09521(13)
H35B H 0.6816 0.5402 0.1043
C35B C 0.7147(2) 0.5015(2) 0.06912(13)
C36B C 0.7199(2) 0.4534(3) 0.05586(12)
H36B H 0.7401 0.4494 0.0380
C37B C 0.6995(5) 0.3599(5) 0.0547(3)
C38B C 0.6254(4) 0.4757(5) 0.1360(2)
C39B C 0.7380(4) 0.5480(4) 0.0550(3)
S2K S 0.71049(10) 0.17365(12) -0.09000(7)
O4K O 0.6388(2) 0.1822(2) -0.03395(13)
O5K O 0.6810(2) 0.2210(2) -0.08902(11)
O6K O 0.7245(2) 0.1545(2) -0.11975(16)
O7K O 0.7346(2) 0.2421(2) -0.03381(13)
C1K C 0.6453(3) 0.1363(4) -0.0448(2)
C2K C 0.6237(3) 0.0891(4) -0.0316(2)
C3K C 0.6294(4) 0.0419(4) -0.0445(3)
H1K H 0.6123 0.0136 -0.0355
C4K C 0.6590(5) 0.0337(5) -0.0701(3)
C5K C 0.6813(4) 0.0775(6) -0.0827(2)
H2K H 0.7001 0.0736 -0.1010
C6K C 0.6781(3) 0.1250(4) -0.0708(2)
C7K C 0.6625(6) -0.0198(5) -0.0856(3)
C8K C 0.6782(7) -0.0584(6) -0.0609(3)
H3K H 0.6876 -0.0910 -0.0705
H4K H 0.7076 -0.0450 -0.0495
H5K H 0.6495 -0.0639 -0.0469
C9K C 0.6070(6) -0.0302(6) -0.0970(4)
H6K H 0.5825 -0.0209 -0.0811
H7K H 0.6004 -0.0097 -0.1153
H8K H 0.6033 -0.0666 -0.1020
C10K C 0.7013(6) -0.0160(5) -0.1116(3)
H9K H 0.6836 -0.0067 -0.1304
H10K H 0.7268 0.0103 -0.1067
H11K H 0.7185 -0.0490 -0.1142
C11K C 0.7723(5) 0.2164(4) -0.0447(3)
C12K C 0.7686(4) 0.1830(5) -0.0690(3)
C13K C 0.8088(5) 0.1538(5) -0.0811(3)
H12K H 0.8035 0.1334 -0.0988
C14K C 0.8581(4) 0.1550(4) -0.0667(3)
C15K C 0.8627(4) 0.1881(4) -0.0443(3)
H13K H 0.8956 0.1923 -0.0354
C16K C 0.8215(4) 0.2184(4) -0.0325(2)
C17K C 0.9040(5) 0.1191(6) -0.0766(4)
C18K C 0.8911(5) 0.0874(6) -0.1037(4)
H14K H 0.9148 0.0584 -0.1050
H15K H 0.8559 0.0747 -0.1017
H16K H 0.8940 0.1083 -0.1221
C19K C 0.9186(7) 0.0821(7) -0.0488(4)
H17K H 0.9370 0.0521 -0.0565
H18K H 0.9404 0.1006 -0.0343
H19K H 0.8872 0.0710 -0.0385
C20K C 0.9495(5) 0.1555(5) -0.0813(3)
H20K H 0.9399 0.1823 -0.0959
H21K H 0.9587 0.1712 -0.0618
H22K H 0.9787 0.1362 -0.0893
Mg1C Mg 0.40885(16) 0.79025(16) 0.0000
Mg2C Mg 0.34015(11) 0.74538(11) 0.04868(6)
Mg3C Mg 0.27146(16) 0.70113(16) 0.0000
Mg4C Mg 0.45557(12) 0.56874(11) 0.17489(7)
S1C S 0.41651(14) 0.90741(17) 0.0000
S2C S 0.28951(10) 0.82635(12) 0.09000(7)
S3C S 0.16133(18) 0.74519(15) 0.0000
O1C O 0.3512(3) 0.7270(3) 0.0000
O2C O 0.4430(3) 0.8590(4) 0.0000
O3C O 0.4474(3) 0.9522(3) 0.0000
O4C O 0.3612(2) 0.8178(2) 0.03395(13)
O5C O 0.3190(2) 0.7790(2) 0.08902(11)
O6C O 0.2755(2) 0.8455(2) 0.11975(16)
O7C O 0.2654(2) 0.7579(2) 0.03381(13)
O8C O 0.1939(3) 0.6994(4) 0.0000
O9C O 0.1078(3) 0.7375(3) 0.0000
O14C O 0.3257(2) 0.6773(3) 0.06673(14)
O15C O 0.2744(3) 0.6441(2) 0.02955(18)
O16C O 0.3959(2) 0.5657(2) 0.14513(12)
O17C O 0.3796(2) 0.4817(2) 0.14555(12)
O18C O 0.2371(2) 0.4599(2) 0.03067(15)
O19C O 0.2688(2) 0.4101(2) 0.06658(13)
C1C C 0.3547(3) 0.8637(4) 0.0448(2)
C2C C 0.3763(3) 0.9109(4) 0.0316(2)
C3C C 0.3706(4) 0.9581(4) 0.0445(3)
H1C H 0.3877 0.9864 0.0355
C4C C 0.3410(5) 0.9663(5) 0.0701(3)
C5C C 0.3187(4) 0.9225(6) 0.0827(2)
H2C H 0.2999 0.9264 0.1010
C6C C 0.3219(3) 0.8750(4) 0.0708(2)
C7C C 0.3375(6) 1.0198(5) 0.0856(3)
C8C C 0.3218(7) 1.0584(6) 0.0609(3)
H3C H 0.3124 1.0910 0.0705
H4C H 0.2924 1.0450 0.0495
H5C H 0.3505 1.0639 0.0469
C9C C 0.3930(6) 1.0302(6) 0.0970(4)
H6C H 0.4175 1.0209 0.0811
H7C H 0.3996 1.0097 0.1153
H8C H 0.3967 1.0666 0.1020
C10C C 0.2987(6) 1.0160(5) 0.1116(3)
H9C H 0.3164 1.0067 0.1304
H10C H 0.2732 0.9897 0.1067
H11C H 0.2815 1.0490 0.1142
C11C C 0.2277(5) 0.7836(4) 0.0447(3)
C12C C 0.2314(4) 0.8170(5) 0.0690(3)
C13C C 0.1912(5) 0.8462(5) 0.0811(3)
H12C H 0.1965 0.8666 0.0988
C14C C 0.1419(4) 0.8450(4) 0.0667(3)
C15C C 0.1373(4) 0.8119(4) 0.0443(3)
H13C H 0.1044 0.8077 0.0354
C16C C 0.1785(4) 0.7816(4) 0.0325(2)
C17C C 0.0960(5) 0.8809(6) 0.0766(4)
C18C C 0.1089(5) 0.9126(6) 0.1037(4)
H14C H 0.0852 0.9416 0.1050
H15C H 0.1441 0.9253 0.1017
H16C H 0.1060 0.8917 0.1221
C19C C 0.0814(7) 0.9179(7) 0.0488(4)
H17C H 0.0630 0.9479 0.0565
H18C H 0.0596 0.8994 0.0343
H19C H 0.1128 0.9290 0.0385
C20C C 0.0505(5) 0.8445(5) 0.0813(3)
H20C H 0.0601 0.8177 0.0959
H21C H 0.0413 0.8288 0.0618
H22C H 0.0213 0.8638 0.0893
C31C C 0.3044(2) 0.58868(19) 0.06871(15)
C32C C 0.3339(2) 0.5828(2) 0.09480(15)
H34C H 0.3505 0.6116 0.1036
C33C C 0.3391(2) 0.5347(3) 0.10805(12)
C34C C 0.3148(2) 0.49262(19) 0.09521(13)
H35C H 0.3184 0.4598 0.1043
C35C C 0.2853(2) 0.4985(2) 0.06912(13)
C36C C 0.2801(2) 0.5466(3) 0.05586(12)
H36C H 0.2599 0.5506 0.0380
C37C C 0.3005(5) 0.6401(5) 0.0547(3)
C38C C 0.3746(4) 0.5243(5) 0.1360(2)
C39C C 0.2620(4) 0.4520(4) 0.0550(3)
S2J S 0.28951(10) 0.82635(12) -0.09000(7)
O4J O 0.3612(2) 0.8178(2) -0.03395(13)
O5J O 0.3190(2) 0.7790(2) -0.08902(11)
O6J O 0.2755(2) 0.8455(2) -0.11975(16)
O7J O 0.2654(2) 0.7579(2) -0.03381(13)
C1J C 0.3547(3) 0.8637(4) -0.0448(2)
C2J C 0.3763(3) 0.9109(4) -0.0316(2)
C3J C 0.3706(4) 0.9581(4) -0.0445(3)
H1J H 0.3877 0.9864 -0.0355
C4J C 0.3410(5) 0.9663(5) -0.0701(3)
C5J C 0.3187(4) 0.9225(6) -0.0827(2)
H2J H 0.2999 0.9264 -0.1010
C6J C 0.3219(3) 0.8750(4) -0.0708(2)
C7J C 0.3375(6) 1.0198(5) -0.0856(3)
C8J C 0.3218(7) 1.0584(6) -0.0609(3)
H3J H 0.3124 1.0910 -0.0705
H4J H 0.2924 1.0450 -0.0495
H5J H 0.3505 1.0639 -0.0469
C9J C 0.3930(6) 1.0302(6) -0.0970(4)
H6J H 0.4175 1.0209 -0.0811
H7J H 0.3996 1.0097 -0.1153
H8J H 0.3967 1.0666 -0.1020
C10J C 0.2987(6) 1.0160(5) -0.1116(3)
H9J H 0.3164 1.0067 -0.1304
H10J H 0.2732 0.9897 -0.1067
H11J H 0.2815 1.0490 -0.1142
C11J C 0.2277(5) 0.7836(4) -0.0447(3)
C12J C 0.2314(4) 0.8170(5) -0.0690(3)
C13J C 0.1912(5) 0.8462(5) -0.0811(3)
H12J H 0.1965 0.8666 -0.0988
C14J C 0.1419(4) 0.8450(4) -0.0667(3)
C15J C 0.1373(4) 0.8119(4) -0.0443(3)
H13J H 0.1044 0.8077 -0.0354
C16J C 0.1785(4) 0.7816(4) -0.0325(2)
C17J C 0.0960(5) 0.8809(6) -0.0766(4)
C18J C 0.1089(5) 0.9126(6) -0.1037(4)
H14J H 0.0852 0.9416 -0.1050
H15J H 0.1441 0.9253 -0.1017
H16J H 0.1060 0.8917 -0.1221
C19J C 0.0814(7) 0.9179(7) -0.0488(4)
H17J H 0.0630 0.9479 -0.0565
H18J H 0.0596 0.8994 -0.0343
H19J H 0.1128 0.9290 -0.0385
C20J C 0.0505(5) 0.8445(5) -0.0813(3)
H20J H 0.0601 0.8177 -0.0959
H21J H 0.0413 0.8288 -0.0618
H22J H 0.0213 0.8638 -0.0893
Mg2H Mg 0.74538(11) 0.65985(11) -0.04868(6)
Mg4H Mg 0.56874(11) 0.54443(12) -0.17489(7)
S4H S 0.62721(14) 0.58262(13) -0.23175(9)
O10H O 0.5000 0.5000 -0.1615(2)
O11H O 0.6253(2) 0.5815(2) -0.19967(19)
O12H O 0.6688(3) 0.6098(3) -0.24463(16)
O13H O 0.5783(3) 0.4832(2) -0.20502(17)
O14H O 0.6773(3) 0.6743(2) -0.06673(14)
O15H O 0.6441(2) 0.7256(3) -0.02955(18)
O16H O 0.5657(2) 0.6041(2) -0.14513(12)
O17H O 0.4817(2) 0.6204(2) -0.14555(12)
O18H O 0.4599(2) 0.7629(2) -0.03067(15)
O19H O 0.4101(2) 0.7312(2) -0.06658(13)
C21H C 0.6060(5) 0.4790(6) -0.2301(3)
C22H C 0.6101(4) 0.4295(5) -0.2452(3)
C23H C 0.6434(6) 0.4232(6) -0.2699(4)
H23H H 0.6485 0.3902 -0.2784
C24H C 0.6680(6) 0.4634(8) -0.2818(4)
C25H C 0.6614(6) 0.5116(6) -0.2707(3)
H24H H 0.6777 0.5397 -0.2803
C26H C 0.6296(5) 0.5201(6) -0.2444(3)
C27H C 0.6978(6) 0.4539(6) -0.3140(4)
C28H C 0.6980(7) 0.3999(7) -0.3244(4)
H25H H 0.7117 0.3980 -0.3451
H26H H 0.7196 0.3794 -0.3107
H27H H 0.6630 0.3864 -0.3241
C29H C 0.6691(8) 0.4861(8) -0.3373(4)
H28H H 0.6322 0.4810 -0.3348
H29H H 0.6774 0.5223 -0.3343
H30H H 0.6792 0.4756 -0.3579
C30H C 0.7483(7) 0.4770(8) -0.3058(4)
H31H H 0.7537 0.5082 -0.3178
H32H H 0.7486 0.4855 -0.2841
H33H H 0.7757 0.4525 -0.3102
C31H C 0.58868(19) 0.6956(2) -0.06871(15)
C32H C 0.5828(2) 0.6661(2) -0.09480(15)
H34H H 0.6116 0.6495 -0.1036
C33H C 0.5347(3) 0.6609(2) -0.10805(12)
C34H C 0.49262(19) 0.6852(2) -0.09521(13)
H35H H 0.4598 0.6816 -0.1043
C35H C 0.4985(2) 0.7147(2) -0.06912(13)
C36H C 0.5466(3) 0.7199(2) -0.05586(12)
H36H H 0.5506 0.7401 -0.0380
C37H C 0.6401(5) 0.6995(5) -0.0547(3)
C38H C 0.5243(5) 0.6254(4) -0.1360(2)
C39H C 0.4520(4) 0.7380(4) -0.0550(3)
S4J S 0.41738(13) 0.62721(14) -0.23175(9)
O11J O 0.4185(2) 0.6253(2) -0.19967(19)
O12J O 0.3902(3) 0.6688(3) -0.24463(16)
O13J O 0.5168(2) 0.5783(3) -0.20502(17)
C21J C 0.5210(6) 0.6060(5) -0.2301(3)
C22J C 0.5705(5) 0.6101(4) -0.2452(3)
C23J C 0.5768(6) 0.6434(6) -0.2699(4)
H23J H 0.6098 0.6485 -0.2784
C24J C 0.5366(8) 0.6680(6) -0.2818(4)
C25J C 0.4884(6) 0.6614(6) -0.2707(3)
H24J H 0.4603 0.6777 -0.2803
C26J C 0.4799(6) 0.6296(5) -0.2444(3)
C27J C 0.5461(6) 0.6978(6) -0.3140(4)
C28J C 0.6001(7) 0.6980(7) -0.3244(4)
H25J H 0.6020 0.7117 -0.3451
H26J H 0.6206 0.7196 -0.3107
H27J H 0.6136 0.6630 -0.3241
C29J C 0.5139(8) 0.6691(8) -0.3373(4)
H28J H 0.5190 0.6322 -0.3348
H29J H 0.4777 0.6774 -0.3343
H30J H 0.5244 0.6792 -0.3579
C30J C 0.5230(8) 0.7483(7) -0.3058(4)
H31J H 0.4918 0.7537 -0.3178
H32J H 0.5145 0.7486 -0.2841
H33J H 0.5475 0.7757 -0.3102
S4K S 0.58262(13) 0.37279(14) -0.23175(9)
O11K O 0.5815(2) 0.3747(2) -0.19967(19)
O12K O 0.6098(3) 0.3312(3) -0.24463(16)
O13K O 0.4832(2) 0.4217(3) -0.20502(17)
C21K C 0.4790(6) 0.3940(5) -0.2301(3)
C22K C 0.4295(5) 0.3899(4) -0.2452(3)
C23K C 0.4232(6) 0.3566(6) -0.2699(4)
H23K H 0.3902 0.3515 -0.2784
C24K C 0.4634(8) 0.3320(6) -0.2818(4)
C25K C 0.5116(6) 0.3386(6) -0.2707(3)
H24K H 0.5397 0.3223 -0.2803
C26K C 0.5201(6) 0.3704(5) -0.2444(3)
C27K C 0.4539(6) 0.3022(6) -0.3140(4)
C28K C 0.3999(7) 0.3020(7) -0.3244(4)
H25K H 0.3980 0.2883 -0.3451
H26K H 0.3794 0.2804 -0.3107
H27K H 0.3864 0.3370 -0.3241
C29K C 0.4861(8) 0.3309(8) -0.3373(4)
H28K H 0.4810 0.3678 -0.3348
H29K H 0.5223 0.3226 -0.3343
H30K H 0.4756 0.3208 -0.3579
C30K C 0.4770(8) 0.2517(7) -0.3058(4)
H31K H 0.5082 0.2463 -0.3178
H32K H 0.4855 0.2514 -0.2841
H33K H 0.4525 0.2243 -0.3102
S4I S 0.37279(14) 0.41738(13) -0.23175(9)
O11I O 0.3747(2) 0.4185(2) -0.19967(19)
O12I O 0.3312(3) 0.3902(3) -0.24463(16)
O13I O 0.4217(3) 0.5168(2) -0.20502(17)
C21I C 0.3940(5) 0.5210(6) -0.2301(3)
C22I C 0.3899(4) 0.5705(5) -0.2452(3)
C23I C 0.3566(6) 0.5768(6) -0.2699(4)
H23I H 0.3515 0.6098 -0.2784
C24I C 0.3320(6) 0.5366(8) -0.2818(4)
C25I C 0.3386(6) 0.4884(6) -0.2707(3)
H24I H 0.3223 0.4603 -0.2803
C26I C 0.3704(5) 0.4799(6) -0.2444(3)
C27I C 0.3022(6) 0.5461(6) -0.3140(4)
C28I C 0.3020(7) 0.6001(7) -0.3244(4)
H25I H 0.2883 0.6020 -0.3451
H26I H 0.2804 0.6206 -0.3107
H27I H 0.3370 0.6136 -0.3241
C29I C 0.3309(8) 0.5139(8) -0.3373(4)
H28I H 0.3678 0.5190 -0.3348
H29I H 0.3226 0.4777 -0.3343
H30I H 0.3208 0.5244 -0.3579
C30I C 0.2517(7) 0.5230(8) -0.3058(4)
H31I H 0.2463 0.4918 -0.3178
H32I H 0.2514 0.5145 -0.2841
H33I H 0.2243 0.5475 -0.3102
Mg2I Mg 0.25462(11) 0.34015(11) -0.04868(6)
Mg4I Mg 0.43126(11) 0.45557(12) -0.17489(7)
O14I O 0.3227(3) 0.3257(2) -0.06673(14)
O15I O 0.3559(2) 0.2744(3) -0.02955(18)
O16I O 0.4343(2) 0.3959(2) -0.14513(12)
O17I O 0.5183(2) 0.3796(2) -0.14555(12)
O18I O 0.5401(2) 0.2371(2) -0.03067(15)
O19I O 0.5899(2) 0.2688(2) -0.06658(13)
C31I C 0.41132(19) 0.3044(2) -0.06871(15)
C32I C 0.4172(2) 0.3339(2) -0.09480(15)
H34I H 0.3884 0.3505 -0.1036
C33I C 0.4653(3) 0.3391(2) -0.10805(12)
C34I C 0.50738(19) 0.3148(2) -0.09521(13)
H35I H 0.5402 0.3184 -0.1043
C35I C 0.5015(2) 0.2853(2) -0.06912(13)
C36I C 0.4534(3) 0.2801(2) -0.05586(12)
H36I H 0.4494 0.2599 -0.0380
C37I C 0.3599(5) 0.3005(5) -0.0547(3)
C38I C 0.4757(5) 0.3746(4) -0.1360(2)
C39I C 0.5480(4) 0.2620(4) -0.0550(3)
Mg2J Mg 0.34015(11) 0.74538(11) -0.04868(6)
Mg4J Mg 0.45557(12) 0.56874(11) -0.17489(7)
O14J O 0.3257(2) 0.6773(3) -0.06673(14)
O15J O 0.2744(3) 0.6441(2) -0.02955(18)
O16J O 0.3959(2) 0.5657(2) -0.14513(12)
O17J O 0.3796(2) 0.4817(2) -0.14555(12)
O18J O 0.2371(2) 0.4599(2) -0.03067(15)
O19J O 0.2688(2) 0.4101(2) -0.06658(13)
C31J C 0.3044(2) 0.58868(19) -0.06871(15)
C32J C 0.3339(2) 0.5828(2) -0.09480(15)
H34J H 0.3505 0.6116 -0.1036
C33J C 0.3391(2) 0.5347(3) -0.10805(12)
C34J C 0.3148(2) 0.49262(19) -0.09521(13)
H35J H 0.3184 0.4598 -0.1043
C35J C 0.2853(2) 0.4985(2) -0.06912(13)
C36J C 0.2801(2) 0.5466(3) -0.05586(12)
H36J H 0.2599 0.5506 -0.0380
C37J C 0.3005(5) 0.6401(5) -0.0547(3)
C38J C 0.3746(4) 0.5243(5) -0.1360(2)
C39J C 0.2620(4) 0.4520(4) -0.0550(3)
Mg2K Mg 0.65985(11) 0.25462(11) -0.04868(6)
Mg4K Mg 0.54443(12) 0.43126(11) -0.17489(7)
O14K O 0.6743(2) 0.3227(3) -0.06673(14)
O15K O 0.7256(3) 0.3559(2) -0.02955(18)
O16K O 0.6041(2) 0.4343(2) -0.14513(12)
O17K O 0.6204(2) 0.5183(2) -0.14555(12)
O18K O 0.7629(2) 0.5401(2) -0.03067(15)
O19K O 0.7312(2) 0.5899(2) -0.06658(13)
C31K C 0.6956(2) 0.41132(19) -0.06871(15)
C32K C 0.6661(2) 0.4172(2) -0.09480(15)
H34K H 0.6495 0.3884 -0.1036
C33K C 0.6609(2) 0.4653(3) -0.10805(12)
C34K C 0.6852(2) 0.50738(19) -0.09521(13)
H35K H 0.6816 0.5402 -0.1043
C35K C 0.7147(2) 0.5015(2) -0.06912(13)
C36K C 0.7199(2) 0.4534(3) -0.05586(12)
H36K H 0.7401 0.4494 -0.0380
C37K C 0.6995(5) 0.3599(5) -0.0547(3)
C38K C 0.6254(4) 0.4757(5) -0.1360(2)
C39K C 0.7380(4) 0.5480(4) -0.0550(3)
loop_
_geom_bond_atom_site_label_1
_geom_bond_atom_site_label_2
_geom_bond_site_symmetry_1
_geom_bond_site_symmetry_2
Mg1 O1 1_555 1_555
Mg2 O1 1_555 1_555
Mg3 O1 1_555 1_555
Mg4 O10 1_555 1_555
S1 O2 1_555 1_555
S2 O5 1_555 1_555
S3 O8 1_555 1_555
S4 O11 1_555 1_555
O1 Mg2I 1_555 1_555
O2 Mg1 1_555 1_555
O3 S1 1_555 1_555
O4 Mg1 1_555 1_555
O5 Mg2 1_555 1_555
O6 S2 1_555 1_555
O7 Mg2 1_555 1_555
O8 Mg3 1_555 1_555
O9 S3 1_555 1_555
O10 Mg4A 1_555 1_555
O11 Mg4 1_555 1_555
O12 S4 1_555 1_555
O13 Mg4 1_555 1_555
O14 Mg2 1_555 1_555
O15 Mg3 1_555 1_555
O16 Mg4 1_555 1_555
O17 C38 1_555 1_555
O18 C39 1_555 1_555
O19 C39 1_555 1_555
C1 O4 1_555 1_555
C2 S1 1_555 1_555
C3 C2 1_555 1_555
H1 C3 1_555 1_555
C4 C3 1_555 1_555
C5 C4 1_555 1_555
H2 C5 1_555 1_555
C6 S2 1_555 1_555
C7 C4 1_555 1_555
C8 C7 1_555 1_555
H3 C8 1_555 1_555
H4 C8 1_555 1_555
H5 C8 1_555 1_555
C9 C7 1_555 1_555
H6 C9 1_555 1_555
H7 C9 1_555 1_555
H8 C9 1_555 1_555
C10 C7 1_555 1_555
H9 C10 1_555 1_555
H10 C10 1_555 1_555
H11 C10 1_555 1_555
C11 O7 1_555 1_555
C12 S2 1_555 1_555
C13 C12 1_555 1_555
H12 C13 1_555 1_555
C14 C13 1_555 1_555
C15 C14 1_555 1_555
H13 C15 1_555 1_555
C16 S3 1_555 1_555
C17 C14 1_555 1_555
C18 C17 1_555 1_555
H14 C18 1_555 1_555
H15 C18 1_555 1_555
H16 C18 1_555 1_555
C19 C17 1_555 1_555
H17 C19 1_555 1_555
H18 C19 1_555 1_555
H19 C19 1_555 1_555
C20 C17 1_555 1_555
H20 C20 1_555 1_555
H21 C20 1_555 1_555
H22 C20 1_555 1_555
C21 O13 1_555 1_555
C22 C21 1_555 1_555
C23 C22 1_555 1_555
H23 C23 1_555 1_555
C24 C23 1_555 1_555
C25 C24 1_555 1_555
H24 C25 1_555 1_555
C26 S4 1_555 1_555
C27 C24 1_555 1_555
C28 C27 1_555 1_555
H25 C28 1_555 1_555
H26 C28 1_555 1_555
H27 C28 1_555 1_555
C29 C27 1_555 1_555
H28 C29 1_555 1_555
H29 C29 1_555 1_555
H30 C29 1_555 1_555
C30 C27 1_555 1_555
H31 C30 1_555 1_555
H32 C30 1_555 1_555
H33 C30 1_555 1_555
C31 C32 1_555 1_555
C32 H34 1_555 1_555
C33 C32 1_555 1_555
C34 C33 1_555 1_555
H35 C34 1_555 1_555
C35 C34 1_555 1_555
C36 C31 1_555 1_555
H36 C36 1_555 1_555
C37 O14 1_555 1_555
C38 O16 1_555 1_555
C39 C35 1_555 1_555
S2I O5I 1_555 1_555
O4I Mg1 1_555 1_555
O5I Mg2I 1_555 1_555
O6I S2I 1_555 1_555
O7I Mg3 1_555 1_555
C1I O4I 1_555 1_555
C2I S1 1_555 1_555
C3I C2I 1_555 1_555
H1I C3I 1_555 1_555
C4I C3I 1_555 1_555
C5I C4I 1_555 1_555
H2I C5I 1_555 1_555
C6I S2I 1_555 1_555
C7I C4I 1_555 1_555
C8I C7I 1_555 1_555
H3I C8I 1_555 1_555
H4I C8I 1_555 1_555
H5I C8I 1_555 1_555
C9I C7I 1_555 1_555
H6I C9I 1_555 1_555
H7I C9I 1_555 1_555
H8I C9I 1_555 1_555
C10I C7I 1_555 1_555
H9I C10I 1_555 1_555
H10I C10I 1_555 1_555
H11I C10I 1_555 1_555
C11I O7I 1_555 1_555
C12I S2I 1_555 1_555
C13I C12I 1_555 1_555
H12I C13I 1_555 1_555
C14I C13I 1_555 1_555
C15I C14I 1_555 1_555
H13I C15I 1_555 1_555
C16I S3 1_555 1_555
C17I C14I 1_555 1_555
C18I C17I 1_555 1_555
H14I C18I 1_555 1_555
H15I C18I 1_555 1_555
H16I C18I 1_555 1_555
C19I C17I 1_555 1_555
H17I C19I 1_555 1_555
H18I C19I 1_555 1_555
H19I C19I 1_555 1_555
C20I C17I 1_555 1_555
H20I C20I 1_555 1_555
H21I C20I 1_555 1_555
H22I C20I 1_555 1_555
S4B O11B 1_555 1_555
O11B Mg4B 1_555 1_555
O12B S4B 1_555 1_555
O13B Mg4 1_555 1_555
C21B O13B 1_555 1_555
C22B S4 1_555 1_555
C23B C22B 1_555 1_555
H23B C23B 1_555 1_555
C24B C23B 1_555 1_555
C25B C24B 1_555 1_555
H24B C25B 1_555 1_555
C26B S4B 1_555 1_555
C27B C24B 1_555 1_555
C28B C27B 1_555 1_555
H25B C28B 1_555 1_555
H26B C28B 1_555 1_555
H27B C28B 1_555 1_555
C29B C27B 1_555 1_555
H28B C29B 1_555 1_555
H29B C29B 1_555 1_555
H30B C29B 1_555 1_555
C30B C27B 1_555 1_555
H31B C30B 1_555 1_555
H32B C30B 1_555 1_555
H33B C30B 1_555 1_555
S4C C22 1_555 1_555
O11C S4C 1_555 1_555
O12C S4C 1_555 1_555
O13C C21C 1_555 1_555
C21C C22C 1_555 1_555
C22C C23C 1_555 1_555
C23C H23C 1_555 1_555
C24C C23C 1_555 1_555
C25C C24C 1_555 1_555
H24C C25C 1_555 1_555
C26C S4C 1_555 1_555
C27C C24C 1_555 1_555
C28C C27C 1_555 1_555
H25C C28C 1_555 1_555
H26C C28C 1_555 1_555
H27C C28C 1_555 1_555
C29C C27C 1_555 1_555
H28C C29C 1_555 1_555
H29C C29C 1_555 1_555
H30C C29C 1_555 1_555
C30C C27C 1_555 1_555
H31C C30C 1_555 1_555
H32C C30C 1_555 1_555
H33C C30C 1_555 1_555
S4A C22C 1_555 1_555
O11A S4A 1_555 1_555
O12A S4A 1_555 1_555
O13A C21A 1_555 1_555
C21A C22A 1_555 1_555
C22A S4B 1_555 1_555
C23A C22A 1_555 1_555
H23A C23A 1_555 1_555
C24A C23A 1_555 1_555
C25A C24A 1_555 1_555
H24A C25A 1_555 1_555
C26A S4A 1_555 1_555
C27A C24A 1_555 1_555
C28A C27A 1_555 1_555
H25A C28A 1_555 1_555
H26A C28A 1_555 1_555
H27A C28A 1_555 1_555
C29A C27A 1_555 1_555
H28A C29A 1_555 1_555
H29A C29A 1_555 1_555
H30A C29A 1_555 1_555
C30A C27A 1_555 1_555
H31A C30A 1_555 1_555
H32A C30A 1_555 1_555
H33A C30A 1_555 1_555
Mg1A O1A 1_555 1_555
Mg2A O1A 1_555 1_555
Mg3A O1A 1_555 1_555
Mg4A O13C 1_555 1_555
S1A O2A 1_555 1_555
S2A O5A 1_555 1_555
S3A O8A 1_555 1_555
O1A Mg2H 1_555 1_555
O2A Mg1A 1_555 1_555
O3A S1A 1_555 1_555
O4A Mg1A 1_555 1_555
O5A Mg2A 1_555 1_555
O6A S2A 1_555 1_555
O7A Mg2A 1_555 1_555
O8A Mg3A 1_555 1_555
O9A S3A 1_555 1_555
O14A Mg2A 1_555 1_555
O15A Mg3A 1_555 1_555
O16A Mg4A 1_555 1_555
O17A C38A 1_555 1_555
O18A C39A 1_555 1_555
O19A C39A 1_555 1_555
C1A O4A 1_555 1_555
C2A S1A 1_555 1_555
C3A C2A 1_555 1_555
H1A C3A 1_555 1_555
C4A C3A 1_555 1_555
C5A C4A 1_555 1_555
H2A C5A 1_555 1_555
C6A S2A 1_555 1_555
C7A C4A 1_555 1_555
C8A C7A 1_555 1_555
H3A C8A 1_555 1_555
H4A C8A 1_555 1_555
H5A C8A 1_555 1_555
C9A C7A 1_555 1_555
H6A C9A 1_555 1_555
H7A C9A 1_555 1_555
H8A C9A 1_555 1_555
C10A C7A 1_555 1_555
H9A C10A 1_555 1_555
H10A C10A 1_555 1_555
H11A C10A 1_555 1_555
C11A O7A 1_555 1_555
C12A S2A 1_555 1_555
C13A C12A 1_555 1_555
H12A C13A 1_555 1_555
C14A C13A 1_555 1_555
C15A C14A 1_555 1_555
H13A C15A 1_555 1_555
C16A S3A 1_555 1_555
C17A C14A 1_555 1_555
C18A C17A 1_555 1_555
H14A C18A 1_555 1_555
H15A C18A 1_555 1_555
H16A C18A 1_555 1_555
C19A C17A 1_555 1_555
H17A C19A 1_555 1_555
H18A C19A 1_555 1_555
H19A C19A 1_555 1_555
C20A C17A 1_555 1_555
H20A C20A 1_555 1_555
H21A C20A 1_555 1_555
H22A C20A 1_555 1_555
C31A C32A 1_555 1_555
C32A H34A 1_555 1_555
C33A C32A 1_555 1_555
C34A C33A 1_555 1_555
H35A C34A 1_555 1_555
C35A C34A 1_555 1_555
C36A C31A 1_555 1_555
H36A C36A 1_555 1_555
C37A O14A 1_555 1_555
C38A O16A 1_555 1_555
C39A C35A 1_555 1_555
S2H O5H 1_555 1_555
O4H Mg1A 1_555 1_555
O5H Mg2H 1_555 1_555
O6H S2H 1_555 1_555
O7H Mg3A 1_555 1_555
C1H O4H 1_555 1_555
C2H S1A 1_555 1_555
C3H C2H 1_555 1_555
H1H C3H 1_555 1_555
C4H C3H 1_555 1_555
C5H C4H 1_555 1_555
H2H C5H 1_555 1_555
C6H S2H 1_555 1_555
C7H C4H 1_555 1_555
C8H C7H 1_555 1_555
H3H C8H 1_555 1_555
H4H C8H 1_555 1_555
H5H C8H 1_555 1_555
C9H C7H 1_555 1_555
H6H C9H 1_555 1_555
H7H C9H 1_555 1_555
H8H C9H 1_555 1_555
C10H C7H 1_555 1_555
H9H C10H 1_555 1_555
H10H C10H 1_555 1_555
H11H C10H 1_555 1_555
C11H O7H 1_555 1_555
C12H S2H 1_555 1_555
C13H C12H 1_555 1_555
H12H C13H 1_555 1_555
C14H C13H 1_555 1_555
C15H C14H 1_555 1_555
H13H C15H 1_555 1_555
C16H S3A 1_555 1_555
C17H C14H 1_555 1_555
C18H C17H 1_555 1_555
H14H C18H 1_555 1_555
H15H C18H 1_555 1_555
H16H C18H 1_555 1_555
C19H C17H 1_555 1_555
H17H C19H 1_555 1_555
H18H C19H 1_555 1_555
H19H C19H 1_555 1_555
C20H C17H 1_555 1_555
H20H C20H 1_555 1_555
H21H C20H 1_555 1_555
H22H C20H 1_555 1_555
Mg1B O18 1_555 1_555
Mg2B O19 1_555 1_555
Mg3B O1B 1_555 1_555
Mg4B O10 1_555 1_555
S1B O2B 1_555 1_555
S2B O5B 1_555 1_555
S3B O8B 1_555 1_555
O1B Mg1B 1_555 1_555
O2B Mg1B 1_555 1_555
O3B S1B 1_555 1_555
O4B Mg1B 1_555 1_555
O5B Mg2B 1_555 1_555
O6B S2B 1_555 1_555
O7B Mg2B 1_555 1_555
O8B Mg3B 1_555 1_555
O9B S3B 1_555 1_555
O14B Mg2B 1_555 1_555
O15B Mg3B 1_555 1_555
O16B Mg4B 1_555 1_555
O17B Mg4A 1_555 1_555
O18B Mg1A 1_555 1_555
O19B Mg2A 1_555 1_555
C1B O4B 1_555 1_555
C2B S1B 1_555 1_555
C3B C2B 1_555 1_555
H1B C3B 1_555 1_555
C4B C3B 1_555 1_555
C5B C4B 1_555 1_555
H2B C5B 1_555 1_555
C6B S2B 1_555 1_555
C7B C4B 1_555 1_555
C8B C7B 1_555 1_555
H3B C8B 1_555 1_555
H4B C8B 1_555 1_555
H5B C8B 1_555 1_555
C9B C7B 1_555 1_555
H6B C9B 1_555 1_555
H7B C9B 1_555 1_555
H8B C9B 1_555 1_555
C10B C7B 1_555 1_555
H9B C10B 1_555 1_555
H10B C10B 1_555 1_555
H11B C10B 1_555 1_555
C11B O7B 1_555 1_555
C12B S2B 1_555 1_555
C13B C12B 1_555 1_555
H12B C13B 1_555 1_555
C14B C13B 1_555 1_555
C15B C14B 1_555 1_555
H13B C15B 1_555 1_555
C16B S3B 1_555 1_555
C17B C14B 1_555 1_555
C18B C17B 1_555 1_555
H14B C18B 1_555 1_555
H15B C18B 1_555 1_555
H16B C18B 1_555 1_555
C19B C17B 1_555 1_555
H17B C19B 1_555 1_555
H18B C19B 1_555 1_555
H19B C19B 1_555 1_555
C20B C17B 1_555 1_555
H20B C20B 1_555 1_555
H21B C20B 1_555 1_555
H22B C20B 1_555 1_555
C31B C32B 1_555 1_555
C32B H34B 1_555 1_555
C33B C32B 1_555 1_555
C34B C33B 1_555 1_555
H35B C34B 1_555 1_555
C35B C34B 1_555 1_555
C36B C31B 1_555 1_555
H36B C36B 1_555 1_555
C37B O14B 1_555 1_555
C38B O16B 1_555 1_555
C39B O18B 1_555 1_555
S2K O5K 1_555 1_555
O4K Mg1B 1_555 1_555
O5K Mg2K 1_555 1_555
O6K S2K 1_555 1_555
O7K Mg3B 1_555 1_555
C1K O4K 1_555 1_555
C2K S1B 1_555 1_555
C3K C2K 1_555 1_555
H1K C3K 1_555 1_555
C4K C3K 1_555 1_555
C5K C4K 1_555 1_555
H2K C5K 1_555 1_555
C6K S2K 1_555 1_555
C7K C4K 1_555 1_555
C8K C7K 1_555 1_555
H3K C8K 1_555 1_555
H4K C8K 1_555 1_555
H5K C8K 1_555 1_555
C9K C7K 1_555 1_555
H6K C9K 1_555 1_555
H7K C9K 1_555 1_555
H8K C9K 1_555 1_555
C10K C7K 1_555 1_555
H9K C10K 1_555 1_555
H10K C10K 1_555 1_555
H11K C10K 1_555 1_555
C11K O7K 1_555 1_555
C12K S2K 1_555 1_555
C13K C12K 1_555 1_555
H12K C13K 1_555 1_555
C14K C13K 1_555 1_555
C15K C14K 1_555 1_555
H13K C15K 1_555 1_555
C16K S3B 1_555 1_555
C17K C14K 1_555 1_555
C18K C17K 1_555 1_555
H14K C18K 1_555 1_555
H15K C18K 1_555 1_555
H16K C18K 1_555 1_555
C19K C17K 1_555 1_555
H17K C19K 1_555 1_555
H18K C19K 1_555 1_555
H19K C19K 1_555 1_555
C20K C17K 1_555 1_555
H20K C20K 1_555 1_555
H21K C20K 1_555 1_555
H22K C20K 1_555 1_555
Mg1C O18A 1_555 1_555
Mg2C O19A 1_555 1_555
Mg3C O1C 1_555 1_555
Mg4C O10 1_555 1_555
S1C O2C 1_555 1_555
S2C O5C 1_555 1_555
S3C O8C 1_555 1_555
O1C Mg1C 1_555 1_555
O2C Mg1C 1_555 1_555
O3C S1C 1_555 1_555
O4C Mg1C 1_555 1_555
O5C Mg2C 1_555 1_555
O6C S2C 1_555 1_555
O7C Mg2C 1_555 1_555
O8C Mg3C 1_555 1_555
O9C S3C 1_555 1_555
O14C Mg2C 1_555 1_555
O15C Mg3C 1_555 1_555
O16C Mg4C 1_555 1_555
O17C Mg4 1_555 1_555
O18C Mg1 1_555 1_555
O19C Mg2 1_555 1_555
C1C O4C 1_555 1_555
C2C S1C 1_555 1_555
C3C C2C 1_555 1_555
H1C C3C 1_555 1_555
C4C C3C 1_555 1_555
C5C C4C 1_555 1_555
H2C C5C 1_555 1_555
C6C S2C 1_555 1_555
C7C C4C 1_555 1_555
C8C C7C 1_555 1_555
H3C C8C 1_555 1_555
H4C C8C 1_555 1_555
H5C C8C 1_555 1_555
C9C C7C 1_555 1_555
H6C C9C 1_555 1_555
H7C C9C 1_555 1_555
H8C C9C 1_555 1_555
C10C C7C 1_555 1_555
H9C C10C 1_555 1_555
H10C C10C 1_555 1_555
H11C C10C 1_555 1_555
C11C O7C 1_555 1_555
C12C S2C 1_555 1_555
C13C C12C 1_555 1_555
H12C C13C 1_555 1_555
C14C C13C 1_555 1_555
C15C C14C 1_555 1_555
H13C C15C 1_555 1_555
C16C S3C 1_555 1_555
C17C C14C 1_555 1_555
C18C C17C 1_555 1_555
H14C C18C 1_555 1_555
H15C C18C 1_555 1_555
H16C C18C 1_555 1_555
C19C C17C 1_555 1_555
H17C C19C 1_555 1_555
H18C C19C 1_555 1_555
H19C C19C 1_555 1_555
C20C C17C 1_555 1_555
H20C C20C 1_555 1_555
H21C C20C 1_555 1_555
H22C C20C 1_555 1_555
C31C C32C 1_555 1_555
C32C H34C 1_555 1_555
C33C C32C 1_555 1_555
C34C C33C 1_555 1_555
H35C C34C 1_555 1_555
C35C C34C 1_555 1_555
C36C C31C 1_555 1_555
H36C C36C 1_555 1_555
C37C O14C 1_555 1_555
C38C O16C 1_555 1_555
C39C O18C 1_555 1_555
S2J O5J 1_555 1_555
O4J Mg1C 1_555 1_555
O5J Mg2J 1_555 1_555
O6J S2J 1_555 1_555
O7J Mg3C 1_555 1_555
C1J O4J 1_555 1_555
C2J S1C 1_555 1_555
C3J C2J 1_555 1_555
H1J C3J 1_555 1_555
C4J C3J 1_555 1_555
C5J C4J 1_555 1_555
H2J C5J 1_555 1_555
C6J S2J 1_555 1_555
C7J C4J 1_555 1_555
C8J C7J 1_555 1_555
H3J C8J 1_555 1_555
H4J C8J 1_555 1_555
H5J C8J 1_555 1_555
C9J C7J 1_555 1_555
H6J C9J 1_555 1_555
H7J C9J 1_555 1_555
H8J C9J 1_555 1_555
C10J C7J 1_555 1_555
H9J C10J 1_555 1_555
H10J C10J 1_555 1_555
H11J C10J 1_555 1_555
C11J O7J 1_555 1_555
C12J S2J 1_555 1_555
C13J C12J 1_555 1_555
H12J C13J 1_555 1_555
C14J C13J 1_555 1_555
C15J C14J 1_555 1_555
H13J C15J 1_555 1_555
C16J S3C 1_555 1_555
C17J C14J 1_555 1_555
C18J C17J 1_555 1_555
H14J C18J 1_555 1_555
H15J C18J 1_555 1_555
H16J C18J 1_555 1_555
C19J C17J 1_555 1_555
H17J C19J 1_555 1_555
H18J C19J 1_555 1_555
H19J C19J 1_555 1_555
C20J C17J 1_555 1_555
H20J C20J 1_555 1_555
H21J C20J 1_555 1_555
H22J C20J 1_555 1_555
Mg2H O4H 1_555 1_555
Mg4H O10H 1_555 1_555
S4H O11H 1_555 1_555
O10H Mg4I 1_555 1_555
O11H Mg4H 1_555 1_555
O12H S4H 1_555 1_555
O13H Mg4H 1_555 1_555
O14H Mg2H 1_555 1_555
O15H Mg3A 1_555 1_555
O16H Mg4H 1_555 1_555
O17H C38H 1_555 1_555
O18H Mg1C 1_555 1_555
O19H C39H 1_555 1_555
C21H O13H 1_555 1_555
C22H C21H 1_555 1_555
C23H C22H 1_555 1_555
H23H C23H 1_555 1_555
C24H C23H 1_555 1_555
C25H C24H 1_555 1_555
H24H C25H 1_555 1_555
C26H S4H 1_555 1_555
C27H C24H 1_555 1_555
C28H C27H 1_555 1_555
H25H C28H 1_555 1_555
H26H C28H 1_555 1_555
H27H C28H 1_555 1_555
C29H C27H 1_555 1_555
H28H C29H 1_555 1_555
H29H C29H 1_555 1_555
H30H C29H 1_555 1_555
C30H C27H 1_555 1_555
H31H C30H 1_555 1_555
H32H C30H 1_555 1_555
H33H C30H 1_555 1_555
C31H C32H 1_555 1_555
C32H H34H 1_555 1_555
C33H C32H 1_555 1_555
C34H C33H 1_555 1_555
H35H C34H 1_555 1_555
C35H C34H 1_555 1_555
C36H C31H 1_555 1_555
H36H C36H 1_555 1_555
C37H O14H 1_555 1_555
C38H O16H 1_555 1_555
C39H O18H 1_555 1_555
S4J O11J 1_555 1_555
O11J Mg4J 1_555 1_555
O12J S4J 1_555 1_555
O13J Mg4H 1_555 1_555
C21J O13J 1_555 1_555
C22J S4H 1_555 1_555
C23J C22J 1_555 1_555
H23J C23J 1_555 1_555
C24J C23J 1_555 1_555
C25J C24J 1_555 1_555
H24J C25J 1_555 1_555
C26J S4J 1_555 1_555
C27J C24J 1_555 1_555
C28J C27J 1_555 1_555
H25J C28J 1_555 1_555
H26J C28J 1_555 1_555
H27J C28J 1_555 1_555
C29J C27J 1_555 1_555
H28J C29J 1_555 1_555
H29J C29J 1_555 1_555
H30J C29J 1_555 1_555
C30J C27J 1_555 1_555
H31J C30J 1_555 1_555
H32J C30J 1_555 1_555
H33J C30J 1_555 1_555
S4K C22H 1_555 1_555
O11K S4K 1_555 1_555
O12K S4K 1_555 1_555
O13K C21K 1_555 1_555
C21K C22K 1_555 1_555
C22K C23K 1_555 1_555
C23K H23K 1_555 1_555
C24K C23K 1_555 1_555
C25K C24K 1_555 1_555
H24K C25K 1_555 1_555
C26K S4K 1_555 1_555
C27K C24K 1_555 1_555
C28K C27K 1_555 1_555
H25K C28K 1_555 1_555
H26K C28K 1_555 1_555
H27K C28K 1_555 1_555
C29K C27K 1_555 1_555
H28K C29K 1_555 1_555
H29K C29K 1_555 1_555
H30K C29K 1_555 1_555
C30K C27K 1_555 1_555
H31K C30K 1_555 1_555
H32K C30K 1_555 1_555
H33K C30K 1_555 1_555
S4I C22K 1_555 1_555
O11I S4I 1_555 1_555
O12I S4I 1_555 1_555
O13I C21I 1_555 1_555
C21I C22I 1_555 1_555
C22I S4J 1_555 1_555
C23I C22I 1_555 1_555
H23I C23I 1_555 1_555
C24I C23I 1_555 1_555
C25I C24I 1_555 1_555
H24I C25I 1_555 1_555
C26I S4I 1_555 1_555
C27I C24I 1_555 1_555
C28I C27I 1_555 1_555
H25I C28I 1_555 1_555
H26I C28I 1_555 1_555
H27I C28I 1_555 1_555
C29I C27I 1_555 1_555
H28I C29I 1_555 1_555
H29I C29I 1_555 1_555
H30I C29I 1_555 1_555
C30I C27I 1_555 1_555
H31I C30I 1_555 1_555
H32I C30I 1_555 1_555
H33I C30I 1_555 1_555
Mg2I O4I 1_555 1_555
Mg4I O13K 1_555 1_555
O14I Mg2I 1_555 1_555
O15I Mg3 1_555 1_555
O16I Mg4I 1_555 1_555
O17I C38I 1_555 1_555
O18I Mg1B 1_555 1_555
O19I C39I 1_555 1_555
C31I C32I 1_555 1_555
C32I H34I 1_555 1_555
C33I C32I 1_555 1_555
C34I C33I 1_555 1_555
H35I C34I 1_555 1_555
C35I C34I 1_555 1_555
C36I C31I 1_555 1_555
H36I C36I 1_555 1_555
C37I O14I 1_555 1_555
C38I O16I 1_555 1_555
C39I O18I 1_555 1_555
Mg2J O1C 1_555 1_555
Mg4J O10H 1_555 1_555
O14J Mg2J 1_555 1_555
O15J Mg3C 1_555 1_555
O16J Mg4J 1_555 1_555
O17J Mg4I 1_555 1_555
O18J Mg1 1_555 1_555
O19J Mg2I 1_555 1_555
C31J C32J 1_555 1_555
C32J H34J 1_555 1_555
C33J C32J 1_555 1_555
C34J C33J 1_555 1_555
H35J C34J 1_555 1_555
C35J C34J 1_555 1_555
C36J C31J 1_555 1_555
H36J C36J 1_555 1_555
C37J O14J 1_555 1_555
C38J O16J 1_555 1_555
C39J O18J 1_555 1_555
Mg2K O1B 1_555 1_555
Mg4K O10H 1_555 1_555
O14K Mg2K 1_555 1_555
O15K Mg3B 1_555 1_555
O16K Mg4K 1_555 1_555
O17K Mg4H 1_555 1_555
O18K Mg1A 1_555 1_555
O19K Mg2H 1_555 1_555
C31K C32K 1_555 1_555
C32K H34K 1_555 1_555
C33K C32K 1_555 1_555
C34K C33K 1_555 1_555
H35K C34K 1_555 1_555
C35K C34K 1_555 1_555
C36K C31K 1_555 1_555
H36K C36K 1_555 1_555
C37K O14K 1_555 1_555
C38K O16K 1_555 1_555
C39K O18K 1_555 1_555
Mg2 O4 1_555 1_555
Mg3 O7 1_555 1_555
O13 Mg4C 1_555 1_555
O15 C37 1_555 1_555
O17 Mg4B 1_555 1_555
C1 C2 1_555 1_555
C1 C6 1_555 1_555
C5 C6 1_555 1_555
C11 C12 1_555 1_555
C11 C16 1_555 1_555
C15 C16 1_555 1_555
C21 C26 1_555 1_555
C25 C26 1_555 1_555
C31 C37 1_555 1_555
C33 C38 1_555 1_555
C35 C36 1_555 1_555
O7I Mg2I 1_555 1_555
C1I C2I 1_555 1_555
C1I C6I 1_555 1_555
C5I C6I 1_555 1_555
C11I C12I 1_555 1_555
C11I C16I 1_555 1_555
C15I C16I 1_555 1_555
O13B Mg4B 1_555 1_555
C21B C22B 1_555 1_555
C21B C26B 1_555 1_555
C25B C26B 1_555 1_555
O11C Mg4C 1_555 1_555
O13C Mg4C 1_555 1_555
C21C C26C 1_555 1_555
C25C C26C 1_555 1_555
O11A Mg4A 1_555 1_555
O13A Mg4A 1_555 1_555
O13A Mg4B 1_555 1_555
C21A C26A 1_555 1_555
C25A C26A 1_555 1_555
Mg2A O4A 1_555 1_555
Mg3A O7A 1_555 1_555
O15A C37A 1_555 1_555
O17A Mg4C 1_555 1_555
C1A C2A 1_555 1_555
C1A C6A 1_555 1_555
C5A C6A 1_555 1_555
C11A C12A 1_555 1_555
C11A C16A 1_555 1_555
C15A C16A 1_555 1_555
C31A C37A 1_555 1_555
C33A C38A 1_555 1_555
C35A C36A 1_555 1_555
O7H Mg2H 1_555 1_555
C1H C2H 1_555 1_555
C1H C6H 1_555 1_555
C5H C6H 1_555 1_555
C11H C12H 1_555 1_555
C11H C16H 1_555 1_555
C15H C16H 1_555 1_555
Mg2B O1B 1_555 1_555
Mg2B O4B 1_555 1_555
Mg3B O7B 1_555 1_555
O15B C37B 1_555 1_555
O17B C38B 1_555 1_555
O19B C39B 1_555 1_555
C1B C2B 1_555 1_555
C1B C6B 1_555 1_555
C5B C6B 1_555 1_555
C11B C12B 1_555 1_555
C11B C16B 1_555 1_555
C15B C16B 1_555 1_555
C31B C37B 1_555 1_555
C33B C38B 1_555 1_555
C35B C36B 1_555 1_555
C35B C39B 1_555 1_555
O4K Mg2K 1_555 1_555
O7K Mg2K 1_555 1_555
C1K C2K 1_555 1_555
C1K C6K 1_555 1_555
C5K C6K 1_555 1_555
C11K C12K 1_555 1_555
C11K C16K 1_555 1_555
C15K C16K 1_555 1_555
Mg2C O1C 1_555 1_555
Mg2C O4C 1_555 1_555
Mg3C O7C 1_555 1_555
O15C C37C 1_555 1_555
O17C C38C 1_555 1_555
O19C C39C 1_555 1_555
C1C C2C 1_555 1_555
C1C C6C 1_555 1_555
C5C C6C 1_555 1_555
C11C C12C 1_555 1_555
C11C C16C 1_555 1_555
C15C C16C 1_555 1_555
C31C C37C 1_555 1_555
C33C C38C 1_555 1_555
C35C C36C 1_555 1_555
C35C C39C 1_555 1_555
O4J Mg2J 1_555 1_555
O7J Mg2J 1_555 1_555
C1J C2J 1_555 1_555
C1J C6J 1_555 1_555
C5J C6J 1_555 1_555
C11J C12J 1_555 1_555
C11J C16J 1_555 1_555
C15J C16J 1_555 1_555
O13H Mg4K 1_555 1_555
O15H C37H 1_555 1_555
O17H Mg4J 1_555 1_555
O19H Mg2J 1_555 1_555
C21H C26H 1_555 1_555
C25H C26H 1_555 1_555
C31H C37H 1_555 1_555
C33H C38H 1_555 1_555
C35H C36H 1_555 1_555
C35H C39H 1_555 1_555
O13J Mg4J 1_555 1_555
C21J C22J 1_555 1_555
C21J C26J 1_555 1_555
C25J C26J 1_555 1_555
O11K Mg4K 1_555 1_555
O13K Mg4K 1_555 1_555
C21K C26K 1_555 1_555
C25K C26K 1_555 1_555
O11I Mg4I 1_555 1_555
O13I Mg4I 1_555 1_555
O13I Mg4J 1_555 1_555
C21I C26I 1_555 1_555
C25I C26I 1_555 1_555
O15I C37I 1_555 1_555
O17I Mg4K 1_555 1_555
O19I Mg2K 1_555 1_555
C31I C37I 1_555 1_555
C33I C38I 1_555 1_555
C35I C36I 1_555 1_555
C35I C39I 1_555 1_555
O15J C37J 1_555 1_555
O17J C38J 1_555 1_555
O19J C39J 1_555 1_555
C31J C37J 1_555 1_555
C33J C38J 1_555 1_555
C35J C36J 1_555 1_555
C35J C39J 1_555 1_555
O15K C37K 1_555 1_555
O17K C38K 1_555 1_555
O19K C39K 1_555 1_555
C31K C37K 1_555 1_555
C33K C38K 1_555 1_555
C35K C36K 1_555 1_555
C35K C39K 1_555 1_555

#END
