
#######################################################################
#
#                 Cambridge Crystallographic Data Centre
#                                CCDC 
#
#######################################################################
#
# If this CIF has been generated from an entry in the Cambridge 
# Structural Database, then it will include bibliographic, chemical, 
# crystal, experimental, refinement or atomic coordinate data resulting 
# from the CCDC's data processing and validation procedures.
#
#######################################################################

data_XUXVET
_chemical_formula_moiety         'C31 H32 O4'
_chemical_name_systematic        
(17-cyclohexyl-12,13-dimethoxy-8-oxatetracyclo[7.7.1.0^2,7^.0^10,15^]heptadeca-2,4,6,10,12,14-hexaen-16-yl)(phenyl)methanone
_symmetry_cell_setting           orthorhombic
_symmetry_space_group_name_H-M   'P 21 21 21'
_symmetry_Int_Tables_number      19
_space_group_name_Hall           'P 2ac 2ab'
loop_
_symmetry_equiv_pos_site_id
_symmetry_equiv_pos_as_xyz
1 x,y,z
2 1/2-x,-y,1/2+z
3 -x,1/2+y,1/2-z
4 1/2+x,1/2-y,-z
_cell_length_a                   7.4734(15)
_cell_length_b                   12.225(2)
_cell_length_c                   27.512(6)
_cell_angle_alpha                90
_cell_angle_beta                 90
_cell_angle_gamma                90
_cell_volume                     2513.56
_exptl_crystal_colour            colorless
_exptl_crystal_description       block
_cell_formula_units_Z            4
loop_
_atom_site_label
_atom_site_type_symbol
_atom_site_fract_x
_atom_site_fract_y
_atom_site_fract_z
O1 O 0.53685(18) 0.25901(11) 0.89926(4)
O2 O 1.18664(16) 0.11061(11) 0.83265(6)
O3 O 0.5290(2) -0.15451(12) 0.90357(6)
O4 O 0.8290(3) -0.18256(11) 0.94917(6)
C1 C 0.72730(18) 0.19835(12) 0.83415(5)
H1 H 0.6809 0.1746 0.8025
C2 C 0.89841(19) 0.26765(12) 0.82374(5)
H2 H 0.8623 0.3429 0.8164
C3 C 1.0283(2) 0.26933(12) 0.86720(6)
H3 H 1.1345 0.3105 0.8571
C4 C 1.0862(2) 0.15042(14) 0.87489(7)
H4 H 1.1654 0.1478 0.9033
C5 C 0.9302(2) 0.07628(12) 0.88433(6)
C6 C 0.9534(3) -0.01661(14) 0.91373(7)
H5 H 1.0630 -0.0279 0.9289
C7 C 0.8188(3) -0.09100(14) 0.92055(7)
C8 C 0.6547(3) -0.07528(13) 0.89663(6)
C9 C 0.6296(2) 0.01844(13) 0.86941(6)
H6 H 0.5190 0.0306 0.8548
C10 C 0.7653(2) 0.09526(12) 0.86320(5)
C11 C 0.9984(2) 0.22178(13) 0.78066(6)
C12 C 0.9632(2) 0.25744(16) 0.73333(6)
H7 H 0.8751 0.3099 0.7281
C13 C 1.0580(3) 0.2156(2) 0.69396(8)
H8 H 1.0347 0.2405 0.6626
C14 C 1.1866(3) 0.1370(2) 0.70188(10)
H9 H 1.2484 0.1076 0.6756
C15 C 1.2247(3) 0.10152(19) 0.74779(10)
H10 H 1.3122 0.0485 0.7525
C16 C 1.1327(2) 0.14445(14) 0.78772(7)
C17 C 0.9578(2) 0.32284(13) 0.91400(6)
H11 H 0.8536 0.2813 0.9253
C18 C 0.8992(3) 0.44094(13) 0.90412(6)
H12 H 1.0000 0.4817 0.8913
H13 H 0.8058 0.4408 0.8796
C19 C 0.8301(4) 0.4980(2) 0.94964(8)
H14 H 0.7982 0.5729 0.9419
H15 H 0.7236 0.4610 0.9613
C20 C 0.9717(5) 0.4972(2) 0.98896(8)
H16 H 1.0732 0.5408 0.9785
H17 H 0.9235 0.5301 1.0183
C21 C 1.0334(4) 0.3827(2) 0.99996(7)
H18 H 0.9353 0.3419 1.0143
H19 H 1.1297 0.3855 1.0236
C22 C 1.0985(3) 0.32322(17) 0.95448(7)
H20 H 1.1285 0.2484 0.9628
H21 H 1.2063 0.3585 0.9427
C23 C 0.58144(19) 0.26899(12) 0.85754(6)
C24 C 0.49218(19) 0.35415(12) 0.82660(6)
C25 C 0.4261(2) 0.44746(14) 0.84968(8)
H22 H 0.4510 0.4599 0.8823
C26 C 0.3232(3) 0.52144(17) 0.82375(11)
H23 H 0.2807 0.5843 0.8388
C27 C 0.2836(3) 0.50181(19) 0.77523(10)
H24 H 0.2107 0.5502 0.7582
C28 C 0.3507(3) 0.4124(2) 0.75257(8)
H25 H 0.3250 0.4005 0.7199
C29 C 0.4575(2) 0.33824(15) 0.77749(7)
H26 H 0.5056 0.2782 0.7614
C30 C 0.9773(5) -0.1902(2) 0.98094(12)
H27 H 0.9700 -0.2571 0.9991
H28 H 0.9765 -0.1293 1.0029
H29 H 1.0860 -0.1895 0.9624
C31 C 0.3857(4) -0.1596(3) 0.87210(12)
H30 H 0.3097 -0.2197 0.8810
H31 H 0.4285 -0.1702 0.8395
H32 H 0.3191 -0.0926 0.8738
loop_
_geom_bond_atom_site_label_1
_geom_bond_atom_site_label_2
_geom_bond_site_symmetry_1
_geom_bond_site_symmetry_2
O1 C23 1_555 1_555
O2 C4 1_555 1_555
O3 C8 1_555 1_555
O4 C7 1_555 1_555
C1 H1 1_555 1_555
C2 C1 1_555 1_555
H2 C2 1_555 1_555
C3 C2 1_555 1_555
H3 C3 1_555 1_555
C4 C3 1_555 1_555
H4 C4 1_555 1_555
C5 C4 1_555 1_555
C6 C5 1_555 1_555
H5 C6 1_555 1_555
C7 C6 1_555 1_555
C8 C7 1_555 1_555
C9 C8 1_555 1_555
H6 C9 1_555 1_555
C10 C1 1_555 1_555
C11 C2 1_555 1_555
C12 C11 1_555 1_555
H7 C12 1_555 1_555
C13 C12 1_555 1_555
H8 C13 1_555 1_555
C14 C13 1_555 1_555
H9 C14 1_555 1_555
C15 C14 1_555 1_555
H10 C15 1_555 1_555
C16 O2 1_555 1_555
C17 C3 1_555 1_555
H11 C17 1_555 1_555
C18 C17 1_555 1_555
H12 C18 1_555 1_555
H13 C18 1_555 1_555
C19 C18 1_555 1_555
H14 C19 1_555 1_555
H15 C19 1_555 1_555
C20 C19 1_555 1_555
H16 C20 1_555 1_555
H17 C20 1_555 1_555
C21 C20 1_555 1_555
H18 C21 1_555 1_555
H19 C21 1_555 1_555
C22 C17 1_555 1_555
H20 C22 1_555 1_555
H21 C22 1_555 1_555
C23 C1 1_555 1_555
C24 C23 1_555 1_555
C25 C24 1_555 1_555
H22 C25 1_555 1_555
C26 C25 1_555 1_555
H23 C26 1_555 1_555
C27 C26 1_555 1_555
H24 C27 1_555 1_555
C28 C27 1_555 1_555
H25 C28 1_555 1_555
C29 C24 1_555 1_555
H26 C29 1_555 1_555
C30 O4 1_555 1_555
H27 C30 1_555 1_555
H28 C30 1_555 1_555
H29 C30 1_555 1_555
C31 O3 1_555 1_555
H30 C31 1_555 1_555
H31 C31 1_555 1_555
H32 C31 1_555 1_555
C5 C10 1_555 1_555
C9 C10 1_555 1_555
C11 C16 1_555 1_555
C15 C16 1_555 1_555
C21 C22 1_555 1_555
C28 C29 1_555 1_555

#END
