
#######################################################################
#
#                 Cambridge Crystallographic Data Centre
#                                CCDC 
#
#######################################################################
#
# If this CIF has been generated from an entry in the Cambridge 
# Structural Database, then it will include bibliographic, chemical, 
# crystal, experimental, refinement or atomic coordinate data resulting 
# from the CCDC's data processing and validation procedures.
#
#######################################################################

data_XUXWEU
_chemical_formula_moiety         'C33 H28 O7,0.5(C1 H2 Cl2)'
_chemical_name_systematic        
'Phenyl(1-(3,4,5-trimethoxyphenyl)-5,7,19-trioxapentacyclo[10.7.1.0^2,10^.0^4,8^.0^13,18^]icosa-2(10),3,8,13,15,17-hexaen-11-yl)methanone dichloromethane solvate'
_symmetry_cell_setting           orthorhombic
_symmetry_space_group_name_H-M   'C 2 2 21'
_symmetry_Int_Tables_number      20
_space_group_name_Hall           'C 2n 2'
loop_
_symmetry_equiv_pos_site_id
_symmetry_equiv_pos_as_xyz
1 x,y,z
2 -x,-y,1/2+z
3 -x,y,1/2-z
4 x,-y,-z
5 1/2+x,1/2+y,z
6 1/2-x,1/2-y,1/2+z
7 1/2-x,1/2+y,1/2-z
8 1/2+x,1/2-y,-z
_cell_length_a                   15.563(3)
_cell_length_b                   21.504(4)
_cell_length_c                   17.424(4)
_cell_angle_alpha                90
_cell_angle_beta                 90
_cell_angle_gamma                90
_cell_volume                     5831.23
_exptl_crystal_colour            colorless
_exptl_crystal_description       column
_cell_formula_units_Z            8
loop_
_atom_site_label
_atom_site_type_symbol
_atom_site_fract_x
_atom_site_fract_y
_atom_site_fract_z
Cl1 Cl 0.55017(7) 0.98123(5) 0.92039(5)
C1 C 0.6076(4) 1.0000 1.0000
H1 H 0.6440 1.0346 0.9876
Cl1C Cl 0.55017(7) 1.01877(5) 1.07961(5)
H1C H 0.6440 0.9654 1.0124
O1 O 0.71613(14) 0.70510(9) 0.61853(10)
O2 O 0.85781(10) 0.57941(6) 0.83952(8)
O3 O 0.86601(12) 0.35812(6) 0.75872(10)
O4 O 0.75342(13) 0.34424(7) 0.64679(9)
O5 O 0.66774(14) 0.44502(11) 0.58704(13)
O6 O 0.51570(10) 0.58853(8) 0.88609(10)
O7 O 0.49644(10) 0.69361(7) 0.86582(10)
C2 C 0.77938(13) 0.72196(8) 0.74110(12)
H2 H 0.7832 0.7604 0.7711
C3 C 0.86842(13) 0.68998(9) 0.74360(12)
H3 H 0.9089 0.7135 0.7118
C4 C 0.86051(13) 0.62427(9) 0.71251(12)
H4 H 0.9171 0.6062 0.7060
H5 H 0.8321 0.6249 0.6629
C5 C 0.80827(13) 0.58571(9) 0.76921(11)
C6 C 0.72361(12) 0.61797(8) 0.78984(11)
C7 C 0.65923(13) 0.58232(9) 0.82605(12)
H6 H 0.6665 0.5400 0.8347
C8 C 0.58576(13) 0.61228(9) 0.84796(12)
C9 C 0.57389(12) 0.67493(9) 0.83577(11)
C10 C 0.63466(13) 0.71067(9) 0.80080(12)
H7 H 0.6258 0.7529 0.7926
C11 C 0.71141(12) 0.68137(8) 0.77754(11)
C12 C 0.90178(12) 0.68727(9) 0.82521(12)
C13 C 0.94080(14) 0.73866(11) 0.85957(14)
H8 H 0.9447 0.7758 0.8324
C14 C 0.97374(17) 0.73561(13) 0.93286(16)
H9 H 1.0000 0.7702 0.9548
C15 C 0.96732(18) 0.68077(14) 0.97323(15)
H10 H 0.9899 0.6783 1.0225
C16 C 0.92783(15) 0.62955(12) 0.94149(14)
H11 H 0.9232 0.5929 0.9695
C17 C 0.89494(13) 0.63271(9) 0.86756(13)
C18 C 0.75734(14) 0.73954(10) 0.65874(13)
C19 C 0.79174(15) 0.79958(11) 0.62715(13)
C20 C 0.7679(2) 0.81614(14) 0.55312(15)
H12 H 0.7323 0.7902 0.5246
C21 C 0.7972(3) 0.87125(18) 0.5221(2)
H13 H 0.7807 0.8824 0.4727
C22 C 0.8501(3) 0.90956(18) 0.5628(2)
H14 H 0.8704 0.9461 0.5408
C23 C 0.8734(2) 0.89419(14) 0.6362(2)
H15 H 0.9087 0.9206 0.6643
C24 C 0.84408(17) 0.83900(11) 0.66849(17)
H16 H 0.8599 0.8286 0.7183
C25 C 0.79428(12) 0.52039(9) 0.73822(12)
C26 C 0.83822(12) 0.46979(9) 0.76717(11)
H17 H 0.8762 0.4748 0.8079
C27 C 0.82542(13) 0.41113(9) 0.73507(11)
C28 C 0.76852(14) 0.40312(9) 0.67446(11)
C29 C 0.72335(15) 0.45431(10) 0.64689(13)
C30 C 0.73725(15) 0.51253(10) 0.67801(13)
H18 H 0.7081 0.5467 0.6583
C31 C 0.45314(16) 0.63735(12) 0.88451(18)
H19 H 0.4094 0.6284 0.8464
H20 H 0.4255 0.6411 0.9342
C32 C 0.91732(18) 0.36108(11) 0.82557(15)
H21 H 0.9420 0.3209 0.8355
H22 H 0.8824 0.3733 0.8684
H23 H 0.9624 0.3909 0.8182
C33 C 0.7845(3) 0.33179(15) 0.57257(19)
H24 H 0.7711 0.2896 0.5589
H25 H 0.8456 0.3377 0.5715
H26 H 0.7578 0.3596 0.5366
C34 C 0.5874(4) 0.4315(3) 0.6044(4)
H27 H 0.5545 0.4275 0.5581
H28 H 0.5637 0.4642 0.6354
H29 H 0.5856 0.3931 0.6324
C35? C 0.6016(5) 0.4788(4) 0.5725(4)
H30? H 0.5729 0.4630 0.5277
H31? H 0.6194 0.5209 0.5633
H32? H 0.5630 0.4777 0.6154
loop_
_geom_bond_atom_site_label_1
_geom_bond_atom_site_label_2
_geom_bond_site_symmetry_1
_geom_bond_site_symmetry_2
Cl1 C1 1_555 1_555
C1 H1 1_555 1_555
O1 C18 1_555 1_555
O2 C5 1_555 1_555
O3 C27 1_555 1_555
O4 C28 1_555 1_555
O5 C29 1_555 1_555
O6 C8 1_555 1_555
O7 C9 1_555 1_555
C2 H2 1_555 1_555
C3 C2 1_555 1_555
H3 C3 1_555 1_555
C4 C3 1_555 1_555
H4 C4 1_555 1_555
H5 C4 1_555 1_555
C5 C4 1_555 1_555
C6 C5 1_555 1_555
C7 C6 1_555 1_555
H6 C7 1_555 1_555
C8 C7 1_555 1_555
C9 C8 1_555 1_555
C10 C9 1_555 1_555
H7 C10 1_555 1_555
C11 C2 1_555 1_555
C12 C3 1_555 1_555
C13 C12 1_555 1_555
H8 C13 1_555 1_555
C14 C13 1_555 1_555
H9 C14 1_555 1_555
C15 C14 1_555 1_555
H10 C15 1_555 1_555
C16 C15 1_555 1_555
H11 C16 1_555 1_555
C17 O2 1_555 1_555
C18 C2 1_555 1_555
C19 C18 1_555 1_555
C20 C19 1_555 1_555
H12 C20 1_555 1_555
C21 C20 1_555 1_555
H13 C21 1_555 1_555
C22 C21 1_555 1_555
H14 C22 1_555 1_555
C23 C22 1_555 1_555
H15 C23 1_555 1_555
C24 C19 1_555 1_555
H16 C24 1_555 1_555
C25 C5 1_555 1_555
C26 C25 1_555 1_555
H17 C26 1_555 1_555
C27 C26 1_555 1_555
C28 C27 1_555 1_555
C29 C28 1_555 1_555
C30 C25 1_555 1_555
H18 C30 1_555 1_555
C31 O6 1_555 1_555
H19 C31 1_555 1_555
H20 C31 1_555 1_555
C32 O3 1_555 1_555
H21 C32 1_555 1_555
H22 C32 1_555 1_555
H23 C32 1_555 1_555
C33 O4 1_555 1_555
H24 C33 1_555 1_555
H25 C33 1_555 1_555
H26 C33 1_555 1_555
C34 O5 1_555 1_555
H27 C34 1_555 1_555
H28 C34 1_555 1_555
H29 C34 1_555 1_555
Cl1C C1 1_555 1_555
H1C C1 1_555 1_555
O7 C31 1_555 1_555
C6 C11 1_555 1_555
C10 C11 1_555 1_555
C12 C17 1_555 1_555
C16 C17 1_555 1_555
C23 C24 1_555 1_555
C29 C30 1_555 1_555

#END
