
#######################################################################
#
#                 Cambridge Crystallographic Data Centre
#                                CCDC 
#
#######################################################################
#
# If this CIF has been generated from an entry in the Cambridge 
# Structural Database, then it will include bibliographic, chemical, 
# crystal, experimental, refinement or atomic coordinate data resulting 
# from the CCDC's data processing and validation procedures.
#
#######################################################################

data_XUXWAQ
_chemical_formula_moiety         'C30 H30 O4'
_chemical_name_systematic        
(12',13'-dimethoxy-8'-oxaspiro[cyclohexane-1,17'-tetracyclo[7.7.1.0^2,7^.0^10,15^]heptadecane]-2',4',6',10',12',14'-hexaen-16'-yl)(phenyl)methanone
_symmetry_cell_setting           orthorhombic
_symmetry_space_group_name_H-M   'P 21 21 21'
_symmetry_Int_Tables_number      19
_space_group_name_Hall           'P 2ac 2ab'
loop_
_symmetry_equiv_pos_site_id
_symmetry_equiv_pos_as_xyz
1 x,y,z
2 1/2-x,-y,1/2+z
3 1/2+x,1/2-y,-z
4 -x,1/2+y,1/2-z
_cell_length_a                   10.174
_cell_length_b                   11.562
_cell_length_c                   20.412
_cell_angle_alpha                90
_cell_angle_beta                 90
_cell_angle_gamma                90
_cell_volume                     2401.1
_exptl_crystal_colour            colorless
_exptl_crystal_description       block
_cell_formula_units_Z            4
loop_
_atom_site_label
_atom_site_type_symbol
_atom_site_fract_x
_atom_site_fract_y
_atom_site_fract_z
C1 C 0.0609(4) 0.3573(3) 0.1759(2)
H1 H 0.0362 0.3579 0.2212
H2 H -0.0040 0.3980 0.1506
H3 H 0.1447 0.3945 0.1708
C2 C 0.0531(5) -0.0903(5) 0.0972(3)
H4 H 0.1356 -0.1250 0.0856
H5 H -0.0064 -0.0957 0.0609
H6 H 0.0166 -0.1301 0.1343
C3 C 0.1488(3) 0.1678(3) 0.18804(15)
C4 C 0.1505(3) 0.0517(3) 0.16669(16)
C5 C 0.2241(3) 0.1988(3) 0.24126(15)
H7 H 0.2218 0.2751 0.2557
C6 C 0.2271(3) -0.0265(3) 0.19977(18)
H8 H 0.2278 -0.1030 0.1858
C7 C 0.3031(3) 0.1200(3) 0.27409(15)
C8 C 0.3039(3) 0.0043(2) 0.25364(15)
C9 C 0.3879(3) 0.1601(3) 0.32995(14)
H9 H 0.4404 0.2240 0.3123
C10 C 0.3064(3) 0.2131(3) 0.38616(16)
C11 C 0.3756(3) 0.2958(3) 0.43236(15)
C12 C 0.3065(4) 0.3310(4) 0.48802(18)
H10 H 0.2244 0.2999 0.4975
C13 C 0.4975(3) 0.3437(4) 0.4199(2)
H11 H 0.5440 0.3201 0.3830
C14 C 0.3625(6) 0.4130(5) 0.5290(2)
H12 H 0.3170 0.4370 0.5661
C15 C 0.5519(4) 0.4259(4) 0.4610(2)
H13 H 0.6336 0.4581 0.4517
C16 C 0.4831(6) 0.4593(5) 0.5159(2)
H14 H 0.5189 0.5138 0.5442
C17 C 0.3951(3) -0.0832(3) 0.28422(18)
H15 H 0.3513 -0.1587 0.2835
C18 C 0.4319(3) -0.0553(3) 0.35556(18)
C19 C 0.3104(5) -0.0595(4) 0.4029(3)
H16 H 0.3342 -0.0241 0.4444
H17 H 0.2392 -0.0146 0.3841
C20 C 0.2625(5) -0.1826(4) 0.4155(3)
H18 H 0.1909 -0.1806 0.4469
H19 H 0.2286 -0.2147 0.3749
C21 C 0.3708(6) -0.2610(5) 0.4415(4)
H20 H 0.3970 -0.2351 0.4848
H21 H 0.3376 -0.3394 0.4454
C22 C 0.4895(5) -0.2601(4) 0.3962(3)
H22 H 0.5605 -0.3025 0.4170
H23 H 0.4670 -0.3001 0.3560
C23 C 0.5371(9) -0.1408(8) 0.3796(6)
H24 H 0.6040 -0.1474 0.3460
H25 H 0.5787 -0.1082 0.4182
C24 C 0.4894(3) 0.0674(3) 0.35318(16)
H26 H 0.5216 0.0884 0.3968
C25 C 0.6034(3) 0.0692(3) 0.30530(15)
C26 C 0.6044(3) -0.0036(3) 0.25110(17)
C27 C 0.7104(3) 0.1434(3) 0.31227(18)
H27 H 0.7140 0.1922 0.3484
C28 C 0.7030(3) 0.0015(3) 0.20432(17)
H28 H 0.7003 -0.0472 0.1681
C29 C 0.8105(3) 0.1465(3) 0.2674(2)
H29 H 0.8825 0.1944 0.2747
C30 C 0.8055(3) 0.0792(3) 0.2116(2)
H30 H 0.8699 0.0859 0.1795
O1 O 0.0696(2) 0.2409(2) 0.15342(13)
O2 O 0.0734(3) 0.0281(2) 0.11348(13)
O3 O 0.1907(2) 0.1976(3) 0.39181(13)
O4 O 0.5127(2) -0.09051(19) 0.24310(13)
C31? C 0.303(2) -0.097(2) 0.3804(12)
H31? H 0.2830 -0.1738 0.3643
H32? H 0.2325 -0.0445 0.3689
C32? C 0.330(2) -0.0972(18) 0.4550(10)
H33? H 0.3644 -0.0225 0.4680
H34? H 0.2479 -0.1096 0.4782
C33? C 0.426(3) -0.190(3) 0.4737(12)
H35? H 0.3928 -0.2659 0.4617
H36? H 0.4426 -0.1892 0.5205
C34? C 0.557(2) -0.1631(17) 0.4348(11)
H37? H 0.6058 -0.1027 0.4571
H38? H 0.6117 -0.2317 0.4330
C35? C 0.534(2) -0.1365(16) 0.3878(12)
H39? H 0.5202 -0.2090 0.3649
H40? H 0.6168 -0.1071 0.3715
loop_
_geom_bond_atom_site_label_1
_geom_bond_atom_site_label_2
_geom_bond_site_symmetry_1
_geom_bond_site_symmetry_2
C1 H1 1_555 1_555
H2 C1 1_555 1_555
H3 C1 1_555 1_555
C2 H4 1_555 1_555
H5 C2 1_555 1_555
H6 C2 1_555 1_555
C3 C4 1_555 1_555
C4 C6 1_555 1_555
C5 C3 1_555 1_555
H7 C5 1_555 1_555
C6 H8 1_555 1_555
C7 C5 1_555 1_555
C8 C6 1_555 1_555
C9 C7 1_555 1_555
H9 C9 1_555 1_555
C10 C9 1_555 1_555
C11 C10 1_555 1_555
C12 C11 1_555 1_555
H10 C12 1_555 1_555
C13 C11 1_555 1_555
H11 C13 1_555 1_555
C14 C12 1_555 1_555
H12 C14 1_555 1_555
C15 C13 1_555 1_555
H13 C15 1_555 1_555
C16 C14 1_555 1_555
H14 C16 1_555 1_555
C17 C8 1_555 1_555
H15 C17 1_555 1_555
C18 C17 1_555 1_555
C19 C18 1_555 1_555
H16 C19 1_555 1_555
H17 C19 1_555 1_555
C20 C19 1_555 1_555
H18 C20 1_555 1_555
H19 C20 1_555 1_555
C21 C20 1_555 1_555
H20 C21 1_555 1_555
H21 C21 1_555 1_555
C22 C21 1_555 1_555
H22 C22 1_555 1_555
H23 C22 1_555 1_555
C23 C18 1_555 1_555
H24 C23 1_555 1_555
H25 C23 1_555 1_555
C24 C9 1_555 1_555
H26 C24 1_555 1_555
C25 C24 1_555 1_555
C26 C25 1_555 1_555
C27 C25 1_555 1_555
H27 C27 1_555 1_555
C28 C26 1_555 1_555
H28 C28 1_555 1_555
C29 C27 1_555 1_555
H29 C29 1_555 1_555
C30 C28 1_555 1_555
H30 C30 1_555 1_555
O1 C1 1_555 1_555
O2 C2 1_555 1_555
O3 C10 1_555 1_555
O4 C17 1_555 1_555
C3 O1 1_555 1_555
C4 O2 1_555 1_555
C7 C8 1_555 1_555
C15 C16 1_555 1_555
C18 C24 1_555 1_555
C22 C23 1_555 1_555
C26 O4 1_555 1_555
C29 C30 1_555 1_555

#END
