
#######################################################################
#
#                 Cambridge Crystallographic Data Centre
#                                CCDC 
#
#######################################################################
#
# If this CIF has been generated from an entry in the Cambridge 
# Structural Database, then it will include bibliographic, chemical, 
# crystal, experimental, refinement or atomic coordinate data resulting 
# from the CCDC's data processing and validation procedures.
#
#######################################################################

data_XUYJUX
_chemical_formula_moiety         'C20 H14 O2,0.75(C10 H8 N2),0.5(C3 H6 O1)'
_chemical_name_systematic        
"2,7-dihydroxytriptycene 4,4'-bipyridine acetone solvate"
_symmetry_cell_setting           monoclinic
_symmetry_space_group_name_H-M   'P 21/c'
_symmetry_Int_Tables_number      14
_space_group_name_Hall           '-P 2ybc'
loop_
_symmetry_equiv_pos_site_id
_symmetry_equiv_pos_as_xyz
1 x,y,z
2 -x,1/2+y,1/2-z
3 -x,-y,-z
4 x,1/2-y,1/2+z
_cell_length_a                   22.069(7)
_cell_length_b                   8.189(3)
_cell_length_c                   28.795(9)
_cell_angle_alpha                90
_cell_angle_beta                 109.128(5)
_cell_angle_gamma                90
_cell_volume                     4916.61
_cell_formula_units_Z            8
loop_
_atom_site_label
_atom_site_type_symbol
_atom_site_fract_x
_atom_site_fract_y
_atom_site_fract_z
O1 O 0.23518(13) -0.2351(3) 0.47667(9)
H1 H 0.2503 -0.3255 0.4750
O2 O -0.07801(14) 0.3906(4) 0.37270(12)
H2 H -0.0552 0.4579 0.3916
C1 C 0.19004(15) -0.0189(4) 0.42133(12)
H5 H 0.2110 0.0554 0.4457
C2 C 0.19730(16) -0.1864(4) 0.43030(12)
C3 C 0.16611(17) -0.2961(4) 0.39393(14)
H6 H 0.1706 -0.4076 0.4003
C4 C 0.12812(17) -0.2419(4) 0.34803(14)
H7 H 0.1079 -0.3169 0.3236
C5 C 0.12026(15) -0.0761(4) 0.33857(12)
C6 C 0.15114(15) 0.0359(4) 0.37557(11)
C7 C 0.13341(15) 0.2135(4) 0.36074(11)
H8 H 0.1548 0.2912 0.3869
C8 C 0.06023(15) 0.2200(4) 0.34616(12)
C9 C 0.02509(17) 0.3173(4) 0.36666(13)
H9 H 0.0454 0.3950 0.3902
C10 C -0.04123(18) 0.2987(4) 0.35199(14)
C11 C -0.07160(18) 0.1865(5) 0.31620(15)
H10 H -0.1159 0.1748 0.3066
C12 C -0.03633(18) 0.0908(4) 0.29449(14)
H11 H -0.0571 0.0162 0.2701
C13 C 0.03007(16) 0.1068(4) 0.30929(13)
C14 C 0.07694(17) 0.0071(4) 0.29195(12)
H12 H 0.0555 -0.0705 0.2658
C15 C 0.11893(17) 0.1312(4) 0.27645(12)
C16 C 0.1280(2) 0.1439(5) 0.23156(14)
H13 H 0.1087 0.0696 0.2067
C17 C 0.1664(2) 0.2692(6) 0.22356(17)
H14 H 0.1729 0.2768 0.1933
C18 C 0.19463(19) 0.3807(5) 0.25944(16)
H15 H 0.2194 0.4646 0.2534
C19 C 0.18605(16) 0.3679(4) 0.30488(14)
H16 H 0.2056 0.4428 0.3295
C20 C 0.14852(16) 0.2438(4) 0.31373(12)
O3 O 0.67910(14) 0.9048(3) 0.37837(8)
H3 H 0.6983 0.9791 0.3702
O4 O 0.45190(11) 1.0244(3) 0.06308(8)
H4 H 0.4812 1.0864 0.0634
C21 C 0.65364(15) 0.8416(4) 0.29196(11)
H17 H 0.6827 0.9189 0.2884
C22 C 0.64491(16) 0.8175(4) 0.33771(11)
C23 C 0.60143(17) 0.7028(4) 0.34279(12)
H18 H 0.5959 0.6882 0.3732
C24 C 0.56589(16) 0.6091(4) 0.30272(12)
H19 H 0.5368 0.5319 0.3063
C25 C 0.57408(15) 0.6315(4) 0.25737(11)
C26 C 0.61819(14) 0.7481(3) 0.25249(11)
C27 C 0.62416(14) 0.7512(3) 0.20109(10)
H20 H 0.6553 0.8320 0.1978
C28 C 0.55602(14) 0.7805(3) 0.16519(10)
C29 C 0.53760(14) 0.9023(3) 0.13006(10)
H21 H 0.5673 0.9794 0.1274
C30 C 0.47410(15) 0.9090(4) 0.09851(11)
C31 C 0.43077(16) 0.7922(4) 0.10349(12)
H22 H 0.3885 0.7958 0.0827
C32 C 0.44949(15) 0.6707(4) 0.13895(12)
H23 H 0.4198 0.5940 0.1418
C33 C 0.51257(15) 0.6636(4) 0.17023(11)
C34 C 0.54197(15) 0.5372(4) 0.20977(11)
H24 H 0.5107 0.4568 0.2130
C35 C 0.59727(15) 0.4596(4) 0.19659(11)
C36 C 0.60751(18) 0.2958(4) 0.19021(12)
H25 H 0.5791 0.2177 0.1944
C37 C 0.66037(18) 0.2488(4) 0.17758(14)
H26 H 0.6669 0.1386 0.1730
C38 C 0.70317(18) 0.3614(4) 0.17173(14)
H27 H 0.7381 0.3276 0.1629
C39 C 0.69429(15) 0.5271(4) 0.17905(11)
H28 H 0.7236 0.6039 0.1757
C40 C 0.64132(14) 0.5759(3) 0.19139(10)
N1 N 0.46577(14) -0.2462(3) 0.44902(10)
N2 N 0.28503(14) 0.4435(4) 0.47766(11)
C41 C 0.47502(17) -0.0977(4) 0.43336(12)
H29 H 0.5059 -0.0859 0.4180
C42 C 0.44154(16) 0.0386(4) 0.43856(11)
H30 H 0.4500 0.1390 0.4269
C43 C 0.39500(15) 0.0264(4) 0.46133(10)
C44 C 0.38504(17) -0.1286(4) 0.47807(12)
H31 H 0.3543 -0.1438 0.4933
C45 C 0.42139(18) -0.2587(4) 0.47166(13)
H32 H 0.4148 -0.3604 0.4836
C46 C 0.35723(15) 0.1701(4) 0.46750(11)
C47 C 0.33601(16) 0.1885(4) 0.50770(12)
H33 H 0.3455 0.1093 0.5322
C48 C 0.30079(17) 0.3250(5) 0.51110(13)
H34 H 0.2873 0.3345 0.5384
C49 C 0.30561(18) 0.4267(4) 0.43917(14)
H35 H 0.2954 0.5081 0.4153
C50 C 0.34115(17) 0.2956(4) 0.43285(12)
H36 H 0.3545 0.2907 0.4054
N3 N 1.0057(3) 0.1438(7) 0.0743(3)
C51 C 0.9732(6) 0.1230(10) 0.0376(5)
H37 H 0.9701 0.0151 0.0270
C52 C 0.9315(4) 0.2446(11) 0.0003(3)
H38 H 0.9068 0.2148 -0.0314
C53 C 0.9338(3) 0.4003(8) 0.0176(2)
C54 C 0.9718(3) 0.4210(8) 0.0664(2)
H39 H 0.9741 0.5237 0.0807
C55 C 1.0049(3) 0.2979(8) 0.0935(3)
H40 H 1.0283 0.3167 0.1264
C59 C 0.8973(3) 0.5377(9) -0.0123(2)
C60 C 0.8663(4) 0.5165(13) -0.0623(3)
C61 C 0.8338(5) 0.6550(18) -0.0885(4)
C62 C 0.8550(5) 0.8128(13) -0.0220(4)
C63 C 0.8906(4) 0.6842(11) 0.0070(3)
H47 H 0.8668 0.4171 -0.0777
H48 H 0.8145 0.6438 -0.1222
H49 H 0.8500 0.9114 -0.0077
H50 H 0.9101 0.7010 0.0405
N4 N 0.8289(4) 0.7907(13) -0.0702(4)
O5 O 0.2518(2) 0.6435(4) 0.15721(13)
C56 C 0.2487(3) 0.9101(7) 0.1867(2)
H41 H 0.2440 0.8538 0.2145
H42 H 0.2119 0.9780 0.1722
H43 H 0.2866 0.9767 0.1971
C57 C 0.2543(2) 0.7902(5) 0.15018(16)
C58 C 0.2606(4) 0.8563(9) 0.1052(2)
H44 H 0.3015 0.9093 0.1124
H45 H 0.2270 0.9339 0.0912
H46 H 0.2576 0.7692 0.0822
loop_
_geom_bond_atom_site_label_1
_geom_bond_atom_site_label_2
_geom_bond_site_symmetry_1
_geom_bond_site_symmetry_2
O1 H1 1_555 1_555
O2 H2 1_555 1_555
O3 H3 1_555 1_555
O4 H4 1_555 1_555
N1 C41 1_555 1_555
N2 C48 1_555 1_555
C1 H5 1_555 1_555
C2 O1 1_555 1_555
C3 C2 1_555 1_555
H6 C3 1_555 1_555
C4 C3 1_555 1_555
H7 C4 1_555 1_555
C5 C4 1_555 1_555
C6 C1 1_555 1_555
C7 C6 1_555 1_555
H8 C7 1_555 1_555
C8 C7 1_555 1_555
C9 C8 1_555 1_555
H9 C9 1_555 1_555
C10 O2 1_555 1_555
C11 C10 1_555 1_555
H10 C11 1_555 1_555
C12 C11 1_555 1_555
H11 C12 1_555 1_555
C13 C8 1_555 1_555
C14 C5 1_555 1_555
H12 C14 1_555 1_555
C15 C14 1_555 1_555
C16 C15 1_555 1_555
H13 C16 1_555 1_555
C17 C16 1_555 1_555
H14 C17 1_555 1_555
C18 C17 1_555 1_555
H15 C18 1_555 1_555
C19 C18 1_555 1_555
H16 C19 1_555 1_555
C20 C7 1_555 1_555
C21 H17 1_555 1_555
C22 O3 1_555 1_555
C23 C22 1_555 1_555
H18 C23 1_555 1_555
C24 C23 1_555 1_555
H19 C24 1_555 1_555
C25 C24 1_555 1_555
C26 C21 1_555 1_555
C27 C26 1_555 1_555
H20 C27 1_555 1_555
C28 C27 1_555 1_555
C29 C28 1_555 1_555
H21 C29 1_555 1_555
C30 O4 1_555 1_555
C31 C30 1_555 1_555
H22 C31 1_555 1_555
C32 C31 1_555 1_555
H23 C32 1_555 1_555
C33 C28 1_555 1_555
C34 C25 1_555 1_555
H24 C34 1_555 1_555
C35 C34 1_555 1_555
C36 C35 1_555 1_555
H25 C36 1_555 1_555
C37 C36 1_555 1_555
H26 C37 1_555 1_555
C38 C37 1_555 1_555
H27 C38 1_555 1_555
C39 C38 1_555 1_555
H28 C39 1_555 1_555
C40 C27 1_555 1_555
C41 H29 1_555 1_555
C42 C41 1_555 1_555
H30 C42 1_555 1_555
C43 C42 1_555 1_555
C44 C43 1_555 1_555
H31 C44 1_555 1_555
C45 N1 1_555 1_555
H32 C45 1_555 1_555
C46 C43 1_555 1_555
C47 C46 1_555 1_555
H33 C47 1_555 1_555
C48 C47 1_555 1_555
H34 C48 1_555 1_555
C49 N2 1_555 1_555
H35 C49 1_555 1_555
C50 C46 1_555 1_555
H36 C50 1_555 1_555
N3 C51 1_555 1_555
C51 H37 1_555 1_555
C52 C51 1_555 1_555
H38 C52 1_555 1_555
C53 C52 1_555 1_555
C54 C53 1_555 1_555
H39 C54 1_555 1_555
C55 N3 1_555 1_555
H40 C55 1_555 1_555
O5 C57 1_555 1_555
C56 H41 1_555 1_555
H42 C56 1_555 1_555
H43 C56 1_555 1_555
C57 C56 1_555 1_555
C58 C57 1_555 1_555
H44 C58 1_555 1_555
H45 C58 1_555 1_555
H46 C58 1_555 1_555
C59 C53 1_555 1_555
C60 C59 1_555 1_555
C61 C60 1_555 1_555
C62 C63 1_555 1_555
C63 C59 1_555 1_555
H47 C60 1_555 1_555
H48 C61 1_555 1_555
H49 C62 1_555 1_555
H50 C63 1_555 1_555
N4 C61 1_555 1_555
C1 C2 1_555 1_555
C5 C6 1_555 1_555
C9 C10 1_555 1_555
C12 C13 1_555 1_555
C13 C14 1_555 1_555
C15 C20 1_555 1_555
C19 C20 1_555 1_555
C21 C22 1_555 1_555
C25 C26 1_555 1_555
C29 C30 1_555 1_555
C32 C33 1_555 1_555
C33 C34 1_555 1_555
C35 C40 1_555 1_555
C39 C40 1_555 1_555
C44 C45 1_555 1_555
C49 C50 1_555 1_555
C54 C55 1_555 1_555
C62 N4 1_555 1_555

#END
