
#######################################################################
#
#                 Cambridge Crystallographic Data Centre
#                                CCDC 
#
#######################################################################
#
# If this CIF has been generated from an entry in the Cambridge 
# Structural Database, then it will include bibliographic, chemical, 
# crystal, experimental, refinement or atomic coordinate data resulting 
# from the CCDC's data processing and validation procedures.
#
#######################################################################

data_XUYJOR
_chemical_formula_moiety         'C20 H14 O2,0.5(C3 H6 O1)'
_chemical_name_systematic        '2,7-dihydroxytriptycene acetone solvate'
_symmetry_cell_setting           monoclinic
_symmetry_space_group_name_H-M   'P 21/c'
_symmetry_Int_Tables_number      14
_space_group_name_Hall           '-P 2ybc'
loop_
_symmetry_equiv_pos_site_id
_symmetry_equiv_pos_as_xyz
1 x,y,z
2 -x,1/2+y,1/2-z
3 -x,-y,-z
4 x,1/2-y,1/2+z
_cell_length_a                   10.2936(6)
_cell_length_b                   13.0927(8)
_cell_length_c                   24.4245(15)
_cell_angle_alpha                90
_cell_angle_beta                 96.836(3)
_cell_angle_gamma                90
_cell_volume                     3268.31
_exptl_crystal_colour            colorless
_exptl_crystal_description       prism
_cell_formula_units_Z            8
loop_
_atom_site_label
_atom_site_type_symbol
_atom_site_fract_x
_atom_site_fract_y
_atom_site_fract_z
O1 O 0.0847(2) 0.94562(16) 0.14182(9)
H1 H 0.129(3) 1.006(3) 0.1441(14)
O2 O 0.1790(2) 0.42961(17) 0.37621(8)
H2 H 0.096(4) 0.431(3) 0.3706(14)
C1 C 0.1356(3) 0.5760(2) 0.18539(11)
H5 H 0.0383 0.5712 0.1840
C2 C 0.1839(3) 0.6837(2) 0.17487(11)
C3 C 0.1059(3) 0.7697(2) 0.16439(11)
H6 H 0.0139 0.7657 0.1648
C4 C 0.1648(3) 0.8617(2) 0.15328(12)
C5 C 0.2988(3) 0.8680(2) 0.15259(12)
H7 H 0.3375 0.9309 0.1438
C6 C 0.3770(3) 0.7822(2) 0.16474(11)
H8 H 0.4692 0.7871 0.1654
C7 C 0.3199(3) 0.6896(2) 0.17592(11)
C8 C 0.3890(3) 0.5883(2) 0.18904(12)
H9 H 0.4863 0.5934 0.1906
C9 C 0.3443(3) 0.5505(2) 0.24308(11)
C10 C 0.4227(3) 0.5203(2) 0.29039(12)
H10 H 0.5151 0.5266 0.2926
C11 C 0.3657(3) 0.4806(2) 0.33477(12)
H11 H 0.4191 0.4599 0.3673
C12 C 0.2312(3) 0.4714(2) 0.33129(11)
C13 C 0.1500(3) 0.5026(2) 0.28425(11)
H12 H 0.0576 0.4965 0.2822
C14 C 0.2084(3) 0.5426(2) 0.24061(11)
C15 C 0.1921(3) 0.5065(2) 0.14351(12)
C16 C 0.1222(3) 0.4376(2) 0.10848(12)
H13 H 0.0297 0.4337 0.1068
C17 C 0.1890(3) 0.3741(3) 0.07572(14)
H14 H 0.1417 0.3266 0.0516
C18 C 0.3242(3) 0.3797(2) 0.07791(13)
H15 H 0.3690 0.3361 0.0554
C19 C 0.3943(3) 0.4493(2) 0.11322(12)
H16 H 0.4869 0.4533 0.1147
C20 C 0.3288(3) 0.5124(2) 0.14594(11)
O3 O 0.2379(2) 1.10834(19) 0.32811(10)
H3 H 0.263(4) 1.157(3) 0.3586(17)
O4 O 0.6841(2) 0.74246(18) 0.59596(9)
H4 H 0.740(4) 0.679(3) 0.6006(15)
C21 C 0.2728(3) 0.8651(2) 0.48830(12)
H17 H 0.2738 0.9245 0.5141
C22 C 0.2635(3) 0.8967(2) 0.42774(12)
C23 C 0.2543(3) 0.9958(2) 0.40779(12)
H18 H 0.2541 1.0520 0.4324
C24 C 0.2455(3) 1.0117(3) 0.35089(13)
C25 C 0.2444(3) 0.9298(3) 0.31456(13)
H19 H 0.2380 0.9416 0.2759
C26 C 0.2529(3) 0.8306(3) 0.33512(13)
H20 H 0.2523 0.7745 0.3104
C27 C 0.2623(3) 0.8133(2) 0.39124(13)
C28 C 0.2703(3) 0.7109(2) 0.42106(13)
H21 H 0.2695 0.6516 0.3953
C29 C 0.3921(3) 0.7131(2) 0.46355(12)
C30 C 0.4910(3) 0.6412(2) 0.47076(14)
H22 H 0.4915 0.5856 0.4458
C31 C 0.5903(3) 0.6502(2) 0.51472(14)
H23 H 0.6580 0.6006 0.5200
C32 C 0.5893(3) 0.7320(2) 0.55067(12)
C33 C 0.4916(3) 0.8063(2) 0.54328(12)
H24 H 0.4926 0.8627 0.5678
C34 C 0.3932(3) 0.7966(2) 0.49979(12)
C35 C 0.1581(3) 0.7920(2) 0.49257(12)
C36 C 0.0667(3) 0.7993(3) 0.52924(13)
H25 H 0.0681 0.8554 0.5539
C37 C -0.0285(3) 0.7228(3) 0.52971(14)
H26 H -0.0920 0.7272 0.5548
C38 C -0.0307(3) 0.6409(3) 0.49387(15)
H27 H -0.0956 0.5895 0.4945
C39 C 0.0619(3) 0.6335(3) 0.45689(15)
H28 H 0.0604 0.5771 0.4323
C40 C 0.1563(3) 0.7086(2) 0.45605(13)
O5 O 0.2380(2) 0.10909(19) 0.16994(12)
C41 C 0.3264(4) 0.2554(3) 0.21711(15)
H29 H 0.4100 0.2237 0.2114
H30 H 0.3227 0.2652 0.2567
H31 H 0.3187 0.3218 0.1984
C42 C 0.2175(3) 0.1885(3) 0.19420(14)
C43 C 0.0816(3) 0.2207(3) 0.20130(16)
H32 H 0.0191 0.1803 0.1768
H33 H 0.0705 0.2933 0.1922
H34 H 0.0659 0.2096 0.2396
loop_
_geom_bond_atom_site_label_1
_geom_bond_atom_site_label_2
_geom_bond_site_symmetry_1
_geom_bond_site_symmetry_2
O1 H1 1_555 1_555
O2 H2 1_555 1_555
O3 H3 1_555 1_555
O4 H4 1_555 1_555
O5 C42 1_555 1_555
C1 H5 1_555 1_555
C2 C1 1_555 1_555
C3 C2 1_555 1_555
H6 C3 1_555 1_555
C4 O1 1_555 1_555
C5 C4 1_555 1_555
H7 C5 1_555 1_555
C6 C5 1_555 1_555
H8 C6 1_555 1_555
C7 C2 1_555 1_555
C8 C7 1_555 1_555
H9 C8 1_555 1_555
C9 C8 1_555 1_555
C10 C9 1_555 1_555
H10 C10 1_555 1_555
C11 C10 1_555 1_555
H11 C11 1_555 1_555
C12 O2 1_555 1_555
C13 C12 1_555 1_555
H12 C13 1_555 1_555
C14 C1 1_555 1_555
C15 C1 1_555 1_555
C16 C15 1_555 1_555
H13 C16 1_555 1_555
C17 C16 1_555 1_555
H14 C17 1_555 1_555
C18 C17 1_555 1_555
H15 C18 1_555 1_555
C19 C18 1_555 1_555
H16 C19 1_555 1_555
C20 C8 1_555 1_555
C21 H17 1_555 1_555
C22 C21 1_555 1_555
C23 C22 1_555 1_555
H18 C23 1_555 1_555
C24 O3 1_555 1_555
C25 C24 1_555 1_555
H19 C25 1_555 1_555
C26 C25 1_555 1_555
H20 C26 1_555 1_555
C27 C22 1_555 1_555
C28 C27 1_555 1_555
H21 C28 1_555 1_555
C29 C28 1_555 1_555
C30 C29 1_555 1_555
H22 C30 1_555 1_555
C31 C30 1_555 1_555
H23 C31 1_555 1_555
C32 O4 1_555 1_555
C33 C32 1_555 1_555
H24 C33 1_555 1_555
C34 C21 1_555 1_555
C35 C21 1_555 1_555
C36 C35 1_555 1_555
H25 C36 1_555 1_555
C37 C36 1_555 1_555
H26 C37 1_555 1_555
C38 C37 1_555 1_555
H27 C38 1_555 1_555
C39 C38 1_555 1_555
H28 C39 1_555 1_555
C40 C28 1_555 1_555
C41 H29 1_555 1_555
H30 C41 1_555 1_555
H31 C41 1_555 1_555
C42 C41 1_555 1_555
C43 C42 1_555 1_555
H32 C43 1_555 1_555
H33 C43 1_555 1_555
H34 C43 1_555 1_555
C3 C4 1_555 1_555
C6 C7 1_555 1_555
C9 C14 1_555 1_555
C11 C12 1_555 1_555
C13 C14 1_555 1_555
C15 C20 1_555 1_555
C19 C20 1_555 1_555
C23 C24 1_555 1_555
C26 C27 1_555 1_555
C29 C34 1_555 1_555
C31 C32 1_555 1_555
C33 C34 1_555 1_555
C35 C40 1_555 1_555
C39 C40 1_555 1_555

#END
