
#######################################################################
#
#                 Cambridge Crystallographic Data Centre
#                                CCDC 
#
#######################################################################
#
# If this CIF has been generated from an entry in the Cambridge 
# Structural Database, then it will include bibliographic, chemical, 
# crystal, experimental, refinement or atomic coordinate data resulting 
# from the CCDC's data processing and validation procedures.
#
#######################################################################

data_XUYKEI
_chemical_formula_moiety         'C20 H14 O3,C10 H8 N2,0.5(C3 H6 O1)'
_chemical_name_systematic        
"2,7,14-trihydroxytriptycene 4,4'-bipyridine acetone solvate"
_symmetry_cell_setting           monoclinic
_symmetry_space_group_name_H-M   'C 2/c'
_symmetry_Int_Tables_number      15
_space_group_name_Hall           '-C 2yn'
loop_
_symmetry_equiv_pos_site_id
_symmetry_equiv_pos_as_xyz
1 x,y,z
2 -x,y,1/2-z
3 1/2+x,1/2+y,z
4 1/2-x,1/2+y,1/2-z
5 -x,-y,-z
6 x,-y,1/2+z
7 1/2-x,1/2-y,-z
8 1/2+x,1/2-y,1/2+z
_cell_length_a                   21.878(11)
_cell_length_b                   8.005(4)
_cell_length_c                   29.006(14)
_cell_angle_alpha                90
_cell_angle_beta                 92.085(8)
_cell_angle_gamma                90
_cell_volume                     5076.56
_cell_formula_units_Z            8
loop_
_atom_site_label
_atom_site_type_symbol
_atom_site_fract_x
_atom_site_fract_y
_atom_site_fract_z
O1 O 0.48382(13) 0.5526(3) 0.41604(10)
H1 H 0.5042 0.6330 0.4250
O2 O 0.43223(11) 1.1750(3) 0.18131(7)
H2 H 0.4539 1.2379 0.1972
O3 O 0.19266(11) 1.2727(2) 0.41993(8)
H3 H 0.2187 1.3445 0.4253
C1 C 0.37852(13) 0.8236(3) 0.34989(9)
C2 C 0.42698(14) 0.7754(3) 0.37858(10)
H4 H 0.4529 0.8552 0.3920
C3 C 0.43676(15) 0.6063(3) 0.38729(11)
C4 C 0.39894(16) 0.4895(4) 0.36647(12)
H5 H 0.4061 0.3764 0.3716
C5 C 0.35027(15) 0.5392(3) 0.33792(11)
H6 H 0.3248 0.4590 0.3242
C6 C 0.33905(13) 0.7055(3) 0.32966(9)
C7 C 0.28822(13) 0.7862(3) 0.29971(9)
H7 H 0.2597 0.7045 0.2859
C8 C 0.32142(13) 0.8884(3) 0.26382(9)
C9 C 0.31745(14) 0.8729(3) 0.21645(10)
H8 H 0.2902 0.7970 0.2028
C10 C 0.35435(14) 0.9710(4) 0.18908(10)
H9 H 0.3514 0.9612 0.1571
C11 C 0.39538(14) 1.0832(3) 0.20943(10)
C12 C 0.39899(14) 1.1022(3) 0.25724(10)
H10 H 0.4257 1.1796 0.2708
C13 C 0.36245(12) 1.0047(3) 0.28402(9)
C14 C 0.36301(12) 1.0025(3) 0.33650(9)
H11 H 0.3915 1.0841 0.3505
C15 C 0.29722(13) 1.0291(3) 0.35034(9)
C16 C 0.27721(13) 1.1503(3) 0.38014(9)
H12 H 0.3046 1.2278 0.3930
C17 C 0.21531(14) 1.1554(3) 0.39074(9)
C18 C 0.17542(14) 1.0392(3) 0.37157(10)
H13 H 0.1343 1.0421 0.3787
C19 C 0.19619(14) 0.9181(3) 0.34177(10)
H14 H 0.1689 0.8405 0.3290
C20 C 0.25705(13) 0.9120(3) 0.33098(9)
N1 N 0.22485(14) -0.0028(3) 0.04514(9)
N2 N 0.04700(13) 0.6702(4) -0.04625(10)
C21 C 0.23019(16) 0.1522(4) 0.06144(10)
H15 H 0.2589 0.1722 0.0852
C22 C 0.19582(15) 0.2839(4) 0.04516(10)
H16 H 0.2021 0.3901 0.0575
C23 C 0.15137(15) 0.2589(3) 0.01000(10)
C24 C 0.14543(17) 0.0973(4) -0.00655(11)
H17 H 0.1165 0.0729 -0.0299
C25 C 0.18217(18) -0.0264(4) 0.01149(12)
H18 H 0.1772 -0.1337 -0.0004
C26 C 0.11462(14) 0.3999(4) -0.00915(10)
C27 C 0.09572(16) 0.4054(4) -0.05574(11)
H19 H 0.1049 0.3178 -0.0754
C28 C 0.06369(16) 0.5409(5) -0.07216(12)
H20 H 0.0528 0.5434 -0.1034
C29 C 0.06457(16) 0.6632(4) -0.00137(13)
H21 H 0.0534 0.7506 0.0177
C30 C 0.09805(15) 0.5341(4) 0.01778(11)
H22 H 0.1096 0.5367 0.0489
O4 O 0.5000 0.3964(4) 0.2500
C31 C 0.5000 0.5472(5) 0.2500
C32 C 0.4625(3) 0.6433(5) 0.21576(19)
H23 H 0.4439 0.5680 0.1936
H24 H 0.4880 0.7210 0.2002
H25 H 0.4312 0.7032 0.2312
C32A C 0.5375(3) 0.6433(5) 0.28424(19)
H23A H 0.5561 0.5680 0.3064
H24A H 0.5120 0.7210 0.2998
H25A H 0.5688 0.7032 0.2688
loop_
_geom_bond_atom_site_label_1
_geom_bond_atom_site_label_2
_geom_bond_site_symmetry_1
_geom_bond_site_symmetry_2
O1 H1 1_555 1_555
O2 H2 1_555 1_555
O3 H3 1_555 1_555
C1 C2 1_555 1_555
C2 H4 1_555 1_555
C3 O1 1_555 1_555
C4 C3 1_555 1_555
H5 C4 1_555 1_555
C5 C4 1_555 1_555
H6 C5 1_555 1_555
C6 C1 1_555 1_555
C7 C6 1_555 1_555
H7 C7 1_555 1_555
C8 C7 1_555 1_555
C9 C8 1_555 1_555
H8 C9 1_555 1_555
C10 C9 1_555 1_555
H9 C10 1_555 1_555
C11 O2 1_555 1_555
C12 C11 1_555 1_555
H10 C12 1_555 1_555
C13 C8 1_555 1_555
C14 C1 1_555 1_555
H11 C14 1_555 1_555
C15 C14 1_555 1_555
C16 C15 1_555 1_555
H12 C16 1_555 1_555
C17 O3 1_555 1_555
C18 C17 1_555 1_555
H13 C18 1_555 1_555
C19 C18 1_555 1_555
H14 C19 1_555 1_555
C20 C7 1_555 1_555
N1 C21 1_555 1_555
N2 C28 1_555 1_555
C21 H15 1_555 1_555
C22 C21 1_555 1_555
H16 C22 1_555 1_555
C23 C22 1_555 1_555
C24 C23 1_555 1_555
H17 C24 1_555 1_555
C25 N1 1_555 1_555
H18 C25 1_555 1_555
C26 C23 1_555 1_555
C27 C26 1_555 1_555
H19 C27 1_555 1_555
C28 C27 1_555 1_555
H20 C28 1_555 1_555
C29 N2 1_555 1_555
H21 C29 1_555 1_555
C30 C26 1_555 1_555
H22 C30 1_555 1_555
O4 C31 1_555 1_555
C31 C32 1_555 1_555
C32 H23 1_555 1_555
H24 C32 1_555 1_555
H25 C32 1_555 1_555
C32A C31 1_555 1_555
H23A C32A 1_555 1_555
H24A C32A 1_555 1_555
H25A C32A 1_555 1_555
C2 C3 1_555 1_555
C5 C6 1_555 1_555
C10 C11 1_555 1_555
C12 C13 1_555 1_555
C13 C14 1_555 1_555
C15 C20 1_555 1_555
C16 C17 1_555 1_555
C19 C20 1_555 1_555
C24 C25 1_555 1_555
C29 C30 1_555 1_555

#END
