
#######################################################################
#
#                 Cambridge Crystallographic Data Centre
#                                CCDC 
#
#######################################################################
#
# If this CIF has been generated from an entry in the Cambridge 
# Structural Database, then it will include bibliographic, chemical, 
# crystal, experimental, refinement or atomic coordinate data resulting 
# from the CCDC's data processing and validation procedures.
#
#######################################################################

data_XUYQOZ
_chemical_formula_moiety         'C25 H13 F2 N1 O4'
_chemical_name_systematic        
2-fluoro-7-(4-fluorobenzoyl)-5H-benzo[b]naphtho[2,3-d]azepine-6,8,13(7H)-trione
_symmetry_cell_setting           monoclinic
_symmetry_space_group_name_H-M   'P 21/c'
_symmetry_Int_Tables_number      14
_space_group_name_Hall           '-P 2ybc'
loop_
_symmetry_equiv_pos_site_id
_symmetry_equiv_pos_as_xyz
1 x,y,z
2 -x,1/2+y,1/2-z
3 -x,-y,-z
4 x,1/2-y,1/2+z
_cell_length_a                   10.033(4)
_cell_length_b                   19.091(8)
_cell_length_c                   10.544(5)
_cell_angle_alpha                90
_cell_angle_beta                 107.453(11)
_cell_angle_gamma                90
_cell_volume                     1926.62
_exptl_crystal_colour            yellow
_exptl_crystal_description       block
_cell_formula_units_Z            4
loop_
_atom_site_label
_atom_site_type_symbol
_atom_site_fract_x
_atom_site_fract_y
_atom_site_fract_z
C1 C 0.2179(4) 0.11209(17) 0.4761(3)
C2 C 0.3175(4) 0.1039(2) 0.5987(4)
H1 H 0.3053 0.0696 0.6569
C3 C 0.4337(4) 0.1459(2) 0.6352(4)
H2 H 0.5002 0.1408 0.7178
C4 C 0.4490(4) 0.1953(2) 0.5470(4)
C5 C 0.3527(4) 0.20666(18) 0.4287(3)
H3 H 0.3661 0.2421 0.3733
C6 C 0.2326(4) 0.16515(17) 0.3892(3)
C7 C 0.0395(4) 0.03373(19) 0.3309(3)
C8 C 0.0964(3) 0.04977(16) 0.2162(3)
H4 H 0.0421 0.0219 0.1402
C9 C 0.2478(4) 0.02408(18) 0.2516(3)
C10 C 0.3393(4) 0.04961(17) 0.1749(3)
C11 C 0.4828(4) 0.04549(17) 0.2326(4)
H5 H 0.5184 0.0287 0.3190
C12 C 0.5732(4) 0.06584(19) 0.1639(4)
H6 H 0.6694 0.0625 0.2023
C13 C 0.5182(4) 0.09099(19) 0.0384(4)
C14 C 0.3783(4) 0.09647(18) -0.0224(4)
H7 H 0.3444 0.1140 -0.1084
C15 C 0.2886(4) 0.07559(17) 0.0460(3)
H8 H 0.1927 0.0788 0.0058
C16 C 0.0654(3) 0.12598(17) 0.1796(3)
C17 C -0.0405(3) 0.14018(19) 0.0484(3)
C18 C -0.0912(3) 0.21253(17) 0.0171(3)
C19 C -0.1933(4) 0.22713(19) -0.1000(3)
H9 H -0.2269 0.1919 -0.1623
C20 C -0.2453(4) 0.2938(2) -0.1247(4)
H10 H -0.3133 0.3038 -0.2044
C21 C -0.1972(4) 0.3460(2) -0.0318(4)
H11 H -0.2354 0.3907 -0.0479
C22 C -0.0937(4) 0.33237(19) 0.0840(4)
H12 H -0.0605 0.3678 0.1459
C23 C -0.0386(3) 0.26507(17) 0.1083(3)
C24 C 0.0765(4) 0.25212(19) 0.2312(3)
C25 C 0.1250(3) 0.17835(17) 0.2623(3)
F1 F 0.5661(2) 0.23606(12) 0.5830(2)
F2 F 0.6065(2) 0.11126(12) -0.0294(2)
N1 N 0.1008(3) 0.06726(14) 0.4467(3)
H13 H 0.0642 0.0605 0.5097
O1 O -0.0581(3) -0.00702(12) 0.3199(2)
O2 O 0.2880(3) -0.01836(13) 0.3398(3)
O3 O -0.0817(2) 0.09225(12) -0.0302(2)
O4 O 0.1269(3) 0.29921(13) 0.3092(3)
loop_
_geom_bond_atom_site_label_1
_geom_bond_atom_site_label_2
_geom_bond_site_symmetry_1
_geom_bond_site_symmetry_2
C1 C2 1_555 1_555
C2 H1 1_555 1_555
C3 C2 1_555 1_555
H2 C3 1_555 1_555
C4 C3 1_555 1_555
C5 C4 1_555 1_555
H3 C5 1_555 1_555
C6 C1 1_555 1_555
C7 C8 1_555 1_555
C8 H4 1_555 1_555
C9 C8 1_555 1_555
C10 C9 1_555 1_555
C11 C10 1_555 1_555
H5 C11 1_555 1_555
C12 C11 1_555 1_555
H6 C12 1_555 1_555
C13 C12 1_555 1_555
C14 C13 1_555 1_555
H7 C14 1_555 1_555
C15 C10 1_555 1_555
H8 C15 1_555 1_555
C16 C8 1_555 1_555
C17 C16 1_555 1_555
C18 C17 1_555 1_555
C19 C18 1_555 1_555
H9 C19 1_555 1_555
C20 C19 1_555 1_555
H10 C20 1_555 1_555
C21 C20 1_555 1_555
H11 C21 1_555 1_555
C22 C21 1_555 1_555
H12 C22 1_555 1_555
C23 C18 1_555 1_555
C24 C23 1_555 1_555
C25 C6 1_555 1_555
F1 C4 1_555 1_555
F2 C13 1_555 1_555
N1 C1 1_555 1_555
H13 N1 1_555 1_555
O1 C7 1_555 1_555
O2 C9 1_555 1_555
O3 C17 1_555 1_555
O4 C24 1_555 1_555
C5 C6 1_555 1_555
C7 N1 1_555 1_555
C14 C15 1_555 1_555
C16 C25 1_555 1_555
C22 C23 1_555 1_555
C24 C25 1_555 1_555

#END
