
#######################################################################
#
#                 Cambridge Crystallographic Data Centre
#                                CCDC 
#
#######################################################################
#
# If this CIF has been generated from an entry in the Cambridge 
# Structural Database, then it will include bibliographic, chemical, 
# crystal, experimental, refinement or atomic coordinate data resulting 
# from the CCDC's data processing and validation procedures.
#
#######################################################################

data_XUYQEP
_chemical_formula_moiety         'C25 H14 F1 N1 O4'
_chemical_name_systematic        
7-benzoyl-2-fluoro-5H-benzo[b]naphtho[2,3-d]azepine-6,8,13(7H)-trione
_symmetry_cell_setting           monoclinic
_symmetry_space_group_name_H-M   'P 21/c'
_symmetry_Int_Tables_number      14
_space_group_name_Hall           '-P 2ybc'
loop_
_symmetry_equiv_pos_site_id
_symmetry_equiv_pos_as_xyz
1 x,y,z
2 -x,1/2+y,1/2-z
3 -x,-y,-z
4 x,1/2-y,1/2+z
_cell_length_a                   9.7639(11)
_cell_length_b                   19.413(2)
_cell_length_c                   10.4751(12)
_cell_angle_alpha                90
_cell_angle_beta                 105.6330(10)
_cell_angle_gamma                90
_cell_volume                     1912.07
_exptl_crystal_colour            yellow
_exptl_crystal_description       block
_cell_formula_units_Z            4
loop_
_atom_site_label
_atom_site_type_symbol
_atom_site_fract_x
_atom_site_fract_y
_atom_site_fract_z
C1 C 0.49452(17) 0.95050(8) 0.21695(16)
H1 H 0.5303 0.9671 0.3027
C2 C 0.58663(18) 0.92972(9) 0.14546(19)
H2 H 0.6843 0.9328 0.1827
C3 C 0.53435(19) 0.90438(9) 0.01899(19)
H3 H 0.5967 0.8906 -0.0294
C4 C 0.38890(19) 0.89938(9) -0.03622(17)
H4 H 0.3539 0.8815 -0.1212
C5 C 0.29551(16) 0.92075(8) 0.03421(14)
H5 H 0.1979 0.9177 -0.0035
C6 C 0.34788(15) 0.94672(7) 0.16139(13)
C7 C 0.25405(16) 0.97408(7) 0.24009(14)
C8 C 0.04178(15) 0.96778(7) 0.32833(13)
C9 C 0.09839(14) 0.94983(6) 0.21054(12)
H6 H 0.0437 0.9770 0.1351
C10 C 0.06419(13) 0.87501(6) 0.17688(12)
C11 C 0.12450(13) 0.82333(6) 0.25977(12)
C12 C 0.23488(14) 0.83647(7) 0.38504(12)
C13 C 0.35556(15) 0.79379(8) 0.42241(14)
H7 H 0.3680 0.7582 0.3672
C14 C 0.45446(16) 0.80523(8) 0.54080(16)
C15 C 0.44033(18) 0.85683(10) 0.62662(16)
H8 H 0.5086 0.8631 0.7069
C16 C 0.32297(18) 0.89888(9) 0.59080(15)
H9 H 0.3116 0.9338 0.6479
C17 C 0.22088(14) 0.89004(7) 0.47021(12)
C18 C -0.04769(14) 0.86130(7) 0.05005(12)
C19 C -0.09342(13) 0.78929(7) 0.01761(12)
C20 C -0.19452(16) 0.77432(8) -0.10126(14)
H10 H -0.2299 0.8092 -0.1621
C21 C -0.24189(19) 0.70728(9) -0.12813(17)
H11 H -0.3082 0.6970 -0.2078
C22 C -0.1911(2) 0.65547(9) -0.03715(18)
H12 H -0.2259 0.6109 -0.0549
C23 C -0.08904(17) 0.66932(8) 0.07992(16)
H13 H -0.0544 0.6342 0.1403
C24 C -0.03833(14) 0.73633(7) 0.10681(13)
C25 C 0.07458(14) 0.75023(7) 0.23088(13)
F1 F 0.57021(10) 0.76349(6) 0.57586(10)
N1 N 0.10335(13) 0.93506(6) 0.44330(11)
H14 H 0.0664 0.9426 0.5078
O1 O 0.29529(14) 1.01756(6) 0.32484(12)
O2 O -0.05577(12) 1.00910(5) 0.31919(10)
O3 O -0.09957(12) 0.90903(5) -0.02298(11)
O4 O 0.12228(13) 0.70440(5) 0.30926(12)
loop_
_geom_bond_atom_site_label_1
_geom_bond_atom_site_label_2
_geom_bond_site_symmetry_1
_geom_bond_site_symmetry_2
C1 H1 1_555 1_555
C2 C1 1_555 1_555
H2 C2 1_555 1_555
C3 C2 1_555 1_555
H3 C3 1_555 1_555
C4 C3 1_555 1_555
H4 C4 1_555 1_555
C5 C4 1_555 1_555
H5 C5 1_555 1_555
C6 C1 1_555 1_555
C7 C6 1_555 1_555
C8 C9 1_555 1_555
C9 C7 1_555 1_555
H6 C9 1_555 1_555
C10 C9 1_555 1_555
C11 C10 1_555 1_555
C12 C11 1_555 1_555
C13 C12 1_555 1_555
H7 C13 1_555 1_555
C14 C13 1_555 1_555
C15 C14 1_555 1_555
H8 C15 1_555 1_555
C16 C15 1_555 1_555
H9 C16 1_555 1_555
C17 C12 1_555 1_555
C18 C10 1_555 1_555
C19 C18 1_555 1_555
C20 C19 1_555 1_555
H10 C20 1_555 1_555
C21 C20 1_555 1_555
H11 C21 1_555 1_555
C22 C21 1_555 1_555
H12 C22 1_555 1_555
C23 C22 1_555 1_555
H13 C23 1_555 1_555
C24 C19 1_555 1_555
C25 C11 1_555 1_555
F1 C14 1_555 1_555
N1 C8 1_555 1_555
H14 N1 1_555 1_555
O1 C7 1_555 1_555
O2 C8 1_555 1_555
O3 C18 1_555 1_555
O4 C25 1_555 1_555
C5 C6 1_555 1_555
C16 C17 1_555 1_555
C17 N1 1_555 1_555
C23 C24 1_555 1_555
C24 C25 1_555 1_555

#END
