
#######################################################################
#
#                 Cambridge Crystallographic Data Centre
#                                CCDC 
#
#######################################################################
#
# If this CIF has been generated from an entry in the Cambridge 
# Structural Database, then it will include bibliographic, chemical, 
# crystal, experimental, refinement or atomic coordinate data resulting 
# from the CCDC's data processing and validation procedures.
#
#######################################################################

data_XUYRAM
_chemical_formula_moiety         'C20 H12 F1 N1 O5'
_chemical_name_systematic        
'methyl 2-fluoro-6,8,13-trioxo-6,7,8,13-tetrahydro-5H-benzo[b]naphtho[2,3-d]azepine-7-carboxylate'
_symmetry_cell_setting           triclinic
_symmetry_space_group_name_H-M   'P -1'
_symmetry_Int_Tables_number      2
_space_group_name_Hall           '-P 1'
loop_
_symmetry_equiv_pos_site_id
_symmetry_equiv_pos_as_xyz
1 x,y,z
2 -x,-y,-z
_cell_length_a                   11.727(6)
_cell_length_b                   12.810(6)
_cell_length_c                   12.935(6)
_cell_angle_alpha                103.837(13)
_cell_angle_beta                 115.433(12)
_cell_angle_gamma                91.903(14)
_cell_volume                     1683.3
_exptl_crystal_colour            colorless
_exptl_crystal_description       block
_cell_formula_units_Z            4
loop_
_atom_site_label
_atom_site_type_symbol
_atom_site_fract_x
_atom_site_fract_y
_atom_site_fract_z
C1 C 0.5082(6) 0.8015(5) 0.4287(5)
C2 C 0.4612(7) 0.8456(5) 0.5080(5)
H1 H 0.4953 0.8318 0.5821
C3 C 0.3673(7) 0.9082(5) 0.4822(6)
H2 H 0.3352 0.9360 0.5359
C4 C 0.3217(7) 0.9286(5) 0.3730(6)
C5 C 0.3635(6) 0.8881(5) 0.2909(5)
H3 H 0.3275 0.9030 0.2174
C6 C 0.4599(6) 0.8247(5) 0.3168(5)
C7 C 0.6256(7) 0.6493(5) 0.4068(5)
C8 C 0.5244(6) 0.6025(5) 0.2780(5)
H4 H 0.5481 0.5338 0.2464
C9 C 0.3930(8) 0.5771(5) 0.2619(6)
C10 C 0.2749(8) 0.5218(8) 0.3552(8)
H5 H 0.2160 0.5662 0.3158
H6 H 0.2848 0.5340 0.4350
H7 H 0.2424 0.4465 0.3122
C11 C 0.5366(6) 0.8590(5) 0.1681(5)
C12 C 0.5086(6) 0.7821(5) 0.2292(5)
C13 C 0.5384(6) 0.6811(5) 0.2095(5)
C14 C 0.5929(6) 0.6369(6) 0.1255(5)
C15 C 0.6123(6) 0.7113(5) 0.0597(5)
C16 C 0.6610(7) 0.6720(6) -0.0213(6)
H8 H 0.6783 0.6010 -0.0347
C17 C 0.6830(7) 0.7411(7) -0.0815(6)
H9 H 0.7159 0.7161 -0.1352
C18 C 0.6573(7) 0.8432(7) -0.0628(6)
H10 H 0.6712 0.8875 -0.1049
C19 C 0.6105(7) 0.8841(6) 0.0182(6)
H11 H 0.5963 0.9560 0.0321
C20 C 0.5842(6) 0.8160(5) 0.0797(5)
F1 F 0.2291(4) 0.9950(3) 0.3482(3)
N1 N 0.6108(5) 0.7423(4) 0.4670(4)
H12 H 0.6708 0.7701 0.5382
O1 O 0.7201(4) 0.6035(3) 0.4490(3)
O2 O 0.2946(5) 0.5781(4) 0.1808(4)
O3 O 0.3955(5) 0.5498(4) 0.3590(4)
O4 O 0.5232(5) 0.9533(4) 0.1935(4)
O5 O 0.6217(5) 0.5454(4) 0.1149(4)
C21 C 0.9504(7) 0.2608(5) 0.3410(5)
C22 C 0.9180(7) 0.3623(5) 0.3694(5)
H13 H 0.9770 0.4240 0.3928
C23 C 0.8002(9) 0.3734(6) 0.3635(6)
H14 H 0.7771 0.4416 0.3819
C24 C 0.7172(8) 0.2796(7) 0.3294(6)
C25 C 0.7445(7) 0.1774(5) 0.3030(5)
H15 H 0.6848 0.1166 0.2814
C26 C 0.8637(7) 0.1669(5) 0.3095(5)
C27 C 1.1062(8) 0.1955(5) 0.2642(5)
C28 C 0.9959(6) 0.1152(5) 0.1591(5)
H16 H 1.0298 0.0780 0.1054
C29 C 0.8853(8) 0.1669(6) 0.0867(5)
C30 C 0.8307(8) 0.3288(6) 0.0310(7)
H17 H 0.7894 0.2867 -0.0512
H18 H 0.8715 0.3980 0.0377
H19 H 0.7684 0.3397 0.0605
C31 C 0.8722(6) -0.0275(5) 0.3337(5)
C32 C 0.8975(6) 0.0570(5) 0.2790(5)
C33 C 0.9546(6) 0.0291(5) 0.2052(5)
C34 C 0.9818(6) -0.0812(5) 0.1693(6)
C35 C 0.9581(6) -0.1641(5) 0.2234(5)
C36 C 0.9878(7) -0.2673(5) 0.1972(6)
H20 H 1.0230 -0.2856 0.1444
C37 C 0.9657(8) -0.3434(6) 0.2484(7)
H21 H 0.9843 -0.4133 0.2292
C38 C 0.9154(7) -0.3148(6) 0.3292(7)
H22 H 0.9011 -0.3662 0.3641
C39 C 0.8868(7) -0.2136(6) 0.3579(6)
H23 H 0.8534 -0.1961 0.4123
C40 C 0.9075(6) -0.1351(5) 0.3057(5)
F2 F 0.5970(4) 0.2908(3) 0.3223(4)
N2 N 1.0750(5) 0.2555(4) 0.3486(4)
H24 H 1.1376 0.2944 0.4136
O6 O 1.2152(5) 0.2040(3) 0.2774(4)
O7 O 0.7785(5) 0.1222(4) 0.0240(4)
O8 O 0.9261(4) 0.2711(4) 0.1004(3)
O9 O 0.8292(5) -0.0017(4) 0.4054(4)
O10 O 1.0196(5) -0.1047(3) 0.0932(4)
loop_
_geom_bond_atom_site_label_1
_geom_bond_atom_site_label_2
_geom_bond_site_symmetry_1
_geom_bond_site_symmetry_2
C1 C2 1_555 1_555
C2 H1 1_555 1_555
C3 C2 1_555 1_555
H2 C3 1_555 1_555
C4 C3 1_555 1_555
C5 C4 1_555 1_555
H3 C5 1_555 1_555
C6 C1 1_555 1_555
C7 C8 1_555 1_555
C8 H4 1_555 1_555
C9 C8 1_555 1_555
C10 H5 1_555 1_555
H6 C10 1_555 1_555
H7 C10 1_555 1_555
C11 C12 1_555 1_555
C12 C6 1_555 1_555
C13 C8 1_555 1_555
C14 C13 1_555 1_555
C15 C14 1_555 1_555
C16 C15 1_555 1_555
H8 C16 1_555 1_555
C17 C16 1_555 1_555
H9 C17 1_555 1_555
C18 C17 1_555 1_555
H10 C18 1_555 1_555
C19 C18 1_555 1_555
H11 C19 1_555 1_555
C20 C11 1_555 1_555
F1 C4 1_555 1_555
N1 C1 1_555 1_555
H12 N1 1_555 1_555
O1 C7 1_555 1_555
O2 C9 1_555 1_555
O3 C9 1_555 1_555
O4 C11 1_555 1_555
O5 C14 1_555 1_555
C21 C22 1_555 1_555
C22 H13 1_555 1_555
C23 C22 1_555 1_555
H14 C23 1_555 1_555
C24 C23 1_555 1_555
C25 C24 1_555 1_555
H15 C25 1_555 1_555
C26 C21 1_555 1_555
C27 C28 1_555 1_555
C28 H16 1_555 1_555
C29 C28 1_555 1_555
C30 H17 1_555 1_555
H18 C30 1_555 1_555
H19 C30 1_555 1_555
C31 C32 1_555 1_555
C32 C26 1_555 1_555
C33 C28 1_555 1_555
C34 C33 1_555 1_555
C35 C34 1_555 1_555
C36 C35 1_555 1_555
H20 C36 1_555 1_555
C37 C36 1_555 1_555
H21 C37 1_555 1_555
C38 C37 1_555 1_555
H22 C38 1_555 1_555
C39 C38 1_555 1_555
H23 C39 1_555 1_555
C40 C31 1_555 1_555
F2 C24 1_555 1_555
N2 C21 1_555 1_555
H24 N2 1_555 1_555
O6 C27 1_555 1_555
O7 C29 1_555 1_555
O8 C29 1_555 1_555
O9 C31 1_555 1_555
O10 C34 1_555 1_555
C5 C6 1_555 1_555
C7 N1 1_555 1_555
C10 O3 1_555 1_555
C12 C13 1_555 1_555
C15 C20 1_555 1_555
C19 C20 1_555 1_555
C25 C26 1_555 1_555
C27 N2 1_555 1_555
C30 O8 1_555 1_555
C32 C33 1_555 1_555
C35 C40 1_555 1_555
C39 C40 1_555 1_555

#END
