
#######################################################################
#
#                 Cambridge Crystallographic Data Centre
#                                CCDC 
#
#######################################################################
#
# If this CIF has been generated from an entry in the Cambridge 
# Structural Database, then it will include bibliographic, chemical, 
# crystal, experimental, refinement or atomic coordinate data resulting 
# from the CCDC's data processing and validation procedures.
#
#######################################################################

data_XUYRIU
_chemical_formula_moiety         'C30 H21 N3 O5'
_chemical_name_systematic        
'2-(5-methyl-3-((4-nitrophenyl)(pyridinium-1-yl)methyl)-2-oxo-2,3-dihydro-1H-indol-3-yl)-1,3-dioxo-2,3-dihydro-1H-inden-2-ide unknown solvate'
_symmetry_cell_setting           monoclinic
_symmetry_space_group_name_H-M   'P 21/c'
_symmetry_Int_Tables_number      14
_space_group_name_Hall           '-P 2ybc'
loop_
_symmetry_equiv_pos_site_id
_symmetry_equiv_pos_as_xyz
1 x,y,z
2 -x,1/2+y,1/2-z
3 -x,-y,-z
4 x,1/2-y,1/2+z
_cell_length_a                   12.8577(7)
_cell_length_b                   14.7678(8)
_cell_length_c                   16.2529(8)
_cell_angle_alpha                90
_cell_angle_beta                 112.1542(18)
_cell_angle_gamma                90
_cell_volume                     2858.26
_exptl_crystal_description       block
_cell_formula_units_Z            4
loop_
_atom_site_label
_atom_site_type_symbol
_atom_site_fract_x
_atom_site_fract_y
_atom_site_fract_z
C1 C 0.3685(3) 0.5190(2) 0.08349(19)
C2 C 0.4039(3) 0.4314(2) 0.1021(2)
H1 H 0.4232 0.4078 0.1590
C3 C 0.4103(3) 0.3789(2) 0.0335(2)
H2 H 0.4350 0.3193 0.0448
C4 C 0.3806(3) 0.4133(2) -0.0508(2)
H3 H 0.3855 0.3767 -0.0958
C5 C 0.3433(3) 0.5023(2) -0.0698(2)
H4 H 0.3222 0.5255 -0.1269
C6 C 0.3386(2) 0.5545(2) -0.00151(19)
C7 C 0.3228(2) 0.67251(19) 0.09024(17)
C8 C 0.2880(2) 0.7585(2) 0.12340(17)
C9 C 0.2927(2) 0.84325(19) 0.06723(18)
H5 H 0.2282 0.8371 0.0109
C10 C 0.4969(3) 0.8290(2) 0.0990(2)
H6 H 0.5078 0.8062 0.1551
C11 C 0.5878(3) 0.8412(2) 0.0740(2)
H7 H 0.6602 0.8288 0.1139
C12 C 0.5701(3) 0.8717(2) -0.0099(2)
H8 H 0.6305 0.8796 -0.0275
C13 C 0.4630(3) 0.8906(2) -0.0677(2)
H9 H 0.4498 0.9106 -0.1250
C14 C 0.3762(3) 0.8794(2) -0.03996(19)
H10 H 0.3035 0.8924 -0.0788
C15 C 0.2755(2) 0.9332(2) 0.10631(18)
C16 C 0.3619(3) 0.9830(2) 0.16597(19)
H11 H 0.4350 0.9609 0.1845
C17 C 0.3422(3) 1.0652(2) 0.1989(2)
H12 H 0.4010 1.0991 0.2381
C18 C 0.2344(3) 1.0944(2) 0.1720(2)
C19 C 0.1470(3) 1.0473(3) 0.1140(3)
H13 H 0.0740 1.0689 0.0971
C20 C 0.1682(3) 0.9671(3) 0.0806(3)
H14 H 0.1089 0.9351 0.0397
C21 C 0.3556(3) 0.77291(19) 0.22520(19)
C22 C 0.1707(3) 0.7647(2) 0.2058(2)
C23 C 0.1687(3) 0.7525(2) 0.1209(2)
C24 C 0.0691(3) 0.7345(2) 0.0517(2)
H15 H 0.0681 0.7253 -0.0052
C25 C -0.0303(3) 0.7300(3) 0.0670(3)
C26 C -0.0251(4) 0.7438(4) 0.1526(3)
H16 H -0.0914 0.7412 0.1631
C27 C 0.0743(4) 0.7614(3) 0.2234(3)
H17 H 0.0758 0.7707 0.2805
C28 C -0.1409(3) 0.7080(4) -0.0058(3)
H18 H -0.1727 0.6554 0.0105
H19 H -0.1294 0.6963 -0.0598
H20 H -0.1912 0.7583 -0.0144
C29 C 0.3051(2) 0.6518(2) 0.00070(18)
C30 C 0.3563(2) 0.5928(2) 0.14217(19)
N1 N 0.2801(2) 0.78021(18) 0.26476(16)
H21 H 0.3010 0.7863 0.3256
N2 N 0.3932(2) 0.84997(15) 0.04230(15)
N3 N 0.2101(3) 1.1815(2) 0.2064(2)
O1 O 0.3733(2) 0.58205(14) 0.22250(13)
O2 O 0.26913(19) 0.70180(14) -0.06676(13)
O3 O 0.45711(19) 0.77948(15) 0.26204(13)
O4 O 0.1128(3) 1.2047(2) 0.1848(2)
O5 O 0.2887(3) 1.2264(2) 0.2529(2)
loop_
_geom_bond_atom_site_label_1
_geom_bond_atom_site_label_2
_geom_bond_site_symmetry_1
_geom_bond_site_symmetry_2
C1 C2 1_555 1_555
C2 H1 1_555 1_555
C3 C2 1_555 1_555
H2 C3 1_555 1_555
C4 C3 1_555 1_555
H3 C4 1_555 1_555
C5 C4 1_555 1_555
H4 C5 1_555 1_555
C6 C1 1_555 1_555
C7 C8 1_555 1_555
C8 C9 1_555 1_555
C9 H5 1_555 1_555
C10 H6 1_555 1_555
C11 C10 1_555 1_555
H7 C11 1_555 1_555
C12 C11 1_555 1_555
H8 C12 1_555 1_555
C13 C12 1_555 1_555
H9 C13 1_555 1_555
C14 C13 1_555 1_555
H10 C14 1_555 1_555
C15 C9 1_555 1_555
C16 C15 1_555 1_555
H11 C16 1_555 1_555
C17 C16 1_555 1_555
H12 C17 1_555 1_555
C18 C17 1_555 1_555
C19 C18 1_555 1_555
H13 C19 1_555 1_555
C20 C15 1_555 1_555
H14 C20 1_555 1_555
C21 C8 1_555 1_555
C22 C23 1_555 1_555
C23 C8 1_555 1_555
C24 C23 1_555 1_555
H15 C24 1_555 1_555
C25 C24 1_555 1_555
C26 C25 1_555 1_555
H16 C26 1_555 1_555
C27 C22 1_555 1_555
H17 C27 1_555 1_555
C28 C25 1_555 1_555
H18 C28 1_555 1_555
H19 C28 1_555 1_555
H20 C28 1_555 1_555
C29 C6 1_555 1_555
C30 C1 1_555 1_555
N1 C21 1_555 1_555
H21 N1 1_555 1_555
N2 C9 1_555 1_555
N3 C18 1_555 1_555
O1 C30 1_555 1_555
O2 C29 1_555 1_555
O3 C21 1_555 1_555
O4 N3 1_555 1_555
O5 N3 1_555 1_555
C5 C6 1_555 1_555
C7 C29 1_555 1_555
C7 C30 1_555 1_555
C10 N2 1_555 1_555
C14 N2 1_555 1_555
C19 C20 1_555 1_555
C22 N1 1_555 1_555
C26 C27 1_555 1_555

#END
