
#######################################################################
#
#                 Cambridge Crystallographic Data Centre
#                                CCDC 
#
#######################################################################
#
# If this CIF has been generated from an entry in the Cambridge 
# Structural Database, then it will include bibliographic, chemical, 
# crystal, experimental, refinement or atomic coordinate data resulting 
# from the CCDC's data processing and validation procedures.
#
#######################################################################

data_XUYRUG
_chemical_formula_moiety         'C11 H11 N5 O1'
_chemical_name_systematic        
4-(1-ethyl-1H-benzimidazol-2-yl)-1,2,5-oxadiazol-3-amine
_chemical_properties_biological  'anti-proliferative activity'
_symmetry_cell_setting           monoclinic
_symmetry_space_group_name_H-M   'P 21'
_symmetry_Int_Tables_number      4
_space_group_name_Hall           'P 2yb'
loop_
_symmetry_equiv_pos_site_id
_symmetry_equiv_pos_as_xyz
1 x,y,z
2 -x,1/2+y,-z
_cell_length_a                   11.180(2)
_cell_length_b                   4.1948(8)
_cell_length_c                   11.823(2)
_cell_angle_alpha                90
_cell_angle_beta                 107.621(3)
_cell_angle_gamma                90
_cell_volume                     528.457
_exptl_crystal_colour            'pale yellow'
_exptl_crystal_description       plate
_cell_formula_units_Z            2
loop_
_atom_site_label
_atom_site_type_symbol
_atom_site_fract_x
_atom_site_fract_y
_atom_site_fract_z
O1 O 0.4558(3) 0.4238(10) 0.2664(3)
N1 N 0.4828(4) 0.2229(11) 0.3657(3)
N2 N 0.5553(3) 0.4396(11) 0.2208(3)
N3 N 0.6613(3) -0.0831(11) 0.4662(3)
H1 H 0.7415 -0.1461 0.4809
H2 H 0.6228 -0.1662 0.5162
N4 N 0.8075(3) 0.3353(10) 0.1865(3)
N5 N 0.8514(3) 0.0279(11) 0.3516(3)
C1 C 0.5978(4) 0.1186(11) 0.3806(4)
C2 C 0.6427(4) 0.2574(13) 0.2879(4)
C3 C 0.7671(4) 0.2073(12) 0.2752(3)
C4 C 0.9559(4) 0.0403(11) 0.3122(3)
C5 C 1.0743(4) -0.0982(13) 0.3613(4)
H3 H 1.0925 -0.2270 0.4305
C6 C 1.1647(4) -0.0384(13) 0.3040(4)
H4 H 1.2465 -0.1255 0.3357
C7 C 1.1369(4) 0.1484(12) 0.2002(4)
H5 H 1.2004 0.1839 0.1635
C8 C 1.0195(4) 0.2815(12) 0.1502(4)
H6 H 1.0006 0.4034 0.0793
C9 C 0.9300(4) 0.2283(11) 0.2090(4)
C10 C 0.7406(4) 0.5389(12) 0.0876(4)
H7 H 0.8022 0.6698 0.0631
H8 H 0.6853 0.6856 0.1143
C11 C 0.6620(4) 0.3498(13) -0.0187(4)
H9 H 0.6153 0.4971 -0.0807
H10 H 0.6030 0.2138 0.0057
H11 H 0.7171 0.2168 -0.0495
loop_
_geom_bond_atom_site_label_1
_geom_bond_atom_site_label_2
_geom_bond_site_symmetry_1
_geom_bond_site_symmetry_2
O1 N1 1_555 1_555
N1 C1 1_555 1_555
N2 O1 1_555 1_555
N3 H1 1_555 1_555
H2 N3 1_555 1_555
N4 C3 1_555 1_555
N5 C3 1_555 1_555
C1 N3 1_555 1_555
C2 N2 1_555 1_555
C3 C2 1_555 1_555
C4 N5 1_555 1_555
C5 C4 1_555 1_555
H3 C5 1_555 1_555
C6 C5 1_555 1_555
H4 C6 1_555 1_555
C7 C6 1_555 1_555
H5 C7 1_555 1_555
C8 C7 1_555 1_555
H6 C8 1_555 1_555
C9 N4 1_555 1_555
C10 N4 1_555 1_555
H7 C10 1_555 1_555
H8 C10 1_555 1_555
C11 C10 1_555 1_555
H9 C11 1_555 1_555
H10 C11 1_555 1_555
H11 C11 1_555 1_555
C1 C2 1_555 1_555
C4 C9 1_555 1_555
C8 C9 1_555 1_555

#END
