
#######################################################################
#
#                 Cambridge Crystallographic Data Centre
#                                CCDC 
#
#######################################################################
#
# If this CIF has been generated from an entry in the Cambridge 
# Structural Database, then it will include bibliographic, chemical, 
# crystal, experimental, refinement or atomic coordinate data resulting 
# from the CCDC's data processing and validation procedures.
#
#######################################################################

data_XUYTOC
_chemical_formula_moiety         'C13 H19 Br1 N2 O1'
_chemical_name_systematic        1-(4-bromophenyl)-3-hexylurea
_symmetry_cell_setting           monoclinic
_symmetry_space_group_name_H-M   'P 21/c'
_symmetry_Int_Tables_number      14
_space_group_name_Hall           '-P 2ybc'
loop_
_symmetry_equiv_pos_site_id
_symmetry_equiv_pos_as_xyz
1 x,y,z
2 -x,1/2+y,1/2-z
3 -x,-y,-z
4 x,1/2-y,1/2+z
_cell_length_a                   18.326(4)
_cell_length_b                   4.6090(7)
_cell_length_c                   16.559(3)
_cell_angle_alpha                90
_cell_angle_beta                 108.366(8)
_cell_angle_gamma                90
_cell_volume                     1327.41
_exptl_crystal_colour            colorless
_cell_formula_units_Z            4
_exptl_crystal_recrystallization_method Methanol
loop_
_atom_site_label
_atom_site_type_symbol
_atom_site_fract_x
_atom_site_fract_y
_atom_site_fract_z
Br1 Br 1.27190(2) 0.11785(3) 0.41066(2)
O1 O 0.89098(5) 0.18500(17) 0.36695(6)
N1 N 0.82494(6) 0.6083(2) 0.34819(7)
H1 H 0.8298(9) 0.791(3) 0.3523(10)
N2 N 0.95336(6) 0.6111(2) 0.36091(6)
H2 H 0.9479(9) 0.790(3) 0.3518(9)
C1 C 0.42536(7) 0.7484(3) 0.38414(9)
H3 H 0.4444 0.8916 0.4297
H4 H 0.3853 0.6300 0.3955
H5 H 0.4040 0.8487 0.3296
C2 C 0.49143(7) 0.5537(3) 0.38045(8)
H6 H 0.5108 0.4451 0.4346
H7 H 0.4717 0.4105 0.3341
C3 C 0.55789(7) 0.7188(3) 0.36561(8)
H8 H 0.5768 0.8663 0.4109
H9 H 0.5392 0.8217 0.3104
C4 C 0.62418(7) 0.5200(3) 0.36520(8)
H10 H 0.6047 0.3703 0.3207
H11 H 0.6429 0.4194 0.4208
C5 C 0.69180(7) 0.6761(3) 0.34904(8)
H12 H 0.6747 0.7661 0.2918
H13 H 0.7105 0.8323 0.3916
C6 C 0.75658(7) 0.4641(3) 0.35481(8)
H14 H 0.7696 0.3595 0.4097
H15 H 0.7390 0.3191 0.3086
C7 C 0.88980(6) 0.4533(2) 0.35967(7)
C8 C 1.02702(6) 0.4917(2) 0.37378(7)
C9 C 1.05693(6) 0.2768(2) 0.43421(7)
H16 H 1.0273 0.2057 0.4678
C10 C 1.12994(7) 0.1658(3) 0.44559(7)
H17 H 1.1501 0.0172 0.4862
C11 C 1.17300(6) 0.2740(3) 0.39710(7)
C12 C 1.14491(6) 0.4909(3) 0.33759(7)
H18 H 1.1753 0.5650 0.3052
C13 C 1.07157(6) 0.5986(2) 0.32596(7)
H19 H 1.0515 0.7465 0.2850
loop_
_geom_bond_atom_site_label_1
_geom_bond_atom_site_label_2
_geom_bond_site_symmetry_1
_geom_bond_site_symmetry_2
Br1 C11 1_555 1_555
O1 C7 1_555 1_555
N1 H1 1_555 1_555
N2 H2 1_555 1_555
C1 H3 1_555 1_555
H4 C1 1_555 1_555
H5 C1 1_555 1_555
C2 C1 1_555 1_555
H6 C2 1_555 1_555
H7 C2 1_555 1_555
C3 C2 1_555 1_555
H8 C3 1_555 1_555
H9 C3 1_555 1_555
C4 C3 1_555 1_555
H10 C4 1_555 1_555
H11 C4 1_555 1_555
C5 C4 1_555 1_555
H12 C5 1_555 1_555
H13 C5 1_555 1_555
C6 N1 1_555 1_555
H14 C6 1_555 1_555
H15 C6 1_555 1_555
C7 N1 1_555 1_555
C8 N2 1_555 1_555
C9 C8 1_555 1_555
H16 C9 1_555 1_555
C10 C9 1_555 1_555
H17 C10 1_555 1_555
C11 C10 1_555 1_555
C12 C11 1_555 1_555
H18 C12 1_555 1_555
C13 C8 1_555 1_555
H19 C13 1_555 1_555
N2 C7 1_555 1_555
C5 C6 1_555 1_555
C12 C13 1_555 1_555

#END
