
#######################################################################
#
#                 Cambridge Crystallographic Data Centre
#                                CCDC 
#
#######################################################################
#
# If this CIF has been generated from an entry in the Cambridge 
# Structural Database, then it will include bibliographic, chemical, 
# crystal, experimental, refinement or atomic coordinate data resulting 
# from the CCDC's data processing and validation procedures.
#
#######################################################################

data_XUYVEU
_chemical_formula_moiety         'C16 H9 F17 N2 S1'
_chemical_name_systematic        
1-(2,2,3,3,4,4,5,5,6,6,7,7,8,8,9,9,9-heptadecafluorononyl)-3-phenylthiourea
_symmetry_cell_setting           orthorhombic
_symmetry_space_group_name_H-M   'P b c a'
_symmetry_Int_Tables_number      61
_space_group_name_Hall           '-P 2ac 2ab'
loop_
_symmetry_equiv_pos_site_id
_symmetry_equiv_pos_as_xyz
1 x,y,z
2 1/2-x,-y,1/2+z
3 -x,1/2+y,1/2-z
4 1/2+x,1/2-y,-z
5 -x,-y,-z
6 1/2+x,y,1/2-z
7 x,1/2-y,1/2+z
8 1/2-x,1/2+y,z
_cell_length_a                   10.050(2)
_cell_length_b                   10.760(3)
_cell_length_c                   37.135(9)
_cell_angle_alpha                90
_cell_angle_beta                 90
_cell_angle_gamma                90
_cell_volume                     4015.7
_exptl_crystal_colour            colorless
_cell_formula_units_Z            8
loop_
_atom_site_label
_atom_site_type_symbol
_atom_site_fract_x
_atom_site_fract_y
_atom_site_fract_z
S1 S 0.40097(6) -0.01257(5) 0.55189(2)
F1 F 0.46801(15) 0.17320(18) 0.87023(4)
F2 F 0.26990(15) 0.15165(16) 0.86914(4)
F3 F 0.35228(17) 0.32414(17) 0.89310(4)
F4 F 0.24834(14) 0.38034(14) 0.83030(4)
F5 F 0.45031(14) 0.39880(14) 0.82911(4)
F6 F 0.45652(14) 0.13854(14) 0.79991(4)
F7 F 0.25543(13) 0.15033(13) 0.79571(3)
F8 F 0.29754(16) 0.40341(13) 0.76110(4)
F9 F 0.49110(14) 0.34162(15) 0.75732(4)
F10 F 0.39946(15) 0.09608(12) 0.72982(4)
F11 F 0.21959(13) 0.19230(15) 0.72647(3)
F12 F 0.36160(15) 0.40971(13) 0.69234(4)
F13 F 0.50273(13) 0.25755(16) 0.68546(4)
F14 F 0.31048(15) 0.08951(13) 0.65987(4)
F15 F 0.19073(13) 0.26518(16) 0.66037(4)
F16 F 0.36332(14) 0.39675(12) 0.61862(3)
F17 F 0.46930(12) 0.21378(14) 0.61457(3)
N1 N 0.31078(18) 0.23489(18) 0.55512(5)
H1 H 0.294(2) 0.3094(13) 0.5463(6)
N2 N 0.41328(19) 0.17677(18) 0.50319(5)
H2 H 0.454(2) 0.1140(16) 0.4929(6)
C1 C 0.3617(2) 0.2377(3) 0.86640(6)
C2 C 0.3556(2) 0.3121(2) 0.83023(6)
C3 C 0.3602(2) 0.2225(2) 0.79649(6)
C4 C 0.3735(2) 0.2984(2) 0.76036(6)
C5 C 0.3426(2) 0.2133(2) 0.72676(6)
C6 C 0.3811(2) 0.2784(2) 0.69043(6)
C7 C 0.3094(2) 0.2230(2) 0.65770(6)
C8 C 0.3537(2) 0.2622(2) 0.61981(6)
C9 C 0.2642(2) 0.2126(2) 0.59117(5)
H3 H 0.2540 0.1219 0.5947
H4 H 0.1753 0.2509 0.5939
C10 C 0.3730(2) 0.1427(2) 0.53596(6)
C11 C 0.3956(2) 0.2977(2) 0.48378(6)
C12 C 0.5005(2) 0.3611(2) 0.47025(6)
H5 H 0.5874 0.3305 0.4750
C13 C 0.4875(2) 0.4727(2) 0.44894(6)
H6 H 0.5657 0.5116 0.4401
C14 C 0.3705(3) 0.5229(2) 0.44134(6)
H7 H 0.3609 0.5971 0.4277
C15 C 0.2667(3) 0.4592(2) 0.45465(6)
H8 H 0.1799 0.4904 0.4500
C16 C 0.2783(2) 0.3458(2) 0.47564(6)
H9 H 0.1998 0.3053 0.4837
loop_
_geom_bond_atom_site_label_1
_geom_bond_atom_site_label_2
_geom_bond_site_symmetry_1
_geom_bond_site_symmetry_2
S1 C10 1_555 1_555
F1 C1 1_555 1_555
F2 C1 1_555 1_555
F3 C1 1_555 1_555
F4 C2 1_555 1_555
F5 C2 1_555 1_555
F6 C3 1_555 1_555
F7 C3 1_555 1_555
F8 C4 1_555 1_555
F9 C4 1_555 1_555
F10 C5 1_555 1_555
F11 C5 1_555 1_555
F12 C6 1_555 1_555
F13 C6 1_555 1_555
F14 C7 1_555 1_555
F15 C7 1_555 1_555
F16 C8 1_555 1_555
F17 C8 1_555 1_555
N1 H1 1_555 1_555
N2 H2 1_555 1_555
C1 C2 1_555 1_555
C2 C3 1_555 1_555
C3 C4 1_555 1_555
C4 C5 1_555 1_555
C5 C6 1_555 1_555
C6 C7 1_555 1_555
C7 C8 1_555 1_555
C8 C9 1_555 1_555
C9 N1 1_555 1_555
H3 C9 1_555 1_555
H4 C9 1_555 1_555
C10 N1 1_555 1_555
C11 N2 1_555 1_555
C12 C11 1_555 1_555
H5 C12 1_555 1_555
C13 C12 1_555 1_555
H6 C13 1_555 1_555
C14 C13 1_555 1_555
H7 C14 1_555 1_555
C15 C14 1_555 1_555
H8 C15 1_555 1_555
C16 C11 1_555 1_555
H9 C16 1_555 1_555
N2 C10 1_555 1_555
C15 C16 1_555 1_555

#END
