
#######################################################################
#
#                 Cambridge Crystallographic Data Centre
#                                CCDC 
#
#######################################################################
#
# If this CIF has been generated from an entry in the Cambridge 
# Structural Database, then it will include bibliographic, chemical, 
# crystal, experimental, refinement or atomic coordinate data resulting 
# from the CCDC's data processing and validation procedures.
#
#######################################################################

data_XUYVOE
_chemical_formula_moiety         'C13 H20 N2 O1'
_chemical_name_systematic        1-hexyl-3-phenylurea
_symmetry_cell_setting           monoclinic
_symmetry_space_group_name_H-M   'C 2/c'
_symmetry_Int_Tables_number      15
_space_group_name_Hall           '-C 2yn'
loop_
_symmetry_equiv_pos_site_id
_symmetry_equiv_pos_as_xyz
1 x,y,z
2 -x,y,1/2-z
3 1/2+x,1/2+y,z
4 1/2-x,1/2+y,1/2-z
5 -x,-y,-z
6 x,-y,1/2+z
7 1/2-x,1/2-y,-z
8 1/2+x,1/2-y,1/2+z
_cell_length_a                   16.2525(19)
_cell_length_b                   4.6399(6)
_cell_length_c                   33.087(4)
_cell_angle_alpha                90
_cell_angle_beta                 99.571(4)
_cell_angle_gamma                90
_cell_volume                     2460.36
_exptl_crystal_colour            colorless
_exptl_crystal_description       plate
_cell_formula_units_Z            8
_exptl_crystal_recrystallization_method ethanol
loop_
_atom_site_label
_atom_site_type_symbol
_atom_site_fract_x
_atom_site_fract_y
_atom_site_fract_z
C1 C 0.19872(11) 0.4236(4) 0.34320(5)
C2 C 0.21855(12) 0.3028(4) 0.30781(6)
H1 H 0.2598 0.1562 0.3096
C3 C 0.17849(13) 0.3949(5) 0.26979(6)
H2 H 0.1918 0.3096 0.2456
C4 C 0.11930(12) 0.6100(5) 0.26695(6)
H3 H 0.0918 0.6733 0.2409
C5 C 0.10035(12) 0.7328(5) 0.30228(6)
H4 H 0.0601 0.8827 0.3004
C6 C 0.13940(11) 0.6397(4) 0.34040(6)
H5 H 0.1255 0.7239 0.3646
N1 N 0.23685(10) 0.3100(3) 0.38154(4)
H6 H 0.2407 0.1213 0.3838
C7 C 0.26809(11) 0.4696(4) 0.41516(5)
O1 O 0.26511(8) 0.7348(3) 0.41590(4)
N2 N 0.30404(10) 0.3135(3) 0.44781(4)
H7 H 0.3037 0.1241 0.4465
C8 C 0.34315(11) 0.4572(4) 0.48501(5)
H8 H 0.2995 0.5470 0.4984
H9 H 0.3799 0.6126 0.4779
C9 C 0.39407(11) 0.2509(4) 0.51477(5)
H10 H 0.4367 0.1556 0.5012
H11 H 0.3571 0.0999 0.5230
C10 C 0.43674(11) 0.4116(4) 0.55260(5)
H12 H 0.3935 0.5064 0.5658
H13 H 0.4724 0.5647 0.5439
C11 C 0.49006(11) 0.2212(4) 0.58407(5)
H14 H 0.4544 0.0703 0.5934
H15 H 0.5330 0.1240 0.5709
C12 C 0.53265(13) 0.3885(5) 0.62088(6)
H16 H 0.4896 0.4898 0.6335
H17 H 0.5691 0.5366 0.6115
C13 C 0.58474(13) 0.2038(5) 0.65330(6)
H18 H 0.6101 0.3259 0.6762
H19 H 0.6287 0.1071 0.6414
H20 H 0.5490 0.0589 0.6633
loop_
_geom_bond_atom_site_label_1
_geom_bond_atom_site_label_2
_geom_bond_site_symmetry_1
_geom_bond_site_symmetry_2
C1 C2 1_555 1_555
C2 H1 1_555 1_555
C3 C2 1_555 1_555
H2 C3 1_555 1_555
C4 C3 1_555 1_555
H3 C4 1_555 1_555
C5 C4 1_555 1_555
H4 C5 1_555 1_555
C6 C1 1_555 1_555
H5 C6 1_555 1_555
N1 C1 1_555 1_555
H6 N1 1_555 1_555
C7 N1 1_555 1_555
O1 C7 1_555 1_555
N2 C7 1_555 1_555
H7 N2 1_555 1_555
C8 N2 1_555 1_555
H8 C8 1_555 1_555
H9 C8 1_555 1_555
C9 C8 1_555 1_555
H10 C9 1_555 1_555
H11 C9 1_555 1_555
C10 C9 1_555 1_555
H12 C10 1_555 1_555
H13 C10 1_555 1_555
C11 C10 1_555 1_555
H14 C11 1_555 1_555
H15 C11 1_555 1_555
C12 C11 1_555 1_555
H16 C12 1_555 1_555
H17 C12 1_555 1_555
C13 C12 1_555 1_555
H18 C13 1_555 1_555
H19 C13 1_555 1_555
H20 C13 1_555 1_555
C5 C6 1_555 1_555

#END
