
#######################################################################
#
#                 Cambridge Crystallographic Data Centre
#                                CCDC 
#
#######################################################################
#
# If this CIF has been generated from an entry in the Cambridge 
# Structural Database, then it will include bibliographic, chemical, 
# crystal, experimental, refinement or atomic coordinate data resulting 
# from the CCDC's data processing and validation procedures.
#
#######################################################################

data_XUYVIY
_chemical_formula_moiety         'C12 H9 F9 N2 O1'
_chemical_name_systematic        
1-(2,2,3,3,4,4,5,5,5-nonafluoropentyl)-3-phenylurea
_symmetry_cell_setting           monoclinic
_symmetry_space_group_name_H-M   'P 21/c'
_symmetry_Int_Tables_number      14
_space_group_name_Hall           '-P 2ybc'
loop_
_symmetry_equiv_pos_site_id
_symmetry_equiv_pos_as_xyz
1 x,y,z
2 -x,1/2+y,1/2-z
3 -x,-y,-z
4 x,1/2-y,1/2+z
_cell_length_a                   5.3338(2)
_cell_length_b                   9.0328(3)
_cell_length_c                   29.2388(10)
_cell_angle_alpha                90
_cell_angle_beta                 93.262(2)
_cell_angle_gamma                90
_cell_volume                     1406.42
_exptl_crystal_colour            colorless
_exptl_crystal_description       plate
_cell_formula_units_Z            4
_exptl_crystal_recrystallization_method methanol
loop_
_atom_site_label
_atom_site_type_symbol
_atom_site_fract_x
_atom_site_fract_y
_atom_site_fract_z
C1 C 1.2238(4) 0.7561(2) -0.00590(6)
C2 C 1.0800(4) 0.7522(2) 0.03826(6)
C3 C 1.2463(3) 0.75285(19) 0.08329(6)
C4 C 1.1152(3) 0.7073(2) 0.12673(6)
C5 C 1.2661(3) 0.7405(2) 0.17107(6)
H1 H 1.4362 0.6973 0.1699
H2 H 1.2841 0.8490 0.1749
C6 C 0.9855(3) 0.76245(19) 0.23424(6)
C7 C 0.7225(3) 0.74440(19) 0.30091(6)
C8 C 0.7437(4) 0.6885(2) 0.34528(6)
H3 H 0.8707 0.6182 0.3536
C9 C 0.5809(4) 0.7350(2) 0.37727(7)
H4 H 0.5947 0.6953 0.4074
C10 C 0.3972(4) 0.8392(2) 0.36592(7)
H5 H 0.2862 0.8718 0.3881
C11 C 0.3775(3) 0.8954(2) 0.32178(6)
H6 H 0.2522 0.9671 0.3138
C12 C 0.5381(3) 0.8485(2) 0.28908(6)
H7 H 0.5223 0.8872 0.2588
F1 F 1.0616(2) 0.77598(16) -0.04154(4)
F2 F 1.3453(2) 0.63130(13) -0.01212(4)
F3 F 1.3866(2) 0.86670(13) -0.00489(4)
F4 F 0.9366(2) 0.62993(14) 0.03641(4)
F5 F 0.9293(2) 0.87109(15) 0.03783(4)
F6 F 1.3398(2) 0.89018(12) 0.08951(4)
F7 F 1.44054(19) 0.66000(12) 0.07855(4)
F8 F 0.89024(19) 0.77727(14) 0.12615(4)
F9 F 1.0671(2) 0.56044(12) 0.12374(4)
N1 N 1.1435(3) 0.67979(16) 0.20957(5)
H8 H 1.1715 0.5869 0.2173
N2 N 0.8842(3) 0.68574(16) 0.26875(5)
H9 H 0.9227 0.5913 0.2713
O1 O 0.9388(2) 0.89346(13) 0.22584(4)
loop_
_geom_bond_atom_site_label_1
_geom_bond_atom_site_label_2
_geom_bond_site_symmetry_1
_geom_bond_site_symmetry_2
C1 C2 1_555 1_555
C2 C3 1_555 1_555
C3 C4 1_555 1_555
C4 C5 1_555 1_555
C5 H1 1_555 1_555
H2 C5 1_555 1_555
C6 N1 1_555 1_555
C7 C8 1_555 1_555
C8 H3 1_555 1_555
C9 C8 1_555 1_555
H4 C9 1_555 1_555
C10 C9 1_555 1_555
H5 C10 1_555 1_555
C11 C10 1_555 1_555
H6 C11 1_555 1_555
C12 C7 1_555 1_555
H7 C12 1_555 1_555
F1 C1 1_555 1_555
F2 C1 1_555 1_555
F3 C1 1_555 1_555
F4 C2 1_555 1_555
F5 C2 1_555 1_555
F6 C3 1_555 1_555
F7 C3 1_555 1_555
F8 C4 1_555 1_555
F9 C4 1_555 1_555
N1 C5 1_555 1_555
H8 N1 1_555 1_555
N2 C6 1_555 1_555
H9 N2 1_555 1_555
O1 C6 1_555 1_555
C7 N2 1_555 1_555
C11 C12 1_555 1_555

#END
