
#######################################################################
#
#                 Cambridge Crystallographic Data Centre
#                                CCDC 
#
#######################################################################
#
# If this CIF has been generated from an entry in the Cambridge 
# Structural Database, then it will include bibliographic, chemical, 
# crystal, experimental, refinement or atomic coordinate data resulting 
# from the CCDC's data processing and validation procedures.
#
#######################################################################

data_XUYWUL
_chemical_formula_moiety         'C13 H10 Br1 N1 O2 S1'
_chemical_name_systematic        
5-(2-bromobenzoyl)-4-(methylsulfanyl)pyridin-2(1H)-one
_symmetry_cell_setting           monoclinic
_symmetry_space_group_name_H-M   'P 21/n'
_symmetry_Int_Tables_number      14
_space_group_name_Hall           '-P 2yn'
loop_
_symmetry_equiv_pos_site_id
_symmetry_equiv_pos_as_xyz
1 x,y,z
2 1/2-x,1/2+y,1/2-z
3 -x,-y,-z
4 1/2+x,1/2-y,1/2+z
_cell_length_a                   8.2116(14)
_cell_length_b                   8.8272(15)
_cell_length_c                   17.853(3)
_cell_angle_alpha                90
_cell_angle_beta                 98.006(3)
_cell_angle_gamma                90
_cell_volume                     1281.47
_exptl_crystal_colour            yellow
_exptl_crystal_description       block
_cell_formula_units_Z            4
loop_
_atom_site_label
_atom_site_type_symbol
_atom_site_fract_x
_atom_site_fract_y
_atom_site_fract_z
S1 S 0.56572(13) 0.91359(12) 0.11688(6)
O1 O 0.2013(3) 0.5040(3) -0.02191(15)
N1 N 0.1040(5) 0.6382(4) 0.07043(19)
C1 C 0.3873(5) 0.8025(4) 0.0983(2)
C2 C 0.2553(5) 0.8283(4) 0.1419(2)
C3 C 0.1174(5) 0.7429(4) 0.1251(2)
H1 H 0.0301 0.7577 0.1523
C4 C 0.2243(5) 0.6044(4) 0.0278(2)
C5 C 0.1075(5) 0.9725(4) 0.2349(2)
C6 C 0.3699(5) 0.6933(4) 0.0439(2)
H2 H 0.4561 0.6760 0.0163
C7 C 0.2603(5) 0.9419(4) 0.2035(2)
O2 O 0.3874(4) 1.0070(4) 0.22846(19)
C8 C -0.0080(6) 1.0750(5) 0.2041(3)
Br1 Br 0.02087(8) 1.17744(7) 0.11411(4)
C9 C 0.0777(6) 0.8954(6) 0.3027(3)
H3 H 0.1530 0.8247 0.3253
C10 C -0.0604(9) 0.9261(8) 0.3334(3)
H4 H -0.0782 0.8766 0.3775
C11 C -0.1716(8) 1.0258(8) 0.3020(4)
H5 H -0.2656 1.0427 0.3244
C12 C -0.1520(7) 1.1029(6) 0.2386(4)
H6 H -0.2305 1.1726 0.2178
C13 C 0.6802(5) 0.8567(5) 0.0436(3)
H7 H 0.7056 0.7507 0.0488
H8 H 0.7804 0.9139 0.0475
H9 H 0.6161 0.8748 -0.0047
H10 H 0.031(4) 0.598(4) 0.065(2)
loop_
_geom_bond_atom_site_label_1
_geom_bond_atom_site_label_2
_geom_bond_site_symmetry_1
_geom_bond_site_symmetry_2
S1 C1 1_555 1_555
O1 C4 1_555 1_555
N1 C3 1_555 1_555
C1 C2 1_555 1_555
C2 C3 1_555 1_555
C3 H1 1_555 1_555
C4 N1 1_555 1_555
C5 C7 1_555 1_555
C6 C1 1_555 1_555
H2 C6 1_555 1_555
C7 C2 1_555 1_555
O2 C7 1_555 1_555
C8 C5 1_555 1_555
Br1 C8 1_555 1_555
C9 C5 1_555 1_555
H3 C9 1_555 1_555
C10 C9 1_555 1_555
H4 C10 1_555 1_555
C11 C10 1_555 1_555
H5 C11 1_555 1_555
C12 C8 1_555 1_555
H6 C12 1_555 1_555
C13 S1 1_555 1_555
H7 C13 1_555 1_555
H8 C13 1_555 1_555
H9 C13 1_555 1_555
H10 N1 1_555 1_555
C4 C6 1_555 1_555
C11 C12 1_555 1_555

#END
