
#######################################################################
#
#                 Cambridge Crystallographic Data Centre
#                                CCDC 
#
#######################################################################
#
# If this CIF has been generated from an entry in the Cambridge 
# Structural Database, then it will include bibliographic, chemical, 
# crystal, experimental, refinement or atomic coordinate data resulting 
# from the CCDC's data processing and validation procedures.
#
#######################################################################

data_XUZFUV
_chemical_formula_moiety         'C17 H19 N2 O1 S2 1+,F6 P1 1-'
_chemical_name_systematic        
'N-(2-hydroxyethyl)-N-methyl-5-(2-(3-methyl-1,3-benzothiazol-2(3H)-ylidene)ethylidene)thiophen-2(5H)-iminium hexafluorophosphate'
_symmetry_cell_setting           triclinic
_symmetry_space_group_name_H-M   'P -1'
_symmetry_Int_Tables_number      2
_space_group_name_Hall           '-P 1'
loop_
_symmetry_equiv_pos_site_id
_symmetry_equiv_pos_as_xyz
1 x,y,z
2 -x,-y,-z
_cell_length_a                   7.645(5)
_cell_length_b                   11.246(5)
_cell_length_c                   12.326(5)
_cell_angle_alpha                95.390(5)
_cell_angle_beta                 105.282(5)
_cell_angle_gamma                93.459(5)
_cell_volume                     1013.74
_exptl_crystal_colour            red
_exptl_crystal_description       BLOCK
_cell_formula_units_Z            2
loop_
_atom_site_label
_atom_site_type_symbol
_atom_site_fract_x
_atom_site_fract_y
_atom_site_fract_z
S1 S 0.49472(15) 0.08188(10) 0.70315(9)
S2 S -0.01514(15) -0.06987(10) 0.26935(10)
C1 C -0.1212(6) -0.2124(4) 0.2160(4)
N1 N 0.4323(5) 0.2601(3) 0.5888(3)
C2 C 0.3852(6) 0.1418(4) 0.5807(3)
N2 N -0.2391(5) -0.2343(4) 0.1138(3)
C3 C 0.5569(6) 0.3085(4) 0.6911(4)
C4 C 0.2200(6) -0.0468(4) 0.4842(4)
H1 H 0.2743 -0.0823 0.5484
C5 C 0.1024(6) -0.1219(4) 0.3955(4)
C6 C 0.6058(6) 0.2218(4) 0.7635(4)
C7 C 0.0573(6) -0.2434(4) 0.3914(4)
H2 H 0.1063 -0.2866 0.4513
C8 C 0.2645(6) 0.0728(4) 0.4875(4)
H3 H 0.2119 0.1107 0.4245
C9 C -0.0645(6) -0.2960(4) 0.2935(4)
H4 H -0.1048 -0.3771 0.2799
C10 C 0.7288(6) 0.2510(5) 0.8699(4)
H5 H 0.7609 0.1929 0.9187
C11 C 0.6296(7) 0.4260(5) 0.7222(5)
H6 H 0.5968 0.4845 0.6739
C12 C -0.3200(7) -0.3570(5) 0.0737(5)
H7 H -0.2264 -0.4075 0.0654
H8 H -0.4084 -0.3580 0.0019
H9 H -0.3782 -0.3859 0.1275
C13 C 0.8010(7) 0.3678(5) 0.9006(5)
H10 H 0.8831 0.3892 0.9712
C14 C 0.3577(9) 0.3339(5) 0.5001(5)
H11 H 0.4207 0.3247 0.4424
H12 H 0.3724 0.4165 0.5316
H13 H 0.2306 0.3095 0.4678
C15 C -0.2991(8) -0.1406(5) 0.0418(5)
H14 H -0.2585 -0.0664 0.0915
H15 H -0.4307 -0.1485 0.0262
C16 C 0.7534(8) 0.4541(5) 0.8280(5)
H16 H 0.8052 0.5325 0.8504
C17 C -0.2600(17) -0.111(2) -0.0829(15)
H17 H -0.3325 -0.1638 -0.1479
H18 H -0.2677 -0.0275 -0.0964
O1 O -0.104(3) -0.1378(10) -0.0474(9)
H19 H -0.0931 -0.2022 -0.0808
P1 P 0.7809(2) 0.30151(13) 0.25573(12)
F1 F 0.9192(7) 0.2260(4) 0.3298(4)
F2 F 0.7324(8) 0.1987(5) 0.1565(4)
F3 F 0.9202(12) 0.3573(9) 0.2069(7)
F4 F 0.6362(11) 0.3713(6) 0.1848(5)
F5 F 0.8280(13) 0.4018(5) 0.3543(5)
F6 F 0.6373(10) 0.2432(8) 0.3049(7)
loop_
_geom_bond_atom_site_label_1
_geom_bond_atom_site_label_2
_geom_bond_site_symmetry_1
_geom_bond_site_symmetry_2
S1 C2 1_555 1_555
S2 C1 1_555 1_555
C1 N2 1_555 1_555
N1 C2 1_555 1_555
C2 C8 1_555 1_555
N2 C12 1_555 1_555
C3 N1 1_555 1_555
C4 H1 1_555 1_555
C5 S2 1_555 1_555
C6 S1 1_555 1_555
C7 C5 1_555 1_555
H2 C7 1_555 1_555
C8 C4 1_555 1_555
H3 C8 1_555 1_555
C9 C1 1_555 1_555
H4 C9 1_555 1_555
C10 C6 1_555 1_555
H5 C10 1_555 1_555
C11 C3 1_555 1_555
H6 C11 1_555 1_555
C12 H7 1_555 1_555
H8 C12 1_555 1_555
H9 C12 1_555 1_555
C13 C10 1_555 1_555
H10 C13 1_555 1_555
C14 N1 1_555 1_555
H11 C14 1_555 1_555
H12 C14 1_555 1_555
H13 C14 1_555 1_555
C15 N2 1_555 1_555
H14 C15 1_555 1_555
H15 C15 1_555 1_555
C16 C11 1_555 1_555
H16 C16 1_555 1_555
C17 C15 1_555 1_555
H17 C17 1_555 1_555
H18 C17 1_555 1_555
O1 C17 1_555 1_555
H19 O1 1_555 1_555
P1 F1 1_555 1_555
F2 P1 1_555 1_555
F3 P1 1_555 1_555
F4 P1 1_555 1_555
F5 P1 1_555 1_555
F6 P1 1_555 1_555
C3 C6 1_555 1_555
C4 C5 1_555 1_555
C7 C9 1_555 1_555
C13 C16 1_555 1_555

#END
