
#######################################################################
#
#                 Cambridge Crystallographic Data Centre
#                                CCDC 
#
#######################################################################
#
# If this CIF has been generated from an entry in the Cambridge 
# Structural Database, then it will include bibliographic, chemical, 
# crystal, experimental, refinement or atomic coordinate data resulting 
# from the CCDC's data processing and validation procedures.
#
#######################################################################

data_XUZHIJ
_chemical_formula_moiety         'C18 H27 N1 O3'
_chemical_name_systematic        
2-Hydroxy-5-methyl-N-((1,3,3-trimethyl-5-hydroxycyclohexyl)methyl)benzamide
_chemical_properties_biological  
'inhibition of influenza virus infectivity in tissue cell culture'
_symmetry_cell_setting           triclinic
_symmetry_space_group_name_H-M   'P -1'
_symmetry_Int_Tables_number      2
_space_group_name_Hall           '-P 1'
loop_
_symmetry_equiv_pos_site_id
_symmetry_equiv_pos_as_xyz
1 x,y,z
2 -x,-y,-z
_cell_length_a                   7.6211(5)
_cell_length_b                   10.6651(8)
_cell_length_c                   11.6580(8)
_cell_angle_alpha                112.59(1)
_cell_angle_beta                 92.50(1)
_cell_angle_gamma                102.60(1)
_cell_volume                     845.211
_exptl_crystal_colour            colorless
_exptl_crystal_description       rod
_cell_formula_units_Z            2
_exptl_crystal_recrystallization_method 'ethyl acetate'
loop_
_atom_site_label
_atom_site_type_symbol
_atom_site_fract_x
_atom_site_fract_y
_atom_site_fract_z
O1 O 0.2945(3) 0.2957(2) 0.7096(2)
O2 O 0.1461(3) 0.1047(2) 0.7740(1)
O3 O 0.0323(2) -0.6140(2) 0.5828(2)
N1 N 0.0891(3) -0.1246(2) 0.6479(2)
C1 C 0.3080(3) 0.1924(2) 0.5991(2)
C2 C 0.3926(3) 0.2326(2) 0.5113(2)
C3 C 0.4009(3) 0.1319(2) 0.3953(2)
C4 C 0.3256(3) -0.0101(2) 0.3628(2)
C5 C 0.3288(4) -0.1164(3) 0.2345(2)
C6 C 0.2472(3) -0.0483(2) 0.4531(2)
C7 C 0.2364(3) 0.0495(2) 0.5718(2)
C8 C 0.1538(3) 0.0113(2) 0.6704(2)
C9 C -0.0132(3) -0.1709(2) 0.7337(2)
C10 C 0.0882(3) -0.2308(2) 0.8083(2)
C11 C 0.2608(4) -0.1220(3) 0.8836(2)
C12 C 0.1360(3) -0.3662(2) 0.7207(2)
C13 C -0.0256(3) -0.4914(2) 0.6605(2)
C14 C -0.1290(3) -0.5222(2) 0.7588(2)
C15 C -0.1919(3) -0.3971(2) 0.8494(2)
C16 C -0.3561(4) -0.3778(3) 0.7848(3)
C17 C -0.2531(4) -0.4310(3) 0.9604(2)
C18 C -0.0305(3) -0.2676(2) 0.9007(2)
H1 H 0.248 0.245 0.772
H2 H 0.443 0.332 0.531
H3 H 0.464 0.161 0.334
H4 H 0.196 -0.148 0.432
H5 H 0.140 -0.620 0.642
H6 H 0.113 -0.197 0.573
H7 H -0.106 -0.467 0.610
H8 H 0.270 -0.210 0.225
H9 H 0.263 -0.099 0.171
H10 H 0.449 -0.115 0.214
H11 H -0.123 -0.242 0.686
H12 H -0.052 -0.093 0.792
H13 H 0.342 -0.097 0.829
H14 H 0.239 -0.038 0.942
H15 H 0.330 -0.158 0.931
H16 H 0.219 -0.391 0.768
H17 H 0.197 -0.348 0.656
H18 H -0.052 -0.552 0.806
H19 H -0.234 -0.600 0.717
H20 H -0.154 -0.444 1.005
H21 H -0.326 -0.356 0.714
H22 H -0.296 -0.356 1.018
H23 H -0.454 -0.461 0.754
H24 H -0.402 -0.302 0.841
H25 H -0.349 -0.515 0.932
H26 H -0.075 -0.186 0.947
H27 H 0.049 -0.278 0.962
loop_
_geom_bond_atom_site_label_1
_geom_bond_atom_site_label_2
_geom_bond_site_symmetry_1
_geom_bond_site_symmetry_2
O1 C1 1_555 1_555
O2 C8 1_555 1_555
O3 C13 1_555 1_555
N1 C8 1_555 1_555
C1 C2 1_555 1_555
C2 C3 1_555 1_555
C3 C4 1_555 1_555
C4 C5 1_555 1_555
C5 H8 1_555 1_555
C6 C4 1_555 1_555
C7 C1 1_555 1_555
C8 C7 1_555 1_555
C9 N1 1_555 1_555
C10 C9 1_555 1_555
C11 C10 1_555 1_555
C12 C10 1_555 1_555
C13 C12 1_555 1_555
C14 C13 1_555 1_555
C15 C14 1_555 1_555
C16 C15 1_555 1_555
C17 C15 1_555 1_555
C18 C10 1_555 1_555
H1 O1 1_555 1_555
H2 C2 1_555 1_555
H3 C3 1_555 1_555
H4 C6 1_555 1_555
H5 O3 1_555 1_555
H6 N1 1_555 1_555
H7 C13 1_555 1_555
H9 C5 1_555 1_555
H10 C5 1_555 1_555
H11 C9 1_555 1_555
H12 C9 1_555 1_555
H13 C11 1_555 1_555
H14 C11 1_555 1_555
H15 C11 1_555 1_555
H16 C12 1_555 1_555
H17 C12 1_555 1_555
H18 C14 1_555 1_555
H19 C14 1_555 1_555
H20 C17 1_555 1_555
H21 C16 1_555 1_555
H22 C17 1_555 1_555
H23 C16 1_555 1_555
H24 C16 1_555 1_555
H25 C17 1_555 1_555
H26 C18 1_555 1_555
H27 C18 1_555 1_555
C6 C7 1_555 1_555
C15 C18 1_555 1_555

#END
