
#######################################################################
#
#                 Cambridge Crystallographic Data Centre
#                                CCDC 
#
#######################################################################
#
# If this CIF has been generated from an entry in the Cambridge 
# Structural Database, then it will include bibliographic, chemical, 
# crystal, experimental, refinement or atomic coordinate data resulting 
# from the CCDC's data processing and validation procedures.
#
#######################################################################

data_XUZHOP
_chemical_formula_moiety         'C17 H24 Cl1 N1 O3'
_chemical_name_systematic        
2-Hydroxy-5-chloro-N-((1,3,3-trimethyl-5-hydroxycyclohexyl)methyl)benzamide
_chemical_properties_biological  
'inhibition of influenza virus infectivity in tissue cell culture'
_symmetry_cell_setting           monoclinic
_symmetry_space_group_name_H-M   'P 21/c'
_symmetry_Int_Tables_number      14
_space_group_name_Hall           '-P 2ybc'
loop_
_symmetry_equiv_pos_site_id
_symmetry_equiv_pos_as_xyz
1 x,y,z
2 -x,1/2+y,1/2-z
3 -x,-y,-z
4 x,1/2-y,1/2+z
_cell_length_a                   9.5135(7)
_cell_length_b                   15.412(2)
_cell_length_c                   12.5401(8)
_cell_angle_alpha                90
_cell_angle_beta                 109.36(1)
_cell_angle_gamma                90
_cell_volume                     1734.69
_exptl_crystal_colour            colorless
_exptl_crystal_description       plate
_cell_formula_units_Z            4
_exptl_crystal_recrystallization_method acetone
loop_
_atom_site_label
_atom_site_type_symbol
_atom_site_fract_x
_atom_site_fract_y
_atom_site_fract_z
Cl1 Cl 0.3662(1) 0.81645(8) 0.08230(8)
O1 O 1.2624(2) 0.4434(1) 0.8246(2)
O2 O 0.6687(3) 0.5814(1) 0.3606(2)
O3 O 0.7116(3) 0.7993(1) 0.5639(2)
N1 N 0.7746(3) 0.6369(2) 0.5332(2)
C1 C 0.8653(3) 0.5263(2) 0.6883(2)
C2 C 0.9949(4) 0.4621(2) 0.7325(2)
C3 C 1.1443(3) 0.5057(2) 0.7839(2)
C4 C 1.1448(3) 0.5643(2) 0.8800(2)
C5 C 1.0262(3) 0.6347(2) 0.8443(2)
C6 C 0.8751(3) 0.5939(2) 0.7806(2)
C7 C 0.7170(4) 0.4776(3) 0.6628(4)
C8 C 0.8743(4) 0.5642(2) 0.5773(3)
C9 C 0.6859(3) 0.6434(2) 0.4269(2)
C10 C 0.6118(3) 0.7282(2) 0.3868(2)
C11 C 0.6291(3) 0.8036(2) 0.4528(2)
C12 C 0.5645(3) 0.8806(2) 0.4038(3)
C13 C 0.4839(3) 0.8853(2) 0.2905(3)
C14 C 0.4657(3) 0.8112(2) 0.2260(3)
C15 C 0.5266(3) 0.7343(2) 0.2728(2)
C16 C 1.0129(4) 0.6789(3) 0.9504(3)
C17 C 1.0708(4) 0.7044(2) 0.7748(4)
H1 H 0.708 0.454 0.729
H2 H 0.637 0.517 0.629
H3 H 0.712 0.432 0.610
H4 H 0.977 0.584 0.590
H5 H 0.854 0.520 0.521
H6 H 0.774 0.682 0.586
H7 H 0.577 0.932 0.450
H8 H 0.442 0.940 0.257
H9 H 0.511 0.683 0.226
H10 H 0.998 0.426 0.672
H11 H 0.978 0.427 0.789
H12 H 1.159 0.540 0.724
H13 H 1.242 0.590 0.912
H14 H 1.128 0.529 0.938
H15 H 0.987 0.637 0.998
H16 H 1.107 0.704 0.995
H17 H 0.940 0.723 0.931
H18 H 1.080 0.681 0.708
H19 H 0.996 0.749 0.755
H20 H 1.163 0.731 0.818
H21 H 0.841 0.566 0.836
H22 H 0.809 0.639 0.746
H23 H 1.290 0.432 0.765
H24 H 0.7289 0.8464 0.5929
loop_
_geom_bond_atom_site_label_1
_geom_bond_atom_site_label_2
_geom_bond_site_symmetry_1
_geom_bond_site_symmetry_2
Cl1 C14 1_555 1_555
O1 C3 1_555 1_555
O2 C9 1_555 1_555
O3 C11 1_555 1_555
N1 C8 1_555 1_555
C1 C2 1_555 1_555
C2 C3 1_555 1_555
C3 C4 1_555 1_555
C4 C5 1_555 1_555
C5 C6 1_555 1_555
C6 C1 1_555 1_555
C7 C1 1_555 1_555
C8 C1 1_555 1_555
C9 N1 1_555 1_555
C10 C9 1_555 1_555
C11 C10 1_555 1_555
C12 C11 1_555 1_555
C13 C12 1_555 1_555
C14 C13 1_555 1_555
C15 C10 1_555 1_555
C16 C5 1_555 1_555
C17 C5 1_555 1_555
H1 C7 1_555 1_555
H2 C7 1_555 1_555
H3 C7 1_555 1_555
H4 C8 1_555 1_555
H5 C8 1_555 1_555
H6 N1 1_555 1_555
H7 C12 1_555 1_555
H8 C13 1_555 1_555
H9 C15 1_555 1_555
H10 C2 1_555 1_555
H11 C2 1_555 1_555
H12 C3 1_555 1_555
H13 C4 1_555 1_555
H14 C4 1_555 1_555
H15 C16 1_555 1_555
H16 C16 1_555 1_555
H17 C16 1_555 1_555
H18 C17 1_555 1_555
H19 C17 1_555 1_555
H20 C17 1_555 1_555
H21 C6 1_555 1_555
H22 C6 1_555 1_555
H23 O1 1_555 1_555
H24 O3 1_555 1_555
C14 C15 1_555 1_555

#END
