
#######################################################################
#
#                 Cambridge Crystallographic Data Centre
#                                CCDC 
#
#######################################################################
#
# If this CIF has been generated from an entry in the Cambridge 
# Structural Database, then it will include bibliographic, chemical, 
# crystal, experimental, refinement or atomic coordinate data resulting 
# from the CCDC's data processing and validation procedures.
#
#######################################################################

data_XUZJEH
_chemical_formula_moiety         'C17 H24 Cl1 N1 O1 S1'
_chemical_name_systematic        
3-Chloro-N-((1,3,3-trimethyl-5-hydroxycyclohexyl)methyl)thiobenzamide
_chemical_properties_biological  
'inhibition of influenza virus infectivity in tissue cell culture'
_symmetry_cell_setting           monoclinic
_symmetry_space_group_name_H-M   'P 21/n'
_symmetry_Int_Tables_number      14
_space_group_name_Hall           '-P 2yn'
loop_
_symmetry_equiv_pos_site_id
_symmetry_equiv_pos_as_xyz
1 x,y,z
2 1/2-x,1/2+y,1/2-z
3 -x,-y,-z
4 1/2+x,1/2-y,1/2+z
_cell_length_a                   11.6378(6)
_cell_length_b                   11.9443(6)
_cell_length_c                   25.296(1)
_cell_angle_alpha                90
_cell_angle_beta                 94.857(5)
_cell_angle_gamma                90
_cell_volume                     3503.65
_exptl_crystal_colour            'pale yellow'
_exptl_crystal_description       plate
_cell_formula_units_Z            8
_exptl_crystal_recrystallization_method 'ethyl acetate'
loop_
_atom_site_label
_atom_site_type_symbol
_atom_site_fract_x
_atom_site_fract_y
_atom_site_fract_z
Cl1 Cl 0.6543(1) 0.1230(1) 0.74272(3)
S1 S 0.63109(5) 0.09313(5) 0.52267(3)
O1 O 1.0876(2) 0.4426(2) 0.43341(8)
N1 N 0.8299(2) 0.2045(2) 0.52372(7)
C1 C 0.8521(2) 0.2236(2) 0.42480(9)
C2 C 0.9144(2) 0.3361(2) 0.43078(9)
C3 C 1.0443(2) 0.3294(2) 0.43154(9)
C4 C 1.0806(2) 0.2701(2) 0.3825(1)
C5 C 1.0308(2) 0.1519(2) 0.37560(9)
C6 C 0.9002(2) 0.1575(2) 0.37908(9)
C7 C 0.7232(2) 0.2443(2) 0.4106(1)
C8 C 0.8662(2) 0.1524(2) 0.47554(9)
C9 C 0.7358(2) 0.1779(2) 0.54741(9)
C10 C 0.7312(2) 0.2287(2) 0.60103(9)
C11 C 0.6976(2) 0.1631(2) 0.6423(1)
C12 C 0.6981(3) 0.2074(3) 0.6924(1)
C13 C 0.7316(3) 0.3163(3) 0.7028(1)
C14 C 0.7624(3) 0.3817(3) 0.6614(1)
C15 C 0.7630(2) 0.3388(2) 0.6111(1)
C16 C 1.0922(2) 0.0713(2) 0.4158(1)
C17 C 1.0521(3) 0.1082(3) 0.3205(1)
H1 H 0.683 0.176 0.406
H2 H 0.692 0.287 0.438
H3 H 0.712 0.286 0.378
H4 H 0.895 0.371 0.463
H5 H 0.887 0.385 0.402
H6 H 1.074 0.287 0.462
H7 H 1.163 0.267 0.384
H8 H 1.055 0.314 0.352
H9 H 1.082 0.095 0.452
H10 H 1.061 -0.003 0.412
H11 H 1.173 0.068 0.412
H12 H 1.016 0.154 0.294
H13 H 1.133 0.104 0.316
H14 H 1.021 0.033 0.316
H15 H 0.867 0.191 0.346
H16 H 0.872 0.083 0.381
H17 H 0.822 0.085 0.469
H18 H 0.946 0.132 0.482
H19 H 0.878 0.262 0.539
H20 H 0.674 0.086 0.636
H21 H 0.734 0.349 0.738
H22 H 0.783 0.459 0.668
H23 H 0.786 0.385 0.583
H47 H 1.161 0.440 0.451
Cl2 Cl 0.53702(8) 0.56280(8) 0.68788(3)
S2 S 0.68170(6) 0.51801(6) 0.48479(3)
O2 O 0.9810(1) 0.6554(2) 0.43830(7)
N2 N 0.5798(2) 0.7074(2) 0.45210(8)
C18 C 0.6978(2) 0.7769(2) 0.3805(1)
C19 C 0.8122(2) 0.7644(2) 0.4150(1)
C20 C 0.8786(2) 0.6606(2) 0.40228(9)
C21 C 0.9082(2) 0.6625(3) 0.3453(1)
C22 C 0.8011(2) 0.6660(3) 0.3058(1)
C23 C 0.7202(3) 0.7604(3) 0.3217(1)
C24 C 0.6498(3) 0.8955(3) 0.3864(2)
C25 C 0.6061(2) 0.6928(2) 0.3970(1)
C26 C 0.6157(2) 0.6402(2) 0.4923(1)
C27 C 0.5965(2) 0.6840(2) 0.5461(1)
C28 C 0.5772(2) 0.6107(2) 0.5871(1)
C29 C 0.5635(2) 0.6536(3) 0.6369(1)
C30 C 0.5696(2) 0.7664(3) 0.6468(1)
C31 C 0.5884(3) 0.8391(3) 0.6071(1)
C32 C 0.6024(2) 0.7981(2) 0.5565(1)
C33 C 0.8397(3) 0.6918(5) 0.2509(1)
C34 C 0.7432(3) 0.5515(3) 0.3029(1)
H24 H 0.579 0.902 0.365
H25 H 0.635 0.908 0.422
H26 H 0.703 0.949 0.376
H27 H 0.796 0.761 0.452
H28 H 0.859 0.828 0.410
H29 H 0.831 0.596 0.406
H30 H 0.952 0.597 0.339
H31 H 0.954 0.726 0.340
H32 H 0.876 0.767 0.252
H33 H 0.895 0.641 0.241
H34 H 0.776 0.696 0.225
H35 H 0.719 0.531 0.337
H36 H 0.679 0.551 0.277
H37 H 0.797 0.495 0.293
H38 H 0.752 0.830 0.310
H39 H 0.647 0.750 0.302
H40 H 0.537 0.701 0.375
H41 H 0.634 0.618 0.393
H42 H 0.534 0.771 0.460
H43 H 0.574 0.530 0.581
H44 H 0.562 0.795 0.682
H45 H 0.590 0.919 0.614
H46 H 0.616 0.850 0.528
H48 H 1.007 0.584 0.435
loop_
_geom_bond_atom_site_label_1
_geom_bond_atom_site_label_2
_geom_bond_site_symmetry_1
_geom_bond_site_symmetry_2
Cl1 C12 1_555 1_555
S1 C9 1_555 1_555
O1 C3 1_555 1_555
N1 C8 1_555 1_555
C1 C2 1_555 1_555
C2 C3 1_555 1_555
C3 C4 1_555 1_555
C4 C5 1_555 1_555
C5 C6 1_555 1_555
C6 C1 1_555 1_555
C7 C1 1_555 1_555
C8 C1 1_555 1_555
C9 N1 1_555 1_555
C10 C9 1_555 1_555
C11 C10 1_555 1_555
C12 C11 1_555 1_555
C13 C12 1_555 1_555
C14 C13 1_555 1_555
C15 C10 1_555 1_555
C16 C5 1_555 1_555
C17 C5 1_555 1_555
Cl2 C29 1_555 1_555
S2 C26 1_555 1_555
O2 C20 1_555 1_555
N2 C25 1_555 1_555
C18 C19 1_555 1_555
C19 C20 1_555 1_555
C20 C21 1_555 1_555
C21 C22 1_555 1_555
C22 C23 1_555 1_555
C23 C18 1_555 1_555
C24 C18 1_555 1_555
C25 C18 1_555 1_555
C26 N2 1_555 1_555
C27 C26 1_555 1_555
C28 C27 1_555 1_555
C29 C28 1_555 1_555
C30 C29 1_555 1_555
C31 C30 1_555 1_555
C32 C27 1_555 1_555
C33 C22 1_555 1_555
C34 C22 1_555 1_555
H1 C7 1_555 1_555
H2 C7 1_555 1_555
H3 C7 1_555 1_555
H4 C2 1_555 1_555
H5 C2 1_555 1_555
H6 C3 1_555 1_555
H7 C4 1_555 1_555
H8 C4 1_555 1_555
H9 C16 1_555 1_555
H10 C16 1_555 1_555
H11 C16 1_555 1_555
H12 C17 1_555 1_555
H13 C17 1_555 1_555
H14 C17 1_555 1_555
H15 C6 1_555 1_555
H16 C6 1_555 1_555
H17 C8 1_555 1_555
H18 C8 1_555 1_555
H19 N1 1_555 1_555
H20 C11 1_555 1_555
H21 C13 1_555 1_555
H22 C14 1_555 1_555
H23 C15 1_555 1_555
H24 C24 1_555 1_555
H25 C24 1_555 1_555
H26 C24 1_555 1_555
H27 C19 1_555 1_555
H28 C19 1_555 1_555
H29 C20 1_555 1_555
H30 C21 1_555 1_555
H31 C21 1_555 1_555
H32 C33 1_555 1_555
H33 C33 1_555 1_555
H34 C33 1_555 1_555
H35 C34 1_555 1_555
H36 C34 1_555 1_555
H37 C34 1_555 1_555
H38 C23 1_555 1_555
H39 C23 1_555 1_555
H40 C25 1_555 1_555
H41 C25 1_555 1_555
H42 N2 1_555 1_555
H43 C28 1_555 1_555
H44 C30 1_555 1_555
H45 C31 1_555 1_555
H46 C32 1_555 1_555
H47 O1 1_555 1_555
H48 O2 1_555 1_555
C14 C15 1_555 1_555
C31 C32 1_555 1_555

#END
