
#######################################################################
#
#                 Cambridge Crystallographic Data Centre
#                                CCDC 
#
#######################################################################
#
# If this CIF has been generated from an entry in the Cambridge 
# Structural Database, then it will include bibliographic, chemical, 
# crystal, experimental, refinement or atomic coordinate data resulting 
# from the CCDC's data processing and validation procedures.
#
#######################################################################

data_XUZXOF
_chemical_formula_moiety         'C15 H17 N1 O4'
_chemical_name_systematic        
(4-(bis(2-Hydroxyethyl)amino)phenyl)(2-furyl)methanone
_symmetry_cell_setting           monoclinic
_symmetry_space_group_name_H-M   'P 21/c'
_symmetry_Int_Tables_number      14
_space_group_name_Hall           '-P 2ybc'
loop_
_symmetry_equiv_pos_site_id
_symmetry_equiv_pos_as_xyz
1 x,y,z
2 x,1/2-y,1/2+z
3 -x,-y,-z
4 -x,1/2+y,1/2-z
_cell_length_a                   11.7984(16)
_cell_length_b                   11.4066(16)
_cell_length_c                   10.1152(14)
_cell_angle_alpha                90
_cell_angle_beta                 94.766(3)
_cell_angle_gamma                90
_cell_volume                     1356.59
_exptl_crystal_colour            yellow
_exptl_crystal_description       plate
_cell_formula_units_Z            4
_exptl_crystal_recrystallization_method 'ethyl acetate'
loop_
_atom_site_label
_atom_site_type_symbol
_atom_site_fract_x
_atom_site_fract_y
_atom_site_fract_z
O1 O 0.68273(9) 0.00264(10) -0.34955(10)
O2 O 0.49421(9) 0.20248(9) -0.21011(10)
O3 O 1.01322(9) -0.27683(9) 0.32489(11)
H1 H 1.0455(16) -0.2595(17) 0.406(2)
O4 O 0.90708(10) 0.19746(9) 0.42479(11)
H2 H 0.9321(17) 0.2015(18) 0.348(2)
N1 N 0.83548(10) -0.00925(10) 0.26883(11)
C1 C 0.64059(12) 0.05549(12) -0.25908(14)
C2 C 0.54369(12) 0.13250(12) -0.29995(13)
C3 C 0.49018(13) 0.14929(13) -0.42202(15)
H3 H 0.5068(14) 0.1127(15) -0.4999(18)
C4 C 0.40304(14) 0.23288(14) -0.40883(16)
H4 H 0.3502(14) 0.2621(15) -0.4759(17)
C5 C 0.40869(14) 0.26167(14) -0.28041(16)
H5 H 0.3670(15) 0.3154(16) -0.2285(19)
C6 C 0.68561(12) 0.04063(11) -0.12027(13)
C7 C 0.63032(12) 0.07538(12) -0.00881(14)
H6 H 0.5563(13) 0.1065(13) -0.0213(15)
C8 C 0.67805(12) 0.05770(12) 0.11769(14)
H7 H 0.6381(12) 0.0839(13) 0.1915(15)
C9 C 0.78583(12) 0.00417(11) 0.14281(13)
C10 C 0.84014(12) -0.03397(12) 0.03017(14)
H8 H 0.9136(13) -0.0731(13) 0.0393(14)
C11 C 0.79126(12) -0.01557(12) -0.09552(14)
H9 H 0.8299(13) -0.0417(14) -0.1704(16)
C12 C 0.93975(12) -0.07701(12) 0.29589(15)
H10 H 0.9899(13) -0.0633(13) 0.2273(15)
H11 H 0.9779(13) -0.0499(13) 0.3782(15)
C13 C 0.91340(12) -0.20693(12) 0.30637(16)
H12 H 0.8715(13) -0.2337(14) 0.2206(17)
H13 H 0.8650(13) -0.2194(14) 0.3807(17)
C14 C 0.77935(13) 0.03075(13) 0.38441(14)
H14 H 0.6961(13) 0.0079(13) 0.3764(15)
H15 H 0.8155(12) -0.0116(13) 0.4608(15)
C15 C 0.79079(13) 0.16196(13) 0.40724(16)
H16 H 0.7551(13) 0.1788(14) 0.4884(17)
H17 H 0.7518(13) 0.2071(14) 0.3300(17)
loop_
_geom_bond_atom_site_label_1
_geom_bond_atom_site_label_2
_geom_bond_site_symmetry_1
_geom_bond_site_symmetry_2
O1 C1 1_555 1_555
O2 C2 1_555 1_555
O3 H1 1_555 1_555
O4 H2 1_555 1_555
N1 C9 1_555 1_555
C1 C2 1_555 1_555
C2 C3 1_555 1_555
C3 H3 1_555 1_555
C4 C3 1_555 1_555
H4 C4 1_555 1_555
C5 O2 1_555 1_555
H5 C5 1_555 1_555
C6 C1 1_555 1_555
C7 C6 1_555 1_555
H6 C7 1_555 1_555
C8 C7 1_555 1_555
H7 C8 1_555 1_555
C9 C8 1_555 1_555
C10 C9 1_555 1_555
H8 C10 1_555 1_555
C11 C6 1_555 1_555
H9 C11 1_555 1_555
C12 N1 1_555 1_555
H10 C12 1_555 1_555
H11 C12 1_555 1_555
C13 O3 1_555 1_555
H12 C13 1_555 1_555
H13 C13 1_555 1_555
C14 N1 1_555 1_555
H14 C14 1_555 1_555
H15 C14 1_555 1_555
C15 O4 1_555 1_555
H16 C15 1_555 1_555
H17 C15 1_555 1_555
C4 C5 1_555 1_555
C10 C11 1_555 1_555
C12 C13 1_555 1_555
C14 C15 1_555 1_555

#END
