
#######################################################################
#
#                 Cambridge Crystallographic Data Centre
#                                CCDC 
#
#######################################################################
#
# If this CIF has been generated from an entry in the Cambridge 
# Structural Database, then it will include bibliographic, chemical, 
# crystal, experimental, refinement or atomic coordinate data resulting 
# from the CCDC's data processing and validation procedures.
#
#######################################################################

data_XUZXIA
_chemical_formula_moiety         'C32 H32 O8'
_chemical_name_systematic        
'Ethyl (12-(benzyloxy)-4-methoxy-13-methyl-8,17,18-trioxopentacyclo[7.4.3.2^10,13^.0^1,9^.0^2,7^]octadeca-2,4,6,11-tetraen-11-yl)(methoxy)acetate'
_symmetry_cell_setting           triclinic
_symmetry_space_group_name_H-M   'P -1'
_symmetry_Int_Tables_number      2
_space_group_name_Hall           '-P 1'
loop_
_symmetry_equiv_pos_site_id
_symmetry_equiv_pos_as_xyz
1 x,y,z
2 -x,-y,-z
_cell_length_a                   8.0648(16)
_cell_length_b                   10.074(2)
_cell_length_c                   18.524(4)
_cell_angle_alpha                105.62(3)
_cell_angle_beta                 91.61(3)
_cell_angle_gamma                108.26(3)
_cell_volume                     1365.97
_exptl_crystal_colour            colorless
_exptl_crystal_description       parallelepiped
_cell_formula_units_Z            2
loop_
_atom_site_label
_atom_site_type_symbol
_atom_site_fract_x
_atom_site_fract_y
_atom_site_fract_z
O1 O -0.1174(2) 0.09068(19) 0.58904(10)
O2 O 0.7200(2) 0.4134(2) 0.68011(10)
O3 O 0.7626(2) 0.7764(2) 0.71616(10)
O4 O 0.8802(4) 1.0412(3) 0.81852(14)
O5 O 0.7150(2) 0.95411(19) 0.89879(10)
O6 O 0.2824(2) 0.7186(2) 0.79623(10)
O7 O 0.3939(2) 0.6243(2) 0.98365(9)
O8 O 0.7561(2) 0.6882(2) 0.96470(10)
C1 C 0.3475(3) 0.2670(3) 0.59168(13)
H1 H 0.4285 0.2781 0.5571
C2 C 0.1723(4) 0.1935(3) 0.56728(14)
H2 H 0.1332 0.1567 0.5158
C3 C 0.0514(3) 0.1735(2) 0.62005(13)
C4 C 0.1047(3) 0.2319(2) 0.69726(13)
H3 H 0.0240 0.2182 0.7318
C5 C 0.2825(3) 0.3118(2) 0.72174(12)
C6 C 0.4027(3) 0.3254(2) 0.66944(13)
C7 C 0.5826(3) 0.3936(2) 0.70867(13)
C8 C 0.5734(3) 0.4316(2) 0.79383(13)
C9 C 0.3715(3) 0.3820(2) 0.80339(12)
C10 C 0.3451(3) 0.2654(3) 0.84655(13)
H4 H 0.3555 0.3100 0.9006
H5 H 0.2307 0.1901 0.8301
C11 C 0.4924(3) 0.2021(3) 0.82633(15)
H6 H 0.4639 0.1326 0.7762
H7 H 0.5148 0.1541 0.8626
C12 C 0.6509(3) 0.3373(3) 0.82938(14)
H8 H 0.7397 0.3098 0.8006
H9 H 0.7032 0.3901 0.8811
C13 C 0.6617(3) 0.6001(2) 0.82881(13)
H10 H 0.7856 0.6328 0.8204
C14 C 0.5581(3) 0.6817(2) 0.79897(12)
C15 C 0.3858(3) 0.6397(2) 0.80767(12)
C16 C 0.3201(3) 0.5183(2) 0.84683(12)
C17 C 0.4428(3) 0.5935(3) 0.92233(13)
C18 C 0.6413(3) 0.6355(3) 0.91196(14)
C19 C -0.2504(3) 0.0704(3) 0.63809(17)
H11 H -0.2597 0.1634 0.6644
H12 H -0.2199 0.0260 0.6740
H13 H -0.3610 0.0081 0.6089
C20 C 0.6503(3) 0.8097(3) 0.77042(13)
H14 H 0.5600 0.8353 0.7462
C21 C 0.6737(5) 0.6994(4) 0.64180(17)
H15 H 0.6105 0.7552 0.6260
H16 H 0.5926 0.6062 0.6417
H17 H 0.7581 0.6848 0.6077
C22 C 0.7647(3) 0.9470(3) 0.83170(15)
C23 C 0.8128(4) 1.0835(3) 0.96117(17)
H18 H 0.7860 1.1681 0.9560
H19 H 0.9382 1.1029 0.9603
C24 C 0.7618(5) 1.0560(4) 1.03313(19)
H20 H 0.7741 0.9651 1.0348
H21 H 0.6417 1.0511 1.0368
H22 H 0.8366 1.1340 1.0745
C25 C 0.1331(4) 0.6486(4) 0.73765(18)
H23 H 0.0344 0.6783 0.7552
H24 H 0.0988 0.5434 0.7273
C26 C 0.1765(3) 0.6886(3) 0.66622(15)
C27 C 0.1859(5) 0.5858(4) 0.6040(2)
H25 H 0.1676 0.4914 0.6065
C28 C 0.2215(6) 0.6162(7) 0.5375(3)
H26 H 0.2287 0.5433 0.4958
C29 C 0.2457(6) 0.7493(10) 0.5322(3)
H27 H 0.2695 0.7690 0.4866
C30 C 0.2363(5) 0.8572(6) 0.5925(4)
H28 H 0.2530 0.9504 0.5884
C31 C 0.2012(4) 0.8268(3) 0.6608(2)
H29 H 0.1946 0.8999 0.7026
C32 C 0.1287(3) 0.4812(3) 0.86306(14)
H30 H 0.0520 0.4385 0.8162
H31 H 0.1085 0.5688 0.8910
H32 H 0.1054 0.4131 0.8921
loop_
_geom_bond_atom_site_label_1
_geom_bond_atom_site_label_2
_geom_bond_site_symmetry_1
_geom_bond_site_symmetry_2
O1 C3 1_555 1_555
O2 C7 1_555 1_555
O3 C20 1_555 1_555
O4 C22 1_555 1_555
O5 C22 1_555 1_555
O6 C15 1_555 1_555
O7 C17 1_555 1_555
O8 C18 1_555 1_555
C1 H1 1_555 1_555
C2 C1 1_555 1_555
H2 C2 1_555 1_555
C3 C2 1_555 1_555
C4 C3 1_555 1_555
H3 C4 1_555 1_555
C5 C4 1_555 1_555
C6 C1 1_555 1_555
C7 C6 1_555 1_555
C8 C7 1_555 1_555
C9 C5 1_555 1_555
C10 C9 1_555 1_555
H4 C10 1_555 1_555
H5 C10 1_555 1_555
C11 C10 1_555 1_555
H6 C11 1_555 1_555
H7 C11 1_555 1_555
C12 C8 1_555 1_555
H8 C12 1_555 1_555
H9 C12 1_555 1_555
C13 C8 1_555 1_555
H10 C13 1_555 1_555
C14 C13 1_555 1_555
C15 C14 1_555 1_555
C16 C9 1_555 1_555
C17 C16 1_555 1_555
C18 C13 1_555 1_555
C19 O1 1_555 1_555
H11 C19 1_555 1_555
H12 C19 1_555 1_555
H13 C19 1_555 1_555
C20 C14 1_555 1_555
H14 C20 1_555 1_555
C21 O3 1_555 1_555
H15 C21 1_555 1_555
H16 C21 1_555 1_555
H17 C21 1_555 1_555
C22 C20 1_555 1_555
C23 O5 1_555 1_555
H18 C23 1_555 1_555
H19 C23 1_555 1_555
C24 C23 1_555 1_555
H20 C24 1_555 1_555
H21 C24 1_555 1_555
H22 C24 1_555 1_555
C25 O6 1_555 1_555
H23 C25 1_555 1_555
H24 C25 1_555 1_555
C26 C25 1_555 1_555
C27 C26 1_555 1_555
H25 C27 1_555 1_555
C28 C27 1_555 1_555
H26 C28 1_555 1_555
C29 C28 1_555 1_555
H27 C29 1_555 1_555
C30 C29 1_555 1_555
H28 C30 1_555 1_555
C31 C26 1_555 1_555
H29 C31 1_555 1_555
C32 C16 1_555 1_555
H30 C32 1_555 1_555
H31 C32 1_555 1_555
H32 C32 1_555 1_555
C5 C6 1_555 1_555
C8 C9 1_555 1_555
C11 C12 1_555 1_555
C15 C16 1_555 1_555
C17 C18 1_555 1_555
C30 C31 1_555 1_555

#END
