
#######################################################################
#
#                 Cambridge Crystallographic Data Centre
#                                CCDC 
#
#######################################################################
#
# If this CIF has been generated from an entry in the Cambridge 
# Structural Database, then it will include bibliographic, chemical, 
# crystal, experimental, refinement or atomic coordinate data resulting 
# from the CCDC's data processing and validation procedures.
#
#######################################################################

data_XUZXEX
_chemical_formula_moiety         'C15 H20 N2 O1'
_chemical_name_systematic        
3-((1-hydroxy-4-methylpentan-2-yl)amino)-3-phenylacrylonitrile
_symmetry_cell_setting           monoclinic
_symmetry_space_group_name_H-M   'P 21'
_symmetry_Int_Tables_number      4
_space_group_name_Hall           'P 2yb'
loop_
_symmetry_equiv_pos_site_id
_symmetry_equiv_pos_as_xyz
1 x,y,z
2 -x,1/2+y,-z
_cell_length_a                   8.794(4)
_cell_length_b                   9.092(4)
_cell_length_c                   9.686(5)
_cell_angle_alpha                90
_cell_angle_beta                 113.290(7)
_cell_angle_gamma                90
_cell_volume                     711.339
_exptl_crystal_colour            colorless
_exptl_crystal_description       prismatic
_cell_formula_units_Z            2
loop_
_atom_site_label
_atom_site_type_symbol
_atom_site_fract_x
_atom_site_fract_y
_atom_site_fract_z
N1 N 0.3577(4) 0.9887(3) 0.3171(3)
N2 N 0.3252(5) 1.0750(4) -0.1835(4)
O1 O 0.6569(3) 0.6815(2) 0.4508(3)
H1 H 0.6539 0.6439 0.3705
C1 C 0.1285(5) 1.2304(4) 0.1853(4)
H2 H 0.0810 1.1561 0.2245
C2 C 0.0583(5) 1.3690(4) 0.1576(4)
H3 H -0.0374 1.3891 0.1772
C3 C 0.1271(5) 1.4782(4) 0.1016(4)
H4 H 0.0779 1.5731 0.0812
C4 C 0.2665(5) 1.4498(4) 0.0754(4)
H5 H 0.3150 1.5257 0.0388
C5 C 0.3367(5) 1.3116(4) 0.1018(4)
H6 H 0.4330 1.2930 0.0829
C6 C 0.2676(4) 1.1983(3) 0.1564(4)
C7 C 0.3405(4) 1.0484(4) 0.1833(4)
C8 C 0.3807(4) 0.9759(4) 0.0798(4)
H7 H 0.4329 0.8826 0.1056
C9 C 0.3480(5) 1.0336(4) -0.0645(4)
C10 C 0.4117(4) 0.8390(3) 0.3646(4)
H8 H 0.3623 0.7714 0.2765
C11 C 0.6013(4) 0.8298(3) 0.4239(4)
H9 H 0.6390 0.8744 0.3497
H10 H 0.6506 0.8865 0.5186
C12 C 0.3508(4) 0.7938(3) 0.4869(4)
H11 H 0.4210 0.7116 0.5446
H12 H 0.3700 0.8777 0.5571
C13 C 0.1736(6) 0.7479(8) 0.4378(6)
H13 H 0.1752 0.6476 0.3961
C14 C 0.0459(6) 0.8175(7) 0.3160(6)
H14 H 0.0362 0.9202 0.3419
H15 H -0.0591 0.7665 0.2951
H16 H 0.0723 0.8138 0.2268
C15 C 0.1336(6) 0.7131(6) 0.5728(6)
H17 H 0.1372 0.8038 0.6287
H18 H 0.2150 0.6431 0.6382
H19 H 0.0226 0.6699 0.5388
H20 H 0.336(4) 1.053(4) 0.389(4)
loop_
_geom_bond_atom_site_label_1
_geom_bond_atom_site_label_2
_geom_bond_site_symmetry_1
_geom_bond_site_symmetry_2
N1 C7 1_555 1_555
N2 C9 1_555 1_555
O1 H1 1_555 1_555
C1 H2 1_555 1_555
C2 C1 1_555 1_555
H3 C2 1_555 1_555
C3 C2 1_555 1_555
H4 C3 1_555 1_555
C4 C3 1_555 1_555
H5 C4 1_555 1_555
C5 C4 1_555 1_555
H6 C5 1_555 1_555
C6 C1 1_555 1_555
C7 C6 1_555 1_555
C8 C7 1_555 1_555
H7 C8 1_555 1_555
C9 C8 1_555 1_555
C10 N1 1_555 1_555
H8 C10 1_555 1_555
C11 O1 1_555 1_555
H9 C11 1_555 1_555
H10 C11 1_555 1_555
C12 C10 1_555 1_555
H11 C12 1_555 1_555
H12 C12 1_555 1_555
C13 C12 1_555 1_555
H13 C13 1_555 1_555
C14 C13 1_555 1_555
H14 C14 1_555 1_555
H15 C14 1_555 1_555
H16 C14 1_555 1_555
C15 C13 1_555 1_555
H17 C15 1_555 1_555
H18 C15 1_555 1_555
H19 C15 1_555 1_555
H20 N1 1_555 1_555
C5 C6 1_555 1_555
C10 C11 1_555 1_555

#END
