
#######################################################################
#
#                 Cambridge Crystallographic Data Centre
#                                CCDC 
#
#######################################################################
#
# If this CIF has been generated from an entry in the Cambridge 
# Structural Database, then it will include bibliographic, chemical, 
# crystal, experimental, refinement or atomic coordinate data resulting 
# from the CCDC's data processing and validation procedures.
#
#######################################################################

data_XZHQUP
_chemical_formula_moiety         'C20 H18 N2 O4'
_chemical_name_systematic        
6,11-Dimethyl-10-phenyl-4,8-dioxa-2,10-diazatetracyclo(10.4.0.0^2,6^.0^7,11^)octadeca-1(12),13,15-triene-3,9-dione
_symmetry_cell_setting           monoclinic
_symmetry_space_group_name_H-M   'P 21/a'
_symmetry_Int_Tables_number      14
_space_group_name_Hall           '-P 2yab'
loop_
_symmetry_equiv_pos_site_id
_symmetry_equiv_pos_as_xyz
1 x,y,z
2 1/2-x,1/2+y,-z
3 -x,-y,-z
4 1/2+x,1/2-y,z
_cell_length_a                   13.056(5)
_cell_length_b                   10.931(4)
_cell_length_c                   12.171(4)
_cell_angle_alpha                90
_cell_angle_beta                 103.36(4)
_cell_angle_gamma                90
_cell_volume                     1689.98
_cell_formula_units_Z            4
loop_
_atom_site_label
_atom_site_type_symbol
_atom_site_fract_x
_atom_site_fract_y
_atom_site_fract_z
N1 N 0.25950 0.18360 -0.19330
C1 C 0.26350 0.08770 -0.26380
O1 O 0.22180 0.12130 -0.37260
C2 C 0.17560 0.24220 -0.37590
C3 C 0.22590 0.29840 -0.25800
C4 C 0.19530 0.31280 -0.47460
C5 C 0.17360 0.23750 -0.58500
O2 O 0.27340 0.22080 -0.61250
C6 C 0.35070 0.27650 -0.53640
N2 N 0.31060 0.33060 -0.45600
C7 C 0.30870 0.17870 -0.07490
C8 C 0.41510 0.15600 -0.03840
C9 C 0.46250 0.15770 0.07860
C10 C 0.40240 0.18300 0.15360
C11 C 0.29680 0.20530 0.11830
C12 C 0.24800 0.20130 0.00270
O3 O 0.29930 -0.01270 -0.23920
C13 C 0.14400 0.36830 -0.21140
O4 O 0.44170 0.27520 -0.54250
C14 C 0.13610 0.43400 -0.49200
C15 C 0.36630 0.38420 -0.35440
C16 C 0.46010 0.45000 -0.35040
C17 C 0.51090 0.50850 -0.25100
C18 C 0.46850 0.50490 -0.15590
C19 C 0.37470 0.44070 -0.16080
C20 C 0.32410 0.37830 -0.25780
loop_
_geom_bond_atom_site_label_1
_geom_bond_atom_site_label_2
_geom_bond_site_symmetry_1
_geom_bond_site_symmetry_2
N1 C1 1_555 1_555
C1 O1 1_555 1_555
O1 C2 1_555 1_555
C2 C3 1_555 1_555
C3 N1 1_555 1_555
C4 C2 1_555 1_555
C5 C4 1_555 1_555
O2 C5 1_555 1_555
C6 O2 1_555 1_555
N2 C4 1_555 1_555
C7 N1 1_555 1_555
C8 C7 1_555 1_555
C9 C8 1_555 1_555
C10 C9 1_555 1_555
C11 C10 1_555 1_555
C12 C7 1_555 1_555
O3 C1 1_555 1_555
C13 C3 1_555 1_555
O4 C6 1_555 1_555
C14 C4 1_555 1_555
C15 N2 1_555 1_555
C16 C15 1_555 1_555
C17 C16 1_555 1_555
C18 C17 1_555 1_555
C19 C18 1_555 1_555
C20 C3 1_555 1_555
C6 N2 1_555 1_555
C11 C12 1_555 1_555
C15 C20 1_555 1_555
C19 C20 1_555 1_555

#END
