
#######################################################################
#
#                 Cambridge Crystallographic Data Centre
#                                CCDC 
#
#######################################################################
#
# If this CIF has been generated from an entry in the Cambridge 
# Structural Database, then it will include bibliographic, chemical, 
# crystal, experimental, refinement or atomic coordinate data resulting 
# from the CCDC's data processing and validation procedures.
#
#######################################################################

data_YABCIN
_chemical_formula_moiety         'C15 H26 Br1 N1 O6 Si1'
_chemical_name_systematic        
(3S,4S,1'R)-1-t-Butyldimethylsilyl-3-methoxycarbonyl-4-((2'-bromo-1'-methoxycarbonyl)ethoxy)azetidin-2-one
_symmetry_cell_setting           orthorhombic
_symmetry_space_group_name_H-M   'P 21 21 21'
_symmetry_Int_Tables_number      19
_space_group_name_Hall           'P 2ac 2ab'
loop_
_symmetry_equiv_pos_site_id
_symmetry_equiv_pos_as_xyz
1 x,y,z
2 1/2+x,1/2-y,-z
3 -x,1/2+y,1/2-z
4 1/2-x,-y,1/2+z
_cell_length_a                   8.068(2)
_cell_length_b                   11.246(1)
_cell_length_c                   22.767(5)
_cell_angle_alpha                90
_cell_angle_beta                 90
_cell_angle_gamma                90
_cell_volume                     2065.71
_chemical_melting_point          96-98deg.C
_cell_formula_units_Z            4
loop_
_atom_site_label
_atom_site_type_symbol
_atom_site_fract_x
_atom_site_fract_y
_atom_site_fract_z
N1 N 0.7099(7) 0.3120(4) 0.3128(2)
C1 C 0.5950(9) 0.3217(6) 0.2687(3)
C2 C 0.6482(8) 0.2045(6) 0.2402(3)
C3 C 0.7823(8) 0.2016(5) 0.2890(3)
Si1 Si 0.7840(2) 0.4124(2) 0.3675(1)
C4 C 0.766(1) 0.5666(6) 0.3380(4)
C5 C 1.0049(9) 0.3715(7) 0.3795(4)
C6 C 0.652(1) 0.3916(8) 0.4351(4)
C7 C 0.470(1) 0.416(1) 0.4207(4)
C8 C 0.666(1) 0.260(1) 0.4587(4)
C9 C 0.717(2) 0.486(1) 0.4821(5)
O1 O 0.4936(7) 0.3974(5) 0.2579(2)
C10 C 0.711(1) 0.1997(6) 0.1791(3)
O2 O 0.8349(9) 0.1462(6) 0.1643(3)
O3 O 0.6165(6) 0.2603(5) 0.1418(2)
C11 C 0.671(1) 0.2584(8) 0.0811(4)
O4 O 0.7661(5) 0.1095(4) 0.3309(2)
C12 C 0.8359(9) 0.0008(5) 0.3106(3)
C13 C 0.7598(9) -0.1019(7) 0.3456(3)
Br1 Br 0.8084(1) -0.0918(1) 0.4284
C14 C 1.0228(9) -0.0058(6) 0.3144(3)
O5 O 1.0942(7) -0.0895(5) 0.2947(3)
O6 O 1.0918(6) 0.0869(5) 0.3398(3)
C15 C 1.2722(9) 0.084(1) 0.3440(4)
loop_
_geom_bond_atom_site_label_1
_geom_bond_atom_site_label_2
_geom_bond_site_symmetry_1
_geom_bond_site_symmetry_2
N1 C1 1_555 1_555
C1 C2 1_555 1_555
C2 C3 1_555 1_555
C3 N1 1_555 1_555
Si1 N1 1_555 1_555
C4 Si1 1_555 1_555
C5 Si1 1_555 1_555
C6 Si1 1_555 1_555
C7 C6 1_555 1_555
C8 C6 1_555 1_555
C9 C6 1_555 1_555
O1 C1 1_555 1_555
C10 C2 1_555 1_555
O2 C10 1_555 1_555
O3 C10 1_555 1_555
C11 O3 1_555 1_555
O4 C3 1_555 1_555
C12 O4 1_555 1_555
C13 C12 1_555 1_555
Br1 C13 1_555 1_555
C14 C12 1_555 1_555
O5 C14 1_555 1_555
O6 C14 1_555 1_555
C15 O6 1_555 1_555

#END
