
#######################################################################
#
#                 Cambridge Crystallographic Data Centre
#                                CCDC 
#
#######################################################################
#
# If this CIF has been generated from an entry in the Cambridge 
# Structural Database, then it will include bibliographic, chemical, 
# crystal, experimental, refinement or atomic coordinate data resulting 
# from the CCDC's data processing and validation procedures.
#
#######################################################################

data_YABFUF
_chemical_formula_moiety         'C34 H21 F4 N5'
_chemical_name_systematic        
5',5''-(1H-pyrrole-2,5-diylbis((2,6-difluorophenyl)methylylidene))bis(1H,5'H-2,2'-bipyrrole)
_symmetry_cell_setting           monoclinic
_symmetry_space_group_name_H-M   'P 21/n'
_symmetry_Int_Tables_number      14
_space_group_name_Hall           '-P 2yn'
loop_
_symmetry_equiv_pos_site_id
_symmetry_equiv_pos_as_xyz
1 x,y,z
2 1/2-x,1/2+y,1/2-z
3 -x,-y,-z
4 1/2+x,1/2-y,1/2+z
_cell_length_a                   11.144(2)
_cell_length_b                   13.300(3)
_cell_length_c                   19.616(4)
_cell_angle_alpha                90
_cell_angle_beta                 106.05(3)
_cell_angle_gamma                90
_cell_volume                     2794.06
_exptl_crystal_colour            red
_exptl_crystal_description       block
_cell_formula_units_Z            4
loop_
_atom_site_label
_atom_site_type_symbol
_atom_site_fract_x
_atom_site_fract_y
_atom_site_fract_z
F1 F -0.04624(14) 0.11417(12) 0.47235(7)
F2 F 0.30014(11) 0.32730(10) 0.51936(6)
F3 F -0.29529(9) 0.50344(8) 0.23135(6)
F4 F 0.06403(10) 0.65278(8) 0.19504(7)
N1 N 0.11183(13) 0.14034(10) 0.30538(8)
N2 N 0.03821(13) 0.34103(10) 0.31095(7)
H1 H 0.0570(16) 0.3004(13) 0.2785(9)
N3 N 0.05834(13) 0.34600(10) 0.17280(7)
N4 N 0.21835(15) 0.19478(12) 0.14312(9)
H2 H 0.218(2) 0.1977(15) 0.1868(11)
C1 C 0.14423(16) 0.04717(13) 0.29323(10)
C2 C 0.19717(17) -0.00736(14) 0.35892(10)
H3 H 0.2286 -0.0725 0.3632
C3 C 0.19200(17) 0.05411(14) 0.41180(10)
H4 H 0.2178 0.0397 0.4601
C4 C 0.13840(16) 0.14787(13) 0.37941(9)
C5 C 0.10998(16) 0.22976(12) 0.41474(9)
C6 C 0.05766(15) 0.32176(12) 0.38176(9)
C7 C 0.01342(16) 0.40510(12) 0.41111(9)
H5 H 0.0150 0.4130 0.4585
C8 C -0.03305(16) 0.47379(12) 0.35713(9)
H6 H -0.0691 0.5356 0.3617
C9 C -0.01609(15) 0.43357(12) 0.29436(9)
C10 C -0.04716(15) 0.47453(12) 0.22426(9)
C11 C -0.01876(15) 0.43020(12) 0.16740(9)
C12 C -0.06444(17) 0.46030(13) 0.09363(9)
H7 H -0.1164 0.5145 0.0760
C13 C -0.01709(17) 0.39450(13) 0.05566(10)
H8 H -0.0314 0.3933 0.0067
C14 C 0.06075(16) 0.32592(12) 0.10658(9)
C15 C 0.13985(16) 0.25065(13) 0.09046(10)
C16 C 0.1610(2) 0.22180(16) 0.02735(12)
H9 H 0.1218 0.2476 -0.0173
C17 C 0.2520(2) 0.14675(17) 0.04259(14)
H10 H 0.2844 0.1135 0.0099
C18 C 0.2850(2) 0.13095(17) 0.11428(14)
H11 H 0.3432 0.0843 0.1389
C19 C 0.12625(17) 0.22179(13) 0.49255(9)
C20 C 0.0473(2) 0.16357(17) 0.51951(10)
C21 C 0.0592(3) 0.1522(2) 0.59039(12)
H12 H 0.0041 0.1119 0.6061
C22 C 0.1546(2) 0.20198(17) 0.63784(11)
H13 H 0.1644 0.1952 0.6863
C23 C 0.2357(2) 0.26152(15) 0.61450(10)
H14 H 0.3001 0.2955 0.6465
C24 C 0.21957(18) 0.26985(14) 0.54290(10)
C25 C -0.11333(15) 0.57285(12) 0.21234(9)
C26 C -0.23616(16) 0.58505(13) 0.21362(9)
C27 C -0.30160(17) 0.67274(14) 0.19740(10)
H15 H -0.3844 0.6768 0.1984
C28 C -0.24114(18) 0.75545(14) 0.17937(10)
H16 H -0.2842 0.8157 0.1676
C29 C -0.11790(19) 0.74957(13) 0.17872(10)
H17 H -0.0769 0.8053 0.1674
C30 C -0.05755(17) 0.65923(13) 0.19523(10)
C31 C 0.12023(16) 0.00430(13) 0.22376(10)
N5 N 0.1737(9) -0.0756(9) 0.2051(4)
H18 H 0.241(3) -0.104(3) 0.232(2)
C32 C 0.1225(8) -0.0932(6) 0.1309(4)
H19 H 0.1453 -0.1442 0.1045
C33 C 0.0334(8) -0.0210(6) 0.1058(5)
H20 H -0.0163 -0.0169 0.0592
C34 C 0.0276(14) 0.0451(9) 0.1595(7)
H21 H -0.0224 0.1019 0.1562
N6? N 0.0393(12) 0.0234(6) 0.1627(6)
H22? H -0.024(3) 0.069(3) 0.156(3)
C35? C 0.0599(7) -0.0496(5) 0.1118(4)
H23? H 0.0167 -0.0545 0.0640
C36? C 0.1561(7) -0.1094(6) 0.1487(4)
H24? H 0.1889 -0.1622 0.1284
C37? C 0.1977(11) -0.0834(12) 0.2172(6)
H25? H 0.2608 -0.1136 0.2525
loop_
_geom_bond_atom_site_label_1
_geom_bond_atom_site_label_2
_geom_bond_site_symmetry_1
_geom_bond_site_symmetry_2
F1 C20 1_555 1_555
F2 C24 1_555 1_555
F3 C26 1_555 1_555
F4 C30 1_555 1_555
N1 C1 1_555 1_555
N2 H1 1_555 1_555
N3 C11 1_555 1_555
N4 H2 1_555 1_555
C1 C2 1_555 1_555
C2 H3 1_555 1_555
C3 C2 1_555 1_555
H4 C3 1_555 1_555
C4 N1 1_555 1_555
C5 C4 1_555 1_555
C6 N2 1_555 1_555
C7 C6 1_555 1_555
H5 C7 1_555 1_555
C8 C7 1_555 1_555
H6 C8 1_555 1_555
C9 N2 1_555 1_555
C10 C9 1_555 1_555
C11 C10 1_555 1_555
C12 C11 1_555 1_555
H7 C12 1_555 1_555
C13 C12 1_555 1_555
H8 C13 1_555 1_555
C14 N3 1_555 1_555
C15 N4 1_555 1_555
C16 C15 1_555 1_555
H9 C16 1_555 1_555
C17 C16 1_555 1_555
H10 C17 1_555 1_555
C18 N4 1_555 1_555
H11 C18 1_555 1_555
C19 C5 1_555 1_555
C20 C19 1_555 1_555
C21 C20 1_555 1_555
H12 C21 1_555 1_555
C22 C21 1_555 1_555
H13 C22 1_555 1_555
C23 C22 1_555 1_555
H14 C23 1_555 1_555
C24 C19 1_555 1_555
C25 C10 1_555 1_555
C26 C25 1_555 1_555
C27 C26 1_555 1_555
H15 C27 1_555 1_555
C28 C27 1_555 1_555
H16 C28 1_555 1_555
C29 C28 1_555 1_555
H17 C29 1_555 1_555
C30 C25 1_555 1_555
C31 C1 1_555 1_555
N5 C31 1_555 1_555
H18 N5 1_555 1_555
C32 N5 1_555 1_555
H19 C32 1_555 1_555
C33 C32 1_555 1_555
H20 C33 1_555 1_555
C34 C31 1_555 1_555
H21 C34 1_555 1_555
C3 C4 1_555 1_555
C5 C6 1_555 1_555
C8 C9 1_555 1_555
C13 C14 1_555 1_555
C14 C15 1_555 1_555
C17 C18 1_555 1_555
C23 C24 1_555 1_555
C29 C30 1_555 1_555
C33 C34 1_555 1_555

#END
