
#######################################################################
#
#                 Cambridge Crystallographic Data Centre
#                                CCDC 
#
#######################################################################
#
# If this CIF has been generated from an entry in the Cambridge 
# Structural Database, then it will include bibliographic, chemical, 
# crystal, experimental, refinement or atomic coordinate data resulting 
# from the CCDC's data processing and validation procedures.
#
#######################################################################

data_YABFAL
_chemical_formula_moiety         'C23 H19 N1 O1 S1'
_chemical_name_systematic        
1-(4-methoxyphenyl)-4,9-dimethylpyrrolo[3,2,1-kl]phenothiazine
_symmetry_cell_setting           triclinic
_symmetry_space_group_name_H-M   'P -1'
_symmetry_Int_Tables_number      2
_space_group_name_Hall           '-P 1'
loop_
_symmetry_equiv_pos_site_id
_symmetry_equiv_pos_as_xyz
1 x,y,z
2 -x,-y,-z
_cell_length_a                   11.7583(8)
_cell_length_b                   12.9661(8)
_cell_length_c                   13.8658(9)
_cell_angle_alpha                101.971(3)
_cell_angle_beta                 93.135(4)
_cell_angle_gamma                116.661(3)
_cell_volume                     1821.53
_exptl_crystal_colour            yellow
_exptl_crystal_description       prism
_chemical_melting_point          '435 K'
_cell_formula_units_Z            4
_exptl_crystal_recrystallization_method 'petroleum ether/ethyl acetate'
_exptl_crystal_preparation       Luminescent
loop_
_atom_site_label
_atom_site_type_symbol
_atom_site_fract_x
_atom_site_fract_y
_atom_site_fract_z
S1 S 0.2487(2) 1.0319(2) 0.1242(2)
O1 O -0.3933(7) 0.5151(6) 0.3945(6)
N1 N 0.1057(6) 0.8016(6) 0.1916(5)
C1 C 0.1320(8) 0.9077(7) 0.3678(7)
C2 C 0.2105(8) 1.0183(8) 0.2451(7)
C3 C 0.1816(8) 0.8015(8) 0.1186(6)
C4 C -0.2109(8) 0.4941(8) 0.3352(7)
C5 C 0.2558(8) 0.8976(8) 0.0804(7)
C6 C 0.1479(8) 0.9090(7) 0.2686(6)
C7 C 0.3217(8) 0.8793(9) 0.0046(7)
C8 C -0.0719(7) 0.6414(7) 0.2531(6)
C9 C 0.0362(8) 0.6819(8) 0.1973(6)
C10 C -0.1042(9) 0.5394(7) 0.2869(7)
C11 C -0.2862(8) 0.5517(8) 0.3485(7)
C12 C -0.1487(9) 0.6982(8) 0.2676(7)
C13 C 0.0713(9) 0.6117(8) 0.1308(7)
C14 C 0.1663(8) 0.6869(8) 0.0805(7)
C15 C 0.2330(9) 0.6674(9) 0.0021(7)
C16 C -0.2561(9) 0.6539(8) 0.3155(7)
C17 C 0.1706(9) 1.0135(8) 0.4417(7)
C18 C 0.3108(8) 0.7643(9) -0.0340(7)
C19 C 0.2289(10) 1.1228(8) 0.4158(8)
C20 C -0.4316(11) 0.4062(10) 0.4255(10)
C21 C 0.1548(11) 1.0111(9) 0.5486(8)
C22 C 0.2504(10) 1.1246(8) 0.3190(9)
C23 C 0.3863(11) 0.7475(11) -0.1162(8)
S2 S 0.5116(2) 0.0250(2) 0.2851(2)
O2 O 1.3121(8) 0.4222(8) 0.0969(6)
N2 N 0.8075(7) 0.1831(6) 0.3144(5)
C24 C 0.8412(9) 0.0323(7) 0.1966(6)
C25 C 0.7585(8) 0.0693(7) 0.2439(6)
C26 C 0.7905(9) -0.0795(8) 0.1279(6)
C27 C 1.1645(9) 0.3567(8) 0.3200(7)
C28 C 1.0001(9) 0.2971(8) 0.1778(7)
C29 C 1.0340(8) 0.3069(7) 0.2791(7)
C30 C 0.5668(10) 0.1515(9) 0.4835(8)
C31 C 0.5756(9) -0.1211(8) 0.1582(7)
C32 C 0.9373(9) 0.2749(7) 0.3453(7)
C33 C 1.0951(10) 0.3358(8) 0.1183(8)
C34 C 0.6128(8) 0.1267(8) 0.3962(7)
C35 C 0.8286(9) 0.2878(8) 0.4751(7)
C36 C 0.7425(9) 0.1936(8) 0.3942(7)
C37 C 0.6252(8) -0.0089(7) 0.2255(6)
C38 C 0.6512(11) 0.2465(9) 0.5670(8)
C39 C 1.2251(9) 0.3858(8) 0.1610(8)
C40 C 0.8807(10) -0.1179(9) 0.0751(7)
C41 C 0.6579(9) -0.1547(8) 0.1077(7)
C42 C 0.9513(9) 0.3389(8) 0.4416(7)
C43 C 0.7813(11) 0.3159(9) 0.5626(8)
C44 C 1.2609(9) 0.3968(8) 0.2616(8)
C45 C 0.5964(14) 0.2749(11) 0.6599(9)
C46 C 1.4477(13) 0.4767(17) 0.1387(12)
loop_
_geom_bond_atom_site_label_1
_geom_bond_atom_site_label_2
_geom_bond_site_symmetry_1
_geom_bond_site_symmetry_2
S1 C2 1_555 1_555
O1 C11 1_555 1_555
N1 C3 1_555 1_555
C1 C6 1_555 1_555
C2 C6 1_555 1_555
C3 C5 1_555 1_555
C4 C10 1_555 1_555
C5 S1 1_555 1_555
C6 N1 1_555 1_555
C7 C5 1_555 1_555
C8 C9 1_555 1_555
C9 N1 1_555 1_555
C10 C8 1_555 1_555
C11 C4 1_555 1_555
C12 C8 1_555 1_555
C13 C9 1_555 1_555
C14 C3 1_555 1_555
C15 C14 1_555 1_555
C16 C11 1_555 1_555
C17 C1 1_555 1_555
C18 C7 1_555 1_555
C19 C17 1_555 1_555
C20 O1 1_555 1_555
C21 C17 1_555 1_555
C22 C2 1_555 1_555
C23 C18 1_555 1_555
S2 C34 1_555 1_555
O2 C39 1_555 1_555
N2 C25 1_555 1_555
C24 C25 1_555 1_555
C25 C37 1_555 1_555
C26 C24 1_555 1_555
C27 C29 1_555 1_555
C28 C29 1_555 1_555
C29 C32 1_555 1_555
C30 C34 1_555 1_555
C31 C37 1_555 1_555
C32 N2 1_555 1_555
C33 C28 1_555 1_555
C34 C36 1_555 1_555
C35 C36 1_555 1_555
C36 N2 1_555 1_555
C37 S2 1_555 1_555
C38 C30 1_555 1_555
C39 C33 1_555 1_555
C40 C26 1_555 1_555
C41 C26 1_555 1_555
C42 C32 1_555 1_555
C43 C35 1_555 1_555
C44 C27 1_555 1_555
C45 C38 1_555 1_555
C46 O2 1_555 1_555
C12 C16 1_555 1_555
C13 C14 1_555 1_555
C15 C18 1_555 1_555
C19 C22 1_555 1_555
C31 C41 1_555 1_555
C35 C42 1_555 1_555
C38 C43 1_555 1_555
C39 C44 1_555 1_555

#END
