
#######################################################################
#
#                 Cambridge Crystallographic Data Centre
#                                CCDC 
#
#######################################################################
#
# If this CIF has been generated from an entry in the Cambridge 
# Structural Database, then it will include bibliographic, chemical, 
# crystal, experimental, refinement or atomic coordinate data resulting 
# from the CCDC's data processing and validation procedures.
#
#######################################################################

data_YABFAI
_chemical_formula_moiety         'C25 H38 O8'
_chemical_name_systematic        
1\b,2\b-Diacetoxy-11\b-hydroxy-12\b-methoxypicrasan-16-one
_symmetry_cell_setting           triclinic
_symmetry_space_group_name_H-M   'P 1'
_symmetry_Int_Tables_number      1
_space_group_name_Hall           'P 1'
loop_
_symmetry_equiv_pos_site_id
_symmetry_equiv_pos_as_xyz
1 x,y,z
_cell_length_a                   9.400(2)
_cell_length_b                   11.905(1)
_cell_length_c                   12.205(2)
_cell_angle_alpha                109.01(1)
_cell_angle_beta                 91.55(2)
_cell_angle_gamma                104.02(1)
_cell_volume                     1244.48
_exptl_crystal_colour            colorless
_chemical_melting_point          220-221.5deg.C
_cell_formula_units_Z            2
loop_
_atom_site_label
_atom_site_type_symbol
_atom_site_fract_x
_atom_site_fract_y
_atom_site_fract_z
O1 O -0.2369 -0.0098 0.0368
O2 O -0.4268(5) -0.1687(5) -0.0335(5)
O3 O 0.3251(5) -0.0648(4) 0.0571(4)
O4 O 0.2149(5) -0.3163(4) -0.0230(4)
O5 O 0.3612(5) 0.0544(5) -0.1396(4)
O6 O 0.3240(6) -0.0738(5) -0.3261(5)
O7 O 0.3492(5) 0.2839(4) -0.1320(4)
O8 O 0.5013(6) 0.2421(6) -0.2676(5)
C1 C 0.2162(6) 0.0738(5) -0.1471(5)
C2 C 0.2284(7) 0.1761(6) -0.1984(5)
C3 C 0.0921(7) 0.2216(6) -0.1918(7)
C4 C 0.0477(7) 0.2601(6) -0.0694(6)
C5 C 0.0215(6) 0.1489(5) -0.0289(5)
C6 C -0.0425(7) 0.1706(6) 0.0875(6)
C7 C -0.0982(7) 0.0516(6) 0.1136(6)
C8 C 0.0141(6) -0.0224(6) 0.1033(5)
C9 C 0.0965(6) -0.0296(5) -0.0075(5)
C10 C 0.1589(6) 0.0963(5) -0.0258(5)
C11 C 0.1975(6) -0.1169(6) -0.0260(5)
C12 C 0.1138(6) -0.2427(5) -0.0218(5)
C13 C 0.0360(6) -0.2368(5) 0.0857(5)
C14 C -0.0685(6) -0.1535(6) 0.0981(5)
C15 C -0.2009(6) -0.2120(6) 0.0029(5)
C16 C -0.2965(7) -0.1290(6) 0.0033(5)
C17 C -0.0892(8) 0.3080(6) -0.0725(7)
C18 C 0.2840(6) 0.1885(6) 0.0689(5)
C19 C 0.1161(7) 0.0376(6) 0.2204(5)
C20 C -0.0440(7) -0.3646(6) 0.0865(6)
C21 C 0.2477(8) -0.3787(7) -0.1342(7)
C22 C 0.4051(7) -0.0170(6) -0.2368(6)
C23 C 0.5633(8) -0.0123(7) -0.2192(6)
C24 C 0.4759(8) 0.3056(6) -0.1753(7)
C25 C 0.5834(8) 0.4172(7) -0.0930(7)
H1 H 0.4083 -0.1022 0.0259
H2 H 0.1471 -0.0041 -0.2037
H3 H 0.2481 0.1443 -0.2821
H4 H 0.0074 0.1540 -0.2442
H5 H 0.1107 0.2942 -0.2180
H6 H 0.1290 0.3280 -0.0156
H7 H -0.0564 0.0806 -0.0884
H8 H -0.1282 0.2066 0.0853
H9 H 0.0349 0.2295 0.1515
H10 H -0.1235 0.0734 0.1958
H11 H 0.0142 -0.0763 -0.0725
H12 H 0.2297 -0.1288 -0.1047
H13 H 0.0385 -0.2863 -0.0917
H14 H 0.1133 -0.1988 0.1550
H15 H -0.1085 -0.1441 0.1755
H16 H -0.2631 -0.2876 0.0151
H17 H -0.1627 -0.2364 -0.0747
H18 H -0.1722 0.2382 -0.1262
H19 H -0.0666 0.3772 -0.1018
H20 H -0.1208 0.3337 0.0075
H21 H 0.2458 0.2044 0.1469
H22 H 0.3159 0.2664 0.0523
H23 H 0.3690 0.1517 0.0687
H24 H 0.1682 0.1248 0.2294
H25 H 0.1904 -0.0094 0.2207
H26 H 0.0557 0.0372 0.2868
H27 H -0.1238 -0.4069 0.0194
H28 H -0.0893 -0.3576 0.1614
H29 H 0.0276 -0.4163 0.0799
H30 H 0.1549 -0.4384 -0.1818
H31 H 0.3203 -0.4256 -0.1262
H32 H 0.2905 -0.3182 -0.1719
H33 H 0.6083 0.0448 -0.1373
H34 H 0.6199 0.0193 -0.2762
H35 H 0.5757 -0.0964 -0.2285
H36 H 0.5847 0.4173 -0.0101
H37 H 0.5575 0.4956 -0.0923
H38 H 0.6864 0.4232 -0.1157
O9 O -0.8213(5) -0.3096(5) -0.6424(4)
O10 O -0.9147(5) -0.1512(5) -0.5832(5)
O11 O -0.2286(5) -0.2486(5) -0.6647(4)
O12 O -0.1793(5) 0.0047(5) -0.5854(4)
O13 O -0.2471(5) -0.3502(4) -0.4502(4)
O14 O -0.1906(6) -0.1951(5) -0.2781(5)
O15 O -0.3844(5) -0.5631(5) -0.4268(5)
O16 O -0.2033(6) -0.4837(5) -0.2777(5)
C26 C -0.4049(6) -0.3689(6) -0.4439(5)
C27 C -0.4506(7) -0.4616(6) -0.3806(5)
C28 C -0.6136(8) -0.5157(6) -0.3944(6)
C29 C -0.6848(7) -0.5643(6) -0.5204(6)
C30 C -0.6506(7) -0.4570(6) -0.5670(5)
C31 C -0.7357(6) -0.4857(6) -0.6851(6)
C32 C -0.7233(7) -0.3713(6) -0.7164(6)
C33 C -0.5652(6) -0.2937(6) -0.7091(5)
C34 C -0.4719(6) -0.2810(6) -0.5954(5)
C35 C -0.4822(7) -0.4022(5) -0.5688(5)
C36 C -0.3158(6) -0.1942(6) -0.5800(5)
C37 C -0.3239(6) -0.0691(6) -0.5865(5)
C38 C -0.4144(7) -0.0785(6) -0.6945(5)
C39 C -0.5702(6) -0.1656(6) -0.7068(5)
C40 C -0.6626(6) -0.1072(6) -0.6155(6)
C41 C -0.8102(7) -0.1897(7) -0.6150(6)
C42 C -0.8492(8) -0.6202(6) -0.5230(7)
C43 C -0.4146(7) -0.4968(6) -0.6551(5)
C44 C -0.5098(7) -0.3602(6) -0.8242(5)
C45 C -0.4195(7) 0.0472(7) -0.6980(6)
C46 C -0.0932(7) 0.0505(6) -0.4752(6)
C47 C -0.1526(7) -0.2666(6) -0.3590(6)
C48 C -0.0003(7) -0.2767(6) -0.3760(6)
C49 C -0.2631(8) -0.5638(7) -0.3654(8)
C50 C -0.2187(8) -0.6783(7) -0.4203(7)
H39 H -0.1264 -0.2341 -0.6248
H40 H -0.4214 -0.2885 -0.3943
H41 H -0.4152 -0.4184 -0.2951
H42 H -0.6601 -0.4522 -0.3481
H43 H -0.6332 -0.5867 -0.3645
H44 H -0.6402 -0.6309 -0.5691
H45 H -0.6853 -0.3900 -0.5098
H46 H -0.8422 -0.5251 -0.6831
H47 H -0.6948 -0.5454 -0.7462
H48 H -0.7681 -0.4001 -0.8004
H49 H -0.5207 -0.2336 -0.5306
H50 H -0.2677 -0.1790 -0.5012
H51 H -0.3682 -0.0262 -0.5166
H52 H -0.3664 -0.1180 -0.7634
H53 H -0.6207 -0.1771 -0.7840
H54 H -0.6768 -0.0340 -0.6308
H55 H -0.6042 -0.0821 -0.5378
H56 H -0.8655 -0.6899 -0.4920
H57 H -0.8982 -0.6534 -0.6060
H58 H -0.8946 -0.5560 -0.4751
H59 H -0.3070 -0.4598 -0.6539
H60 H -0.4657 -0.5207 -0.7357
H61 H -0.4295 -0.5722 -0.6326
H62 H -0.4067 -0.3144 -0.8286
H63 H -0.5763 -0.3670 -0.8922
H64 H -0.5094 -0.4467 -0.8282
H65 H -0.4706 0.0874 -0.6313
H66 H -0.4769 0.0351 -0.7733
H67 H -0.3176 0.0986 -0.6926
H68 H -0.1433 0.1032 -0.4159
H69 H 0.0069 0.0982 -0.4796
H70 H -0.0870 -0.0218 -0.4509
H71 H 0.0644 -0.2430 -0.2999
H72 H 0.0446 -0.2346 -0.4300
H73 H -0.0015 -0.3685 -0.4126
H74 H -0.1272 -0.6826 -0.3795
H75 H -0.2011 -0.6913 -0.5054
H76 H -0.3013 -0.7553 -0.4232
loop_
_geom_bond_atom_site_label_1
_geom_bond_atom_site_label_2
_geom_bond_site_symmetry_1
_geom_bond_site_symmetry_2
O1 C7 1_555 1_555
O2 C16 1_555 1_555
O3 C11 1_555 1_555
O4 C12 1_555 1_555
O5 C1 1_555 1_555
O6 C22 1_555 1_555
O7 C2 1_555 1_555
O8 C24 1_555 1_555
C1 C2 1_555 1_555
C2 C3 1_555 1_555
C3 C4 1_555 1_555
C4 C5 1_555 1_555
C5 C6 1_555 1_555
C6 C7 1_555 1_555
C7 C8 1_555 1_555
C8 C9 1_555 1_555
C9 C10 1_555 1_555
C10 C1 1_555 1_555
C11 C9 1_555 1_555
C12 C11 1_555 1_555
C13 C12 1_555 1_555
C14 C8 1_555 1_555
C15 C14 1_555 1_555
C16 O1 1_555 1_555
C17 C4 1_555 1_555
C18 C10 1_555 1_555
C19 C8 1_555 1_555
C20 C13 1_555 1_555
C21 O4 1_555 1_555
C22 O5 1_555 1_555
C23 C22 1_555 1_555
C24 O7 1_555 1_555
C25 C24 1_555 1_555
O9 C32 1_555 1_555
O10 C41 1_555 1_555
O11 C36 1_555 1_555
O12 C37 1_555 1_555
O13 C26 1_555 1_555
O14 C47 1_555 1_555
O15 C27 1_555 1_555
O16 C49 1_555 1_555
C26 C27 1_555 1_555
C27 C28 1_555 1_555
C28 C29 1_555 1_555
C29 C30 1_555 1_555
C30 C31 1_555 1_555
C31 C32 1_555 1_555
C32 C33 1_555 1_555
C33 C34 1_555 1_555
C34 C35 1_555 1_555
C35 C26 1_555 1_555
C36 C34 1_555 1_555
C37 C36 1_555 1_555
C38 C37 1_555 1_555
C39 C33 1_555 1_555
C40 C39 1_555 1_555
C41 O9 1_555 1_555
C42 C29 1_555 1_555
C43 C35 1_555 1_555
C44 C33 1_555 1_555
C45 C38 1_555 1_555
C46 O12 1_555 1_555
C47 O13 1_555 1_555
C48 C47 1_555 1_555
C49 O15 1_555 1_555
C50 C49 1_555 1_555
H1 O3 1_555 1_555
H2 C1 1_555 1_555
H3 C2 1_555 1_555
H4 C3 1_555 1_555
H5 C3 1_555 1_555
H6 C4 1_555 1_555
H7 C5 1_555 1_555
H8 C6 1_555 1_555
H9 C6 1_555 1_555
H10 C7 1_555 1_555
H11 C9 1_555 1_555
H12 C11 1_555 1_555
H13 C12 1_555 1_555
H14 C13 1_555 1_555
H15 C14 1_555 1_555
H16 C15 1_555 1_555
H17 C15 1_555 1_555
H18 C17 1_555 1_555
H19 C17 1_555 1_555
H20 C17 1_555 1_555
H21 C18 1_555 1_555
H22 C18 1_555 1_555
H23 C18 1_555 1_555
H24 C19 1_555 1_555
H25 C19 1_555 1_555
H26 C19 1_555 1_555
H27 C20 1_555 1_555
H28 C20 1_555 1_555
H29 C20 1_555 1_555
H30 C21 1_555 1_555
H31 C21 1_555 1_555
H32 C21 1_555 1_555
H33 C23 1_555 1_555
H34 C23 1_555 1_555
H35 C23 1_555 1_555
H36 C25 1_555 1_555
H37 C25 1_555 1_555
H38 C25 1_555 1_555
H39 O11 1_555 1_555
H40 C26 1_555 1_555
H41 C27 1_555 1_555
H42 C28 1_555 1_555
H43 C28 1_555 1_555
H44 C29 1_555 1_555
H45 C30 1_555 1_555
H46 C31 1_555 1_555
H47 C31 1_555 1_555
H48 C32 1_555 1_555
H49 C34 1_555 1_555
H50 C36 1_555 1_555
H51 C37 1_555 1_555
H52 C38 1_555 1_555
H53 C39 1_555 1_555
H54 C40 1_555 1_555
H55 C40 1_555 1_555
H56 C42 1_555 1_555
H57 C42 1_555 1_555
H58 C42 1_555 1_555
H59 C43 1_555 1_555
H60 C43 1_555 1_555
H61 C43 1_555 1_555
H62 C44 1_555 1_555
H63 C44 1_555 1_555
H64 C44 1_555 1_555
H65 C45 1_555 1_555
H66 C45 1_555 1_555
H67 C45 1_555 1_555
H68 C46 1_555 1_555
H69 C46 1_555 1_555
H70 C46 1_555 1_555
H71 C48 1_555 1_555
H72 C48 1_555 1_555
H73 C48 1_555 1_555
H74 C50 1_555 1_555
H75 C50 1_555 1_555
H76 C50 1_555 1_555
C5 C10 1_555 1_555
C13 C14 1_555 1_555
C15 C16 1_555 1_555
C30 C35 1_555 1_555
C38 C39 1_555 1_555
C40 C41 1_555 1_555

#END
