
#######################################################################
#
#                 Cambridge Crystallographic Data Centre
#                                CCDC 
#
#######################################################################
#
# If this CIF has been generated from an entry in the Cambridge 
# Structural Database, then it will include bibliographic, chemical, 
# crystal, experimental, refinement or atomic coordinate data resulting 
# from the CCDC's data processing and validation procedures.
#
#######################################################################

data_YABHIT
_chemical_formula_moiety         'C24 H19 N1 O2 S2'
_chemical_name_systematic        
(Z)-(3R*,5R*)-7-Benzylidene-3,9-diphenyl-1-oxa-4,6-dithia-9-azaspiro(4.4)nonan-8-one
_symmetry_cell_setting           monoclinic
_symmetry_space_group_name_H-M   'P 21/n'
_symmetry_Int_Tables_number      14
_space_group_name_Hall           '-P 2yn'
loop_
_symmetry_equiv_pos_site_id
_symmetry_equiv_pos_as_xyz
1 x,y,z
2 1/2+x,1/2-y,1/2+z
3 -x,-y,-z
4 1/2-x,1/2+y,1/2-z
_cell_length_a                   8.1115(1)
_cell_length_b                   14.5477(3)
_cell_length_c                   17.0169(3)
_cell_angle_alpha                90
_cell_angle_beta                 100.6838(8)
_cell_angle_gamma                90
_cell_volume                     1973.25
_exptl_crystal_colour            colorless
_exptl_crystal_description       prism
_cell_formula_units_Z            4
loop_
_atom_site_label
_atom_site_type_symbol
_atom_site_fract_x
_atom_site_fract_y
_atom_site_fract_z
S1 S 0.53136(8) 0.64815(4) 0.35823(4)
S2 S 0.42125(9) 0.60891(5) 0.18532(4)
O1 O 0.8845(2) 0.46937(13) 0.37822(11)
O2 O 0.6892(2) 0.70716(13) 0.23717(11)
N1 N 0.7200(3) 0.55165(14) 0.27945(12)
C1 C 0.6051(3) 0.62722(16) 0.26368(14)
C2 C 0.7738(3) 0.52554(17) 0.35749(15)
C3 C 0.6804(3) 0.57466(16) 0.41219(15)
C4 C 0.4613(3) 0.71522(19) 0.13266(15)
H1 H 0.3536 0.7501 0.1188
C5 C 0.5765(4) 0.76656(19) 0.19903(16)
H2 H 0.6341 0.8172 0.1761
H3 H 0.5104 0.7933 0.2368
C6 C 0.7155(3) 0.55733(17) 0.49109(15)
H4 H 0.7959 0.5102 0.5068
C7 C 0.6492(3) 0.59989(17) 0.55632(15)
C8 C 0.5325(3) 0.67157(19) 0.54606(16)
H5 H 0.4878 0.6928 0.4936
C9 C 0.4806(3) 0.7124(2) 0.61127(17)
H6 H 0.4012 0.7611 0.6032
C10 C 0.5446(3) 0.68195(19) 0.68771(16)
H7 H 0.5102 0.7101 0.7324
C11 C 0.6591(4) 0.6103(2) 0.69915(17)
H8 H 0.7017 0.5889 0.7517
C12 C 0.7115(3) 0.57001(18) 0.63460(15)
H9 H 0.7908 0.5213 0.6433
C13 C 0.7915(3) 0.51124(16) 0.21604(14)
C14 C 0.9318(3) 0.54886(19) 0.19361(16)
H10 H 0.9841 0.6015 0.2203
C15 C 0.9956(3) 0.5089(2) 0.13157(17)
H11 H 1.0908 0.5351 0.1150
C16 C 0.9210(3) 0.4307(2) 0.09340(16)
H12 H 0.9662 0.4033 0.0514
C17 C 0.7814(3) 0.39292(18) 0.11667(16)
H13 H 0.7301 0.3396 0.0906
C18 C 0.7163(3) 0.43323(17) 0.17825(15)
H14 H 0.6203 0.4075 0.1945
C19 C 0.5342(3) 0.70364(18) 0.05669(15)
C20 C 0.5421(4) 0.78149(19) 0.00971(16)
H15 H 0.5005 0.8385 0.0250
C21 C 0.6103(4) 0.7763(2) -0.05919(17)
H16 H 0.6146 0.8296 -0.0909
C22 C 0.6722(4) 0.6937(2) -0.08187(16)
H17 H 0.7209 0.6904 -0.1285
C23 C 0.6626(3) 0.61597(19) -0.03607(16)
H18 H 0.7033 0.5590 -0.0520
C24 C 0.5939(3) 0.62024(18) 0.03303(15)
H19 H 0.5879 0.5664 0.0640
loop_
_geom_bond_atom_site_label_1
_geom_bond_atom_site_label_2
_geom_bond_site_symmetry_1
_geom_bond_site_symmetry_2
S1 C1 1_555 1_555
S2 C1 1_555 1_555
O1 C2 1_555 1_555
O2 C1 1_555 1_555
N1 C1 1_555 1_555
C2 N1 1_555 1_555
C3 S1 1_555 1_555
C4 S2 1_555 1_555
H1 C4 1_555 1_555
C5 O2 1_555 1_555
H2 C5 1_555 1_555
H3 C5 1_555 1_555
C6 C3 1_555 1_555
H4 C6 1_555 1_555
C7 C6 1_555 1_555
C8 C7 1_555 1_555
H5 C8 1_555 1_555
C9 C8 1_555 1_555
H6 C9 1_555 1_555
C10 C9 1_555 1_555
H7 C10 1_555 1_555
C11 C10 1_555 1_555
H8 C11 1_555 1_555
C12 C7 1_555 1_555
H9 C12 1_555 1_555
C13 N1 1_555 1_555
C14 C13 1_555 1_555
H10 C14 1_555 1_555
C15 C14 1_555 1_555
H11 C15 1_555 1_555
C16 C15 1_555 1_555
H12 C16 1_555 1_555
C17 C16 1_555 1_555
H13 C17 1_555 1_555
C18 C13 1_555 1_555
H14 C18 1_555 1_555
C19 C4 1_555 1_555
C20 C19 1_555 1_555
H15 C20 1_555 1_555
C21 C20 1_555 1_555
H16 C21 1_555 1_555
C22 C21 1_555 1_555
H17 C22 1_555 1_555
C23 C22 1_555 1_555
H18 C23 1_555 1_555
C24 C19 1_555 1_555
H19 C24 1_555 1_555
C2 C3 1_555 1_555
C4 C5 1_555 1_555
C11 C12 1_555 1_555
C17 C18 1_555 1_555
C23 C24 1_555 1_555

#END
