
#######################################################################
#
#                 Cambridge Crystallographic Data Centre
#                                CCDC 
#
#######################################################################
#
# If this CIF has been generated from an entry in the Cambridge 
# Structural Database, then it will include bibliographic, chemical, 
# crystal, experimental, refinement or atomic coordinate data resulting 
# from the CCDC's data processing and validation procedures.
#
#######################################################################

data_YABHOA02
_chemical_formula_moiety         'C8 H2 F4 O4,2(H2 O1)'
_chemical_name_systematic        
'2,3,5,6-tetrafluoroterephthalic acid dihydrate'
_symmetry_cell_setting           monoclinic
_symmetry_space_group_name_H-M   'P 21/c'
_symmetry_Int_Tables_number      14
_space_group_name_Hall           '-P 2ybc'
loop_
_symmetry_equiv_pos_site_id
_symmetry_equiv_pos_as_xyz
1 x,y,z
2 -x,1/2+y,1/2-z
3 -x,-y,-z
4 x,1/2-y,1/2+z
_cell_length_a                   8.5417(5)
_cell_length_b                   8.0442(5)
_cell_length_c                   7.4465(4)
_cell_angle_alpha                90
_cell_angle_beta                 99.017(5)
_cell_angle_gamma                90
_cell_volume                     505.334
_exptl_crystal_colour            'light yellow'
_exptl_crystal_description       block-like
_cell_formula_units_Z            2
_exptl_crystal_preparation       Luminescent
loop_
_atom_site_label
_atom_site_type_symbol
_atom_site_fract_x
_atom_site_fract_y
_atom_site_fract_z
F1 F 0.59192(18) 0.9123(2) 0.3516(2)
F2 F 0.80748(16) 0.9452(2) 0.1374(2)
O1 O 0.1555(2) 1.0790(2) 0.2294(3)
O2 O 0.2755(2) 0.8480(2) 0.3450(3)
H1 H 0.2008 0.8445 0.4020
C1 C 0.2590(3) 0.9745(3) 0.2363(3)
C2 C 0.3841(3) 0.9846(3) 0.1154(3)
C3 C 0.5431(3) 0.9534(3) 0.1781(3)
C4 C 0.6555(3) 0.9693(3) 0.0653(3)
F1B F 0.40808(18) 1.0877(2) -0.3516(2)
F2B F 0.19252(16) 1.0548(2) -0.1374(2)
O1B O 0.8445(2) 0.9210(2) -0.2294(3)
O2B O 0.7245(2) 1.1520(2) -0.3450(3)
H1B H 0.7992 1.1555 -0.4020
C1B C 0.7410(3) 1.0255(3) -0.2363(3)
C2B C 0.6159(3) 1.0154(3) -0.1154(3)
C3B C 0.4569(3) 1.0466(3) -0.1781(3)
C4B C 0.3445(3) 1.0307(3) -0.0653(3)
O3 O 0.9629(2) 0.3024(3) 0.9914(3)
H2 H 1.0236 0.2362 1.0588
H3 H 0.9345 0.2588 0.8874
loop_
_geom_bond_atom_site_label_1
_geom_bond_atom_site_label_2
_geom_bond_site_symmetry_1
_geom_bond_site_symmetry_2
F1 C3 1_555 1_555
F2 C4 1_555 1_555
O1 C1 1_555 1_555
O2 H1 1_555 1_555
C1 O2 1_555 1_555
C2 C1 1_555 1_555
C3 C2 1_555 1_555
C4 C3 1_555 1_555
O3 H2 1_555 1_555
H3 O3 1_555 1_555
F1B C3B 1_555 1_555
F2B C4B 1_555 1_555
O1B C1B 1_555 1_555
O2B H1B 1_555 1_555
C1B O2B 1_555 1_555
C2B C4 1_555 1_555
C3B C2B 1_555 1_555
C4B C2 1_555 1_555
C1B C2B 1_555 1_555
C3B C4B 1_555 1_555

#END
