
#######################################################################
#
#                 Cambridge Crystallographic Data Centre
#                                CCDC 
#
#######################################################################
#
# If this CIF has been generated from an entry in the Cambridge 
# Structural Database, then it will include bibliographic, chemical, 
# crystal, experimental, refinement or atomic coordinate data resulting 
# from the CCDC's data processing and validation procedures.
#
#######################################################################

data_YABNAT
_chemical_formula_moiety         'C28 H30 O3'
_chemical_name_systematic        
2-(3,5-di-t-butyl-4-hydroxyphenyl)-2-phenyl-1-benzofuran-3(2H)-one
_symmetry_cell_setting           monoclinic
_symmetry_space_group_name_H-M   'P 21/c'
_symmetry_Int_Tables_number      14
_space_group_name_Hall           '-P 2ybc'
loop_
_symmetry_equiv_pos_site_id
_symmetry_equiv_pos_as_xyz
1 x,y,z
2 -x,1/2+y,1/2-z
3 -x,-y,-z
4 x,1/2-y,1/2+z
_cell_length_a                   11.63(3)
_cell_length_b                   18.97(5)
_cell_length_c                   12.18(3)
_cell_angle_alpha                90
_cell_angle_beta                 111.90(3)
_cell_angle_gamma                90
_cell_volume                     2493.25
_exptl_crystal_colour            colorless
_exptl_crystal_description       block
_cell_formula_units_Z            4
loop_
_atom_site_label
_atom_site_type_symbol
_atom_site_fract_x
_atom_site_fract_y
_atom_site_fract_z
C1 C 0.73306(15) -0.00811(8) 0.18009(13)
C2 C 0.7045(2) -0.03449(10) 0.06321(17)
H1 H 0.6233 -0.0430 0.0123
C3 C 0.8054(3) -0.04697(13) 0.0291(2)
H2 H 0.7905 -0.0635 -0.0469
C4 C 0.9291(2) -0.03512(11) 0.1071(2)
H3 H 0.9931 -0.0454 0.0812
C5 C 0.95871(18) -0.00879(8) 0.22079(17)
H4 H 1.0402 -0.0006 0.2712
C6 C 0.85759(14) 0.00483(7) 0.25506(13)
C7 C 0.65335(13) 0.00969(7) 0.24599(13)
C8 C 0.74518(12) 0.03888(7) 0.36908(12)
C9 C 0.74066(12) -0.00947(7) 0.46971(12)
C10 C 0.80450(15) -0.07517(8) 0.49235(14)
H5 H 0.8520 -0.0879 0.4488
C11 C 0.79641(18) -0.12089(9) 0.57975(16)
H6 H 0.8382 -0.1638 0.5939
C12 C 0.72572(18) -0.10189(10) 0.64504(17)
H7 H 0.7203 -0.1321 0.7031
C13 C 0.66212(17) -0.03708(11) 0.62387(16)
H8 H 0.6152 -0.0246 0.6682
C14 C 0.66933(14) 0.00896(9) 0.53578(14)
H9 H 0.6267 0.0516 0.5216
C15 C 0.72595(13) 0.11870(7) 0.38616(12)
C16 C 0.81783(13) 0.15405(7) 0.48217(12)
H10 H 0.8843 0.1283 0.5332
C17 C 0.81141(14) 0.22726(7) 0.50249(13)
C18 C 0.70646(15) 0.26508(7) 0.42085(14)
C19 C 0.61228(14) 0.23184(7) 0.32240(14)
C20 C 0.62478(13) 0.15784(7) 0.30808(13)
H11 H 0.5646 0.1347 0.2456
C21 C 0.91705(15) 0.26515(8) 0.60738(15)
C22 C 0.86355(19) 0.30002(11) 0.69353(18)
H12 H 0.7976 0.3315 0.6502
H13 H 0.9278 0.3260 0.7530
H14 H 0.8322 0.2642 0.7306
C23 C 0.9801(2) 0.32335(12) 0.5580(2)
H15 H 0.9188 0.3568 0.5126
H16 H 1.0179 0.3019 0.5083
H17 H 1.0424 0.3471 0.6226
C24 C 1.02025(19) 0.21243(11) 0.6809(2)
H18 H 1.0822 0.2372 0.7443
H19 H 1.0576 0.1914 0.6306
H20 H 0.9843 0.1762 0.7131
C25 C 0.50033(16) 0.27429(8) 0.22997(16)
C26 C 0.5501(2) 0.33353(11) 0.1691(2)
H21 H 0.5954 0.3123 0.1259
H22 H 0.6038 0.3645 0.2284
H23 H 0.4816 0.3599 0.1156
C27 C 0.41603(19) 0.30715(11) 0.2907(2)
H24 H 0.4629 0.3408 0.3491
H25 H 0.3867 0.2706 0.3282
H26 H 0.3466 0.3303 0.2323
C28 C 0.41523(19) 0.22549(11) 0.12931(18)
H27 H 0.3481 0.2526 0.0756
H28 H 0.3827 0.1885 0.1631
H29 H 0.4626 0.2053 0.0873
O1 O 0.87200(9) 0.03121(5) 0.36484(9)
O2 O 0.53973(10) 0.00313(6) 0.21559(10)
O3 O 0.70013(13) 0.33779(6) 0.44236(13)
H30 H 0.6364 0.3543 0.3934
loop_
_geom_bond_atom_site_label_1
_geom_bond_atom_site_label_2
_geom_bond_site_symmetry_1
_geom_bond_site_symmetry_2
C1 C2 1_555 1_555
C2 H1 1_555 1_555
C3 C2 1_555 1_555
H2 C3 1_555 1_555
C4 C3 1_555 1_555
H3 C4 1_555 1_555
C5 C4 1_555 1_555
H4 C5 1_555 1_555
C6 C1 1_555 1_555
C7 C1 1_555 1_555
C8 C7 1_555 1_555
C9 C8 1_555 1_555
C10 C9 1_555 1_555
H5 C10 1_555 1_555
C11 C10 1_555 1_555
H6 C11 1_555 1_555
C12 C11 1_555 1_555
H7 C12 1_555 1_555
C13 C12 1_555 1_555
H8 C13 1_555 1_555
C14 C9 1_555 1_555
H9 C14 1_555 1_555
C15 C8 1_555 1_555
C16 C15 1_555 1_555
H10 C16 1_555 1_555
C17 C16 1_555 1_555
C18 C17 1_555 1_555
C19 C18 1_555 1_555
C20 C15 1_555 1_555
H11 C20 1_555 1_555
C21 C17 1_555 1_555
C22 C21 1_555 1_555
H12 C22 1_555 1_555
H13 C22 1_555 1_555
H14 C22 1_555 1_555
C23 C21 1_555 1_555
H15 C23 1_555 1_555
H16 C23 1_555 1_555
H17 C23 1_555 1_555
C24 C21 1_555 1_555
H18 C24 1_555 1_555
H19 C24 1_555 1_555
H20 C24 1_555 1_555
C25 C19 1_555 1_555
C26 C25 1_555 1_555
H21 C26 1_555 1_555
H22 C26 1_555 1_555
H23 C26 1_555 1_555
C27 C25 1_555 1_555
H24 C27 1_555 1_555
H25 C27 1_555 1_555
H26 C27 1_555 1_555
C28 C25 1_555 1_555
H27 C28 1_555 1_555
H28 C28 1_555 1_555
H29 C28 1_555 1_555
O1 C6 1_555 1_555
O2 C7 1_555 1_555
O3 C18 1_555 1_555
H30 O3 1_555 1_555
C5 C6 1_555 1_555
C8 O1 1_555 1_555
C13 C14 1_555 1_555
C19 C20 1_555 1_555

#END
