
#######################################################################
#
#                 Cambridge Crystallographic Data Centre
#                                CCDC 
#
#######################################################################
#
# If this CIF has been generated from an entry in the Cambridge 
# Structural Database, then it will include bibliographic, chemical, 
# crystal, experimental, refinement or atomic coordinate data resulting 
# from the CCDC's data processing and validation procedures.
#
#######################################################################

data_YABPUN
_chemical_formula_moiety         'C53 H39 N3 S2,2(H2 O1)'
_chemical_name_systematic        
"4,4'-bis(Propylsulfanyl-6,6''-dipyren-1-yl)-2,2':6',2''-terpyridine dihydrate"
_symmetry_cell_setting           monoclinic
_symmetry_space_group_name_H-M   'P 21'
_symmetry_Int_Tables_number      4
_space_group_name_Hall           'P 2yb'
loop_
_symmetry_equiv_pos_site_id
_symmetry_equiv_pos_as_xyz
1 x,y,z
2 -x,1/2+y,-z
_cell_length_a                   16.5598(7)
_cell_length_b                   7.6555(3)
_cell_length_c                   18.508(1)
_cell_angle_alpha                90
_cell_angle_beta                 108.524(5)
_cell_angle_gamma                90
_cell_volume                     2224.76
_exptl_crystal_colour            yellow
_exptl_crystal_description       prism
_cell_formula_units_Z            2
_exptl_crystal_recrystallization_method acetonitrile/chloroform
loop_
_atom_site_label
_atom_site_type_symbol
_atom_site_fract_x
_atom_site_fract_y
_atom_site_fract_z
C1 C -0.117(1) 0.8038 -0.1127(8)
C2 C -0.161(1) 0.900(2) -0.0688(9)
C3 C -0.244(1) 0.945(2) -0.1013(9)
C4 C -0.294(1) 0.894(2) -0.1781(9)
C5 C -0.381(1) 0.931(3) -0.209(1)
C6 C -0.422(1) 0.880(3) -0.283(1)
C7 C -0.387(1) 0.797(3) -0.326(1)
C8 C -0.297(1) 0.752(3) -0.2978(9)
C9 C -0.252(1) 0.670(3) -0.340(1)
C10 C -0.168(1) 0.634(3) -0.3145(9)
C11 C -0.120(1) 0.682(2) -0.2349(9)
C12 C -0.033(1) 0.647(3) -0.2051(9)
C13 C 0.011(1) 0.684(2) -0.1280(9)
C14 C -0.029(1) 0.755(2) -0.0825(9)
C15 C -0.252(1) 0.804(2) -0.2217(9)
C16 C -0.162(1) 0.765(2) -0.1898(8)
C17 C 0.0179(9) 0.772(2) 0.0011(9)
N1 N 0.0982(7) 0.830(2) 0.0216(7)
C18 C 0.1392(9) 0.831(2) 0.0960(8)
C19 C 0.1084(9) 0.777(2) 0.1516(8)
C20 C 0.026(1) 0.715(2) 0.1306(8)
C21 C -0.0214(9) 0.713(2) 0.0529(8)
S1 S -0.0137(3) 0.6410(7) 0.2034(3)
C22 C -0.125(1) 0.594(3) 0.1539(9)
C23 C -0.180(1) 0.750(3) 0.132(1)
C24 C -0.181(2) 0.859(4) 0.203(1)
C25 C 0.234(1) 0.888(2) 0.1189(8)
N2 N 0.2809(7) 0.851(2) 0.1908(6)
C26 C 0.3636(9) 0.892(2) 0.2125(8)
C27 C 0.400(1) 0.975(3) 0.165(1)
C28 C 0.349(1) 1.017(3) 0.091(1)
C29 C 0.263(1) 0.972(3) 0.067(1)
C30 C 0.4136(9) 0.842(2) 0.2909(8)
N3 N 0.5001(7) 0.843(2) 0.3056(6)
C31 C 0.5493(9) 0.800(2) 0.3766(8)
C32 C 0.5148(9) 0.761(2) 0.4320(8)
C33 C 0.4268(9) 0.763(2) 0.4192(8)
C34 C 0.3757(9) 0.804(2) 0.3458(8)
S2 S 0.3932(3) 0.7135(7) 0.4973(2)
C35 C 0.279(1) 0.728(3) 0.4636(9)
C36 C 0.233(1) 0.571(2) 0.4172(9)
C37 C 0.138(1) 0.589(3) 0.401(1)
C38 C 0.641(1) 0.800(2) 0.3890(8)
C39 C 0.6897(9) 0.657(2) 0.4284(8)
C40 C 0.777(1) 0.646(3) 0.4446(9)
C41 C 0.8220(9) 0.783(2) 0.4255(8)
C42 C 0.914(1) 0.775(2) 0.4392(9)
C43 C 0.955(1) 0.913(3) 0.422(1)
C44 C 0.912(1) 1.067(2) 0.3882(9)
C45 C 0.955(1) 1.214(3) 0.3715(9)
C46 C 0.912(1) 1.366(3) 0.339(1)
C47 C 0.826(1) 1.373(3) 0.323(1)
C48 C 0.779(1) 1.233(2) 0.3382(8)
C49 C 0.686(1) 1.236(3) 0.3198(9)
C50 C 0.6424(9) 1.101(2) 0.3367(8)
C51 C 0.6860(9) 0.945(2) 0.3712(8)
C52 C 0.822(1) 1.080(2) 0.3725(9)
C53 C 0.777(1) 0.935(2) 0.3886(8)
H1 H -0.1312 0.9328 -0.0177
H2 H -0.2709 1.0116 -0.0722
H3 H -0.4108 0.9893 -0.1795
H4 H -0.4811 0.9091 -0.3045
H5 H -0.4204 0.7652 -0.3760
H6 H -0.2831 0.6363 -0.3904
H7 H -0.1411 0.5795 -0.3466
H8 H -0.0030 0.5977 -0.2367
H9 H 0.0705 0.6595 -0.1079
H10 H 0.1424 0.7827 0.2037
H11 H -0.0786 0.6733 0.0361
H12 H -0.1460 0.5243 0.1863
H13 H -0.1282 0.5309 0.1089
H14 H -0.2361 0.7136 0.1051
H15 H -0.1588 0.8215 0.0999
H16 H -0.2165 0.9578 0.1873
H17 H -0.2018 0.7882 0.2357
H18 H -0.1246 0.8962 0.2305
H19 H 0.4591 1.0033 0.1816
H20 H 0.3722 1.0773 0.0575
H21 H 0.2273 0.9970 0.0168
H22 H 0.5517 0.7323 0.4813
H23 H 0.3155 0.8060 0.3334
H24 H 0.2639 0.8285 0.4323
H25 H 0.2601 0.7399 0.5066
H26 H 0.2524 0.4664 0.4452
H27 H 0.2450 0.5657 0.3703
H28 H 0.1095 0.4908 0.3725
H29 H 0.1256 0.5933 0.4481
H30 H 0.1182 0.6926 0.3732
H31 H 0.6610 0.5647 0.4444
H32 H 0.8063 0.5445 0.4688
H33 H 0.9450 0.6730 0.4604
H34 H 1.0152 0.9067 0.4321
H35 H 1.0146 1.2094 0.3826
H36 H 0.9424 1.4631 0.3288
H37 H 0.7964 1.4765 0.3010
H38 H 0.6553 1.3358 0.2953
H39 H 0.5825 1.1089 0.3255
O1 O 0.589(2) 0.640(5) 0.177(1)
O2 O 0.556(3) 0.276(7) 0.115(2)
O3 O 0.673(2) 0.357(5) 0.113(2)
loop_
_geom_bond_atom_site_label_1
_geom_bond_atom_site_label_2
_geom_bond_site_symmetry_1
_geom_bond_site_symmetry_2
C1 C2 1_555 1_555
C2 C3 1_555 1_555
C3 C4 1_555 1_555
C4 C5 1_555 1_555
C5 C6 1_555 1_555
C6 C7 1_555 1_555
C7 C8 1_555 1_555
C8 C9 1_555 1_555
C9 C10 1_555 1_555
C10 C11 1_555 1_555
C11 C12 1_555 1_555
C12 C13 1_555 1_555
C13 C14 1_555 1_555
C14 C1 1_555 1_555
C15 C4 1_555 1_555
C16 C1 1_555 1_555
C17 C14 1_555 1_555
N1 C17 1_555 1_555
C18 N1 1_555 1_555
C19 C18 1_555 1_555
C20 C19 1_555 1_555
C21 C17 1_555 1_555
S1 C20 1_555 1_555
C22 S1 1_555 1_555
C23 C22 1_555 1_555
C24 C23 1_555 1_555
C25 C18 1_555 1_555
N2 C25 1_555 1_555
C26 N2 1_555 1_555
C27 C26 1_555 1_555
C28 C27 1_555 1_555
C29 C25 1_555 1_555
C30 C26 1_555 1_555
N3 C30 1_555 1_555
C31 N3 1_555 1_555
C32 C31 1_555 1_555
C33 C32 1_555 1_555
C34 C30 1_555 1_555
S2 C33 1_555 1_555
C35 S2 1_555 1_555
C36 C35 1_555 1_555
C37 C36 1_555 1_555
C38 C31 1_555 1_555
C39 C38 1_555 1_555
C40 C39 1_555 1_555
C41 C40 1_555 1_555
C42 C41 1_555 1_555
C43 C42 1_555 1_555
C44 C43 1_555 1_555
C45 C44 1_555 1_555
C46 C45 1_555 1_555
C47 C46 1_555 1_555
C48 C47 1_555 1_555
C49 C48 1_555 1_555
C50 C49 1_555 1_555
C51 C38 1_555 1_555
C52 C44 1_555 1_555
C53 C41 1_555 1_555
H1 C2 1_555 1_555
H2 C3 1_555 1_555
H3 C5 1_555 1_555
H4 C6 1_555 1_555
H5 C7 1_555 1_555
H6 C9 1_555 1_555
H7 C10 1_555 1_555
H8 C12 1_555 1_555
H9 C13 1_555 1_555
H10 C19 1_555 1_555
H11 C21 1_555 1_555
H12 C22 1_555 1_555
H13 C22 1_555 1_555
H14 C23 1_555 1_555
H15 C23 1_555 1_555
H16 C24 1_555 1_555
H17 C24 1_555 1_555
H18 C24 1_555 1_555
H19 C27 1_555 1_555
H20 C28 1_555 1_555
H21 C29 1_555 1_555
H22 C32 1_555 1_555
H23 C34 1_555 1_555
H24 C35 1_555 1_555
H25 C35 1_555 1_555
H26 C36 1_555 1_555
H27 C36 1_555 1_555
H28 C37 1_555 1_555
H29 C37 1_555 1_555
H30 C37 1_555 1_555
H31 C39 1_555 1_555
H32 C40 1_555 1_555
H33 C42 1_555 1_555
H34 C43 1_555 1_555
H35 C45 1_555 1_555
H36 C46 1_555 1_555
H37 C47 1_555 1_555
H38 C49 1_555 1_555
H39 C50 1_555 1_555
C8 C15 1_555 1_555
C11 C16 1_555 1_555
C15 C16 1_555 1_555
C20 C21 1_555 1_555
C28 C29 1_555 1_555
C33 C34 1_555 1_555
C48 C52 1_555 1_555
C50 C51 1_555 1_555
C51 C53 1_555 1_555
C52 C53 1_555 1_555

#END
