
#######################################################################
#
#                 Cambridge Crystallographic Data Centre
#                                CCDC 
#
#######################################################################
#
# If this CIF has been generated from an entry in the Cambridge 
# Structural Database, then it will include bibliographic, chemical, 
# crystal, experimental, refinement or atomic coordinate data resulting 
# from the CCDC's data processing and validation procedures.
#
#######################################################################

data_YABPIA
_chemical_formula_moiety         'C15 H15 N5,2(C2 H6 O1 S1)'
_chemical_name_systematic        
'5-(1-Naphthylmethyl)pyrimidine-2,4,6-triamine dimethylsulfoxide solvate'
_symmetry_cell_setting           monoclinic
_symmetry_space_group_name_H-M   'C 2/c'
_symmetry_Int_Tables_number      15
_space_group_name_Hall           '-C 2yn'
loop_
_symmetry_equiv_pos_site_id
_symmetry_equiv_pos_as_xyz
1 x,y,z
2 1/2+x,1/2+y,z
3 -x,y,1/2-z
4 1/2-x,1/2+y,1/2-z
5 -x,-y,-z
6 1/2-x,1/2-y,-z
7 x,-y,1/2+z
8 1/2+x,1/2-y,1/2+z
_cell_length_a                   21.480(6)
_cell_length_b                   12.495(3)
_cell_length_c                   20.486(6)
_cell_angle_alpha                90
_cell_angle_beta                 128.18(2)
_cell_angle_gamma                90
_cell_volume                     4322.06
_exptl_crystal_colour            colorless
_chemical_melting_point          276-277deg.C(dec.)
_cell_formula_units_Z            8
loop_
_atom_site_label
_atom_site_type_symbol
_atom_site_fract_x
_atom_site_fract_y
_atom_site_fract_z
S1 S 0.83036(7) 0.0426(1) 0.72553(8)
O1 O 0.7764(2) 0.0256(3) 0.6333(2)
C16 C 0.8984(4) -0.0672(6) 0.7697(4)
C17 C 0.8977(3) 0.1428(6) 0.7440(4)
H10 H 0.8714 -0.1306 0.7651
H11 H 0.9195 -0.0764 0.7408
H12 H 0.9401 -0.0529 0.8265
H13 H 0.8709 0.2095 0.7237
H14 H 0.9395 0.1481 0.8019
H15 H 0.9188 0.1246 0.7162
S2 S 0.3975(2) 0.8249(3) 0.6162(2)
O2 O 0.4337(2) 0.7400(3) 0.5978(2)
C18 C 0.3802(6) 0.9367(7) 0.5651(5)
H16 H 0.3357 0.9272 0.5084
H17 H 0.3694 0.9925 0.5884
H18 H 0.4252 0.9549 0.5689
N1 N 0.5693(2) 0.4314(4) -0.0184(2)
N2 N 0.6636(2) 0.3349(4) -0.0207(2)
N3 N 0.6275(2) 0.5086(4) -0.0711(2)
N4 N 0.7053(2) 0.1649(4) 0.0351(2)
N5 N 0.5060(2) 0.3559(4) 0.0303(3)
C1 C 0.6202(2) 0.4212(5) -0.0356(3)
C2 C 0.5605(3) 0.3445(4) 0.0158(3)
C3 C 0.6565(3) 0.2500(5) 0.0162(3)
C4 C 0.6027(2) 0.2502(4) 0.0336(3)
C5 C 0.5926(3) 0.1516(5) 0.0678(3)
C6 C 0.6510(3) 0.1361(5) 0.1614(3)
C7 C 0.7109(3) 0.2064(5) 0.2123(3)
C8 C 0.7654(3) 0.1925(6) 0.2978(3)
C9 C 0.7592(3) 0.1075(6) 0.3342(3)
C10 C 0.6979(3) 0.0297(5) 0.2857(3)
C11 C 0.6447(3) 0.0444(5) 0.1987(3)
C12 C 0.5858(3) -0.0346(5) 0.1512(3)
C13 C 0.5773(4) -0.1198(6) 0.1871(4)
C14 C 0.6295(3) -0.1314(6) 0.2744(4)
C15 C 0.6887(3) -0.0602(5) 0.3217(3)
H1 H 0.5971 0.0915 0.0425
H2 H 0.5408 0.1535 0.0525
H3 H 0.7157 0.2677 0.1882
H4 H 0.8070 0.2427 0.3306
H5 H 0.7959 0.0992 0.3928
H6 H 0.5508 -0.0282 0.0924
H7 H 0.5366 -0.1708 0.1535
H8 H 0.6230 -0.1891 0.2998
H9 H 0.7248 -0.0703 0.3801
C19? C 0.4812(7) 0.881(1) 0.7135(6)
S3? S 0.3726(2) 0.8149(4) 0.5318(2)
C20? C 0.2827(8) 0.772(2) 0.509(1)
H19? H 0.5030 0.8279 0.7557
H20? H 0.5201 0.9028 0.7081
H21? H 0.4643 0.9404 0.7276
H22? H 0.2716 0.7007 0.4889
H23? H 0.2871 0.7748 0.5583
H24? H 0.2408 0.8177 0.4683
loop_
_geom_bond_atom_site_label_1
_geom_bond_atom_site_label_2
_geom_bond_site_symmetry_1
_geom_bond_site_symmetry_2
N1 C1 1_555 1_555
N2 C1 1_555 1_555
N3 C1 1_555 1_555
N4 C3 1_555 1_555
N5 C2 1_555 1_555
C2 N1 1_555 1_555
C3 N2 1_555 1_555
C4 C2 1_555 1_555
C5 C4 1_555 1_555
C6 C5 1_555 1_555
C7 C6 1_555 1_555
C8 C7 1_555 1_555
C9 C8 1_555 1_555
C10 C9 1_555 1_555
C11 C6 1_555 1_555
C12 C11 1_555 1_555
C13 C12 1_555 1_555
C14 C13 1_555 1_555
C15 C10 1_555 1_555
S1 O1 1_555 1_555
C16 S1 1_555 1_555
C17 S1 1_555 1_555
S2 O2 1_555 1_555
C18 S2 1_555 1_555
H1 C5 1_555 1_555
H2 C5 1_555 1_555
H3 C7 1_555 1_555
H4 C8 1_555 1_555
H5 C9 1_555 1_555
H6 C12 1_555 1_555
H7 C13 1_555 1_555
H8 C14 1_555 1_555
H9 C15 1_555 1_555
H10 C16 1_555 1_555
H11 C16 1_555 1_555
H12 C16 1_555 1_555
H13 C17 1_555 1_555
H14 C17 1_555 1_555
H15 C17 1_555 1_555
H16 C18 1_555 1_555
H17 C18 1_555 1_555
H18 C18 1_555 1_555
C3 C4 1_555 1_555
C10 C11 1_555 1_555
C14 C15 1_555 1_555

#END
