
#######################################################################
#
#                 Cambridge Crystallographic Data Centre
#                                CCDC 
#
#######################################################################
#
# If this CIF has been generated from an entry in the Cambridge 
# Structural Database, then it will include bibliographic, chemical, 
# crystal, experimental, refinement or atomic coordinate data resulting 
# from the CCDC's data processing and validation procedures.
#
#######################################################################

data_YABPOG
_chemical_formula_moiety         'C12 H22 N4 O1,2(C3 H7 N1 O1)'
_chemical_name_systematic        
'4,6-Diamino-5-octylpyrimidin-2(1H)-one dimethylformamide solvate'
_symmetry_cell_setting           triclinic
_symmetry_space_group_name_H-M   'P -1'
_symmetry_Int_Tables_number      2
_space_group_name_Hall           '-P 1'
loop_
_symmetry_equiv_pos_site_id
_symmetry_equiv_pos_as_xyz
1 x,y,z
2 -x,-y,-z
_cell_length_a                   10.089(3)
_cell_length_b                   11.892(3)
_cell_length_c                   9.682(3)
_cell_angle_alpha                95.22(2)
_cell_angle_beta                 101.38(2)
_cell_angle_gamma                102.76(2)
_cell_volume                     1099.62
_exptl_crystal_colour            colorless
_chemical_melting_point          323-325deg.C(dec.)
_cell_formula_units_Z            2
loop_
_atom_site_label
_atom_site_type_symbol
_atom_site_fract_x
_atom_site_fract_y
_atom_site_fract_z
O1 O -0.1135(1) -0.0638(1) 0.7165(1)
N1 N 0.0703(2) 0.0440(1) 0.6477(2)
N2 N 0.0717(2) 0.0367(1) 0.8896(2)
N3 N 0.2525(2) 0.1546(2) 0.5727(2)
N4 N 0.2599(2) 0.1336(2) 1.0670(2)
C1 C 0.0065(2) 0.0038(2) 0.7506(2)
C2 C 0.2003(2) 0.1176(2) 0.6834(2)
C3 C 0.2719(2) 0.1510(2) 0.8243(2)
C4 C 0.2029(2) 0.1072(2) 0.9261(2)
C5 C 0.4167(2) 0.2293(2) 0.8649(2)
C6 C 0.5331(2) 0.1652(2) 0.8778(2)
C7 C 0.6763(2) 0.2480(2) 0.9184(2)
C8 C 0.7958(2) 0.1884(2) 0.9513(2)
C9 C 0.9383(2) 0.2722(2) 0.9884(3)
C10 C 0.9849(2) 0.3221(2) 0.8629(3)
C11 C 1.1272(2) 0.4061(2) 0.8980(3)
C12 C 1.1708(3) 0.4512(3) 0.7702(4)
H1 H 0.4268 0.2746 0.9540
H2 H 0.4268 0.2792 0.7944
H3 H 0.5239 0.1197 0.7889
H4 H 0.5242 0.1154 0.9486
H5 H 0.6802 0.3000 1.0004
H6 H 0.6887 0.2907 0.8416
H7 H 0.7908 0.1350 0.8701
H8 H 0.7848 0.1472 1.0295
H9 H 1.0043 0.2320 1.0299
H10 H 0.9364 0.3348 1.0555
H11 H 0.9186 0.3618 0.8213
H12 H 0.9866 0.2591 0.7959
H13 H 1.1937 0.3673 0.9414
H14 H 1.1253 0.4704 0.9628
H15 H 1.2605 0.5033 0.7987
H16 H 1.1740 0.3878 0.7046
H17 H 1.1055 0.4909 0.7260
O2 O 0.5563(2) 0.2230(2) 1.2166(2)
N5 N 0.6956(2) 0.1755(2) 1.4047(2)
C13 C 0.5728(3) 0.1762(2) 1.3226(3)
C14 C 0.8237(3) 0.2340(3) 1.3712(3)
C15 C 0.7031(4) 0.1255(3) 1.5362(3)
H18 H 0.4913 0.1365 1.3496
H19 H 0.8036 0.2623 1.2827
H20 H 0.8711 0.2973 1.4437
H21 H 0.8808 0.1809 1.3648
H22 H 0.6115 0.0898 1.5447
H23 H 0.7560 0.0687 1.5355
H24 H 0.7463 0.1851 1.6144
O3 O 1.4897(2) 0.6675(1) 1.4377(2)
N6 N 1.3445(2) 0.4912(2) 1.3475(2)
C16 C 1.3883(3) 0.5901(2) 1.4353(3)
C17 C 1.2235(4) 0.4033(3) 1.3533(4)
C18 C 1.4246(4) 0.4667(3) 1.2432(3)
H25 H 1.3348 0.6017 1.5034
H26 H 1.1810 0.4298 1.4249
H27 H 1.1591 0.3877 1.2638
H28 H 1.2503 0.3340 1.3749
H29 H 1.5014 0.5314 1.2502
H30 H 1.4579 0.3995 1.2613
H31 H 1.3666 0.4532 1.1502
loop_
_geom_bond_atom_site_label_1
_geom_bond_atom_site_label_2
_geom_bond_site_symmetry_1
_geom_bond_site_symmetry_2
O1 C1 1_555 1_555
O2 C13 1_555 1_555
O3 C16 1_555 1_555
N1 C1 1_555 1_555
N2 C1 1_555 1_555
N3 C2 1_555 1_555
N4 C4 1_555 1_555
N5 C13 1_555 1_555
N6 C16 1_555 1_555
C2 N1 1_555 1_555
C3 C2 1_555 1_555
C4 N2 1_555 1_555
C5 C3 1_555 1_555
C6 C5 1_555 1_555
C7 C6 1_555 1_555
C8 C7 1_555 1_555
C9 C8 1_555 1_555
C10 C9 1_555 1_555
C11 C10 1_555 1_555
C12 C11 1_555 1_555
C13 H18 1_555 1_555
C14 N5 1_555 1_555
C15 N5 1_555 1_555
C16 H25 1_555 1_555
C17 N6 1_555 1_555
C18 N6 1_555 1_555
H1 C5 1_555 1_555
H2 C5 1_555 1_555
H3 C6 1_555 1_555
H4 C6 1_555 1_555
H5 C7 1_555 1_555
H6 C7 1_555 1_555
H7 C8 1_555 1_555
H8 C8 1_555 1_555
H9 C9 1_555 1_555
H10 C9 1_555 1_555
H11 C10 1_555 1_555
H12 C10 1_555 1_555
H13 C11 1_555 1_555
H14 C11 1_555 1_555
H15 C12 1_555 1_555
H16 C12 1_555 1_555
H17 C12 1_555 1_555
H19 C14 1_555 1_555
H20 C14 1_555 1_555
H21 C14 1_555 1_555
H22 C15 1_555 1_555
H23 C15 1_555 1_555
H24 C15 1_555 1_555
H26 C17 1_555 1_555
H27 C17 1_555 1_555
H28 C17 1_555 1_555
H29 C18 1_555 1_555
H30 C18 1_555 1_555
H31 C18 1_555 1_555
C3 C4 1_555 1_555

#END
