
#######################################################################
#
#                 Cambridge Crystallographic Data Centre
#                                CCDC 
#
#######################################################################
#
# If this CIF has been generated from an entry in the Cambridge 
# Structural Database, then it will include bibliographic, chemical, 
# crystal, experimental, refinement or atomic coordinate data resulting 
# from the CCDC's data processing and validation procedures.
#
#######################################################################

data_YABPIB
_chemical_compound_source        'seeds of Brucea javanica'
_chemical_formula_moiety         'C20 H28 O9,H2 O1'
_chemical_name_systematic        'Yadanziolide S monohydrate'
_chemical_properties_biological  
'inactive against human promyelocytic leukemia cell differentiation(HL-60),cyclo-oygenase-1, cyclo-oxygenase-2 and some activity against 7,12-dimethylbenz(a)anthracene-induced lesions in a mouse mammary gland culture'
_symmetry_cell_setting           monoclinic
_symmetry_space_group_name_H-M   'P 21'
_symmetry_Int_Tables_number      4
_space_group_name_Hall           'P 2yb'
loop_
_symmetry_equiv_pos_site_id
_symmetry_equiv_pos_as_xyz
1 x,y,z
2 -x,1/2+y,-z
_cell_length_a                   6.5722(4)
_cell_length_b                   13.0443(7)
_cell_length_c                   11.4558(7)
_cell_angle_alpha                90
_cell_angle_beta                 102.305(2)
_cell_angle_gamma                90
_cell_volume                     959.541
_exptl_crystal_colour            colorless
_exptl_crystal_description       plate
_chemical_melting_point          221-222deg.C
_cell_formula_units_Z            2
_exptl_crystal_recrystallization_method chloroform/methanol(1:1)
loop_
_atom_site_label
_atom_site_type_symbol
_atom_site_fract_x
_atom_site_fract_y
_atom_site_fract_z
C1 C 0.7783(7) -0.0840(3) 0.3755(3)
H1 H 0.7385 -0.1551 0.3870
H2 H 0.9124 -0.0830 0.3510
H3 H 0.6718 -0.0518 0.3135
C2 C 0.7973(4) -0.0261(2) 0.4904(2)
C3 C 0.8519(4) 0.0728(2) 0.4974(2)
H7 H 0.8911 0.1048 0.4310
C4 C 0.8525(4) 0.1321(2) 0.6041(2)
O1 O 0.8634(4) 0.22578(16) 0.60757(18)
C5 C 0.8306(4) 0.07396(18) 0.7165(2)
H8 H 0.9673 0.0405 0.7505
O2 O 0.7910(3) 0.14707(13) 0.80123(15)
H9 H 0.7957 0.2065 0.7736
C6 C 0.6631(3) -0.01201(18) 0.68598(19)
C7 C 0.4533(4) 0.03702(19) 0.6263(2)
H10 H 0.4110 0.0859 0.6817
H11 H 0.3472 -0.0166 0.6059
H12 H 0.4682 0.0730 0.5535
C8 C 0.7541(4) -0.08334(18) 0.5988(2)
H13 H 0.8936 -0.1057 0.6451
C9 C 0.6285(4) -0.18184(19) 0.5687(2)
H14 H 0.4828 -0.1645 0.5307
H15 H 0.6876 -0.2227 0.5111
C10 C 0.6318(4) -0.24498(18) 0.6804(2)
H16 H 0.5394 -0.3058 0.6574
C11 C 0.5540(3) -0.18662(17) 0.77889(19)
C12 C 0.3147(3) -0.18577(19) 0.7293(2)
H17 H 0.2849 -0.1598 0.6471
H18 H 0.2482 -0.1413 0.7792
H19 H 0.2602 -0.2556 0.7303
C13 C 0.6557(3) -0.07755(17) 0.80037(19)
H20 H 0.8055 -0.0925 0.8353
C14 C 0.5812(4) -0.02000(18) 0.9017(2)
H21 H 0.6539 0.0477 0.9137
O3 O 0.3606(3) -0.00176(14) 0.87544(16)
H22 H 0.3327 0.0445 0.9206
C15 C 0.6412(4) -0.08106(19) 1.0177(2)
H23 H 0.5828 -0.0446 1.0800
O4 O 0.8624(3) -0.08258(15) 1.05631(15)
H24 H 0.9048 -0.0239 1.0802
C16 C 0.5585(4) -0.19190(18) 1.0093(2)
O5 O 0.3339(3) -0.18777(15) 0.98860(17)
H25 H 0.2918 -0.1317 0.9562
C17 C 0.6289(5) -0.2439(2) 1.1300(2)
H26 H 0.5701 -0.2075 1.1900
H27 H 0.7813 -0.2424 1.1531
H28 H 0.5808 -0.3151 1.1245
C18 C 0.6104(3) -0.25208(17) 0.89967(19)
O6 O 0.4997(2) -0.34655(12) 0.88497(15)
H29 H 0.3733 -0.3356 0.8838
C19 C 0.8397(4) -0.28644(18) 0.9260(2)
H30 H 0.9275 -0.2266 0.9602
O7 O 0.8744(3) -0.36640(14) 1.01191(14)
H31 H 0.9658 -0.3481 1.0712
C20 C 0.9191(3) -0.32544(18) 0.8187(2)
O8 O 1.0594(3) -0.38692(13) 0.82771(15)
O9 O 0.8474(3) -0.28152(13) 0.71261(14)
O10 O 0.7731(7) 0.3614(4) 0.7895(4)
H4? H 0.8099 -0.0382 0.3140
H5? H 0.6361 -0.1102 0.3500
H6? H 0.8766 -0.1415 0.3875
O11? O 0.717(3) 0.4455(15) 0.7108(17)
loop_
_geom_bond_atom_site_label_1
_geom_bond_atom_site_label_2
_geom_bond_site_symmetry_1
_geom_bond_site_symmetry_2
C1 H1 1_555 1_555
H2 C1 1_555 1_555
H3 C1 1_555 1_555
C2 C1 1_555 1_555
C3 C2 1_555 1_555
H7 C3 1_555 1_555
C4 C3 1_555 1_555
O1 C4 1_555 1_555
C5 C4 1_555 1_555
H8 C5 1_555 1_555
O2 C5 1_555 1_555
H9 O2 1_555 1_555
C6 C5 1_555 1_555
C7 C6 1_555 1_555
H10 C7 1_555 1_555
H11 C7 1_555 1_555
H12 C7 1_555 1_555
C8 C2 1_555 1_555
H13 C8 1_555 1_555
C9 C8 1_555 1_555
H14 C9 1_555 1_555
H15 C9 1_555 1_555
C10 C9 1_555 1_555
H16 C10 1_555 1_555
C11 C10 1_555 1_555
C12 C11 1_555 1_555
H17 C12 1_555 1_555
H18 C12 1_555 1_555
H19 C12 1_555 1_555
C13 C6 1_555 1_555
H20 C13 1_555 1_555
C14 C13 1_555 1_555
H21 C14 1_555 1_555
O3 C14 1_555 1_555
H22 O3 1_555 1_555
C15 C14 1_555 1_555
H23 C15 1_555 1_555
O4 C15 1_555 1_555
H24 O4 1_555 1_555
C16 C15 1_555 1_555
O5 C16 1_555 1_555
H25 O5 1_555 1_555
C17 C16 1_555 1_555
H26 C17 1_555 1_555
H27 C17 1_555 1_555
H28 C17 1_555 1_555
C18 C11 1_555 1_555
O6 C18 1_555 1_555
H29 O6 1_555 1_555
C19 C18 1_555 1_555
H30 C19 1_555 1_555
O7 C19 1_555 1_555
H31 O7 1_555 1_555
C20 C19 1_555 1_555
O8 C20 1_555 1_555
O9 C10 1_555 1_555
C6 C8 1_555 1_555
C11 C13 1_555 1_555
C16 C18 1_555 1_555
C20 O9 1_555 1_555

#END
