
#######################################################################
#
#                 Cambridge Crystallographic Data Centre
#                                CCDC 
#
#######################################################################
#
# If this CIF has been generated from an entry in the Cambridge 
# Structural Database, then it will include bibliographic, chemical, 
# crystal, experimental, refinement or atomic coordinate data resulting 
# from the CCDC's data processing and validation procedures.
#
#######################################################################

data_YACBUB
_chemical_formula_moiety         'C13 H18 B1 N1 O3'
_chemical_name_systematic        
(2-(bis(2-oxyethyl)aminomethyl)-4,6-dimethylphenolato)-boron
_symmetry_cell_setting           monoclinic
_symmetry_space_group_name_H-M   'C c'
_symmetry_Int_Tables_number      9
_space_group_name_Hall           'C -2yc'
loop_
_symmetry_equiv_pos_site_id
_symmetry_equiv_pos_as_xyz
1 x,y,z
2 x,-y,1/2+z
3 1/2+x,1/2+y,z
4 1/2+x,1/2-y,1/2+z
_cell_length_a                   8.4477(6)
_cell_length_b                   17.9412(14)
_cell_length_c                   8.7376(7)
_cell_angle_alpha                90
_cell_angle_beta                 98.845(4)
_cell_angle_gamma                90
_cell_volume                     1308.54
_exptl_crystal_description       block
_cell_formula_units_Z            4
loop_
_atom_site_label
_atom_site_type_symbol
_atom_site_fract_x
_atom_site_fract_y
_atom_site_fract_z
B1 B 0.34670(19) 0.28540(9) 0.61657(16)
N1 N 0.46668(15) 0.27765(7) 0.78838(12)
O1 O 0.36300(13) 0.35835(6) 0.54935(11)
O2 O 0.18981(14) 0.27462(7) 0.65717(13)
O3 O 0.40331(13) 0.22636(6) 0.52829(11)
C1 C 0.51669(18) 0.38288(7) 0.55120(15)
C2 C 0.62598(18) 0.37646(7) 0.68819(14)
C3 C 0.7827(2) 0.40009(8) 0.69294(18)
H1 H 0.8558 0.3936 0.7830
C4 C 0.8324(2) 0.43356(8) 0.5638(2)
C5 C 0.7199(2) 0.44153(8) 0.4309(2)
H2 H 0.7514 0.4647 0.3452
C6 C 0.5619(2) 0.41642(8) 0.41971(17)
C7 C 0.5622(2) 0.34719(8) 0.82839(15)
H3 H 0.6508 0.3366 0.9101
H4 H 0.4951 0.3847 0.8661
C8 C 0.4433(3) 0.42397(14) 0.2726(2)
H5 H 0.4883 0.4547 0.2003
H6 H 0.3466 0.4465 0.2957
H7 H 0.4195 0.3755 0.2282
C9 C 1.0036(3) 0.45937(11) 0.5693(3)
H8 H 1.0355 0.4880 0.6617
H9 H 1.0115 0.4897 0.4803
H10 H 1.0725 0.4168 0.5693
C10 C 0.1932(3) 0.29350(13) 0.8155(2)
H11 H 0.1034 0.2712 0.8555
H12 H 0.1888 0.3471 0.8282
C11 C 0.3498(2) 0.26277(11) 0.89827(17)
H13 H 0.3821 0.2881 0.9962
H14 H 0.3414 0.2098 0.9174
C12 C 0.4726(2) 0.17042(9) 0.63226(19)
H15 H 0.5410 0.1379 0.5824
H16 H 0.3902 0.1406 0.6687
C13 C 0.5703(2) 0.21266(9) 0.76613(17)
H17 H 0.5896 0.1821 0.8587
H18 H 0.6723 0.2287 0.7396
loop_
_geom_bond_atom_site_label_1
_geom_bond_atom_site_label_2
_geom_bond_site_symmetry_1
_geom_bond_site_symmetry_2
B1 N1 1_555 1_555
N1 C7 1_555 1_555
O1 B1 1_555 1_555
O2 B1 1_555 1_555
O3 B1 1_555 1_555
C1 O1 1_555 1_555
C2 C1 1_555 1_555
C3 C2 1_555 1_555
H1 C3 1_555 1_555
C4 C3 1_555 1_555
C5 C4 1_555 1_555
H2 C5 1_555 1_555
C6 C1 1_555 1_555
C7 C2 1_555 1_555
H3 C7 1_555 1_555
H4 C7 1_555 1_555
C8 C6 1_555 1_555
H5 C8 1_555 1_555
H6 C8 1_555 1_555
H7 C8 1_555 1_555
C9 C4 1_555 1_555
H8 C9 1_555 1_555
H9 C9 1_555 1_555
H10 C9 1_555 1_555
C10 O2 1_555 1_555
H11 C10 1_555 1_555
H12 C10 1_555 1_555
C11 N1 1_555 1_555
H13 C11 1_555 1_555
H14 C11 1_555 1_555
C12 O3 1_555 1_555
H15 C12 1_555 1_555
H16 C12 1_555 1_555
C13 N1 1_555 1_555
H17 C13 1_555 1_555
H18 C13 1_555 1_555
C5 C6 1_555 1_555
C10 C11 1_555 1_555
C12 C13 1_555 1_555

#END
