
#######################################################################
#
#                 Cambridge Crystallographic Data Centre
#                                CCDC 
#
#######################################################################
#
# If this CIF has been generated from an entry in the Cambridge 
# Structural Database, then it will include bibliographic, chemical, 
# crystal, experimental, refinement or atomic coordinate data resulting 
# from the CCDC's data processing and validation procedures.
#
#######################################################################

data_YACCAI
_chemical_formula_moiety         'C27 H30 B1 N1 O3,C4 H8 O1'
_chemical_name_systematic        
"(2,2',2''-(nitrilotris(methylene))-tris(4,6-dimethylphenolato))-boron tetrahydrofuran solvate"
_symmetry_cell_setting           monoclinic
_symmetry_space_group_name_H-M   'P 21/n'
_symmetry_Int_Tables_number      14
_space_group_name_Hall           '-P 2yn'
loop_
_symmetry_equiv_pos_site_id
_symmetry_equiv_pos_as_xyz
1 x,y,z
2 1/2-x,1/2+y,1/2-z
3 -x,-y,-z
4 1/2+x,1/2-y,1/2+z
_cell_length_a                   10.4382(3)
_cell_length_b                   13.3390(4)
_cell_length_c                   19.3523(5)
_cell_angle_alpha                90
_cell_angle_beta                 90.3610(10)
_cell_angle_gamma                90
_cell_volume                     2694.47
_exptl_crystal_colour            colorless
_exptl_crystal_description       block
_cell_formula_units_Z            4
loop_
_atom_site_label
_atom_site_type_symbol
_atom_site_fract_x
_atom_site_fract_y
_atom_site_fract_z
B1 B 0.15572(15) 0.59371(11) 0.21089(7)
N1 N 0.12013(11) 0.71255(9) 0.20482(5)
O1 O 0.04956(9) 0.53679(7) 0.18362(5)
O2 O 0.17640(9) 0.57055(7) 0.28330(5)
O3 O 0.27091(9) 0.57669(7) 0.17153(5)
C1 C -0.01113(13) 0.56687(11) 0.12408(7)
C2 C 0.00463(13) 0.66341(10) 0.09737(7)
C3 C -0.06419(14) 0.69152(11) 0.03812(7)
H1 H -0.0553 0.7563 0.0211
C4 C -0.14546(14) 0.62487(12) 0.00420(7)
C5 C -0.15836(14) 0.52904(12) 0.03197(8)
H2 H -0.2118 0.4835 0.0096
C6 C -0.09481(13) 0.49880(11) 0.09167(7)
C7 C 0.09552(13) 0.73700(10) 0.13015(6)
H3 H 0.1760 0.7362 0.1053
H4 H 0.0598 0.8040 0.1266
C8 C -0.11250(16) 0.39590(12) 0.12194(9)
H5 H -0.1587 0.4010 0.1645
H6 H -0.0302 0.3661 0.1306
H7 H -0.1599 0.3549 0.0900
C9 C -0.21865(17) 0.65531(14) -0.06011(9)
H8 H -0.3079 0.6620 -0.0494
H9 H -0.2081 0.6050 -0.0951
H10 H -0.1864 0.7182 -0.0767
C10 C 0.10043(13) 0.61207(10) 0.33303(6)
C11 C 0.01735(13) 0.69175(10) 0.31866(6)
C12 C -0.05147(13) 0.73563(11) 0.37257(7)
H11 H -0.1063 0.7888 0.3629
C13 C -0.03999(14) 0.70181(11) 0.44008(7)
C14 C 0.04268(14) 0.62163(11) 0.45286(7)
H12 H 0.0510 0.5978 0.4978
C15 C 0.11337(13) 0.57582(11) 0.40073(7)
C16 C 0.00230(13) 0.73203(11) 0.24632(6)
H13 H -0.0708 0.7004 0.2241
H14 H -0.0137 0.8036 0.2482
C17 C 0.20364(15) 0.49040(12) 0.41577(7)
H15 H 0.2017 0.4750 0.4642
H16 H 0.2890 0.5092 0.4030
H17 H 0.1778 0.4325 0.3897
C18 C -0.11178(17) 0.75265(13) 0.49785(8)
H18 H -0.1011 0.8239 0.4943
H19 H -0.0787 0.7300 0.5415
H20 H -0.2012 0.7363 0.4944
C19 C 0.36977(13) 0.64401(10) 0.17448(7)
C20 C 0.35477(13) 0.74054(10) 0.20127(7)
C21 C 0.45800(14) 0.80700(11) 0.20076(7)
H21 H 0.4476 0.8713 0.2185
C22 C 0.57627(15) 0.77888(13) 0.17415(9)
C23 C 0.58866(15) 0.68209(13) 0.14735(8)
H22 H 0.6673 0.6624 0.1295
C24 C 0.48783(14) 0.61422(12) 0.14639(7)
C25 C 0.22947(13) 0.77409(10) 0.23172(7)
H23 H 0.2337 0.7682 0.2816
H24 H 0.2150 0.8440 0.2204
C26 C 0.50137(16) 0.51128(13) 0.11553(9)
H25 H 0.4523 0.5075 0.0735
H26 H 0.4706 0.4622 0.1476
H27 H 0.5899 0.4985 0.1058
C27 C 0.68712(18) 0.85103(17) 0.17408(13)
H28 H 0.7318 0.8471 0.2175
H29 H 0.6557 0.9180 0.1673
H30 H 0.7446 0.8340 0.1374
O4 O 0.54047(13) 0.45768(10) 0.36149(8)
C28 C 0.6009(3) 0.50708(19) 0.41773(11)
H31 H 0.5489 0.5004 0.4589
H32 H 0.6837 0.4768 0.4269
C29 C 0.6166(5) 0.6088(2) 0.40158(17)
H33 H 0.7068 0.6246 0.3966
H34 H 0.5817 0.6504 0.4380
C30 C 0.5481(4) 0.62722(19) 0.33640(15)
H35 H 0.5986 0.6691 0.3060
H36 H 0.4666 0.6598 0.3447
C31 C 0.5289(2) 0.52723(14) 0.30624(11)
H37 H 0.4448 0.5224 0.2850
H38 H 0.5931 0.5140 0.2714
loop_
_geom_bond_atom_site_label_1
_geom_bond_atom_site_label_2
_geom_bond_site_symmetry_1
_geom_bond_site_symmetry_2
B1 N1 1_555 1_555
N1 C7 1_555 1_555
O1 B1 1_555 1_555
O2 B1 1_555 1_555
O3 B1 1_555 1_555
C1 O1 1_555 1_555
C2 C1 1_555 1_555
C3 C2 1_555 1_555
H1 C3 1_555 1_555
C4 C3 1_555 1_555
C5 C4 1_555 1_555
H2 C5 1_555 1_555
C6 C1 1_555 1_555
C7 C2 1_555 1_555
H3 C7 1_555 1_555
H4 C7 1_555 1_555
C8 C6 1_555 1_555
H5 C8 1_555 1_555
H6 C8 1_555 1_555
H7 C8 1_555 1_555
C9 C4 1_555 1_555
H8 C9 1_555 1_555
H9 C9 1_555 1_555
H10 C9 1_555 1_555
C10 O2 1_555 1_555
C11 C10 1_555 1_555
C12 C11 1_555 1_555
H11 C12 1_555 1_555
C13 C12 1_555 1_555
C14 C13 1_555 1_555
H12 C14 1_555 1_555
C15 C10 1_555 1_555
C16 N1 1_555 1_555
H13 C16 1_555 1_555
H14 C16 1_555 1_555
C17 C15 1_555 1_555
H15 C17 1_555 1_555
H16 C17 1_555 1_555
H17 C17 1_555 1_555
C18 C13 1_555 1_555
H18 C18 1_555 1_555
H19 C18 1_555 1_555
H20 C18 1_555 1_555
C19 O3 1_555 1_555
C20 C19 1_555 1_555
C21 C20 1_555 1_555
H21 C21 1_555 1_555
C22 C21 1_555 1_555
C23 C22 1_555 1_555
H22 C23 1_555 1_555
C24 C19 1_555 1_555
C25 N1 1_555 1_555
H23 C25 1_555 1_555
H24 C25 1_555 1_555
C26 C24 1_555 1_555
H25 C26 1_555 1_555
H26 C26 1_555 1_555
H27 C26 1_555 1_555
C27 C22 1_555 1_555
H28 C27 1_555 1_555
H29 C27 1_555 1_555
H30 C27 1_555 1_555
O4 C28 1_555 1_555
C28 H31 1_555 1_555
H32 C28 1_555 1_555
C29 C28 1_555 1_555
H33 C29 1_555 1_555
H34 C29 1_555 1_555
C30 C29 1_555 1_555
H35 C30 1_555 1_555
H36 C30 1_555 1_555
C31 O4 1_555 1_555
H37 C31 1_555 1_555
H38 C31 1_555 1_555
C5 C6 1_555 1_555
C11 C16 1_555 1_555
C14 C15 1_555 1_555
C20 C25 1_555 1_555
C23 C24 1_555 1_555
C30 C31 1_555 1_555

#END
