
#######################################################################
#
#                 Cambridge Crystallographic Data Centre
#                                CCDC 
#
#######################################################################
#
# If this CIF has been generated from an entry in the Cambridge 
# Structural Database, then it will include bibliographic, chemical, 
# crystal, experimental, refinement or atomic coordinate data resulting 
# from the CCDC's data processing and validation procedures.
#
#######################################################################

data_YACGIV
_chemical_formula_moiety         'C88 H16 F38 N8 O4,C6 H14'
_chemical_name_systematic        
"4,4',5,5',6,6',7,7'-octafluoro-14,14',19,19',24,24'-hexakis(pentafluorophenyl)-10,10'-bi(9-oxa-12,28,29,30-tetraazaheptacyclo[23.2.1.1^10,13^.1^15,18^.1^20,23^.0^2,11^.0^3,8^]hentriacontane)-1,1',3,3',5,5',7,7',11,11',13,13',15,15',17,17',19,19',21,21',23(29),23'(29'),24,24',26,26'-hexacosaene-31,31'-dione hexane solvate"
_symmetry_cell_setting           monoclinic
_symmetry_space_group_name_H-M   'I 2/a'
_symmetry_Int_Tables_number      15
_space_group_name_Hall           '-I 2ya'
loop_
_symmetry_equiv_pos_site_id
_symmetry_equiv_pos_as_xyz
1 x,y,z
2 1/2-x,y,-z
3 1/2+x,1/2+y,1/2+z
4 -x,1/2+y,1/2-z
5 -x,-y,-z
6 1/2+x,-y,z
7 1/2-x,1/2-y,1/2-z
8 x,1/2-y,1/2+z
_cell_length_a                   13.7073(6)
_cell_length_b                   13.9417(6)
_cell_length_c                   41.647(2)
_cell_angle_alpha                90
_cell_angle_beta                 90.1310(16)
_cell_angle_gamma                90
_cell_volume                     7958.85
_exptl_crystal_colour            black
_exptl_crystal_description       rod
_cell_formula_units_Z            4
loop_
_atom_site_label
_atom_site_type_symbol
_atom_site_fract_x
_atom_site_fract_y
_atom_site_fract_z
C1 C 0.7697(2) -0.0563(2) 0.06214(7)
C2 C 0.7144(2) -0.0862(2) 0.03275(7)
C3 C 0.7070(2) 0.0069(2) 0.01293(7)
C4 C 0.7180(2) 0.0793(2) 0.03972(7)
C5 C 0.6674(2) 0.2348(2) 0.06205(7)
C6 C 0.6056(2) 0.3162(2) 0.06578(7)
H1 H 0.5569 0.3365 0.0510
C7 C 0.6282(2) 0.3600(2) 0.09405(7)
H2 H 0.5978 0.4157 0.1025
C8 C 0.7060(2) 0.3072(2) 0.10881(7)
C9 C 0.7606(2) 0.3319(2) 0.13576(7)
C10 C 0.8368(2) 0.2779(2) 0.14953(7)
C11 C 0.8965(2) 0.3120(2) 0.17590(8)
H3 H 0.8910 0.3719 0.1866
C12 C 0.9612(2) 0.2423(2) 0.18220(7)
H4 H 1.0110 0.2436 0.1981
C13 C 0.9405(2) 0.1644(2) 0.15999(7)
C14 C 0.9903(2) 0.0767(2) 0.16036(7)
C15 C 0.9700(2) -0.0021(2) 0.14068(7)
C16 C 1.0120(2) -0.0958(2) 0.14137(7)
H5 H 1.0658 -0.1156 0.1542
C17 C 0.9610(2) -0.1518(2) 0.12032(7)
H6 H 0.9720 -0.2180 0.1163
C18 C 0.8881(2) -0.0937(2) 0.10537(7)
C19 C 0.8232(2) -0.1201(2) 0.08084(7)
C20 C 0.6744(2) 0.1689(2) 0.03647(7)
C21 C 0.6248(2) 0.1848(2) 0.00532(7)
C22 C 0.5918(2) 0.1044(2) -0.01189(7)
C23 C 0.5371(2) 0.1142(2) -0.03967(7)
C24 C 0.5192(2) 0.2039(2) -0.05253(7)
C25 C 0.5577(2) 0.2838(2) -0.03756(8)
C26 C 0.6099(2) 0.2741(2) -0.00927(7)
C27 C 0.7415(2) 0.4289(2) 0.14997(7)
C28 C 0.8089(2) 0.5032(2) 0.14613(7)
C29 C 0.7942(2) 0.5927(2) 0.15949(8)
C30 C 0.7112(3) 0.6102(2) 0.17726(8)
C31 C 0.6423(2) 0.5385(2) 0.18120(8)
C32 C 0.6587(2) 0.4498(2) 0.16756(7)
C33 C 1.0712(2) 0.0657(2) 0.18428(7)
C34 C 1.0521(2) 0.0570(2) 0.21728(8)
C35 C 1.1267(2) 0.0563(2) 0.23959(7)
C36 C 1.2223(2) 0.0643(3) 0.22986(8)
C37 C 1.2433(2) 0.0718(2) 0.19749(8)
C38 C 1.1679(2) 0.0707(2) 0.17542(7)
C39 C 0.8145(2) -0.2238(2) 0.07268(7)
C40 C 0.7475(2) -0.2828(2) 0.08797(7)
C41 C 0.7273(2) -0.3740(2) 0.07727(8)
C42 C 0.7772(3) -0.4109(2) 0.05104(9)
C43 C 0.8460(2) -0.3549(2) 0.03593(8)
C44 C 0.8640(2) -0.2632(2) 0.04676(7)
O1 O 0.61440(15) 0.01225(14) -0.00249(5)
O2 O 0.67952(15) -0.16242(14) 0.02554(5)
F1 F 1.19092(14) 0.07744(15) 0.14414(4)
F2 F 1.33571(14) 0.08136(17) 0.18802(5)
F3 F 1.29437(15) 0.06460(18) 0.25128(5)
F4 F 1.10662(15) 0.04766(18) 0.27104(4)
F5 F 0.96043(14) 0.05136(15) 0.22761(4)
F6 F 0.88956(14) 0.48942(14) 0.12898(5)
F7 F 0.86035(16) 0.66244(14) 0.15571(5)
F8 F 0.69790(16) 0.69654(14) 0.19061(5)
F9 F 0.56291(15) 0.55473(15) 0.19876(5)
F10 F 0.58983(14) 0.38202(13) 0.17184(5)
F11 F 0.64805(13) 0.35447(12) 0.00322(4)
F12 F 0.50266(13) 0.03628(13) -0.05503(4)
F13 F 0.46785(14) 0.21281(15) -0.07951(4)
F14 F 0.54342(15) 0.37079(14) -0.05041(5)
F15 F 0.69799(13) -0.24999(13) 0.11350(4)
F16 F 0.65917(15) -0.42687(14) 0.09211(5)
F17 F 0.75871(18) -0.49913(14) 0.04082(6)
F18 F 0.89611(16) -0.38953(15) 0.01062(5)
F19 F 0.92905(13) -0.20867(13) 0.03124(4)
N1 N 0.72453(18) 0.23023(18) 0.08913(6)
H7 H 0.7670 0.1845 0.0933
N2 N 0.86444(18) 0.18832(18) 0.14006(6)
N3 N 0.89693(18) -0.00394(17) 0.11825(6)
H8 H 0.8607 0.0457 0.1129
N4 N 0.76166(18) 0.04072(17) 0.06594(6)
C1A C 0.7303(2) -0.0563(2) -0.06214(7)
C2A C 0.7856(2) -0.0862(2) -0.03275(7)
C3A C 0.7930(2) 0.0069(2) -0.01293(7)
C4A C 0.7820(2) 0.0793(2) -0.03972(7)
C5A C 0.8326(2) 0.2348(2) -0.06205(7)
C6A C 0.8944(2) 0.3162(2) -0.06578(7)
H1A H 0.9431 0.3365 -0.0510
C7A C 0.8718(2) 0.3600(2) -0.09405(7)
H2A H 0.9022 0.4157 -0.1025
C8A C 0.7940(2) 0.3072(2) -0.10881(7)
C9A C 0.7394(2) 0.3319(2) -0.13576(7)
C10A C 0.6632(2) 0.2779(2) -0.14953(7)
C11A C 0.6035(2) 0.3120(2) -0.17590(8)
H3A H 0.6090 0.3719 -0.1866
C12A C 0.5388(2) 0.2423(2) -0.18220(7)
H4A H 0.4890 0.2436 -0.1981
C13A C 0.5595(2) 0.1644(2) -0.15999(7)
C14A C 0.5097(2) 0.0767(2) -0.16036(7)
C15A C 0.5300(2) -0.0021(2) -0.14068(7)
C16A C 0.4880(2) -0.0958(2) -0.14137(7)
H5A H 0.4342 -0.1156 -0.1542
C17A C 0.5390(2) -0.1518(2) -0.12032(7)
H6A H 0.5280 -0.2180 -0.1163
C18A C 0.6119(2) -0.0937(2) -0.10537(7)
C19A C 0.6768(2) -0.1201(2) -0.08084(7)
C20A C 0.8256(2) 0.1689(2) -0.03647(7)
C21A C 0.8752(2) 0.1848(2) -0.00532(7)
C22A C 0.9082(2) 0.1044(2) 0.01189(7)
C23A C 0.9629(2) 0.1142(2) 0.03967(7)
C24A C 0.9808(2) 0.2039(2) 0.05253(7)
C25A C 0.9423(2) 0.2838(2) 0.03756(8)
C26A C 0.8901(2) 0.2741(2) 0.00927(7)
C27A C 0.7585(2) 0.4289(2) -0.14997(7)
C28A C 0.6911(2) 0.5032(2) -0.14613(7)
C29A C 0.7058(2) 0.5927(2) -0.15949(8)
C30A C 0.7888(3) 0.6102(2) -0.17726(8)
C31A C 0.8577(2) 0.5385(2) -0.18120(8)
C32A C 0.8413(2) 0.4498(2) -0.16756(7)
C33A C 0.4288(2) 0.0657(2) -0.18428(7)
C34A C 0.4479(2) 0.0570(2) -0.21728(8)
C35A C 0.3733(2) 0.0563(2) -0.23959(7)
C36A C 0.2777(2) 0.0643(3) -0.22986(8)
C37A C 0.2567(2) 0.0718(2) -0.19749(8)
C38A C 0.3321(2) 0.0707(2) -0.17542(7)
C39A C 0.6855(2) -0.2238(2) -0.07268(7)
C40A C 0.7525(2) -0.2828(2) -0.08797(7)
C41A C 0.7727(2) -0.3740(2) -0.07727(8)
C42A C 0.7228(3) -0.4109(2) -0.05104(9)
C43A C 0.6540(2) -0.3549(2) -0.03593(8)
C44A C 0.6360(2) -0.2632(2) -0.04676(7)
O1A O 0.88560(15) 0.01225(14) 0.00249(5)
O2A O 0.82048(15) -0.16242(14) -0.02554(5)
F1A F 0.30908(14) 0.07744(15) -0.14414(4)
F2A F 0.16429(14) 0.08136(17) -0.18802(5)
F3A F 0.20563(15) 0.06460(18) -0.25128(5)
F4A F 0.39338(15) 0.04766(18) -0.27104(4)
F5A F 0.53957(14) 0.05136(15) -0.22761(4)
F6A F 0.61044(14) 0.48942(14) -0.12898(5)
F7A F 0.63965(16) 0.66244(14) -0.15571(5)
F8A F 0.80210(16) 0.69654(14) -0.19061(5)
F9A F 0.93709(15) 0.55473(15) -0.19876(5)
F10A F 0.91017(14) 0.38202(13) -0.17184(5)
F11A F 0.85195(13) 0.35447(12) -0.00322(4)
F12A F 0.99734(13) 0.03628(13) 0.05503(4)
F13A F 1.03215(14) 0.21281(15) 0.07951(4)
F14A F 0.95658(15) 0.37079(14) 0.05041(5)
F15A F 0.80201(13) -0.24999(13) -0.11350(4)
F16A F 0.84083(15) -0.42687(14) -0.09211(5)
F17A F 0.74129(18) -0.49913(14) -0.04082(6)
F18A F 0.60389(16) -0.38953(15) -0.01062(5)
F19A F 0.57095(13) -0.20867(13) -0.03124(4)
N1A N 0.77547(18) 0.23023(18) -0.08913(6)
H7A H 0.7330 0.1845 -0.0933
N2A N 0.63556(18) 0.18832(18) -0.14006(6)
N3A N 0.60307(18) -0.00394(17) -0.11825(6)
H8A H 0.6393 0.0457 -0.1129
N4A N 0.73834(18) 0.04072(17) -0.06594(6)
C45 C 0.5612(4) 0.2092(4) 0.22797(11)
H9 H 0.5164 0.2056 0.2096
H10 H 0.5559 0.2725 0.2380
H11 H 0.5442 0.1596 0.2437
C46 C 0.6684(3) 0.1932(3) 0.21613(10)
H12 H 0.6732 0.1290 0.2061
H13 H 0.6837 0.2415 0.1995
C47 C 0.7443(3) 0.2005(3) 0.24300(10)
H14 H 0.7258 0.1558 0.2604
H15 H 0.8082 0.1793 0.2345
C45F C 0.9388(4) 0.2908(4) 0.27203(11)
H9F H 0.9836 0.2944 0.2904
H10F H 0.9441 0.2275 0.2620
H11F H 0.9558 0.3404 0.2563
C46F C 0.8316(3) 0.3068(3) 0.28387(10)
H12F H 0.8268 0.3710 0.2939
H13F H 0.8163 0.2585 0.3005
C47F C 0.7557(3) 0.2995(3) 0.25700(10)
H14F H 0.7742 0.3442 0.2396
H15F H 0.6918 0.3207 0.2655
loop_
_geom_bond_atom_site_label_1
_geom_bond_atom_site_label_2
_geom_bond_site_symmetry_1
_geom_bond_site_symmetry_2
C1 C2 1_555 1_555
C2 C3 1_555 1_555
C3 C4 1_555 1_555
C4 C20 1_555 1_555
C5 C6 1_555 1_555
C6 H1 1_555 1_555
C7 C6 1_555 1_555
H2 C7 1_555 1_555
C8 C7 1_555 1_555
C9 C8 1_555 1_555
C10 C9 1_555 1_555
C11 C10 1_555 1_555
H3 C11 1_555 1_555
C12 C11 1_555 1_555
H4 C12 1_555 1_555
C13 C12 1_555 1_555
C14 C13 1_555 1_555
C15 C14 1_555 1_555
C16 C15 1_555 1_555
H5 C16 1_555 1_555
C17 C16 1_555 1_555
H6 C17 1_555 1_555
C18 C17 1_555 1_555
C19 C1 1_555 1_555
C20 C5 1_555 1_555
C21 C20 1_555 1_555
C22 C21 1_555 1_555
C23 C22 1_555 1_555
C24 C23 1_555 1_555
C25 C24 1_555 1_555
C26 C21 1_555 1_555
C27 C9 1_555 1_555
C28 C27 1_555 1_555
C29 C28 1_555 1_555
C30 C29 1_555 1_555
C31 C30 1_555 1_555
C32 C27 1_555 1_555
C33 C14 1_555 1_555
C34 C33 1_555 1_555
C35 C34 1_555 1_555
C36 C35 1_555 1_555
C37 C36 1_555 1_555
C38 C33 1_555 1_555
C39 C19 1_555 1_555
C40 C39 1_555 1_555
C41 C40 1_555 1_555
C42 C41 1_555 1_555
C43 C42 1_555 1_555
C44 C39 1_555 1_555
O1 C3 1_555 1_555
O2 C2 1_555 1_555
F1 C38 1_555 1_555
F2 C37 1_555 1_555
F3 C36 1_555 1_555
F4 C35 1_555 1_555
F5 C34 1_555 1_555
F6 C28 1_555 1_555
F7 C29 1_555 1_555
F8 C30 1_555 1_555
F9 C31 1_555 1_555
F10 C32 1_555 1_555
F11 C26 1_555 1_555
F12 C23 1_555 1_555
F13 C24 1_555 1_555
F14 C25 1_555 1_555
F15 C40 1_555 1_555
F16 C41 1_555 1_555
F17 C42 1_555 1_555
F18 C43 1_555 1_555
F19 C44 1_555 1_555
N1 C5 1_555 1_555
H7 N1 1_555 1_555
N2 C10 1_555 1_555
N3 C15 1_555 1_555
H8 N3 1_555 1_555
N4 C1 1_555 1_555
C45 H9 1_555 1_555
H10 C45 1_555 1_555
H11 C45 1_555 1_555
C46 C45 1_555 1_555
H12 C46 1_555 1_555
H13 C46 1_555 1_555
C47 C46 1_555 1_555
H14 C47 1_555 1_555
H15 C47 1_555 1_555
C1A C2A 1_555 1_555
C2A C3A 1_555 1_555
C3A C3 1_555 1_555
C4A C3A 1_555 1_555
C5A C6A 1_555 1_555
C6A H1A 1_555 1_555
C7A C6A 1_555 1_555
H2A C7A 1_555 1_555
C8A C7A 1_555 1_555
C9A C8A 1_555 1_555
C10A C9A 1_555 1_555
C11A C10A 1_555 1_555
H3A C11A 1_555 1_555
C12A C11A 1_555 1_555
H4A C12A 1_555 1_555
C13A C12A 1_555 1_555
C14A C13A 1_555 1_555
C15A C14A 1_555 1_555
C16A C15A 1_555 1_555
H5A C16A 1_555 1_555
C17A C16A 1_555 1_555
H6A C17A 1_555 1_555
C18A C17A 1_555 1_555
C19A C1A 1_555 1_555
C20A C4A 1_555 1_555
C21A C20A 1_555 1_555
C22A C21A 1_555 1_555
C23A C22A 1_555 1_555
C24A C23A 1_555 1_555
C25A C24A 1_555 1_555
C26A C21A 1_555 1_555
C27A C9A 1_555 1_555
C28A C27A 1_555 1_555
C29A C28A 1_555 1_555
C30A C29A 1_555 1_555
C31A C30A 1_555 1_555
C32A C27A 1_555 1_555
C33A C14A 1_555 1_555
C34A C33A 1_555 1_555
C35A C34A 1_555 1_555
C36A C35A 1_555 1_555
C37A C36A 1_555 1_555
C38A C33A 1_555 1_555
C39A C19A 1_555 1_555
C40A C39A 1_555 1_555
C41A C40A 1_555 1_555
C42A C41A 1_555 1_555
C43A C42A 1_555 1_555
C44A C39A 1_555 1_555
O1A C3A 1_555 1_555
O2A C2A 1_555 1_555
F1A C38A 1_555 1_555
F2A C37A 1_555 1_555
F3A C36A 1_555 1_555
F4A C35A 1_555 1_555
F5A C34A 1_555 1_555
F6A C28A 1_555 1_555
F7A C29A 1_555 1_555
F8A C30A 1_555 1_555
F9A C31A 1_555 1_555
F10A C32A 1_555 1_555
F11A C26A 1_555 1_555
F12A C23A 1_555 1_555
F13A C24A 1_555 1_555
F14A C25A 1_555 1_555
F15A C40A 1_555 1_555
F16A C41A 1_555 1_555
F17A C42A 1_555 1_555
F18A C43A 1_555 1_555
F19A C44A 1_555 1_555
N1A C5A 1_555 1_555
H7A N1A 1_555 1_555
N2A C10A 1_555 1_555
N3A C15A 1_555 1_555
H8A N3A 1_555 1_555
N4A C1A 1_555 1_555
C45F H9F 1_555 1_555
H10F C45F 1_555 1_555
H11F C45F 1_555 1_555
C46F C45F 1_555 1_555
H12F C46F 1_555 1_555
H13F C46F 1_555 1_555
C47F C47 1_555 1_555
H14F C47F 1_555 1_555
H15F C47F 1_555 1_555
C4 N4 1_555 1_555
C8 N1 1_555 1_555
C13 N2 1_555 1_555
C18 C19 1_555 1_555
C18 N3 1_555 1_555
C22 O1 1_555 1_555
C25 C26 1_555 1_555
C31 C32 1_555 1_555
C37 C38 1_555 1_555
C43 C44 1_555 1_555
C4A N4A 1_555 1_555
C5A C20A 1_555 1_555
C8A N1A 1_555 1_555
C13A N2A 1_555 1_555
C18A C19A 1_555 1_555
C18A N3A 1_555 1_555
C22A O1A 1_555 1_555
C25A C26A 1_555 1_555
C31A C32A 1_555 1_555
C37A C38A 1_555 1_555
C43A C44A 1_555 1_555
C46F C47F 1_555 1_555

#END
