
#######################################################################
#
#                 Cambridge Crystallographic Data Centre
#                                CCDC 
#
#######################################################################
#
# If this CIF has been generated from an entry in the Cambridge 
# Structural Database, then it will include bibliographic, chemical, 
# crystal, experimental, refinement or atomic coordinate data resulting 
# from the CCDC's data processing and validation procedures.
#
#######################################################################

data_YACHUG
_chemical_formula_moiety         'C23 H32 O5'
_chemical_name_systematic        
'3-t-butyl-2-hydroxy-1-methyl-8-methylene-13-oxododecahydro-4a,1-(epoxymethano)-7,9a-methanobenzo(a)azulene-10-carboxylic acid'
_symmetry_cell_setting           monoclinic
_symmetry_space_group_name_H-M   'P 21'
_symmetry_Int_Tables_number      4
_space_group_name_Hall           'P 2yb'
loop_
_symmetry_equiv_pos_site_id
_symmetry_equiv_pos_as_xyz
1 x,y,z
2 -x,1/2+y,-z
_cell_length_a                   12.444(6)
_cell_length_b                   6.476(2)
_cell_length_c                   13.684(5)
_cell_angle_alpha                90
_cell_angle_beta                 75.45(3)
_cell_angle_gamma                90
_cell_volume                     1067.39
_exptl_crystal_colour            colorless
_exptl_crystal_description       prism
_cell_formula_units_Z            2
loop_
_atom_site_label
_atom_site_type_symbol
_atom_site_fract_x
_atom_site_fract_y
_atom_site_fract_z
C1 C 0.2165(4) 0.4170(8) 0.6901(3)
C2 C 0.0987(3) 0.4143(7) 0.7589(3)
C3 C 0.0965(4) 0.5240(7) 0.8601(3)
C4 C 0.1938(4) 0.4510(7) 0.9058(3)
C5 C 0.3036(3) 0.5118(7) 0.8331(3)
C6 C 0.4118(3) 0.4602(7) 0.8628(3)
C7 C 0.4536(3) 0.6223(7) 0.9234(3)
C8 C 0.4980(3) 0.4084(6) 0.7605(3)
C9 C 0.4249(3) 0.3484(7) 0.6854(3)
C10 C 0.3039(4) 0.3627(7) 0.7467(3)
C11 C 0.4582(4) 0.1431(8) 0.6300(4)
C12 C 0.5843(4) 0.1376(9) 0.5831(4)
C13 C 0.6505(4) 0.2385(8) 0.6520(3)
C14 C 0.5817(4) 0.2328(8) 0.7625(3)
C15 C 0.5789(4) 0.5827(8) 0.7130(3)
C16 C 0.6638(4) 0.4697(8) 0.6320(3)
C17 C 0.7369(4) 0.5580(10) 0.5559(3)
C18 C 0.1754(4) 0.5168(8) 1.0167(3)
C19 C 0.2027(4) 0.2146(7) 0.8937(3)
C20 C 0.0063(4) 0.4786(8) 0.7062(3)
C21 C -0.0017(5) 0.3134(12) 0.6279(4)
C22 C 0.0291(6) 0.6819(12) 0.6507(5)
C23 C -0.1066(4) 0.4925(13) 0.7819(4)
O1 O 0.1030(3) 0.7418(5) 0.8404(3)
H1 H 0.1448 0.8325 0.8736
O2 O 0.2698(2) 0.1676 0.8020(2)
O3 O 0.1556(3) 0.0842(5) 0.9520(2)
O4 O 0.5207(3) 0.5908(5) 0.9721(2)
O5 O 0.4142(3) 0.8090(5) 0.9166(3)
H2 H 0.2318 0.5526 0.6617
H3 H 0.2207 0.3185 0.6368
H4 H 0.0785 0.2733 0.7756
H5 H 0.0293 0.4898 0.9095
H6 H 0.3049 0.6589 0.8243
H7 H 0.3992 0.3467 0.9093
H8 H 0.4371 0.4425 0.6295
H9 H 0.4381 0.0311 0.6771
H10 H 0.4200 0.1287 0.5775
H11 H 0.6073 -0.0037 0.5715
H12 H 0.6001 0.2103 0.5200
H13 H 0.7198 0.1657 0.6396
H14 H 0.5452 0.1023 0.7794
H15 H 0.6265 0.2623 0.8086
H16 H 0.6128 0.6436 0.7619
H17 H 0.5419 0.6878 0.6843
H18 H 0.7604 0.6798 0.5763
H19 H 0.7720 0.5059 0.4895
H20 H 0.1701 0.6645 1.0214
H21 H 0.2366 0.4706 1.0419
H22 H 0.1079 0.4564 1.0560
H23 H -0.0171 0.1818 0.6607
H24 H 0.0674 0.3063 0.5773
H25 H -0.0603 0.3486 0.5968
H26 H 0.0344 0.7897 0.6974
H27 H -0.0303 0.7122 0.6198
H28 H 0.0977 0.6728 0.5995
H29 H -0.1226 0.3643 0.8177
H30 H -0.1628 0.5199 0.7466
H31 H -0.1056 0.6022 0.8289
H32 H 0.4202 0.8505 0.9763
H33? H 0.3441 0.8090 0.9617
loop_
_geom_bond_atom_site_label_1
_geom_bond_atom_site_label_2
_geom_bond_site_symmetry_1
_geom_bond_site_symmetry_2
C1 C2 1_555 1_555
C2 C3 1_555 1_555
C3 C4 1_555 1_555
C4 C5 1_555 1_555
C5 C6 1_555 1_555
C6 C7 1_555 1_555
C7 O4 1_555 1_555
C8 C6 1_555 1_555
C9 C8 1_555 1_555
C10 C1 1_555 1_555
C11 C9 1_555 1_555
C12 C11 1_555 1_555
C13 C12 1_555 1_555
C14 C8 1_555 1_555
C15 C8 1_555 1_555
C16 C13 1_555 1_555
C17 C16 1_555 1_555
C18 C4 1_555 1_555
C19 C4 1_555 1_555
C20 C2 1_555 1_555
C21 C20 1_555 1_555
C22 C20 1_555 1_555
C23 C20 1_555 1_555
O1 C3 1_555 1_555
H1 O1 1_555 1_555
O2 C10 1_555 1_555
O3 C19 1_555 1_555
O5 C7 1_555 1_555
H2 C1 1_555 1_555
H3 C1 1_555 1_555
H4 C2 1_555 1_555
H5 C3 1_555 1_555
H6 C5 1_555 1_555
H7 C6 1_555 1_555
H8 C9 1_555 1_555
H9 C11 1_555 1_555
H10 C11 1_555 1_555
H11 C12 1_555 1_555
H12 C12 1_555 1_555
H13 C13 1_555 1_555
H14 C14 1_555 1_555
H15 C14 1_555 1_555
H16 C15 1_555 1_555
H17 C15 1_555 1_555
H18 C17 1_555 1_555
H19 C17 1_555 1_555
H20 C18 1_555 1_555
H21 C18 1_555 1_555
H22 C18 1_555 1_555
H23 C21 1_555 1_555
H24 C21 1_555 1_555
H25 C21 1_555 1_555
H26 C22 1_555 1_555
H27 C22 1_555 1_555
H28 C22 1_555 1_555
H29 C23 1_555 1_555
H30 C23 1_555 1_555
H31 C23 1_555 1_555
H32 O5 1_555 1_555
C5 C10 1_555 1_555
C9 C10 1_555 1_555
C13 C14 1_555 1_555
C15 C16 1_555 1_555
C19 O2 1_555 1_555

#END
