
#######################################################################
#
#                 Cambridge Crystallographic Data Centre
#                                CCDC 
#
#######################################################################
#
# If this CIF has been generated from an entry in the Cambridge 
# Structural Database, then it will include bibliographic, chemical, 
# crystal, experimental, refinement or atomic coordinate data resulting 
# from the CCDC's data processing and validation procedures.
#
#######################################################################

data_YACNEV
_chemical_compound_source        'roots of Trypterygium wilfordii'
_chemical_formula_moiety         'C30 H48 O4,H2 O1'
_chemical_name_systematic        'Salaspermic acid monohydrate'
_chemical_properties_biological  'antiHIV activity'
_symmetry_cell_setting           monoclinic
_symmetry_space_group_name_H-M   'P 21'
_symmetry_Int_Tables_number      4
_space_group_name_Hall           'P 2yb'
loop_
_symmetry_equiv_pos_site_id
_symmetry_equiv_pos_as_xyz
1 x,y,z
2 -x,1/2+y,-z
_cell_length_a                   7.323(1)
_cell_length_b                   30.128(2)
_cell_length_c                   6.446(1)
_cell_angle_alpha                90
_cell_angle_beta                 113.30(1)
_cell_angle_gamma                90
_cell_volume                     1306.18
_exptl_crystal_colour            colorless
_chemical_melting_point          'above 320deg.C'
_cell_formula_units_Z            2
loop_
_atom_site_label
_atom_site_type_symbol
_atom_site_fract_x
_atom_site_fract_y
_atom_site_fract_z
C1 C 0.3997(3) -0.07959(9) 0.4024(4)
C2 C 0.4490(4) -0.03933(9) 0.2868(5)
C3 C 0.2663(3) -0.01054(8) 0.1749(4)
C4 C 0.1020(3) -0.03641(8) -0.0067(4)
C5 C 0.0352(3) -0.06690(8) 0.1458(4)
C6 C -0.1670(3) -0.08868(8) 0.0120(4)
C7 C -0.2170(3) -0.12708(8) 0.1358(4)
C8 C -0.0509(3) -0.16209(7) 0.1994(4)
C9 C 0.1482(3) -0.14236(8) 0.3737(4)
C10 C 0.2030(3) -0.10214(8) 0.2541(4)
C11 C 0.3110(3) -0.17823(8) 0.4246(4)
C12 C 0.2516(3) -0.22393(8) 0.4820(4)
C13 C 0.0618(3) -0.24266(7) 0.2943(4)
C14 C -0.1135(3) -0.20899(7) 0.2518(4)
C15 C -0.2974(3) -0.22526(9) 0.0465(5)
C16 C -0.3157(4) -0.27560(9) 0.0047(5)
C17 C -0.2061(3) -0.30642(8) 0.2105(4)
C18 C 0.0048(3) -0.28838(8) 0.3705(4)
C19 C 0.1704(3) -0.32313(8) 0.4090(4)
C20 C 0.1242(3) -0.36995(8) 0.4751(4)
C21 C -0.0806(4) -0.38616(9) 0.2983(5)
C22 C -0.1822(4) -0.35177(9) 0.1146(5)
C23 C 0.0293(4) -0.03196(9) 0.3169(4)
C24 C -0.0594(4) -0.00632(9) -0.1670(5)
C25 C 0.1408(4) -0.12876(10) 0.6010(4)
C26 C -0.1729(3) -0.20597(9) 0.4565(4)
C27 C 0.1078(3) -0.24887(9) 0.0810(4)
C28 C -0.3427(4) -0.31332(10) 0.3399(5)
C29 C 0.1294(5) -0.36792(12) 0.7136(5)
C30 C 0.2826(4) -0.40167(8) 0.4679(5)
O1 O 0.1826(3) 0.00000 0.3390(3)
O2 O 0.3087(3) 0.02940(6) 0.0919(3)
O3 O 0.3035(3) -0.40248(8) 0.2750(4)
O4 O 0.3727(4) -0.42630(10) 0.6219(5)
H1 H 0.390(4) -0.071(1) 0.543(5)
H2 H 0.510(5) -0.102(1) 0.442(5)
H3 H 0.496(4) -0.049(1) 0.164(5)
H4 H 0.551(5) -0.019(1) 0.405(6)
H5 H 0.164(4) -0.056(1) -0.089(5)
H6 H -0.158(4) -0.102(1) -0.131(5)
H7 H -0.271(5) -0.066(1) -0.029(5)
H8 H -0.349(4) -0.139(1) 0.038(5)
H9 H -0.229(5) -0.117(1) 0.281(5)
H10 H -0.020(4) -0.166(1) 0.067(4)
H11 H 0.220(4) -0.115(1) 0.121(4)
H12 H 0.428(4) -0.168(1) 0.557(4)
H13 H 0.346(5) -0.179(1) 0.294(6)
H14 H 0.237(4) -0.223(1) 0.635(5)
H15 H 0.359(5) -0.245(1) 0.501(5)
H16 H -0.297(4) -0.210(1) -0.093(5)
H17 H -0.413(4) -0.216(1) -0.066(5)
H18 H -0.266(5) -0.282(1) -0.104(6)
H19 H -0.457(5) -0.287(1) -0.056(5)
H20 H 0.006(4) -0.283(1) 0.531(5)
H21 H 0.292(5) -0.312(1) 0.526(6)
H22 H 0.198(5) -0.323(1) 0.275(5)
H23 H -0.170(5) -0.394(1) 0.375(6)
H24 H -0.060(5) -0.415(1) 0.226(6)
H25 H -0.102(5) -0.348(1) 0.017(5)
H26 H -0.319(5) -0.363(1) 0.005(6)
H27 H 0.060(4) -0.044(1) 0.474(5)
H28 H -0.109(6) -0.016(2) 0.258(7)
H29 H -0.156(5) -0.025(1) -0.267(6)
H30 H -0.104(6) 0.015(2) -0.094(7)
H31 H 0.008(6) 0.012(1) -0.266(6)
H32 H 0.257(5) -0.107(1) 0.679(6)
H33 H 0.028(5) -0.110(1) 0.583(6)
H34 H 0.152(4) -0.155(1) 0.707(5)
H35 H -0.236(5) -0.178(1) 0.455(5)
H36 H -0.265(6) -0.231(2) 0.453(7)
H37 H -0.042(6) -0.203(1) 0.620(6)
H38 H 0.240(6) -0.263(2) 0.119(7)
H39 H 0.039(6) -0.270(1) -0.002(7)
H40 H 0.106(5) -0.220(1) 0.010(6)
H41 H -0.449(5) -0.331(1) 0.263(5)
H42 H -0.260(6) -0.326(2) 0.499(7)
H43 H -0.384(7) -0.283(2) 0.361(8)
H44 H 0.104(6) -0.400(1) 0.770(7)
H45 H 0.276(6) -0.365(2) 0.823(7)
H46 H 0.056(5) -0.346(1) 0.740(6)
H47 H 0.397(5) 0.044(1) 0.213(6)
H48 H 0.391(5) -0.423(1) 0.280(6)
O5 O 0.4600(3) 0.03276(8) -0.2506(5)
H49 H 0.359(5) 0.026(1) -0.393(6)
H50 H 0.412(7) 0.035(2) -0.142(8)
loop_
_geom_bond_atom_site_label_1
_geom_bond_atom_site_label_2
_geom_bond_site_symmetry_1
_geom_bond_site_symmetry_2
C1 C2 1_555 1_555
C2 C3 1_555 1_555
C3 C4 1_555 1_555
C4 C5 1_555 1_555
C5 C6 1_555 1_555
C6 C7 1_555 1_555
C7 C8 1_555 1_555
C8 C9 1_555 1_555
C9 C10 1_555 1_555
C10 C1 1_555 1_555
C11 C9 1_555 1_555
C12 C11 1_555 1_555
C13 C12 1_555 1_555
C14 C8 1_555 1_555
C15 C14 1_555 1_555
C16 C15 1_555 1_555
C17 C16 1_555 1_555
C18 C13 1_555 1_555
C19 C18 1_555 1_555
C20 C19 1_555 1_555
C21 C20 1_555 1_555
C22 C17 1_555 1_555
C23 C5 1_555 1_555
C24 C4 1_555 1_555
C25 C9 1_555 1_555
C26 C14 1_555 1_555
C27 C13 1_555 1_555
C28 C17 1_555 1_555
C29 C20 1_555 1_555
C30 C20 1_555 1_555
O1 C3 1_555 1_555
O2 C3 1_555 1_555
O3 C30 1_555 1_555
O4 C30 1_555 1_555
O5 H49 1_555 1_555
H1 C1 1_555 1_555
H2 C1 1_555 1_555
H3 C2 1_555 1_555
H4 C2 1_555 1_555
H5 C4 1_555 1_555
H6 C6 1_555 1_555
H7 C6 1_555 1_555
H8 C7 1_555 1_555
H9 C7 1_555 1_555
H10 C8 1_555 1_555
H11 C10 1_555 1_555
H12 C11 1_555 1_555
H13 C11 1_555 1_555
H14 C12 1_555 1_555
H15 C12 1_555 1_555
H16 C15 1_555 1_555
H17 C15 1_555 1_555
H18 C16 1_555 1_555
H19 C16 1_555 1_555
H20 C18 1_555 1_555
H21 C19 1_555 1_555
H22 C19 1_555 1_555
H23 C21 1_555 1_555
H24 C21 1_555 1_555
H25 C22 1_555 1_555
H26 C22 1_555 1_555
H27 C23 1_555 1_555
H28 C23 1_555 1_555
H29 C24 1_555 1_555
H30 C24 1_555 1_555
H31 C24 1_555 1_555
H32 C25 1_555 1_555
H33 C25 1_555 1_555
H34 C25 1_555 1_555
H35 C26 1_555 1_555
H36 C26 1_555 1_555
H37 C26 1_555 1_555
H38 C27 1_555 1_555
H39 C27 1_555 1_555
H40 C27 1_555 1_555
H41 C28 1_555 1_555
H42 C28 1_555 1_555
H43 C28 1_555 1_555
H44 C29 1_555 1_555
H45 C29 1_555 1_555
H46 C29 1_555 1_555
H47 O2 1_555 1_555
H48 O3 1_555 1_555
H50 O5 1_555 1_555
C5 C10 1_555 1_555
C13 C14 1_555 1_555
C17 C18 1_555 1_555
C21 C22 1_555 1_555
C23 O1 1_555 1_555

#END
