
#######################################################################
#
#                 Cambridge Crystallographic Data Centre
#                                CCDC 
#
#######################################################################
#
# If this CIF has been generated from an entry in the Cambridge 
# Structural Database, then it will include bibliographic, chemical, 
# crystal, experimental, refinement or atomic coordinate data resulting 
# from the CCDC's data processing and validation procedures.
#
#######################################################################

data_YACTAA
_chemical_formula_moiety         'C19 H17 Br1 Cl1 F3'
_chemical_name_systematic        
1-(2-bromo-1-(4-chlorophenyl)-4,4,4-trifluorobut-2-en-1-yl)-2,4,5-trimethylbenzene
_symmetry_cell_setting           monoclinic
_symmetry_space_group_name_H-M   'P 21/c'
_symmetry_Int_Tables_number      14
_space_group_name_Hall           '-P 2ybc'
loop_
_symmetry_equiv_pos_site_id
_symmetry_equiv_pos_as_xyz
1 x,y,z
2 -x,1/2+y,1/2-z
3 -x,-y,-z
4 x,1/2-y,1/2+z
_cell_length_a                   8.2233(3)
_cell_length_b                   22.8182(7)
_cell_length_c                   10.0565(3)
_cell_angle_alpha                90
_cell_angle_beta                 109.447(4)
_cell_angle_gamma                90
_cell_volume                     1779.36
_exptl_crystal_colour            colorless
_exptl_crystal_description       prism
_cell_formula_units_Z            4
loop_
_atom_site_label
_atom_site_type_symbol
_atom_site_fract_x
_atom_site_fract_y
_atom_site_fract_z
Br1 Br 0.14132(2) 0.348031(9) 0.322358(18)
C1 C 0.5785(2) 0.39146(8) 0.81780(18)
H1 H 0.6534 0.3887 0.7663
C2 C 0.4981(2) 0.31049(8) 0.57877(17)
C3 C 0.5448(2) 0.25382(8) 0.62822(19)
H2 H 0.4825 0.2345 0.6770
C4 C 0.4121(2) 0.36946(8) 0.75930(18)
C5 C 0.3521(2) 0.34112(8) 0.61284(18)
H3 H 0.2679 0.3109 0.6137
C6 C 0.2594(2) 0.38479(8) 0.49843(18)
C7 C 0.2594(2) 0.44223(8) 0.51368(18)
H4 H 0.3188 0.4568 0.6031
C8 C 0.6372(2) 0.41755(8) 0.95067(19)
C9 C 0.3584(3) 0.39884(8) 0.97006(19)
H5 H 0.2841 0.4012 1.0223
C10 C 0.5251(2) 0.41993(8) 1.02968(18)
C11 C 0.5910(2) 0.33842(8) 0.50409(19)
H6 H 0.5599 0.3760 0.4693
C12 C 0.2968(2) 0.37429(8) 0.83551(19)
F1 F 0.00190(14) 0.48153(5) 0.35226(11)
F2 F 0.20836(15) 0.54088(5) 0.45436(13)
F3 F 0.22763(16) 0.48343(6) 0.29020(12)
C13 C 0.7293(2) 0.31086(8) 0.48085(18)
H7 H 0.7912 0.3298 0.4312
C14 C 0.1745(2) 0.48620(8) 0.4031(2)
C15 C 0.1127(3) 0.35386(9) 0.7744(2)
H8 H 0.0603 0.3711 0.6830
H9 H 0.0501 0.3655 0.8354
H10 H 0.1102 0.3119 0.7658
C16 C 0.6830(2) 0.22575(8) 0.6057(2)
H11 H 0.7139 0.1880 0.6393
C17 C 0.5848(3) 0.44483(9) 1.1779(2)
H12 H 0.6817 0.4227 1.2361
H13 H 0.4925 0.4426 1.2162
H14 H 0.6181 0.4850 1.1753
C18 C 0.7741(2) 0.25493(8) 0.53231(19)
C19 C 0.8179(2) 0.44177(9) 1.0080(2)
H15 H 0.8812 0.4212 1.0927
H16 H 0.8132 0.4827 1.0286
H17 H 0.8744 0.4369 0.9391
Cl1 Cl 0.94824(6) 0.22013(2) 0.50320(5)
loop_
_geom_bond_atom_site_label_1
_geom_bond_atom_site_label_2
_geom_bond_site_symmetry_1
_geom_bond_site_symmetry_2
Br1 C6 1_555 1_555
C1 H1 1_555 1_555
C2 C3 1_555 1_555
C3 H2 1_555 1_555
C4 C1 1_555 1_555
C5 C2 1_555 1_555
H3 C5 1_555 1_555
C6 C5 1_555 1_555
C7 C6 1_555 1_555
H4 C7 1_555 1_555
C8 C1 1_555 1_555
C9 H5 1_555 1_555
C10 C8 1_555 1_555
C11 C2 1_555 1_555
H6 C11 1_555 1_555
C12 C4 1_555 1_555
F1 C14 1_555 1_555
F2 C14 1_555 1_555
F3 C14 1_555 1_555
C13 C11 1_555 1_555
H7 C13 1_555 1_555
C14 C7 1_555 1_555
C15 C12 1_555 1_555
H8 C15 1_555 1_555
H9 C15 1_555 1_555
H10 C15 1_555 1_555
C16 C3 1_555 1_555
H11 C16 1_555 1_555
C17 C10 1_555 1_555
H12 C17 1_555 1_555
H13 C17 1_555 1_555
H14 C17 1_555 1_555
C18 C13 1_555 1_555
C19 C8 1_555 1_555
H15 C19 1_555 1_555
H16 C19 1_555 1_555
H17 C19 1_555 1_555
Cl1 C18 1_555 1_555
C4 C5 1_555 1_555
C9 C10 1_555 1_555
C9 C12 1_555 1_555
C16 C18 1_555 1_555

#END
