
#######################################################################
#
#                 Cambridge Crystallographic Data Centre
#                                CCDC 
#
#######################################################################
#
# If this CIF has been generated from an entry in the Cambridge 
# Structural Database, then it will include bibliographic, chemical, 
# crystal, experimental, refinement or atomic coordinate data resulting 
# from the CCDC's data processing and validation procedures.
#
#######################################################################

data_YACXAE
_chemical_formula_moiety         'C37 H30 N2 O2 S1'
_chemical_name_systematic        
N-((3,9-diphenyl-1H-pyrrolo[1,2-a]indol-2(3H)-ylidene)methyl)-4-methyl-N-phenylbenzenesulfonamide
_symmetry_cell_setting           monoclinic
_symmetry_space_group_name_H-M   'P 21/c'
_symmetry_Int_Tables_number      14
_space_group_name_Hall           '-P 2ybc'
loop_
_symmetry_equiv_pos_site_id
_symmetry_equiv_pos_as_xyz
1 x,y,z
2 -x,1/2+y,1/2-z
3 -x,-y,-z
4 x,1/2-y,1/2+z
_cell_length_a                   17.0963(19)
_cell_length_b                   5.7666(6)
_cell_length_c                   30.224(3)
_cell_angle_alpha                90
_cell_angle_beta                 96.798(10)
_cell_angle_gamma                90
_cell_volume                     2958.76
_exptl_crystal_colour            colorless
_exptl_crystal_description       needle
_cell_formula_units_Z            4
loop_
_atom_site_label
_atom_site_type_symbol
_atom_site_fract_x
_atom_site_fract_y
_atom_site_fract_z
S1 S 0.57722(4) 0.09328(13) 0.38813(2)
N1 N 0.87897(14) 0.6598(4) 0.38077(7)
O1 O 0.53450(13) -0.0612(4) 0.35742(7)
N2 N 0.64648(14) 0.2087(4) 0.36175(7)
O2 O 0.61552(13) 0.0114(4) 0.42981(7)
C1 C 0.82744(15) 0.5311(4) 0.45062(8)
C2 C 0.94367(16) 0.9453(5) 0.35084(9)
C3 C 0.85139(16) 0.6687(5) 0.33641(9)
C4 C 0.77688(16) 0.3987(4) 0.37187(8)
C5 C 0.71655(16) 0.2903(5) 0.38618(9)
H1 H 0.72089(16) 0.2640(5) 0.41673(9)
C6 C 0.84834(16) 0.4677(5) 0.40500(9)
H2 H 0.88669(16) 0.3406(5) 0.40770(9)
C7 C 0.93622(16) 0.8246(5) 0.39076(9)
C8 C 0.78992(17) 0.4861(5) 0.32595(8)
H3 H 0.74198(17) 0.5511(5) 0.31045(8)
H4 H 0.80866(17) 0.3632(5) 0.30800(8)
C9 C 0.88912(18) 0.8406(5) 0.31560(9)
C10 C 0.7813(2) 0.7216(5) 0.45652(10)
H5 H 0.7654(2) 0.8182(5) 0.43248(10)
C11 C 0.85101(19) 0.3902(5) 0.48668(9)
H6 H 0.88260(19) 0.2618(5) 0.48321(9)
C12 C 0.51332(19) 0.3158(5) 0.39979(9)
C13 C 0.63008(16) 0.2440(4) 0.31425(8)
C14 C 0.57458(19) 0.4644(5) 0.25164(10)
H7 H 0.54521(19) 0.5902(5) 0.23977(10)
C15 C 0.87508(18) 0.9031(5) 0.26810(9)
C16 C 0.97984(18) 0.8751(6) 0.43144(10)
H8 H 0.97345(18) 0.7909(6) 0.45701(10)
C17 C 0.58727(18) 0.4334(5) 0.29737(10)
H9 H 0.56720(18) 0.5388(5) 0.31640(10)
C18 C 0.6052(2) 0.3098(6) 0.22384(10)
H10 H 0.5967(2) 0.3309(6) 0.19314(10)
C19 C 0.66060(19) 0.0895(5) 0.28655(10)
H11 H 0.68928(19) -0.0379(5) 0.29830(10)
C20 C 1.0421(2) 1.1785(6) 0.39367(12)
H12 H 1.0785(2) 1.2989(6) 0.39499(12)
C21 C 0.99855(19) 1.1267(6) 0.35344(11)
H13 H 1.00565(19) 1.2121(6) 0.32812(11)
C22 C 0.8439(3) 1.0178(7) 0.17726(11)
H14 H 0.8335(3) 1.0567(7) 0.14728(11)
C23 C 0.7815(2) 0.6278(7) 0.53327(11)
H15 H 0.7654(2) 0.6597(7) 0.56098(11)
C24 C 0.7585(2) 0.7704(7) 0.49760(11)
H16 H 0.7275(2) 0.8999(7) 0.50129(11)
C25 C 0.8170(2) 0.8128(7) 0.19280(11)
H17 H 0.7879(2) 0.7121(7) 0.17322(11)
C26 C 0.6487(2) 0.1235(6) 0.24133(10)
H18 H 0.6701(2) 0.0201(6) 0.22243(10)
C27 C 0.5351(3) 0.4621(6) 0.43554(11)
H19 H 0.5838(3) 0.4453(6) 0.45253(11)
C28 C 0.4404(2) 0.3414(7) 0.37393(11)
C29 C 1.03292(19) 1.0552(6) 0.43221(11)
H20 H 1.06294(19) 1.0948(6) 0.45883(11)
C30 C 0.9007(2) 1.1081(6) 0.25111(12)
H21 H 0.9288(2) 1.2125(6) 0.27036(12)
C31 C 0.8277(2) 0.4398(6) 0.52799(10)
H22 H 0.8437(2) 0.3446(6) 0.55220(10)
C32 C 0.8860(3) 1.1630(7) 0.20629(13)
H23 H 0.9052(3) 1.3013(7) 0.19598(13)
C33 C 0.4835(4) 0.6326(8) 0.44552(15)
H24 H 0.4983(4) 0.7315(8) 0.46936(15)
C34 C 0.8329(2) 0.7545(6) 0.23745(10)
H25 H 0.8150(2) 0.6134(6) 0.24725(10)
C35 C 0.4107(3) 0.6610(7) 0.42121(18)
C36 C 0.3906(3) 0.5150(8) 0.38547(15)
H26 H 0.3419(3) 0.5338(8) 0.36856(15)
C37 C 0.3564(4) 0.8491(9) 0.4334(2)
H27 H 0.326(2) 0.794(3) 0.4562(13)
H28 H 0.3868(4) 0.982(3) 0.4443(16)
H29 H 0.321(2) 0.892(6) 0.4076(5)
loop_
_geom_bond_atom_site_label_1
_geom_bond_atom_site_label_2
_geom_bond_site_symmetry_1
_geom_bond_site_symmetry_2
S1 O1 1_555 1_555
N1 C3 1_555 1_555
N2 S1 1_555 1_555
O2 S1 1_555 1_555
C1 C6 1_555 1_555
C2 C7 1_555 1_555
C3 C8 1_555 1_555
C4 C5 1_555 1_555
C5 N2 1_555 1_555
H1 C5 1_555 1_555
C6 N1 1_555 1_555
H2 C6 1_555 1_555
C7 N1 1_555 1_555
C8 C4 1_555 1_555
H3 C8 1_555 1_555
H4 C8 1_555 1_555
C9 C2 1_555 1_555
C10 C1 1_555 1_555
H5 C10 1_555 1_555
C11 C1 1_555 1_555
H6 C11 1_555 1_555
C12 S1 1_555 1_555
C13 N2 1_555 1_555
C14 H7 1_555 1_555
C15 C9 1_555 1_555
C16 C7 1_555 1_555
H8 C16 1_555 1_555
C17 C13 1_555 1_555
H9 C17 1_555 1_555
C18 C14 1_555 1_555
H10 C18 1_555 1_555
C19 C13 1_555 1_555
H11 C19 1_555 1_555
C20 H12 1_555 1_555
C21 C2 1_555 1_555
H13 C21 1_555 1_555
C22 H14 1_555 1_555
C23 H15 1_555 1_555
C24 C10 1_555 1_555
H16 C24 1_555 1_555
C25 C22 1_555 1_555
H17 C25 1_555 1_555
C26 C18 1_555 1_555
H18 C26 1_555 1_555
C27 C12 1_555 1_555
H19 C27 1_555 1_555
C28 C12 1_555 1_555
C29 C16 1_555 1_555
H20 C29 1_555 1_555
C30 C15 1_555 1_555
H21 C30 1_555 1_555
C31 C11 1_555 1_555
H22 C31 1_555 1_555
C32 C22 1_555 1_555
H23 C32 1_555 1_555
C33 C27 1_555 1_555
H24 C33 1_555 1_555
C34 C15 1_555 1_555
H25 C34 1_555 1_555
C35 C33 1_555 1_555
C36 C28 1_555 1_555
H26 C36 1_555 1_555
C37 C35 1_555 1_555
H27 C37 1_555 1_555
H28 C37 1_555 1_555
H29 C37 1_555 1_555
C3 C9 1_555 1_555
C4 C6 1_555 1_555
C14 C17 1_555 1_555
C19 C26 1_555 1_555
C20 C21 1_555 1_555
C20 C29 1_555 1_555
C23 C24 1_555 1_555
C23 C31 1_555 1_555
C25 C34 1_555 1_555
C30 C32 1_555 1_555
C35 C36 1_555 1_555

#END
