
#######################################################################
#
#                 Cambridge Crystallographic Data Centre
#                                CCDC 
#
#######################################################################
#
# If this CIF has been generated from an entry in the Cambridge 
# Structural Database, then it will include bibliographic, chemical, 
# crystal, experimental, refinement or atomic coordinate data resulting 
# from the CCDC's data processing and validation procedures.
#
#######################################################################

data_YADDOZ
_chemical_formula_moiety         'C16 H11 Br2 F3'
_chemical_name_systematic        
(1,2-dibromo-4,4,4-trifluoro-3-phenylbut-1-en-1-yl)benzene
_symmetry_cell_setting           triclinic
_symmetry_space_group_name_H-M   'P -1'
_symmetry_Int_Tables_number      2
_space_group_name_Hall           '-P 1'
loop_
_symmetry_equiv_pos_site_id
_symmetry_equiv_pos_as_xyz
1 x,y,z
2 -x,-y,-z
_cell_length_a                   7.1399(2)
_cell_length_b                   9.7404(3)
_cell_length_c                   22.8361(6)
_cell_angle_alpha                97.673(2)
_cell_angle_beta                 97.146(2)
_cell_angle_gamma                106.455(3)
_cell_volume                     1487.32
_exptl_crystal_colour            colorless
_exptl_crystal_description       prism
_cell_formula_units_Z            4
loop_
_atom_site_label
_atom_site_type_symbol
_atom_site_fract_x
_atom_site_fract_y
_atom_site_fract_z
Br1 Br 0.25738(5) 0.35087(4) 0.65531(2)
Br2 Br 0.44697(5) 0.62157(4) 0.58438(2)
F1 F -0.2286(3) 0.4913(2) 0.74658(10)
F2 F 0.0525(3) 0.6521(2) 0.75012(10)
F3 F 0.0413(3) 0.4352(3) 0.76275(10)
C1 C 0.1290(5) 0.4921(3) 0.64224(15)
C2 C -0.2179(5) 0.3208(3) 0.63699(15)
C3 C 0.2030(5) 0.6002(4) 0.61339(16)
C4 C -0.3205(5) 0.3027(4) 0.57949(17)
H1 H -0.2935 0.3790 0.5582
C5 C -0.0680(6) 0.8145(4) 0.52872(18)
H2 H -0.1290 0.8103 0.4898
C6 C -0.0633(6) 0.9264(4) 0.57451(19)
H3 H -0.1216 0.9972 0.5660
C7 C -0.0699(5) 0.4700(4) 0.66327(16)
H4 H -0.1265 0.5399 0.6465
C8 C 0.1102(5) 0.7136(4) 0.60021(17)
C9 C 0.0200(5) 0.7090(4) 0.54217(17)
H5 H 0.0182 0.6345 0.5118
C10 C -0.0499(5) 0.5108(4) 0.73064(17)
C11 C -0.5059(6) 0.0574(4) 0.58407(19)
H6 H -0.6028 -0.0296 0.5666
C12 C -0.2557(6) 0.2034(4) 0.66798(18)
H7 H -0.1834 0.2121 0.7058
C13 C -0.4632(5) 0.1720(4) 0.55324(18)
H8 H -0.5306 0.1615 0.5146
C14 C 0.1149(5) 0.8271(4) 0.64547(18)
H9 H 0.1766 0.8320 0.6844
C15 C -0.4023(6) 0.0736(4) 0.6416(2)
H10 H -0.4311 -0.0029 0.6628
C16 C 0.0270(6) 0.9331(4) 0.63225(19)
H11 H 0.0293 1.0081 0.6624
Br3 Br 0.60143(5) 0.81799(4) 1.03044(2)
Br4 Br 0.81081(5) 0.99517(4) 0.93025(2)
F4 F 0.5541(4) 0.6221(3) 0.81429(12)
F5 F 0.7453(3) 0.8253(3) 0.80043(11)
F6 F 0.4621(3) 0.7293(3) 0.74430(10)
C17 C 0.4749(5) 0.7804(4) 0.94898(16)
C18 C 0.5576(5) 0.8521(4) 0.90831(16)
C19 C 0.3236(6) 1.2133(4) 0.80194(19)
H12 H 0.2947 1.2974 0.7947
C20 C -0.0790(6) 0.6053(5) 0.92569(19)
H13 H -0.1932 0.6336 0.9245
C21 C -0.0935(6) 0.4593(4) 0.91748(18)
H14 H -0.2171 0.3895 0.9112
C22 C 0.2247(5) 0.9749(4) 0.82797(16)
H15 H 0.1279 0.8988 0.8375
C23 C 0.1799(6) 1.0986(4) 0.81612(18)
H16 H 0.0530 1.1051 0.8176
C24 C 0.5566(6) 0.7516(4) 0.80042(18)
C25 C 0.4555(5) 0.8277(4) 0.84389(16)
H17 H 0.3246 0.7579 0.8421
C26 C 0.2773(5) 0.6680(4) 0.93732(16)
C27 C 0.1061(6) 0.7101(4) 0.93571(17)
H18 H 0.1154 0.8083 0.9413
C28 C 0.5557(5) 1.0767(5) 0.81071(18)
H19 H 0.6822 1.0700 0.8086
C29 C 0.0763(6) 0.4168(4) 0.91854(19)
H20 H 0.0660 0.3184 0.9126
C30 C 0.5095(6) 1.2004(5) 0.79879(19)
H21 H 0.6055 1.2758 0.7885
C31 C 0.2615(6) 0.5202(4) 0.92837(18)
H22 H 0.3750 0.4911 0.9290
C32 C 0.4144(5) 0.9632(4) 0.82575(15)
loop_
_geom_bond_atom_site_label_1
_geom_bond_atom_site_label_2
_geom_bond_site_symmetry_1
_geom_bond_site_symmetry_2
Br1 C1 1_555 1_555
Br2 C3 1_555 1_555
F1 C10 1_555 1_555
F2 C10 1_555 1_555
F3 C10 1_555 1_555
C1 C3 1_555 1_555
C2 C4 1_555 1_555
C3 C8 1_555 1_555
C4 H1 1_555 1_555
C5 H2 1_555 1_555
C6 C5 1_555 1_555
H3 C6 1_555 1_555
C7 C1 1_555 1_555
H4 C7 1_555 1_555
C8 C9 1_555 1_555
C9 C5 1_555 1_555
H5 C9 1_555 1_555
C10 C7 1_555 1_555
C11 H6 1_555 1_555
C12 C2 1_555 1_555
H7 C12 1_555 1_555
C13 C4 1_555 1_555
H8 C13 1_555 1_555
C14 C8 1_555 1_555
H9 C14 1_555 1_555
C15 C11 1_555 1_555
H10 C15 1_555 1_555
C16 C6 1_555 1_555
H11 C16 1_555 1_555
Br3 C17 1_555 1_555
Br4 C18 1_555 1_555
F4 C24 1_555 1_555
F5 C24 1_555 1_555
F6 C24 1_555 1_555
C17 C18 1_555 1_555
C18 C25 1_555 1_555
C19 H12 1_555 1_555
C20 H13 1_555 1_555
C21 C20 1_555 1_555
H14 C21 1_555 1_555
C22 H15 1_555 1_555
C23 C19 1_555 1_555
H16 C23 1_555 1_555
C24 C25 1_555 1_555
C25 H17 1_555 1_555
C26 C17 1_555 1_555
C27 C20 1_555 1_555
H18 C27 1_555 1_555
C28 H19 1_555 1_555
C29 C21 1_555 1_555
H20 C29 1_555 1_555
C30 C19 1_555 1_555
H21 C30 1_555 1_555
C31 C26 1_555 1_555
H22 C31 1_555 1_555
C32 C22 1_555 1_555
C2 C7 1_555 1_555
C11 C13 1_555 1_555
C12 C15 1_555 1_555
C14 C16 1_555 1_555
C22 C23 1_555 1_555
C25 C32 1_555 1_555
C26 C27 1_555 1_555
C28 C30 1_555 1_555
C28 C32 1_555 1_555
C29 C31 1_555 1_555

#END
