
#######################################################################
#
#                 Cambridge Crystallographic Data Centre
#                                CCDC 
#
#######################################################################
#
# If this CIF has been generated from an entry in the Cambridge 
# Structural Database, then it will include bibliographic, chemical, 
# crystal, experimental, refinement or atomic coordinate data resulting 
# from the CCDC's data processing and validation procedures.
#
#######################################################################

data_YADFAK
_chemical_compound_source        'From Ascidian Trididemnum sp'
_chemical_formula_moiety         'C20 H14 Br3 N1 O6'
_chemical_name_systematic        
'2,4,6-Tribromophenyl 2-methoxycarbonyl-4,8-dimethoxyquinoline-5-carboxylate'
_symmetry_cell_setting           monoclinic
_symmetry_space_group_name_H-M   'P 21/c'
_symmetry_Int_Tables_number      14
_space_group_name_Hall           '-P 2ybc'
loop_
_symmetry_equiv_pos_site_id
_symmetry_equiv_pos_as_xyz
1 x,y,z
2 -x,1/2+y,1/2-z
3 -x,-y,-z
4 x,1/2-y,1/2+z
_cell_length_a                   15.150(6)
_cell_length_b                   13.643(7)
_cell_length_c                   10.280(3)
_cell_angle_alpha                90
_cell_angle_beta                 105.67(3)
_cell_angle_gamma                90
_cell_volume                     2045.82
_cell_formula_units_Z            4
loop_
_atom_site_label
_atom_site_type_symbol
_atom_site_fract_x
_atom_site_fract_y
_atom_site_fract_z
Br1 Br 0.5020(1) 0.2692(1) 0.0637(1)
Br2 Br 0.7758(1) 0.3896(1) -0.1790(1)
Br3 Br 0.4164(1) 0.5450(1) -0.3656(1)
N1 N -0.0199(1) 0.3708(1) -0.3057(1)
O1 O 0.3859(1) 0.4173(1) -0.1399(1)
O2 O -0.0049(1) 0.3727(1) -0.0427(1)
O3 O -0.1228(1) 0.3804(1) -0.6584(1)
O4 O 0.2147(1) 0.3870(1) -0.4380(1)
O5 O 0.3433(1) 0.2742(1) -0.2496(1)
C1 C 0.0753(1) 0.3697(1) -0.0743(1)
C2 C 0.1488(1) 0.3675(1) -0.2595(1)
C3 C 0.2408(1) 0.3633(1) -0.0244(1)
C4 C 0.0497(1) 0.3770(1) -0.4896(1)
C5 C 0.1367(1) 0.3761(1) -0.4012(1)
C6 C 0.2087(1) 0.3955(1) -0.5774(1)
C7 C 0.4753(1) 0.4078(1) -0.1512(1)
C8 C 0.3248(1) 0.3434(1) -0.1941(1)
C9 C 0.2368(1) 0.3622(1) -0.1585(1)
C10 C 0.5374(1) 0.3438(1) -0.0675(1)
C11 C 0.6280(1) 0.3370(1) -0.0749(1)
C12 C -0.0258(1) 0.3716(1) -0.4356(1)
C13 C -0.1224(1) 0.3670(1) -0.5315(1)
C14 C 0.0671(1) 0.3695(1) -0.2151(1)
C15 C 0.5024(1) 0.4633(1) -0.2444(1)
C16 C -0.2113(1) 0.3761(1) -0.7604(1)
C17 C 0.1609(1) 0.3676(1) 0.0178(1)
C18 C 0.5927(1) 0.4602(1) -0.2498(1)
C19 C 0.0005(1) 0.3812(1) 0.0981(1)
C20 C 0.6545(1) 0.3975(1) -0.1655(1)
O6 O -0.1897(1) 0.3512(1) -0.4949(1)
H1 H 0.2998 0.3596 0.0426
H2 H 0.0406 0.3827 -0.5856
H3 H 0.2691 0.4028 -0.5883
H4 H 0.1801 0.3378 -0.6247
H5 H 0.1721 0.4519 -0.6140
H6 H 0.6717 0.2927 -0.0182
H7 H -0.2037 0.3865 -0.8489
H8 H -0.2374 0.3124 -0.7567
H9 H -0.2516 0.4253 -0.7425
H10 H 0.1664 0.3709 0.1130
H11 H 0.6130 0.5019 -0.3108
H12 H -0.0607 0.3826 0.1076
H13 H 0.0338 0.3269 0.1484
H14 H 0.0316 0.4412 0.1325
loop_
_geom_bond_atom_site_label_1
_geom_bond_atom_site_label_2
_geom_bond_site_symmetry_1
_geom_bond_site_symmetry_2
Br1 C10 1_555 1_555
Br2 C20 1_555 1_555
Br3 C15 1_555 1_555
N1 C12 1_555 1_555
O1 C7 1_555 1_555
O2 C1 1_555 1_555
O3 C13 1_555 1_555
O4 C5 1_555 1_555
O5 C8 1_555 1_555
C1 C14 1_555 1_555
C2 C5 1_555 1_555
C3 C9 1_555 1_555
C4 C5 1_555 1_555
C6 O4 1_555 1_555
C7 C10 1_555 1_555
C8 O1 1_555 1_555
C9 C2 1_555 1_555
C10 C11 1_555 1_555
C11 C20 1_555 1_555
C12 C4 1_555 1_555
C13 C12 1_555 1_555
C14 N1 1_555 1_555
C15 C7 1_555 1_555
C16 O3 1_555 1_555
C17 C1 1_555 1_555
C18 C15 1_555 1_555
C19 O2 1_555 1_555
C20 C18 1_555 1_555
O6 C13 1_555 1_555
H1 C3 1_555 1_555
H2 C4 1_555 1_555
H3 C6 1_555 1_555
H4 C6 1_555 1_555
H5 C6 1_555 1_555
H6 C11 1_555 1_555
H7 C16 1_555 1_555
H8 C16 1_555 1_555
H9 C16 1_555 1_555
H10 C17 1_555 1_555
H11 C18 1_555 1_555
H12 C19 1_555 1_555
H13 C19 1_555 1_555
H14 C19 1_555 1_555
C2 C14 1_555 1_555
C3 C17 1_555 1_555
C8 C9 1_555 1_555

#END
