
#######################################################################
#
#                 Cambridge Crystallographic Data Centre
#                                CCDC 
#
#######################################################################
#
# If this CIF has been generated from an entry in the Cambridge 
# Structural Database, then it will include bibliographic, chemical, 
# crystal, experimental, refinement or atomic coordinate data resulting 
# from the CCDC's data processing and validation procedures.
#
#######################################################################

data_YADHUJ
_chemical_formula_moiety         'C15 H14 O1 S1'
_chemical_name_systematic        1-methyl-4-(2-(phenylsulfinyl)vinyl)benzene
_symmetry_cell_setting           orthorhombic
_symmetry_space_group_name_H-M   'P 21 21 21'
_symmetry_Int_Tables_number      19
_space_group_name_Hall           'P 2ac 2ab'
loop_
_symmetry_equiv_pos_site_id
_symmetry_equiv_pos_as_xyz
1 x,y,z
2 1/2-x,-y,1/2+z
3 -x,1/2+y,1/2-z
4 1/2+x,1/2-y,-z
_cell_length_a                   5.73030(10)
_cell_length_b                   7.7701(2)
_cell_length_c                   27.8613(6)
_cell_angle_alpha                90
_cell_angle_beta                 90
_cell_angle_gamma                90
_cell_volume                     1240.52
_exptl_crystal_colour            colorless
_exptl_crystal_description       needle
_cell_formula_units_Z            4
loop_
_atom_site_label
_atom_site_type_symbol
_atom_site_fract_x
_atom_site_fract_y
_atom_site_fract_z
C1 C 0.2990(7) 1.0799(5) 0.12455(11)
H1 H 0.4607 1.1062 0.1262
C2 C 0.2295(7) 0.9305(5) 0.10671(11)
H2 H 0.0672 0.9061 0.108
C3 C 0.3807(6) 0.7998(4) 0.08521(11)
C4 C 0.3100(7) 0.6277(5) 0.08428(12)
H3 H 0.162 0.5975 0.0971
C5 C 0.4500(7) 0.5004(5) 0.06511(11)
H4 H 0.3975 0.3844 0.0657
C6 C 0.6657(7) 0.5380(4) 0.04493(11)
C7 C 0.8150(7) 0.3993(5) 0.02353(12)
H5 H 0.8116 0.2976 0.0443
H6 H 0.9759 0.4408 0.0206
H7 H 0.7551 0.3689 -0.0083
C8 C 0.7361(6) 0.7110(5) 0.04510(11)
H8 H 0.8812 0.7411 0.0309
C9 C 0.6010(7) 0.8382(5) 0.06520(11)
H9 H 0.6566 0.9534 0.0656
C10 C 0.1738(6) 1.2266(5) 0.20771(11)
C11 C 0.0253(8) 1.1514(5) 0.24053(12)
H10 H -0.1157 1.0983 0.2304
C12 C 0.0875(9) 1.1552(5) 0.28889(13)
H11 H -0.0118 1.1043 0.3122
C13 C 0.2927(9) 1.2327(6) 0.30292(13)
H12 H 0.3333 1.2355 0.336
C14 C 0.4407(8) 1.3066(6) 0.26939(14)
H13 H 0.5826 1.3586 0.2794
C15 C 0.3809(7) 1.3043(5) 0.22118(13)
H14 H 0.4802 1.3552 0.1979
O1 O -0.1441(5) 1.1495(3) 0.14160(9)
S1 S 0.08892(16) 1.23159(11) 0.14537(3)
loop_
_geom_bond_atom_site_label_1
_geom_bond_atom_site_label_2
_geom_bond_site_symmetry_1
_geom_bond_site_symmetry_2
C1 H1 1_555 1_555
C2 C1 1_555 1_555
H2 C2 1_555 1_555
C3 C2 1_555 1_555
C4 C3 1_555 1_555
H3 C4 1_555 1_555
C5 C4 1_555 1_555
H4 C5 1_555 1_555
C6 C5 1_555 1_555
C7 C6 1_555 1_555
H5 C7 1_555 1_555
H6 C7 1_555 1_555
H7 C7 1_555 1_555
C8 C6 1_555 1_555
H8 C8 1_555 1_555
C9 C3 1_555 1_555
H9 C9 1_555 1_555
C10 C11 1_555 1_555
C11 H10 1_555 1_555
C12 C11 1_555 1_555
H11 C12 1_555 1_555
C13 C12 1_555 1_555
H12 C13 1_555 1_555
C14 C13 1_555 1_555
H13 C14 1_555 1_555
C15 C10 1_555 1_555
H14 C15 1_555 1_555
O1 S1 1_555 1_555
S1 C1 1_555 1_555
C8 C9 1_555 1_555
C10 S1 1_555 1_555
C14 C15 1_555 1_555

#END
