
#######################################################################
#
#                 Cambridge Crystallographic Data Centre
#                                CCDC 
#
#######################################################################
#
# If this CIF has been generated from an entry in the Cambridge 
# Structural Database, then it will include bibliographic, chemical, 
# crystal, experimental, refinement or atomic coordinate data resulting 
# from the CCDC's data processing and validation procedures.
#
#######################################################################

data_YADQUP
_chemical_formula_moiety         'C33 H34 O11 S1'
_chemical_name_systematic        
2-O-(6'-O-Benzoyl-5'-deoxy-\a-D-2',3'-anhydroallofuranosyl)-6-O-benzoyl-3-O-tosyl-5-deoxy-1,4-anhydro-D-glucitol
_symmetry_cell_setting           triclinic
_symmetry_space_group_name_H-M   'P 1'
_symmetry_Int_Tables_number      1
_space_group_name_Hall           'P 1'
loop_
_symmetry_equiv_pos_site_id
_symmetry_equiv_pos_as_xyz
1 x,y,z
_cell_length_a                   9.825(1)
_cell_length_b                   12.891(1)
_cell_length_c                   16.621(1)
_cell_angle_alpha                108.83
_cell_angle_beta                 91.86
_cell_angle_gamma                109.16
_cell_volume                     1859.4
_chemical_melting_point          67-68deg.C
_cell_formula_units_Z            2
loop_
_atom_site_label
_atom_site_type_symbol
_atom_site_fract_x
_atom_site_fract_y
_atom_site_fract_z
S1 S 0.9265 0.2020 0.3197
O1 O 1.2236(8) 0.5342(6) 0.5191(5)
O2 O 0.9388(7) 0.5747(6) 0.4743(4)
O3 O 1.0403(7) 0.3114(5) 0.3921(4)
O4 O 1.1593(9) 0.4512(7) 0.7191(5)
O5 O 1.0722(14) 0.2592(9) 0.7085(6)
O6 O 1.0153(9) 0.1434(7) 0.2722(5)
O7 O 0.8311(8) 0.2373(7) 0.2773(5)
O8 O 0.6986(7) 0.4475(6) 0.4393(5)
O9 O 0.7234(9) 0.6479(7) 0.5648(5)
O10 O 0.3591(8) 0.2235(6) 0.3894(5)
O11 O 0.3234(9) 0.0547(7) 0.2833(6)
C1 C 1.1783(12) 0.5737(10) 0.4579(8)
C2 C 1.0132(11) 0.5029(9) 0.4250(7)
C3 C 0.9885(11) 0.3974(9) 0.4545(6)
C4 C 1.1002(12) 0.4516(10) 0.5363(6)
C5 C 1.1501(13) 0.3660(11) 0.5639(7)
C6 C 1.2451(14) 0.4203(13) 0.6505(8)
C7 C 0.3144(12) 0.1057(10) 0.3569(8)
C8 C 0.2558(11) 0.0510(9) 0.4152(8)
C9 C 0.2789(14) 0.1069(11) 0.5058(10)
C10 C 0.2256(17) 0.0539(13) 0.5632(10)
C11 C 0.1400(15) -0.0719(14) 0.5273(11)
C12 C 0.1182(14) -0.1251(12) 0.4392(11)
C13 C 0.1707(13) -0.0693(11) 0.3832(9)
C14 C 1.0847(16) 0.3676(13) 0.7431(8)
C15 C 0.9980(14) 0.4003(11) 0.8158(7)
C16 C 0.9156(19) 0.3179(13) 0.8463(9)
C17 C 0.8383(19) 0.3441(13) 0.9131(10)
C18 C 0.8481(18) 0.4568(17) 0.9448(10)
C19 C 0.9316(16) 0.5424(14) 0.9185(19)
C20 C 1.0064(14) 0.5109(12) 0.8508(8)
C21 C 0.8226(11) 0.1139(8) 0.3735(6)
C22 C 0.8917(12) 0.0748(10) 0.4253(8)
C23 C 0.8078(13) 0.0026(10) 0.4649(8)
C24 C 0.6573(13) -0.0337(9) 0.4527(7)
C25 C 0.5913(13) 0.0052(11) 0.3977(9)
C26 C 0.6746(12) 0.0798(10) 0.3577(8)
C27 C 0.5629(16) -0.1177(11) 0.4922(10)
C28 C 0.7989(11) 0.5507(9) 0.4341(7)
C29 C 0.7455(13) 0.6490(10) 0.4829(8)
C30 C 0.5999(13) 0.5913(10) 0.4970(8)
C31 C 0.5613(11) 0.4635(9) 0.4592(7)
C32 C 0.4481(12) 0.4124(10) 0.3783(8)
C33 C 0.4168(13) 0.2836(11) 0.3305(7)
H1 H 1.196 0.666 0.486
H2 H 1.240 0.561 0.404
H3 H 0.985 0.476 0.355
H4 H 0.877 0.358 0.463
H5 H 1.055 0.497 0.589
H6 H 1.052 0.293 0.565
H7 H 1.207 0.326 0.514
H8 H 1.336 0.498 0.654
H9 H 1.294 0.357 0.662
H10 H 0.346 0.201 0.530
H11 H 0.250 0.109 0.634
H12 H 0.091 -0.128 0.567
H13 H 0.057 -0.220 0.409
H14 H 0.143 -0.114 0.311
H15 H 0.918 0.228 0.818
H16 H 0.765 0.278 0.938
H17 H 0.790 0.482 0.999
H18 H 0.935 0.633 0.948
H19 H 1.076 0.576 0.824
H20 H 1.013 0.101 0.433
H21 H 0.864 -0.026 0.508
H22 H 0.471 -0.024 0.385
H23 H 0.623 0.109 0.313
H24 H 0.524 -0.208 0.447
H25 H 0.469 -0.095 0.512
H26 H 0.633 -0.109 0.548
H27 H 0.800 0.544 0.365
H28 H 0.772 0.730 0.465
H29 H 0.513 0.628 0.496
H30 H 0.518 0.420 0.506
H31 H 0.488 0.464 0.337
H32 H 0.346 0.423 0.395
H33 H 0.517 0.273 0.309
H34 H 0.338 0.254 0.271
S2 S 0.7028(3) 0.6836(3) 0.2422(19)
O12 O 0.6186(8) 0.8100(6) 0.0332(5)
O13 O 0.9546(7) 0.8791(6) 0.0741(5)
O14 O 0.6538(7) 0.7213(6) 0.1676(4)
O15 O 0.5159(8) 0.5308(7) -0.1617(5)
O16 O 0.4251(11) 0.3531(8) -0.1511(6)
O17 O 0.5931(10) 0.6906(8) 0.2971(5)
O18 O 0.8545(8) 0.7474(7) 0.2757(5)
O19 O 1.0871(7) 0.7767(6) 0.1088(5)
O20 O 1.1889(11) 0.8513(9) -0.0182(6)
O21 O 1.2413(8) 0.5833(6) 0.1489(5)
O22 O 1.1384(10) 0.5050(9) 0.2424(6)
C34 C 0.7282(12) 0.9108(10) 0.0970(9)
C35 C 0.8387(12) 0.8658(9) 0.1273(7)
C36 C 0.7524(10) 0.7363(8) 0.1043(6)
C37 C 0.6569(11) 0.7077(9) 0.0190(6)
C38 C 0.5194(11) 0.6006(10) -0.0051(6)
C39 C 0.4375(13) 0.5728(12) -0.0945(8)
C40 C 1.1777(12) 0.4937(11) 0.1740(8)
C41 C 1.1539(11) 0.3773(10) 0.1057(8)
C42 C 1.1834(13) 0.3650(9) 0.0229(8)
C43 C 1.1640(17) 0.2554(12) -0.0379(10)
C44 C 1.1096(16) 0.1575(12) -0.0119(12)
C45 C 1.0787(17) 0.1684(12) 0.0691(13)
C46 C 1.1014(14) 0.2766(13) 0.1288(10)
C47 C 0.4979(13) 0.4182(11) -0.1848(7)
C48 C 0.5762(12) 0.3770(11) -0.2568(7)
C49 C 0.6542(14) 0.4498(11) -0.2985(8)
C50 C 0.7232(14) 0.4057(13) -0.3661(8)
C51 C 0.7189(15) 0.2945(13) -0.3902(8)
C52 C 0.6447(18) 0.2189(13) -0.3503(8)
C53 C 0.5723(16) 0.2589(11) -0.2861(8)
C54 C 0.6798(11) 0.5333(9) 0.1888(7)
C55 C 0.7964(11) 0.5000(9) 0.1889(7)
C56 C 0.7717(13) 0.3826(11) 0.1530(9)
C57 C 0.6351(13) 0.2996(10) 0.1157(8)
C58 C 0.5192(13) 0.3392(11) 0.1181(9)
C59 C 0.5394(12) 0.4559(10) 0.1554(8)
C60 C 0.6086(17) 0.1683(12) 0.0790(11)
C61 C 1.0896(11) 0.8899(9) 0.1149(8)
C62 C 1.2070(13) 0.9329(12) 0.0631(11)
C63 C 1.2912(13) 0.8541(11) 0.0465(9)
C64 C 1.2247(12) 0.7644(9) 0.0856(7)
C65 C 1.3254(12) 0.7830(9) 0.1648(7)
C66 C 1.2593(13) 0.6968(10) 0.2096(7)
H35 H 0.779 0.978 0.070
H36 H 0.676 0.950 0.151
H37 H 0.881 0.910 0.198
H38 H 0.823 0.683 0.097
H39 H 0.722 0.697 -0.033
H40 H 0.551 0.525 -0.006
H41 H 0.452 0.613 0.045
H42 H 0.422 0.652 -0.099
H43 H 0.326 0.507 -0.105
H44 H 1.224 0.446 0.007
H45 H 1.193 0.247 -0.105
H46 H 1.080 0.064 -0.056
H47 H 1.035 0.090 0.090
H48 H 1.087 0.291 0.200
H49 H 0.668 0.543 -0.275
H50 H 0.783 0.461 -0.400
H51 H 0.774 0.260 -0.445
H52 H 0.645 0.129 -0.371
H53 H 0.514 0.200 -0.254
H54 H 0.908 0.564 0.216
H55 H 0.863 0.351 0.153
H56 H 0.409 0.274 0.089
H57 H 0.446 0.484 0.161
H58 H 0.637 0.142 0.132
H59 H 0.683 0.155 0.033
H60 H 0.496 0.123 0.050
H61 H 1.114 0.950 0.183
H62 H 1.264 1.029 0.081
H63 H 1.411 0.887 0.047
H64 H 1.204 0.675 0.039
H65 H 1.429 0.775 0.146
H66 H 1.352 0.874 0.209
H67 H 1.155 0.701 0.228
H68 H 1.331 0.716 0.269
loop_
_geom_bond_atom_site_label_1
_geom_bond_atom_site_label_2
_geom_bond_site_symmetry_1
_geom_bond_site_symmetry_2
S1 O3 1_555 1_555
O1 C1 1_555 1_555
O2 C2 1_555 1_555
O3 C3 1_555 1_555
O4 C6 1_555 1_555
O5 C14 1_555 1_555
O6 S1 1_555 1_555
O7 S1 1_555 1_555
O8 C28 1_555 1_555
O9 C29 1_555 1_555
O10 C7 1_555 1_555
O11 C7 1_555 1_555
C1 C2 1_555 1_555
C2 C3 1_555 1_555
C3 C4 1_555 1_555
C4 O1 1_555 1_555
C5 C4 1_555 1_555
C6 C5 1_555 1_555
C7 C8 1_555 1_555
C8 C9 1_555 1_555
C9 C10 1_555 1_555
C10 C11 1_555 1_555
C11 C12 1_555 1_555
C12 C13 1_555 1_555
C13 C8 1_555 1_555
C14 O4 1_555 1_555
C15 C14 1_555 1_555
C16 C15 1_555 1_555
C17 C16 1_555 1_555
C18 C17 1_555 1_555
C19 C18 1_555 1_555
C20 C15 1_555 1_555
C21 S1 1_555 1_555
C22 C21 1_555 1_555
C23 C22 1_555 1_555
C24 C23 1_555 1_555
C25 C24 1_555 1_555
C26 C21 1_555 1_555
C27 C24 1_555 1_555
C28 O2 1_555 1_555
C29 C28 1_555 1_555
C30 O9 1_555 1_555
C31 O8 1_555 1_555
C32 C31 1_555 1_555
C33 O10 1_555 1_555
S2 O14 1_555 1_555
O12 C34 1_555 1_555
O13 C35 1_555 1_555
O14 C36 1_555 1_555
O15 C39 1_555 1_555
O16 C47 1_555 1_555
O17 S2 1_555 1_555
O18 S2 1_555 1_555
O19 C61 1_555 1_555
O20 C62 1_555 1_555
O21 C40 1_555 1_555
O22 C40 1_555 1_555
C34 C35 1_555 1_555
C35 C36 1_555 1_555
C36 C37 1_555 1_555
C37 O12 1_555 1_555
C38 C37 1_555 1_555
C39 C38 1_555 1_555
C40 C41 1_555 1_555
C41 C42 1_555 1_555
C42 C43 1_555 1_555
C43 C44 1_555 1_555
C44 C45 1_555 1_555
C45 C46 1_555 1_555
C46 C41 1_555 1_555
C47 O15 1_555 1_555
C48 C47 1_555 1_555
C49 C48 1_555 1_555
C50 C49 1_555 1_555
C51 C50 1_555 1_555
C52 C51 1_555 1_555
C53 C48 1_555 1_555
C54 S2 1_555 1_555
C55 C54 1_555 1_555
C56 C55 1_555 1_555
C57 C56 1_555 1_555
C58 C57 1_555 1_555
C59 C54 1_555 1_555
C60 C57 1_555 1_555
C61 O13 1_555 1_555
C62 C61 1_555 1_555
C63 O20 1_555 1_555
C64 O19 1_555 1_555
C65 C64 1_555 1_555
C66 O21 1_555 1_555
H1 C1 1_555 1_555
H2 C1 1_555 1_555
H3 C2 1_555 1_555
H4 C3 1_555 1_555
H5 C4 1_555 1_555
H6 C5 1_555 1_555
H7 C5 1_555 1_555
H8 C6 1_555 1_555
H9 C6 1_555 1_555
H10 C9 1_555 1_555
H11 C10 1_555 1_555
H12 C11 1_555 1_555
H13 C12 1_555 1_555
H14 C13 1_555 1_555
H15 C16 1_555 1_555
H16 C17 1_555 1_555
H17 C18 1_555 1_555
H18 C19 1_555 1_555
H19 C20 1_555 1_555
H20 C22 1_555 1_555
H21 C23 1_555 1_555
H22 C25 1_555 1_555
H23 C26 1_555 1_555
H24 C27 1_555 1_555
H25 C27 1_555 1_555
H26 C27 1_555 1_555
H27 C28 1_555 1_555
H28 C29 1_555 1_555
H29 C30 1_555 1_555
H30 C31 1_555 1_555
H31 C32 1_555 1_555
H32 C32 1_555 1_555
H33 C33 1_555 1_555
H34 C33 1_555 1_555
H35 C34 1_555 1_555
H36 C34 1_555 1_555
H37 C35 1_555 1_555
H38 C36 1_555 1_555
H39 C37 1_555 1_555
H40 C38 1_555 1_555
H41 C38 1_555 1_555
H42 C39 1_555 1_555
H43 C39 1_555 1_555
H44 C42 1_555 1_555
H45 C43 1_555 1_555
H46 C44 1_555 1_555
H47 C45 1_555 1_555
H48 C46 1_555 1_555
H49 C49 1_555 1_555
H50 C50 1_555 1_555
H51 C51 1_555 1_555
H52 C52 1_555 1_555
H53 C53 1_555 1_555
H54 C55 1_555 1_555
H55 C56 1_555 1_555
H56 C58 1_555 1_555
H57 C59 1_555 1_555
H58 C60 1_555 1_555
H59 C60 1_555 1_555
H60 C60 1_555 1_555
H61 C61 1_555 1_555
H62 C62 1_555 1_555
H63 C63 1_555 1_555
H64 C64 1_555 1_555
H65 C65 1_555 1_555
H66 C65 1_555 1_555
H67 C66 1_555 1_555
H68 C66 1_555 1_555
C19 C20 1_555 1_555
C25 C26 1_555 1_555
C29 C30 1_555 1_555
C30 C31 1_555 1_555
C32 C33 1_555 1_555
C52 C53 1_555 1_555
C58 C59 1_555 1_555
C62 C63 1_555 1_555
C63 C64 1_555 1_555
C65 C66 1_555 1_555

#END
