
#######################################################################
#
#                 Cambridge Crystallographic Data Centre
#                                CCDC 
#
#######################################################################
#
# If this CIF has been generated from an entry in the Cambridge 
# Structural Database, then it will include bibliographic, chemical, 
# crystal, experimental, refinement or atomic coordinate data resulting 
# from the CCDC's data processing and validation procedures.
#
#######################################################################

data_YADQOJ
_chemical_formula_moiety         'C23 H26 O8 S1'
_chemical_name_systematic        
5-O-Benzoyl-1,2-O-isopropylidene-3-O-tosyl-6-deoxy-\a-D-glucofuranose
_symmetry_cell_setting           orthorhombic
_symmetry_space_group_name_H-M   'P 21 21 21'
_symmetry_Int_Tables_number      19
_space_group_name_Hall           'P 2ac 2ab'
loop_
_symmetry_equiv_pos_site_id
_symmetry_equiv_pos_as_xyz
1 x,y,z
2 1/2-x,-y,1/2+z
3 1/2+x,1/2-y,-z
4 -x,1/2+y,1/2-z
_cell_length_a                   8.012(1)
_cell_length_b                   10.692(1)
_cell_length_c                   27.606(1)
_cell_angle_alpha                90
_cell_angle_beta                 90
_cell_angle_gamma                90
_cell_volume                     2364.85
_chemical_melting_point          123-124deg.C
_cell_formula_units_Z            4
_exptl_crystal_recrystallization_method 'petroleum ether/ethyl acetate(8:1)'
loop_
_atom_site_label
_atom_site_type_symbol
_atom_site_fract_x
_atom_site_fract_y
_atom_site_fract_z
S1 S 0.4529(1) 0.1504(1) 0.1250(1)
O1 O 0.0223(4) 0.2830(3) 0.0295(1)
O2 O -0.0743(6) 0.1074(4) -0.0083(1)
O3 O 0.0342(5) -0.0122(3) 0.0509(1)
O4 O 0.3082(3) 0.2265(3) 0.0986(1)
O5 O 0.6022(4) 0.2137(4) 0.1104(1)
O6 O 0.4300(5) 0.0196(3) 0.1159(1)
O7 O 0.0353(4) 0.3668(3) 0.1561(1)
O8 O 0.2233(5) 0.5185(3) 0.1706(1)
C1 C 0.0682(6) 0.1718(5) 0.0066(1)
C2 C 0.1501(6) 0.0881(5) 0.0447(1)
C3 C 0.1479(5) 0.1651(4) 0.0918(1)
C4 C 0.0166(5) 0.2660(4) 0.0815(1)
C5 C 0.0486(6) 0.3907(4) 0.1039(1)
C6 C -0.0848(7) 0.4865(5) 0.0904(1)
C7 C 0.1277(5) 0.4407(4) 0.1854(1)
C8 C 0.0918(5) 0.4161(4) 0.2373(1)
C9 C 0.1707(6) 0.4920(5) 0.2718(1)
C10 C 0.1377(7) 0.4724(5) 0.3208(1)
C11 C 0.0293(7) 0.3813(5) 0.3351(1)
C12 C -0.0506(7) 0.3056(4) 0.3011(1)
C13 C -0.0179(6) 0.3237(4) 0.2518(1)
C14 C 0.4248(5) 0.1774(4) 0.1874(1)
C15 C 0.5119(6) 0.2716(4) 0.2097(1)
C16 C 0.5065(6) 0.2811(4) 0.2601(1)
C17 C 0.4155(5) 0.1973(4) 0.2876(1)
C18 C 0.3226(5) 0.1071(4) 0.2642(1)
C19 C 0.3273(5) 0.0943(4) 0.2140(1)
C20 C 0.4219(7) 0.2042(5) 0.3426(1)
C21 C -0.0763(6) -0.0156(5) 0.0102(1)
C22 C -0.2478(8) -0.0430(6) 0.0283(2)
C23 C -0.0143(9) -0.1088(7) -0.0270(2)
H1 H 0.156 0.188 -0.024
H2 H 0.276 0.057 0.035
H3 H 0.114 0.107 0.123
H4 H -0.106 0.232 0.093
H5 H 0.173 0.426 0.094
H6 H 0.257 0.566 0.260
H7 H 0.197 0.535 0.347
H8 H 0.004 0.367 0.374
H9 H -0.140 0.233 0.313
H10 H -0.080 0.265 0.224
H11 H 0.584 0.338 0.188
H12 H 0.576 0.358 0.278
H13 H 0.241 0.044 0.285
H14 H 0.260 0.019 0.196
H15 H -0.211 0.446 0.097
H16 H -0.082 0.512 0.052
H17 H -0.067 0.565 0.113
H18 H 0.375 0.117 0.358
H19 H 0.342 0.280 0.355
H20 H 0.549 0.220 0.352
H21 H -0.256 -0.137 0.045
H22 H -0.341 -0.043 -0.001
H23 H -0.277 0.027 0.054
H24 H -0.011 -0.058 -0.063
H25 H -0.099 -0.185 -0.032
H26 H 0.107 -0.134 -0.017
loop_
_geom_bond_atom_site_label_1
_geom_bond_atom_site_label_2
_geom_bond_site_symmetry_1
_geom_bond_site_symmetry_2
S1 O4 1_555 1_555
O1 C1 1_555 1_555
O2 C1 1_555 1_555
O3 C2 1_555 1_555
O4 C3 1_555 1_555
O5 S1 1_555 1_555
O6 S1 1_555 1_555
O7 C5 1_555 1_555
O8 C7 1_555 1_555
C1 C2 1_555 1_555
C2 C3 1_555 1_555
C3 C4 1_555 1_555
C4 O1 1_555 1_555
C5 C4 1_555 1_555
C6 C5 1_555 1_555
C7 O7 1_555 1_555
C8 C7 1_555 1_555
C9 C8 1_555 1_555
C10 C9 1_555 1_555
C11 C10 1_555 1_555
C12 C11 1_555 1_555
C13 C8 1_555 1_555
C14 S1 1_555 1_555
C15 C14 1_555 1_555
C16 C15 1_555 1_555
C17 C16 1_555 1_555
C18 C17 1_555 1_555
C19 C14 1_555 1_555
C20 C17 1_555 1_555
C21 O2 1_555 1_555
C22 C21 1_555 1_555
C23 C21 1_555 1_555
H1 C1 1_555 1_555
H2 C2 1_555 1_555
H3 C3 1_555 1_555
H4 C4 1_555 1_555
H5 C5 1_555 1_555
H6 C9 1_555 1_555
H7 C10 1_555 1_555
H8 C11 1_555 1_555
H9 C12 1_555 1_555
H10 C13 1_555 1_555
H11 C15 1_555 1_555
H12 C16 1_555 1_555
H13 C18 1_555 1_555
H14 C19 1_555 1_555
H15 C6 1_555 1_555
H16 C6 1_555 1_555
H17 C6 1_555 1_555
H18 C20 1_555 1_555
H19 C20 1_555 1_555
H20 C20 1_555 1_555
H21 C22 1_555 1_555
H22 C22 1_555 1_555
H23 C22 1_555 1_555
H24 C23 1_555 1_555
H25 C23 1_555 1_555
H26 C23 1_555 1_555
O3 C21 1_555 1_555
C12 C13 1_555 1_555
C18 C19 1_555 1_555

#END
