
#######################################################################
#
#                 Cambridge Crystallographic Data Centre
#                                CCDC 
#
#######################################################################
#
# If this CIF has been generated from an entry in the Cambridge 
# Structural Database, then it will include bibliographic, chemical, 
# crystal, experimental, refinement or atomic coordinate data resulting 
# from the CCDC's data processing and validation procedures.
#
#######################################################################

data_YAFBEP
_chemical_formula_moiety         
'C108 H122 Mg1 N2 Na1 O4 1-,C16 H32 Na1 O4 1+,2(C4 H8 O1)'
_chemical_name_systematic        
'tetrakis(tetrahydrofuran)-sodium bis(\m-2-(((2,6-bis(diphenylmethyl)-4-isopropylphenyl)amino)methyl)-4,6-di-tert-butylphenolato)-bis(tetrahydrofuran)-magnesium-sodium tetrahydrofuran solvate'
_symmetry_cell_setting           monoclinic
_symmetry_space_group_name_H-M   'C c'
_symmetry_Int_Tables_number      9
_space_group_name_Hall           'C -2yc'
loop_
_symmetry_equiv_pos_site_id
_symmetry_equiv_pos_as_xyz
1 x,y,z
2 x,-y,1/2+z
3 1/2+x,1/2+y,z
4 1/2+x,1/2-y,1/2+z
_cell_length_a                   30.7838(11)
_cell_length_b                   14.2484(5)
_cell_length_c                   27.4639(11)
_cell_angle_alpha                90
_cell_angle_beta                 105.0786(12)
_cell_angle_gamma                90
_cell_volume                     11631.5
_exptl_crystal_colour            'light colorless'
_exptl_crystal_description       block
_cell_formula_units_Z            4
loop_
_atom_site_label
_atom_site_type_symbol
_atom_site_fract_x
_atom_site_fract_y
_atom_site_fract_z
Mg1 Mg 0.50377(6) 1.00979(10) 0.52154(7)
Na1 Na 0.50528(8) 1.22616(12) 0.52256(9)
O1 O 0.55365(11) 1.1015(2) 0.54264(14)
O2 O 0.45461(11) 1.1036(2) 0.50503(14)
O3 O 0.50503(13) 1.3466(2) 0.57742(16)
O4 O 0.50320(14) 1.3257(3) 0.45719(16)
N1 N 0.51411(13) 0.9550(3) 0.59119(16)
N2 N 0.49345(13) 0.9672(3) 0.44905(16)
C1 C 0.57978(16) 1.1148(3) 0.5895(2)
C2 C 0.62222(16) 1.1611(3) 0.5984(2)
C3 C 0.64589(17) 1.1804(3) 0.6477(2)
H1 H 0.6741 1.2114 0.6530
C4 C 0.63109(17) 1.1573(3) 0.6899(2)
C5 C 0.59009(16) 1.1079(3) 0.6799(2)
H2 H 0.5792 1.0879 0.7075
C6 C 0.56504(16) 1.0872(3) 0.6318(2)
C7 C 0.51940(17) 1.0390(3) 0.6235(2)
H3 H 0.4988(11) 1.090(2) 0.6088(17)
H4 H 0.5167(14) 1.024(3) 0.6572(8)
C8 C 0.50607(16) 0.8721(3) 0.6145(2)
C9 C 0.53492(15) 0.7922(3) 0.6143(2)
C10 C 0.52646(17) 0.7090(3) 0.6364(2)
H5 H 0.5449 0.6564 0.6345
C11 C 0.49256(17) 0.6978(3) 0.6611(2)
C12 C 0.46433(15) 0.7744(3) 0.6599(2)
H6 H 0.4405 0.7690 0.6758
C13 C 0.46945(16) 0.8588(3) 0.6364(2)
C14 C 0.64264(17) 1.1866(4) 0.5543(2)
C15 C 0.6508(2) 1.0965(4) 0.5275(2)
H7 H 0.6221 1.0640 0.5141
H8 H 0.6714 1.0555 0.5514
H9 H 0.6640 1.1125 0.4997
C16 C 0.68841(18) 1.2366(4) 0.5722(2)
H10 H 0.7003 1.2498 0.5431
H11 H 0.7095 1.1962 0.5960
H12 H 0.6845 1.2956 0.5889
C17 C 0.61164(19) 1.2516(4) 0.5162(2)
H13 H 0.5833 1.2192 0.5010
H14 H 0.6263 1.2688 0.4897
H15 H 0.6056 1.3085 0.5334
C18 C 0.65730(18) 1.1826(4) 0.7436(2)
C19 C 0.6905(3) 1.2631(6) 0.7440(3)
H16 H 0.7154 1.2405 0.7309
H17 H 0.7024 1.2858 0.7786
H18 H 0.6750 1.3145 0.7227
C20 C 0.6833(3) 1.0987(5) 0.7698(3)
H19 H 0.6625 1.0466 0.7697
H20 H 0.6985 1.1154 0.8047
H21 H 0.7057 1.0799 0.7521
C21 C 0.6269(2) 1.2174(5) 0.7751(3)
H22 H 0.6097 1.2716 0.7585
H23 H 0.6452 1.2358 0.8085
H24 H 0.6061 1.1672 0.7786
C22 C 0.43284(16) 0.9330(3) 0.6287(2)
H25 H 0.4371 0.9739 0.6007
C23 C 0.43402(16) 0.9988(3) 0.6728(2)
C24 C 0.42105(19) 1.0911(3) 0.6629(2)
H26 H 0.4117 1.1120 0.6290
C25 C 0.4215(2) 1.1538(4) 0.7016(3)
H27 H 0.4122 1.2168 0.6938
C26 C 0.4352(2) 1.1255(4) 0.7508(3)
H28 H 0.4361 1.1690 0.7774
C27 C 0.4476(2) 1.0327(4) 0.7616(2)
H29 H 0.4563 1.0120 0.7956
C28 C 0.44726(19) 0.9698(4) 0.7229(2)
H30 H 0.4562 0.9065 0.7306
C29 C 0.38682(17) 0.8857(3) 0.6086(2)
C30 C 0.37694(18) 0.8498(4) 0.5605(2)
H31 H 0.3976 0.8581 0.5405
C31 C 0.3371(2) 0.8017(5) 0.5408(3)
H32 H 0.3309 0.7773 0.5075
C32 C 0.3068(2) 0.7888(4) 0.5686(3)
H33 H 0.2796 0.7555 0.5550
C33 C 0.31633(19) 0.8248(4) 0.6167(3)
H34 H 0.2955 0.8159 0.6364
C34 C 0.35599(18) 0.8742(4) 0.6369(2)
H35 H 0.3618 0.8997 0.6699
C35 C 0.48726(17) 0.6080(3) 0.6876(2)
H36 H 0.5069 0.5599 0.6775
C36 C 0.5029(2) 0.6190(4) 0.7439(3)
H37 H 0.4862 0.6703 0.7546
H38 H 0.5351 0.6334 0.7537
H39 H 0.4974 0.5605 0.7602
C37 C 0.4396(2) 0.5699(4) 0.6740(3)
H40 H 0.4201 0.6124 0.6869
H41 H 0.4393 0.5077 0.6892
H42 H 0.4285 0.5650 0.6373
C38 C 0.57553(16) 0.8027(3) 0.5938(2)
H43 H 0.5681 0.8535 0.5679
C39 C 0.61654(16) 0.8368(3) 0.6340(2)
C40 C 0.64599(19) 0.8983(4) 0.6215(3)
H44 H 0.6402 0.9216 0.5880
C41 C 0.6846(2) 0.9269(4) 0.6579(3)
H45 H 0.7049 0.9697 0.6489
C42 C 0.6933(2) 0.8938(4) 0.7061(3)
H46 H 0.7199 0.9123 0.7303
C43 C 0.6638(2) 0.8342(5) 0.7194(3)
H47 H 0.6694 0.8121 0.7532
C44 C 0.62528(19) 0.8058(4) 0.6832(2)
H48 H 0.6047 0.7643 0.6926
C45 C 0.58506(16) 0.7154(3) 0.5665(2)
C46 C 0.61960(17) 0.6533(3) 0.5876(2)
H49 H 0.6383 0.6651 0.6204
C47 C 0.62712(19) 0.5741(4) 0.5613(3)
H50 H 0.6506 0.5319 0.5764
C48 C 0.6005(2) 0.5564(4) 0.5133(3)
H51 H 0.6059 0.5029 0.4951
C49 C 0.5658(2) 0.6180(4) 0.4919(2)
H52 H 0.5471 0.6066 0.4590
C50 C 0.55864(19) 0.6956(4) 0.5186(2)
H53 H 0.5347 0.7371 0.5036
C51 C 0.42938(16) 1.1269(3) 0.4595(2)
C52 C 0.38756(16) 1.1751(3) 0.4522(2)
C53 C 0.36536(17) 1.2042(3) 0.4033(2)
H54 H 0.3379 1.2376 0.3991
C54 C 0.38040(16) 1.1880(3) 0.3607(2)
C55 C 0.42050(17) 1.1358(3) 0.3691(2)
H55 H 0.4314 1.1199 0.3408
C56 C 0.44468(15) 1.1067(3) 0.4160(2)
C57 C 0.48985(17) 1.0582(3) 0.4223(2)
H56 H 0.5144(10) 1.101(2) 0.4395(16)
H57 H 0.5006(16) 1.058(3) 0.3915(11)
C58 C 0.50045(16) 0.8904(3) 0.4213(2)
C59 C 0.53687(16) 0.8837(3) 0.3978(2)
C60 C 0.54142(16) 0.8059(3) 0.3697(2)
H58 H 0.5653 0.8052 0.3537
C61 C 0.51349(16) 0.7296(3) 0.3635(2)
C62 C 0.47876(16) 0.7338(3) 0.3883(2)
H59 H 0.4592 0.6814 0.3861
C63 C 0.47215(16) 0.8112(3) 0.4158(2)
C64 C 0.36789(18) 1.1946(4) 0.4971(2)
C65 C 0.32381(19) 1.2518(4) 0.4818(2)
H60 H 0.3017 1.2178 0.4556
H61 H 0.3298 1.3131 0.4687
H62 H 0.3119 1.2607 0.5113
C66 C 0.40023(18) 1.2524(4) 0.5383(2)
H63 H 0.3855 1.2682 0.5648
H64 H 0.4084 1.3103 0.5235
H65 H 0.4274 1.2156 0.5528
C67 C 0.35804(18) 1.1012(4) 0.5194(2)
H66 H 0.3468 1.1131 0.5491
H67 H 0.3857 1.0640 0.5292
H68 H 0.3353 1.0667 0.4941
C68 C 0.35614(17) 1.2232(4) 0.3081(2)
C69 C 0.3894(2) 1.2653(4) 0.2815(2)
H69 H 0.4057 1.3172 0.3016
H70 H 0.3730 1.2887 0.2482
H71 H 0.4109 1.2170 0.2775
C70 C 0.3210(2) 1.2979(5) 0.3106(3)
H72 H 0.2974 1.2698 0.3239
H73 H 0.3077 1.3227 0.2767
H74 H 0.3355 1.3491 0.3328
C71 C 0.3329(2) 1.1409(5) 0.2753(3)
H75 H 0.3543 1.0893 0.2775
H76 H 0.3221 1.1616 0.2402
H77 H 0.3073 1.1194 0.2875
C72 C 0.57446(16) 0.9577(3) 0.4099(2)
H78 H 0.5697 0.9943 0.4392
C73 C 0.61977(16) 0.9078(3) 0.4292(2)
C74 C 0.62780(18) 0.8588(4) 0.4741(2)
H79 H 0.6053 0.8583 0.4921
C75 C 0.66724(19) 0.8107(4) 0.4936(2)
H80 H 0.6719 0.7776 0.5245
C76 C 0.70000(19) 0.8112(4) 0.4676(3)
H81 H 0.7273 0.7780 0.4806
C77 C 0.69344(19) 0.8588(4) 0.4233(3)
H82 H 0.7163 0.8591 0.4058
C78 C 0.65293(17) 0.9077(4) 0.4033(2)
H83 H 0.6483 0.9404 0.3723
C79 C 0.57480(16) 1.0295(3) 0.3688(2)
C80 C 0.59122(18) 1.1187(4) 0.3829(2)
H84 H 0.6020 1.1334 0.4177
C81 C 0.5922(2) 1.1868(4) 0.3473(3)
H85 H 0.6025 1.2482 0.3578
C82 C 0.5781(2) 1.1658(4) 0.2962(3)
H86 H 0.5796 1.2119 0.2717
C83 C 0.5620(2) 1.0774(4) 0.2815(3)
H87 H 0.5522 1.0624 0.2466
C84 C 0.55999(17) 1.0100(4) 0.3173(2)
H88 H 0.5483 0.9495 0.3067
C85 C 0.51903(18) 0.6449(3) 0.3321(2)
H89 H 0.4974 0.5958 0.3370
C86 C 0.5662(2) 0.6033(4) 0.3492(3)
H90 H 0.5882 0.6497 0.3446
H91 H 0.5680 0.5473 0.3291
H92 H 0.5725 0.5861 0.3849
C87 C 0.5074(2) 0.6682(4) 0.2755(2)
H93 H 0.4761 0.6896 0.2644
H94 H 0.5112 0.6119 0.2565
H95 H 0.5274 0.7178 0.2695
C88 C 0.43181(16) 0.8153(3) 0.4390(2)
H96 H 0.4410 0.8565 0.4694
C89 C 0.41988(17) 0.7197(4) 0.4574(2)
C90 C 0.43964(19) 0.6921(4) 0.5069(2)
H97 H 0.4604 0.7329 0.5285
C91 C 0.4297(2) 0.6071(5) 0.5252(3)
H98 H 0.4435 0.5899 0.5592
C92 C 0.4001(3) 0.5475(5) 0.4945(3)
H99 H 0.3929 0.4891 0.5071
C93 C 0.3808(2) 0.5721(4) 0.4452(3)
H100 H 0.3607 0.5297 0.4238
C94 C 0.39003(18) 0.6571(4) 0.4264(2)
H101 H 0.3762 0.6733 0.3923
C95 C 0.39138(17) 0.8612(3) 0.4039(2)
C96 C 0.36353(17) 0.9197(4) 0.4234(2)
H102 H 0.3711 0.9322 0.4586
C97 C 0.32517(19) 0.9599(4) 0.3928(3)
H103 H 0.3070 1.0002 0.4068
C98 C 0.31341(19) 0.9411(4) 0.3416(3)
H104 H 0.2863 0.9657 0.3205
C99 C 0.34101(19) 0.8871(4) 0.3219(3)
H105 H 0.3339 0.8769 0.2865
C100 C 0.37921(18) 0.8468(4) 0.3524(2)
H106 H 0.3976 0.8083 0.3377
C101 C 0.5047(2) 1.3341(4) 0.6289(3)
H107 H 0.4979 1.2680 0.6354
H108 H 0.4818 1.3751 0.6376
C102 C 0.5519(2) 1.3609(4) 0.6595(3)
H109 H 0.5507 1.3971 0.6899
H110 H 0.5706 1.3042 0.6701
C103 C 0.5707(2) 1.4203(4) 0.6240(2)
H111 H 0.5797 1.4831 0.6386
H112 H 0.5971 1.3896 0.6165
C104 C 0.5323(2) 1.4276(4) 0.5772(2)
H113 H 0.5148 1.4856 0.5779
H114 H 0.5437 1.4284 0.5466
C105 C 0.4642(2) 1.3848(5) 0.4432(3)
H115 H 0.4625 1.4253 0.4719
H116 H 0.4366 1.3461 0.4336
C106 C 0.4682(3) 1.4417(5) 0.4011(3)
H117 H 0.4768 1.5069 0.4119
H118 H 0.4396 1.4427 0.3744
C107 C 0.5041(3) 1.3956(6) 0.3828(4)
H119 H 0.4919 1.3751 0.3474
H120 H 0.5289 1.4405 0.3839
C108 C 0.5202(3) 1.3184(5) 0.4130(3)
H121 H 0.5535 1.3184 0.4229
H122 H 0.5097 1.2595 0.3946
Na2 Na 0.25685(9) 0.76714(16) 0.27002(11)
O5 O 0.24510(15) 0.6921(3) 0.34244(17)
O6 O 0.20527(14) 0.8823(3) 0.27271(17)
O7 O 0.26637(15) 0.8363(3) 0.19544(17)
O8 O 0.31048(12) 0.6573(3) 0.26404(17)
C109 C 0.2697(3) 0.7313(6) 0.3908(3)
H123 H 0.3024 0.7301 0.3938
H124 H 0.2604 0.7971 0.3938
C110 C 0.2593(3) 0.6741(6) 0.4302(3)
H125 H 0.2858 0.6366 0.4478
H126 H 0.2502 0.7142 0.4553
C111 C 0.2245(4) 0.6164(8) 0.4064(4)
H127 H 0.1965 0.6374 0.4143
H128 H 0.2309 0.5515 0.4192
C112 C 0.2183(3) 0.6170(5) 0.3535(3)
H129 H 0.1862 0.6270 0.3361
H130 H 0.2280 0.5564 0.3421
C113 C 0.1858(3) 0.8943(7) 0.3136(4)
H131 H 0.2058 0.9321 0.3405
H132 H 0.1808 0.8326 0.3278
C114 C 0.1437(4) 0.9418(11) 0.2942(6)
H133 H 0.1187 0.9012 0.2981
H134 H 0.1431 1.0003 0.3135
C115 C 0.1381(3) 0.9628(8) 0.2438(4)
H135 H 0.1295 1.0295 0.2371
H136 H 0.1145 0.9228 0.2223
C116 C 0.1830(3) 0.9437(5) 0.2336(3)
H137 H 0.1790 0.9138 0.2002
H138 H 0.2002 1.0026 0.2345
C117 C 0.2507(2) 0.7819(5) 0.1497(3)
H139 H 0.2174 0.7830 0.1381
H140 H 0.2608 0.7159 0.1553
C118 C 0.2707(4) 0.8271(5) 0.1123(3)
H141 H 0.2511 0.8194 0.0777
H142 H 0.3007 0.8007 0.1138
C119 C 0.2740(4) 0.9272(6) 0.1277(3)
H143 H 0.2973 0.9603 0.1154
H144 H 0.2448 0.9599 0.1149
C120 C 0.2864(3) 0.9215(5) 0.1825(3)
H145 H 0.3195 0.9195 0.1957
H146 H 0.2748 0.9768 0.1970
C121 C 0.3443(2) 0.6721(5) 0.2373(3)
H147 H 0.3524 0.7393 0.2375
H148 H 0.3335 0.6509 0.2018
C122 C 0.3829(2) 0.6161(5) 0.2643(4)
H149 H 0.4027 0.6532 0.2917
H150 H 0.4005 0.5942 0.2411
C123 C 0.3633(2) 0.5361(5) 0.2850(4)
H151 H 0.3803 0.5238 0.3203
H152 H 0.3640 0.4789 0.2648
C124 C 0.3162(2) 0.5635(5) 0.2825(4)
H153 H 0.2948 0.5210 0.2596
H154 H 0.3106 0.5599 0.3164
O9 O 0.1689(3) 0.9633(7) 0.4234(4)
C125 C 0.1981(6) 0.9085(8) 0.4535(6)
H155 H 0.2143 0.8708 0.4335
H156 H 0.1822 0.8648 0.4709
C126 C 0.2273(5) 0.9587(9) 0.4873(7)
H157 H 0.2583 0.9433 0.4856
H158 H 0.2247 0.9429 0.5215
C127 C 0.2191(3) 1.0576(6) 0.4780(5)
H159 H 0.2074 1.0869 0.5047
H160 H 0.2468 1.0908 0.4759
C128 C 0.1863(4) 1.0585(7) 0.4309(4)
H161 H 0.2001 1.0766 0.4035
H162 H 0.1619 1.1034 0.4315
O10 O 0.78535(18) 0.9639(4) 0.6278(2)
C129 C 0.7684(3) 0.9315(6) 0.5771(3)
H163 H 0.7351 0.9299 0.5677
H164 H 0.7798 0.8677 0.5732
C130 C 0.7848(3) 0.9988(7) 0.5459(3)
H165 H 0.7636 1.0520 0.5359
H166 H 0.7894 0.9685 0.5151
C131 C 0.8279(3) 1.0299(7) 0.5796(4)
H167 H 0.8372 1.0917 0.5693
H168 H 0.8521 0.9836 0.5809
C132 C 0.8156(4) 1.0359(8) 0.6298(4)
H169 H 0.8426 1.0273 0.6584
H170 H 0.8018 1.0973 0.6335
loop_
_geom_bond_atom_site_label_1
_geom_bond_atom_site_label_2
_geom_bond_site_symmetry_1
_geom_bond_site_symmetry_2
Mg1 O1 1_555 1_555
Na1 O1 1_555 1_555
O1 C1 1_555 1_555
O2 Mg1 1_555 1_555
O3 Na1 1_555 1_555
O4 Na1 1_555 1_555
N1 Mg1 1_555 1_555
N2 Mg1 1_555 1_555
C1 C2 1_555 1_555
C2 C3 1_555 1_555
C3 H1 1_555 1_555
C4 C3 1_555 1_555
C5 C4 1_555 1_555
H2 C5 1_555 1_555
C6 C1 1_555 1_555
C7 N1 1_555 1_555
H3 C7 1_555 1_555
H4 C7 1_555 1_555
C8 N1 1_555 1_555
C9 C8 1_555 1_555
C10 C9 1_555 1_555
H5 C10 1_555 1_555
C11 C10 1_555 1_555
C12 C11 1_555 1_555
H6 C12 1_555 1_555
C13 C8 1_555 1_555
C14 C2 1_555 1_555
C15 C14 1_555 1_555
H7 C15 1_555 1_555
H8 C15 1_555 1_555
H9 C15 1_555 1_555
C16 C14 1_555 1_555
H10 C16 1_555 1_555
H11 C16 1_555 1_555
H12 C16 1_555 1_555
C17 C14 1_555 1_555
H13 C17 1_555 1_555
H14 C17 1_555 1_555
H15 C17 1_555 1_555
C18 C4 1_555 1_555
C19 C18 1_555 1_555
H16 C19 1_555 1_555
H17 C19 1_555 1_555
H18 C19 1_555 1_555
C20 C18 1_555 1_555
H19 C20 1_555 1_555
H20 C20 1_555 1_555
H21 C20 1_555 1_555
C21 C18 1_555 1_555
H22 C21 1_555 1_555
H23 C21 1_555 1_555
H24 C21 1_555 1_555
C22 C13 1_555 1_555
H25 C22 1_555 1_555
C23 C22 1_555 1_555
C24 C23 1_555 1_555
H26 C24 1_555 1_555
C25 C24 1_555 1_555
H27 C25 1_555 1_555
C26 C25 1_555 1_555
H28 C26 1_555 1_555
C27 C26 1_555 1_555
H29 C27 1_555 1_555
C28 C23 1_555 1_555
H30 C28 1_555 1_555
C29 C22 1_555 1_555
C30 C29 1_555 1_555
H31 C30 1_555 1_555
C31 C30 1_555 1_555
H32 C31 1_555 1_555
C32 C31 1_555 1_555
H33 C32 1_555 1_555
C33 C32 1_555 1_555
H34 C33 1_555 1_555
C34 C29 1_555 1_555
H35 C34 1_555 1_555
C35 C11 1_555 1_555
H36 C35 1_555 1_555
C36 C35 1_555 1_555
H37 C36 1_555 1_555
H38 C36 1_555 1_555
H39 C36 1_555 1_555
C37 C35 1_555 1_555
H40 C37 1_555 1_555
H41 C37 1_555 1_555
H42 C37 1_555 1_555
C38 C9 1_555 1_555
H43 C38 1_555 1_555
C39 C38 1_555 1_555
C40 C39 1_555 1_555
H44 C40 1_555 1_555
C41 C40 1_555 1_555
H45 C41 1_555 1_555
C42 C41 1_555 1_555
H46 C42 1_555 1_555
C43 C42 1_555 1_555
H47 C43 1_555 1_555
C44 C39 1_555 1_555
H48 C44 1_555 1_555
C45 C38 1_555 1_555
C46 C45 1_555 1_555
H49 C46 1_555 1_555
C47 C46 1_555 1_555
H50 C47 1_555 1_555
C48 C47 1_555 1_555
H51 C48 1_555 1_555
C49 C48 1_555 1_555
H52 C49 1_555 1_555
C50 C45 1_555 1_555
H53 C50 1_555 1_555
C51 O2 1_555 1_555
C52 C51 1_555 1_555
C53 C52 1_555 1_555
H54 C53 1_555 1_555
C54 C53 1_555 1_555
C55 C54 1_555 1_555
H55 C55 1_555 1_555
C56 C51 1_555 1_555
C57 N2 1_555 1_555
H56 C57 1_555 1_555
H57 C57 1_555 1_555
C58 N2 1_555 1_555
C59 C58 1_555 1_555
C60 C59 1_555 1_555
H58 C60 1_555 1_555
C61 C60 1_555 1_555
C62 C61 1_555 1_555
H59 C62 1_555 1_555
C63 C58 1_555 1_555
C64 C52 1_555 1_555
C65 C64 1_555 1_555
H60 C65 1_555 1_555
H61 C65 1_555 1_555
H62 C65 1_555 1_555
C66 C64 1_555 1_555
H63 C66 1_555 1_555
H64 C66 1_555 1_555
H65 C66 1_555 1_555
C67 C64 1_555 1_555
H66 C67 1_555 1_555
H67 C67 1_555 1_555
H68 C67 1_555 1_555
C68 C54 1_555 1_555
C69 C68 1_555 1_555
H69 C69 1_555 1_555
H70 C69 1_555 1_555
H71 C69 1_555 1_555
C70 C68 1_555 1_555
H72 C70 1_555 1_555
H73 C70 1_555 1_555
H74 C70 1_555 1_555
C71 C68 1_555 1_555
H75 C71 1_555 1_555
H76 C71 1_555 1_555
H77 C71 1_555 1_555
C72 C59 1_555 1_555
H78 C72 1_555 1_555
C73 C72 1_555 1_555
C74 C73 1_555 1_555
H79 C74 1_555 1_555
C75 C74 1_555 1_555
H80 C75 1_555 1_555
C76 C75 1_555 1_555
H81 C76 1_555 1_555
C77 C76 1_555 1_555
H82 C77 1_555 1_555
C78 C73 1_555 1_555
H83 C78 1_555 1_555
C79 C72 1_555 1_555
C80 C79 1_555 1_555
H84 C80 1_555 1_555
C81 C80 1_555 1_555
H85 C81 1_555 1_555
C82 C81 1_555 1_555
H86 C82 1_555 1_555
C83 C82 1_555 1_555
H87 C83 1_555 1_555
C84 C79 1_555 1_555
H88 C84 1_555 1_555
C85 C61 1_555 1_555
H89 C85 1_555 1_555
C86 C85 1_555 1_555
H90 C86 1_555 1_555
H91 C86 1_555 1_555
H92 C86 1_555 1_555
C87 C85 1_555 1_555
H93 C87 1_555 1_555
H94 C87 1_555 1_555
H95 C87 1_555 1_555
C88 C63 1_555 1_555
H96 C88 1_555 1_555
C89 C88 1_555 1_555
C90 C89 1_555 1_555
H97 C90 1_555 1_555
C91 C90 1_555 1_555
H98 C91 1_555 1_555
C92 C91 1_555 1_555
H99 C92 1_555 1_555
C93 C92 1_555 1_555
H100 C93 1_555 1_555
C94 C89 1_555 1_555
H101 C94 1_555 1_555
C95 C88 1_555 1_555
C96 C95 1_555 1_555
H102 C96 1_555 1_555
C97 C96 1_555 1_555
H103 C97 1_555 1_555
C98 C97 1_555 1_555
H104 C98 1_555 1_555
C99 C98 1_555 1_555
H105 C99 1_555 1_555
C100 C95 1_555 1_555
H106 C100 1_555 1_555
C101 O3 1_555 1_555
H107 C101 1_555 1_555
H108 C101 1_555 1_555
C102 C101 1_555 1_555
H109 C102 1_555 1_555
H110 C102 1_555 1_555
C103 C102 1_555 1_555
H111 C103 1_555 1_555
H112 C103 1_555 1_555
C104 O3 1_555 1_555
H113 C104 1_555 1_555
H114 C104 1_555 1_555
C105 O4 1_555 1_555
H115 C105 1_555 1_555
H116 C105 1_555 1_555
C106 C105 1_555 1_555
H117 C106 1_555 1_555
H118 C106 1_555 1_555
C107 C106 1_555 1_555
H119 C107 1_555 1_555
H120 C107 1_555 1_555
C108 O4 1_555 1_555
H121 C108 1_555 1_555
H122 C108 1_555 1_555
Na2 O5 1_555 1_555
O5 C109 1_555 1_555
O6 Na2 1_555 1_555
O7 Na2 1_555 1_555
O8 Na2 1_555 1_555
C109 H123 1_555 1_555
H124 C109 1_555 1_555
C110 C109 1_555 1_555
H125 C110 1_555 1_555
H126 C110 1_555 1_555
C111 C110 1_555 1_555
H127 C111 1_555 1_555
H128 C111 1_555 1_555
C112 O5 1_555 1_555
H129 C112 1_555 1_555
H130 C112 1_555 1_555
C113 O6 1_555 1_555
H131 C113 1_555 1_555
H132 C113 1_555 1_555
C114 C113 1_555 1_555
H133 C114 1_555 1_555
H134 C114 1_555 1_555
C115 C114 1_555 1_555
H135 C115 1_555 1_555
H136 C115 1_555 1_555
C116 O6 1_555 1_555
H137 C116 1_555 1_555
H138 C116 1_555 1_555
C117 O7 1_555 1_555
H139 C117 1_555 1_555
H140 C117 1_555 1_555
C118 C117 1_555 1_555
H141 C118 1_555 1_555
H142 C118 1_555 1_555
C119 C118 1_555 1_555
H143 C119 1_555 1_555
H144 C119 1_555 1_555
C120 O7 1_555 1_555
H145 C120 1_555 1_555
H146 C120 1_555 1_555
C121 O8 1_555 1_555
H147 C121 1_555 1_555
H148 C121 1_555 1_555
C122 C121 1_555 1_555
H149 C122 1_555 1_555
H150 C122 1_555 1_555
C123 C122 1_555 1_555
H151 C123 1_555 1_555
H152 C123 1_555 1_555
C124 O8 1_555 1_555
H153 C124 1_555 1_555
H154 C124 1_555 1_555
O9 C125 1_555 1_555
C125 H155 1_555 1_555
H156 C125 1_555 1_555
C126 C125 1_555 1_555
H157 C126 1_555 1_555
H158 C126 1_555 1_555
C127 C126 1_555 1_555
H159 C127 1_555 1_555
H160 C127 1_555 1_555
C128 O9 1_555 1_555
H161 C128 1_555 1_555
H162 C128 1_555 1_555
O10 C129 1_555 1_555
C129 H163 1_555 1_555
H164 C129 1_555 1_555
C130 C129 1_555 1_555
H165 C130 1_555 1_555
H166 C130 1_555 1_555
C131 C130 1_555 1_555
H167 C131 1_555 1_555
H168 C131 1_555 1_555
C132 O10 1_555 1_555
H169 C132 1_555 1_555
H170 C132 1_555 1_555
Na1 O2 1_555 1_555
C5 C6 1_555 1_555
C6 C7 1_555 1_555
C12 C13 1_555 1_555
C27 C28 1_555 1_555
C33 C34 1_555 1_555
C43 C44 1_555 1_555
C49 C50 1_555 1_555
C55 C56 1_555 1_555
C56 C57 1_555 1_555
C62 C63 1_555 1_555
C77 C78 1_555 1_555
C83 C84 1_555 1_555
C93 C94 1_555 1_555
C99 C100 1_555 1_555
C103 C104 1_555 1_555
C107 C108 1_555 1_555
C111 C112 1_555 1_555
C115 C116 1_555 1_555
C119 C120 1_555 1_555
C123 C124 1_555 1_555
C127 C128 1_555 1_555
C131 C132 1_555 1_555

#END
