
#######################################################################
#
#                 Cambridge Crystallographic Data Centre
#                                CCDC 
#
#######################################################################
#
# If this CIF has been generated from an entry in the Cambridge 
# Structural Database, then it will include bibliographic, chemical, 
# crystal, experimental, refinement or atomic coordinate data resulting 
# from the CCDC's data processing and validation procedures.
#
#######################################################################

data_YAFCOY
_chemical_formula_moiety         'C56 H64 O4,2(H2 O1)'
_chemical_name_systematic        
'5,11,17,23-Tetra-t-butyl-25,26,27,28-tetrakis(propargyloxy)calix(4)arene dihydrate'
_symmetry_cell_setting           tetragonal
_symmetry_space_group_name_H-M   'I 41/a'
_symmetry_Int_Tables_number      88
_space_group_name_Hall           '-I 4ad'
loop_
_symmetry_equiv_pos_site_id
_symmetry_equiv_pos_as_xyz
1 x,y,z
2 3/4-y,1/4+x,1/4+z
3 1/2+x,1/2+y,1/2+z
4 1/4-y,3/4+x,3/4+z
5 1/4+y,1/4-x,1/4+z
6 1/2+x,y,1/2-z
7 1/4-y,1/4+x,1/4-z
8 x,1/2+y,-z
9 -x,-y,-z
10 1/4+y,3/4-x,3/4-z
11 1/2-x,1/2-y,1/2-z
12 3/4+y,1/4-x,1/4-z
13 3/4-y,3/4+x,3/4-z
14 1/2-x,-y,1/2+z
15 3/4+y,3/4-x,3/4+z
16 -x,1/2-y,z
_cell_length_a                   20.382(3)
_cell_length_b                   20.382(3)
_cell_length_c                   11.375(1)
_cell_angle_alpha                90
_cell_angle_beta                 90
_cell_angle_gamma                90
_cell_volume                     4725.47
_exptl_crystal_colour            colorless
_exptl_crystal_description       plates
_cell_formula_units_Z            4
loop_
_atom_site_label
_atom_site_type_symbol
_atom_site_fract_x
_atom_site_fract_y
_atom_site_fract_z
C1 C 0.49726(13) 0.42622(12) 0.8934(2)
H1 H 0.4745 0.4479 0.9598
H2 H 0.5161 0.4612 0.8434
C2 C 0.44662(11) 0.38956(11) 0.8220(2)
C3 C 0.43612(12) 0.40465(12) 0.7047(2)
H3 H 0.4610 0.4390 0.6700
C4 C 0.39055(12) 0.37150(12) 0.6359(2)
C5 C 0.35656(12) 0.32060(13) 0.6894(2)
H4 H 0.3264 0.2961 0.6433
C6 C 0.55353(11) 0.38572(12) 0.9431(2)
C7 C 0.40876(12) 0.34015(12) 0.8732(2)
O1 O 0.42021(9) 0.32644(9) 0.99140(16)
C8 C 0.36912(19) 0.34650(15) 1.0703(3)
H5 H 0.3794 0.3295 1.1497
H6 H 0.3275 0.3259 1.0447
C9 C 0.35909(16) 0.41730(16) 1.0784(3)
C10 C 0.34737(18) 0.47343(18) 1.0861(4)
H7 H 0.3379 0.5189 1.0923
C11 C 0.37805(17) 0.38853(16) 0.5069(3)
C12 C 0.42221(17) 0.44300(17) 0.4616(3)
H8 H 0.4135 0.4834 0.5056
H9 H 0.4134 0.4504 0.3780
H10 H 0.4682 0.4303 0.4721
C13 C 0.3889(4) 0.3284(2) 0.4320(3)
H11 H 0.3852 0.3404 0.3488
H12 H 0.3558 0.2953 0.4512
H13 H 0.4327 0.3107 0.4472
C14 C 0.30637(19) 0.4132(2) 0.4950(4)
H14 H 0.3001 0.4519 0.5448
H15 H 0.2761 0.3784 0.5198
H16 H 0.2976 0.4247 0.4129
C6L C 0.36428(12) 0.30353(11) 0.8069(2)
C1L C 0.32378(12) 0.24726(13) 0.8566(2)
H1L H 0.3021 0.2245 0.7902
H2L H 0.2888 0.2661 0.9066
C2L C 0.36044(11) 0.19662(11) 0.9280(2)
C3L C 0.34535(12) 0.18612(12) 1.0453(2)
H3L H 0.3110 0.2110 1.0800
C4L C 0.37850(12) 0.14055(12) 1.1141(2)
C5L C 0.42940(13) 0.10656(12) 1.0606(2)
H4L H 0.4539 0.0764 1.1067
C6O C 0.44647(11) 0.11428(12) 0.9431(2)
C1O C 0.50274(13) 0.07378(12) 0.8934(2)
H1O H 0.5255 0.0521 0.9598
H2O H 0.4839 0.0388 0.8434
C2O C 0.55338(11) 0.11044(11) 0.8220(2)
C3O C 0.56388(12) 0.09535(12) 0.7047(2)
H3O H 0.5390 0.0610 0.6700
C4O C 0.60945(12) 0.12850(12) 0.6359(2)
C5O C 0.64344(12) 0.17940(13) 0.6894(2)
H4O H 0.6736 0.2039 0.6433
C6I C 0.63572(12) 0.19647(11) 0.8069(2)
C1I C 0.67622(12) 0.25274(13) 0.8566(2)
H1I H 0.6979 0.2755 0.7902
H2I H 0.7112 0.2339 0.9066
C2I C 0.63956(11) 0.30338(11) 0.9280(2)
C3I C 0.65465(12) 0.31388(12) 1.0453(2)
H3I H 0.6890 0.2890 1.0800
C4I C 0.62150(12) 0.35945(12) 1.1141(2)
C5I C 0.57060(13) 0.39344(12) 1.0606(2)
H4I H 0.5461 0.4236 1.1067
C7I C 0.59015(12) 0.34124(12) 0.8768(2)
O1I O 0.57644(9) 0.32979(9) 0.75860(16)
C8I C 0.59650(15) 0.38088(19) 0.6797(3)
H5I H 0.5795 0.3706 0.6003
H6I H 0.5759 0.4225 0.7053
C9I C 0.66730(16) 0.39091(16) 0.6716(3)
C10I C 0.72343(18) 0.40263(18) 0.6639(4)
H7I H 0.7689 0.4121 0.6577
C11I C 0.63853(16) 0.37195(17) 1.2431(3)
C12I C 0.69300(17) 0.32779(17) 1.2884(3)
H8I H 0.7334 0.3365 1.2444
H9I H 0.7004 0.3366 1.3720
H10I H 0.6803 0.2818 1.2779
C13I C 0.5784(2) 0.3611(4) 1.3180(3)
H11I H 0.5904 0.3648 1.4012
H12I H 0.5453 0.3942 1.2988
H13I H 0.5607 0.3173 1.3028
C14I C 0.6632(2) 0.44363(19) 1.2550(4)
H14I H 0.7019 0.4499 1.2052
H15I H 0.6284 0.4739 1.2302
H16I H 0.6747 0.4524 1.3371
C7O C 0.59124(12) 0.15985(12) 0.8732(2)
O1O O 0.57979(9) 0.17356(9) 0.99140(16)
C8O C 0.63088(19) 0.15350(15) 1.0703(3)
H5O H 0.6206 0.1705 1.1497
H6O H 0.6725 0.1741 1.0447
C9O C 0.64091(16) 0.08270(16) 1.0784(3)
C10O C 0.65263(18) 0.02657(18) 1.0861(4)
H7O H 0.6621 -0.0189 1.0923
C11O C 0.62195(17) 0.11147(16) 0.5069(3)
C12O C 0.57779(17) 0.05700(17) 0.4616(3)
H8O H 0.5865 0.0166 0.5056
H9O H 0.5866 0.0496 0.3780
H10O H 0.5318 0.0697 0.4721
C13O C 0.6111(4) 0.1716(2) 0.4320(3)
H11O H 0.6148 0.1596 0.3488
H12O H 0.6442 0.2047 0.4512
H13O H 0.5673 0.1893 0.4472
C14O C 0.69363(19) 0.0868(2) 0.4950(4)
H14O H 0.6999 0.0481 0.5448
H15O H 0.7239 0.1216 0.5198
H16O H 0.7024 0.0753 0.4129
C7L C 0.40985(12) 0.15876(12) 0.8768(2)
O1L O 0.42356(9) 0.17021(9) 0.75860(16)
C8L C 0.40350(15) 0.11912(19) 0.6797(3)
H5L H 0.4205 0.1294 0.6003
H6L H 0.4241 0.0775 0.7053
C9L C 0.33270(16) 0.10909(16) 0.6716(3)
C10L C 0.27657(18) 0.09737(18) 0.6639(4)
H7L H 0.2311 0.0879 0.6577
C11L C 0.36147(16) 0.12805(17) 1.2431(3)
C12L C 0.30700(17) 0.17221(17) 1.2884(3)
H8L H 0.2666 0.1635 1.2444
H9L H 0.2996 0.1634 1.3720
H10L H 0.3197 0.2182 1.2779
C13L C 0.4216(2) 0.1389(4) 1.3180(3)
H11L H 0.4096 0.1352 1.4012
H12L H 0.4547 0.1058 1.2988
H13L H 0.4393 0.1827 1.3028
C14L C 0.3368(2) 0.05637(19) 1.2550(4)
H14L H 0.2981 0.0501 1.2052
H15L H 0.3716 0.0261 1.2302
H16L H 0.3253 0.0476 1.3371
O2 O 0.5000 0.2500 1.157(2)
loop_
_geom_bond_atom_site_label_1
_geom_bond_atom_site_label_2
_geom_bond_site_symmetry_1
_geom_bond_site_symmetry_2
C1 H1 1_555 1_555
H2 C1 1_555 1_555
C2 C1 1_555 1_555
C3 C2 1_555 1_555
H3 C3 1_555 1_555
C4 C3 1_555 1_555
C5 C4 1_555 1_555
H4 C5 1_555 1_555
C6 C1 1_555 1_555
C7 C2 1_555 1_555
O1 C7 1_555 1_555
C8 O1 1_555 1_555
H5 C8 1_555 1_555
H6 C8 1_555 1_555
C9 C8 1_555 1_555
C10 C9 1_555 1_555
H7 C10 1_555 1_555
C11 C4 1_555 1_555
C12 C11 1_555 1_555
H8 C12 1_555 1_555
H9 C12 1_555 1_555
H10 C12 1_555 1_555
C13 C11 1_555 1_555
H11 C13 1_555 1_555
H12 C13 1_555 1_555
H13 C13 1_555 1_555
C14 C11 1_555 1_555
H14 C14 1_555 1_555
H15 C14 1_555 1_555
H16 C14 1_555 1_555
C6L C5 1_555 1_555
C1L C6L 1_555 1_555
H1L C1L 1_555 1_555
H2L C1L 1_555 1_555
C2L C1L 1_555 1_555
C3L C2L 1_555 1_555
H3L C3L 1_555 1_555
C4L C3L 1_555 1_555
C5L C4L 1_555 1_555
H4L C5L 1_555 1_555
C6O C5L 1_555 1_555
C1O C6O 1_555 1_555
H1O C1O 1_555 1_555
H2O C1O 1_555 1_555
C2O C1O 1_555 1_555
C3O C2O 1_555 1_555
H3O C3O 1_555 1_555
C4O C3O 1_555 1_555
C5O C4O 1_555 1_555
H4O C5O 1_555 1_555
C6I C5O 1_555 1_555
C1I C6I 1_555 1_555
H1I C1I 1_555 1_555
H2I C1I 1_555 1_555
C2I C1I 1_555 1_555
C3I C2I 1_555 1_555
H3I C3I 1_555 1_555
C4I C3I 1_555 1_555
C5I C6 1_555 1_555
H4I C5I 1_555 1_555
C7I C6 1_555 1_555
O1I C7I 1_555 1_555
C8I O1I 1_555 1_555
H5I C8I 1_555 1_555
H6I C8I 1_555 1_555
C9I C8I 1_555 1_555
C10I C9I 1_555 1_555
H7I C10I 1_555 1_555
C11I C4I 1_555 1_555
C12I C11I 1_555 1_555
H8I C12I 1_555 1_555
H9I C12I 1_555 1_555
H10I C12I 1_555 1_555
C13I C11I 1_555 1_555
H11I C13I 1_555 1_555
H12I C13I 1_555 1_555
H13I C13I 1_555 1_555
C14I C11I 1_555 1_555
H14I C14I 1_555 1_555
H15I C14I 1_555 1_555
H16I C14I 1_555 1_555
C7O C2O 1_555 1_555
O1O C7O 1_555 1_555
C8O O1O 1_555 1_555
H5O C8O 1_555 1_555
H6O C8O 1_555 1_555
C9O C8O 1_555 1_555
C10O C9O 1_555 1_555
H7O C10O 1_555 1_555
C11O C4O 1_555 1_555
C12O C11O 1_555 1_555
H8O C12O 1_555 1_555
H9O C12O 1_555 1_555
H10O C12O 1_555 1_555
C13O C11O 1_555 1_555
H11O C13O 1_555 1_555
H12O C13O 1_555 1_555
H13O C13O 1_555 1_555
C14O C11O 1_555 1_555
H14O C14O 1_555 1_555
H15O C14O 1_555 1_555
H16O C14O 1_555 1_555
C7L C2L 1_555 1_555
O1L C7L 1_555 1_555
C8L O1L 1_555 1_555
H5L C8L 1_555 1_555
H6L C8L 1_555 1_555
C9L C8L 1_555 1_555
C10L C9L 1_555 1_555
H7L C10L 1_555 1_555
C11L C4L 1_555 1_555
C12L C11L 1_555 1_555
H8L C12L 1_555 1_555
H9L C12L 1_555 1_555
H10L C12L 1_555 1_555
C13L C11L 1_555 1_555
H11L C13L 1_555 1_555
H12L C13L 1_555 1_555
H13L C13L 1_555 1_555
C14L C11L 1_555 1_555
H14L C14L 1_555 1_555
H15L C14L 1_555 1_555
H16L C14L 1_555 1_555
C7 C6L 1_555 1_555
C6O C7L 1_555 1_555
C6I C7O 1_555 1_555
C2I C7I 1_555 1_555
C4I C5I 1_555 1_555

#END
