
#######################################################################
#
#                 Cambridge Crystallographic Data Centre
#                                CCDC 
#
#######################################################################
#
# If this CIF has been generated from an entry in the Cambridge 
# Structural Database, then it will include bibliographic, chemical, 
# crystal, experimental, refinement or atomic coordinate data resulting 
# from the CCDC's data processing and validation procedures.
#
#######################################################################

data_YAFCEO
_chemical_formula_moiety         'C48 H48 N4 O8 S4,4(C2 H6 O1 S1)'
_chemical_name_systematic        
"8',14',26',32'-Tetrathia-7',15',25',33'-tetra-azadispiro(cyclohexane-1,2'-heptacyclo(32.2.2.2^3,6^.2^16,19^.2^21,24^.1^9,13^.1^27,31^)hexatetracontane-20',1''-cyclohexane)-1'(36'),3',5',9'(44'),10',12',16',18',21',23',27'(39'),28',30',34',37',40',42',45'-octadecaene-8',8',14',14',26',26',32',32'-octaoxide dimethylsulfoxide solvate"
_symmetry_cell_setting           triclinic
_symmetry_space_group_name_H-M   'P -1'
_symmetry_Int_Tables_number      2
_space_group_name_Hall           '-P 1'
loop_
_symmetry_equiv_pos_site_id
_symmetry_equiv_pos_as_xyz
1 x,y,z
2 -x,-y,-z
_cell_length_a                   10.965(1)
_cell_length_b                   11.073(1)
_cell_length_c                   13.811(1)
_cell_angle_alpha                85.44(1)
_cell_angle_beta                 75.15(1)
_cell_angle_gamma                72.55(1)
_cell_volume                     1546.26
_exptl_crystal_colour            colorless
_exptl_crystal_description       plates
_cell_formula_units_Z            1
loop_
_atom_site_label
_atom_site_type_symbol
_atom_site_fract_x
_atom_site_fract_y
_atom_site_fract_z
N1 N 0.3168(3) 0.9696(4) 0.7331(3)
H1 H 0.3857 0.9590 0.6840
S1 S 0.33180(11) 0.92400(11) 0.84507(9)
O1 O 0.4675(3) 0.8544(4) 0.8333(3)
O2 O 0.2733(4) 1.0287(3) 0.9117(3)
C1 C 0.2372(4) 0.8169(4) 0.8823(3)
C2 C 0.1274(4) 0.8468(5) 0.9628(3)
H2 H 0.1055 0.9215 0.9981
C3 C 0.0519(5) 0.7656(5) 0.9898(4)
H3 H -0.0227 0.7865 1.0428
C4 C 0.0843(5) 0.6540(5) 0.9400(3)
H4 H 0.0328 0.5990 0.9595
C5 C 0.1953(4) 0.6233(4) 0.8596(3)
C6 C 0.2722(4) 0.7047(4) 0.8302(3)
H5 H 0.3459 0.6847 0.7765
S2 S 0.23170(10) 0.48008(10) 0.79496(7)
O3 O 0.1829(4) 0.3936(3) 0.8651(2)
O4 O 0.3667(3) 0.4481(3) 0.7430(2)
N2 N 0.1416(3) 0.5096(3) 0.7147(2)
H6 H 0.0771 0.4771 0.7266
C7 C 0.1588(4) 0.5842(4) 0.6262(3)
C8 C 0.0499(4) 0.6429(5) 0.5903(3)
H7 H -0.0324 0.6371 0.6262
C9 C 0.0611(4) 0.7106(5) 0.5014(3)
H8 H -0.0146 0.7482 0.4788
C10 C 0.1790(4) 0.7247(4) 0.4451(3)
C11 C 0.2869(4) 0.6671(5) 0.4847(3)
H9 H 0.3688 0.6757 0.4506
C12 C 0.2778(4) 0.5977(5) 0.5726(3)
H10 H 0.3531 0.5598 0.5956
C13 C 0.1961(4) 0.7982(4) 0.3460(3)
C14 C 0.2892(4) 0.7062(5) 0.2617(3)
H11 H 0.3688 0.6605 0.2826
H12 H 0.2465 0.6449 0.2516
C15 C 0.3267(5) 0.7738(7) 0.1628(4)
H13 H 0.3878 0.7123 0.1137
H14 H 0.2483 0.8123 0.1383
C16 C 0.3893(6) 0.8749(7) 0.1736(5)
H15 H 0.4052 0.9199 0.1106
H16 H 0.4734 0.8357 0.1899
C17 C 0.2999(6) 0.9679(6) 0.2556(5)
H17 H 0.2198 1.0140 0.2357
H18 H 0.3441 1.0285 0.2647
C18 C 0.2650(5) 0.8990(5) 0.3542(4)
H19 H 0.2074 0.9605 0.4047
H20 H 0.3450 0.8581 0.3761
C19 C 0.0609(4) 0.8602(4) 0.3227(3)
C20 C 0.0065(4) 0.7973(4) 0.2694(3)
H21 H 0.0543 0.7162 0.2456
C21 C -0.1166(4) 0.8518(4) 0.2508(3)
H22 H -0.1510 0.8069 0.2159
C22 C 0.1880(4) 1.0279(4) 0.7161(3)
C23 C 0.1373(4) 0.9634(4) 0.6620(3)
H23 H 0.1855 0.8824 0.6383
C24 C -0.0142(4) 0.9799(4) 0.3568(3)
H24 H 0.0186 1.0240 0.3936
C22A C -0.1880(4) 0.9721(4) 0.2839(3)
N1A N -0.3168(3) 1.0304(4) 0.2669(3)
H1A H -0.3857 1.0410 0.3160
S1A S -0.33180(11) 1.07600(11) 0.15493(9)
O1A O -0.4675(3) 1.1456(4) 0.1667(3)
O2A O -0.2733(4) 0.9713(3) 0.0883(3)
C1A C -0.2372(4) 1.1831(4) 0.1177(3)
C2A C -0.1274(4) 1.1532(5) 0.0372(3)
H2A H -0.1055 1.0785 0.0019
C3A C -0.0519(5) 1.2344(5) 0.0102(4)
H3A H 0.0227 1.2135 -0.0428
C4A C -0.0843(5) 1.3460(5) 0.0600(3)
H4A H -0.0328 1.4010 0.0405
C5A C -0.1953(4) 1.3767(4) 0.1404(3)
C6A C -0.2722(4) 1.2953(4) 0.1698(3)
H5A H -0.3459 1.3153 0.2235
S2A S -0.23170(10) 1.51992(10) 0.20504(7)
O3A O -0.1829(4) 1.6064(3) 0.1349(2)
O4A O -0.3667(3) 1.5519(3) 0.2570(2)
N2A N -0.1416(3) 1.4904(3) 0.2853(2)
H6A H -0.0771 1.5229 0.2734
C7A C -0.1588(4) 1.4158(4) 0.3738(3)
C8A C -0.0499(4) 1.3571(5) 0.4097(3)
H7A H 0.0324 1.3629 0.3738
C9A C -0.0611(4) 1.2894(5) 0.4986(3)
H8A H 0.0146 1.2518 0.5212
C10A C -0.1790(4) 1.2753(4) 0.5549(3)
C11A C -0.2869(4) 1.3329(5) 0.5153(3)
H9A H -0.3688 1.3243 0.5494
C12A C -0.2778(4) 1.4023(5) 0.4274(3)
H10A H -0.3531 1.4402 0.4044
C13A C -0.1961(4) 1.2018(4) 0.6540(3)
C14A C -0.2892(4) 1.2938(5) 0.7383(3)
H11A H -0.3688 1.3395 0.7174
H12A H -0.2465 1.3551 0.7484
C15A C -0.3267(5) 1.2262(7) 0.8372(4)
H13A H -0.3878 1.2877 0.8863
H14A H -0.2483 1.1877 0.8617
C16A C -0.3893(6) 1.1251(7) 0.8264(5)
H15A H -0.4052 1.0801 0.8894
H16A H -0.4734 1.1643 0.8101
C17A C -0.2999(6) 1.0321(6) 0.7444(5)
H17A H -0.2198 0.9860 0.7643
H18A H -0.3441 0.9715 0.7353
C18A C -0.2650(5) 1.1010(5) 0.6458(4)
C19A C -0.0609(4) 1.1398(4) 0.6773(3)
C20A C -0.0065(4) 1.2027(4) 0.7306(3)
H21A H -0.0543 1.2838 0.7544
C21A C 0.1166(4) 1.1482(4) 0.7492(3)
H22A H 0.1510 1.1931 0.7841
C24A C 0.0142(4) 1.0201(4) 0.6432(3)
H24A H -0.0186 0.9760 0.6064
H19A H -0.2074 1.0395 0.5953
H20A H -0.3450 1.1419 0.6239
C23A C -0.1373(4) 1.0366(4) 0.3380(3)
H23A H -0.1855 1.1176 0.3617
S3 S 0.5807(3) 0.7131(4) 0.53079(19)
O5 O 0.4662(4) 0.7902(6) 0.5912(4)
C25 C 0.6952(10) 0.6399(9) 0.5996(8)
H25 H 0.6538 0.6000 0.6576
H26 H 0.7285 0.7020 0.6203
H27 H 0.7667 0.5772 0.5589
C26 C 0.6650(11) 0.7752(13) 0.4334(6)
H31 H 0.6073 0.8201 0.3922
H32 H 0.7347 0.7089 0.3950
H33 H 0.7019 0.8326 0.4564
S5 S -0.2496(2) 0.6420(3) 0.83890(16)
O6 O -0.1277(4) 0.5460(4) 0.8105(4)
C27 C -0.2504(7) 0.7573(5) 0.9151(5)
H37 H -0.1942 0.8060 0.8786
H38 H -0.2189 0.7186 0.9722
H39 H -0.3386 0.8119 0.9372
C28 C -0.3580(5) 0.5733(7) 0.9280(5)
H43 H -0.3720 0.5055 0.8973
H44 H -0.4408 0.6364 0.9515
H45 H -0.3198 0.5410 0.9835
S4? S 0.6113(4) 0.7809(7) 0.5595(5)
H28? H 0.6708 0.6370 0.6715
H29? H 0.7882 0.6295 0.5770
H30? H 0.6745 0.5730 0.5731
H34? H 0.6178 0.8513 0.4050
H35? H 0.6501 0.7034 0.4088
H36? H 0.7576 0.7676 0.4146
S6? S -0.1927(3) 0.5900(3) 0.90243(18)
H40? H -0.1766 0.7905 0.9052
H41? H -0.3063 0.7790 0.9810
H42? H -0.2994 0.7929 0.8660
H46? H -0.3526 0.4855 0.9250
H47? H -0.4021 0.6201 0.8790
H48? H -0.4065 0.6056 0.9936
loop_
_geom_bond_atom_site_label_1
_geom_bond_atom_site_label_2
_geom_bond_site_symmetry_1
_geom_bond_site_symmetry_2
N1 H1 1_555 1_555
S1 N1 1_555 1_555
O1 S1 1_555 1_555
O2 S1 1_555 1_555
C1 S1 1_555 1_555
C2 C1 1_555 1_555
H2 C2 1_555 1_555
C3 C2 1_555 1_555
H3 C3 1_555 1_555
C4 C3 1_555 1_555
H4 C4 1_555 1_555
C5 C4 1_555 1_555
C6 C1 1_555 1_555
H5 C6 1_555 1_555
S2 C5 1_555 1_555
O3 S2 1_555 1_555
O4 S2 1_555 1_555
N2 S2 1_555 1_555
H6 N2 1_555 1_555
C7 N2 1_555 1_555
C8 C7 1_555 1_555
H7 C8 1_555 1_555
C9 C8 1_555 1_555
H8 C9 1_555 1_555
C10 C9 1_555 1_555
C11 C10 1_555 1_555
H9 C11 1_555 1_555
C12 C7 1_555 1_555
H10 C12 1_555 1_555
C13 C10 1_555 1_555
C14 C13 1_555 1_555
H11 C14 1_555 1_555
H12 C14 1_555 1_555
C15 C14 1_555 1_555
H13 C15 1_555 1_555
H14 C15 1_555 1_555
C16 C15 1_555 1_555
H15 C16 1_555 1_555
H16 C16 1_555 1_555
C17 C16 1_555 1_555
H17 C17 1_555 1_555
H18 C17 1_555 1_555
C18 C13 1_555 1_555
H19 C18 1_555 1_555
H20 C18 1_555 1_555
C19 C13 1_555 1_555
C20 C19 1_555 1_555
H21 C20 1_555 1_555
C21 C20 1_555 1_555
H22 C21 1_555 1_555
C22 N1 1_555 1_555
C23 C22 1_555 1_555
H23 C23 1_555 1_555
C24 C19 1_555 1_555
H24 C24 1_555 1_555
S3 O5 1_555 1_555
C25 S3 1_555 1_555
H25 C25 1_555 1_555
H26 C25 1_555 1_555
H27 C25 1_555 1_555
C26 S3 1_555 1_555
H31 C26 1_555 1_555
H32 C26 1_555 1_555
H33 C26 1_555 1_555
S5 O6 1_555 1_555
C27 S5 1_555 1_555
H37 C27 1_555 1_555
H38 C27 1_555 1_555
H39 C27 1_555 1_555
C28 S5 1_555 1_555
H43 C28 1_555 1_555
H44 C28 1_555 1_555
H45 C28 1_555 1_555
C22A C21 1_555 1_555
N1A C22A 1_555 1_555
H1A N1A 1_555 1_555
S1A N1A 1_555 1_555
O1A S1A 1_555 1_555
O2A S1A 1_555 1_555
C1A S1A 1_555 1_555
C2A C1A 1_555 1_555
H2A C2A 1_555 1_555
C3A C2A 1_555 1_555
H3A C3A 1_555 1_555
C4A C3A 1_555 1_555
H4A C4A 1_555 1_555
C5A C4A 1_555 1_555
C6A C1A 1_555 1_555
H5A C6A 1_555 1_555
S2A C5A 1_555 1_555
O3A S2A 1_555 1_555
O4A S2A 1_555 1_555
N2A S2A 1_555 1_555
H6A N2A 1_555 1_555
C7A N2A 1_555 1_555
C8A C7A 1_555 1_555
H7A C8A 1_555 1_555
C9A C8A 1_555 1_555
H8A C9A 1_555 1_555
C10A C9A 1_555 1_555
C11A C10A 1_555 1_555
H9A C11A 1_555 1_555
C12A C7A 1_555 1_555
H10A C12A 1_555 1_555
C13A C10A 1_555 1_555
C14A C13A 1_555 1_555
H11A C14A 1_555 1_555
H12A C14A 1_555 1_555
C15A C14A 1_555 1_555
H13A C15A 1_555 1_555
H14A C15A 1_555 1_555
C16A C15A 1_555 1_555
H15A C16A 1_555 1_555
H16A C16A 1_555 1_555
C17A C16A 1_555 1_555
H17A C17A 1_555 1_555
H18A C17A 1_555 1_555
C18A C13A 1_555 1_555
C19A C13A 1_555 1_555
C20A C19A 1_555 1_555
H21A C20A 1_555 1_555
C21A C22 1_555 1_555
H22A C21A 1_555 1_555
C24A C23 1_555 1_555
H24A C24A 1_555 1_555
H19A C18A 1_555 1_555
H20A C18A 1_555 1_555
C23A C24 1_555 1_555
H23A C23A 1_555 1_555
C5 C6 1_555 1_555
C11 C12 1_555 1_555
C17 C18 1_555 1_555
C22A C23A 1_555 1_555
C5A C6A 1_555 1_555
C11A C12A 1_555 1_555
C17A C18A 1_555 1_555
C19A C24A 1_555 1_555
C20A C21A 1_555 1_555

#END
