
#######################################################################
#
#                 Cambridge Crystallographic Data Centre
#                                CCDC 
#
#######################################################################
#
# If this CIF has been generated from an entry in the Cambridge 
# Structural Database, then it will include bibliographic, chemical, 
# crystal, experimental, refinement or atomic coordinate data resulting 
# from the CCDC's data processing and validation procedures.
#
#######################################################################

data_YAFDOB
_chemical_formula_moiety         'C32 H20 N2'
_chemical_name_systematic        
(2Z,2'Z)-3,3'-(1,4-phenylene)bis(2-(2-naphthyl)acrylonitrile)
_symmetry_cell_setting           monoclinic
_symmetry_space_group_name_H-M   'C 2/c'
_symmetry_Int_Tables_number      15
_space_group_name_Hall           '-C 2yn'
loop_
_symmetry_equiv_pos_site_id
_symmetry_equiv_pos_as_xyz
1 x,y,z
2 -x,y,1/2-z
3 1/2+x,1/2+y,z
4 1/2-x,1/2+y,1/2-z
5 -x,-y,-z
6 x,-y,1/2+z
7 1/2-x,1/2-y,-z
8 1/2+x,1/2-y,1/2+z
_cell_length_a                   46.530(9)
_cell_length_b                   6.7629(14)
_cell_length_c                   7.2639(15)
_cell_angle_alpha                90
_cell_angle_beta                 97.22(3)
_cell_angle_gamma                90
_cell_volume                     2267.66
_exptl_crystal_colour            green
_exptl_crystal_description       block
_cell_formula_units_Z            4
_chemical_properties_physical    ', Heat-sensitive,Pressure-sensitive'
_exptl_crystal_recrystallization_method Sublimation
_exptl_crystal_preparation       ', Luminescent'
loop_
_atom_site_label
_atom_site_type_symbol
_atom_site_fract_x
_atom_site_fract_y
_atom_site_fract_z
C1 C 0.13866(3) 0.2749(3) 0.2261(2)
C2 C 0.11599(4) 0.4013(3) 0.2404(2)
C3 C 0.08682(4) 0.3449(3) 0.1794(2)
C4 C 0.06335(4) 0.4727(4) 0.1965(3)
C5 C 0.03550(5) 0.4129(5) 0.1379(3)
C6 C 0.02997(5) 0.2249(4) 0.0586(3)
C7 C 0.05234(4) 0.0983(4) 0.0387(3)
C8 C 0.08145(4) 0.1544(3) 0.1003(2)
C9 C 0.10516(4) 0.0283(3) 0.0831(3)
C10 C 0.13285(4) 0.0855(3) 0.1438(3)
C11 C 0.17437(4) 0.5406(3) 0.3154(3)
C12 C 0.16894(4) 0.3325(3) 0.2973(2)
C13 C 0.19015(4) 0.2003(3) 0.3500(3)
C14 C 0.23660(4) 0.4021(3) 0.3938(3)
C15 C 0.22057(3) 0.2331(3) 0.4237(2)
C16 C 0.23471(4) 0.0814(3) 0.5296(3)
H1 H 0.1014(4) -0.109(3) 0.027(3)
H2 H 0.0495(4) -0.039(4) -0.016(3)
H3 H 0.1492(5) -0.004(4) 0.130(3)
H4 H 0.1857(4) 0.061(4) 0.338(3)
H5 H 0.1192(4) 0.531(3) 0.292(3)
H6 H 0.2273(5) 0.508(4) 0.323(3)
H7 H 0.0679(5) 0.611(4) 0.248(3)
H8 H 0.0197(6) 0.510(4) 0.147(3)
H9 H 0.2247(5) -0.040(4) 0.552(3)
H10 H 0.0092(5) 0.185(4) 0.018(3)
N1 N 0.17789(4) 0.7068(3) 0.3301(3)
C1F C 0.36134(3) 0.2251(3) 0.7739(2)
C2F C 0.38401(4) 0.0987(3) 0.7596(2)
C3F C 0.41318(4) 0.1551(3) 0.8206(2)
C4F C 0.43665(4) 0.0273(4) 0.8035(3)
C5F C 0.46450(5) 0.0871(5) 0.8621(3)
C6F C 0.47003(5) 0.2751(4) 0.9414(3)
C7F C 0.44766(4) 0.4017(4) 0.9613(3)
C8F C 0.41855(4) 0.3456(3) 0.8997(2)
C9F C 0.39484(4) 0.4717(3) 0.9169(3)
C10F C 0.36715(4) 0.4145(3) 0.8562(3)
C11F C 0.32563(4) -0.0406(3) 0.6846(3)
C12F C 0.33106(4) 0.1675(3) 0.7027(2)
C13F C 0.30985(4) 0.2997(3) 0.6500(3)
C14F C 0.26340(4) 0.0979(3) 0.6062(3)
C15F C 0.27943(3) 0.2669(3) 0.5763(2)
C16F C 0.26529(4) 0.4186(3) 0.4704(3)
H1F H 0.3986(4) 0.609(3) 0.973(3)
H2F H 0.4505(4) 0.539(4) 1.016(3)
H3F H 0.3508(5) 0.504(4) 0.870(3)
H4F H 0.3143(4) 0.439(4) 0.662(3)
H5F H 0.3808(4) -0.031(3) 0.708(3)
H6F H 0.2727(5) -0.008(4) 0.677(3)
H7F H 0.4321(5) -0.111(4) 0.752(3)
H8F H 0.4803(6) -0.010(4) 0.853(3)
H9F H 0.2753(5) 0.540(4) 0.448(3)
H10F H 0.4908(5) 0.315(4) 0.982(3)
N1F N 0.32211(4) -0.2068(3) 0.6699(3)
loop_
_geom_bond_atom_site_label_1
_geom_bond_atom_site_label_2
_geom_bond_site_symmetry_1
_geom_bond_site_symmetry_2
C1 C2 1_555 1_555
C2 C3 1_555 1_555
C3 C4 1_555 1_555
C4 C5 1_555 1_555
C5 C6 1_555 1_555
C6 C7 1_555 1_555
C7 C8 1_555 1_555
C8 C3 1_555 1_555
C9 C8 1_555 1_555
C10 C1 1_555 1_555
C11 C12 1_555 1_555
C12 C1 1_555 1_555
C13 C12 1_555 1_555
C14 C15 1_555 1_555
C15 C13 1_555 1_555
C16 C15 1_555 1_555
H1 C9 1_555 1_555
H2 C7 1_555 1_555
H3 C10 1_555 1_555
H4 C13 1_555 1_555
H5 C2 1_555 1_555
H6 C14 1_555 1_555
H7 C4 1_555 1_555
H8 C5 1_555 1_555
H9 C16 1_555 1_555
H10 C6 1_555 1_555
N1 C11 1_555 1_555
C1F C2F 1_555 1_555
C2F C3F 1_555 1_555
C3F C4F 1_555 1_555
C4F C5F 1_555 1_555
C5F C6F 1_555 1_555
C6F C7F 1_555 1_555
C7F C8F 1_555 1_555
C8F C3F 1_555 1_555
C9F C8F 1_555 1_555
C10F C1F 1_555 1_555
C11F C12F 1_555 1_555
C12F C1F 1_555 1_555
C13F C12F 1_555 1_555
C14F C16 1_555 1_555
C15F C13F 1_555 1_555
C16F C14 1_555 1_555
H1F C9F 1_555 1_555
H2F C7F 1_555 1_555
H3F C10F 1_555 1_555
H4F C13F 1_555 1_555
H5F C2F 1_555 1_555
H6F C14F 1_555 1_555
H7F C4F 1_555 1_555
H8F C5F 1_555 1_555
H9F C16F 1_555 1_555
H10F C6F 1_555 1_555
N1F C11F 1_555 1_555
C9 C10 1_555 1_555
C9F C10F 1_555 1_555
C14F C15F 1_555 1_555
C15F C16F 1_555 1_555

#END
