
#######################################################################
#
#                 Cambridge Crystallographic Data Centre
#                                CCDC 
#
#######################################################################
#
# If this CIF has been generated from an entry in the Cambridge 
# Structural Database, then it will include bibliographic, chemical, 
# crystal, experimental, refinement or atomic coordinate data resulting 
# from the CCDC's data processing and validation procedures.
#
#######################################################################

data_YAFFOB
_chemical_formula_moiety         'C46 H42 N2 O4 S6'
_chemical_name_systematic        
30,36-bis(p-Toluenesulfonyl)-10,11,24,25-tetrathia-30,36-diazaheptacyclo(18.8.3.3^6,15^.1^3,27^.1^4,8^.1^13,17^.1^18,22^)octatriaconta-1,3(32),4(38),5,7,13(34),14,16,18(33),19,21,27-dodecaene
_symmetry_cell_setting           monoclinic
_symmetry_space_group_name_H-M   'C 2/c'
_symmetry_Int_Tables_number      15
_space_group_name_Hall           '-C 2yn'
loop_
_symmetry_equiv_pos_site_id
_symmetry_equiv_pos_as_xyz
1 x,y,z
2 1/2+x,1/2+y,z
3 x,-y,1/2+z
4 1/2+x,1/2-y,1/2+z
5 -x,-y,-z
6 1/2-x,1/2-y,-z
7 -x,y,1/2-z
8 1/2-x,1/2+y,1/2-z
_cell_length_a                   29.392(6)
_cell_length_b                   22.782(4)
_cell_length_c                   15.129(6)
_cell_angle_alpha                90
_cell_angle_beta                 112.72(2)
_cell_angle_gamma                90
_cell_volume                     9344.41
_exptl_crystal_colour            colorless
_exptl_crystal_description       prisms
_cell_formula_units_Z            8
loop_
_atom_site_label
_atom_site_type_symbol
_atom_site_fract_x
_atom_site_fract_y
_atom_site_fract_z
C1 C 0.2360(4) 0.8007(5) 0.1663(9)
H1 H 0.2342 0.7989 0.1010
H2 H 0.2663 0.8207 0.2050
N1 N 0.2364(3) 0.7422(4) 0.2021(8)
C2 C 0.2487(4) 0.7389(6) 0.3032(10)
H3 H 0.2734 0.7684 0.3350
H4 H 0.2630 0.7008 0.3261
C3 C 0.2030(4) 0.7484(6) 0.3311(9)
C4 C 0.1633(5) 0.7113(5) 0.2875(10)
H5 H 0.1642 0.6814 0.2464
C5 C 0.1219(4) 0.7216(6) 0.3089(10)
C6 C 0.1217(5) 0.7676(6) 0.3703(10)
H6 H 0.0940 0.7729 0.3849
C7 C 0.1602(4) 0.8044(5) 0.4089(9)
C8 C 0.2022(4) 0.7926(5) 0.3892(8)
H7 H 0.2301 0.8158 0.4171
C9 C 0.1580(4) 0.8546(5) 0.4667(9)
C10 C 0.1116(4) 0.8811(6) 0.4529(10)
H8 H 0.0831 0.8639 0.4094
C11 C 0.1071(5) 0.9302(6) 0.4999(10)
C12 C 0.1498(5) 0.9578(6) 0.5587(10)
H9 H 0.1474 0.9925 0.5889
C13 C 0.1968(5) 0.9355(6) 0.5747(9)
C14 C 0.1993(4) 0.8842(5) 0.5282(9)
H10 H 0.2302 0.8687 0.5387
C15 C 0.2407(5) 0.9684(6) 0.6369(9)
H11 H 0.2592 0.9445 0.6924
H12 H 0.2302 1.0037 0.6596
N2 N 0.2748(4) 0.9856(5) 0.5848(9)
C16 C 0.2571(5) 1.0372(7) 0.5226(11)
H13 H 0.2826 1.0497 0.5009
H14 H 0.2515 1.0690 0.5598
C17 C 0.2110(5) 1.0265(6) 0.4378(10)
C18 C 0.1681(6) 1.0602(6) 0.4172(11)
H15 H 0.1692 1.0922 0.4562
C19 C 0.1265(6) 1.0484(6) 0.3453(12)
C20 C 0.1231(5) 1.0032(5) 0.2818(11)
H16 H 0.0941 0.9967 0.2288
C21 C 0.1643(5) 0.9675(5) 0.2990(10)
C22 C 0.2095(5) 0.9788(5) 0.3746(11)
H17 H 0.2373 0.9563 0.3835
C23 C 0.1575(4) 0.9142(6) 0.2327(9)
C24 C 0.1120(4) 0.8885(6) 0.1850(10)
H18 H 0.0848 0.9050 0.1929
C25 C 0.1042(4) 0.8406(6) 0.1272(10)
C26 C 0.1465(5) 0.8135(5) 0.1210(9)
H19 H 0.1426 0.7803 0.0831
C27 C 0.1919(5) 0.8351(6) 0.1690(9)
C28 C 0.1984(4) 0.8856(5) 0.2241(9)
H20 H 0.2299 0.9008 0.2557
C29 C 0.0542(5) 0.8177(6) 0.0750(10)
H21 H 0.0563 0.7881 0.0308
H22 H 0.0344 0.8496 0.0366
S1 S 0.02041(13) 0.78599(19) 0.1418(3)
S2 S 0.03574(16) 0.70044(18) 0.1448(3)
C30 C 0.0753(5) 0.6820(6) 0.2653(10)
H23 H 0.0564 0.6847 0.3055
H24 H 0.0858 0.6416 0.2666
C31 C 0.0579(5) 0.9522(7) 0.4890(12)
H25 H 0.0620 0.9793 0.5410
H26 H 0.0385 0.9193 0.4959
S3 S 0.02336(14) 0.98854(19) 0.3774(3)
S4 S 0.04630(18) 1.07163(19) 0.4015(4)
C32 C 0.0813(5) 1.0876(7) 0.3216(12)
H27 H 0.0595 1.0816 0.2552
H28 H 0.0915 1.1284 0.3291
S5 S 0.33221(14) 0.9839(2) 0.6508(4)
O1 O 0.3569(4) 1.0055(6) 0.5910(9)
O2 O 0.3420(4) 0.9271(5) 0.6952(12)
C33 C 0.3439(5) 1.0352(7) 0.7436(13)
C34 C 0.3532(5) 1.0916(8) 0.7343(13)
H29 H 0.3534 1.1058 0.6768
C35 C 0.3628(6) 1.1295(7) 0.8137(17)
H30 H 0.3697 1.1687 0.8070
C36 C 0.3623(6) 1.1132(11) 0.8927(15)
C37 C 0.3477(9) 1.0513(15) 0.8942(18)
H31 H 0.3438 1.0379 0.9489
C38 C 0.3402(7) 1.0158(9) 0.8275(17)
H32 H 0.3323 0.9770 0.8338
C39 C 0.3755(12) 1.1598(13) 0.9713(16)
H33 H 0.3694 1.1446 1.0250
H34 H 0.3556 1.1941 0.9469
H35 H 0.4097 1.1700 0.9913
S6 S 0.25840(13) 0.68896(15) 0.1566(3)
O3 O 0.2506(4) 0.6349(4) 0.1989(7)
O4 O 0.2393(3) 0.6965(4) 0.0557(6)
C40 C 0.3219(5) 0.6994(6) 0.2022(12)
C41 C 0.3436(6) 0.7360(6) 0.1542(11)
H36 H 0.3250 0.7509 0.0937
C42 C 0.3935(6) 0.7494(7) 0.1997(14)
H37 H 0.4083 0.7727 0.1678
C43 C 0.4209(6) 0.7299(10) 0.2872(14)
C44 C 0.3993(7) 0.6923(9) 0.3314(13)
H38 H 0.4186 0.6760 0.3904
C45 C 0.3514(6) 0.6787(7) 0.2910(13)
H39 H 0.3377 0.6547 0.3240
C46 C 0.4762(5) 0.7498(12) 0.3421(12)
H40 H 0.4964 0.7159 0.3685
H41 H 0.4783 0.7762 0.3929
H42 H 0.4877 0.7692 0.2983
loop_
_geom_bond_atom_site_label_1
_geom_bond_atom_site_label_2
_geom_bond_site_symmetry_1
_geom_bond_site_symmetry_2
C1 H1 1_555 1_555
H2 C1 1_555 1_555
N1 C1 1_555 1_555
C2 N1 1_555 1_555
H3 C2 1_555 1_555
H4 C2 1_555 1_555
C3 C2 1_555 1_555
C4 C3 1_555 1_555
H5 C4 1_555 1_555
C5 C4 1_555 1_555
C6 C5 1_555 1_555
H6 C6 1_555 1_555
C7 C6 1_555 1_555
C8 C3 1_555 1_555
H7 C8 1_555 1_555
C9 C7 1_555 1_555
C10 C9 1_555 1_555
H8 C10 1_555 1_555
C11 C10 1_555 1_555
C12 C11 1_555 1_555
H9 C12 1_555 1_555
C13 C12 1_555 1_555
C14 C9 1_555 1_555
H10 C14 1_555 1_555
C15 C13 1_555 1_555
H11 C15 1_555 1_555
H12 C15 1_555 1_555
N2 C15 1_555 1_555
C16 N2 1_555 1_555
H13 C16 1_555 1_555
H14 C16 1_555 1_555
C17 C16 1_555 1_555
C18 C17 1_555 1_555
H15 C18 1_555 1_555
C19 C18 1_555 1_555
C20 C19 1_555 1_555
H16 C20 1_555 1_555
C21 C20 1_555 1_555
C22 C17 1_555 1_555
H17 C22 1_555 1_555
C23 C21 1_555 1_555
C24 C23 1_555 1_555
H18 C24 1_555 1_555
C25 C24 1_555 1_555
C26 C25 1_555 1_555
H19 C26 1_555 1_555
C27 C1 1_555 1_555
C28 C23 1_555 1_555
H20 C28 1_555 1_555
C29 C25 1_555 1_555
H21 C29 1_555 1_555
H22 C29 1_555 1_555
S1 C29 1_555 1_555
S2 S1 1_555 1_555
C30 C5 1_555 1_555
H23 C30 1_555 1_555
H24 C30 1_555 1_555
C31 C11 1_555 1_555
H25 C31 1_555 1_555
H26 C31 1_555 1_555
S3 C31 1_555 1_555
S4 S3 1_555 1_555
C32 C19 1_555 1_555
H27 C32 1_555 1_555
H28 C32 1_555 1_555
S5 N2 1_555 1_555
O1 S5 1_555 1_555
O2 S5 1_555 1_555
C33 S5 1_555 1_555
C34 C33 1_555 1_555
H29 C34 1_555 1_555
C35 C34 1_555 1_555
H30 C35 1_555 1_555
C36 C35 1_555 1_555
C37 C36 1_555 1_555
H31 C37 1_555 1_555
C38 C33 1_555 1_555
H32 C38 1_555 1_555
C39 C36 1_555 1_555
H33 C39 1_555 1_555
H34 C39 1_555 1_555
H35 C39 1_555 1_555
S6 N1 1_555 1_555
O3 S6 1_555 1_555
O4 S6 1_555 1_555
C40 S6 1_555 1_555
C41 C40 1_555 1_555
H36 C41 1_555 1_555
C42 C41 1_555 1_555
H37 C42 1_555 1_555
C43 C42 1_555 1_555
C44 C43 1_555 1_555
H38 C44 1_555 1_555
C45 C40 1_555 1_555
H39 C45 1_555 1_555
C46 C43 1_555 1_555
H40 C46 1_555 1_555
H41 C46 1_555 1_555
H42 C46 1_555 1_555
C7 C8 1_555 1_555
C13 C14 1_555 1_555
C21 C22 1_555 1_555
C26 C27 1_555 1_555
C27 C28 1_555 1_555
S2 C30 1_555 1_555
S4 C32 1_555 1_555
C37 C38 1_555 1_555
C44 C45 1_555 1_555

#END
