
#######################################################################
#
#                 Cambridge Crystallographic Data Centre
#                                CCDC 
#
#######################################################################
#
# If this CIF has been generated from an entry in the Cambridge 
# Structural Database, then it will include bibliographic, chemical, 
# crystal, experimental, refinement or atomic coordinate data resulting 
# from the CCDC's data processing and validation procedures.
#
#######################################################################

data_YAFFIV
_chemical_formula_moiety         'C66 H68 N4 O12 S4'
_chemical_name_systematic        
"Diethyl 4,4'-(3,6,14,17-tetrakis(p-toluenesulfonyl)-3,6,14,17-tetra-azatricyclo(17.3.1.1^8,12^)tetracosa-1(23),8(24),9,11,19,21-hexaene-10,21-diyl)dibenzoate"
_symmetry_cell_setting           monoclinic
_symmetry_space_group_name_H-M   'C 2/c'
_symmetry_Int_Tables_number      15
_space_group_name_Hall           '-C 2yn'
loop_
_symmetry_equiv_pos_site_id
_symmetry_equiv_pos_as_xyz
1 x,y,z
2 1/2+x,1/2+y,z
3 x,-y,1/2+z
4 1/2+x,1/2-y,1/2+z
5 -x,-y,-z
6 1/2-x,1/2-y,-z
7 -x,y,1/2-z
8 1/2-x,1/2+y,1/2-z
_cell_length_a                   32.824(2)
_cell_length_b                   10.506(1)
_cell_length_c                   19.097(1)
_cell_angle_alpha                90
_cell_angle_beta                 111.01(1)
_cell_angle_gamma                90
_cell_volume                     6147.76
_exptl_crystal_colour            colorless
_exptl_crystal_description       plates
_cell_formula_units_Z            4
loop_
_atom_site_label
_atom_site_type_symbol
_atom_site_fract_x
_atom_site_fract_y
_atom_site_fract_z
C1 C 0.02176(14) 0.3198(4) 0.3662(2)
H1 H 0.0103 0.2855 0.3157
H2 H 0.0511 0.2870 0.3905
N1 N -0.00570(11) 0.2781(3) 0.40777(18)
C2 C 0.01027(13) 0.3078(4) 0.4879(2)
H3 H -0.0144 0.3113 0.5045
H4 H 0.0236 0.3915 0.4955
C3 C 0.04346(14) 0.2117(4) 0.5366(2)
H5 H 0.0282 0.1372 0.5445
H6 H 0.0626 0.1849 0.5107
N2 N 0.06974(10) 0.2671(3) 0.60961(19)
C4 C 0.05352(13) 0.2547(4) 0.6717(2)
H7 H 0.0759 0.2832 0.7178
H8 H 0.0475 0.1659 0.6778
C5 C 0.01251(13) 0.3322(4) 0.6576(2)
C6 C -0.02753(13) 0.2727(4) 0.6415(2)
H9 H -0.0288 0.1843 0.6427
C7 C -0.06560(13) 0.3422(4) 0.6237(2)
C8 C -0.06305(14) 0.4752(4) 0.6214(2)
H10 H -0.0885 0.5232 0.6087
C9 C 0.02341(14) 0.4637(4) 0.3624(2)
C10 C 0.01406(14) 0.4641(4) 0.6558(2)
H11 H 0.0409 0.5045 0.6671
C11 C -0.10839(13) 0.2785(4) 0.6050(2)
C12 C -0.11802(14) 0.1705(5) 0.5599(3)
H12 H -0.0974 0.1382 0.5416
C13 C -0.15801(15) 0.1111(5) 0.5421(3)
H13 H -0.1641 0.0398 0.5111
C14 C -0.18884(14) 0.1549(5) 0.5690(3)
C15 C -0.17947(14) 0.2625(5) 0.6143(3)
H14 H -0.2000 0.2938 0.6331
C16 C -0.13958(14) 0.3233(5) 0.6315(2)
H15 H -0.1338 0.3957 0.6615
S1 S -0.03321(4) 0.14619(12) 0.37906(7)
O1 O -0.05295(11) 0.1178(3) 0.43315(17)
O2 O -0.00683(11) 0.0511(3) 0.3614(2)
C17 C -0.07414(14) 0.1905(4) 0.2942(2)
C18 C -0.07814(15) 0.1283(5) 0.2283(3)
H16 H -0.0585 0.0648 0.2276
C19 C -0.11211(17) 0.1627(5) 0.1629(3)
H17 H -0.1151 0.1206 0.1185
C20 C -0.14130(16) 0.2565(5) 0.1617(3)
C21 C -0.13670(16) 0.3182(5) 0.2276(3)
H18 H -0.1562 0.3824 0.2279
C22 C -0.10310(15) 0.2853(5) 0.2938(3)
H19 H -0.1002 0.3277 0.3381
C23 C -0.17754(18) 0.2927(7) 0.0894(3)
H20 H -0.1921 0.3674 0.0974
H21 H -0.1980 0.2239 0.0734
H22 H -0.1654 0.3098 0.0514
S2 S 0.11901(4) 0.31141(12) 0.62448(7)
O3 O 0.13108(10) 0.3980(3) 0.68669(17)
O4 O 0.12094(11) 0.3523(3) 0.55400(18)
C24 C 0.15415(13) 0.1788(5) 0.6539(2)
C25 C 0.18323(16) 0.1498(6) 0.6199(3)
H23 H 0.1831 0.1952 0.5781
C26 C 0.21305(18) 0.0515(7) 0.6487(3)
H24 H 0.2331 0.0332 0.6259
C27 C 0.21379(16) -0.0186(5) 0.7091(3)
C28 C 0.18399(17) 0.0091(5) 0.7414(3)
H25 H 0.1837 -0.0385 0.7822
C29 C 0.15406(16) 0.1071(5) 0.7143(3)
H26 H 0.1339 0.1245 0.7370
C30 C 0.24770(18) -0.1214(6) 0.7413(3)
H27 H 0.2403 -0.1699 0.7777
H28 H 0.2758 -0.0829 0.7649
H29 H 0.2484 -0.1766 0.7017
C31 C -0.23082(16) 0.0862(6) 0.5502(3)
O5 O -0.24017(12) -0.0068(4) 0.5103(2)
O6 O -0.25728(10) 0.1352(3) 0.58213(18)
C32 C -0.29904(15) 0.0723(5) 0.5662(3)
H30 H -0.2946 -0.0167 0.5805
H31 H -0.3162 0.0771 0.5130
C33 C -0.32189(18) 0.1375(6) 0.6097(3)
H32 H -0.3503 0.1008 0.5982
H33 H -0.3248 0.2263 0.5971
H34 H -0.3055 0.1279 0.6624
C9D C -0.02341(14) 0.5363(4) 0.6376(2)
C1D C -0.02176(14) 0.6802(4) 0.6338(2)
H1D H -0.0103 0.7145 0.6843
H2D H -0.0511 0.7130 0.6095
N1D N 0.00570(11) 0.7219(3) 0.59223(18)
C2D C -0.01027(13) 0.6922(4) 0.5121(2)
H3D H 0.0144 0.6887 0.4955
H4D H -0.0236 0.6085 0.5045
C3D C -0.04346(14) 0.7883(4) 0.4634(2)
H5D H -0.0282 0.8628 0.4555
H6D H -0.0626 0.8151 0.4893
N2D N -0.06974(10) 0.7329(3) 0.39039(19)
C4D C -0.05352(13) 0.7453(4) 0.3283(2)
H7D H -0.0759 0.7168 0.2822
H8D H -0.0475 0.8341 0.3222
C5D C -0.01251(13) 0.6678(4) 0.3424(2)
C6D C 0.02753(13) 0.7273(4) 0.3585(2)
H9D H 0.0288 0.8157 0.3573
C7D C 0.06560(13) 0.6578(4) 0.3763(2)
C8D C 0.06305(14) 0.5248(4) 0.3786(2)
H10D H 0.0885 0.4768 0.3913
C10D C -0.01406(14) 0.5359(4) 0.3442(2)
H11D H -0.0409 0.4955 0.3329
C11D C 0.10839(13) 0.7215(4) 0.3950(2)
C12D C 0.11802(14) 0.8295(5) 0.4401(3)
H12D H 0.0974 0.8618 0.4584
C13D C 0.15801(15) 0.8889(5) 0.4579(3)
H13D H 0.1641 0.9602 0.4889
C14D C 0.18884(14) 0.8451(5) 0.4310(3)
C15D C 0.17947(14) 0.7375(5) 0.3857(3)
H14D H 0.2000 0.7062 0.3669
C16D C 0.13958(14) 0.6767(5) 0.3685(2)
H15D H 0.1338 0.6043 0.3385
C31D C 0.23082(16) 0.9138(6) 0.4498(3)
O5D O 0.24017(12) 1.0068(4) 0.4897(2)
O6D O 0.25728(10) 0.8648(3) 0.41787(18)
C32D C 0.29904(15) 0.9277(5) 0.4338(3)
H30D H 0.2946 1.0167 0.4195
H31D H 0.3162 0.9229 0.4870
C33D C 0.32189(18) 0.8625(6) 0.3903(3)
H32D H 0.3503 0.8992 0.4018
H33D H 0.3248 0.7737 0.4029
H34D H 0.3055 0.8721 0.3376
S2D S -0.11901(4) 0.68859(12) 0.37552(7)
O3D O -0.13108(10) 0.6020(3) 0.31331(17)
O4D O -0.12094(11) 0.6477(3) 0.44600(18)
C24D C -0.15415(13) 0.8212(5) 0.3461(2)
C25D C -0.18323(16) 0.8502(6) 0.3801(3)
H23D H -0.1831 0.8048 0.4219
C26D C -0.21305(18) 0.9485(7) 0.3513(3)
H24D H -0.2331 0.9668 0.3741
C27D C -0.21379(16) 1.0186(5) 0.2909(3)
C28D C -0.18399(17) 0.9909(5) 0.2586(3)
H25D H -0.1837 1.0385 0.2178
C29D C -0.15406(16) 0.8929(5) 0.2857(3)
H26D H -0.1339 0.8755 0.2630
C30D C -0.24770(18) 1.1214(6) 0.2587(3)
H27D H -0.2403 1.1699 0.2223
H28D H -0.2758 1.0829 0.2351
H29D H -0.2484 1.1766 0.2983
S1D S 0.03321(4) 0.85381(12) 0.62094(7)
O1D O 0.05295(11) 0.8822(3) 0.56685(17)
O2D O 0.00683(11) 0.9489(3) 0.6386(2)
C17D C 0.07414(14) 0.8095(4) 0.7058(2)
C18D C 0.07814(15) 0.8717(5) 0.7717(3)
H16D H 0.0585 0.9352 0.7724
C19D C 0.11211(17) 0.8373(5) 0.8371(3)
H17D H 0.1151 0.8794 0.8815
C20D C 0.14130(16) 0.7435(5) 0.8383(3)
C21D C 0.13670(16) 0.6818(5) 0.7724(3)
H18D H 0.1562 0.6176 0.7721
C22D C 0.10310(15) 0.7147(5) 0.7062(3)
H19D H 0.1002 0.6723 0.6619
C23D C 0.17754(18) 0.7073(7) 0.9106(3)
H20D H 0.1921 0.6326 0.9026
H21D H 0.1980 0.7761 0.9266
H22D H 0.1654 0.6902 0.9486
loop_
_geom_bond_atom_site_label_1
_geom_bond_atom_site_label_2
_geom_bond_site_symmetry_1
_geom_bond_site_symmetry_2
C1 H1 1_555 1_555
H2 C1 1_555 1_555
N1 C1 1_555 1_555
C2 N1 1_555 1_555
H3 C2 1_555 1_555
H4 C2 1_555 1_555
C3 C2 1_555 1_555
H5 C3 1_555 1_555
H6 C3 1_555 1_555
N2 C3 1_555 1_555
C4 N2 1_555 1_555
H7 C4 1_555 1_555
H8 C4 1_555 1_555
C5 C4 1_555 1_555
C6 C5 1_555 1_555
H9 C6 1_555 1_555
C7 C6 1_555 1_555
C8 C7 1_555 1_555
H10 C8 1_555 1_555
C9 C1 1_555 1_555
C10 C5 1_555 1_555
H11 C10 1_555 1_555
C11 C7 1_555 1_555
C12 C11 1_555 1_555
H12 C12 1_555 1_555
C13 C12 1_555 1_555
H13 C13 1_555 1_555
C14 C13 1_555 1_555
C15 C14 1_555 1_555
H14 C15 1_555 1_555
C16 C11 1_555 1_555
H15 C16 1_555 1_555
S1 N1 1_555 1_555
O1 S1 1_555 1_555
O2 S1 1_555 1_555
C17 S1 1_555 1_555
C18 C17 1_555 1_555
H16 C18 1_555 1_555
C19 C18 1_555 1_555
H17 C19 1_555 1_555
C20 C19 1_555 1_555
C21 C20 1_555 1_555
H18 C21 1_555 1_555
C22 C17 1_555 1_555
H19 C22 1_555 1_555
C23 C20 1_555 1_555
H20 C23 1_555 1_555
H21 C23 1_555 1_555
H22 C23 1_555 1_555
S2 N2 1_555 1_555
O3 S2 1_555 1_555
O4 S2 1_555 1_555
C24 S2 1_555 1_555
C25 C24 1_555 1_555
H23 C25 1_555 1_555
C26 C25 1_555 1_555
H24 C26 1_555 1_555
C27 C26 1_555 1_555
C28 C27 1_555 1_555
H25 C28 1_555 1_555
C29 C24 1_555 1_555
H26 C29 1_555 1_555
C30 C27 1_555 1_555
H27 C30 1_555 1_555
H28 C30 1_555 1_555
H29 C30 1_555 1_555
C31 C14 1_555 1_555
O5 C31 1_555 1_555
O6 C31 1_555 1_555
C32 O6 1_555 1_555
H30 C32 1_555 1_555
H31 C32 1_555 1_555
C33 C32 1_555 1_555
H32 C33 1_555 1_555
H33 C33 1_555 1_555
H34 C33 1_555 1_555
C9D C8 1_555 1_555
C1D C9D 1_555 1_555
H1D C1D 1_555 1_555
H2D C1D 1_555 1_555
N1D C1D 1_555 1_555
C2D N1D 1_555 1_555
H3D C2D 1_555 1_555
H4D C2D 1_555 1_555
C3D C2D 1_555 1_555
H5D C3D 1_555 1_555
H6D C3D 1_555 1_555
N2D C3D 1_555 1_555
C4D N2D 1_555 1_555
H7D C4D 1_555 1_555
H8D C4D 1_555 1_555
C5D C4D 1_555 1_555
C6D C5D 1_555 1_555
H9D C6D 1_555 1_555
C7D C6D 1_555 1_555
C8D C9 1_555 1_555
H10D C8D 1_555 1_555
C10D C9 1_555 1_555
H11D C10D 1_555 1_555
C11D C7D 1_555 1_555
C12D C11D 1_555 1_555
H12D C12D 1_555 1_555
C13D C12D 1_555 1_555
H13D C13D 1_555 1_555
C14D C13D 1_555 1_555
C15D C14D 1_555 1_555
H14D C15D 1_555 1_555
C16D C11D 1_555 1_555
H15D C16D 1_555 1_555
C31D C14D 1_555 1_555
O5D C31D 1_555 1_555
O6D C31D 1_555 1_555
C32D O6D 1_555 1_555
H30D C32D 1_555 1_555
H31D C32D 1_555 1_555
C33D C32D 1_555 1_555
H32D C33D 1_555 1_555
H33D C33D 1_555 1_555
H34D C33D 1_555 1_555
S2D N2D 1_555 1_555
O3D S2D 1_555 1_555
O4D S2D 1_555 1_555
C24D S2D 1_555 1_555
C25D C24D 1_555 1_555
H23D C25D 1_555 1_555
C26D C25D 1_555 1_555
H24D C26D 1_555 1_555
C27D C26D 1_555 1_555
C28D C27D 1_555 1_555
H25D C28D 1_555 1_555
C29D C24D 1_555 1_555
H26D C29D 1_555 1_555
C30D C27D 1_555 1_555
H27D C30D 1_555 1_555
H28D C30D 1_555 1_555
H29D C30D 1_555 1_555
S1D N1D 1_555 1_555
O1D S1D 1_555 1_555
O2D S1D 1_555 1_555
C17D S1D 1_555 1_555
C18D C17D 1_555 1_555
H16D C18D 1_555 1_555
C19D C18D 1_555 1_555
H17D C19D 1_555 1_555
C20D C19D 1_555 1_555
C21D C20D 1_555 1_555
H18D C21D 1_555 1_555
C22D C17D 1_555 1_555
H19D C22D 1_555 1_555
C23D C20D 1_555 1_555
H20D C23D 1_555 1_555
H21D C23D 1_555 1_555
H22D C23D 1_555 1_555
C10 C9D 1_555 1_555
C15 C16 1_555 1_555
C21 C22 1_555 1_555
C28 C29 1_555 1_555
C5D C10D 1_555 1_555
C7D C8D 1_555 1_555
C15D C16D 1_555 1_555
C28D C29D 1_555 1_555
C21D C22D 1_555 1_555

#END
