
#######################################################################
#
#                 Cambridge Crystallographic Data Centre
#                                CCDC 
#
#######################################################################
#
# If this CIF has been generated from an entry in the Cambridge 
# Structural Database, then it will include bibliographic, chemical, 
# crystal, experimental, refinement or atomic coordinate data resulting 
# from the CCDC's data processing and validation procedures.
#
#######################################################################

data_YAFFOD
_chemical_formula_moiety         'C24 H21 N1 O3 S1'
_chemical_name_systematic        
'ethyl 2-(4-methoxyphenyl)-4-phenyl-5-(2-thienyl)-1H-pyrrole-3-carboxylate'
_symmetry_cell_setting           tetragonal
_symmetry_space_group_name_H-M   'I 41/a'
_symmetry_Int_Tables_number      88
_space_group_name_Hall           '-I 4ad'
loop_
_symmetry_equiv_pos_site_id
_symmetry_equiv_pos_as_xyz
1 x,y,z
2 1/2-x,-y,1/2+z
3 3/4-y,1/4+x,1/4+z
4 3/4+y,3/4-x,3/4+z
5 1/2+x,1/2+y,1/2+z
6 -x,1/2-y,z
7 1/4-y,3/4+x,3/4+z
8 1/4+y,1/4-x,1/4+z
9 -x,-y,-z
10 1/2+x,y,1/2-z
11 1/4+y,3/4-x,3/4-z
12 1/4-y,1/4+x,1/4-z
13 1/2-x,1/2-y,1/2-z
14 x,1/2+y,-z
15 3/4+y,1/4-x,1/4-z
16 3/4-y,3/4+x,3/4-z
_cell_length_a                   21.8061(11)
_cell_length_b                   21.8061(11)
_cell_length_c                   18.3306(14)
_cell_angle_alpha                90
_cell_angle_beta                 90
_cell_angle_gamma                90
_cell_volume                     8716.31
_exptl_crystal_colour            colorless
_exptl_crystal_description       prismatic
_cell_formula_units_Z            16
loop_
_atom_site_label
_atom_site_type_symbol
_atom_site_fract_x
_atom_site_fract_y
_atom_site_fract_z
S1 S 0.37533(9) 0.43564(10) 0.10508(8)
N1 N 0.41622(15) 0.40102(14) 0.31277(17)
O1 O 0.59965(12) 0.44627(13) 0.37348(18)
O2 O 0.58116(14) 0.52311(16) 0.2982(2)
O3 O 0.46325(18) 0.31413(18) 0.63819(18)
C1 C 0.46680(15) 0.41242(15) 0.35409(19)
C2 C 0.50312(15) 0.45240(15) 0.3127(2)
C3 C 0.47107(17) 0.46533(16) 0.2465(2)
C4 C 0.41784(17) 0.43229(16) 0.2481(2)
C5 C 0.36667(19) 0.42659(17) 0.1963(2)
C6 C 0.30483(18) 0.41260(19) 0.2123(2)
H1 H 0.2894 0.4066 0.2591
C7 C 0.2699(3) 0.4090(3) 0.1482(4)
H2 H 0.2283 0.3996 0.1476
C8 C 0.3027(4) 0.4205(3) 0.0877(4)
H3 H 0.2862 0.4200 0.0409
C9 C 0.47136(15) 0.38651(15) 0.42767(19)
C10 C 0.44313(17) 0.33029(17) 0.4436(2)
H4 H 0.4249 0.3080 0.4061
C11 C 0.44191(19) 0.30731(19) 0.5140(2)
H5 H 0.4227 0.2701 0.5236
C12 C 0.46899(19) 0.3393(2) 0.5697(2)
C13 C 0.4994(2) 0.3932(2) 0.5557(2)
H6 H 0.5195 0.4138 0.5931
C14 C 0.49988(19) 0.41694(18) 0.4851(2)
H7 H 0.5197 0.4539 0.4762
C15 C 0.503(3) 0.331(3) 0.693(4)
H8 H 0.5441 0.3170 0.6809
H9 H 0.4909 0.3117 0.7381
H10 H 0.5034 0.3743 0.6988
C16 C 0.56525(18) 0.47201(17) 0.3329(2)
C17 C 0.6412(5) 0.5498(8) 0.3145(12)
H11 H 0.6604 0.5290 0.3553
H12 H 0.6376 0.5931 0.3259
C18 C 0.4898(2) 0.5069(2) 0.1851(2)
C19 C 0.5335(4) 0.4910(3) 0.1366(4)
H13 H 0.5538 0.4537 0.1413
C20 C 0.5483(5) 0.5309(5) 0.0788(5)
H14 H 0.5784 0.5193 0.0456
C21 C 0.5211(5) 0.5839(5) 0.0706(4)
H15 H 0.5332 0.6105 0.0335
C22 C 0.4761(5) 0.5994(3) 0.1155(4)
H16 H 0.4553 0.6362 0.1091
C23 C 0.4601(3) 0.5596(2) 0.1732(3)
H17 H 0.4279 0.5704 0.2039
H18 H 0.3898(16) 0.3805(16) 0.3264(19)
C24 C 0.6772(10) 0.5404(12) 0.2460(15)
H19 H 0.6841 0.4973 0.2387
H20 H 0.7159 0.5612 0.2499
H21 H 0.6547 0.5566 0.2053
C25? C 0.493(5) 0.344(4) 0.695(6)
H22? H 0.5364 0.3466 0.6844
H23? H 0.4873 0.3220 0.7396
H24? H 0.4770 0.3849 0.7001
C26? C 0.6469(10) 0.536(2) 0.303(3)
H25? H 0.6712 0.5021 0.2857
H26? H 0.6588 0.5459 0.3529
C27? C 0.6538(10) 0.5928(11) 0.2529(17)
H27? H 0.6237 0.6230 0.2658
H28? H 0.6479 0.5805 0.2031
H29? H 0.6941 0.6098 0.2586
loop_
_geom_bond_atom_site_label_1
_geom_bond_atom_site_label_2
_geom_bond_site_symmetry_1
_geom_bond_site_symmetry_2
S1 C5 1_555 1_555
N1 C1 1_555 1_555
O1 C16 1_555 1_555
O2 C16 1_555 1_555
O3 C12 1_555 1_555
C1 C2 1_555 1_555
C2 C3 1_555 1_555
C3 C4 1_555 1_555
C4 N1 1_555 1_555
C5 C4 1_555 1_555
C6 C5 1_555 1_555
H1 C6 1_555 1_555
C7 C6 1_555 1_555
H2 C7 1_555 1_555
C8 S1 1_555 1_555
H3 C8 1_555 1_555
C9 C1 1_555 1_555
C10 C9 1_555 1_555
H4 C10 1_555 1_555
C11 C10 1_555 1_555
H5 C11 1_555 1_555
C12 C11 1_555 1_555
C13 C12 1_555 1_555
H6 C13 1_555 1_555
C14 C9 1_555 1_555
H7 C14 1_555 1_555
C15 O3 1_555 1_555
H8 C15 1_555 1_555
H9 C15 1_555 1_555
H10 C15 1_555 1_555
C16 C2 1_555 1_555
C17 O2 1_555 1_555
H11 C17 1_555 1_555
H12 C17 1_555 1_555
C18 C3 1_555 1_555
C19 C18 1_555 1_555
H13 C19 1_555 1_555
C20 C19 1_555 1_555
H14 C20 1_555 1_555
C21 C20 1_555 1_555
H15 C21 1_555 1_555
C22 C21 1_555 1_555
H16 C22 1_555 1_555
C23 C18 1_555 1_555
H17 C23 1_555 1_555
H18 N1 1_555 1_555
C24 C17 1_555 1_555
H19 C24 1_555 1_555
H20 C24 1_555 1_555
H21 C24 1_555 1_555
C7 C8 1_555 1_555
C13 C14 1_555 1_555
C22 C23 1_555 1_555

#END
