
#######################################################################
#
#                 Cambridge Crystallographic Data Centre
#                                CCDC 
#
#######################################################################
#
# If this CIF has been generated from an entry in the Cambridge 
# Structural Database, then it will include bibliographic, chemical, 
# crystal, experimental, refinement or atomic coordinate data resulting 
# from the CCDC's data processing and validation procedures.
#
#######################################################################

data_YAFGAO
_chemical_formula_moiety         'C19 H20 O6 S2'
_chemical_name_systematic        
'3,3,11,11-Tetraoxo-3\l^6^,11\l^6^-dithiatricyclo(11.3.1.1^5,9^)octadeca-1(17),5,7,9(18),13,15-hexaene-7-carboxylic acid ethyl ester'
_symmetry_cell_setting           triclinic
_symmetry_space_group_name_H-M   'P -1'
_symmetry_Int_Tables_number      2
_space_group_name_Hall           '-P 1'
loop_
_symmetry_equiv_pos_site_id
_symmetry_equiv_pos_as_xyz
1 x,y,z
2 -x,-y,-z
_cell_length_a                   5.302(1)
_cell_length_b                   9.504(1)
_cell_length_c                   18.302(1)
_cell_angle_alpha                92.02(1)
_cell_angle_beta                 94.20(1)
_cell_angle_gamma                98.76(1)
_cell_volume                     908.028
_exptl_crystal_colour            colorless
_exptl_crystal_description       plates
_cell_formula_units_Z            2
loop_
_atom_site_label
_atom_site_type_symbol
_atom_site_fract_x
_atom_site_fract_y
_atom_site_fract_z
C1 C 0.4220(8) 0.5916(4) 0.3163(2)
H1 H 0.4994 0.6829 0.3395
H2 H 0.2410 0.5944 0.3058
S1 S 0.5637(2) 0.56725(9) 0.23107(6)
O1 O 0.5931(6) 0.7037(3) 0.19856(17)
O2 O 0.7890(5) 0.5021(3) 0.24568(16)
C2 C 0.3298(8) 0.4525(4) 0.1705(2)
H3 H 0.1603 0.4670 0.1826
H4 H 0.3495 0.4810 0.1206
C3 C 0.3467(8) 0.2957(4) 0.1734(2)
C4 C 0.5242(8) 0.2302(4) 0.1360(2)
C5 C 0.5335(8) 0.0860(4) 0.1454(2)
H5 H 0.6478 0.0412 0.1204
C6 C 0.3763(9) 0.0092(4) 0.1913(2)
H6 H 0.3928 -0.0853 0.1989
C7 C 0.1948(8) 0.0699(4) 0.2261(2)
C8 C 0.1803(8) 0.2130(4) 0.2154(2)
H7 H 0.0547 0.2544 0.2372
C9 C 0.0207(9) -0.0162(5) 0.2745(2)
H8 H -0.0279 -0.1113 0.2520
H9 H -0.1340 0.0262 0.2765
S2 S 0.1515(2) -0.03119(10) 0.36650(6)
O3 O 0.4206(6) -0.0305(3) 0.36655(17)
O4 O -0.0003(7) -0.1523(3) 0.39489(17)
C10 C 0.0910(9) 0.1218(4) 0.4188(2)
H10 H -0.0723 0.1459 0.4002
H11 H 0.0753 0.0960 0.4693
C11 C 0.2912(8) 0.2528(4) 0.4182(2)
C12 C 0.5164(9) 0.2621(4) 0.4632(2)
H12 H 0.5386 0.1896 0.4948
C13 C 0.7053(9) 0.3765(5) 0.4615(2)
H13 H 0.8538 0.3829 0.4926
C14 C 0.6756(8) 0.4829(4) 0.4135(2)
H14 H 0.8075 0.5589 0.4111
C15 C 0.4522(8) 0.4775(4) 0.3692(2)
C16 C 0.2586(8) 0.3635(4) 0.3729(2)
H15 H 0.1047 0.3610 0.3447
C17 C 0.6888(8) 0.3077(4) 0.0830(2)
O5 O 0.7177(7) 0.4338(3) 0.0759(2)
O6 O 0.8058(6) 0.2212(3) 0.04385(17)
C18 C 0.9602(12) 0.2854(5) -0.0125(3)
H16 H 1.0806 0.3663 0.0085
H17 H 0.8510 0.3187 -0.0509
C19 C 1.0995(11) 0.1772(6) -0.0434(3)
H18 H 1.2037 0.2184 -0.0803
H19 H 0.9790 0.0983 -0.0649
H20 H 1.2065 0.1444 -0.0051
loop_
_geom_bond_atom_site_label_1
_geom_bond_atom_site_label_2
_geom_bond_site_symmetry_1
_geom_bond_site_symmetry_2
C1 H1 1_555 1_555
H2 C1 1_555 1_555
S1 C1 1_555 1_555
O1 S1 1_555 1_555
O2 S1 1_555 1_555
C2 S1 1_555 1_555
H3 C2 1_555 1_555
H4 C2 1_555 1_555
C3 C2 1_555 1_555
C4 C3 1_555 1_555
C5 C4 1_555 1_555
H5 C5 1_555 1_555
C6 C5 1_555 1_555
H6 C6 1_555 1_555
C7 C6 1_555 1_555
C8 C3 1_555 1_555
H7 C8 1_555 1_555
C9 C7 1_555 1_555
H8 C9 1_555 1_555
H9 C9 1_555 1_555
S2 C9 1_555 1_555
O3 S2 1_555 1_555
O4 S2 1_555 1_555
C10 S2 1_555 1_555
H10 C10 1_555 1_555
H11 C10 1_555 1_555
C11 C10 1_555 1_555
C12 C11 1_555 1_555
H12 C12 1_555 1_555
C13 C12 1_555 1_555
H13 C13 1_555 1_555
C14 C13 1_555 1_555
H14 C14 1_555 1_555
C15 C1 1_555 1_555
C16 C11 1_555 1_555
H15 C16 1_555 1_555
C17 C4 1_555 1_555
O5 C17 1_555 1_555
O6 C17 1_555 1_555
C18 O6 1_555 1_555
H16 C18 1_555 1_555
H17 C18 1_555 1_555
C19 C18 1_555 1_555
H18 C19 1_555 1_555
H19 C19 1_555 1_555
H20 C19 1_555 1_555
C7 C8 1_555 1_555
C14 C15 1_555 1_555
C15 C16 1_555 1_555

#END
