
#######################################################################
#
#                 Cambridge Crystallographic Data Centre
#                                CCDC 
#
#######################################################################
#
# If this CIF has been generated from an entry in the Cambridge 
# Structural Database, then it will include bibliographic, chemical, 
# crystal, experimental, refinement or atomic coordinate data resulting 
# from the CCDC's data processing and validation procedures.
#
#######################################################################

data_YAFGOC
_chemical_formula_moiety         'C40 H48 O4,C2 Cl4'
_chemical_name_systematic        
'5,11,17,23-Tetra-isopropyl-25,26,27,28-tetrahydroxycalix(4)arene tetrachloroethene clathrate'
_symmetry_cell_setting           triclinic
_symmetry_space_group_name_H-M   'P -1'
_symmetry_Int_Tables_number      2
_space_group_name_Hall           '-P 1'
loop_
_symmetry_equiv_pos_site_id
_symmetry_equiv_pos_as_xyz
1 x,y,z
2 -x,-y,-z
_cell_length_a                   9.567(3)
_cell_length_b                   12.695(2)
_cell_length_c                   16.641(5)
_cell_angle_alpha                90.94(2)
_cell_angle_beta                 99.76(2)
_cell_angle_gamma                96.55(2)
_cell_volume                     1977.53
_exptl_crystal_colour            colorless
_exptl_crystal_description       plates
_cell_formula_units_Z            2
loop_
_atom_site_label
_atom_site_type_symbol
_atom_site_fract_x
_atom_site_fract_y
_atom_site_fract_z
C1 C 0.5649(5) 0.3646(4) 0.8992(3)
H1 H 0.4970 0.3047 0.9096
H2 H 0.6005 0.4042 0.9511
C2 C 0.6896(5) 0.3221(4) 0.8687(3)
C3 C 0.8239(5) 0.3792(4) 0.8835(3)
H3 H 0.8369 0.4436 0.9141
C4 C 0.9397(5) 0.3455(4) 0.8554(3)
C5 C 0.9173(5) 0.2506(4) 0.8095(3)
H4 H 0.9947 0.2270 0.7892
C6 C 0.7855(5) 0.1896(4) 0.7925(3)
C7 C 0.6719(5) 0.2261(4) 0.8233(3)
O1 O 0.5408(3) 0.1639(3) 0.8097(2)
H5 H 0.4763 0.2022 0.7972
C8 C 1.0886(5) 0.4055(5) 0.8742(3)
H6 H 1.1361 0.3922 0.8272
C9 C 1.0943(6) 0.5246(5) 0.8849(4)
H7 H 1.1927 0.5568 0.8912
H8 H 1.0553 0.5413 0.9331
H9 H 1.0386 0.5521 0.8373
C10 C 1.1754(6) 0.3615(6) 0.9482(4)
H10 H 1.2722 0.3973 0.9571
H11 H 1.1773 0.2861 0.9391
H12 H 1.1322 0.3730 0.9958
C11 C 0.7645(5) 0.0882(4) 0.7400(3)
H13 H 0.6897 0.0387 0.7570
H14 H 0.8532 0.0550 0.7488
C12 C 0.7232(5) 0.1075(3) 0.6496(3)
C13 C 0.8278(5) 0.1296(4) 0.6021(3)
H15 H 0.9239 0.1303 0.6267
C14 C 0.7972(5) 0.1508(4) 0.5198(3)
C15 C 0.6525(5) 0.1495(4) 0.4855(3)
H16 H 0.6286 0.1633 0.4298
C16 C 0.5436(5) 0.1286(3) 0.5301(3)
C17 C 0.5809(5) 0.1063(3) 0.6122(3)
O2 O 0.4738(4) 0.0802(3) 0.6569(2)
H17 H 0.5033 0.0982 0.7056
C18 C 0.9148(6) 0.1721(4) 0.4702(3)
H18 H 1.0061 0.1693 0.5080
C19 C 0.9202(7) 0.2810(6) 0.4367(5)
H19 H 0.8343 0.2859 0.3972
H20 H 1.0032 0.2944 0.4104
H21 H 0.9265 0.3332 0.4808
C20 C 0.9055(9) 0.0860(7) 0.4048(5)
H22 H 0.9010 0.0171 0.4294
H23 H 0.9893 0.0966 0.3789
H24 H 0.8204 0.0891 0.3643
C21 C 0.3883(5) 0.1319(4) 0.4901(3)
H25 H 0.3769 0.1104 0.4323
H26 H 0.3269 0.0806 0.5159
C22 C 0.3399(5) 0.2408(4) 0.4969(3)
C23 C 0.3528(5) 0.3124(4) 0.4360(3)
H27 H 0.3882 0.2912 0.3897
C24 C 0.3151(5) 0.4151(4) 0.4410(3)
C25 C 0.2674(5) 0.4458(4) 0.5107(3)
H28 H 0.2448 0.5155 0.5158
C26 C 0.2516(4) 0.3766(4) 0.5736(3)
C27 C 0.2852(5) 0.2728(4) 0.5649(3)
O3 O 0.2620(3) 0.2015(3) 0.6239(2)
H29 H 0.3250 0.1610 0.6293
C28 C 0.3206(5) 0.4859(4) 0.3682(3)
H30 H 0.4059 0.4721 0.3452
C29 C 0.3353(8) 0.6025(4) 0.3880(4)
H31 H 0.4154 0.6210 0.4319
H32 H 0.2484 0.6207 0.4047
H33 H 0.3516 0.6414 0.3401
C30 C 0.1915(8) 0.4524(6) 0.3027(4)
H34 H 0.1868 0.3772 0.2896
H35 H 0.1999 0.4923 0.2542
H36 H 0.1054 0.4663 0.3225
C31 C 0.1960(5) 0.4133(4) 0.6487(3)
H37 H 0.1315 0.4669 0.6326
H38 H 0.1401 0.3528 0.6686
C32 C 0.3120(5) 0.4598(4) 0.7181(3)
C33 C 0.3517(5) 0.5684(4) 0.7283(3)
H39 H 0.3062 0.6132 0.6905
C34 C 0.4554(6) 0.6137(4) 0.7915(3)
C35 C 0.5230(5) 0.5455(4) 0.8469(3)
H40 H 0.5943 0.5746 0.8900
C36 C 0.4874(5) 0.4363(4) 0.8398(3)
C37 C 0.3804(5) 0.3947(4) 0.7758(3)
O4 O 0.3370(4) 0.2871(3) 0.7722(2)
H41 H 0.3159 0.2657 0.7237
C38 C 0.4891(7) 0.7332(5) 0.8037(5)
H42 H 0.4517 0.7630 0.7508
C39 C 0.6412(11) 0.7714(7) 0.8209(8)
H43 H 0.6542 0.8479 0.8162
H44 H 0.6895 0.7385 0.7822
H45 H 0.6809 0.7534 0.8759
C40 C 0.4088(13) 0.7750(7) 0.8635(10)
H46 H 0.4378 0.7455 0.9163
H47 H 0.3073 0.7552 0.8453
H48 H 0.4289 0.8517 0.8681
C41 C 0.1888(11) -0.0105(8) 0.8962(5)
C42 C 0.1188(11) -0.0825(8) 0.9112(5)
Cl1 Cl 0.1907(3) 0.0386(2) 0.79825(16)
Cl2 Cl 0.3182(5) 0.0636(4) 0.9697(3)
Cl3 Cl 0.0020(4) -0.1517(3) 0.8260(3)
Cl4 Cl 0.1073(6) -0.1378(5) 1.0026(3)
loop_
_geom_bond_atom_site_label_1
_geom_bond_atom_site_label_2
_geom_bond_site_symmetry_1
_geom_bond_site_symmetry_2
C1 H1 1_555 1_555
H2 C1 1_555 1_555
C2 C1 1_555 1_555
C3 C2 1_555 1_555
H3 C3 1_555 1_555
C4 C3 1_555 1_555
C5 C4 1_555 1_555
H4 C5 1_555 1_555
C6 C5 1_555 1_555
C7 C2 1_555 1_555
O1 C7 1_555 1_555
H5 O1 1_555 1_555
C8 C4 1_555 1_555
H6 C8 1_555 1_555
C9 C8 1_555 1_555
H7 C9 1_555 1_555
H8 C9 1_555 1_555
H9 C9 1_555 1_555
C10 C8 1_555 1_555
H10 C10 1_555 1_555
H11 C10 1_555 1_555
H12 C10 1_555 1_555
C11 C6 1_555 1_555
H13 C11 1_555 1_555
H14 C11 1_555 1_555
C12 C11 1_555 1_555
C13 C12 1_555 1_555
H15 C13 1_555 1_555
C14 C13 1_555 1_555
C15 C14 1_555 1_555
H16 C15 1_555 1_555
C16 C15 1_555 1_555
C17 C12 1_555 1_555
O2 C17 1_555 1_555
H17 O2 1_555 1_555
C18 C14 1_555 1_555
H18 C18 1_555 1_555
C19 C18 1_555 1_555
H19 C19 1_555 1_555
H20 C19 1_555 1_555
H21 C19 1_555 1_555
C20 C18 1_555 1_555
H22 C20 1_555 1_555
H23 C20 1_555 1_555
H24 C20 1_555 1_555
C21 C16 1_555 1_555
H25 C21 1_555 1_555
H26 C21 1_555 1_555
C22 C21 1_555 1_555
C23 C22 1_555 1_555
H27 C23 1_555 1_555
C24 C23 1_555 1_555
C25 C24 1_555 1_555
H28 C25 1_555 1_555
C26 C25 1_555 1_555
C27 C22 1_555 1_555
O3 C27 1_555 1_555
H29 O3 1_555 1_555
C28 C24 1_555 1_555
H30 C28 1_555 1_555
C29 C28 1_555 1_555
H31 C29 1_555 1_555
H32 C29 1_555 1_555
H33 C29 1_555 1_555
C30 C28 1_555 1_555
H34 C30 1_555 1_555
H35 C30 1_555 1_555
H36 C30 1_555 1_555
C31 C26 1_555 1_555
H37 C31 1_555 1_555
H38 C31 1_555 1_555
C32 C31 1_555 1_555
C33 C32 1_555 1_555
H39 C33 1_555 1_555
C34 C33 1_555 1_555
C35 C34 1_555 1_555
H40 C35 1_555 1_555
C36 C1 1_555 1_555
C37 C32 1_555 1_555
O4 C37 1_555 1_555
H41 O4 1_555 1_555
C38 C34 1_555 1_555
H42 C38 1_555 1_555
C39 C38 1_555 1_555
H43 C39 1_555 1_555
H44 C39 1_555 1_555
H45 C39 1_555 1_555
C40 C38 1_555 1_555
H46 C40 1_555 1_555
H47 C40 1_555 1_555
H48 C40 1_555 1_555
C41 C42 1_555 1_555
C42 Cl3 1_555 1_555
Cl1 C41 1_555 1_555
Cl2 C41 1_555 1_555
Cl4 C42 1_555 1_555
C6 C7 1_555 1_555
C16 C17 1_555 1_555
C26 C27 1_555 1_555
C35 C36 1_555 1_555
C36 C37 1_555 1_555

#END
