
#######################################################################
#
#                 Cambridge Crystallographic Data Centre
#                                CCDC 
#
#######################################################################
#
# If this CIF has been generated from an entry in the Cambridge 
# Structural Database, then it will include bibliographic, chemical, 
# crystal, experimental, refinement or atomic coordinate data resulting 
# from the CCDC's data processing and validation procedures.
#
#######################################################################

data_YAFGUI
_chemical_formula_moiety         'C24 H22 O6'
_chemical_name_systematic        
1,6-bis(4'-(Ethoxycarbonyl)phenoxy)-2,4-hexadiyne
_symmetry_cell_setting           triclinic
_symmetry_space_group_name_H-M   'P -1'
_symmetry_Int_Tables_number      2
_space_group_name_Hall           '-P 1'
loop_
_symmetry_equiv_pos_site_id
_symmetry_equiv_pos_as_xyz
1 x,y,z
2 -x,-y,-z
_cell_length_a                   7.999(1)
_cell_length_b                   8.174(1)
_cell_length_c                   10.106(1)
_cell_angle_alpha                69.89(1)
_cell_angle_beta                 66.41(1)
_cell_angle_gamma                63.71(1)
_cell_volume                     531.64
_exptl_crystal_colour            colorless
_exptl_crystal_description       plates
_cell_formula_units_Z            1
loop_
_atom_site_label
_atom_site_type_symbol
_atom_site_fract_x
_atom_site_fract_y
_atom_site_fract_z
C1 C 0.9284(3) 0.0377(4) 0.0591(3)
C2 C 0.8044(4) 0.1048(4) 0.1598(3)
C3 C 0.6605(4) 0.1787(4) 0.2887(3)
H1 H 0.5901 0.0949 0.3503
H2 H 0.7241 0.1921 0.3463
O1 O 0.5296(2) 0.3552(2) 0.23801(17)
C4 C 0.3827(3) 0.4522(3) 0.3412(3)
C5 C 0.2550(4) 0.6183(4) 0.2876(3)
H3 H 0.2733 0.6579 0.1865
C6 C 0.1014(4) 0.7255(4) 0.3816(3)
H4 H 0.0167 0.8380 0.3437
C7 C 0.0700(3) 0.6687(3) 0.5330(3)
C8 C 0.2013(4) 0.5020(4) 0.5850(3)
H5 H 0.1837 0.4632 0.6860
C9 C 0.3566(4) 0.3922(4) 0.4924(3)
H6 H 0.4425 0.2803 0.5299
C10 C -0.1034(4) 0.7866(4) 0.6295(3)
O2 O -0.2272(3) 0.9242(3) 0.5893(2)
O3 O -0.1081(3) 0.7211(3) 0.7716(2)
C11 C -0.2746(4) 0.8231(5) 0.8772(3)
H7 H -0.3950 0.8413 0.8627
H8 H -0.2703 0.9442 0.8652
C12 C -0.2652(5) 0.7114(5) 1.0264(3)
H9 H -0.3702 0.7782 1.0993
H10 H -0.1428 0.6891 1.0377
H11 H -0.2765 0.5945 1.0388
C1A C 1.0716(3) -0.0377(4) -0.0591(3)
C2A C 1.1956(4) -0.1048(4) -0.1598(3)
C3A C 1.3395(4) -0.1787(4) -0.2887(3)
H1A H 1.4099 -0.0949 -0.3503
H2A H 1.2759 -0.1921 -0.3463
O1A O 1.4704(2) -0.3552(2) -0.23801(17)
C4A C 1.6173(3) -0.4522(3) -0.3412(3)
C5A C 1.7450(4) -0.6183(4) -0.2876(3)
H3A H 1.7267 -0.6579 -0.1865
C6A C 1.8986(4) -0.7255(4) -0.3816(3)
H4A H 1.9833 -0.8380 -0.3437
C7A C 1.9300(3) -0.6687(3) -0.5330(3)
C8A C 1.7987(4) -0.5020(4) -0.5850(3)
H5A H 1.8163 -0.4632 -0.6860
C9A C 1.6434(4) -0.3922(4) -0.4924(3)
H6A H 1.5575 -0.2803 -0.5299
C10A C 2.1034(4) -0.7866(4) -0.6295(3)
O2A O 2.2272(3) -0.9242(3) -0.5893(2)
O3A O 2.1081(3) -0.7211(3) -0.7716(2)
C11A C 2.2746(4) -0.8231(5) -0.8772(3)
H7A H 2.3950 -0.8413 -0.8627
H8A H 2.2703 -0.9442 -0.8652
C12A C 2.2652(5) -0.7114(5) -1.0264(3)
H9A H 2.3702 -0.7782 -1.0993
H10A H 2.1428 -0.6891 -1.0377
H11A H 2.2765 -0.5945 -1.0388
loop_
_geom_bond_atom_site_label_1
_geom_bond_atom_site_label_2
_geom_bond_site_symmetry_1
_geom_bond_site_symmetry_2
C1 C2 1_555 1_555
C2 C3 1_555 1_555
C3 H1 1_555 1_555
H2 C3 1_555 1_555
O1 C3 1_555 1_555
C4 O1 1_555 1_555
C5 C4 1_555 1_555
H3 C5 1_555 1_555
C6 C5 1_555 1_555
H4 C6 1_555 1_555
C7 C6 1_555 1_555
C8 C7 1_555 1_555
H5 C8 1_555 1_555
C9 C4 1_555 1_555
H6 C9 1_555 1_555
C10 C7 1_555 1_555
O2 C10 1_555 1_555
O3 C10 1_555 1_555
C11 O3 1_555 1_555
H7 C11 1_555 1_555
H8 C11 1_555 1_555
C12 C11 1_555 1_555
H9 C12 1_555 1_555
H10 C12 1_555 1_555
H11 C12 1_555 1_555
C1A C1 1_555 1_555
C2A C1A 1_555 1_555
C3A C2A 1_555 1_555
H1A C3A 1_555 1_555
H2A C3A 1_555 1_555
O1A C3A 1_555 1_555
C4A O1A 1_555 1_555
C5A C4A 1_555 1_555
H3A C5A 1_555 1_555
C6A C5A 1_555 1_555
H4A C6A 1_555 1_555
C7A C6A 1_555 1_555
C8A C7A 1_555 1_555
H5A C8A 1_555 1_555
C9A C4A 1_555 1_555
H6A C9A 1_555 1_555
C10A C7A 1_555 1_555
O2A C10A 1_555 1_555
O3A C10A 1_555 1_555
C11A O3A 1_555 1_555
H7A C11A 1_555 1_555
H8A C11A 1_555 1_555
C12A C11A 1_555 1_555
H9A C12A 1_555 1_555
H10A C12A 1_555 1_555
H11A C12A 1_555 1_555
C8 C9 1_555 1_555
C8A C9A 1_555 1_555

#END
