
#######################################################################
#
#                 Cambridge Crystallographic Data Centre
#                                CCDC 
#
#######################################################################
#
# If this CIF has been generated from an entry in the Cambridge 
# Structural Database, then it will include bibliographic, chemical, 
# crystal, experimental, refinement or atomic coordinate data resulting 
# from the CCDC's data processing and validation procedures.
#
#######################################################################

data_YAFHUL
_chemical_name_common            'quinine acesulfame monohydrate'
_chemical_formula_moiety         'C20 H25 N2 O2 1+,C4 H4 N1 O4 S1 1-,H2 O1'
_chemical_name_systematic        
"9-hydroxy-6'-methoxycinchonan-1-ium 6-methyl-4-oxo-4H-1,2,3-oxathiazin-3-ide 2,2-dioxide monohydrate"
_symmetry_cell_setting           orthorhombic
_symmetry_space_group_name_H-M   'P 21 21 21'
_symmetry_Int_Tables_number      19
_space_group_name_Hall           'P 2ac 2ab'
loop_
_symmetry_equiv_pos_site_id
_symmetry_equiv_pos_as_xyz
1 x,y,z
2 1/2-x,-y,1/2+z
3 1/2+x,1/2-y,-z
4 -x,1/2+y,1/2-z
_cell_length_a                   6.9864(3)
_cell_length_b                   16.3105(8)
_cell_length_c                   21.9899(12)
_cell_angle_alpha                90
_cell_angle_beta                 90
_cell_angle_gamma                90
_cell_volume                     2505.79
_exptl_crystal_colour            colorless
_exptl_crystal_description       block
_cell_formula_units_Z            4
loop_
_atom_site_label
_atom_site_type_symbol
_atom_site_fract_x
_atom_site_fract_y
_atom_site_fract_z
S1 S -1.68617(12) -0.69534(6) -0.32493(4)
O1 O -1.5362(4) -0.7541(2) -0.28879(15)
O2 O -1.7417(6) -0.63380(19) -0.28547(15)
O3 O -1.8300(5) -0.75217(18) -0.34153(17)
O4 O -1.3097(4) -0.62446(19) -0.42958(13)
N1 N -1.5820(5) -0.6638(3) -0.38313(16)
C1 C -1.2383(6) -0.7732(3) -0.24097(16)
H1 H -1.2512 -0.7410 -0.2046
H2 H -1.1056 -0.7767 -0.2520
H3 H -1.2879 -0.8272 -0.2339
C2 C -1.3468(5) -0.7338(2) -0.29099(15)
C3 C -1.2794(5) -0.6904(2) -0.33616(16)
H4 H -1.1482 -0.6809 -0.3369
C4 C -1.3919(5) -0.6563(2) -0.38480(17)
O5 O -1.8402(3) -0.50176(13) -0.50360(11)
H5 H -1.8692 -0.5467 -0.4897
O6 O -1.0759(4) -0.39107(16) -0.33695(12)
N2 N -1.4339(4) -0.56790(15) -0.53885(13)
H6 H -1.3979 -0.5894 -0.5024
N3 N -1.7041(4) -0.22235(16) -0.42283(12)
C5 C -1.5805(6) -0.6235(2) -0.56693(19)
H7 H -1.6832 -0.6337 -0.5382
H8 H -1.5222 -0.6757 -0.5773
C6 C -1.6602(6) -0.5832(2) -0.62393(18)
H9 H -1.6619 -0.6223 -0.6572
H10 H -1.7903 -0.5649 -0.6167
C7 C -1.5344(5) -0.5108(2) -0.64026(15)
H11 H -1.5742 -0.4883 -0.6796
C8 C -1.3255(5) -0.54094(19) -0.64432(15)
H12 H -1.3241 -0.5907 -0.6693
C9 C -1.2621(5) -0.5648(2) -0.57958(16)
H13 H -1.1999 -0.6180 -0.5803
H14 H -1.1712 -0.5249 -0.5643
C10 C -1.5567(5) -0.44508(19) -0.59084(14)
H15 H -1.6880 -0.4258 -0.5900
H16 H -1.4744 -0.3988 -0.5999
C11 C -1.5031(5) -0.48121(17) -0.52855(13)
H17 H -1.3940 -0.4496 -0.5132
C12 C -1.1896(6) -0.4816(2) -0.67179(19)
H18 H -1.1812 -0.4297 -0.6544
C13 C -1.0805(7) -0.4973(3) -0.7189(2)
H19 H -1.0853 -0.5486 -0.7373
H20 H -0.9984 -0.4572 -0.7338
C14 C -1.6607(4) -0.47720(18) -0.47973(14)
H21 H -1.6263 -0.5134 -0.4459
C15 C -1.6743(5) -0.38922(18) -0.45654(13)
C16 C -1.8285(5) -0.34195(19) -0.47329(14)
H22 H -1.9265 -0.3642 -0.4967
C17 C -1.8363(5) -0.25943(19) -0.45461(15)
H23 H -1.9435 -0.2291 -0.4657
C18 C -1.5502(5) -0.2683(2) -0.40537(13)
C19 C -1.4063(5) -0.2295(2) -0.37092(15)
H24 H -1.4174 -0.1739 -0.3622
C20 C -1.2518(5) -0.2716(2) -0.35014(16)
H25 H -1.1577 -0.2446 -0.3279
C21 C -1.2341(5) -0.3564(2) -0.36234(15)
C22 C -1.3682(5) -0.3965(2) -0.39645(13)
H26 H -1.3538 -0.4521 -0.4046
C23 C -1.5308(4) -0.35314(19) -0.41958(13)
C24 C -1.0441(6) -0.4762(2) -0.3468(2)
H27 H -1.0423 -0.4872 -0.3897
H28 H -1.1449 -0.5072 -0.3281
H29 H -0.9235 -0.4918 -0.3293
O7 O -1.9416(4) -0.65270(19) -0.46574(12)
H30 H -2.0484 -0.6413 -0.4493
H31 H -1.8710 -0.6776 -0.4402
loop_
_geom_bond_atom_site_label_1
_geom_bond_atom_site_label_2
_geom_bond_site_symmetry_1
_geom_bond_site_symmetry_2
S1 O1 1_555 1_555
O1 C2 1_555 1_555
O2 S1 1_555 1_555
O3 S1 1_555 1_555
O4 C4 1_555 1_555
N1 S1 1_555 1_555
C1 H1 1_555 1_555
H2 C1 1_555 1_555
H3 C1 1_555 1_555
C2 C1 1_555 1_555
C3 C2 1_555 1_555
H4 C3 1_555 1_555
C4 N1 1_555 1_555
O5 H5 1_555 1_555
O6 C21 1_555 1_555
N2 H6 1_555 1_555
N3 C17 1_555 1_555
C5 N2 1_555 1_555
H7 C5 1_555 1_555
H8 C5 1_555 1_555
C6 C5 1_555 1_555
H9 C6 1_555 1_555
H10 C6 1_555 1_555
C7 C6 1_555 1_555
H11 C7 1_555 1_555
C8 C7 1_555 1_555
H12 C8 1_555 1_555
C9 N2 1_555 1_555
H13 C9 1_555 1_555
H14 C9 1_555 1_555
C10 C7 1_555 1_555
H15 C10 1_555 1_555
H16 C10 1_555 1_555
C11 N2 1_555 1_555
H17 C11 1_555 1_555
C12 C8 1_555 1_555
H18 C12 1_555 1_555
C13 C12 1_555 1_555
H19 C13 1_555 1_555
H20 C13 1_555 1_555
C14 O5 1_555 1_555
H21 C14 1_555 1_555
C15 C14 1_555 1_555
C16 C15 1_555 1_555
H22 C16 1_555 1_555
C17 C16 1_555 1_555
H23 C17 1_555 1_555
C18 N3 1_555 1_555
C19 C18 1_555 1_555
H24 C19 1_555 1_555
C20 C19 1_555 1_555
H25 C20 1_555 1_555
C21 C20 1_555 1_555
C22 C21 1_555 1_555
H26 C22 1_555 1_555
C23 C15 1_555 1_555
C24 O6 1_555 1_555
H27 C24 1_555 1_555
H28 C24 1_555 1_555
H29 C24 1_555 1_555
O7 H30 1_555 1_555
H31 O7 1_555 1_555
C3 C4 1_555 1_555
C8 C9 1_555 1_555
C10 C11 1_555 1_555
C11 C14 1_555 1_555
C18 C23 1_555 1_555
C22 C23 1_555 1_555

#END
