
#######################################################################
#
#                 Cambridge Crystallographic Data Centre
#                                CCDC 
#
#######################################################################
#
# If this CIF has been generated from an entry in the Cambridge 
# Structural Database, then it will include bibliographic, chemical, 
# crystal, experimental, refinement or atomic coordinate data resulting 
# from the CCDC's data processing and validation procedures.
#
#######################################################################

data_YAFHUJ
_chemical_formula_moiety         'C15 H15 N1 S2'
_chemical_name_systematic        2,11-Dithia-(3.3)(1,3)benzo(3,5)pyridinophane
_symmetry_cell_setting           monoclinic
_symmetry_space_group_name_H-M   'C c'
_symmetry_Int_Tables_number      9
_space_group_name_Hall           'C -2yc'
loop_
_symmetry_equiv_pos_site_id
_symmetry_equiv_pos_as_xyz
1 x,y,z
2 x,-y,1/2+z
3 1/2+x,1/2+y,z
4 1/2+x,1/2-y,1/2+z
_cell_length_a                   6.113(1)
_cell_length_b                   17.517(2)
_cell_length_c                   12.983(1)
_cell_angle_alpha                90
_cell_angle_beta                 100.10(1)
_cell_angle_gamma                90
_cell_volume                     1368.69
_exptl_crystal_colour            colorless
_exptl_crystal_description       prisms
_cell_formula_units_Z            4
loop_
_atom_site_label
_atom_site_type_symbol
_atom_site_fract_x
_atom_site_fract_y
_atom_site_fract_z
C1 C 0.7534(10) 0.5161(3) 0.3511(4)
H1 H 0.8260 0.5065 0.4234
H2 H 0.8705 0.5227 0.3091
S1 S 0.5902(3) 0.43246(7) 0.30341(10)
C2 C 0.5374(11) 0.4482(3) 0.1634(4)
H3 H 0.6805 0.4546 0.1403
H4 H 0.4674 0.4022 0.1294
C3 C 0.3941(8) 0.5151(2) 0.1262(3)
C4 C 0.1652(8) 0.5149(3) 0.1275(4)
H5 H 0.1023 0.4707 0.1513
N1 N 0.0338(7) 0.5730(3) 0.0974(4)
C5 C 0.1222(7) 0.6357(3) 0.0648(4)
H6 H 0.0284 0.6775 0.0439
C6 C 0.3487(7) 0.6429(3) 0.0598(3)
C7 C 0.4790(6) 0.5806(3) 0.0889(3)
H7 H 0.6302 0.5823 0.0834
C8 C 0.4411(9) 0.7145(3) 0.0239(4)
H8 H 0.3690 0.7242 -0.0485
H9 H 0.5998 0.7068 0.0237
S2 S 0.4094(2) 0.79925(7) 0.10124(10)
C9 C 0.6096(13) 0.7829(3) 0.2190(5)
H10 H 0.7543 0.7726 0.1992
H11 H 0.6240 0.8298 0.2607
C10 C 0.5555(9) 0.7184(3) 0.2863(3)
C11 C 0.3718(9) 0.7217(3) 0.3347(4)
H12 H 0.2854 0.7663 0.3295
C12 C 0.3139(10) 0.6605(3) 0.3903(4)
H13 H 0.1919 0.6644 0.4252
C13 C 0.4326(9) 0.5942(3) 0.3952(3)
H14 H 0.3866 0.5515 0.4299
C14 C 0.6244(8) 0.5893(3) 0.3484(3)
C15 C 0.6830(8) 0.6515(3) 0.2954(3)
H15 H 0.8110 0.6492 0.2646
loop_
_geom_bond_atom_site_label_1
_geom_bond_atom_site_label_2
_geom_bond_site_symmetry_1
_geom_bond_site_symmetry_2
C1 H1 1_555 1_555
H2 C1 1_555 1_555
S1 C1 1_555 1_555
C2 S1 1_555 1_555
H3 C2 1_555 1_555
H4 C2 1_555 1_555
C3 C2 1_555 1_555
C4 C3 1_555 1_555
H5 C4 1_555 1_555
N1 C4 1_555 1_555
C5 N1 1_555 1_555
H6 C5 1_555 1_555
C6 C5 1_555 1_555
C7 C3 1_555 1_555
H7 C7 1_555 1_555
C8 C6 1_555 1_555
H8 C8 1_555 1_555
H9 C8 1_555 1_555
S2 C8 1_555 1_555
C9 S2 1_555 1_555
H10 C9 1_555 1_555
H11 C9 1_555 1_555
C10 C9 1_555 1_555
C11 C10 1_555 1_555
H12 C11 1_555 1_555
C12 C11 1_555 1_555
H13 C12 1_555 1_555
C13 C12 1_555 1_555
H14 C13 1_555 1_555
C14 C1 1_555 1_555
C15 C10 1_555 1_555
H15 C15 1_555 1_555
C6 C7 1_555 1_555
C13 C14 1_555 1_555
C14 C15 1_555 1_555

#END
