
#######################################################################
#
#                 Cambridge Crystallographic Data Centre
#                                CCDC 
#
#######################################################################
#
# If this CIF has been generated from an entry in the Cambridge 
# Structural Database, then it will include bibliographic, chemical, 
# crystal, experimental, refinement or atomic coordinate data resulting 
# from the CCDC's data processing and validation procedures.
#
#######################################################################

data_YAFHOD
_chemical_formula_moiety         'C18 H20 O2 S2'
_chemical_name_systematic        5,14-Dimethoxy-2,11-dithia(3.3)metacyclophane
_symmetry_cell_setting           orthorhombic
_symmetry_space_group_name_H-M   'P b c n'
_symmetry_Int_Tables_number      60
_space_group_name_Hall           '-P 2n 2ab'
loop_
_symmetry_equiv_pos_site_id
_symmetry_equiv_pos_as_xyz
1 x,y,z
2 1/2+x,1/2+y,1/2-z
3 x,-y,1/2+z
4 1/2-x,1/2+y,z
5 -x,-y,-z
6 1/2-x,1/2-y,1/2+z
7 -x,y,1/2-z
8 1/2+x,1/2-y,-z
_cell_length_a                   9.387(3)
_cell_length_b                   16.4940(10)
_cell_length_c                   21.991(3)
_cell_angle_alpha                90
_cell_angle_beta                 90
_cell_angle_gamma                90
_cell_volume                     3404.85
_exptl_crystal_colour            colorless
_exptl_crystal_description       prisms
_cell_formula_units_Z            8
loop_
_atom_site_label
_atom_site_type_symbol
_atom_site_fract_x
_atom_site_fract_y
_atom_site_fract_z
C1 C -0.1556(8) 0.5738(4) 0.1325(4)
H1 H -0.1952 0.5704 0.0918
H2 H -0.2125 0.5391 0.1585
S1 S 0.0248(2) 0.53400(12) 0.13053(10)
C2 C 0.0985(9) 0.5788(4) 0.0627(3)
H3 H 0.1760 0.5449 0.0484
H4 H 0.0257 0.5791 0.0314
C3 C 0.1541(7) 0.6648(4) 0.0706(3)
C4 C 0.2760(8) 0.6792(5) 0.1035(3)
C5 C 0.3280(9) 0.7581(6) 0.1085(3)
H5 H 0.4109 0.7684 0.1303
C6 C 0.2542(11) 0.8214(5) 0.0804(3)
H6 H 0.2890 0.8740 0.0843
C7 C 0.1335(10) 0.8091(5) 0.0476(3)
C8 C 0.0871(8) 0.7290(4) 0.0419(3)
H7 H 0.0078 0.7184 0.0179
C9 C 0.0485(11) 0.8774(4) 0.0215(3)
H8 H -0.0132 0.8558 -0.0100
H9 H 0.1136 0.9152 0.0022
S2 S -0.0602(3) 0.93297(11) 0.07544(8)
C10 C -0.2140(8) 0.8687(4) 0.0853(3)
H10 H -0.2941 0.9026 0.0967
H11 H -0.2366 0.8443 0.0463
C11 C -0.2005(7) 0.8023(4) 0.1313(2)
C12 C -0.1925(8) 0.8195(4) 0.1930(3)
C13 C -0.1766(8) 0.7588(4) 0.2351(3)
H12 H -0.1747 0.7706 0.2764
C14 C -0.1634(8) 0.6792(5) 0.2148(3)
H13 H -0.1489 0.6381 0.2431
C15 C -0.1711(7) 0.6598(4) 0.1545(3)
C16 C -0.1924(7) 0.7224(4) 0.1135(3)
H14 H -0.2016 0.7100 0.0724
O1 O 0.3391(6) 0.6137(3) 0.1284(2)
C17 C 0.4636(9) 0.6244(6) 0.1641(4)
H15 H 0.5394 0.6442 0.1389
H16 H 0.4908 0.5734 0.1816
H17 H 0.4447 0.6627 0.1959
O2 O -0.2052(6) 0.8999(3) 0.20764(18)
C18 C -0.2097(13) 0.9215(5) 0.2703(3)
H18 H -0.2006 0.9792 0.2743
H19 H -0.1327 0.8954 0.2914
H20 H -0.2987 0.9044 0.2875
loop_
_geom_bond_atom_site_label_1
_geom_bond_atom_site_label_2
_geom_bond_site_symmetry_1
_geom_bond_site_symmetry_2
C1 H1 1_555 1_555
H2 C1 1_555 1_555
S1 C1 1_555 1_555
C2 S1 1_555 1_555
H3 C2 1_555 1_555
H4 C2 1_555 1_555
C3 C2 1_555 1_555
C4 C3 1_555 1_555
C5 C4 1_555 1_555
H5 C5 1_555 1_555
C6 C5 1_555 1_555
H6 C6 1_555 1_555
C7 C6 1_555 1_555
C8 C3 1_555 1_555
H7 C8 1_555 1_555
C9 C7 1_555 1_555
H8 C9 1_555 1_555
H9 C9 1_555 1_555
S2 C9 1_555 1_555
C10 S2 1_555 1_555
H10 C10 1_555 1_555
H11 C10 1_555 1_555
C11 C10 1_555 1_555
C12 C11 1_555 1_555
C13 C12 1_555 1_555
H12 C13 1_555 1_555
C14 C13 1_555 1_555
H13 C14 1_555 1_555
C15 C1 1_555 1_555
C16 C11 1_555 1_555
H14 C16 1_555 1_555
O1 C4 1_555 1_555
C17 O1 1_555 1_555
H15 C17 1_555 1_555
H16 C17 1_555 1_555
H17 C17 1_555 1_555
O2 C12 1_555 1_555
C18 O2 1_555 1_555
H18 C18 1_555 1_555
H19 C18 1_555 1_555
H20 C18 1_555 1_555
C7 C8 1_555 1_555
C14 C15 1_555 1_555
C15 C16 1_555 1_555

#END
