
#######################################################################
#
#                 Cambridge Crystallographic Data Centre
#                                CCDC 
#
#######################################################################
#
# If this CIF has been generated from an entry in the Cambridge 
# Structural Database, then it will include bibliographic, chemical, 
# crystal, experimental, refinement or atomic coordinate data resulting 
# from the CCDC's data processing and validation procedures.
#
#######################################################################

data_YAFJIZ
_chemical_formula_moiety         'C18 H15 Br1 O2'
_chemical_name_systematic        9-Bromo-(3.3)(1,3)cyclophan-2,11-dione
_symmetry_cell_setting           orthorhombic
_symmetry_space_group_name_H-M   'P b c n'
_symmetry_Int_Tables_number      60
_space_group_name_Hall           '-P 2n 2ab'
loop_
_symmetry_equiv_pos_site_id
_symmetry_equiv_pos_as_xyz
1 x,y,z
2 1/2+x,1/2+y,1/2-z
3 x,-y,1/2+z
4 1/2-x,1/2+y,z
5 -x,-y,-z
6 1/2-x,1/2-y,1/2+z
7 -x,y,1/2-z
8 1/2+x,1/2-y,-z
_cell_length_a                   16.164(1)
_cell_length_b                   13.071(1)
_cell_length_c                   28.208(4)
_cell_angle_alpha                90
_cell_angle_beta                 90
_cell_angle_gamma                90
_cell_volume                     5959.78
_exptl_crystal_colour            colorless
_exptl_crystal_description       plates
_cell_formula_units_Z            16
loop_
_atom_site_label
_atom_site_type_symbol
_atom_site_fract_x
_atom_site_fract_y
_atom_site_fract_z
C1 C 0.2178(6) 0.0176(8) 0.5674(3)
H1 H 0.1585 0.0284 0.5692
H2 H 0.2278 -0.0553 0.5645
C2 C 0.2520(7) 0.0720(8) 0.5249(3)
O1 O 0.2232(5) 0.1511(5) 0.5108(3)
C3 C 0.3254(6) 0.0251(7) 0.4980(3)
H3 H 0.3036 -0.0199 0.4737
H4 H 0.3547 0.0800 0.4820
C4 C 0.3873(6) -0.0346(6) 0.5270(3)
C5 C 0.3862(7) -0.1409(7) 0.5267(3)
H5 H 0.3476 -0.1745 0.5079
C6 C 0.4396(8) -0.1974(8) 0.5530(4)
H6 H 0.4388 -0.2684 0.5511
C7 C 0.4950(7) -0.1489(7) 0.5827(4)
H7 H 0.5306 -0.1876 0.6014
C8 C 0.4980(6) -0.0438(7) 0.5847(3)
C9 C 0.4429(7) 0.0116(6) 0.5560(3)
Br1 Br 0.44588(7) 0.15622(7) 0.56012(4)
C10 C 0.5567(6) 0.0068(7) 0.6208(3)
H8 H 0.6011 -0.0412 0.6274
H9 H 0.5815 0.0659 0.6056
C11 C 0.5218(6) 0.0408(9) 0.6671(4)
O2 O 0.5526(5) 0.1085(7) 0.6882(3)
C12 C 0.4438(7) -0.0103(9) 0.6872(3)
H10 H 0.4424 -0.0816 0.6777
H11 H 0.4451 -0.0076 0.7216
C13 C 0.3682(7) 0.0423(8) 0.6697(3)
C14 C 0.3484(7) 0.1394(9) 0.6850(3)
H12 H 0.3786 0.1676 0.7098
C15 C 0.2862(7) 0.1959(9) 0.6652(4)
H13 H 0.2740 0.2609 0.6767
C16 C 0.2414(7) 0.1545(8) 0.6274(3)
H14 H 0.2004 0.1932 0.6129
C17 C 0.2575(6) 0.0563(8) 0.6115(3)
C18 C 0.3190(6) 0.0003(8) 0.6338(3)
H15 H 0.3278 -0.0672 0.6248
C19 C 0.7462(7) 0.6763(9) 0.6627(4)
H16 H 0.7918 0.7210 0.6542
H17 H 0.7674 0.6235 0.6836
C20 C 0.6796(8) 0.7379(9) 0.6884(4)
O3 O 0.6681(6) 0.8259(6) 0.6781(3)
C21 C 0.6282(8) 0.6893(8) 0.7271(4)
H18 H 0.6557 0.7017 0.7571
H19 H 0.5754 0.7243 0.7282
C22 C 0.6117(7) 0.5762(7) 0.7232(3)
C23 C 0.6606(7) 0.5066(9) 0.7480(3)
H20 H 0.7016 0.5306 0.7683
C24 C 0.6494(8) 0.4047(9) 0.7428(3)
H21 H 0.6816 0.3601 0.7607
C25 C 0.5923(7) 0.3647(7) 0.7121(3)
H22 H 0.5872 0.2943 0.7086
C26 C 0.5419(6) 0.4309(7) 0.6861(3)
C27 C 0.5528(6) 0.5349(7) 0.6929(3)
Br2 Br 0.48552(8) 0.62555(8) 0.65741(4)
C28 C 0.4816(8) 0.3868(8) 0.6497(3)
H23 H 0.4709 0.3159 0.6578
H24 H 0.4297 0.4235 0.6522
C29 C 0.5097(7) 0.3909(7) 0.5991(4)
O4 O 0.4596(5) 0.3978(6) 0.5683(3)
C30 C 0.6007(6) 0.3817(7) 0.5862(3)
H25 H 0.6064 0.3452 0.5564
H26 H 0.6296 0.3432 0.6105
C31 C 0.6389(6) 0.4884(7) 0.5817(3)
C32 C 0.6168(6) 0.5500(8) 0.5439(3)
H27 H 0.5817 0.5261 0.5203
C33 C 0.6485(7) 0.6485(8) 0.5423(3)
H28 H 0.6396 0.6881 0.5154
C34 C 0.6921(6) 0.6889(7) 0.5790(3)
H29 H 0.7096 0.7567 0.5781
C35 C 0.7104(7) 0.6275(8) 0.6181(3)
C36 C 0.6852(6) 0.5274(7) 0.6178(3)
H30 H 0.7001 0.4850 0.6428
loop_
_geom_bond_atom_site_label_1
_geom_bond_atom_site_label_2
_geom_bond_site_symmetry_1
_geom_bond_site_symmetry_2
C1 H1 1_555 1_555
H2 C1 1_555 1_555
C2 C1 1_555 1_555
O1 C2 1_555 1_555
C3 C2 1_555 1_555
H3 C3 1_555 1_555
H4 C3 1_555 1_555
C4 C3 1_555 1_555
C5 C4 1_555 1_555
H5 C5 1_555 1_555
C6 C5 1_555 1_555
H6 C6 1_555 1_555
C7 C6 1_555 1_555
H7 C7 1_555 1_555
C8 C7 1_555 1_555
C9 C4 1_555 1_555
Br1 C9 1_555 1_555
C10 C8 1_555 1_555
H8 C10 1_555 1_555
H9 C10 1_555 1_555
C11 C10 1_555 1_555
O2 C11 1_555 1_555
C12 C11 1_555 1_555
H10 C12 1_555 1_555
H11 C12 1_555 1_555
C13 C12 1_555 1_555
C14 C13 1_555 1_555
H12 C14 1_555 1_555
C15 C14 1_555 1_555
H13 C15 1_555 1_555
C16 C15 1_555 1_555
H14 C16 1_555 1_555
C17 C1 1_555 1_555
C18 C13 1_555 1_555
H15 C18 1_555 1_555
C19 H16 1_555 1_555
H17 C19 1_555 1_555
C20 C19 1_555 1_555
O3 C20 1_555 1_555
C21 C20 1_555 1_555
H18 C21 1_555 1_555
H19 C21 1_555 1_555
C22 C21 1_555 1_555
C23 C22 1_555 1_555
H20 C23 1_555 1_555
C24 C23 1_555 1_555
H21 C24 1_555 1_555
C25 C24 1_555 1_555
H22 C25 1_555 1_555
C26 C25 1_555 1_555
C27 C22 1_555 1_555
Br2 C27 1_555 1_555
C28 C26 1_555 1_555
H23 C28 1_555 1_555
H24 C28 1_555 1_555
C29 C28 1_555 1_555
O4 C29 1_555 1_555
C30 C29 1_555 1_555
H25 C30 1_555 1_555
H26 C30 1_555 1_555
C31 C30 1_555 1_555
C32 C31 1_555 1_555
H27 C32 1_555 1_555
C33 C32 1_555 1_555
H28 C33 1_555 1_555
C34 C33 1_555 1_555
H29 C34 1_555 1_555
C35 C19 1_555 1_555
C36 C31 1_555 1_555
H30 C36 1_555 1_555
C8 C9 1_555 1_555
C16 C17 1_555 1_555
C17 C18 1_555 1_555
C26 C27 1_555 1_555
C34 C35 1_555 1_555
C35 C36 1_555 1_555

#END
