
#######################################################################
#
#                 Cambridge Crystallographic Data Centre
#                                CCDC 
#
#######################################################################
#
# If this CIF has been generated from an entry in the Cambridge 
# Structural Database, then it will include bibliographic, chemical, 
# crystal, experimental, refinement or atomic coordinate data resulting 
# from the CCDC's data processing and validation procedures.
#
#######################################################################

data_YAFJUL
_chemical_formula_moiety         'C24 H28'
_chemical_name_systematic        
1-Phenyl-4-(4-phenylcyclohexylidene)cyclohexane
_symmetry_cell_setting           triclinic
_symmetry_space_group_name_H-M   'P -1'
_symmetry_Int_Tables_number      2
_space_group_name_Hall           '-P 1'
loop_
_symmetry_equiv_pos_site_id
_symmetry_equiv_pos_as_xyz
1 x,y,z
2 -x,-y,-z
_cell_length_a                   5.956(2)
_cell_length_b                   8.354(3)
_cell_length_c                   9.611(4)
_cell_angle_alpha                77.42(3)
_cell_angle_beta                 74.83(3)
_cell_angle_gamma                84.82(3)
_cell_volume                     450.183
_exptl_crystal_colour            colorless
_exptl_crystal_description       prisms
_cell_formula_units_Z            1
loop_
_atom_site_label
_atom_site_type_symbol
_atom_site_fract_x
_atom_site_fract_y
_atom_site_fract_z
C1 C 0.4477(3) 0.93973(18) 0.55312(14)
C2 C 0.5695(3) 0.7811(2) 0.60808(16)
H1 H 0.7330 0.7837 0.5565
H2 H 0.5026 0.6902 0.5869
C3 C 0.5464(3) 0.7540(2) 0.77407(16)
H3 H 0.6215 0.6497 0.8066
H4 H 0.6248 0.8400 0.7943
C4 C 0.2917(3) 0.75463(18) 0.85951(15)
H5 H 0.2189 0.6664 0.8363
C5 C 0.1703(3) 0.9146(2) 0.80401(15)
H6 H 0.2359 1.0049 0.8268
H7 H 0.0063 0.9116 0.8544
C6 C 0.1962(3) 0.9441(2) 0.63751(16)
H8 H 0.1145 0.8607 0.6160
H9 H 0.1249 1.0501 0.6054
C7 C 0.2533(3) 0.72083(17) 1.02549(15)
C8 C 0.0502(3) 0.64980(19) 1.11352(16)
H10 H -0.0593 0.6223 1.0699
C9 C 0.0063(3) 0.6187(2) 1.26560(17)
H11 H -0.1309 0.5699 1.3230
C10 C 0.1644(3) 0.6596(2) 1.33158(16)
H12 H 0.1355 0.6383 1.4337
C11 C 0.3646(3) 0.7318(2) 1.24666(17)
H13 H 0.4720 0.7607 1.2911
C12 C 0.4089(3) 0.7626(2) 1.09446(17)
H14 H 0.5460 0.8122 1.0379
C1A C 0.5523(3) 1.06027(18) 0.44688(14)
C2A C 0.4305(3) 1.2189(2) 0.39192(16)
H1A H 0.2670 1.2163 0.4435
H2A H 0.4974 1.3098 0.4131
C3A C 0.4536(3) 1.2460(2) 0.22593(16)
H3A H 0.3785 1.3503 0.1934
H4A H 0.3752 1.1600 0.2057
C4A C 0.7083(3) 1.24537(18) 0.14049(15)
H5A H 0.7811 1.3336 0.1637
C5A C 0.8297(3) 1.0854(2) 0.19599(15)
H6A H 0.7641 0.9951 0.1732
H7A H 0.9937 1.0884 0.1456
C6A C 0.8038(3) 1.0559(2) 0.36249(16)
H8A H 0.8855 1.1393 0.3840
H9A H 0.8751 0.9499 0.3946
C7A C 0.7467(3) 1.27917(17) -0.02549(15)
C8A C 0.9498(3) 1.35020(19) -0.11352(16)
H10A H 1.0593 1.3777 -0.0699
C9A C 0.9937(3) 1.3813(2) -0.26560(17)
H11A H 1.1309 1.4301 -0.3230
C10A C 0.8356(3) 1.3404(2) -0.33158(16)
H12A H 0.8645 1.3617 -0.4337
C11A C 0.6354(3) 1.2682(2) -0.24666(17)
H13A H 0.5280 1.2393 -0.2911
C12A C 0.5911(3) 1.2374(2) -0.09446(17)
H14A H 0.4540 1.1878 -0.0379
loop_
_geom_bond_atom_site_label_1
_geom_bond_atom_site_label_2
_geom_bond_site_symmetry_1
_geom_bond_site_symmetry_2
C1 C2 1_555 1_555
C2 H1 1_555 1_555
H2 C2 1_555 1_555
C3 C2 1_555 1_555
H3 C3 1_555 1_555
H4 C3 1_555 1_555
C4 C3 1_555 1_555
H5 C4 1_555 1_555
C5 C4 1_555 1_555
H6 C5 1_555 1_555
H7 C5 1_555 1_555
C6 C1 1_555 1_555
H8 C6 1_555 1_555
H9 C6 1_555 1_555
C7 C4 1_555 1_555
C8 C7 1_555 1_555
H10 C8 1_555 1_555
C9 C8 1_555 1_555
H11 C9 1_555 1_555
C10 C9 1_555 1_555
H12 C10 1_555 1_555
C11 C10 1_555 1_555
H13 C11 1_555 1_555
C12 C7 1_555 1_555
H14 C12 1_555 1_555
C1A C1 1_555 1_555
C2A C1A 1_555 1_555
H1A C2A 1_555 1_555
H2A C2A 1_555 1_555
C3A C2A 1_555 1_555
H3A C3A 1_555 1_555
H4A C3A 1_555 1_555
C4A C3A 1_555 1_555
H5A C4A 1_555 1_555
C5A C4A 1_555 1_555
H6A C5A 1_555 1_555
H7A C5A 1_555 1_555
C6A C1A 1_555 1_555
H8A C6A 1_555 1_555
H9A C6A 1_555 1_555
C7A C4A 1_555 1_555
C8A C7A 1_555 1_555
H10A C8A 1_555 1_555
C9A C8A 1_555 1_555
H11A C9A 1_555 1_555
C10A C9A 1_555 1_555
H12A C10A 1_555 1_555
C11A C10A 1_555 1_555
H13A C11A 1_555 1_555
C12A C7A 1_555 1_555
H14A C12A 1_555 1_555
C5 C6 1_555 1_555
C11 C12 1_555 1_555
C5A C6A 1_555 1_555
C11A C12A 1_555 1_555

#END
