
#######################################################################
#
#                 Cambridge Crystallographic Data Centre
#                                CCDC 
#
#######################################################################
#
# If this CIF has been generated from an entry in the Cambridge 
# Structural Database, then it will include bibliographic, chemical, 
# crystal, experimental, refinement or atomic coordinate data resulting 
# from the CCDC's data processing and validation procedures.
#
#######################################################################

data_YAFJAR
_chemical_formula_moiety         'C21 H24 O6'
_chemical_name_systematic        1,3,5-tris(2-(Ethoxycarbonyl)ethenyl)benzene
_symmetry_cell_setting           monoclinic
_symmetry_space_group_name_H-M   'P 21/c'
_symmetry_Int_Tables_number      14
_space_group_name_Hall           '-P 2ybc'
loop_
_symmetry_equiv_pos_site_id
_symmetry_equiv_pos_as_xyz
1 x,y,z
2 x,1/2-y,1/2+z
3 -x,-y,-z
4 -x,1/2+y,1/2-z
_cell_length_a                   13.067(1)
_cell_length_b                   16.029(1)
_cell_length_c                   9.608(1)
_cell_angle_alpha                90
_cell_angle_beta                 96.07(1)
_cell_angle_gamma                90
_cell_volume                     2001.12
_exptl_crystal_colour            colorless
_exptl_crystal_description       plates
_cell_formula_units_Z            4
loop_
_atom_site_label
_atom_site_type_symbol
_atom_site_fract_x
_atom_site_fract_y
_atom_site_fract_z
C1 C 0.2951(5) 0.4562(4) 0.7036(6)
C2 C 0.2588(4) 0.5396(4) 0.6923(7)
H1 H 0.2242 0.5628 0.7626
C3 C 0.2759(5) 0.5868(4) 0.5729(7)
C4 C 0.3253(5) 0.5508(4) 0.4681(7)
H2 H 0.3356 0.5820 0.3892
C5 C 0.3597(5) 0.4693(4) 0.4776(7)
C6 C 0.3448(5) 0.4233(4) 0.5961(6)
H3 H 0.3690 0.3688 0.6034
C7 C 0.2817(5) 0.4026(4) 0.8246(7)
H4 H 0.3131 0.3506 0.8230
C8 C 0.2332(5) 0.4163(4) 0.9327(7)
H5 H 0.2024 0.4679 0.9425
C9 C 0.2254(6) 0.3524(5) 1.0407(7)
O1 O 0.2659(4) 0.2851(3) 1.0437(5)
O2 O 0.1672(4) 0.3778(3) 1.1363(5)
C10 C 0.1413(11) 0.3104(7) 1.2311(11)
H6 H 0.2032 0.2812 1.2687
H7 H 0.0951 0.2706 1.1810
C11 C 0.0908(11) 0.3498(8) 1.3461(12)
H8 H 0.0732 0.3076 1.4103
H9 H 0.0294 0.3781 1.3076
H10 H 0.1371 0.3893 1.3945
C14 C 0.2384(5) 0.6743(4) 0.5526(8)
H16 H 0.2479 0.6994 0.4676
C15 C 0.1959(5) 0.7167(5) 0.6367(8)
H17 H 0.1868 0.6940 0.7237
C16 C 0.1573(5) 0.8065(5) 0.6025(10)
O3 O 0.1623(4) 0.8416(3) 0.4915(6)
O4 O 0.1148(4) 0.8362(3) 0.7047(5)
C17 C 0.0690(6) 0.9183(4) 0.6861(8)
H18 H 0.0217 0.9203 0.6013
H19 H 0.1218 0.9603 0.6799
C18 C 0.0135(6) 0.9330(5) 0.8113(8)
H20 H -0.0185 0.9870 0.8046
H21 H 0.0614 0.9305 0.8942
H22 H -0.0383 0.8909 0.8160
C19 C 0.4116(5) 0.4332(4) 0.3641(6)
H23 H 0.4314 0.4702 0.2974
C20 C 0.4333(5) 0.3543(4) 0.3466(7)
H24 H 0.4140 0.3172 0.4135
C21 C 0.4844(6) 0.3191(5) 0.2330(7)
O5 O 0.5027(5) 0.2459(3) 0.2226(5)
O6 O 0.5098(3) 0.3765(3) 0.1414(4)
C22 C 0.5646(6) 0.3434(4) 0.0294(7)
H25 H 0.5254 0.2983 -0.0179
H26 H 0.6310 0.3217 0.0674
C23 C 0.5785(5) 0.4111(4) -0.0697(7)
H27 H 0.6146 0.3903 -0.1445
H28 H 0.6177 0.4553 -0.0222
H29 H 0.5125 0.4320 -0.1072
C12? C 0.1683(12) 0.3333(13) 1.2702(15)
H11? H 0.1892 0.3695 1.3489
H12? H 0.2134 0.2851 1.2735
C13? C 0.0584(12) 0.3082(14) 1.268(2)
H13? H 0.0487 0.2786 1.3522
H14? H 0.0400 0.2727 1.1885
H15? H 0.0157 0.3570 1.2607
loop_
_geom_bond_atom_site_label_1
_geom_bond_atom_site_label_2
_geom_bond_site_symmetry_1
_geom_bond_site_symmetry_2
C1 C2 1_555 1_555
C2 H1 1_555 1_555
C3 C2 1_555 1_555
C4 C3 1_555 1_555
H2 C4 1_555 1_555
C5 C4 1_555 1_555
C6 C1 1_555 1_555
H3 C6 1_555 1_555
C7 C1 1_555 1_555
H4 C7 1_555 1_555
C8 C7 1_555 1_555
H5 C8 1_555 1_555
C9 C8 1_555 1_555
O1 C9 1_555 1_555
O2 C9 1_555 1_555
C10 O2 1_555 1_555
H6 C10 1_555 1_555
H7 C10 1_555 1_555
C11 C10 1_555 1_555
H8 C11 1_555 1_555
H9 C11 1_555 1_555
H10 C11 1_555 1_555
C14 C3 1_555 1_555
H16 C14 1_555 1_555
C15 C14 1_555 1_555
H17 C15 1_555 1_555
C16 C15 1_555 1_555
O3 C16 1_555 1_555
O4 C16 1_555 1_555
C17 O4 1_555 1_555
H18 C17 1_555 1_555
H19 C17 1_555 1_555
C18 C17 1_555 1_555
H20 C18 1_555 1_555
H21 C18 1_555 1_555
H22 C18 1_555 1_555
C19 C5 1_555 1_555
H23 C19 1_555 1_555
C20 C19 1_555 1_555
H24 C20 1_555 1_555
C21 C20 1_555 1_555
O5 C21 1_555 1_555
O6 C21 1_555 1_555
C22 O6 1_555 1_555
H25 C22 1_555 1_555
H26 C22 1_555 1_555
C23 C22 1_555 1_555
H27 C23 1_555 1_555
H28 C23 1_555 1_555
H29 C23 1_555 1_555
C5 C6 1_555 1_555

#END
