
#######################################################################
#
#                 Cambridge Crystallographic Data Centre
#                                CCDC 
#
#######################################################################
#
# If this CIF has been generated from an entry in the Cambridge 
# Structural Database, then it will include bibliographic, chemical, 
# crystal, experimental, refinement or atomic coordinate data resulting 
# from the CCDC's data processing and validation procedures.
#
#######################################################################

data_YAFKAS
_chemical_formula_moiety         'C22 H16 N6'
_chemical_name_systematic        
N,N'-bis(2,2'-Bipyridin-5-ylmethylene)hydrazine
_symmetry_cell_setting           monoclinic
_symmetry_space_group_name_H-M   'P 21/n'
_symmetry_Int_Tables_number      14
_space_group_name_Hall           '-P 2yn'
loop_
_symmetry_equiv_pos_site_id
_symmetry_equiv_pos_as_xyz
1 x,y,z
2 1/2+x,1/2-y,1/2+z
3 -x,-y,-z
4 1/2-x,1/2+y,1/2-z
_cell_length_a                   6.270(2)
_cell_length_b                   23.968(9)
_cell_length_c                   6.359(2)
_cell_angle_alpha                90
_cell_angle_beta                 106.04(3)
_cell_angle_gamma                90
_cell_volume                     918.423
_exptl_crystal_colour            orange
_exptl_crystal_description       prisms
_cell_formula_units_Z            2
loop_
_atom_site_label
_atom_site_type_symbol
_atom_site_fract_x
_atom_site_fract_y
_atom_site_fract_z
N1 N 0.4890(3) 0.48027(7) 0.9136(3)
C1 C 0.6530(4) 0.48179(9) 0.8373(3)
H1 H 0.7671 0.5068 0.8963
C2 C 0.6706(3) 0.44538(8) 0.6583(3)
C3 C 0.8598(4) 0.44823(9) 0.5881(3)
H2 H 0.9704 0.4730 0.6590
N2 N 0.8944(3) 0.41758(7) 0.4245(3)
C4 C 0.7358(3) 0.38164(7) 0.3245(3)
C5 C 0.5430(3) 0.37584(8) 0.3865(3)
H3 H 0.4361 0.3502 0.3155
C6 C 0.5088(3) 0.40801(9) 0.5533(3)
H4 H 0.3783 0.4046 0.5948
C7 C 0.7783(3) 0.34844(8) 0.1425(3)
C8 C 0.9648(3) 0.35689(9) 0.0722(3)
H5 H 1.0665 0.3845 0.1359
C9 C 0.9994(4) 0.32397(10) -0.0943(4)
H6 H 1.1249 0.3290 -0.1431
C10 C 0.8470(4) 0.28413(10) -0.1855(4)
H7 H 0.8665 0.2612 -0.2966
C11 C 0.6640(4) 0.27880(10) -0.1089(4)
H8 H 0.5591 0.2519 -0.1729
N3 N 0.6271(3) 0.30984(7) 0.0521(3)
N1B N 0.5110(3) 0.51973(7) 1.0864(3)
C1B C 0.3470(4) 0.51821(9) 1.1627(3)
H1B H 0.2329 0.4932 1.1037
C2B C 0.3294(3) 0.55462(8) 1.3417(3)
C3B C 0.1402(4) 0.55177(9) 1.4119(3)
H2B H 0.0296 0.5270 1.3410
N2B N 0.1056(3) 0.58242(7) 1.5755(3)
C4B C 0.2642(3) 0.61836(7) 1.6755(3)
C5B C 0.4570(3) 0.62416(8) 1.6135(3)
H3B H 0.5639 0.6498 1.6845
C6B C 0.4912(3) 0.59199(9) 1.4467(3)
H4B H 0.6217 0.5954 1.4052
C7B C 0.2217(3) 0.65156(8) 1.8575(3)
C8B C 0.0352(3) 0.64311(9) 1.9278(3)
H5B H -0.0665 0.6155 1.8641
C9B C 0.0006(4) 0.67603(10) 2.0943(4)
H6B H -0.1249 0.6710 2.1431
C10B C 0.1530(4) 0.71587(10) 2.1855(4)
H7B H 0.1335 0.7388 2.2966
C11B C 0.3360(4) 0.72120(10) 2.1089(4)
H8B H 0.4409 0.7481 2.1729
N3B N 0.3729(3) 0.69016(7) 1.9479(3)
loop_
_geom_bond_atom_site_label_1
_geom_bond_atom_site_label_2
_geom_bond_site_symmetry_1
_geom_bond_site_symmetry_2
N1 C1 1_555 1_555
C1 H1 1_555 1_555
C2 C1 1_555 1_555
C3 C2 1_555 1_555
H2 C3 1_555 1_555
N2 C3 1_555 1_555
C4 N2 1_555 1_555
C5 C4 1_555 1_555
H3 C5 1_555 1_555
C6 C2 1_555 1_555
H4 C6 1_555 1_555
C7 C4 1_555 1_555
C8 C7 1_555 1_555
H5 C8 1_555 1_555
C9 C8 1_555 1_555
H6 C9 1_555 1_555
C10 C9 1_555 1_555
H7 C10 1_555 1_555
C11 C10 1_555 1_555
H8 C11 1_555 1_555
N3 C7 1_555 1_555
N1B N1 1_555 1_555
C1B N1B 1_555 1_555
H1B C1B 1_555 1_555
C2B C1B 1_555 1_555
C3B C2B 1_555 1_555
H2B C3B 1_555 1_555
N2B C3B 1_555 1_555
C4B N2B 1_555 1_555
C5B C4B 1_555 1_555
H3B C5B 1_555 1_555
C6B C2B 1_555 1_555
H4B C6B 1_555 1_555
C7B C4B 1_555 1_555
C8B C7B 1_555 1_555
H5B C8B 1_555 1_555
C9B C8B 1_555 1_555
H6B C9B 1_555 1_555
C10B C9B 1_555 1_555
H7B C10B 1_555 1_555
C11B C10B 1_555 1_555
H8B C11B 1_555 1_555
N3B C7B 1_555 1_555
C5 C6 1_555 1_555
C11 N3 1_555 1_555
C5B C6B 1_555 1_555
C11B N3B 1_555 1_555

#END
