
#######################################################################
#
#                 Cambridge Crystallographic Data Centre
#                                CCDC 
#
#######################################################################
#
# If this CIF has been generated from an entry in the Cambridge 
# Structural Database, then it will include bibliographic, chemical, 
# crystal, experimental, refinement or atomic coordinate data resulting 
# from the CCDC's data processing and validation procedures.
#
#######################################################################

data_YAFKOG
_chemical_formula_moiety         'C20 H22 Br2 S2'
_chemical_name_systematic        
17,20-Dibromo-18,19-dimethyl-2,13-dithia(1,3)(1,2)(4.4)cyclophane
_symmetry_cell_setting           monoclinic
_symmetry_space_group_name_H-M   'P 21/c'
_symmetry_Int_Tables_number      14
_space_group_name_Hall           '-P 2ybc'
loop_
_symmetry_equiv_pos_site_id
_symmetry_equiv_pos_as_xyz
1 x,y,z
2 x,1/2-y,1/2+z
3 -x,-y,-z
4 -x,1/2+y,1/2-z
_cell_length_a                   7.696(3)
_cell_length_b                   29.434(12)
_cell_length_c                   8.896(4)
_cell_angle_alpha                90
_cell_angle_beta                 94.75(3)
_cell_angle_gamma                90
_cell_volume                     2008.24
_exptl_crystal_colour            colorless
_exptl_crystal_description       plates
_cell_formula_units_Z            4
loop_
_atom_site_label
_atom_site_type_symbol
_atom_site_fract_x
_atom_site_fract_y
_atom_site_fract_z
C1 C 0.3437(8) 0.5710(2) 0.5150(7)
H1 H 0.3439 0.5397 0.5498
H2 H 0.4634 0.5801 0.5056
S1 S 0.2179(2) 0.57563(7) 0.3331(2)
C2 C 0.3246(10) 0.5368(2) 0.2155(9)
H3 H 0.3089 0.5064 0.2541
H4 H 0.2643 0.5380 0.1154
C3 C 0.5104(9) 0.5432(2) 0.1997(9)
H5 H 0.5403 0.5264 0.1115
H6 H 0.5751 0.5297 0.2867
C4 C 0.5720(8) 0.5921(2) 0.1847(7)
C5 C 0.4993(9) 0.6220(3) 0.0786(7)
H7 H 0.4144 0.6118 0.0059
C6 C 0.5499(10) 0.6667(3) 0.0783(8)
H8 H 0.5004 0.6860 0.0039
C7 C 0.6715(9) 0.6835(2) 0.1849(8)
H9 H 0.7009 0.7142 0.1856
C8 C 0.7510(7) 0.6540(2) 0.2928(6)
C9 C 0.7009(7) 0.6089(2) 0.2885(6)
H10 H 0.7558 0.5889 0.3582
C10 C 0.8780(7) 0.6722(2) 0.4158(7)
H11 H 0.9602 0.6921 0.3715
H12 H 0.9433 0.6470 0.4631
C11 C 0.7894(7) 0.6982(2) 0.5362(6)
H13 H 0.7186 0.7221 0.4873
H14 H 0.8786 0.7127 0.6033
S2 S 0.65281(19) 0.66414(6) 0.64809(17)
C12 C 0.4414(7) 0.6678(2) 0.5408(6)
H15 H 0.4132 0.6992 0.5169
H16 H 0.4432 0.6510 0.4471
C13 C 0.3073(6) 0.6477(2) 0.6367(6)
C14 C 0.2621(7) 0.6015(2) 0.6274(6)
C15 C 0.1388(8) 0.5849(2) 0.7200(7)
C16 C 0.0613(7) 0.6116(2) 0.8248(6)
C17 C 0.1073(7) 0.6577(2) 0.8372(6)
C18 C 0.2282(7) 0.67389(19) 0.7417(6)
Br1 Br 0.06685(10) 0.52328(2) 0.69624(10)
Br2 Br 0.28390(9) 0.73744(2) 0.75236(7)
C19 C -0.0681(8) 0.5919(2) 0.9270(7)
H17 H -0.1820 0.6040 0.8992
H18 H -0.0332 0.5997 1.0299
H19 H -0.0709 0.5594 0.9167
C20 C 0.0276(8) 0.6873(2) 0.9511(7)
H20 H -0.0882 0.6959 0.9131
H21 H 0.0975 0.7141 0.9691
H22 H 0.0225 0.6709 1.0438
loop_
_geom_bond_atom_site_label_1
_geom_bond_atom_site_label_2
_geom_bond_site_symmetry_1
_geom_bond_site_symmetry_2
C1 H1 1_555 1_555
H2 C1 1_555 1_555
S1 C1 1_555 1_555
C2 S1 1_555 1_555
H3 C2 1_555 1_555
H4 C2 1_555 1_555
C3 C2 1_555 1_555
H5 C3 1_555 1_555
H6 C3 1_555 1_555
C4 C3 1_555 1_555
C5 C4 1_555 1_555
H7 C5 1_555 1_555
C6 C5 1_555 1_555
H8 C6 1_555 1_555
C7 C6 1_555 1_555
H9 C7 1_555 1_555
C8 C7 1_555 1_555
C9 C4 1_555 1_555
H10 C9 1_555 1_555
C10 C8 1_555 1_555
H11 C10 1_555 1_555
H12 C10 1_555 1_555
C11 C10 1_555 1_555
H13 C11 1_555 1_555
H14 C11 1_555 1_555
S2 C11 1_555 1_555
C12 S2 1_555 1_555
H15 C12 1_555 1_555
H16 C12 1_555 1_555
C13 C12 1_555 1_555
C14 C1 1_555 1_555
C15 C14 1_555 1_555
C16 C15 1_555 1_555
C17 C16 1_555 1_555
C18 C13 1_555 1_555
Br1 C15 1_555 1_555
Br2 C18 1_555 1_555
C19 C16 1_555 1_555
H17 C19 1_555 1_555
H18 C19 1_555 1_555
H19 C19 1_555 1_555
C20 C17 1_555 1_555
H20 C20 1_555 1_555
H21 C20 1_555 1_555
H22 C20 1_555 1_555
C8 C9 1_555 1_555
C13 C14 1_555 1_555
C17 C18 1_555 1_555

#END
