
#######################################################################
#
#                 Cambridge Crystallographic Data Centre
#                                CCDC 
#
#######################################################################
#
# If this CIF has been generated from an entry in the Cambridge 
# Structural Database, then it will include bibliographic, chemical, 
# crystal, experimental, refinement or atomic coordinate data resulting 
# from the CCDC's data processing and validation procedures.
#
#######################################################################

data_YAFLUN
_chemical_formula_moiety         'C33 H36 O3'
_chemical_name_systematic        
5,8,14,17,23,26-Hexamethyl(3.3.3)paracyclophane-2,11,20-trione
_symmetry_cell_setting           monoclinic
_symmetry_space_group_name_H-M   'P 21/n'
_symmetry_Int_Tables_number      14
_space_group_name_Hall           '-P 2yn'
loop_
_symmetry_equiv_pos_site_id
_symmetry_equiv_pos_as_xyz
1 x,y,z
2 1/2+x,1/2-y,1/2+z
3 -x,-y,-z
4 1/2-x,1/2+y,1/2-z
_cell_length_a                   10.527(3)
_cell_length_b                   17.734(6)
_cell_length_c                   14.865(5)
_cell_angle_alpha                90
_cell_angle_beta                 105.67(2)
_cell_angle_gamma                90
_cell_volume                     2671.94
_exptl_crystal_colour            colorless
_exptl_crystal_description       prisms
_cell_formula_units_Z            4
loop_
_atom_site_label
_atom_site_type_symbol
_atom_site_fract_x
_atom_site_fract_y
_atom_site_fract_z
C1 C 0.9523(3) 0.10121(15) 0.6116(2)
H1 H 0.9991 0.1488 0.6164
H2 H 1.0151 0.0633 0.6429
C2 C 0.9031(3) 0.08037(18) 0.5097(2)
O1 O 0.8442(2) 0.02259(13) 0.48646(16)
C3 C 0.9313(3) 0.13455(16) 0.4394(2)
H3 H 0.9145 0.1098 0.3792
H4 H 1.0237 0.1488 0.4587
C4 C 0.8464(3) 0.20494(16) 0.4302(2)
C5 C 0.9010(3) 0.27059(17) 0.4770(2)
H5 H 0.9895 0.2702 0.5103
C6 C 0.8290(3) 0.33621(15) 0.4761(2)
C7 C 0.6995(3) 0.33773(14) 0.42094(19)
C8 C 0.6466(3) 0.27298(16) 0.37265(19)
H6 H 0.5605 0.2748 0.3347
C9 C 0.7155(4) 0.20579(16) 0.3782(2)
C10 C 0.6129(3) 0.40651(14) 0.4171(2)
H7 H 0.6671 0.4515 0.4306
H8 H 0.5531 0.4116 0.3551
C11 C 0.5350(3) 0.39780(14) 0.4884(2)
O2 O 0.5758(2) 0.42122(11) 0.56689(16)
C12 C 0.4025(3) 0.35829(15) 0.45505(18)
H9 H 0.3334 0.3960 0.4460
H10 H 0.3967 0.3356 0.3947
C13 C 0.3762(2) 0.29804(14) 0.51945(18)
C14 C 0.4094(2) 0.22398(15) 0.50351(17)
H11 H 0.4456 0.2146 0.4540
C15 C 0.3911(2) 0.16361(14) 0.55812(18)
C16 C 0.3367(2) 0.17835(14) 0.63226(18)
C17 C 0.3017(2) 0.25212(15) 0.64648(19)
H12 H 0.2632 0.2616 0.6947
C18 C 0.3216(2) 0.31205(14) 0.5922(2)
C19 C 0.3143(3) 0.11693(15) 0.6959(2)
H13 H 0.2483 0.1346 0.7255
H14 H 0.2767 0.0740 0.6573
C20 C 0.4297(3) 0.08941(16) 0.7709(2)
O3 O 0.4261(2) 0.02721(13) 0.80343(17)
C21 C 0.5466(3) 0.14030(15) 0.80838(18)
H15 H 0.5856 0.1288 0.8738
H16 H 0.5167 0.1922 0.8042
C22 C 0.6508(2) 0.13196(13) 0.75591(16)
C23 C 0.6995(3) 0.06051(13) 0.74548(17)
H17 H 0.6651 0.0196 0.7701
C24 C 0.7963(3) 0.04702(13) 0.70055(17)
C25 C 0.8463(2) 0.10849(14) 0.66252(17)
C26 C 0.7982(2) 0.18008(13) 0.67409(17)
H18 H 0.8323 0.2210 0.6492
C27 C 0.7035(2) 0.19368(12) 0.72018(16)
C28 C 0.8942(3) 0.40332(16) 0.5337(2)
H19 H 0.8416 0.4193 0.5738
H20 H 0.9019 0.4439 0.4928
H21 H 0.9804 0.3892 0.5710
C29 C 0.6444(4) 0.13647(17) 0.3302(2)
H22 H 0.6224 0.1043 0.3757
H23 H 0.7005 0.1098 0.2999
H24 H 0.5650 0.1514 0.2846
C30 C 0.4328(3) 0.08602(14) 0.5370(2)
H25 H 0.3591 0.0522 0.5274
H26 H 0.5029 0.0686 0.5885
H27 H 0.4629 0.0878 0.4815
C31 C 0.2855(3) 0.39129(15) 0.6143(2)
H28 H 0.3635 0.4220 0.6306
H29 H 0.2466 0.3898 0.6657
H30 H 0.2236 0.4123 0.5605
C32 C 0.6654(3) 0.27418(13) 0.7336(2)
H31 H 0.6774 0.2837 0.7989
H32 H 0.5746 0.2821 0.7005
H33 H 0.7200 0.3079 0.7099
C33 C 0.8469(3) -0.03202(14) 0.6963(2)
H34 H 0.9400 -0.0334 0.7257
H35 H 0.8303 -0.0473 0.6322
H36 H 0.8024 -0.0657 0.7283
loop_
_geom_bond_atom_site_label_1
_geom_bond_atom_site_label_2
_geom_bond_site_symmetry_1
_geom_bond_site_symmetry_2
C1 H1 1_555 1_555
H2 C1 1_555 1_555
C2 C1 1_555 1_555
O1 C2 1_555 1_555
C3 C2 1_555 1_555
H3 C3 1_555 1_555
H4 C3 1_555 1_555
C4 C3 1_555 1_555
C5 C4 1_555 1_555
H5 C5 1_555 1_555
C6 C5 1_555 1_555
C7 C6 1_555 1_555
C8 C7 1_555 1_555
H6 C8 1_555 1_555
C9 C4 1_555 1_555
C10 C7 1_555 1_555
H7 C10 1_555 1_555
H8 C10 1_555 1_555
C11 C10 1_555 1_555
O2 C11 1_555 1_555
C12 C11 1_555 1_555
H9 C12 1_555 1_555
H10 C12 1_555 1_555
C13 C12 1_555 1_555
C14 C13 1_555 1_555
H11 C14 1_555 1_555
C15 C14 1_555 1_555
C16 C15 1_555 1_555
C17 C16 1_555 1_555
H12 C17 1_555 1_555
C18 C13 1_555 1_555
C19 C16 1_555 1_555
H13 C19 1_555 1_555
H14 C19 1_555 1_555
C20 C19 1_555 1_555
O3 C20 1_555 1_555
C21 C20 1_555 1_555
H15 C21 1_555 1_555
H16 C21 1_555 1_555
C22 C21 1_555 1_555
C23 C22 1_555 1_555
H17 C23 1_555 1_555
C24 C23 1_555 1_555
C25 C1 1_555 1_555
C26 C25 1_555 1_555
H18 C26 1_555 1_555
C27 C22 1_555 1_555
C28 C6 1_555 1_555
H19 C28 1_555 1_555
H20 C28 1_555 1_555
H21 C28 1_555 1_555
C29 C9 1_555 1_555
H22 C29 1_555 1_555
H23 C29 1_555 1_555
H24 C29 1_555 1_555
C30 C15 1_555 1_555
H25 C30 1_555 1_555
H26 C30 1_555 1_555
H27 C30 1_555 1_555
C31 C18 1_555 1_555
H28 C31 1_555 1_555
H29 C31 1_555 1_555
H30 C31 1_555 1_555
C32 C27 1_555 1_555
H31 C32 1_555 1_555
H32 C32 1_555 1_555
H33 C32 1_555 1_555
C33 C24 1_555 1_555
H34 C33 1_555 1_555
H35 C33 1_555 1_555
H36 C33 1_555 1_555
C8 C9 1_555 1_555
C17 C18 1_555 1_555
C24 C25 1_555 1_555
C26 C27 1_555 1_555

#END
