
#######################################################################
#
#                 Cambridge Crystallographic Data Centre
#                                CCDC 
#
#######################################################################
#
# If this CIF has been generated from an entry in the Cambridge 
# Structural Database, then it will include bibliographic, chemical, 
# crystal, experimental, refinement or atomic coordinate data resulting 
# from the CCDC's data processing and validation procedures.
#
#######################################################################

data_YAFLAT
_chemical_formula_moiety         'C24 H26 N2 O4'
_chemical_name_systematic        
trans-4,4'-bis(4-Nitrophenyl)bicyclohexylidene
_symmetry_cell_setting           monoclinic
_symmetry_space_group_name_H-M   'P 21/n'
_symmetry_Int_Tables_number      14
_space_group_name_Hall           '-P 2yn'
loop_
_symmetry_equiv_pos_site_id
_symmetry_equiv_pos_as_xyz
1 x,y,z
2 1/2+x,1/2-y,1/2+z
3 -x,-y,-z
4 1/2-x,1/2+y,1/2-z
_cell_length_a                   9.786(2)
_cell_length_b                   10.762(1)
_cell_length_c                   9.938(1)
_cell_angle_alpha                90
_cell_angle_beta                 98.40(1)
_cell_angle_gamma                90
_cell_volume                     1035.41
_exptl_crystal_colour            brown
_exptl_crystal_description       plates
_cell_formula_units_Z            2
loop_
_atom_site_label
_atom_site_type_symbol
_atom_site_fract_x
_atom_site_fract_y
_atom_site_fract_z
C1 C 0.0477(2) 0.0049(2) 0.9592(2)
C2 C 0.0541(3) -0.0741(2) 0.8351(2)
H1 H -0.0247 -0.1327 0.8235
H2 H 0.1403 -0.1236 0.8485
C3 C 0.0497(2) 0.0046(2) 0.7063(2)
H3 H 0.0594 -0.0502 0.6283
H4 H -0.0410 0.0468 0.6870
C4 C 0.1647(2) 0.1021(2) 0.7210(2)
H5 H 0.2548 0.0567 0.7329
C5 C 0.1604(3) 0.1799(2) 0.8497(2)
H6 H 0.2402 0.2374 0.8625
H7 H 0.0750 0.2305 0.8384
C6 C 0.1643(3) 0.0982(2) 0.9755(2)
H8 H 0.2537 0.0537 0.9919
H9 H 0.1574 0.1513 1.0556
C7 C 0.1581(2) 0.1799(2) 0.5935(2)
C8 C 0.2516(2) 0.1616(2) 0.5025(2)
H10 H 0.3206 0.0994 0.5211
C9 C 0.2460(3) 0.2320(2) 0.3858(2)
H11 H 0.3102 0.2184 0.3242
C10 C 0.1462(3) 0.3221(2) 0.3601(2)
C11 C 0.0493(3) 0.3407(2) 0.4453(2)
H12 H -0.0212 0.4013 0.4243
C12 C 0.0562(2) 0.2700(2) 0.5618(2)
H13 H -0.0098 0.2829 0.6216
N1 N 0.1381(3) 0.3988(2) 0.2375(2)
O1 O 0.0592(2) 0.4879(2) 0.2254(2)
O2 O 0.2126(2) 0.37070(19) 0.1525(2)
C1B C -0.0477(2) -0.0049(2) 1.0408(2)
C2B C -0.0541(3) 0.0741(2) 1.1649(2)
H1B H 0.0247 0.1327 1.1765
H2B H -0.1403 0.1236 1.1515
C3B C -0.0497(2) -0.0046(2) 1.2937(2)
H3B H -0.0594 0.0502 1.3717
H4B H 0.0410 -0.0468 1.3130
C4B C -0.1647(2) -0.1021(2) 1.2790(2)
H5B H -0.2548 -0.0567 1.2671
C5B C -0.1604(3) -0.1799(2) 1.1503(2)
H6B H -0.2402 -0.2374 1.1375
H7B H -0.0750 -0.2305 1.1616
C6B C -0.1643(3) -0.0982(2) 1.0245(2)
H8B H -0.2537 -0.0537 1.0081
H9B H -0.1574 -0.1513 0.9444
C7B C -0.1581(2) -0.1799(2) 1.4065(2)
C8B C -0.2516(2) -0.1616(2) 1.4975(2)
H10B H -0.3206 -0.0994 1.4789
C9B C -0.2460(3) -0.2320(2) 1.6142(2)
H11B H -0.3102 -0.2184 1.6758
C10B C -0.1462(3) -0.3221(2) 1.6399(2)
C11B C -0.0493(3) -0.3407(2) 1.5547(2)
H12B H 0.0212 -0.4013 1.5757
C12B C -0.0562(2) -0.2700(2) 1.4382(2)
H13B H 0.0098 -0.2829 1.3784
N1B N -0.1381(3) -0.3988(2) 1.7625(2)
O1B O -0.0592(2) -0.4879(2) 1.7746(2)
O2B O -0.2126(2) -0.37070(19) 1.8475(2)
loop_
_geom_bond_atom_site_label_1
_geom_bond_atom_site_label_2
_geom_bond_site_symmetry_1
_geom_bond_site_symmetry_2
C1 C2 1_555 1_555
C2 H1 1_555 1_555
H2 C2 1_555 1_555
C3 C2 1_555 1_555
H3 C3 1_555 1_555
H4 C3 1_555 1_555
C4 C3 1_555 1_555
H5 C4 1_555 1_555
C5 C4 1_555 1_555
H6 C5 1_555 1_555
H7 C5 1_555 1_555
C6 C1 1_555 1_555
H8 C6 1_555 1_555
H9 C6 1_555 1_555
C7 C4 1_555 1_555
C8 C7 1_555 1_555
H10 C8 1_555 1_555
C9 C8 1_555 1_555
H11 C9 1_555 1_555
C10 C9 1_555 1_555
C11 C10 1_555 1_555
H12 C11 1_555 1_555
C12 C7 1_555 1_555
H13 C12 1_555 1_555
N1 C10 1_555 1_555
O1 N1 1_555 1_555
O2 N1 1_555 1_555
C1B C1 1_555 1_555
C2B C1B 1_555 1_555
H1B C2B 1_555 1_555
H2B C2B 1_555 1_555
C3B C2B 1_555 1_555
H3B C3B 1_555 1_555
H4B C3B 1_555 1_555
C4B C3B 1_555 1_555
H5B C4B 1_555 1_555
C5B C4B 1_555 1_555
H6B C5B 1_555 1_555
H7B C5B 1_555 1_555
C6B C1B 1_555 1_555
H8B C6B 1_555 1_555
H9B C6B 1_555 1_555
C7B C4B 1_555 1_555
C8B C7B 1_555 1_555
H10B C8B 1_555 1_555
C9B C8B 1_555 1_555
H11B C9B 1_555 1_555
C10B C9B 1_555 1_555
C11B C10B 1_555 1_555
H12B C11B 1_555 1_555
C12B C7B 1_555 1_555
H13B C12B 1_555 1_555
N1B C10B 1_555 1_555
O1B N1B 1_555 1_555
O2B N1B 1_555 1_555
C5 C6 1_555 1_555
C11 C12 1_555 1_555
C5B C6B 1_555 1_555
C11B C12B 1_555 1_555

#END
