
#######################################################################
#
#                 Cambridge Crystallographic Data Centre
#                                CCDC 
#
#######################################################################
#
# If this CIF has been generated from an entry in the Cambridge 
# Structural Database, then it will include bibliographic, chemical, 
# crystal, experimental, refinement or atomic coordinate data resulting 
# from the CCDC's data processing and validation procedures.
#
#######################################################################

data_YAFLIB
_chemical_formula_moiety         'C18 H14 Br1 I1 O2'
_chemical_name_systematic        
9-Iodo-15-bromo(3.3)(1,3)cyclophane-2,11-dione
_symmetry_cell_setting           monoclinic
_symmetry_space_group_name_H-M   'P 21/c'
_symmetry_Int_Tables_number      14
_space_group_name_Hall           '-P 2ybc'
loop_
_symmetry_equiv_pos_site_id
_symmetry_equiv_pos_as_xyz
1 x,y,z
2 x,1/2-y,1/2+z
3 -x,-y,-z
4 -x,1/2+y,1/2-z
_cell_length_a                   15.861(6)
_cell_length_b                   8.008(3)
_cell_length_c                   14.037(5)
_cell_angle_alpha                90
_cell_angle_beta                 112.55(3)
_cell_angle_gamma                90
_cell_volume                     1646.6
_exptl_crystal_colour            yellowish
_exptl_crystal_description       prisms
_cell_formula_units_Z            4
loop_
_atom_site_label
_atom_site_type_symbol
_atom_site_fract_x
_atom_site_fract_y
_atom_site_fract_z
C1 C 0.0747(4) 0.3108(7) 0.1798(4)
H1 H 0.0940 0.4255 0.1789
H2 H 0.0140 0.2984 0.1270
C2 C 0.0729(4) 0.2707(7) 0.2848(5)
O1 O 0.0193(4) 0.1676(7) 0.2915(4)
C3 C 0.1337(4) 0.3661(7) 0.3781(4)
H3 H 0.1427 0.2990 0.4387
H4 H 0.1019 0.4669 0.3834
C4 C 0.2261(3) 0.4152(6) 0.3805(4)
C5 C 0.2404(4) 0.5779(6) 0.3570(4)
H5 H 0.1938 0.6559 0.3434
C6 C 0.3225(4) 0.6262(7) 0.3534(4)
H6 H 0.3308 0.7360 0.3373
C7 C 0.3910(4) 0.5141(7) 0.3733(5)
H7 H 0.4464 0.5491 0.3718
C8 C 0.3810(4) 0.3487(7) 0.3960(4)
C9 C 0.2989(4) 0.3045(6) 0.4032(4)
I1 I 0.27985(3) 0.05884(4) 0.43981(3)
C10 C 0.4572(4) 0.2276(8) 0.4067(5)
H8 H 0.4661 0.1557 0.4654
H9 H 0.5131 0.2907 0.4218
C11 C 0.4423(4) 0.1181(8) 0.3131(6)
O2 O 0.4718(3) -0.0224(7) 0.3241(5)
C12 C 0.3930(4) 0.1893(7) 0.2064(5)
H10 H 0.4199 0.1469 0.1597
H11 H 0.3980 0.3101 0.2083
C13 C 0.2935(3) 0.1381(6) 0.1692(4)
C14 C 0.2687(4) -0.0247(6) 0.1380(4)
H12 H 0.3113 -0.0998 0.1324
C15 C 0.1800(4) -0.0738(6) 0.1153(4)
Br1 Br 0.14611(5) -0.29493(7) 0.06499(5)
C16 C 0.1163(4) 0.0297(6) 0.1272(4)
H13 H 0.0578 -0.0090 0.1153
C17 C 0.1403(3) 0.1937(6) 0.1574(4)
C18 C 0.2280(3) 0.2468(6) 0.1746(3)
H14 H 0.2431 0.3585 0.1902
loop_
_geom_bond_atom_site_label_1
_geom_bond_atom_site_label_2
_geom_bond_site_symmetry_1
_geom_bond_site_symmetry_2
C1 H1 1_555 1_555
H2 C1 1_555 1_555
C2 C1 1_555 1_555
O1 C2 1_555 1_555
C3 C2 1_555 1_555
H3 C3 1_555 1_555
H4 C3 1_555 1_555
C4 C3 1_555 1_555
C5 C4 1_555 1_555
H5 C5 1_555 1_555
C6 C5 1_555 1_555
H6 C6 1_555 1_555
C7 C6 1_555 1_555
H7 C7 1_555 1_555
C8 C7 1_555 1_555
C9 C4 1_555 1_555
I1 C9 1_555 1_555
C10 C8 1_555 1_555
H8 C10 1_555 1_555
H9 C10 1_555 1_555
C11 C10 1_555 1_555
O2 C11 1_555 1_555
C12 C11 1_555 1_555
H10 C12 1_555 1_555
H11 C12 1_555 1_555
C13 C12 1_555 1_555
C14 C13 1_555 1_555
H12 C14 1_555 1_555
C15 C14 1_555 1_555
Br1 C15 1_555 1_555
C16 C15 1_555 1_555
H13 C16 1_555 1_555
C17 C1 1_555 1_555
C18 C13 1_555 1_555
H14 C18 1_555 1_555
C8 C9 1_555 1_555
C16 C17 1_555 1_555
C17 C18 1_555 1_555

#END
