
#######################################################################
#
#                 Cambridge Crystallographic Data Centre
#                                CCDC 
#
#######################################################################
#
# If this CIF has been generated from an entry in the Cambridge 
# Structural Database, then it will include bibliographic, chemical, 
# crystal, experimental, refinement or atomic coordinate data resulting 
# from the CCDC's data processing and validation procedures.
#
#######################################################################

data_YAFNEZ
_chemical_formula_moiety         'C20 H30 O4'
_chemical_name_systematic        
"1,1'-Bi(bicyclo(2.2.2)octyl)-4,4'-dicarboxylic acid dimethyl ester"
_symmetry_cell_setting           monoclinic
_symmetry_space_group_name_H-M   'P 21/n'
_symmetry_Int_Tables_number      14
_space_group_name_Hall           '-P 2yn'
loop_
_symmetry_equiv_pos_site_id
_symmetry_equiv_pos_as_xyz
1 x,y,z
2 1/2+x,1/2-y,1/2+z
3 -x,-y,-z
4 1/2-x,1/2+y,1/2-z
_cell_length_a                   9.515(3)
_cell_length_b                   6.127(2)
_cell_length_c                   15.333(7)
_cell_angle_alpha                90
_cell_angle_beta                 98.61(3)
_cell_angle_gamma                90
_cell_volume                     883.816
_exptl_crystal_colour            colorless
_exptl_crystal_description       plates
_cell_formula_units_Z            2
loop_
_atom_site_label
_atom_site_type_symbol
_atom_site_fract_x
_atom_site_fract_y
_atom_site_fract_z
C1 C 0.0764(2) 0.4705(4) 0.52334(15)
C2 C 0.1594(3) 0.3327(6) 0.4645(2)
H1 H 0.1062 0.2008 0.4471
H2 H 0.1682 0.4144 0.4114
C3 C 0.3061(3) 0.2711(4) 0.50994(18)
H3 H 0.3767 0.3212 0.4750
H4 H 0.3133 0.1135 0.5148
C4 C 0.3355(2) 0.3728(4) 0.60181(16)
C5 C 0.2221(3) 0.2866(5) 0.65484(18)
H5 H 0.2321 0.1298 0.6620
H6 H 0.2358 0.3526 0.7130
C6 C 0.0746(3) 0.3395(6) 0.6079(2)
H7 H 0.0241 0.4221 0.6474
H8 H 0.0231 0.2044 0.5936
C7 C 0.1666(3) 0.6728(4) 0.5492(2)
H9 H 0.1714 0.7595 0.4968
H10 H 0.1205 0.7604 0.5894
C8 C 0.3165(3) 0.6193(4) 0.5928(2)
H11 H 0.3345 0.6867 0.6506
H12 H 0.3844 0.6777 0.5576
C9 C 0.4822(3) 0.3168(4) 0.64812(19)
O1 O 0.5678(3) 0.4414(4) 0.6812(2)
O2 O 0.5083(2) 0.1068(3) 0.64769(17)
C10 C 0.6439(3) 0.0315(6) 0.6914(2)
H13 H 0.6491 -0.1243 0.6861
H14 H 0.6548 0.0709 0.7527
H15 H 0.7184 0.0977 0.6647
C1B C -0.0764(2) 0.5295(4) 0.47666(15)
C2B C -0.1594(3) 0.6673(6) 0.5355(2)
H1B H -0.1062 0.7992 0.5529
H2B H -0.1682 0.5856 0.5886
C3B C -0.3061(3) 0.7289(4) 0.49006(18)
H3B H -0.3767 0.6788 0.5250
H4B H -0.3133 0.8865 0.4852
C4B C -0.3355(2) 0.6272(4) 0.39819(16)
C5B C -0.2221(3) 0.7134(5) 0.34516(18)
H5B H -0.2321 0.8702 0.3380
H6B H -0.2358 0.6474 0.2870
C6B C -0.0746(3) 0.6605(6) 0.3921(2)
C7B C -0.1666(3) 0.3272(4) 0.4508(2)
H9B H -0.1714 0.2405 0.5032
H10B H -0.1205 0.2396 0.4106
C8B C -0.3165(3) 0.3807(4) 0.4072(2)
C9B C -0.4822(3) 0.6832(4) 0.35188(19)
O1B O -0.5678(3) 0.5586(4) 0.3188(2)
O2B O -0.5083(2) 0.8932(3) 0.35231(17)
C10B C -0.6439(3) 0.9685(6) 0.3086(2)
H13B H -0.6491 1.1243 0.3139
H14B H -0.6548 0.9291 0.2473
H15B H -0.7184 0.9023 0.3353
H11B H -0.3345 0.3133 0.3494
H12B H -0.3844 0.3223 0.4424
H7B H -0.0241 0.5779 0.3526
H8B H -0.0231 0.7956 0.4064
loop_
_geom_bond_atom_site_label_1
_geom_bond_atom_site_label_2
_geom_bond_site_symmetry_1
_geom_bond_site_symmetry_2
C1 C2 1_555 1_555
C2 H1 1_555 1_555
H2 C2 1_555 1_555
C3 C2 1_555 1_555
H3 C3 1_555 1_555
H4 C3 1_555 1_555
C4 C3 1_555 1_555
C5 C4 1_555 1_555
H5 C5 1_555 1_555
H6 C5 1_555 1_555
C6 C1 1_555 1_555
H7 C6 1_555 1_555
H8 C6 1_555 1_555
C7 C1 1_555 1_555
H9 C7 1_555 1_555
H10 C7 1_555 1_555
C8 C4 1_555 1_555
H11 C8 1_555 1_555
H12 C8 1_555 1_555
C9 C4 1_555 1_555
O1 C9 1_555 1_555
O2 C9 1_555 1_555
C10 O2 1_555 1_555
H13 C10 1_555 1_555
H14 C10 1_555 1_555
H15 C10 1_555 1_555
C1B C1 1_555 1_555
C2B C1B 1_555 1_555
H1B C2B 1_555 1_555
H2B C2B 1_555 1_555
C3B C2B 1_555 1_555
H3B C3B 1_555 1_555
H4B C3B 1_555 1_555
C4B C3B 1_555 1_555
C5B C4B 1_555 1_555
H5B C5B 1_555 1_555
H6B C5B 1_555 1_555
C6B C1B 1_555 1_555
C7B C1B 1_555 1_555
H9B C7B 1_555 1_555
H10B C7B 1_555 1_555
C8B C4B 1_555 1_555
C9B C4B 1_555 1_555
O1B C9B 1_555 1_555
O2B C9B 1_555 1_555
C10B O2B 1_555 1_555
H13B C10B 1_555 1_555
H14B C10B 1_555 1_555
H15B C10B 1_555 1_555
H11B C8B 1_555 1_555
H12B C8B 1_555 1_555
H7B C6B 1_555 1_555
H8B C6B 1_555 1_555
C5 C6 1_555 1_555
C7 C8 1_555 1_555
C5B C6B 1_555 1_555
C7B C8B 1_555 1_555

#END
