
#######################################################################
#
#                 Cambridge Crystallographic Data Centre
#                                CCDC 
#
#######################################################################
#
# If this CIF has been generated from an entry in the Cambridge 
# Structural Database, then it will include bibliographic, chemical, 
# crystal, experimental, refinement or atomic coordinate data resulting 
# from the CCDC's data processing and validation procedures.
#
#######################################################################

data_YAFPOL
_chemical_formula_moiety         'C19 H13 N1 O4'
_chemical_name_systematic        
'Anthracene-9-carboxylic acid 2,5-dioxopyrrolidin-1-yl ester'
_symmetry_cell_setting           triclinic
_symmetry_space_group_name_H-M   'P -1'
_symmetry_Int_Tables_number      2
_space_group_name_Hall           '-P 1'
loop_
_symmetry_equiv_pos_site_id
_symmetry_equiv_pos_as_xyz
1 x,y,z
2 -x,-y,-z
_cell_length_a                   9.409(1)
_cell_length_b                   11.203(1)
_cell_length_c                   14.922(2)
_cell_angle_alpha                94.79(1)
_cell_angle_beta                 96.79(1)
_cell_angle_gamma                102.49(1)
_cell_volume                     1515.24
_exptl_crystal_colour            colorless
_exptl_crystal_description       plates
_cell_formula_units_Z            4
loop_
_atom_site_label
_atom_site_type_symbol
_atom_site_fract_x
_atom_site_fract_y
_atom_site_fract_z
C1 C 0.5693(3) 0.8833(2) 0.40959(15)
C2 C 0.7183(3) 0.9186(2) 0.39162(18)
H1 H 0.7887 0.8759 0.4154
C3 C 0.7597(4) 1.0114(3) 0.3415(2)
H2 H 0.8587 1.0325 0.3299
C4 C 0.6585(5) 1.0780(3) 0.3059(2)
H3 H 0.6899 1.1436 0.2711
C5 C 0.5187(4) 1.0489(3) 0.32109(19)
H4 H 0.4518 1.0945 0.2971
C6 C 0.4683(3) 0.9510(2) 0.37241(16)
C7 C 0.3220(3) 0.9192(2) 0.38767(17)
H5 H 0.2558 0.9656 0.3639
C8 C 0.2697(3) 0.8225(2) 0.43623(17)
C9 C 0.1182(3) 0.7867(3) 0.4491(2)
H6 H 0.0508 0.8315 0.4244
C10 C 0.0694(3) 0.6926(3) 0.4948(2)
H7 H -0.0317 0.6706 0.5018
C11 C 0.1674(3) 0.6255(3) 0.5327(2)
H8 H 0.1316 0.5582 0.5649
C12 C 0.3127(3) 0.6557(2) 0.52378(17)
H9 H 0.3768 0.6093 0.5502
C13 C 0.3699(2) 0.7548(2) 0.47598(16)
C14 C 0.5175(2) 0.7876(2) 0.46164(15)
C15 C 0.6265(2) 0.7234(2) 0.50259(16)
O1 O 0.70836(19) 0.67492(18) 0.46697(12)
O2 O 0.62742(17) 0.73192(15) 0.59665(10)
N1 N 0.7324(2) 0.67765(18) 0.63903(13)
C16 C 0.6957(3) 0.5584(2) 0.65993(16)
O3 O 0.5772(2) 0.49074(17) 0.63854(14)
C17 C 0.8339(3) 0.5378(3) 0.7126(2)
H10 H 0.8773 0.4808 0.6761
H11 H 0.8124 0.5027 0.7696
C18 C 0.9384(3) 0.6647(3) 0.7332(2)
H12 H 0.9574 0.6908 0.7994
H13 H 1.0333 0.6634 0.7111
C19 C 0.8632(3) 0.7502(3) 0.68449(18)
O4 O 0.9001(2) 0.85956(19) 0.68288(15)
C20 C 0.8406(3) 0.7718(2) 1.03823(16)
C21 C 0.8701(3) 0.6518(2) 1.03607(18)
H14 H 0.8131 0.5871 0.9927
C22 C 0.9794(3) 0.6299(3) 1.0960(2)
H15 H 0.9993 0.5502 1.0932
C23 C 1.0640(3) 0.7234(3) 1.1624(2)
H16 H 1.1395 0.7059 1.2039
C24 C 1.0384(3) 0.8371(3) 1.16732(19)
H17 H 1.0954 0.8989 1.2128
C25 C 0.9266(3) 0.8664(2) 1.10514(17)
C26 C 0.9027(3) 0.9842(2) 1.10703(17)
H18 H 0.9587 1.0457 1.1531
C27 C 0.7998(3) 1.0160(2) 1.04409(17)
C28 C 0.7773(3) 1.1381(2) 1.04539(19)
H19 H 0.8318 1.1998 1.0918
C29 C 0.6801(3) 1.1673(3) 0.9820(2)
H20 H 0.6680 1.2494 0.9833
C30 C 0.5961(3) 1.0761(2) 0.91356(19)
H21 H 0.5283 1.0979 0.8690
C31 C 0.6106(3) 0.9580(2) 0.91037(17)
H22 H 0.5515 0.8978 0.8645
C32 C 0.7141(3) 0.9234(2) 0.97539(16)
C33 C 0.7342(3) 0.8027(2) 0.97455(15)
C34 C 0.6480(3) 0.7081(2) 0.90155(16)
O5 O 0.6594(2) 0.69996(18) 0.82307(12)
O6 O 0.54219(18) 0.62587(14) 0.93642(11)
N2 N 0.4639(2) 0.53052(18) 0.87139(14)
C35 C 0.3389(3) 0.5399(3) 0.81473(18)
O7 O 0.2847(2) 0.6274(2) 0.81778(15)
C36 C 0.2954(3) 0.4218(3) 0.7526(2)
H23 H 0.3006 0.4381 0.6888
H24 H 0.1937 0.3783 0.7577
C37 C 0.4036(3) 0.3448(2) 0.7825(2)
H25 H 0.3538 0.2724 0.8099
H26 H 0.4476 0.3158 0.7301
C38 C 0.5187(3) 0.4278(2) 0.85087(18)
O8 O 0.6373(3) 0.41618(18) 0.88355(15)
loop_
_geom_bond_atom_site_label_1
_geom_bond_atom_site_label_2
_geom_bond_site_symmetry_1
_geom_bond_site_symmetry_2
C1 C2 1_555 1_555
C2 H1 1_555 1_555
C3 C2 1_555 1_555
H2 C3 1_555 1_555
C4 C3 1_555 1_555
H3 C4 1_555 1_555
C5 C4 1_555 1_555
H4 C5 1_555 1_555
C6 C1 1_555 1_555
C7 C6 1_555 1_555
H5 C7 1_555 1_555
C8 C7 1_555 1_555
C9 C8 1_555 1_555
H6 C9 1_555 1_555
C10 C9 1_555 1_555
H7 C10 1_555 1_555
C11 C10 1_555 1_555
H8 C11 1_555 1_555
C12 C11 1_555 1_555
H9 C12 1_555 1_555
C13 C8 1_555 1_555
C14 C1 1_555 1_555
C15 C14 1_555 1_555
O1 C15 1_555 1_555
O2 C15 1_555 1_555
N1 O2 1_555 1_555
C16 N1 1_555 1_555
O3 C16 1_555 1_555
C17 C16 1_555 1_555
H10 C17 1_555 1_555
H11 C17 1_555 1_555
C18 C17 1_555 1_555
H12 C18 1_555 1_555
H13 C18 1_555 1_555
C19 N1 1_555 1_555
O4 C19 1_555 1_555
C20 C21 1_555 1_555
C21 H14 1_555 1_555
C22 C21 1_555 1_555
H15 C22 1_555 1_555
C23 C22 1_555 1_555
H16 C23 1_555 1_555
C24 C23 1_555 1_555
H17 C24 1_555 1_555
C25 C20 1_555 1_555
C26 C25 1_555 1_555
H18 C26 1_555 1_555
C27 C26 1_555 1_555
C28 C27 1_555 1_555
H19 C28 1_555 1_555
C29 C28 1_555 1_555
H20 C29 1_555 1_555
C30 C29 1_555 1_555
H21 C30 1_555 1_555
C31 C30 1_555 1_555
H22 C31 1_555 1_555
C32 C27 1_555 1_555
C33 C20 1_555 1_555
C34 C33 1_555 1_555
O5 C34 1_555 1_555
O6 C34 1_555 1_555
N2 O6 1_555 1_555
C35 N2 1_555 1_555
O7 C35 1_555 1_555
C36 C35 1_555 1_555
H23 C36 1_555 1_555
H24 C36 1_555 1_555
C37 C36 1_555 1_555
H25 C37 1_555 1_555
H26 C37 1_555 1_555
C38 N2 1_555 1_555
O8 C38 1_555 1_555
C5 C6 1_555 1_555
C12 C13 1_555 1_555
C13 C14 1_555 1_555
C18 C19 1_555 1_555
C24 C25 1_555 1_555
C31 C32 1_555 1_555
C32 C33 1_555 1_555
C37 C38 1_555 1_555

#END
