
#######################################################################
#
#                 Cambridge Crystallographic Data Centre
#                                CCDC 
#
#######################################################################
#
# If this CIF has been generated from an entry in the Cambridge 
# Structural Database, then it will include bibliographic, chemical, 
# crystal, experimental, refinement or atomic coordinate data resulting 
# from the CCDC's data processing and validation procedures.
#
#######################################################################

data_YAFQAY
_chemical_formula_moiety         'C22 H18'
_chemical_name_systematic        9,10-Dimethyltriptycene
_symmetry_cell_setting           rhombohedral
_symmetry_space_group_name_H-M   'R -3 c'
_symmetry_Int_Tables_number      167
_space_group_name_Hall           "-P 3* 2'n"
loop_
_symmetry_equiv_pos_site_id
_symmetry_equiv_pos_as_xyz
1 x,y,z
2 z,x,y
3 y,z,x
4 1/2-y,1/2-x,1/2-z
5 1/2-x,1/2-z,1/2-y
6 1/2-z,1/2-y,1/2-x
7 -x,-y,-z
8 -z,-x,-y
9 -y,-z,-x
10 1/2+y,1/2+x,1/2+z
11 1/2+x,1/2+z,1/2+y
12 1/2+z,1/2+y,1/2+x
_cell_length_a                   9.153(1)
_cell_length_b                   9.153(1)
_cell_length_c                   9.153(1)
_cell_angle_alpha                81.14(1)
_cell_angle_beta                 81.14(1)
_cell_angle_gamma                81.14(1)
_cell_volume                     741.926
_exptl_crystal_colour            colorless
_exptl_crystal_description       blocks
_cell_formula_units_Z            2
loop_
_atom_site_label
_atom_site_type_symbol
_atom_site_fract_x
_atom_site_fract_y
_atom_site_fract_z
C1 C 0.17720(11) 0.17720(11) 0.17720(11)
C2 C 0.09396(13) 0.21153(13) 0.32928(14)
C3 C -0.04486(15) 0.17350(16) 0.39195(17)
H1 H -0.0964 0.1222 0.3410
C4 C -0.10667(17) 0.21216(18) 0.53080(18)
H2 H -0.2000 0.1868 0.5730
C5 C 0.09335(12) 0.09335(12) 0.09335(12)
H3 H 0.0008 0.1528 0.0735
H4 H 0.0735 0.0008 0.1528
H5 H 0.1528 0.0735 0.0008
C2E C 0.17072(14) 0.28847(13) 0.40604(13)
C1E C 0.32280(11) 0.32280(11) 0.32280(11)
C2C C 0.28847(13) 0.40604(13) 0.17072(14)
C2B C 0.21153(13) 0.32928(14) 0.09396(13)
C2A C 0.32928(14) 0.09396(13) 0.21153(13)
C2D C 0.40604(13) 0.17072(14) 0.28847(13)
C5E C 0.40665(12) 0.40665(12) 0.40665(12)
H3E H 0.4265 0.3472 0.4992
H3C H 0.3472 0.4992 0.4265
H3D H 0.4992 0.4265 0.3472
C3D C 0.54486(15) 0.10805(17) 0.32650(16)
H1D H 0.5964 0.1590 0.3778
C4D C 0.60667(17) -0.03080(18) 0.28784(18)
C4A C 0.53080(18) -0.10667(17) 0.21216(18)
C3A C 0.39195(17) -0.04486(15) 0.17350(16)
H1A H 0.3410 -0.0964 0.1222
H2A H 0.5730 -0.2000 0.1868
H2D H 0.7000 -0.0730 0.3132
C3B C 0.17350(16) 0.39195(17) -0.04486(15)
H1B H 0.1222 0.3410 -0.0964
C4B C 0.21216(18) 0.53080(18) -0.10667(17)
C4C C 0.28784(18) 0.60667(17) -0.03080(18)
C3C C 0.32650(16) 0.54486(15) 0.10805(17)
H1C H 0.3778 0.5964 0.1590
H2C H 0.3132 0.7000 -0.0730
H2B H 0.1868 0.5730 -0.2000
C3E C 0.10805(17) 0.32650(16) 0.54486(15)
H1E H 0.1590 0.3778 0.5964
C4E C -0.03080(18) 0.28784(18) 0.60667(17)
H2E H -0.0730 0.3132 0.7000
loop_
_geom_bond_atom_site_label_1
_geom_bond_atom_site_label_2
_geom_bond_site_symmetry_1
_geom_bond_site_symmetry_2
C1 C2 1_555 1_555
C2 C3 1_555 1_555
C3 H1 1_555 1_555
C4 C3 1_555 1_555
H2 C4 1_555 1_555
C5 C1 1_555 1_555
H3 C5 1_555 1_555
H4 C5 1_555 1_555
H5 C5 1_555 1_555
C2E C2 1_555 1_555
C1E C2E 1_555 1_555
C2C C1E 1_555 1_555
C2B C1 1_555 1_555
C2A C1 1_555 1_555
C2D C1E 1_555 1_555
C5E C1E 1_555 1_555
H3E C5E 1_555 1_555
H3C C5E 1_555 1_555
H3D C5E 1_555 1_555
C3D C2D 1_555 1_555
H1D C3D 1_555 1_555
C4D C3D 1_555 1_555
C4A C4D 1_555 1_555
C3A C2A 1_555 1_555
H1A C3A 1_555 1_555
H2A C4A 1_555 1_555
H2D C4D 1_555 1_555
C3B C2B 1_555 1_555
H1B C3B 1_555 1_555
C4B C3B 1_555 1_555
C4C C4B 1_555 1_555
C3C C2C 1_555 1_555
H1C C3C 1_555 1_555
H2C C4C 1_555 1_555
H2B C4B 1_555 1_555
C3E C2E 1_555 1_555
H1E C3E 1_555 1_555
C4E C4 1_555 1_555
H2E C4E 1_555 1_555
C2C C2B 1_555 1_555
C2A C2D 1_555 1_555
C4A C3A 1_555 1_555
C4C C3C 1_555 1_555
C3E C4E 1_555 1_555

#END
