
#######################################################################
#
#                 Cambridge Crystallographic Data Centre
#                                CCDC 
#
#######################################################################
#
# If this CIF has been generated from an entry in the Cambridge 
# Structural Database, then it will include bibliographic, chemical, 
# crystal, experimental, refinement or atomic coordinate data resulting 
# from the CCDC's data processing and validation procedures.
#
#######################################################################

data_YAFSOP
_chemical_formula_moiety         'C17 H16 N2 O6'
_chemical_name_systematic        
'Dimethyl 2,6-dimethyl-4-(2-nitrophenyl)pyridine-3,5-dicarboxylate'
_symmetry_cell_setting           triclinic
_symmetry_space_group_name_H-M   'P -1'
_symmetry_Int_Tables_number      2
_space_group_name_Hall           '-P 1'
loop_
_symmetry_equiv_pos_site_id
_symmetry_equiv_pos_as_xyz
1 x,y,z
2 -x,-y,-z
_cell_length_a                   7.578(4)
_cell_length_b                   8.141(4)
_cell_length_c                   14.235(9)
_cell_angle_alpha                103.32(2)
_cell_angle_beta                 93.75(5)
_cell_angle_gamma                105.39(3)
_cell_volume                     816.396
_exptl_crystal_colour            yellow
_exptl_crystal_description       prism
_cell_formula_units_Z            2
loop_
_atom_site_label
_atom_site_type_symbol
_atom_site_fract_x
_atom_site_fract_y
_atom_site_fract_z
O1 O 0.76803(15) 0.93198(15) 0.92024(8)
O2 O 0.84798(13) 0.68996(14) 0.85050(7)
O3 O 0.40716(15) 0.78829(15) 0.70787(8)
O4 O 0.63979(19) 0.91761(16) 0.64507(10)
O5 O 0.13443(14) 0.30250(15) 0.61801(7)
O6 O 0.18628(14) 0.11367(14) 0.70271(7)
N1 N 0.26875(17) 0.55143(17) 0.95102(9)
N2 N 0.54570(19) 0.78817(18) 0.66853(9)
C1 C 0.5124(2) 0.7905(2) 1.05399(10)
H1 H 0.4799 0.8996 1.0549
H2 H 0.6471 0.8165 1.0651
H3 H 0.4582 0.7401 1.1054
C2 C 0.4386(2) 0.6606(2) 0.95644(10)
C3 C 0.53855(19) 0.65051(19) 0.87679(10)
C4 C 0.45649(19) 0.52477(19) 0.78913(10)
C5 C 0.2806(2) 0.4125(2) 0.78490(10)
C6 C 0.1892(2) 0.4295(2) 0.86757(11)
C7 C -0.0011(2) 0.3140(2) 0.86810(11)
H4 H 0.0077 0.2160 0.8954
H5 H -0.0653 0.2675 0.8013
H6 H -0.0701 0.3832 0.9080
C8 C 0.7278(2) 0.7743(2) 0.88633(11)
C9 C 1.0316(2) 0.8018(2) 0.84997(12)
H7 H 1.0228 0.8948 0.8183
H8 H 1.1038 0.7310 0.8141
H9 H 1.0925 0.8554 0.9171
C10 C 0.55534(18) 0.50220(19) 0.70104(10)
C11 C 0.6085(2) 0.3487(2) 0.67264(10)
H10 H 0.5774 0.2612 0.7077
C12 C 0.7059(2) 0.3213(2) 0.59432(11)
H11 H 0.7401 0.2154 0.5759
C13 C 0.7538(2) 0.4482(2) 0.54255(11)
H12 H 0.8218 0.4296 0.4893
C14 C 0.7024(2) 0.6014(2) 0.56854(11)
H13 H 0.7342 0.6887 0.5334
C15 C 0.60384(19) 0.6254(2) 0.64663(10)
C16 C 0.19127(19) 0.2747(2) 0.69257(11)
C17 C 0.1122(2) -0.0294(2) 0.61593(12)
H14 H -0.0139 -0.0318 0.5937
H15 H 0.1105 -0.1415 0.6307
H16 H 0.1898 -0.0116 0.5646
loop_
_geom_bond_atom_site_label_1
_geom_bond_atom_site_label_2
_geom_bond_site_symmetry_1
_geom_bond_site_symmetry_2
O1 C8 1_555 1_555
O2 C8 1_555 1_555
O3 N2 1_555 1_555
O4 N2 1_555 1_555
O5 C16 1_555 1_555
O6 C16 1_555 1_555
N1 C2 1_555 1_555
N2 C15 1_555 1_555
C1 H1 1_555 1_555
H2 C1 1_555 1_555
H3 C1 1_555 1_555
C2 C1 1_555 1_555
C3 C2 1_555 1_555
C4 C3 1_555 1_555
C5 C4 1_555 1_555
C6 N1 1_555 1_555
C7 C6 1_555 1_555
H4 C7 1_555 1_555
H5 C7 1_555 1_555
H6 C7 1_555 1_555
C8 C3 1_555 1_555
C9 O2 1_555 1_555
H7 C9 1_555 1_555
H8 C9 1_555 1_555
H9 C9 1_555 1_555
C10 C4 1_555 1_555
C11 C10 1_555 1_555
H10 C11 1_555 1_555
C12 C11 1_555 1_555
H11 C12 1_555 1_555
C13 C12 1_555 1_555
H12 C13 1_555 1_555
C14 C13 1_555 1_555
H13 C14 1_555 1_555
C15 C10 1_555 1_555
C16 C5 1_555 1_555
C17 O6 1_555 1_555
H14 C17 1_555 1_555
H15 C17 1_555 1_555
H16 C17 1_555 1_555
C5 C6 1_555 1_555
C14 C15 1_555 1_555

#END
