
#######################################################################
#
#                 Cambridge Crystallographic Data Centre
#                                CCDC 
#
#######################################################################
#
# If this CIF has been generated from an entry in the Cambridge 
# Structural Database, then it will include bibliographic, chemical, 
# crystal, experimental, refinement or atomic coordinate data resulting 
# from the CCDC's data processing and validation procedures.
#
#######################################################################

data_YAFTIK
_chemical_formula_moiety         'C15 H13 Cl1 N2 O3,C1 H4 O1'
_chemical_name_systematic        
"4-Chloro-N'-(2-hydroxy-4-methoxybenzylidene)benzohydrazide methanol solvate"
_symmetry_cell_setting           triclinic
_symmetry_space_group_name_H-M   'P -1'
_symmetry_Int_Tables_number      2
_space_group_name_Hall           '-P 1'
loop_
_symmetry_equiv_pos_site_id
_symmetry_equiv_pos_as_xyz
1 x,y,z
2 -x,-y,-z
_cell_length_a                   6.570(2)
_cell_length_b                   10.343(3)
_cell_length_c                   12.707(3)
_cell_angle_alpha                100.371(2)
_cell_angle_beta                 91.864(2)
_cell_angle_gamma                101.663(2)
_cell_volume                     829.71
_exptl_crystal_colour            colorless
_exptl_crystal_description       block
_cell_formula_units_Z            2
loop_
_atom_site_label
_atom_site_type_symbol
_atom_site_fract_x
_atom_site_fract_y
_atom_site_fract_z
Cl1 Cl 0.45941(17) 1.34163(8) 0.04723(7)
N1 N 0.6218(3) 0.69152(19) 0.29276(16)
N2 N 0.5628(3) 0.7970(2) 0.25424(18)
O1 O 0.8829(3) 0.55918(18) 0.37185(18)
H1 H 0.8513 0.6186 0.3438
O2 O 0.8950(3) 0.91058(17) 0.25849(18)
O3 O 0.5767(3) 0.14043(16) 0.46539(16)
C1 C 0.5106(4) 0.4800(2) 0.34710(19)
C2 C 0.7089(4) 0.4662(2) 0.3793(2)
C3 C 0.7361(4) 0.3544(2) 0.42035(19)
H2 H 0.8687 0.3472 0.4431
C4 C 0.5660(4) 0.2544(2) 0.4272(2)
C5 C 0.3685(4) 0.2649(3) 0.3942(2)
H3 H 0.2542 0.1964 0.3976
C6 C 0.3423(4) 0.3768(3) 0.3565(2)
H4 H 0.2084 0.3845 0.3366
C7 C 0.4739(4) 0.5964(2) 0.30752(19)
H5 H 0.3371 0.6024 0.2921
C8 C 0.7072(4) 0.9011(2) 0.2375(2)
C9 C 0.6350(4) 1.0083(2) 0.1913(2)
C10 C 0.7810(5) 1.1221(3) 0.1836(2)
H6 H 0.9185 1.1298 0.2084
C11 C 0.7275(5) 1.2247(3) 0.1399(2)
H7 H 0.8277 1.3008 0.1355
C12 C 0.5255(5) 1.2130(3) 0.1031(2)
C13 C 0.3780(5) 1.1019(3) 0.1095(2)
H8 H 0.2408 1.0951 0.0846
C14 C 0.4322(4) 0.9993(3) 0.1531(2)
H9 H 0.3311 0.9233 0.1567
C15 C 0.7748(4) 0.1250(3) 0.5037(3)
H10 H 0.8623 0.1154 0.4449
H11 H 0.7574 0.0465 0.5356
H12 H 0.8382 0.2028 0.5563
H13 H 0.4259(18) 0.792(3) 0.240(2)
O4 O 0.1182(3) 0.72464(19) 0.20964(17)
H14 H 0.0462 0.7810 0.2227
C16 C 0.0297(6) 0.6290(4) 0.1191(3)
H15 H 0.0040 0.6737 0.0616
H16 H -0.0994 0.5770 0.1358
H17 H 0.1236 0.5706 0.0978
loop_
_geom_bond_atom_site_label_1
_geom_bond_atom_site_label_2
_geom_bond_site_symmetry_1
_geom_bond_site_symmetry_2
Cl1 C12 1_555 1_555
N1 N2 1_555 1_555
N2 C8 1_555 1_555
O1 H1 1_555 1_555
O2 C8 1_555 1_555
O3 C4 1_555 1_555
C1 C2 1_555 1_555
C2 O1 1_555 1_555
C3 C2 1_555 1_555
H2 C3 1_555 1_555
C4 C3 1_555 1_555
C5 C4 1_555 1_555
H3 C5 1_555 1_555
C6 C1 1_555 1_555
H4 C6 1_555 1_555
C7 N1 1_555 1_555
H5 C7 1_555 1_555
C8 C9 1_555 1_555
C9 C10 1_555 1_555
C10 H6 1_555 1_555
C11 C10 1_555 1_555
H7 C11 1_555 1_555
C12 C11 1_555 1_555
C13 C12 1_555 1_555
H8 C13 1_555 1_555
C14 C9 1_555 1_555
H9 C14 1_555 1_555
C15 O3 1_555 1_555
H10 C15 1_555 1_555
H11 C15 1_555 1_555
H12 C15 1_555 1_555
H13 N2 1_555 1_555
O4 H14 1_555 1_555
C16 O4 1_555 1_555
H15 C16 1_555 1_555
H16 C16 1_555 1_555
H17 C16 1_555 1_555
C1 C7 1_555 1_555
C5 C6 1_555 1_555
C13 C14 1_555 1_555

#END
