
#######################################################################
#
#                 Cambridge Crystallographic Data Centre
#                                CCDC 
#
#######################################################################
#
# If this CIF has been generated from an entry in the Cambridge 
# Structural Database, then it will include bibliographic, chemical, 
# crystal, experimental, refinement or atomic coordinate data resulting 
# from the CCDC's data processing and validation procedures.
#
#######################################################################

data_YAFVEI
_chemical_formula_moiety         'C16 H13 N1 O2 S1'
_chemical_name_systematic        N-(1-Naphthyl)benzenesulfonamide
_symmetry_cell_setting           orthorhombic
_symmetry_space_group_name_H-M   'P 21 21 21'
_symmetry_Int_Tables_number      19
_space_group_name_Hall           'P 2ac 2ab'
loop_
_symmetry_equiv_pos_site_id
_symmetry_equiv_pos_as_xyz
1 x,y,z
2 1/2-x,-y,1/2+z
3 -x,1/2+y,1/2-z
4 1/2+x,1/2-y,-z
_cell_length_a                   4.9232(5)
_cell_length_b                   15.4162(15)
_cell_length_c                   18.2102(17)
_cell_angle_alpha                90
_cell_angle_beta                 90
_cell_angle_gamma                90
_cell_volume                     1382.1
_exptl_crystal_colour            colorless
_exptl_crystal_description       blocklike
_cell_formula_units_Z            4
_exptl_crystal_recrystallization_method ethanol
loop_
_atom_site_label
_atom_site_type_symbol
_atom_site_fract_x
_atom_site_fract_y
_atom_site_fract_z
S1 S 0.63000(11) 0.47539(3) 0.28894(3)
N1 N 0.7982(4) 0.50023(12) 0.36336(10)
H1 H 0.9726 0.4850 0.3559
O1 O 0.3486(3) 0.48108(11) 0.30720(9)
O2 O 0.7374(3) 0.52862(11) 0.23221(9)
C1 C 0.7144(5) 0.46260(17) 0.43237(13)
C2 C 0.8252(6) 0.38695(18) 0.45628(15)
H2 H 0.9547 0.3589 0.4277
C3 C 0.7467(9) 0.3508(2) 0.52341(18)
H3 H 0.8277 0.2999 0.5400
C4 C 0.5555(9) 0.3894(3) 0.56351(18)
H4 H 0.4994 0.3634 0.6070
C5 C 0.4352(6) 0.4686(3) 0.54214(14)
C6 C 0.5182(5) 0.50785(18) 0.47415(13)
C7 C 0.4088(6) 0.5887(2) 0.45330(16)
H5 H 0.4671 0.6155 0.4103
C8 C 0.2160(7) 0.6281(3) 0.4966(2)
H6 H 0.1439 0.6815 0.4831
C9 C 0.1278(8) 0.5871(4) 0.5617(2)
H7 H -0.0060 0.6132 0.5902
C10 C 0.2347(8) 0.5107(4) 0.5831(2)
H8 H 0.1733 0.4853 0.6264
C11 C 0.6966(5) 0.36643(14) 0.26609(12)
C12 C 0.8977(6) 0.34830(16) 0.21627(15)
H9 H 0.9960 0.3927 0.1942
C13 C 0.9509(7) 0.2619(2) 0.19960(19)
H10 H 1.0869 0.2477 0.1663
C14 C 0.7995(8) 0.1971(2) 0.2331(2)
H11 H 0.8348 0.1393 0.2220
C15 C 0.6022(8) 0.21681(18) 0.28156(19)
H12 H 0.5027 0.1725 0.3034
C16 C 0.5467(6) 0.30098(16) 0.29891(15)
H13 H 0.4100 0.3143 0.3323
loop_
_geom_bond_atom_site_label_1
_geom_bond_atom_site_label_2
_geom_bond_site_symmetry_1
_geom_bond_site_symmetry_2
S1 N1 1_555 1_555
N1 H1 1_555 1_555
O1 S1 1_555 1_555
O2 S1 1_555 1_555
C1 N1 1_555 1_555
C2 C1 1_555 1_555
H2 C2 1_555 1_555
C3 C2 1_555 1_555
H3 C3 1_555 1_555
C4 C3 1_555 1_555
H4 C4 1_555 1_555
C5 C4 1_555 1_555
C6 C1 1_555 1_555
C7 C6 1_555 1_555
H5 C7 1_555 1_555
C8 C7 1_555 1_555
H6 C8 1_555 1_555
C9 C8 1_555 1_555
H7 C9 1_555 1_555
C10 C5 1_555 1_555
H8 C10 1_555 1_555
C11 S1 1_555 1_555
C12 C11 1_555 1_555
H9 C12 1_555 1_555
C13 C12 1_555 1_555
H10 C13 1_555 1_555
C14 C13 1_555 1_555
H11 C14 1_555 1_555
C15 C14 1_555 1_555
H12 C15 1_555 1_555
C16 C11 1_555 1_555
H13 C16 1_555 1_555
C5 C6 1_555 1_555
C9 C10 1_555 1_555
C15 C16 1_555 1_555

#END
