
#######################################################################
#
#                 Cambridge Crystallographic Data Centre
#                                CCDC 
#
#######################################################################
#
# If this CIF has been generated from an entry in the Cambridge 
# Structural Database, then it will include bibliographic, chemical, 
# crystal, experimental, refinement or atomic coordinate data resulting 
# from the CCDC's data processing and validation procedures.
#
#######################################################################

data_YAFVOS
_chemical_formula_moiety         'C7 H4 N2 O6,C7 H6 N2'
_chemical_name_systematic        '3-Aminobenzonitrile 3,5-dinitrobenzoic acid'
_symmetry_cell_setting           triclinic
_symmetry_space_group_name_H-M   'P -1'
_symmetry_Int_Tables_number      2
_space_group_name_Hall           '-P 1'
loop_
_symmetry_equiv_pos_site_id
_symmetry_equiv_pos_as_xyz
1 x,y,z
2 -x,-y,-z
_cell_length_a                   7.4547(15)
_cell_length_b                   14.260(3)
_cell_length_c                   14.845(3)
_cell_angle_alpha                108.01(3)
_cell_angle_beta                 91.90(3)
_cell_angle_gamma                93.37(3)
_cell_volume                     1495.97
_exptl_crystal_colour            colorless
_exptl_crystal_description       block
_cell_formula_units_Z            4
loop_
_atom_site_label
_atom_site_type_symbol
_atom_site_fract_x
_atom_site_fract_y
_atom_site_fract_z
C1 C 0.4080(3) 0.01643(18) 0.11993(16)
C2 C 0.3392(3) 0.02905(17) 0.21487(15)
C3 C 0.1637(3) -0.00114(17) 0.22396(15)
H1 H 0.0862 -0.0291 0.1707
C4 C 0.1058(3) 0.01088(17) 0.31324(16)
C5 C 0.2159(3) 0.05067(18) 0.39350(16)
H2 H 0.1751 0.0569 0.4534
C6 C 0.3888(3) 0.08091(18) 0.38155(16)
C7 C 0.4516(3) 0.07230(17) 0.29418(16)
H3 H 0.5686 0.0953 0.2884
O1 O 0.3036(2) -0.03099(14) 0.04900(12)
H4 H 0.363(5) -0.035(3) -0.025(3)
O2 O 0.5615(2) 0.05235(14) 0.11410(11)
N1 N -0.0818(3) -0.01956(18) 0.32279(18)
O3 O -0.1815(2) -0.04676(16) 0.25263(16)
O4 O -0.1288(3) -0.0171(2) 0.40020(16)
N2 N 0.5102(3) 0.12590(18) 0.46559(15)
O5 O 0.4669(3) 0.11480(19) 0.53961(14)
O6 O 0.6490(3) 0.16961(19) 0.45609(15)
C8 C 0.3501(3) 0.50842(18) 0.10190(17)
C9 C 0.2362(3) 0.50677(16) 0.18160(15)
C10 C 0.0604(3) 0.46720(17) 0.16271(16)
H5 H 0.0117 0.4431 0.1007
C11 C -0.0412(3) 0.46423(18) 0.23756(17)
C12 C 0.0242(3) 0.49980(17) 0.33016(16)
H6 H -0.0470 0.4979 0.3800
C13 C 0.1991(3) 0.53816(17) 0.34579(15)
C14 C 0.3074(3) 0.54240(17) 0.27369(16)
H7 H 0.4260 0.5687 0.2868
N3 N -0.2260(3) 0.41929(18) 0.21744(18)
O7 O 0.2803(2) 0.47150(15) 0.01875(13)
H8 H 0.379(6) 0.469(3) -0.047(3)
O8 O 0.5087(2) 0.54478(14) 0.12114(12)
O9 O -0.2761(2) 0.37659(17) 0.13605(16)
O10 O -0.3199(2) 0.42753(18) 0.28450(15)
O11 O 0.1742(3) 0.58417(17) 0.50753(13)
O12 O 0.4324(3) 0.6007(2) 0.45542(14)
N4 N 0.2750(3) 0.57692(17) 0.44339(15)
N5 N 0.3740(4) 0.2057(2) -0.0240(2)
C15 C 0.2997(4) 0.2144(2) 0.0436(2)
C16 C 0.2076(3) 0.22522(19) 0.12900(18)
C17 C 0.0298(4) 0.1905(2) 0.1228(2)
H9 H -0.0302 0.1603 0.0641
C18 C -0.0566(4) 0.2014(2) 0.2050(2)
H10 H -0.180(4) 0.1780(19) 0.2036(17)
C19 C 0.0298(4) 0.24544(19) 0.2909(2)
H11 H -0.0323 0.2521 0.3456
C20 C 0.2079(3) 0.28052(17) 0.29893(18)
C21 C 0.2961(3) 0.27005(18) 0.21579(18)
H12 H 0.4159 0.2936 0.2189
N6 N 0.2934(5) 0.3273(2) 0.3859(2)
H13 H 0.240(5) 0.317(3) 0.437(3)
H14 H 0.410(4) 0.341(2) 0.378(2)
N7 N -0.1478(4) 0.7302(2) 0.4340(2)
C22 C -0.0799(4) 0.7346(2) 0.3675(2)
C23 C 0.0139(3) 0.73855(18) 0.28564(19)
C24 C -0.0753(4) 0.7084(2) 0.1977(2)
H15 H -0.1966 0.6869 0.1906
C25 C 0.0187(4) 0.7110(2) 0.1210(2)
H16 H -0.0403 0.6921 0.0613
C26 C 0.1980(4) 0.74096(19) 0.13031(18)
H17 H 0.2596 0.7403 0.0767
C27 C 0.2891(3) 0.77223(18) 0.21843(18)
C28 C 0.1939(3) 0.76999(17) 0.29630(17)
H18 H 0.2519 0.7899 0.3563
N8 N 0.4678(4) 0.8027(2) 0.2284(3)
H19 H 0.524(4) 0.806(2) 0.176(2)
H20 H 0.517(5) 0.825(3) 0.284(3)
loop_
_geom_bond_atom_site_label_1
_geom_bond_atom_site_label_2
_geom_bond_site_symmetry_1
_geom_bond_site_symmetry_2
C1 C2 1_555 1_555
C2 C3 1_555 1_555
C3 H1 1_555 1_555
C4 C3 1_555 1_555
C5 C4 1_555 1_555
H2 C5 1_555 1_555
C6 C5 1_555 1_555
C7 C2 1_555 1_555
H3 C7 1_555 1_555
O1 C1 1_555 1_555
H4 O1 1_555 1_555
O2 C1 1_555 1_555
N1 C4 1_555 1_555
O3 N1 1_555 1_555
O4 N1 1_555 1_555
N2 C6 1_555 1_555
O5 N2 1_555 1_555
O6 N2 1_555 1_555
C8 C9 1_555 1_555
C9 C10 1_555 1_555
C10 H5 1_555 1_555
C11 C10 1_555 1_555
C12 C11 1_555 1_555
H6 C12 1_555 1_555
C13 C12 1_555 1_555
C14 C9 1_555 1_555
H7 C14 1_555 1_555
N3 C11 1_555 1_555
O7 C8 1_555 1_555
H8 O7 1_555 1_555
O8 C8 1_555 1_555
O9 N3 1_555 1_555
O10 N3 1_555 1_555
O11 N4 1_555 1_555
O12 N4 1_555 1_555
N4 C13 1_555 1_555
N5 C15 1_555 1_555
C15 C16 1_555 1_555
C16 C17 1_555 1_555
C17 H9 1_555 1_555
C18 C17 1_555 1_555
H10 C18 1_555 1_555
C19 C18 1_555 1_555
H11 C19 1_555 1_555
C20 C19 1_555 1_555
C21 C16 1_555 1_555
H12 C21 1_555 1_555
N6 C20 1_555 1_555
H13 N6 1_555 1_555
H14 N6 1_555 1_555
N7 C22 1_555 1_555
C22 C23 1_555 1_555
C23 C24 1_555 1_555
C24 H15 1_555 1_555
C25 C24 1_555 1_555
H16 C25 1_555 1_555
C26 C25 1_555 1_555
H17 C26 1_555 1_555
C27 C26 1_555 1_555
C28 C23 1_555 1_555
H18 C28 1_555 1_555
N8 C27 1_555 1_555
H19 N8 1_555 1_555
H20 N8 1_555 1_555
C6 C7 1_555 1_555
C13 C14 1_555 1_555
C20 C21 1_555 1_555
C27 C28 1_555 1_555

#END
