
#######################################################################
#
#                 Cambridge Crystallographic Data Centre
#                                CCDC 
#
#######################################################################
#
# If this CIF has been generated from an entry in the Cambridge 
# Structural Database, then it will include bibliographic, chemical, 
# crystal, experimental, refinement or atomic coordinate data resulting 
# from the CCDC's data processing and validation procedures.
#
#######################################################################

data_YAFWUX
_chemical_formula_moiety         'C8 H10 N2 S1'
_chemical_name_systematic        N-(p-Tolyl)thiourea
_symmetry_cell_setting           monoclinic
_symmetry_space_group_name_H-M   'P 21/n'
_symmetry_Int_Tables_number      14
_space_group_name_Hall           '-P 2yn'
loop_
_symmetry_equiv_pos_site_id
_symmetry_equiv_pos_as_xyz
1 x,y,z
2 1/2-x,1/2+y,1/2-z
3 -x,-y,-z
4 1/2+x,1/2-y,1/2+z
_cell_length_a                   5.618(1)
_cell_length_b                   8.487(4)
_cell_length_c                   17.865(3)
_cell_angle_alpha                90
_cell_angle_beta                 93.53(1)
_cell_angle_gamma                90
_cell_volume                     850.186
_cell_formula_units_Z            4
loop_
_atom_site_label
_atom_site_type_symbol
_atom_site_fract_x
_atom_site_fract_y
_atom_site_fract_z
S1 S 0.4185(3) 0.2482(2) 0.01794(8)
N1 N 0.7422(9) 0.1248(6) -0.0656(3)
N2 N 0.6919(8) 0.3895(5) -0.0755(3)
C1 C 0.6312(9) 0.2539(7) -0.0450(3)
C2 C 0.8416(9) 0.4109(6) -0.1364(3)
C3 C 0.785(1) 0.3447(7) -0.2054(3)
C4 C 0.925(1) 0.3729(7) -0.2648(3)
C5 C 1.1230(9) 0.4700(7) -0.2561(3)
C6 C 1.173(1) 0.5356(8) -0.1864(3)
C7 C 1.038(1) 0.5080(8) -0.1278(3)
C8 C 1.271(1) 0.5036(9) -0.3206(4)
loop_
_geom_bond_atom_site_label_1
_geom_bond_atom_site_label_2
_geom_bond_site_symmetry_1
_geom_bond_site_symmetry_2
S1 C1 1_555 1_555
N1 C1 1_555 1_555
N2 C1 1_555 1_555
C2 N2 1_555 1_555
C3 C2 1_555 1_555
C4 C3 1_555 1_555
C5 C4 1_555 1_555
C6 C5 1_555 1_555
C7 C2 1_555 1_555
C8 C5 1_555 1_555
C6 C7 1_555 1_555

#END
