
#######################################################################
#
#                 Cambridge Crystallographic Data Centre
#                                CCDC 
#
#######################################################################
#
# If this CIF has been generated from an entry in the Cambridge 
# Structural Database, then it will include bibliographic, chemical, 
# crystal, experimental, refinement or atomic coordinate data resulting 
# from the CCDC's data processing and validation procedures.
#
#######################################################################

data_YAFWOR
_chemical_formula_moiety         'C10 H16 O4'
_chemical_name_systematic        
2,3-Diacetyl-5-hydroxy-2,5-dimethyl-tetrahydrofuran
_symmetry_cell_setting           monoclinic
_symmetry_space_group_name_H-M   'P 21/c'
_symmetry_Int_Tables_number      14
_space_group_name_Hall           '-P 2ybc'
loop_
_symmetry_equiv_pos_site_id
_symmetry_equiv_pos_as_xyz
1 x,y,z
2 -x,1/2+y,1/2-z
3 -x,-y,-z
4 x,1/2-y,1/2+z
_cell_length_a                   16.766(2)
_cell_length_b                   7.736(2)
_cell_length_c                   11.024(1)
_cell_angle_alpha                90
_cell_angle_beta                 130.44(2)
_cell_angle_gamma                90
_cell_volume                     1088.22
_chemical_melting_point          73-74deg.C
_cell_formula_units_Z            4
loop_
_atom_site_label
_atom_site_type_symbol
_atom_site_fract_x
_atom_site_fract_y
_atom_site_fract_z
O1 O 0.92410(8) -0.2187(2) 0.4057(1)
O2 O 0.66479(7) -0.4727(1) 0.1814(1)
O3 O 0.71966(7) -0.3152(1) 0.4035(1)
O4 O 0.65518(8) 0.1685(1) 0.2188(1)
C1 C 0.78233(9) -0.1878(2) 0.4049(1)
C2 C 0.7164(9) -0.1167(2) 0.2309(1)
C3 C 0.6055(1) -0.1899(2) 0.1558(2)
C4 C 0.63230(9) -0.3597(2) 0.2422(1)
C5 C 0.7157(1) 0.0786(2) 0.2224(2)
C6 C 0.7952(1) 0.1538(3) 0.2173(2)
C7 C 0.8124(1) -0.0553(3) 0.5307(2)
C8 C 0.8830(1) -0.2702(3) 0.4565(2)
C9 C 0.9292(1) -0.4134(4) 0.5755(2)
C10 C 0.5497(1) -0.4392(2) 0.2402(2)
loop_
_geom_bond_atom_site_label_1
_geom_bond_atom_site_label_2
_geom_bond_site_symmetry_1
_geom_bond_site_symmetry_2
O1 C8 1_555 1_555
O2 C4 1_555 1_555
O3 C1 1_555 1_555
O4 C5 1_555 1_555
C1 C2 1_555 1_555
C2 C3 1_555 1_555
C3 C4 1_555 1_555
C4 O3 1_555 1_555
C5 C2 1_555 1_555
C6 C5 1_555 1_555
C7 C1 1_555 1_555
C8 C1 1_555 1_555
C9 C8 1_555 1_555
C10 C4 1_555 1_555

#END
