
#######################################################################
#
#                 Cambridge Crystallographic Data Centre
#                                CCDC 
#
#######################################################################
#
# If this CIF has been generated from an entry in the Cambridge 
# Structural Database, then it will include bibliographic, chemical, 
# crystal, experimental, refinement or atomic coordinate data resulting 
# from the CCDC's data processing and validation procedures.
#
#######################################################################

data_YAFXIO
_chemical_formula_moiety         'C16 H18 O3 S1'
_chemical_name_systematic        
2-(4-Methylphenyl)-1-(phenylsulfonyl)propan-2-ol
_symmetry_cell_setting           orthorhombic
_symmetry_space_group_name_H-M   'P b c a'
_symmetry_Int_Tables_number      61
_space_group_name_Hall           '-P 2ac 2ab'
loop_
_symmetry_equiv_pos_site_id
_symmetry_equiv_pos_as_xyz
1 x,y,z
2 1/2-x,-y,1/2+z
3 -x,1/2+y,1/2-z
4 1/2+x,1/2-y,-z
5 -x,-y,-z
6 1/2+x,y,1/2-z
7 x,1/2-y,1/2+z
8 1/2-x,1/2+y,z
_cell_length_a                   15.6696(14)
_cell_length_b                   11.7501(11)
_cell_length_c                   15.9042(16)
_cell_angle_alpha                90
_cell_angle_beta                 90
_cell_angle_gamma                90
_cell_volume                     2928.27
_exptl_crystal_colour            colorless
_exptl_crystal_description       block
_chemical_melting_point          '392 K'
_cell_formula_units_Z            8
loop_
_atom_site_label
_atom_site_type_symbol
_atom_site_fract_x
_atom_site_fract_y
_atom_site_fract_z
O1 O 0.16491(15) 0.5125(2) 0.51682(13)
H1 H 0.1135 0.5015 0.5118
O2 O 0.05450(17) 0.2052(2) 0.41610(15)
O3 O 0.01924(14) 0.4061(2) 0.44403(15)
S1 S 0.07045(5) 0.32361(7) 0.40083(5)
C1 C 0.17920(19) 0.3470(3) 0.4275(2)
H2 H 0.1918 0.3022 0.4772
H3 H 0.2140 0.3171 0.3822
C2 C 0.2081(2) 0.4699(3) 0.44465(19)
C3 C 0.19648(19) 0.5463(3) 0.36837(19)
C4 C 0.2366(2) 0.5198(3) 0.2928(2)
H4 H 0.2691 0.4537 0.2892
C5 C 0.2294(2) 0.5888(3) 0.2233(2)
H5 H 0.2564 0.5680 0.1735
C6 C 0.1827(2) 0.6890(3) 0.2262(2)
C7 C 0.1425(2) 0.7151(3) 0.3009(2)
H6 H 0.1101 0.7812 0.3043
C8 C 0.1492(2) 0.6455(3) 0.3710(2)
H7 H 0.1215 0.6659 0.4205
C9 C 0.3024(2) 0.4680(3) 0.4693(2)
H8 H 0.3211 0.5440 0.4815
H9 H 0.3354 0.4375 0.4238
H10 H 0.3097 0.4212 0.5183
C10 C 0.1751(3) 0.7661(3) 0.1507(2)
H11 H 0.1555 0.8397 0.1684
H12 H 0.1352 0.7341 0.1115
H13 H 0.2299 0.7735 0.1243
C11 C 0.06017(19) 0.3471(3) 0.2917(2)
C12 C 0.0856(2) 0.2625(3) 0.2375(2)
H14 H 0.1085 0.1950 0.2581
C13 C 0.0767(3) 0.2792(4) 0.1524(3)
H15 H 0.0935 0.2224 0.1151
C14 C 0.0435(3) 0.3785(5) 0.1222(3)
H16 H 0.0378 0.3889 0.0645
C15 C 0.0186(3) 0.4630(4) 0.1765(3)
H17 H -0.0036 0.5307 0.1555
C16 C 0.0264(2) 0.4476(3) 0.2624(2)
H18 H 0.0092 0.5042 0.2996
loop_
_geom_bond_atom_site_label_1
_geom_bond_atom_site_label_2
_geom_bond_site_symmetry_1
_geom_bond_site_symmetry_2
O1 H1 1_555 1_555
O2 S1 1_555 1_555
O3 S1 1_555 1_555
S1 C1 1_555 1_555
C1 H2 1_555 1_555
H3 C1 1_555 1_555
C2 O1 1_555 1_555
C3 C2 1_555 1_555
C4 C3 1_555 1_555
H4 C4 1_555 1_555
C5 C4 1_555 1_555
H5 C5 1_555 1_555
C6 C5 1_555 1_555
C7 C6 1_555 1_555
H6 C7 1_555 1_555
C8 C3 1_555 1_555
H7 C8 1_555 1_555
C9 C2 1_555 1_555
H8 C9 1_555 1_555
H9 C9 1_555 1_555
H10 C9 1_555 1_555
C10 C6 1_555 1_555
H11 C10 1_555 1_555
H12 C10 1_555 1_555
H13 C10 1_555 1_555
C11 S1 1_555 1_555
C12 C11 1_555 1_555
H14 C12 1_555 1_555
C13 C12 1_555 1_555
H15 C13 1_555 1_555
C14 C13 1_555 1_555
H16 C14 1_555 1_555
C15 C14 1_555 1_555
H17 C15 1_555 1_555
C16 C11 1_555 1_555
H18 C16 1_555 1_555
C1 C2 1_555 1_555
C7 C8 1_555 1_555
C15 C16 1_555 1_555

#END
