
#######################################################################
#
#                 Cambridge Crystallographic Data Centre
#                                CCDC 
#
#######################################################################
#
# If this CIF has been generated from an entry in the Cambridge 
# Structural Database, then it will include bibliographic, chemical, 
# crystal, experimental, refinement or atomic coordinate data resulting 
# from the CCDC's data processing and validation procedures.
#
#######################################################################

data_YAFYEK
_chemical_formula_moiety         'C60 H52 Na2 O2 P2'
_chemical_name_systematic        
bis(\m~2~-2,6-bis(1-Naphthylphenyl)phosphanido)-bis(tetrahydrofuran)-sodium(i)
_symmetry_cell_setting           triclinic
_symmetry_space_group_name_H-M   'P -1'
_symmetry_Int_Tables_number      2
_space_group_name_Hall           '-P 1'
loop_
_symmetry_equiv_pos_site_id
_symmetry_equiv_pos_as_xyz
1 x,y,z
2 -x,-y,-z
_cell_length_a                   10.5408(9)
_cell_length_b                   11.5054(10)
_cell_length_c                   11.6538(10)
_cell_angle_alpha                61.9510(10)
_cell_angle_beta                 75.1800(10)
_cell_angle_gamma                87.6420(10)
_cell_volume                     1200.64
_exptl_crystal_colour            red
_exptl_crystal_description       block
_cell_formula_units_Z            1
loop_
_atom_site_label
_atom_site_type_symbol
_atom_site_fract_x
_atom_site_fract_y
_atom_site_fract_z
P1 P 0.64121(7) 0.38479(6) 0.45661(6)
Na1 Na 0.36953(12) 0.38854(11) 0.50390(13)
O1 O 0.1865(2) 0.2522(2) 0.6150(2)
C1 C 0.6952(2) 0.2281(2) 0.5622(2)
C2 C 0.6505(2) 0.1729(2) 0.7050(2)
C3 C 0.6892(2) 0.0539(2) 0.7895(2)
H1 H 0.6572 0.0191 0.8845
C4 C 0.7743(2) -0.0157(2) 0.7379(2)
H2 H 0.8019 -0.0967 0.7967
C5 C 0.8183(2) 0.0349(2) 0.5997(2)
H3 H 0.8759 -0.0129 0.5639
C6 C 0.7802(2) 0.1539(2) 0.5116(2)
C7 C 0.8321(2) 0.2033(2) 0.3627(2)
C8 C 0.7493(2) 0.1947(2) 0.2869(2)
C9 C 0.6188(2) 0.1340(2) 0.3479(2)
H4 H 0.5825 0.1005 0.4423
C10 C 0.5440(3) 0.1228(2) 0.2725(3)
H5 H 0.4573 0.0794 0.3156
C11 C 0.5936(3) 0.1744(3) 0.1330(3)
H6 H 0.5409 0.1664 0.0816
C12 C 0.7172(3) 0.2357(2) 0.0714(3)
H7 H 0.7495 0.2714 -0.0237
C13 C 0.7998(2) 0.2485(2) 0.1437(2)
C14 C 0.9297(3) 0.3105(3) 0.0817(3)
H8 H 0.9631 0.3498 -0.0136
C15 C 1.0077(3) 0.3148(3) 0.1568(3)
H9 H 1.0955 0.3551 0.1139
C16 C 0.9587(2) 0.2599(2) 0.2972(3)
H10 H 1.0150 0.2620 0.3482
C17 C 0.5561(2) 0.2421(2) 0.7672(2)
C18 C 0.5999(2) 0.3575(2) 0.7682(2)
C19 C 0.7334(2) 0.4119(2) 0.7112(2)
H11 H 0.7966 0.3708 0.6715
C20 C 0.7713(3) 0.5232(3) 0.7132(3)
H12 H 0.8611 0.5580 0.6759
C21 C 0.6797(3) 0.5863(3) 0.7693(3)
H13 H 0.7074 0.6641 0.7689
C22 C 0.5515(3) 0.5370(3) 0.8243(3)
H14 H 0.4903 0.5814 0.8615
C23 C 0.5067(3) 0.4205(2) 0.8276(2)
C24 C 0.3739(3) 0.3677(3) 0.8862(2)
H15 H 0.3117 0.4099 0.9254
C25 C 0.3346(3) 0.2554(3) 0.8866(3)
H16 H 0.2454 0.2190 0.9273
C26 C 0.4267(2) 0.1936(2) 0.8264(2)
H17 H 0.3977 0.1161 0.8272
C27 C 0.1654(4) 0.1111(3) 0.6722(4)
H18 H 0.2503 0.0711 0.6744
H19 H 0.1227 0.0883 0.6181
C28 C 0.0797(4) 0.0625(3) 0.8095(4)
H20 H 0.1323 0.0343 0.8760
H21 H 0.0176 -0.0129 0.8341
C29 C 0.0066(3) 0.1810(3) 0.8032(4)
H22 H -0.0828 0.1713 0.7945
H23 H -0.0024 0.1860 0.8874
C30 C 0.079(2) 0.3008(16) 0.688(2)
H24 H 0.1155 0.3565 0.7183
H25 H 0.0213 0.3528 0.6306
H28 H 0.702(3) 0.406(3) 0.333(3)
P1A P 0.35879(7) 0.61521(6) 0.54339(6)
Na1A Na 0.63047(12) 0.61146(11) 0.49610(13)
O1A O 0.8135(2) 0.7478(2) 0.3850(2)
C27A C 0.8346(4) 0.8889(3) 0.3278(4)
H18A H 0.7497 0.9289 0.3256
H19A H 0.8773 0.9117 0.3819
C28A C 0.9203(4) 0.9375(3) 0.1905(4)
H20A H 0.8677 0.9657 0.1240
H21A H 0.9824 1.0129 0.1659
C29A C 0.9934(3) 0.8190(3) 0.1968(4)
H22A H 1.0828 0.8287 0.2055
H23A H 1.0024 0.8140 0.1126
C30A C 0.921(2) 0.6992(16) 0.312(2)
H24A H 0.8845 0.6435 0.2817
H25A H 0.9787 0.6472 0.3694
C1A C 0.3048(2) 0.7719(2) 0.4378(2)
C2A C 0.3495(2) 0.8271(2) 0.2950(2)
C3A C 0.3108(2) 0.9461(2) 0.2105(2)
H1A H 0.3428 0.9809 0.1155
C4A C 0.2257(2) 1.0157(2) 0.2621(2)
H2A H 0.1981 1.0967 0.2033
C5A C 0.1817(2) 0.9651(2) 0.4003(2)
H3A H 0.1241 1.0129 0.4361
C6A C 0.2198(2) 0.8461(2) 0.4884(2)
C7A C 0.1679(2) 0.7967(2) 0.6373(2)
C8A C 0.2507(2) 0.8053(2) 0.7131(2)
C9A C 0.3812(2) 0.8660(2) 0.6521(2)
H4A H 0.4175 0.8995 0.5577
C10A C 0.4560(3) 0.8772(2) 0.7275(3)
H5A H 0.5427 0.9206 0.6844
C11A C 0.4064(3) 0.8256(3) 0.8670(3)
H6A H 0.4591 0.8336 0.9184
C12A C 0.2828(3) 0.7643(2) 0.9286(3)
H7A H 0.2505 0.7286 1.0237
C13A C 0.2002(2) 0.7515(2) 0.8563(2)
C14A C 0.0703(3) 0.6895(3) 0.9183(3)
H8A H 0.0369 0.6502 1.0136
C15A C -0.0077(3) 0.6852(3) 0.8432(3)
H9A H -0.0955 0.6449 0.8861
C16A C 0.0413(2) 0.7401(2) 0.7028(3)
H10A H -0.0150 0.7380 0.6518
C17A C 0.4439(2) 0.7579(2) 0.2328(2)
C18A C 0.4001(2) 0.6425(2) 0.2318(2)
C19A C 0.2666(2) 0.5881(2) 0.2888(2)
H11A H 0.2034 0.6292 0.3285
C20A C 0.2287(3) 0.4768(3) 0.2868(3)
H12A H 0.1389 0.4420 0.3241
C21A C 0.3203(3) 0.4137(3) 0.2307(3)
H13A H 0.2926 0.3359 0.2311
C22A C 0.4485(3) 0.4630(3) 0.1757(3)
H14A H 0.5097 0.4186 0.1385
C23A C 0.4933(3) 0.5795(2) 0.1724(2)
C24A C 0.6261(3) 0.6323(3) 0.1138(2)
H15A H 0.6883 0.5901 0.0746
C25A C 0.6654(3) 0.7446(3) 0.1134(3)
H16A H 0.7546 0.7810 0.0727
C26A C 0.5733(2) 0.8064(2) 0.1736(2)
H17A H 0.6023 0.8839 0.1728
H28A H 0.298(3) 0.594(3) 0.667(3)
C31? C 0.0538(12) 0.2813(12) 0.6548(13)
H26? H -0.0011 0.2701 0.6027
H27? H 0.0516 0.3727 0.6417
loop_
_geom_bond_atom_site_label_1
_geom_bond_atom_site_label_2
_geom_bond_site_symmetry_1
_geom_bond_site_symmetry_2
P1 Na1 1_555 1_555
Na1 O1 1_555 1_555
O1 C27 1_555 1_555
C1 P1 1_555 1_555
C2 C1 1_555 1_555
C3 C2 1_555 1_555
H1 C3 1_555 1_555
C4 C3 1_555 1_555
H2 C4 1_555 1_555
C5 C4 1_555 1_555
H3 C5 1_555 1_555
C6 C1 1_555 1_555
C7 C6 1_555 1_555
C8 C7 1_555 1_555
C9 C8 1_555 1_555
H4 C9 1_555 1_555
C10 C9 1_555 1_555
H5 C10 1_555 1_555
C11 C10 1_555 1_555
H6 C11 1_555 1_555
C12 C11 1_555 1_555
H7 C12 1_555 1_555
C13 C8 1_555 1_555
C14 C13 1_555 1_555
H8 C14 1_555 1_555
C15 C14 1_555 1_555
H9 C15 1_555 1_555
C16 C7 1_555 1_555
H10 C16 1_555 1_555
C17 C2 1_555 1_555
C18 C17 1_555 1_555
C19 C18 1_555 1_555
H11 C19 1_555 1_555
C20 C19 1_555 1_555
H12 C20 1_555 1_555
C21 C20 1_555 1_555
H13 C21 1_555 1_555
C22 C21 1_555 1_555
H14 C22 1_555 1_555
C23 C18 1_555 1_555
C24 C23 1_555 1_555
H15 C24 1_555 1_555
C25 C24 1_555 1_555
H16 C25 1_555 1_555
C26 C17 1_555 1_555
H17 C26 1_555 1_555
C27 H18 1_555 1_555
H19 C27 1_555 1_555
C28 C27 1_555 1_555
H20 C28 1_555 1_555
H21 C28 1_555 1_555
C29 C28 1_555 1_555
H22 C29 1_555 1_555
H23 C29 1_555 1_555
C30 O1 1_555 1_555
H24 C30 1_555 1_555
H25 C30 1_555 1_555
H28 P1 1_555 1_555
P1A Na1 1_555 1_555
Na1A P1 1_555 1_555
O1A Na1A 1_555 1_555
C27A O1A 1_555 1_555
H18A C27A 1_555 1_555
H19A C27A 1_555 1_555
C28A C27A 1_555 1_555
H20A C28A 1_555 1_555
H21A C28A 1_555 1_555
C29A C28A 1_555 1_555
H22A C29A 1_555 1_555
H23A C29A 1_555 1_555
C30A O1A 1_555 1_555
H24A C30A 1_555 1_555
H25A C30A 1_555 1_555
C1A P1A 1_555 1_555
C2A C1A 1_555 1_555
C3A C2A 1_555 1_555
H1A C3A 1_555 1_555
C4A C3A 1_555 1_555
H2A C4A 1_555 1_555
C5A C4A 1_555 1_555
H3A C5A 1_555 1_555
C6A C1A 1_555 1_555
C7A C6A 1_555 1_555
C8A C7A 1_555 1_555
C9A C8A 1_555 1_555
H4A C9A 1_555 1_555
C10A C9A 1_555 1_555
H5A C10A 1_555 1_555
C11A C10A 1_555 1_555
H6A C11A 1_555 1_555
C12A C11A 1_555 1_555
H7A C12A 1_555 1_555
C13A C8A 1_555 1_555
C14A C13A 1_555 1_555
H8A C14A 1_555 1_555
C15A C14A 1_555 1_555
H9A C15A 1_555 1_555
C16A C7A 1_555 1_555
H10A C16A 1_555 1_555
C17A C2A 1_555 1_555
C18A C17A 1_555 1_555
C19A C18A 1_555 1_555
H11A C19A 1_555 1_555
C20A C19A 1_555 1_555
H12A C20A 1_555 1_555
C21A C20A 1_555 1_555
H13A C21A 1_555 1_555
C22A C21A 1_555 1_555
H14A C22A 1_555 1_555
C23A C18A 1_555 1_555
C24A C23A 1_555 1_555
H15A C24A 1_555 1_555
C25A C24A 1_555 1_555
H16A C25A 1_555 1_555
C26A C17A 1_555 1_555
H17A C26A 1_555 1_555
H28A P1A 1_555 1_555
C5 C6 1_555 1_555
C12 C13 1_555 1_555
C15 C16 1_555 1_555
C22 C23 1_555 1_555
C25 C26 1_555 1_555
C29 C30 1_555 1_555
P1A Na1A 1_555 1_555
C29A C30A 1_555 1_555
C5A C6A 1_555 1_555
C12A C13A 1_555 1_555
C15A C16A 1_555 1_555
C22A C23A 1_555 1_555
C25A C26A 1_555 1_555

#END
