
#######################################################################
#
#                 Cambridge Crystallographic Data Centre
#                                CCDC 
#
#######################################################################
#
# If this CIF has been generated from an entry in the Cambridge 
# Structural Database, then it will include bibliographic, chemical, 
# crystal, experimental, refinement or atomic coordinate data resulting 
# from the CCDC's data processing and validation procedures.
#
#######################################################################

data_YAGBAL
_chemical_formula_moiety         'C14 H9 N1 O2 S1'
_chemical_name_systematic        
2-(2-Hydroxyphenyl)-1,3-benzothiazole-6-carbaldehyde
_symmetry_cell_setting           monoclinic
_symmetry_space_group_name_H-M   'P 21/n'
_symmetry_Int_Tables_number      14
_space_group_name_Hall           '-P 2yn'
loop_
_symmetry_equiv_pos_site_id
_symmetry_equiv_pos_as_xyz
1 x,y,z
2 1/2-x,1/2+y,1/2-z
3 -x,-y,-z
4 1/2+x,1/2-y,1/2+z
_cell_length_a                   8.2645(3)
_cell_length_b                   5.6449(2)
_cell_length_c                   23.8341(9)
_cell_angle_alpha                90
_cell_angle_beta                 98.147(2)
_cell_angle_gamma                90
_cell_volume                     1100.69
_exptl_crystal_colour            yellow
_exptl_crystal_description       plate
_cell_formula_units_Z            4
loop_
_atom_site_label
_atom_site_type_symbol
_atom_site_fract_x
_atom_site_fract_y
_atom_site_fract_z
S1 S 0.74344(6) 0.79801(8) 0.392532(18)
O1 O 0.51794(15) 0.6205(2) 0.59718(5)
O2 O 1.05490(15) 1.4470(2) 0.35839(5)
N1 N 0.88683(16) 1.1973(2) 0.42282(6)
C1 C 0.81872(19) 1.1165(3) 0.46928(7)
C2 C 0.7362(2) 0.8986(3) 0.46067(7)
C3 C 0.66326(19) 0.7940(3) 0.50315(7)
H1 H 0.6076 0.6510 0.4970
C4 C 0.67509(19) 0.9071(3) 0.55528(7)
C5 C 0.7578(2) 1.1247(3) 0.56406(7)
H2 H 0.7644 1.1987 0.5992
C6 C 0.82896(19) 1.2299(3) 0.52162(7)
H3 H 0.8830 1.3741 0.5277
C7 C 0.5997(2) 0.7988(3) 0.60128(7)
H4 H 0.6162 0.8736 0.6364
C8 C 0.91907(19) 1.0821(3) 0.32631(7)
C9 C 1.0157(2) 1.2802(3) 0.31764(7)
C10 C 1.07588(19) 1.3083(3) 0.26659(7)
H5 H 1.1400 1.4394 0.2611
C11 C 1.04146(19) 1.1439(3) 0.22413(7)
H6 H 1.0826 1.1644 0.1901
C12 C 0.9459(2) 0.9477(3) 0.23149(7)
H7 H 0.9225 0.8371 0.2026
C13 C 0.8862(2) 0.9183(3) 0.28209(7)
H8 H 0.8223 0.7863 0.2870
C14 C 0.85778(19) 1.0478(3) 0.38021(7)
H9 H 1.005(2) 1.407(4) 0.3877(7)
loop_
_geom_bond_atom_site_label_1
_geom_bond_atom_site_label_2
_geom_bond_site_symmetry_1
_geom_bond_site_symmetry_2
S1 C2 1_555 1_555
O1 C7 1_555 1_555
O2 C9 1_555 1_555
N1 C1 1_555 1_555
C1 C2 1_555 1_555
C2 C3 1_555 1_555
C3 H1 1_555 1_555
C4 C3 1_555 1_555
C5 C4 1_555 1_555
H2 C5 1_555 1_555
C6 C1 1_555 1_555
H3 C6 1_555 1_555
C7 C4 1_555 1_555
H4 C7 1_555 1_555
C8 C9 1_555 1_555
C9 C10 1_555 1_555
C10 H5 1_555 1_555
C11 C10 1_555 1_555
H6 C11 1_555 1_555
C12 C11 1_555 1_555
H7 C12 1_555 1_555
C13 C8 1_555 1_555
H8 C13 1_555 1_555
C14 S1 1_555 1_555
H9 O2 1_555 1_555
N1 C14 1_555 1_555
C5 C6 1_555 1_555
C8 C14 1_555 1_555
C12 C13 1_555 1_555

#END
