
#######################################################################
#
#                 Cambridge Crystallographic Data Centre
#                                CCDC 
#
#######################################################################
#
# If this CIF has been generated from an entry in the Cambridge 
# Structural Database, then it will include bibliographic, chemical, 
# crystal, experimental, refinement or atomic coordinate data resulting 
# from the CCDC's data processing and validation procedures.
#
#######################################################################

data_YAGBIT
_chemical_formula_moiety         'C16 H17 N1 O5'
_chemical_name_systematic        N-(4-Hydroxyphenyl)-3,4,5-trimethoxybenzamide
_symmetry_cell_setting           orthorhombic
_symmetry_space_group_name_H-M   'P b c a'
_symmetry_Int_Tables_number      61
_space_group_name_Hall           '-P 2ac 2ab'
loop_
_symmetry_equiv_pos_site_id
_symmetry_equiv_pos_as_xyz
1 x,y,z
2 1/2+x,1/2-y,-z
3 -x,1/2+y,1/2-z
4 1/2-x,-y,1/2+z
5 -x,-y,-z
6 1/2-x,1/2+y,z
7 x,1/2-y,1/2+z
8 1/2+x,y,1/2-z
_cell_length_a                   10.4280(5)
_cell_length_b                   13.4075(6)
_cell_length_c                   21.5565(8)
_cell_angle_alpha                90
_cell_angle_beta                 90
_cell_angle_gamma                90
_cell_volume                     3013.89
_exptl_crystal_colour            colorless
_exptl_crystal_description       block
_cell_formula_units_Z            8
loop_
_atom_site_label
_atom_site_type_symbol
_atom_site_fract_x
_atom_site_fract_y
_atom_site_fract_z
C1 C 0.09766(17) 0.55474(11) 0.38891(8)
C2 C 0.09088(17) 0.65316(11) 0.36913(8)
H1 H 0.0367 0.671 0.3367
C3 C 0.16570(17) 0.72450(11) 0.39825(8)
C4 C 0.24487(18) 0.69932(11) 0.44779(8)
C5 C 0.2478(2) 0.60042(11) 0.46863(8)
C6 C 0.17580(19) 0.52861(12) 0.43820(8)
H2 H 0.18 0.4624 0.451
C7 C 0.01230(19) 0.48017(12) 0.35789(8)
O1 O -0.09130(14) 0.50472(9) 0.33584(7)
N1 N 0.05744(18) 0.38648(10) 0.35655(8)
H3 H 0.139(2) 0.3796(14) 0.3652(9)
C8 C -0.00908(19) 0.29931(12) 0.33568(8)
C9 C 0.06275(19) 0.22529(12) 0.30716(8)
H4 H 0.149 0.236 0.2986
C10 C 0.0057(2) 0.13529(12) 0.29149(8)
H5 H 0.0544 0.0854 0.273
C11 C -0.1220(2) 0.11949(12) 0.30309(8)
C12 C -0.1944(2) 0.19343(13) 0.33081(9)
H6 H -0.2812 0.1831 0.3383
C13 C -0.1375(2) 0.28301(13) 0.34741(9)
H7 H -0.1862 0.3324 0.3665
O2 O -0.17129(17) 0.02840(9) 0.28685(8)
H8 H -0.251(4) 0.023(2) 0.2997(14)
O3 O 0.16842(13) 0.82370(8) 0.38183(6)
C14 C 0.0830(3) 0.85680(15) 0.33432(11)
H9 H 0.0951 0.9269 0.3274
H10 H -0.0039 0.8447 0.3469
H11 H 0.1004 0.821 0.2967
O4 O 0.30929(14) 0.77608(8) 0.47554(6)
C15 C 0.4380(2) 0.76199(16) 0.49453(12)
H12 H 0.4698 0.8224 0.5128
H13 H 0.4896 0.745 0.4592
H14 H 0.4419 0.709 0.5244
O5 O 0.32026(16) 0.58220(8) 0.52010(6)
C16 C 0.3337(3) 0.48202(14) 0.54042(11)
H15 H 0.3862 0.4802 0.577
H16 H 0.3733 0.4432 0.5083
H17 H 0.2507 0.4549 0.5497
loop_
_geom_bond_atom_site_label_1
_geom_bond_atom_site_label_2
_geom_bond_site_symmetry_1
_geom_bond_site_symmetry_2
C1 C2 1_555 1_555
C2 H1 1_555 1_555
C3 C2 1_555 1_555
C4 C3 1_555 1_555
C5 C4 1_555 1_555
C6 C1 1_555 1_555
H2 C6 1_555 1_555
C7 C1 1_555 1_555
O1 C7 1_555 1_555
N1 C7 1_555 1_555
H3 N1 1_555 1_555
C8 N1 1_555 1_555
C9 C8 1_555 1_555
H4 C9 1_555 1_555
C10 C9 1_555 1_555
H5 C10 1_555 1_555
C11 C10 1_555 1_555
C12 C11 1_555 1_555
H6 C12 1_555 1_555
C13 C8 1_555 1_555
H7 C13 1_555 1_555
O2 C11 1_555 1_555
H8 O2 1_555 1_555
O3 C3 1_555 1_555
C14 O3 1_555 1_555
H9 C14 1_555 1_555
H10 C14 1_555 1_555
H11 C14 1_555 1_555
O4 C4 1_555 1_555
C15 O4 1_555 1_555
H12 C15 1_555 1_555
H13 C15 1_555 1_555
H14 C15 1_555 1_555
O5 C5 1_555 1_555
C16 O5 1_555 1_555
H15 C16 1_555 1_555
H16 C16 1_555 1_555
H17 C16 1_555 1_555
C5 C6 1_555 1_555
C12 C13 1_555 1_555

#END
