
#######################################################################
#
#                 Cambridge Crystallographic Data Centre
#                                CCDC 
#
#######################################################################
#
# If this CIF has been generated from an entry in the Cambridge 
# Structural Database, then it will include bibliographic, chemical, 
# crystal, experimental, refinement or atomic coordinate data resulting 
# from the CCDC's data processing and validation procedures.
#
#######################################################################

data_YAGBUG
_chemical_formula_moiety         'C24 H17 Br1'
_chemical_name_systematic        
1-(4-bromophenyl)-3-phenyl-2,8-dihydrocyclopenta[a]indene
_symmetry_cell_setting           monoclinic
_symmetry_space_group_name_H-M   'P 21/c'
_symmetry_Int_Tables_number      14
_space_group_name_Hall           '-P 2ybc'
loop_
_symmetry_equiv_pos_site_id
_symmetry_equiv_pos_as_xyz
1 x,y,z
2 -x,1/2+y,1/2-z
3 -x,-y,-z
4 x,1/2-y,1/2+z
_cell_length_a                   19.517(8)
_cell_length_b                   11.699(5)
_cell_length_c                   7.487(3)
_cell_angle_alpha                90
_cell_angle_beta                 93.387(7)
_cell_angle_gamma                90
_cell_volume                     1706.52
_exptl_crystal_colour            colorless
_exptl_crystal_description       block
_cell_formula_units_Z            4
loop_
_atom_site_label
_atom_site_type_symbol
_atom_site_fract_x
_atom_site_fract_y
_atom_site_fract_z
Br1 Br 0.64846(3) 0.15034(7) 0.90466(10)
C1 C 0.5546(3) 0.1364(5) 0.8166(8)
C2 C 0.5080(6) 0.2257(11) 0.8593(17)
H1 H 0.5232 0.2895 0.9293
C3 C 0.4409(7) 0.2165(11) 0.7962(18)
H2 H 0.4091 0.2751 0.8217
C4 C 0.4181(3) 0.1197(5) 0.6923(8)
C5 C 0.4636(7) 0.0321(12) 0.664(2)
H3 H 0.4484 -0.0363 0.6054
C6 C 0.5334(7) 0.0462(12) 0.723(2)
H4 H 0.5658 -0.0107 0.6947
C7 C 0.3458(3) 0.1114(5) 0.6315(8)
C8 C 0.2982(3) 0.1942(6) 0.5978(9)
C9 C 0.2930(4) 0.3235(5) 0.6096(10)
H5 H 0.3031 0.3507 0.7336
H6 H 0.3244 0.3614 0.5292
C10 C 0.2183(3) 0.3443(6) 0.5489(9)
C11 C 0.1843(4) 0.4473(6) 0.5425(9)
H7 H 0.2078 0.5154 0.5782
C12 C 0.1150(4) 0.4517(7) 0.4835(10)
H8 H 0.0909 0.5223 0.4828
C13 C 0.0813(4) 0.3516(6) 0.4253(9)
H9 H 0.0349 0.3551 0.3799
C14 C 0.1153(3) 0.2473(6) 0.4334(8)
H10 H 0.0923 0.1798 0.3929
C15 C 0.1832(3) 0.2416(6) 0.5010(8)
C16 C 0.2321(3) 0.1461(6) 0.5380(8)
C17 C 0.2352(3) 0.0316(6) 0.5317(9)
C18 C 0.3091(3) -0.0013(6) 0.5859(9)
H11 H 0.3306 -0.0405 0.4862
H12 H 0.3108 -0.0527 0.6910
C19 C 0.1832(3) -0.0559(5) 0.4853(8)
C20 C 0.1148(3) -0.0373(6) 0.5174(9)
H13 H 0.1017 0.0320 0.5721
C21 C 0.0649(4) -0.1196(6) 0.4699(10)
H14 H 0.0183 -0.1059 0.4927
C22 C 0.0833(4) -0.2210(6) 0.3897(10)
H15 H 0.0495 -0.2765 0.3552
C23 C 0.1510(4) -0.2399(6) 0.3610(9)
H16 H 0.1637 -0.3097 0.3069
C24 C 0.2010(3) -0.1623(5) 0.4074(8)
H17 H 0.2476 -0.1790 0.3878
C25? C 0.5242(7) 0.2270(12) 0.7307(19)
H18? H 0.5496 0.2952 0.7152
C26? C 0.4569(7) 0.2204(10) 0.6661(19)
H19? H 0.4363 0.2835 0.6037
C27? C 0.4518(7) 0.0269(11) 0.773(2)
H20? H 0.4272 -0.0425 0.7845
C28? C 0.5196(7) 0.0314(13) 0.837(2)
H21? H 0.5417 -0.0329 0.8929
loop_
_geom_bond_atom_site_label_1
_geom_bond_atom_site_label_2
_geom_bond_site_symmetry_1
_geom_bond_site_symmetry_2
Br1 C1 1_555 1_555
C1 C2 1_555 1_555
C2 H1 1_555 1_555
C3 C2 1_555 1_555
H2 C3 1_555 1_555
C4 C3 1_555 1_555
C5 C4 1_555 1_555
H3 C5 1_555 1_555
C6 C1 1_555 1_555
H4 C6 1_555 1_555
C7 C4 1_555 1_555
C8 C7 1_555 1_555
C9 C8 1_555 1_555
H5 C9 1_555 1_555
H6 C9 1_555 1_555
C10 C9 1_555 1_555
C11 C10 1_555 1_555
H7 C11 1_555 1_555
C12 C11 1_555 1_555
H8 C12 1_555 1_555
C13 C12 1_555 1_555
H9 C13 1_555 1_555
C14 C13 1_555 1_555
H10 C14 1_555 1_555
C15 C10 1_555 1_555
C16 C8 1_555 1_555
C17 C16 1_555 1_555
C18 C7 1_555 1_555
H11 C18 1_555 1_555
H12 C18 1_555 1_555
C19 C17 1_555 1_555
C20 C19 1_555 1_555
H13 C20 1_555 1_555
C21 C20 1_555 1_555
H14 C21 1_555 1_555
C22 C21 1_555 1_555
H15 C22 1_555 1_555
C23 C22 1_555 1_555
H16 C23 1_555 1_555
C24 C19 1_555 1_555
H17 C24 1_555 1_555
C5 C6 1_555 1_555
C14 C15 1_555 1_555
C15 C16 1_555 1_555
C17 C18 1_555 1_555
C23 C24 1_555 1_555

#END
