
#######################################################################
#
#                 Cambridge Crystallographic Data Centre
#                                CCDC 
#
#######################################################################
#
# If this CIF has been generated from an entry in the Cambridge 
# Structural Database, then it will include bibliographic, chemical, 
# crystal, experimental, refinement or atomic coordinate data resulting 
# from the CCDC's data processing and validation procedures.
#
#######################################################################

data_YAGCIU
_chemical_formula_moiety         'C14 H18 O4'
_chemical_name_systematic        'Pentyl (E)-3-(3,4-dihydroxyphenyl)acrylate'
_symmetry_cell_setting           triclinic
_symmetry_space_group_name_H-M   'P -1'
_symmetry_Int_Tables_number      2
_space_group_name_Hall           '-P 1'
loop_
_symmetry_equiv_pos_site_id
_symmetry_equiv_pos_as_xyz
1 x,y,z
2 -x,-y,-z
_cell_length_a                   5.3070(11)
_cell_length_b                   10.567(2)
_cell_length_c                   11.816(2)
_cell_angle_alpha                90.96(3)
_cell_angle_beta                 91.84(3)
_cell_angle_gamma                98.60(3)
_cell_volume                     654.686
_exptl_crystal_colour            colorless
_exptl_crystal_description       block
_cell_formula_units_Z            2
loop_
_atom_site_label
_atom_site_type_symbol
_atom_site_fract_x
_atom_site_fract_y
_atom_site_fract_z
O1 O -0.2441(3) 1.39149(14) 0.11914(14)
H1 H -0.1743 1.4410 0.0731
C1 C -0.1068(4) 1.08131(19) 0.20524(17)
H2 H -0.1712 1.0179 0.2547
O2 O 0.1576(3) 1.36636(13) -0.01491(12)
H3 H 0.2656 1.3441 -0.0559
C2 C -0.2175(4) 1.1903(2) 0.19717(18)
H4 H -0.3549 1.2002 0.2416
C3 C -0.1266(4) 1.28540(18) 0.12364(17)
O3 O 0.4807(3) 0.73067(15) 0.14536(14)
O4 O 0.2176(3) 0.65259(13) 0.27822(13)
C4 C 0.0776(4) 1.26997(18) 0.05777(16)
C5 C 0.1902(4) 1.16118(18) 0.06704(16)
H5 H 0.3293 1.1521 0.0233
C6 C 0.0999(4) 1.06446(18) 0.14062(16)
C7 C 0.2247(4) 0.95104(18) 0.14637(17)
H6 H 0.3589 0.9487 0.0980
C8 C 0.1716(4) 0.85117(19) 0.21148(17)
H7 H 0.0415 0.8506 0.2624
C9 C 0.3082(4) 0.74206(19) 0.20677(17)
C10 C 0.3335(4) 0.53739(19) 0.28150(19)
H8 H 0.5153 0.5582 0.2982
H9 H 0.3079 0.4919 0.2091
C11 C 0.2072(5) 0.4569(2) 0.37279(18)
H10 H 0.0261 0.4364 0.3542
H11 H 0.2270 0.5057 0.4437
C12 C 0.3173(4) 0.3342(2) 0.38791(18)
H12 H 0.2967 0.2858 0.3169
H13 H 0.4987 0.3553 0.4055
C13 C 0.1962(5) 0.2508(2) 0.4799(2)
H14 H 0.0162 0.2262 0.4609
H15 H 0.2109 0.2998 0.5506
C14 C 0.3177(7) 0.1313(3) 0.4962(3)
H16 H 0.2336 0.0813 0.5549
H17 H 0.4949 0.1551 0.5172
H18 H 0.3016 0.0818 0.4268
loop_
_geom_bond_atom_site_label_1
_geom_bond_atom_site_label_2
_geom_bond_site_symmetry_1
_geom_bond_site_symmetry_2
O1 H1 1_555 1_555
C1 H2 1_555 1_555
O2 H3 1_555 1_555
C2 C1 1_555 1_555
H4 C2 1_555 1_555
C3 O1 1_555 1_555
O3 C9 1_555 1_555
O4 C9 1_555 1_555
C4 O2 1_555 1_555
C5 C4 1_555 1_555
H5 C5 1_555 1_555
C6 C1 1_555 1_555
C7 C6 1_555 1_555
H6 C7 1_555 1_555
C8 C7 1_555 1_555
H7 C8 1_555 1_555
C9 C8 1_555 1_555
C10 O4 1_555 1_555
H8 C10 1_555 1_555
H9 C10 1_555 1_555
C11 C10 1_555 1_555
H10 C11 1_555 1_555
H11 C11 1_555 1_555
C12 C11 1_555 1_555
H12 C12 1_555 1_555
H13 C12 1_555 1_555
C13 C12 1_555 1_555
H14 C13 1_555 1_555
H15 C13 1_555 1_555
C14 C13 1_555 1_555
H16 C14 1_555 1_555
H17 C14 1_555 1_555
H18 C14 1_555 1_555
C2 C3 1_555 1_555
C3 C4 1_555 1_555
C5 C6 1_555 1_555

#END
