
#######################################################################
#
#                 Cambridge Crystallographic Data Centre
#                                CCDC 
#
#######################################################################
#
# If this CIF has been generated from an entry in the Cambridge 
# Structural Database, then it will include bibliographic, chemical, 
# crystal, experimental, refinement or atomic coordinate data resulting 
# from the CCDC's data processing and validation procedures.
#
#######################################################################

data_YAGFUH
_chemical_formula_moiety         'C12 H16 N2 O5 S1'
_chemical_name_systematic        N2-((4-Methylphenyl)sulfonyl)-glutamine
_symmetry_cell_setting           monoclinic
_symmetry_space_group_name_H-M   'P 21'
_symmetry_Int_Tables_number      4
_space_group_name_Hall           'P 2yb'
loop_
_symmetry_equiv_pos_site_id
_symmetry_equiv_pos_as_xyz
1 x,y,z
2 -x,1/2+y,-z
_cell_length_a                   12.748(4)
_cell_length_b                   5.240(1)
_cell_length_c                   21.356(4)
_cell_angle_alpha                90
_cell_angle_beta                 93.28(2)
_cell_angle_gamma                90
_cell_volume                     1424.23
_exptl_crystal_colour            white
_cell_formula_units_Z            4
loop_
_atom_site_label
_atom_site_type_symbol
_atom_site_fract_x
_atom_site_fract_y
_atom_site_fract_z
S1 S 0.7507(1) 0.087 0.0223(7)
O1 O 0.7431(4) 0.3549(9) 0.0127(2)
O2 O 0.7532(4) -0.083(1) -0.0310(2)
O3 O 0.8795(4) -0.5275(8) 0.1545(2)
O4 O 0.8693(4) -0.1243(9) 0.1846(2)
O5 O 1.1126(3) -0.2740(9) 0.1920(2)
N1 N 0.8583(4) 0.0491(9) 0.0649(2)
N2 N 1.1185(5) 0.148(1) 0.2088(3)
C1 C 0.3806(8) -0.195(3) 0.1714(5)
C3 C 0.9021(5) -0.206(1) 0.0774(3)
C4 C 1.0196(5) -0.205(1) 0.0684(3)
C5 C 1.0841(5) -0.001(1) 0.1029(3)
C6 C 1.1050(5) -0.053(1) 0.1720(3)
C7 C 0.8817(4) -0.303(1) 0.1429(3)
C13 C 0.6461(5) -0.006(1) 0.0675(3)
C14 C 0.6263(7) 0.138(2) 0.1197(3)
C15 C 0.5400(7) 0.070(2) 0.1532(4)
C16 C 0.4754(6) -0.132(2) 0.1351(4)
C17 C 0.4989(6) -0.273(2) 0.0835(4)
C18 C 0.5837(5) -0.212(1) 0.0495(3)
H1 H 0.879(5) -0.180(2) 0.217(3)
S2 S 1.2602(1) -0.4751(4) 0.4919(7)
O6 O 1.2995(4) -0.353(1) 0.5482(2)
O7 O 1.2234(4) -0.734(1) 0.4926(2)
O8 O 1.1157(4) -0.433(1) 0.3048(2)
O9 O 1.1414(5) -0.0494(9) 0.3474(2)
O10 O 0.8810(3) -0.2602(9) 0.2997(2)
N3 N 1.1607(4) -0.304(1) 0.4653(2)
N4 N 0.8755(5) -0.685(1) 0.2861(2)
C2 C 1.5992(8) -0.419(4) 0.3081(5)
C8 C 1.0934(5) -0.391(1) 0.4124(3)
C9 C 0.9801(5) -0.346(1) 0.4253(3)
C10 C 0.9003(5) -0.523(1) 0.3910(3)
C11 C 0.8853(5) -0.480(1) 0.3209(3)
C12 C 1.1219(5) -0.275(1) 0.3519(3)
C19 C 1.3575(5) -0.463(1) 0.4372(3)
C20 C 1.4323(6) -0.276(2) 0.4430(4)
C21 C 1.5084(7) -0.268(2) 0.4014(4)
C22 C 1.5124(6) -0.439(2) 0.3530(4)
C23 C 1.4334(8) -0.617(2) 0.3468(4)
C24 C 1.3553(6) -0.638(2) 0.3887(3)
H2 H 1.117(5) -0.370(2) 0.268(3)
loop_
_geom_bond_atom_site_label_1
_geom_bond_atom_site_label_2
_geom_bond_site_symmetry_1
_geom_bond_site_symmetry_2
S1 O1 1_555 1_555
S2 O6 1_555 1_555
O2 S1 1_555 1_555
O3 C7 1_555 1_555
O4 C7 1_555 1_555
O5 C6 1_555 1_555
O7 S2 1_555 1_555
O8 C12 1_555 1_555
O9 C12 1_555 1_555
O10 C11 1_555 1_555
N1 S1 1_555 1_555
N2 C6 1_555 1_555
N3 S2 1_555 1_555
N4 C11 1_555 1_555
C1 C16 1_555 1_555
C2 C22 1_555 1_555
C3 N1 1_555 1_555
C4 C3 1_555 1_555
C5 C4 1_555 1_555
C6 C5 1_555 1_555
C7 C3 1_555 1_555
C8 N3 1_555 1_555
C9 C8 1_555 1_555
C10 C9 1_555 1_555
C11 C10 1_555 1_555
C12 C8 1_555 1_555
C13 S1 1_555 1_555
C14 C13 1_555 1_555
C15 C14 1_555 1_555
C16 C15 1_555 1_555
C17 C16 1_555 1_555
C18 C13 1_555 1_555
C19 S2 1_555 1_555
C20 C19 1_555 1_555
C21 C20 1_555 1_555
C22 C21 1_555 1_555
C23 C22 1_555 1_555
C24 C19 1_555 1_555
H1 O4 1_555 1_555
H2 O8 1_555 1_555
C17 C18 1_555 1_555
C23 C24 1_555 1_555

#END
