
#######################################################################
#
#                 Cambridge Crystallographic Data Centre
#                                CCDC 
#
#######################################################################
#
# If this CIF has been generated from an entry in the Cambridge 
# Structural Database, then it will include bibliographic, chemical, 
# crystal, experimental, refinement or atomic coordinate data resulting 
# from the CCDC's data processing and validation procedures.
#
#######################################################################

data_YAGHUL
_chemical_formula_moiety         'C14 H9 N5 O10'
_chemical_name_systematic        
2-(2-(2,4-Dinitrophenyl)ethyl)-1,3,5-trinitrobenzene
_symmetry_cell_setting           monoclinic
_symmetry_space_group_name_H-M   'P 21/n'
_symmetry_Int_Tables_number      14
_space_group_name_Hall           '-P 2yn'
loop_
_symmetry_equiv_pos_site_id
_symmetry_equiv_pos_as_xyz
1 x,y,z
2 1/2-x,1/2+y,1/2-z
3 -x,-y,-z
4 1/2+x,1/2-y,1/2+z
_cell_length_a                   14.099(7)
_cell_length_b                   8.227(4)
_cell_length_c                   15.356(8)
_cell_angle_alpha                90
_cell_angle_beta                 114.758(7)
_cell_angle_gamma                90
_cell_volume                     1617.46
_exptl_crystal_colour            colorless
_exptl_crystal_description       prism
_cell_formula_units_Z            4
loop_
_atom_site_label
_atom_site_type_symbol
_atom_site_fract_x
_atom_site_fract_y
_atom_site_fract_z
O1 O 0.64474(9) 0.08191(14) 1.03105(8)
O2 O 0.68105(8) 0.33883(14) 1.06099(7)
O3 O 0.86607(8) 0.48825(14) 0.85862(7)
O4 O 0.79057(8) 0.43068(14) 0.70657(7)
O5 O 0.39540(8) 0.33811(14) 0.60692(8)
O6 O 0.40895(9) 0.07989(14) 0.63732(8)
O7 O -0.06620(8) 0.15196(13) 0.84028(8)
O8 O 0.02060(9) 0.19441(17) 0.99188(8)
O9 O 0.37441(8) 0.36062(14) 1.11500(7)
O10 O 0.46932(9) 0.29102(18) 1.04226(9)
N1 N 0.65521(9) 0.22023(16) 1.00726(9)
N2 N 0.79545(9) 0.42757(15) 0.78811(8)
N3 N 0.43956(9) 0.21995(16) 0.65550(8)
N4 N 0.01476(10) 0.18383(16) 0.91063(9)
N5 N 0.38449(10) 0.31254(16) 1.04428(9)
C1 C 0.63893(11) 0.24823(17) 0.90684(10)
C2 C 0.72280(11) 0.31584(17) 0.89544(10)
H1 H 0.7866 0.3392 0.9490
C3 C 0.71003(11) 0.34782(17) 0.80322(10)
C4 C 0.61836(11) 0.31584(17) 0.72466(10)
H2 H 0.6110 0.3381 0.6614
C5 C 0.53752(11) 0.25001(17) 0.74139(10)
C6 C 0.54234(11) 0.21345(17) 0.83201(10)
C7 C 0.44685(11) 0.16298(17) 0.84700(11)
H3 H 0.4687 0.1085 0.9099
H4 H 0.4046 0.0853 0.7964
C8 C 0.38085(11) 0.31511(19) 0.84336(11)
H5 H 0.4257 0.3962 0.8901
H6 H 0.3553 0.3642 0.7787
C9 C 0.28820(11) 0.27651(17) 0.86572(10)
C10 C 0.19285(11) 0.24056(18) 0.78975(10)
H7 H 0.1892 0.2383 0.7266
C11 C 0.10317(11) 0.20795(18) 0.80267(10)
H8 H 0.0392 0.1831 0.7497
C12 C 0.10966(10) 0.21278(17) 0.89524(10)
C13 C 0.20092(11) 0.24750(17) 0.97324(10)
H9 H 0.2037 0.2512 1.0361
C14 C 0.28871(11) 0.27693(17) 0.95696(10)
loop_
_geom_bond_atom_site_label_1
_geom_bond_atom_site_label_2
_geom_bond_site_symmetry_1
_geom_bond_site_symmetry_2
O1 N1 1_555 1_555
O2 N1 1_555 1_555
O3 N2 1_555 1_555
O4 N2 1_555 1_555
O5 N3 1_555 1_555
O6 N3 1_555 1_555
O7 N4 1_555 1_555
O8 N4 1_555 1_555
O9 N5 1_555 1_555
O10 N5 1_555 1_555
N1 C1 1_555 1_555
N2 C3 1_555 1_555
N3 C5 1_555 1_555
N4 C12 1_555 1_555
N5 C14 1_555 1_555
C1 C2 1_555 1_555
C2 H1 1_555 1_555
C3 C2 1_555 1_555
C4 C3 1_555 1_555
H2 C4 1_555 1_555
C5 C4 1_555 1_555
C6 C1 1_555 1_555
C7 C6 1_555 1_555
H3 C7 1_555 1_555
H4 C7 1_555 1_555
C8 C7 1_555 1_555
H5 C8 1_555 1_555
H6 C8 1_555 1_555
C9 C8 1_555 1_555
C10 C9 1_555 1_555
H7 C10 1_555 1_555
C11 C10 1_555 1_555
H8 C11 1_555 1_555
C12 C11 1_555 1_555
C13 C12 1_555 1_555
H9 C13 1_555 1_555
C14 C9 1_555 1_555
C5 C6 1_555 1_555
C13 C14 1_555 1_555

#END
