
#######################################################################
#
#                 Cambridge Crystallographic Data Centre
#                                CCDC 
#
#######################################################################
#
# If this CIF has been generated from an entry in the Cambridge 
# Structural Database, then it will include bibliographic, chemical, 
# crystal, experimental, refinement or atomic coordinate data resulting 
# from the CCDC's data processing and validation procedures.
#
#######################################################################

data_YAGLAV
_chemical_name_common            
'3-Methoxymethyl-16beta,17beta-epiestriol-16beta,17beta-diyl sulfate'
_chemical_formula_moiety         'C20 H26 O6 S1'
_chemical_name_systematic        
"2-(Methoxymethoxy)-6a-methyl-5,6,6a,6b,9a,10,10a,10b,11,12-decahydro-4bH-naphtho[2',1':4,5]indeno[1,2-d][1,3,2]dioxathiole 8,8-dioxide"
_symmetry_cell_setting           orthorhombic
_symmetry_space_group_name_H-M   'P 21 21 2'
_symmetry_Int_Tables_number      18
_space_group_name_Hall           'P 2 2ab'
loop_
_symmetry_equiv_pos_site_id
_symmetry_equiv_pos_as_xyz
1 x,y,z
2 -x,-y,z
3 1/2-x,1/2+y,-z
4 1/2+x,1/2-y,-z
_cell_length_a                   10.296(2)
_cell_length_b                   23.503(5)
_cell_length_c                   7.9060(16)
_cell_angle_alpha                90
_cell_angle_beta                 90
_cell_angle_gamma                90
_cell_volume                     1913.15
_exptl_crystal_colour            colorless
_exptl_crystal_description       needle
_cell_formula_units_Z            4
loop_
_atom_site_label
_atom_site_type_symbol
_atom_site_fract_x
_atom_site_fract_y
_atom_site_fract_z
S1 S 0.28012(13) 0.68651(6) 0.51055(15)
O1 O 0.3963(3) 0.72326(15) 0.4438(4)
C1 C 0.4281(4) 0.8080(2) 0.2704(6)
H1 H 0.4782 0.7802 0.2075
H2 H 0.4854 0.8383 0.3078
O2 O 0.1693(3) 0.72213(15) 0.4266(4)
C2 C 0.3582(4) 0.7803(2) 0.4211(6)
H3 H 0.3711 0.8024 0.5248
O3 O 0.2689(5) 0.6907(2) 0.6849(4)
C3 C 0.2124(4) 0.7777(2) 0.3724(5)
H4 H 0.1636 0.8076 0.4311
C4 C 0.2067(4) 0.78685(18) 0.1763(5)
O4 O 0.2839(4) 0.63112(14) 0.4338(5)
C5 C 0.3156(4) 0.83170(18) 0.1630(6)
H5 H 0.2838 0.8655 0.2228
O5 O 0.2892(7) 0.9855(3) -0.7260(7)
C6 C 0.0819(4) 0.8112(2) 0.1126(7)
H6 H 0.0543 0.8420 0.1860
H7 H 0.0151 0.7821 0.1142
O6 O 0.2753(9) 1.0346(3) -0.9382(11)
C7 C 0.0990(5) 0.8339(3) -0.0709(7)
H8 H 0.1155 0.8021 -0.1463
H9 H 0.0191 0.8521 -0.1069
C8 C 0.2109(5) 0.87663(17) -0.0848(6)
H10 H 0.1902 0.9082 -0.0084
C9 C 0.3391(4) 0.85036(18) -0.0208(6)
H11 H 0.3592 0.8167 -0.0891
C10 C 0.2324(6) 0.90293(19) -0.2624(7)
C11 C 0.3484(7) 0.9168(2) -0.3227(8)
C12 C 0.4723(6) 0.9051(3) -0.2252(9)
H12 H 0.5160 0.8727 -0.2753
H13 H 0.5294 0.9377 -0.2354
C13 C 0.4483(5) 0.8932(2) -0.0402(7)
H14 H 0.4254 0.9283 0.0173
H15 H 0.5268 0.8784 0.0112
C14 C 0.1150(8) 0.9149(2) -0.3591(8)
H16 H 0.0322 0.9047 -0.3235
C15 C 0.1424(10) 0.9461(3) -0.5261(9)
H17 H 0.0727 0.9564 -0.5945
C16 C 0.2557(12) 0.9581(3) -0.5736(9)
C17 C 0.3595(9) 0.9437(2) -0.4803(8)
H18 H 0.4420 0.9519 -0.5218
C18 C 0.2327(12) 1.0332(4) -0.7645(12)
H19 H 0.2656 1.0650 -0.6991
H20 H 0.1389 1.0312 -0.7543
C19 C 0.1688(12) 1.0446(4) -1.0307(14)
H21 H 0.1908 1.0437 -1.1487
H22 H 0.1342 1.0813 -1.0024
H23 H 0.1049 1.0159 -1.0073
C20 C 0.2369(5) 0.73070(18) 0.0879(5)
H24 H 0.2351 0.7362 -0.0324
H25 H 0.1732 0.7028 0.1191
H26 H 0.3216 0.7178 0.1213
loop_
_geom_bond_atom_site_label_1
_geom_bond_atom_site_label_2
_geom_bond_site_symmetry_1
_geom_bond_site_symmetry_2
S1 O1 1_555 1_555
O1 C2 1_555 1_555
C1 H1 1_555 1_555
H2 C1 1_555 1_555
O2 S1 1_555 1_555
C2 C1 1_555 1_555
H3 C2 1_555 1_555
O3 S1 1_555 1_555
C3 O2 1_555 1_555
H4 C3 1_555 1_555
C4 C3 1_555 1_555
O4 S1 1_555 1_555
C5 C1 1_555 1_555
H5 C5 1_555 1_555
O5 C16 1_555 1_555
C6 C4 1_555 1_555
H6 C6 1_555 1_555
H7 C6 1_555 1_555
O6 C18 1_555 1_555
C7 C6 1_555 1_555
H8 C7 1_555 1_555
H9 C7 1_555 1_555
C8 C7 1_555 1_555
H10 C8 1_555 1_555
C9 C5 1_555 1_555
H11 C9 1_555 1_555
C10 C8 1_555 1_555
C11 C10 1_555 1_555
C12 C11 1_555 1_555
H12 C12 1_555 1_555
H13 C12 1_555 1_555
C13 C9 1_555 1_555
H14 C13 1_555 1_555
H15 C13 1_555 1_555
C14 C10 1_555 1_555
H16 C14 1_555 1_555
C15 C14 1_555 1_555
H17 C15 1_555 1_555
C16 C15 1_555 1_555
C17 C11 1_555 1_555
H18 C17 1_555 1_555
C18 O5 1_555 1_555
H19 C18 1_555 1_555
H20 C18 1_555 1_555
C19 O6 1_555 1_555
H21 C19 1_555 1_555
H22 C19 1_555 1_555
H23 C19 1_555 1_555
C20 C4 1_555 1_555
H24 C20 1_555 1_555
H25 C20 1_555 1_555
H26 C20 1_555 1_555
C2 C3 1_555 1_555
C4 C5 1_555 1_555
C8 C9 1_555 1_555
C12 C13 1_555 1_555
C16 C17 1_555 1_555

#END
