
#######################################################################
#
#                 Cambridge Crystallographic Data Centre
#                                CCDC 
#
#######################################################################
#
# If this CIF has been generated from an entry in the Cambridge 
# Structural Database, then it will include bibliographic, chemical, 
# crystal, experimental, refinement or atomic coordinate data resulting 
# from the CCDC's data processing and validation procedures.
#
#######################################################################

data_YAGLOJ
_chemical_formula_moiety         'C35 H35 N1 O2,C1 H4 O1'
_chemical_name_systematic        
"(E)-2'-[(3,5-Di-t-butyl-2-hydroxybenzylidene)amino]-1,1'-binaphthalen-2-ol methanol solvate"
_symmetry_cell_setting           monoclinic
_symmetry_space_group_name_H-M   'P 21/n'
_symmetry_Int_Tables_number      14
_space_group_name_Hall           '-P 2yn'
loop_
_symmetry_equiv_pos_site_id
_symmetry_equiv_pos_as_xyz
1 x,y,z
2 1/2-x,1/2+y,1/2-z
3 -x,-y,-z
4 1/2+x,1/2-y,1/2+z
_cell_length_a                   8.8396(3)
_cell_length_b                   12.2251(5)
_cell_length_c                   28.3202(11)
_cell_angle_alpha                90
_cell_angle_beta                 95.018(2)
_cell_angle_gamma                90
_cell_volume                     3048.69
_exptl_crystal_colour            colorless
_exptl_crystal_description       block
_cell_formula_units_Z            4
loop_
_atom_site_label
_atom_site_type_symbol
_atom_site_fract_x
_atom_site_fract_y
_atom_site_fract_z
C1 C 0.9594(3) 0.5514(2) 0.31889(10)
C2 C 1.0468(4) 0.6438(2) 0.30968(12)
H1 H 1.0072 0.6965 0.2883
C3 C 1.1880(4) 0.6569(2) 0.33153(12)
H2 H 1.2438 0.7190 0.3254
C4 C 1.2512(3) 0.5780(2) 0.36335(11)
C5 C 1.3983(4) 0.5896(3) 0.38680(13)
H3 H 1.4535 0.6527 0.3820
C6 C 1.4605(4) 0.5111(3) 0.41595(13)
H4 H 1.5570 0.5206 0.4313
C7 C 1.3784(3) 0.4157(3) 0.42287(11)
H5 H 1.4218 0.3609 0.4424
C8 C 1.2363(3) 0.4019(2) 0.40147(10)
H6 H 1.1840 0.3376 0.4067
C9 C 1.1660(3) 0.4827(2) 0.37157(9)
C10 C 1.0162(3) 0.4699(2) 0.34870(8)
C11 C 0.9281(3) 0.3678(2) 0.35611(9)
C12 C 0.8688(3) 0.3457(2) 0.40045(9)
C13 C 0.8830(3) 0.4200(2) 0.43878(9)
H7 H 0.9350 0.4854 0.4355
C14 C 0.8227(3) 0.3984(3) 0.48022(10)
H8 H 0.8328 0.4492 0.5048
C15 C 0.7453(3) 0.2999(3) 0.48630(11)
H9 H 0.7055 0.2848 0.5149
C16 C 0.7289(3) 0.2276(3) 0.45043(11)
H10 H 0.6766 0.1628 0.4547
C17 C 0.7885(3) 0.2467(2) 0.40647(10)
C18 C 0.7703(3) 0.1724(2) 0.36864(10)
H11 H 0.7204 0.1065 0.3727
C19 C 0.8244(3) 0.1949(2) 0.32627(10)
H12 H 0.8105 0.1448 0.3015
C20 C 0.9015(3) 0.2939(2) 0.31964(9)
C21 C 0.8722(3) 0.3009(2) 0.23690(9)
H13 H 0.7849 0.2593 0.2387
C22 C 0.9090(3) 0.3373(2) 0.19083(9)
C23 C 0.8118(3) 0.3108(2) 0.15092(9)
H14 H 0.7274 0.2672 0.1546
C24 C 0.8368(3) 0.3470(2) 0.10628(9)
C25 C 0.9643(3) 0.4147(2) 0.10338(10)
H15 H 0.9822 0.4416 0.0736
C26 C 1.0651(3) 0.4444(2) 0.14131(10)
C27 C 1.0360(3) 0.4039(2) 0.18554(10)
C28 C 0.7328(3) 0.3183(2) 0.06217(9)
C29 C 0.8241(4) 0.2717(3) 0.02382(11)
H16 H 0.7565 0.2498 -0.0029
H17 H 0.8809 0.2094 0.0360
H18 H 0.8928 0.3264 0.0141
C30 C 0.6485(4) 0.4195(3) 0.04272(12)
H19 H 0.5909 0.4501 0.0667
H20 H 0.5811 0.3996 0.0157
H21 H 0.7203 0.4726 0.0335
C31 C 0.6155(5) 0.2328(3) 0.07330(12)
H22 H 0.5506 0.2625 0.0956
H23 H 0.6663 0.1691 0.0866
H24 H 0.5555 0.2131 0.0447
C32 C 1.2008(3) 0.5213(3) 0.13554(12)
C33 C 1.1867(4) 0.6246(3) 0.16564(14)
H25 H 1.1914 0.6049 0.1985
H26 H 1.0914 0.6598 0.1566
H27 H 1.2683 0.6738 0.1606
C34 C 1.3488(4) 0.4612(3) 0.15019(14)
H28 H 1.3586 0.3996 0.1296
H29 H 1.3479 0.4362 0.1823
H30 H 1.4329 0.5099 0.1478
C35 C 1.2075(4) 0.5579(3) 0.08416(13)
H31 H 1.2956 0.6028 0.0818
H32 H 1.1178 0.5991 0.0742
H33 H 1.2132 0.4948 0.0642
N1 N 0.9532(2) 0.32263(17) 0.27522(8)
O1 O 0.8170(2) 0.55086(17) 0.29590(8)
H37 H 0.7662 0.5027 0.3071
O2 O 1.1314(2) 0.42890(18) 0.22408(7)
H38 H 1.0928 0.4106 0.2482
C36 C 0.4695(6) 0.4186(5) 0.28155(19)
H34 H 0.3997 0.3614 0.2878
H35 H 0.5049 0.4078 0.2508
H36 H 0.4191 0.4881 0.2824
O3 O 0.5808(3) 0.4169(3) 0.31260(13)
H39 H 0.6335 0.3631 0.3085
loop_
_geom_bond_atom_site_label_1
_geom_bond_atom_site_label_2
_geom_bond_site_symmetry_1
_geom_bond_site_symmetry_2
C1 C2 1_555 1_555
C2 H1 1_555 1_555
C3 C2 1_555 1_555
H2 C3 1_555 1_555
C4 C3 1_555 1_555
C5 C4 1_555 1_555
H3 C5 1_555 1_555
C6 C5 1_555 1_555
H4 C6 1_555 1_555
C7 C6 1_555 1_555
H5 C7 1_555 1_555
C8 C7 1_555 1_555
H6 C8 1_555 1_555
C9 C4 1_555 1_555
C10 C1 1_555 1_555
C11 C10 1_555 1_555
C12 C11 1_555 1_555
C13 C12 1_555 1_555
H7 C13 1_555 1_555
C14 C13 1_555 1_555
H8 C14 1_555 1_555
C15 C14 1_555 1_555
H9 C15 1_555 1_555
C16 C15 1_555 1_555
H10 C16 1_555 1_555
C17 C12 1_555 1_555
C18 C17 1_555 1_555
H11 C18 1_555 1_555
C19 C18 1_555 1_555
H12 C19 1_555 1_555
C20 C11 1_555 1_555
C21 H13 1_555 1_555
C22 C21 1_555 1_555
C23 C22 1_555 1_555
H14 C23 1_555 1_555
C24 C23 1_555 1_555
C25 C24 1_555 1_555
H15 C25 1_555 1_555
C26 C25 1_555 1_555
C27 C22 1_555 1_555
C28 C24 1_555 1_555
C29 C28 1_555 1_555
H16 C29 1_555 1_555
H17 C29 1_555 1_555
H18 C29 1_555 1_555
C30 C28 1_555 1_555
H19 C30 1_555 1_555
H20 C30 1_555 1_555
H21 C30 1_555 1_555
C31 C28 1_555 1_555
H22 C31 1_555 1_555
H23 C31 1_555 1_555
H24 C31 1_555 1_555
C32 C26 1_555 1_555
C33 C32 1_555 1_555
H25 C33 1_555 1_555
H26 C33 1_555 1_555
H27 C33 1_555 1_555
C34 C32 1_555 1_555
H28 C34 1_555 1_555
H29 C34 1_555 1_555
H30 C34 1_555 1_555
C35 C32 1_555 1_555
H31 C35 1_555 1_555
H32 C35 1_555 1_555
H33 C35 1_555 1_555
C36 H34 1_555 1_555
H35 C36 1_555 1_555
H36 C36 1_555 1_555
N1 C20 1_555 1_555
O1 C1 1_555 1_555
H37 O1 1_555 1_555
O2 C27 1_555 1_555
H38 O2 1_555 1_555
O3 C36 1_555 1_555
H39 O3 1_555 1_555
C8 C9 1_555 1_555
C9 C10 1_555 1_555
C16 C17 1_555 1_555
C19 C20 1_555 1_555
C21 N1 1_555 1_555
C26 C27 1_555 1_555

#END
