
#######################################################################
#
#                 Cambridge Crystallographic Data Centre
#                                CCDC 
#
#######################################################################
#
# If this CIF has been generated from an entry in the Cambridge 
# Structural Database, then it will include bibliographic, chemical, 
# crystal, experimental, refinement or atomic coordinate data resulting 
# from the CCDC's data processing and validation procedures.
#
#######################################################################

data_YAGNEC
_chemical_formula_moiety         'C48 H58 Si2'
_chemical_name_systematic        
"[[9H,9'H-9,9'-bifluorene]-9,9'-diylbis(ethyne-2,1-diyl)]bis[tris(propan-2-yl)silane]"
_symmetry_cell_setting           monoclinic
_symmetry_space_group_name_H-M   'P 21/c'
_symmetry_Int_Tables_number      14
_space_group_name_Hall           '-P 2ybc'
loop_
_symmetry_equiv_pos_site_id
_symmetry_equiv_pos_as_xyz
1 x,y,z
2 -x,1/2+y,1/2-z
3 -x,-y,-z
4 x,1/2-y,1/2+z
_cell_length_a                   18.080(2)
_cell_length_b                   18.280(2)
_cell_length_c                   13.6441(15)
_cell_angle_alpha                90
_cell_angle_beta                 105.561(3)
_cell_angle_gamma                90
_cell_volume                     4344.12
_exptl_crystal_colour            colorless
_exptl_crystal_description       prismatic
_cell_formula_units_Z            4
loop_
_atom_site_label
_atom_site_type_symbol
_atom_site_fract_x
_atom_site_fract_y
_atom_site_fract_z
Si1 Si 0.16646(6) 0.74772(6) 0.70627(8)
Si2 Si 0.18336(8) 0.38592(9) 0.87761(14)
C1 C 0.2879(2) 0.5195(2) 0.5772(3)
C2 C 0.2187(3) 0.4838(2) 0.5538(3)
H1 H 0.1876 0.4857 0.5981
C3 C 0.1959(3) 0.4451(3) 0.4646(4)
H2 H 0.1491 0.4206 0.4476
C4 C 0.2432(4) 0.4430(3) 0.4003(4)
H3 H 0.2281 0.4157 0.3407
C5 C 0.3106(3) 0.4791(3) 0.4210(3)
H4 H 0.3408 0.4777 0.3756
C6 C 0.3342(2) 0.5185(2) 0.5109(3)
C7 C 0.4004(2) 0.5669(2) 0.5497(3)
C8 C 0.4604(3) 0.5854(3) 0.5090(3)
H5 H 0.4654 0.5635 0.4495
C9 C 0.5115(3) 0.6362(3) 0.5582(4)
H6 H 0.5526 0.6483 0.5325
C10 C 0.5044(2) 0.6704(3) 0.6449(3)
H7 H 0.5401 0.7056 0.6763
C11 C 0.4441(2) 0.6524(2) 0.6861(3)
H8 H 0.4383 0.6758 0.7441
C12 C 0.39350(19) 0.5993(2) 0.6387(3)
C13 C 0.32510(19) 0.56667(19) 0.6698(2)
C14 C 0.35561(19) 0.5177(2) 0.7707(3)
C15 C 0.4147(2) 0.4615(2) 0.7551(3)
C16 C 0.4013(3) 0.3982(2) 0.6980(3)
H9 H 0.3519 0.3850 0.6615
C17 C 0.4642(3) 0.3548(3) 0.6969(4)
H10 H 0.4574 0.3119 0.6589
C18 C 0.5371(3) 0.3755(4) 0.7523(4)
H11 H 0.5787 0.3461 0.7505
C19 C 0.5497(3) 0.4382(3) 0.8102(4)
H12 H 0.5991 0.4514 0.8465
C20 C 0.4873(2) 0.4814(2) 0.8133(3)
C21 C 0.4821(2) 0.5447(2) 0.8745(3)
C22 C 0.5372(3) 0.5837(3) 0.9448(4)
H13 H 0.5887 0.5705 0.9590
C23 C 0.5152(3) 0.6420(3) 0.9934(3)
H14 H 0.5525 0.6695 1.0387
C24 C 0.4387(3) 0.6609(3) 0.9766(3)
H15 H 0.4245 0.7002 1.0108
C25 C 0.3841(2) 0.6207(2) 0.9084(3)
H16 H 0.3323 0.6319 0.8978
C26 C 0.4052(2) 0.5645(2) 0.8561(3)
C27 C 0.27207(19) 0.6238(2) 0.6858(3)
C28 C 0.2289(2) 0.6704(2) 0.6948(3)
C29 C 0.1663(3) 0.8104(3) 0.5988(4)
H17 H 0.1469 0.7811 0.5371
C30 C 0.2455(3) 0.8371(4) 0.5946(5)
H18 H 0.2406 0.8652 0.5338
H19 H 0.2782 0.7958 0.5945
H20 H 0.2674 0.8671 0.6530
C31 C 0.1113(4) 0.8741(4) 0.5882(6)
H21 H 0.1270 0.9049 0.6470
H22 H 0.0605 0.8560 0.5822
H23 H 0.1117 0.9017 0.5285
C32 C 0.0671(2) 0.7112(3) 0.6917(4)
H24 H 0.0333 0.7531 0.6915
C33 C 0.0366(3) 0.6709(4) 0.5900(5)
H25 H 0.0690 0.6297 0.5875
H26 H 0.0365 0.7036 0.5349
H27 H -0.0148 0.6542 0.5840
C34 C 0.0623(3) 0.6617(4) 0.7799(5)
H28 H 0.0105 0.6450 0.7697
H29 H 0.0779 0.6885 0.8426
H30 H 0.0957 0.6203 0.7830
C35 C 0.2050(2) 0.7859(3) 0.8375(3)
H31 H 0.2028 0.7450 0.8831
C36 C 0.1557(3) 0.8452(3) 0.8659(4)
H32 H 0.1741 0.8557 0.9373
H33 H 0.1034 0.8288 0.8508
H34 H 0.1584 0.8887 0.8276
C37 C 0.2882(3) 0.8085(3) 0.8655(4)
H35 H 0.2932 0.8543 0.8335
H36 H 0.3179 0.7719 0.8428
H37 H 0.3065 0.8137 0.9380
C38 C 0.2923(2) 0.4810(2) 0.8012(3)
C39 C 0.2467(2) 0.4467(3) 0.8297(3)
C40 C 0.0900(6) 0.3783(6) 0.7866(8)
H38 H 0.0574 0.3495 0.8191
C41 C 0.0993(5) 0.3338(6) 0.6950(7)
H39 H 0.0510 0.3319 0.6439
H40 H 0.1156 0.2851 0.7166
H41 H 0.1370 0.3567 0.6673
C42 C 0.0515(6) 0.4512(6) 0.7592(9)
H42 H 0.0849 0.4832 0.7351
H43 H 0.0405 0.4722 0.8182
H44 H 0.0045 0.4446 0.7068
C43 C 0.1730(4) 0.4331(6) 1.0011(6)
H45 H 0.1530 0.4819 0.9794
C44 C 0.1117(5) 0.3976(7) 1.0476(6)
H46 H 0.1224 0.3464 1.0588
H47 H 0.0616 0.4038 1.0016
H48 H 0.1132 0.4209 1.1112
C45 C 0.2434(4) 0.4459(6) 1.0779(6)
H49 H 0.2324 0.4691 1.1356
H50 H 0.2760 0.4770 1.0511
H51 H 0.2688 0.4001 1.0985
C46 C 0.2842(5) 0.2703(6) 0.8423(9)
C47 C 0.1854(10) 0.2518(10) 0.9736(15)
H52 H 0.1917 0.2711 1.0408
H53 H 0.2009 0.2015 0.9780
H54 H 0.1324 0.2555 0.9358
C48 C 0.2378(6) 0.2970(5) 0.9161(8)
H55 H 0.3018 0.2212 0.8595
H56 H 0.3275 0.3019 0.8478
H57 H 0.2518 0.2714 0.7739
C49? C 0.0795(12) 0.4056(14) 0.8018(17)
H58? H 0.0475 0.3634 0.8075
C50? C 0.0600(13) 0.4301(14) 0.6875(15)
H59? H 0.0070 0.4443 0.6651
H60? H 0.0691 0.3901 0.6466
H61? H 0.0919 0.4707 0.6809
C51? C 0.0557(13) 0.4723(13) 0.8597(16)
C52? C 0.2288(16) 0.2735(12) 0.7979(16)
H62? H 0.2322 0.3160 0.7581
H63? H 0.1804 0.2496 0.7700
H64? H 0.2699 0.2404 0.7969
C53? C 0.2902(13) 0.2700(15) 1.0122(16)
H65? H 0.3270 0.2362 0.9990
H66? H 0.2603 0.2461 1.0512
H67? H 0.3166 0.3110 1.0498
H68? H 0.2847 0.2958 0.9687
loop_
_geom_bond_atom_site_label_1
_geom_bond_atom_site_label_2
_geom_bond_site_symmetry_1
_geom_bond_site_symmetry_2
Si1 C28 1_555 1_555
Si2 C39 1_555 1_555
C1 C2 1_555 1_555
C2 H1 1_555 1_555
C3 C2 1_555 1_555
H2 C3 1_555 1_555
C4 C3 1_555 1_555
H3 C4 1_555 1_555
C5 C4 1_555 1_555
H4 C5 1_555 1_555
C6 C1 1_555 1_555
C7 C6 1_555 1_555
C8 C7 1_555 1_555
H5 C8 1_555 1_555
C9 C8 1_555 1_555
H6 C9 1_555 1_555
C10 C9 1_555 1_555
H7 C10 1_555 1_555
C11 C10 1_555 1_555
H8 C11 1_555 1_555
C12 C7 1_555 1_555
C13 C1 1_555 1_555
C14 C13 1_555 1_555
C15 C14 1_555 1_555
C16 C15 1_555 1_555
H9 C16 1_555 1_555
C17 C16 1_555 1_555
H10 C17 1_555 1_555
C18 C17 1_555 1_555
H11 C18 1_555 1_555
C19 C18 1_555 1_555
H12 C19 1_555 1_555
C20 C15 1_555 1_555
C21 C20 1_555 1_555
C22 C21 1_555 1_555
H13 C22 1_555 1_555
C23 C22 1_555 1_555
H14 C23 1_555 1_555
C24 C23 1_555 1_555
H15 C24 1_555 1_555
C25 C24 1_555 1_555
H16 C25 1_555 1_555
C26 C14 1_555 1_555
C27 C13 1_555 1_555
C28 C27 1_555 1_555
C29 Si1 1_555 1_555
H17 C29 1_555 1_555
C30 C29 1_555 1_555
H18 C30 1_555 1_555
H19 C30 1_555 1_555
H20 C30 1_555 1_555
C31 C29 1_555 1_555
H21 C31 1_555 1_555
H22 C31 1_555 1_555
H23 C31 1_555 1_555
C32 Si1 1_555 1_555
H24 C32 1_555 1_555
C33 C32 1_555 1_555
H25 C33 1_555 1_555
H26 C33 1_555 1_555
H27 C33 1_555 1_555
C34 C32 1_555 1_555
H28 C34 1_555 1_555
H29 C34 1_555 1_555
H30 C34 1_555 1_555
C35 Si1 1_555 1_555
H31 C35 1_555 1_555
C36 C35 1_555 1_555
H32 C36 1_555 1_555
H33 C36 1_555 1_555
H34 C36 1_555 1_555
C37 C35 1_555 1_555
H35 C37 1_555 1_555
H36 C37 1_555 1_555
H37 C37 1_555 1_555
C38 C14 1_555 1_555
C39 C38 1_555 1_555
C40 Si2 1_555 1_555
H38 C40 1_555 1_555
C41 C40 1_555 1_555
H39 C41 1_555 1_555
H40 C41 1_555 1_555
H41 C41 1_555 1_555
C42 C40 1_555 1_555
H42 C42 1_555 1_555
H43 C42 1_555 1_555
H44 C42 1_555 1_555
C43 Si2 1_555 1_555
H45 C43 1_555 1_555
C44 C43 1_555 1_555
H46 C44 1_555 1_555
H47 C44 1_555 1_555
H48 C44 1_555 1_555
C45 C43 1_555 1_555
H49 C45 1_555 1_555
H50 C45 1_555 1_555
H51 C45 1_555 1_555
C46 C48 1_555 1_555
C47 H52 1_555 1_555
H53 C47 1_555 1_555
H54 C47 1_555 1_555
C48 Si2 1_555 1_555
H55 C46 1_555 1_555
H56 C46 1_555 1_555
H57 C46 1_555 1_555
C5 C6 1_555 1_555
C11 C12 1_555 1_555
C12 C13 1_555 1_555
C19 C20 1_555 1_555
C21 C26 1_555 1_555
C25 C26 1_555 1_555
C47 C48 1_555 1_555

#END
