
#######################################################################
#
#                 Cambridge Crystallographic Data Centre
#                                CCDC 
#
#######################################################################
#
# If this CIF has been generated from an entry in the Cambridge 
# Structural Database, then it will include bibliographic, chemical, 
# crystal, experimental, refinement or atomic coordinate data resulting 
# from the CCDC's data processing and validation procedures.
#
#######################################################################

data_YAGPAZ
_chemical_name_common            (E)-3-(1-Phenylethylidene)indolin-2-one
_chemical_formula_moiety         'C16 H13 N1 O1'
_chemical_name_systematic        
3-(1-Phenylethylidene)-1,3-dihydro-2H-indol-2-one
_symmetry_cell_setting           monoclinic
_symmetry_space_group_name_H-M   'C 2/c'
_symmetry_Int_Tables_number      15
_space_group_name_Hall           '-C 2yn'
loop_
_symmetry_equiv_pos_site_id
_symmetry_equiv_pos_as_xyz
1 x,y,z
2 -x,y,1/2-z
3 1/2+x,1/2+y,z
4 1/2-x,1/2+y,1/2-z
5 -x,-y,-z
6 x,-y,1/2+z
7 1/2-x,1/2-y,-z
8 1/2+x,1/2-y,1/2+z
_cell_length_a                   22.215(3)
_cell_length_b                   8.6259(13)
_cell_length_c                   15.062(2)
_cell_angle_alpha                90
_cell_angle_beta                 122.097(2)
_cell_angle_gamma                90
_cell_volume                     2445.08
_exptl_crystal_colour            colorless
_exptl_crystal_description       block
_cell_formula_units_Z            8
loop_
_atom_site_label
_atom_site_type_symbol
_atom_site_fract_x
_atom_site_fract_y
_atom_site_fract_z
O1 O 1.03263(7) 0.61802(17) 0.39044(11)
N1 N 0.91715(8) 0.61084(19) 0.25220(12)
H1 H 0.9243 0.5627 0.2086
C1 C 0.93295(9) 0.7148(2) 0.40348(14)
C2 C 0.85779(9) 0.7304(2) 0.31810(14)
C3 C 0.85065(9) 0.6645(2) 0.22834(14)
C4 C 0.92466(9) 0.8083(2) 0.55170(13)
C5 C 0.96899(10) 0.6443(2) 0.35275(15)
C6 C 0.79902(9) 0.8025(3) 0.30961(15)
H2 H 0.8025 0.8502 0.3675
C7 C 0.96527(9) 0.7516(2) 0.50547(14)
C8 C 0.87633(10) 0.7128(2) 0.55719(16)
H3 H 0.8683 0.6128 0.5301
C9 C 0.78716(10) 0.6622(3) 0.13293(15)
H4 H 0.7836 0.6156 0.0746
C10 C 1.04401(10) 0.7398(3) 0.58193(16)
H5 H 1.0643 0.6716 0.5543
H6 H 1.0530 0.6995 0.6473
H7 H 1.0651 0.8407 0.5931
C11 C 0.73531(10) 0.8022(3) 0.21390(17)
H8 H 0.6959 0.8505 0.2079
C12 C 0.93593(12) 0.9552(3) 0.59383(17)
H9 H 0.9691 1.0197 0.5929
C13 C 0.84032(12) 0.7657(3) 0.60250(17)
H10 H 0.8085 0.7007 0.6066
C14 C 0.85102(13) 0.9134(3) 0.64162(18)
H11 H 0.8260 0.9493 0.6710
C15 C 0.72902(11) 0.7317(3) 0.12704(17)
H12 H 0.6853 0.7309 0.0640
C16 C 0.89866(14) 1.0071(3) 0.6371(2)
H13 H 0.9060 1.1074 0.6636
loop_
_geom_bond_atom_site_label_1
_geom_bond_atom_site_label_2
_geom_bond_site_symmetry_1
_geom_bond_site_symmetry_2
O1 C5 1_555 1_555
N1 H1 1_555 1_555
C1 C2 1_555 1_555
C2 C3 1_555 1_555
C3 N1 1_555 1_555
C4 C7 1_555 1_555
C5 N1 1_555 1_555
C6 C2 1_555 1_555
H2 C6 1_555 1_555
C7 C1 1_555 1_555
C8 C4 1_555 1_555
H3 C8 1_555 1_555
C9 C3 1_555 1_555
H4 C9 1_555 1_555
C10 C7 1_555 1_555
H5 C10 1_555 1_555
H6 C10 1_555 1_555
H7 C10 1_555 1_555
C11 C6 1_555 1_555
H8 C11 1_555 1_555
C12 C4 1_555 1_555
H9 C12 1_555 1_555
C13 C8 1_555 1_555
H10 C13 1_555 1_555
C14 C13 1_555 1_555
H11 C14 1_555 1_555
C15 C9 1_555 1_555
H12 C15 1_555 1_555
C16 C12 1_555 1_555
H13 C16 1_555 1_555
C1 C5 1_555 1_555
C11 C15 1_555 1_555
C14 C16 1_555 1_555

#END
