
#######################################################################
#
#                 Cambridge Crystallographic Data Centre
#                                CCDC 
#
#######################################################################
#
# If this CIF has been generated from an entry in the Cambridge 
# Structural Database, then it will include bibliographic, chemical, 
# crystal, experimental, refinement or atomic coordinate data resulting 
# from the CCDC's data processing and validation procedures.
#
#######################################################################

data_YAGPIH
_chemical_formula_moiety         'C22 H26 O9'
_chemical_name_systematic        
(E)-1-[2-Hydroxy-4,6-bis(methoxymethoxy)phenyl]-3-[3-methoxy-4-(methoxymethoxy)phenyl]prop-2-en-1-one
_symmetry_cell_setting           monoclinic
_symmetry_space_group_name_H-M   'P 21'
_symmetry_Int_Tables_number      4
_space_group_name_Hall           'P 2yb'
loop_
_symmetry_equiv_pos_site_id
_symmetry_equiv_pos_as_xyz
1 x,y,z
2 -x,1/2+y,-z
_cell_length_a                   12.008(3)
_cell_length_b                   13.016(4)
_cell_length_c                   13.663(4)
_cell_angle_alpha                90
_cell_angle_beta                 97.154(4)
_cell_angle_gamma                90
_cell_volume                     2118.85
_exptl_crystal_colour            orange
_exptl_crystal_description       block
_cell_formula_units_Z            4
loop_
_atom_site_label
_atom_site_type_symbol
_atom_site_fract_x
_atom_site_fract_y
_atom_site_fract_z
O1 O 0.22434(13) 0.90191(12) 0.50952(12)
O2 O 0.14482(13) 0.95752(11) 0.35274(11)
O3 O 0.58068(13) 0.88250(11) 0.69967(11)
O4 O 0.46961(13) 0.78830(13) 0.79761(12)
O5 O 0.48367(14) 1.17704(12) 0.49837(12)
H1 H 0.5482 1.1951 0.5233
O6 O 0.66802(13) 1.16766(12) 0.60636(11)
O7 O 0.91164(14) 0.91335(12) 1.08562(11)
O8 O 1.09693(14) 1.01811(12) 1.11830(11)
O9 O 1.19143(13) 1.17603(12) 1.14491(11)
C1 C 0.53421(18) 1.03548(16) 0.60884(15)
C2 C 0.45869(19) 1.08459(16) 0.53524(16)
C3 C 0.35580(19) 1.04253(17) 0.49855(16)
H3 H 0.3074 1.0772 0.4489
C4 C 0.32511(19) 0.94969(17) 0.53531(16)
C5 C 0.39895(19) 0.89474(17) 0.60430(16)
H4 H 0.3777 0.8297 0.6274
C6 C 0.50153(18) 0.93550(17) 0.63790(16)
C7 C 0.13674(19) 0.95890(18) 0.45297(17)
H5 H 0.0633 0.9298 0.4645
H6 H 0.1394 1.0310 0.4762
C8 C 0.1145(2) 0.85967(17) 0.30924(18)
H7 H 0.0405 0.8394 0.3259
H8 H 0.1703 0.8082 0.3347
H9 H 0.1120 0.8645 0.2374
C9 C 0.5511(2) 0.78293(17) 0.73444(17)
H10 H 0.5233 0.7394 0.6772
H11 H 0.6190 0.7498 0.7692
C10 C 0.5096(2) 0.8409(2) 0.8875(2)
H12 H 0.5307 0.9113 0.8724
H13 H 0.5751 0.8047 0.9210
H14 H 0.4501 0.8426 0.9306
C11 C 0.63687(19) 1.08955(17) 0.64962(16)
C12 C 0.70300(18) 1.05763(16) 0.74328(16)
H15 H 0.6728 1.0086 0.7842
C13 C 0.80475(18) 1.09697(16) 0.77090(16)
H16 H 0.8301 1.1467 0.7278
C14 C 0.88206(18) 1.07296(17) 0.85929(16)
C15 C 0.85724(19) 0.99989(16) 0.92922(16)
H17 H 0.7888 0.9626 0.9184
C16 C 0.9308(2) 0.98154(16) 1.01337(16)
C17 C 1.03260(19) 1.03632(16) 1.03000(16)
C18 C 1.05886(19) 1.10596(16) 0.95928(16)
H18 H 1.1287 1.1411 0.9683
C19 C 0.98402(18) 1.12444(17) 0.87596(16)
H19 H 1.0026 1.1734 0.8290
C20 C 0.8059(2) 0.86135(18) 1.07342(18)
H20 H 0.7979 0.8226 1.0114
H21 H 0.7451 0.9118 1.0718
H22 H 0.8021 0.8140 1.1287
C21 C 1.2022(2) 1.07013(18) 1.13626(17)
H23 H 1.2443 1.0430 1.1977
H24 H 1.2466 1.0551 1.0815
C22 C 1.1447(2) 1.20680(19) 1.23220(17)
H25 H 1.1861 1.1735 1.2899
H26 H 1.0656 1.1863 1.2265
H27 H 1.1505 1.2816 1.2397
O10 O 0.18533(13) 0.81450(12) 0.00995(11)
O11 O 0.15303(14) 0.77679(11) -0.15985(12)
O12 O 0.49745(13) 0.80118(12) 0.25640(11)
O13 O 0.44653(14) 0.97448(11) 0.26498(12)
O14 O 0.46845(14) 0.56582(13) -0.01679(12)
H2 H 0.5328 0.5489 0.0095
O15 O 0.64358(14) 0.57331(13) 0.09948(12)
O16 O 0.89706(13) 0.82460(12) 0.57367(11)
O17 O 1.08189(13) 0.71974(11) 0.60496(11)
O18 O 1.18426(13) 0.56566(12) 0.63086(11)
C23 C 0.49240(19) 0.68245(17) 0.12260(16)
C24 C 0.42976(19) 0.64374(17) 0.03440(16)
C25 C 0.32671(19) 0.68403(17) -0.00400(16)
H28 H 0.2863 0.6555 -0.0619
C26 C 0.28369(19) 0.76586(17) 0.04285(16)
C27 C 0.34081(18) 0.80713(17) 0.12906(16)
H29 H 0.3101 0.8640 0.1600
C28 C 0.44134(18) 0.76566(16) 0.16925(16)
C29 C 0.11434(19) 0.76794(18) -0.06884(17)
H30 H 0.1061 0.6941 -0.0537
H31 H 0.0390 0.7997 -0.0729
C30 C 0.1521(2) 0.88016(18) -0.19537(19)
H32 H 0.2100 0.9201 -0.1551
H33 H 0.0784 0.9109 -0.1912
H34 H 0.1674 0.8803 -0.2642
C31 C 0.4462(2) 0.87896(17) 0.31042(17)
H35 H 0.3678 0.8589 0.3164
H36 H 0.4871 0.8839 0.3778
C32 C 0.5560(2) 1.0166(2) 0.2683(2)
H37 H 0.6041 0.9689 0.2373
H38 H 0.5875 1.0279 0.3372
H39 H 0.5521 1.0822 0.2328
C33 C 0.60378(19) 0.63850(17) 0.15390(16)
C34 C 0.67431(19) 0.66787(17) 0.24565(17)
H40 H 0.6443 0.7116 0.2915
C35 C 0.77910(18) 0.63422(16) 0.26537(16)
H41 H 0.8046 0.5895 0.2180
C36 C 0.85976(18) 0.65812(16) 0.35166(16)
C37 C 0.96138(18) 0.60702(16) 0.36697(16)
H42 H 0.9787 0.5577 0.3199
C38 C 1.03903(18) 0.62596(17) 0.44958(16)
H43 H 1.1084 0.5900 0.4582
C39 C 1.01467(18) 0.69756(16) 0.51928(16)
C40 C 0.91248(18) 0.75263(15) 0.50337(16)
C41 C 0.83640(19) 0.73288(16) 0.42099(16)
H44 H 0.7678 0.7700 0.4110
C42 C 0.7928(2) 0.87817(18) 0.56172(17)
H45 H 0.7310 0.8287 0.5595
H46 H 0.7859 0.9175 0.5001
H47 H 0.7898 0.9251 0.6174
C43 C 1.18969(18) 0.67200(18) 0.61951(17)
H48 H 1.2300 0.6875 0.5623
H49 H 1.2336 0.7018 0.6789
C44 C 1.1416(2) 0.53416(19) 0.71952(18)
H50 H 1.0617 0.5514 0.7151
H51 H 1.1827 0.5698 0.7761
H52 H 1.1513 0.4598 0.7280
loop_
_geom_bond_atom_site_label_1
_geom_bond_atom_site_label_2
_geom_bond_site_symmetry_1
_geom_bond_site_symmetry_2
O1 C4 1_555 1_555
O2 C7 1_555 1_555
O3 C6 1_555 1_555
O4 C9 1_555 1_555
O5 H1 1_555 1_555
O6 C11 1_555 1_555
O7 C16 1_555 1_555
O8 C17 1_555 1_555
O9 C21 1_555 1_555
O10 C26 1_555 1_555
O11 C29 1_555 1_555
O12 C28 1_555 1_555
O13 C31 1_555 1_555
O14 H2 1_555 1_555
O15 C33 1_555 1_555
O16 C40 1_555 1_555
O17 C39 1_555 1_555
O18 C43 1_555 1_555
C1 C2 1_555 1_555
C2 O5 1_555 1_555
C3 C2 1_555 1_555
H3 C3 1_555 1_555
C4 C3 1_555 1_555
C5 C4 1_555 1_555
H4 C5 1_555 1_555
C6 C1 1_555 1_555
C7 O1 1_555 1_555
H5 C7 1_555 1_555
H6 C7 1_555 1_555
C8 O2 1_555 1_555
H7 C8 1_555 1_555
H8 C8 1_555 1_555
H9 C8 1_555 1_555
C9 O3 1_555 1_555
H10 C9 1_555 1_555
H11 C9 1_555 1_555
C10 O4 1_555 1_555
H12 C10 1_555 1_555
H13 C10 1_555 1_555
H14 C10 1_555 1_555
C11 C1 1_555 1_555
C12 C11 1_555 1_555
H15 C12 1_555 1_555
C13 C12 1_555 1_555
H16 C13 1_555 1_555
C14 C13 1_555 1_555
C15 C14 1_555 1_555
H17 C15 1_555 1_555
C16 C15 1_555 1_555
C17 C16 1_555 1_555
C18 C17 1_555 1_555
H18 C18 1_555 1_555
C19 C14 1_555 1_555
H19 C19 1_555 1_555
C20 O7 1_555 1_555
H20 C20 1_555 1_555
H21 C20 1_555 1_555
H22 C20 1_555 1_555
C21 O8 1_555 1_555
H23 C21 1_555 1_555
H24 C21 1_555 1_555
C22 O9 1_555 1_555
H25 C22 1_555 1_555
H26 C22 1_555 1_555
H27 C22 1_555 1_555
C23 C24 1_555 1_555
C24 O14 1_555 1_555
C25 C24 1_555 1_555
H28 C25 1_555 1_555
C26 C25 1_555 1_555
C27 C26 1_555 1_555
H29 C27 1_555 1_555
C28 C23 1_555 1_555
C29 O10 1_555 1_555
H30 C29 1_555 1_555
H31 C29 1_555 1_555
C30 O11 1_555 1_555
H32 C30 1_555 1_555
H33 C30 1_555 1_555
H34 C30 1_555 1_555
C31 O12 1_555 1_555
H35 C31 1_555 1_555
H36 C31 1_555 1_555
C32 O13 1_555 1_555
H37 C32 1_555 1_555
H38 C32 1_555 1_555
H39 C32 1_555 1_555
C33 C23 1_555 1_555
C34 C33 1_555 1_555
H40 C34 1_555 1_555
C35 C34 1_555 1_555
H41 C35 1_555 1_555
C36 C35 1_555 1_555
C37 C36 1_555 1_555
H42 C37 1_555 1_555
C38 C37 1_555 1_555
H43 C38 1_555 1_555
C39 C38 1_555 1_555
C40 C39 1_555 1_555
C41 C36 1_555 1_555
H44 C41 1_555 1_555
C42 O16 1_555 1_555
H45 C42 1_555 1_555
H46 C42 1_555 1_555
H47 C42 1_555 1_555
C43 O17 1_555 1_555
H48 C43 1_555 1_555
H49 C43 1_555 1_555
C44 O18 1_555 1_555
H50 C44 1_555 1_555
H51 C44 1_555 1_555
H52 C44 1_555 1_555
C5 C6 1_555 1_555
C18 C19 1_555 1_555
C27 C28 1_555 1_555
C40 C41 1_555 1_555

#END
