
#######################################################################
#
#                 Cambridge Crystallographic Data Centre
#                                CCDC 
#
#######################################################################
#
# If this CIF has been generated from an entry in the Cambridge 
# Structural Database, then it will include bibliographic, chemical, 
# crystal, experimental, refinement or atomic coordinate data resulting 
# from the CCDC's data processing and validation procedures.
#
#######################################################################

data_YAGTAD
_chemical_compound_source        'roots of Ligularia virgaurea'
_chemical_name_common            
6beta,8beta-Dihydroxyeremophil-7(11)-en-8alpha,12-olide
_chemical_formula_moiety         'C15 H22 O4'
_chemical_name_systematic        
4,9a-Dihydroxy-3,4a,5-trimethyl-4a,5,6,7,8,8a,9,9a-octahydronaphtho[2,3-b]furan-2(4H)-one
_symmetry_cell_setting           orthorhombic
_symmetry_space_group_name_H-M   'P 21 21 21'
_symmetry_Int_Tables_number      19
_space_group_name_Hall           'P 2ac 2ab'
loop_
_symmetry_equiv_pos_site_id
_symmetry_equiv_pos_as_xyz
1 x,y,z
2 1/2-x,-y,1/2+z
3 -x,1/2+y,1/2-z
4 1/2+x,1/2-y,-z
_cell_length_a                   9.8627(7)
_cell_length_b                   10.5674(7)
_cell_length_c                   13.1565(9)
_cell_angle_alpha                90
_cell_angle_beta                 90
_cell_angle_gamma                90
_cell_volume                     1371.21
_exptl_crystal_colour            colorless
_exptl_crystal_description       block
_cell_formula_units_Z            4
_exptl_crystal_recrystallization_method methanol
loop_
_atom_site_label
_atom_site_type_symbol
_atom_site_fract_x
_atom_site_fract_y
_atom_site_fract_z
C1 C 0.52336(19) 0.0280(2) 0.02370(15)
H1 H 0.6033 0.0428 0.0650
H2 H 0.5488 -0.0277 -0.0317
C2 C 0.4742(2) 0.1530(2) -0.01946(17)
H3 H 0.4024 0.1371 -0.0682
H4 H 0.5482 0.1941 -0.0550
C3 C 0.4214(2) 0.24061(19) 0.06327(16)
H5 H 0.3821 0.3150 0.0318
H6 H 0.4970 0.2682 0.1049
C4 C 0.31514(18) 0.17838(17) 0.13139(14)
H7 H 0.2371 0.1584 0.0881
C5 C 0.36613(16) 0.05137(17) 0.17644(13)
C6 C 0.24978(17) -0.01496(17) 0.23600(12)
H8 H 0.2093 0.0468 0.2825
C7 C 0.14293(16) -0.05820(15) 0.16381(12)
C8 C 0.01487(16) -0.02563(16) 0.14955(12)
C9 C -0.03401(18) -0.09426(16) 0.05925(13)
C10 C 0.18821(16) -0.14622(15) 0.08141(13)
C11 C 0.29893(16) -0.08367(15) 0.01959(12)
H9 H 0.2612 -0.0128 -0.0178
H10 H 0.3347 -0.1438 -0.0292
C12 C 0.41454(16) -0.03650(17) 0.08853(13)
H11 H 0.4563 -0.1111 0.1197
C13 C 0.2660(3) 0.2734(2) 0.21109(18)
H12 H 0.1857 0.2415 0.2434
H13 H 0.2459 0.3527 0.1787
H14 H 0.3355 0.2858 0.2612
C14 C 0.4830(2) 0.0732(2) 0.25188(15)
H15 H 0.5526 0.1226 0.2198
H16 H 0.5198 -0.0069 0.2725
H17 H 0.4495 0.1175 0.3104
C15 C -0.07474(19) 0.06430(19) 0.20584(15)
H18 H -0.0367 0.0811 0.2716
H19 H -0.1632 0.0276 0.2137
H20 H -0.0819 0.1420 0.1684
O1 O -0.14548(13) -0.09203(13) 0.02165(11)
O2 O 0.06687(12) -0.16515(11) 0.01970(9)
O3 O 0.22670(13) -0.26232(11) 0.12267(9)
H21 H 0.2694 -0.3028 0.0802
O4 O 0.29776(15) -0.11964(14) 0.29448(10)
H22 H 0.3033 -0.1824 0.2580
loop_
_geom_bond_atom_site_label_1
_geom_bond_atom_site_label_2
_geom_bond_site_symmetry_1
_geom_bond_site_symmetry_2
C1 H1 1_555 1_555
H2 C1 1_555 1_555
C2 C1 1_555 1_555
H3 C2 1_555 1_555
H4 C2 1_555 1_555
C3 C2 1_555 1_555
H5 C3 1_555 1_555
H6 C3 1_555 1_555
C4 C3 1_555 1_555
H7 C4 1_555 1_555
C5 C4 1_555 1_555
C6 C5 1_555 1_555
H8 C6 1_555 1_555
C7 C6 1_555 1_555
C8 C7 1_555 1_555
C9 C8 1_555 1_555
C10 C7 1_555 1_555
C11 C10 1_555 1_555
H9 C11 1_555 1_555
H10 C11 1_555 1_555
C12 C1 1_555 1_555
H11 C12 1_555 1_555
C13 C4 1_555 1_555
H12 C13 1_555 1_555
H13 C13 1_555 1_555
H14 C13 1_555 1_555
C14 C5 1_555 1_555
H15 C14 1_555 1_555
H16 C14 1_555 1_555
H17 C14 1_555 1_555
C15 C8 1_555 1_555
H18 C15 1_555 1_555
H19 C15 1_555 1_555
H20 C15 1_555 1_555
O1 C9 1_555 1_555
O2 C9 1_555 1_555
O3 C10 1_555 1_555
H21 O3 1_555 1_555
O4 C6 1_555 1_555
H22 O4 1_555 1_555
C5 C12 1_555 1_555
C10 O2 1_555 1_555
C11 C12 1_555 1_555

#END
