
#######################################################################
#
#                 Cambridge Crystallographic Data Centre
#                                CCDC 
#
#######################################################################
#
# If this CIF has been generated from an entry in the Cambridge 
# Structural Database, then it will include bibliographic, chemical, 
# crystal, experimental, refinement or atomic coordinate data resulting 
# from the CCDC's data processing and validation procedures.
#
#######################################################################

data_YAGTOS
_chemical_formula_moiety         'C20 H19 N4 1+,Cl1 1-,2(H2 O1)'
_chemical_name_systematic        
'3,7-diamino-2,8-dimethyl-5-phenylphenazin-5-ium chloride dihydrate'
_symmetry_cell_setting           monoclinic
_symmetry_space_group_name_H-M   'P 21/c'
_symmetry_Int_Tables_number      14
_space_group_name_Hall           '-P 2ybc'
loop_
_symmetry_equiv_pos_site_id
_symmetry_equiv_pos_as_xyz
1 x,y,z
2 -x,1/2+y,1/2-z
3 -x,-y,-z
4 x,1/2-y,1/2+z
_cell_length_a                   12.783(2)
_cell_length_b                   7.1190(14)
_cell_length_c                   22.379(4)
_cell_angle_alpha                90
_cell_angle_beta                 97.446(3)
_cell_angle_gamma                90
_cell_volume                     2019.36
_exptl_crystal_colour            red
_exptl_crystal_description       needle
_cell_formula_units_Z            4
loop_
_atom_site_label
_atom_site_type_symbol
_atom_site_fract_x
_atom_site_fract_y
_atom_site_fract_z
N1 N 0.5339(4) 0.7778(8) 0.4272(2)
N2 N 0.4690(4) 0.7228(8) 0.5378(3)
N3 N 0.1811(4) 0.6350(9) 0.3357(3)
H1 H 0.2005 0.6463 0.2995
H2 H 0.1152 0.6078 0.3396
N4 N 0.8821(4) 0.9198(10) 0.5211(3)
H3 H 0.9005 0.9451 0.4854
H4 H 0.9287 0.9292 0.5535
C1 C 0.4307(5) 0.7263(10) 0.4280(3)
C2 C 0.4018(4) 0.6997(10) 0.4871(3)
C3 C 0.2949(4) 0.6564(10) 0.4919(3)
H5 H 0.2742 0.6442 0.5310
C4 C 0.2226(4) 0.6322(10) 0.4444(3)
C5 C 0.2530(5) 0.6598(10) 0.3856(3)
C6 C 0.3583(5) 0.7036(9) 0.3768(3)
H6 H 0.3782 0.7168 0.3376
C7 C 0.6075(5) 0.7965(10) 0.4773(3)
C8 C 0.5703(5) 0.7664(10) 0.5334(3)
C9 C 0.6422(5) 0.7975(10) 0.5860(3)
H7 H 0.6177 0.7859 0.6242
C10 C 0.7453(4) 0.8436(10) 0.5842(3)
C11 C 0.7823(5) 0.8667(10) 0.5260(3)
C12 C 0.7094(5) 0.8528(10) 0.4736(3)
H8 H 0.7305 0.8822 0.4355
C13 C 0.1108(5) 0.5863(12) 0.4482(4)
H9 H 0.0996 0.5786 0.4907
H10 H 0.0934 0.4653 0.4285
H11 H 0.0655 0.6845 0.4281
C14 C 0.8252(6) 0.8609(14) 0.6395(3)
H12 H 0.8506 0.9908 0.6428
H13 H 0.8847 0.7762 0.6364
H14 H 0.7920 0.8285 0.6752
C15 C 0.5662(5) 0.7891(8) 0.3697(2)
C16 C 0.5973(4) 0.6333(8) 0.3411(2)
H15 H 0.5933 0.5112 0.3577
C17 C 0.6362(4) 0.6626(8) 0.2850(2)
H16 H 0.6563 0.5570 0.2632
C18 C 0.6455(4) 0.8360(8) 0.2619(2)
H17 H 0.6742 0.8522 0.2251
C19 C 0.6131(4) 0.9881(8) 0.2919(2)
H18 H 0.6186 1.1102 0.2755
C20 C 0.5727(4) 0.9674(8) 0.3455(2)
H19 H 0.5495 1.0739 0.3658
N5? N 0.5317(5) 0.7585(12) 0.4311(3)
N6? N 0.4867(5) 0.7178(11) 0.5528(3)
N7? N 0.1629(6) 0.6366(13) 0.3678(4)
H20? H 0.1735 0.6557 0.3302
H21? H 0.0999 0.6047 0.3761
N8? N 0.8873(6) 0.9233(14) 0.5177(5)
H22? H 0.9060 0.9360 0.4814
H23? H 0.9332 0.9456 0.5497
C21? C 0.4281(6) 0.7233(14) 0.4446(3)
C22? C 0.4099(6) 0.7002(14) 0.5059(3)
C23? C 0.3054(6) 0.6548(13) 0.5172(4)
H24? H 0.2927 0.6388 0.5578
C24? C 0.2252(6) 0.6338(13) 0.4738(4)
C25? C 0.2434(6) 0.6563(14) 0.4127(4)
C26? C 0.3443(6) 0.7076(13) 0.3987(4)
H25? H 0.3548 0.7313 0.3581
C27? C 0.6087(6) 0.7939(15) 0.4809(3)
C28? C 0.5828(6) 0.7706(14) 0.5404(3)
C29? C 0.6638(6) 0.7831(13) 0.5908(4)
H26? H 0.6471 0.7539 0.6299
C30? C 0.7643(6) 0.8356(14) 0.5843(3)
C31? C 0.7887(6) 0.8702(14) 0.5241(3)
C32? C 0.7128(6) 0.8332(14) 0.4743(4)
H27? H 0.7334 0.8351 0.4350
C33? C 0.1159(7) 0.5876(18) 0.4817(5)
H28? H 0.0976 0.4642 0.4639
H29? H 0.0684 0.6829 0.4616
H30? H 0.1088 0.5848 0.5247
C34? C 0.8421(8) 0.8725(19) 0.6390(4)
H31? H 0.8756 0.9953 0.6356
H32? H 0.8961 0.7740 0.6420
H33? H 0.8062 0.8703 0.6751
loop_
_geom_bond_atom_site_label_1
_geom_bond_atom_site_label_2
_geom_bond_site_symmetry_1
_geom_bond_site_symmetry_2
N1 C1 1_555 1_555
N2 C2 1_555 1_555
N3 H1 1_555 1_555
H2 N3 1_555 1_555
N4 H3 1_555 1_555
H4 N4 1_555 1_555
C1 C2 1_555 1_555
C2 C3 1_555 1_555
C3 H5 1_555 1_555
C4 C3 1_555 1_555
C5 N3 1_555 1_555
C6 C1 1_555 1_555
H6 C6 1_555 1_555
C7 N1 1_555 1_555
C8 N2 1_555 1_555
C9 C8 1_555 1_555
H7 C9 1_555 1_555
C10 C9 1_555 1_555
C11 N4 1_555 1_555
C12 C7 1_555 1_555
H8 C12 1_555 1_555
C13 C4 1_555 1_555
H9 C13 1_555 1_555
H10 C13 1_555 1_555
H11 C13 1_555 1_555
C14 C10 1_555 1_555
H12 C14 1_555 1_555
H13 C14 1_555 1_555
H14 C14 1_555 1_555
C15 N1 1_555 1_555
C16 C15 1_555 1_555
H15 C16 1_555 1_555
C17 C16 1_555 1_555
H16 C17 1_555 1_555
C18 C17 1_555 1_555
H17 C18 1_555 1_555
C19 C18 1_555 1_555
H18 C19 1_555 1_555
C20 C15 1_555 1_555
H19 C20 1_555 1_555
C4 C5 1_555 1_555
C5 C6 1_555 1_555
C7 C8 1_555 1_555
C10 C11 1_555 1_555
C11 C12 1_555 1_555
C19 C20 1_555 1_555

#END
