
#######################################################################
#
#                 Cambridge Crystallographic Data Centre
#                                CCDC 
#
#######################################################################
#
# If this CIF has been generated from an entry in the Cambridge 
# Structural Database, then it will include bibliographic, chemical, 
# crystal, experimental, refinement or atomic coordinate data resulting 
# from the CCDC's data processing and validation procedures.
#
#######################################################################

data_YAGVUZ
_chemical_formula_moiety         'C18 H17 N1 O4 S1'
_chemical_name_systematic        
3-(1,3-Benzodioxol-5-ylmethyl)-2-(2-methoxyphenyl)-1,3-thiazolidin-4-one
_symmetry_cell_setting           monoclinic
_symmetry_space_group_name_H-M   'P 21/n'
_symmetry_Int_Tables_number      14
_space_group_name_Hall           '-P 2yn'
loop_
_symmetry_equiv_pos_site_id
_symmetry_equiv_pos_as_xyz
1 x,y,z
2 1/2-x,1/2+y,1/2-z
3 -x,-y,-z
4 1/2+x,1/2-y,1/2+z
_cell_length_a                   6.8137(3)
_cell_length_b                   12.5753(7)
_cell_length_c                   18.5071(9)
_cell_angle_alpha                90
_cell_angle_beta                 91.825(3)
_cell_angle_gamma                90
_cell_volume                     1584.96
_exptl_crystal_colour            colorless
_exptl_crystal_description       block
_cell_formula_units_Z            4
_exptl_crystal_recrystallization_method ethanol
loop_
_atom_site_label
_atom_site_type_symbol
_atom_site_fract_x
_atom_site_fract_y
_atom_site_fract_z
S1 S 0.48794(13) 0.72256(9) 0.17227(5)
O1 O 0.3856(3) 0.60647(19) -0.01787(12)
O2 O 0.9136(3) 0.76552(19) 0.24212(12)
O3 O 1.2380(3) 0.9163(2) -0.11437(14)
O4 O 1.0102(3) 1.05303(19) -0.11655(13)
N1 N 0.6500(4) 0.6556(2) 0.05355(13)
C1 C 0.7138(4) 0.6948(3) 0.12420(17)
H1 H 0.7849 0.7635 0.1174
C2 C 0.4558(5) 0.6343(3) 0.04091(18)
C3 C 0.3391(5) 0.6492(3) 0.10759(19)
H2 H 0.3034 0.5792 0.1279
H3 H 0.2167 0.6888 0.0957
C4 C 0.8488(4) 0.6199(3) 0.16581(17)
C5 C 0.9521(4) 0.6609(3) 0.22695(17)
C6 C 1.0804(5) 0.5969(3) 0.26668(18)
H4 H 1.1525 0.6253 0.3070
C7 C 1.1036(5) 0.4905(3) 0.24740(18)
H5 H 1.1917 0.4465 0.2747
C8 C 0.9991(5) 0.4487(3) 0.18869(18)
H6 H 1.0127 0.3757 0.1765
C9 C 0.8740(5) 0.5139(3) 0.14744(17)
H7 H 0.8053 0.4856 0.1063
C10 C 0.9967(5) 0.8064(3) 0.30861(18)
H8 H 0.9499 0.7642 0.3491
H9 H 0.9568 0.8807 0.3145
H10 H 1.1402 0.8022 0.3077
C11 C 0.7881(5) 0.6555(3) -0.00479(17)
H11 H 0.7309 0.6146 -0.0460
H12 H 0.9099 0.6188 0.0119
C12 C 0.8399(5) 0.7660(3) -0.03050(16)
C13 C 1.0282(5) 0.7820(3) -0.05777(17)
H13 H 1.1244 0.7273 -0.0570
C14 C 1.0652(4) 0.8808(3) -0.08553(18)
C15 C 1.1839(5) 1.0137(3) -0.1505(2)
H14 H 1.1562 1.0004 -0.2026
H15 H 1.2917 1.0662 -0.1456
C16 C 0.9303(5) 0.9626(3) -0.08612(18)
C17 C 0.7480(5) 0.9499(3) -0.05749(17)
H16 H 0.6563 1.0068 -0.0562
C18 C 0.7038(5) 0.8489(3) -0.03018(17)
H17 H 0.5781 0.8366 -0.0110
loop_
_geom_bond_atom_site_label_1
_geom_bond_atom_site_label_2
_geom_bond_site_symmetry_1
_geom_bond_site_symmetry_2
S1 C1 1_555 1_555
O1 C2 1_555 1_555
O2 C5 1_555 1_555
O3 C14 1_555 1_555
O4 C15 1_555 1_555
N1 C1 1_555 1_555
C1 H1 1_555 1_555
C2 N1 1_555 1_555
C3 S1 1_555 1_555
H2 C3 1_555 1_555
H3 C3 1_555 1_555
C4 C1 1_555 1_555
C5 C4 1_555 1_555
C6 C5 1_555 1_555
H4 C6 1_555 1_555
C7 C6 1_555 1_555
H5 C7 1_555 1_555
C8 C7 1_555 1_555
H6 C8 1_555 1_555
C9 C4 1_555 1_555
H7 C9 1_555 1_555
C10 O2 1_555 1_555
H8 C10 1_555 1_555
H9 C10 1_555 1_555
H10 C10 1_555 1_555
C11 N1 1_555 1_555
H11 C11 1_555 1_555
H12 C11 1_555 1_555
C12 C11 1_555 1_555
C13 C12 1_555 1_555
H13 C13 1_555 1_555
C14 C13 1_555 1_555
C15 O3 1_555 1_555
H14 C15 1_555 1_555
H15 C15 1_555 1_555
C16 O4 1_555 1_555
C17 C16 1_555 1_555
H16 C17 1_555 1_555
C18 C12 1_555 1_555
H17 C18 1_555 1_555
C2 C3 1_555 1_555
C8 C9 1_555 1_555
C14 C16 1_555 1_555
C17 C18 1_555 1_555

#END
