
#######################################################################
#
#                 Cambridge Crystallographic Data Centre
#                                CCDC 
#
#######################################################################
#
# If this CIF has been generated from an entry in the Cambridge 
# Structural Database, then it will include bibliographic, chemical, 
# crystal, experimental, refinement or atomic coordinate data resulting 
# from the CCDC's data processing and validation procedures.
#
#######################################################################

data_YAGWIP
_chemical_formula_moiety         'C20 H17 N1 O4'
_chemical_name_systematic        
'dimethyl 2,5-diphenyl-1H-pyrrole-3,4-dicarboxylate'
_symmetry_cell_setting           monoclinic
_symmetry_space_group_name_H-M   'P 21/c'
_symmetry_Int_Tables_number      14
_space_group_name_Hall           '-P 2ybc'
loop_
_symmetry_equiv_pos_site_id
_symmetry_equiv_pos_as_xyz
1 x,y,z
2 -x,1/2+y,1/2-z
3 -x,-y,-z
4 x,1/2-y,1/2+z
_cell_length_a                   13.9835(19)
_cell_length_b                   9.8343(13)
_cell_length_c                   13.1233(17)
_cell_angle_alpha                90
_cell_angle_beta                 100.670(2)
_cell_angle_gamma                90
_cell_volume                     1773.49
_exptl_crystal_colour            colorless
_exptl_crystal_description       block
_cell_formula_units_Z            4
loop_
_atom_site_label
_atom_site_type_symbol
_atom_site_fract_x
_atom_site_fract_y
_atom_site_fract_z
N1 N 0.71650(8) 0.16117(11) 0.25601(8)
H1 H 0.6964 0.1337 0.3106
O1 O 0.87246(9) 0.00767(11) 0.02961(9)
O2 O 0.86677(7) 0.22727(10) -0.01403(8)
O3 O 0.69647(8) 0.41895(11) -0.03158(7)
O4 O 0.79670(10) 0.50734(11) 0.10376(8)
C1 C 0.92247(13) 0.19758(19) -0.09356(13)
H2 H 0.9808 0.1498 -0.0635
H3 H 0.9393 0.2810 -0.1238
H4 H 0.8844 0.1422 -0.1462
C2 C 0.84667(10) 0.12146(14) 0.04271(10)
C3 C 0.78939(9) 0.16450(13) 0.12038(9)
C4 C 0.77343(9) 0.08681(13) 0.20358(10)
C5 C 0.81151(10) -0.04707(13) 0.24281(10)
C6 C 0.91151(11) -0.06960(15) 0.26414(11)
H5 H 0.9538 -0.0020 0.2502
C7 C 0.94811(13) -0.19171(18) 0.30582(13)
H6 H 1.0150 -0.2058 0.3199
C8 C 0.88683(15) -0.29250(16) 0.32666(13)
H7 H 0.9121 -0.3743 0.3554
C9 C 0.78801(15) -0.27239(15) 0.30502(13)
H8 H 0.7464 -0.3413 0.3181
C10 C 0.74985(12) -0.14968(15) 0.26365(12)
H9 H 0.6829 -0.1363 0.2499
C11 C 0.57998(11) 0.48205(16) 0.18851(12)
H10 H 0.5769 0.4780 0.1172
C12 C 0.52859(13) 0.58107(19) 0.22996(15)
H11 H 0.4917 0.6438 0.1863
C13 C 0.53145(13) 0.5878(2) 0.33531(15)
H12 H 0.4973 0.6554 0.3629
C14 C 0.58515(12) 0.49397(18) 0.39925(13)
H13 H 0.5865 0.4972 0.4703
C15 C 0.63708(10) 0.39505(15) 0.35869(11)
H14 H 0.6731 0.3320 0.4028
C16 C 0.63646(9) 0.38804(13) 0.25289(10)
C17 C 0.69510(9) 0.28632(13) 0.21031(9)
C18 C 0.74011(9) 0.29111(13) 0.12541(9)
C19 C 0.74083(10) 0.41013(13) 0.05589(10)
C20 C 0.8040(2) 0.6301(2) 0.04369(16)
H15 H 0.8368 0.6095 -0.0126
H16 H 0.8401 0.6978 0.0875
H17 H 0.7399 0.6638 0.0166
loop_
_geom_bond_atom_site_label_1
_geom_bond_atom_site_label_2
_geom_bond_site_symmetry_1
_geom_bond_site_symmetry_2
N1 H1 1_555 1_555
O1 C2 1_555 1_555
O2 C1 1_555 1_555
O3 C19 1_555 1_555
O4 C19 1_555 1_555
C1 H2 1_555 1_555
H3 C1 1_555 1_555
H4 C1 1_555 1_555
C2 O2 1_555 1_555
C3 C2 1_555 1_555
C4 N1 1_555 1_555
C5 C4 1_555 1_555
C6 C5 1_555 1_555
H5 C6 1_555 1_555
C7 C6 1_555 1_555
H6 C7 1_555 1_555
C8 C7 1_555 1_555
H7 C8 1_555 1_555
C9 C8 1_555 1_555
H8 C9 1_555 1_555
C10 C5 1_555 1_555
H9 C10 1_555 1_555
C11 H10 1_555 1_555
C12 C11 1_555 1_555
H11 C12 1_555 1_555
C13 C12 1_555 1_555
H12 C13 1_555 1_555
C14 C13 1_555 1_555
H13 C14 1_555 1_555
C15 C14 1_555 1_555
H14 C15 1_555 1_555
C16 C11 1_555 1_555
C17 N1 1_555 1_555
C18 C3 1_555 1_555
C19 C18 1_555 1_555
C20 O4 1_555 1_555
H15 C20 1_555 1_555
H16 C20 1_555 1_555
H17 C20 1_555 1_555
C3 C4 1_555 1_555
C9 C10 1_555 1_555
C15 C16 1_555 1_555
C16 C17 1_555 1_555
C17 C18 1_555 1_555

#END
