
#######################################################################
#
#                 Cambridge Crystallographic Data Centre
#                                CCDC 
#
#######################################################################
#
# If this CIF has been generated from an entry in the Cambridge 
# Structural Database, then it will include bibliographic, chemical, 
# crystal, experimental, refinement or atomic coordinate data resulting 
# from the CCDC's data processing and validation procedures.
#
#######################################################################

data_YAGXUB
_chemical_formula_moiety         'C18 H11 Cl3 N2 O2'
_chemical_name_systematic        
(E)-4-Chloro-2-([4-(3,5-dichloropyridin-2-yloxy)phenylimino]methyl)phenol
_symmetry_cell_setting           monoclinic
_symmetry_space_group_name_H-M   'P 21/c'
_symmetry_Int_Tables_number      14
_space_group_name_Hall           '-P 2ybc'
loop_
_symmetry_equiv_pos_site_id
_symmetry_equiv_pos_as_xyz
1 x,y,z
2 -x,1/2+y,1/2-z
3 -x,-y,-z
4 x,1/2-y,1/2+z
_cell_length_a                   13.8981(7)
_cell_length_b                   11.7006(8)
_cell_length_c                   10.5034(5)
_cell_angle_alpha                90
_cell_angle_beta                 95.318(5)
_cell_angle_gamma                90
_cell_volume                     1700.67
_exptl_crystal_colour            yellow
_exptl_crystal_description       block
_cell_formula_units_Z            4
loop_
_atom_site_label
_atom_site_type_symbol
_atom_site_fract_x
_atom_site_fract_y
_atom_site_fract_z
Cl1 Cl -0.24721(6) 0.26343(9) 1.31374(10)
Cl2 Cl 0.53771(6) 0.21299(7) 0.55024(6)
Cl3 Cl 0.41754(6) 0.53738(7) 0.20843(6)
O1 O 0.08837(14) 0.54210(18) 1.22171(19)
H1 H 0.1140 0.5196 1.1591
O2 O 0.37377(13) 0.29274(16) 0.67705(16)
N1 N 0.11798(14) 0.40766(18) 1.03385(17)
N2 N 0.32327(15) 0.4354(2) 0.53329(19)
C1 C 0.01103(17) 0.4760(2) 1.2388(2)
C2 C -0.0441(2) 0.5020(3) 1.3378(2)
H2 H -0.0275 0.5646 1.3899
C3 C -0.1226(2) 0.4374(3) 1.3606(3)
H3 H -0.1592 0.4560 1.4274
C4 C -0.14696(18) 0.3448(3) 1.2841(3)
C5 C -0.09479(18) 0.3184(2) 1.1840(2)
H4 H -0.1130 0.2563 1.1320
C6 C -0.01468(16) 0.3832(2) 1.1588(2)
C7 C 0.04132(17) 0.3533(2) 1.0541(2)
H5 H 0.0209 0.2932 1.0004
C8 C 0.17777(16) 0.3761(2) 0.9376(2)
C9 C 0.16860(18) 0.2763(2) 0.8667(2)
H6 H 0.1192 0.2251 0.8796
C10 C 0.23239(19) 0.2524(3) 0.7770(2)
H7 H 0.2258 0.1856 0.7290
C11 C 0.30536(18) 0.3275(2) 0.7592(2)
C12 C 0.31653(19) 0.4262(2) 0.8286(3)
H8 H 0.3665 0.4766 0.8159
C13 C 0.25235(18) 0.4498(2) 0.9179(2)
H9 H 0.2596 0.5167 0.9657
C14 C 0.38386(18) 0.3526(2) 0.5682(2)
C15 C 0.45916(17) 0.3205(2) 0.4973(2)
C16 C 0.47057(17) 0.3767(2) 0.3851(2)
H10 H 0.5199 0.3571 0.3351
C17 C 0.40660(18) 0.4631(2) 0.3490(2)
C18 C 0.33466(19) 0.4902(2) 0.4238(2)
H11 H 0.2921 0.5488 0.3978
loop_
_geom_bond_atom_site_label_1
_geom_bond_atom_site_label_2
_geom_bond_site_symmetry_1
_geom_bond_site_symmetry_2
Cl1 C4 1_555 1_555
Cl2 C15 1_555 1_555
Cl3 C17 1_555 1_555
O1 H1 1_555 1_555
O2 C11 1_555 1_555
N1 C7 1_555 1_555
N2 C14 1_555 1_555
C1 O1 1_555 1_555
C2 C1 1_555 1_555
H2 C2 1_555 1_555
C3 C2 1_555 1_555
H3 C3 1_555 1_555
C4 C3 1_555 1_555
C5 C4 1_555 1_555
H4 C5 1_555 1_555
C6 C1 1_555 1_555
C7 C6 1_555 1_555
H5 C7 1_555 1_555
C8 N1 1_555 1_555
C9 C8 1_555 1_555
H6 C9 1_555 1_555
C10 C9 1_555 1_555
H7 C10 1_555 1_555
C11 C10 1_555 1_555
C12 C11 1_555 1_555
H8 C12 1_555 1_555
C13 C8 1_555 1_555
H9 C13 1_555 1_555
C14 O2 1_555 1_555
C15 C14 1_555 1_555
C16 C15 1_555 1_555
H10 C16 1_555 1_555
C17 C16 1_555 1_555
C18 N2 1_555 1_555
H11 C18 1_555 1_555
C5 C6 1_555 1_555
C12 C13 1_555 1_555
C17 C18 1_555 1_555

#END
