
#######################################################################
#
#                 Cambridge Crystallographic Data Centre
#                                CCDC 
#
#######################################################################
#
# If this CIF has been generated from an entry in the Cambridge 
# Structural Database, then it will include bibliographic, chemical, 
# crystal, experimental, refinement or atomic coordinate data resulting 
# from the CCDC's data processing and validation procedures.
#
#######################################################################

data_YAGZUE
_chemical_formula_moiety         'C16 H16 Cl2 N1 1+,Cl1 1-'
_chemical_name_systematic        
'4-(3,4-dichlorophenyl)-1-phenylbut-3-en-1-aminium chloride'
_symmetry_cell_setting           monoclinic
_symmetry_space_group_name_H-M   'P 21'
_symmetry_Int_Tables_number      4
_space_group_name_Hall           'P 2yb'
loop_
_symmetry_equiv_pos_site_id
_symmetry_equiv_pos_as_xyz
1 x,y,z
2 -x,1/2+y,-z
_cell_length_a                   9.5249(3)
_cell_length_b                   5.8864(2)
_cell_length_c                   14.3094(4)
_cell_angle_alpha                90
_cell_angle_beta                 100.719(3)
_cell_angle_gamma                90
_cell_volume                     788.291
_exptl_crystal_colour            colorless
_exptl_crystal_description       needle
_cell_formula_units_Z            2
loop_
_atom_site_label
_atom_site_type_symbol
_atom_site_fract_x
_atom_site_fract_y
_atom_site_fract_z
Cl1 Cl 0.34797(7) 0.50980(18) 0.39627(5)
Cl2 Cl 1.29911(10) 0.4856(3) 1.00878(7)
Cl3 Cl 1.34550(11) 0.9478(3) 0.90862(9)
N1 N 0.5101(3) 0.5067(7) 0.61036(18)
H1 H 0.5629 0.6178 0.6145
C1 C 0.9116(4) 0.6100(7) 0.8548(2)
C2 C 1.0272(4) 0.5089(9) 0.9149(2)
H2 H 1.0154 0.3688 0.9425
C3 C 1.0641(4) 0.9255(8) 0.8334(2)
H3 H 1.0763 1.0661 0.8064
C4 C 0.9319(4) 0.8195(8) 0.8151(2)
H4 H 0.8557 0.8899 0.7756
C5 C 1.1782(4) 0.8214(7) 0.8921(2)
C6 C 0.7754(4) 0.4842(9) 0.8335(2)
H5 H 0.7798 0.3271 0.8402
C7 C 0.2848(3) 0.3807(7) 0.6562(2)
C8 C 0.4199(3) 0.5190(8) 0.6861(2)
H6 H 0.3924 0.6779 0.6925
C9 C 0.2866(4) 0.1709(8) 0.6141(3)
H7 H 0.3731 0.1085 0.6057
C10 C 0.1544(4) 0.4669(9) 0.6708(2)
H8 H 0.1508 0.6073 0.7000
C11 C 0.5111(4) 0.4432(9) 0.7813(2)
H9 H 0.4563 0.4625 0.8315
H10 H 0.5336 0.2830 0.7778
C12 C 1.1590(4) 0.6150(8) 0.9338(2)
C13 C 0.6471(4) 0.5758(8) 0.8055(2)
H11 H 0.6414 0.7332 0.8007
C14 C 0.1608(4) 0.0512(9) 0.5841(3)
H12 H 0.1633 -0.0888 0.5543
C15 C 0.0333(4) 0.1377(11) 0.5981(3)
H13 H -0.0507 0.0568 0.5780
C16 C 0.0294(4) 0.3429(11) 0.6416(3)
H14 H -0.0573 0.4006 0.6520
H15 H 0.451(4) 0.501(10) 0.546(3)
H16 H 0.556(6) 0.386(11) 0.615(3)
loop_
_geom_bond_atom_site_label_1
_geom_bond_atom_site_label_2
_geom_bond_site_symmetry_1
_geom_bond_site_symmetry_2
Cl2 C12 1_555 1_555
Cl3 C5 1_555 1_555
N1 H1 1_555 1_555
C1 C2 1_555 1_555
C2 H2 1_555 1_555
C3 H3 1_555 1_555
C4 C1 1_555 1_555
H4 C4 1_555 1_555
C5 C3 1_555 1_555
C6 C1 1_555 1_555
H5 C6 1_555 1_555
C7 C8 1_555 1_555
C8 N1 1_555 1_555
H6 C8 1_555 1_555
C9 C7 1_555 1_555
H7 C9 1_555 1_555
C10 C7 1_555 1_555
H8 C10 1_555 1_555
C11 C8 1_555 1_555
H9 C11 1_555 1_555
H10 C11 1_555 1_555
C12 C2 1_555 1_555
C13 C6 1_555 1_555
H11 C13 1_555 1_555
C14 C9 1_555 1_555
H12 C14 1_555 1_555
C15 C14 1_555 1_555
H13 C15 1_555 1_555
C16 C10 1_555 1_555
H14 C16 1_555 1_555
H15 N1 1_555 1_555
H16 N1 1_555 1_555
C3 C4 1_555 1_555
C5 C12 1_555 1_555
C11 C13 1_555 1_555
C15 C16 1_555 1_555

#END
