
#######################################################################
#
#                 Cambridge Crystallographic Data Centre
#                                CCDC 
#
#######################################################################
#
# If this CIF has been generated from an entry in the Cambridge 
# Structural Database, then it will include bibliographic, chemical, 
# crystal, experimental, refinement or atomic coordinate data resulting 
# from the CCDC's data processing and validation procedures.
#
#######################################################################

data_YAHCIW
_chemical_formula_moiety         'C21 H21 N1 O7 S1'
_chemical_name_systematic        
'methyl 3-(3-methoxy-2-(((4-methylphenyl)sulfonyl)oxy)-3-oxopropyl)-1H-indole-2-carboxylate'
_symmetry_cell_setting           monoclinic
_symmetry_space_group_name_H-M   'P 21/n'
_symmetry_Int_Tables_number      14
_space_group_name_Hall           '-P 2yn'
loop_
_symmetry_equiv_pos_site_id
_symmetry_equiv_pos_as_xyz
1 x,y,z
2 1/2-x,1/2+y,1/2-z
3 -x,-y,-z
4 1/2+x,1/2-y,1/2+z
_cell_length_a                   11.7697(4)
_cell_length_b                   14.8198(5)
_cell_length_c                   13.0749(4)
_cell_angle_alpha                90
_cell_angle_beta                 107.4820(10)
_cell_angle_gamma                90
_cell_volume                     2175.25
_exptl_crystal_colour            colorless
_exptl_crystal_description       block
_cell_formula_units_Z            4
loop_
_atom_site_label
_atom_site_type_symbol
_atom_site_fract_x
_atom_site_fract_y
_atom_site_fract_z
S1 S 0.53741(5) 0.15352(4) 0.69873(5)
O1 O 0.45580(17) 0.08069(12) 0.67234(15)
O2 O 0.61050(17) 0.17361(13) 0.63300(14)
O3 O 0.84801(18) 0.07074(16) 0.8327(2)
O4 O 0.91362(17) 0.21189(16) 0.86965(19)
O5 O 0.63739(17) 0.49113(11) 0.96277(16)
O6 O 0.75890(15) 0.38602(10) 0.93198(14)
O7 O 0.61974(13) 0.12868(10) 0.81507(12)
N1 N 0.50248(18) 0.35598(12) 1.02116(15)
H1 H 0.4722 0.4086 1.0224
C1 C 0.2865(3) 0.4967(2) 0.7554(3)
H2 H 0.3250 0.5474 0.7341
H3 H 0.2881 0.5040 0.8288
H4 H 0.2054 0.4933 0.7105
C2 C 0.3513(2) 0.41089(19) 0.7440(2)
C3 C 0.4491(2) 0.41293(18) 0.7066(2)
H5 H 0.4771 0.4681 0.6905
C4 C 0.5054(2) 0.33538(17) 0.6929(2)
H6 H 0.5708 0.3381 0.6671
C5 C 0.46512(19) 0.25266(16) 0.71732(17)
C6 C 0.3695(2) 0.24872(19) 0.7567(2)
H7 H 0.3433 0.1936 0.7750
C7 C 0.3124(2) 0.3282(2) 0.7690(2)
H8 H 0.2467 0.3257 0.7946
C8 C 0.6036(2) 0.33809(14) 0.99294(17)
C9 C 0.62661(19) 0.24657(14) 1.00130(16)
C10 C 0.5338(2) 0.20721(15) 1.03553(17)
C11 C 0.5078(3) 0.11863(17) 1.0595(2)
H9 H 0.5565 0.0709 1.0530
C12 C 0.4102(3) 0.1039(2) 1.0923(3)
H10 H 0.3926 0.0455 1.1089
C13 C 0.3357(3) 0.1751(2) 1.1016(3)
H11 H 0.2692 0.1626 1.1237
C14 C 0.3576(2) 0.26203(19) 1.0794(2)
H12 H 0.3076 0.3089 1.0857
C15 C 0.4576(2) 0.27744(16) 1.04695(18)
C16 C 0.6666(2) 0.41291(16) 0.96180(19)
C17 C 0.8296(3) 0.45586(19) 0.9021(3)
H13 H 0.8934 0.4285 0.8816
H14 H 0.8620 0.4953 0.9621
H15 H 0.7801 0.4900 0.8430
C18 C 0.7291(2) 0.19739(16) 0.98143(17)
H16 H 0.7348 0.1379 1.0135
H17 H 0.8021 0.2295 1.0169
C19 C 0.71884(18) 0.18718(15) 0.86332(17)
H18 H 0.7046 0.2464 0.8285
C20 C 0.8324(2) 0.1473(2) 0.8511(2)
C21 C 1.0324(3) 0.1866(4) 0.8685(4)
H19 H 1.0829 0.2389 0.8824
H20 H 1.0286 0.1621 0.7996
H21 H 1.0643 0.1420 0.9229
loop_
_geom_bond_atom_site_label_1
_geom_bond_atom_site_label_2
_geom_bond_site_symmetry_1
_geom_bond_site_symmetry_2
S1 O1 1_555 1_555
O2 S1 1_555 1_555
O3 C20 1_555 1_555
O4 C20 1_555 1_555
O5 C16 1_555 1_555
O6 C16 1_555 1_555
O7 S1 1_555 1_555
N1 H1 1_555 1_555
C1 H2 1_555 1_555
H3 C1 1_555 1_555
H4 C1 1_555 1_555
C2 C1 1_555 1_555
C3 C2 1_555 1_555
H5 C3 1_555 1_555
C4 C3 1_555 1_555
H6 C4 1_555 1_555
C5 S1 1_555 1_555
C6 C5 1_555 1_555
H7 C6 1_555 1_555
C7 C2 1_555 1_555
H8 C7 1_555 1_555
C8 N1 1_555 1_555
C9 C8 1_555 1_555
C10 C9 1_555 1_555
C11 C10 1_555 1_555
H9 C11 1_555 1_555
C12 C11 1_555 1_555
H10 C12 1_555 1_555
C13 C12 1_555 1_555
H11 C13 1_555 1_555
C14 C13 1_555 1_555
H12 C14 1_555 1_555
C15 N1 1_555 1_555
C16 C8 1_555 1_555
C17 O6 1_555 1_555
H13 C17 1_555 1_555
H14 C17 1_555 1_555
H15 C17 1_555 1_555
C18 C9 1_555 1_555
H16 C18 1_555 1_555
H17 C18 1_555 1_555
C19 O7 1_555 1_555
H18 C19 1_555 1_555
C20 C19 1_555 1_555
C21 O4 1_555 1_555
H19 C21 1_555 1_555
H20 C21 1_555 1_555
H21 C21 1_555 1_555
C4 C5 1_555 1_555
C6 C7 1_555 1_555
C10 C15 1_555 1_555
C14 C15 1_555 1_555
C18 C19 1_555 1_555

#END
