
#######################################################################
#
#                 Cambridge Crystallographic Data Centre
#                                CCDC 
#
#######################################################################
#
# If this CIF has been generated from an entry in the Cambridge 
# Structural Database, then it will include bibliographic, chemical, 
# crystal, experimental, refinement or atomic coordinate data resulting 
# from the CCDC's data processing and validation procedures.
#
#######################################################################

data_YAHHEW
_chemical_formula_moiety         'C18 H15 N1 O3'
_chemical_name_systematic        'Ethyl 3-benzoylindolizine-1-carboxylate'
_symmetry_cell_setting           monoclinic
_symmetry_space_group_name_H-M   'P 21/c'
_symmetry_Int_Tables_number      14
_space_group_name_Hall           '-P 2ybc'
loop_
_symmetry_equiv_pos_site_id
_symmetry_equiv_pos_as_xyz
1 x,y,z
2 -x,1/2+y,1/2-z
3 -x,-y,-z
4 x,1/2-y,1/2+z
_cell_length_a                   10.030(2)
_cell_length_b                   19.223(3)
_cell_length_c                   7.9652(17)
_cell_angle_alpha                90
_cell_angle_beta                 103.073(3)
_cell_angle_gamma                90
_cell_volume                     1495.94
_exptl_crystal_colour            yellow
_exptl_crystal_description       block
_cell_formula_units_Z            4
_exptl_crystal_recrystallization_method 'ethyl acetate'
loop_
_atom_site_label
_atom_site_type_symbol
_atom_site_fract_x
_atom_site_fract_y
_atom_site_fract_z
C1 C 0.3367(2) 0.08044(12) 0.8614(3)
H1 H 0.4005 0.0494 0.9231
C2 C 0.3057(3) 0.13943(12) 0.9370(3)
H2 H 0.3483 0.1490 1.0509
C3 C 0.2092(3) 0.18631(13) 0.8436(3)
H3 H 0.1880 0.2267 0.8963
C4 C 0.1464(2) 0.17291(11) 0.6764(3)
H4 H 0.0825 0.2041 0.6154
C5 C 0.1782(2) 0.11209(10) 0.5963(3)
C6 C 0.1348(2) 0.08293(10) 0.4309(3)
C7 C 0.2020(2) 0.02004(11) 0.4333(3)
H5 H 0.1906 -0.0104 0.3403
C8 C 0.2880(2) 0.00854(10) 0.5917(3)
C9 C 0.3887(2) -0.04547(11) 0.6464(3)
C10 C 0.3774(2) -0.10994(10) 0.5398(3)
C11 C 0.4968(3) -0.13982(12) 0.5151(3)
H6 H 0.5808 -0.1192 0.5626
C12 C 0.4918(3) -0.20014(12) 0.4201(4)
H7 H 0.5722 -0.2191 0.4002
C13 C 0.3690(3) -0.23235(13) 0.3550(3)
H8 H 0.3662 -0.2732 0.2917
C14 C 0.2502(3) -0.20418(12) 0.3833(3)
H9 H 0.1671 -0.2265 0.3414
C15 C 0.2542(2) -0.14261(11) 0.4742(3)
H10 H 0.1734 -0.1231 0.4912
C16 C 0.0427(2) 0.11668(12) 0.2879(3)
C17 C -0.0756(3) 0.10378(13) -0.0047(3)
H11 H -0.0512 0.0856 -0.1073
H12 H -0.0680 0.1541 -0.0066
C18 C -0.2186(3) 0.08400(16) -0.0048(4)
H13 H -0.2252 0.0343 0.0015
H14 H -0.2785 0.1003 -0.1089
H15 H -0.2446 0.1046 0.0928
N1 N 0.27358(18) 0.06663(9) 0.6934(2)
O1 O 0.48475(18) -0.03908(9) 0.7719(2)
O2 O 0.01794(18) 0.07657(8) 0.1471(2)
O3 O -0.00443(17) 0.17415(8) 0.2920(2)
loop_
_geom_bond_atom_site_label_1
_geom_bond_atom_site_label_2
_geom_bond_site_symmetry_1
_geom_bond_site_symmetry_2
C1 H1 1_555 1_555
C2 C1 1_555 1_555
H2 C2 1_555 1_555
C3 C2 1_555 1_555
H3 C3 1_555 1_555
C4 C3 1_555 1_555
H4 C4 1_555 1_555
C5 C4 1_555 1_555
C6 C5 1_555 1_555
C7 C6 1_555 1_555
H5 C7 1_555 1_555
C8 C7 1_555 1_555
C9 C8 1_555 1_555
C10 C9 1_555 1_555
C11 C10 1_555 1_555
H6 C11 1_555 1_555
C12 C11 1_555 1_555
H7 C12 1_555 1_555
C13 C12 1_555 1_555
H8 C13 1_555 1_555
C14 C13 1_555 1_555
H9 C14 1_555 1_555
C15 C10 1_555 1_555
H10 C15 1_555 1_555
C16 C6 1_555 1_555
C17 H11 1_555 1_555
H12 C17 1_555 1_555
C18 C17 1_555 1_555
H13 C18 1_555 1_555
H14 C18 1_555 1_555
H15 C18 1_555 1_555
N1 C1 1_555 1_555
O1 C9 1_555 1_555
O2 C16 1_555 1_555
O3 C16 1_555 1_555
C5 N1 1_555 1_555
C8 N1 1_555 1_555
C14 C15 1_555 1_555
C17 O2 1_555 1_555

#END
