
#######################################################################
#
#                 Cambridge Crystallographic Data Centre
#                                CCDC 
#
#######################################################################
#
# If this CIF has been generated from an entry in the Cambridge 
# Structural Database, then it will include bibliographic, chemical, 
# crystal, experimental, refinement or atomic coordinate data resulting 
# from the CCDC's data processing and validation procedures.
#
#######################################################################

data_YAHKIB
_chemical_formula_moiety         'C38 H56 N2 Na2 O12 S2'
_chemical_name_systematic        
(15,17-Dimethyl-16,18-dimethoxy-3,6,9,12-tetraoxabicyclo(12.3.1)-octadeca-1(18),14,16-triene-O,O',O'',O''')-isothiocyanato-sodium
_symmetry_cell_setting           monoclinic
_symmetry_space_group_name_H-M   'P 21/c'
_symmetry_Int_Tables_number      14
_space_group_name_Hall           '-P 2ybc'
loop_
_symmetry_equiv_pos_site_id
_symmetry_equiv_pos_as_xyz
1 x,y,z
2 -x,1/2+y,1/2-z
3 -x,-y,-z
4 x,1/2-y,1/2+z
_cell_length_a                   10.182(4)
_cell_length_b                   8.601(1)
_cell_length_c                   25.631(3)
_cell_angle_alpha                90
_cell_angle_beta                 97.29
_cell_angle_gamma                90
_cell_volume                     2226.5
_exptl_crystal_colour            yellow
_cell_formula_units_Z            2
loop_
_atom_site_label
_atom_site_type_symbol
_atom_site_fract_x
_atom_site_fract_y
_atom_site_fract_z
Na1 Na 0.3691(1) 0.5124(2) 0.4456(1)
S1 S 0.2798(2) 0.8107(2) 0.5942(1)
C1 C 0.3548(4) 0.6794(6) 0.5634(2)
N1 N 0.4086(4) 0.5879(6) 0.5413(1)
C2 C 0.0989(4) 0.7270(5) 0.4503(2)
O1 O 0.1372(3) 0.5677(3) 0.4556(1)
C3 C 0.0429(4) 0.4596(5) 0.4316(2)
C4 C 0.1075(5) 0.3024(6) 0.4374(2)
O2 O 0.2257(3) 0.2965(3) 0.4133(1)
C5 C 0.2023(5) 0.2774(6) 0.3585(2)
C6 C 0.3292(5) 0.2944(5) 0.3364(2)
O3 O 0.3746(3) 0.4518(3) 0.3441(1)
C7 C 0.4847(4) 0.4808(6) 0.3163(2)
C8 C 0.5233(4) 0.6456(6) 0.3223(2)
O4 O 0.4310(3) 0.7432(4) 0.2917(1)
C9 C 0.3943(4) 0.8795(5) 0.3171(2)
C10 C 0.2353(3) 0.8144(4) 0.3814(1)
C11 C 0.1092(3) 0.7883(4) 0.3959(1)
C12 C -0.0011(4) 0.8177(4) 0.3584(2)
C13 C 0.0204(4) 0.8690(4) 0.3091(2)
C14 C 0.1461(4) 0.8922(4) 0.2944(1)
C15 C 0.2561(4) 0.8633(4) 0.3322(1)
C16 C 0.3947(5) 0.9128(6) 0.4497(2)
O5 O 0.3432(2) 0.7804(3) 0.4185(1)
C17 C -0.1406(4) 0.7928(6) 0.3704(2)
C18 C -0.1365(6) 1.0478(6) 0.2701(2)
O6 O -0.0888(3) 0.8909(3) 0.2710(1)
C19 C 0.1614(5) 0.9447(6) 0.2395(2)
H2 H 0.0738(5) 0.9586(6) 0.2185(2)
H3 H 0.2104(5) 1.0444(6) 0.2413(2)
H4 H 0.2123(5) 0.8648(6) 0.2229(2)
H5 H 0.4713(5) 0.8804(6) 0.4751(2)
H6 H 0.3238(5) 0.9531(6) 0.4692(2)
H7 H 0.4225(5) 0.9954(6) 0.4266(2)
H8 H -0.2040(4) 0.8198(6) 0.3392(2)
H9 H -0.1570(4) 0.8596(6) 0.4004(2)
H10 H -0.1523(4) 0.6824(6) 0.3797(2)
H11 H -0.2134(6) 1.0591(6) 0.2425(2)
H12 H -0.1636(6) 1.0738(6) 0.3048(2)
H13 H -0.0649(6) 1.1189(6) 0.2625(2)
H14 H 0.4564(4) 0.8940(5) 0.3498(2)
H15 H 0.3992(4) 0.9705(5) 0.2939(2)
H16 H 0.5232(4) 0.6737(6) 0.3598(2)
H17 H 0.6128(4) 0.6621(6) 0.3122(2)
H18 H 0.5596(4) 0.4131(6) 0.3302(2)
H19 H 0.4595(4) 0.4587(6) 0.2784(2)
H20 H 0.3944(5) 0.2226(5) 0.3555(2)
H21 H 0.3186(5) 0.2694(5) 0.2984(2)
H22 H 0.1408(5) 0.3596(6) 0.3433(2)
H23 H 0.1628(5) 0.1740(6) 0.3496(2)
H24 H 0.1304(5) 0.2833(6) 0.4756(2)
H25 H 0.0451(5) 0.2214(6) 0.4221(2)
H26 H -0.0394(4) 0.4633(5) 0.4484(2)
H27 H 0.0222(4) 0.4836(5) 0.3937(2)
H28 H 0.1578(4) 0.7889(5) 0.4761(2)
H29 H 0.0062(4) 0.7378(5) 0.4576(2)
N1B N 0.5914(4) 0.4121(6) 0.4587(1)
Na1B Na 0.6309(1) 0.4876(2) 0.5544(1)
C1B C 0.6452(4) 0.3206(6) 0.4366(2)
O1B O 0.8628(3) 0.4323(3) 0.5444(1)
O2B O 0.7743(3) 0.7035(3) 0.5867(1)
O3B O 0.6254(3) 0.5482(3) 0.6559(1)
O5B O 0.6568(2) 0.2196(3) 0.5815(1)
S1B S 0.7202(2) 0.1893(2) 0.4058(1)
C2B C 0.9011(4) 0.2730(5) 0.5497(2)
C3B C 0.9571(4) 0.5404(5) 0.5684(2)
C4B C 0.8925(5) 0.6976(6) 0.5626(2)
C5B C 0.7977(5) 0.7226(6) 0.6415(2)
C6B C 0.6708(5) 0.7056(5) 0.6636(2)
C7B C 0.5153(4) 0.5192(6) 0.6837(2)
C10B C 0.7647(3) 0.1856(4) 0.6186(1)
C16B C 0.6053(5) 0.0872(6) 0.5503(2)
C11B C 0.8908(3) 0.2117(4) 0.6041(1)
H28B H 0.8422(4) 0.2111(5) 0.5239(2)
H29B H 0.9938(4) 0.2622(5) 0.5424(2)
H26B H 1.0394(4) 0.5367(5) 0.5516(2)
H27B H 0.9778(4) 0.5164(5) 0.6063(2)
H24B H 0.8696(5) 0.7167(6) 0.5244(2)
H25B H 0.9549(5) 0.7786(6) 0.5779(2)
H22B H 0.8592(5) 0.6404(6) 0.6567(2)
H23B H 0.8372(5) 0.8260(6) 0.6504(2)
H20B H 0.6056(5) 0.7774(5) 0.6445(2)
H21B H 0.6814(5) 0.7306(5) 0.7016(2)
C8B C 0.4767(4) 0.3544(6) 0.6777(2)
H18B H 0.4404(4) 0.5869(6) 0.6698(2)
H19B H 0.5405(4) 0.5413(6) 0.7216(2)
C15B C 0.7439(4) 0.1367(4) 0.6678(1)
H5B H 0.5287(5) 0.1196(6) 0.5249(2)
H6B H 0.6762(5) 0.0469(6) 0.5308(2)
H7B H 0.5775(5) 0.0046(6) 0.5734(2)
C12B C 1.0011(4) 0.1823(4) 0.6416(2)
O4B O 0.5690(3) 0.2568(4) 0.7083(1)
H16B H 0.4768(4) 0.3263(6) 0.6402(2)
H17B H 0.3872(4) 0.3379(6) 0.6878(2)
C9B C 0.6057(4) 0.1205(5) 0.6829(2)
C14B C 0.8539(4) 0.1078(4) 0.7056(1)
C13B C 0.9796(4) 0.1310(4) 0.6909(2)
C17B C 1.1406(4) 0.2072(6) 0.6296(2)
H14B H 0.5436(4) 0.1060(5) 0.6502(2)
H15B H 0.6008(4) 0.0295(5) 0.7061(2)
C19B C 0.8386(5) 0.0553(6) 0.7605(2)
O6B O 1.0888(3) 0.1091(3) 0.7290(1)
H8B H 1.2040(4) 0.1802(6) 0.6608(2)
H9B H 1.1570(4) 0.1404(6) 0.5996(2)
H10B H 1.1523(4) 0.3176(6) 0.6203(2)
H2B H 0.9262(5) 0.0414(6) 0.7815(2)
H3B H 0.7896(5) -0.0444(6) 0.7587(2)
H4B H 0.7877(5) 0.1352(6) 0.7771(2)
C18B C 1.1365(6) -0.0478(6) 0.7299(2)
H11B H 1.2134(6) -0.0591(6) 0.7575(2)
H12B H 1.1636(6) -0.0738(6) 0.6952(2)
H13B H 1.0649(6) -0.1189(6) 0.7375(2)
H1? H 0.0000 0.0000 0.0000
loop_
_geom_bond_atom_site_label_1
_geom_bond_atom_site_label_2
_geom_bond_site_symmetry_1
_geom_bond_site_symmetry_2
Na1 N1 1_555 1_555
S1 C1 1_555 1_555
C1 N1 1_555 1_555
N1 Na1B 1_555 1_555
C2 O1 1_555 1_555
O1 Na1 1_555 1_555
C3 O1 1_555 1_555
C4 C3 1_555 1_555
O2 Na1 1_555 1_555
C5 O2 1_555 1_555
C6 C5 1_555 1_555
O3 Na1 1_555 1_555
C7 O3 1_555 1_555
C8 C7 1_555 1_555
O4 C8 1_555 1_555
C9 O4 1_555 1_555
C10 C11 1_555 1_555
C11 C2 1_555 1_555
C12 C11 1_555 1_555
C13 C12 1_555 1_555
C14 C13 1_555 1_555
C15 C9 1_555 1_555
C16 O5 1_555 1_555
O5 Na1 1_555 1_555
C17 C12 1_555 1_555
C18 O6 1_555 1_555
O6 C13 1_555 1_555
C19 C14 1_555 1_555
H2 C19 1_555 1_555
H3 C19 1_555 1_555
H4 C19 1_555 1_555
H5 C16 1_555 1_555
H6 C16 1_555 1_555
H7 C16 1_555 1_555
H8 C17 1_555 1_555
H9 C17 1_555 1_555
H10 C17 1_555 1_555
H11 C18 1_555 1_555
H12 C18 1_555 1_555
H13 C18 1_555 1_555
H14 C9 1_555 1_555
H15 C9 1_555 1_555
H16 C8 1_555 1_555
H17 C8 1_555 1_555
H18 C7 1_555 1_555
H19 C7 1_555 1_555
H20 C6 1_555 1_555
H21 C6 1_555 1_555
H22 C5 1_555 1_555
H23 C5 1_555 1_555
H24 C4 1_555 1_555
H25 C4 1_555 1_555
H26 C3 1_555 1_555
H27 C3 1_555 1_555
H28 C2 1_555 1_555
H29 C2 1_555 1_555
N1B Na1 1_555 1_555
Na1B N1B 1_555 1_555
C1B N1B 1_555 1_555
O1B Na1B 1_555 1_555
O2B Na1B 1_555 1_555
O3B Na1B 1_555 1_555
O5B Na1B 1_555 1_555
S1B C1B 1_555 1_555
C2B O1B 1_555 1_555
C3B O1B 1_555 1_555
C4B O2B 1_555 1_555
C5B O2B 1_555 1_555
C6B O3B 1_555 1_555
C7B O3B 1_555 1_555
C10B O5B 1_555 1_555
C16B O5B 1_555 1_555
C11B C2B 1_555 1_555
H28B C2B 1_555 1_555
H29B C2B 1_555 1_555
H26B C3B 1_555 1_555
H27B C3B 1_555 1_555
H24B C4B 1_555 1_555
H25B C4B 1_555 1_555
H22B C5B 1_555 1_555
H23B C5B 1_555 1_555
H20B C6B 1_555 1_555
H21B C6B 1_555 1_555
C8B C7B 1_555 1_555
H18B C7B 1_555 1_555
H19B C7B 1_555 1_555
C15B C10B 1_555 1_555
H5B C16B 1_555 1_555
H6B C16B 1_555 1_555
H7B C16B 1_555 1_555
C12B C11B 1_555 1_555
O4B C8B 1_555 1_555
H16B C8B 1_555 1_555
H17B C8B 1_555 1_555
C9B C15B 1_555 1_555
C14B C15B 1_555 1_555
C13B C12B 1_555 1_555
C17B C12B 1_555 1_555
H14B C9B 1_555 1_555
H15B C9B 1_555 1_555
C19B C14B 1_555 1_555
O6B C13B 1_555 1_555
H8B C17B 1_555 1_555
H9B C17B 1_555 1_555
H10B C17B 1_555 1_555
H2B C19B 1_555 1_555
H3B C19B 1_555 1_555
H4B C19B 1_555 1_555
C18B O6B 1_555 1_555
H11B C18B 1_555 1_555
H12B C18B 1_555 1_555
H13B C18B 1_555 1_555
C4 O2 1_555 1_555
C6 O3 1_555 1_555
C10 C15 1_555 1_555
C10 O5 1_555 1_555
C14 C15 1_555 1_555
C3B C4B 1_555 1_555
C5B C6B 1_555 1_555
C10B C11B 1_555 1_555
O4B C9B 1_555 1_555
C14B C13B 1_555 1_555

#END
