
#######################################################################
#
#                 Cambridge Crystallographic Data Centre
#                                CCDC 
#
#######################################################################
#
# If this CIF has been generated from an entry in the Cambridge 
# Structural Database, then it will include bibliographic, chemical, 
# crystal, experimental, refinement or atomic coordinate data resulting 
# from the CCDC's data processing and validation procedures.
#
#######################################################################

data_YAHKID
_chemical_name_common            1,2-bis(2,4,6-trinitrophenyl)ethane
_chemical_formula_moiety         'C14 H8 N6 O12'
_chemical_name_systematic        
1,1'-Ethane-1,2-diylbis(2,4,6-trinitrobenzene)
_symmetry_cell_setting           monoclinic
_symmetry_space_group_name_H-M   'P 21/c'
_symmetry_Int_Tables_number      14
_space_group_name_Hall           '-P 2ybc'
loop_
_symmetry_equiv_pos_site_id
_symmetry_equiv_pos_as_xyz
1 x,y,z
2 -x,1/2+y,1/2-z
3 -x,-y,-z
4 x,1/2-y,1/2+z
_cell_length_a                   5.8468(5)
_cell_length_b                   8.1253(11)
_cell_length_c                   17.977(2)
_cell_angle_alpha                90
_cell_angle_beta                 97.154(8)
_cell_angle_gamma                90
_cell_volume                     847.385
_exptl_crystal_colour            colorless
_exptl_crystal_description       prism
_cell_formula_units_Z            2
loop_
_atom_site_label
_atom_site_type_symbol
_atom_site_fract_x
_atom_site_fract_y
_atom_site_fract_z
N1 N 0.788(2) 0.4687(13) 0.1645(5)
O1 O 0.8771(5) 0.5628(3) 0.12216(13)
O2 O 0.815(3) 0.489(2) 0.2328(6)
O3 O 0.72410(17) -0.11091(14) 0.26187(5)
O4 O 0.48405(19) -0.23368(11) 0.17726(5)
N2 N 0.15225(18) 0.19328(12) 0.00293(5)
O5 O -0.0105(3) 0.2748(3) 0.01446(10)
O6 O 0.1555(3) 0.0949(3) -0.04988(9)
N3 N 0.59258(19) -0.11271(15) 0.20272(6)
C1 C 0.4345(2) 0.49440(15) 0.03484(6)
H1 H 0.4797 0.5885 0.0685
H2 H 0.2668 0.5029 0.0185
C2 C 0.4834(2) 0.33521(15) 0.07792(6)
C3 C 0.6575(2) 0.31668(17) 0.13844(6)
C4 C 0.6978(2) 0.17462(17) 0.18056(6)
H3 H 0.8168 0.1692 0.2216
C5 C 0.5584(2) 0.04194(16) 0.16040(7)
C6 C 0.3810(2) 0.04812(17) 0.10198(7)
H4 H 0.2850 -0.0445 0.0892
C7 C 0.3490(2) 0.19428(16) 0.06306(6)
N1B N 0.212(2) 0.5313(13) -0.1645(5)
O1B O 0.1229(5) 0.4372(3) -0.12216(13)
O2B O 0.185(3) 0.511(2) -0.2328(6)
O3B O 0.27590(17) 1.11091(14) -0.26187(5)
O4B O 0.51595(19) 1.23368(11) -0.17726(5)
N2B N 0.84775(18) 0.80672(12) -0.00293(5)
O5B O 1.0105(3) 0.7252(3) -0.01446(10)
O6B O 0.8445(3) 0.9051(3) 0.04988(9)
N3B N 0.40742(19) 1.11271(15) -0.20272(6)
C1B C 0.5655(2) 0.50560(15) -0.03484(6)
H1B H 0.5203 0.4115 -0.0685
H2B H 0.7332 0.4971 -0.0185
C2B C 0.5166(2) 0.66479(15) -0.07792(6)
C3B C 0.3425(2) 0.68332(17) -0.13844(6)
C4B C 0.3022(2) 0.82538(17) -0.18056(6)
H3B H 0.1832 0.8308 -0.2216
C5B C 0.4416(2) 0.95806(16) -0.16040(7)
C6B C 0.6190(2) 0.95188(17) -0.10198(7)
H4B H 0.7150 1.0445 -0.0892
C7B C 0.6510(2) 0.80572(16) -0.06306(6)
N4? N 0.824(2) 0.4472(14) 0.1631(5)
O7? O 0.9430(5) 0.4872(4) 0.11433(14)
O8? O 0.822(3) 0.503(2) 0.2263(7)
O9? O -0.0438(3) 0.1733(4) 0.01768(11)
O10? O 0.2022(4) 0.2111(3) -0.06168(10)
loop_
_geom_bond_atom_site_label_1
_geom_bond_atom_site_label_2
_geom_bond_site_symmetry_1
_geom_bond_site_symmetry_2
N1 O1 1_555 1_555
O2 N1 1_555 1_555
O3 N3 1_555 1_555
O4 N3 1_555 1_555
N2 O5 1_555 1_555
O6 N2 1_555 1_555
N3 C5 1_555 1_555
C1 H1 1_555 1_555
H2 C1 1_555 1_555
C2 C1 1_555 1_555
C3 N1 1_555 1_555
C4 C3 1_555 1_555
H3 C4 1_555 1_555
C5 C4 1_555 1_555
C6 C5 1_555 1_555
H4 C6 1_555 1_555
C7 N2 1_555 1_555
N1B O1B 1_555 1_555
O2B N1B 1_555 1_555
O3B N3B 1_555 1_555
O4B N3B 1_555 1_555
N2B O5B 1_555 1_555
O6B N2B 1_555 1_555
N3B C5B 1_555 1_555
C1B C1 1_555 1_555
H1B C1B 1_555 1_555
H2B C1B 1_555 1_555
C2B C1B 1_555 1_555
C3B N1B 1_555 1_555
C4B C3B 1_555 1_555
H3B C4B 1_555 1_555
C5B C4B 1_555 1_555
C6B C5B 1_555 1_555
H4B C6B 1_555 1_555
C7B N2B 1_555 1_555
C2 C3 1_555 1_555
C2 C7 1_555 1_555
C6 C7 1_555 1_555
C2B C3B 1_555 1_555
C2B C7B 1_555 1_555
C6B C7B 1_555 1_555

#END
