
#######################################################################
#
#                 Cambridge Crystallographic Data Centre
#                                CCDC 
#
#######################################################################
#
# If this CIF has been generated from an entry in the Cambridge 
# Structural Database, then it will include bibliographic, chemical, 
# crystal, experimental, refinement or atomic coordinate data resulting 
# from the CCDC's data processing and validation procedures.
#
#######################################################################

data_YAHMAX
_chemical_formula_moiety         'C18 H16 N2 O3'
_chemical_name_systematic        
'(RS)-2-Oxo-4-(1-phenylethylamino)-1,2-dihydroquinoline-3-carboxylic acid'
_symmetry_cell_setting           monoclinic
_symmetry_space_group_name_H-M   'P 21/n'
_symmetry_Int_Tables_number      14
_space_group_name_Hall           '-P 2yn'
loop_
_symmetry_equiv_pos_site_id
_symmetry_equiv_pos_as_xyz
1 x,y,z
2 1/2-x,1/2+y,1/2-z
3 -x,-y,-z
4 1/2+x,1/2-y,1/2+z
_cell_length_a                   14.612(2)
_cell_length_b                   5.9750(6)
_cell_length_c                   18.014(2)
_cell_angle_alpha                90
_cell_angle_beta                 110.814(14)
_cell_angle_gamma                90
_cell_volume                     1470.1
_exptl_crystal_colour            colorless
_exptl_crystal_description       needle
_cell_formula_units_Z            4
loop_
_atom_site_label
_atom_site_type_symbol
_atom_site_fract_x
_atom_site_fract_y
_atom_site_fract_z
N1 N 0.54636(9) 0.7456(2) -0.03766(8)
H1 H 0.4891(13) 0.631(2) -0.0545(9)
N2 N 0.77647(10) 1.19200(19) 0.02901(9)
H2 H 0.8164(9) 1.153(2) 0.0800(9)
O1 O 0.61318(7) 0.55549(16) 0.07595(6)
O2 O 0.84379(7) 0.97876(16) 0.16236(6)
O3 O 0.76182(8) 0.6926(2) 0.18244(7)
H3 H 0.7056(15) 0.610(3) 0.1530(12)
C1 C 0.54064(10) 0.9229(2) -0.08811(8)
C2 C 0.45947(10) 0.9355(2) -0.15744(9)
H4 H 0.4131 0.8214 -0.1703
C3 C 0.44735(11) 1.1146(2) -0.20685(9)
H5 H 0.3921 1.1251 -0.2527
C4 C 0.51788(11) 1.2804(2) -0.18817(9)
H6 H 0.5097 1.4034 -0.2216
C5 C 0.59936(10) 1.2656(2) -0.12129(9)
H7 H 0.6463 1.3781 -0.1104
C6 C 0.61435(10) 1.0856(2) -0.06863(8)
C7 C 0.69759(10) 1.0588(2) 0.00556(8)
C8 C 0.69570(10) 0.8825(2) 0.05766(9)
C9 C 0.61762(11) 0.7222(2) 0.03378(10)
C10 C 0.77197(12) 0.8569(3) 0.13643(10)
C11 C 0.80766(10) 1.3854(2) -0.00571(9)
H8 H 0.7558 1.4987 -0.0191
C12 C 0.89830(10) 1.4790(2) 0.05891(8)
H9 H 0.9503 1.3712 0.0714
H10 H 0.8833 1.5102 0.1056
H11 H 0.9183 1.6145 0.0404
C13 C 0.83092(10) 1.3343(2) -0.07889(9)
C14 C 0.81570(10) 1.4954(2) -0.13665(10)
H12 H 0.7851 1.6288 -0.1324
C15 C 0.84497(12) 1.4625(3) -0.20070(10)
H13 H 0.8341 1.5733 -0.2392
C16 C 0.88995(12) 1.2670(3) -0.20764(11)
H14 H 0.9103 1.2443 -0.2504
C17 C 0.90463(12) 1.1050(3) -0.15065(12)
H15 H 0.9351 0.9718 -0.1552
C18 C 0.87513(11) 1.1362(2) -0.08708(10)
H16 H 0.8849 1.0236 -0.0494
loop_
_geom_bond_atom_site_label_1
_geom_bond_atom_site_label_2
_geom_bond_site_symmetry_1
_geom_bond_site_symmetry_2
N1 H1 1_555 1_555
N2 H2 1_555 1_555
O1 C9 1_555 1_555
O2 C10 1_555 1_555
O3 H3 1_555 1_555
C1 N1 1_555 1_555
C2 C1 1_555 1_555
H4 C2 1_555 1_555
C3 C2 1_555 1_555
H5 C3 1_555 1_555
C4 C3 1_555 1_555
H6 C4 1_555 1_555
C5 C4 1_555 1_555
H7 C5 1_555 1_555
C6 C1 1_555 1_555
C7 N2 1_555 1_555
C8 C7 1_555 1_555
C9 N1 1_555 1_555
C10 O3 1_555 1_555
C11 N2 1_555 1_555
H8 C11 1_555 1_555
C12 C11 1_555 1_555
H9 C12 1_555 1_555
H10 C12 1_555 1_555
H11 C12 1_555 1_555
C13 C11 1_555 1_555
C14 C13 1_555 1_555
H12 C14 1_555 1_555
C15 C14 1_555 1_555
H13 C15 1_555 1_555
C16 C15 1_555 1_555
H14 C16 1_555 1_555
C17 C16 1_555 1_555
H15 C17 1_555 1_555
C18 C13 1_555 1_555
H16 C18 1_555 1_555
C5 C6 1_555 1_555
C6 C7 1_555 1_555
C8 C9 1_555 1_555
C8 C10 1_555 1_555
C17 C18 1_555 1_555

#END
