
#######################################################################
#
#                 Cambridge Crystallographic Data Centre
#                                CCDC 
#
#######################################################################
#
# If this CIF has been generated from an entry in the Cambridge 
# Structural Database, then it will include bibliographic, chemical, 
# crystal, experimental, refinement or atomic coordinate data resulting 
# from the CCDC's data processing and validation procedures.
#
#######################################################################

data_YAHMEB
_chemical_formula_moiety         'C10 H6 O4 S2'
_chemical_name_systematic        
(Furan-2-yl)[(furan-2-yl)carbonyldisulfanyl]methanone
_symmetry_cell_setting           orthorhombic
_symmetry_space_group_name_H-M   'P c c n'
_symmetry_Int_Tables_number      56
_space_group_name_Hall           '-P 2ab 2ac'
loop_
_symmetry_equiv_pos_site_id
_symmetry_equiv_pos_as_xyz
1 x,y,z
2 1/2-x,1/2-y,z
3 -x,1/2+y,1/2-z
4 1/2+x,-y,1/2-z
5 -x,-y,-z
6 1/2+x,1/2+y,-z
7 x,1/2-y,1/2+z
8 1/2-x,y,1/2+z
_cell_length_a                   13.6900(13)
_cell_length_b                   7.9611(7)
_cell_length_c                   9.9042(10)
_cell_angle_alpha                90
_cell_angle_beta                 90
_cell_angle_gamma                90
_cell_volume                     1079.43
_exptl_crystal_colour            colorless
_exptl_crystal_description       block
_cell_formula_units_Z            4
loop_
_atom_site_label
_atom_site_type_symbol
_atom_site_fract_x
_atom_site_fract_y
_atom_site_fract_z
S1 S 0.32229(4) 0.22302(9) 0.54908(7)
O1 O 0.51977(13) 0.2344(2) 0.46510(19)
O2 O 0.30932(12) 0.4503(2) 0.35136(19)
C1 C 0.36270(17) 0.3584(3) 0.4132(2)
C2 C 0.5256(2) 0.4169(3) 0.2957(3)
H1 H 0.5075 0.4955 0.2308
C3 C 0.46678(16) 0.3429(3) 0.3863(2)
C4 C 0.6204(2) 0.3519(4) 0.3184(3)
H2 H 0.6769 0.3799 0.2713
C5 C 0.6134(2) 0.2437(4) 0.4195(3)
H3 H 0.6654 0.1823 0.4545
S1A S 0.17771(4) 0.27698(9) 0.54908(7)
O1A O -0.01977(13) 0.2656(2) 0.46510(19)
O2A O 0.19068(12) 0.0497(2) 0.35136(19)
C1A C 0.13730(17) 0.1416(3) 0.4132(2)
C2A C -0.0256(2) 0.0831(3) 0.2957(3)
H1A H -0.0075 0.0045 0.2308
C3A C 0.03322(16) 0.1571(3) 0.3863(2)
C4A C -0.1204(2) 0.1481(4) 0.3184(3)
H2A H -0.1769 0.1201 0.2713
C5A C -0.1134(2) 0.2563(4) 0.4195(3)
H3A H -0.1654 0.3177 0.4545
loop_
_geom_bond_atom_site_label_1
_geom_bond_atom_site_label_2
_geom_bond_site_symmetry_1
_geom_bond_site_symmetry_2
S1 C1 1_555 1_555
O1 C3 1_555 1_555
O2 C1 1_555 1_555
C1 C3 1_555 1_555
C2 H1 1_555 1_555
C3 C2 1_555 1_555
C4 C2 1_555 1_555
H2 C4 1_555 1_555
C5 O1 1_555 1_555
H3 C5 1_555 1_555
S1A S1 1_555 1_555
O1A C3A 1_555 1_555
O2A C1A 1_555 1_555
C1A S1A 1_555 1_555
C2A H1A 1_555 1_555
C3A C1A 1_555 1_555
C4A C2A 1_555 1_555
H2A C4A 1_555 1_555
C5A O1A 1_555 1_555
H3A C5A 1_555 1_555
C4 C5 1_555 1_555
C2A C3A 1_555 1_555
C4A C5A 1_555 1_555

#END
