
#######################################################################
#
#                 Cambridge Crystallographic Data Centre
#                                CCDC 
#
#######################################################################
#
# If this CIF has been generated from an entry in the Cambridge 
# Structural Database, then it will include bibliographic, chemical, 
# crystal, experimental, refinement or atomic coordinate data resulting 
# from the CCDC's data processing and validation procedures.
#
#######################################################################

data_YAHMIF
_chemical_name_common            'Tuberostemoamide hemihydrate'
_chemical_formula_moiety         'C17 H23 N1 O4,0.5(H2 O1)'
_chemical_name_systematic        
"(1'S,2R,2'R,3'S,6'R)-3'-Ethyl-4-methyl-5H-5'-oxa-10'-azaspiro[furan-2,4'-tricyclo[8.3.0.0^2,6^]tridecane]-5,11'-dione hemihydrate"
_symmetry_cell_setting           orthorhombic
_symmetry_space_group_name_H-M   'P 21 21 21'
_symmetry_Int_Tables_number      19
_space_group_name_Hall           'P 2ac 2ab'
loop_
_symmetry_equiv_pos_site_id
_symmetry_equiv_pos_as_xyz
1 x,y,z
2 1/2-x,-y,1/2+z
3 -x,1/2+y,1/2-z
4 1/2+x,1/2-y,-z
_cell_length_a                   8.6412(2)
_cell_length_b                   10.7998(2)
_cell_length_c                   36.1685(7)
_cell_angle_alpha                90
_cell_angle_beta                 90
_cell_angle_gamma                90
_cell_volume                     3375.36
_exptl_crystal_colour            colorless
_exptl_crystal_description       block
_cell_formula_units_Z            8
loop_
_atom_site_label
_atom_site_type_symbol
_atom_site_fract_x
_atom_site_fract_y
_atom_site_fract_z
O1 O 0.3987(3) 0.6908(2) 0.08626(7)
O2 O 0.9749(2) 0.7450(2) 0.18688(6)
O3 O 1.0512(3) 0.9441(2) 0.20168(6)
O4 O 1.2437(4) 1.0530(3) 0.22680(11)
C1 C 0.4852(4) 0.7634(3) 0.18058(9)
H1 H 0.4397 0.8047 0.2018
H2 H 0.5442 0.6924 0.1890
C2 C 0.3601(4) 0.7249(4) 0.15240(10)
H3 H 0.3262 0.6405 0.1567
H4 H 0.2713 0.7797 0.1537
C3 C 0.4403(3) 0.7360(3) 0.11593(9)
N1 N 0.5691(3) 0.8034(2) 0.12056(6)
C4 C 0.6762(4) 0.8299(3) 0.09050(7)
H5 H 0.7141 0.9140 0.0931
H6 H 0.6214 0.8244 0.0672
C5 C 0.8127(4) 0.7416(3) 0.08984(7)
H7 H 0.7732 0.6575 0.0902
H8 H 0.8673 0.7527 0.0666
C6 C 0.9266(3) 0.7555(3) 0.12079(8)
H9 H 0.9796 0.8341 0.1181
H10 H 1.0035 0.6904 0.1188
C7 C 0.8538(3) 0.7500(3) 0.15902(7)
H11 H 0.7900 0.6752 0.1609
C8 C 0.7566(3) 0.8615(2) 0.16928(7)
H12 H 0.8006 0.9338 0.1567
C9 C 0.5859(3) 0.8521(2) 0.15822(7)
H13 H 0.5397 0.9349 0.1592
C10 C 0.7858(4) 0.8767(3) 0.21083(7)
H14 H 0.7249 0.8140 0.2239
C11 C 0.9562(4) 0.8396(3) 0.21282(8)
C12 C 1.0220(4) 0.8032(3) 0.24871(9)
H15 H 0.9854 0.7383 0.2632
C13 C 1.1403(4) 0.8751(4) 0.25765(9)
C14 C 1.1569(4) 0.9670(4) 0.22847(11)
C15 C 1.2413(6) 0.8803(6) 0.29114(12)
H16 H 1.2159 0.8129 0.3073
H17 H 1.2251 0.9574 0.3038
H18 H 1.3478 0.8739 0.2838
C16 C 0.7445(6) 1.0033(4) 0.22668(10)
H19 H 0.8230 1.0618 0.2188
H20 H 0.6473 1.0294 0.2158
C17 C 0.7300(10) 1.0123(6) 0.26649(16)
H21 H 0.7049 1.0960 0.2732
H22 H 0.8260 0.9891 0.2779
H23 H 0.6493 0.9579 0.2748
O5 O -0.0168(3) 0.5873(2) 0.01640(7)
O6 O -0.5911(2) 0.31108(18) -0.03973(5)
O7 O -0.6774(2) 0.36455(16) -0.09836(5)
O8 O -0.8917(3) 0.3499(2) -0.13237(6)
C18 C -0.1041(3) 0.3420(3) -0.04581(9)
H24 H -0.1618 0.2844 -0.0305
H25 H -0.0599 0.2974 -0.0665
C19 C 0.0210(3) 0.4071(3) -0.02354(9)
H26 H 0.0564 0.3556 -0.0033
H27 H 0.1087 0.4283 -0.0390
C20 C -0.0582(3) 0.5213(3) -0.00945(8)
N2 N -0.1863(2) 0.5401(2) -0.02972(6)
C21 C -0.2939(3) 0.6411(3) -0.02211(9)
H28 H -0.3387 0.6697 -0.0452
H29 H -0.2378 0.7097 -0.0111
C22 C -0.4218(3) 0.6016(3) 0.00366(9)
H30 H -0.4763 0.6751 0.0120
H31 H -0.3755 0.5633 0.0252
C23 C -0.5400(3) 0.5116(3) -0.01270(8)
H32 H -0.6114 0.4867 0.0066
H33 H -0.5992 0.5543 -0.0316
C24 C -0.4694(3) 0.3976(2) -0.02940(7)
H34 H -0.4020 0.3583 -0.0111
C25 C -0.3777(3) 0.4177(2) -0.06508(7)
H35 H -0.4245 0.4879 -0.0781
C26 C -0.2073(3) 0.4480(2) -0.05906(7)
H36 H -0.1645 0.4812 -0.0821
C27 C -0.4123(3) 0.3013(3) -0.08746(7)
H37 H -0.3504 0.2334 -0.0772
C28 C -0.5799(3) 0.2795(2) -0.07690(7)
C29 C -0.6566(3) 0.1570(2) -0.08304(8)
H38 H -0.6192 0.0819 -0.0742
C30 C -0.7846(3) 0.1697(2) -0.10266(7)
C31 C -0.7969(3) 0.3011(2) -0.11322(7)
C32 C -0.9043(4) 0.0787(3) -0.11504(10)
H39 H -0.8783 -0.0022 -0.1059
H40 H -0.9079 0.0770 -0.1416
H41 H -1.0036 0.1028 -0.1056
C33 C -0.3768(5) 0.3105(4) -0.12896(9)
H42 H -0.4557 0.3617 -0.1404
H43 H -0.2787 0.3530 -0.1319
C34 C -0.3690(9) 0.1966(7) -0.14874(13)
H44 H -0.3458 0.2129 -0.1742
H45 H -0.4666 0.1546 -0.1470
H46 H -0.2892 0.1455 -0.1383
O9 O 0.1914(4) 0.5014(3) 0.06972(10)
H47 H 0.128(6) 0.529(6) 0.0552(14)
H48 H 0.256(6) 0.553(5) 0.0765(16)
loop_
_geom_bond_atom_site_label_1
_geom_bond_atom_site_label_2
_geom_bond_site_symmetry_1
_geom_bond_site_symmetry_2
O1 C3 1_555 1_555
O2 C7 1_555 1_555
O3 C11 1_555 1_555
O4 C14 1_555 1_555
C1 H1 1_555 1_555
H2 C1 1_555 1_555
C2 C1 1_555 1_555
H3 C2 1_555 1_555
H4 C2 1_555 1_555
C3 C2 1_555 1_555
N1 C3 1_555 1_555
C4 N1 1_555 1_555
H5 C4 1_555 1_555
H6 C4 1_555 1_555
C5 C4 1_555 1_555
H7 C5 1_555 1_555
H8 C5 1_555 1_555
C6 C5 1_555 1_555
H9 C6 1_555 1_555
H10 C6 1_555 1_555
C7 C6 1_555 1_555
H11 C7 1_555 1_555
C8 C7 1_555 1_555
H12 C8 1_555 1_555
C9 C1 1_555 1_555
H13 C9 1_555 1_555
C10 C8 1_555 1_555
H14 C10 1_555 1_555
C11 O2 1_555 1_555
C12 C11 1_555 1_555
H15 C12 1_555 1_555
C13 C12 1_555 1_555
C14 O3 1_555 1_555
C15 C13 1_555 1_555
H16 C15 1_555 1_555
H17 C15 1_555 1_555
H18 C15 1_555 1_555
C16 C10 1_555 1_555
H19 C16 1_555 1_555
H20 C16 1_555 1_555
C17 C16 1_555 1_555
H21 C17 1_555 1_555
H22 C17 1_555 1_555
H23 C17 1_555 1_555
O5 C20 1_555 1_555
O6 C24 1_555 1_555
O7 C28 1_555 1_555
O8 C31 1_555 1_555
C18 H24 1_555 1_555
H25 C18 1_555 1_555
C19 C18 1_555 1_555
H26 C19 1_555 1_555
H27 C19 1_555 1_555
C20 C19 1_555 1_555
N2 C20 1_555 1_555
C21 N2 1_555 1_555
H28 C21 1_555 1_555
H29 C21 1_555 1_555
C22 C21 1_555 1_555
H30 C22 1_555 1_555
H31 C22 1_555 1_555
C23 C22 1_555 1_555
H32 C23 1_555 1_555
H33 C23 1_555 1_555
C24 C23 1_555 1_555
H34 C24 1_555 1_555
C25 C24 1_555 1_555
H35 C25 1_555 1_555
C26 C18 1_555 1_555
H36 C26 1_555 1_555
C27 C25 1_555 1_555
H37 C27 1_555 1_555
C28 O6 1_555 1_555
C29 C28 1_555 1_555
H38 C29 1_555 1_555
C30 C29 1_555 1_555
C31 O7 1_555 1_555
C32 C30 1_555 1_555
H39 C32 1_555 1_555
H40 C32 1_555 1_555
H41 C32 1_555 1_555
C33 C27 1_555 1_555
H42 C33 1_555 1_555
H43 C33 1_555 1_555
C34 C33 1_555 1_555
H44 C34 1_555 1_555
H45 C34 1_555 1_555
H46 C34 1_555 1_555
O9 H47 1_555 1_555
H48 O9 1_555 1_555
N1 C9 1_555 1_555
C8 C9 1_555 1_555
C10 C11 1_555 1_555
C13 C14 1_555 1_555
N2 C26 1_555 1_555
C25 C26 1_555 1_555
C27 C28 1_555 1_555
C30 C31 1_555 1_555

#END
