
#######################################################################
#
#                 Cambridge Crystallographic Data Centre
#                                CCDC 
#
#######################################################################
#
# If this CIF has been generated from an entry in the Cambridge 
# Structural Database, then it will include bibliographic, chemical, 
# crystal, experimental, refinement or atomic coordinate data resulting 
# from the CCDC's data processing and validation procedures.
#
#######################################################################

data_YAHRUW
_chemical_formula_moiety         'C14 H11 N5 O6'
_chemical_name_systematic        
(E)-1-(2,4-Dinitrophenyl)-2-[1-(2-nitrophenyl)ethylidene]hydrazine
_symmetry_cell_setting           monoclinic
_symmetry_space_group_name_H-M   'P 21/c'
_symmetry_Int_Tables_number      14
_space_group_name_Hall           '-P 2ybc'
loop_
_symmetry_equiv_pos_site_id
_symmetry_equiv_pos_as_xyz
1 x,y,z
2 -x,1/2+y,1/2-z
3 -x,-y,-z
4 x,1/2-y,1/2+z
_cell_length_a                   11.9313(9)
_cell_length_b                   8.6700(7)
_cell_length_c                   15.2363(9)
_cell_angle_alpha                90
_cell_angle_beta                 112.455(5)
_cell_angle_gamma                90
_cell_volume                     1456.61
_exptl_crystal_colour            yellow
_exptl_crystal_description       block
_cell_formula_units_Z            4
_exptl_crystal_recrystallization_method ethanol
loop_
_atom_site_label
_atom_site_type_symbol
_atom_site_fract_x
_atom_site_fract_y
_atom_site_fract_z
O1 O 1.32132(8) 0.59779(12) 0.77977(6)
O2 O 1.14527(9) 0.70362(12) 0.74461(6)
O3 O 1.44309(8) 0.36901(13) 0.55130(7)
O4 O 1.33701(8) 0.39821(12) 0.40099(6)
O5 O 0.76820(8) 0.73691(11) 0.30121(6)
O6 O 0.87386(8) 0.93847(12) 0.29701(6)
N1 N 1.01173(9) 0.76742(13) 0.56858(7)
H1 H 1.0252 0.7860 0.6283
N2 N 0.91649(9) 0.83451(13) 0.49714(7)
N3 N 1.22384(9) 0.64213(13) 0.72129(7)
N4 N 1.35479(9) 0.42076(13) 0.48519(7)
N5 N 0.79296(9) 0.87393(13) 0.31434(7)
C1 C 1.09536(10) 0.68522(15) 0.54842(8)
C2 C 1.19951(11) 0.62140(14) 0.62097(8)
C3 C 1.28425(10) 0.53651(14) 0.59994(8)
H2 H 1.3523 0.4966 0.6483
C4 C 1.26628(10) 0.51219(15) 0.50638(8)
C5 C 1.16558(11) 0.57308(15) 0.43212(8)
H3 H 1.1555 0.5560 0.3693
C6 C 1.08201(11) 0.65806(16) 0.45296(8)
H4 H 1.0153 0.6987 0.4037
C7 C 0.83449(11) 0.89627(15) 0.52181(8)
C8 C 0.73396(10) 0.97562(15) 0.44578(8)
C9 C 0.71612(10) 0.97024(14) 0.34927(8)
C10 C 0.62471(11) 1.04965(15) 0.27935(9)
H5 H 0.6165 1.0430 0.2163
C11 C 0.54516(11) 1.13956(16) 0.30456(10)
H6 H 0.4835 1.1942 0.2585
C12 C 0.55861(11) 1.14699(17) 0.39886(10)
H7 H 0.5048 1.2056 0.4159
C13 C 0.65176(11) 1.06765(16) 0.46806(9)
H8 H 0.6600 1.0757 0.5311
C14 C 0.83892(12) 0.89321(17) 0.62186(9)
H9 H 0.8708 0.7959 0.6507
H10 H 0.7586 0.9067 0.6209
H11 H 0.8902 0.9750 0.6578
loop_
_geom_bond_atom_site_label_1
_geom_bond_atom_site_label_2
_geom_bond_site_symmetry_1
_geom_bond_site_symmetry_2
O1 N3 1_555 1_555
O2 N3 1_555 1_555
O3 N4 1_555 1_555
O4 N4 1_555 1_555
O5 N5 1_555 1_555
O6 N5 1_555 1_555
N1 H1 1_555 1_555
N2 N1 1_555 1_555
N3 C2 1_555 1_555
N4 C4 1_555 1_555
N5 C9 1_555 1_555
C1 N1 1_555 1_555
C2 C1 1_555 1_555
C3 C2 1_555 1_555
H2 C3 1_555 1_555
C4 C3 1_555 1_555
C5 C4 1_555 1_555
H3 C5 1_555 1_555
C6 C1 1_555 1_555
H4 C6 1_555 1_555
C7 N2 1_555 1_555
C8 C7 1_555 1_555
C9 C8 1_555 1_555
C10 C9 1_555 1_555
H5 C10 1_555 1_555
C11 C10 1_555 1_555
H6 C11 1_555 1_555
C12 C11 1_555 1_555
H7 C12 1_555 1_555
C13 C8 1_555 1_555
H8 C13 1_555 1_555
C14 C7 1_555 1_555
H9 C14 1_555 1_555
H10 C14 1_555 1_555
H11 C14 1_555 1_555
C5 C6 1_555 1_555
C12 C13 1_555 1_555

#END
