
#######################################################################
#
#                 Cambridge Crystallographic Data Centre
#                                CCDC 
#
#######################################################################
#
# If this CIF has been generated from an entry in the Cambridge 
# Structural Database, then it will include bibliographic, chemical, 
# crystal, experimental, refinement or atomic coordinate data resulting 
# from the CCDC's data processing and validation procedures.
#
#######################################################################

data_YAHSIK
_chemical_formula_moiety         'C22 H18 Se1'
_chemical_name_systematic        bis(2-Methylnaphthyl)selenide
_symmetry_cell_setting           triclinic
_symmetry_space_group_name_H-M   'P -1'
_symmetry_Int_Tables_number      2
_space_group_name_Hall           '-P 1'
loop_
_symmetry_equiv_pos_site_id
_symmetry_equiv_pos_as_xyz
1 x,y,z
2 -x,-y,-z
_cell_length_a                   10.5817(8)
_cell_length_b                   12.5906(12)
_cell_length_c                   14.0501(12)
_cell_angle_alpha                64.926(10)
_cell_angle_beta                 79.007(10)
_cell_angle_gamma                76.832(10)
_cell_volume                     1641.48
_exptl_crystal_colour            colorless
_exptl_crystal_description       block
_chemical_melting_point          108deg.C
_cell_formula_units_Z            4
loop_
_atom_site_label
_atom_site_type_symbol
_atom_site_fract_x
_atom_site_fract_y
_atom_site_fract_z
Se1 Se 0.00872(4) 0.69841(4) 0.26625(3)
C1 C 0.0726(3) 0.7942(3) 0.3173(2)
C2 C 0.1356(3) 0.8876(3) 0.2483(2)
C3 C 0.1599(4) 0.9224(3) 0.1317(3)
H1 H 0.2317 0.8680 0.1160
H2 H 0.1805 1.0015 0.0980
H3 H 0.0832 0.9203 0.1059
C4 C 0.1778(4) 0.9553(3) 0.2901(3)
H4 H 0.2225 1.0168 0.2444
C5 C 0.1566(4) 0.9350(3) 0.3937(3)
H5 H 0.1890 0.9804 0.4182
C6 C 0.0849(3) 0.8447(3) 0.4653(3)
C7 C 0.0527(4) 0.8275(3) 0.5716(3)
H6 H 0.0819 0.8743 0.5966
C8 C -0.0203(4) 0.7438(3) 0.6395(3)
H7 H -0.0434 0.7356 0.7092
C9 C -0.0594(4) 0.6713(3) 0.6036(3)
H8 H -0.1080 0.6132 0.6502
C10 C -0.0282(4) 0.6832(3) 0.5006(3)
H9 H -0.0545 0.6323 0.4787
C11 C 0.0436(3) 0.7722(3) 0.4273(2)
C12 C 0.1681(3) 0.6470(3) 0.1927(2)
C13 C 0.2745(4) 0.5834(3) 0.2462(3)
C14 C 0.2770(4) 0.5450(3) 0.3630(3)
H10 H 0.2993 0.6073 0.3756
H11 H 0.3408 0.4746 0.3887
H12 H 0.1925 0.5286 0.3991
C15 C 0.3918(4) 0.5537(3) 0.1886(3)
H13 H 0.4649 0.5115 0.2241
C16 C 0.4004(4) 0.5852(3) 0.0834(3)
H14 H 0.4794 0.5659 0.0473
C17 C 0.2906(3) 0.6469(3) 0.0277(2)
C18 C 0.2983(4) 0.6799(3) -0.0825(3)
H15 H 0.3775 0.6618 -0.1189
C19 C 0.1922(4) 0.7374(3) -0.1363(3)
H16 H 0.1985 0.7568 -0.2085
C20 C 0.0751(4) 0.7669(3) -0.0833(3)
H17 H 0.0029 0.8073 -0.1204
C21 C 0.0634(4) 0.7374(3) 0.0242(3)
H18 H -0.0167 0.7575 0.0586
C22 C 0.1713(3) 0.6772(3) 0.0822(2)
Se2 Se 0.49915(4) 0.79860(4) 0.22918(3)
C23 C 0.5913(3) 0.8534(3) 0.3017(2)
C24 C 0.6891(4) 0.9181(3) 0.2470(2)
C25 C 0.7323(4) 0.9534(3) 0.1310(3)
H19 H 0.7911 0.8883 0.1199
H20 H 0.7759 1.0210 0.1053
H21 H 0.6575 0.9734 0.0935
C26 C 0.7556(4) 0.9544(3) 0.3031(3)
H22 H 0.8241 0.9961 0.2671
C27 C 0.7240(4) 0.9311(3) 0.4065(3)
H23 H 0.7706 0.9563 0.4407
C28 C 0.6192(3) 0.8679(3) 0.4637(2)
C29 C 0.5825(4) 0.8452(4) 0.5706(3)
H24 H 0.6267 0.8727 0.6045
C30 C 0.4845(4) 0.7844(4) 0.6256(3)
H25 H 0.4607 0.7714 0.6964
C31 C 0.4191(4) 0.7410(4) 0.5766(3)
H26 H 0.3527 0.6976 0.6150
C32 C 0.4519(4) 0.7621(4) 0.4716(3)
H27 H 0.4069 0.7329 0.4396
C33 C 0.5528(3) 0.8273(3) 0.4110(2)
C34 C 0.6386(3) 0.6998(3) 0.1791(2)
C35 C 0.7131(4) 0.6047(3) 0.2491(2)
C36 C 0.6957(4) 0.5706(3) 0.3660(3)
H28 H 0.7295 0.6254 0.3816
H29 H 0.7419 0.4917 0.4003
H30 H 0.6046 0.5729 0.3911
C37 C 0.8084(4) 0.5310(3) 0.2094(3)
H31 H 0.8612 0.4681 0.2559
C38 C 0.8260(4) 0.5480(3) 0.1067(3)
H32 H 0.8904 0.4976 0.0837
C39 C 0.7471(3) 0.6419(3) 0.0340(3)
C40 C 0.7574(4) 0.6568(4) -0.0732(3)
H33 H 0.8180 0.6045 -0.0966
C41 C 0.6802(4) 0.7459(4) -0.1410(3)
H34 H 0.6864 0.7536 -0.2105
C42 C 0.5912(4) 0.8266(4) -0.1082(3)
H35 H 0.5398 0.8889 -0.1563
C43 C 0.5782(4) 0.8155(3) -0.0059(3)
H36 H 0.5186 0.8709 0.0143
C44 C 0.6539(3) 0.7213(3) 0.0697(2)
loop_
_geom_bond_atom_site_label_1
_geom_bond_atom_site_label_2
_geom_bond_site_symmetry_1
_geom_bond_site_symmetry_2
Se1 C1 1_555 1_555
C1 C2 1_555 1_555
C2 C3 1_555 1_555
C3 H1 1_555 1_555
H2 C3 1_555 1_555
H3 C3 1_555 1_555
C4 C2 1_555 1_555
H4 C4 1_555 1_555
C5 C4 1_555 1_555
H5 C5 1_555 1_555
C6 C5 1_555 1_555
C7 C6 1_555 1_555
H6 C7 1_555 1_555
C8 C7 1_555 1_555
H7 C8 1_555 1_555
C9 C8 1_555 1_555
H8 C9 1_555 1_555
C10 C9 1_555 1_555
H9 C10 1_555 1_555
C11 C1 1_555 1_555
C12 Se1 1_555 1_555
C13 C12 1_555 1_555
C14 C13 1_555 1_555
H10 C14 1_555 1_555
H11 C14 1_555 1_555
H12 C14 1_555 1_555
C15 C13 1_555 1_555
H13 C15 1_555 1_555
C16 C15 1_555 1_555
H14 C16 1_555 1_555
C17 C16 1_555 1_555
C18 C17 1_555 1_555
H15 C18 1_555 1_555
C19 C18 1_555 1_555
H16 C19 1_555 1_555
C20 C19 1_555 1_555
H17 C20 1_555 1_555
C21 C20 1_555 1_555
H18 C21 1_555 1_555
C22 C12 1_555 1_555
Se2 C23 1_555 1_555
C23 C24 1_555 1_555
C24 C25 1_555 1_555
C25 H19 1_555 1_555
H20 C25 1_555 1_555
H21 C25 1_555 1_555
C26 C24 1_555 1_555
H22 C26 1_555 1_555
C27 C26 1_555 1_555
H23 C27 1_555 1_555
C28 C27 1_555 1_555
C29 C28 1_555 1_555
H24 C29 1_555 1_555
C30 C29 1_555 1_555
H25 C30 1_555 1_555
C31 C30 1_555 1_555
H26 C31 1_555 1_555
C32 C31 1_555 1_555
H27 C32 1_555 1_555
C33 C23 1_555 1_555
C34 Se2 1_555 1_555
C35 C34 1_555 1_555
C36 C35 1_555 1_555
H28 C36 1_555 1_555
H29 C36 1_555 1_555
H30 C36 1_555 1_555
C37 C35 1_555 1_555
H31 C37 1_555 1_555
C38 C37 1_555 1_555
H32 C38 1_555 1_555
C39 C38 1_555 1_555
C40 C39 1_555 1_555
H33 C40 1_555 1_555
C41 C40 1_555 1_555
H34 C41 1_555 1_555
C42 C41 1_555 1_555
H35 C42 1_555 1_555
C43 C42 1_555 1_555
H36 C43 1_555 1_555
C44 C34 1_555 1_555
C6 C11 1_555 1_555
C10 C11 1_555 1_555
C17 C22 1_555 1_555
C21 C22 1_555 1_555
C28 C33 1_555 1_555
C32 C33 1_555 1_555
C39 C44 1_555 1_555
C43 C44 1_555 1_555

#END
