
#######################################################################
#
#                 Cambridge Crystallographic Data Centre
#                                CCDC 
#
#######################################################################
#
# If this CIF has been generated from an entry in the Cambridge 
# Structural Database, then it will include bibliographic, chemical, 
# crystal, experimental, refinement or atomic coordinate data resulting 
# from the CCDC's data processing and validation procedures.
#
#######################################################################

data_YAHSIM
_chemical_formula_moiety         'C13 H11 N3 Se1,H2 O1'
_chemical_name_systematic        
'2-((phenylselanyl)methyl)imidazo[1,2-a]pyrimidine monohydrate'
_symmetry_cell_setting           rhombohedral
_symmetry_space_group_name_H-M   'R -3'
_symmetry_Int_Tables_number      148
_space_group_name_Hall           '-R 3'
loop_
_symmetry_equiv_pos_site_id
_symmetry_equiv_pos_as_xyz
1 x,y,z
2 -y,x-y,z
3 -x+y,-x,z
4 2/3+x,1/3+y,1/3+z
5 2/3-y,1/3+x-y,1/3+z
6 2/3-x+y,1/3-x,1/3+z
7 1/3+x,2/3+y,2/3+z
8 1/3-y,2/3+x-y,2/3+z
9 1/3-x+y,2/3-x,2/3+z
10 -x,-y,-z
11 y,-x+y,-z
12 x-y,x,-z
13 1/3-x,2/3-y,2/3-z
14 1/3+y,2/3-x+y,2/3-z
15 1/3+x-y,2/3+x,2/3-z
16 2/3-x,1/3-y,1/3-z
17 2/3+y,1/3-x+y,1/3-z
18 2/3+x-y,1/3+x,1/3-z
_cell_length_a                   31.935(2)
_cell_length_b                   31.935(2)
_cell_length_c                   6.3894(5)
_cell_angle_alpha                90
_cell_angle_beta                 90
_cell_angle_gamma                120
_cell_volume                     5643.19
_exptl_crystal_colour            colorless
_exptl_crystal_description       plate
_cell_formula_units_Z            18
loop_
_atom_site_label
_atom_site_type_symbol
_atom_site_fract_x
_atom_site_fract_y
_atom_site_fract_z
Se1 Se 0.56496(2) 0.68532(2) 0.87219(6)
N1 N 0.67518(10) 0.77462(11) 0.3219(4)
N2 N 0.67988(11) 0.76241(10) 0.6622(4)
N3 N 0.73556(11) 0.84010(11) 0.5241(5)
C1 C 0.64281(12) 0.72155(12) 0.5718(5)
C2 C 0.69890(12) 0.79422(13) 0.5099(5)
C3 C 0.52283(13) 0.68746(13) 0.6640(6)
C4 C 0.63976(13) 0.72804(13) 0.3638(6)
H1 H 0.6181 0.7055 0.269
C5 C 0.74774(14) 0.86543(14) 0.3494(7)
H2 H 0.7729 0.8973 0.3547
C6 C 0.72510(14) 0.84740(15) 0.1560(6)
H3 H 0.7354 0.867 0.0379
C7 C 0.68860(14) 0.80179(15) 0.1422(6)
H4 H 0.6729 0.789 0.0158
C8 C 0.50966(14) 0.65948(14) 0.4846(6)
H5 H 0.5219 0.6389 0.4594
C9 C 0.61155(14) 0.67803(13) 0.6971(6)
H6 H 0.6317 0.6708 0.7864
H7 H 0.594 0.6508 0.6034
C10 C 0.50408(17) 0.71729(15) 0.7033(7)
H8 H 0.5126 0.7358 0.8247
C11 C 0.47869(16) 0.66208(16) 0.3444(7)
H9 H 0.4703 0.6437 0.2227
C12 C 0.45989(17) 0.69183(19) 0.3825(9)
H10 H 0.4386 0.6934 0.2879
C13 C 0.47304(19) 0.71943(18) 0.5631(9)
H11 H 0.4605 0.7397 0.5891
loop_
_geom_bond_atom_site_label_1
_geom_bond_atom_site_label_2
_geom_bond_site_symmetry_1
_geom_bond_site_symmetry_2
Se1 C3 1_555 1_555
N1 C2 1_555 1_555
N2 C1 1_555 1_555
N3 C2 1_555 1_555
C1 C4 1_555 1_555
C2 N2 1_555 1_555
C3 C8 1_555 1_555
C4 N1 1_555 1_555
H1 C4 1_555 1_555
C5 N3 1_555 1_555
H2 C5 1_555 1_555
C6 C5 1_555 1_555
H3 C6 1_555 1_555
C7 N1 1_555 1_555
H4 C7 1_555 1_555
C8 H5 1_555 1_555
C9 Se1 1_555 1_555
H6 C9 1_555 1_555
H7 C9 1_555 1_555
C10 C3 1_555 1_555
H8 C10 1_555 1_555
C11 C8 1_555 1_555
H9 C11 1_555 1_555
C12 C11 1_555 1_555
H10 C12 1_555 1_555
C13 C10 1_555 1_555
H11 C13 1_555 1_555
C1 C9 1_555 1_555
C6 C7 1_555 1_555
C12 C13 1_555 1_555

#END
