
#######################################################################
#
#                 Cambridge Crystallographic Data Centre
#                                CCDC 
#
#######################################################################
#
# If this CIF has been generated from an entry in the Cambridge 
# Structural Database, then it will include bibliographic, chemical, 
# crystal, experimental, refinement or atomic coordinate data resulting 
# from the CCDC's data processing and validation procedures.
#
#######################################################################

data_YAHTIN
_chemical_formula_moiety         'C31 H26 N4 P2 Se2'
_chemical_name_systematic        
1,1'-methylenebis(5-(diphenylphosphoroselenoyl)-1H-pyrazole)
_symmetry_cell_setting           monoclinic
_symmetry_space_group_name_H-M   'P 21/c'
_symmetry_Int_Tables_number      14
_space_group_name_Hall           '-P 2ybc'
loop_
_symmetry_equiv_pos_site_id
_symmetry_equiv_pos_as_xyz
1 x,y,z
2 -x,1/2+y,1/2-z
3 -x,-y,-z
4 x,1/2-y,1/2+z
_cell_length_a                   17.6873(6)
_cell_length_b                   9.4183(3)
_cell_length_c                   18.1538(6)
_cell_angle_alpha                90
_cell_angle_beta                 109.520(1)
_cell_angle_gamma                90
_cell_volume                     2850.33
_exptl_crystal_colour            colorless
_exptl_crystal_description       plate
_cell_formula_units_Z            4
loop_
_atom_site_label
_atom_site_type_symbol
_atom_site_fract_x
_atom_site_fract_y
_atom_site_fract_z
Se1 Se 0.40503(2) 0.91541(3) 0.37918(2)
Se2 Se 0.11907(2) 0.37977(3) 0.14074(2)
P1 P 0.43155(4) 0.73147(7) 0.32652(4)
P2 P 0.06848(4) 0.54134(7) 0.18969(4)
N1 N 0.29940(12) 0.7125(2) 0.18877(13)
N2 N 0.27586(13) 0.6999(3) 0.11010(13)
N3 N 0.16618(12) 0.7734(2) 0.18311(13)
N4 N 0.16621(13) 0.9081(2) 0.15718(14)
C1 C 0.53717(15) 0.7166(3) 0.33722(15)
C2 C 0.58934(16) 0.8262(3) 0.37343(16)
H1 H 0.5693 0.9097 0.3897
C3 C 0.67069(16) 0.8125(3) 0.38557(17)
H2 H 0.7062 0.8879 0.4091
C4 C 0.70041(16) 0.6895(3) 0.36362(17)
H3 H 0.7564 0.6800 0.3734
C5 C 0.64890(16) 0.5803(3) 0.32750(17)
H4 H 0.6694 0.4964 0.3121
C6 C 0.56704(16) 0.5939(3) 0.31379(16)
H5 H 0.5315 0.5196 0.2885
C7 C 0.40440(14) 0.5674(3) 0.36344(16)
C8 C 0.40400(16) 0.5622(3) 0.44016(16)
H6 H 0.4150 0.6454 0.4715
C9 C 0.38742(16) 0.4351(3) 0.47060(17)
H7 H 0.3869 0.4316 0.5227
C10 C 0.37167(17) 0.3139(3) 0.42512(18)
H8 H 0.3616 0.2267 0.4465
C11 C 0.37054(17) 0.3187(3) 0.34862(18)
H9 H 0.3588 0.2353 0.3174
C12 C 0.38657(16) 0.4450(3) 0.31736(17)
H10 H 0.3854 0.4482 0.2647
C13 C 0.38123(14) 0.7195(3) 0.22244(16)
C14 C 0.41149(16) 0.7129(3) 0.16161(16)
H11 H 0.4662 0.7154 0.1649
C15 C 0.34383(16) 0.7017(3) 0.09388(17)
H12 H 0.3463 0.6962 0.0425
C16 C 0.24080(15) 0.7072(3) 0.22937(16)
H13 H 0.2307 0.6071 0.2398
H14 H 0.2626 0.7568 0.2802
C17 C 0.08899(16) 0.9358(3) 0.11935(17)
H15 H 0.0699 1.0231 0.0936
C18 C 0.03940(16) 0.8218(3) 0.12191(16)
H16 H -0.0174 0.8171 0.0996
C19 C 0.09052(15) 0.7175(3) 0.16376(16)
C20 C 0.10343(15) 0.5382(3) 0.29581(16)
C21 C 0.08729(17) 0.6499(3) 0.33889(18)
H17 H 0.0570 0.7294 0.3127
C22 C 0.11551(19) 0.6448(3) 0.41984(18)
H18 H 0.1038 0.7201 0.4492
C23 C 0.16090(17) 0.5297(3) 0.45817(18)
H19 H 0.1811 0.5274 0.5137
C24 C 0.17667(16) 0.4191(3) 0.41609(17)
H20 H 0.2070 0.3399 0.4426
C25 C 0.14824(15) 0.4226(3) 0.33465(17)
H21 H 0.1594 0.3463 0.3057
C26 C -0.04038(15) 0.5382(3) 0.15376(17)
C27 C -0.08647(16) 0.5502(3) 0.20247(17)
H22 H -0.0614 0.5663 0.2569
C28 C -0.16954(16) 0.5386(3) 0.17076(18)
H23 H -0.2013 0.5465 0.2036
C29 C -0.20594(16) 0.5155(3) 0.09156(18)
H24 H -0.2626 0.5059 0.0705
C30 C -0.16050(16) 0.5063(3) 0.04283(18)
H25 H -0.1860 0.4923 -0.0117
C31 C -0.07761(16) 0.5176(3) 0.07372(17)
H26 H -0.0463 0.5114 0.0403
loop_
_geom_bond_atom_site_label_1
_geom_bond_atom_site_label_2
_geom_bond_site_symmetry_1
_geom_bond_site_symmetry_2
Se1 P1 1_555 1_555
Se2 P2 1_555 1_555
P1 C1 1_555 1_555
P2 C19 1_555 1_555
N1 N2 1_555 1_555
N2 C15 1_555 1_555
N3 N4 1_555 1_555
N4 C17 1_555 1_555
C1 C2 1_555 1_555
C2 H1 1_555 1_555
C3 C2 1_555 1_555
H2 C3 1_555 1_555
C4 C3 1_555 1_555
H3 C4 1_555 1_555
C5 C4 1_555 1_555
H4 C5 1_555 1_555
C6 C1 1_555 1_555
H5 C6 1_555 1_555
C7 P1 1_555 1_555
C8 C7 1_555 1_555
H6 C8 1_555 1_555
C9 C8 1_555 1_555
H7 C9 1_555 1_555
C10 C9 1_555 1_555
H8 C10 1_555 1_555
C11 C10 1_555 1_555
H9 C11 1_555 1_555
C12 C7 1_555 1_555
H10 C12 1_555 1_555
C13 P1 1_555 1_555
C14 C13 1_555 1_555
H11 C14 1_555 1_555
C15 C14 1_555 1_555
H12 C15 1_555 1_555
C16 N1 1_555 1_555
H13 C16 1_555 1_555
H14 C16 1_555 1_555
C17 H15 1_555 1_555
C18 C17 1_555 1_555
H16 C18 1_555 1_555
C19 N3 1_555 1_555
C20 P2 1_555 1_555
C21 C20 1_555 1_555
H17 C21 1_555 1_555
C22 C21 1_555 1_555
H18 C22 1_555 1_555
C23 C22 1_555 1_555
H19 C23 1_555 1_555
C24 C23 1_555 1_555
H20 C24 1_555 1_555
C25 C20 1_555 1_555
H21 C25 1_555 1_555
C26 P2 1_555 1_555
C27 C26 1_555 1_555
H22 C27 1_555 1_555
C28 C27 1_555 1_555
H23 C28 1_555 1_555
C29 C28 1_555 1_555
H24 C29 1_555 1_555
C30 C29 1_555 1_555
H25 C30 1_555 1_555
C31 C26 1_555 1_555
H26 C31 1_555 1_555
N1 C13 1_555 1_555
N3 C16 1_555 1_555
C5 C6 1_555 1_555
C11 C12 1_555 1_555
C18 C19 1_555 1_555
C24 C25 1_555 1_555
C30 C31 1_555 1_555

#END
