
#######################################################################
#
#                 Cambridge Crystallographic Data Centre
#                                CCDC 
#
#######################################################################
#
# If this CIF has been generated from an entry in the Cambridge 
# Structural Database, then it will include bibliographic, chemical, 
# crystal, experimental, refinement or atomic coordinate data resulting 
# from the CCDC's data processing and validation procedures.
#
#######################################################################

data_YAHTUY
_chemical_name_common            'Gallic acid pyridine solvate'
_chemical_formula_moiety         'C7 H6 O5,C5 H5 N1'
_chemical_name_systematic        '3,4,5-Trihydroxybenzoic acid pyridine solvate'
_symmetry_cell_setting           monoclinic
_symmetry_space_group_name_H-M   'P 21/n'
_symmetry_Int_Tables_number      14
_space_group_name_Hall           '-P 2yn'
loop_
_symmetry_equiv_pos_site_id
_symmetry_equiv_pos_as_xyz
1 x,y,z
2 1/2-x,1/2+y,1/2-z
3 -x,-y,-z
4 1/2+x,1/2-y,1/2+z
_cell_length_a                   9.3350(10)
_cell_length_b                   10.435(2)
_cell_length_c                   11.8581(15)
_cell_angle_alpha                90
_cell_angle_beta                 107.632(8)
_cell_angle_gamma                90
_cell_volume                     1100.84
_exptl_crystal_colour            colorless
_exptl_crystal_description       prism
_cell_formula_units_Z            4
loop_
_atom_site_label
_atom_site_type_symbol
_atom_site_fract_x
_atom_site_fract_y
_atom_site_fract_z
O1 O 0.2507(3) 0.4817(3) 0.5719(2)
H1 H 0.1613 0.4918 0.5650
O2 O 0.0218(3) 0.5026(3) 0.3644(3)
H2 H -0.0003 0.5559 0.3111
O3 O 0.0523(3) 0.3953(3) 0.1596(2)
H3 H 0.0722 0.3559 0.1064
O4 O 0.6443(3) 0.2100(3) 0.4836(2)
H4 H 0.7301 0.2041 0.4794
O5 O 0.5775(3) 0.1955(3) 0.2878(2)
C1 C 0.4139(4) 0.3050(4) 0.3759(3)
C2 C 0.3957(4) 0.3632(4) 0.4761(3)
H5 H 0.4718 0.3581 0.5478
C3 C 0.2654(4) 0.4285(4) 0.4696(3)
C4 C 0.1511(4) 0.4397(4) 0.3634(3)
C5 C 0.1690(4) 0.3824(4) 0.2629(3)
C6 C 0.2988(4) 0.3151(4) 0.2682(3)
H6 H 0.3096 0.2768 0.2004
C7 C 0.5536(4) 0.2314(4) 0.3809(3)
N1 N 0.9126(4) 0.1750(4) 0.4402(4)
C8 C 1.1809(5) 0.0925(5) 0.4259(5)
H7 H 1.2731 0.0630 0.4216
C9 C 1.1691(5) 0.1366(5) 0.5296(5)
H8 H 1.2532 0.1387 0.5962
C10 C 1.0337(6) 0.1779(5) 0.5367(4)
H9 H 1.0251 0.2082 0.6082
C11 C 0.9235(6) 0.1326(5) 0.3370(4)
H10 H 0.8389 0.1312 0.2708
C12 C 1.0599(6) 0.0908(5) 0.3285(4)
H11 H 1.0685 0.0619 0.2567
loop_
_geom_bond_atom_site_label_1
_geom_bond_atom_site_label_2
_geom_bond_site_symmetry_1
_geom_bond_site_symmetry_2
O1 H1 1_555 1_555
O2 H2 1_555 1_555
O3 H3 1_555 1_555
O4 H4 1_555 1_555
O5 C7 1_555 1_555
C1 C2 1_555 1_555
C2 H5 1_555 1_555
C3 O1 1_555 1_555
C4 O2 1_555 1_555
C5 O3 1_555 1_555
C6 C1 1_555 1_555
H6 C6 1_555 1_555
C7 O4 1_555 1_555
N1 C10 1_555 1_555
C8 H7 1_555 1_555
C9 C8 1_555 1_555
H8 C9 1_555 1_555
C10 C9 1_555 1_555
H9 C10 1_555 1_555
C11 N1 1_555 1_555
H10 C11 1_555 1_555
C12 C8 1_555 1_555
H11 C12 1_555 1_555
C1 C7 1_555 1_555
C2 C3 1_555 1_555
C3 C4 1_555 1_555
C4 C5 1_555 1_555
C5 C6 1_555 1_555
C11 C12 1_555 1_555

#END
