
#######################################################################
#
#                 Cambridge Crystallographic Data Centre
#                                CCDC 
#
#######################################################################
#
# If this CIF has been generated from an entry in the Cambridge 
# Structural Database, then it will include bibliographic, chemical, 
# crystal, experimental, refinement or atomic coordinate data resulting 
# from the CCDC's data processing and validation procedures.
#
#######################################################################

data_YAHVUA
_chemical_name_common            
'(6R,7R)-3-Hydroxymethyl-7-(2-phenylacetamido)-3-cephem-4-carboxylic acid lactone'
_chemical_formula_moiety         'C16 H14 N2 O4 S1'
_chemical_name_systematic        
N-[(4R,5R)-3,11-Dioxo-10-oxa-6-thia-2-azatricyclo[6.3.0.0^2,5^]undec-1(8)-en-4-yl]-2-phenylacetamide
_symmetry_cell_setting           orthorhombic
_symmetry_space_group_name_H-M   'P 21 21 21'
_symmetry_Int_Tables_number      19
_space_group_name_Hall           'P 2ac 2ab'
loop_
_symmetry_equiv_pos_site_id
_symmetry_equiv_pos_as_xyz
1 x,y,z
2 1/2+x,1/2-y,-z
3 -x,1/2+y,1/2-z
4 1/2-x,-y,1/2+z
_cell_length_a                   9.1300(13)
_cell_length_b                   9.7060(14)
_cell_length_c                   16.701(2)
_cell_angle_alpha                90
_cell_angle_beta                 90
_cell_angle_gamma                90
_cell_volume                     1479.97
_exptl_crystal_colour            colorless
_exptl_crystal_description       prism
_cell_formula_units_Z            4
_exptl_crystal_recrystallization_method acetone
loop_
_atom_site_label
_atom_site_type_symbol
_atom_site_fract_x
_atom_site_fract_y
_atom_site_fract_z
S1 S 0.67754(3) 0.52846(3) 0.117029(18)
O1 O 0.88288(11) 0.84664(9) 0.27380(5)
O2 O 1.16829(11) 0.84019(9) 0.14678(5)
O3 O 1.13554(11) 0.75318(9) 0.02326(5)
O4 O 0.49856(10) 0.45642(8) 0.28773(5)
N1 N 0.91224(11) 0.64624(10) 0.19268(6)
N2 N 0.58912(12) 0.67140(11) 0.27251(6)
C1 C 0.85344(13) 0.73156(12) 0.25163(7)
C2 C 0.73837(13) 0.62194(12) 0.27474(7)
H1 H 0.7621 0.5770 0.3270
C3 C 0.79901(12) 0.53771(12) 0.20224(7)
H2 H 0.8404 0.4462 0.2180
C4 C 0.97995(13) 0.66890(12) 0.11842(7)
C5 C 1.10260(14) 0.76339(12) 0.10264(7)
C6 C 1.03597(15) 0.65749(13) -0.01579(7)
H3 H 1.0906 0.5813 -0.0415
H4 H 0.9764 0.7051 -0.0569
C7 C 0.94119(14) 0.60460(13) 0.05064(7)
C8 C 0.82046(14) 0.50169(12) 0.04180(7)
H5 H 0.8610 0.4076 0.0475
H6 H 0.7772 0.5097 -0.0124
C9 C 0.47668(14) 0.58147(13) 0.28174(7)
C10 C 0.32515(14) 0.64414(12) 0.28916(7)
H7 H 0.2560 0.5957 0.2532
H8 H 0.3279 0.7425 0.2735
C11 C 0.27483(13) 0.63045(12) 0.37592(8)
C12 C 0.35751(14) 0.68729(12) 0.43847(8)
H9 H 0.4433 0.7385 0.4263
C13 C 0.31636(15) 0.67012(13) 0.51797(7)
H10 H 0.3739 0.7093 0.5595
C14 C 0.19037(15) 0.59516(14) 0.53662(8)
H11 H 0.1618 0.5824 0.5908
C15 C 0.10737(15) 0.53953(14) 0.47505(8)
H12 H 0.0213 0.4889 0.4875
C16 C 0.14795(13) 0.55650(13) 0.39503(8)
H13 H 0.0895 0.5179 0.3536
H14 H 0.5708(16) 0.7467(16) 0.2600(8)
loop_
_geom_bond_atom_site_label_1
_geom_bond_atom_site_label_2
_geom_bond_site_symmetry_1
_geom_bond_site_symmetry_2
S1 C3 1_555 1_555
O1 C1 1_555 1_555
O2 C5 1_555 1_555
O3 C5 1_555 1_555
O4 C9 1_555 1_555
N1 C1 1_555 1_555
N2 C2 1_555 1_555
C1 C2 1_555 1_555
C2 H1 1_555 1_555
C3 N1 1_555 1_555
H2 C3 1_555 1_555
C4 N1 1_555 1_555
C5 C4 1_555 1_555
C6 O3 1_555 1_555
H3 C6 1_555 1_555
H4 C6 1_555 1_555
C7 C4 1_555 1_555
C8 S1 1_555 1_555
H5 C8 1_555 1_555
H6 C8 1_555 1_555
C9 N2 1_555 1_555
C10 C9 1_555 1_555
H7 C10 1_555 1_555
H8 C10 1_555 1_555
C11 C10 1_555 1_555
C12 C11 1_555 1_555
H9 C12 1_555 1_555
C13 C12 1_555 1_555
H10 C13 1_555 1_555
C14 C13 1_555 1_555
H11 C14 1_555 1_555
C15 C14 1_555 1_555
H12 C15 1_555 1_555
C16 C11 1_555 1_555
H13 C16 1_555 1_555
H14 N2 1_555 1_555
C2 C3 1_555 1_555
C6 C7 1_555 1_555
C7 C8 1_555 1_555
C15 C16 1_555 1_555

#END
