
#######################################################################
#
#                 Cambridge Crystallographic Data Centre
#                                CCDC 
#
#######################################################################
#
# If this CIF has been generated from an entry in the Cambridge 
# Structural Database, then it will include bibliographic, chemical, 
# crystal, experimental, refinement or atomic coordinate data resulting 
# from the CCDC's data processing and validation procedures.
#
#######################################################################

data_YAHVIN
_chemical_formula_moiety         'C11 H13 N5 O4 S1'
_chemical_name_systematic        
5-(2-Nitrobenzenesulfonyl)-3,3a,4,5,6,7-hexahydro(1,2,3)triazolo(1,5-a)pyrazine
_symmetry_cell_setting           monoclinic
_symmetry_space_group_name_H-M   'P 21/n'
_symmetry_Int_Tables_number      14
_space_group_name_Hall           '-P 2yn'
loop_
_symmetry_equiv_pos_site_id
_symmetry_equiv_pos_as_xyz
1 x,y,z
2 1/2-x,1/2+y,1/2-z
3 -x,-y,-z
4 1/2+x,1/2-y,1/2+z
_cell_length_a                   8.4690(17)
_cell_length_b                   17.224(3)
_cell_length_c                   9.806(2)
_cell_angle_alpha                90
_cell_angle_beta                 110.56(3)
_cell_angle_gamma                90
_cell_volume                     1339.29
_exptl_crystal_colour            colorless
_exptl_crystal_description       needles
_cell_formula_units_Z            4
loop_
_atom_site_label
_atom_site_type_symbol
_atom_site_fract_x
_atom_site_fract_y
_atom_site_fract_z
S1 S 0.00189(8) 0.16905(4) 0.37956(7)
O1 O 0.0449(2) 0.12861(11) 0.51466(17)
O2 O -0.0771(2) 0.24328(10) 0.3642(2)
O3 O 0.2933(3) 0.01687(12) 0.4715(2)
O4 O 0.4416(3) 0.09578(15) 0.6332(2)
N1 N 0.3563(3) 0.07923(13) 0.5093(2)
N2 N -0.1236(2) 0.11390(11) 0.2527(2)
N3 N -0.3068(3) 0.01769(13) 0.0201(2)
N4 N -0.2386(3) -0.01494(15) -0.0735(2)
N5 N -0.1674(3) -0.07814(15) -0.0252(3)
C1 C 0.1890(3) 0.18303(13) 0.3398(2)
C2 C 0.1879(3) 0.24142(14) 0.2415(3)
H1 H 0.0913 0.2713 0.2004
C3 C 0.3277(4) 0.25581(16) 0.2040(3)
H2 H 0.3248 0.2949 0.1376
C4 C 0.4718(4) 0.21201(17) 0.2653(3)
H3 H 0.5661 0.2218 0.2401
C5 C 0.4773(3) 0.15416(16) 0.3629(3)
H4 H 0.5746 0.1248 0.4041
C6 C 0.3362(3) 0.14013(13) 0.3991(2)
C7 C -0.1830(3) 0.14573(15) 0.1023(3)
H5 H -0.0943 0.1416 0.0615
H6 H -0.2119 0.2001 0.1038
C8 C -0.3355(3) 0.10060(16) 0.0102(3)
H7 H -0.4296 0.1126 0.0412
H8 H -0.3657 0.1167 -0.0906
C9 C -0.2283(3) -0.01613(15) 0.1644(3)
H9 H -0.3098 -0.0229 0.2138
C10 C -0.0767(3) 0.03100(14) 0.2560(3)
H10 H -0.0375 0.0123 0.3556
H11 H 0.0143 0.0250 0.2183
C11 C -0.1756(4) -0.09341(16) 0.1197(3)
H12 H -0.0665 -0.1095 0.1876
H13 H -0.2579 -0.1334 0.1150
loop_
_geom_bond_atom_site_label_1
_geom_bond_atom_site_label_2
_geom_bond_site_symmetry_1
_geom_bond_site_symmetry_2
S1 O1 1_555 1_555
O2 S1 1_555 1_555
O3 N1 1_555 1_555
O4 N1 1_555 1_555
N1 C6 1_555 1_555
N2 S1 1_555 1_555
N3 N4 1_555 1_555
N4 N5 1_555 1_555
N5 C11 1_555 1_555
C1 S1 1_555 1_555
C2 C1 1_555 1_555
H1 C2 1_555 1_555
C3 C2 1_555 1_555
H2 C3 1_555 1_555
C4 C3 1_555 1_555
H3 C4 1_555 1_555
C5 C4 1_555 1_555
H4 C5 1_555 1_555
C6 C1 1_555 1_555
C7 N2 1_555 1_555
H5 C7 1_555 1_555
H6 C7 1_555 1_555
C8 N3 1_555 1_555
H7 C8 1_555 1_555
H8 C8 1_555 1_555
C9 N3 1_555 1_555
H9 C9 1_555 1_555
C10 N2 1_555 1_555
H10 C10 1_555 1_555
H11 C10 1_555 1_555
C11 C9 1_555 1_555
H12 C11 1_555 1_555
H13 C11 1_555 1_555
C5 C6 1_555 1_555
C7 C8 1_555 1_555
C9 C10 1_555 1_555

#END
