
#######################################################################
#
#                 Cambridge Crystallographic Data Centre
#                                CCDC 
#
#######################################################################
#
# If this CIF has been generated from an entry in the Cambridge 
# Structural Database, then it will include bibliographic, chemical, 
# crystal, experimental, refinement or atomic coordinate data resulting 
# from the CCDC's data processing and validation procedures.
#
#######################################################################

data_YAHWEM
_chemical_formula_moiety         'C16 H12 N2 O2'
_chemical_name_systematic        
1'-methyl-2,3'-spirobi[indole]-2',3(1H,1'H)-dione
_symmetry_cell_setting           monoclinic
_symmetry_space_group_name_H-M   'C 2/c'
_symmetry_Int_Tables_number      15
_space_group_name_Hall           '-C 2yn'
loop_
_symmetry_equiv_pos_site_id
_symmetry_equiv_pos_as_xyz
1 x,y,z
2 -x,y,1/2-z
3 1/2+x,1/2+y,z
4 1/2-x,1/2+y,1/2-z
5 -x,-y,-z
6 x,-y,1/2+z
7 1/2-x,1/2-y,-z
8 1/2+x,1/2-y,1/2+z
_cell_length_a                   23.889(7)
_cell_length_b                   10.077(3)
_cell_length_c                   12.378(3)
_cell_angle_alpha                90
_cell_angle_beta                 119.348(9)
_cell_angle_gamma                90
_cell_volume                     2597.33
_exptl_crystal_colour            colorless
_exptl_crystal_description       prismatic
_cell_formula_units_Z            8
loop_
_atom_site_label
_atom_site_type_symbol
_atom_site_fract_x
_atom_site_fract_y
_atom_site_fract_z
N1 N 0.44711(9) 0.00544(18) 0.07050(18)
N2 N 0.35567(9) 0.24423(17) 0.12351(17)
O1 O 0.29033(7) -0.07060(15) 0.01113(15)
O2 O 0.42211(8) 0.09853(17) 0.27383(15)
C1 C 0.44741(10) -0.1303(2) 0.07514(19)
C2 C 0.49812(12) -0.2149(2) 0.0979(2)
H1 H 0.5382 -0.1819 0.1166
C3 C 0.48664(13) -0.3490(2) 0.0916(3)
H2 H 0.5199 -0.4074 0.1072
C4 C 0.42635(14) -0.4008(2) 0.0625(3)
H3 H 0.4199 -0.4921 0.0569
C5 C 0.37715(12) -0.3177(2) 0.0424(2)
H4 H 0.3372 -0.3513 0.0244
C6 C 0.38795(10) -0.1815(2) 0.0494(2)
C7 C 0.34610(10) -0.0718(2) 0.03453(19)
C8 C 0.38693(10) 0.05714(19) 0.0535(2)
C9 C 0.39186(10) 0.1330(2) 0.1659(2)
C10 C 0.33140(10) 0.25974(19) -0.0050(2)
C11 C 0.35083(9) 0.1540(2) -0.05085(19)
C12 C 0.33423(10) 0.1491(2) -0.1739(2)
H5 H 0.3469 0.0781 -0.2050
C13 C 0.29820(11) 0.2523(2) -0.2506(2)
H6 H 0.2870 0.2515 -0.3340
C14 C 0.27902(11) 0.3558(2) -0.2039(2)
H7 H 0.2548 0.4241 -0.2568
C15 C 0.29460(11) 0.3615(2) -0.0804(2)
H8 H 0.2808 0.4310 -0.0499
C16 C 0.34844(13) 0.3412(2) 0.2027(2)
H9 H 0.3671 0.3071 0.2856
H10 H 0.3036 0.3586 0.1719
H11 H 0.3698 0.4220 0.2028
H12 H 0.4814(12) 0.047(2) 0.107(2)
loop_
_geom_bond_atom_site_label_1
_geom_bond_atom_site_label_2
_geom_bond_site_symmetry_1
_geom_bond_site_symmetry_2
N1 C1 1_555 1_555
N2 C9 1_555 1_555
O1 C7 1_555 1_555
O2 C9 1_555 1_555
C1 C2 1_555 1_555
C2 H1 1_555 1_555
C3 C2 1_555 1_555
H2 C3 1_555 1_555
C4 C3 1_555 1_555
H3 C4 1_555 1_555
C5 C4 1_555 1_555
H4 C5 1_555 1_555
C6 C1 1_555 1_555
C7 C6 1_555 1_555
C8 N1 1_555 1_555
C9 C8 1_555 1_555
C10 N2 1_555 1_555
C11 C8 1_555 1_555
C12 C11 1_555 1_555
H5 C12 1_555 1_555
C13 C12 1_555 1_555
H6 C13 1_555 1_555
C14 C13 1_555 1_555
H7 C14 1_555 1_555
C15 C10 1_555 1_555
H8 C15 1_555 1_555
C16 N2 1_555 1_555
H9 C16 1_555 1_555
H10 C16 1_555 1_555
H11 C16 1_555 1_555
H12 N1 1_555 1_555
C5 C6 1_555 1_555
C7 C8 1_555 1_555
C10 C11 1_555 1_555
C14 C15 1_555 1_555

#END
