
#######################################################################
#
#                 Cambridge Crystallographic Data Centre
#                                CCDC 
#
#######################################################################
#
# If this CIF has been generated from an entry in the Cambridge 
# Structural Database, then it will include bibliographic, chemical, 
# crystal, experimental, refinement or atomic coordinate data resulting 
# from the CCDC's data processing and validation procedures.
#
#######################################################################

data_YAHXEM01
_chemical_formula_moiety         'C9 H10 N4'
_chemical_name_systematic        2-(1H-Imidazol-1-yl)-4,6-dimethylpyrimidine
_symmetry_cell_setting           monoclinic
_symmetry_space_group_name_H-M   'P 21/c'
_symmetry_Int_Tables_number      14
_space_group_name_Hall           '-P 2ybc'
loop_
_symmetry_equiv_pos_site_id
_symmetry_equiv_pos_as_xyz
1 x,y,z
2 -x,1/2+y,1/2-z
3 -x,-y,-z
4 x,1/2-y,1/2+z
_cell_length_a                   9.311(5)
_cell_length_b                   26.767(14)
_cell_length_c                   7.131(4)
_cell_angle_alpha                90
_cell_angle_beta                 91.190(7)
_cell_angle_gamma                90
_cell_volume                     1776.86
_exptl_crystal_colour            colorless
_exptl_crystal_description       block
_cell_formula_units_Z            8
loop_
_atom_site_label
_atom_site_type_symbol
_atom_site_fract_x
_atom_site_fract_y
_atom_site_fract_z
C1 C 0.4966(4) 0.82594(15) 0.3869(6)
C2 C 0.6303(4) 0.80874(15) 0.4414(6)
H1 H 0.7038 0.8311 0.4716
C3 C 0.6540(4) 0.75776(15) 0.4504(5)
C4 C 0.4226(4) 0.74641(14) 0.3633(5)
C5 C 0.4641(5) 0.88076(16) 0.3682(8)
H2 H 0.4911 0.8921 0.2462
H3 H 0.5173 0.8990 0.4625
H4 H 0.3632 0.8862 0.3840
C6 C 0.7979(4) 0.73581(17) 0.4995(7)
H5 H 0.7879 0.7120 0.5990
H6 H 0.8622 0.7619 0.5394
H7 H 0.8357 0.7194 0.3914
C7 C 0.3131(5) 0.66137(15) 0.3313(7)
H8 H 0.3909 0.6416 0.3677
C8 C 0.1821(5) 0.64585(17) 0.2757(8)
H9 H 0.1549 0.6125 0.2667
C9 C 0.1730(4) 0.72446(16) 0.2625(7)
H10 H 0.1410 0.7570 0.2436
N1 N 0.5468(3) 0.72557(12) 0.4115(4)
N2 N 0.3889(3) 0.79413(12) 0.3463(5)
N3 N 0.3083(3) 0.71270(11) 0.3232(5)
N4 N 0.0934(4) 0.68531(14) 0.2340(6)
C10 C 0.0051(4) 0.57930(14) 0.7594(5)
C11 C -0.1296(4) 0.56130(15) 0.8013(6)
H11 H -0.2040 0.5833 0.8263
C12 C -0.1527(4) 0.51071(15) 0.8058(5)
C13 C 0.0785(4) 0.49967(13) 0.7266(5)
C14 C 0.0390(5) 0.63423(15) 0.7565(7)
H12 H 0.0769 0.6442 0.8770
H13 H -0.0471 0.6528 0.7283
H14 H 0.1088 0.6408 0.6624
C15 C -0.2938(4) 0.48849(17) 0.8531(7)
H15 H -0.3368 0.4738 0.7427
H16 H -0.3557 0.5141 0.8999
H17 H -0.2799 0.4632 0.9473
C16 C 0.1859(4) 0.41481(14) 0.6902(6)
H18 H 0.1089 0.3949 0.7248
C17 C 0.3160(5) 0.39949(16) 0.6354(7)
H19 H 0.3440 0.3662 0.6270
C18 C 0.3258(4) 0.47852(16) 0.6257(6)
H20 H 0.3586 0.5111 0.6110
N5 N 0.1125(3) 0.54789(11) 0.7213(4)
N6 N -0.0461(3) 0.47867(11) 0.7661(4)
N7 N 0.1907(3) 0.46641(11) 0.6841(4)
N8 N 0.4019(4) 0.43924(14) 0.5936(6)
loop_
_geom_bond_atom_site_label_1
_geom_bond_atom_site_label_2
_geom_bond_site_symmetry_1
_geom_bond_site_symmetry_2
C1 C2 1_555 1_555
C2 H1 1_555 1_555
C3 C2 1_555 1_555
C4 N1 1_555 1_555
C5 C1 1_555 1_555
H2 C5 1_555 1_555
H3 C5 1_555 1_555
H4 C5 1_555 1_555
C6 C3 1_555 1_555
H5 C6 1_555 1_555
H6 C6 1_555 1_555
H7 C6 1_555 1_555
C7 H8 1_555 1_555
C8 C7 1_555 1_555
H9 C8 1_555 1_555
C9 H10 1_555 1_555
N1 C3 1_555 1_555
N2 C1 1_555 1_555
N3 C4 1_555 1_555
N4 C8 1_555 1_555
C10 C11 1_555 1_555
C11 H11 1_555 1_555
C12 C11 1_555 1_555
C13 N5 1_555 1_555
C14 C10 1_555 1_555
H12 C14 1_555 1_555
H13 C14 1_555 1_555
H14 C14 1_555 1_555
C15 C12 1_555 1_555
H15 C15 1_555 1_555
H16 C15 1_555 1_555
H17 C15 1_555 1_555
C16 H18 1_555 1_555
C17 C16 1_555 1_555
H19 C17 1_555 1_555
C18 H20 1_555 1_555
N5 C10 1_555 1_555
N6 C12 1_555 1_555
N7 C13 1_555 1_555
N8 C17 1_555 1_555
C4 N2 1_555 1_555
C7 N3 1_555 1_555
C9 N3 1_555 1_555
C9 N4 1_555 1_555
C13 N6 1_555 1_555
C16 N7 1_555 1_555
C18 N7 1_555 1_555
C18 N8 1_555 1_555

#END
