
#######################################################################
#
#                 Cambridge Crystallographic Data Centre
#                                CCDC 
#
#######################################################################
#
# If this CIF has been generated from an entry in the Cambridge 
# Structural Database, then it will include bibliographic, chemical, 
# crystal, experimental, refinement or atomic coordinate data resulting 
# from the CCDC's data processing and validation procedures.
#
#######################################################################

data_YAJFOG
_chemical_compound_source        'Burkholderia thailandensis E264'
_chemical_name_common            'Thailandepsin A'
_chemical_formula_moiety         'C23 H37 N3 O6 S3'
_chemical_name_systematic        
(E)-(1S,5S,6R,9S,20R)-6-[(2S)-butan-2-yl]-5-hydroxy-20-[2-(methylsulfanyl)ethyl]-2-oxa-11,12-dithia-7,19,22-triazabicyclo[7.7.6]docosa-15-ene-3,8,18,21-tetraone
_symmetry_cell_setting           orthorhombic
_symmetry_space_group_name_H-M   'P 21 21 21'
_symmetry_Int_Tables_number      19
_space_group_name_Hall           'P 2ac 2ab'
loop_
_symmetry_equiv_pos_site_id
_symmetry_equiv_pos_as_xyz
1 x,y,z
2 1/2-x,-y,1/2+z
3 -x,1/2+y,1/2-z
4 1/2+x,1/2-y,-z
_cell_length_a                   12.7747(3)
_cell_length_b                   13.2926(3)
_cell_length_c                   15.4218(4)
_cell_angle_alpha                90
_cell_angle_beta                 90
_cell_angle_gamma                90
_cell_volume                     2618.76
_exptl_crystal_colour            colorless
_exptl_crystal_description       block
_cell_formula_units_Z            4
loop_
_atom_site_label
_atom_site_type_symbol
_atom_site_fract_x
_atom_site_fract_y
_atom_site_fract_z
S1 S 1.10290(3) -0.14637(3) 0.38774(2)
S2 S 0.97356(3) -0.08216(3) 0.33328(2)
S3 S 0.91337(3) 0.40012(3) 0.40152(3)
O1 O 1.08885(10) -0.18335(9) 0.67591(8)
O2 O 0.77376(8) -0.09984(8) 0.61157(7)
O3 O 0.69383(9) -0.08629(9) 0.74184(7)
O4 O 0.85790(9) -0.16775(8) 0.88174(7)
H1 H 0.8699(17) -0.2254(7) 0.9016(13)
O5 O 1.11125(9) 0.14154(8) 0.55597(7)
O6 O 0.86120(9) 0.12479(8) 0.64747(7)
N1 N 0.99720(10) -0.04020(10) 0.70173(8)
H2 H 0.9652(14) 0.0126(9) 0.6798(12)
N2 N 1.00458(10) 0.00984(9) 0.52676(8)
H3 H 0.9444(8) -0.0082(14) 0.5038(12)
N3 N 0.83857(10) 0.13784(10) 0.50282(8)
H4 H 0.7955(12) 0.1335(15) 0.4584(8)
C1 C 1.05386(12) -0.10227(12) 0.65205(10)
C2 C 1.07489(12) -0.06840(11) 0.55727(9)
H5 H 1.1482 -0.0423 0.5537
C3 C 1.06714(13) -0.16258(12) 0.50086(10)
H6 H 0.9943 -0.1877 0.5034
H7 H 1.1128 -0.2151 0.5262
C4 C 0.88346(14) -0.18723(13) 0.31638(11)
H8 H 0.8850 -0.2082 0.2548
H9 H 0.9052 -0.2453 0.3524
C5 C 0.77251(12) -0.15466(13) 0.34132(11)
H10 H 0.7542 -0.0927 0.3091
H11 H 0.7225 -0.2079 0.3240
C6 C 0.76184(12) -0.13526(13) 0.43705(10)
H12 H 0.7980 -0.1793 0.4752
C7 C 0.70632(12) -0.06202(12) 0.47258(10)
H13 H 0.6720 -0.0170 0.4341
C8 C 0.69224(12) -0.04303(12) 0.56827(10)
H14 H 0.6227 -0.0704 0.5865
C9 C 0.76158(12) -0.12126(11) 0.69723(10)
C10 C 0.84280(12) -0.19799(11) 0.72498(10)
H15 H 0.8877 -0.2133 0.6743
H16 H 0.8059 -0.2608 0.7409
C11 C 0.91409(12) -0.16801(11) 0.80094(9)
H17 H 0.9724 -0.2180 0.8051
C12 C 0.96190(12) -0.06200(11) 0.79096(9)
H18 H 0.9029 -0.0143 0.8019
C13 C 1.04416(12) -0.03790(11) 0.86101(10)
H19 H 1.0124 -0.0559 0.9182
C14 C 1.06664(13) 0.07539(12) 0.86315(10)
H20 H 1.1138 0.0927 0.8144
H21 H 1.0002 0.1125 0.8548
C15 C 1.11702(14) 0.10927(13) 0.94810(11)
H22 H 1.0677 0.0988 0.9960
H23 H 1.1350 0.1808 0.9443
H24 H 1.1807 0.0700 0.9585
C16 C 1.14602(12) -0.09806(13) 0.85283(10)
H25 H 1.1848 -0.0752 0.8017
H26 H 1.1296 -0.1697 0.8467
H27 H 1.1888 -0.0878 0.9048
C17 C 1.02739(12) 0.10824(11) 0.52881(9)
C18 C 0.94399(12) 0.17890(11) 0.49209(10)
H28 H 0.9480 0.2442 0.5241
C19 C 0.80478(12) 0.11430(11) 0.58346(10)
C20 C 0.69604(12) 0.06994(12) 0.59060(10)
H29 H 0.6486 0.1068 0.5510
H30 H 0.6701 0.0797 0.6505
C21 C 0.96752(13) 0.19916(11) 0.39575(10)
H31 H 1.0409 0.2224 0.3904
H32 H 0.9613 0.1351 0.3634
C22 C 0.89580(13) 0.27705(12) 0.35353(10)
H33 H 0.8220 0.2558 0.3605
H34 H 0.9112 0.2807 0.2907
C23 C 0.82077(15) 0.46899(14) 0.33643(12)
H35 H 0.8190 0.5393 0.3554
H36 H 0.7510 0.4392 0.3431
H37 H 0.8419 0.4659 0.2754
loop_
_geom_bond_atom_site_label_1
_geom_bond_atom_site_label_2
_geom_bond_site_symmetry_1
_geom_bond_site_symmetry_2
S1 S2 1_555 1_555
S2 C4 1_555 1_555
S3 C22 1_555 1_555
O1 C1 1_555 1_555
O2 C8 1_555 1_555
O3 C9 1_555 1_555
O4 H1 1_555 1_555
O5 C17 1_555 1_555
O6 C19 1_555 1_555
N1 H2 1_555 1_555
N2 H3 1_555 1_555
N3 H4 1_555 1_555
C1 N1 1_555 1_555
C2 N2 1_555 1_555
H5 C2 1_555 1_555
C3 S1 1_555 1_555
H6 C3 1_555 1_555
H7 C3 1_555 1_555
C4 H8 1_555 1_555
H9 C4 1_555 1_555
C5 C4 1_555 1_555
H10 C5 1_555 1_555
H11 C5 1_555 1_555
C6 C5 1_555 1_555
H12 C6 1_555 1_555
C7 C6 1_555 1_555
H13 C7 1_555 1_555
C8 C7 1_555 1_555
H14 C8 1_555 1_555
C9 O2 1_555 1_555
C10 C9 1_555 1_555
H15 C10 1_555 1_555
H16 C10 1_555 1_555
C11 O4 1_555 1_555
H17 C11 1_555 1_555
C12 N1 1_555 1_555
H18 C12 1_555 1_555
C13 C12 1_555 1_555
H19 C13 1_555 1_555
C14 C13 1_555 1_555
H20 C14 1_555 1_555
H21 C14 1_555 1_555
C15 C14 1_555 1_555
H22 C15 1_555 1_555
H23 C15 1_555 1_555
H24 C15 1_555 1_555
C16 C13 1_555 1_555
H25 C16 1_555 1_555
H26 C16 1_555 1_555
H27 C16 1_555 1_555
C17 N2 1_555 1_555
C18 N3 1_555 1_555
H28 C18 1_555 1_555
C19 N3 1_555 1_555
C20 C8 1_555 1_555
H29 C20 1_555 1_555
H30 C20 1_555 1_555
C21 C18 1_555 1_555
H31 C21 1_555 1_555
H32 C21 1_555 1_555
C22 C21 1_555 1_555
H33 C22 1_555 1_555
H34 C22 1_555 1_555
C23 S3 1_555 1_555
H35 C23 1_555 1_555
H36 C23 1_555 1_555
H37 C23 1_555 1_555
C1 C2 1_555 1_555
C2 C3 1_555 1_555
C10 C11 1_555 1_555
C11 C12 1_555 1_555
C17 C18 1_555 1_555
C19 C20 1_555 1_555

#END
