
#######################################################################
#
#                 Cambridge Crystallographic Data Centre
#                                CCDC 
#
#######################################################################
#
# If this CIF has been generated from an entry in the Cambridge 
# Structural Database, then it will include bibliographic, chemical, 
# crystal, experimental, refinement or atomic coordinate data resulting 
# from the CCDC's data processing and validation procedures.
#
#######################################################################

data_YAJJUQ01
_chemical_formula_moiety         'C17 H14 O2'
_chemical_name_systematic        
1-(2-hydroxyphenyl)-5-phenylpenta-2,4-dien-1-one
_chemical_properties_biological  'anti-inflammatory activity'
_symmetry_cell_setting           orthorhombic
_symmetry_space_group_name_H-M   'P b c a'
_symmetry_Int_Tables_number      61
_space_group_name_Hall           '-P 2ac 2ab'
loop_
_symmetry_equiv_pos_site_id
_symmetry_equiv_pos_as_xyz
1 x,y,z
2 1/2-x,-y,1/2+z
3 1/2+x,1/2-y,-z
4 -x,1/2+y,1/2-z
5 -x,-y,-z
6 1/2+x,y,1/2-z
7 1/2-x,1/2+y,z
8 x,1/2-y,1/2+z
_cell_length_a                   10.8190(2)
_cell_length_b                   7.9031(2)
_cell_length_c                   30.1667(10)
_cell_angle_alpha                90
_cell_angle_beta                 90
_cell_angle_gamma                90
_cell_volume                     2579.36
_exptl_crystal_colour            'light yellow'
_exptl_crystal_description       needle
_cell_formula_units_Z            8
loop_
_atom_site_label
_atom_site_type_symbol
_atom_site_fract_x
_atom_site_fract_y
_atom_site_fract_z
O1 O 0.40207(10) 0.37151(16) 0.50380(4)
O2 O 0.42417(10) 0.54239(17) 0.57434(4)
H1 H 0.4463 0.5010 0.5507
C1 C 0.30003(15) 0.5309(2) 0.57793(5)
C2 C 0.24523(16) 0.6096(2) 0.61428(6)
H2 H 0.2937 0.6663 0.6350
C3 C 0.11857(17) 0.6028(2) 0.61940(6)
H3 H 0.0820 0.6558 0.6436
C4 C 0.04503(16) 0.5178(2) 0.58894(6)
H4 H -0.0401 0.5129 0.5929
C5 C 0.09875(15) 0.4409(2) 0.55286(6)
H5 H 0.0491 0.3850 0.5324
C6 C 0.22747(14) 0.4451(2) 0.54634(5)
C7 C 0.28723(14) 0.3652(2) 0.50787(5)
C8 C 0.21375(14) 0.2822(2) 0.47332(5)
H6 H 0.1329 0.2499 0.4794
C9 C 0.26123(14) 0.2522(2) 0.43306(5)
H7 H 0.3436 0.2801 0.4281
C10 C 0.19245(14) 0.1794(2) 0.39704(6)
H8 H 0.1137 0.1380 0.4029
C11 C 0.23522(14) 0.1676(2) 0.35549(6)
H9 H 0.3153 0.2059 0.3505
C12 C 0.16834(15) 0.1006(2) 0.31712(6)
C13 C 0.21953(16) 0.1169(2) 0.27495(6)
H10 H 0.2959 0.1693 0.2716
C14 C 0.15791(18) 0.0558(3) 0.23788(6)
H11 H 0.1929 0.0682 0.2099
C15 C 0.04499(17) -0.0231(3) 0.24243(7)
H12 H 0.0038 -0.0645 0.2176
C16 C -0.00666(17) -0.0402(3) 0.28417(6)
H13 H -0.0830 -0.0930 0.2873
C17 C 0.05377(15) 0.0200(2) 0.32114(6)
H14 H 0.0181 0.0069 0.3490
loop_
_geom_bond_atom_site_label_1
_geom_bond_atom_site_label_2
_geom_bond_site_symmetry_1
_geom_bond_site_symmetry_2
O1 C7 1_555 1_555
O2 H1 1_555 1_555
C1 O2 1_555 1_555
C2 C1 1_555 1_555
H2 C2 1_555 1_555
C3 C2 1_555 1_555
H3 C3 1_555 1_555
C4 C3 1_555 1_555
H4 C4 1_555 1_555
C5 C4 1_555 1_555
H5 C5 1_555 1_555
C6 C1 1_555 1_555
C7 C6 1_555 1_555
C8 C7 1_555 1_555
H6 C8 1_555 1_555
C9 C8 1_555 1_555
H7 C9 1_555 1_555
C10 C9 1_555 1_555
H8 C10 1_555 1_555
C11 C10 1_555 1_555
H9 C11 1_555 1_555
C12 C11 1_555 1_555
C13 C12 1_555 1_555
H10 C13 1_555 1_555
C14 C13 1_555 1_555
H11 C14 1_555 1_555
C15 C14 1_555 1_555
H12 C15 1_555 1_555
C16 C15 1_555 1_555
H13 C16 1_555 1_555
C17 C12 1_555 1_555
H14 C17 1_555 1_555
C5 C6 1_555 1_555
C16 C17 1_555 1_555

#END
