
#######################################################################
#
#                 Cambridge Crystallographic Data Centre
#                                CCDC 
#
#######################################################################
#
# If this CIF has been generated from an entry in the Cambridge 
# Structural Database, then it will include bibliographic, chemical, 
# crystal, experimental, refinement or atomic coordinate data resulting 
# from the CCDC's data processing and validation procedures.
#
#######################################################################

data_YAJKOM
_chemical_formula_moiety         'C19 H17 N1 O4'
_chemical_name_systematic        
'2-(3,5-dimethylphenyl)-3-(1,3-dioxo-1,3-dihydro-2H-isoindol-2-yl)propanoic acid'
_symmetry_cell_setting           triclinic
_symmetry_space_group_name_H-M   'P -1'
_symmetry_Int_Tables_number      2
_space_group_name_Hall           '-P 1'
loop_
_symmetry_equiv_pos_site_id
_symmetry_equiv_pos_as_xyz
1 x,y,z
2 -x,-y,-z
_cell_length_a                   8.1250(16)
_cell_length_b                   9.3280(19)
_cell_length_c                   11.408(2)
_cell_angle_alpha                90.91(3)
_cell_angle_beta                 96.19(3)
_cell_angle_gamma                107.69(3)
_cell_volume                     817.845
_exptl_crystal_description       block
_cell_formula_units_Z            2
loop_
_atom_site_label
_atom_site_type_symbol
_atom_site_fract_x
_atom_site_fract_y
_atom_site_fract_z
N1 N 0.7101(4) 0.5661(3) 0.6651(3)
O1 O 1.0037(4) 0.6857(3) 0.7012(3)
C1 C 0.8836(5) 0.5725(5) 0.6703(4)
O2 O 0.4444(3) 0.3880(3) 0.6031(2)
C2 C 0.8852(5) 0.4215(4) 0.6342(3)
O3 O 0.4539(4) 0.5570(3) 0.8629(2)
C3 C 1.0256(6) 0.3680(6) 0.6272(4)
H1 H 1.1397 0.4278 0.6493
O4 O 0.6927(3) 0.6395(3) 0.9914(3)
H2 H 0.6354 0.5736 1.0305
C4 C 0.9848(8) 0.2188(7) 0.5849(4)
H3 H 1.0745 0.1783 0.5760
C5 C 0.8175(8) 0.1311(5) 0.5564(4)
H4 H 0.7956 0.0311 0.5309
C6 C 0.6766(6) 0.1868(5) 0.5643(4)
H5 H 0.5620 0.1274 0.5434
C7 C 0.7177(5) 0.3323(4) 0.6043(3)
C8 C 0.6007(5) 0.4236(4) 0.6218(3)
C9 C 0.6502(5) 0.6957(4) 0.6834(3)
H6 H 0.5253 0.6665 0.6619
H7 H 0.7039 0.7737 0.6320
C10 C 0.6929(5) 0.7588(4) 0.8103(3)
H8 H 0.8189 0.7840 0.8312
C11 C 0.6055(5) 0.6416(4) 0.8927(4)
C12 C 0.6430(5) 0.9010(4) 0.8288(3)
C13 C 0.4744(5) 0.9050(4) 0.7992(3)
H9 H 0.3895 0.8188 0.7657
C14 C 0.4302(5) 1.0341(4) 0.8185(3)
C15 C 0.5605(5) 1.1602(4) 0.8698(3)
H10 H 0.5317 1.2474 0.8847
C16 C 0.7301(5) 1.1622(4) 0.8995(3)
C17 C 0.7682(5) 1.0308(4) 0.8781(3)
H11 H 0.8817 1.0290 0.8974
C18 C 0.2468(5) 1.0396(4) 0.7905(4)
H12 H 0.1737 0.9439 0.7558
H13 H 0.2454 1.1167 0.7360
H14 H 0.2044 1.0617 0.8618
C19 C 0.8669(6) 1.3015(4) 0.9563(4)
H15 H 0.8163 1.3814 0.9633
H16 H 0.9605 1.3319 0.9083
H17 H 0.9108 1.2798 1.0332
loop_
_geom_bond_atom_site_label_1
_geom_bond_atom_site_label_2
_geom_bond_site_symmetry_1
_geom_bond_site_symmetry_2
N1 C1 1_555 1_555
O1 C1 1_555 1_555
C1 C2 1_555 1_555
O2 C8 1_555 1_555
C2 C3 1_555 1_555
O3 C11 1_555 1_555
C3 H1 1_555 1_555
O4 H2 1_555 1_555
C4 C3 1_555 1_555
H3 C4 1_555 1_555
C5 C4 1_555 1_555
H4 C5 1_555 1_555
C6 C5 1_555 1_555
H5 C6 1_555 1_555
C7 C2 1_555 1_555
C8 N1 1_555 1_555
C9 N1 1_555 1_555
H6 C9 1_555 1_555
H7 C9 1_555 1_555
C10 C9 1_555 1_555
H8 C10 1_555 1_555
C11 O4 1_555 1_555
C12 C10 1_555 1_555
C13 C12 1_555 1_555
H9 C13 1_555 1_555
C14 C13 1_555 1_555
C15 C14 1_555 1_555
H10 C15 1_555 1_555
C16 C15 1_555 1_555
C17 C12 1_555 1_555
H11 C17 1_555 1_555
C18 C14 1_555 1_555
H12 C18 1_555 1_555
H13 C18 1_555 1_555
H14 C18 1_555 1_555
C19 C16 1_555 1_555
H15 C19 1_555 1_555
H16 C19 1_555 1_555
H17 C19 1_555 1_555
C6 C7 1_555 1_555
C7 C8 1_555 1_555
C10 C11 1_555 1_555
C16 C17 1_555 1_555

#END
