
#######################################################################
#
#                 Cambridge Crystallographic Data Centre
#                                CCDC 
#
#######################################################################
#
# If this CIF has been generated from an entry in the Cambridge 
# Structural Database, then it will include bibliographic, chemical, 
# crystal, experimental, refinement or atomic coordinate data resulting 
# from the CCDC's data processing and validation procedures.
#
#######################################################################

data_YAJLAY
_chemical_formula_moiety         'C33 H39 N1 O4 S2'
_chemical_name_systematic        
6',7'-bis(benzyloxy)-5'-((benzyloxy)methyl)-3'-methylhexahydrospiro[1,3-dithiane-2,1'-pyrrolizin]-2'-ol
_symmetry_cell_setting           orthorhombic
_symmetry_space_group_name_H-M   'P 21 21 21'
_symmetry_Int_Tables_number      19
_space_group_name_Hall           'P 2ac 2ab'
loop_
_symmetry_equiv_pos_site_id
_symmetry_equiv_pos_as_xyz
1 x,y,z
2 1/2-x,-y,1/2+z
3 -x,1/2+y,1/2-z
4 1/2+x,1/2-y,-z
_cell_length_a                   8.7786(18)
_cell_length_b                   14.075(3)
_cell_length_c                   24.580(5)
_cell_angle_alpha                90
_cell_angle_beta                 90
_cell_angle_gamma                90
_cell_volume                     3037.08
_exptl_crystal_colour            colorless
_exptl_crystal_description       block
_cell_formula_units_Z            4
loop_
_atom_site_label
_atom_site_type_symbol
_atom_site_fract_x
_atom_site_fract_y
_atom_site_fract_z
S1 S 0.57439(8) 0.42483(5) 0.11041(3)
S2 S 0.71009(8) 0.48629(5) 0.00386(3)
O1 O 1.0696(2) 0.12175(14) 0.11820(8)
O2 O 1.0248(2) 0.48010(12) 0.10473(8)
O3 O 1.0325(2) 0.33596(14) 0.20317(8)
O4 O 0.6910(2) 0.27311(13) -0.02327(8)
H1 H 0.6369 0.3011 -0.0465
N1 N 0.8357(2) 0.25468(15) 0.08327(9)
C1 C 1.2632(4) 0.0549(2) 0.23792(13)
H2 H 1.2003 0.0020 0.2463
C2 C 1.3530(4) 0.0964(3) 0.27817(15)
H3 H 1.3510 0.0716 0.3141
C3 C 1.4445(4) 0.1728(3) 0.26629(16)
H4 H 1.5048 0.2009 0.2940
C4 C 1.4488(4) 0.2088(3) 0.21403(16)
H5 H 1.5128 0.2612 0.2056
C5 C 1.3599(4) 0.1682(2) 0.17424(14)
H6 H 1.3628 0.1933 0.1384
C6 C 1.2659(3) 0.0913(2) 0.18558(12)
C7 C 1.1675(4) 0.0510(2) 0.14137(13)
H7 H 1.2331 0.0241 0.1125
H8 H 1.1047 -0.0011 0.1564
C8 C 1.0754(4) 0.6785(2) 0.04686(13)
H9 H 1.0078 0.6502 0.0214
C9 C 1.1708(4) 0.7509(2) 0.03017(15)
H10 H 1.1693 0.7719 -0.0066
C10 C 1.2678(4) 0.7924(2) 0.06701(16)
H11 H 1.3323 0.8430 0.0559
C11 C 1.2720(4) 0.7611(2) 0.12000(15)
H12 H 1.3399 0.7893 0.1454
C12 C 1.1764(4) 0.6880(2) 0.13609(14)
H13 H 1.1798 0.6663 0.1727
C13 C 1.0767(3) 0.64632(17) 0.10006(12)
C14 C 0.9673(3) 0.57120(19) 0.11861(14)
H14 H 0.9533 0.5755 0.1585
H15 H 0.8671 0.5811 0.1010
C15 C 1.1275(4) 0.3391(2) 0.31027(13)
H16 H 1.0376 0.3059 0.3002
C16 C 1.1771(4) 0.3374(2) 0.36371(13)
H17 H 1.1202 0.3034 0.3902
C17 C 1.3072(4) 0.3841(2) 0.37900(13)
H18 H 1.3412 0.3817 0.4157
C18 C 1.3882(4) 0.4345(2) 0.34072(13)
H19 H 1.4777 0.4679 0.3510
C19 C 1.3396(4) 0.4365(2) 0.28756(13)
H20 H 1.3967 0.4709 0.2613
C20 C 1.2085(3) 0.38904(18) 0.27173(12)
C21 C 1.1619(4) 0.3937(2) 0.21291(12)
H21 H 1.1383 0.4603 0.2031
H22 H 1.2474 0.3721 0.1897
C22 C 0.9231(3) 0.40450(18) 0.11930(11)
H23 H 0.8419 0.4298 0.1439
C23 C 1.0020(3) 0.32225(18) 0.14668(11)
H24 H 1.0979 0.3057 0.1269
C24 C 0.8846(3) 0.24283(19) 0.14029(11)
H25 H 0.7961 0.2564 0.1647
C25 C 0.8489(3) 0.35769(18) 0.06969(11)
H26 H 0.9195 0.3645 0.0380
C26 C 0.6883(3) 0.38878(18) 0.05161(11)
C27 C 0.6243(3) 0.29454(18) 0.02778(11)
H27 H 0.5106 0.2961 0.0254
C28 C 0.6781(3) 0.22273(18) 0.06976(11)
H28 H 0.6136 0.2298 0.1030
C29 C 0.6681(3) 0.12078(19) 0.05081(13)
H29 H 0.7036 0.0785 0.0798
H30 H 0.7320 0.1122 0.0185
H31 H 0.5621 0.1055 0.0418
C30 C 0.5123(3) 0.5110(2) -0.01195(13)
H32 H 0.5084 0.5628 -0.0391
H33 H 0.4670 0.4538 -0.0289
C31 C 0.4162(4) 0.5390(2) 0.03627(13)
H34 H 0.3140 0.5579 0.0231
H35 H 0.4629 0.5951 0.0539
C32 C 0.3978(3) 0.4610(2) 0.07858(13)
H36 H 0.3509 0.4049 0.0610
H37 H 0.3270 0.4834 0.1072
C33 C 0.9475(3) 0.1455(2) 0.15401(12)
H38 H 0.9845 0.1451 0.1921
H39 H 0.8656 0.0975 0.1507
loop_
_geom_bond_atom_site_label_1
_geom_bond_atom_site_label_2
_geom_bond_site_symmetry_1
_geom_bond_site_symmetry_2
S1 C26 1_555 1_555
S2 C26 1_555 1_555
O1 C7 1_555 1_555
O2 C14 1_555 1_555
O3 C21 1_555 1_555
O4 H1 1_555 1_555
N1 C24 1_555 1_555
C1 H2 1_555 1_555
C2 C1 1_555 1_555
H3 C2 1_555 1_555
C3 C2 1_555 1_555
H4 C3 1_555 1_555
C4 C3 1_555 1_555
H5 C4 1_555 1_555
C5 C4 1_555 1_555
H6 C5 1_555 1_555
C6 C1 1_555 1_555
C7 C6 1_555 1_555
H7 C7 1_555 1_555
H8 C7 1_555 1_555
C8 H9 1_555 1_555
C9 C8 1_555 1_555
H10 C9 1_555 1_555
C10 C9 1_555 1_555
H11 C10 1_555 1_555
C11 C10 1_555 1_555
H12 C11 1_555 1_555
C12 C11 1_555 1_555
H13 C12 1_555 1_555
C13 C8 1_555 1_555
C14 C13 1_555 1_555
H14 C14 1_555 1_555
H15 C14 1_555 1_555
C15 H16 1_555 1_555
C16 C15 1_555 1_555
H17 C16 1_555 1_555
C17 C16 1_555 1_555
H18 C17 1_555 1_555
C18 C17 1_555 1_555
H19 C18 1_555 1_555
C19 C18 1_555 1_555
H20 C19 1_555 1_555
C20 C15 1_555 1_555
C21 C20 1_555 1_555
H21 C21 1_555 1_555
H22 C21 1_555 1_555
C22 O2 1_555 1_555
H23 C22 1_555 1_555
C23 O3 1_555 1_555
H24 C23 1_555 1_555
C24 C23 1_555 1_555
H25 C24 1_555 1_555
C25 N1 1_555 1_555
H26 C25 1_555 1_555
C26 C25 1_555 1_555
C27 O4 1_555 1_555
H27 C27 1_555 1_555
C28 N1 1_555 1_555
H28 C28 1_555 1_555
C29 C28 1_555 1_555
H29 C29 1_555 1_555
H30 C29 1_555 1_555
H31 C29 1_555 1_555
C30 S2 1_555 1_555
H32 C30 1_555 1_555
H33 C30 1_555 1_555
C31 C30 1_555 1_555
H34 C31 1_555 1_555
H35 C31 1_555 1_555
C32 S1 1_555 1_555
H36 C32 1_555 1_555
H37 C32 1_555 1_555
C33 O1 1_555 1_555
H38 C33 1_555 1_555
H39 C33 1_555 1_555
C5 C6 1_555 1_555
C12 C13 1_555 1_555
C19 C20 1_555 1_555
C22 C23 1_555 1_555
C22 C25 1_555 1_555
C24 C33 1_555 1_555
C26 C27 1_555 1_555
C27 C28 1_555 1_555
C31 C32 1_555 1_555

#END
