
#######################################################################
#
#                 Cambridge Crystallographic Data Centre
#                                CCDC 
#
#######################################################################
#
# If this CIF has been generated from an entry in the Cambridge 
# Structural Database, then it will include bibliographic, chemical, 
# crystal, experimental, refinement or atomic coordinate data resulting 
# from the CCDC's data processing and validation procedures.
#
#######################################################################

data_YAJNII
_chemical_formula_moiety         'C15 H15 N3 O1 S1'
_chemical_name_systematic        
6-((4-Methylphenyl)amino)-8-oxo-5-thia-9-azaspiro[3.5]non-6-ene-7-carbonitrile
_symmetry_cell_setting           triclinic
_symmetry_space_group_name_H-M   'P -1'
_symmetry_Int_Tables_number      2
_space_group_name_Hall           '-P 1'
loop_
_symmetry_equiv_pos_site_id
_symmetry_equiv_pos_as_xyz
1 x,y,z
2 -x,-y,-z
_cell_length_a                   6.4434(6)
_cell_length_b                   11.2490(12)
_cell_length_c                   11.3527(14)
_cell_angle_alpha                115.042(2)
_cell_angle_beta                 104.4810(10)
_cell_angle_gamma                94.4050(10)
_cell_volume                     706.008
_exptl_crystal_colour            'pale yellow'
_exptl_crystal_description       block
_cell_formula_units_Z            2
loop_
_atom_site_label
_atom_site_type_symbol
_atom_site_fract_x
_atom_site_fract_y
_atom_site_fract_z
N1 N 0.3966(4) 0.0659(2) 0.8820(2)
H1 H 0.3918 -0.0101 0.8834
N2 N 0.9101(4) 0.4837(3) 1.1190(3)
N3 N 0.6142(4) 0.3574(2) 0.7724(2)
H2 H 0.7201 0.4229 0.8326
O1 O 0.6969(3) 0.1627(2) 1.0697(2)
S1 S 0.32021(12) 0.13800(8) 0.68032(7)
C1 C 0.2189(4) 0.0804(3) 0.7873(3)
C2 C 0.0464(5) 0.1552(3) 0.8397(3)
H3 H 0.0541 0.2422 0.8410
H4 H 0.0413 0.1614 0.9268
C3 C -0.1314(5) 0.0433(4) 0.7152(4)
H5 H -0.2509 0.0095 0.7379
H6 H -0.1864 0.0657 0.6412
C4 C 0.0360(5) -0.0453(3) 0.6931(3)
H7 H 0.0380 -0.0887 0.5993
H8 H 0.0275 -0.1095 0.7287
C5 C 0.5719(4) 0.1670(3) 0.9695(3)
C6 C 0.6110(4) 0.2791(3) 0.9387(3)
C7 C 0.5300(4) 0.2708(3) 0.8094(3)
C8 C 0.7772(5) 0.3926(3) 1.0412(3)
C9 C 0.5362(5) 0.3460(3) 0.6371(3)
C10 C 0.3405(5) 0.3814(3) 0.5960(3)
H9 H 0.2614 0.4162 0.6566
C11 C 0.2633(5) 0.3644(3) 0.4631(3)
H10 H 0.1309 0.3876 0.4354
C12 C 0.3772(5) 0.3140(3) 0.3713(3)
C13 C 0.5750(5) 0.2830(3) 0.4161(3)
H11 H 0.6568 0.2511 0.3566
C14 C 0.6542(5) 0.2987(3) 0.5480(3)
H12 H 0.7879 0.2770 0.5763
C15 C 0.2882(6) 0.2913(4) 0.2254(3)
H13 H 0.3990 0.3314 0.2027
H14 H 0.1626 0.3313 0.2160
H15 H 0.2462 0.1967 0.1648
loop_
_geom_bond_atom_site_label_1
_geom_bond_atom_site_label_2
_geom_bond_site_symmetry_1
_geom_bond_site_symmetry_2
N1 H1 1_555 1_555
N2 C8 1_555 1_555
N3 H2 1_555 1_555
O1 C5 1_555 1_555
S1 C1 1_555 1_555
C1 N1 1_555 1_555
C2 C1 1_555 1_555
H3 C2 1_555 1_555
H4 C2 1_555 1_555
C3 C2 1_555 1_555
H5 C3 1_555 1_555
H6 C3 1_555 1_555
C4 C1 1_555 1_555
H7 C4 1_555 1_555
H8 C4 1_555 1_555
C5 N1 1_555 1_555
C6 C5 1_555 1_555
C7 N3 1_555 1_555
C8 C6 1_555 1_555
C9 N3 1_555 1_555
C10 C9 1_555 1_555
H9 C10 1_555 1_555
C11 C10 1_555 1_555
H10 C11 1_555 1_555
C12 C11 1_555 1_555
C13 C12 1_555 1_555
H11 C13 1_555 1_555
C14 C9 1_555 1_555
H12 C14 1_555 1_555
C15 C12 1_555 1_555
H13 C15 1_555 1_555
H14 C15 1_555 1_555
H15 C15 1_555 1_555
S1 C7 1_555 1_555
C3 C4 1_555 1_555
C6 C7 1_555 1_555
C13 C14 1_555 1_555

#END
