
#######################################################################
#
#                 Cambridge Crystallographic Data Centre
#                                CCDC 
#
#######################################################################
#
# If this CIF has been generated from an entry in the Cambridge 
# Structural Database, then it will include bibliographic, chemical, 
# crystal, experimental, refinement or atomic coordinate data resulting 
# from the CCDC's data processing and validation procedures.
#
#######################################################################

data_YAJNEE
_chemical_formula_moiety         'C15 H15 N3 O1 S1'
_chemical_name_systematic        
7-Anilino-9-oxo-6-thia-10-azaspiro[4.5]dec-7-ene-8-carbonitrile
_symmetry_cell_setting           triclinic
_symmetry_space_group_name_H-M   'P -1'
_symmetry_Int_Tables_number      2
_space_group_name_Hall           '-P 1'
loop_
_symmetry_equiv_pos_site_id
_symmetry_equiv_pos_as_xyz
1 x,y,z
2 -x,-y,-z
_cell_length_a                   10.7281(12)
_cell_length_b                   11.1802(15)
_cell_length_c                   14.3213(19)
_cell_angle_alpha                101.4250(10)
_cell_angle_beta                 102.8360(10)
_cell_angle_gamma                112.312(2)
_cell_volume                     1471.5
_exptl_crystal_colour            'pale yellow'
_exptl_crystal_description       block
_cell_formula_units_Z            4
loop_
_atom_site_label
_atom_site_type_symbol
_atom_site_fract_x
_atom_site_fract_y
_atom_site_fract_z
N1 N 0.9136(2) 0.6086(3) 0.46090(18)
H1 H 0.9161 0.5340 0.4340
N2 N 1.1378(3) 0.9484(3) 0.7800(2)
N3 N 0.7844(2) 0.8541(2) 0.64204(18)
H2 H 0.8467 0.9043 0.7003
O1 O 1.0794(2) 0.6467(2) 0.60613(15)
S1 S 0.70332(8) 0.68269(9) 0.45901(6)
C1 C 0.8284(3) 0.6555(3) 0.3988(2)
C2 C 0.7411(3) 0.5485(3) 0.2942(2)
H5 H 0.7333 0.4597 0.2959
H6 H 0.6460 0.5423 0.2718
C3 C 0.8209(19) 0.5968(19) 0.2267(12)
H7 H 0.7577 0.6002 0.1683
H8 H 0.8583 0.5342 0.2034
C4 C 0.9405(16) 0.7349(11) 0.2821(9)
H9 H 1.0311 0.7304 0.2953
H10 H 0.9408 0.7958 0.2424
C5 C 0.9200(4) 0.7840(3) 0.3758(3)
H11 H 0.8712 0.8407 0.3691
H12 H 1.0110 0.8369 0.4294
C6 C 0.9892(3) 0.6766(3) 0.5590(2)
C7 C 0.9570(3) 0.7822(3) 0.6089(2)
C8 C 0.8253(3) 0.7819(3) 0.5797(2)
C9 C 1.0573(3) 0.8711(3) 0.7046(2)
C10 C 0.6486(3) 0.8572(4) 0.6227(2)
C11 C 0.6492(16) 0.9806(14) 0.6648(17)
H13 H 0.7358 1.0572 0.6995
C12 C 0.5252(14) 0.9916(14) 0.656(2)
H14 H 0.5274 1.0763 0.6798
C13 C 0.396(4) 0.877(4) 0.6118(18)
H15 H 0.3111 0.8835 0.6047
C14 C 0.3950(4) 0.7487(4) 0.5775(3)
H16 H 0.3092 0.6703 0.5462
C15 C 0.5236(4) 0.7421(3) 0.5915(2)
H17 H 0.5246 0.6577 0.5793
N4 N 0.1335(2) 0.4550(2) 0.06415(18)
H3 H 0.1212 0.5260 0.0611
N5 N -0.0984(2) -0.0074(3) -0.13982(18)
N6 N 0.2762(2) 0.1577(2) -0.01436(17)
H4 H 0.2144 0.0824 -0.0599
O2 O -0.0642(2) 0.3224(2) -0.07215(15)
S2 S 0.36148(8) 0.40599(9) 0.10258(6)
C16 C 0.2450(3) 0.4684(3) 0.1489(2)
C17 C 0.1873(4) 0.3991(3) 0.2226(2)
H18 H 0.0999 0.3161 0.1868
H19 H 0.2568 0.3771 0.2621
C18 C 0.1608(14) 0.5004(8) 0.2876(7)
H20 H 0.1816 0.4962 0.3560
H21 H 0.0619 0.4833 0.2624
C19 C 0.2575(13) 0.6374(13) 0.2852(9)
H22 H 0.3252 0.6921 0.3521
H23 H 0.2019 0.6842 0.2642
C20 C 0.3363(3) 0.6191(3) 0.2125(2)
H24 H 0.4328 0.6364 0.2477
H25 H 0.3394 0.6785 0.1711
C21 C 0.0472(3) 0.3368(3) -0.0108(2)
C22 C 0.0908(3) 0.2280(3) -0.0197(2)
C23 C 0.2310(3) 0.2497(3) 0.0167(2)
C24 C -0.0146(3) 0.0984(3) -0.0866(2)
C25 C 0.4198(3) 0.1744(4) 0.0222(3)
C26 C 0.4851(16) 0.1835(14) 0.1180(12)
H26 H 0.4361 0.1795 0.1642
C27 C 0.6254(18) 0.1989(15) 0.1482(13)
H27 H 0.6682 0.2049 0.2141
C28 C 0.6927(4) 0.2045(5) 0.0885(4)
H28 H 0.7879 0.2219 0.1128
C29 C 0.6313(9) 0.1853(16) -0.0183(12)
H29 H 0.6814 0.1822 -0.0634
C30 C 0.4935(11) 0.1721(15) -0.0479(10)
H30 H 0.4491 0.1617 -0.1146
C31? C 0.638(2) 0.975(2) 0.611(3)
C32? C 0.5037(18) 0.9750(17) 0.592(3)
C33? C 0.387(6) 0.861(6) 0.575(3)
C34? C 0.2831(17) 0.4938(9) 0.3225(6)
C35? C 0.3313(17) 0.6346(17) 0.3146(11)
C36? C 0.446(4) 0.122(3) 0.101(2)
C37? C 0.580(3) 0.137(3) 0.139(3)
C38? C 0.658(2) 0.264(3) 0.029(2)
C39? C 0.760(2) 0.621(2) 0.2189(15)
C40? C 0.517(2) 0.246(3) -0.0091(18)
C41? C 0.849(2) 0.7525(14) 0.2683(9)
H31? H 0.7182 1.0513 0.6149
H32? H 0.4961 1.0551 0.5915
H33? H 0.2982 0.8619 0.5610
H34? H 0.0907 0.3871 0.2145
H35? H 0.1878 0.3108 0.2125
H36? H 0.3644 0.4754 0.3439
H37? H 0.2334 0.4841 0.3715
H38? H 0.2645 0.6704 0.3253
H39? H 0.4248 0.6954 0.3636
H40? H 0.7752 0.4796 0.2839
H41? H 0.6412 0.5040 0.2880
H42? H 0.4339 0.6479 0.2128
H43? H 0.2997 0.6755 0.1837
H44? H 0.3746 0.0782 0.1265
H45? H 0.6053 0.1087 0.1936
H46? H 0.7279 0.3224 0.0097
H47? H 0.7986 0.5830 0.1728
H48? H 0.6685 0.6129 0.1803
H49? H 0.4947 0.2863 -0.0572
H50? H 0.7962 0.8057 0.2607
H51? H 0.9216 0.7815 0.2365
H52? H 0.9207 0.8653 0.4157
H53? H 1.0174 0.7962 0.3886
loop_
_geom_bond_atom_site_label_1
_geom_bond_atom_site_label_2
_geom_bond_site_symmetry_1
_geom_bond_site_symmetry_2
N1 H1 1_555 1_555
N2 C9 1_555 1_555
N3 H2 1_555 1_555
N4 H3 1_555 1_555
N5 C24 1_555 1_555
N6 H4 1_555 1_555
O1 C6 1_555 1_555
O2 C21 1_555 1_555
S1 C1 1_555 1_555
S2 C16 1_555 1_555
C1 N1 1_555 1_555
C2 C1 1_555 1_555
H5 C2 1_555 1_555
H6 C2 1_555 1_555
C3 C2 1_555 1_555
H7 C3 1_555 1_555
H8 C3 1_555 1_555
C4 C3 1_555 1_555
H9 C4 1_555 1_555
H10 C4 1_555 1_555
C5 C1 1_555 1_555
H11 C5 1_555 1_555
H12 C5 1_555 1_555
C6 N1 1_555 1_555
C7 C6 1_555 1_555
C8 N3 1_555 1_555
C9 C7 1_555 1_555
C10 N3 1_555 1_555
C11 C10 1_555 1_555
H13 C11 1_555 1_555
C12 C11 1_555 1_555
H14 C12 1_555 1_555
C13 C12 1_555 1_555
H15 C13 1_555 1_555
C14 C13 1_555 1_555
H16 C14 1_555 1_555
C15 C10 1_555 1_555
H17 C15 1_555 1_555
C16 N4 1_555 1_555
C17 C16 1_555 1_555
H18 C17 1_555 1_555
H19 C17 1_555 1_555
C18 C17 1_555 1_555
H20 C18 1_555 1_555
H21 C18 1_555 1_555
C19 C18 1_555 1_555
H22 C19 1_555 1_555
H23 C19 1_555 1_555
C20 C16 1_555 1_555
H24 C20 1_555 1_555
H25 C20 1_555 1_555
C21 N4 1_555 1_555
C22 C21 1_555 1_555
C23 N6 1_555 1_555
C24 C22 1_555 1_555
C25 N6 1_555 1_555
C26 C25 1_555 1_555
H26 C26 1_555 1_555
C27 C26 1_555 1_555
H27 C27 1_555 1_555
C28 C27 1_555 1_555
H28 C28 1_555 1_555
C29 C28 1_555 1_555
H29 C29 1_555 1_555
C30 C25 1_555 1_555
H30 C30 1_555 1_555
S1 C8 1_555 1_555
S2 C23 1_555 1_555
C4 C5 1_555 1_555
C7 C8 1_555 1_555
C14 C15 1_555 1_555
C19 C20 1_555 1_555
C22 C23 1_555 1_555
C29 C30 1_555 1_555

#END
