
#######################################################################
#
#                 Cambridge Crystallographic Data Centre
#                                CCDC 
#
#######################################################################
#
# If this CIF has been generated from an entry in the Cambridge 
# Structural Database, then it will include bibliographic, chemical, 
# crystal, experimental, refinement or atomic coordinate data resulting 
# from the CCDC's data processing and validation procedures.
#
#######################################################################

data_YAJPOR
_chemical_name_common            
"[3]-(1,1'-dimethyl-4,4'-bipyridin-1-ium)-bis(cyclo[6]aramide)-pseudorotaxane bis(hexafluorophosphate) unknown solvate"
_chemical_formula_moiety         '2(C84 H114 N6 O18),C12 H14 N2 2+,2(F6 P1 1-)'
_chemical_name_systematic        
"[3]-(1,1'-dimethyl-4,4'-bipyridin-1-ium)-bis(5,7,19,21,33,35-hexakis(2-ethylbutoxy)-12,14,26,28,40,42-hexamethoxy-2,10,16,24,30,38-hexaazaheptacyclo[37.3.1.1^4,8^.1^11,15^.1^18,22^.1^25,29^.1^32,36^]octatetraconta-1(43),4(48),5,7,11(47),12,14,18(46),19,21,25(45),26,28,32(44),33,35,39,41-octadecaene-3,9,17,23,31,37-hexone)-pseudorotaxane bis(hexafluorophosphate) unknown solvate"
_symmetry_cell_setting           monoclinic
_symmetry_space_group_name_H-M   'P 21/c'
_symmetry_Int_Tables_number      14
_space_group_name_Hall           '-P 2ybc'
loop_
_symmetry_equiv_pos_site_id
_symmetry_equiv_pos_as_xyz
1 x,y,z
2 -x,1/2+y,1/2-z
3 -x,-y,-z
4 x,1/2-y,1/2+z
_cell_length_a                   22.630(8)
_cell_length_b                   23.529(9)
_cell_length_c                   19.425(7)
_cell_angle_alpha                90
_cell_angle_beta                 112.979(5)
_cell_angle_gamma                90
_cell_volume                     9522.32
_exptl_crystal_colour            red
_exptl_crystal_description       prism
_chemical_melting_point          '500 K'
_cell_formula_units_Z            2
_chemical_properties_physical    Air-sensitive
_exptl_crystal_recrystallization_method 'Vapour deposition'
_exptl_crystal_preparation       'pseudorotaxane, molecule recongnition'
loop_
_atom_site_label
_atom_site_type_symbol
_atom_site_fract_x
_atom_site_fract_y
_atom_site_fract_z
C1 C 0.0656(2) 0.43058(18) 0.1431(3)
H1 H 0.0901 0.4342 0.1953
C2 C 0.0476(2) 0.47795(19) 0.0991(3)
H2 H 0.0609 0.5143 0.1211
C3 C 0.0108(2) 0.47437(19) 0.0240(3)
C4 C -0.0039(2) 0.4198(2) -0.0068(3)
H3 H -0.0269 0.4151 -0.0591
C5 C 0.0150(2) 0.3732(2) 0.0391(3)
H4 H 0.0041 0.3362 0.0184
C6 C 0.0679(2) 0.32884(19) 0.1621(3)
H5 H 0.0583 0.2942 0.1316
H6 H 0.0440 0.3284 0.1947
H7 H 0.1140 0.3306 0.1927
N1 N 0.04873(16) 0.37907(15) 0.1127(2)
C1B C -0.0656(2) 0.56942(18) -0.1431(3)
H1B H -0.0901 0.5658 -0.1953
C2B C -0.0476(2) 0.52205(19) -0.0991(3)
H2B H -0.0609 0.4857 -0.1211
C3B C -0.0108(2) 0.52563(19) -0.0240(3)
C4B C 0.0039(2) 0.5802(2) 0.0068(3)
H3B H 0.0269 0.5849 0.0591
C5B C -0.0150(2) 0.6268(2) -0.0391(3)
H4B H -0.0041 0.6638 -0.0184
C6B C -0.0679(2) 0.67116(19) -0.1621(3)
H5B H -0.0583 0.7058 -0.1316
H6B H -0.0440 0.6716 -0.1947
H7B H -0.1140 0.6694 -0.1927
N1B N -0.04873(16) 0.62093(15) -0.1127(2)
C7 C 0.1642(2) 0.27012(19) 0.0297(3)
C8 C -0.0839(2) 0.2793(2) -0.1589(3)
C9 C 0.10781(19) 0.20395(19) -0.0737(3)
C10 C 0.11496(19) 0.15002(19) -0.1006(3)
C11 C 0.0602(2) 0.12318(19) -0.1527(3)
H8 H 0.0638 0.0862 -0.1702
C12 C 0.0013(2) 0.14997(19) -0.1787(3)
C13 C -0.0064(2) 0.20376(19) -0.1526(3)
C14 C 0.0489(2) 0.2305(2) -0.1020(3)
H9 H 0.0456 0.2684 -0.0867
C15 C 0.1853(2) 0.0760(2) -0.1054(3)
H10 H 0.1603 0.0453 -0.0958
H11 H 0.2310 0.0662 -0.0835
H12 H 0.1716 0.0812 -0.1595
C16 C -0.0509(2) 0.0708(2) -0.2576(3)
H13 H -0.0199 0.0708 -0.2814
H14 H -0.0933 0.0598 -0.2943
H15 H -0.0372 0.0436 -0.2161
C17 C -0.1533(2) 0.29450(19) -0.1829(3)
C18 C -0.1646(2) 0.3487(2) -0.1606(3)
H16 H -0.1284 0.3727 -0.1379
C19 C -0.2225(2) 0.36966(19) -0.1687(3)
C20 C -0.2760(2) 0.33405(19) -0.1999(3)
C21 C -0.2689(2) 0.28068(19) -0.2267(3)
H17 H -0.3057 0.2578 -0.2516
C22 C -0.2089(2) 0.26065(19) -0.2176(3)
C23 C -0.2535(2) 0.1708(2) -0.2749(3)
H18 H -0.2823 0.1859 -0.3242
H19 H -0.2780 0.1678 -0.2425
C24 C -0.2271(3) 0.1126(2) -0.2838(3)
H20 H -0.1982 0.1155 -0.3116
C25 C -0.1932(3) 0.0852(3) -0.2077(4)
H21 H -0.1749 0.0490 -0.2165
H22 H -0.1563 0.1100 -0.1796
C26 C -0.2260(10) 0.0715(6) -0.1552(13)
H23 H -0.2513 0.1044 -0.1516
H24 H -0.1936 0.0626 -0.1055
H25 H -0.2545 0.0388 -0.1744
C27 C -0.2841(7) 0.0710(7) -0.3233(14)
H26 H -0.3096 0.0664 -0.2922
H27 H -0.3125 0.0869 -0.3722
C28 C -0.2582(9) 0.0132(7) -0.3347(16)
H28 H -0.2223 0.0188 -0.3503
H29 H -0.2923 -0.0081 -0.3734
H30 H -0.2433 -0.0083 -0.2877
C29 C -0.3867(2) 0.3147(2) -0.2160(3)
H31 H -0.3699 0.2775 -0.1929
H32 H -0.4114 0.3087 -0.2702
C30 C -0.4299(2) 0.3402(2) -0.1803(3)
H33 H -0.4433 0.3786 -0.2032
C31 C -0.3954(3) 0.3492(2) -0.0973(3)
H34 H -0.3596 0.3761 -0.0887
H35 H -0.4255 0.3671 -0.0780
C32 C -0.3695(3) 0.2969(3) -0.0542(4)
H36 H -0.4042 0.2692 -0.0641
H37 H -0.3508 0.3059 -0.0007
H38 H -0.3363 0.2809 -0.0692
C33 C -0.4903(2) 0.3043(2) -0.2038(3)
H39 H -0.4780 0.2644 -0.1892
H40 H -0.5124 0.3056 -0.2589
C34 C -0.5371(2) 0.3236(3) -0.1693(4)
H41 H -0.5171 0.3188 -0.1149
H42 H -0.5762 0.3006 -0.1895
H43 H -0.5479 0.3637 -0.1813
C35 C -0.2197(2) 0.42731(19) -0.1320(3)
C36 C -0.1245(2) 0.5629(2) 0.1120(3)
C37 C -0.2796(2) 0.49495(18) -0.0863(3)
C38 C -0.3404(2) 0.51545(19) -0.0982(3)
C39 C -0.3489(2) 0.56007(19) -0.0561(3)
H44 H -0.3906 0.5740 -0.0648
C40 C -0.2951(2) 0.58378(19) -0.0009(3)
C41 C -0.2345(2) 0.56318(19) 0.0148(3)
C42 C -0.2260(2) 0.51922(19) -0.0297(3)
H45 H -0.1841 0.5060 -0.0213
C43 C -0.4526(2) 0.4980(2) -0.1559(3)
H46 H -0.4530 0.4860 -0.1077
H47 H -0.4842 0.4758 -0.1962
H48 H -0.4634 0.5384 -0.1637
C44 C -0.3615(2) 0.6483(2) 0.0322(4)
H49 H -0.3832 0.6600 -0.0201
H50 H -0.3581 0.6808 0.0650
H51 H -0.3862 0.6180 0.0432
C45 C -0.0750(2) 0.59671(19) 0.1738(3)
C46 C -0.01423(19) 0.57120(18) 0.2046(3)
H52 H -0.0096 0.5344 0.1872
C47 C 0.04015(19) 0.59603(18) 0.2592(2)
C48 C 0.0318(2) 0.65113(19) 0.2836(3)
C49 C -0.0283(2) 0.67722(19) 0.2555(3)
H53 H -0.0337 0.7135 0.2737
C50 C -0.08095(19) 0.65007(19) 0.2005(3)
C51 C -0.1540(2) 0.7234(2) 0.2089(3)
H54 H -0.1370 0.7582 0.1946
H55 H -0.1340 0.7193 0.2640
C52 C -0.2264(2) 0.7268(2) 0.1826(3)
H56 H -0.2412 0.7169 0.1284
C53 C -0.2490(7) 0.6917(5) 0.2362(8)
H57 H -0.2350 0.7125 0.2842
H58 H -0.2966 0.6920 0.2146
C54 C -0.2284(5) 0.6320(4) 0.2536(7)
H59 H -0.2437 0.6097 0.2074
H60 H -0.2463 0.6164 0.2881
H61 H -0.1814 0.6303 0.2769
C55 C -0.2469(2) 0.7878(2) 0.1801(4)
H62 H -0.2298 0.8094 0.1482
H63 H -0.2274 0.8038 0.2312
C56 C -0.3193(2) 0.7969(2) 0.1506(3)
H64 H -0.3388 0.7848 0.0982
H65 H -0.3284 0.8372 0.1542
H66 H -0.3372 0.7744 0.1803
C57 C 0.0776(2) 0.73257(19) 0.3608(3)
H67 H 0.0479 0.7305 0.3869
H68 H 0.0595 0.7593 0.3183
C58 C 0.1428(3) 0.7528(3) 0.4138(4)
H69 H 0.1721 0.7510 0.3863
C59 C 0.1305(4) 0.7070(4) 0.5249(5)
H70 H 0.1252 0.7440 0.5450
H71 H 0.1511 0.6804 0.5663
H72 H 0.0883 0.6922 0.4924
C60 C 0.1708(3) 0.7136(3) 0.4816(4)
H73 H 0.1779 0.6756 0.4643
H74 H 0.2131 0.7287 0.5151
C61 C 0.1346(3) 0.8192(3) 0.4302(5)
H75 H 0.1095 0.8385 0.3823
H76 H 0.1098 0.8219 0.4623
C62 C 0.1954(4) 0.8487(3) 0.4666(5)
H77 H 0.2184 0.8325 0.5164
H78 H 0.1873 0.8891 0.4711
H79 H 0.2213 0.8442 0.4367
C63 C 0.09909(19) 0.56163(19) 0.2838(2)
C64 C 0.25402(19) 0.41325(18) 0.2199(2)
C65 C 0.21745(19) 0.56758(18) 0.3219(3)
C66 C 0.2709(2) 0.60110(18) 0.3630(3)
C67 C 0.3319(2) 0.58507(18) 0.3687(3)
H80 H 0.3680 0.6080 0.3959
C68 C 0.33971(19) 0.53562(19) 0.3345(3)
C69 C 0.2869(2) 0.50161(18) 0.2931(3)
C70 C 0.22638(19) 0.51839(17) 0.2884(2)
H81 H 0.1903 0.4954 0.2613
C71 C 0.3083(2) 0.6885(2) 0.4265(3)
H82 H 0.3394 0.6707 0.4718
H83 H 0.2915 0.7232 0.4400
H84 H 0.3295 0.6980 0.3926
C72 C 0.4512(2) 0.5531(2) 0.3669(3)
H85 H 0.4422 0.5892 0.3396
H86 H 0.4889 0.5351 0.3629
H87 H 0.4597 0.5601 0.4197
C73 C 0.27275(19) 0.36917(17) 0.1754(3)
C74 C 0.2210(2) 0.34127(17) 0.1212(3)
H88 H 0.1790 0.3546 0.1123
C75 C 0.2268(2) 0.29577(18) 0.0797(3)
C76 C 0.2889(2) 0.27714(18) 0.0924(3)
C77 C 0.34232(19) 0.30415(19) 0.1434(3)
H89 H 0.3842 0.2917 0.1505
C78 C 0.3337(2) 0.35030(18) 0.1848(3)
C79 C 0.4488(2) 0.3587(2) 0.2534(3)
H90 H 0.4590 0.3617 0.2084
H91 H 0.4532 0.3185 0.2696
C80 C 0.4938(2) 0.3964(2) 0.3161(3)
H92 H 0.4844 0.4368 0.2994
C81 C 0.4843(2) 0.3902(2) 0.3882(3)
H93 H 0.4387 0.3981 0.3777
H94 H 0.5100 0.4201 0.4230
C82 C 0.5020(3) 0.3319(2) 0.4299(4)
H95 H 0.4748 0.3020 0.3980
H96 H 0.4950 0.3340 0.4766
H97 H 0.5472 0.3232 0.4412
C83 C 0.5632(2) 0.3835(2) 0.3246(3)
H98 H 0.5665 0.3885 0.2756
H99 H 0.5734 0.3434 0.3399
C84 C 0.6134(3) 0.4228(3) 0.3835(4)
H100 H 0.5987 0.4623 0.3748
H101 H 0.6549 0.4195 0.3788
H102 H 0.6183 0.4112 0.4339
C85 C 0.3538(2) 0.2008(2) 0.0722(3)
H103 H 0.3771 0.1990 0.1272
H104 H 0.3811 0.2211 0.0507
C86 C 0.3383(2) 0.14101(19) 0.0394(3)
H105 H 0.3055 0.1451 -0.0128
C87 C 0.3072(2) 0.1055(2) 0.0828(3)
H106 H 0.2704 0.1271 0.0849
H107 H 0.2901 0.0701 0.0545
C88 C 0.3514(3) 0.0896(3) 0.1620(4)
H108 H 0.3851 0.0641 0.1606
H109 H 0.3266 0.0705 0.1868
H110 H 0.3711 0.1241 0.1899
C89 C 0.3973(2) 0.1145(2) 0.0338(3)
H111 H 0.4303 0.1088 0.0848
H112 H 0.4151 0.1411 0.0073
C90 C 0.3835(2) 0.0578(2) -0.0071(3)
H113 H 0.3726 0.0294 0.0229
H114 H 0.4216 0.0453 -0.0152
H115 H 0.3475 0.0622 -0.0555
N2 N 0.16395(16) 0.23045(16) -0.0225(2)
H116 H 0.2010 0.2210 -0.0241
N3 N -0.06810(16) 0.22774(16) -0.1780(2)
H117 H -0.0996 0.2073 -0.2095
N4 N -0.27367(16) 0.44749(15) -0.1284(2)
H118 H -0.3094 0.4294 -0.1551
N5 N -0.18158(16) 0.58792(16) 0.0733(2)
H119 H -0.1864 0.6231 0.0857
N6 N 0.15672(16) 0.58933(15) 0.3125(2)
H120 H 0.1558 0.6247 0.3267
N7 N 0.29737(16) 0.45383(15) 0.2567(2)
H121 H 0.3364 0.4496 0.2578
O1 O 0.11345(14) 0.28511(14) 0.03512(19)
O2 O -0.04300(14) 0.31317(14) -0.1208(2)
O3 O 0.17498(13) 0.12779(13) -0.07240(19)
O4 O -0.05449(14) 0.12656(13) -0.22962(19)
O5 O -0.19847(14) 0.20762(14) -0.2411(2)
O6 O -0.33422(13) 0.35364(13) -0.20450(19)
O7 O -0.16800(14) 0.45275(13) -0.10776(19)
O8 O -0.11036(15) 0.51498(14) 0.0974(2)
O9 O -0.39070(14) 0.48888(13) -0.15582(19)
O10 O -0.29915(14) 0.62794(14) 0.0445(2)
O11 O -0.14050(14) 0.67392(13) 0.17286(19)
O12 O 0.08562(13) 0.67684(13) 0.33397(18)
O13 O 0.09574(13) 0.50960(12) 0.27274(18)
O14 O 0.20104(14) 0.41099(13) 0.22132(19)
O15 O 0.25748(14) 0.65047(13) 0.39078(19)
O16 O 0.39753(13) 0.51656(13) 0.33588(18)
O17 O 0.38473(13) 0.37860(13) 0.23726(18)
O18 O 0.29302(13) 0.23023(13) 0.05323(19)
F1 F 0.56795(17) 0.26298(18) 0.60544(19)
F2 F 0.5884(2) 0.1731(3) 0.5811(3)
F3 F 0.58813(14) 0.19499(15) 0.69226(19)
F4 F 0.48921(17) 0.20991(19) 0.52380(19)
F5 F 0.48978(14) 0.22957(14) 0.6368(2)
F6 F 0.50803(16) 0.14131(15) 0.61102(19)
P1 P 0.53868(6) 0.20196(7) 0.60753(8)
C91? C -0.2517(17) 0.0656(15) -0.196(3)
H122? H -0.2681 0.0968 -0.1751
H123? H -0.2406 0.0332 -0.1618
H124? H -0.2848 0.0541 -0.2444
C92? C -0.2843(8) 0.0843(9) -0.3513(13)
H125? H -0.3214 0.0797 -0.3369
H126? H -0.2974 0.1103 -0.3948
C93? C -0.2684(10) 0.0284(9) -0.3743(17)
H127? H -0.2248 0.0295 -0.3735
H128? H -0.2990 0.0195 -0.4250
H129? H -0.2708 -0.0009 -0.3397
C94? C -0.2530(11) 0.6796(8) 0.2126(10)
H130? H -0.2371 0.6431 0.2014
H131? H -0.3004 0.6797 0.1867
C95? C -0.2357(8) 0.6836(8) 0.2947(9)
H132? H -0.2058 0.6529 0.3200
H133? H -0.2746 0.6800 0.3051
H134? H -0.2154 0.7204 0.3130
loop_
_geom_bond_atom_site_label_1
_geom_bond_atom_site_label_2
_geom_bond_site_symmetry_1
_geom_bond_site_symmetry_2
C1 H1 1_555 1_555
C2 C1 1_555 1_555
H2 C2 1_555 1_555
C3 C2 1_555 1_555
C4 C3 1_555 1_555
H3 C4 1_555 1_555
C5 C4 1_555 1_555
H4 C5 1_555 1_555
C6 H5 1_555 1_555
H6 C6 1_555 1_555
H7 C6 1_555 1_555
N1 C1 1_555 1_555
C7 C75 1_555 1_555
C8 C17 1_555 1_555
C9 C10 1_555 1_555
C10 C11 1_555 1_555
C11 H8 1_555 1_555
C12 C11 1_555 1_555
C13 C12 1_555 1_555
C14 C9 1_555 1_555
H9 C14 1_555 1_555
C15 H10 1_555 1_555
H11 C15 1_555 1_555
H12 C15 1_555 1_555
C16 H13 1_555 1_555
H14 C16 1_555 1_555
H15 C16 1_555 1_555
C17 C18 1_555 1_555
C18 H16 1_555 1_555
C19 C18 1_555 1_555
C20 C19 1_555 1_555
C21 C20 1_555 1_555
H17 C21 1_555 1_555
C22 C17 1_555 1_555
C23 H18 1_555 1_555
H19 C23 1_555 1_555
C24 C23 1_555 1_555
H20 C24 1_555 1_555
C25 C24 1_555 1_555
H21 C25 1_555 1_555
H22 C25 1_555 1_555
C26 C25 1_555 1_555
H23 C26 1_555 1_555
H24 C26 1_555 1_555
H25 C26 1_555 1_555
C27 C24 1_555 1_555
H26 C27 1_555 1_555
H27 C27 1_555 1_555
C28 C27 1_555 1_555
H28 C28 1_555 1_555
H29 C28 1_555 1_555
H30 C28 1_555 1_555
C29 H31 1_555 1_555
H32 C29 1_555 1_555
C30 C29 1_555 1_555
H33 C30 1_555 1_555
C31 C30 1_555 1_555
H34 C31 1_555 1_555
H35 C31 1_555 1_555
C32 C31 1_555 1_555
H36 C32 1_555 1_555
H37 C32 1_555 1_555
H38 C32 1_555 1_555
C33 C30 1_555 1_555
H39 C33 1_555 1_555
H40 C33 1_555 1_555
C34 C33 1_555 1_555
H41 C34 1_555 1_555
H42 C34 1_555 1_555
H43 C34 1_555 1_555
C35 C19 1_555 1_555
C36 C45 1_555 1_555
C37 C38 1_555 1_555
C38 C39 1_555 1_555
C39 H44 1_555 1_555
C40 C39 1_555 1_555
C41 C40 1_555 1_555
C42 C37 1_555 1_555
H45 C42 1_555 1_555
C43 H46 1_555 1_555
H47 C43 1_555 1_555
H48 C43 1_555 1_555
C44 H49 1_555 1_555
H50 C44 1_555 1_555
H51 C44 1_555 1_555
C45 C46 1_555 1_555
C46 H52 1_555 1_555
C47 C46 1_555 1_555
C48 C47 1_555 1_555
C49 C48 1_555 1_555
H53 C49 1_555 1_555
C50 C45 1_555 1_555
C51 H54 1_555 1_555
H55 C51 1_555 1_555
C52 C51 1_555 1_555
H56 C52 1_555 1_555
C53 C52 1_555 1_555
H57 C53 1_555 1_555
H58 C53 1_555 1_555
C54 C53 1_555 1_555
H59 C54 1_555 1_555
H60 C54 1_555 1_555
H61 C54 1_555 1_555
C55 C52 1_555 1_555
H62 C55 1_555 1_555
H63 C55 1_555 1_555
C56 C55 1_555 1_555
H64 C56 1_555 1_555
H65 C56 1_555 1_555
H66 C56 1_555 1_555
C57 H67 1_555 1_555
H68 C57 1_555 1_555
C58 C57 1_555 1_555
H69 C58 1_555 1_555
C59 H70 1_555 1_555
H71 C59 1_555 1_555
H72 C59 1_555 1_555
C60 C58 1_555 1_555
H73 C60 1_555 1_555
H74 C60 1_555 1_555
C61 C58 1_555 1_555
H75 C61 1_555 1_555
H76 C61 1_555 1_555
C62 C61 1_555 1_555
H77 C62 1_555 1_555
H78 C62 1_555 1_555
H79 C62 1_555 1_555
C63 C47 1_555 1_555
C64 C73 1_555 1_555
C65 C66 1_555 1_555
C66 C67 1_555 1_555
C67 H80 1_555 1_555
C68 C67 1_555 1_555
C69 C68 1_555 1_555
C70 C65 1_555 1_555
H81 C70 1_555 1_555
C71 H82 1_555 1_555
H83 C71 1_555 1_555
H84 C71 1_555 1_555
C72 H85 1_555 1_555
H86 C72 1_555 1_555
H87 C72 1_555 1_555
C73 C74 1_555 1_555
C74 H88 1_555 1_555
C75 C74 1_555 1_555
C76 C75 1_555 1_555
C77 C76 1_555 1_555
H89 C77 1_555 1_555
C78 C73 1_555 1_555
C79 H90 1_555 1_555
H91 C79 1_555 1_555
C80 C79 1_555 1_555
H92 C80 1_555 1_555
C81 C80 1_555 1_555
H93 C81 1_555 1_555
H94 C81 1_555 1_555
C82 C81 1_555 1_555
H95 C82 1_555 1_555
H96 C82 1_555 1_555
H97 C82 1_555 1_555
C83 C80 1_555 1_555
H98 C83 1_555 1_555
H99 C83 1_555 1_555
C84 C83 1_555 1_555
H100 C84 1_555 1_555
H101 C84 1_555 1_555
H102 C84 1_555 1_555
C85 H103 1_555 1_555
H104 C85 1_555 1_555
C86 C85 1_555 1_555
H105 C86 1_555 1_555
C87 C86 1_555 1_555
H106 C87 1_555 1_555
H107 C87 1_555 1_555
C88 C87 1_555 1_555
H108 C88 1_555 1_555
H109 C88 1_555 1_555
H110 C88 1_555 1_555
C89 C86 1_555 1_555
H111 C89 1_555 1_555
H112 C89 1_555 1_555
C90 C89 1_555 1_555
H113 C90 1_555 1_555
H114 C90 1_555 1_555
H115 C90 1_555 1_555
N2 C7 1_555 1_555
H116 N2 1_555 1_555
N3 C8 1_555 1_555
H117 N3 1_555 1_555
N4 C35 1_555 1_555
H118 N4 1_555 1_555
N5 C36 1_555 1_555
H119 N5 1_555 1_555
N6 C63 1_555 1_555
H120 N6 1_555 1_555
N7 C64 1_555 1_555
H121 N7 1_555 1_555
O1 C7 1_555 1_555
O2 C8 1_555 1_555
O3 C10 1_555 1_555
O4 C12 1_555 1_555
O5 C22 1_555 1_555
O6 C20 1_555 1_555
O7 C35 1_555 1_555
O8 C36 1_555 1_555
O9 C38 1_555 1_555
O10 C40 1_555 1_555
O11 C50 1_555 1_555
O12 C48 1_555 1_555
O13 C63 1_555 1_555
O14 C64 1_555 1_555
O15 C66 1_555 1_555
O16 C68 1_555 1_555
O17 C78 1_555 1_555
O18 C76 1_555 1_555
F1 P1 1_555 1_555
F2 P1 1_555 1_555
F3 P1 1_555 1_555
F4 P1 1_555 1_555
F5 P1 1_555 1_555
F6 P1 1_555 1_555
C1B H1B 1_555 1_555
C2B C1B 1_555 1_555
H2B C2B 1_555 1_555
C3B C3 1_555 1_555
C4B C3B 1_555 1_555
H3B C4B 1_555 1_555
C5B C4B 1_555 1_555
H4B C5B 1_555 1_555
C6B H5B 1_555 1_555
H6B C6B 1_555 1_555
H7B C6B 1_555 1_555
N1B C1B 1_555 1_555
C5 N1 1_555 1_555
C6 N1 1_555 1_555
C9 N2 1_555 1_555
C13 C14 1_555 1_555
C13 N3 1_555 1_555
C15 O3 1_555 1_555
C16 O4 1_555 1_555
C21 C22 1_555 1_555
C23 O5 1_555 1_555
C29 O6 1_555 1_555
C37 N4 1_555 1_555
C41 C42 1_555 1_555
C41 N5 1_555 1_555
C43 O9 1_555 1_555
C44 O10 1_555 1_555
C49 C50 1_555 1_555
C51 O11 1_555 1_555
C57 O12 1_555 1_555
C59 C60 1_555 1_555
C65 N6 1_555 1_555
C69 C70 1_555 1_555
C69 N7 1_555 1_555
C71 O15 1_555 1_555
C72 O16 1_555 1_555
C77 C78 1_555 1_555
C79 O17 1_555 1_555
C85 O18 1_555 1_555
C2B C3B 1_555 1_555
C5B N1B 1_555 1_555
C6B N1B 1_555 1_555

#END
