
#######################################################################
#
#                 Cambridge Crystallographic Data Centre
#                                CCDC 
#
#######################################################################
#
# If this CIF has been generated from an entry in the Cambridge 
# Structural Database, then it will include bibliographic, chemical, 
# crystal, experimental, refinement or atomic coordinate data resulting 
# from the CCDC's data processing and validation procedures.
#
#######################################################################

data_YAJVAJ
_chemical_formula_moiety         'C13 H11 N3 O1,C10 F8'
_chemical_name_systematic        
'2-(2H-benzotriazol-2-yl)-4-methylphenol octafluoronaphthalene'
_symmetry_cell_setting           monoclinic
_symmetry_space_group_name_H-M   'P 21/c'
_symmetry_Int_Tables_number      14
_space_group_name_Hall           '-P 2ybc'
loop_
_symmetry_equiv_pos_site_id
_symmetry_equiv_pos_as_xyz
1 x,y,z
2 -x,1/2+y,1/2-z
3 -x,-y,-z
4 x,1/2-y,1/2+z
_cell_length_a                   6.5595(9)
_cell_length_b                   41.849(3)
_cell_length_c                   6.9922(5)
_cell_angle_alpha                90
_cell_angle_beta                 94.939(8)
_cell_angle_gamma                90
_cell_volume                     1912.29
_exptl_crystal_colour            colorless
_exptl_crystal_description       block
_cell_formula_units_Z            4
loop_
_atom_site_label
_atom_site_type_symbol
_atom_site_fract_x
_atom_site_fract_y
_atom_site_fract_z
F1 F 0.1718(3) 0.09263(4) 0.4995(3)
F2 F -0.5950(3) 0.06048(4) 0.1943(3)
F3 F -0.6931(3) 0.12075(4) 0.1690(3)
F4 F 0.0710(3) 0.15222(4) 0.4853(3)
F5 F 0.0725(3) 0.03150(4) 0.4219(3)
F6 F -0.2128(3) 0.19723(4) 0.4023(3)
F7 F -0.3097(3) 0.01560(4) 0.2778(3)
F8 F -0.5921(3) 0.18187(4) 0.2463(3)
C1 C -0.3616(5) 0.10248(7) 0.2946(4)
C2 C -0.1613(5) 0.11069(7) 0.3757(4)
C3 C -0.4544(5) 0.15855(7) 0.2875(5)
C4 C -0.1166(5) 0.14340(7) 0.4103(4)
C5 C -0.0654(5) 0.05468(7) 0.3830(5)
C6 C -0.0171(5) 0.08588(7) 0.4185(4)
C7 C -0.2591(5) 0.16646(7) 0.3690(5)
C8 C -0.4065(5) 0.06971(8) 0.2641(5)
C9 C -0.5033(5) 0.12724(7) 0.2511(4)
C10 C -0.2637(5) 0.04678(7) 0.3053(5)
N1 N -0.1126(4) 0.12482(6) 0.8868(4)
N2 N -0.3015(4) 0.13614(6) 0.8370(4)
O1 O -0.0104(3) 0.18258(5) 1.0124(4)
H1 H 0.0151 0.1635 0.9848
N3 N -0.4481(4) 0.11487(6) 0.7855(4)
C11 C -0.5297(5) 0.18064(7) 0.7532(5)
H2 H -0.6254 0.1657 0.6955
C12 C -0.1364(5) 0.09292(7) 0.8659(5)
C13 C -0.7753(5) 0.22533(8) 0.6521(5)
H3 H -0.7978 0.2157 0.5241
H4 H -0.7684 0.2486 0.6401
H5 H -0.8884 0.2196 0.7282
C14 C -0.2719(5) 0.03117(8) 0.7973(5)
H6 H -0.3139 0.0096 0.7768
C15 C -0.0635(6) 0.03757(8) 0.8583(5)
H7 H 0.0298 0.0202 0.8748
C16 C 0.0067(5) 0.06792(8) 0.8939(5)
H8 H 0.1460 0.0720 0.9356
C17 C -0.3446(5) 0.08672(7) 0.8014(5)
C18 C -0.4317(5) 0.23388(8) 0.8400(5)
H9 H -0.4610 0.2561 0.8404
C19 C -0.1972(5) 0.19104(8) 0.9260(5)
C20 C -0.3428(5) 0.16986(7) 0.8400(5)
C21 C -0.5768(5) 0.21306(7) 0.7504(5)
C22 C -0.4139(5) 0.05500(7) 0.7672(5)
H10 H -0.5525 0.0505 0.7253
C23 C -0.2481(5) 0.22337(8) 0.9274(5)
H11 H -0.1552 0.2383 0.9893
loop_
_geom_bond_atom_site_label_1
_geom_bond_atom_site_label_2
_geom_bond_site_symmetry_1
_geom_bond_site_symmetry_2
F1 C6 1_555 1_555
F2 C8 1_555 1_555
F3 C9 1_555 1_555
F4 C4 1_555 1_555
F5 C5 1_555 1_555
F6 C7 1_555 1_555
F7 C10 1_555 1_555
F8 C3 1_555 1_555
C1 C2 1_555 1_555
C2 C4 1_555 1_555
C3 C7 1_555 1_555
C4 C7 1_555 1_555
C5 C6 1_555 1_555
C6 C2 1_555 1_555
C8 C1 1_555 1_555
C9 C1 1_555 1_555
C10 C5 1_555 1_555
N1 N2 1_555 1_555
N2 N3 1_555 1_555
O1 H1 1_555 1_555
N3 C17 1_555 1_555
C11 H2 1_555 1_555
C12 N1 1_555 1_555
C13 H3 1_555 1_555
H4 C13 1_555 1_555
H5 C13 1_555 1_555
C14 H6 1_555 1_555
C15 C14 1_555 1_555
H7 C15 1_555 1_555
C16 C12 1_555 1_555
H8 C16 1_555 1_555
C17 C12 1_555 1_555
C18 H9 1_555 1_555
C19 O1 1_555 1_555
C20 N2 1_555 1_555
C21 C11 1_555 1_555
C22 C14 1_555 1_555
H10 C22 1_555 1_555
C23 C18 1_555 1_555
H11 C23 1_555 1_555
C3 C9 1_555 1_555
C8 C10 1_555 1_555
C11 C20 1_555 1_555
C13 C21 1_555 1_555
C15 C16 1_555 1_555
C17 C22 1_555 1_555
C18 C21 1_555 1_555
C19 C20 1_555 1_555
C19 C23 1_555 1_555

#END
