
#######################################################################
#
#                 Cambridge Crystallographic Data Centre
#                                CCDC 
#
#######################################################################
#
# If this CIF has been generated from an entry in the Cambridge 
# Structural Database, then it will include bibliographic, chemical, 
# crystal, experimental, refinement or atomic coordinate data resulting 
# from the CCDC's data processing and validation procedures.
#
#######################################################################

data_YAJVUB
_chemical_formula_moiety         'C21 H13 F10 N1 O2'
_chemical_name_systematic        
3-Methylene-5-(pentafluorophenyl(pentafluorophenylamino)methyl)heptane-2,6-dione
_symmetry_cell_setting           monoclinic
_symmetry_space_group_name_H-M   'P 21/c'
_symmetry_Int_Tables_number      14
_space_group_name_Hall           '-P 2ybc'
loop_
_symmetry_equiv_pos_site_id
_symmetry_equiv_pos_as_xyz
1 x,y,z
2 -x,1/2+y,1/2-z
3 -x,-y,-z
4 x,1/2-y,1/2+z
_cell_length_a                   9.7480(19)
_cell_length_b                   25.814(5)
_cell_length_c                   9.0280(18)
_cell_angle_alpha                90.00
_cell_angle_beta                 111.00(3)
_cell_angle_gamma                90.00
_cell_volume                     2120.87
_exptl_crystal_colour            colorless
_chemical_melting_point          102-104deg.C
_cell_formula_units_Z            4
loop_
_atom_site_label
_atom_site_type_symbol
_atom_site_fract_x
_atom_site_fract_y
_atom_site_fract_z
N1 N 0.7316(3) 0.15787(11) 0.3546(4)
O1 O 0.1812(3) 0.18338(12) 0.2955(4)
O2 O 0.6226(3) 0.25412(11) 0.5685(3)
F1 F 0.4164(2) 0.16554(8) 0.1007(2)
F2 F 0.2440(3) 0.10221(12) -0.1220(3)
F3 F 0.2597(3) -0.00148(11) -0.0752(3)
F4 F 0.4415(3) -0.04089(9) 0.2023(4)
F5 F 0.6100(2) 0.02228(8) 0.4314(3)
F6 F 0.7476(3) 0.14249(10) 0.0564(3)
F7 F 0.9583(3) 0.08455(11) 0.0121(3)
F8 F 1.1536(3) 0.03246(11) 0.2583(3)
F9 F 1.1383(3) 0.04120(12) 0.5507(3)
F10 F 0.9371(2) 0.10241(10) 0.5976(3)
C1 C 0.4245(4) 0.11412(14) 0.1323(4)
C2 C 0.3368(4) 0.08221(19) 0.0146(5)
C3 C 0.3430(5) 0.0299(2) 0.0387(6)
C4 C 0.4356(5) 0.01046(15) 0.1775(7)
C5 C 0.5218(4) 0.04338(14) 0.2942(5)
C6 C 0.5199(3) 0.09642(12) 0.2755(4)
C7 C 0.8472(4) 0.11897(14) 0.1818(5)
C8 C 0.9535(5) 0.08855(16) 0.1581(6)
C9 C 1.0494(4) 0.06268(16) 0.2827(7)
C10 C 1.0418(4) 0.06715(17) 0.4288(6)
C11 C 0.9381(4) 0.09807(15) 0.4501(5)
C12 C 0.8354(3) 0.12498(12) 0.3274(4)
C13 C 0.6193(3) 0.13167(13) 0.4032(4)
C14 C 0.0909(8) 0.2368(3) 0.4509(14)
C15 C 0.7481(7) 0.1853(3) 0.7293(6)
C16 C 0.1986(4) 0.19994(16) 0.4277(7)
C17 C 0.3483(8) 0.1979(3) 0.7099(8)
C18 C 0.4288(5) 0.14518(15) 0.5287(6)
C19 C 0.6366(4) 0.20795(16) 0.5839(4)
C20 C 0.3253(4) 0.18162(13) 0.5643(5)
C21 C 0.5348(3) 0.17227(12) 0.4599(4)
H1 H 0.289(5) 0.2163(17) 0.725(5)
H2 H 0.430(5) 0.1825(19) 0.799(6)
H3 H 0.375(3) 0.1226(12) 0.449(4)
H4 H 0.483(4) 0.1272(15) 0.620(4)
H5 H 0.692(3) 0.1733(11) 0.272(3)
H6 H 0.675(3) 0.1108(11) 0.489(3)
H7 H 0.479(3) 0.1937(10) 0.367(3)
H8 H 0.130(5) 0.267(2) 0.470(6)
H9 H 0.057(6) 0.225(2) 0.532(7)
H10 H 0.016(5) 0.239(2) 0.328(6)
H11 H 0.732(5) 0.149(2) 0.761(5)
H12 H 0.754(6) 0.203(2) 0.817(7)
H13 H 0.834(5) 0.183(2) 0.706(6)
loop_
_geom_bond_atom_site_label_1
_geom_bond_atom_site_label_2
_geom_bond_site_symmetry_1
_geom_bond_site_symmetry_2
N1 C12 1_555 1_555
O1 C16 1_555 1_555
O2 C19 1_555 1_555
F1 C1 1_555 1_555
F2 C2 1_555 1_555
F3 C3 1_555 1_555
F4 C4 1_555 1_555
F5 C5 1_555 1_555
F6 C7 1_555 1_555
F7 C8 1_555 1_555
F8 C9 1_555 1_555
F9 C10 1_555 1_555
F10 C11 1_555 1_555
C1 C2 1_555 1_555
C2 C3 1_555 1_555
C3 C4 1_555 1_555
C4 C5 1_555 1_555
C5 C6 1_555 1_555
C6 C1 1_555 1_555
C7 C8 1_555 1_555
C8 C9 1_555 1_555
C9 C10 1_555 1_555
C10 C11 1_555 1_555
C11 C12 1_555 1_555
C12 C7 1_555 1_555
C13 N1 1_555 1_555
C14 C16 1_555 1_555
C15 C19 1_555 1_555
C16 C20 1_555 1_555
C17 C20 1_555 1_555
C18 C20 1_555 1_555
C19 C21 1_555 1_555
C21 C13 1_555 1_555
H1 C17 1_555 1_555
H2 C17 1_555 1_555
H3 C18 1_555 1_555
H4 C18 1_555 1_555
H5 N1 1_555 1_555
H6 C13 1_555 1_555
H7 C21 1_555 1_555
H8 C14 1_555 1_555
H9 C14 1_555 1_555
H10 C14 1_555 1_555
H11 C15 1_555 1_555
H12 C15 1_555 1_555
H13 C15 1_555 1_555
C6 C13 1_555 1_555
C18 C21 1_555 1_555

#END
