
#######################################################################
#
#                 Cambridge Crystallographic Data Centre
#                                CCDC 
#
#######################################################################
#
# If this CIF has been generated from an entry in the Cambridge 
# Structural Database, then it will include bibliographic, chemical, 
# crystal, experimental, refinement or atomic coordinate data resulting 
# from the CCDC's data processing and validation procedures.
#
#######################################################################

data_YAKBUI
_chemical_formula_moiety         'C18 H18 N2 O4 S1'
_chemical_name_systematic        
(3aS,6aS)-5-N-((1S*,2R*,4R*)-Bicyclo(2.2.1)hept-5-ene-2-formyl)-3-phenyl-4,5-thiazolidine-4,4-dioxide-(3,4-d)-2-isoxazoline
_symmetry_cell_setting           monoclinic
_symmetry_space_group_name_H-M   'P 21'
_symmetry_Int_Tables_number      4
_space_group_name_Hall           'P 2yb'
loop_
_symmetry_equiv_pos_site_id
_symmetry_equiv_pos_as_xyz
1 x,y,z
2 -x,1/2+y,-z
_cell_length_a                   6.5772(7)
_cell_length_b                   10.7627(12)
_cell_length_c                   12.1128(13)
_cell_angle_alpha                90
_cell_angle_beta                 93.653(2)
_cell_angle_gamma                90
_cell_volume                     855.704
_exptl_crystal_colour            colorless
_exptl_crystal_description       block
_cell_formula_units_Z            2
loop_
_atom_site_label
_atom_site_type_symbol
_atom_site_fract_x
_atom_site_fract_y
_atom_site_fract_z
C1 C 1.0057(6) 0.5301(4) 0.6349(3)
H1 H 0.9671 0.6132 0.6352
C2 C 1.1858(6) 0.4944(5) 0.6882(3)
H2 H 1.2686 0.5533 0.7248
C3 C 1.2456(6) 0.3715(4) 0.6878(3)
H3 H 1.3689 0.3479 0.7235
C4 C 1.1232(6) 0.2844(4) 0.6347(3)
H4 H 1.1626 0.2014 0.6353
C5 C 0.9422(6) 0.3193(4) 0.5804(3)
H5 H 0.8610 0.2598 0.5435
C6 C 0.8793(4) 0.4427(3) 0.5802(2)
C7 C 0.6866(4) 0.4802(3) 0.5210(2)
C8 C 0.5690(4) 0.4040(4) 0.4350(2)
H6 H 0.5381 0.3207 0.4618
C9 C 0.3796(5) 0.4811(4) 0.4123(3)
H7 H 0.2614 0.4422 0.4434
C10 C 0.3431(5) 0.5009(6) 0.2875(3)
H8 H 0.2658 0.4324 0.2540
H9 H 0.2691 0.5775 0.2721
C11 C 0.5849(6) 0.5843(4) 0.1544(3)
C12 C 0.7840(6) 0.5746(5) 0.1021(3)
H10 H 0.8920 0.5724 0.1617
C13 C 0.8102(11) 0.4625(7) 0.0301(5)
H11 H 0.8247 0.3794 0.0627
C14 C 0.6590(18) 0.4863(17) -0.0707(12)
H12 H 0.5566 0.4313 -0.0948
C15 C 0.6922(13) 0.5927(14) -0.1179(8)
H13 H 0.6064 0.6375 -0.1672
C16 C 0.9093(19) 0.6257(9) -0.0716(8)
H14 H 0.9944 0.6767 -0.1174
C17 C 0.8314(13) 0.6816(9) 0.0250(5)
H15 H 0.7090 0.7289 0.0050
H16 H 0.9319 0.7369 0.0606
C18 C 0.9728(18) 0.5142(11) -0.0445(8)
H17 H 1.1053 0.5175 -0.0046
H18 H 0.9825 0.4629 -0.1097
N1 N 0.6065(4) 0.5865(3) 0.5354(2)
N2 N 0.5477(4) 0.5069(4) 0.2449(2)
O1 O 0.4283(4) 0.5990(3) 0.4654(2)
O2 O 0.8994(3) 0.4450(3) 0.3206(2)
O3 O 0.6634(6) 0.2829(3) 0.2555(3)
O4 O 0.4508(6) 0.6544(4) 0.1236(3)
S1 S 0.69740(11) 0.39976(8) 0.30648(6)
loop_
_geom_bond_atom_site_label_1
_geom_bond_atom_site_label_2
_geom_bond_site_symmetry_1
_geom_bond_site_symmetry_2
C1 H1 1_555 1_555
C2 C1 1_555 1_555
H2 C2 1_555 1_555
C3 C2 1_555 1_555
H3 C3 1_555 1_555
C4 C3 1_555 1_555
H4 C4 1_555 1_555
C5 C4 1_555 1_555
H5 C5 1_555 1_555
C6 C1 1_555 1_555
C7 C6 1_555 1_555
C8 C7 1_555 1_555
H6 C8 1_555 1_555
C9 C8 1_555 1_555
H7 C9 1_555 1_555
C10 C9 1_555 1_555
H8 C10 1_555 1_555
H9 C10 1_555 1_555
C11 C12 1_555 1_555
C12 H10 1_555 1_555
C13 C12 1_555 1_555
H11 C13 1_555 1_555
C14 C13 1_555 1_555
H12 C14 1_555 1_555
C15 C14 1_555 1_555
H13 C15 1_555 1_555
C16 C15 1_555 1_555
H14 C16 1_555 1_555
C17 C12 1_555 1_555
H15 C17 1_555 1_555
H16 C17 1_555 1_555
C18 C13 1_555 1_555
H17 C18 1_555 1_555
H18 C18 1_555 1_555
N1 C7 1_555 1_555
N2 C10 1_555 1_555
O1 C9 1_555 1_555
O2 S1 1_555 1_555
O3 S1 1_555 1_555
O4 C11 1_555 1_555
S1 C8 1_555 1_555
C5 C6 1_555 1_555
C11 N2 1_555 1_555
C16 C17 1_555 1_555
C16 C18 1_555 1_555
N1 O1 1_555 1_555
N2 S1 1_555 1_555

#END
