
#######################################################################
#
#                 Cambridge Crystallographic Data Centre
#                                CCDC 
#
#######################################################################
#
# If this CIF has been generated from an entry in the Cambridge 
# Structural Database, then it will include bibliographic, chemical, 
# crystal, experimental, refinement or atomic coordinate data resulting 
# from the CCDC's data processing and validation procedures.
#
#######################################################################

data_YAKLAA
_chemical_formula_moiety         'C31 H37 F3 N2 O1 Si1'
_chemical_name_systematic        
2-methyl-N-(quinolin-8-yl)-2-(3-(trifluoromethyl)phenyl)-5-(triisopropylsilyl)pent-4-ynamide
_symmetry_cell_setting           triclinic
_symmetry_space_group_name_H-M   'P -1'
_symmetry_Int_Tables_number      2
_space_group_name_Hall           '-P 1'
loop_
_symmetry_equiv_pos_site_id
_symmetry_equiv_pos_as_xyz
1 x,y,z
2 -x,-y,-z
_cell_length_a                   8.4313(6)
_cell_length_b                   12.8023(8)
_cell_length_c                   15.1161(9)
_cell_angle_alpha                113.800(6)
_cell_angle_beta                 90.996(5)
_cell_angle_gamma                101.075(6)
_cell_volume                     1456.87
_cell_formula_units_Z            2
loop_
_atom_site_label
_atom_site_type_symbol
_atom_site_fract_x
_atom_site_fract_y
_atom_site_fract_z
C1 C 0.0807(3) -0.04152(18) 0.18107(15)
C2 C -0.0498(3) -0.12823(19) 0.17226(17)
H1 H -0.0933 -0.1322 0.2287
C3 C -0.1196(3) -0.2119(2) 0.07894(19)
H2 H -0.2101 -0.2721 0.0732
C4 C -0.0600(3) -0.2081(2) -0.00258(18)
H3 H -0.1096 -0.2653 -0.0645
C5 C 0.0742(3) -0.1206(2) 0.00349(16)
C6 C 0.1460(4) -0.1101(3) -0.07730(17)
H4 H 0.1036 -0.1656 -0.1412
C7 C 0.2737(4) -0.0224(3) -0.06436(18)
H5 H 0.3216 -0.0149 -0.1185
C8 C 0.3345(3) 0.0577(2) 0.03063(17)
H6 H 0.4244 0.1194 0.0389
C9 C 0.1454(3) -0.03551(19) 0.09636(15)
C10 C 0.1432(3) 0.05595(18) 0.36058(14)
C11 C 0.2708(2) 0.15233(17) 0.44040(14)
C12 C 0.2627(3) 0.12141(18) 0.52972(14)
H7 H 0.1521 0.1210 0.5508
H8 H 0.2821 0.0416 0.5103
C13 C 0.3817(3) 0.20364(18) 0.61204(14)
C14 C 0.4819(3) 0.26728(18) 0.67871(14)
C15 C 0.8394(3) 0.2936(2) 0.71726(16)
H9 H 0.8375 0.2274 0.7367
C16 C 0.8299(3) 0.2405(2) 0.60646(18)
H10 H 0.8475 0.3032 0.5839
H11 H 0.7224 0.1894 0.5791
H12 H 0.9137 0.1947 0.5852
C17 C 1.0037(3) 0.3774(3) 0.7606(2)
H13 H 1.0910 0.3362 0.7357
H14 H 1.0123 0.4065 0.8316
H15 H 1.0133 0.4434 0.7422
C18 C 0.6818(3) 0.5119(2) 0.78052(18)
H16 H 0.7886 0.5571 0.8196
C19 C 0.6872(4) 0.5219(3) 0.6834(2)
H17 H 0.5848 0.4775 0.6424
H18 H 0.7777 0.4903 0.6507
H19 H 0.7024 0.6043 0.6947
C20 C 0.5512(4) 0.5697(2) 0.8364(2)
H20 H 0.5676 0.6499 0.8415
H21 H 0.5581 0.5713 0.9017
H22 H 0.4439 0.5253 0.8020
C21 C 0.6209(3) 0.3486(2) 0.88657(15)
H23 H 0.5247 0.3837 0.9089
C22 C 0.7627(4) 0.4200(3) 0.96596(18)
H24 H 0.7317 0.4201 1.0282
H25 H 0.7893 0.5006 0.9716
H26 H 0.8577 0.3851 0.9488
C23 C 0.5768(4) 0.2229(2) 0.87698(19)
H27 H 0.6682 0.1851 0.8549
H28 H 0.4809 0.1798 0.8296
H29 H 0.5531 0.2230 0.9402
C24 C 0.2149(3) 0.26796(18) 0.46646(16)
H30 H 0.2863 0.3303 0.5220
H31 H 0.1030 0.2588 0.4835
H32 H 0.2198 0.2884 0.4105
C25 C 0.4398(2) 0.15559(17) 0.40649(13)
C26 C 0.5033(3) 0.05496(17) 0.37715(14)
H33 H 0.4401 -0.0139 0.3791
C27 C 0.6556(3) 0.05343(19) 0.34544(15)
H34 H 0.6966 -0.0158 0.3265
C28 C 0.7491(3) 0.15244(18) 0.34106(14)
H35 H 0.8540 0.1518 0.3191
C29 C 0.6874(3) 0.25205(18) 0.36903(15)
C30 C 0.5347(2) 0.25372(18) 0.40168(14)
H36 H 0.4947 0.3233 0.4210
C31 C 0.7855(3) 0.3592(2) 0.3643(2)
F1 F 0.7591(8) 0.4541(3) 0.4251(5)
F2 F 0.9392(4) 0.3626(5) 0.3629(6)
F3 F 0.7464(7) 0.3573(5) 0.2746(4)
H37 H 0.245(3) 0.086(2) 0.2600(16)
N1 N 0.1657(2) 0.04425(17) 0.26875(12)
N2 N 0.2754(2) 0.05296(17) 0.10910(13)
O1 O 0.02819(19) -0.00214(14) 0.37921(11)
Si1 Si 0.65941(7) 0.35724(5) 0.76703(4)
F4? F 0.8780(11) 0.4294(6) 0.4519(4)
F5? F 0.8931(11) 0.3432(5) 0.3063(5)
F6? F 0.7051(6) 0.4293(6) 0.3525(8)
loop_
_geom_bond_atom_site_label_1
_geom_bond_atom_site_label_2
_geom_bond_site_symmetry_1
_geom_bond_site_symmetry_2
C1 C2 1_555 1_555
C2 H1 1_555 1_555
C3 C2 1_555 1_555
H2 C3 1_555 1_555
C4 C3 1_555 1_555
H3 C4 1_555 1_555
C5 C4 1_555 1_555
C6 C5 1_555 1_555
H4 C6 1_555 1_555
C7 C6 1_555 1_555
H5 C7 1_555 1_555
C8 C7 1_555 1_555
H6 C8 1_555 1_555
C9 C1 1_555 1_555
C10 C11 1_555 1_555
C11 C12 1_555 1_555
C12 H7 1_555 1_555
H8 C12 1_555 1_555
C13 C12 1_555 1_555
C14 C13 1_555 1_555
C15 H9 1_555 1_555
C16 C15 1_555 1_555
H10 C16 1_555 1_555
H11 C16 1_555 1_555
H12 C16 1_555 1_555
C17 C15 1_555 1_555
H13 C17 1_555 1_555
H14 C17 1_555 1_555
H15 C17 1_555 1_555
C18 H16 1_555 1_555
C19 C18 1_555 1_555
H17 C19 1_555 1_555
H18 C19 1_555 1_555
H19 C19 1_555 1_555
C20 C18 1_555 1_555
H20 C20 1_555 1_555
H21 C20 1_555 1_555
H22 C20 1_555 1_555
C21 H23 1_555 1_555
C22 C21 1_555 1_555
H24 C22 1_555 1_555
H25 C22 1_555 1_555
H26 C22 1_555 1_555
C23 C21 1_555 1_555
H27 C23 1_555 1_555
H28 C23 1_555 1_555
H29 C23 1_555 1_555
C24 C11 1_555 1_555
H30 C24 1_555 1_555
H31 C24 1_555 1_555
H32 C24 1_555 1_555
C25 C11 1_555 1_555
C26 C25 1_555 1_555
H33 C26 1_555 1_555
C27 C26 1_555 1_555
H34 C27 1_555 1_555
C28 C27 1_555 1_555
H35 C28 1_555 1_555
C29 C28 1_555 1_555
C30 C25 1_555 1_555
H36 C30 1_555 1_555
C31 C29 1_555 1_555
F1 C31 1_555 1_555
F2 C31 1_555 1_555
F3 C31 1_555 1_555
H37 N1 1_555 1_555
N1 C1 1_555 1_555
N2 C8 1_555 1_555
O1 C10 1_555 1_555
Si1 C14 1_555 1_555
C5 C9 1_555 1_555
C9 N2 1_555 1_555
C10 N1 1_555 1_555
C15 Si1 1_555 1_555
C18 Si1 1_555 1_555
C21 Si1 1_555 1_555
C29 C30 1_555 1_555

#END
