
#######################################################################
#
#                 Cambridge Crystallographic Data Centre
#                                CCDC 
#
#######################################################################
#
# If this CIF has been generated from an entry in the Cambridge 
# Structural Database, then it will include bibliographic, chemical, 
# crystal, experimental, refinement or atomic coordinate data resulting 
# from the CCDC's data processing and validation procedures.
#
#######################################################################

data_YAKMAA
_chemical_formula_moiety         'C24 H24 N3 O10 P1,H2 O1'
_chemical_name_systematic        
'tris(2-Methoxy-5-nitrobenzyl)phosphine oxide monohydrate'
_symmetry_cell_setting           monoclinic
_symmetry_space_group_name_H-M   'C 2/c'
_symmetry_Int_Tables_number      15
_space_group_name_Hall           '-C 2yn'
loop_
_symmetry_equiv_pos_site_id
_symmetry_equiv_pos_as_xyz
1 x,y,z
2 -x,y,1/2-z
3 1/2+x,1/2+y,z
4 1/2-x,1/2+y,1/2-z
5 -x,-y,-z
6 x,-y,1/2+z
7 1/2-x,1/2-y,-z
8 1/2+x,1/2-y,1/2+z
_cell_length_a                   25.6610(12)
_cell_length_b                   16.669(2)
_cell_length_c                   17.5510(16)
_cell_angle_alpha                90
_cell_angle_beta                 121.181(5)
_cell_angle_gamma                90
_cell_volume                     6422.78
_exptl_crystal_colour            yellow
_exptl_crystal_description       prism
_cell_formula_units_Z            8
loop_
_atom_site_label
_atom_site_type_symbol
_atom_site_fract_x
_atom_site_fract_y
_atom_site_fract_z
C1 C 0.73680(11) 1.06697(14) 0.41216(15)
H1 H 0.6987 1.0449 0.4019
H2 H 0.7616 1.0809 0.4747
C2 C 0.72382(10) 1.14227(16) 0.35612(15)
C3 C 0.76194(11) 1.20828(15) 0.39166(17)
C4 C 0.75155(11) 1.27641(14) 0.33981(16)
H3 H 0.7770 1.3208 0.3635
C5 C 0.70328(10) 1.27765(14) 0.25321(16)
H4 H 0.6965 1.3230 0.2185
C6 C 0.66468(11) 1.21234(15) 0.21706(16)
C7 C 0.67540(10) 1.14415(14) 0.26899(14)
H5 H 0.6500 1.0998 0.2451
C8 C 0.85327(10) 1.27068(15) 0.52210(16)
H6 H 0.8663 1.2888 0.4826
H7 H 0.8879 1.2520 0.5766
H8 H 0.8343 1.3142 0.5346
C9 C 0.79338(10) 0.91041(14) 0.46314(15)
H9 H 0.8237 0.8757 0.4630
H10 H 0.8113 0.9333 0.5223
C10 C 0.74088(9) 0.86141(13) 0.44568(14)
C11 C 0.72200(10) 0.79700(13) 0.38655(15)
H11 H 0.7445 0.7821 0.3610
C12 C 0.66942(10) 0.75520(12) 0.36600(14)
C13 C 0.63510(10) 0.77650(14) 0.40283(15)
H12 H 0.5999 0.7482 0.3884
C14 C 0.65363(10) 0.84008(14) 0.46110(15)
H13 H 0.6305 0.8546 0.4859
C15 C 0.70661(11) 0.88347(16) 0.48399(16)
C16 C 0.69915(11) 0.96901(16) 0.59171(16)
H14 H 0.6575 0.9514 0.5616
H15 H 0.7005 1.0265 0.5956
H16 H 0.7208 0.9466 0.6506
C17 C 0.84934(10) 1.03313(14) 0.41109(15)
H17 H 0.8417 1.0822 0.3772
H18 H 0.8724 1.0471 0.4738
C18 C 0.88553(10) 0.98019(14) 0.39197(15)
C19 C 0.87399(10) 0.97687(14) 0.30547(15)
H19 H 0.8424 1.0069 0.2608
C20 C 0.90989(11) 0.92845(15) 0.28565(16)
C21 C 0.95753(10) 0.88496(15) 0.35329(16)
H20 H 0.9802 0.8507 0.3397
C22 C 0.97188(10) 0.89180(15) 0.44120(16)
H21 H 1.0066 0.8676 0.4873
C23 C 0.93262(10) 0.93611(15) 0.45815(16)
C24 C 0.98978(10) 0.88654(15) 0.61061(15)
H22 H 0.9920 0.8377 0.5835
H23 H 0.9799 0.8744 0.6552
H24 H 1.0284 0.9135 0.6378
N1 N 0.62154(8) 1.21901(12) 0.12735(13)
N2 N 0.65078(9) 0.68915(12) 0.30212(14)
N3 N 0.89461(9) 0.92345(12) 0.19143(13)
O1 O 0.73958(7) 0.96177(10) 0.28982(10)
O2 O 0.80795(7) 1.20279(10) 0.47851(11)
O3 O 0.62525(7) 1.26902(10) 0.08284(10)
O4 O 0.58254(7) 1.16790(10) 0.10072(11)
O5 O 0.72748(7) 0.94241(10) 0.54208(11)
O6 O 0.60524(7) 0.65133(10) 0.28647(11)
O7 O 0.67856(7) 0.67448(11) 0.26933(11)
O8 O 0.94223(7) 0.93887(10) 0.54212(11)
O9 O 0.84754(7) 0.95138(10) 0.13342(11)
O10 O 0.92784(7) 0.88148(10) 0.18307(11)
P1 P 0.77669(3) 0.99045(4) 0.38525(4)
O12 O 0.5550(3) 0.8785(4) 0.1629(4)
H27 H 0.5259 0.8507 0.1230
H28 H 0.5694 0.9084 0.1389
O13 O 0.94811(19) 0.4108(3) 0.5410(3)
H29 H 0.9196 0.4448 0.5137
H30 H 0.9574 0.3909 0.5051
O11? O 0.9664(3) 0.4192(4) 0.7178(4)
H25? H 0.9489 0.3835 0.6779
H26? H 1.0040 0.4209 0.7352
loop_
_geom_bond_atom_site_label_1
_geom_bond_atom_site_label_2
_geom_bond_site_symmetry_1
_geom_bond_site_symmetry_2
C1 H1 1_555 1_555
H2 C1 1_555 1_555
C2 C1 1_555 1_555
C3 C2 1_555 1_555
C4 C3 1_555 1_555
H3 C4 1_555 1_555
C5 C4 1_555 1_555
H4 C5 1_555 1_555
C6 C5 1_555 1_555
C7 C2 1_555 1_555
H5 C7 1_555 1_555
C8 H6 1_555 1_555
H7 C8 1_555 1_555
H8 C8 1_555 1_555
C9 H9 1_555 1_555
H10 C9 1_555 1_555
C10 C9 1_555 1_555
C11 C10 1_555 1_555
H11 C11 1_555 1_555
C12 C11 1_555 1_555
C13 C12 1_555 1_555
H12 C13 1_555 1_555
C14 C13 1_555 1_555
H13 C14 1_555 1_555
C15 C10 1_555 1_555
C16 H14 1_555 1_555
H15 C16 1_555 1_555
H16 C16 1_555 1_555
C17 H17 1_555 1_555
H18 C17 1_555 1_555
C18 C17 1_555 1_555
C19 C18 1_555 1_555
H19 C19 1_555 1_555
C20 C19 1_555 1_555
C21 C20 1_555 1_555
H20 C21 1_555 1_555
C22 C21 1_555 1_555
H21 C22 1_555 1_555
C23 C18 1_555 1_555
C24 H22 1_555 1_555
H23 C24 1_555 1_555
H24 C24 1_555 1_555
N1 C6 1_555 1_555
N2 C12 1_555 1_555
N3 C20 1_555 1_555
O1 P1 1_555 1_555
O2 C3 1_555 1_555
O3 N1 1_555 1_555
O4 N1 1_555 1_555
O5 C15 1_555 1_555
O6 N2 1_555 1_555
O7 N2 1_555 1_555
O8 C23 1_555 1_555
O9 N3 1_555 1_555
O10 N3 1_555 1_555
O12 H27 1_555 1_555
H28 O12 1_555 1_555
O13 H29 1_555 1_555
H30 O13 1_555 1_555
P1 C1 1_555 1_555
C6 C7 1_555 1_555
C8 O2 1_555 1_555
C9 P1 1_555 1_555
C14 C15 1_555 1_555
C16 O5 1_555 1_555
C17 P1 1_555 1_555
C22 C23 1_555 1_555
C24 O8 1_555 1_555

#END
