
#######################################################################
#
#                 Cambridge Crystallographic Data Centre
#                                CCDC 
#
#######################################################################
#
# If this CIF has been generated from an entry in the Cambridge 
# Structural Database, then it will include bibliographic, chemical, 
# crystal, experimental, refinement or atomic coordinate data resulting 
# from the CCDC's data processing and validation procedures.
#
#######################################################################

data_YAKMUU
_chemical_formula_moiety         'C21 H18 N4 O6'
_chemical_name_systematic        tris(3-Nitrobenzyl)amine
_symmetry_cell_setting           monoclinic
_symmetry_space_group_name_H-M   'P 21/n'
_symmetry_Int_Tables_number      14
_space_group_name_Hall           '-P 2yn'
loop_
_symmetry_equiv_pos_site_id
_symmetry_equiv_pos_as_xyz
1 x,y,z
2 1/2-x,1/2+y,1/2-z
3 -x,-y,-z
4 1/2+x,1/2-y,1/2+z
_cell_length_a                   8.4264(13)
_cell_length_b                   17.008(3)
_cell_length_c                   14.497(2)
_cell_angle_alpha                90
_cell_angle_beta                 101.943(2)
_cell_angle_gamma                90
_cell_volume                     2032.68
_exptl_crystal_colour            colorless
_exptl_crystal_description       prism
_cell_formula_units_Z            4
loop_
_atom_site_label
_atom_site_type_symbol
_atom_site_fract_x
_atom_site_fract_y
_atom_site_fract_z
C1 C 1.0369(3) 0.24641(14) 0.12985(17)
H1 H 1.1376 0.2345 0.1104
H2 H 1.0050 0.2995 0.1096
C2 C 0.9077(3) 0.18969(14) 0.08367(15)
C3 C 0.9410(3) 0.12883(13) 0.02760(16)
H3 H 1.0458 0.1228 0.0175
C4 C 0.8215(3) 0.07662(14) -0.01391(18)
H4 H 0.8468 0.0357 -0.0509
C5 C 0.6651(3) 0.08514(14) -0.00063(18)
H5 H 0.5835 0.0503 -0.0277
C6 C 0.6341(3) 0.14676(15) 0.05396(17)
C7 C 0.7501(3) 0.19842(14) 0.09677(18)
H6 H 0.7240 0.2389 0.1342
C8 C 1.1518(3) 0.17079(14) 0.26895(18)
H7 H 1.2669 0.1800 0.2737
H8 H 1.1196 0.1280 0.2248
C9 C 1.1222(3) 0.14706(15) 0.36525(17)
C10 C 1.2459(3) 0.11716(15) 0.43467(18)
H9 H 1.3511 0.1149 0.4242
C11 C 1.2145(3) 0.09080(15) 0.51875(19)
H10 H 1.2984 0.0700 0.5641
C12 C 1.0610(4) 0.09478(15) 0.53669(19)
H11 H 1.0399 0.0771 0.5937
C13 C 0.9407(3) 0.12516(15) 0.46910(18)
C14 C 0.9683(3) 0.15216(13) 0.38352(17)
H12 H 0.8839 0.1735 0.3389
C15 C 1.1438(3) 0.31221(14) 0.27788(17)
H13 H 1.2343 0.3252 0.2488
H14 H 1.1865 0.3016 0.3441
C16 C 1.0291(3) 0.38112(15) 0.26875(17)
C17 C 1.0769(3) 0.45537(15) 0.24682(17)
H15 H 1.1797 0.4626 0.2342
C18 C 0.9735(3) 0.51897(17) 0.24336(18)
H16 H 1.0078 0.5685 0.2287
C19 C 0.8209(3) 0.50985(16) 0.26136(18)
H17 H 0.7513 0.5526 0.2593
C20 C 0.7740(3) 0.43574(15) 0.28253(17)
C21 C 0.8768(3) 0.37174(15) 0.28664(18)
H18 H 0.8424 0.3223 0.3016
N1 N 1.0622(2) 0.24154(12) 0.23280(14)
N2 N 0.6109(3) 0.42488(13) 0.29997(15)
N3 N 0.4681(3) 0.15710(12) 0.06827(15)
N4 N 0.7737(3) 0.12932(13) 0.48494(16)
O1 O 0.5710(2) 0.35853(11) 0.31857(12)
O2 O 0.5210(2) 0.48054(10) 0.29467(12)
O3 O 0.3643(2) 0.11101(10) 0.03142(12)
O4 O 0.4414(2) 0.21092(11) 0.11832(13)
O5 O 0.7488(2) 0.10101(11) 0.55766(13)
O6 O 0.6703(2) 0.16107(10) 0.42665(13)
loop_
_geom_bond_atom_site_label_1
_geom_bond_atom_site_label_2
_geom_bond_site_symmetry_1
_geom_bond_site_symmetry_2
C1 H1 1_555 1_555
H2 C1 1_555 1_555
C2 C1 1_555 1_555
C3 C2 1_555 1_555
H3 C3 1_555 1_555
C4 C3 1_555 1_555
H4 C4 1_555 1_555
C5 C4 1_555 1_555
H5 C5 1_555 1_555
C6 C5 1_555 1_555
C7 C2 1_555 1_555
H6 C7 1_555 1_555
C8 H7 1_555 1_555
H8 C8 1_555 1_555
C9 C8 1_555 1_555
C10 C9 1_555 1_555
H9 C10 1_555 1_555
C11 C10 1_555 1_555
H10 C11 1_555 1_555
C12 C11 1_555 1_555
H11 C12 1_555 1_555
C13 C12 1_555 1_555
C14 C9 1_555 1_555
H12 C14 1_555 1_555
C15 H13 1_555 1_555
H14 C15 1_555 1_555
C16 C15 1_555 1_555
C17 C16 1_555 1_555
H15 C17 1_555 1_555
C18 C17 1_555 1_555
H16 C18 1_555 1_555
C19 C18 1_555 1_555
H17 C19 1_555 1_555
C20 C19 1_555 1_555
C21 C16 1_555 1_555
H18 C21 1_555 1_555
N1 C1 1_555 1_555
N2 C20 1_555 1_555
N3 C6 1_555 1_555
N4 C13 1_555 1_555
O1 N2 1_555 1_555
O2 N2 1_555 1_555
O3 N3 1_555 1_555
O4 N3 1_555 1_555
O5 N4 1_555 1_555
O6 N4 1_555 1_555
C6 C7 1_555 1_555
C8 N1 1_555 1_555
C13 C14 1_555 1_555
C15 N1 1_555 1_555
C20 C21 1_555 1_555

#END
