
#######################################################################
#
#                 Cambridge Crystallographic Data Centre
#                                CCDC 
#
#######################################################################
#
# If this CIF has been generated from an entry in the Cambridge 
# Structural Database, then it will include bibliographic, chemical, 
# crystal, experimental, refinement or atomic coordinate data resulting 
# from the CCDC's data processing and validation procedures.
#
#######################################################################

data_YAKMII
_chemical_formula_moiety         'C24 H27 O4 P1,2.5(H2 O1)'
_chemical_name_systematic        'tris(2-Methoxybenzyl)phosphine oxide hydrate'
_symmetry_cell_setting           cubic
_symmetry_space_group_name_H-M   'P -4 3 n'
_symmetry_Int_Tables_number      218
_space_group_name_Hall           'P -4n 2 3'
loop_
_symmetry_equiv_pos_site_id
_symmetry_equiv_pos_as_xyz
1 x,y,z
2 -x,-y,z
3 -x,y,-z
4 x,-y,-z
5 z,x,y
6 z,-x,-y
7 -z,-x,y
8 -z,x,-y
9 y,z,x
10 -y,z,-x
11 y,-z,-x
12 -y,-z,x
13 1/2+y,1/2+x,1/2+z
14 1/2-y,1/2-x,1/2+z
15 1/2+y,1/2-x,1/2-z
16 1/2-y,1/2+x,1/2-z
17 1/2+x,1/2+z,1/2+y
18 1/2-x,1/2+z,1/2-y
19 1/2-x,1/2-z,1/2+y
20 1/2+x,1/2-z,1/2-y
21 1/2+z,1/2+y,1/2+x
22 1/2+z,1/2-y,1/2-x
23 1/2-z,1/2+y,1/2-x
24 1/2-z,1/2-y,1/2+x
_cell_length_a                   16.812(7)
_cell_length_b                   16.812(7)
_cell_length_c                   16.812(7)
_cell_angle_alpha                90
_cell_angle_beta                 90
_cell_angle_gamma                90
_cell_volume                     4751.8
_exptl_crystal_colour            colorless
_exptl_crystal_description       prism
_cell_formula_units_Z            8
loop_
_atom_site_label
_atom_site_type_symbol
_atom_site_fract_x
_atom_site_fract_y
_atom_site_fract_z
C1 C 0.88212(17) 0.82374(18) 0.74162(19)
H1 H 0.8679 0.8558 0.6958
H2 H 0.9128 0.8569 0.7775
C2 C 0.93399(16) 0.75390(17) 0.71407(17)
C3 C 0.99597(17) 0.72588(19) 0.76318(18)
C4 C 1.04109(19) 0.6594(2) 0.7412(2)
H3 H 1.0821 0.6405 0.7732
C5 C 1.0225(2) 0.6240(2) 0.6719(2)
H4 H 1.0480 0.5767 0.6585
C6 C 0.9690(2) 0.6543(2) 0.6217(2)
H5 H 0.9634 0.6317 0.5714
C7 C 0.9208(2) 0.71910(19) 0.6426(2)
H6 H 0.8813 0.7376 0.6086
C8 C 1.0733(3) 0.7409(3) 0.8820(3)
H7 H 1.0765 0.7733 0.9289
H8 H 1.1221 0.7453 0.8525
H9 H 1.0650 0.6865 0.8970
O1 O 0.74145(13) 0.74145(13) 0.74145(13)
O2 O 1.00863(13) 0.76716(16) 0.83369(13)
P1 P 0.79178(4) 0.79178(4) 0.79178(4)
C1H C 0.82374(18) 0.74162(19) 0.88212(17)
C1D C 0.74162(19) 0.88212(17) 0.82374(18)
H1H H 0.8558 0.6958 0.8679
H1D H 0.6958 0.8679 0.8558
H2H H 0.8569 0.7775 0.9128
H2D H 0.7775 0.9128 0.8569
C2H C 0.75390(17) 0.71407(17) 0.93399(16)
C2D C 0.71407(17) 0.93399(16) 0.75390(17)
C3H C 0.72588(19) 0.76318(18) 0.99597(17)
C3D C 0.76318(18) 0.99597(17) 0.72588(19)
C4H C 0.6594(2) 0.7412(2) 1.04109(19)
C4D C 0.7412(2) 1.04109(19) 0.6594(2)
H3H H 0.6405 0.7732 1.0821
H3D H 0.7732 1.0821 0.6405
C5H C 0.6240(2) 0.6719(2) 1.0225(2)
C5D C 0.6719(2) 1.0225(2) 0.6240(2)
H4H H 0.5767 0.6585 1.0480
H4D H 0.6585 1.0480 0.5767
C6H C 0.6543(2) 0.6217(2) 0.9690(2)
C6D C 0.6217(2) 0.9690(2) 0.6543(2)
H5H H 0.6317 0.5714 0.9634
H5D H 0.5714 0.9634 0.6317
C7H C 0.71910(19) 0.6426(2) 0.9208(2)
C7D C 0.6426(2) 0.9208(2) 0.71910(19)
H6H H 0.7376 0.6086 0.8813
H6D H 0.6086 0.8813 0.7376
C8H C 0.7409(3) 0.8820(3) 1.0733(3)
C8D C 0.8820(3) 1.0733(3) 0.7409(3)
H7H H 0.7733 0.9289 1.0765
H7D H 0.9289 1.0765 0.7733
H8H H 0.7453 0.8525 1.1221
H8D H 0.8525 1.1221 0.7453
H9H H 0.6865 0.8970 1.0650
H9D H 0.8970 1.0650 0.6865
O2H O 0.76716(16) 0.83369(13) 1.00863(13)
O2D O 0.83369(13) 1.00863(13) 0.76716(16)
O3 O 0.94806(19) 0.94806(19) 0.94806(19)
H11 H 0.8566 0.5406 0.4726
H12 H 0.9357 0.5178 0.4790
O4 O 0.8944(4) 0.5490(4) 0.4822(4)
H10? H 0.9182 0.9889 0.9542
H13? H 0.9182 0.9887 0.9432
loop_
_geom_bond_atom_site_label_1
_geom_bond_atom_site_label_2
_geom_bond_site_symmetry_1
_geom_bond_site_symmetry_2
C1 H1 1_555 1_555
H2 C1 1_555 1_555
C2 C1 1_555 1_555
C3 C2 1_555 1_555
C4 C3 1_555 1_555
H3 C4 1_555 1_555
C5 C4 1_555 1_555
H4 C5 1_555 1_555
C6 C5 1_555 1_555
H5 C6 1_555 1_555
C7 C2 1_555 1_555
H6 C7 1_555 1_555
C8 H7 1_555 1_555
H8 C8 1_555 1_555
H9 C8 1_555 1_555
O1 P1 1_555 1_555
O2 C3 1_555 1_555
H11 O4 1_555 1_555
H12 O4 1_555 1_555
P1 C1 1_555 1_555
C1H P1 1_555 1_555
C1D P1 1_555 1_555
H1H C1H 1_555 1_555
H1D C1D 1_555 1_555
H2H C1H 1_555 1_555
H2D C1D 1_555 1_555
C2H C1H 1_555 1_555
C2D C1D 1_555 1_555
C3H C2H 1_555 1_555
C3D C2D 1_555 1_555
C4H C3H 1_555 1_555
C4D C3D 1_555 1_555
H3H C4H 1_555 1_555
H3D C4D 1_555 1_555
C5H C4H 1_555 1_555
C5D C4D 1_555 1_555
H4H C5H 1_555 1_555
H4D C5D 1_555 1_555
C6H C5H 1_555 1_555
C6D C5D 1_555 1_555
H5H C6H 1_555 1_555
H5D C6D 1_555 1_555
C7H C2H 1_555 1_555
C7D C2D 1_555 1_555
H6H C7H 1_555 1_555
H6D C7D 1_555 1_555
C8H H7H 1_555 1_555
C8D H7D 1_555 1_555
H8H C8H 1_555 1_555
H8D C8D 1_555 1_555
H9H C8H 1_555 1_555
H9D C8D 1_555 1_555
O2H C3H 1_555 1_555
O2D C3D 1_555 1_555
C6 C7 1_555 1_555
C8 O2 1_555 1_555
C6H C7H 1_555 1_555
C6D C7D 1_555 1_555
C8H O2H 1_555 1_555
C8D O2D 1_555 1_555

#END
