
#######################################################################
#
#                 Cambridge Crystallographic Data Centre
#                                CCDC 
#
#######################################################################
#
# If this CIF has been generated from an entry in the Cambridge 
# Structural Database, then it will include bibliographic, chemical, 
# crystal, experimental, refinement or atomic coordinate data resulting 
# from the CCDC's data processing and validation procedures.
#
#######################################################################

data_YAKQOT
_chemical_formula_moiety         'C26 H26 Cl1 F1 N3 O3 P1'
_chemical_name_systematic        
'diethyl ((3-(4-chlorophenyl)-1-phenyl-1H-pyrazol-4-yl)((4-fluorophenyl)amino)methyl)phosphonate unknown solvate'
_chemical_properties_biological  
'tested for insecticidal activity against Plutella xylostella'
_symmetry_cell_setting           monoclinic
_symmetry_space_group_name_H-M   'P 21/c'
_symmetry_Int_Tables_number      14
_space_group_name_Hall           '-P 2ybc'
loop_
_symmetry_equiv_pos_site_id
_symmetry_equiv_pos_as_xyz
1 x,y,z
2 -x,1/2+y,1/2-z
3 -x,-y,-z
4 x,1/2-y,1/2+z
_cell_length_a                   14.9767(6)
_cell_length_b                   11.7660(5)
_cell_length_c                   17.4857(7)
_cell_angle_alpha                90
_cell_angle_beta                 108.706(2)
_cell_angle_gamma                90
_cell_volume                     2918.5
_exptl_crystal_colour            colorless
_exptl_crystal_description       block
_chemical_melting_point          '164-166 deg.C'
_cell_formula_units_Z            4
loop_
_atom_site_label
_atom_site_type_symbol
_atom_site_fract_x
_atom_site_fract_y
_atom_site_fract_z
Cl1 Cl 0.56208(5) 1.01703(10) -0.13586(7)
P1 P 0.16798(4) 0.96516(5) 0.11496(3)
F1 F 0.2662(2) 1.53036(16) -0.02718(18)
N1 N 0.12516(12) 1.10137(15) -0.01599(11)
H1 H 0.0650 1.0942 -0.0361
N2 N 0.08234(11) 0.75627(14) -0.11050(10)
N3 N 0.16159(11) 0.76951(14) -0.13113(10)
O1 O 0.24766(11) 0.87681(16) 0.15147(11)
O2 O 0.20624(14) 1.07517(17) 0.16398(11)
O3 O 0.07439(10) 0.92774(14) 0.11355(9)
C1 C 0.20562(13) 0.85783(17) -0.08765(12)
C2 C 0.29538(13) 0.89780(18) -0.09583(12)
C3 C 0.15437(13) 0.90164(16) -0.03875(12)
C4 C 0.17960(13) 1.00116(17) 0.01741(12)
H2 H 0.2461 1.0191 0.0262
C5 C 0.07635(14) 0.83402(17) -0.05568(12)
H3 H 0.0279 0.8404 -0.0334
C6 C 0.01433(15) 0.62257(19) -0.21968(13)
H4 H 0.0531 0.6513 -0.2473
C7 C 0.16342(15) 1.20825(18) -0.01771(13)
C8 C 0.31176(16) 1.0111(2) -0.10398(15)
H5 H 0.2665 1.0642 -0.1020
C9 C 0.46067(17) 0.9706(3) -0.11815(17)
C10 C 0.01792(14) 0.66727(17) -0.14561(12)
C11 C -0.03895(18) 0.6235(2) -0.10424(16)
H6 H -0.0358 0.6524 -0.0539
C12 C 0.10941(19) 1.2893(2) -0.07049(14)
H7 H 0.0495 1.2704 -0.1044
C13 C 0.39449(17) 1.0479(2) -0.11512(16)
H8 H 0.4047 1.1250 -0.1205
C14 C -0.04719(18) 0.5351(2) -0.25201(14)
H9 H -0.0499 0.5051 -0.3019
C15 C -0.1005(2) 0.5364(3) -0.13852(19)
H10 H -0.1400 0.5076 -0.1116
C16 C 0.25225(17) 1.2392(2) 0.03229(16)
H11 H 0.2893 1.1868 0.0686
C17 C 0.36450(17) 0.8201(2) -0.09742(18)
H12 H 0.3554 0.7430 -0.0907
C18 C 0.44701(18) 0.8571(3) -0.1091(2)
H13 H 0.4930 0.8049 -0.1107
C19 C 0.1436(3) 1.3966(2) -0.07291(19)
H14 H 0.1068 1.4503 -0.1080
C20 C 0.2861(2) 1.3481(2) 0.0284(2)
H15 H 0.3460 1.3688 0.0614
C21 C 0.2305(3) 1.4243(2) -0.0245(2)
C22 C -0.1041(2) 0.4918(2) -0.21215(17)
H16 H -0.1451 0.4325 -0.2346
C23 C 0.1996(3) 1.1004(3) 0.2409(2)
H17 H 0.2196 1.0350 0.2761
H18 H 0.1345 1.1168 0.2361
C24 C 0.2347(3) 0.7627(3) 0.1686(3)
H19 H 0.1751 0.7364 0.1315
H20 H 0.2308 0.7576 0.2228
C25 C 0.2574(4) 1.1962(4) 0.2756(2)
H21 H 0.2511 1.2131 0.3273
H22 H 0.2378 1.2607 0.2406
H23 H 0.3220 1.1789 0.2820
C26 C 0.3071(3) 0.6905(4) 0.1626(4)
H24 H 0.2943 0.6141 0.1753
H25 H 0.3662 0.7150 0.1999
H26 H 0.3101 0.6932 0.1087
loop_
_geom_bond_atom_site_label_1
_geom_bond_atom_site_label_2
_geom_bond_site_symmetry_1
_geom_bond_site_symmetry_2
Cl1 C9 1_555 1_555
P1 O1 1_555 1_555
F1 C21 1_555 1_555
N1 H1 1_555 1_555
N2 N3 1_555 1_555
N3 C1 1_555 1_555
O1 C24 1_555 1_555
O2 P1 1_555 1_555
O3 P1 1_555 1_555
C1 C2 1_555 1_555
C2 C8 1_555 1_555
C3 C1 1_555 1_555
C4 P1 1_555 1_555
H2 C4 1_555 1_555
C5 N2 1_555 1_555
H3 C5 1_555 1_555
C6 H4 1_555 1_555
C7 N1 1_555 1_555
C8 H5 1_555 1_555
C9 C13 1_555 1_555
C10 N2 1_555 1_555
C11 C10 1_555 1_555
H6 C11 1_555 1_555
C12 C7 1_555 1_555
H7 C12 1_555 1_555
C13 C8 1_555 1_555
H8 C13 1_555 1_555
C14 C6 1_555 1_555
H9 C14 1_555 1_555
C15 C11 1_555 1_555
H10 C15 1_555 1_555
C16 C7 1_555 1_555
H11 C16 1_555 1_555
C17 C2 1_555 1_555
H12 C17 1_555 1_555
C18 C9 1_555 1_555
H13 C18 1_555 1_555
C19 C12 1_555 1_555
H14 C19 1_555 1_555
C20 C16 1_555 1_555
H15 C20 1_555 1_555
C21 C19 1_555 1_555
C22 C14 1_555 1_555
H16 C22 1_555 1_555
C23 O2 1_555 1_555
H17 C23 1_555 1_555
H18 C23 1_555 1_555
C24 H19 1_555 1_555
H20 C24 1_555 1_555
C25 C23 1_555 1_555
H21 C25 1_555 1_555
H22 C25 1_555 1_555
H23 C25 1_555 1_555
C26 C24 1_555 1_555
H24 C26 1_555 1_555
H25 C26 1_555 1_555
H26 C26 1_555 1_555
N1 C4 1_555 1_555
C3 C4 1_555 1_555
C3 C5 1_555 1_555
C6 C10 1_555 1_555
C15 C22 1_555 1_555
C17 C18 1_555 1_555
C20 C21 1_555 1_555

#END
