
#######################################################################
#
#                 Cambridge Crystallographic Data Centre
#                                CCDC 
#
#######################################################################
#
# If this CIF has been generated from an entry in the Cambridge 
# Structural Database, then it will include bibliographic, chemical, 
# crystal, experimental, refinement or atomic coordinate data resulting 
# from the CCDC's data processing and validation procedures.
#
#######################################################################

data_YAKQAF
_chemical_formula_moiety         'C27 H30 N3 O4 P1'
_chemical_name_systematic        
'diethyl ((1,3-diphenyl-1H-pyrazol-4-yl)((4-methoxyphenyl)amino)methyl)phosphonate'
_chemical_properties_biological  
'tested for insecticidal activity against Plutella xylostella'
_symmetry_cell_setting           orthorhombic
_symmetry_space_group_name_H-M   'P b c a'
_symmetry_Int_Tables_number      61
_space_group_name_Hall           '-P 2ac 2ab'
loop_
_symmetry_equiv_pos_site_id
_symmetry_equiv_pos_as_xyz
1 x,y,z
2 1/2-x,-y,1/2+z
3 -x,1/2+y,1/2-z
4 1/2+x,1/2-y,-z
5 -x,-y,-z
6 1/2+x,y,1/2-z
7 x,1/2-y,1/2+z
8 1/2-x,1/2+y,z
_cell_length_a                   19.9700(10)
_cell_length_b                   11.2801(6)
_cell_length_c                   23.4256(13)
_cell_angle_alpha                90
_cell_angle_beta                 90
_cell_angle_gamma                90
_cell_volume                     5276.93
_exptl_crystal_colour            colorless
_exptl_crystal_description       block
_chemical_melting_point          '190-192 deg.C'
_cell_formula_units_Z            8
loop_
_atom_site_label
_atom_site_type_symbol
_atom_site_fract_x
_atom_site_fract_y
_atom_site_fract_z
P1 P 0.02505(3) 0.74128(6) 0.49357(3)
N1 N -0.08309(11) 0.60930(16) 0.47207(9)
H1 H -0.0689 0.5390 0.4795
N2 N -0.06176(9) 0.59532(16) 0.65651(8)
N3 N -0.11479(9) 0.66984(16) 0.66032(8)
O1 O 0.07208(9) 0.64419(15) 0.50191(8)
O2 O 0.02315(11) 0.7962(2) 0.43260(9)
O3 O -0.24900(14) 0.6358(3) 0.28121(11)
O4 O 0.03739(11) 0.85251(18) 0.53281(12)
C1 C -0.07083(10) 0.67443(18) 0.57111(9)
C2 C -0.06152(11) 0.70469(19) 0.50922(9)
H2 H -0.0890 0.7745 0.5007
C3 C 0.1498(3) 0.9156(6) 0.5438(3)
H3 H 0.1686 0.9939 0.5432
H4 H 0.1668 0.8709 0.5121
H5 H 0.1617 0.8768 0.5788
C4 C 0.0882(3) 0.9223(8) 0.5402(4)
H6 H 0.0822 0.9802 0.5100
H7 H 0.0764 0.9638 0.5750
C5 C 0.0689(4) 0.8304(6) 0.3426(2)
H8 H 0.0925 0.7896 0.3128
H9 H 0.0951 0.8963 0.3556
H10 H 0.0268 0.8586 0.3282
C6 C -0.03462(10) 0.59636(19) 0.60365(9)
H11 H 0.0020 0.5521 0.5915
C7 C -0.12044(10) 0.71826(18) 0.60896(9)
C8 C -0.17496(10) 0.80283(18) 0.59684(9)
C9 C -0.12511(11) 0.6235(2) 0.42512(9)
C10 C -0.04459(12) 0.5216(2) 0.70357(10)
C11 C 0.0580(3) 0.7563(5) 0.38591(18)
H12 H 0.1012 0.7284 0.3992
H13 H 0.0343 0.6880 0.3709
C12 C -0.21430(12) 0.7897(2) 0.54875(11)
H14 H -0.2049 0.7296 0.5228
C13 C -0.15757(12) 0.5240(2) 0.40328(11)
H15 H -0.1515 0.4508 0.4208
C14 C -0.0768(2) 0.4177(4) 0.78766(15)
H16 H -0.1093 0.3977 0.8144
C15 C -0.20790(14) 0.6390(3) 0.32879(12)
C16 C -0.18975(15) 0.8933(2) 0.63428(13)
H17 H -0.1638 0.9038 0.6668
C17 C 0.01824(13) 0.4728(3) 0.70784(11)
H18 H 0.0508 0.4907 0.6808
C18 C -0.19843(15) 0.5323(3) 0.35624(12)
H19 H -0.2200 0.4649 0.3427
C19 C -0.26761(13) 0.8655(3) 0.53909(14)
H20 H -0.2940 0.8559 0.5067
C20 C -0.13465(14) 0.7303(2) 0.39680(11)
H21 H -0.1128 0.7979 0.4098
C21 C -0.17629(14) 0.7382(3) 0.34941(11)
H22 H -0.1828 0.8110 0.3316
C22 C 0.03277(16) 0.3967(3) 0.75249(13)
H23 H 0.0749 0.3619 0.7547
C23 C -0.09288(16) 0.4926(3) 0.74315(12)
H24 H -0.1360 0.5232 0.7399
C24 C -0.28163(15) 0.9541(3) 0.57678(17)
H25 H -0.3177 1.0044 0.5702
C25 C -0.0134(2) 0.3724(4) 0.79289(14)
H26 H -0.0023 0.3253 0.8241
C26 C -0.2618(2) 0.7429(4) 0.25281(16)
H27 H -0.2905 0.7284 0.2207
H28 H -0.2203 0.7764 0.2397
H29 H -0.2832 0.7973 0.2785
C27 C -0.24316(18) 0.9690(3) 0.62377(17)
H30 H -0.2525 1.0302 0.6491
loop_
_geom_bond_atom_site_label_1
_geom_bond_atom_site_label_2
_geom_bond_site_symmetry_1
_geom_bond_site_symmetry_2
P1 O1 1_555 1_555
N1 H1 1_555 1_555
N2 N3 1_555 1_555
N3 C7 1_555 1_555
O2 P1 1_555 1_555
O3 C15 1_555 1_555
O4 P1 1_555 1_555
C1 C2 1_555 1_555
C2 P1 1_555 1_555
H2 C2 1_555 1_555
C3 H3 1_555 1_555
H4 C3 1_555 1_555
H5 C3 1_555 1_555
C4 O4 1_555 1_555
H6 C4 1_555 1_555
H7 C4 1_555 1_555
C5 H8 1_555 1_555
H9 C5 1_555 1_555
H10 C5 1_555 1_555
C6 N2 1_555 1_555
H11 C6 1_555 1_555
C7 C1 1_555 1_555
C8 C7 1_555 1_555
C9 N1 1_555 1_555
C10 N2 1_555 1_555
C11 O2 1_555 1_555
H12 C11 1_555 1_555
H13 C11 1_555 1_555
C12 C8 1_555 1_555
H14 C12 1_555 1_555
C13 C9 1_555 1_555
H15 C13 1_555 1_555
C14 H16 1_555 1_555
C15 C18 1_555 1_555
C16 C8 1_555 1_555
H17 C16 1_555 1_555
C17 C10 1_555 1_555
H18 C17 1_555 1_555
C18 C13 1_555 1_555
H19 C18 1_555 1_555
C19 C12 1_555 1_555
H20 C19 1_555 1_555
C20 C9 1_555 1_555
H21 C20 1_555 1_555
C21 C15 1_555 1_555
H22 C21 1_555 1_555
C22 C17 1_555 1_555
H23 C22 1_555 1_555
C23 C10 1_555 1_555
H24 C23 1_555 1_555
C24 C19 1_555 1_555
H25 C24 1_555 1_555
C25 C14 1_555 1_555
H26 C25 1_555 1_555
C26 O3 1_555 1_555
H27 C26 1_555 1_555
H28 C26 1_555 1_555
H29 C26 1_555 1_555
C27 C16 1_555 1_555
H30 C27 1_555 1_555
N1 C2 1_555 1_555
C1 C6 1_555 1_555
C3 C4 1_555 1_555
C5 C11 1_555 1_555
C14 C23 1_555 1_555
C20 C21 1_555 1_555
C22 C25 1_555 1_555
C24 C27 1_555 1_555

#END
