
#######################################################################
#
#                 Cambridge Crystallographic Data Centre
#                                CCDC 
#
#######################################################################
#
# If this CIF has been generated from an entry in the Cambridge 
# Structural Database, then it will include bibliographic, chemical, 
# crystal, experimental, refinement or atomic coordinate data resulting 
# from the CCDC's data processing and validation procedures.
#
#######################################################################

data_YAKVEO
_chemical_formula_moiety         'C30 H48 N2 O3'
_chemical_name_systematic        
N-(1-(t-butylamino)-3-methyl-1-oxobutan-2-yl)-3-hydroxy-N-methylandrosta-5,16-diene-17-carboxamide
_chemical_properties_biological  
'inhibitory effects on LPS-induced NO generation was evaluated in BV-2 microglial cells.'
_symmetry_cell_setting           monoclinic
_symmetry_space_group_name_H-M   'P 21'
_symmetry_Int_Tables_number      4
_space_group_name_Hall           'P 2yb'
loop_
_symmetry_equiv_pos_site_id
_symmetry_equiv_pos_as_xyz
1 x,y,z
2 -x,1/2+y,-z
_cell_length_a                   10.5316(9)
_cell_length_b                   24.479(2)
_cell_length_c                   11.6400(11)
_cell_angle_alpha                90
_cell_angle_beta                 92.906(2)
_cell_angle_gamma                90
_cell_volume                     2996.97
_exptl_crystal_colour            colorless
_exptl_crystal_description       prismatic
_cell_formula_units_Z            4
loop_
_atom_site_label
_atom_site_type_symbol
_atom_site_fract_x
_atom_site_fract_y
_atom_site_fract_z
N1 N -0.0827(3) 0.16278(11) 0.2300(3)
N2 N 0.0416(3) 0.08972(16) 0.0575(3)
O1 O 0.9170(2) 0.22849(11) 0.7871(2)
H1 H 0.9230 0.2013 0.8282
O2 O -0.0165(3) 0.09606(10) 0.3494(2)
O3 O -0.0849(4) 0.14905(16) -0.0396(3)
C1 C 0.6632(3) 0.17078(14) 0.5819(3)
H2 H 0.6515 0.1345 0.5493
H3 H 0.6758 0.1959 0.5189
C2 C 0.7828(3) 0.17071(15) 0.6618(3)
H4 H 0.7745 0.1433 0.7212
H5 H 0.8559 0.1613 0.6183
C3 C 0.8031(3) 0.22540(14) 0.7160(3)
H6 H 0.8118 0.2516 0.6533
C4 C 0.6885(3) 0.24244(15) 0.7789(3)
H7 H 0.7012 0.2793 0.8078
H8 H 0.6797 0.2185 0.8445
C5 C 0.5679(3) 0.24060(14) 0.7042(3)
C6 C 0.4933(3) 0.28346(15) 0.6921(3)
H9 H 0.5191 0.3155 0.7294
C7 C 0.3702(3) 0.28454(14) 0.6229(3)
H10 H 0.3811 0.3045 0.5521
H11 H 0.3071 0.3036 0.6657
C8 C 0.3226(3) 0.22718(13) 0.5943(3)
H12 H 0.2978 0.2096 0.6654
C9 C 0.4337(3) 0.19547(12) 0.5474(3)
H13 H 0.4693 0.2192 0.4894
C10 C 0.5412(3) 0.18720(12) 0.6410(3)
C11 C 0.3949(3) 0.14181(13) 0.4835(3)
H14 H 0.4639 0.1310 0.4362
H15 H 0.3851 0.1133 0.5403
C12 C 0.2731(3) 0.14482(13) 0.4073(3)
H16 H 0.2879 0.1666 0.3397
H17 H 0.2489 0.1084 0.3819
C13 C 0.1660(3) 0.16999(12) 0.4722(2)
C14 C 0.2095(3) 0.22744(12) 0.5092(3)
H18 H 0.2399 0.2445 0.4396
C15 C 0.0871(3) 0.25698(15) 0.5331(3)
H19 H 0.0617 0.2504 0.6109
H20 H 0.0943 0.2960 0.5206
C16 C -0.0026(3) 0.23088(15) 0.4456(3)
H21 H -0.0808 0.2457 0.4214
C17 C 0.0421(3) 0.18416(13) 0.4066(3)
C18 C 0.1344(3) 0.13416(15) 0.5755(3)
H22 H 0.0940 0.1011 0.5484
H23 H 0.0781 0.1537 0.6233
H24 H 0.2113 0.1254 0.6194
C19 C 0.5086(4) 0.14336(18) 0.7281(3)
H25 H 0.5724 0.1429 0.7900
H26 H 0.5056 0.1083 0.6910
H27 H 0.4273 0.1513 0.7579
C20 C -0.0210(3) 0.14442(14) 0.3267(3)
C21 C -0.0772(5) 0.21869(16) 0.1896(4)
H28 H -0.1388 0.2403 0.2272
H29 H -0.0954 0.2196 0.1080
H30 H 0.0062 0.2332 0.2069
C22 C -0.1416(3) 0.12296(15) 0.1492(3)
H31 H -0.1380 0.0870 0.1864
C23 C -0.2805(4) 0.13575(18) 0.1176(4)
H32 H -0.2847 0.1699 0.0736
C24 C -0.3376(5) 0.0909(2) 0.0439(5)
H33 H -0.2877 0.0858 -0.0220
H34 H -0.4229 0.1007 0.0190
H35 H -0.3388 0.0577 0.0875
C25 C -0.3562(4) 0.1428(3) 0.2249(5)
H36 H -0.4440 0.1490 0.2026
H37 H -0.3237 0.1736 0.2683
H38 H -0.3485 0.1105 0.2712
C26 C -0.0589(4) 0.12076(16) 0.0459(3)
C27 C 0.1479(6) 0.0848(3) -0.0199(5)
C28 C 0.2057(7) 0.1400(4) -0.0394(7)
H39 H 0.1403 0.1652 -0.0652
H40 H 0.2677 0.1371 -0.0968
H41 H 0.2459 0.1531 0.0312
C29 C 0.2458(6) 0.0495(4) 0.0398(6)
H42 H 0.2842 0.0688 0.1044
H43 H 0.3098 0.0402 -0.0126
H44 H 0.2064 0.0168 0.0662
C30 C 0.0956(9) 0.0600(4) -0.1319(6)
H45 H 0.0514 0.0267 -0.1161
H46 H 0.1644 0.0523 -0.1805
H47 H 0.0379 0.0852 -0.1701
H48 H 0.055(4) 0.0713(14) 0.119(2)
N3 N -0.1168(2) 0.42294(10) 0.7036(2)
N4 N 0.0507(3) 0.48596(12) 0.5359(3)
O4 O 0.8006(3) 0.33245(11) 1.3580(3)
H49 H 0.8389 0.3572 1.3921
O5 O -0.0170(3) 0.49043(10) 0.8021(2)
O6 O -0.0586(3) 0.41961(12) 0.4455(2)
C31 C 0.5804(4) 0.4064(2) 1.1480(4)
H50 H 0.5965 0.4273 1.0794
H51 H 0.5413 0.4308 1.2016
C32 C 0.7063(4) 0.3870(2) 1.2017(4)
H52 H 0.7505 0.3657 1.1460
H53 H 0.7587 0.4183 1.2231
C33 C 0.6862(3) 0.35283(15) 1.3064(3)
H54 H 0.6457 0.3758 1.3629
C34 C 0.5999(4) 0.30666(17) 1.2776(4)
H55 H 0.5825 0.2872 1.3476
H56 H 0.6421 0.2816 1.2275
C35 C 0.4757(4) 0.32450(15) 1.2190(3)
C36 C 0.3682(4) 0.3089(2) 1.2554(4)
H57 H 0.3708 0.2870 1.3209
C37 C 0.2392(4) 0.3224(3) 1.2029(4)
H58 H 0.1992 0.3496 1.2499
H59 H 0.1865 0.2899 1.2014
C38 C 0.2473(3) 0.34397(15) 1.0827(3)
H60 H 0.2665 0.3135 1.0318
C39 C 0.3551(3) 0.38527(15) 1.0806(3)
H61 H 0.3384 0.4115 1.1416
C40 C 0.4851(3) 0.36015(17) 1.1151(3)
C41 C 0.3555(4) 0.4192(3) 0.9695(5)
H62 H 0.3928 0.3973 0.9105
H63 H 0.4102 0.4507 0.9834
C42 C 0.2245(4) 0.4396(2) 0.9224(4)
H64 H 0.1941 0.4682 0.9718
H65 H 0.2316 0.4547 0.8459
C43 C 0.1315(3) 0.39237(15) 0.9181(3)
C44 C 0.1248(3) 0.37034(15) 1.0387(3)
H66 H 0.1132 0.4022 1.0879
C45 C 0.0005(4) 0.3393(2) 1.0372(4)
H67 H -0.0348 0.3385 1.1125
H68 H 0.0097 0.3023 1.0091
C46 C -0.0785(4) 0.3743(2) 0.9533(3)
H69 H -0.1669 0.3744 0.9482
C47 C -0.0085(3) 0.40446(13) 0.8891(3)
C48 C 0.1699(5) 0.3507(3) 0.8304(4)
H70 H 0.2595 0.3437 0.8402
H71 H 0.1506 0.3645 0.7543
H72 H 0.1239 0.3173 0.8410
C49 C 0.5372(5) 0.3291(4) 1.0162(4)
H73 H 0.6171 0.3129 1.0403
H74 H 0.5494 0.3537 0.9534
H75 H 0.4783 0.3010 0.9917
C50 C -0.0493(3) 0.44257(14) 0.7960(3)
C51 C -0.1381(4) 0.36476(15) 0.6805(3)
H76 H -0.0961 0.3435 0.7404
H77 H -0.1046 0.3554 0.6079
H78 H -0.2277 0.3572 0.6781
C52 C -0.1510(3) 0.46121(13) 0.6090(3)
H79 H -0.1441 0.4984 0.6396
C53 C -0.2873(4) 0.45276(15) 0.5620(4)
H80 H -0.2954 0.4153 0.5327
C54 C -0.3145(5) 0.49217(19) 0.4620(5)
H81 H -0.4028 0.4901 0.4376
H82 H -0.2634 0.4824 0.3991
H83 H -0.2944 0.5288 0.4864
C55 C -0.3775(5) 0.4599(3) 0.6543(6)
H84 H -0.3715 0.4966 0.6835
H85 H -0.3571 0.4346 0.7155
H86 H -0.4626 0.4533 0.6239
C56 C -0.0500(3) 0.45420(13) 0.5211(3)
C57 C 0.1687(4) 0.48288(17) 0.4746(4)
C58 C 0.2268(5) 0.42789(18) 0.4869(5)
H87 H 0.2451 0.4202 0.5669
H88 H 0.3041 0.4269 0.4467
H89 H 0.1687 0.4010 0.4550
C59 C 0.2575(5) 0.5256(2) 0.5336(6)
H90 H 0.2173 0.5608 0.5299
H91 H 0.3358 0.5271 0.4949
H92 H 0.2746 0.5156 0.6125
C60 C 0.1420(6) 0.4983(3) 0.3506(5)
H93 H 0.0916 0.4703 0.3127
H94 H 0.2208 0.5021 0.3134
H95 H 0.0965 0.5323 0.3465
H96 H 0.047(4) 0.5082(13) 0.588(2)
loop_
_geom_bond_atom_site_label_1
_geom_bond_atom_site_label_2
_geom_bond_site_symmetry_1
_geom_bond_site_symmetry_2
N1 C20 1_555 1_555
N2 C26 1_555 1_555
O1 H1 1_555 1_555
O2 C20 1_555 1_555
O3 C26 1_555 1_555
C1 H2 1_555 1_555
H3 C1 1_555 1_555
C2 C1 1_555 1_555
H4 C2 1_555 1_555
H5 C2 1_555 1_555
C3 O1 1_555 1_555
H6 C3 1_555 1_555
C4 C3 1_555 1_555
H7 C4 1_555 1_555
H8 C4 1_555 1_555
C5 C4 1_555 1_555
C6 C5 1_555 1_555
H9 C6 1_555 1_555
C7 C6 1_555 1_555
H10 C7 1_555 1_555
H11 C7 1_555 1_555
C8 C7 1_555 1_555
H12 C8 1_555 1_555
C9 C8 1_555 1_555
H13 C9 1_555 1_555
C10 C1 1_555 1_555
C11 C9 1_555 1_555
H14 C11 1_555 1_555
H15 C11 1_555 1_555
C12 C11 1_555 1_555
H16 C12 1_555 1_555
H17 C12 1_555 1_555
C13 C12 1_555 1_555
C14 C8 1_555 1_555
H18 C14 1_555 1_555
C15 C14 1_555 1_555
H19 C15 1_555 1_555
H20 C15 1_555 1_555
C16 C15 1_555 1_555
H21 C16 1_555 1_555
C17 C13 1_555 1_555
C18 C13 1_555 1_555
H22 C18 1_555 1_555
H23 C18 1_555 1_555
H24 C18 1_555 1_555
C19 C10 1_555 1_555
H25 C19 1_555 1_555
H26 C19 1_555 1_555
H27 C19 1_555 1_555
C20 C17 1_555 1_555
C21 N1 1_555 1_555
H28 C21 1_555 1_555
H29 C21 1_555 1_555
H30 C21 1_555 1_555
C22 N1 1_555 1_555
H31 C22 1_555 1_555
C23 C22 1_555 1_555
H32 C23 1_555 1_555
C24 C23 1_555 1_555
H33 C24 1_555 1_555
H34 C24 1_555 1_555
H35 C24 1_555 1_555
C25 C23 1_555 1_555
H36 C25 1_555 1_555
H37 C25 1_555 1_555
H38 C25 1_555 1_555
C26 C22 1_555 1_555
C27 N2 1_555 1_555
C28 C27 1_555 1_555
H39 C28 1_555 1_555
H40 C28 1_555 1_555
H41 C28 1_555 1_555
C29 C27 1_555 1_555
H42 C29 1_555 1_555
H43 C29 1_555 1_555
H44 C29 1_555 1_555
C30 C27 1_555 1_555
H45 C30 1_555 1_555
H46 C30 1_555 1_555
H47 C30 1_555 1_555
H48 N2 1_555 1_555
N3 C50 1_555 1_555
N4 C56 1_555 1_555
O4 H49 1_555 1_555
O5 C50 1_555 1_555
O6 C56 1_555 1_555
C31 H50 1_555 1_555
H51 C31 1_555 1_555
C32 C31 1_555 1_555
H52 C32 1_555 1_555
H53 C32 1_555 1_555
C33 O4 1_555 1_555
H54 C33 1_555 1_555
C34 C33 1_555 1_555
H55 C34 1_555 1_555
H56 C34 1_555 1_555
C35 C34 1_555 1_555
C36 C35 1_555 1_555
H57 C36 1_555 1_555
C37 C36 1_555 1_555
H58 C37 1_555 1_555
H59 C37 1_555 1_555
C38 C37 1_555 1_555
H60 C38 1_555 1_555
C39 C38 1_555 1_555
H61 C39 1_555 1_555
C40 C31 1_555 1_555
C41 C39 1_555 1_555
H62 C41 1_555 1_555
H63 C41 1_555 1_555
C42 C41 1_555 1_555
H64 C42 1_555 1_555
H65 C42 1_555 1_555
C43 C42 1_555 1_555
C44 C38 1_555 1_555
H66 C44 1_555 1_555
C45 C44 1_555 1_555
H67 C45 1_555 1_555
H68 C45 1_555 1_555
C46 C45 1_555 1_555
H69 C46 1_555 1_555
C47 C43 1_555 1_555
C48 C43 1_555 1_555
H70 C48 1_555 1_555
H71 C48 1_555 1_555
H72 C48 1_555 1_555
C49 C40 1_555 1_555
H73 C49 1_555 1_555
H74 C49 1_555 1_555
H75 C49 1_555 1_555
C50 C47 1_555 1_555
C51 N3 1_555 1_555
H76 C51 1_555 1_555
H77 C51 1_555 1_555
H78 C51 1_555 1_555
C52 N3 1_555 1_555
H79 C52 1_555 1_555
C53 C52 1_555 1_555
H80 C53 1_555 1_555
C54 C53 1_555 1_555
H81 C54 1_555 1_555
H82 C54 1_555 1_555
H83 C54 1_555 1_555
C55 C53 1_555 1_555
H84 C55 1_555 1_555
H85 C55 1_555 1_555
H86 C55 1_555 1_555
C56 C52 1_555 1_555
C57 N4 1_555 1_555
C58 C57 1_555 1_555
H87 C58 1_555 1_555
H88 C58 1_555 1_555
H89 C58 1_555 1_555
C59 C57 1_555 1_555
H90 C59 1_555 1_555
H91 C59 1_555 1_555
H92 C59 1_555 1_555
C60 C57 1_555 1_555
H93 C60 1_555 1_555
H94 C60 1_555 1_555
H95 C60 1_555 1_555
H96 N4 1_555 1_555
C2 C3 1_555 1_555
C5 C10 1_555 1_555
C9 C10 1_555 1_555
C13 C14 1_555 1_555
C16 C17 1_555 1_555
C32 C33 1_555 1_555
C35 C40 1_555 1_555
C39 C40 1_555 1_555
C43 C44 1_555 1_555
C46 C47 1_555 1_555

#END
