
#######################################################################
#
#                 Cambridge Crystallographic Data Centre
#                                CCDC 
#
#######################################################################
#
# If this CIF has been generated from an entry in the Cambridge 
# Structural Database, then it will include bibliographic, chemical, 
# crystal, experimental, refinement or atomic coordinate data resulting 
# from the CCDC's data processing and validation procedures.
#
#######################################################################

data_YAKVIS
_chemical_formula_moiety         'C30 H48 N2 O3'
_chemical_name_systematic        
N-(1-(t-butylamino)-3-methyl-1-oxobutan-2-yl)-3-hydroxy-N-methylandrosta-5,16-diene-17-carboxamide
_chemical_properties_biological  
'inhibitory effects on LPS-induced NO generation was evaluated in BV-2 microglial cells.'
_symmetry_cell_setting           monoclinic
_symmetry_space_group_name_H-M   'P 21'
_symmetry_Int_Tables_number      4
_space_group_name_Hall           'P 2yb'
loop_
_symmetry_equiv_pos_site_id
_symmetry_equiv_pos_as_xyz
1 x,y,z
2 -x,1/2+y,-z
_cell_length_a                   11.4200(10)
_cell_length_b                   15.725(2)
_cell_length_c                   16.7740(10)
_cell_angle_alpha                90
_cell_angle_beta                 105.4590(10)
_cell_angle_gamma                90
_cell_volume                     2903.29
_exptl_crystal_colour            colorless
_exptl_crystal_description       prism
_cell_formula_units_Z            4
loop_
_atom_site_label
_atom_site_type_symbol
_atom_site_fract_x
_atom_site_fract_y
_atom_site_fract_z
O1 O 0.4604(2) 0.34883(12) 0.64137(11)
H1 H 0.4560 0.3204 0.6814
O2 O 0.20518(16) 0.13521(12) -0.04304(10)
O3 O -0.10444(16) 0.15807(11) -0.07226(10)
N1 N 0.07397(17) 0.03229(12) -0.03279(11)
N2 N -0.06812(17) 0.17513(11) -0.19758(11)
H2 H -0.0257 0.1555 -0.2288
C1 C 0.3074(3) 0.31504(18) 0.41667(15)
H3 H 0.2750 0.3564 0.3735
H4 H 0.2404 0.2796 0.4220
C2 C 0.3579(3) 0.36259(19) 0.49818(16)
H5 H 0.4196 0.4026 0.4920
H6 H 0.2932 0.3945 0.5118
C3 C 0.4124(3) 0.30131(16) 0.56741(15)
H7 H 0.3487 0.2632 0.5755
C4 C 0.5099(2) 0.24931(18) 0.54466(14)
H8 H 0.5415 0.2079 0.5879
H9 H 0.5763 0.2866 0.5416
C5 C 0.4643(2) 0.20322(16) 0.46296(14)
C6 C 0.4789(2) 0.12060(17) 0.45686(15)
H10 H 0.5172 0.0915 0.5050
C7 C 0.4390(3) 0.06939(17) 0.37892(14)
H11 H 0.3679 0.0363 0.3803
H12 H 0.5032 0.0301 0.3760
C8 C 0.40873(19) 0.12578(15) 0.30170(13)
H13 H 0.4842 0.1470 0.2916
C9 C 0.3312(2) 0.20157(14) 0.31611(13)
H14 H 0.2632 0.1768 0.3334
C10 C 0.4003(2) 0.25848(15) 0.38910(13)
C11 C 0.2735(2) 0.25282(16) 0.23672(14)
H15 H 0.2122 0.2903 0.2478
H16 H 0.3358 0.2883 0.2242
C12 C 0.2144(2) 0.19912(16) 0.15974(14)
H17 H 0.1412 0.1724 0.1667
H18 H 0.1919 0.2356 0.1114
C13 C 0.30228(19) 0.13117(15) 0.14688(13)
C14 C 0.3374(2) 0.07685(14) 0.22651(13)
H19 H 0.2603 0.0621 0.2383
C15 C 0.3845(3) -0.00670(17) 0.19860(15)
H20 H 0.4692 -0.0024 0.1985
H21 H 0.3741 -0.0543 0.2328
C16 C 0.3017(2) -0.01339(17) 0.11207(15)
H22 H 0.2873 -0.0637 0.0818
C17 C 0.25193(19) 0.06086(15) 0.08418(13)
C18 C 0.4956(3) 0.3147(2) 0.36473(17)
H23 H 0.5535 0.2793 0.3482
H24 H 0.5368 0.3489 0.4112
H25 H 0.4560 0.3511 0.3196
C19 C 0.4133(2) 0.17042(19) 0.12490(15)
H26 H 0.3866 0.2034 0.0752
H27 H 0.4662 0.1259 0.1165
H28 H 0.4562 0.2065 0.1693
C20 C 0.17501(19) 0.07896(15) -0.00130(13)
C21 C 0.00894(19) 0.04998(14) -0.11899(13)
H29 H 0.0702 0.0560 -0.1499
C22 C -0.05854(19) 0.13458(14) -0.12584(12)
C23 C -0.1445(2) 0.25021(15) -0.22804(14)
C24 C -0.2752(3) 0.2324(2) -0.2291(2)
H30 H -0.2802 0.2223 -0.1736
H31 H -0.3034 0.1831 -0.2624
H32 H -0.3247 0.2805 -0.2518
C25 C -0.1355(3) 0.2665(2) -0.31544(17)
H33 H -0.0525 0.2781 -0.3143
H34 H -0.1851 0.3145 -0.3383
H35 H -0.1632 0.2173 -0.3490
C26 C -0.0953(3) 0.32712(18) -0.17392(19)
H36 H -0.1008 0.3169 -0.1186
H37 H -0.1422 0.3765 -0.1959
H38 H -0.0119 0.3363 -0.1732
C27 C -0.0780(2) -0.02301(15) -0.16063(16)
H39 H -0.0424 -0.0766 -0.1356
C28 C -0.2061(3) -0.0173(2) -0.1494(2)
H40 H -0.2536 -0.0643 -0.1769
H41 H -0.2432 0.0351 -0.1728
H42 H -0.2020 -0.0189 -0.0916
C29 C -0.0859(4) -0.0274(2) -0.25329(18)
H43 H -0.1395 -0.0727 -0.2782
H44 H -0.0065 -0.0377 -0.2605
H45 H -0.1166 0.0255 -0.2791
C30 C 0.0210(3) -0.0242(2) 0.01711(18)
H46 H 0.0749 -0.0286 0.0717
H47 H 0.0088 -0.0795 -0.0080
H48 H -0.0557 -0.0016 0.0205
O4 O -0.2179(2) 0.27001(16) 0.01972(12)
H49 H -0.1954 0.2428 -0.0152
O5 O 0.11628(16) 0.11132(15) 0.71589(10)
O6 O 0.43361(17) 0.23644(11) 0.76546(11)
N3 N 0.30781(17) 0.07981(13) 0.71426(11)
N4 N 0.32319(17) 0.24241(12) 0.85936(11)
H50 H 0.2784 0.2127 0.8827
C31 C -0.1070(3) 0.27375(19) 0.25091(17)
H51 H -0.0210 0.2806 0.2557
H52 H -0.1276 0.3118 0.2906
C32 C -0.1785(3) 0.3014(2) 0.16357(18)
H53 H -0.2649 0.3005 0.1594
H54 H -0.1561 0.3590 0.1532
C33 C -0.1517(3) 0.2427(2) 0.10048(17)
H55 H -0.0646 0.2451 0.1045
C34 C -0.1851(3) 0.1527(2) 0.11705(16)
H56 H -0.1651 0.1149 0.0769
H57 H -0.2721 0.1494 0.1101
C35 C -0.1190(2) 0.12295(18) 0.20414(15)
C36 C -0.0583(3) 0.05099(18) 0.21698(15)
H58 H -0.0550 0.0200 0.1704
C37 C 0.0059(3) 0.01416(17) 0.29917(15)
H59 H 0.0930 0.0179 0.3066
H60 H -0.0152 -0.0455 0.3003
C38 C -0.0270(2) 0.06023(17) 0.37044(14)
H61 H -0.1072 0.0411 0.3739
C39 C -0.0306(2) 0.15664(16) 0.35498(14)
H62 H 0.0476 0.1706 0.3446
C40 C -0.1290(2) 0.18262(19) 0.27438(15)
C41 C -0.0365(3) 0.21030(19) 0.43108(16)
H63 H -0.0198 0.2692 0.4208
H64 H -0.1185 0.2076 0.4373
C42 C 0.0523(3) 0.18213(17) 0.51257(15)
H65 H 0.1346 0.1959 0.5114
H66 H 0.0347 0.2130 0.5581
C43 C 0.0428(2) 0.08732(17) 0.52646(14)
C44 C 0.0662(2) 0.04128(16) 0.45167(14)
H67 H 0.1424 0.0654 0.4454
C45 C 0.0982(3) -0.04971(19) 0.48243(17)
H68 H 0.0261 -0.0840 0.4778
H69 H 0.1505 -0.0773 0.4533
C46 C 0.1638(3) -0.03163(19) 0.57122(17)
H70 H 0.2153 -0.0702 0.6055
C47 C 0.1403(2) 0.04501(18) 0.59498(15)
C48 C -0.2581(3) 0.1732(3) 0.28639(19)
H71 H -0.3172 0.1894 0.2364
H72 H -0.2658 0.2092 0.3309
H73 H -0.2713 0.1151 0.2992
C49 C -0.0823(3) 0.0649(3) 0.54053(18)
H74 H -0.0922 0.0949 0.5882
H75 H -0.0865 0.0048 0.5493
H76 H -0.1457 0.0812 0.4928
C50 C 0.1876(2) 0.08172(16) 0.67996(14)
C51 C 0.3521(2) 0.10620(15) 0.80146(13)
H77 H 0.2886 0.0929 0.8289
C52 C 0.3729(2) 0.20231(15) 0.80715(14)
C53 C 0.3377(2) 0.33366(16) 0.88113(16)
C54 C 0.4713(3) 0.3530(2) 0.9203(2)
H78 H 0.5005 0.3183 0.9686
H79 H 0.4805 0.4119 0.9356
H80 H 0.5172 0.3409 0.8813
C55 C 0.2879(3) 0.3877(2) 0.8039(2)
H81 H 0.2037 0.3742 0.7803
H82 H 0.3329 0.3760 0.7643
H83 H 0.2956 0.4468 0.8186
C56 C 0.2661(3) 0.3502(2) 0.9437(2)
H84 H 0.1816 0.3387 0.9190
H85 H 0.2759 0.4086 0.9611
H86 H 0.2954 0.3138 0.9908
C57 C 0.4674(2) 0.05653(16) 0.84638(16)
H87 H 0.5296 0.0659 0.8168
C58 C 0.5167(3) 0.0878(2) 0.93515(17)
H88 H 0.5331 0.1476 0.9349
H89 H 0.5904 0.0579 0.9609
H90 H 0.4577 0.0774 0.9655
C59 C 0.4400(4) -0.03895(19) 0.8456(2)
H91 H 0.5126 -0.0692 0.8730
H92 H 0.4119 -0.0583 0.7895
H93 H 0.3785 -0.0491 0.8739
C60 C 0.3966(3) 0.0705(2) 0.66558(16)
H94 H 0.3556 0.0530 0.6103
H95 H 0.4558 0.0283 0.6908
H96 H 0.4366 0.1239 0.6638
loop_
_geom_bond_atom_site_label_1
_geom_bond_atom_site_label_2
_geom_bond_site_symmetry_1
_geom_bond_site_symmetry_2
O1 H1 1_555 1_555
O2 C20 1_555 1_555
O3 C22 1_555 1_555
N1 C20 1_555 1_555
N2 H2 1_555 1_555
C1 H3 1_555 1_555
H4 C1 1_555 1_555
C2 C1 1_555 1_555
H5 C2 1_555 1_555
H6 C2 1_555 1_555
C3 O1 1_555 1_555
H7 C3 1_555 1_555
C4 C3 1_555 1_555
H8 C4 1_555 1_555
H9 C4 1_555 1_555
C5 C4 1_555 1_555
C6 C5 1_555 1_555
H10 C6 1_555 1_555
C7 C6 1_555 1_555
H11 C7 1_555 1_555
H12 C7 1_555 1_555
C8 C7 1_555 1_555
H13 C8 1_555 1_555
C9 C8 1_555 1_555
H14 C9 1_555 1_555
C10 C1 1_555 1_555
C11 C9 1_555 1_555
H15 C11 1_555 1_555
H16 C11 1_555 1_555
C12 C11 1_555 1_555
H17 C12 1_555 1_555
H18 C12 1_555 1_555
C13 C12 1_555 1_555
C14 C8 1_555 1_555
H19 C14 1_555 1_555
C15 C14 1_555 1_555
H20 C15 1_555 1_555
H21 C15 1_555 1_555
C16 C15 1_555 1_555
H22 C16 1_555 1_555
C17 C13 1_555 1_555
C18 C10 1_555 1_555
H23 C18 1_555 1_555
H24 C18 1_555 1_555
H25 C18 1_555 1_555
C19 C13 1_555 1_555
H26 C19 1_555 1_555
H27 C19 1_555 1_555
H28 C19 1_555 1_555
C20 C17 1_555 1_555
C21 N1 1_555 1_555
H29 C21 1_555 1_555
C22 N2 1_555 1_555
C23 N2 1_555 1_555
C24 C23 1_555 1_555
H30 C24 1_555 1_555
H31 C24 1_555 1_555
H32 C24 1_555 1_555
C25 C23 1_555 1_555
H33 C25 1_555 1_555
H34 C25 1_555 1_555
H35 C25 1_555 1_555
C26 C23 1_555 1_555
H36 C26 1_555 1_555
H37 C26 1_555 1_555
H38 C26 1_555 1_555
C27 C21 1_555 1_555
H39 C27 1_555 1_555
C28 C27 1_555 1_555
H40 C28 1_555 1_555
H41 C28 1_555 1_555
H42 C28 1_555 1_555
C29 C27 1_555 1_555
H43 C29 1_555 1_555
H44 C29 1_555 1_555
H45 C29 1_555 1_555
C30 N1 1_555 1_555
H46 C30 1_555 1_555
H47 C30 1_555 1_555
H48 C30 1_555 1_555
O4 H49 1_555 1_555
O5 C50 1_555 1_555
O6 C52 1_555 1_555
N3 C50 1_555 1_555
N4 H50 1_555 1_555
C31 H51 1_555 1_555
H52 C31 1_555 1_555
C32 C31 1_555 1_555
H53 C32 1_555 1_555
H54 C32 1_555 1_555
C33 O4 1_555 1_555
H55 C33 1_555 1_555
C34 C33 1_555 1_555
H56 C34 1_555 1_555
H57 C34 1_555 1_555
C35 C34 1_555 1_555
C36 C35 1_555 1_555
H58 C36 1_555 1_555
C37 C36 1_555 1_555
H59 C37 1_555 1_555
H60 C37 1_555 1_555
C38 C37 1_555 1_555
H61 C38 1_555 1_555
C39 C38 1_555 1_555
H62 C39 1_555 1_555
C40 C31 1_555 1_555
C41 C39 1_555 1_555
H63 C41 1_555 1_555
H64 C41 1_555 1_555
C42 C41 1_555 1_555
H65 C42 1_555 1_555
H66 C42 1_555 1_555
C43 C42 1_555 1_555
C44 C38 1_555 1_555
H67 C44 1_555 1_555
C45 C44 1_555 1_555
H68 C45 1_555 1_555
H69 C45 1_555 1_555
C46 C45 1_555 1_555
H70 C46 1_555 1_555
C47 C43 1_555 1_555
C48 C40 1_555 1_555
H71 C48 1_555 1_555
H72 C48 1_555 1_555
H73 C48 1_555 1_555
C49 C43 1_555 1_555
H74 C49 1_555 1_555
H75 C49 1_555 1_555
H76 C49 1_555 1_555
C50 C47 1_555 1_555
C51 N3 1_555 1_555
H77 C51 1_555 1_555
C52 N4 1_555 1_555
C53 N4 1_555 1_555
C54 C53 1_555 1_555
H78 C54 1_555 1_555
H79 C54 1_555 1_555
H80 C54 1_555 1_555
C55 C53 1_555 1_555
H81 C55 1_555 1_555
H82 C55 1_555 1_555
H83 C55 1_555 1_555
C56 C53 1_555 1_555
H84 C56 1_555 1_555
H85 C56 1_555 1_555
H86 C56 1_555 1_555
C57 C51 1_555 1_555
H87 C57 1_555 1_555
C58 C57 1_555 1_555
H88 C58 1_555 1_555
H89 C58 1_555 1_555
H90 C58 1_555 1_555
C59 C57 1_555 1_555
H91 C59 1_555 1_555
H92 C59 1_555 1_555
H93 C59 1_555 1_555
C60 N3 1_555 1_555
H94 C60 1_555 1_555
H95 C60 1_555 1_555
H96 C60 1_555 1_555
C2 C3 1_555 1_555
C5 C10 1_555 1_555
C9 C10 1_555 1_555
C13 C14 1_555 1_555
C16 C17 1_555 1_555
C21 C22 1_555 1_555
C32 C33 1_555 1_555
C35 C40 1_555 1_555
C39 C40 1_555 1_555
C43 C44 1_555 1_555
C46 C47 1_555 1_555
C51 C52 1_555 1_555

#END
