
#######################################################################
#
#                 Cambridge Crystallographic Data Centre
#                                CCDC 
#
#######################################################################
#
# If this CIF has been generated from an entry in the Cambridge 
# Structural Database, then it will include bibliographic, chemical, 
# crystal, experimental, refinement or atomic coordinate data resulting 
# from the CCDC's data processing and validation procedures.
#
#######################################################################

data_YAKVUE
_chemical_formula_moiety         'C16 H13 B1 Cl2 N2 O2'
_chemical_name_systematic        
(4,5-dichlorobenzene-1,2-diolato)(1-methyl-1H-imidazole)phenylboron
_symmetry_cell_setting           monoclinic
_symmetry_space_group_name_H-M   'P 21/n'
_symmetry_Int_Tables_number      14
_space_group_name_Hall           '-P 2yn'
loop_
_symmetry_equiv_pos_site_id
_symmetry_equiv_pos_as_xyz
1 x,y,z
2 1/2-x,1/2+y,1/2-z
3 -x,-y,-z
4 1/2+x,1/2-y,1/2+z
_cell_length_a                   11.0667(4)
_cell_length_b                   14.2602(5)
_cell_length_c                   11.2083(5)
_cell_angle_alpha                90
_cell_angle_beta                 112.988(5)
_cell_angle_gamma                90
_cell_volume                     1628.35
_exptl_crystal_colour            colorless
_exptl_crystal_description       prism
_cell_formula_units_Z            4
_exptl_crystal_recrystallization_method 'Vapour Deposition'
loop_
_atom_site_label
_atom_site_type_symbol
_atom_site_fract_x
_atom_site_fract_y
_atom_site_fract_z
Cl1 Cl 0.27397(5) 0.41432(5) 0.38672(6)
Cl2 Cl 0.17011(5) 0.44306(5) 0.08165(6)
O1 O 0.73489(12) 0.41571(9) 0.37746(12)
O2 O 0.65712(12) 0.42910(9) 0.14935(12)
N1 N 0.85226(14) 0.52152(10) 0.28072(15)
N2 N 0.99340(16) 0.62797(11) 0.28150(17)
B1 B 0.78074(19) 0.42316(14) 0.2688(2)
C1 C 0.96959(18) 0.53671(13) 0.2803(2)
H1 H 1.0277 0.4899 0.2793
C2 C 0.8852(2) 0.67345(15) 0.2818(3)
H2 H 0.8738 0.7380 0.2821
C3 C 0.7986(2) 0.60809(15) 0.2816(3)
H3 H 0.7160 0.6194 0.2821
C4 C 1.1146(3) 0.67098(17) 0.2839(3)
H4 H 1.1122 0.7373 0.2973
H5 H 1.1226 0.6596 0.2028
H6 H 1.1886 0.6442 0.3531
C5 C 0.60203(16) 0.42081(11) 0.32331(17)
C6 C 0.51657(17) 0.41688(12) 0.38548(18)
H7 H 0.5470 0.4105 0.4750
C7 C 0.38194(18) 0.42281(12) 0.30866(19)
C8 C 0.33720(17) 0.43323(12) 0.17624(19)
C9 C 0.42451(17) 0.43633(12) 0.11293(18)
H8 H 0.3946 0.4427 0.0234
C10 C 0.55619(17) 0.42959(11) 0.18919(17)
C11 C 0.87639(16) 0.34037(12) 0.26461(18)
C12 C 0.8927(2) 0.31780(14) 0.1513(2)
H9 H 0.8465 0.3516 0.0763
C13 C 0.9754(2) 0.24652(16) 0.1466(3)
H10 H 0.9851 0.2335 0.0695
C14 C 1.0432(2) 0.19516(16) 0.2557(3)
H11 H 1.0982 0.1468 0.2524
C15 C 1.0299(2) 0.21497(17) 0.3687(3)
H12 H 1.0759 0.1803 0.4429
C16 C 0.9471(2) 0.28732(15) 0.3727(2)
H13 H 0.9392 0.3004 0.4506
H14? H 1.1700 0.6234 0.2715
H15? H 1.1596 0.7011 0.3660
H16? H 1.0936 0.7166 0.2157
loop_
_geom_bond_atom_site_label_1
_geom_bond_atom_site_label_2
_geom_bond_site_symmetry_1
_geom_bond_site_symmetry_2
Cl1 C7 1_555 1_555
Cl2 C8 1_555 1_555
O1 B1 1_555 1_555
O2 B1 1_555 1_555
N1 B1 1_555 1_555
N2 C1 1_555 1_555
B1 C11 1_555 1_555
C1 N1 1_555 1_555
H1 C1 1_555 1_555
C2 N2 1_555 1_555
H2 C2 1_555 1_555
C3 N1 1_555 1_555
H3 C3 1_555 1_555
C4 N2 1_555 1_555
H4 C4 1_555 1_555
H5 C4 1_555 1_555
H6 C4 1_555 1_555
C5 O1 1_555 1_555
C6 C5 1_555 1_555
H7 C6 1_555 1_555
C7 C6 1_555 1_555
C8 C7 1_555 1_555
C9 C8 1_555 1_555
H8 C9 1_555 1_555
C10 O2 1_555 1_555
C11 C12 1_555 1_555
C12 H9 1_555 1_555
C13 C12 1_555 1_555
H10 C13 1_555 1_555
C14 C13 1_555 1_555
H11 C14 1_555 1_555
C15 C14 1_555 1_555
H12 C15 1_555 1_555
C16 C11 1_555 1_555
H13 C16 1_555 1_555
C2 C3 1_555 1_555
C5 C10 1_555 1_555
C9 C10 1_555 1_555
C15 C16 1_555 1_555

#END
