
#######################################################################
#
#                 Cambridge Crystallographic Data Centre
#                                CCDC 
#
#######################################################################
#
# If this CIF has been generated from an entry in the Cambridge 
# Structural Database, then it will include bibliographic, chemical, 
# crystal, experimental, refinement or atomic coordinate data resulting 
# from the CCDC's data processing and validation procedures.
#
#######################################################################

data_YAKWEN
_chemical_formula_moiety         'C30 H37 N1 O4 S1'
_chemical_name_systematic        
17-allyl-4,5-anhydro-7\a-[(R)-1-hydroxy-1-methyl-3-(2-thienyl)propyl]-6-methoxy-6,14-ethanomorphinan-3,4,5-triol
_chemical_properties_biological  
'mixed agonist and antagonist opiate receptor activity'
_symmetry_cell_setting           orthorhombic
_symmetry_space_group_name_H-M   'P 21 21 21'
_symmetry_Int_Tables_number      19
_space_group_name_Hall           'P 2ac 2ab'
loop_
_symmetry_equiv_pos_site_id
_symmetry_equiv_pos_as_xyz
1 x,y,z
2 1/2-x,-y,1/2+z
3 -x,1/2+y,1/2-z
4 1/2+x,1/2-y,-z
_cell_length_a                   10.984(3)
_cell_length_b                   13.514(4)
_cell_length_c                   17.975(6)
_cell_angle_alpha                90
_cell_angle_beta                 90
_cell_angle_gamma                90
_cell_volume                     2668.17
_exptl_crystal_colour            colorless
_chemical_melting_point          198-200deg.C
_cell_formula_units_Z            4
_exptl_crystal_recrystallization_method methanol
loop_
_atom_site_label
_atom_site_type_symbol
_atom_site_fract_x
_atom_site_fract_y
_atom_site_fract_z
O1 O 0.6823(2) 0.97930(14) 0.16889(12)
H1 H 0.6565 0.9694 0.1267
O2 O 0.74672(17) 0.78474(12) 0.10195(9)
O3 O 0.9600(2) 0.70998(13) 0.01153(10)
O4 O 1.0527(2) 0.54439(14) -0.04026(11)
H2 H 1.0325 0.6025 -0.0444
N1 N 0.7422(2) 0.4620(2) 0.26816(14)
C1 C 0.6935(3) 0.8087(3) 0.32750(18)
H3 H 0.6883 0.8136 0.3790
C2 C 0.6755(3) 0.8914(3) 0.28462(19)
H4 H 0.6543 0.9502 0.3082
C3 C 0.6877(3) 0.8914(2) 0.20682(17)
C4 C 0.7128(2) 0.8007(2) 0.17530(15)
C5 C 0.7904(2) 0.68237(18) 0.09662(14)
H5 H 0.7468 0.6490 0.0562
C6 C 0.9275(3) 0.67179(18) 0.08352(14)
C7 C 0.9482(3) 0.55702(17) 0.07935(15)
H6 H 0.8794 0.5316 0.0505
C8 C 0.9327(3) 0.5116(2) 0.15836(14)
H7 H 0.8826 0.4526 0.1555
H8 H 1.0116 0.4928 0.1780
C9 C 0.8257(3) 0.5446(3) 0.28443(16)
H9 H 0.8960 0.5168 0.3108
C10 C 0.7699(3) 0.6276(3) 0.33572(17)
H10 H 0.7049 0.5986 0.3650
H11 H 0.8323 0.6498 0.3700
C11 C 0.7197(3) 0.7170(3) 0.29492(16)
C12 C 0.7197(2) 0.7156(2) 0.21760(15)
C13 C 0.7587(2) 0.63032(19) 0.17142(13)
C14 C 0.8729(2) 0.5871(2) 0.20994(15)
C15 C 0.6604(3) 0.5509(2) 0.16153(18)
H12 H 0.5873 0.5816 0.1420
H13 H 0.6883 0.5027 0.1253
C16 C 0.6295(3) 0.4977(3) 0.2335(2)
H14 H 0.5879 0.5426 0.2670
H15 H 0.5759 0.4424 0.2232
C17 C 0.9691(2) 0.6685(2) 0.22159(15)
H16 H 0.9396 0.7161 0.2577
H17 H 1.0433 0.6393 0.2409
C18 C 0.9962(3) 0.7213(2) 0.14765(15)
H18 H 0.9720 0.7902 0.1513
H19 H 1.0830 0.7192 0.1378
C19 C 1.0633(3) 0.51940(19) 0.03806(16)
C20 C 1.1816(3) 0.5610(2) 0.06853(19)
H20 H 1.1881 0.6297 0.0554
H21 H 1.2490 0.5253 0.0478
H22 H 1.1824 0.5545 0.1217
C21 C 1.0686(3) 0.40584(19) 0.03930(17)
H23 H 1.1426 0.3850 0.0144
H24 H 1.0742 0.3843 0.0907
C27 C 0.9614(3) 0.3532(2) 0.00314(19)
H30 H 0.8866 0.3812 0.0226
H31 H 0.9633 0.3661 -0.0499
S2 S 0.8746(4) 0.1878(3) 0.0804(3)
C28 C 0.9588(11) 0.2418(5) 0.0152(7)
C29 C 1.0342(12) 0.1757(10) -0.0239(7)
H32 H 1.0869 0.1938 -0.0620
C30 C 1.0182(14) 0.0722(10) 0.0041(8)
H33 H 1.0583 0.0161 -0.0131
C31 C 0.9337(12) 0.0756(7) 0.0597(7)
H34 H 0.9098 0.0188 0.0850
C32 C 0.7177(12) 0.4064(6) 0.3376(4)
H35 H 0.6580 0.4419 0.3671
H36 H 0.7920 0.4014 0.3665
C33 C 0.6705(7) 0.3039(6) 0.3202(4)
H37 H 0.6317 0.2707 0.3588
C34 C 0.6784(10) 0.2568(8) 0.2569(5)
H38 H 0.7164 0.2865 0.2165
H39 H 0.6460 0.1935 0.2524
C38 C 0.9735(3) 0.8135(2) 0.00286(18)
H45 H 0.9817 0.8290 -0.0490
H46 H 1.0448 0.8352 0.0291
H47 H 0.9032 0.8464 0.0226
C22? C 0.9614(3) 0.3532(2) 0.00314(19)
H25? H 0.8859 0.3768 0.0247
H26? H 0.9600 0.3676 -0.0497
S1? S 1.0676(5) 0.1706(3) -0.0308(2)
C23? C 0.9721(12) 0.2438(5) 0.0148(7)
C24? C 0.8936(13) 0.1972(12) 0.0652(7)
H27? H 0.8355 0.2287 0.0944
C25? C 0.9188(15) 0.0865(10) 0.0643(9)
H28? H 0.8794 0.0385 0.0925
C26? C 1.0108(13) 0.0709(7) 0.0139(8)
H29? H 1.0407 0.0077 0.0047
C35? C 0.716(3) 0.3806(10) 0.3189(8)
H40? H 0.6406 0.3947 0.3445
H41? H 0.7803 0.3782 0.3561
C36? C 0.7063(12) 0.2788(11) 0.2828(10)
H42? H 0.7743 0.2523 0.2593
C37? C 0.6046(14) 0.2271(11) 0.2836(11)
H43? H 0.5357 0.2524 0.3069
H44? H 0.6018 0.1652 0.2610
loop_
_geom_bond_atom_site_label_1
_geom_bond_atom_site_label_2
_geom_bond_site_symmetry_1
_geom_bond_site_symmetry_2
O1 H1 1_555 1_555
O2 C4 1_555 1_555
O3 C6 1_555 1_555
O4 H2 1_555 1_555
N1 C9 1_555 1_555
C1 H3 1_555 1_555
C2 C1 1_555 1_555
H4 C2 1_555 1_555
C3 O1 1_555 1_555
C4 C3 1_555 1_555
C5 O2 1_555 1_555
H5 C5 1_555 1_555
C6 C5 1_555 1_555
C7 C6 1_555 1_555
H6 C7 1_555 1_555
C8 C7 1_555 1_555
H7 C8 1_555 1_555
H8 C8 1_555 1_555
C9 H9 1_555 1_555
C10 C9 1_555 1_555
H10 C10 1_555 1_555
H11 C10 1_555 1_555
C11 C1 1_555 1_555
C12 C4 1_555 1_555
C13 C5 1_555 1_555
C14 C8 1_555 1_555
C15 C13 1_555 1_555
H12 C15 1_555 1_555
H13 C15 1_555 1_555
C16 N1 1_555 1_555
H14 C16 1_555 1_555
H15 C16 1_555 1_555
C17 C14 1_555 1_555
H16 C17 1_555 1_555
H17 C17 1_555 1_555
C18 C6 1_555 1_555
H18 C18 1_555 1_555
H19 C18 1_555 1_555
C19 O4 1_555 1_555
C20 C19 1_555 1_555
H20 C20 1_555 1_555
H21 C20 1_555 1_555
H22 C20 1_555 1_555
C21 C19 1_555 1_555
H23 C21 1_555 1_555
H24 C21 1_555 1_555
C27 C21 1_555 1_555
H30 C27 1_555 1_555
H31 C27 1_555 1_555
S2 C28 1_555 1_555
C28 C27 1_555 1_555
C29 C28 1_555 1_555
H32 C29 1_555 1_555
C30 C29 1_555 1_555
H33 C30 1_555 1_555
C31 S2 1_555 1_555
H34 C31 1_555 1_555
C32 N1 1_555 1_555
H35 C32 1_555 1_555
H36 C32 1_555 1_555
C33 C32 1_555 1_555
H37 C33 1_555 1_555
C34 C33 1_555 1_555
H38 C34 1_555 1_555
H39 C34 1_555 1_555
C38 O3 1_555 1_555
H45 C38 1_555 1_555
H46 C38 1_555 1_555
H47 C38 1_555 1_555
C2 C3 1_555 1_555
C7 C19 1_555 1_555
C9 C14 1_555 1_555
C10 C11 1_555 1_555
C11 C12 1_555 1_555
C12 C13 1_555 1_555
C13 C14 1_555 1_555
C15 C16 1_555 1_555
C17 C18 1_555 1_555
C30 C31 1_555 1_555

#END
