
#######################################################################
#
#                 Cambridge Crystallographic Data Centre
#                                CCDC 
#
#######################################################################
#
# If this CIF has been generated from an entry in the Cambridge 
# Structural Database, then it will include bibliographic, chemical, 
# crystal, experimental, refinement or atomic coordinate data resulting 
# from the CCDC's data processing and validation procedures.
#
#######################################################################

data_YAKWEP
_chemical_formula_moiety         'C22 H19 B1 N2 O2,C7 H8'
_chemical_name_systematic        
"(benzene-1,2-diolato)((1,1'-biphenyl)-4-yl)(1-methyl-1H-imidazole)boron toluene solvate"
_symmetry_cell_setting           orthorhombic
_symmetry_space_group_name_H-M   'P 21 21 21'
_symmetry_Int_Tables_number      19
_space_group_name_Hall           'P 2ac 2ab'
loop_
_symmetry_equiv_pos_site_id
_symmetry_equiv_pos_as_xyz
1 x,y,z
2 1/2-x,-y,1/2+z
3 -x,1/2+y,1/2-z
4 1/2+x,1/2-y,-z
_cell_length_a                   6.0490(5)
_cell_length_b                   14.0088(16)
_cell_length_c                   27.989(3)
_cell_angle_alpha                90
_cell_angle_beta                 90
_cell_angle_gamma                90
_cell_volume                     2371.77
_exptl_crystal_colour            colorless
_exptl_crystal_description       prism
_cell_formula_units_Z            4
_exptl_crystal_recrystallization_method toluene
loop_
_atom_site_label
_atom_site_type_symbol
_atom_site_fract_x
_atom_site_fract_y
_atom_site_fract_z
O1 O 0.1568(5) 0.12475(18) 0.22225(10)
O2 O 0.5141(5) 0.19364(18) 0.20893(9)
N1 N 0.1855(6) 0.3011(2) 0.22351(11)
N2 N -0.0579(6) 0.4015(2) 0.19418(12)
B1 B 0.3072(7) 0.2047(3) 0.23767(16)
C1 C 0.2445(7) 0.3930(3) 0.23791(14)
H1 H 0.3682 0.4093 0.2572
C2 C 0.0943(7) 0.4551(3) 0.21959(15)
H2 H 0.0938 0.5224 0.2235
C3 C 0.0022(7) 0.3091(3) 0.19730(14)
H3 H -0.0746 0.2573 0.1830
C4 C -0.2518(8) 0.4383(3) 0.16817(18)
H4 H -0.2047 0.4638 0.1372
H5 H -0.3215 0.4892 0.1869
H6 H -0.3581 0.3865 0.1632
C5 C 0.2886(7) 0.0653(3) 0.19540(13)
C6 C 0.2347(7) -0.0244(3) 0.17764(15)
H7 H 0.0948 -0.0526 0.1838
C7 C 0.3959(7) -0.0715(3) 0.15016(14)
H8 H 0.3640 -0.1327 0.1373
C8 C 0.6020(8) -0.0301(3) 0.14150(15)
H9 H 0.7073 -0.0633 0.1226
C9 C 0.6561(7) 0.0601(3) 0.16029(14)
H10 H 0.7969 0.0881 0.1548
C10 C 0.4966(7) 0.1065(3) 0.18714(13)
C11 C 0.3483(6) 0.2022(3) 0.29430(13)
C12 C 0.5500(7) 0.1708(3) 0.31359(14)
H11 H 0.6716 0.1597 0.2928
C13 C 0.5759(7) 0.1555(3) 0.36282(14)
H12 H 0.7152 0.1355 0.3749
C14 C 0.3993(7) 0.1694(3) 0.39444(14)
C15 C 0.1984(6) 0.2035(3) 0.37566(14)
H13 H 0.0778 0.2160 0.3965
C16 C 0.1756(7) 0.2188(3) 0.32693(14)
H14 H 0.0379 0.2415 0.3151
C17 C 0.4189(6) 0.1462(3) 0.44638(14)
C18 C 0.6142(7) 0.1654(3) 0.47232(14)
H15 H 0.7360 0.1950 0.4569
C19 C 0.6288(7) 0.1410(3) 0.52038(15)
H16 H 0.7599 0.1551 0.5377
C20 C 0.4526(8) 0.0962(3) 0.54338(15)
H17 H 0.4645 0.0790 0.5761
C21 C 0.2579(7) 0.0766(3) 0.51806(15)
H18 H 0.1366 0.0469 0.5336
C22 C 0.2437(7) 0.1009(3) 0.47017(14)
H19 H 0.1122 0.0866 0.4530
C23 C 0.1601(8) 0.3325(3) 0.07321(15)
C24 C 0.2447(8) 0.2449(3) 0.08763(15)
H20 H 0.3841 0.2426 0.1032
C25 C 0.1297(9) 0.1608(3) 0.07971(15)
H21 H 0.1911 0.1015 0.0894
C26 C -0.0778(8) 0.1635(3) 0.05729(16)
H22 H -0.1572 0.1060 0.0518
C27 C -0.1665(8) 0.2503(3) 0.04321(16)
H23 H -0.3078 0.2525 0.0284
C28 C -0.0484(7) 0.3342(3) 0.05077(15)
H24 H -0.1091 0.3934 0.0407
C29 C 0.2886(9) 0.4243(3) 0.0808(2)
H25 H 0.2990 0.4379 0.1151
H26 H 0.2123 0.4770 0.0647
H27 H 0.4375 0.4174 0.0674
loop_
_geom_bond_atom_site_label_1
_geom_bond_atom_site_label_2
_geom_bond_site_symmetry_1
_geom_bond_site_symmetry_2
O1 B1 1_555 1_555
O2 B1 1_555 1_555
N1 B1 1_555 1_555
N2 C2 1_555 1_555
B1 C11 1_555 1_555
C1 N1 1_555 1_555
H1 C1 1_555 1_555
C2 C1 1_555 1_555
H2 C2 1_555 1_555
C3 N1 1_555 1_555
H3 C3 1_555 1_555
C4 N2 1_555 1_555
H4 C4 1_555 1_555
H5 C4 1_555 1_555
H6 C4 1_555 1_555
C5 O1 1_555 1_555
C6 C5 1_555 1_555
H7 C6 1_555 1_555
C7 C6 1_555 1_555
H8 C7 1_555 1_555
C8 C7 1_555 1_555
H9 C8 1_555 1_555
C9 C8 1_555 1_555
H10 C9 1_555 1_555
C10 O2 1_555 1_555
C11 C12 1_555 1_555
C12 H11 1_555 1_555
C13 C12 1_555 1_555
H12 C13 1_555 1_555
C14 C13 1_555 1_555
C15 C14 1_555 1_555
H13 C15 1_555 1_555
C16 C11 1_555 1_555
H14 C16 1_555 1_555
C17 C14 1_555 1_555
C18 C17 1_555 1_555
H15 C18 1_555 1_555
C19 C18 1_555 1_555
H16 C19 1_555 1_555
C20 C19 1_555 1_555
H17 C20 1_555 1_555
C21 C20 1_555 1_555
H18 C21 1_555 1_555
C22 C17 1_555 1_555
H19 C22 1_555 1_555
C23 C24 1_555 1_555
C24 H20 1_555 1_555
C25 C24 1_555 1_555
H21 C25 1_555 1_555
C26 C25 1_555 1_555
H22 C26 1_555 1_555
C27 C26 1_555 1_555
H23 C27 1_555 1_555
C28 C23 1_555 1_555
H24 C28 1_555 1_555
C29 C23 1_555 1_555
H25 C29 1_555 1_555
H26 C29 1_555 1_555
H27 C29 1_555 1_555
N2 C3 1_555 1_555
C5 C10 1_555 1_555
C9 C10 1_555 1_555
C15 C16 1_555 1_555
C21 C22 1_555 1_555
C27 C28 1_555 1_555

#END
