
#######################################################################
#
#                 Cambridge Crystallographic Data Centre
#                                CCDC 
#
#######################################################################
#
# If this CIF has been generated from an entry in the Cambridge 
# Structural Database, then it will include bibliographic, chemical, 
# crystal, experimental, refinement or atomic coordinate data resulting 
# from the CCDC's data processing and validation procedures.
#
#######################################################################

data_YAKYAN
_chemical_formula_moiety         'C31 H26 N4 P2,C1 H1 Cl3'
_chemical_name_systematic        
"1,1'-methylenebis(5-(diphenylphosphino)-1H-pyrazole) chloroform solvate"
_symmetry_cell_setting           triclinic
_symmetry_space_group_name_H-M   'P -1'
_symmetry_Int_Tables_number      2
_space_group_name_Hall           '-P 1'
loop_
_symmetry_equiv_pos_site_id
_symmetry_equiv_pos_as_xyz
1 x,y,z
2 -x,-y,-z
_cell_length_a                   12.323(2)
_cell_length_b                   12.892(2)
_cell_length_c                   12.951(2)
_cell_angle_alpha                93.945(2)
_cell_angle_beta                 117.423(2)
_cell_angle_gamma                117.267(2)
_cell_volume                     1517.86
_exptl_crystal_colour            colorless
_exptl_crystal_description       Block
_cell_formula_units_Z            2
loop_
_atom_site_label
_atom_site_type_symbol
_atom_site_fract_x
_atom_site_fract_y
_atom_site_fract_z
P1 P 0.76959(4) 0.73054(3) -0.03009(3)
P2 P 1.19878(4) 0.97205(3) 0.22713(3)
N1 N 0.83540(12) 0.45461(10) 0.00413(10)
N2 N 0.87282(11) 0.57450(9) 0.02439(10)
N3 N 1.08200(12) 0.72748(10) 0.22643(10)
N4 N 1.06690(13) 0.65225(10) 0.29390(11)
C1 C 0.79602(14) 0.78304(12) 0.11979(12)
C2 C 0.84129(15) 0.90681(13) 0.16623(14)
H1 H 0.8584 0.9603 0.1208
C3 C 0.86133(16) 0.95176(14) 0.27870(15)
H2 H 0.8905 1.0354 0.3089
C4 C 0.83902(16) 0.87541(15) 0.34665(14)
H3 H 0.8523 0.9064 0.4231
C5 C 0.79718(16) 0.75333(14) 0.30279(14)
H4 H 0.7833 0.7011 0.3499
C6 C 0.77560(15) 0.70751(13) 0.18995(13)
H5 H 0.7466 0.6238 0.1603
C7 C 0.57411(14) 0.66594(11) -0.14148(12)
C8 C 0.52182(15) 0.63560(12) -0.26795(13)
H6 H 0.5872 0.6491 -0.2928
C9 C 0.37526(16) 0.58603(13) -0.35720(13)
H7 H 0.3403 0.5641 -0.4429
C10 C 0.27924(16) 0.56832(13) -0.32121(13)
H8 H 0.1790 0.5348 -0.3823
C11 C 0.33054(15) 0.59974(13) -0.19610(13)
H9 H 0.2653 0.5883 -0.1715
C12 C 0.47693(15) 0.64789(12) -0.10640(13)
H10 H 0.5111 0.6686 -0.0209
C13 C 0.75368(14) 0.58258(11) -0.03349(12)
C14 C 0.63246(14) 0.46062(12) -0.09573(12)
H11 H 0.5322 0.4332 -0.1456
C15 C 0.68940(15) 0.38615(12) -0.06939(12)
H12 H 0.6308 0.2975 -0.1003
C16 C 1.02680(14) 0.67394(11) 0.09683(12)
H13 H 1.0416 0.7403 0.0603
H14 H 1.0837 0.6410 0.0925
C17 C 1.13603(16) 0.73072(13) 0.40790(13)
H15 H 1.1430 0.7053 0.4766
C18 C 1.19737(15) 0.85554(13) 0.41461(13)
H16 H 1.2519 0.9275 0.4858
C19 C 1.16162(14) 0.85143(12) 0.29582(12)
C20 C 1.34540(14) 0.98069(11) 0.21534(12)
C21 C 1.38490(16) 1.05012(12) 0.14605(13)
H17 H 1.3349 1.0883 0.1070
C22 C 1.49630(18) 1.06382(13) 0.13365(15)
H18 H 1.5230 1.1122 0.0873
C23 C 1.56865(16) 1.00717(13) 0.18874(15)
H19 H 1.6449 1.0166 0.1802
C24 C 1.52965(15) 0.93671(13) 0.25638(13)
H20 H 1.5786 0.8972 0.2936
C25 C 1.41865(14) 0.92368(12) 0.26989(12)
H21 H 1.3927 0.8756 0.3167
C26 C 1.30435(14) 1.11148(12) 0.36418(12)
C27 C 1.45004(15) 1.16342(12) 0.45965(13)
H22 H 1.4981 1.1238 0.4575
C28 C 1.52592(16) 1.27286(12) 0.55826(13)
H23 H 1.6254 1.3078 0.6228
C29 C 1.45616(17) 1.33097(13) 0.56227(14)
H24 H 1.5075 1.4051 0.6300
C30 C 1.31189(17) 1.28090(13) 0.46764(14)
H25 H 1.2644 1.3209 0.4703
C31 C 1.23606(15) 1.17188(13) 0.36843(14)
H26 H 1.1373 1.1384 0.3032
C32 C 0.97569(14) 0.35723(12) 0.22370(12)
H27 H 0.9506 0.4201 0.2046
Cl1 Cl 0.99075(4) 0.34333(4) 0.36401(3)
Cl2 Cl 0.83438(4) 0.21237(3) 0.10115(3)
Cl3 Cl 1.14339(4) 0.40819(4) 0.23914(4)
loop_
_geom_bond_atom_site_label_1
_geom_bond_atom_site_label_2
_geom_bond_site_symmetry_1
_geom_bond_site_symmetry_2
P1 C1 1_555 1_555
P2 C19 1_555 1_555
N1 N2 1_555 1_555
N2 C13 1_555 1_555
N3 N4 1_555 1_555
N4 C17 1_555 1_555
C1 C2 1_555 1_555
C2 H1 1_555 1_555
C3 C2 1_555 1_555
H2 C3 1_555 1_555
C4 C3 1_555 1_555
H3 C4 1_555 1_555
C5 C4 1_555 1_555
H4 C5 1_555 1_555
C6 C1 1_555 1_555
H5 C6 1_555 1_555
C7 P1 1_555 1_555
C8 C7 1_555 1_555
H6 C8 1_555 1_555
C9 C8 1_555 1_555
H7 C9 1_555 1_555
C10 C9 1_555 1_555
H8 C10 1_555 1_555
C11 C10 1_555 1_555
H9 C11 1_555 1_555
C12 C7 1_555 1_555
H10 C12 1_555 1_555
C13 P1 1_555 1_555
C14 C13 1_555 1_555
H11 C14 1_555 1_555
C15 N1 1_555 1_555
H12 C15 1_555 1_555
C16 N2 1_555 1_555
H13 C16 1_555 1_555
H14 C16 1_555 1_555
C17 H15 1_555 1_555
C18 C17 1_555 1_555
H16 C18 1_555 1_555
C19 N3 1_555 1_555
C20 P2 1_555 1_555
C21 C20 1_555 1_555
H17 C21 1_555 1_555
C22 C21 1_555 1_555
H18 C22 1_555 1_555
C23 C22 1_555 1_555
H19 C23 1_555 1_555
C24 C23 1_555 1_555
H20 C24 1_555 1_555
C25 C20 1_555 1_555
H21 C25 1_555 1_555
C26 P2 1_555 1_555
C27 C26 1_555 1_555
H22 C27 1_555 1_555
C28 C27 1_555 1_555
H23 C28 1_555 1_555
C29 C28 1_555 1_555
H24 C29 1_555 1_555
C30 C29 1_555 1_555
H25 C30 1_555 1_555
C31 C26 1_555 1_555
H26 C31 1_555 1_555
C32 H27 1_555 1_555
Cl1 C32 1_555 1_555
Cl2 C32 1_555 1_555
Cl3 C32 1_555 1_555
N3 C16 1_555 1_555
C5 C6 1_555 1_555
C11 C12 1_555 1_555
C14 C15 1_555 1_555
C18 C19 1_555 1_555
C24 C25 1_555 1_555
C30 C31 1_555 1_555

#END
