
#######################################################################
#
#                 Cambridge Crystallographic Data Centre
#                                CCDC 
#
#######################################################################
#
# If this CIF has been generated from an entry in the Cambridge 
# Structural Database, then it will include bibliographic, chemical, 
# crystal, experimental, refinement or atomic coordinate data resulting 
# from the CCDC's data processing and validation procedures.
#
#######################################################################

data_YALDIB
_chemical_formula_moiety         'C20 H20 Br1 F3 O2'
_chemical_name_systematic        
1-(2-bromo-1-(2,5-dimethoxyphenyl)-4,4,4-trifluorobut-2-en-1-yl)-2,4-dimethylbenzene
_symmetry_cell_setting           triclinic
_symmetry_space_group_name_H-M   'P -1'
_symmetry_Int_Tables_number      2
_space_group_name_Hall           '-P 1'
loop_
_symmetry_equiv_pos_site_id
_symmetry_equiv_pos_as_xyz
1 x,y,z
2 -x,-y,-z
_cell_length_a                   8.3533(5)
_cell_length_b                   9.4941(4)
_cell_length_c                   12.1934(7)
_cell_angle_alpha                100.216(4)
_cell_angle_beta                 97.306(5)
_cell_angle_gamma                100.289(4)
_cell_volume                     923.703
_exptl_crystal_colour            colorless
_cell_formula_units_Z            2
loop_
_atom_site_label
_atom_site_type_symbol
_atom_site_fract_x
_atom_site_fract_y
_atom_site_fract_z
Br1 Br 0.45555(2) 0.14790(2) 0.770594(17)
F1 F 0.44588(14) 0.13301(12) 0.49433(10)
F2 F 0.19747(15) 0.10042(12) 0.40826(9)
F3 F 0.25419(15) -0.02672(11) 0.53162(10)
O1 O 0.46117(15) 0.60720(13) 0.77690(12)
O2 O -0.19217(16) 0.56029(14) 0.59874(12)
C1 C 0.2455(2) 0.48080(19) 1.03281(16)
H1 H 0.3538 0.4603 1.0470
H2 H 0.2117 0.5157 1.1033
H3 H 0.2471 0.5541 0.9877
C2 C 0.2500(2) 0.22254(18) 0.59654(16)
H4 H 0.1809 0.2808 0.5710
C3 C 0.3038(2) 0.25004(18) 0.70617(16)
C4 C -0.1068(2) 0.1460(2) 0.97239(16)
C5 C 0.5771(2) 0.7375(2) 0.77740(19)
H5 H 0.5827 0.7483 0.7011
H6 H 0.6839 0.7315 0.8137
H7 H 0.5428 0.8203 0.8177
C6 C 0.3002(2) 0.60074(18) 0.73288(15)
C7 C -0.1012(2) 0.0888(2) 0.86058(16)
H8 H -0.1766 0.0045 0.8229
C8 C 0.1254(2) 0.34263(19) 0.97053(15)
C9 C 0.0813(2) 0.69096(19) 0.63946(16)
H9 H 0.0456 0.7632 0.6062
C10 C -0.2337(3) 0.0749(2) 1.03382(18)
H10 H -0.3387 0.0970 1.0096
H11 H -0.2013 0.1115 1.1137
H12 H -0.2421 -0.0291 1.0173
C11 C 0.2883(2) 0.10824(19) 0.50965(17)
C12 C 0.2456(2) 0.70810(19) 0.68232(16)
H13 H 0.3203 0.7912 0.6776
C13 C 0.0221(2) 0.46080(18) 0.69689(15)
H14 H -0.0533 0.3783 0.7021
C14 C 0.1285(2) 0.28239(18) 0.85758(15)
C15 C 0.0080(2) 0.27297(19) 1.02546(16)
H15 H 0.0061 0.3127 1.1006
C16 C 0.1872(2) 0.47650(18) 0.74068(15)
C17 C -0.3098(2) 0.4320(2) 0.60139(18)
H16 H -0.4156 0.4367 0.5626
H17 H -0.3176 0.4263 0.6784
H18 H -0.2752 0.3470 0.5649
C18 C 0.0146(2) 0.15495(19) 0.80420(16)
H19 H 0.0166 0.1138 0.7294
C19 C -0.0323(2) 0.56719(19) 0.64514(15)
C20 C 0.2515(2) 0.35885(18) 0.79375(15)
H20 H 0.3502 0.4080 0.8489
loop_
_geom_bond_atom_site_label_1
_geom_bond_atom_site_label_2
_geom_bond_site_symmetry_1
_geom_bond_site_symmetry_2
Br1 C3 1_555 1_555
F1 C11 1_555 1_555
F2 C11 1_555 1_555
F3 C11 1_555 1_555
O1 C5 1_555 1_555
O2 C17 1_555 1_555
C1 H1 1_555 1_555
H2 C1 1_555 1_555
H3 C1 1_555 1_555
C2 H4 1_555 1_555
C3 C2 1_555 1_555
C4 C7 1_555 1_555
C5 H5 1_555 1_555
H6 C5 1_555 1_555
H7 C5 1_555 1_555
C6 O1 1_555 1_555
C7 H8 1_555 1_555
C8 C1 1_555 1_555
C9 H9 1_555 1_555
C10 C4 1_555 1_555
H10 C10 1_555 1_555
H11 C10 1_555 1_555
H12 C10 1_555 1_555
C11 C2 1_555 1_555
C12 C6 1_555 1_555
H13 C12 1_555 1_555
C13 H14 1_555 1_555
C14 C8 1_555 1_555
C15 C4 1_555 1_555
H15 C15 1_555 1_555
C16 C6 1_555 1_555
C17 H16 1_555 1_555
H17 C17 1_555 1_555
H18 C17 1_555 1_555
C18 C7 1_555 1_555
H19 C18 1_555 1_555
C19 O2 1_555 1_555
C20 C3 1_555 1_555
H20 C20 1_555 1_555
C8 C15 1_555 1_555
C9 C12 1_555 1_555
C9 C19 1_555 1_555
C13 C16 1_555 1_555
C13 C19 1_555 1_555
C14 C18 1_555 1_555
C14 C20 1_555 1_555
C16 C20 1_555 1_555

#END
