
#######################################################################
#
#                 Cambridge Crystallographic Data Centre
#                                CCDC 
#
#######################################################################
#
# If this CIF has been generated from an entry in the Cambridge 
# Structural Database, then it will include bibliographic, chemical, 
# crystal, experimental, refinement or atomic coordinate data resulting 
# from the CCDC's data processing and validation procedures.
#
#######################################################################

data_YALDAT
_chemical_formula_moiety         'C16 H10 Br2 Cl1 F3'
_chemical_name_systematic        
1-chloro-4-(1,2-dibromo-4,4,4-trifluoro-3-phenylbut-1-en-1-yl)benzene
_symmetry_cell_setting           triclinic
_symmetry_space_group_name_H-M   'P -1'
_symmetry_Int_Tables_number      2
_space_group_name_Hall           '-P 1'
loop_
_symmetry_equiv_pos_site_id
_symmetry_equiv_pos_as_xyz
1 x,y,z
2 -x,-y,-z
_cell_length_a                   7.3184(2)
_cell_length_b                   13.4865(3)
_cell_length_c                   17.4149(4)
_cell_angle_alpha                101.672(2)
_cell_angle_beta                 94.139(2)
_cell_angle_gamma                101.918(2)
_cell_volume                     1635.33
_exptl_crystal_colour            colorless
_exptl_crystal_description       prism
_cell_formula_units_Z            4
loop_
_atom_site_label
_atom_site_type_symbol
_atom_site_fract_x
_atom_site_fract_y
_atom_site_fract_z
Br1 Br 0.27004(7) 0.88560(4) -0.07986(3)
Br2 Br 0.16260(7) 0.98509(4) 0.09630(3)
Cl1 Cl 0.8421(2) 0.54188(11) -0.05715(10)
F1 F 0.3001(6) 0.7521(3) 0.2477(2)
F2 F 0.1299(6) 0.7131(2) 0.1362(2)
F3 F 0.1113(6) 0.8447(3) 0.2239(3)
C1 C 0.7054(8) 0.9472(5) 0.2266(3)
H1 H 0.7496 0.8944 0.1958
C2 C 0.7018(7) 0.6301(3) -0.0360(2)
C3 C 0.3162(6) 0.8870(3) 0.0837(2)
C4 C 0.3975(6) 0.6668(3) -0.0351(3)
H2 H 0.2675 0.6443 -0.0456
C5 C 0.3578(6) 0.8471(3) 0.0131(2)
C6 C 0.4768(6) 0.7713(3) -0.0035(2)
C7 C 0.6714(6) 0.8038(3) 0.0116(3)
H3 H 0.7261 0.8736 0.0327
C8 C 0.3886(6) 0.8561(3) 0.1573(2)
H4 H 0.4689 0.8084 0.1391
C9 C 0.5154(6) 0.9451(3) 0.2187(2)
C10 C 0.5085(7) 0.5963(3) -0.0511(3)
H5 H 0.4541 0.5264 -0.0720
C11 C 0.2311(8) 0.7926(3) 0.1919(3)
C12 C 0.7845(6) 0.7340(3) -0.0044(3)
H6 H 0.9147 0.7563 0.0060
C13 C 0.4522(8) 1.0241(4) 0.2660(3)
H7 H 0.3247 1.0239 0.2618
C14 C 0.5788(11) 1.1040(4) 0.3201(4)
H8 H 0.5351 1.1563 0.3518
C15 C 0.8316(9) 1.0272(7) 0.2798(4)
H9 H 0.9593 1.0278 0.2841
C16 C 0.7678(11) 1.1055(6) 0.3264(4)
H10 H 0.8521 1.1590 0.3619
Br3 Br 0.84500(8) 0.49282(4) 0.40291(3)
Br4 Br 0.73489(9) 0.64733(5) 0.55802(3)
Cl2 Cl 0.1351(2) 0.93704(12) 0.43257(11)
F4 F 0.6474(6) 0.6275(3) 0.19042(18)
F5 F 0.8443(6) 0.7021(3) 0.2914(2)
F6 F 0.8418(6) 0.5473(3) 0.2302(3)
C17 C 0.6796(6) 0.5807(3) 0.3908(2)
C18 C 0.5836(7) 0.8154(3) 0.4338(3)
H11 H 0.7099 0.8355 0.4272
C19 C 0.4588(6) 0.4676(3) 0.2723(2)
C20 C 0.6395(6) 0.6444(3) 0.4529(2)
C21 C 0.5148(6) 0.7175(3) 0.4485(2)
C22 C 0.2678(7) 0.4613(4) 0.2709(3)
H12 H 0.2245 0.5213 0.2877
C23 C 0.2820(6) 0.8526(4) 0.4383(3)
C24 C 0.5910(6) 0.5734(3) 0.3080(2)
H13 H 0.5096 0.6231 0.3141
C25 C 0.5207(7) 0.3781(3) 0.2450(3)
H14 H 0.6488 0.3809 0.2452
C26 C 0.1402(8) 0.3673(5) 0.2449(4)
H15 H 0.0123 0.3642 0.2456
C27 C 0.3272(7) 0.6890(4) 0.4584(3)
H16 H 0.2792 0.6242 0.4685
C28 C 0.2108(8) 0.7562(4) 0.4533(3)
H17 H 0.0844 0.7366 0.4599
C29 C 0.4690(7) 0.8823(4) 0.4289(3)
H18 H 0.5169 0.9475 0.4192
C30 C 0.3905(8) 0.2835(4) 0.2173(3)
H19 H 0.4327 0.2237 0.1983
C31 C 0.7340(8) 0.6121(4) 0.2558(3)
C32 C 0.2018(8) 0.2776(4) 0.2176(3)
H20 H 0.1160 0.2142 0.1998
loop_
_geom_bond_atom_site_label_1
_geom_bond_atom_site_label_2
_geom_bond_site_symmetry_1
_geom_bond_site_symmetry_2
Br1 C5 1_555 1_555
Br2 C3 1_555 1_555
Cl1 C2 1_555 1_555
F1 C11 1_555 1_555
F2 C11 1_555 1_555
F3 C11 1_555 1_555
C1 H1 1_555 1_555
C2 C10 1_555 1_555
C3 C5 1_555 1_555
C4 H2 1_555 1_555
C5 C6 1_555 1_555
C6 C4 1_555 1_555
C7 C6 1_555 1_555
H3 C7 1_555 1_555
C8 C3 1_555 1_555
H4 C8 1_555 1_555
C9 C1 1_555 1_555
C10 C4 1_555 1_555
H5 C10 1_555 1_555
C11 C8 1_555 1_555
C12 C2 1_555 1_555
H6 C12 1_555 1_555
C13 C9 1_555 1_555
H7 C13 1_555 1_555
C14 C13 1_555 1_555
H8 C14 1_555 1_555
C15 C1 1_555 1_555
H9 C15 1_555 1_555
C16 C14 1_555 1_555
H10 C16 1_555 1_555
Br3 C17 1_555 1_555
Br4 C20 1_555 1_555
Cl2 C23 1_555 1_555
F4 C31 1_555 1_555
F5 C31 1_555 1_555
F6 C31 1_555 1_555
C17 C20 1_555 1_555
C18 H11 1_555 1_555
C19 C22 1_555 1_555
C20 C21 1_555 1_555
C21 C18 1_555 1_555
C22 H12 1_555 1_555
C23 C28 1_555 1_555
C24 C17 1_555 1_555
H13 C24 1_555 1_555
C25 C19 1_555 1_555
H14 C25 1_555 1_555
C26 C22 1_555 1_555
H15 C26 1_555 1_555
C27 C21 1_555 1_555
H16 C27 1_555 1_555
C28 C27 1_555 1_555
H17 C28 1_555 1_555
C29 C18 1_555 1_555
H18 C29 1_555 1_555
C30 C25 1_555 1_555
H19 C30 1_555 1_555
C31 C24 1_555 1_555
C32 C26 1_555 1_555
H20 C32 1_555 1_555
C7 C12 1_555 1_555
C8 C9 1_555 1_555
C15 C16 1_555 1_555
C19 C24 1_555 1_555
C23 C29 1_555 1_555
C30 C32 1_555 1_555

#END
