
#######################################################################
#
#                 Cambridge Crystallographic Data Centre
#                                CCDC 
#
#######################################################################
#
# If this CIF has been generated from an entry in the Cambridge 
# Structural Database, then it will include bibliographic, chemical, 
# crystal, experimental, refinement or atomic coordinate data resulting 
# from the CCDC's data processing and validation procedures.
#
#######################################################################

data_YALDEX
_chemical_formula_moiety         'C20 H20 Br1 F3 O1'
_chemical_name_systematic        
(1SR,2RS,3SR)-2-bromo-3-(4-methoxyphenyl)-4,5,7-trimethyl-1-(trifluoromethyl)indane
_symmetry_cell_setting           triclinic
_symmetry_space_group_name_H-M   'P -1'
_symmetry_Int_Tables_number      2
_space_group_name_Hall           '-P 1'
loop_
_symmetry_equiv_pos_site_id
_symmetry_equiv_pos_as_xyz
1 x,y,z
2 -x,-y,-z
_cell_length_a                   7.8481(5)
_cell_length_b                   10.5581(7)
_cell_length_c                   12.2042(10)
_cell_angle_alpha                75.472(6)
_cell_angle_beta                 72.741(6)
_cell_angle_gamma                72.301(6)
_cell_volume                     905.551
_exptl_crystal_colour            colorless
_exptl_crystal_description       prism
_chemical_melting_point          '110-112 deg.C'
_cell_formula_units_Z            2
loop_
_atom_site_label
_atom_site_type_symbol
_atom_site_fract_x
_atom_site_fract_y
_atom_site_fract_z
Br1 Br 0.50652(4) 0.58352(3) 0.72935(3)
C1 C 0.7205(3) 0.6372(2) 0.73792(19)
H1 H 0.8040 0.5604 0.7750
F1 F 1.0960(2) 0.6670(2) 0.66928(17)
F2 F 1.1195(2) 0.6738(2) 0.48891(16)
C2 C 0.7532(3) 0.8432(2) 0.60322(18)
C3 C 0.5789(3) 1.1114(2) 0.6250(2)
C4 C 0.6529(3) 0.7550(2) 0.80712(18)
H2 H 0.5255 0.7584 0.8514
C5 C 0.7703(3) 0.7394(2) 0.89171(17)
C6 C 0.7680(3) 0.9425(2) 0.50341(19)
F3 F 1.0708(2) 0.49852(17) 0.61346(18)
O1 O 1.0717(3) 0.6829(2) 1.13651(17)
C7 C 0.6544(3) 0.8776(2) 0.71132(17)
C8 C 0.6786(3) 1.0750(2) 0.5181(2)
H3 H 0.6861 1.1429 0.4527
C9 C 0.8205(3) 0.6908(2) 0.61315(18)
H4 H 0.7789 0.6625 0.5570
C10 C 0.7528(3) 0.6447(2) 0.99418(19)
H5 H 0.6701 0.5918 1.0097
C11 C 0.5656(3) 1.0108(2) 0.72497(19)
C12 C 0.8943(3) 0.8168(2) 0.8715(2)
H6 H 0.9079 0.8809 0.8037
C13 C 0.9790(3) 0.7062(2) 1.05171(19)
C14 C 1.0266(3) 0.6341(3) 0.5963(2)
C15 C 0.4553(4) 1.0432(3) 0.8431(2)
H7 H 0.4935 1.1133 0.8596
H8 H 0.4755 0.9639 0.9015
H9 H 0.3268 1.0733 0.8435
C16 C 0.8558(4) 0.6279(2) 1.07313(19)
H10 H 0.8423 0.5637 1.1409
C17 C 0.9991(4) 0.8008(2) 0.9505(2)
H11 H 1.0821 0.8535 0.9353
C18 C 0.8703(4) 0.9134(3) 0.3831(2)
H12 H 0.9966 0.9152 0.3694
H13 H 0.8147 0.9806 0.3261
H14 H 0.8649 0.8258 0.3771
C19 C 0.4839(4) 1.2575(2) 0.6320(3)
H15 H 0.5421 1.2907 0.6741
H16 H 0.3566 1.2653 0.6717
H17 H 0.4925 1.3097 0.5547
C20 C 1.1929(5) 0.7651(4) 1.1224(3)
H18 H 1.2918 0.7500 1.0547
H19 H 1.2421 0.7425 1.1900
H20 H 1.1266 0.8585 1.1130
loop_
_geom_bond_atom_site_label_1
_geom_bond_atom_site_label_2
_geom_bond_site_symmetry_1
_geom_bond_site_symmetry_2
Br1 C1 1_555 1_555
C1 H1 1_555 1_555
F1 C14 1_555 1_555
F2 C14 1_555 1_555
C2 C6 1_555 1_555
C3 C8 1_555 1_555
C4 C1 1_555 1_555
H2 C4 1_555 1_555
C5 C4 1_555 1_555
C6 C8 1_555 1_555
F3 C14 1_555 1_555
O1 C13 1_555 1_555
C7 C2 1_555 1_555
C8 H3 1_555 1_555
C9 C1 1_555 1_555
H4 C9 1_555 1_555
C10 C5 1_555 1_555
H5 C10 1_555 1_555
C11 C3 1_555 1_555
C12 C5 1_555 1_555
H6 C12 1_555 1_555
C13 C16 1_555 1_555
C14 C9 1_555 1_555
C15 C11 1_555 1_555
H7 C15 1_555 1_555
H8 C15 1_555 1_555
H9 C15 1_555 1_555
C16 C10 1_555 1_555
H10 C16 1_555 1_555
C17 C12 1_555 1_555
H11 C17 1_555 1_555
C18 C6 1_555 1_555
H12 C18 1_555 1_555
H13 C18 1_555 1_555
H14 C18 1_555 1_555
C19 C3 1_555 1_555
H15 C19 1_555 1_555
H16 C19 1_555 1_555
H17 C19 1_555 1_555
C20 O1 1_555 1_555
H18 C20 1_555 1_555
H19 C20 1_555 1_555
H20 C20 1_555 1_555
C2 C9 1_555 1_555
C4 C7 1_555 1_555
C7 C11 1_555 1_555
C13 C17 1_555 1_555

#END
