
#######################################################################
#
#                 Cambridge Crystallographic Data Centre
#                                CCDC 
#
#######################################################################
#
# If this CIF has been generated from an entry in the Cambridge 
# Structural Database, then it will include bibliographic, chemical, 
# crystal, experimental, refinement or atomic coordinate data resulting 
# from the CCDC's data processing and validation procedures.
#
#######################################################################

data_YALMUV
_chemical_formula_moiety         'C66 H78 N2 O6 S4'
_chemical_name_systematic        
5,11,17,23-tetra-t-butyl-25,27-dihydroxy-26,28-bis(2-(2-(1,3-benzothiazol-2-ylsulfanyl)ethoxy)ethoxy)calix(4)arene
_symmetry_cell_setting           triclinic
_symmetry_space_group_name_H-M   'P -1'
_symmetry_Int_Tables_number      2
_space_group_name_Hall           '-P 1'
loop_
_symmetry_equiv_pos_site_id
_symmetry_equiv_pos_as_xyz
1 x,y,z
2 -x,-y,-z
_cell_length_a                   14.460(2)
_cell_length_b                   17.634(3)
_cell_length_c                   27.379(4)
_cell_angle_alpha                75.863(2)
_cell_angle_beta                 89.298(2)
_cell_angle_gamma                68.918(2)
_cell_volume                     6294.65
_exptl_crystal_colour            colorless
_exptl_crystal_description       block
_cell_formula_units_Z            4
loop_
_atom_site_label
_atom_site_type_symbol
_atom_site_fract_x
_atom_site_fract_y
_atom_site_fract_z
C1 C 0.7534(8) 0.3458(7) 0.9867(5)
H1 H 0.7039 0.3626 1.0096
H2 H 0.7599 0.3948 0.9647
H3 H 0.8160 0.3107 1.0056
C2 C 0.7198(9) 0.2154(7) 0.9916(5)
H4 H 0.7858 0.1807 1.0068
H5 H 0.6957 0.1853 0.9734
H6 H 0.6766 0.2298 1.0176
C3 C 0.8010(8) 0.2716(10) 0.9184(4)
H7 H 0.8063 0.3213 0.8966
H8 H 0.7826 0.2407 0.8984
H9 H 0.8639 0.2371 0.9372
C7 C 0.3332(6) 0.4114(5) 0.7683(3)
C8 C 0.4341(7) 0.3810(6) 0.7826(3)
C9 C 0.4865(6) 0.2961(6) 0.7880(3)
H19 H 0.5542 0.2745 0.7979
C10 C 0.4433(7) 0.2424(5) 0.7794(3)
C11 C 0.3426(7) 0.2761(5) 0.7656(3)
H20 H 0.3114 0.2412 0.7593
C12 C 0.2863(6) 0.3599(5) 0.7608(3)
C13 C 0.5017(11) 0.1497(7) 0.7881(7)
C14 C 0.4525(9) 0.0963(7) 0.7975(6)
H21 H 0.4988 0.0398 0.8014
H22 H 0.4040 0.1107 0.7698
H23 H 0.4197 0.1003 0.8280
C15 C 0.5502(11) 0.1398(7) 0.7361(7)
H24 H 0.6080 0.0889 0.7423
H25 H 0.5691 0.1870 0.7219
H26 H 0.5027 0.1375 0.7128
C16 C 0.5995(10) 0.1161(7) 0.8173(6)
H27 H 0.5901 0.1194 0.8516
H28 H 0.6383 0.1487 0.8025
H29 H 0.6336 0.0586 0.8167
C17 C 0.4851(6) 0.4360(5) 0.7969(3)
H30 H 0.5478 0.4261 0.7816
H31 H 0.4435 0.4947 0.7836
C18 C 0.5042(6) 0.4176(5) 0.8535(3)
C19 C 0.5977(6) 0.3720(5) 0.8772(3)
H32 H 0.6500 0.3551 0.8573
C20 C 0.6184(6) 0.3495(5) 0.9292(3)
C21 C 0.5370(6) 0.3778(5) 0.9566(3)
H33 H 0.5480 0.3650 0.9916
C22 C 0.4429(6) 0.4229(5) 0.9357(3)
C23 C 0.4264(6) 0.4442(5) 0.8838(3)
C24 C 0.7220(6) 0.2965(6) 0.9550(3)
C25 C 0.3553(5) 0.4447(5) 0.9675(3)
H34 H 0.3779 0.4466 1.0002
H35 H 0.3072 0.5000 0.9511
C26 C 0.3066(6) 0.3813(5) 0.9746(3)
C27 C 0.3578(6) 0.2972(6) 0.9999(3)
H36 H 0.4217 0.2822 1.0145
C28 C 0.3188(7) 0.2353(5) 1.0045(3)
C29 C 0.2228(7) 0.2595(6) 0.9822(3)
H37 H 0.1949 0.2189 0.9845
C30 C 0.1684(6) 0.3409(6) 0.9570(3)
C31 C 0.2103(6) 0.4015(5) 0.9545(3)
C32 C 0.3749(7) 0.1439(6) 1.0345(4)
C33 C 0.4851(7) 0.1247(6) 1.0439(4)
H38 H 0.5135 0.1339 1.0121
H39 H 0.5174 0.0671 1.0625
H40 H 0.4942 0.1609 1.0629
C34 C 0.3322(10) 0.1294(6) 1.0860(5)
H41 H 0.3665 0.0724 1.1050
H42 H 0.2627 0.1399 1.0811
H43 H 0.3409 0.1670 1.1041
C35 C 0.3631(8) 0.0814(6) 1.0083(5)
H44 H 0.3889 0.0892 0.9757
H45 H 0.2939 0.0901 1.0042
H46 H 0.3990 0.0253 1.0283
C36 C 0.0680(5) 0.3614(5) 0.9292(3)
H47 H 0.0293 0.3343 0.9509
H48 H 0.0313 0.4217 0.9207
C37 C 0.0841(5) 0.3310(5) 0.8815(3)
C38 C 0.0810(5) 0.2535(5) 0.8811(3)
H49 H 0.0644 0.2228 0.9102
C39 C 0.1014(6) 0.2190(6) 0.8398(3)
C40 C 0.1266(5) 0.2688(5) 0.7972(3)
H50 H 0.1406 0.2485 0.7686
C41 C 0.1315(5) 0.3459(5) 0.7957(3)
C42 C 0.1098(5) 0.3776(5) 0.8383(3)
C43 C 0.0998(8) 0.1330(6) 0.8415(4)
C44 C 0.1816(9) 0.0680(6) 0.8815(4)
H51 H 0.1770 0.0137 0.8863
H52 H 0.1733 0.0839 0.9129
H53 H 0.2455 0.0657 0.8704
C45 C 0.0017(9) 0.1266(7) 0.8598(5)
H54 H -0.0500 0.1561 0.8328
H55 H -0.0152 0.1511 0.8879
H56 H 0.0090 0.0685 0.8701
C46 C 0.1167(10) 0.1093(7) 0.7925(4)
H57 H 0.0602 0.1435 0.7687
H58 H 0.1256 0.0511 0.7978
H59 H 0.1751 0.1179 0.7795
C47 C 0.1729(6) 0.3898(5) 0.7515(3)
H60 H 0.1436 0.4501 0.7471
H61 H 0.1562 0.3775 0.7208
C48 C 0.2691(6) 0.5512(5) 0.7150(3)
H62 H 0.2276 0.5399 0.6924
H63 H 0.3339 0.5410 0.7020
C49 C 0.2233(8) 0.6411(6) 0.7171(3)
H64 H 0.2601 0.6492 0.7435
H65 H 0.2308 0.6765 0.6853
C50 C 0.1025(11) 0.6505(7) 0.7779(4)
H66 H 0.0451 0.6340 0.7805
H67 H 0.1587 0.6029 0.7968
C51 C 0.0854(11) 0.7124(7) 0.7991(4)
H68 H 0.1501 0.7121 0.8084
H69 H 0.0569 0.6969 0.8306
C52 C -0.0193(7) 0.8583(6) 0.8233(4)
C53 C -0.1036(8) 0.9541(7) 0.8756(3)
C54 C -0.1515(8) 1.0108(7) 0.9010(5)
H70 H -0.2002 1.0620 0.8846
C55 C -0.1268(10) 0.9912(8) 0.9516(6)
H71 H -0.1554 1.0311 0.9697
C56 C -0.0610(11) 0.9142(11) 0.9759(5)
H72 H -0.0468 0.9018 1.0106
C57 C -0.0144(9) 0.8536(7) 0.9507(5)
H73 H 0.0277 0.7999 0.9680
C58 C -0.0324(8) 0.8755(7) 0.8996(5)
C59 C 0.1021(6) 0.5293(5) 0.9656(3)
H74 H 0.1485 0.5401 0.9856
H75 H 0.0712 0.4957 0.9883
C60 C 0.0254(6) 0.6095(5) 0.9378(3)
H76 H -0.0083 0.6411 0.9615
H77 H 0.0564 0.6429 0.9150
C61 C -0.1294(7) 0.6673(6) 0.8892(4)
H78 H -0.1092 0.7118 0.8698
H79 H -0.1677 0.6869 0.9160
C62 C -0.1899(8) 0.6442(7) 0.8561(4)
H80 H -0.1485 0.6207 0.8313
H81 H -0.2435 0.6949 0.8380
C63 C -0.3700(7) 0.6333(7) 0.8785(3)
C64 C -0.5461(9) 0.6693(8) 0.8754(4)
C65 C -0.6482(12) 0.6882(11) 0.8736(4)
H82 H -0.6737 0.6458 0.8833
C66 C -0.7128(13) 0.7739(15) 0.8565(6)
H83 H -0.7813 0.7874 0.8549
C67 C -0.6765(15) 0.8361(13) 0.8425(7)
H84 H -0.7205 0.8917 0.8333
C68 C -0.5771(11) 0.8189(8) 0.8416(4)
H85 H -0.5531 0.8619 0.8299
C69 C -0.5129(9) 0.7368(9) 0.8582(4)
N1 N 0.0119(6) 0.8225(5) 0.8683(4)
N2 N -0.4086(7) 0.7128(6) 0.8608(3)
O1 O 0.2793(4) 0.4960(3) 0.76478(18)
O2 O 0.3310(4) 0.4932(4) 0.86334(19)
H153 H 0.3190 0.4789 0.8385
O3 O 0.1544(3) 0.4842(3) 0.92996(17)
O4 O 0.1171(4) 0.4541(4) 0.83525(18)
H154 H 0.0960 0.4701 0.8604
O5 O 0.1226(5) 0.6683(3) 0.7261(2)
O6 O -0.0442(4) 0.5939(4) 0.9101(2)
S1 S 0.0119(2) 0.81726(17) 0.77068(10)
S2 S -0.1108(3) 0.95947(17) 0.81231(12)
S3 S -0.2420(2) 0.57039(18) 0.88925(10)
S4 S -0.4489(2) 0.57705(19) 0.89340(9)
C4 C 0.2135(12) 0.9223(10) 0.6078(5)
H10 H 0.1659 0.9751 0.6108
H11 H 0.1794 0.8909 0.5968
H12 H 0.2591 0.9323 0.5836
C5 C 0.1945(11) 0.8645(11) 0.6974(6)
H13 H 0.2268 0.8419 0.7310
H14 H 0.1640 0.8279 0.6902
H15 H 0.1445 0.9191 0.6948
C6 C 0.3210(11) 0.9277(9) 0.6751(7)
H16 H 0.3639 0.9399 0.6499
H17 H 0.3592 0.8985 0.7070
H18 H 0.2707 0.9793 0.6781
C70 C 0.7520(6) 0.6004(5) 0.7284(2)
C71 C 0.6590(6) 0.6507(5) 0.7372(2)
C72 C 0.6407(6) 0.7351(5) 0.7322(3)
H86 H 0.5785 0.7696 0.7387
C73 C 0.7117(7) 0.7696(5) 0.7179(3)
C74 C 0.8023(6) 0.7179(6) 0.7082(3)
H87 H 0.8504 0.7406 0.6975
C75 C 0.8248(6) 0.6324(5) 0.7137(3)
C76 C 0.6876(8) 0.8642(6) 0.7127(6)
C77 C 0.5824(8) 0.9149(6) 0.6954(5)
H88 H 0.5721 0.9736 0.6883
H89 H 0.5411 0.9018 0.7213
H90 H 0.5653 0.9024 0.6653
C78 C 0.7075(10) 0.8726(7) 0.7667(5)
H91 H 0.7766 0.8424 0.7780
H92 H 0.6677 0.8497 0.7896
H93 H 0.6903 0.9309 0.7657
C79 C 0.7502(11) 0.8989(7) 0.6786(6)
H94 H 0.7474 0.8862 0.6466
H95 H 0.8177 0.8745 0.6932
H96 H 0.7264 0.9588 0.6736
C80 C 0.9233(5) 0.5797(5) 0.6971(3)
H97 H 0.9772 0.5905 0.7112
H98 H 0.9347 0.5205 0.7104
C81 C 0.8707(6) 0.5715(5) 0.6116(3)
C82 C 0.9245(6) 0.5990(5) 0.6399(3)
C83 C 0.9774(6) 0.6462(5) 0.6159(3)
H99 H 1.0117 0.6656 0.6353
C84 C 0.9815(6) 0.6659(5) 0.5639(4)
C85 C 0.9260(6) 0.6360(5) 0.5366(3)
H100 H 0.9271 0.6476 0.5017
C86 C 0.8699(5) 0.5903(5) 0.5595(3)
C87 C 1.0396(9) 0.7162(8) 0.5367(4)
C88 C 1.0842(9) 0.7513(8) 0.5692(4)
H101 H 1.0331 0.7852 0.5859
H102 H 1.1166 0.7853 0.5489
H103 H 1.1319 0.7063 0.5940
C89 C 1.1165(8) 0.6687(8) 0.5064(4)
H104 H 1.1736 0.6297 0.5285
H105 H 1.1360 0.7076 0.4815
H106 H 1.0888 0.6386 0.4899
C90 C 0.9713(9) 0.7931(8) 0.4968(5)
H107 H 0.9434 0.7749 0.4723
H108 H 1.0090 0.8256 0.4802
H109 H 0.9187 0.8271 0.5128
C91 C 0.8056(5) 0.5648(5) 0.5290(3)
H110 H 0.8073 0.5092 0.5462
H111 H 0.8312 0.5624 0.4963
C92 C 0.6219(6) 0.6058(5) 0.5444(3)
C93 C 0.6996(6) 0.6269(5) 0.5218(3)
C94 C 0.6760(7) 0.7101(6) 0.4945(3)
H112 H 0.7258 0.7255 0.4782
C95 C 0.5811(8) 0.7714(5) 0.4903(3)
C96 C 0.5094(6) 0.7467(5) 0.5154(3)
H113 H 0.4459 0.7868 0.5141
C97 C 0.5276(6) 0.6649(5) 0.5423(3)
C98 C 0.5565(11) 0.8626(6) 0.4579(5)
C99 C 0.5476(11) 0.8627(7) 0.4036(5)
H114 H 0.4879 0.8539 0.3966
H115 H 0.6041 0.8185 0.3968
H116 H 0.5449 0.9159 0.3826
C100 C 0.4658(9) 0.9252(6) 0.4703(4)
H117 H 0.4632 0.9809 0.4540
H118 H 0.4672 0.9180 0.5062
H119 H 0.4082 0.9176 0.4586
C101 C 0.6404(10) 0.8901(7) 0.4638(5)
H120 H 0.6228 0.9477 0.4453
H121 H 0.6982 0.8556 0.4511
H122 H 0.6544 0.8847 0.4990
C102 C 0.4459(5) 0.6444(5) 0.5715(3)
H123 H 0.3838 0.6705 0.5503
H124 H 0.4624 0.5840 0.5806
C103 C 0.5010(6) 0.6302(5) 0.6614(3)
C104 C 0.4336(5) 0.6753(5) 0.6184(3)
C105 C 0.3613(5) 0.7511(5) 0.6196(3)
H125 H 0.3177 0.7813 0.5910
C106 C 0.3495(5) 0.7854(5) 0.6609(3)
C107 C 0.4163(6) 0.7391(5) 0.7024(3)
H126 H 0.4102 0.7600 0.7309
C108 C 0.4926(6) 0.6628(5) 0.7039(3)
C109 C 0.2712(6) 0.8720(5) 0.6595(3)
C110 C 0.5731(5) 0.6197(5) 0.7470(3)
H127 H 0.5975 0.5594 0.7511
H128 H 0.5455 0.6309 0.7781
C111 C 0.8131(6) 0.4629(5) 0.7822(3)
H129 H 0.7613 0.4703 0.8054
H130 H 0.8645 0.4789 0.7942
C112 C 0.8564(7) 0.3726(5) 0.7806(3)
H131 H 0.9026 0.3673 0.7545
H132 H 0.8938 0.3391 0.8126
C113 C 0.7528(8) 0.3569(6) 0.7191(4)
H133 H 0.8063 0.3616 0.6982
H134 H 0.6967 0.4099 0.7093
C114 C 0.7239(7) 0.2893(6) 0.7112(4)
H135 H 0.7077 0.2992 0.6753
H136 H 0.6644 0.2907 0.7282
C115 C 0.8256(7) 0.1467(6) 0.6812(4)
C116 C 0.8033(8) 0.1313(7) 0.6049(4)
C117 C 0.8797(7) 0.0553(7) 0.6242(3)
C118 C 0.9163(8) -0.0017(7) 0.5953(6)
H137 H 0.9680 -0.0530 0.6080
C119 C 0.8726(11) 0.0210(9) 0.5463(6)
H138 H 0.8950 -0.0156 0.5256
C120 C 0.7967(11) 0.0968(9) 0.5285(4)
H139 H 0.7686 0.1107 0.4957
C121 C 0.7608(8) 0.1527(7) 0.5571(5)
H140 H 0.7088 0.2038 0.5444
C122 C 0.6281(6) 0.4771(5) 0.5340(3)
H141 H 0.6844 0.4666 0.5136
H142 H 0.5682 0.5101 0.5117
C123 C 0.6221(6) 0.3970(5) 0.5621(3)
H143 H 0.6197 0.3640 0.5388
H144 H 0.6804 0.3652 0.5857
C124 C 0.5110(7) 0.3412(6) 0.6072(4)
H145 H 0.5694 0.2945 0.6248
H146 H 0.4883 0.3257 0.5793
C125 C 0.4322(7) 0.3594(6) 0.6418(3)
H147 H 0.4543 0.3779 0.6686
H148 H 0.4209 0.3082 0.6573
C126 C 0.2384(6) 0.3836(6) 0.6203(3)
C127 C 0.1804(8) 0.2806(7) 0.6389(3)
C128 C 0.1812(10) 0.1999(7) 0.6552(4)
H149 H 0.2406 0.1543 0.6660
C129 C 0.0924(12) 0.1884(9) 0.6550(4)
H150 H 0.0912 0.1346 0.6657
C130 C 0.0046(11) 0.2567(11) 0.6389(4)
H151 H -0.0547 0.2474 0.6378
C131 C 0.0019(8) 0.3369(8) 0.6247(4)
H152 H -0.0583 0.3823 0.6164
C132 C 0.0914(9) 0.3492(7) 0.6231(3)
N3 N 0.7751(6) 0.1815(5) 0.6391(3)
N4 N 0.2653(6) 0.3017(5) 0.6373(3)
O7 O 0.7722(3) 0.5158(3) 0.73246(17)
O8 O 0.8175(4) 0.5223(4) 0.63258(18)
H155 H 0.8074 0.5259 0.6616
O9 O 0.5355(4) 0.4131(3) 0.5886(2)
O10 O 0.5760(4) 0.5553(3) 0.66446(17)
H156 H 0.5769 0.5431 0.6374
O11 O 0.7849(5) 0.3395(4) 0.7710(2)
O12 O 0.6393(3) 0.5226(3) 0.56870(16)
S5 S 0.8187(2) 0.18650(17) 0.73370(10)
S6 S 0.9177(2) 0.04698(17) 0.68544(12)
S7 S 0.31677(19) 0.43916(16) 0.61051(9)
S8 S 0.11177(18) 0.44146(16) 0.60628(8)
C133? C 0.734(3) 0.280(2) 1.0123(5)
C134? C 0.751(3) 0.2131(15) 0.9407(15)
C135? C 0.1689(10) 0.8742(12) 0.6424(8)
C136? C 0.2644(15) 0.8919(13) 0.7111(5)
C137? C 0.2991(15) 0.9365(10) 0.6210(7)
C138? C 0.790(2) 0.342(2) 0.9310(13)
H157? H 0.7005 0.2438 1.0278
H158? H 0.7069 0.3326 1.0215
H159? H 0.8039 0.2539 1.0236
H160? H 0.7993 0.1696 0.9660
H161? H 0.7794 0.2179 0.9086
H162? H 0.6933 0.1992 0.9383
H163? H 0.1223 0.9312 0.6337
H164? H 0.1457 0.8412 0.6695
H165? H 0.1748 0.8515 0.6136
H166? H 0.3254 0.8965 0.7208
H167? H 0.2535 0.8475 0.7358
H168? H 0.2102 0.9440 0.7091
H169? H 0.2521 0.9918 0.6196
H170? H 0.2985 0.9256 0.5884
H171? H 0.3645 0.9328 0.6307
H172? H 0.7928 0.3805 0.9500
H173? H 0.7643 0.3730 0.8968
H174? H 0.8557 0.3019 0.9310
loop_
_geom_bond_atom_site_label_1
_geom_bond_atom_site_label_2
_geom_bond_site_symmetry_1
_geom_bond_site_symmetry_2
C1 H1 1_555 1_555
H2 C1 1_555 1_555
H3 C1 1_555 1_555
C2 H4 1_555 1_555
H5 C2 1_555 1_555
H6 C2 1_555 1_555
C3 H7 1_555 1_555
H8 C3 1_555 1_555
H9 C3 1_555 1_555
C4 H10 1_555 1_555
H11 C4 1_555 1_555
H12 C4 1_555 1_555
C5 H13 1_555 1_555
H14 C5 1_555 1_555
H15 C5 1_555 1_555
C6 H16 1_555 1_555
H17 C6 1_555 1_555
H18 C6 1_555 1_555
C7 C8 1_555 1_555
C8 C9 1_555 1_555
C9 H19 1_555 1_555
C10 C9 1_555 1_555
C11 C10 1_555 1_555
H20 C11 1_555 1_555
C12 C7 1_555 1_555
C13 C10 1_555 1_555
C14 C13 1_555 1_555
H21 C14 1_555 1_555
H22 C14 1_555 1_555
H23 C14 1_555 1_555
C15 C13 1_555 1_555
H24 C15 1_555 1_555
H25 C15 1_555 1_555
H26 C15 1_555 1_555
C16 C13 1_555 1_555
H27 C16 1_555 1_555
H28 C16 1_555 1_555
H29 C16 1_555 1_555
C17 C8 1_555 1_555
H30 C17 1_555 1_555
H31 C17 1_555 1_555
C18 C17 1_555 1_555
C19 C18 1_555 1_555
H32 C19 1_555 1_555
C20 C19 1_555 1_555
C21 C20 1_555 1_555
H33 C21 1_555 1_555
C22 C21 1_555 1_555
C23 C18 1_555 1_555
C24 C1 1_555 1_555
C25 C22 1_555 1_555
H34 C25 1_555 1_555
H35 C25 1_555 1_555
C26 C25 1_555 1_555
C27 C26 1_555 1_555
H36 C27 1_555 1_555
C28 C27 1_555 1_555
C29 C28 1_555 1_555
H37 C29 1_555 1_555
C30 C29 1_555 1_555
C31 C26 1_555 1_555
C32 C28 1_555 1_555
C33 C32 1_555 1_555
H38 C33 1_555 1_555
H39 C33 1_555 1_555
H40 C33 1_555 1_555
C34 C32 1_555 1_555
H41 C34 1_555 1_555
H42 C34 1_555 1_555
H43 C34 1_555 1_555
C35 C32 1_555 1_555
H44 C35 1_555 1_555
H45 C35 1_555 1_555
H46 C35 1_555 1_555
C36 C30 1_555 1_555
H47 C36 1_555 1_555
H48 C36 1_555 1_555
C37 C36 1_555 1_555
C38 C37 1_555 1_555
H49 C38 1_555 1_555
C39 C38 1_555 1_555
C40 C39 1_555 1_555
H50 C40 1_555 1_555
C41 C40 1_555 1_555
C42 C37 1_555 1_555
C43 C39 1_555 1_555
C44 C43 1_555 1_555
H51 C44 1_555 1_555
H52 C44 1_555 1_555
H53 C44 1_555 1_555
C45 C43 1_555 1_555
H54 C45 1_555 1_555
H55 C45 1_555 1_555
H56 C45 1_555 1_555
C46 C43 1_555 1_555
H57 C46 1_555 1_555
H58 C46 1_555 1_555
H59 C46 1_555 1_555
C47 C12 1_555 1_555
H60 C47 1_555 1_555
H61 C47 1_555 1_555
C48 H62 1_555 1_555
H63 C48 1_555 1_555
C49 C48 1_555 1_555
H64 C49 1_555 1_555
H65 C49 1_555 1_555
C50 H66 1_555 1_555
H67 C50 1_555 1_555
C51 C50 1_555 1_555
H68 C51 1_555 1_555
H69 C51 1_555 1_555
C52 N1 1_555 1_555
C53 C54 1_555 1_555
C54 H70 1_555 1_555
C55 C54 1_555 1_555
H71 C55 1_555 1_555
C56 C55 1_555 1_555
H72 C56 1_555 1_555
C57 C56 1_555 1_555
H73 C57 1_555 1_555
C58 C53 1_555 1_555
C59 H74 1_555 1_555
H75 C59 1_555 1_555
C60 C59 1_555 1_555
H76 C60 1_555 1_555
H77 C60 1_555 1_555
C61 H78 1_555 1_555
H79 C61 1_555 1_555
C62 C61 1_555 1_555
H80 C62 1_555 1_555
H81 C62 1_555 1_555
C63 N2 1_555 1_555
C64 C65 1_555 1_555
C65 H82 1_555 1_555
C66 C65 1_555 1_555
H83 C66 1_555 1_555
C67 C66 1_555 1_555
H84 C67 1_555 1_555
C68 C67 1_555 1_555
H85 C68 1_555 1_555
C69 C64 1_555 1_555
C70 C71 1_555 1_555
C71 C72 1_555 1_555
C72 H86 1_555 1_555
C73 C72 1_555 1_555
C74 C73 1_555 1_555
H87 C74 1_555 1_555
C75 C70 1_555 1_555
C76 C73 1_555 1_555
C77 C76 1_555 1_555
H88 C77 1_555 1_555
H89 C77 1_555 1_555
H90 C77 1_555 1_555
C78 C76 1_555 1_555
H91 C78 1_555 1_555
H92 C78 1_555 1_555
H93 C78 1_555 1_555
C79 C76 1_555 1_555
H94 C79 1_555 1_555
H95 C79 1_555 1_555
H96 C79 1_555 1_555
C80 C75 1_555 1_555
H97 C80 1_555 1_555
H98 C80 1_555 1_555
C81 C82 1_555 1_555
C82 C80 1_555 1_555
C83 C82 1_555 1_555
H99 C83 1_555 1_555
C84 C83 1_555 1_555
C85 C84 1_555 1_555
H100 C85 1_555 1_555
C86 C81 1_555 1_555
C87 C84 1_555 1_555
C88 C87 1_555 1_555
H101 C88 1_555 1_555
H102 C88 1_555 1_555
H103 C88 1_555 1_555
C89 C87 1_555 1_555
H104 C89 1_555 1_555
H105 C89 1_555 1_555
H106 C89 1_555 1_555
C90 C87 1_555 1_555
H107 C90 1_555 1_555
H108 C90 1_555 1_555
H109 C90 1_555 1_555
C91 C86 1_555 1_555
H110 C91 1_555 1_555
H111 C91 1_555 1_555
C92 C93 1_555 1_555
C93 C91 1_555 1_555
C94 C93 1_555 1_555
H112 C94 1_555 1_555
C95 C94 1_555 1_555
C96 C95 1_555 1_555
H113 C96 1_555 1_555
C97 C92 1_555 1_555
C98 C95 1_555 1_555
C99 C98 1_555 1_555
H114 C99 1_555 1_555
H115 C99 1_555 1_555
H116 C99 1_555 1_555
C100 C98 1_555 1_555
H117 C100 1_555 1_555
H118 C100 1_555 1_555
H119 C100 1_555 1_555
C101 C98 1_555 1_555
H120 C101 1_555 1_555
H121 C101 1_555 1_555
H122 C101 1_555 1_555
C102 C97 1_555 1_555
H123 C102 1_555 1_555
H124 C102 1_555 1_555
C103 C104 1_555 1_555
C104 C102 1_555 1_555
C105 C104 1_555 1_555
H125 C105 1_555 1_555
C106 C105 1_555 1_555
C107 C106 1_555 1_555
H126 C107 1_555 1_555
C108 C103 1_555 1_555
C109 C4 1_555 1_555
C110 C71 1_555 1_555
H127 C110 1_555 1_555
H128 C110 1_555 1_555
C111 H129 1_555 1_555
H130 C111 1_555 1_555
C112 C111 1_555 1_555
H131 C112 1_555 1_555
H132 C112 1_555 1_555
C113 H133 1_555 1_555
H134 C113 1_555 1_555
C114 C113 1_555 1_555
H135 C114 1_555 1_555
H136 C114 1_555 1_555
C115 N3 1_555 1_555
C116 C117 1_555 1_555
C117 C118 1_555 1_555
C118 H137 1_555 1_555
C119 C118 1_555 1_555
H138 C119 1_555 1_555
C120 C119 1_555 1_555
H139 C120 1_555 1_555
C121 C116 1_555 1_555
H140 C121 1_555 1_555
C122 H141 1_555 1_555
H142 C122 1_555 1_555
C123 C122 1_555 1_555
H143 C123 1_555 1_555
H144 C123 1_555 1_555
C124 H145 1_555 1_555
H146 C124 1_555 1_555
C125 C124 1_555 1_555
H147 C125 1_555 1_555
H148 C125 1_555 1_555
C126 N4 1_555 1_555
C127 C128 1_555 1_555
C128 H149 1_555 1_555
C129 C128 1_555 1_555
H150 C129 1_555 1_555
C130 C129 1_555 1_555
H151 C130 1_555 1_555
C131 C130 1_555 1_555
H152 C131 1_555 1_555
C132 C127 1_555 1_555
N1 C58 1_555 1_555
N2 C69 1_555 1_555
N3 C116 1_555 1_555
N4 C127 1_555 1_555
O1 C7 1_555 1_555
O2 C23 1_555 1_555
H153 O2 1_555 1_555
O3 C31 1_555 1_555
O4 C42 1_555 1_555
H154 O4 1_555 1_555
O5 C49 1_555 1_555
O6 C60 1_555 1_555
O7 C70 1_555 1_555
O8 C81 1_555 1_555
H155 O8 1_555 1_555
O9 C123 1_555 1_555
O10 C103 1_555 1_555
H156 O10 1_555 1_555
O11 C112 1_555 1_555
O12 C92 1_555 1_555
S1 C51 1_555 1_555
S2 C52 1_555 1_555
S3 C62 1_555 1_555
S4 C63 1_555 1_555
S5 C114 1_555 1_555
S6 C115 1_555 1_555
S7 C125 1_555 1_555
S8 C126 1_555 1_555
C2 C24 1_555 1_555
C3 C24 1_555 1_555
C5 C109 1_555 1_555
C6 C109 1_555 1_555
C11 C12 1_555 1_555
C20 C24 1_555 1_555
C22 C23 1_555 1_555
C30 C31 1_555 1_555
C41 C42 1_555 1_555
C41 C47 1_555 1_555
C48 O1 1_555 1_555
C50 O5 1_555 1_555
C52 S1 1_555 1_555
C53 S2 1_555 1_555
C57 C58 1_555 1_555
C59 O3 1_555 1_555
C61 O6 1_555 1_555
C63 S3 1_555 1_555
C64 S4 1_555 1_555
C68 C69 1_555 1_555
C74 C75 1_555 1_555
C85 C86 1_555 1_555
C96 C97 1_555 1_555
C106 C109 1_555 1_555
C107 C108 1_555 1_555
C108 C110 1_555 1_555
C111 O7 1_555 1_555
C113 O11 1_555 1_555
C115 S5 1_555 1_555
C117 S6 1_555 1_555
C120 C121 1_555 1_555
C122 O12 1_555 1_555
C124 O9 1_555 1_555
C126 S7 1_555 1_555
C131 C132 1_555 1_555
C132 S8 1_555 1_555

#END
