
#######################################################################
#
#                 Cambridge Crystallographic Data Centre
#                                CCDC 
#
#######################################################################
#
# If this CIF has been generated from an entry in the Cambridge 
# Structural Database, then it will include bibliographic, chemical, 
# crystal, experimental, refinement or atomic coordinate data resulting 
# from the CCDC's data processing and validation procedures.
#
#######################################################################

data_YALPAD
_chemical_formula_moiety         'C26 H20 N2'
_chemical_name_systematic        
(1E,3E)-1,4-bis(2-Pyridyl)-2,3-diphenyl-1,3-butadiene
_symmetry_cell_setting           monoclinic
_symmetry_space_group_name_H-M   'P 21/c'
_symmetry_Int_Tables_number      14
_space_group_name_Hall           '-P 2ybc'
loop_
_symmetry_equiv_pos_site_id
_symmetry_equiv_pos_as_xyz
1 x,y,z
2 -x,1/2+y,1/2-z
3 -x,-y,-z
4 x,1/2-y,1/2+z
_cell_length_a                   5.7943(6)
_cell_length_b                   10.6358(11)
_cell_length_c                   15.5975(16)
_cell_angle_alpha                90
_cell_angle_beta                 90.385(2)
_cell_angle_gamma                90
_cell_volume                     961.206
_exptl_crystal_colour            colorless
_cell_formula_units_Z            2
loop_
_atom_site_label
_atom_site_type_symbol
_atom_site_fract_x
_atom_site_fract_y
_atom_site_fract_z
N1 N 0.45623(19) 0.92046(11) 0.16292(7)
C1 C 0.3107(3) 0.84425(15) 0.20409(9)
C2 C 0.3461(3) 0.71718(15) 0.21369(10)
C3 C 0.5375(3) 0.66518(15) 0.17801(10)
C4 C 0.6868(3) 0.74035(13) 0.13283(9)
C5 C 0.6417(2) 0.86858(11) 0.12605(7)
C6 C 0.7907(2) 0.96059(11) 0.08333(8)
C7 C 0.93254(19) 0.94621(10) 0.01630(7)
C8 C 0.9542(2) 0.82308(11) -0.02937(7)
C9 C 0.7819(2) 0.78426(12) -0.08493(9)
C10 C 0.7945(3) 0.66740(14) -0.12404(10)
C11 C 0.9790(3) 0.58972(13) -0.10810(9)
C12 C 1.1540(3) 0.62900(13) -0.05494(9)
C13 C 1.1433(2) 0.74563(12) -0.01599(8)
H1 H 0.175(3) 0.8850(16) 0.2279(10)
H2 H 0.238(3) 0.6674(18) 0.2450(11)
H3 H 0.572(3) 0.575(2) 0.1856(13)
H4 H 0.825(3) 0.7040(15) 0.1046(10)
H5 H 0.767(2) 1.0433(15) 0.1072(9)
H6 H 0.650(3) 0.8380(14) -0.0991(10)
H7 H 0.668(3) 0.6401(16) -0.1624(12)
H8 H 0.992(2) 0.511(2) -0.1354(10)
H9 H 1.288(3) 0.5723(17) -0.0436(11)
H10 H 1.269(2) 0.7734(14) 0.0210(10)
N1B N 1.54377(19) 1.07954(11) -0.16292(7)
C1B C 1.6893(3) 1.15575(15) -0.20409(9)
C2B C 1.6539(3) 1.28282(15) -0.21369(10)
C3B C 1.4625(3) 1.33482(15) -0.17801(10)
C4B C 1.3132(3) 1.25965(13) -0.13283(9)
C5B C 1.3583(2) 1.13142(11) -0.12605(7)
C6B C 1.2093(2) 1.03941(11) -0.08333(8)
C7B C 1.06746(19) 1.05379(10) -0.01630(7)
C8B C 1.0458(2) 1.17692(11) 0.02937(7)
C9B C 1.2181(2) 1.21574(12) 0.08493(9)
C10B C 1.2055(3) 1.33260(14) 0.12404(10)
C11B C 1.0210(3) 1.41028(13) 0.10810(9)
C12B C 0.8460(3) 1.37100(13) 0.05494(9)
C13B C 0.8567(2) 1.25437(12) 0.01599(8)
H1B H 1.825(3) 1.1150(16) -0.2279(10)
H2B H 1.762(3) 1.3326(18) -0.2450(11)
H3B H 1.428(3) 1.425(2) -0.1856(13)
H4B H 1.175(3) 1.2960(15) -0.1046(10)
H5B H 1.233(2) 0.9567(15) -0.1072(9)
H6B H 1.350(3) 1.1620(14) 0.0991(10)
H7B H 1.332(3) 1.3599(16) 0.1624(12)
H8B H 1.008(2) 1.489(2) 0.1354(10)
H9B H 0.712(3) 1.4277(17) 0.0436(11)
H10B H 0.731(2) 1.2266(14) -0.0210(10)
loop_
_geom_bond_atom_site_label_1
_geom_bond_atom_site_label_2
_geom_bond_site_symmetry_1
_geom_bond_site_symmetry_2
N1 C1 1_555 1_555
C1 C2 1_555 1_555
C2 C3 1_555 1_555
C3 C4 1_555 1_555
C4 C5 1_555 1_555
C5 N1 1_555 1_555
C6 C5 1_555 1_555
C7 C6 1_555 1_555
C8 C7 1_555 1_555
C9 C8 1_555 1_555
C10 C9 1_555 1_555
C11 C10 1_555 1_555
C12 C11 1_555 1_555
C13 C8 1_555 1_555
H1 C1 1_555 1_555
H2 C2 1_555 1_555
H3 C3 1_555 1_555
H4 C4 1_555 1_555
H5 C6 1_555 1_555
H6 C9 1_555 1_555
H7 C10 1_555 1_555
H8 C11 1_555 1_555
H9 C12 1_555 1_555
H10 C13 1_555 1_555
N1B C1B 1_555 1_555
C1B C2B 1_555 1_555
C2B C3B 1_555 1_555
C3B C4B 1_555 1_555
C4B C5B 1_555 1_555
C5B N1B 1_555 1_555
C6B C5B 1_555 1_555
C7B C7 1_555 1_555
C8B C7B 1_555 1_555
C9B C8B 1_555 1_555
C10B C9B 1_555 1_555
C11B C10B 1_555 1_555
C12B C11B 1_555 1_555
C13B C8B 1_555 1_555
H1B C1B 1_555 1_555
H2B C2B 1_555 1_555
H3B C3B 1_555 1_555
H4B C4B 1_555 1_555
H5B C6B 1_555 1_555
H6B C9B 1_555 1_555
H7B C10B 1_555 1_555
H8B C11B 1_555 1_555
H9B C12B 1_555 1_555
H10B C13B 1_555 1_555
C12 C13 1_555 1_555
C6B C7B 1_555 1_555
C12B C13B 1_555 1_555

#END
