
#######################################################################
#
#                 Cambridge Crystallographic Data Centre
#                                CCDC 
#
#######################################################################
#
# If this CIF has been generated from an entry in the Cambridge 
# Structural Database, then it will include bibliographic, chemical, 
# crystal, experimental, refinement or atomic coordinate data resulting 
# from the CCDC's data processing and validation procedures.
#
#######################################################################

data_YALQOT
_chemical_formula_moiety         'C17 H18 O5'
_chemical_name_systematic        'Methyl hydroxy-bis(4-methoxyphenyl)acetate'
_symmetry_cell_setting           orthorhombic
_symmetry_space_group_name_H-M   'P 21 21 21'
_symmetry_Int_Tables_number      19
_space_group_name_Hall           'P 2ac 2ab'
loop_
_symmetry_equiv_pos_site_id
_symmetry_equiv_pos_as_xyz
1 x,y,z
2 1/2-x,-y,1/2+z
3 1/2+x,1/2-y,-z
4 -x,1/2+y,1/2-z
_cell_length_a                   7.749(4)
_cell_length_b                   12.680(6)
_cell_length_c                   15.462(7)
_cell_angle_alpha                90
_cell_angle_beta                 90
_cell_angle_gamma                90
_cell_volume                     1519.25
_exptl_crystal_colour            colorless
_exptl_crystal_description       block
_cell_formula_units_Z            4
loop_
_atom_site_label
_atom_site_type_symbol
_atom_site_fract_x
_atom_site_fract_y
_atom_site_fract_z
O1 O 0.0122(4) 0.0621(3) 0.5728(2)
O2 O -0.0406(4) 0.3676(3) 0.2603(2)
H1 H -0.0121 0.4324 0.2601
O3 O 0.2826(4) 0.4251(3) 0.2447(2)
O4 O 0.3819(4) 0.2578(2) 0.2499(3)
O5 O -0.0385(5) 0.0695(3) -0.0650(2)
C1 C -0.0832(8) -0.0332(4) 0.5807(3)
H2 H -0.0770 -0.0579 0.6393
H3 H -0.0354 -0.0854 0.5426
H4 H -0.2015 -0.0205 0.5655
C2 C 0.0180(7) 0.1093(4) 0.4930(3)
C3 C 0.1237(7) 0.1979(4) 0.4893(3)
H5 H 0.1819 0.2212 0.5383
C4 C 0.1411(8) 0.2509(4) 0.4117(3)
H6 H 0.2095 0.3111 0.4096
C5 C 0.0600(7) 0.2172(4) 0.3371(3)
C6 C -0.0471(7) 0.1299(4) 0.3436(3)
H7 H -0.1065 0.1069 0.2948
C7 C -0.0680(7) 0.0755(4) 0.4216(3)
H8 H -0.1400 0.0169 0.4246
C8 C 0.0776(6) 0.2824(3) 0.2546(4)
C9 C 0.2594(7) 0.3311(4) 0.2490(4)
C10 C 0.5604(6) 0.2936(4) 0.2453(4)
H9 H 0.6363 0.2338 0.2474
H10 H 0.5843 0.3394 0.2933
H11 H 0.5782 0.3312 0.1922
C11 C 0.0433(7) 0.2216(4) 0.1702(3)
C12 C -0.0585(7) 0.2641(4) 0.1049(3)
H12 H -0.1120 0.3289 0.1136
C13 C -0.0819(7) 0.2117(4) 0.0274(3)
H13 H -0.1511 0.2412 -0.0153
C14 C -0.0026(7) 0.1154(5) 0.0132(3)
C15 C 0.1002(7) 0.0716(4) 0.0773(3)
H14 H 0.1548 0.0072 0.0683
C16 C 0.1209(7) 0.1249(4) 0.1551(3)
H15 H 0.1886 0.0948 0.1982
C17 C 0.0473(8) -0.0280(4) -0.0866(3)
H16 H 0.0096 -0.0515 -0.1425
H17 H 0.0196 -0.0806 -0.0441
H18 H 0.1698 -0.0169 -0.0875
loop_
_geom_bond_atom_site_label_1
_geom_bond_atom_site_label_2
_geom_bond_site_symmetry_1
_geom_bond_site_symmetry_2
O1 C1 1_555 1_555
O2 H1 1_555 1_555
O3 C9 1_555 1_555
O4 C9 1_555 1_555
O5 C14 1_555 1_555
C1 H2 1_555 1_555
H3 C1 1_555 1_555
H4 C1 1_555 1_555
C2 O1 1_555 1_555
C3 C2 1_555 1_555
H5 C3 1_555 1_555
C4 C3 1_555 1_555
H6 C4 1_555 1_555
C5 C4 1_555 1_555
C6 C5 1_555 1_555
H7 C6 1_555 1_555
C7 C2 1_555 1_555
H8 C7 1_555 1_555
C8 O2 1_555 1_555
C9 C8 1_555 1_555
C10 O4 1_555 1_555
H9 C10 1_555 1_555
H10 C10 1_555 1_555
H11 C10 1_555 1_555
C11 C8 1_555 1_555
C12 C11 1_555 1_555
H12 C12 1_555 1_555
C13 C12 1_555 1_555
H13 C13 1_555 1_555
C14 C13 1_555 1_555
C15 C14 1_555 1_555
H14 C15 1_555 1_555
C16 C11 1_555 1_555
H15 C16 1_555 1_555
C17 O5 1_555 1_555
H16 C17 1_555 1_555
H17 C17 1_555 1_555
H18 C17 1_555 1_555
C5 C8 1_555 1_555
C6 C7 1_555 1_555
C15 C16 1_555 1_555

#END
