
#######################################################################
#
#                 Cambridge Crystallographic Data Centre
#                                CCDC 
#
#######################################################################
#
# If this CIF has been generated from an entry in the Cambridge 
# Structural Database, then it will include bibliographic, chemical, 
# crystal, experimental, refinement or atomic coordinate data resulting 
# from the CCDC's data processing and validation procedures.
#
#######################################################################

data_YALRIO
_chemical_formula_moiety         'C28 H20 N2'
_chemical_name_systematic        
2,6-Diphenyl-4-(4-(pyridin-2-yl)phenyl)pyridine
_symmetry_cell_setting           monoclinic
_symmetry_space_group_name_H-M   'P 21/n'
_symmetry_Int_Tables_number      14
_space_group_name_Hall           '-P 2yn'
loop_
_symmetry_equiv_pos_site_id
_symmetry_equiv_pos_as_xyz
1 x,y,z
2 1/2-x,1/2+y,1/2-z
3 -x,-y,-z
4 1/2+x,1/2-y,1/2+z
_cell_length_a                   21.5968(5)
_cell_length_b                   5.37130(10)
_cell_length_c                   35.0011(7)
_cell_angle_alpha                90
_cell_angle_beta                 95.538(2)
_cell_angle_gamma                90
_cell_volume                     4041.28
_exptl_crystal_colour            colorless
_exptl_crystal_description       bar
_cell_formula_units_Z            8
loop_
_atom_site_label
_atom_site_type_symbol
_atom_site_fract_x
_atom_site_fract_y
_atom_site_fract_z
N1 N 0.50719(9) 0.5603(4) 0.19202(6)
N2 N 0.82356(11) 1.7271(5) 0.19399(6)
C1 C 0.52726(11) 0.7223(4) 0.21979(7)
C2 C 0.57630(12) 0.8830(5) 0.21575(7)
H1 H 0.5889 0.9929 0.2355
C3 C 0.60680(11) 0.8827(5) 0.18277(7)
C4 C 0.58662(12) 0.7103(5) 0.15469(7)
H2 H 0.6065 0.6994 0.1323
C5 C 0.53668(11) 0.5537(5) 0.15987(7)
C6 C 0.65901(11) 1.0558(5) 0.17792(7)
C7 C 0.68308(15) 1.2075(6) 0.20674(8)
H3 H 0.6664 1.2005 0.2302
C8 C 0.73102(15) 1.3708(7) 0.20269(8)
H4 H 0.7455 1.4707 0.2234
C9 C 0.75776(11) 1.3900(5) 0.16931(7)
C10 C 0.73293(16) 1.2457(7) 0.13979(8)
H5 H 0.7489 1.2566 0.1161
C11 C 0.68461(16) 1.0837(7) 0.14416(9)
H6 H 0.6689 0.9895 0.1231
C12 C 0.81021(12) 1.5644(5) 0.16522(7)
C13 C 0.84360(12) 1.5588(5) 0.13420(7)
H7 H 0.8344 1.4416 0.1149
C14 C 0.89071(14) 1.7263(6) 0.13148(9)
H8 H 0.9133 1.7240 0.1102
C15 C 0.90461(14) 1.8963(6) 0.15987(8)
H9 H 0.9364 2.0117 0.1584
C16 C 0.87016(15) 1.8915(6) 0.19067(9)
H10 H 0.8792 2.0067 0.2102
C17 C 0.51246(11) 0.3698(5) 0.13025(7)
C18 C 0.53320(13) 0.3613(6) 0.09413(8)
H11 H 0.5631 0.4748 0.0879
C19 C 0.51059(15) 0.1884(6) 0.06713(9)
H12 H 0.5252 0.1871 0.0430
C20 C 0.46677(15) 0.0191(6) 0.07575(10)
H13 H 0.4518 -0.0986 0.0577
C21 C 0.44524(14) 0.0248(6) 0.11130(10)
H14 H 0.4152 -0.0891 0.1173
C22 C 0.46771(13) 0.1982(5) 0.13824(8)
H15 H 0.4525 0.1998 0.1622
C23 C 0.49306(10) 0.7205(4) 0.25469(6)
C24 C 0.45160(11) 0.5295(5) 0.26072(7)
H16 H 0.4466 0.3996 0.2431
C25 C 0.41776(12) 0.5283(5) 0.29210(7)
H17 H 0.3904 0.3982 0.2955
C26 C 0.42429(12) 0.7182(6) 0.31844(7)
H18 H 0.4008 0.7199 0.3393
C27 C 0.46574(13) 0.9046(5) 0.31354(7)
H19 H 0.4710 1.0321 0.3315
C28 C 0.49989(12) 0.9063(5) 0.28222(7)
H20 H 0.5280 1.0347 0.2795
N3 N 0.17648(9) -0.1809(4) -0.01793(5)
N4 N 0.23012(9) 0.9872(4) 0.17560(5)
C29 C 0.13749(11) -0.0011(4) -0.00844(6)
C30 C 0.15269(11) 0.1557(5) 0.02265(6)
H21 H 0.1255 0.2825 0.0280
C31 C 0.20811(11) 0.1248(4) 0.04579(6)
C32 C 0.24715(12) -0.0654(4) 0.03598(6)
H22 H 0.2842 -0.0958 0.0511
C33 C 0.23111(11) -0.2108(4) 0.00361(6)
C34 C 0.22540(11) 0.2951(4) 0.07858(6)
C35 C 0.28691(12) 0.3327(5) 0.09265(7)
H23 H 0.3179 0.2430 0.0821
C36 C 0.30340(12) 0.4996(5) 0.12190(7)
H24 H 0.3451 0.5196 0.1307
C37 C 0.25859(11) 0.6379(4) 0.13840(6)
C38 C 0.19707(11) 0.5987(5) 0.12490(6)
H25 H 0.1660 0.6873 0.1356
C39 C 0.18074(11) 0.4304(5) 0.09580(6)
H26 H 0.1389 0.4071 0.0875
C40 C 0.27502(11) 0.8221(4) 0.16929(6)
C41 C 0.33232(12) 0.8265(5) 0.19065(7)
H27 H 0.3625 0.7096 0.1861
C42 C 0.34450(13) 1.0047(5) 0.21863(7)
H28 H 0.3827 1.0084 0.2333
C43 C 0.29965(13) 1.1760(5) 0.22453(7)
H29 H 0.3068 1.3001 0.2429
C44 C 0.24375(12) 1.1591(5) 0.20245(7)
H30 H 0.2133 1.2760 0.2065
C45 C 0.27320(12) -0.4028(5) -0.01006(7)
C46 C 0.33483(14) -0.4207(6) 0.00354(8)
H31 H 0.3513 -0.3085 0.0221
C47 C 0.37311(16) -0.6020(7) -0.00972(10)
H32 H 0.4146 -0.6117 0.0001
C48 C 0.34974(19) -0.7672(6) -0.03734(10)
H33 H 0.3755 -0.8865 -0.0468
C49 C 0.28819(17) -0.7546(6) -0.05076(9)
H34 H 0.2717 -0.8690 -0.0689
C50 C 0.25052(14) -0.5741(5) -0.03759(7)
H35 H 0.2089 -0.5665 -0.0473
C51 C 0.07775(11) 0.0197(5) -0.03313(6)
C52 C 0.06094(12) -0.1593(5) -0.06055(7)
H36 H 0.0874 -0.2927 -0.0637
C53 C 0.00511(14) -0.1422(6) -0.08346(8)
H37 H -0.0052 -0.2644 -0.1018
C54 C -0.03490(13) 0.0498(6) -0.07966(8)
H38 H -0.0724 0.0598 -0.0951
C55 C -0.01877(13) 0.2268(6) -0.05271(8)
H39 H -0.0456 0.3593 -0.0497
C56 C 0.03662(13) 0.2126(6) -0.02983(8)
H40 H 0.0465 0.3364 -0.0117
loop_
_geom_bond_atom_site_label_1
_geom_bond_atom_site_label_2
_geom_bond_site_symmetry_1
_geom_bond_site_symmetry_2
N1 C1 1_555 1_555
N2 C12 1_555 1_555
N3 C29 1_555 1_555
N4 C40 1_555 1_555
C1 C2 1_555 1_555
C2 H1 1_555 1_555
C3 C2 1_555 1_555
C4 C3 1_555 1_555
H2 C4 1_555 1_555
C5 N1 1_555 1_555
C6 C3 1_555 1_555
C7 C6 1_555 1_555
H3 C7 1_555 1_555
C8 C7 1_555 1_555
H4 C8 1_555 1_555
C9 C8 1_555 1_555
C10 C9 1_555 1_555
H5 C10 1_555 1_555
C11 C6 1_555 1_555
H6 C11 1_555 1_555
C12 C9 1_555 1_555
C13 C12 1_555 1_555
H7 C13 1_555 1_555
C14 C13 1_555 1_555
H8 C14 1_555 1_555
C15 C14 1_555 1_555
H9 C15 1_555 1_555
C16 N2 1_555 1_555
H10 C16 1_555 1_555
C17 C5 1_555 1_555
C18 C17 1_555 1_555
H11 C18 1_555 1_555
C19 C18 1_555 1_555
H12 C19 1_555 1_555
C20 C19 1_555 1_555
H13 C20 1_555 1_555
C21 C20 1_555 1_555
H14 C21 1_555 1_555
C22 C17 1_555 1_555
H15 C22 1_555 1_555
C23 C1 1_555 1_555
C24 C23 1_555 1_555
H16 C24 1_555 1_555
C25 C24 1_555 1_555
H17 C25 1_555 1_555
C26 C25 1_555 1_555
H18 C26 1_555 1_555
C27 C26 1_555 1_555
H19 C27 1_555 1_555
C28 C23 1_555 1_555
H20 C28 1_555 1_555
C29 C30 1_555 1_555
C30 H21 1_555 1_555
C31 C30 1_555 1_555
C32 C31 1_555 1_555
H22 C32 1_555 1_555
C33 N3 1_555 1_555
C34 C31 1_555 1_555
C35 C34 1_555 1_555
H23 C35 1_555 1_555
C36 C35 1_555 1_555
H24 C36 1_555 1_555
C37 C36 1_555 1_555
C38 C37 1_555 1_555
H25 C38 1_555 1_555
C39 C34 1_555 1_555
H26 C39 1_555 1_555
C40 C37 1_555 1_555
C41 C40 1_555 1_555
H27 C41 1_555 1_555
C42 C41 1_555 1_555
H28 C42 1_555 1_555
C43 C42 1_555 1_555
H29 C43 1_555 1_555
C44 N4 1_555 1_555
H30 C44 1_555 1_555
C45 C33 1_555 1_555
C46 C45 1_555 1_555
H31 C46 1_555 1_555
C47 C46 1_555 1_555
H32 C47 1_555 1_555
C48 C47 1_555 1_555
H33 C48 1_555 1_555
C49 C48 1_555 1_555
H34 C49 1_555 1_555
C50 C45 1_555 1_555
H35 C50 1_555 1_555
C51 C29 1_555 1_555
C52 C51 1_555 1_555
H36 C52 1_555 1_555
C53 C52 1_555 1_555
H37 C53 1_555 1_555
C54 C53 1_555 1_555
H38 C54 1_555 1_555
C55 C54 1_555 1_555
H39 C55 1_555 1_555
C56 C51 1_555 1_555
H40 C56 1_555 1_555
C4 C5 1_555 1_555
C10 C11 1_555 1_555
C15 C16 1_555 1_555
C21 C22 1_555 1_555
C27 C28 1_555 1_555
C32 C33 1_555 1_555
C38 C39 1_555 1_555
C43 C44 1_555 1_555
C49 C50 1_555 1_555
C55 C56 1_555 1_555

#END
