
#######################################################################
#
#                 Cambridge Crystallographic Data Centre
#                                CCDC 
#
#######################################################################
#
# If this CIF has been generated from an entry in the Cambridge 
# Structural Database, then it will include bibliographic, chemical, 
# crystal, experimental, refinement or atomic coordinate data resulting 
# from the CCDC's data processing and validation procedures.
#
#######################################################################

data_YALSUB
_chemical_formula_moiety         'C32 H16 N2,C1 H2 Cl2'
_chemical_name_systematic        
'(P)-(+)-9-Heptahelicene-6,13-dicarbonitrile dichloromethane solvate'
_symmetry_cell_setting           orthorhombic
_symmetry_space_group_name_H-M   'P 21 21 21'
_symmetry_Int_Tables_number      19
_space_group_name_Hall           'P 2ac 2ab'
loop_
_symmetry_equiv_pos_site_id
_symmetry_equiv_pos_as_xyz
1 x,y,z
2 1/2-x,-y,1/2+z
3 1/2+x,1/2-y,-z
4 -x,1/2+y,1/2-z
_cell_length_a                   10.1288(5)
_cell_length_b                   11.8618(5)
_cell_length_c                   20.6934(13)
_cell_angle_alpha                90
_cell_angle_beta                 90
_cell_angle_gamma                90
_cell_volume                     2486.23
_exptl_crystal_colour            yellow
_exptl_crystal_description       needle
_cell_formula_units_Z            4
_exptl_crystal_recrystallization_method dichloromethane/n-hexane
loop_
_atom_site_label
_atom_site_type_symbol
_atom_site_fract_x
_atom_site_fract_y
_atom_site_fract_z
Cl1 Cl 0.9133(4) 0.3672(4) -0.03737(15)
Cl2 Cl 1.0802(6) 0.2960(8) 0.0631(3)
C33 C 0.976(3) 0.2530(10) -0.0015(12)
H17 H 1.0316 0.2042 -0.0360
H18 H 0.8968 0.2009 0.0169
N1 N 0.3804(8) 0.5352(7) -0.0281(4)
N2 N 0.4881(6) 0.3278(6) 0.5540(3)
C1 C 0.4231(5) 0.5717(4) 0.3001(3)
C2 C 0.3148(6) 0.6121(4) 0.3344(3)
C3 C 0.1931(6) 0.6310(5) 0.3024(4)
C4 C 0.1855(5) 0.6164(5) 0.2378(4)
C5 C 0.2839(6) 0.5687(5) 0.1338(4)
C6 C 0.3912(7) 0.5434(5) 0.0971(3)
C7 C 0.6315(7) 0.4993(5) 0.0876(3)
C8 C 0.7480(7) 0.4799(5) 0.1160(3)
C9 C 0.8848(6) 0.4446(5) 0.2105(4)
C10 C 0.8976(5) 0.4289(4) 0.2736(4)
C11 C 0.8000(6) 0.3865(5) 0.3806(4)
C12 C 0.6935(6) 0.3649(5) 0.4181(3)
C13 C 0.4557(5) 0.3221(4) 0.4292(2)
C14 C 0.3347(6) 0.2965(4) 0.4042(3)
C15 C 0.3205(5) 0.2896(4) 0.3361(3)
C16 C 0.2000(6) 0.2529(5) 0.3095(3)
C17 C 0.1862(5) 0.2351(5) 0.2452(3)
C18 C 0.2963(6) 0.2501(4) 0.2043(3)
C19 C 0.4119(5) 0.2891(4) 0.2289(3)
C20 C 0.4287(5) 0.3146(4) 0.2945(3)
C21 C 0.5499(5) 0.3585(4) 0.3230(3)
C22 C 0.5689(5) 0.3477(4) 0.3902(3)
C23 C 0.6564(5) 0.4066(4) 0.2851(3)
C24 C 0.7839(5) 0.4084(5) 0.3140(3)
C25 C 0.6425(5) 0.4571(4) 0.2215(3)
C26 C 0.7584(5) 0.4608(4) 0.1825(3)
C27 C 0.5234(5) 0.5064(4) 0.1950(3)
C28 C 0.5159(6) 0.5147(4) 0.1270(3)
C29 C 0.4145(5) 0.5483(4) 0.2336(3)
C30 C 0.2930(5) 0.5771(4) 0.2013(3)
C31 C 0.3837(7) 0.5402(6) 0.0273(4)
C32 C 0.4722(6) 0.3244(5) 0.4988(4)
H1 H 0.5064 0.5600 0.3212
H2 H 0.3232 0.6262 0.3799
H3 H 0.1163 0.6547 0.3260
H4 H 0.1045 0.6323 0.2155
H5 H 0.1997 0.5816 0.1138
H6 H 0.6258 0.5023 0.0413
H7 H 0.8275 0.4796 0.0907
H8 H 0.9612 0.4441 0.1831
H9 H 0.9835 0.4326 0.2931
H10 H 0.8867 0.3855 0.3993
H11 H 0.7024 0.3617 0.4642
H12 H 0.2611 0.2842 0.4326
H13 H 0.1257 0.2390 0.3372
H14 H 0.1021 0.2137 0.2278
H15 H 0.2883 0.2318 0.1593
H16 H 0.4864 0.3009 0.2010
loop_
_geom_bond_atom_site_label_1
_geom_bond_atom_site_label_2
_geom_bond_site_symmetry_1
_geom_bond_site_symmetry_2
Cl1 C33 1_555 1_555
Cl2 C33 1_555 1_555
N1 C31 1_555 1_555
N2 C32 1_555 1_555
C1 C2 1_555 1_555
C2 C3 1_555 1_555
C3 C4 1_555 1_555
C4 C30 1_555 1_555
C5 C6 1_555 1_555
C6 C28 1_555 1_555
C7 C8 1_555 1_555
C8 C26 1_555 1_555
C9 C10 1_555 1_555
C10 C24 1_555 1_555
C11 C12 1_555 1_555
C12 C22 1_555 1_555
C13 C14 1_555 1_555
C14 C15 1_555 1_555
C15 C16 1_555 1_555
C16 C17 1_555 1_555
C17 C18 1_555 1_555
C18 C19 1_555 1_555
C19 C20 1_555 1_555
C20 C15 1_555 1_555
C21 C20 1_555 1_555
C22 C13 1_555 1_555
C23 C21 1_555 1_555
C24 C11 1_555 1_555
C25 C23 1_555 1_555
C26 C9 1_555 1_555
C27 C25 1_555 1_555
C28 C7 1_555 1_555
C29 C1 1_555 1_555
C30 C5 1_555 1_555
C31 C6 1_555 1_555
C32 C13 1_555 1_555
C33 H17 1_555 1_555
H1 C1 1_555 1_555
H2 C2 1_555 1_555
H3 C3 1_555 1_555
H4 C4 1_555 1_555
H5 C5 1_555 1_555
H6 C7 1_555 1_555
H7 C8 1_555 1_555
H8 C9 1_555 1_555
H9 C10 1_555 1_555
H10 C11 1_555 1_555
H11 C12 1_555 1_555
H12 C14 1_555 1_555
H13 C16 1_555 1_555
H14 C17 1_555 1_555
H15 C18 1_555 1_555
H16 C19 1_555 1_555
H18 C33 1_555 1_555
C21 C22 1_555 1_555
C23 C24 1_555 1_555
C25 C26 1_555 1_555
C27 C28 1_555 1_555
C27 C29 1_555 1_555
C29 C30 1_555 1_555

#END
