
#######################################################################
#
#                 Cambridge Crystallographic Data Centre
#                                CCDC 
#
#######################################################################
#
# If this CIF has been generated from an entry in the Cambridge 
# Structural Database, then it will include bibliographic, chemical, 
# crystal, experimental, refinement or atomic coordinate data resulting 
# from the CCDC's data processing and validation procedures.
#
#######################################################################

data_YALSOV
_chemical_formula_moiety         'C32 H16 N2'
_chemical_name_systematic        (+-)-Heptahelicene-6,13-dicarbonitrile
_symmetry_cell_setting           monoclinic
_symmetry_space_group_name_H-M   'C 2/c'
_symmetry_Int_Tables_number      15
_space_group_name_Hall           '-C 2yn'
loop_
_symmetry_equiv_pos_site_id
_symmetry_equiv_pos_as_xyz
1 x,y,z
2 1/2+x,1/2+y,z
3 -x,y,1/2-z
4 1/2-x,1/2+y,1/2-z
5 -x,-y,-z
6 1/2-x,1/2-y,-z
7 x,-y,1/2+z
8 1/2+x,1/2-y,1/2+z
_cell_length_a                   32.7859(3)
_cell_length_b                   15.6705(5)
_cell_length_c                   8.3918(7)
_cell_angle_alpha                90
_cell_angle_beta                 104.076(2)
_cell_angle_gamma                90
_cell_volume                     4182.01
_exptl_crystal_colour            yellow
_exptl_crystal_description       plate
_cell_formula_units_Z            8
_exptl_crystal_recrystallization_method dichloromethane
loop_
_atom_site_label
_atom_site_type_symbol
_atom_site_fract_x
_atom_site_fract_y
_atom_site_fract_z
N1 N 1.05152(5) 0.30575(12) -0.0989(2)
N2 N 0.73251(6) 0.09029(13) 0.3178(2)
C1 C 0.98800(5) 0.25424(11) 0.00904(19)
C2 C 0.96123(5) 0.31623(10) 0.05931(18)
C3 C 0.97023(6) 0.40496(12) 0.0531(2)
C4 C 0.94724(6) 0.46297(11) 0.1134(2)
C5 C 0.91078(5) 0.43808(10) 0.1644(2)
C6 C 0.88805(6) 0.50017(11) 0.2325(2)
C7 C 0.85529(6) 0.47619(12) 0.2938(2)
C8 C 0.83829(5) 0.39227(11) 0.2651(2)
C9 C 0.80434(6) 0.36643(12) 0.3326(2)
C10 C 0.78737(5) 0.28729(12) 0.3025(2)
C11 C 0.79860(5) 0.23447(10) 0.18039(18)
C12 C 0.77833(5) 0.15343(11) 0.1358(2)
C13 C 0.78526(5) 0.10601(11) 0.0080(2)
C14 C 0.81105(5) 0.13926(10) -0.09165(19)
C15 C 0.81354(6) 0.09614(12) -0.2373(2)
C16 C 0.83469(6) 0.13150(14) -0.3426(2)
C17 C 0.85412(6) 0.21108(13) -0.3073(2)
C18 C 0.85282(5) 0.25367(11) -0.16501(18)
C19 C 0.83248(4) 0.21795(10) -0.04994(17)
C20 C 0.82954(5) 0.26146(10) 0.10042(18)
C21 C 0.85536(5) 0.33387(10) 0.16892(17)
C22 C 0.89733(5) 0.35175(10) 0.14880(17)
C23 C 0.92690(4) 0.28765(10) 0.12037(17)
C24 C 0.92509(4) 0.19796(10) 0.16003(17)
C25 C 0.90210(5) 0.16573(11) 0.26986(19)
C26 C 0.90045(6) 0.07979(12) 0.3010(2)
C27 C 0.92249(6) 0.02085(12) 0.2272(2)
C28 C 0.94765(6) 0.05036(11) 0.1308(2)
C29 C 0.95051(5) 0.13866(10) 0.09960(18)
C30 C 0.98129(5) 0.16886(11) 0.0193(2)
C31 C 1.02312(5) 0.28316(12) -0.0529(2)
C32 C 0.75178(6) 0.11943(12) 0.2346(2)
H1 H 0.8681(7) 0.2414(15) -0.385(3)
H2 H 0.8970(6) 0.5606(12) 0.237(2)
H3 H 0.8345(8) 0.1016(14) -0.444(3)
H4 H 0.8645(6) 0.3116(12) -0.144(2)
H5 H 0.7653(7) 0.2643(14) 0.357(2)
H6 H 0.7939(8) 0.4093(15) 0.407(3)
H7 H 0.9542(6) 0.5269(14) 0.122(2)
H8 H 0.8890(7) 0.2088(12) 0.323(2)
H9 H 0.9212(6) -0.0404(14) 0.249(2)
H10 H 0.7989(6) 0.0408(14) -0.262(2)
H11 H 0.9660(7) 0.0092(13) 0.084(2)
H12 H 0.8412(7) 0.5192(14) 0.353(2)
H13 H 0.9993(7) 0.1287(14) -0.019(3)
H14 H 0.7714(6) 0.0482(13) -0.020(2)
H15 H 0.8845(7) 0.0580(13) 0.382(2)
H16 H 0.9939(7) 0.4256(13) 0.009(3)
loop_
_geom_bond_atom_site_label_1
_geom_bond_atom_site_label_2
_geom_bond_site_symmetry_1
_geom_bond_site_symmetry_2
N1 C31 1_555 1_555
N2 C32 1_555 1_555
C1 C2 1_555 1_555
C2 C3 1_555 1_555
C3 C4 1_555 1_555
C4 C5 1_555 1_555
C5 C6 1_555 1_555
C6 C7 1_555 1_555
C7 C8 1_555 1_555
C8 C9 1_555 1_555
C9 C10 1_555 1_555
C10 C11 1_555 1_555
C11 C12 1_555 1_555
C12 C13 1_555 1_555
C13 C14 1_555 1_555
C14 C15 1_555 1_555
C15 C16 1_555 1_555
C16 C17 1_555 1_555
C17 C18 1_555 1_555
C18 C19 1_555 1_555
C19 C14 1_555 1_555
C20 C11 1_555 1_555
C21 C8 1_555 1_555
C22 C5 1_555 1_555
C23 C2 1_555 1_555
C24 C23 1_555 1_555
C25 C24 1_555 1_555
C26 C25 1_555 1_555
C27 C26 1_555 1_555
C28 C27 1_555 1_555
C29 C24 1_555 1_555
C30 C1 1_555 1_555
C31 C1 1_555 1_555
C32 C12 1_555 1_555
H1 C17 1_555 1_555
H2 C6 1_555 1_555
H3 C16 1_555 1_555
H4 C18 1_555 1_555
H5 C10 1_555 1_555
H6 C9 1_555 1_555
H7 C4 1_555 1_555
H8 C25 1_555 1_555
H9 C27 1_555 1_555
H10 C15 1_555 1_555
H11 C28 1_555 1_555
H12 C7 1_555 1_555
H13 C30 1_555 1_555
H14 C13 1_555 1_555
H15 C26 1_555 1_555
H16 C3 1_555 1_555
C19 C20 1_555 1_555
C20 C21 1_555 1_555
C21 C22 1_555 1_555
C22 C23 1_555 1_555
C28 C29 1_555 1_555
C29 C30 1_555 1_555

#END
