
#######################################################################
#
#                 Cambridge Crystallographic Data Centre
#                                CCDC 
#
#######################################################################
#
# If this CIF has been generated from an entry in the Cambridge 
# Structural Database, then it will include bibliographic, chemical, 
# crystal, experimental, refinement or atomic coordinate data resulting 
# from the CCDC's data processing and validation procedures.
#
#######################################################################

data_YALTOW
_chemical_formula_moiety         'C6 H7 N4 1+,N1 O3 1-'
_chemical_name_systematic        
'2-(1H-Imidazol-2-yl)-1H-imidazol-3-ium nitrate'
_symmetry_cell_setting           monoclinic
_symmetry_space_group_name_H-M   'C 2/c'
_symmetry_Int_Tables_number      15
_space_group_name_Hall           '-C 2yn'
loop_
_symmetry_equiv_pos_site_id
_symmetry_equiv_pos_as_xyz
1 x,y,z
2 -x,y,1/2-z
3 1/2+x,1/2+y,z
4 1/2-x,1/2+y,1/2-z
5 -x,-y,-z
6 x,-y,1/2+z
7 1/2-x,1/2-y,-z
8 1/2+x,1/2-y,1/2+z
_cell_length_a                   14.8078(15)
_cell_length_b                   5.9233(6)
_cell_length_c                   20.028(2)
_cell_angle_alpha                90
_cell_angle_beta                 92.7910(10)
_cell_angle_gamma                90
_cell_volume                     1754.59
_exptl_crystal_colour            yellow
_exptl_crystal_description       block
_cell_formula_units_Z            8
loop_
_atom_site_label
_atom_site_type_symbol
_atom_site_fract_x
_atom_site_fract_y
_atom_site_fract_z
N1 N 0.61564(11) 0.1752(3) 0.26679(7)
H1 H 0.5885 0.2501 0.2350
N2 N 0.66122(12) 0.0570(3) 0.36633(8)
H2 H 0.6671 0.0473 0.4092
N3 N 0.46956(11) 0.4254(3) 0.33719(9)
N4 N 0.57184(11) 0.5012(3) 0.41388(8)
H3 H 0.6215 0.4975 0.4380
C1 C 0.60915(13) 0.2054(3) 0.33141(9)
C2 C 0.70271(15) -0.0741(4) 0.32194(10)
H4 H 0.7428 -0.1919 0.3316
C3 C 0.67454(15) -0.0004(4) 0.26086(10)
H5 H 0.6925 -0.0600 0.2206
C4 C 0.55228(13) 0.3722(3) 0.36087(9)
C5 C 0.50029(15) 0.6408(4) 0.42401(11)
H6 H 0.4966 0.7485 0.4575
C6 C 0.43652(15) 0.5926(4) 0.37641(11)
H7 H 0.3800 0.6605 0.3710
N5 N 0.70355(12) 1.0005(3) 0.53536(8)
O1 O 0.77335(10) 1.0001(3) 0.50227(7)
O2 O 0.71064(12) 1.0021(3) 0.59704(7)
O3 O 0.62846(10) 1.0023(3) 0.50495(8)
H8? H 0.4416 0.3650 0.3030
loop_
_geom_bond_atom_site_label_1
_geom_bond_atom_site_label_2
_geom_bond_site_symmetry_1
_geom_bond_site_symmetry_2
N1 H1 1_555 1_555
N2 H2 1_555 1_555
N3 C4 1_555 1_555
N4 H3 1_555 1_555
N5 O1 1_555 1_555
O2 N5 1_555 1_555
O3 N5 1_555 1_555
C1 N1 1_555 1_555
C2 N2 1_555 1_555
H4 C2 1_555 1_555
C3 N1 1_555 1_555
H5 C3 1_555 1_555
C4 N4 1_555 1_555
C5 N4 1_555 1_555
H6 C5 1_555 1_555
C6 N3 1_555 1_555
H7 C6 1_555 1_555
N2 C1 1_555 1_555
C1 C4 1_555 1_555
C2 C3 1_555 1_555
C5 C6 1_555 1_555

#END
