
#######################################################################
#
#                 Cambridge Crystallographic Data Centre
#                                CCDC 
#
#######################################################################
#
# If this CIF has been generated from an entry in the Cambridge 
# Structural Database, then it will include bibliographic, chemical, 
# crystal, experimental, refinement or atomic coordinate data resulting 
# from the CCDC's data processing and validation procedures.
#
#######################################################################

data_YAMBAR
_chemical_name_common            9-methylcannabilactone
_chemical_formula_moiety         'C23 H28 O3'
_chemical_name_systematic        
3-(1,1'-dimethylheptyl)-1-hydroxy-9-methyl-6H-benzo(c)chromene-6-one
_symmetry_cell_setting           monoclinic
_symmetry_space_group_name_H-M   'P 21/c'
_symmetry_Int_Tables_number      14
_space_group_name_Hall           '-P 2ybc'
loop_
_symmetry_equiv_pos_site_id
_symmetry_equiv_pos_as_xyz
1 x,y,z
2 -x,1/2+y,1/2-z
3 -x,-y,-z
4 x,1/2-y,1/2+z
_cell_length_a                   14.723(2)
_cell_length_b                   17.146(2)
_cell_length_c                   8.4178(10)
_cell_angle_alpha                90
_cell_angle_beta                 105.367(10)
_cell_angle_gamma                90
_cell_volume                     2049.02
_chemical_melting_point          '459-461 K'
_cell_formula_units_Z            4
loop_
_atom_site_label
_atom_site_type_symbol
_atom_site_fract_x
_atom_site_fract_y
_atom_site_fract_z
C1 C 0.9732(4) 0.9251(3) 0.2034(7)
O1 O 1.0183(3) 0.9871(2) 0.2892(5)
C2 C 0.7593(4) 0.8884(3) -0.1639(7)
C3 C 0.7725(7) 0.8543(7) -0.3203(10)
C4 C 0.7415(6) 0.9773(5) -0.1977(13)
C7 C 0.8946(4) 0.9364(3) 0.0703(7)
C8 C 0.6736(6) 0.8602(6) -0.1181(11)
C10 C 0.8470(4) 0.8753(3) -0.0214(7)
C11 C 0.6531(8) 0.8848(8) 0.0395(15)
C13 C 0.9580(3) 0.7901(3) 0.1560(6)
C14 C 0.8812(4) 0.8008(3) 0.0234(7)
C16 C 0.5641(10) 0.8475(9) 0.0703(18)
O2 O 0.9828(3) 0.7123(2) 0.1894(5)
C17 C 0.5509(12) 0.8676(11) 0.2368(19)
C19 C 1.1108(4) 0.7521(3) 0.4192(6)
C20 C 1.0547(4) 0.6910(3) 0.3190(7)
O3 O 1.0689(3) 0.6214(2) 0.3403(5)
C22 C 0.4619(11) 0.8389(11) 0.2570(20)
C23 C 1.1877(4) 0.7290(3) 0.5472(7)
C25 C 0.4370(20) 0.8535(17) 0.4140(30)
C26 C 1.2435(4) 0.7841(4) 0.6457(7)
C27 C 1.2237(4) 0.8628(3) 0.6167(7)
C28 C 1.0080(3) 0.8500(3) 0.2516(6)
C29 C 1.0894(3) 0.8303(3) 0.3876(6)
C30 C 1.1477(4) 0.8851(3) 0.4908(7)
C31 C 1.2836(5) 0.9233(4) 0.7259(9)
H1 H 0.9919 1.0274 0.2498
H2 H 0.7840 0.7993 -0.3062
H3 H 0.8252 0.8789 -0.3468
H4 H 0.7167 0.8629 -0.4082
H5 H 0.7807 1.0067 -0.1085
H6 H 0.6765 0.9889 -0.2069
H7 H 0.7563 0.9909 -0.2986
H14 H 0.8736 0.9870 0.0425
H15 H 0.6761 0.8036 -0.1174
H16 H 0.6196 0.8750 -0.2069
H19 H 0.6897 0.8505 0.1241
H20 H 0.6802 0.9364 0.0638
H23 H 0.8520 0.7580 -0.0366
H26 H 0.5772 0.7930 0.0981
H27 H 0.5082 0.8490 -0.0219
H30 H 0.5938 0.8876 0.3102
H35 H 0.4792 0.7844 0.2556
H36 H 1.2012 0.6763 0.5658
H39 H 0.4706 0.8305 0.4752
H40 H 0.3855 0.8200 0.4204
H41 H 0.4180 0.9070 0.4181
H43 H 1.2943 0.7687 0.7314
H44 H 1.1344 0.9379 0.4735
H45 H 1.2606 0.9744 0.6894
H46 H 1.3477 0.9183 0.7206
H47 H 1.2806 0.9158 0.8375
C5? C 0.7235(13) 0.8093(8) -0.2450(20)
C6? C 0.7798(15) 0.9367(12) -0.2970(20)
C9? C 0.6833(11) 0.9253(9) -0.1070(20)
C12? C 0.6440(20) 0.8790(30) 0.0100(40)
C15? C 0.5583(9) 0.8889(11) 0.0676(19)
C18? C 0.5389(14) 0.8860(13) 0.2160(20)
C21? C 0.4550(13) 0.8795(15) 0.2520(20)
C24? C 0.4502(17) 0.8800(13) 0.4260(20)
H8? H 0.7557 0.7676 -0.1768
H9? H 0.7354 0.8063 -0.3514
H10? H 0.6570 0.8049 -0.2567
H11? H 0.8080 0.9047 -0.3647
H12? H 0.8223 0.9780 -0.2493
H13? H 0.7222 0.9587 -0.3637
H17? H 0.6320 0.9374 -0.2030
H18? H 0.7067 0.9743 -0.0544
H21? H 0.6760 0.8295 0.0033
H22? H 0.6811 0.9013 0.1127
H24? H 0.5169 0.8547 -0.0112
H25? H 0.5349 0.9416 0.0438
H28? H 0.5685 0.8134 0.2589
H29? H 0.5944 0.8993 0.3180
H31? H 0.5177 0.9391 0.1883
H32? H 0.4147 0.8384 0.1932
H33? H 0.4312 0.9288 0.2010
H34? H 0.4053 0.8463 0.1678
H37? H 0.3865 0.8896 0.4289
H38? H 0.4903 0.9204 0.4848
H42? H 0.4902 0.8430 0.5052
loop_
_geom_bond_atom_site_label_1
_geom_bond_atom_site_label_2
_geom_bond_site_symmetry_1
_geom_bond_site_symmetry_2
C1 O1 1_555 1_555
O1 H1 1_555 1_555
C2 C3 1_555 1_555
C3 H2 1_555 1_555
C4 C2 1_555 1_555
C7 C1 1_555 1_555
C8 C2 1_555 1_555
C10 C2 1_555 1_555
C11 C8 1_555 1_555
C13 C14 1_555 1_555
C14 C10 1_555 1_555
C16 C11 1_555 1_555
O2 C13 1_555 1_555
C17 C16 1_555 1_555
C19 C20 1_555 1_555
C20 O2 1_555 1_555
O3 C20 1_555 1_555
C22 C17 1_555 1_555
C23 C19 1_555 1_555
C25 C22 1_555 1_555
C26 C23 1_555 1_555
C27 C26 1_555 1_555
C28 C1 1_555 1_555
C29 C19 1_555 1_555
C30 C27 1_555 1_555
C31 C27 1_555 1_555
H3 C3 1_555 1_555
H4 C3 1_555 1_555
H5 C4 1_555 1_555
H6 C4 1_555 1_555
H7 C4 1_555 1_555
H14 C7 1_555 1_555
H15 C8 1_555 1_555
H16 C8 1_555 1_555
H19 C11 1_555 1_555
H20 C11 1_555 1_555
H23 C14 1_555 1_555
H26 C16 1_555 1_555
H27 C16 1_555 1_555
H30 C17 1_555 1_555
H35 C22 1_555 1_555
H36 C23 1_555 1_555
H39 C25 1_555 1_555
H40 C25 1_555 1_555
H41 C25 1_555 1_555
H43 C26 1_555 1_555
H44 C30 1_555 1_555
H45 C31 1_555 1_555
H46 C31 1_555 1_555
H47 C31 1_555 1_555
C7 C10 1_555 1_555
C13 C28 1_555 1_555
C28 C29 1_555 1_555
C29 C30 1_555 1_555

#END
