
#######################################################################
#
#                 Cambridge Crystallographic Data Centre
#                                CCDC 
#
#######################################################################
#
# If this CIF has been generated from an entry in the Cambridge 
# Structural Database, then it will include bibliographic, chemical, 
# crystal, experimental, refinement or atomic coordinate data resulting 
# from the CCDC's data processing and validation procedures.
#
#######################################################################

data_YAMGAW
_chemical_formula_moiety         'C25 H36 O4 Si1'
_chemical_name_systematic        
17-((t-Butyl(dimethyl)silyl)oxy)-5,8-epoxy-9,19-cyclo-9,10-secoandrosta-1(10),3-diene-2,19-dione
_symmetry_cell_setting           monoclinic
_symmetry_space_group_name_H-M   'P 21/c'
_symmetry_Int_Tables_number      14
_space_group_name_Hall           '-P 2ybc'
loop_
_symmetry_equiv_pos_site_id
_symmetry_equiv_pos_as_xyz
1 x,y,z
2 -x,1/2+y,1/2-z
3 -x,-y,-z
4 x,1/2-y,1/2+z
_cell_length_a                   18.718(4)
_cell_length_b                   8.9611(18)
_cell_length_c                   14.835(3)
_cell_angle_alpha                90
_cell_angle_beta                 97.02(3)
_cell_angle_gamma                90
_cell_volume                     2469.68
_cell_formula_units_Z            4
loop_
_atom_site_label
_atom_site_type_symbol
_atom_site_fract_x
_atom_site_fract_y
_atom_site_fract_z
C1 C 0.4390(2) -0.0151(4) 1.15678(19)
C2 C 0.49544(19) -0.1215(3) 1.13967(18)
H1 H 0.4860 -0.2234 1.1413
C3 C 0.55966(18) -0.0752(3) 1.12194(18)
H2 H 0.5925 -0.1461 1.1069
C4 C 0.58181(15) 0.0844(3) 1.12494(18)
C5 C 0.51978(16) 0.1910(3) 1.12918(17)
C6 C 0.45480(16) 0.1434(4) 1.14517(17)
H3 H 0.4185 0.2130 1.1490
C7 C 0.64123(15) 0.1144(3) 1.20443(18)
H4 H 0.6207 0.1456 1.2583
H5 H 0.6705 0.0262 1.2186
C8 C 0.68571(14) 0.2402(3) 1.16887(17)
H6 H 0.7362 0.2130 1.1732
H7 H 0.6811 0.3317 1.2026
C9 C 0.65304(14) 0.2585(3) 1.06863(18)
C10 C 0.59505(14) 0.3823(3) 1.05653(18)
H8 H 0.5730 0.3722 0.9934
C11 C 0.53452(15) 0.3518(3) 1.11246(17)
C12 C 0.70450(14) 0.2886(3) 0.99918(17)
H9 H 0.6743 0.2865 0.9404
C13 C 0.73967(14) 0.4444(3) 1.00450(18)
C14 C 0.68070(15) 0.5631(3) 0.9952(2)
H10 H 0.6560 0.5609 0.9338
H11 H 0.7026 0.6607 1.0052
C15 C 0.62536(15) 0.5400(3) 1.0625(2)
H12 H 0.6481 0.5585 1.1238
H13 H 0.5864 0.6110 1.0495
C16 C 0.76693(16) 0.1805(3) 0.9881(2)
H14 H 0.7496 0.0899 0.9571
H15 H 0.7932 0.1548 1.0465
C17 C 0.81433(16) 0.2725(3) 0.9300(2)
H16 H 0.8638 0.2748 0.9585
H17 H 0.8133 0.2289 0.8700
C18 C 0.78233(15) 0.4318(3) 0.92333(19)
H18 H 0.7489 0.4397 0.8673
C19 C 0.79251(15) 0.4726(3) 1.09112(18)
H19 H 0.7663 0.4766 1.1428
H20 H 0.8170 0.5657 1.0855
H21 H 0.8271 0.3931 1.0990
C20 C 0.8614(2) 0.5505(5) 0.7341(3)
H22 H 0.8171 0.5049 0.7085
H23 H 0.8969 0.4745 0.7499
H24 H 0.8780 0.6170 0.6904
C21 C 0.9313(3) 0.9044(5) 0.8103(3)
H25 H 0.9707 0.9678 0.8335
H26 H 0.8878 0.9621 0.8008
H27 H 0.9409 0.8617 0.7537
C22 C 0.9931(2) 0.6839(6) 0.8897(3)
H28 H 1.0280 0.7300 0.8564
H29 H 0.9827 0.5852 0.8665
H30 H 1.0119 0.6780 0.9528
C23 C 0.9101(3) 0.8444(5) 0.9715(3)
H31 H 0.8655 0.8987 0.9652
H32 H 0.9489 0.9106 0.9924
H33 H 0.9080 0.7651 1.0145
C24 C 0.9226(2) 0.7787(4) 0.8790(3)
C25 C 0.76159(18) 0.7739(4) 0.8118(3)
H34 H 0.7645 0.8594 0.8511
H35 H 0.7204 0.7151 0.8215
H36 H 0.7571 0.8063 0.7497
O1 O 0.38049(12) -0.0562(3) 1.17755(14)
O2 O 0.49713(10) 0.4514(2) 1.13785(12)
O3 O 0.61735(9) 0.11813(19) 1.04649(11)
O4 O 0.83694(10) 0.5428(2) 0.92210(13)
Si1 Si 0.84623(6) 0.65713(12) 0.83755(7)
loop_
_geom_bond_atom_site_label_1
_geom_bond_atom_site_label_2
_geom_bond_site_symmetry_1
_geom_bond_site_symmetry_2
C1 C2 1_555 1_555
C2 H1 1_555 1_555
C3 C2 1_555 1_555
H2 C3 1_555 1_555
C4 C3 1_555 1_555
C5 C4 1_555 1_555
C6 C1 1_555 1_555
H3 C6 1_555 1_555
C7 C4 1_555 1_555
H4 C7 1_555 1_555
H5 C7 1_555 1_555
C8 C7 1_555 1_555
H6 C8 1_555 1_555
H7 C8 1_555 1_555
C9 C8 1_555 1_555
C10 C9 1_555 1_555
H8 C10 1_555 1_555
C11 C5 1_555 1_555
C12 C9 1_555 1_555
H9 C12 1_555 1_555
C13 C12 1_555 1_555
C14 C13 1_555 1_555
H10 C14 1_555 1_555
H11 C14 1_555 1_555
C15 C10 1_555 1_555
H12 C15 1_555 1_555
H13 C15 1_555 1_555
C16 C12 1_555 1_555
H14 C16 1_555 1_555
H15 C16 1_555 1_555
C17 C16 1_555 1_555
H16 C17 1_555 1_555
H17 C17 1_555 1_555
C18 C13 1_555 1_555
H18 C18 1_555 1_555
C19 C13 1_555 1_555
H19 C19 1_555 1_555
H20 C19 1_555 1_555
H21 C19 1_555 1_555
C20 H22 1_555 1_555
H23 C20 1_555 1_555
H24 C20 1_555 1_555
C21 H25 1_555 1_555
H26 C21 1_555 1_555
H27 C21 1_555 1_555
C22 H28 1_555 1_555
H29 C22 1_555 1_555
H30 C22 1_555 1_555
C23 H31 1_555 1_555
H32 C23 1_555 1_555
H33 C23 1_555 1_555
C24 C21 1_555 1_555
C25 H34 1_555 1_555
H35 C25 1_555 1_555
H36 C25 1_555 1_555
O1 C1 1_555 1_555
O2 C11 1_555 1_555
O3 C4 1_555 1_555
O4 C18 1_555 1_555
Si1 C20 1_555 1_555
C5 C6 1_555 1_555
C9 O3 1_555 1_555
C10 C11 1_555 1_555
C14 C15 1_555 1_555
C17 C18 1_555 1_555
C22 C24 1_555 1_555
C23 C24 1_555 1_555
C24 Si1 1_555 1_555
C25 Si1 1_555 1_555
O4 Si1 1_555 1_555

#END
