
#######################################################################
#
#                 Cambridge Crystallographic Data Centre
#                                CCDC 
#
#######################################################################
#
# If this CIF has been generated from an entry in the Cambridge 
# Structural Database, then it will include bibliographic, chemical, 
# crystal, experimental, refinement or atomic coordinate data resulting 
# from the CCDC's data processing and validation procedures.
#
#######################################################################

data_YAMKII
_chemical_formula_moiety         'C26 H42 N2 O2 S2 Si2'
_chemical_name_systematic        
2,7-bis(triisopropylsilyl)[1,3]thiazolo[4,5-g][1,3]benzothiazole-4,5-dione
_symmetry_cell_setting           monoclinic
_symmetry_space_group_name_H-M   'P 2/n'
_symmetry_Int_Tables_number      13
_space_group_name_Hall           '-P 2yac'
loop_
_symmetry_equiv_pos_site_id
_symmetry_equiv_pos_as_xyz
1 x,y,z
2 1/2-x,y,1/2-z
3 -x,-y,-z
4 1/2+x,-y,1/2+z
_cell_length_a                   18.711(5)
_cell_length_b                   8.334(2)
_cell_length_c                   18.767(5)
_cell_angle_alpha                90
_cell_angle_beta                 97.692(4)
_cell_angle_gamma                90
_cell_volume                     2900.15
_exptl_crystal_colour            red
_exptl_crystal_description       prism
_cell_formula_units_Z            4
loop_
_atom_site_label
_atom_site_type_symbol
_atom_site_fract_x
_atom_site_fract_y
_atom_site_fract_z
Si1 Si 1.01400(8) 0.00471(16) 0.31825(8)
S1 S 0.84413(7) 0.04492(14) 0.27363(6)
O1 O 0.8236(2) -0.5437(4) 0.2669(2)
N1 N 0.9028(2) -0.2367(4) 0.2878(2)
C1 C 0.7931(3) -0.4161(5) 0.2601(2)
C2 C 0.8287(3) -0.2570(5) 0.2690(2)
C3 C 0.7887(3) -0.1174(5) 0.2589(2)
C4 C 0.9190(3) -0.0855(5) 0.2928(2)
C5 C 1.0668(3) -0.0406(5) 0.2430(3)
H1 H 1.1131 0.0201 0.2534
C6 C 1.0295(3) 0.0225(7) 0.1723(3)
H2 H 1.0616 0.0117 0.1354
H3 H 1.0173 0.1359 0.1775
H4 H 0.9853 -0.0391 0.1579
C7 C 1.0871(3) -0.2165(6) 0.2364(3)
H5 H 1.1068 -0.2330 0.1911
H6 H 1.0442 -0.2835 0.2370
H7 H 1.1235 -0.2460 0.2768
C8 C 1.0498(3) -0.0823(6) 0.4085(3)
H8 H 1.0154 -0.0488 0.4422
C9 C 1.1235(3) -0.0126(6) 0.4390(3)
H9 H 1.1383 -0.0559 0.4872
H10 H 1.1200 0.1045 0.4415
H11 H 1.1592 -0.0419 0.4076
C10 C 1.0523(3) -0.2652(6) 0.4110(3)
H12 H 1.0596 -0.3009 0.4612
H13 H 1.0922 -0.3035 0.3867
H14 H 1.0068 -0.3086 0.3869
C11 C 0.9991(3) 0.2298(6) 0.3222(3)
H15 H 0.9617 0.2572 0.2808
C12 C 0.9691(3) 0.2822(6) 0.3902(3)
H16 H 0.9570 0.3966 0.3869
H17 H 1.0053 0.2636 0.4321
H18 H 0.9256 0.2200 0.3952
C13 C 1.0665(3) 0.3278(6) 0.3123(3)
H19 H 1.0537 0.4416 0.3070
H20 H 1.0859 0.2909 0.2691
H21 H 1.1030 0.3135 0.3544
Si1A Si 0.48600(8) 0.00471(16) 0.18175(8)
S1A S 0.65587(7) 0.04492(14) 0.22637(6)
O1A O 0.6764(2) -0.5437(4) 0.2331(2)
N1A N 0.5972(2) -0.2367(4) 0.2122(2)
C1A C 0.7069(3) -0.4161(5) 0.2399(2)
C2A C 0.6713(3) -0.2570(5) 0.2310(2)
C3A C 0.7113(3) -0.1174(5) 0.2411(2)
C4A C 0.5810(3) -0.0855(5) 0.2072(2)
C5A C 0.4332(3) -0.0406(5) 0.2570(3)
H1A H 0.3869 0.0201 0.2466
C6A C 0.4705(3) 0.0225(7) 0.3277(3)
H2A H 0.4384 0.0117 0.3646
H3A H 0.4827 0.1359 0.3225
H4A H 0.5147 -0.0391 0.3421
C7A C 0.4129(3) -0.2165(6) 0.2636(3)
H5A H 0.3932 -0.2330 0.3089
H6A H 0.4558 -0.2835 0.2630
H7A H 0.3765 -0.2460 0.2232
C8A C 0.4502(3) -0.0823(6) 0.0915(3)
H8A H 0.4846 -0.0488 0.0578
C9A C 0.3765(3) -0.0126(6) 0.0610(3)
H9A H 0.3617 -0.0559 0.0128
H10A H 0.3800 0.1045 0.0585
H11A H 0.3408 -0.0419 0.0924
C10A C 0.4477(3) -0.2652(6) 0.0890(3)
H12A H 0.4404 -0.3009 0.0388
H13A H 0.4078 -0.3035 0.1133
H14A H 0.4932 -0.3086 0.1131
C11A C 0.5009(3) 0.2298(6) 0.1778(3)
H15A H 0.5383 0.2572 0.2192
C12A C 0.5309(3) 0.2822(6) 0.1098(3)
H16A H 0.5430 0.3966 0.1131
H17A H 0.4947 0.2636 0.0679
H18A H 0.5744 0.2200 0.1048
C13A C 0.4335(3) 0.3278(6) 0.1877(3)
H19A H 0.4463 0.4416 0.1930
H20A H 0.4141 0.2909 0.2309
H21A H 0.3970 0.3135 0.1456
Si2 Si 0.31106(8) 0.48009(14) 0.51316(7)
S2 S 0.26947(7) 0.53883(14) 0.34460(6)
O2 O 0.2633(2) -0.0465(4) 0.3230(2)
N2 N 0.2840(2) 0.2560(5) 0.3996(2)
C14 C 0.2590(3) 0.0786(5) 0.2919(3)
C15 C 0.2676(3) 0.2375(6) 0.3263(3)
C16 C 0.2591(3) 0.3764(5) 0.2891(2)
C17 C 0.2872(3) 0.4082(6) 0.4172(3)
C18 C 0.2479(3) 0.3717(5) 0.5668(2)
H22 H 0.2580 0.4131 0.6172
C19 C 0.1688(3) 0.4114(6) 0.5400(3)
H23 H 0.1377 0.3617 0.5719
H24 H 0.1561 0.3698 0.4911
H25 H 0.1620 0.5280 0.5399
C20 C 0.2595(3) 0.1894(5) 0.5709(3)
H26 H 0.2211 0.1397 0.5940
H27 H 0.3063 0.1661 0.5991
H28 H 0.2585 0.1461 0.5222
C21 C 0.4109(3) 0.4405(6) 0.5380(3)
H29 H 0.4366 0.5160 0.5086
C22 C 0.4372(4) 0.4786(9) 0.6165(3)
H30 H 0.4900 0.4781 0.6243
H31 H 0.4189 0.3975 0.6472
H32 H 0.4196 0.5847 0.6284
C23 C 0.4351(3) 0.2705(6) 0.5203(3)
H33 H 0.4879 0.2650 0.5277
H34 H 0.4172 0.2452 0.4701
H35 H 0.4157 0.1930 0.5520
C24 C 0.2914(3) 0.7012(5) 0.5151(2)
H36 H 0.2450 0.7189 0.4829
C25 C 0.3489(3) 0.8065(6) 0.4857(3)
H37 H 0.3320 0.9178 0.4815
H38 H 0.3570 0.7669 0.4382
H39 H 0.3941 0.8015 0.5186
C26 C 0.2798(4) 0.7611(6) 0.5897(3)
H40 H 0.2657 0.8744 0.5868
H41 H 0.3246 0.7493 0.6228
H42 H 0.2416 0.6981 0.6074
Si2A Si 0.18894(8) 0.48009(14) -0.01316(7)
S2A S 0.23053(7) 0.53883(14) 0.15540(6)
O2A O 0.2367(2) -0.0465(4) 0.1770(2)
N2A N 0.2160(2) 0.2560(5) 0.1004(2)
C14A C 0.2410(3) 0.0786(5) 0.2081(3)
C15A C 0.2324(3) 0.2375(6) 0.1737(3)
C16A C 0.2409(3) 0.3764(5) 0.2109(2)
C17A C 0.2128(3) 0.4082(6) 0.0828(3)
C18A C 0.2521(3) 0.3717(5) -0.0668(2)
H22A H 0.2420 0.4131 -0.1172
C19A C 0.3312(3) 0.4114(6) -0.0400(3)
H23A H 0.3623 0.3617 -0.0719
H24A H 0.3439 0.3698 0.0089
H25A H 0.3380 0.5280 -0.0399
C20A C 0.2405(3) 0.1894(5) -0.0709(3)
H26A H 0.2789 0.1397 -0.0940
H27A H 0.1937 0.1661 -0.0991
H28A H 0.2415 0.1461 -0.0222
C21A C 0.0891(3) 0.4405(6) -0.0380(3)
H29A H 0.0634 0.5160 -0.0086
C22A C 0.0628(4) 0.4786(9) -0.1165(3)
H30A H 0.0100 0.4781 -0.1243
H31A H 0.0811 0.3975 -0.1472
H32A H 0.0804 0.5847 -0.1284
C23A C 0.0649(3) 0.2705(6) -0.0203(3)
H33A H 0.0121 0.2650 -0.0277
H34A H 0.0828 0.2452 0.0299
H35A H 0.0843 0.1930 -0.0520
C24A C 0.2086(3) 0.7012(5) -0.0151(2)
H36A H 0.2550 0.7189 0.0171
C25A C 0.1511(3) 0.8065(6) 0.0143(3)
H37A H 0.1680 0.9178 0.0185
H38A H 0.1430 0.7669 0.0618
H39A H 0.1059 0.8015 -0.0186
C26A C 0.2202(4) 0.7611(6) -0.0897(3)
H40A H 0.2343 0.8744 -0.0868
H41A H 0.1754 0.7493 -0.1228
H42A H 0.2584 0.6981 -0.1074
loop_
_geom_bond_atom_site_label_1
_geom_bond_atom_site_label_2
_geom_bond_site_symmetry_1
_geom_bond_site_symmetry_2
Si1 C4 1_555 1_555
Si2 C17 1_555 1_555
S1 C3 1_555 1_555
S2 C16 1_555 1_555
O1 C1 1_555 1_555
O2 C14 1_555 1_555
N1 C2 1_555 1_555
N2 C15 1_555 1_555
C1 C2 1_555 1_555
C2 C3 1_555 1_555
C3 C3A 1_555 1_555
C4 S1 1_555 1_555
C5 Si1 1_555 1_555
H1 C5 1_555 1_555
C6 C5 1_555 1_555
H2 C6 1_555 1_555
H3 C6 1_555 1_555
H4 C6 1_555 1_555
C7 C5 1_555 1_555
H5 C7 1_555 1_555
H6 C7 1_555 1_555
H7 C7 1_555 1_555
C8 Si1 1_555 1_555
H8 C8 1_555 1_555
C9 C8 1_555 1_555
H9 C9 1_555 1_555
H10 C9 1_555 1_555
H11 C9 1_555 1_555
C10 C8 1_555 1_555
H12 C10 1_555 1_555
H13 C10 1_555 1_555
H14 C10 1_555 1_555
C11 Si1 1_555 1_555
H15 C11 1_555 1_555
C12 C11 1_555 1_555
H16 C12 1_555 1_555
H17 C12 1_555 1_555
H18 C12 1_555 1_555
C13 C11 1_555 1_555
H19 C13 1_555 1_555
H20 C13 1_555 1_555
H21 C13 1_555 1_555
C14 C15 1_555 1_555
C15 C16 1_555 1_555
C16 C16A 1_555 1_555
C17 S2 1_555 1_555
C18 Si2 1_555 1_555
H22 C18 1_555 1_555
C19 C18 1_555 1_555
H23 C19 1_555 1_555
H24 C19 1_555 1_555
H25 C19 1_555 1_555
C20 C18 1_555 1_555
H26 C20 1_555 1_555
H27 C20 1_555 1_555
H28 C20 1_555 1_555
C21 Si2 1_555 1_555
H29 C21 1_555 1_555
C22 C21 1_555 1_555
H30 C22 1_555 1_555
H31 C22 1_555 1_555
H32 C22 1_555 1_555
C23 C21 1_555 1_555
H33 C23 1_555 1_555
H34 C23 1_555 1_555
H35 C23 1_555 1_555
C24 Si2 1_555 1_555
H36 C24 1_555 1_555
C25 C24 1_555 1_555
H37 C25 1_555 1_555
H38 C25 1_555 1_555
H39 C25 1_555 1_555
C26 C24 1_555 1_555
H40 C26 1_555 1_555
H41 C26 1_555 1_555
H42 C26 1_555 1_555
Si1A C4A 1_555 1_555
Si2A C17A 1_555 1_555
S1A C3A 1_555 1_555
S2A C16A 1_555 1_555
O1A C1A 1_555 1_555
O2A C14A 1_555 1_555
N1A C2A 1_555 1_555
N2A C15A 1_555 1_555
C1A C1 1_555 1_555
C2A C1A 1_555 1_555
C3A C2A 1_555 1_555
C4A S1A 1_555 1_555
C5A Si1A 1_555 1_555
H1A C5A 1_555 1_555
C6A C5A 1_555 1_555
H2A C6A 1_555 1_555
H3A C6A 1_555 1_555
H4A C6A 1_555 1_555
C7A C5A 1_555 1_555
H5A C7A 1_555 1_555
H6A C7A 1_555 1_555
H7A C7A 1_555 1_555
C8A Si1A 1_555 1_555
H8A C8A 1_555 1_555
C9A C8A 1_555 1_555
H9A C9A 1_555 1_555
H10A C9A 1_555 1_555
H11A C9A 1_555 1_555
C10A C8A 1_555 1_555
H12A C10A 1_555 1_555
H13A C10A 1_555 1_555
H14A C10A 1_555 1_555
C11A Si1A 1_555 1_555
H15A C11A 1_555 1_555
C12A C11A 1_555 1_555
H16A C12A 1_555 1_555
H17A C12A 1_555 1_555
H18A C12A 1_555 1_555
C13A C11A 1_555 1_555
H19A C13A 1_555 1_555
H20A C13A 1_555 1_555
H21A C13A 1_555 1_555
C14A C14 1_555 1_555
C15A C14A 1_555 1_555
C16A C15A 1_555 1_555
C17A S2A 1_555 1_555
C18A Si2A 1_555 1_555
H22A C18A 1_555 1_555
C19A C18A 1_555 1_555
H23A C19A 1_555 1_555
H24A C19A 1_555 1_555
H25A C19A 1_555 1_555
C20A C18A 1_555 1_555
H26A C20A 1_555 1_555
H27A C20A 1_555 1_555
H28A C20A 1_555 1_555
C21A Si2A 1_555 1_555
H29A C21A 1_555 1_555
C22A C21A 1_555 1_555
H30A C22A 1_555 1_555
H31A C22A 1_555 1_555
H32A C22A 1_555 1_555
C23A C21A 1_555 1_555
H33A C23A 1_555 1_555
H34A C23A 1_555 1_555
H35A C23A 1_555 1_555
C24A Si2A 1_555 1_555
H36A C24A 1_555 1_555
C25A C24A 1_555 1_555
H37A C25A 1_555 1_555
H38A C25A 1_555 1_555
H39A C25A 1_555 1_555
C26A C24A 1_555 1_555
H40A C26A 1_555 1_555
H41A C26A 1_555 1_555
H42A C26A 1_555 1_555
N1 C4 1_555 1_555
N2 C17 1_555 1_555
N1A C4A 1_555 1_555
N2A C17A 1_555 1_555

#END
