
#######################################################################
#
#                 Cambridge Crystallographic Data Centre
#                                CCDC 
#
#######################################################################
#
# If this CIF has been generated from an entry in the Cambridge 
# Structural Database, then it will include bibliographic, chemical, 
# crystal, experimental, refinement or atomic coordinate data resulting 
# from the CCDC's data processing and validation procedures.
#
#######################################################################

data_YAMKOO
_chemical_formula_moiety         'C13 H19 Br1 N2 O3'
_chemical_name_systematic        
't-Butyl 3-bromo-5-oxa-4,11-diazatricyclo[6.2.1.0^2,6^]undec-3-ene-11-carboxylate'
_symmetry_cell_setting           orthorhombic
_symmetry_space_group_name_H-M   'P 21 21 21'
_symmetry_Int_Tables_number      19
_space_group_name_Hall           'P 2ac 2ab'
loop_
_symmetry_equiv_pos_site_id
_symmetry_equiv_pos_as_xyz
1 x,y,z
2 1/2+x,1/2-y,-z
3 -x,1/2+y,1/2-z
4 1/2-x,-y,1/2+z
_cell_length_a                   6.0781(19)
_cell_length_b                   12.324(4)
_cell_length_c                   19.719(6)
_cell_angle_alpha                90
_cell_angle_beta                 90
_cell_angle_gamma                90
_cell_volume                     1477.08
_exptl_crystal_colour            colorless
_exptl_crystal_description       block
_cell_formula_units_Z            4
loop_
_atom_site_label
_atom_site_type_symbol
_atom_site_fract_x
_atom_site_fract_y
_atom_site_fract_z
Br1 Br 0.54513(6) 0.11234(2) -0.083615(16)
O1 O 0.2975(4) -0.18072(16) -0.05293(10)
O2 O 0.3744(4) 0.22053(15) 0.11202(9)
O3 O 0.4475(4) 0.08751(13) 0.18813(8)
N1 N 0.4546(4) -0.10293(19) -0.07661(11)
N2 N 0.2908(4) 0.04408(16) 0.08965(11)
C1 C 0.3826(5) -0.0100(2) -0.05878(13)
C2 C 0.1678(5) -0.0086(2) -0.02303(12)
H1 H 0.0514 0.0032 -0.0566
C3 C 0.1625(5) -0.1274(2) -0.00153(13)
H2 H 0.0115 -0.1552 -0.0031
C4 C 0.2631(5) -0.1473(2) 0.06810(13)
H3 H 0.2110 -0.2163 0.0855
H4 H 0.4219 -0.1516 0.0638
C5 C 0.2052(5) -0.0583(2) 0.11796(14)
H5 H 0.2673 -0.0729 0.1629
C6 C 0.3687(4) 0.1269(2) 0.12956(13)
C7 C 0.1334(5) 0.0703(2) 0.03518(13)
H6 H 0.1497 0.1456 0.0201
C8 C -0.0908(6) 0.0516(3) 0.06863(15)
H7 H -0.1984 0.0271 0.0357
H8 H -0.1442 0.1174 0.0900
C9 C -0.0447(6) -0.0372(3) 0.12196(16)
H9 H -0.0858 -0.0125 0.1669
H10 H -0.1265 -0.1027 0.1116
C10 C 0.5117(6) 0.1596(2) 0.24394(13)
C11 C 0.7078(6) 0.2288(3) 0.22274(17)
H11 H 0.8191 0.1832 0.2032
H12 H 0.7666 0.2653 0.2618
H13 H 0.6613 0.2816 0.1899
C12 C 0.3217(6) 0.2276(3) 0.26591(17)
H14 H 0.1952 0.1823 0.2726
H15 H 0.2901 0.2807 0.2316
H16 H 0.3576 0.2637 0.3076
C13 C 0.5787(7) 0.0792(3) 0.29833(15)
H17 H 0.6971 0.0349 0.2818
H18 H 0.4554 0.0340 0.3096
H19 H 0.6260 0.1178 0.3380
loop_
_geom_bond_atom_site_label_1
_geom_bond_atom_site_label_2
_geom_bond_site_symmetry_1
_geom_bond_site_symmetry_2
Br1 C1 1_555 1_555
O1 N1 1_555 1_555
O2 C6 1_555 1_555
O3 C6 1_555 1_555
N1 C1 1_555 1_555
N2 C5 1_555 1_555
C1 C2 1_555 1_555
C2 H1 1_555 1_555
C3 O1 1_555 1_555
H2 C3 1_555 1_555
C4 C3 1_555 1_555
H3 C4 1_555 1_555
H4 C4 1_555 1_555
C5 C4 1_555 1_555
H5 C5 1_555 1_555
C6 N2 1_555 1_555
C7 N2 1_555 1_555
H6 C7 1_555 1_555
C8 C7 1_555 1_555
H7 C8 1_555 1_555
H8 C8 1_555 1_555
C9 C5 1_555 1_555
H9 C9 1_555 1_555
H10 C9 1_555 1_555
C10 O3 1_555 1_555
C11 C10 1_555 1_555
H11 C11 1_555 1_555
H12 C11 1_555 1_555
H13 C11 1_555 1_555
C12 C10 1_555 1_555
H14 C12 1_555 1_555
H15 C12 1_555 1_555
H16 C12 1_555 1_555
C13 C10 1_555 1_555
H17 C13 1_555 1_555
H18 C13 1_555 1_555
H19 C13 1_555 1_555
C2 C3 1_555 1_555
C2 C7 1_555 1_555
C8 C9 1_555 1_555

#END
