
#######################################################################
#
#                 Cambridge Crystallographic Data Centre
#                                CCDC 
#
#######################################################################
#
# If this CIF has been generated from an entry in the Cambridge 
# Structural Database, then it will include bibliographic, chemical, 
# crystal, experimental, refinement or atomic coordinate data resulting 
# from the CCDC's data processing and validation procedures.
#
#######################################################################

data_YAMPIM
_chemical_formula_moiety         'C8 H12 N2,2(C9 H10 O4)'
_chemical_name_systematic        
'Tetramethylpyrazine bis(endo-norbornene-cis-5,6-dicarboxylic acid)'
_chemical_properties_biological  
'tetramethylpyrazine exhibits antiplatelet activity'
_symmetry_cell_setting           triclinic
_symmetry_space_group_name_H-M   'P -1'
_symmetry_Int_Tables_number      2
_space_group_name_Hall           '-P 1'
loop_
_symmetry_equiv_pos_site_id
_symmetry_equiv_pos_as_xyz
1 x,y,z
2 -x,-y,-z
_cell_length_a                   6.106(2)
_cell_length_b                   9.293(3)
_cell_length_c                   11.580(4)
_cell_angle_alpha                101.875(8)
_cell_angle_beta                 97.890(6)
_cell_angle_gamma                98.590(8)
_cell_volume                     626.152
_exptl_crystal_colour            colorless
_exptl_crystal_description       block
_cell_formula_units_Z            1
_exptl_crystal_recrystallization_method ethanol
loop_
_atom_site_label
_atom_site_type_symbol
_atom_site_fract_x
_atom_site_fract_y
_atom_site_fract_z
O1 O 0.7089(7) 0.8995(5) 0.4539(4)
H1 H 0.8045 0.9480 0.5108
O2 O 0.9940(7) 0.9262(5) 0.3574(4)
O3 O 0.9186(7) 0.5820(5) 0.3271(4)
H2 H 1.0315 0.5501 0.3491
O4 O 1.0845(7) 0.5991(5) 0.1714(4)
C5 C 0.7984(9) 0.8772(5) 0.3581(5)
C6 C 0.6339(9) 0.7887(6) 0.2482(5)
H9 H 0.4921 0.7526 0.2725
C7 C 0.5854(10) 0.8841(6) 0.1529(5)
H10 H 0.4896 0.9580 0.1732
C8 C 0.4866(9) 0.7569(6) 0.0413(5)
H11 H 0.3588 0.6890 0.0529
H12 H 0.4494 0.7927 -0.0306
C9 C 0.8013(11) 0.9424(7) 0.1205(6)
H13 H 0.8732 1.0420 0.1412
C10 C 0.8775(10) 0.8277(7) 0.0559(6)
H14 H 1.0100 0.8324 0.0246
C11 C 0.7036(9) 0.6914(6) 0.0455(5)
H15 H 0.7036 0.6070 -0.0210
C12 C 0.7108(8) 0.6539(5) 0.1701(5)
H16 H 0.5919 0.5667 0.1603
C13 C 0.9272(9) 0.6120(5) 0.2222(5)
N1 N 1.3035(7) 0.5209(5) 0.4383(4)
C1 C 1.2874(11) 0.7434(7) 0.5853(7)
H3 H 1.3829 0.8360 0.5868
H4 H 1.2590 0.7423 0.6647
H5 H 1.1475 0.7340 0.5326
C2 C 1.4009(9) 0.6153(6) 0.5414(5)
C3 C 1.4009(9) 0.4064(5) 0.3933(5)
C4 C 1.2833(11) 0.3014(6) 0.2791(5)
H6 H 1.1758 0.3481 0.2387
H7 H 1.2071 0.2120 0.2960
H8 H 1.3912 0.2764 0.2288
N1A N 1.6965(7) 0.4791(5) 0.5617(4)
C1A C 1.7126(11) 0.2566(7) 0.4147(7)
H3A H 1.6171 0.1640 0.4132
H4A H 1.7410 0.2577 0.3353
H5A H 1.8525 0.2660 0.4674
C2A C 1.5991(9) 0.3847(6) 0.4586(5)
C3A C 1.5991(9) 0.5936(5) 0.6067(5)
C4A C 1.7167(11) 0.6986(6) 0.7209(5)
H6A H 1.8242 0.6519 0.7613
H7A H 1.7929 0.7880 0.7040
H8A H 1.6088 0.7236 0.7712
loop_
_geom_bond_atom_site_label_1
_geom_bond_atom_site_label_2
_geom_bond_site_symmetry_1
_geom_bond_site_symmetry_2
O1 H1 1_555 1_555
O2 C5 1_555 1_555
O3 H2 1_555 1_555
O4 C13 1_555 1_555
N1 C2 1_555 1_555
C1 H3 1_555 1_555
H4 C1 1_555 1_555
H5 C1 1_555 1_555
C2 C1 1_555 1_555
C3 N1 1_555 1_555
C4 C3 1_555 1_555
H6 C4 1_555 1_555
H7 C4 1_555 1_555
H8 C4 1_555 1_555
C5 O1 1_555 1_555
C6 C5 1_555 1_555
H9 C6 1_555 1_555
C7 C6 1_555 1_555
H10 C7 1_555 1_555
C8 C7 1_555 1_555
H11 C8 1_555 1_555
H12 C8 1_555 1_555
C9 C7 1_555 1_555
H13 C9 1_555 1_555
C10 C9 1_555 1_555
H14 C10 1_555 1_555
C11 C8 1_555 1_555
H15 C11 1_555 1_555
C12 C6 1_555 1_555
H16 C12 1_555 1_555
C13 O3 1_555 1_555
N1A C2A 1_555 1_555
C1A H3A 1_555 1_555
H4A C1A 1_555 1_555
H5A C1A 1_555 1_555
C2A C3 1_555 1_555
C3A C2 1_555 1_555
C4A C3A 1_555 1_555
H6A C4A 1_555 1_555
H7A C4A 1_555 1_555
H8A C4A 1_555 1_555
C10 C11 1_555 1_555
C11 C12 1_555 1_555
C12 C13 1_555 1_555
N1A C3A 1_555 1_555
C1A C2A 1_555 1_555

#END
