
#######################################################################
#
#                 Cambridge Crystallographic Data Centre
#                                CCDC 
#
#######################################################################
#
# If this CIF has been generated from an entry in the Cambridge 
# Structural Database, then it will include bibliographic, chemical, 
# crystal, experimental, refinement or atomic coordinate data resulting 
# from the CCDC's data processing and validation procedures.
#
#######################################################################

data_YAMSEM
_chemical_formula_moiety         'C11 H9 F6 N5 O1'
_chemical_name_systematic        
9-(Morpholin-4-yl)-2,6-bis(trifluoromethyl)-9H-purine
_symmetry_cell_setting           triclinic
_symmetry_space_group_name_H-M   'P -1'
_symmetry_Int_Tables_number      2
_space_group_name_Hall           '-P 1'
loop_
_symmetry_equiv_pos_site_id
_symmetry_equiv_pos_as_xyz
1 x,y,z
2 -x,-y,-z
_cell_length_a                   4.7303(2)
_cell_length_b                   10.2051(5)
_cell_length_c                   13.5194(7)
_cell_angle_alpha                83.035(3)
_cell_angle_beta                 84.092(2)
_cell_angle_gamma                80.900(3)
_cell_volume                     637.315
_exptl_crystal_colour            colorless
_exptl_crystal_description       block
_cell_formula_units_Z            2
loop_
_atom_site_label
_atom_site_type_symbol
_atom_site_fract_x
_atom_site_fract_y
_atom_site_fract_z
O1 O 0.48975(19) 0.54645(8) 0.88448(6)
N1 N 0.60490(19) 0.89327(9) 0.70033(7)
N2 N 0.6972(2) 1.06264(9) 0.58250(7)
N3 N 0.19303(19) 1.01014(9) 0.79611(7)
N4 N 0.07469(19) 1.24030(9) 0.72850(7)
N5 N 0.64881(19) 0.76138(9) 0.74854(7)
F1 F 0.22695(19) 1.32297(8) 0.48995(5)
F2 F 0.58007(17) 1.36870(9) 0.56161(7)
F3 F 0.14705(17) 1.45588(7) 0.60424(6)
F4 F -0.41823(15) 1.23246(8) 0.85246(6)
F5 F -0.07582(17) 1.22708(9) 0.94608(6)
F6 F -0.24771(18) 1.04749(7) 0.93272(6)
C1 C 0.4011(2) 1.00091(10) 0.72165(8)
C2 C 0.4632(2) 1.10501(10) 0.64736(8)
C3 C 0.7730(2) 0.93703(11) 0.61735(8)
H1 H 0.9308 0.8812 0.5876
C4 C 0.2818(2) 1.22584(10) 0.65434(8)
C5 C 0.0456(2) 1.13301(10) 0.79452(8)
C6 C 0.4174(2) 0.68792(11) 0.72930(8)
H2 H 0.4108 0.6869 0.6565
H3 H 0.2289 0.7317 0.7569
C7 C 0.4822(3) 0.54638(11) 0.77959(9)
H4 H 0.3327 0.4942 0.7668
H5 H 0.6698 0.5032 0.7508
C8 C 0.6627(2) 0.76107(11) 0.85773(8)
H6 H 0.4807 0.8080 0.8877
H7 H 0.8218 0.8077 0.8703
C9 C 0.7124(3) 0.61664(11) 0.90420(9)
H8 H 0.9000 0.5720 0.8766
H9 H 0.7184 0.6144 0.9774
C10 C 0.3089(2) 1.34525(11) 0.57755(8)
C11 C -0.1762(2) 1.15930(11) 0.88235(8)
loop_
_geom_bond_atom_site_label_1
_geom_bond_atom_site_label_2
_geom_bond_site_symmetry_1
_geom_bond_site_symmetry_2
O1 C7 1_555 1_555
N1 N5 1_555 1_555
N2 C2 1_555 1_555
N3 C1 1_555 1_555
N4 C4 1_555 1_555
N5 C6 1_555 1_555
F1 C10 1_555 1_555
F2 C10 1_555 1_555
F3 C10 1_555 1_555
F4 C11 1_555 1_555
F5 C11 1_555 1_555
F6 C11 1_555 1_555
C1 N1 1_555 1_555
C2 C1 1_555 1_555
C3 N1 1_555 1_555
H1 C3 1_555 1_555
C4 C2 1_555 1_555
C5 N3 1_555 1_555
C6 H2 1_555 1_555
H3 C6 1_555 1_555
C7 C6 1_555 1_555
H4 C7 1_555 1_555
H5 C7 1_555 1_555
C8 N5 1_555 1_555
H6 C8 1_555 1_555
H7 C8 1_555 1_555
C9 O1 1_555 1_555
H8 C9 1_555 1_555
H9 C9 1_555 1_555
C10 C4 1_555 1_555
C11 C5 1_555 1_555
N2 C3 1_555 1_555
N4 C5 1_555 1_555
C8 C9 1_555 1_555

#END
