
#######################################################################
#
#                 Cambridge Crystallographic Data Centre
#                                CCDC 
#
#######################################################################
#
# If this CIF has been generated from an entry in the Cambridge 
# Structural Database, then it will include bibliographic, chemical, 
# crystal, experimental, refinement or atomic coordinate data resulting 
# from the CCDC's data processing and validation procedures.
#
#######################################################################

data_YAMVIR
_chemical_formula_moiety         'C35 H38 N4 O6'
_chemical_name_systematic        
(10-^13^C)-2,18-Propano-8,12-bis(2-methoxycarbonylethyl)-7,13,17-trimethyl-3-vinylbilin-1,19(21H,24H)-dione
_symmetry_cell_setting           monoclinic
_symmetry_space_group_name_H-M   'P 21/c'
_symmetry_Int_Tables_number      14
_space_group_name_Hall           '-P 2ybc'
loop_
_symmetry_equiv_pos_site_id
_symmetry_equiv_pos_as_xyz
1 x,y,z
2 -x,1/2+y,1/2-z
3 -x,-y,-z
4 x,1/2-y,1/2+z
_cell_length_a                   15.277(9)
_cell_length_b                   20.445(11)
_cell_length_c                   10.233(4)
_cell_angle_alpha                90
_cell_angle_beta                 100.58(4)
_cell_angle_gamma                90
_cell_volume                     3141.82
_exptl_crystal_colour            blue
_chemical_melting_point          227-229deg.C
_cell_formula_units_Z            4
loop_
_atom_site_label
_atom_site_type_symbol
_atom_site_fract_x
_atom_site_fract_y
_atom_site_fract_z
N1 N 0.0090(3) 0.5664(2) 0.3424(4)
N2 N -0.1589(3) 0.5436(2) 0.1920(4)
N3 N -0.1294(3) 0.6412(2) 0.0368(4)
N4 N 0.0422(3) 0.5808(2) 0.0381(4)
C1 C 0.0926(4) 0.5940(3) 0.3868(6)
C2 C 0.1560(5) 0.5384(4) 0.4066(6)
C3 C 0.1080(5) 0.4824(4) 0.3849(6)
C4 C 0.1338(5) 0.4057(6) 0.3813(10)
C5 C 0.1997(3) 0.3898(2) 0.4619(4)
C6 C 0.0118(3) 0.4991(2) 0.3403(4)
C7 C -0.0592(3) 0.4604(2) 0.3004(4)
C8 C -0.1457(4) 0.4828(3) 0.2389(5)
C9 C -0.2277(4) 0.4457(3) 0.2096(6)
C10 C -0.2362(5) 0.3745(3) 0.2404(7)
C11 C -0.2905(4) 0.4874(3) 0.1466(5)
C12 C -0.3863(4) 0.4719(3) 0.0985(6)
C13 C -0.4422(4) 0.4711(3) 0.2087(6)
C14 C -0.4524(4) 0.5382(3) 0.2630(7)
C15 C -0.4633(7) 0.5980(5) 0.4537(9)
C16 C -0.2450(4) 0.5490(3) 0.1316(5)
C17 C -0.2761(4) 0.6012(3) 0.0502(5)
C18 C -0.2193(4) 0.6477(3) 0.0058(5)
C19 C -0.2374(4) 0.7035(3) -0.0778(5)
C20 C -0.3289(4) 0.7271(3) -0.1379(6)
C21 C -0.3636(5) 0.6977(5) -0.2727(7)
C22 C -0.4587(6) 0.7135(5) -0.3196(8)
C23 C -0.5585(6) 0.7748(5) -0.4721(10)
C24 C -0.1556(4) 0.7294(3) -0.0928(6)
C25 C -0.1404(5) 0.7857(3) -0.1810(7)
C26 C -0.0887(4) 0.6903(3) -0.0214(5)
C27 C 0.0057(4) 0.6964(3) -0.0006(6)
C28 C 0.0652(4) 0.6473(3) 0.0400(6)
C29 C 0.1582(4) 0.6506(3) 0.0971(6)
C30 C 0.2071(5) 0.7148(3) 0.1222(8)
C31 C 0.1895(4) 0.5898(3) 0.1321(6)
C32 C 0.2797(4) 0.5692(4) 0.1966(7)
C33 C 0.2954(7) 0.5237(7) 0.3119(12)
C34 C 0.2547(5) 0.5464(5) 0.4331(8)
C35 C 0.1149(4) 0.5441(3) 0.0871(5)
O1 O 0.1078(3) 0.6519(2) 0.4033(5)
O2 O -0.4610(4) 0.5879(3) 0.1977(6)
O3 O -0.4528(3) 0.5361(3) 0.3916(5)
O4 O -0.5165(13) 0.6884(11) -0.2811(20)
O5 O -0.4700(3) 0.7536(3) -0.4223(6)
O6 O 0.1154(3) 0.4842(2) 0.0924(4)
H1 H -0.0413 0.5898 0.3179
H2 H -0.1179 0.5757 0.2004
H3 H -0.0121 0.5636 -0.0043
H4 H 0.0989 0.3765 0.3190
H5 H 0.2394 0.4140 0.5281
H6 H 0.2091 0.3439 0.4506
H7 H -0.0521 0.4142 0.3163
H8 H -0.2968 0.3608 0.2124
H9 H -0.1983 0.3492 0.1946
H10 H -0.2188 0.3679 0.3345
H11 H -0.3903 0.4301 0.0548
H12 H -0.4110 0.5041 0.0340
H13 H -0.4130 0.4436 0.2794
H14 H -0.4999 0.4530 0.1754
H15 H -0.4619 0.5917 0.5470
H16 H -0.4159 0.6268 0.4413
H17 H -0.5194 0.6169 0.4137
H18 H -0.3403 0.6109 0.0252
H19 H -0.3272 0.7737 -0.1483
H20 H -0.3699 0.7171 -0.0799
H21 H -0.3578 0.6511 -0.2646
H22 H -0.3278 0.7126 -0.3348
H23 H -0.5602 0.8039 -0.5461
H24 H -0.5941 0.7368 -0.5001
H25 H -0.5816 0.7967 -0.4026
H26 H -0.1961 0.8050 -0.2217
H27 H -0.1047 0.8178 -0.1271
H28 H -0.1095 0.7706 -0.2489
H29 H 0.0302 0.7384 -0.0156
H30 H 0.2684 0.7066 0.1602
H31 H 0.2036 0.7376 0.0395
H32 H 0.1804 0.7409 0.1823
H33 H 0.3289 0.5780 0.1529
C36? C 0.2899(14) 0.5825(22) 0.3497(25)
O7? O -0.5233(26) 0.7195(69) -0.2550(56)
loop_
_geom_bond_atom_site_label_1
_geom_bond_atom_site_label_2
_geom_bond_site_symmetry_1
_geom_bond_site_symmetry_2
N1 C1 1_555 1_555
N2 C8 1_555 1_555
N3 C18 1_555 1_555
N4 C28 1_555 1_555
C1 C2 1_555 1_555
C2 C3 1_555 1_555
C3 C4 1_555 1_555
C4 C5 1_555 1_555
C5 H5 1_555 1_555
C6 N1 1_555 1_555
C7 C6 1_555 1_555
C8 C7 1_555 1_555
C9 C8 1_555 1_555
C10 C9 1_555 1_555
C11 C9 1_555 1_555
C12 C11 1_555 1_555
C13 C12 1_555 1_555
C14 C13 1_555 1_555
C15 O3 1_555 1_555
C16 N2 1_555 1_555
C17 C16 1_555 1_555
C18 C17 1_555 1_555
C19 C18 1_555 1_555
C20 C19 1_555 1_555
C21 C20 1_555 1_555
C22 C21 1_555 1_555
C23 O5 1_555 1_555
C24 C19 1_555 1_555
C25 C24 1_555 1_555
C26 N3 1_555 1_555
C27 C26 1_555 1_555
C28 C27 1_555 1_555
C29 C28 1_555 1_555
C30 C29 1_555 1_555
C31 C29 1_555 1_555
C32 C31 1_555 1_555
C33 C32 1_555 1_555
C34 C2 1_555 1_555
C35 N4 1_555 1_555
O1 C1 1_555 1_555
O2 C14 1_555 1_555
O3 C14 1_555 1_555
O4 C22 1_555 1_555
O5 C22 1_555 1_555
O6 C35 1_555 1_555
H1 N1 1_555 1_555
H2 N2 1_555 1_555
H3 N4 1_555 1_555
H4 C4 1_555 1_555
H6 C5 1_555 1_555
H7 C7 1_555 1_555
H8 C10 1_555 1_555
H9 C10 1_555 1_555
H10 C10 1_555 1_555
H11 C12 1_555 1_555
H12 C12 1_555 1_555
H13 C13 1_555 1_555
H14 C13 1_555 1_555
H15 C15 1_555 1_555
H16 C15 1_555 1_555
H17 C15 1_555 1_555
H18 C17 1_555 1_555
H19 C20 1_555 1_555
H20 C20 1_555 1_555
H21 C21 1_555 1_555
H22 C21 1_555 1_555
H23 C23 1_555 1_555
H24 C23 1_555 1_555
H25 C23 1_555 1_555
H26 C25 1_555 1_555
H27 C25 1_555 1_555
H28 C25 1_555 1_555
H29 C27 1_555 1_555
H30 C30 1_555 1_555
H31 C30 1_555 1_555
H32 C30 1_555 1_555
H33 C32 1_555 1_555
C3 C6 1_555 1_555
C11 C16 1_555 1_555
C24 C26 1_555 1_555
C31 C35 1_555 1_555
C33 C34 1_555 1_555

#END
