
#######################################################################
#
#                 Cambridge Crystallographic Data Centre
#                                CCDC 
#
#######################################################################
#
# If this CIF has been generated from an entry in the Cambridge 
# Structural Database, then it will include bibliographic, chemical, 
# crystal, experimental, refinement or atomic coordinate data resulting 
# from the CCDC's data processing and validation procedures.
#
#######################################################################

data_YAMWOB
_chemical_formula_moiety         'C24 H20 N5 O4 1+,Br1 1-'
_chemical_name_systematic        
'1-(4-nitrobenzyl)-2-((1-(4-nitrobenzyl)pyridin-2(1H)-ylidene)amino)pyridinium bromide'
_symmetry_cell_setting           monoclinic
_symmetry_space_group_name_H-M   'P 21/n'
_symmetry_Int_Tables_number      14
_space_group_name_Hall           '-P 2yn'
loop_
_symmetry_equiv_pos_site_id
_symmetry_equiv_pos_as_xyz
1 x,y,z
2 1/2-x,1/2+y,1/2-z
3 -x,-y,-z
4 1/2+x,1/2-y,1/2+z
_cell_length_a                   7.7940(16)
_cell_length_b                   34.938(7)
_cell_length_c                   8.9040(18)
_cell_angle_alpha                90
_cell_angle_beta                 110.16(3)
_cell_angle_gamma                90
_cell_volume                     2276.07
_exptl_crystal_colour            colorless
_exptl_crystal_description       rod
_cell_formula_units_Z            4
loop_
_atom_site_label
_atom_site_type_symbol
_atom_site_fract_x
_atom_site_fract_y
_atom_site_fract_z
Br1 Br 0.64214(7) 0.039629(14) 0.33699(6)
C1 C -0.1536(6) 0.03792(13) 0.0333(6)
H1 H -0.1836 0.0360 0.1278
C2 C -0.2460(6) 0.01728(13) -0.0969(6)
H2 H -0.3394 0.0001 -0.0938
C3 C -0.2048(6) 0.02106(14) -0.2356(6)
H3 H -0.2702 0.0064 -0.3273
C4 C -0.0704(6) 0.04583(13) -0.2420(5)
H4 H -0.0464 0.0489 -0.3389
C5 C 0.0313(6) 0.06653(12) -0.1047(5)
C6 C 0.2615(6) 0.09393(13) -0.1865(5)
C7 C 0.3042(6) 0.06370(13) -0.2739(5)
H5 H 0.2496 0.0393 -0.2761
C8 C 0.4215(6) 0.06904(14) -0.3541(5)
H6 H 0.4469 0.0486 -0.4138
C9 C 0.5056(6) 0.10479(15) -0.3490(5)
H7 H 0.5901 0.1086 -0.4032
C10 C 0.4653(6) 0.13352(14) -0.2668(5)
H8 H 0.5215 0.1578 -0.2640
C11 C 0.0892(6) 0.08237(13) 0.1787(5)
H9 H 0.2214 0.0799 0.1966
H10 H 0.0660 0.0697 0.2693
C12 C 0.0429(6) 0.12433(13) 0.1793(5)
C13 C -0.0688(6) 0.14418(13) 0.0478(5)
H11 H -0.1254 0.1312 -0.0506
C14 C -0.0989(6) 0.18323(13) 0.0589(6)
H12 H -0.1751 0.1970 -0.0314
C15 C -0.0167(6) 0.20133(13) 0.2022(6)
C16 C 0.0923(7) 0.18244(15) 0.3353(6)
H13 H 0.1470 0.1955 0.4340
C17 C 0.1200(6) 0.14379(14) 0.3214(6)
H14 H 0.1947 0.1301 0.4128
C18 C 0.3050(6) 0.16189(12) -0.1031(5)
H15 H 0.1774 0.1599 -0.1056
H16 H 0.3145 0.1855 -0.1614
C19 C 0.4301(6) 0.16557(13) 0.0688(5)
C20 C 0.4389(7) 0.20057(13) 0.1431(6)
H17 H 0.3668 0.2211 0.0843
C21 C 0.5487(7) 0.20672(14) 0.2997(6)
H18 H 0.5525 0.2309 0.3499
C22 C 0.6532(7) 0.17618(15) 0.3804(5)
C23 C 0.6486(6) 0.14076(14) 0.3111(5)
H19 H 0.7208 0.1203 0.3704
C24 C 0.5371(6) 0.13552(13) 0.1537(5)
H20 H 0.5335 0.1114 0.1036
N1 N -0.0151(5) 0.06183(10) 0.0287(4)
N2 N 0.1626(5) 0.09275(10) -0.0904(4)
N3 N 0.3453(5) 0.12865(10) -0.1872(4)
N4 N -0.0474(7) 0.24260(13) 0.2136(7)
N5 N 0.7774(7) 0.18141(15) 0.5491(5)
O1 O -0.1207(7) 0.26079(11) 0.0935(6)
O2 O 0.0026(7) 0.25713(12) 0.3455(6)
O3 O 0.7760(7) 0.21219(13) 0.6128(5)
O4 O 0.8714(6) 0.15459(13) 0.6167(5)
loop_
_geom_bond_atom_site_label_1
_geom_bond_atom_site_label_2
_geom_bond_site_symmetry_1
_geom_bond_site_symmetry_2
C1 H1 1_555 1_555
C2 C1 1_555 1_555
H2 C2 1_555 1_555
C3 C2 1_555 1_555
H3 C3 1_555 1_555
C4 C3 1_555 1_555
H4 C4 1_555 1_555
C5 C4 1_555 1_555
C6 C7 1_555 1_555
C7 H5 1_555 1_555
C8 C7 1_555 1_555
H6 C8 1_555 1_555
C9 C8 1_555 1_555
H7 C9 1_555 1_555
C10 C9 1_555 1_555
H8 C10 1_555 1_555
C11 H9 1_555 1_555
H10 C11 1_555 1_555
C12 C11 1_555 1_555
C13 C12 1_555 1_555
H11 C13 1_555 1_555
C14 C13 1_555 1_555
H12 C14 1_555 1_555
C15 C14 1_555 1_555
C16 C15 1_555 1_555
H13 C16 1_555 1_555
C17 C12 1_555 1_555
H14 C17 1_555 1_555
C18 H15 1_555 1_555
H16 C18 1_555 1_555
C19 C18 1_555 1_555
C20 C19 1_555 1_555
H17 C20 1_555 1_555
C21 C20 1_555 1_555
H18 C21 1_555 1_555
C22 C21 1_555 1_555
C23 C22 1_555 1_555
H19 C23 1_555 1_555
C24 C19 1_555 1_555
H20 C24 1_555 1_555
N1 C1 1_555 1_555
N2 C5 1_555 1_555
N3 C6 1_555 1_555
N4 C15 1_555 1_555
N5 C22 1_555 1_555
O1 N4 1_555 1_555
O2 N4 1_555 1_555
O3 N5 1_555 1_555
O4 N5 1_555 1_555
C5 N1 1_555 1_555
C6 N2 1_555 1_555
C10 N3 1_555 1_555
C11 N1 1_555 1_555
C16 C17 1_555 1_555
C18 N3 1_555 1_555
C23 C24 1_555 1_555

#END
