
#######################################################################
#
#                 Cambridge Crystallographic Data Centre
#                                CCDC 
#
#######################################################################
#
# If this CIF has been generated from an entry in the Cambridge 
# Structural Database, then it will include bibliographic, chemical, 
# crystal, experimental, refinement or atomic coordinate data resulting 
# from the CCDC's data processing and validation procedures.
#
#######################################################################

data_YAMWUH
_chemical_formula_moiety         'C24 H20 N5 O4 1+,I1 1-'
_chemical_name_systematic        
'1-(4-nitrobenzyl)-2-((1-(4-nitrobenzyl)pyridin-2(1H)-ylidene)amino)pyridinium iodide'
_symmetry_cell_setting           orthorhombic
_symmetry_space_group_name_H-M   'P b c a'
_symmetry_Int_Tables_number      61
_space_group_name_Hall           '-P 2ac 2ab'
loop_
_symmetry_equiv_pos_site_id
_symmetry_equiv_pos_as_xyz
1 x,y,z
2 1/2-x,-y,1/2+z
3 -x,1/2+y,1/2-z
4 1/2+x,1/2-y,-z
5 -x,-y,-z
6 1/2+x,y,1/2-z
7 x,1/2-y,1/2+z
8 1/2-x,1/2+y,z
_cell_length_a                   11.417(2)
_cell_length_b                   13.586(3)
_cell_length_c                   29.510(6)
_cell_angle_alpha                90
_cell_angle_beta                 90
_cell_angle_gamma                90
_cell_volume                     4577.34
_exptl_crystal_colour            colorless
_exptl_crystal_description       plate
_cell_formula_units_Z            8
loop_
_atom_site_label
_atom_site_type_symbol
_atom_site_fract_x
_atom_site_fract_y
_atom_site_fract_z
I1 I 0.542268(19) 0.165429(16) 0.455965(8)
N1 N 0.5717(2) 0.13421(19) 0.59836(9)
N2 N 0.5487(2) 0.29635(18) 0.57880(9)
N3 N 0.5106(2) 0.45850(18) 0.56446(8)
N4 N 0.1073(2) 0.1704(2) 0.72358(10)
N5 N 0.3508(3) 0.3984(2) 0.77503(10)
O1 O 0.1356(2) 0.1532(2) 0.76262(9)
O2 O 0.0069(2) 0.1905(2) 0.71256(10)
O3 O 0.4380(3) 0.4091(2) 0.79870(9)
O4 O 0.2536(3) 0.3804(2) 0.79056(9)
C1 C 0.6275(3) 0.0581(3) 0.61894(11)
H1 H 0.5919 -0.0050 0.6194
C2 C 0.7328(3) 0.0709(3) 0.63875(13)
H2 H 0.7708 0.0175 0.6535
C3 C 0.7852(3) 0.1635(3) 0.63736(12)
H3 H 0.8588 0.1736 0.6517
C4 C 0.7313(3) 0.2399(3) 0.61554(11)
H4 H 0.7693 0.3020 0.6138
C5 C 0.6200(3) 0.2276(2) 0.59567(10)
C6 C 0.5895(3) 0.3810(2) 0.56251(10)
C7 C 0.6975(3) 0.4007(3) 0.54116(10)
H5 H 0.7524 0.3488 0.5374
C8 C 0.7251(3) 0.4929(3) 0.52580(11)
H6 H 0.7990 0.5047 0.5120
C9 C 0.6446(3) 0.5696(3) 0.53039(11)
H7 H 0.6640 0.6343 0.5207
C10 C 0.5382(3) 0.5501(2) 0.54890(10)
H8 H 0.4819 0.6014 0.5510
C11 C 0.4496(3) 0.1190(2) 0.58372(11)
H9 H 0.4394 0.0499 0.5739
H10 H 0.4326 0.1621 0.5575
C12 C 0.3642(3) 0.1415(2) 0.62162(10)
C13 C 0.3949(3) 0.1336(2) 0.66718(11)
H11 H 0.4740 0.1207 0.6753
C14 C 0.3110(3) 0.1446(2) 0.70073(11)
H12 H 0.3317 0.1391 0.7318
C15 C 0.1970(3) 0.1637(2) 0.68814(10)
C16 C 0.1651(3) 0.1773(2) 0.64325(11)
H13 H 0.0869 0.1937 0.6353
C17 C 0.2498(3) 0.1664(2) 0.61046(11)
H14 H 0.2296 0.1760 0.5796
C18 C 0.3921(3) 0.4391(2) 0.58260(10)
H15 H 0.3616 0.3781 0.5685
H16 H 0.3399 0.4938 0.5734
C19 C 0.3857(3) 0.4283(2) 0.63332(10)
C20 C 0.4828(3) 0.4354(3) 0.66135(11)
H17 H 0.5578 0.4470 0.6485
C21 C 0.4719(3) 0.4260(3) 0.70779(11)
H18 H 0.5385 0.4312 0.7270
C22 C 0.3623(3) 0.4087(2) 0.72560(10)
C23 C 0.2639(3) 0.4008(2) 0.69869(12)
H19 H 0.1891 0.3889 0.7117
C24 C 0.2765(3) 0.4106(2) 0.65244(11)
H20 H 0.2097 0.4052 0.6334
loop_
_geom_bond_atom_site_label_1
_geom_bond_atom_site_label_2
_geom_bond_site_symmetry_1
_geom_bond_site_symmetry_2
N1 C1 1_555 1_555
N2 C5 1_555 1_555
N3 C6 1_555 1_555
N4 O1 1_555 1_555
N5 O3 1_555 1_555
O2 N4 1_555 1_555
O4 N5 1_555 1_555
C1 H1 1_555 1_555
C2 C1 1_555 1_555
H2 C2 1_555 1_555
C3 C2 1_555 1_555
H3 C3 1_555 1_555
C4 C3 1_555 1_555
H4 C4 1_555 1_555
C5 N1 1_555 1_555
C6 N2 1_555 1_555
C7 C6 1_555 1_555
H5 C7 1_555 1_555
C8 C7 1_555 1_555
H6 C8 1_555 1_555
C9 C8 1_555 1_555
H7 C9 1_555 1_555
C10 N3 1_555 1_555
H8 C10 1_555 1_555
C11 N1 1_555 1_555
H9 C11 1_555 1_555
H10 C11 1_555 1_555
C12 C11 1_555 1_555
C13 C12 1_555 1_555
H11 C13 1_555 1_555
C14 C13 1_555 1_555
H12 C14 1_555 1_555
C15 N4 1_555 1_555
C16 C15 1_555 1_555
H13 C16 1_555 1_555
C17 C12 1_555 1_555
H14 C17 1_555 1_555
C18 N3 1_555 1_555
H15 C18 1_555 1_555
H16 C18 1_555 1_555
C19 C18 1_555 1_555
C20 C19 1_555 1_555
H17 C20 1_555 1_555
C21 C20 1_555 1_555
H18 C21 1_555 1_555
C22 N5 1_555 1_555
C23 C22 1_555 1_555
H19 C23 1_555 1_555
C24 C19 1_555 1_555
H20 C24 1_555 1_555
C4 C5 1_555 1_555
C9 C10 1_555 1_555
C14 C15 1_555 1_555
C16 C17 1_555 1_555
C21 C22 1_555 1_555
C23 C24 1_555 1_555

#END
