
#######################################################################
#
#                 Cambridge Crystallographic Data Centre
#                                CCDC 
#
#######################################################################
#
# If this CIF has been generated from an entry in the Cambridge 
# Structural Database, then it will include bibliographic, chemical, 
# crystal, experimental, refinement or atomic coordinate data resulting 
# from the CCDC's data processing and validation procedures.
#
#######################################################################

data_YAMXIW
_chemical_formula_moiety         'C24 H29 B1 F2 N4'
_chemical_name_systematic        
(1-{4-[(3,5-dimethyl-1H-pyrrol-2-yl)(3,5-dimethyl-2H-pyrrol-2-ylidene)methyl]phenyl}-4-methylpiperazinato)(difluoro)borane
_symmetry_cell_setting           monoclinic
_symmetry_space_group_name_H-M   'P 21/n'
_symmetry_Int_Tables_number      14
_space_group_name_Hall           '-P 2yn'
loop_
_symmetry_equiv_pos_site_id
_symmetry_equiv_pos_as_xyz
1 x,y,z
2 1/2-x,1/2+y,1/2-z
3 -x,-y,-z
4 1/2+x,1/2-y,1/2+z
_cell_length_a                   10.753(3)
_cell_length_b                   13.566(3)
_cell_length_c                   14.676(4)
_cell_angle_alpha                90
_cell_angle_beta                 94.851(5)
_cell_angle_gamma                90
_cell_volume                     2133.2
_exptl_crystal_colour            'orange red'
_exptl_crystal_description       block
_cell_formula_units_Z            4
loop_
_atom_site_label
_atom_site_type_symbol
_atom_site_fract_x
_atom_site_fract_y
_atom_site_fract_z
B1 B 0.2190(3) 0.3443(2) 0.1047(2)
C1 C 0.1636(2) 0.5435(2) 0.01047(18)
H1 H 0.1467 0.4973 -0.0386
H2 H 0.1666 0.6090 -0.0141
H3 H 0.0987 0.5397 0.0514
C2 C 0.2855(2) 0.5194(2) 0.06093(17)
C3 C 0.3896(2) 0.5806(2) 0.07601(18)
H4 H 0.3967 0.6441 0.0532
C4 C 0.4807(2) 0.5310(2) 0.13067(17)
C5 C 0.4300(2) 0.4365(2) 0.14836(17)
C6 C 0.6053(2) 0.5733(2) 0.16312(19)
H5 H 0.6061 0.6425 0.1497
H6 H 0.6693 0.5408 0.1326
H7 H 0.6202 0.5637 0.2279
C7 C 0.4763(2) 0.3564(2) 0.20071(16)
C8 C 0.4056(2) 0.2705(2) 0.20954(16)
C9 C 0.4336(2) 0.1779(2) 0.25283(16)
C10 C 0.3288(2) 0.1200(2) 0.23660(17)
H8 H 0.3199 0.0558 0.2571
C11 C 0.2382(2) 0.1738(2) 0.18432(17)
C12 C 0.1100(2) 0.1406(2) 0.14969(17)
H9 H 0.0491 0.1820 0.1748
H10 H 0.0978 0.0736 0.1678
H11 H 0.1010 0.1451 0.0842
C13 C 0.5531(2) 0.1439(2) 0.30343(18)
H12 H 0.5588 0.1701 0.3644
H13 H 0.6226 0.1669 0.2723
H14 H 0.5542 0.0732 0.3059
C14 C 0.6024(2) 0.36260(19) 0.25097(17)
C15 C 0.7102(2) 0.3543(2) 0.20615(17)
H15 H 0.7034 0.3462 0.1430
C16 C 0.8273(2) 0.35760(19) 0.25232(17)
H16 H 0.8976 0.3517 0.2199
C17 C 0.8417(2) 0.36977(18) 0.34790(16)
C18 C 0.7322(2) 0.3787(2) 0.39206(18)
H17 H 0.7380 0.3874 0.4551
C19 C 0.6161(2) 0.3751(2) 0.34531(17)
H18 H 0.5455 0.3810 0.3773
C20 C 1.0658(2) 0.3487(2) 0.34656(18)
H19 H 1.0620 0.3854 0.2897
H20 H 1.0602 0.2791 0.3315
C21 C 1.1898(2) 0.3686(2) 0.40018(19)
H21 H 1.2568 0.3429 0.3667
H22 H 1.2017 0.4392 0.4069
C22 C 1.0971(2) 0.3653(2) 0.53930(18)
H23 H 1.1083 0.4362 0.5436
H24 H 1.1022 0.3389 0.6009
C23 C 0.9702(2) 0.3430(2) 0.49211(17)
H25 H 0.9552 0.2726 0.4942
H26 H 0.9068 0.3756 0.5245
C24 C 1.3184(2) 0.3392(2) 0.5387(2)
H27 H 1.3350 0.4086 0.5432
H28 H 1.3811 0.3080 0.5058
H29 H 1.3198 0.3115 0.5990
F1 F 0.19294(14) 0.30713(11) 0.01673(9)
F2 F 0.10665(12) 0.37384(12) 0.13745(10)
N1 N 0.30899(18) 0.43205(16) 0.10353(13)
N2 N 0.28328(18) 0.26420(16) 0.16706(13)
N3 N 0.95977(18) 0.37594(16) 0.39647(13)
N4 N 1.19567(19) 0.32315(17) 0.49021(15)
loop_
_geom_bond_atom_site_label_1
_geom_bond_atom_site_label_2
_geom_bond_site_symmetry_1
_geom_bond_site_symmetry_2
B1 F1 1_555 1_555
C1 H1 1_555 1_555
H2 C1 1_555 1_555
H3 C1 1_555 1_555
C2 C1 1_555 1_555
C3 C2 1_555 1_555
H4 C3 1_555 1_555
C4 C3 1_555 1_555
C5 C4 1_555 1_555
C6 C4 1_555 1_555
H5 C6 1_555 1_555
H6 C6 1_555 1_555
H7 C6 1_555 1_555
C7 C5 1_555 1_555
C8 C7 1_555 1_555
C9 C8 1_555 1_555
C10 C9 1_555 1_555
H8 C10 1_555 1_555
C11 C10 1_555 1_555
C12 C11 1_555 1_555
H9 C12 1_555 1_555
H10 C12 1_555 1_555
H11 C12 1_555 1_555
C13 C9 1_555 1_555
H12 C13 1_555 1_555
H13 C13 1_555 1_555
H14 C13 1_555 1_555
C14 C7 1_555 1_555
C15 C14 1_555 1_555
H15 C15 1_555 1_555
C16 C15 1_555 1_555
H16 C16 1_555 1_555
C17 C16 1_555 1_555
C18 C17 1_555 1_555
H17 C18 1_555 1_555
C19 C14 1_555 1_555
H18 C19 1_555 1_555
C20 H19 1_555 1_555
H20 C20 1_555 1_555
C21 C20 1_555 1_555
H21 C21 1_555 1_555
H22 C21 1_555 1_555
C22 H23 1_555 1_555
H24 C22 1_555 1_555
C23 C22 1_555 1_555
H25 C23 1_555 1_555
H26 C23 1_555 1_555
C24 H27 1_555 1_555
H28 C24 1_555 1_555
H29 C24 1_555 1_555
F2 B1 1_555 1_555
N1 B1 1_555 1_555
N2 B1 1_555 1_555
N3 C17 1_555 1_555
N4 C21 1_555 1_555
C2 N1 1_555 1_555
C5 N1 1_555 1_555
C8 N2 1_555 1_555
C11 N2 1_555 1_555
C18 C19 1_555 1_555
C20 N3 1_555 1_555
C22 N4 1_555 1_555
C23 N3 1_555 1_555
C24 N4 1_555 1_555

#END
