
#######################################################################
#
#                 Cambridge Crystallographic Data Centre
#                                CCDC 
#
#######################################################################
#
# If this CIF has been generated from an entry in the Cambridge 
# Structural Database, then it will include bibliographic, chemical, 
# crystal, experimental, refinement or atomic coordinate data resulting 
# from the CCDC's data processing and validation procedures.
#
#######################################################################

data_YANJIJ
_chemical_name_common            
'(S)-2-[1-(3-ethoxy-4-methoxyphenyl)-2-methylsulfonylethyl]-4-acetylaminoisoindoline-1,3-dione ethanol solvate hemihydrate'
_chemical_formula_moiety         'C22 H24 N2 O7 S1,0.5(C2 H6 O1),0.5(H2 O1)'
_chemical_name_systematic        
'(S)-N-{2-[1-(3-ethoxy-4-methoxyphenyl)-2-(methylsulfonyl)ethyl]-1,3-dioxo-2,3-dihydro-1H-isoindol-4-yl}acetamide ethanol solvate hemihydrate'
_symmetry_cell_setting           tetragonal
_symmetry_space_group_name_H-M   'P 41 21 2'
_symmetry_Int_Tables_number      92
_space_group_name_Hall           'P 4abw 2nw'
loop_
_symmetry_equiv_pos_site_id
_symmetry_equiv_pos_as_xyz
1 x,y,z
2 1/2-y,1/2+x,1/4+z
3 -x,-y,1/2+z
4 1/2+y,1/2-x,3/4+z
5 1/2+x,1/2-y,3/4-z
6 y,x,-z
7 1/2-x,1/2+y,1/4-z
8 -y,-x,1/2-z
_cell_length_a                   12.9905(18)
_cell_length_b                   12.9905(18)
_cell_length_c                   29.942(6)
_cell_angle_alpha                90
_cell_angle_beta                 90
_cell_angle_gamma                90
_cell_volume                     5052.81
_exptl_crystal_colour            colorless
_exptl_crystal_description       block
_cell_formula_units_Z            8
loop_
_atom_site_label
_atom_site_type_symbol
_atom_site_fract_x
_atom_site_fract_y
_atom_site_fract_z
O8 O 0.6400(13) 0.5606(12) 0.4753(9)
H25 H 0.6367 0.6301 0.4706
H26 H 0.7011 0.5451 0.4635
S1 S 0.89768(15) 0.65667(14) 0.46183(6)
O1 O 0.9782(4) 0.7422(4) 0.33313(15)
O2 O 1.2492(4) 1.0317(4) 0.51740(15)
O3 O 0.8948(4) 0.9600(4) 0.44709(16)
O4 O 0.8059(4) 0.7045(4) 0.44502(17)
O5 O 0.9386(4) 0.5729(4) 0.43657(18)
O6 O 0.6990(5) 0.8281(4) 0.21258(18)
O7 O 1.3846(4) 1.0504(4) 0.45344(16)
N1 N 0.9578(4) 0.8403(4) 0.39684(16)
N2 N 0.8221(4) 0.8054(5) 0.26522(17)
H1 H 0.8764 0.7699 0.2710
C1 C 0.9329(5) 0.8089(5) 0.3537(2)
C2 C 1.0379(5) 0.7928(5) 0.4242(2)
H2 H 1.0637 0.7333 0.4075
C3 C 0.8912(5) 0.9175(5) 0.4107(2)
C4 C 0.8173(5) 0.9376(5) 0.3739(2)
C5 C 1.1290(5) 0.8638(5) 0.4319(2)
C6 C 1.1440(5) 0.9163(5) 0.4720(2)
H3 H 1.0952 0.9100 0.4945
C7 C 0.8437(5) 0.8713(5) 0.3392(2)
C8 C 0.7059(5) 0.9390(5) 0.2964(3)
H4 H 0.6670 0.9408 0.2703
C9 C 0.7893(5) 0.8709(5) 0.2996(2)
C10 C 0.9941(5) 0.7515(5) 0.4684(2)
H5 H 0.9657 0.8086 0.4853
H6 H 1.0501 0.7225 0.4858
C11 C 1.2874(5) 0.9370(6) 0.4048(2)
H7 H 1.3353 0.9435 0.3819
C12 C 0.7810(7) 0.7888(6) 0.2243(2)
C13 C 1.3020(5) 0.9885(5) 0.4443(3)
C14 C 1.2291(5) 0.9771(5) 0.4791(2)
C15 C 1.2011(6) 0.8752(5) 0.3988(2)
H8 H 1.1921 0.8409 0.3718
C16 C 0.7368(5) 1.0042(6) 0.3713(3)
H9 H 0.7199 1.0481 0.3947
C17 C 1.1741(5) 1.0248(6) 0.5523(2)
H10 H 1.1668 0.9539 0.5619
H11 H 1.1078 1.0488 0.5417
C18 C 0.6809(6) 1.0032(6) 0.3313(3)
H12 H 0.6249 1.0473 0.3282
C19 C 0.8411(6) 0.7188(7) 0.1951(2)
H13 H 0.9067 0.7050 0.2086
H14 H 0.8513 0.7508 0.1665
H15 H 0.8043 0.6553 0.1912
C20 C 0.8740(7) 0.6177(7) 0.5166(2)
H16 H 0.8596 0.6769 0.5347
H17 H 0.9334 0.5827 0.5281
H18 H 0.8159 0.5720 0.5171
C21 C 1.4549(6) 1.0668(8) 0.4174(3)
H19 H 1.4204 1.1022 0.3936
H20 H 1.4798 1.0017 0.4068
H21 H 1.5118 1.1076 0.4277
C22 C 1.2096(8) 1.0901(9) 0.5904(3)
H22 H 1.2163 1.1602 0.5807
H23 H 1.2750 1.0656 0.6009
H24 H 1.1602 1.0866 0.6142
O9? O 0.4584(16) 0.3998(17) 0.4571(7)
H27? H 0.5022 0.4544 0.4613
C23? C 0.3896(19) 0.3736(17) 0.4889(8)
H28? H 0.3470 0.4341 0.4933
H29? H 0.4291 0.3653 0.5161
C24? C 0.319(3) 0.287(3) 0.4878(12)
H30? H 0.3262 0.2506 0.4601
H31? H 0.2492 0.3117 0.4904
H32? H 0.3334 0.2412 0.5122
loop_
_geom_bond_atom_site_label_1
_geom_bond_atom_site_label_2
_geom_bond_site_symmetry_1
_geom_bond_site_symmetry_2
S1 O4 1_555 1_555
O1 C1 1_555 1_555
O2 C14 1_555 1_555
O3 C3 1_555 1_555
O5 S1 1_555 1_555
O6 C12 1_555 1_555
O7 C13 1_555 1_555
N1 C1 1_555 1_555
N2 H1 1_555 1_555
C1 C7 1_555 1_555
C2 N1 1_555 1_555
H2 C2 1_555 1_555
C3 N1 1_555 1_555
C4 C3 1_555 1_555
C5 C2 1_555 1_555
C6 C5 1_555 1_555
H3 C6 1_555 1_555
C7 C4 1_555 1_555
C8 H4 1_555 1_555
C9 N2 1_555 1_555
C10 S1 1_555 1_555
H5 C10 1_555 1_555
H6 C10 1_555 1_555
C11 H7 1_555 1_555
C12 N2 1_555 1_555
C13 C11 1_555 1_555
C14 C6 1_555 1_555
C15 C5 1_555 1_555
H8 C15 1_555 1_555
C16 C4 1_555 1_555
H9 C16 1_555 1_555
C17 O2 1_555 1_555
H10 C17 1_555 1_555
H11 C17 1_555 1_555
C18 C8 1_555 1_555
H12 C18 1_555 1_555
C19 C12 1_555 1_555
H13 C19 1_555 1_555
H14 C19 1_555 1_555
H15 C19 1_555 1_555
C20 S1 1_555 1_555
H16 C20 1_555 1_555
H17 C20 1_555 1_555
H18 C20 1_555 1_555
C21 O7 1_555 1_555
H19 C21 1_555 1_555
H20 C21 1_555 1_555
H21 C21 1_555 1_555
C22 C17 1_555 1_555
H22 C22 1_555 1_555
H23 C22 1_555 1_555
H24 C22 1_555 1_555
O8 H25 1_555 1_555
H26 O8 1_555 1_555
C2 C10 1_555 1_555
C7 C9 1_555 1_555
C8 C9 1_555 1_555
C11 C15 1_555 1_555
C13 C14 1_555 1_555
C16 C18 1_555 1_555

#END
