
#######################################################################
#
#                 Cambridge Crystallographic Data Centre
#                                CCDC 
#
#######################################################################
#
# If this CIF has been generated from an entry in the Cambridge 
# Structural Database, then it will include bibliographic, chemical, 
# crystal, experimental, refinement or atomic coordinate data resulting 
# from the CCDC's data processing and validation procedures.
#
#######################################################################

data_YANMUW
_chemical_formula_moiety         'C21 H24 Cl1 F1 N1 O2 1+,C7 H4 N1 O3 S1 1-'
_chemical_name_systematic        'Haloperidolium saccharinate'
_chemical_properties_biological  'Haloperidol is an antipsychotic drug'
_symmetry_cell_setting           monoclinic
_symmetry_space_group_name_H-M   'P 21/n'
_symmetry_Int_Tables_number      14
_space_group_name_Hall           '-P 2yn'
loop_
_symmetry_equiv_pos_site_id
_symmetry_equiv_pos_as_xyz
1 x,y,z
2 1/2-x,1/2+y,1/2-z
3 -x,-y,-z
4 1/2+x,1/2-y,1/2+z
_cell_length_a                   19.0609(10)
_cell_length_b                   7.2197(4)
_cell_length_c                   21.5624(12)
_cell_angle_alpha                90
_cell_angle_beta                 113.961(2)
_cell_angle_gamma                90
_cell_volume                     2711.57
_exptl_crystal_colour            colorless
_exptl_crystal_description       block
_chemical_melting_point          198deg.C
_cell_formula_units_Z            4
_exptl_crystal_recrystallization_method 'methanol/ethyl acetate 1:1'
loop_
_atom_site_label
_atom_site_type_symbol
_atom_site_fract_x
_atom_site_fract_y
_atom_site_fract_z
S1 S 0.75054(4) 0.29744(9) 0.07608(3)
O1 O 0.92702(10) 0.3338(2) 0.22976(8)
O2 O 0.71092(11) 0.4621(3) 0.04240(9)
O3 O 0.70240(10) 0.1352(3) 0.06525(8)
C1 C 0.89410(15) 0.2659(3) 0.11175(12)
N1 N 0.80020(12) 0.3298(3) 0.15589(10)
C2 C 0.96511(16) 0.2381(4) 0.11006(14)
C3 C 0.82833(17) 0.1997(4) -0.00851(13)
C4 C 0.89960(17) 0.1697(4) -0.00968(14)
C5 C 0.87598(15) 0.3137(3) 0.17189(12)
C6 C 0.82799(15) 0.2480(3) 0.05334(12)
C7 C 0.96641(17) 0.1897(4) 0.04800(14)
H1 H 1.0154(15) 0.170(3) 0.0474(12)
H2 H 1.0096(15) 0.246(3) 0.1501(13)
H3 H 0.7812(16) 0.182(4) -0.0490(14)
H4 H 0.9016(16) 0.134(4) -0.0501(14)
Cl1 Cl 0.16718(4) 1.27618(12) 0.15460(4)
F1 F 1.14185(9) 0.7691(2) 0.17315(8)
O4 O 0.42205(10) 1.0428(2) 0.02732(8)
O5 O 0.88586(9) 0.9554(2) 0.27596(8)
C8 C 0.36396(13) 1.0599(3) 0.10888(11)
N2 N 0.59017(11) 0.8413(3) 0.14746(10)
C9 C 1.07707(15) 0.7984(4) 0.18349(13)
C10 C 0.57608(15) 1.0451(3) 0.13362(13)
C11 C 0.80212(14) 0.8046(4) 0.17516(13)
C12 C 0.87833(14) 0.8786(3) 0.22321(12)
C13 C 0.73511(14) 0.8631(4) 0.19230(13)
C14 C 0.52216(15) 0.7353(4) 0.09939(13)
C15 C 0.44943(15) 0.7897(4) 0.10706(13)
C16 C 0.94664(14) 0.8517(3) 0.20616(12)
C17 C 1.08215(16) 0.9019(4) 0.23871(13)
C18 C 1.01654(15) 0.9266(3) 0.24966(13)
C19 C 0.43295(14) 0.9978(3) 0.09522(11)
C20 C 0.94338(16) 0.7504(3) 0.15001(14)
C21 C 0.66214(15) 0.7764(4) 0.14153(13)
C22 C 0.31651(15) 1.2007(4) 0.07008(13)
C23 C 0.50382(14) 1.1045(4) 0.14133(12)
C24 C 0.24253(15) 1.1909(4) 0.13628(13)
C25 C 0.25605(16) 1.2669(4) 0.08362(15)
C26 C 1.00934(17) 0.7235(4) 0.13850(15)
C27 C 0.34886(15) 0.9869(4) 0.16219(13)
C28 C 0.28804(15) 1.0511(4) 0.17590(13)
H5 H 0.4959(13) 1.237(3) 0.1308(11)
H6 H 0.6619(13) 0.650(4) 0.1467(11)
H7 H 0.6553(12) 0.806(3) 0.0961(12)
H8 H 0.5168(13) 0.767(3) 0.0532(12)
H9 H 0.8059(14) 0.675(4) 0.1746(11)
H10 H 0.7437(13) 0.826(3) 0.2374(12)
H11 H 0.6198(14) 1.110(3) 0.1636(12)
H12 H 0.5341(14) 0.610(4) 0.1089(11)
H13 H 0.7331(14) 1.000(4) 0.1912(12)
H14 H 0.3783(14) 0.895(4) 0.1900(12)
H15 H 1.0078(15) 0.649(4) 0.1025(13)
H16 H 0.7913(15) 0.847(4) 0.1282(14)
H17 H 0.5099(13) 1.095(3) 0.1877(12)
H18 H 0.8958(16) 0.701(4) 0.1171(14)
H19 H 0.2772(15) 1.000(4) 0.2117(13)
H20 H 0.3231(15) 1.255(4) 0.0311(14)
H21 H 0.4536(14) 0.759(3) 0.1518(13)
H22 H 1.0186(14) 0.994(4) 0.2875(13)
H23 H 0.4063(15) 0.724(3) 0.0752(13)
H24 H 0.5710(14) 1.064(3) 0.0873(13)
H25 H 1.1282(16) 0.946(4) 0.2685(13)
H26 H 0.2243(17) 1.356(4) 0.0569(14)
H27 H 0.5940(16) 0.824(4) 0.1905(15)
H28 H 0.382(2) 0.975(5) 0.0000(16)
loop_
_geom_bond_atom_site_label_1
_geom_bond_atom_site_label_2
_geom_bond_site_symmetry_1
_geom_bond_site_symmetry_2
S1 O2 1_555 1_555
O1 C5 1_555 1_555
O3 S1 1_555 1_555
C1 C2 1_555 1_555
N1 S1 1_555 1_555
C2 C7 1_555 1_555
C3 C4 1_555 1_555
C4 C7 1_555 1_555
C5 C1 1_555 1_555
C6 S1 1_555 1_555
C7 H1 1_555 1_555
H2 C2 1_555 1_555
H3 C3 1_555 1_555
H4 C4 1_555 1_555
Cl1 C24 1_555 1_555
F1 C9 1_555 1_555
O4 C19 1_555 1_555
O5 C12 1_555 1_555
C8 C19 1_555 1_555
N2 C10 1_555 1_555
C9 C17 1_555 1_555
C10 C23 1_555 1_555
C11 C12 1_555 1_555
C12 C16 1_555 1_555
C13 C11 1_555 1_555
C14 N2 1_555 1_555
C15 C14 1_555 1_555
C16 C18 1_555 1_555
C17 C18 1_555 1_555
C18 H22 1_555 1_555
C19 C15 1_555 1_555
C20 C16 1_555 1_555
C21 N2 1_555 1_555
C22 C8 1_555 1_555
C23 C19 1_555 1_555
C24 C25 1_555 1_555
C25 C22 1_555 1_555
C26 C9 1_555 1_555
C27 C8 1_555 1_555
C28 C24 1_555 1_555
H5 C23 1_555 1_555
H6 C21 1_555 1_555
H7 C21 1_555 1_555
H8 C14 1_555 1_555
H9 C11 1_555 1_555
H10 C13 1_555 1_555
H11 C10 1_555 1_555
H12 C14 1_555 1_555
H13 C13 1_555 1_555
H14 C27 1_555 1_555
H15 C26 1_555 1_555
H16 C11 1_555 1_555
H17 C23 1_555 1_555
H18 C20 1_555 1_555
H19 C28 1_555 1_555
H20 C22 1_555 1_555
H21 C15 1_555 1_555
H23 C15 1_555 1_555
H24 C10 1_555 1_555
H25 C17 1_555 1_555
H26 C25 1_555 1_555
H27 N2 1_555 1_555
H28 O4 1_555 1_555
C1 C6 1_555 1_555
N1 C5 1_555 1_555
C3 C6 1_555 1_555
C13 C21 1_555 1_555
C20 C26 1_555 1_555
C27 C28 1_555 1_555

#END
