
#######################################################################
#
#                 Cambridge Crystallographic Data Centre
#                                CCDC 
#
#######################################################################
#
# If this CIF has been generated from an entry in the Cambridge 
# Structural Database, then it will include bibliographic, chemical, 
# crystal, experimental, refinement or atomic coordinate data resulting 
# from the CCDC's data processing and validation procedures.
#
#######################################################################

data_YANNEH
_chemical_formula_moiety         'C15 H13 N3 O4 S1,C7 H5 N1 O3 S1'
_chemical_name_systematic        'Piroxicam saccharin'
_chemical_properties_biological  'Piroxicam is an NSAID'
_symmetry_cell_setting           triclinic
_symmetry_space_group_name_H-M   'P -1'
_symmetry_Int_Tables_number      2
_space_group_name_Hall           '-P 1'
loop_
_symmetry_equiv_pos_site_id
_symmetry_equiv_pos_as_xyz
1 x,y,z
2 -x,-y,-z
_cell_length_a                   9.5117(8)
_cell_length_b                   10.3862(9)
_cell_length_c                   12.6635(11)
_cell_angle_alpha                66.983(2)
_cell_angle_beta                 71.011(2)
_cell_angle_gamma                89.380(2)
_cell_volume                     1078.99
_exptl_crystal_colour            colorless
_exptl_crystal_description       block
_chemical_melting_point          '176 deg.C'
_cell_formula_units_Z            2
loop_
_atom_site_label
_atom_site_type_symbol
_atom_site_fract_x
_atom_site_fract_y
_atom_site_fract_z
S1 S 0.36821(6) -0.05874(6) 0.32969(5)
O1 O 0.28311(18) -0.10034(17) 0.27093(14)
O2 O 0.27967(18) 0.35552(17) 0.14934(14)
O3 O 0.63743(18) 0.18999(18) -0.02617(14)
O4 O 0.43241(18) -0.16423(17) 0.40648(14)
N1 N 0.5026(2) 0.0658(2) 0.22506(17)
N2 N 0.4772(2) 0.3561(2) -0.04875(18)
N3 N 0.6297(2) 0.3666(2) -0.24006(18)
C1 C 0.3296(3) 0.2443(2) 0.2083(2)
C2 C 0.5303(3) 0.2407(2) 0.0216(2)
C3 C 0.2578(3) 0.0308(2) 0.4120(2)
C4 C 0.2498(2) 0.1734(2) 0.3437(2)
C5 C 0.6100(3) 0.5259(3) -0.4251(2)
C6 C 0.0830(3) 0.1801(3) 0.5313(2)
C7 C 0.1799(3) -0.0365(3) 0.5368(2)
C8 C 0.5203(3) 0.4160(2) -0.1731(2)
C9 C 0.4493(3) 0.1882(2) 0.1520(2)
C10 C 0.6747(3) 0.4199(3) -0.3638(2)
C11 C 0.1612(3) 0.2463(3) 0.4060(2)
C12 C 0.4955(3) 0.5802(3) -0.3587(2)
C13 C 0.0915(3) 0.0398(3) 0.5959(2)
C14 C 0.6248(3) 0.0960(3) 0.2636(3)
C15 C 0.4505(3) 0.5255(2) -0.2337(2)
H1 H 0.757(3) 0.376(2) -0.402(2)
H2 H 0.375(3) 0.554(3) -0.186(2)
H3 H 0.702(3) 0.164(3) 0.187(2)
H4 H 0.667(3) 0.009(3) 0.301(2)
H5 H 0.448(3) 0.651(3) -0.401(2)
H6 H 0.642(3) 0.564(3) -0.515(2)
H7 H 0.666(3) 0.298(3) -0.196(2)
H8 H 0.592(3) 0.138(3) 0.320(3)
H9 H 0.411(4) 0.381(3) -0.012(3)
H10 H 0.155(3) 0.342(3) 0.362(2)
H11 H 0.188(3) -0.129(3) 0.578(2)
H12 H 0.026(3) 0.228(3) 0.575(2)
H13 H 0.037(3) -0.011(3) 0.686(2)
S2 S 0.95126(7) 0.55527(6) 0.26469(5)
O5 O 1.15871(19) 0.59876(18) -0.05475(15)
O6 O 1.0293(2) 0.6079(2) 0.32168(16)
O7 O 0.83726(19) 0.43688(18) 0.34433(15)
C16 C 0.8878(3) 0.6922(2) 0.1630(2)
N4 N 1.0708(2) 0.5223(2) 0.15406(18)
C17 C 1.0750(3) 0.6073(2) 0.0378(2)
C18 C 0.7806(3) 0.7769(3) 0.1892(2)
C19 C 0.9634(3) 0.7072(2) 0.0444(2)
C20 C 0.9328(3) 0.8078(3) -0.0523(2)
C21 C 0.8265(3) 0.8946(3) -0.0280(2)
C22 C 0.7517(3) 0.8800(3) 0.0916(3)
H14 H 0.676(3) 0.942(3) 0.104(2)
H15 H 1.130(3) 0.463(3) 0.164(3)
H16 H 0.809(3) 0.961(3) -0.092(3)
H17 H 0.737(3) 0.768(3) 0.269(3)
H18 H 0.980(3) 0.811(3) -0.130(3)
loop_
_geom_bond_atom_site_label_1
_geom_bond_atom_site_label_2
_geom_bond_site_symmetry_1
_geom_bond_site_symmetry_2
S1 O1 1_555 1_555
O2 C1 1_555 1_555
O3 C2 1_555 1_555
O4 S1 1_555 1_555
N1 S1 1_555 1_555
N2 C2 1_555 1_555
N3 C8 1_555 1_555
C1 C4 1_555 1_555
C2 C9 1_555 1_555
C3 S1 1_555 1_555
C4 C3 1_555 1_555
C5 C10 1_555 1_555
C6 C11 1_555 1_555
C7 C3 1_555 1_555
C8 N2 1_555 1_555
C9 N1 1_555 1_555
C10 N3 1_555 1_555
C11 C4 1_555 1_555
C12 C5 1_555 1_555
C13 C6 1_555 1_555
C14 N1 1_555 1_555
C15 C8 1_555 1_555
H1 C10 1_555 1_555
H2 C15 1_555 1_555
H3 C14 1_555 1_555
H4 C14 1_555 1_555
H5 C12 1_555 1_555
H6 C5 1_555 1_555
H7 N3 1_555 1_555
H8 C14 1_555 1_555
H9 N2 1_555 1_555
H10 C11 1_555 1_555
H11 C7 1_555 1_555
H12 C6 1_555 1_555
H13 C13 1_555 1_555
S2 O6 1_555 1_555
O5 C17 1_555 1_555
O7 S2 1_555 1_555
C16 S2 1_555 1_555
N4 S2 1_555 1_555
C17 N4 1_555 1_555
C18 C16 1_555 1_555
C19 C16 1_555 1_555
C20 C19 1_555 1_555
C21 C20 1_555 1_555
C22 C18 1_555 1_555
H14 C22 1_555 1_555
H15 N4 1_555 1_555
H16 C21 1_555 1_555
H17 C18 1_555 1_555
H18 C20 1_555 1_555
C1 C9 1_555 1_555
C7 C13 1_555 1_555
C12 C15 1_555 1_555
C17 C19 1_555 1_555
C21 C22 1_555 1_555

#END
