
#######################################################################
#
#                 Cambridge Crystallographic Data Centre
#                                CCDC 
#
#######################################################################
#
# If this CIF has been generated from an entry in the Cambridge 
# Structural Database, then it will include bibliographic, chemical, 
# crystal, experimental, refinement or atomic coordinate data resulting 
# from the CCDC's data processing and validation procedures.
#
#######################################################################

data_YANNAF
_chemical_formula_moiety         'C34 H34 Br1 N1 O5'
_chemical_name_systematic        
"ethyl 3-{7-bromo-1'-[(4-methoxyphenyl)methyl]-1,2'-dioxo-4'-(2-phenylethyl)-3,4-dihydro-1H-spiro[naphthalene-2,3'-pyrrolidin]-5'-yl}prop-2-enoate"
_symmetry_cell_setting           monoclinic
_symmetry_space_group_name_H-M   'P 21'
_symmetry_Int_Tables_number      4
_space_group_name_Hall           'P 2yb'
loop_
_symmetry_equiv_pos_site_id
_symmetry_equiv_pos_as_xyz
1 x,y,z
2 -x,1/2+y,-z
_cell_length_a                   12.428(4)
_cell_length_b                   5.8759(18)
_cell_length_c                   21.526(6)
_cell_angle_alpha                90
_cell_angle_beta                 99.276(8)
_cell_angle_gamma                90
_cell_volume                     1551.4
_exptl_crystal_colour            colorless
_exptl_crystal_description       block
_cell_formula_units_Z            2
loop_
_atom_site_label
_atom_site_type_symbol
_atom_site_fract_x
_atom_site_fract_y
_atom_site_fract_z
Br1 Br 0.12626(11) 0.3000(4) -0.00311(6)
O1 O 0.6666(4) 0.2262(10) 0.1330(2)
O2 O 0.4266(4) 0.1801(9) 0.2017(2)
O3 O 0.7985(5) -0.0840(12) 0.4576(3)
O4 O 0.8865(4) 0.2100(11) 0.5089(2)
O5 O 1.2045(4) 0.6736(13) 0.2020(3)
N1 N 0.7419(4) 0.2438(10) 0.2366(3)
C1 C 0.7236(5) 0.3525(13) 0.2942(3)
H1 H 0.764845 0.495052 0.300446
C2 C 0.5990(5) 0.4030(12) 0.2798(3)
H2 H 0.561662 0.262352 0.288406
C3 C 0.5763(5) 0.4387(12) 0.2083(3)
C4 C 0.6645(5) 0.2871(13) 0.1867(4)
C5 C 0.4659(5) 0.3392(13) 0.1774(3)
C6 C 0.4131(6) 0.4371(13) 0.1176(3)
C7 C 0.3136(7) 0.3467(17) 0.0895(4)
H3 H 0.282494 0.228539 0.109232
C8 C 0.2612(8) 0.428(2) 0.0338(4)
C9 C 0.3060(9) 0.599(3) 0.0033(4)
H4 H 0.270469 0.652922 -0.035260
C10 C 0.4036(9) 0.6907(17) 0.0303(4)
H5 H 0.433297 0.807839 0.009430
C11 C 0.4608(7) 0.6152(13) 0.0880(3)
C12 C 0.5691(7) 0.7067(14) 0.1155(3)
H6 H 0.572980 0.866020 0.104233
H7 H 0.625131 0.625811 0.097827
C13 C 0.5913(6) 0.6841(13) 0.1869(3)
H8 H 0.542138 0.783311 0.204967
H9 H 0.665295 0.732937 0.202422
C14 C 0.5625(5) 0.5863(14) 0.3221(3)
H10 H 0.591340 0.732207 0.311532
H11 H 0.592396 0.552845 0.365574
C15 C 0.4383(5) 0.6023(15) 0.3153(3)
H12 H 0.409749 0.660155 0.273675
H13 H 0.408867 0.450716 0.318625
C16 C 0.4000(5) 0.7522(14) 0.3634(3)
C17 C 0.3502(7) 0.9571(16) 0.3492(4)
H14 H 0.340116 1.009175 0.307908
C18 C 0.3146(7) 1.0881(17) 0.3948(5)
H15 H 0.278209 1.223882 0.383495
C19 C 0.3316(7) 1.0223(17) 0.4560(5)
H16 H 0.310224 1.115364 0.486774
C20 C 0.3802(7) 0.8193(19) 0.4717(4)
H17 H 0.389994 0.770427 0.513319
C21 C 0.4147(6) 0.6861(15) 0.4269(3)
H18 H 0.448812 0.548247 0.438702
C22 C 0.7529(5) 0.2014(14) 0.3496(3)
H19 H 0.731824 0.049659 0.345129
C23 C 0.8066(5) 0.2656(16) 0.4049(3)
H20 H 0.831225 0.415002 0.409780
C24 C 0.8290(6) 0.1100(19) 0.4589(4)
C25 C 0.9079(8) 0.082(2) 0.5667(4)
H21 H 0.952109 -0.050671 0.561215
H22 H 0.839896 0.029786 0.578556
C26 C 0.9664(9) 0.231(3) 0.6166(5)
H23 H 0.933642 0.379734 0.613306
H24 H 1.041514 0.243403 0.611469
H25 H 0.961869 0.167808 0.657147
C27 C 0.8420(6) 0.1249(15) 0.2286(4)
H26 H 0.827165 0.030182 0.191347
H27 H 0.862977 0.025226 0.264471
C28 C 0.9361(5) 0.2789(13) 0.2225(3)
C29 C 1.0367(7) 0.2453(17) 0.2563(4)
H28 H 1.046623 0.129834 0.286183
C30 C 1.1247(7) 0.377(2) 0.2476(5)
H29 H 1.193112 0.344572 0.270357
C31 C 1.1129(6) 0.5508(16) 0.2066(4)
C32 C 1.0125(6) 0.5947(18) 0.1742(4)
H30 H 1.002514 0.717088 0.146423
C33 C 0.9251(7) 0.4608(18) 0.1818(5)
H31 H 0.856803 0.493746 0.158920
C34 C 1.1951(8) 0.844(2) 0.1559(6)
H32 H 1.163923 0.781273 0.115881
H33 H 1.266065 0.904865 0.153287
H34 H 1.149070 0.964048 0.166872
loop_
_geom_bond_atom_site_label_1
_geom_bond_atom_site_label_2
_geom_bond_site_symmetry_1
_geom_bond_site_symmetry_2
Br1 C8 1_555 1_555
O1 C4 1_555 1_555
O2 C5 1_555 1_555
O3 C24 1_555 1_555
O4 C24 1_555 1_555
O5 C31 1_555 1_555
N1 C1 1_555 1_555
C1 H1 1_555 1_555
C2 C1 1_555 1_555
H2 C2 1_555 1_555
C3 C2 1_555 1_555
C4 N1 1_555 1_555
C5 C3 1_555 1_555
C6 C5 1_555 1_555
C7 C6 1_555 1_555
H3 C7 1_555 1_555
C8 C7 1_555 1_555
C9 C8 1_555 1_555
H4 C9 1_555 1_555
C10 C9 1_555 1_555
H5 C10 1_555 1_555
C11 C6 1_555 1_555
C12 C11 1_555 1_555
H6 C12 1_555 1_555
H7 C12 1_555 1_555
C13 C3 1_555 1_555
H8 C13 1_555 1_555
H9 C13 1_555 1_555
C14 C2 1_555 1_555
H10 C14 1_555 1_555
H11 C14 1_555 1_555
C15 C14 1_555 1_555
H12 C15 1_555 1_555
H13 C15 1_555 1_555
C16 C15 1_555 1_555
C17 C16 1_555 1_555
H14 C17 1_555 1_555
C18 C17 1_555 1_555
H15 C18 1_555 1_555
C19 C18 1_555 1_555
H16 C19 1_555 1_555
C20 C19 1_555 1_555
H17 C20 1_555 1_555
C21 C16 1_555 1_555
H18 C21 1_555 1_555
C22 C1 1_555 1_555
H19 C22 1_555 1_555
C23 C22 1_555 1_555
H20 C23 1_555 1_555
C24 C23 1_555 1_555
C25 O4 1_555 1_555
H21 C25 1_555 1_555
H22 C25 1_555 1_555
C26 C25 1_555 1_555
H23 C26 1_555 1_555
H24 C26 1_555 1_555
H25 C26 1_555 1_555
C27 N1 1_555 1_555
H26 C27 1_555 1_555
H27 C27 1_555 1_555
C28 C27 1_555 1_555
C29 C28 1_555 1_555
H28 C29 1_555 1_555
C30 C29 1_555 1_555
H29 C30 1_555 1_555
C31 C30 1_555 1_555
C32 C31 1_555 1_555
H30 C32 1_555 1_555
C33 C28 1_555 1_555
H31 C33 1_555 1_555
C34 O5 1_555 1_555
H32 C34 1_555 1_555
H33 C34 1_555 1_555
H34 C34 1_555 1_555
C3 C4 1_555 1_555
C10 C11 1_555 1_555
C12 C13 1_555 1_555
C20 C21 1_555 1_555
C32 C33 1_555 1_555

#END
