
#######################################################################
#
#                 Cambridge Crystallographic Data Centre
#                                CCDC 
#
#######################################################################
#
# If this CIF has been generated from an entry in the Cambridge 
# Structural Database, then it will include bibliographic, chemical, 
# crystal, experimental, refinement or atomic coordinate data resulting 
# from the CCDC's data processing and validation procedures.
#
#######################################################################

data_YANNIL
_chemical_formula_moiety         'C20 H25 N2 O2 1+,C7 H4 N1 O3 S1 1-'
_chemical_name_systematic        'Quininium saccharinate'
_chemical_properties_biological  'Quinine is an antimalarial drug'
_symmetry_cell_setting           orthorhombic
_symmetry_space_group_name_H-M   'P 21 21 21'
_symmetry_Int_Tables_number      19
_space_group_name_Hall           'P 2ac 2ab'
loop_
_symmetry_equiv_pos_site_id
_symmetry_equiv_pos_as_xyz
1 x,y,z
2 1/2-x,-y,1/2+z
3 -x,1/2+y,1/2-z
4 1/2+x,1/2-y,-z
_cell_length_a                   9.607(3)
_cell_length_b                   8.634(3)
_cell_length_c                   30.371(9)
_cell_angle_alpha                90
_cell_angle_beta                 90
_cell_angle_gamma                90
_cell_volume                     2519.18
_exptl_crystal_colour            colorless
_exptl_crystal_description       block
_chemical_melting_point          '185 deg.C'
_cell_formula_units_Z            4
loop_
_atom_site_label
_atom_site_type_symbol
_atom_site_fract_x
_atom_site_fract_y
_atom_site_fract_z
O1 O 1.0693(3) 0.3132(4) 0.85266(11)
O2 O 0.4114(3) 0.4994(4) 0.80856(9)
C1 C 0.7918(4) 0.5132(5) 0.78781(12)
C2 C 0.9238(4) 0.4765(5) 0.80561(13)
C3 C 0.6630(4) 0.4778(5) 0.80844(13)
H1 H 0.6629 0.4230 0.8356
C4 C 1.0678(4) 0.5683(5) 0.94820(15)
H2 H 1.1467 0.6389 0.9558
N1 N 0.8682(4) 0.3896(5) 0.92841(12)
C5 C 0.5400(4) 0.5208(6) 0.79017(13)
C6 C 0.9053(4) 0.4848(6) 0.88781(13)
C7 C 1.0412(4) 0.5163(6) 0.78251(14)
H3 H 1.1308 0.4903 0.7935
C8 C 0.6589(5) 0.6331(5) 0.72852(15)
H4 H 0.6565 0.6839 0.7008
C10 C 1.0208(4) 0.5976(5) 0.90077(14)
H5 H 0.9866 0.7052 0.8980
H6 H 1.1010 0.5847 0.8806
C11 C 0.7892(4) 0.5939(5) 0.74692(13)
C12 C 0.8212(4) 0.5013(6) 0.96394(13)
H7 H 0.7790 0.4429 0.9886
H8 H 0.7498 0.5724 0.9519
C14 C 0.9456(4) 0.5946(6) 0.98063(15)
H9 H 0.9736 0.5502 1.0097
C15 C 0.5379(5) 0.6010(6) 0.74898(16)
H10 H 0.4519 0.6313 0.7361
C16 C 0.9357(4) 0.3814(5) 0.84765(13)
H11 H 0.8647 0.2968 0.8467
C17 C 0.4106(5) 0.4379(6) 0.85223(15)
H12 H 0.4533 0.3348 0.8521
H13 H 0.3144 0.4302 0.8628
H14 H 0.4636 0.5065 0.8717
C19 C 1.1138(4) 0.4013(5) 0.95265(15)
H15 H 1.1538 0.3837 0.9823
H16 H 1.1863 0.3777 0.9305
C20 C 0.9134(5) 0.7603(6) 0.98754(18)
H17 H 0.8671 0.8142 0.9645
C21 C 0.9872(4) 0.2952(5) 0.94570(15)
H18 H 1.0107 0.2122 0.9245
H19 H 0.9606 0.2461 0.9739
C23 C 1.0272(5) 0.5960(6) 0.74244(16)
H21 H 1.1099 0.6258 0.7275
C24 C 0.9445(6) 0.8377(7) 1.0234(2)
H22 H 0.9907 0.7872 1.0470
H23 H 0.9207 0.9442 1.0257
N3 N 0.9077(4) 0.6320(5) 0.72428(12)
H27 H 0.821(3) 0.540(3) 0.8815(10)
H28 H 0.790(6) 0.317(8) 0.920(2)
H29 H 1.076(5) 0.259(6) 0.8333(17)
S1 S 1.18588(12) 0.49027(17) 0.12542(4)
O3 O 1.0028(4) 0.2270(4) 0.05037(12)
C9 C 1.0071(4) 0.5372(5) 0.12683(15)
C13 C 1.0417(6) 0.3294(5) 0.07607(15)
O4 O 1.2308(3) 0.4310(4) 0.16762(11)
N2 N 1.1726(4) 0.3496(5) 0.09013(13)
C18 C 0.9418(5) 0.4397(5) 0.09768(14)
C22 C 0.7267(6) 0.5544(6) 0.1185(2)
H20 H 0.6283 0.5611 0.1161
C25 C 0.9378(5) 0.6441(5) 0.15239(17)
H24 H 0.9858 0.7100 0.1723
C26 C 0.7977(5) 0.4496(6) 0.09303(18)
H25 H 0.7498 0.3853 0.0727
C27 C 0.7960(6) 0.6505(7) 0.1477(2)
H26 H 0.7441 0.7224 0.1648
O5 O 1.2632(4) 0.6181(5) 0.10827(14)
loop_
_geom_bond_atom_site_label_1
_geom_bond_atom_site_label_2
_geom_bond_site_symmetry_1
_geom_bond_site_symmetry_2
O1 C16 1_555 1_555
S1 C9 1_555 1_555
O2 C5 1_555 1_555
C1 C2 1_555 1_555
C2 C7 1_555 1_555
C3 C1 1_555 1_555
H1 C3 1_555 1_555
C4 H2 1_555 1_555
N1 C6 1_555 1_555
O3 C13 1_555 1_555
C5 C3 1_555 1_555
C6 C10 1_555 1_555
C7 H3 1_555 1_555
C8 H4 1_555 1_555
C9 C18 1_555 1_555
C10 C4 1_555 1_555
H5 C10 1_555 1_555
H6 C10 1_555 1_555
C11 C1 1_555 1_555
C12 N1 1_555 1_555
H7 C12 1_555 1_555
H8 C12 1_555 1_555
C13 N2 1_555 1_555
O4 S1 1_555 1_555
C14 C4 1_555 1_555
H9 C14 1_555 1_555
C15 C5 1_555 1_555
H10 C15 1_555 1_555
C16 C2 1_555 1_555
H11 C16 1_555 1_555
N2 S1 1_555 1_555
C17 O2 1_555 1_555
H12 C17 1_555 1_555
H13 C17 1_555 1_555
H14 C17 1_555 1_555
C18 C13 1_555 1_555
C19 C4 1_555 1_555
H15 C19 1_555 1_555
H16 C19 1_555 1_555
C20 C14 1_555 1_555
H17 C20 1_555 1_555
C21 N1 1_555 1_555
H18 C21 1_555 1_555
H19 C21 1_555 1_555
C22 H20 1_555 1_555
C23 C7 1_555 1_555
H21 C23 1_555 1_555
C24 C20 1_555 1_555
H22 C24 1_555 1_555
H23 C24 1_555 1_555
C25 C9 1_555 1_555
H24 C25 1_555 1_555
C26 C18 1_555 1_555
H25 C26 1_555 1_555
C27 C22 1_555 1_555
H26 C27 1_555 1_555
O5 S1 1_555 1_555
N3 C11 1_555 1_555
H27 C6 1_555 1_555
H28 N1 1_555 1_555
H29 O1 1_555 1_555
C6 C16 1_555 1_555
C8 C11 1_555 1_555
C8 C15 1_555 1_555
C12 C14 1_555 1_555
C19 C21 1_555 1_555
C22 C26 1_555 1_555
C23 N3 1_555 1_555
C25 C27 1_555 1_555

#END
