
#######################################################################
#
#                 Cambridge Crystallographic Data Centre
#                                CCDC 
#
#######################################################################
#
# If this CIF has been generated from an entry in the Cambridge 
# Structural Database, then it will include bibliographic, chemical, 
# crystal, experimental, refinement or atomic coordinate data resulting 
# from the CCDC's data processing and validation procedures.
#
#######################################################################

data_YANQOU
_chemical_formula_moiety         'C36 H38 N4 O4 S1'
_chemical_name_systematic        'bis(1-t-Butyl-1,2-dibenzoylhydrazine) sulfide'
_chemical_properties_biological  'insecticidal activity'
_symmetry_cell_setting           monoclinic
_symmetry_space_group_name_H-M   'P 21/c'
_symmetry_Int_Tables_number      14
_space_group_name_Hall           '-P 2ybc'
loop_
_symmetry_equiv_pos_site_id
_symmetry_equiv_pos_as_xyz
1 x,y,z
2 -x,1/2+y,1/2-z
3 -x,-y,-z
4 x,1/2-y,1/2+z
_cell_length_a                   14.681(7)
_cell_length_b                   14.501(7)
_cell_length_c                   16.535(8)
_cell_angle_alpha                90
_cell_angle_beta                 109.173(9)
_cell_angle_gamma                90
_cell_volume                     3324.87
_chemical_melting_point          '134-138 deg.C'
_cell_formula_units_Z            4
_exptl_crystal_recrystallization_method 'isopropyl alcohol'
loop_
_atom_site_label
_atom_site_type_symbol
_atom_site_fract_x
_atom_site_fract_y
_atom_site_fract_z
S1 S 0.6750(1) 0.3972(1) 0.1199(1)
N1 N 0.6420(2) 0.3071(2) 0.0502(2)
N2 N 0.6551(2) 0.2157(2) 0.0814(2)
N3 N 0.7787(2) 0.4422(2) 0.1143(2)
N4 N 0.7743(2) 0.5213(2) 0.0633(2)
O1 O 0.5404(2) 0.3954(2) -0.0553(2)
O2 O 0.8060(2) 0.2253(2) 0.0735(2)
O3 O 0.9405(2) 0.4350(2) 0.1464(2)
O4 O 0.7469(3) 0.6751(2) 0.0575(2)
C1 C 0.4530(3) 0.2143(3) -0.1286(2)
C2 C 0.4283(3) 0.1433(3) -0.1870(2)
C3 C 0.4991(3) 0.0965(3) -0.2081(2)
C4 C 0.5942(3) 0.1205(3) -0.1713(2)
C5 C 0.6200(3) 0.1912(3) -0.1116(2)
C6 C 0.5498(3) 0.2384(2) -0.0907(2)
C7 C 0.5743(3) 0.3202(3) -0.0324(2)
C8 C 0.7441(3) 0.1789(2) 0.0881(2)
C9 C 0.7627(2) 0.0782(2) 0.1085(2)
C10 C 0.7198(3) 0.0120(3) 0.0476(3)
C11 C 0.7421(3) -0.0804(3) 0.0633(3)
C12 C 0.8075(3) -0.1067(3) 0.1393(4)
C13 C 0.8523(3) -0.0423(3) 0.2003(3)
C14 C 0.8300(3) 0.0509(3) 0.1852(3)
C15 C 0.5853(3) 0.1809(2) 0.1259(2)
C16 C 0.5063(3) 0.2530(3) 0.1163(3)
C17 C 0.5352(3) 0.0926(2) 0.0840(3)
C18 C 0.6399(3) 0.1660(3) 0.2209(2)
C19 C 0.9443(3) 0.2866(3) 0.2669(3)
C20 C 0.9668(3) 0.2457(3) 0.3467(3)
C21 C 0.9304(3) 0.2801(4) 0.4066(3)
C22 C 0.8703(3) 0.3549(3) 0.3871(3)
C23 C 0.8453(3) 0.3944(3) 0.3067(2)
C24 C 0.8820(2) 0.3607(3) 0.2460(2)
C25 C 0.8714(3) 0.4126(3) 0.1653(2)
C26 C 0.7628(3) 0.6036(3) 0.0982(3)
C27 C 0.7758(4) 0.6071(3) 0.1923(3)
C28 C 0.8684(4) 0.6203(4) 0.2496(3)
C29 C 0.8836(6) 0.6362(5) 0.3345(4)
C30 C 0.8070(8) 0.6383(5) 0.3634(5)
C31 C 0.7158(6) 0.6216(4) 0.3102(5)
C32 C 0.6985(4) 0.6060(3) 0.2222(4)
C33 C 0.7837(3) 0.5161(3) -0.0251(2)
C34 C 0.6914(3) 0.5499(3) -0.0920(3)
C35 C 0.8705(3) 0.5743(3) -0.0255(3)
C36 C 0.8012(3) 0.4164(3) -0.0440(2)
H1 H 0.4053 0.2461 -0.1144
H2 H 0.3640 0.1268 -0.2122
H3 H 0.4823 0.0485 -0.2474
H4 H 0.6416 0.0892 -0.1864
H5 H 0.6846 0.2066 -0.0859
H6 H 0.6756 0.0299 -0.0046
H7 H 0.7125 -0.1244 0.0222
H8 H 0.8220 -0.1689 0.1500
H9 H 0.8974 -0.0609 0.2517
H10 H 0.8603 0.0946 0.2264
H11 H 0.5351 0.3099 0.1422
H12 H 0.4623 0.2314 0.1441
H13 H 0.4721 0.2631 0.0567
H14 H 0.5825 0.0455 0.0888
H15 H 0.5006 0.1041 0.0246
H16 H 0.4909 0.0728 0.1122
H17 H 0.6896 0.1209 0.2274
H18 H 0.5960 0.1448 0.2490
H19 H 0.6684 0.2232 0.2462
H20 H 0.9713 0.2641 0.2273
H21 H 1.0070 0.1944 0.3595
H22 H 0.9463 0.2529 0.4604
H23 H 0.8462 0.3792 0.4280
H24 H 0.8032 0.4444 0.2936
H25 H 0.9208 0.6184 0.2299
H26 H 0.9457 0.6455 0.3721
H27 H 0.8171 0.6514 0.4207
H28 H 0.6648 0.6206 0.3318
H29 H 0.6363 0.5952 0.1852
H30 H 0.6383 0.5123 -0.0903
H31 H 0.6979 0.5461 -0.1478
H32 H 0.6797 0.6128 -0.0800
H33 H 0.9277 0.5512 0.0169
H34 H 0.8603 0.6373 -0.0126
H35 H 0.8780 0.5711 -0.0809
H36 H 0.7467 0.3795 -0.0442
H37 H 0.8580 0.3940 -0.0008
H38 H 0.8098 0.4126 -0.0990
loop_
_geom_bond_atom_site_label_1
_geom_bond_atom_site_label_2
_geom_bond_site_symmetry_1
_geom_bond_site_symmetry_2
S1 N1 1_555 1_555
N1 N2 1_555 1_555
N2 C8 1_555 1_555
N3 S1 1_555 1_555
N4 N3 1_555 1_555
O1 C7 1_555 1_555
O2 C8 1_555 1_555
O3 C25 1_555 1_555
O4 C26 1_555 1_555
C1 C2 1_555 1_555
C2 C3 1_555 1_555
C3 C4 1_555 1_555
C4 C5 1_555 1_555
C5 C6 1_555 1_555
C6 C1 1_555 1_555
C7 N1 1_555 1_555
C8 C9 1_555 1_555
C9 C10 1_555 1_555
C10 C11 1_555 1_555
C11 C12 1_555 1_555
C12 C13 1_555 1_555
C13 C14 1_555 1_555
C14 C9 1_555 1_555
C15 N2 1_555 1_555
C16 C15 1_555 1_555
C17 C15 1_555 1_555
C18 C15 1_555 1_555
C19 C20 1_555 1_555
C20 C21 1_555 1_555
C21 C22 1_555 1_555
C22 C23 1_555 1_555
C23 C24 1_555 1_555
C24 C19 1_555 1_555
C25 N3 1_555 1_555
C26 N4 1_555 1_555
C27 C26 1_555 1_555
C28 C27 1_555 1_555
C29 C28 1_555 1_555
C30 C29 1_555 1_555
C31 C30 1_555 1_555
C32 C27 1_555 1_555
C33 N4 1_555 1_555
C34 C33 1_555 1_555
C35 C33 1_555 1_555
C36 C33 1_555 1_555
H1 C1 1_555 1_555
H2 C2 1_555 1_555
H3 C3 1_555 1_555
H4 C4 1_555 1_555
H5 C5 1_555 1_555
H6 C10 1_555 1_555
H7 C11 1_555 1_555
H8 C12 1_555 1_555
H9 C13 1_555 1_555
H10 C14 1_555 1_555
H11 C16 1_555 1_555
H12 C16 1_555 1_555
H13 C16 1_555 1_555
H14 C17 1_555 1_555
H15 C17 1_555 1_555
H16 C17 1_555 1_555
H17 C18 1_555 1_555
H18 C18 1_555 1_555
H19 C18 1_555 1_555
H20 C19 1_555 1_555
H21 C20 1_555 1_555
H22 C21 1_555 1_555
H23 C22 1_555 1_555
H24 C23 1_555 1_555
H25 C28 1_555 1_555
H26 C29 1_555 1_555
H27 C30 1_555 1_555
H28 C31 1_555 1_555
H29 C32 1_555 1_555
H30 C34 1_555 1_555
H31 C34 1_555 1_555
H32 C34 1_555 1_555
H33 C35 1_555 1_555
H34 C35 1_555 1_555
H35 C35 1_555 1_555
H36 C36 1_555 1_555
H37 C36 1_555 1_555
H38 C36 1_555 1_555
C6 C7 1_555 1_555
C24 C25 1_555 1_555
C31 C32 1_555 1_555

#END
