
#######################################################################
#
#                 Cambridge Crystallographic Data Centre
#                                CCDC 
#
#######################################################################
#
# If this CIF has been generated from an entry in the Cambridge 
# Structural Database, then it will include bibliographic, chemical, 
# crystal, experimental, refinement or atomic coordinate data resulting 
# from the CCDC's data processing and validation procedures.
#
#######################################################################

data_YANWAN
_chemical_formula_moiety         'C5 H6 N8 O5'
_chemical_name_systematic        
3-Nitro-N-(5-nitro-1,3,5-triazinan-2-ylidene)-1,2,4-oxadiazol-5-amine
_symmetry_cell_setting           triclinic
_symmetry_space_group_name_H-M   'P -1'
_symmetry_Int_Tables_number      2
_space_group_name_Hall           '-P 1'
loop_
_symmetry_equiv_pos_site_id
_symmetry_equiv_pos_as_xyz
1 x,y,z
2 -x,-y,-z
_cell_length_a                   6.2935(19)
_cell_length_b                   8.721(3)
_cell_length_c                   9.510(3)
_cell_angle_alpha                86.050(14)
_cell_angle_beta                 72.945(11)
_cell_angle_gamma                75.486(10)
_cell_volume                     483.077
_exptl_crystal_colour            colorless
_exptl_crystal_description       chunk
_cell_formula_units_Z            2
loop_
_atom_site_label
_atom_site_type_symbol
_atom_site_fract_x
_atom_site_fract_y
_atom_site_fract_z
O1 O 0.1733(3) 0.26024(18) 0.91670(17)
O2 O 0.6639(3) 0.8201(2) 0.47614(18)
O3 O 0.8436(3) 0.8192(2) 0.6384(2)
O4 O -0.2364(3) 0.4072(2) 0.6080(2)
O5 O -0.2532(4) 0.1763(2) 0.7065(2)
N1 N 0.4607(3) 0.8906(2) 0.70795(19)
N2 N 0.4655(3) 0.6917(2) 0.8900(2)
N3 N 0.2409(3) 0.6971(2) 0.7374(2)
N4 N 0.3193(3) 0.4771(2) 0.89209(18)
N5 N 0.0220(3) 0.2019(2) 0.8619(2)
N6 N 0.0583(3) 0.4412(2) 0.75840(19)
N7 N 0.6698(3) 0.8359(2) 0.6004(2)
N8 N -0.1861(3) 0.2983(3) 0.6885(2)
C1 C 0.4671(4) 0.8566(3) 0.8586(2)
H1 H 0.6072 0.8779 0.8721
H2 H 0.3325 0.9257 0.9272
C2 C 0.3381(4) 0.6224(3) 0.8378(2)
C3 C 0.2644(4) 0.8546(3) 0.6799(2)
H3 H 0.2834 0.8573 0.5727
H4 H 0.1240 0.9355 0.7277
C4 C 0.1867(4) 0.4039(2) 0.8507(2)
C5 C -0.0328(4) 0.3142(3) 0.7740(2)
H5 H 0.152(5) 0.658(3) 0.710(3)
H6 H 0.522(5) 0.645(3) 0.950(3)
loop_
_geom_bond_atom_site_label_1
_geom_bond_atom_site_label_2
_geom_bond_site_symmetry_1
_geom_bond_site_symmetry_2
O1 N5 1_555 1_555
O2 N7 1_555 1_555
O3 N7 1_555 1_555
O4 N8 1_555 1_555
O5 N8 1_555 1_555
N1 N7 1_555 1_555
N2 C1 1_555 1_555
N3 C2 1_555 1_555
N4 C2 1_555 1_555
N5 C5 1_555 1_555
N6 C4 1_555 1_555
N8 C5 1_555 1_555
C1 N1 1_555 1_555
H1 C1 1_555 1_555
H2 C1 1_555 1_555
C2 N2 1_555 1_555
C3 N1 1_555 1_555
H3 C3 1_555 1_555
H4 C3 1_555 1_555
C4 O1 1_555 1_555
C5 N6 1_555 1_555
H5 N3 1_555 1_555
H6 N2 1_555 1_555
N3 C3 1_555 1_555
N4 C4 1_555 1_555

#END
