
#######################################################################
#
#                 Cambridge Crystallographic Data Centre
#                                CCDC 
#
#######################################################################
#
# If this CIF has been generated from an entry in the Cambridge 
# Structural Database, then it will include bibliographic, chemical, 
# crystal, experimental, refinement or atomic coordinate data resulting 
# from the CCDC's data processing and validation procedures.
#
#######################################################################

data_YANWER
_chemical_formula_moiety         'C3 H4 N6 O3'
_chemical_name_systematic        2-(3-Nitro-1,2,4-oxadiazol-5-yl)guanidine
_symmetry_cell_setting           monoclinic
_symmetry_space_group_name_H-M   'P 21/n'
_symmetry_Int_Tables_number      14
_space_group_name_Hall           '-P 2yn'
loop_
_symmetry_equiv_pos_site_id
_symmetry_equiv_pos_as_xyz
1 x,y,z
2 1/2-x,1/2+y,1/2-z
3 -x,-y,-z
4 1/2+x,1/2-y,1/2+z
_cell_length_a                   3.6038(11)
_cell_length_b                   12.498(4)
_cell_length_c                   14.482(5)
_cell_angle_alpha                90
_cell_angle_beta                 96.989(4)
_cell_angle_gamma                90
_cell_volume                     647.427
_exptl_crystal_colour            yellow
_exptl_crystal_description       platelet
_cell_formula_units_Z            4
loop_
_atom_site_label
_atom_site_type_symbol
_atom_site_fract_x
_atom_site_fract_y
_atom_site_fract_z
O1 O 0.5563(3) 0.77918(7) 0.34775(6)
O2 O 0.4269(3) 0.46806(9) 0.28119(7)
O3 O 0.1454(3) 0.46068(8) 0.40515(8)
N1 N 0.5355(3) 0.67705(9) 0.30559(8)
N2 N 0.3061(3) 0.66909(9) 0.44474(8)
N3 N 0.4124(3) 0.85806(9) 0.47980(8)
N4 N 0.1774(4) 0.76926(10) 0.60548(9)
N5 N 0.2998(4) 0.94871(10) 0.60910(9)
N6 N 0.3153(3) 0.50745(9) 0.34995(8)
C1 C 0.3896(4) 0.62149(10) 0.36756(9)
C2 C 0.4146(4) 0.76904(11) 0.43108(9)
C3 C 0.2924(4) 0.85595(11) 0.56457(9)
H1 H 0.111(5) 0.7755(13) 0.6621(13)
H2 H 0.173(5) 0.7093(15) 0.5774(12)
H3 H 0.199(5) 0.9553(13) 0.6605(12)
H4 H 0.376(5) 1.0054(15) 0.5823(13)
loop_
_geom_bond_atom_site_label_1
_geom_bond_atom_site_label_2
_geom_bond_site_symmetry_1
_geom_bond_site_symmetry_2
O1 N1 1_555 1_555
O2 N6 1_555 1_555
O3 N6 1_555 1_555
N1 C1 1_555 1_555
N2 C1 1_555 1_555
N3 C2 1_555 1_555
N4 C3 1_555 1_555
N5 C3 1_555 1_555
N6 C1 1_555 1_555
C2 O1 1_555 1_555
C3 N3 1_555 1_555
H1 N4 1_555 1_555
H2 N4 1_555 1_555
H3 N5 1_555 1_555
H4 N5 1_555 1_555
N2 C2 1_555 1_555

#END
