
#######################################################################
#
#                 Cambridge Crystallographic Data Centre
#                                CCDC 
#
#######################################################################
#
# If this CIF has been generated from an entry in the Cambridge 
# Structural Database, then it will include bibliographic, chemical, 
# crystal, experimental, refinement or atomic coordinate data resulting 
# from the CCDC's data processing and validation procedures.
#
#######################################################################

data_YAPBIB
_chemical_formula_moiety         'C21 H19 N1 O2'
_chemical_name_systematic        
2-Benzyl-7-methoxy-3,4-dihydro-2H-benzo(g)isoquinolin-1-one
_symmetry_cell_setting           orthorhombic
_symmetry_space_group_name_H-M   'P b c a'
_symmetry_Int_Tables_number      61
_space_group_name_Hall           '-P 2ac 2ab'
loop_
_symmetry_equiv_pos_site_id
_symmetry_equiv_pos_as_xyz
1 x,y,z
2 1/2-x,-y,1/2+z
3 -x,1/2+y,1/2-z
4 1/2+x,1/2-y,-z
5 -x,-y,-z
6 1/2+x,y,1/2-z
7 x,1/2-y,1/2+z
8 1/2-x,1/2+y,z
_cell_length_a                   12.0504(16)
_cell_length_b                   8.0388(11)
_cell_length_c                   33.425(4)
_cell_angle_alpha                90
_cell_angle_beta                 90
_cell_angle_gamma                90
_cell_volume                     3237.91
_exptl_crystal_colour            colorless
_exptl_crystal_description       prism
_cell_formula_units_Z            8
_exptl_crystal_recrystallization_method 'n-hexane/ethyl acetate'
loop_
_atom_site_label
_atom_site_type_symbol
_atom_site_fract_x
_atom_site_fract_y
_atom_site_fract_z
N1 N 0.44687(10) 0.17125(18) 0.65793(3)
O1 O 0.52542(11) 0.39999(17) 0.63024(3)
O2 O 0.35630(9) 0.06774(14) 0.40052(3)
C1 C 0.47018(12) 0.2723(2) 0.62654(4)
C2 C 0.42744(12) 0.21804(18) 0.58677(4)
C3 C 0.47543(12) 0.28244(19) 0.55300(4)
H1 H 0.5308 0.3624 0.5555
C4 C 0.44248(12) 0.22981(18) 0.51462(4)
C5 C 0.49356(13) 0.2903(2) 0.47916(4)
H2 H 0.5498 0.3691 0.4811
C6 C 0.46170(13) 0.2352(2) 0.44259(4)
H3 H 0.4956 0.2773 0.4197
C7 C 0.37755(13) 0.1146(2) 0.43901(4)
C8 C 0.32448(12) 0.0533(2) 0.47228(4)
H4 H 0.2680 -0.0246 0.4696
C9 C 0.35659(11) 0.11004(18) 0.51091(4)
C10 C 0.30774(12) 0.0465(2) 0.54631(4)
H5 H 0.2508 -0.0312 0.5443
C11 C 0.34251(11) 0.09700(18) 0.58360(4)
C12 C 0.29760(13) 0.0272(2) 0.62210(4)
H6 H 0.2651 -0.0814 0.6172
H7 H 0.2400 0.0998 0.6324
C13 C 0.39010(14) 0.0118(2) 0.65250(5)
H8 H 0.3596 -0.0247 0.6779
H9 H 0.4430 -0.0712 0.6436
C14 C 0.50534(13) 0.1957(2) 0.69576(4)
H10 H 0.5562 0.2883 0.6928
H11 H 0.5492 0.0972 0.7013
C15 C 0.43060(12) 0.22919(19) 0.73112(4)
C16 C 0.33285(12) 0.3168(2) 0.72712(5)
H12 H 0.3098 0.3509 0.7019
C17 C 0.26875(14) 0.3546(2) 0.76010(5)
H13 H 0.2033 0.4144 0.7569
C18 C 0.30068(15) 0.3046(2) 0.79757(5)
H14 H 0.2575 0.3311 0.8197
C19 C 0.39641(15) 0.2157(2) 0.80211(4)
H15 H 0.4180 0.1801 0.8274
C20 C 0.46174(13) 0.1781(2) 0.76902(4)
H16 H 0.5270 0.1181 0.7724
C21 C 0.27843(14) -0.0628(2) 0.39432(5)
H17 H 0.2709 -0.0835 0.3662
H18 H 0.2078 -0.0310 0.4052
H19 H 0.3041 -0.1619 0.4074
loop_
_geom_bond_atom_site_label_1
_geom_bond_atom_site_label_2
_geom_bond_site_symmetry_1
_geom_bond_site_symmetry_2
N1 C1 1_555 1_555
O1 C1 1_555 1_555
O2 C7 1_555 1_555
C1 C2 1_555 1_555
C2 C3 1_555 1_555
C3 H1 1_555 1_555
C4 C3 1_555 1_555
C5 C4 1_555 1_555
H2 C5 1_555 1_555
C6 C5 1_555 1_555
H3 C6 1_555 1_555
C7 C6 1_555 1_555
C8 C7 1_555 1_555
H4 C8 1_555 1_555
C9 C4 1_555 1_555
C10 C9 1_555 1_555
H5 C10 1_555 1_555
C11 C2 1_555 1_555
C12 C11 1_555 1_555
H6 C12 1_555 1_555
H7 C12 1_555 1_555
C13 N1 1_555 1_555
H8 C13 1_555 1_555
H9 C13 1_555 1_555
C14 N1 1_555 1_555
H10 C14 1_555 1_555
H11 C14 1_555 1_555
C15 C14 1_555 1_555
C16 C15 1_555 1_555
H12 C16 1_555 1_555
C17 C16 1_555 1_555
H13 C17 1_555 1_555
C18 C17 1_555 1_555
H14 C18 1_555 1_555
C19 C18 1_555 1_555
H15 C19 1_555 1_555
C20 C15 1_555 1_555
H16 C20 1_555 1_555
C21 O2 1_555 1_555
H17 C21 1_555 1_555
H18 C21 1_555 1_555
H19 C21 1_555 1_555
C8 C9 1_555 1_555
C10 C11 1_555 1_555
C12 C13 1_555 1_555
C19 C20 1_555 1_555

#END
