
#######################################################################
#
#                 Cambridge Crystallographic Data Centre
#                                CCDC 
#
#######################################################################
#
# If this CIF has been generated from an entry in the Cambridge 
# Structural Database, then it will include bibliographic, chemical, 
# crystal, experimental, refinement or atomic coordinate data resulting 
# from the CCDC's data processing and validation procedures.
#
#######################################################################

data_YAPBAT
_chemical_formula_moiety         'C22 H19 N1 O3'
_chemical_name_systematic        
2-Benzyl-7-(methoxycarbonyl)-3,4-dihydro-2H-benzo(g)isoquinolin-1-one
_symmetry_cell_setting           triclinic
_symmetry_space_group_name_H-M   'P 1'
_symmetry_Int_Tables_number      1
_space_group_name_Hall           'P 1'
loop_
_symmetry_equiv_pos_site_id
_symmetry_equiv_pos_as_xyz
1 x,y,z
_cell_length_a                   8.818(4)
_cell_length_b                   12.692(4)
_cell_length_c                   8.517(3)
_cell_angle_alpha                107.82(2)
_cell_angle_beta                 107.86(3)
_cell_angle_gamma                82.04(3)
_cell_volume                     862.693
_exptl_crystal_colour            colorless
_exptl_crystal_description       prism
_chemical_melting_point          '147-149 deg.C'
_cell_formula_units_Z            2
_exptl_crystal_recrystallization_method 'n-hexane/ethyl acetate'
loop_
_atom_site_label
_atom_site_type_symbol
_atom_site_fract_x
_atom_site_fract_y
_atom_site_fract_z
O1 O -0.186(1) 1.6306(7) 0.357(1)
O2 O -0.608(1) 1.0706(8) -0.602(1)
O3 O -0.375(1) 0.9869(8) -0.505(1)
N1 N 0.053(1) 1.5436(8) 0.460(1)
C1 C -0.093(1) 1.5457(8) 0.340(1)
C2 C -0.138(1) 1.4475(8) 0.194(1)
C3 C -0.272(1) 1.4505(8) 0.064(1)
C4 C -0.327(1) 1.3597(8) -0.077(1)
C5 C -0.467(1) 1.3624(8) -0.208(1)
C6 C -0.517(1) 1.2747(8) -0.343(1)
C7 C -0.419(1) 1.1687(8) -0.350(1)
C8 C -0.281(1) 1.1640(8) -0.226(1)
C9 C -0.230(1) 1.2583(8) -0.086(1)
C10 C -0.087(1) 1.2530(8) 0.050(1)
C11 C -0.047(1) 1.3444(8) 0.183(1)
C12 C 0.098(1) 1.3414(8) 0.340(1)
C13 C 0.169(1) 1.4526(8) 0.418(1)
C14 C 0.112(1) 1.6374(8) 0.594(1)
C15 C 0.179(1) 1.6140(8) 0.772(1)
C16 C 0.104(1) 1.5455(8) 0.821(1)
C17 C 0.164(1) 1.5254(8) 0.975(1)
C18 C 0.298(1) 1.5776(9) 1.091(1)
C19 C 0.370(1) 1.6483(8) 1.048(1)
C20 C 0.309(1) 1.6652(8) 0.883(1)
C21 C -0.479(1) 1.0719(9) -0.498(1)
C22 C -0.420(1) 0.8890(8) -0.641(1)
H1 H -0.3218 1.5196 0.0645
H2 H -0.5191 1.4305 -0.2041
H3 H -0.6019 1.2800 -0.4352
H4 H -0.2065 1.0970 -0.2370
H5 H -0.0114 1.1868 0.0405
H6 H 0.0761 1.3220 0.4183
H7 H 0.1874 1.2887 0.2992
H8 H 0.2247 1.4672 0.3355
H9 H 0.2598 1.4513 0.5170
H10 H 0.2065 1.6651 0.5673
H11 H 0.0389 1.6938 0.5972
H12 H 0.0189 1.5130 0.7401
H13 H 0.1251 1.4749 1.0004
H14 H 0.3516 1.5667 1.1987
H15 H 0.4708 1.6865 1.1233
H16 H 0.3710 1.7141 0.8462
H17 H -0.5030 0.8632 -0.6404
H18 H -0.4295 0.9055 -0.7525
H19 H -0.3253 0.8341 -0.6362
O4 O 0.364(1) 0.8160(7) 0.570(1)
O5 O 0.790(1) 1.3717(8) 1.534(1)
O6 O 0.556(1) 1.4575(7) 1.434(1)
N2 N 0.131(1) 0.9050(8) 0.477(1)
C23 C 0.273(1) 0.8962(8) 0.585(1)
C24 C 0.318(1) 0.9998(8) 0.737(1)
C25 C 0.455(1) 0.9899(8) 0.865(1)
C26 C 0.504(1) 1.0847(8) 1.007(1)
C27 C 0.651(1) 1.0818(8) 1.138(1)
C28 C 0.695(1) 1.1782(8) 1.270(1)
C29 C 0.605(1) 1.2711(8) 1.283(1)
C30 C 0.465(1) 1.2776(8) 1.155(1)
C31 C 0.413(1) 1.1844(8) 1.014(1)
C32 C 0.276(1) 1.1880(8) 0.880(1)
C33 C 0.224(1) 1.0985(8) 0.736(1)
C34 C 0.087(1) 1.1036(8) 0.591(1)
C35 C 0.009(1) 0.9928(8) 0.509(1)
C36 C 0.075(1) 0.8047(8) 0.323(1)
C37 C 0.008(1) 0.8322(8) 0.160(1)
C38 C 0.078(1) 0.9062(8) 0.115(1)
C39 C 0.015(1) 0.9209(8) -0.052(1)
C40 C -0.118(1) 0.8692(9) -0.162(1)
C41 C -0.191(1) 0.7993(8) -0.115(1)
C42 C -0.130(1) 0.7798(8) 0.040(1)
C43 C 0.664(1) 1.3704(9) 1.431(1)
C44 C 0.606(1) 1.5590(9) 1.571(1)
H20 H 0.5264 0.9221 0.8546
H21 H 0.7278 1.0163 1.1321
H22 H 0.8050 1.1773 1.3509
H23 H 0.4152 1.3460 1.1587
H24 H 0.2247 1.2562 0.8811
H25 H 0.0228 1.1596 0.6232
H26 H 0.1332 1.1223 0.5030
H27 H -0.0584 0.9948 0.3993
H28 H -0.0311 0.9801 0.5803
H29 H 0.1757 0.7551 0.3116
H30 H 0.0079 0.7717 0.3411
H31 H 0.1762 0.9473 0.1910
H32 H 0.0782 0.9665 -0.0913
H33 H -0.1490 0.8841 -0.2746
H34 H -0.2736 0.7646 -0.1983
H35 H -0.1710 0.7319 0.0653
H36 H 0.6413 1.5449 1.6755
H37 H 0.7089 1.5839 1.5556
H38 H 0.5333 1.6151 1.5593
loop_
_geom_bond_atom_site_label_1
_geom_bond_atom_site_label_2
_geom_bond_site_symmetry_1
_geom_bond_site_symmetry_2
O1 C1 1_555 1_555
O2 C21 1_555 1_555
O3 C21 1_555 1_555
O4 C23 1_555 1_555
O5 C43 1_555 1_555
O6 C43 1_555 1_555
N1 C1 1_555 1_555
N2 C23 1_555 1_555
C1 C2 1_555 1_555
C2 C3 1_555 1_555
C3 C4 1_555 1_555
C4 C5 1_555 1_555
C5 C6 1_555 1_555
C6 C7 1_555 1_555
C7 C8 1_555 1_555
C8 C9 1_555 1_555
C9 C4 1_555 1_555
C10 C9 1_555 1_555
C11 C2 1_555 1_555
C12 C11 1_555 1_555
C13 N1 1_555 1_555
C14 N1 1_555 1_555
C15 C14 1_555 1_555
C16 C15 1_555 1_555
C17 C16 1_555 1_555
C18 C17 1_555 1_555
C19 C18 1_555 1_555
C20 C15 1_555 1_555
C21 C7 1_555 1_555
C22 O3 1_555 1_555
C23 C24 1_555 1_555
C24 C25 1_555 1_555
C25 C26 1_555 1_555
C26 C27 1_555 1_555
C27 C28 1_555 1_555
C28 C29 1_555 1_555
C29 C30 1_555 1_555
C30 C31 1_555 1_555
C31 C26 1_555 1_555
C32 C31 1_555 1_555
C33 C24 1_555 1_555
C34 C33 1_555 1_555
C35 N2 1_555 1_555
C36 N2 1_555 1_555
C37 C36 1_555 1_555
C38 C37 1_555 1_555
C39 C38 1_555 1_555
C40 C39 1_555 1_555
C41 C40 1_555 1_555
C42 C37 1_555 1_555
C43 C29 1_555 1_555
C44 O6 1_555 1_555
H1 C3 1_555 1_555
H2 C5 1_555 1_555
H3 C6 1_555 1_555
H4 C8 1_555 1_555
H5 C10 1_555 1_555
H6 C12 1_555 1_555
H7 C12 1_555 1_555
H8 C13 1_555 1_555
H9 C13 1_555 1_555
H10 C14 1_555 1_555
H11 C14 1_555 1_555
H12 C16 1_555 1_555
H13 C17 1_555 1_555
H14 C18 1_555 1_555
H15 C19 1_555 1_555
H16 C20 1_555 1_555
H17 C22 1_555 1_555
H18 C22 1_555 1_555
H19 C22 1_555 1_555
H20 C25 1_555 1_555
H21 C27 1_555 1_555
H22 C28 1_555 1_555
H23 C30 1_555 1_555
H24 C32 1_555 1_555
H25 C34 1_555 1_555
H26 C34 1_555 1_555
H27 C35 1_555 1_555
H28 C35 1_555 1_555
H29 C36 1_555 1_555
H30 C36 1_555 1_555
H31 C38 1_555 1_555
H32 C39 1_555 1_555
H33 C40 1_555 1_555
H34 C41 1_555 1_555
H35 C42 1_555 1_555
H36 C44 1_555 1_555
H37 C44 1_555 1_555
H38 C44 1_555 1_555
C10 C11 1_555 1_555
C12 C13 1_555 1_555
C19 C20 1_555 1_555
C32 C33 1_555 1_555
C34 C35 1_555 1_555
C41 C42 1_555 1_555

#END
