
#######################################################################
#
#                 Cambridge Crystallographic Data Centre
#                                CCDC 
#
#######################################################################
#
# If this CIF has been generated from an entry in the Cambridge 
# Structural Database, then it will include bibliographic, chemical, 
# crystal, experimental, refinement or atomic coordinate data resulting 
# from the CCDC's data processing and validation procedures.
#
#######################################################################

data_YAPBOI
_chemical_formula_moiety         'C28 H34 N2 O6'
_chemical_name_systematic        
8-(2,2-Dimethyl-1,3-dioxolan-4-yl)-3-hydroxy-1,3-dimethyl-N,6-bis(4-methylphenyl)-5-oxo-2-oxa-6-azabicyclo[2.2.2]octane-7-carboxamide
_symmetry_cell_setting           monoclinic
_symmetry_space_group_name_H-M   'P 21'
_symmetry_Int_Tables_number      4
_space_group_name_Hall           'P 2yb'
loop_
_symmetry_equiv_pos_site_id
_symmetry_equiv_pos_as_xyz
1 x,y,z
2 -x,1/2+y,-z
_cell_length_a                   14.237(6)
_cell_length_b                   12.637(5)
_cell_length_c                   15.016(6)
_cell_angle_alpha                90
_cell_angle_beta                 96.483(10)
_cell_angle_gamma                90
_cell_volume                     2684.3
_exptl_crystal_colour            colorless
_exptl_crystal_description       cubic
_cell_formula_units_Z            4
loop_
_atom_site_label
_atom_site_type_symbol
_atom_site_fract_x
_atom_site_fract_y
_atom_site_fract_z
O1 O 0.4167(2) 0.0833(2) 0.72004(18)
O2 O 0.66091(19) 0.0758(2) 0.91029(19)
O3 O 0.7250(2) 0.2083(3) 0.8347(2)
O4 O 0.3661(2) 0.2853(3) 0.76597(18)
H1 H 0.4160 0.3151 0.7593
O5 O 0.31318(18) 0.1724(2) 0.86825(17)
O6 O 0.47125(19) 0.2903(2) 1.07368(17)
N1 N 0.4619(2) -0.0759(3) 0.77862(19)
H3 H 0.4829 -0.1075 0.8276
N2 N 0.3987(2) 0.1443(2) 1.00917(18)
C1 C 0.4231(3) -0.3471(4) 0.4712(3)
H5 H 0.3928 -0.4118 0.4854
H6 H 0.4849 -0.3624 0.4547
H7 H 0.3861 -0.3128 0.4221
C2 C 0.4318(3) -0.2753(3) 0.5518(3)
C3 C 0.3780(3) -0.1860(4) 0.5545(3)
H8 H 0.3337 -0.1702 0.5060
C4 C 0.3874(3) -0.1181(3) 0.6276(3)
H9 H 0.3508 -0.0571 0.6269
C5 C 0.4501(3) -0.1406(3) 0.6999(2)
C6 C 0.4444(3) 0.0270(3) 0.7855(3)
C7 C 0.4621(3) 0.0746(3) 0.8783(2)
H10 H 0.4998 0.0244 0.9171
C8 C 0.3697(3) 0.0963(3) 0.9194(2)
C9 C 0.3857(3) 0.0940(3) 1.0928(3)
C10 C 0.4582(3) 0.0386(3) 1.1379(3)
H11 H 0.5160 0.0342 1.1147
C11 C 0.4463(3) -0.0111(3) 1.2177(3)
H12 H 0.4964 -0.0491 1.2474
C12 C 0.3640(4) -0.0060(4) 1.2537(3)
C13 C 0.3503(5) -0.0632(5) 1.3404(3)
H13 H 0.3476 -0.1381 1.3298
H14 H 0.2923 -0.0402 1.3612
H15 H 0.4022 -0.0473 1.3849
C14 C 0.5175(2) 0.1793(3) 0.8777(2)
H16 H 0.5261 0.1958 0.8154
C15 C 0.6155(3) 0.1718(3) 0.9309(2)
H17 H 0.6096 0.1748 0.9953
C16 C 0.7337(3) 0.0992(4) 0.8545(3)
C17 C 0.6844(3) 0.2554(4) 0.9070(3)
H18 H 0.6520 0.3208 0.8887
H19 H 0.7320 0.2698 0.9570
C18 C 0.7146(4) 0.0394(5) 0.7681(3)
H20 H 0.6530 0.0578 0.7394
H21 H 0.7169 -0.0352 0.7801
H22 H 0.7615 0.0573 0.7294
C19 C 0.8269(4) 0.0733(6) 0.9050(4)
H23 H 0.8763 0.0883 0.8684
H24 H 0.8284 -0.0004 0.9206
H25 H 0.8359 0.1152 0.9586
C20 C 0.4573(3) 0.2671(3) 0.9127(2)
H26 H 0.4894 0.3355 0.9112
C21 C 0.3593(3) 0.2716(3) 0.8575(3)
C22 C 0.4434(3) 0.2379(3) 1.0070(3)
C23 C 0.3011(3) 0.1003(4) 1.1277(3)
H27 H 0.2509 0.1379 1.0979
C24 C 0.2911(4) 0.0491(5) 1.2091(4)
H28 H 0.2337 0.0530 1.2330
C25 C 0.3091(3) -0.0003(4) 0.9250(3)
H29 H 0.2568 0.0164 0.9576
H30 H 0.3460 -0.0558 0.9553
H31 H 0.2858 -0.0232 0.8656
C26 C 0.2976(3) 0.3589(4) 0.8878(3)
H32 H 0.3234 0.4264 0.8740
H33 H 0.2954 0.3536 0.9513
H34 H 0.2349 0.3522 0.8574
C27 C 0.5038(3) -0.2310(3) 0.6995(2)
H35 H 0.5465 -0.2477 0.7491
C28 C 0.4945(3) -0.2969(3) 0.6258(3)
H36 H 0.5317 -0.3574 0.6263
O7 O -0.05796(16) 0.12084(19) 0.68974(15)
O8 O 0.0727(2) 0.0683(2) 0.78733(17)
H2 H 0.0781 0.1323 0.7953
O9 O 0.03343(17) -0.0077(2) 0.48009(17)
O10 O 0.06943(19) 0.2832(2) 0.78917(17)
O11 O 0.21220(17) 0.30174(19) 0.54743(16)
O12 O 0.3132(2) 0.1899(2) 0.4866(2)
N3 N -0.05308(19) 0.1275(2) 0.53399(18)
N4 N 0.0073(2) 0.4210(2) 0.70770(18)
H4 H -0.0062 0.4439 0.6538
C29 C -0.2859(3) 0.1742(4) 0.1990(3)
H37 H -0.3389 0.2198 0.2044
H38 H -0.3081 0.1059 0.1782
H39 H -0.2472 0.2041 0.1571
C30 C -0.2286(3) 0.1631(4) 0.2889(3)
C31 C -0.1773(3) 0.2462(4) 0.3273(3)
H40 H -0.1813 0.3116 0.2986
C32 C -0.1197(3) 0.2362(3) 0.4075(3)
H41 H -0.0840 0.2935 0.4308
C33 C -0.1156(2) 0.1412(3) 0.4525(2)
C34 C -0.0561(2) 0.1919(3) 0.6169(2)
C35 C 0.0351(2) 0.2589(3) 0.6296(2)
H42 H 0.0344 0.3085 0.5793
C36 C 0.0400(2) 0.3219(3) 0.7166(3)
C37 C -0.0075(3) 0.4927(3) 0.7780(2)
C38 C -0.0171(4) 0.4618(4) 0.8640(3)
H43 H -0.0118 0.3907 0.8796
C39 C -0.0345(4) 0.5361(5) 0.9274(3)
H44 H -0.0418 0.5132 0.9850
C40 C -0.0413(3) 0.6406(4) 0.9092(3)
C41 C -0.0588(4) 0.7223(5) 0.9806(4)
H45 H -0.0676 0.6867 1.0355
H46 H -0.1144 0.7626 0.9606
H47 H -0.0054 0.7689 0.9904
C42 C -0.2229(3) 0.0677(4) 0.3353(3)
H48 H -0.2571 0.0098 0.3110
C43 C -0.1680(3) 0.0565(3) 0.4163(3)
H49 H -0.1663 -0.0079 0.4465
C44 C 0.0220(3) 0.0491(3) 0.7039(3)
C45 C 0.0811(2) 0.0673(3) 0.6263(2)
H50 H 0.1331 0.0162 0.6291
C46 C 0.0186(3) 0.0562(3) 0.5396(2)
C47 C 0.1203(2) 0.1821(3) 0.6271(2)
H51 H 0.1647 0.1925 0.6812
C48 C -0.0164(4) 0.5968(3) 0.7570(3)
H52 H -0.0114 0.6196 0.6989
C49 C -0.0331(4) 0.6693(4) 0.8231(4)
H53 H -0.0390 0.7405 0.8078
C50 C 0.1715(2) 0.1995(3) 0.5453(2)
H54 H 0.1268 0.1919 0.4911
C51 C 0.2899(3) 0.2988(3) 0.4948(3)
C52 C 0.2568(3) 0.1295(3) 0.5381(3)
H55 H 0.2898 0.1144 0.5968
H56 H 0.2384 0.0632 0.5085
C53 C 0.2620(4) 0.3416(6) 0.4035(3)
H57 H 0.3145 0.3364 0.3688
H58 H 0.2439 0.4145 0.4078
H59 H 0.2097 0.3017 0.3750
C54 C 0.3709(4) 0.3558(5) 0.5455(4)
H60 H 0.3889 0.3202 0.6013
H61 H 0.3525 0.4271 0.5570
H62 H 0.4235 0.3567 0.5107
C55 C -0.0170(3) -0.0616(3) 0.7058(3)
H63 H 0.0338 -0.1105 0.7213
H64 H -0.0486 -0.0792 0.6478
H65 H -0.0612 -0.0656 0.7496
C56 C -0.1461(2) 0.2547(3) 0.6145(2)
H66 H -0.1991 0.2096 0.5964
H67 H -0.1449 0.3118 0.5725
H68 H -0.1518 0.2828 0.6730
loop_
_geom_bond_atom_site_label_1
_geom_bond_atom_site_label_2
_geom_bond_site_symmetry_1
_geom_bond_site_symmetry_2
O1 C6 1_555 1_555
O2 C15 1_555 1_555
O3 C16 1_555 1_555
O4 H1 1_555 1_555
O5 C8 1_555 1_555
O6 C22 1_555 1_555
O7 C34 1_555 1_555
O8 H2 1_555 1_555
O9 C46 1_555 1_555
O10 C36 1_555 1_555
O11 C50 1_555 1_555
O12 C51 1_555 1_555
N1 H3 1_555 1_555
N2 C8 1_555 1_555
N3 C33 1_555 1_555
N4 H4 1_555 1_555
C1 H5 1_555 1_555
H6 C1 1_555 1_555
H7 C1 1_555 1_555
C2 C1 1_555 1_555
C3 C2 1_555 1_555
H8 C3 1_555 1_555
C4 C3 1_555 1_555
H9 C4 1_555 1_555
C5 N1 1_555 1_555
C6 N1 1_555 1_555
C7 C6 1_555 1_555
H10 C7 1_555 1_555
C8 C7 1_555 1_555
C9 N2 1_555 1_555
C10 C9 1_555 1_555
H11 C10 1_555 1_555
C11 C10 1_555 1_555
H12 C11 1_555 1_555
C12 C11 1_555 1_555
C13 C12 1_555 1_555
H13 C13 1_555 1_555
H14 C13 1_555 1_555
H15 C13 1_555 1_555
C14 C7 1_555 1_555
H16 C14 1_555 1_555
C15 C14 1_555 1_555
H17 C15 1_555 1_555
C16 O2 1_555 1_555
C17 O3 1_555 1_555
H18 C17 1_555 1_555
H19 C17 1_555 1_555
C18 C16 1_555 1_555
H20 C18 1_555 1_555
H21 C18 1_555 1_555
H22 C18 1_555 1_555
C19 C16 1_555 1_555
H23 C19 1_555 1_555
H24 C19 1_555 1_555
H25 C19 1_555 1_555
C20 C14 1_555 1_555
H26 C20 1_555 1_555
C21 O4 1_555 1_555
C22 N2 1_555 1_555
C23 C9 1_555 1_555
H27 C23 1_555 1_555
C24 C12 1_555 1_555
H28 C24 1_555 1_555
C25 C8 1_555 1_555
H29 C25 1_555 1_555
H30 C25 1_555 1_555
H31 C25 1_555 1_555
C26 C21 1_555 1_555
H32 C26 1_555 1_555
H33 C26 1_555 1_555
H34 C26 1_555 1_555
C27 C5 1_555 1_555
H35 C27 1_555 1_555
C28 C2 1_555 1_555
H36 C28 1_555 1_555
C29 H37 1_555 1_555
H38 C29 1_555 1_555
H39 C29 1_555 1_555
C30 C29 1_555 1_555
C31 C30 1_555 1_555
H40 C31 1_555 1_555
C32 C31 1_555 1_555
H41 C32 1_555 1_555
C33 C32 1_555 1_555
C34 N3 1_555 1_555
C35 C34 1_555 1_555
H42 C35 1_555 1_555
C36 N4 1_555 1_555
C37 N4 1_555 1_555
C38 C37 1_555 1_555
H43 C38 1_555 1_555
C39 C38 1_555 1_555
H44 C39 1_555 1_555
C40 C39 1_555 1_555
C41 C40 1_555 1_555
H45 C41 1_555 1_555
H46 C41 1_555 1_555
H47 C41 1_555 1_555
C42 C30 1_555 1_555
H48 C42 1_555 1_555
C43 C33 1_555 1_555
H49 C43 1_555 1_555
C44 O7 1_555 1_555
C45 C44 1_555 1_555
H50 C45 1_555 1_555
C46 N3 1_555 1_555
C47 C35 1_555 1_555
H51 C47 1_555 1_555
C48 C37 1_555 1_555
H52 C48 1_555 1_555
C49 C40 1_555 1_555
H53 C49 1_555 1_555
C50 C47 1_555 1_555
H54 C50 1_555 1_555
C51 O11 1_555 1_555
C52 O12 1_555 1_555
H55 C52 1_555 1_555
H56 C52 1_555 1_555
C53 C51 1_555 1_555
H57 C53 1_555 1_555
H58 C53 1_555 1_555
H59 C53 1_555 1_555
C54 C51 1_555 1_555
H60 C54 1_555 1_555
H61 C54 1_555 1_555
H62 C54 1_555 1_555
C55 C44 1_555 1_555
H63 C55 1_555 1_555
H64 C55 1_555 1_555
H65 C55 1_555 1_555
C56 C34 1_555 1_555
H66 C56 1_555 1_555
H67 C56 1_555 1_555
H68 C56 1_555 1_555
O5 C21 1_555 1_555
O8 C44 1_555 1_555
C4 C5 1_555 1_555
C15 C17 1_555 1_555
C20 C21 1_555 1_555
C20 C22 1_555 1_555
C23 C24 1_555 1_555
C27 C28 1_555 1_555
C35 C36 1_555 1_555
C42 C43 1_555 1_555
C45 C46 1_555 1_555
C45 C47 1_555 1_555
C48 C49 1_555 1_555
C50 C52 1_555 1_555

#END
