
#######################################################################
#
#                 Cambridge Crystallographic Data Centre
#                                CCDC 
#
#######################################################################
#
# If this CIF has been generated from an entry in the Cambridge 
# Structural Database, then it will include bibliographic, chemical, 
# crystal, experimental, refinement or atomic coordinate data resulting 
# from the CCDC's data processing and validation procedures.
#
#######################################################################

data_YAPDOL
_chemical_formula_moiety         'C23 H16 S1'
_chemical_name_systematic        4-[2-(methylsulfanyl)phenyl]pyrene
_symmetry_cell_setting           monoclinic
_symmetry_space_group_name_H-M   'P 21/c'
_symmetry_Int_Tables_number      14
_space_group_name_Hall           '-P 2ybc'
loop_
_symmetry_equiv_pos_site_id
_symmetry_equiv_pos_as_xyz
1 x,y,z
2 -x,1/2+y,1/2-z
3 -x,-y,-z
4 x,1/2-y,1/2+z
_cell_length_a                   10.2837(2)
_cell_length_b                   14.8777(2)
_cell_length_c                   10.9847(2)
_cell_angle_alpha                90
_cell_angle_beta                 102.3910(10)
_cell_angle_gamma                90
_cell_volume                     1641.49
_exptl_crystal_colour            colorless
_exptl_crystal_description       plate
_cell_formula_units_Z            4
loop_
_atom_site_label
_atom_site_type_symbol
_atom_site_fract_x
_atom_site_fract_y
_atom_site_fract_z
S1 S 0.48169(8) 0.08529(4) 0.61812(6)
C1 C 0.8617(5) -0.1841(2) 1.0945(5)
C2 C 0.8948(3) -0.14635(19) 0.9924(4)
C3 C 0.8285(3) -0.06324(17) 0.9443(3)
C4 C 0.7331(3) -0.02513(17) 1.0039(2)
C5 C 0.6705(3) 0.05615(15) 0.9558(2)
H1 H 0.6086 0.0828 0.9950
C6 C 0.7003(3) 0.09682(14) 0.8503(2)
C7 C 0.6317(3) 0.18397(13) 0.8032(2)
C8 C 0.5287(3) 0.18769(12) 0.69720(19)
C9 C 0.4668(3) 0.26954(14) 0.6615(2)
C10 C 0.5080(3) 0.34602(15) 0.7286(3)
C11 C 0.3380(5) 0.1142(2) 0.5010(4)
C12 C 0.8638(3) -0.02248(16) 0.8396(3)
C13 C 0.9614(3) -0.0583(2) 0.7843(4)
C14 C 0.9967(4) -0.0114(3) 0.6818(4)
H2 H 1.0635 -0.0338 0.6450
C15 C 0.9330(5) 0.0649(3) 0.6393(5)
C16 C 0.8340(4) 0.1009(2) 0.6929(4)
C17 C 0.7967(3) 0.06019(16) 0.7906(3)
C18 C 1.0253(4) -0.1367(2) 0.8311(5)
H3 H 1.0918 -0.1600 0.7948
C19 C 0.9930(4) -0.1805(2) 0.9285(5)
C20 C 0.7682(5) -0.1465(3) 1.1511(3)
H4 H 0.7470 -0.1741 1.2203
C21 C 0.7065(4) -0.0688(2) 1.1059(3)
H5 H 0.6436 -0.0443 1.1457
C22 C 0.6682(3) 0.26205(15) 0.8707(3)
C23 C 0.6057(3) 0.34303(16) 0.8320(3)
H6 H 0.639(2) 0.390(2) 0.879(2)
H7 H 0.920(4) -0.232(3) 1.145(3)
H8 H 1.018(4) -0.251(3) 0.972(4)
H9 H 0.791(3) 0.150(2) 0.649(2)
H10 H 0.956(5) 0.110(4) 0.566(4)
H11 H 0.354(3) 0.166(3) 0.443(3)
H12 H 0.306(3) 0.057(2) 0.458(3)
H13 H 0.268(3) 0.136(2) 0.541(3)
H14 H 0.748(2) 0.2547(16) 0.957(2)
H15 H 0.471(2) 0.401(2) 0.701(2)
H16 H 0.394(3) 0.2760(19) 0.583(3)
loop_
_geom_bond_atom_site_label_1
_geom_bond_atom_site_label_2
_geom_bond_site_symmetry_1
_geom_bond_site_symmetry_2
S1 C8 1_555 1_555
C1 C2 1_555 1_555
C2 C3 1_555 1_555
C3 C4 1_555 1_555
C4 C5 1_555 1_555
C5 H1 1_555 1_555
C6 C5 1_555 1_555
C7 C6 1_555 1_555
C8 C7 1_555 1_555
C9 C8 1_555 1_555
C10 C9 1_555 1_555
C11 S1 1_555 1_555
C12 C3 1_555 1_555
C13 C12 1_555 1_555
C14 C13 1_555 1_555
H2 C14 1_555 1_555
C15 C14 1_555 1_555
C16 C15 1_555 1_555
C17 C6 1_555 1_555
C18 C13 1_555 1_555
H3 C18 1_555 1_555
C19 C2 1_555 1_555
C20 C1 1_555 1_555
H4 C20 1_555 1_555
C21 C4 1_555 1_555
H5 C21 1_555 1_555
C22 C7 1_555 1_555
C23 C10 1_555 1_555
H6 C23 1_555 1_555
H7 C1 1_555 1_555
H8 C19 1_555 1_555
H9 C16 1_555 1_555
H10 C15 1_555 1_555
H11 C11 1_555 1_555
H12 C11 1_555 1_555
H13 C11 1_555 1_555
H14 C22 1_555 1_555
H15 C10 1_555 1_555
H16 C9 1_555 1_555
C12 C17 1_555 1_555
C16 C17 1_555 1_555
C18 C19 1_555 1_555
C20 C21 1_555 1_555
C22 C23 1_555 1_555

#END
