
#######################################################################
#
#                 Cambridge Crystallographic Data Centre
#                                CCDC 
#
#######################################################################
#
# If this CIF has been generated from an entry in the Cambridge 
# Structural Database, then it will include bibliographic, chemical, 
# crystal, experimental, refinement or atomic coordinate data resulting 
# from the CCDC's data processing and validation procedures.
#
#######################################################################

data_YAPDIE
_chemical_name_common            'Cyanogriside B'
_chemical_formula_moiety         'C19 H22 N2 O7,2.63(H2 O1)'
_chemical_name_systematic        
"8-(Hydroxymethyl)-3,4a-dimethoxy-2-methyl-6-(pyridin-2-yl)-3,4,4a,10a-tetrahydro-2H-pyrano[2',3':5,6][1,4]dioxino[2,3-c]pyridin-4-ol hydrate"
_symmetry_cell_setting           tetragonal
_symmetry_space_group_name_H-M   'I 4'
_symmetry_Int_Tables_number      79
_space_group_name_Hall           'I 4'
loop_
_symmetry_equiv_pos_site_id
_symmetry_equiv_pos_as_xyz
1 x,y,z
2 -y,x,z
3 -x,-y,z
4 y,-x,z
5 1/2+x,1/2+y,1/2+z
6 1/2-y,1/2+x,1/2+z
7 1/2-x,1/2-y,1/2+z
8 1/2+y,1/2-x,1/2+z
_cell_length_a                   24.470(3)
_cell_length_b                   24.470(3)
_cell_length_c                   7.3590(10)
_cell_angle_alpha                90
_cell_angle_beta                 90
_cell_angle_gamma                90
_cell_volume                     4406.43
_cell_formula_units_Z            8
loop_
_atom_site_label
_atom_site_type_symbol
_atom_site_fract_x
_atom_site_fract_y
_atom_site_fract_z
N1 N 0.2002(2) 0.2169(2) 0.4348(10)
N2 N 0.1943(2) 0.3255(3) 0.3483(10)
O1 O 0.34421(17) 0.24721(17) 0.3738(8)
O2 O 0.34569(17) 0.13379(17) 0.4306(8)
O3 O 0.43821(19) 0.1338(2) 0.4451(9)
O4 O 0.43732(19) 0.2510(2) 0.3919(8)
O5 O 0.4050(2) 0.2443(2) 0.0343(8)
H1 H 0.3745 0.2565 0.0116
O6 O 0.4512(2) 0.1414(2) -0.0494(9)
O7 O 0.1498(3) 0.0802(3) 0.388(2)
H2 H 0.1190 0.0678 0.3728
C1 C 0.2021(3) 0.1623(3) 0.4452(13)
C2 C 0.2502(3) 0.1334(3) 0.4440(12)
H11 H 0.2502 0.0956 0.4546
C3 C 0.2981(3) 0.1616(3) 0.4270(12)
C4 C 0.2970(3) 0.2187(3) 0.4043(11)
C5 C 0.2471(3) 0.2450(3) 0.4125(10)
C6 C 0.2418(3) 0.3058(3) 0.4071(11)
C7 C 0.2831(3) 0.3402(3) 0.4723(13)
H12 H 0.3163 0.3256 0.5106
C8 C 0.2745(4) 0.3946(3) 0.4795(14)
H13 H 0.3012 0.4180 0.5249
C9 C 0.2240(4) 0.4153(3) 0.4164(13)
H14 H 0.2170 0.4527 0.4174
C10 C 0.1861(3) 0.3795(3) 0.3545(13)
H15 H 0.1528 0.3932 0.3144
C11 C 0.3924(3) 0.1657(3) 0.4698(12)
H16 H 0.3908 0.1773 0.5971
C12 C 0.3940(3) 0.2158(3) 0.3494(12)
C13 C 0.4002(3) 0.1992(3) 0.1501(12)
H17 H 0.3678 0.1783 0.1143
C14 C 0.4499(3) 0.1624(3) 0.1331(12)
H18 H 0.4832 0.1837 0.1564
C15 C 0.4475(3) 0.1153(3) 0.2596(12)
H19 H 0.4166 0.0922 0.2239
C16 C 0.4969(3) 0.0807(4) 0.2645(15)
H20 H 0.5266 0.1010 0.3162
H21 H 0.5062 0.0697 0.1432
H22 H 0.4899 0.0489 0.3373
C17 C 0.4360(4) 0.2776(4) 0.5623(14)
H23 H 0.4242 0.3147 0.5464
H24 H 0.4720 0.2773 0.6148
H25 H 0.4111 0.2589 0.6416
C18 C 0.4983(4) 0.1539(5) -0.1521(15)
H26 H 0.4989 0.1923 -0.1785
H27 H 0.4976 0.1336 -0.2638
H28 H 0.5303 0.1442 -0.0840
C19 C 0.1460(4) 0.1334(3) 0.4587(18)
H29 H 0.1345 0.1319 0.5848
H30 H 0.1189 0.1540 0.3912
O8 O 0.1772(4) 0.9929(4) 0.576(2)
H3 H 0.2019 0.9710 0.5403
H4 H 0.1740 1.0186 0.4994
O9 O 0.0000 0.0000 0.540(10)
O10 O 0.0921(10) 0.9862(11) 0.809(5)
H7 H 0.1169 0.9891 0.7287
H8 H 0.0714 1.0140 0.8026
O11 O 0.0867(6) 0.0374(6) 0.159(3)
H9 H 0.0915 0.0222 0.0568
H10 H 0.0543 0.0497 0.1632
H5? H 0.0247 -0.0077 0.6174
H6? H -0.0036 0.0345 0.5376
loop_
_geom_bond_atom_site_label_1
_geom_bond_atom_site_label_2
_geom_bond_site_symmetry_1
_geom_bond_site_symmetry_2
N1 C1 1_555 1_555
N2 C6 1_555 1_555
O1 C4 1_555 1_555
O2 C3 1_555 1_555
O3 C11 1_555 1_555
O4 C12 1_555 1_555
O5 H1 1_555 1_555
O6 C14 1_555 1_555
O7 H2 1_555 1_555
O8 H3 1_555 1_555
H4 O8 1_555 1_555
O10 H7 1_555 1_555
H8 O10 1_555 1_555
O11 H9 1_555 1_555
H10 O11 1_555 1_555
C1 C2 1_555 1_555
C2 H11 1_555 1_555
C3 C2 1_555 1_555
C4 C3 1_555 1_555
C5 N1 1_555 1_555
C6 C5 1_555 1_555
C7 C6 1_555 1_555
H12 C7 1_555 1_555
C8 C7 1_555 1_555
H13 C8 1_555 1_555
C9 C8 1_555 1_555
H14 C9 1_555 1_555
C10 N2 1_555 1_555
H15 C10 1_555 1_555
C11 O2 1_555 1_555
H16 C11 1_555 1_555
C12 O1 1_555 1_555
C13 O5 1_555 1_555
H17 C13 1_555 1_555
C14 C13 1_555 1_555
H18 C14 1_555 1_555
C15 O3 1_555 1_555
H19 C15 1_555 1_555
C16 C15 1_555 1_555
H20 C16 1_555 1_555
H21 C16 1_555 1_555
H22 C16 1_555 1_555
C17 O4 1_555 1_555
H23 C17 1_555 1_555
H24 C17 1_555 1_555
H25 C17 1_555 1_555
C18 O6 1_555 1_555
H26 C18 1_555 1_555
H27 C18 1_555 1_555
H28 C18 1_555 1_555
C19 O7 1_555 1_555
H29 C19 1_555 1_555
H30 C19 1_555 1_555
C1 C19 1_555 1_555
C4 C5 1_555 1_555
C9 C10 1_555 1_555
C11 C12 1_555 1_555
C12 C13 1_555 1_555
C14 C15 1_555 1_555

#END
