
#######################################################################
#
#                 Cambridge Crystallographic Data Centre
#                                CCDC 
#
#######################################################################
#
# If this CIF has been generated from an entry in the Cambridge 
# Structural Database, then it will include bibliographic, chemical, 
# crystal, experimental, refinement or atomic coordinate data resulting 
# from the CCDC's data processing and validation procedures.
#
#######################################################################

data_YAPDEA
_chemical_name_common            'Cyanogriside A'
_chemical_formula_moiety         'C19 H21 N3 O7'
_chemical_name_systematic        
8-((Hydroxyimino)methyl)-3,4a-dimethoxy-2-methyl-6-(pyridin-2-yl)-3,4,4a,10a-tetrahydro-2H-pyrano[2',3':5,6][1,4]dioxino[2,3-c]pyridin-4-ol
_symmetry_cell_setting           orthorhombic
_symmetry_space_group_name_H-M   'P 21 21 21'
_symmetry_Int_Tables_number      19
_space_group_name_Hall           'P 2ac 2ab'
loop_
_symmetry_equiv_pos_site_id
_symmetry_equiv_pos_as_xyz
1 x,y,z
2 1/2-x,-y,1/2+z
3 -x,1/2+y,1/2-z
4 1/2+x,1/2-y,-z
_cell_length_a                   7.2572(9)
_cell_length_b                   10.3636(12)
_cell_length_c                   25.073(3)
_cell_angle_alpha                90
_cell_angle_beta                 90
_cell_angle_gamma                90
_cell_volume                     1885.76
_cell_formula_units_Z            4
loop_
_atom_site_label
_atom_site_type_symbol
_atom_site_fract_x
_atom_site_fract_y
_atom_site_fract_z
N1 N 0.1206(3) 0.38771(17) -0.00843(7)
N2 N 0.1092(3) 0.22974(19) -0.09207(8)
N3 N 0.0208(3) 0.68456(19) 0.05168(9)
O1 O 0.1440(2) 0.08942(14) 0.06763(6)
O2 O 0.1695(3) 0.27407(16) 0.14896(6)
O3 O 0.1775(3) 0.11838(17) 0.21264(6)
O4 O 0.1538(2) -0.07430(16) 0.12792(7)
O5 O -0.2028(2) -0.01640(16) 0.10021(7)
H1 H -0.2466 0.0265 0.0758
O6 O -0.3174(3) 0.0462(2) 0.20582(8)
O7 O -0.0132(3) 0.80576(17) 0.02955(8)
H2 H -0.0539 0.8541 0.0526
C1 C 0.0818(4) 0.6067(2) 0.01675(10)
H3 H 0.1051 0.6347 -0.0178
C2 C 0.1146(4) 0.4723(2) 0.03186(10)
C3 C 0.1322(4) 0.4366(2) 0.08489(9)
H4 H 0.1336 0.4984 0.1118
C4 C 0.1474(4) 0.3093(2) 0.09649(9)
C5 C 0.1396(4) 0.2184(2) 0.05579(9)
C6 C 0.1287(3) 0.2600(2) 0.00261(10)
C7 C 0.1247(3) 0.1713(2) -0.04455(9)
C8 C 0.1339(5) 0.0391(2) -0.04116(11)
H5 H 0.1442 -0.0005 -0.0080
C9 C 0.1277(5) -0.0347(3) -0.08680(12)
H6 H 0.1348 -0.1241 -0.0846
C10 C 0.1114(4) 0.0236(3) -0.13488(11)
H7 H 0.1055 -0.0242 -0.1662
C11 C 0.1039(4) 0.1560(3) -0.13568(10)
H8 H 0.0946 0.1967 -0.1686
C12 C 0.2161(4) 0.1421(2) 0.15946(10)
H9 H 0.3480 0.1292 0.1531
C13 C 0.1063(4) 0.0546(2) 0.12223(9)
C14 C -0.0988(4) 0.0647(2) 0.13417(9)
H10 H -0.1376 0.1541 0.1282
C15 C -0.1275(4) 0.0324(3) 0.19305(10)
H11 H -0.0878 -0.0564 0.2001
C16 C -0.0147(4) 0.1258(3) 0.22685(10)
H12 H -0.0586 0.2138 0.2203
C17 C -0.0244(5) 0.0986(4) 0.28617(11)
H13 H 0.0198 0.0129 0.2931
H14 H -0.1497 0.1058 0.2980
H15 H 0.0507 0.1598 0.3050
C18 C 0.3316(4) -0.1134(3) 0.10913(12)
H16 H 0.3313 -0.1156 0.0709
H17 H 0.3598 -0.1978 0.1227
H18 H 0.4229 -0.0532 0.1212
C19 C -0.3963(4) -0.0654(4) 0.22920(14)
H19 H -0.3755 -0.1384 0.2064
H20 H -0.5264 -0.0526 0.2337
H21 H -0.3404 -0.0808 0.2633
loop_
_geom_bond_atom_site_label_1
_geom_bond_atom_site_label_2
_geom_bond_site_symmetry_1
_geom_bond_site_symmetry_2
N1 C2 1_555 1_555
N2 C7 1_555 1_555
N3 O7 1_555 1_555
O1 C5 1_555 1_555
O2 C4 1_555 1_555
O3 C12 1_555 1_555
O4 C13 1_555 1_555
O5 H1 1_555 1_555
O6 C15 1_555 1_555
O7 H2 1_555 1_555
C1 N3 1_555 1_555
H3 C1 1_555 1_555
C2 C1 1_555 1_555
C3 C2 1_555 1_555
H4 C3 1_555 1_555
C4 C3 1_555 1_555
C5 C4 1_555 1_555
C6 N1 1_555 1_555
C7 C6 1_555 1_555
C8 C7 1_555 1_555
H5 C8 1_555 1_555
C9 C8 1_555 1_555
H6 C9 1_555 1_555
C10 C9 1_555 1_555
H7 C10 1_555 1_555
C11 N2 1_555 1_555
H8 C11 1_555 1_555
C12 O2 1_555 1_555
H9 C12 1_555 1_555
C13 O1 1_555 1_555
C14 O5 1_555 1_555
H10 C14 1_555 1_555
C15 C14 1_555 1_555
H11 C15 1_555 1_555
C16 O3 1_555 1_555
H12 C16 1_555 1_555
C17 C16 1_555 1_555
H13 C17 1_555 1_555
H14 C17 1_555 1_555
H15 C17 1_555 1_555
C18 O4 1_555 1_555
H16 C18 1_555 1_555
H17 C18 1_555 1_555
H18 C18 1_555 1_555
C19 O6 1_555 1_555
H19 C19 1_555 1_555
H20 C19 1_555 1_555
H21 C19 1_555 1_555
C5 C6 1_555 1_555
C10 C11 1_555 1_555
C12 C13 1_555 1_555
C13 C14 1_555 1_555
C15 C16 1_555 1_555

#END
