
#######################################################################
#
#                 Cambridge Crystallographic Data Centre
#                                CCDC 
#
#######################################################################
#
# If this CIF has been generated from an entry in the Cambridge 
# Structural Database, then it will include bibliographic, chemical, 
# crystal, experimental, refinement or atomic coordinate data resulting 
# from the CCDC's data processing and validation procedures.
#
#######################################################################

data_YAPFUT
_chemical_formula_moiety         'C29 H18 S2'
_chemical_name_systematic        
13-[2-(methylsulfanyl)phenyl]phenaleno[2,1,9-mna]thioxanthene
_symmetry_cell_setting           monoclinic
_symmetry_space_group_name_H-M   'P 21/c'
_symmetry_Int_Tables_number      14
_space_group_name_Hall           '-P 2ybc'
loop_
_symmetry_equiv_pos_site_id
_symmetry_equiv_pos_as_xyz
1 x,y,z
2 -x,1/2+y,1/2-z
3 -x,-y,-z
4 x,1/2-y,1/2+z
_cell_length_a                   11.4244(8)
_cell_length_b                   12.1615(8)
_cell_length_c                   15.7616(11)
_cell_angle_alpha                90
_cell_angle_beta                 106.0180(10)
_cell_angle_gamma                90
_cell_volume                     2104.86
_exptl_crystal_colour            colorless
_exptl_crystal_description       plate
_cell_formula_units_Z            4
loop_
_atom_site_label
_atom_site_type_symbol
_atom_site_fract_x
_atom_site_fract_y
_atom_site_fract_z
S1 S 0.45638(5) 0.87768(6) 0.14792(4)
S2 S -0.08969(5) 1.04675(5) 0.19885(4)
C1 C 0.1624(3) 0.5788(2) -0.01594(16)
C2 C 0.0778(2) 0.66412(18) -0.02494(13)
C3 C 0.09519(17) 0.74485(14) 0.04250(11)
C4 C 0.19782(16) 0.73871(14) 0.11693(11)
C5 C 0.21691(15) 0.82416(13) 0.18428(10)
C6 C 0.13331(15) 0.90739(13) 0.17837(10)
C7 C 0.15762(15) 1.00492(13) 0.23726(10)
C8 C 0.27654(18) 1.04311(14) 0.27732(12)
C9 C 0.2984(2) 1.13149(16) 0.33444(13)
C10 C 0.2040(2) 1.18656(17) 0.35240(14)
C11 C 0.5987(3) 0.9464(3) 0.1719(3)
H1 H 0.5929 1.0152 0.2003
H2 H 0.6202 0.9596 0.1180
H3 H 0.6600 0.9015 0.2104
C12 C 0.44508(17) 0.83159(17) 0.25232(13)
C13 C 0.32807(16) 0.81200(14) 0.26075(11)
C14 C 0.3183(2) 0.77950(16) 0.34237(12)
C15 C 0.4163(3) 0.7668(2) 0.41368(17)
C16 C 0.5308(3) 0.7858(3) 0.40413(19)
C17 C 0.5456(2) 0.8176(2) 0.32387(19)
C18 C 0.00554(16) 0.82708(15) 0.03794(11)
C19 C 0.01977(15) 0.90386(13) 0.10838(10)
C20 C 0.0874(2) 1.15738(17) 0.31039(13)
C21 C 0.06358(17) 1.06924(14) 0.25257(11)
C22 C -0.08011(16) 0.97122(15) 0.10726(12)
C23 C -0.18319(18) 0.97229(19) 0.03433(14)
C24 C -0.19205(18) 0.90335(19) -0.03519(14)
C25 C -0.10157(18) 0.82815(17) -0.03454(12)
C26 C -0.1114(2) 0.7491(2) -0.10369(14)
C27 C -0.0273(3) 0.6722(2) -0.09899(14)
C28 C 0.2600(3) 0.57190(19) 0.05689(17)
C29 C 0.2788(2) 0.65107(16) 0.12370(15)
H4 H -0.257(2) 0.9061(18) -0.0880(15)
H5 H -0.243(2) 1.0224(19) 0.0376(14)
H6 H 0.3441(18) 0.6443(16) 0.1694(13)
H7 H 0.322(2) 0.514(2) 0.0622(16)
H8 H 0.145(2) 0.527(2) -0.0601(17)
H9 H -0.034(2) 0.616(2) -0.1479(18)
H10 H -0.185(2) 0.7589(19) -0.1613(16)
H11 H 0.3399(16) 1.0083(15) 0.2623(11)
H12 H 0.379(2) 1.1507(19) 0.3575(14)
H13 H 0.022(2) 1.197(2) 0.3168(16)
H14 H 0.219(2) 1.248(2) 0.3880(18)
H15 H 0.398(2) 0.745(2) 0.4709(18)
H16 H 0.606(3) 0.780(3) 0.451(2)
H17 H 0.621(2) 0.838(2) 0.3137(15)
H18 H 0.248(2) 0.7718(19) 0.3474(14)
loop_
_geom_bond_atom_site_label_1
_geom_bond_atom_site_label_2
_geom_bond_site_symmetry_1
_geom_bond_site_symmetry_2
S1 C11 1_555 1_555
S2 C21 1_555 1_555
C1 C2 1_555 1_555
C2 C3 1_555 1_555
C3 C4 1_555 1_555
C4 C5 1_555 1_555
C5 C6 1_555 1_555
C6 C7 1_555 1_555
C7 C8 1_555 1_555
C8 C9 1_555 1_555
C9 C10 1_555 1_555
C10 C20 1_555 1_555
C11 H1 1_555 1_555
H2 C11 1_555 1_555
H3 C11 1_555 1_555
C12 S1 1_555 1_555
C13 C5 1_555 1_555
C14 C13 1_555 1_555
C15 C14 1_555 1_555
C16 C15 1_555 1_555
C17 C12 1_555 1_555
C18 C3 1_555 1_555
C19 C6 1_555 1_555
C20 C21 1_555 1_555
C21 C7 1_555 1_555
C22 S2 1_555 1_555
C23 C22 1_555 1_555
C24 C23 1_555 1_555
C25 C18 1_555 1_555
C26 C25 1_555 1_555
C27 C2 1_555 1_555
C28 C1 1_555 1_555
C29 C4 1_555 1_555
H4 C24 1_555 1_555
H5 C23 1_555 1_555
H6 C29 1_555 1_555
H7 C28 1_555 1_555
H8 C1 1_555 1_555
H9 C27 1_555 1_555
H10 C26 1_555 1_555
H11 C8 1_555 1_555
H12 C9 1_555 1_555
H13 C20 1_555 1_555
H14 C10 1_555 1_555
H15 C15 1_555 1_555
H16 C16 1_555 1_555
H17 C17 1_555 1_555
H18 C14 1_555 1_555
C12 C13 1_555 1_555
C16 C17 1_555 1_555
C18 C19 1_555 1_555
C19 C22 1_555 1_555
C24 C25 1_555 1_555
C26 C27 1_555 1_555
C28 C29 1_555 1_555

#END
