
#######################################################################
#
#                 Cambridge Crystallographic Data Centre
#                                CCDC 
#
#######################################################################
#
# If this CIF has been generated from an entry in the Cambridge 
# Structural Database, then it will include bibliographic, chemical, 
# crystal, experimental, refinement or atomic coordinate data resulting 
# from the CCDC's data processing and validation procedures.
#
#######################################################################

data_YAPFED
_chemical_formula_moiety         'C20 H24 N2 O5'
_chemical_name_systematic        
'2-ethyl 4-methyl 1-{[(4-methoxyphenyl)imino]methyl}-5-propyl-1H-pyrrole-2,4-dicarboxylate'
_symmetry_cell_setting           monoclinic
_symmetry_space_group_name_H-M   'P 21'
_symmetry_Int_Tables_number      4
_space_group_name_Hall           'P 2yb'
loop_
_symmetry_equiv_pos_site_id
_symmetry_equiv_pos_as_xyz
1 x,y,z
2 -x,1/2+y,-z
_cell_length_a                   10.8506(12)
_cell_length_b                   6.8604(8)
_cell_length_c                   13.0790(14)
_cell_angle_alpha                90
_cell_angle_beta                 97.621(2)
_cell_angle_gamma                90
_cell_volume                     964.994
_cell_formula_units_Z            2
loop_
_atom_site_label
_atom_site_type_symbol
_atom_site_fract_x
_atom_site_fract_y
_atom_site_fract_z
C1 C 1.2484(9) 0.518(6) 1.0989(9)
C2 C 1.1280(5) 0.5368(15) 0.9348(5)
C3 C 1.0195(7) 0.5412(8) 0.9715(6)
C4 C 0.9115(7) 0.5446(13) 0.9021(6)
C5 C 0.9046(6) 0.543(2) 0.8016(5)
C6 C 1.0148(6) 0.540(3) 0.7655(5)
C7 C 1.1258(6) 0.535(3) 0.8318(6)
C8 C 0.7739(6) 0.541(5) 0.6467(5)
C9 C 0.6413(6) 0.543(3) 0.4758(5)
C10 C 0.5187(5) 0.532(3) 0.4418(5)
C11 C 0.4528(6) 0.523(3) 0.5300(5)
C12 C 0.5397(6) 0.529(5) 0.6189(5)
C13 C 0.7465(6) 0.534(3) 0.4169(5)
C14 C 0.8004(7) 0.542(4) 0.2500(6)
C15 C 0.7321(8) 0.542(4) 0.1404(6)
C16 C 0.3195(6) 0.529(4) 0.5300(5)
C17 C 0.1234(6) 0.545(5) 0.4280(7)
N1 N 0.7870(5) 0.537(3) 0.7415(4)
N2 N 0.6573(5) 0.553(3) 0.5870(5)
O1 O 1.2415(4) 0.537(2) 0.9951(4)
O2 O 0.8557(4) 0.533(3) 0.4504(4)
O3 O 0.7037(4) 0.538(3) 0.3160(3)
O4 O 0.2588(4) 0.541(3) 0.4330(4)
O5 O 0.2638(5) 0.537(3) 0.6058(4)
C18 C 0.5174(12) 0.476(3) 0.7277(10)
C19 C 0.5203(12) 0.620(3) 0.9018(11)
C20 C 0.5180(12) 0.669(3) 0.7797(10)
loop_
_geom_bond_atom_site_label_1
_geom_bond_atom_site_label_2
_geom_bond_site_symmetry_1
_geom_bond_site_symmetry_2
C1 O1 1_555 1_555
C2 C3 1_555 1_555
C3 C4 1_555 1_555
C4 C5 1_555 1_555
C5 C6 1_555 1_555
C6 C7 1_555 1_555
C7 C2 1_555 1_555
C8 N1 1_555 1_555
C9 C10 1_555 1_555
C10 C11 1_555 1_555
C11 C12 1_555 1_555
C12 N2 1_555 1_555
C13 C9 1_555 1_555
C14 C15 1_555 1_555
C16 C11 1_555 1_555
C17 O4 1_555 1_555
N1 C5 1_555 1_555
N2 C8 1_555 1_555
O1 C2 1_555 1_555
O2 C13 1_555 1_555
O3 C13 1_555 1_555
O4 C16 1_555 1_555
O5 C16 1_555 1_555
C18 C12 1_555 1_555
C19 C20 1_555 1_555
C20 C18 1_555 1_555
C9 N2 1_555 1_555
C14 O3 1_555 1_555

#END
