
#######################################################################
#
#                 Cambridge Crystallographic Data Centre
#                                CCDC 
#
#######################################################################
#
# If this CIF has been generated from an entry in the Cambridge 
# Structural Database, then it will include bibliographic, chemical, 
# crystal, experimental, refinement or atomic coordinate data resulting 
# from the CCDC's data processing and validation procedures.
#
#######################################################################

data_YAPFAZ01
_chemical_formula_moiety         'C30 H22 S2'
_chemical_name_systematic        syn-4,5-bis[2-(methylsulfanyl)phenyl]pyrene
_symmetry_cell_setting           monoclinic
_symmetry_space_group_name_H-M   'P 21/c'
_symmetry_Int_Tables_number      14
_space_group_name_Hall           '-P 2ybc'
loop_
_symmetry_equiv_pos_site_id
_symmetry_equiv_pos_as_xyz
1 x,y,z
2 -x,1/2+y,1/2-z
3 -x,-y,-z
4 x,1/2-y,1/2+z
_cell_length_a                   8.9475(4)
_cell_length_b                   9.6550(5)
_cell_length_c                   25.1433(13)
_cell_angle_alpha                90
_cell_angle_beta                 92.6613(9)
_cell_angle_gamma                90
_cell_volume                     2169.74
_exptl_crystal_colour            colorless
_exptl_crystal_description       bulk
_chemical_melting_point          '543 K'
_cell_formula_units_Z            4
_exptl_crystal_recrystallization_method 'Re-crystallisation from solvent'
loop_
_atom_site_label
_atom_site_type_symbol
_atom_site_fract_x
_atom_site_fract_y
_atom_site_fract_z
S1 S 0.84222(3) 0.34079(2) 0.55330(2)
S2 S 0.41869(3) 0.35140(3) 0.50914(2)
C1 C 0.97615(11) 0.31097(12) 0.50311(4)
C2 C 0.84881(10) 0.18687(9) 0.59113(3)
C3 C 0.74219(9) 0.17213(9) 0.63041(3)
C4 C 0.63778(9) 0.28754(9) 0.64283(3)
C5 C 0.69797(10) 0.39781(9) 0.67673(3)
C6 C 0.60532(10) 0.51176(9) 0.68914(3)
C7 C 0.45352(10) 0.51488(9) 0.66973(3)
C8 C 0.36082(10) 0.62886(10) 0.68245(4)
C9 C 0.42450(12) 0.74167(10) 0.71308(4)
C10 C 0.39345(9) 0.40254(9) 0.63920(3)
C11 C 0.49025(9) 0.28896(9) 0.62510(3)
C12 C 0.42464(9) 0.17284(9) 0.59240(3)
C13 C 0.38934(10) 0.18768(9) 0.53741(3)
C14 C 0.36326(12) 0.32882(11) 0.44029(4)
C15 C 0.33388(10) 0.07400(10) 0.50824(4)
C16 C 0.31315(10) -0.05262(10) 0.53309(4)
C17 C 0.34166(10) -0.06660(10) 0.58751(4)
C18 C 0.39632(10) 0.04638(9) 0.61678(4)
C19 C 0.24078(10) 0.40467(10) 0.62388(4)
C20 C 0.15072(10) 0.51634(11) 0.63656(4)
C21 C 0.20995(11) 0.62796(10) 0.66533(4)
C22 C 0.56801(12) 0.73712(10) 0.73245(4)
C23 C 0.66252(11) 0.62085(10) 0.72228(4)
C24 C 0.80867(12) 0.61139(11) 0.74431(4)
C25 C 0.89782(11) 0.49873(12) 0.73295(4)
C26 C 0.84452(10) 0.39377(11) 0.69908(4)
C27 C 0.74203(10) 0.05074(10) 0.66049(4)
C28 C 0.84238(11) -0.05650(10) 0.65180(4)
C29 C 0.94833(11) -0.03999(10) 0.61375(4)
C30 C 0.95262(10) 0.08100(10) 0.58368(4)
H1 H 0.4148(16) 0.0373(15) 0.6548(6)
H2 H 0.2810(16) -0.1300(15) 0.5125(6)
H3 H 0.3135(17) 0.0832(16) 0.4707(6)
H4 H 0.3253(18) -0.1530(16) 0.6045(6)
H5 H 0.2007(17) 0.3265(16) 0.6058(6)
H6 H 0.0466(17) 0.5156(16) 0.6262(6)
H7 H 0.1508(18) 0.7059(18) 0.6747(6)
H8 H 0.9064(17) 0.3149(16) 0.6919(6)
H9 H 0.8460(18) 0.6853(17) 0.7676(6)
H10 H 0.9984(19) 0.4909(17) 0.7485(7)
H11 H 0.3634(17) 0.8188(17) 0.7200(6)
H12 H 0.6083(18) 0.8123(18) 0.7535(7)
H13 H 0.8393(17) -0.1391(15) 0.6734(6)
H14 H 0.6697(16) 0.0430(15) 0.6875(6)
H15 H 1.0223(17) -0.1132(16) 0.6087(6)
H16 H 1.0272(17) 0.0897(16) 0.5578(6)
H17 H 0.9556(18) 0.2223(18) 0.4856(7)
H18 H 0.9593(18) 0.3834(17) 0.4769(6)
H19 H 1.0795(19) 0.3171(18) 0.5186(7)
H20 H 0.3768(18) 0.4132(18) 0.4239(7)
H21 H 0.425(2) 0.2583(19) 0.4238(7)
H22 H 0.2581(18) 0.3055(16) 0.4352(6)
loop_
_geom_bond_atom_site_label_1
_geom_bond_atom_site_label_2
_geom_bond_site_symmetry_1
_geom_bond_site_symmetry_2
S1 C1 1_555 1_555
S2 C13 1_555 1_555
C1 H17 1_555 1_555
C2 S1 1_555 1_555
C3 C2 1_555 1_555
C4 C3 1_555 1_555
C5 C4 1_555 1_555
C6 C5 1_555 1_555
C7 C6 1_555 1_555
C8 C7 1_555 1_555
C9 C8 1_555 1_555
C10 C7 1_555 1_555
C11 C4 1_555 1_555
C12 C11 1_555 1_555
C13 C12 1_555 1_555
C14 S2 1_555 1_555
C15 C13 1_555 1_555
C16 C15 1_555 1_555
C17 C16 1_555 1_555
C18 C12 1_555 1_555
C19 C10 1_555 1_555
C20 C19 1_555 1_555
C21 C8 1_555 1_555
C22 C9 1_555 1_555
C23 C6 1_555 1_555
C24 C23 1_555 1_555
C25 C24 1_555 1_555
C26 C5 1_555 1_555
C27 C3 1_555 1_555
C28 C27 1_555 1_555
C29 C28 1_555 1_555
C30 C2 1_555 1_555
H1 C18 1_555 1_555
H2 C16 1_555 1_555
H3 C15 1_555 1_555
H4 C17 1_555 1_555
H5 C19 1_555 1_555
H6 C20 1_555 1_555
H7 C21 1_555 1_555
H8 C26 1_555 1_555
H9 C24 1_555 1_555
H10 C25 1_555 1_555
H11 C9 1_555 1_555
H12 C22 1_555 1_555
H13 C28 1_555 1_555
H14 C27 1_555 1_555
H15 C29 1_555 1_555
H16 C30 1_555 1_555
H18 C1 1_555 1_555
H19 C1 1_555 1_555
H20 C14 1_555 1_555
H21 C14 1_555 1_555
H22 C14 1_555 1_555
C10 C11 1_555 1_555
C17 C18 1_555 1_555
C20 C21 1_555 1_555
C22 C23 1_555 1_555
C25 C26 1_555 1_555
C29 C30 1_555 1_555

#END
