
#######################################################################
#
#                 Cambridge Crystallographic Data Centre
#                                CCDC 
#
#######################################################################
#
# If this CIF has been generated from an entry in the Cambridge 
# Structural Database, then it will include bibliographic, chemical, 
# crystal, experimental, refinement or atomic coordinate data resulting 
# from the CCDC's data processing and validation procedures.
#
#######################################################################

data_YAPGEE
_chemical_formula_moiety         'C21 H22 N2 O1'
_chemical_name_systematic        
(3,4-dihydrospiro[1-benzazepine-5,1'-cyclohex[2]en]-1(2H)-yl)(pyridin-2-yl)methanone
_symmetry_cell_setting           monoclinic
_symmetry_space_group_name_H-M   'P 21/c'
_symmetry_Int_Tables_number      14
_space_group_name_Hall           '-P 2ybc'
loop_
_symmetry_equiv_pos_site_id
_symmetry_equiv_pos_as_xyz
1 x,y,z
2 -x,1/2+y,1/2-z
3 -x,-y,-z
4 x,1/2-y,1/2+z
_cell_length_a                   16.8116(9)
_cell_length_b                   12.2054(7)
_cell_length_c                   8.3966(4)
_cell_angle_alpha                90
_cell_angle_beta                 95.080(5)
_cell_angle_gamma                90
_cell_volume                     1716.15
_exptl_crystal_colour            colorless
_exptl_crystal_description       Block
_cell_formula_units_Z            4
loop_
_atom_site_label
_atom_site_type_symbol
_atom_site_fract_x
_atom_site_fract_y
_atom_site_fract_z
O1 O 0.38719(9) 0.56587(16) 0.03007(18)
N1 N 0.29923(9) 0.57789(14) 0.21832(19)
N2 N 0.33842(11) 0.34846(17) 0.2671(2)
C1 C 0.27169(12) 0.54533(16) 0.3683(2)
C2 C 0.19203(11) 0.51438(16) 0.3783(2)
C3 C 0.13027(11) 0.50855(17) 0.2317(2)
C4 C 0.17157(13) 0.48696(18) 0.5304(2)
H1 H 0.1193 0.4658 0.5427
C5 C 0.15253(12) 0.42038(18) 0.1122(2)
H2 H 0.1192 0.4290 0.0126
H3 H 0.2077 0.4303 0.0898
C6 C 0.39029(11) 0.41959(19) 0.2149(2)
C7 C 0.35896(11) 0.52693(19) 0.1485(2)
C8 C 0.32584(13) 0.55064(19) 0.5022(2)
H4 H 0.3780 0.5733 0.4921
C9 C 0.11970(13) 0.62240(19) 0.1502(3)
H5 H 0.0710 0.6203 0.0791
H6 H 0.1117 0.6759 0.2327
C10 C 0.14182(13) 0.30606(19) 0.1766(3)
H7 H 0.1741 0.2979 0.2776
H8 H 0.1601 0.2529 0.1022
C11 C 0.26612(13) 0.68051(18) 0.1497(3)
H9 H 0.3035 0.7117 0.0805
H10 H 0.2598 0.7323 0.2353
C12 C 0.22595(16) 0.4900(2) 0.6637(3)
H11 H 0.2101 0.4697 0.7629
C13 C 0.30292(16) 0.5226(2) 0.6505(3)
H12 H 0.3393 0.5258 0.7405
C14 C 0.18640(13) 0.6642(2) 0.0547(3)
H13 H 0.1934 0.6128 -0.0310
H14 H 0.1698 0.7336 0.0060
C15 C 0.04863(12) 0.4784(2) 0.2832(3)
H15 H 0.0199 0.5330 0.3298
C16 C 0.01550(13) 0.3808(2) 0.2667(3)
H16 H -0.0358 0.3722 0.2980
C17 C 0.05466(14) 0.2837(2) 0.2014(3)
H17 H 0.0263 0.2633 0.1001
H18 H 0.0516 0.2226 0.2745
C18 C 0.47028(13) 0.3963(2) 0.2094(3)
H19 H 0.5046 0.4471 0.1692
C19 C 0.36717(17) 0.2518(2) 0.3190(4)
H20 H 0.3317 0.2013 0.3560
C20 C 0.44594(17) 0.2225(3) 0.3210(4)
H21 H 0.4635 0.1545 0.3595
C21 C 0.49806(16) 0.2965(3) 0.2647(4)
H22 H 0.5519 0.2791 0.2641
loop_
_geom_bond_atom_site_label_1
_geom_bond_atom_site_label_2
_geom_bond_site_symmetry_1
_geom_bond_site_symmetry_2
O1 C7 1_555 1_555
N1 C1 1_555 1_555
N2 C6 1_555 1_555
C1 C2 1_555 1_555
C2 C3 1_555 1_555
C3 C5 1_555 1_555
C4 C2 1_555 1_555
H1 C4 1_555 1_555
C5 H2 1_555 1_555
H3 C5 1_555 1_555
C6 C7 1_555 1_555
C7 N1 1_555 1_555
C8 C1 1_555 1_555
H4 C8 1_555 1_555
C9 C3 1_555 1_555
H5 C9 1_555 1_555
H6 C9 1_555 1_555
C10 C5 1_555 1_555
H7 C10 1_555 1_555
H8 C10 1_555 1_555
C11 N1 1_555 1_555
H9 C11 1_555 1_555
H10 C11 1_555 1_555
C12 C4 1_555 1_555
H11 C12 1_555 1_555
C13 C8 1_555 1_555
H12 C13 1_555 1_555
C14 C9 1_555 1_555
H13 C14 1_555 1_555
H14 C14 1_555 1_555
C15 C3 1_555 1_555
H15 C15 1_555 1_555
C16 C15 1_555 1_555
H16 C16 1_555 1_555
C17 C10 1_555 1_555
H17 C17 1_555 1_555
H18 C17 1_555 1_555
C18 C6 1_555 1_555
H19 C18 1_555 1_555
C19 N2 1_555 1_555
H20 C19 1_555 1_555
C20 C19 1_555 1_555
H21 C20 1_555 1_555
C21 C18 1_555 1_555
H22 C21 1_555 1_555
C11 C14 1_555 1_555
C12 C13 1_555 1_555
C16 C17 1_555 1_555
C20 C21 1_555 1_555

#END
