
#######################################################################
#
#                 Cambridge Crystallographic Data Centre
#                                CCDC 
#
#######################################################################
#
# If this CIF has been generated from an entry in the Cambridge 
# Structural Database, then it will include bibliographic, chemical, 
# crystal, experimental, refinement or atomic coordinate data resulting 
# from the CCDC's data processing and validation procedures.
#
#######################################################################

data_YAPGUT
_chemical_formula_moiety         'C72 H20 O2 Si1'
_chemical_name_systematic        
1-(2-methoxyphenyl)-9-((dimethyl(ethoxy)silyl)methyl)-C60fullerene
_symmetry_cell_setting           monoclinic
_symmetry_space_group_name_H-M   'P 21/c'
_symmetry_Int_Tables_number      14
_space_group_name_Hall           '-P 2ybc'
loop_
_symmetry_equiv_pos_site_id
_symmetry_equiv_pos_as_xyz
1 x,y,z
2 -x,1/2+y,1/2-z
3 -x,-y,-z
4 x,1/2-y,1/2+z
_cell_length_a                   12.6694(3)
_cell_length_b                   17.4024(3)
_cell_length_c                   19.0265(4)
_cell_angle_alpha                90
_cell_angle_beta                 109.6034(10)
_cell_angle_gamma                90
_cell_volume                     3951.78
_cell_formula_units_Z            4
loop_
_atom_site_label
_atom_site_type_symbol
_atom_site_fract_x
_atom_site_fract_y
_atom_site_fract_z
Si1 Si 0.14393(10) 0.58693(8) 0.20959(7)
O1 O 0.1248(2) 0.67113(18) 0.24150(17)
C1 C 0.3980(4) 0.5424(3) 0.0434(2)
H1 H 0.454(4) 0.497(2) 0.077(2)
C2 C 0.3825(3) 0.6170(3) 0.2130(2)
C3 C 0.3414(4) 0.5241(2) -0.0289(2)
H2 H 0.3503 0.4752 -0.0484
C4 C 0.2603(4) 0.6516(3) -0.0430(2)
H3 H 0.2143 0.6909 -0.0724
O2 O 0.3093(3) 0.73130(19) 0.06756(18)
C5 C 0.3207(4) 0.6632(2) 0.0315(2)
C6 C 0.4588(4) 0.6257(2) 0.1598(2)
C7 C 0.5165(5) 0.7042(3) 0.1679(2)
C8 C 0.2697(4) 0.5792(3) -0.0738(3)
H4 H 0.206(4) 0.563(3) -0.136(3)
C9 C 0.5644(4) 0.5733(3) 0.1829(2)
C10 C 0.3835(4) 0.6859(3) 0.2623(3)
C11 C 0.9664(4) 0.6473(4) 0.4515(3)
C12 C 0.7670(4) 0.5939(5) 0.2157(3)
C13 C 0.8762(4) 0.7039(3) 0.5341(2)
C14 C 0.7745(7) 0.8209(4) 0.4832(4)
C15 C 0.2585(4) 0.5918(4) 0.1680(3)
H5 H 0.269(4) 0.544(3) 0.134(3)
C16 C 0.9397(4) 0.7112(3) 0.4889(2)
C17 C 0.5812(5) 0.5142(3) 0.2305(3)
C18 C 0.3911(4) 0.6088(2) 0.0761(2)
C19 C 0.4211(4) 0.5816(5) 0.3418(3)
C20 C 0.1641(4) 0.5189(3) 0.2887(3)
H6 H 0.2047 0.5448 0.3357
H7 H 0.2074 0.4744 0.2823
H8 H 0.0909 0.5017 0.2895
C21 C 0.6575(5) 0.6135(5) 0.1765(3)
C22 C 0.6290(5) 0.6963(4) 0.1677(2)
C23 C 0.3914(4) 0.6603(5) 0.3348(3)
C24 C 0.7870(4) 0.7602(3) 0.5310(3)
C25 C 0.5154(5) 0.5046(3) 0.2785(3)
C26 C 0.8363(5) 0.6298(4) 0.5451(3)
C27 C 0.4313(4) 0.5561(3) 0.2746(3)
C28 C 0.4943(5) 0.7651(3) 0.2028(3)
C29 C 0.0188(4) 0.5577(4) 0.1297(3)
H9 H -0.0485 0.5628 0.1438
H10 H 0.0271 0.5041 0.1166
H11 H 0.0120 0.5908 0.0867
C30 C 0.7914(6) 0.4831(3) 0.4081(4)
C31 C 0.2450(4) 0.7912(3) 0.0237(3)
H12 H 0.2748 0.8043 -0.0160
H13 H 0.2485 0.8364 0.0552
H14 H 0.1670 0.7744 0.0016
C32 C 0.0928(4) 0.7386(3) 0.1934(3)
H15 H 0.0121 0.7357 0.1637
H16 H 0.1356 0.7394 0.1584
C33 C 0.7238(5) 0.6368(5) 0.5486(3)
C34 C 0.8598(4) 0.5672(3) 0.5104(3)
C35 C 0.9225(5) 0.7761(3) 0.4403(3)
C36 C 0.6696(6) 0.5170(4) 0.4790(3)
C37 C 0.6842(8) 0.8168(4) 0.2353(4)
C38 C 0.9274(5) 0.5748(3) 0.4611(4)
C39 C 0.6547(7) 0.8442(4) 0.4404(4)
C40 C 0.5864(5) 0.4756(3) 0.3502(4)
C41 C 0.9641(4) 0.6726(5) 0.3788(4)
C42 C 0.6941(5) 0.4912(3) 0.2725(4)
C43 C 0.6441(6) 0.5811(6) 0.5164(3)
C44 C 0.5878(6) 0.7380(6) 0.5007(3)
C45 C 0.4884(6) 0.5529(6) 0.4114(4)
C46 C 0.5654(7) 0.8495(3) 0.3038(4)
C47 C 0.4248(5) 0.7588(4) 0.2525(4)
C48 C 0.7116(7) 0.7490(6) 0.1985(3)
C49 C 0.8256(6) 0.7273(6) 0.2406(3)
C50 C 0.7762(6) 0.5082(4) 0.4753(4)
C51 C 0.7665(7) 0.8597(3) 0.3634(4)
C52 C 0.5759(8) 0.8234(3) 0.2381(4)
C53 C 0.6990(6) 0.4674(3) 0.3439(4)
C54 C 0.7844(5) 0.5299(5) 0.2642(4)
C55 C 0.6947(5) 0.7176(5) 0.5396(3)
C56 C 0.8831(5) 0.5473(5) 0.3310(4)
C57 C 0.9357(6) 0.7515(5) 0.3718(3)
C58 C 0.8370(7) 0.8304(4) 0.4355(4)
C59 C 0.8530(6) 0.6485(7) 0.2484(4)
C60 C 0.4676(6) 0.8067(4) 0.3151(5)
C61 C 0.4703(6) 0.7877(6) 0.3835(5)
C62 C 0.5733(7) 0.5005(5) 0.4158(4)
C63 C 0.5302(6) 0.6035(6) 0.4732(4)
C64 C 0.5018(6) 0.6802(8) 0.4674(4)
C65 C 0.8672(7) 0.7792(6) 0.3039(4)
C66 C 0.6532(9) 0.8667(3) 0.3676(4)
C67 C 0.4319(5) 0.7096(7) 0.3975(4)
C68 C 0.5663(7) 0.8021(6) 0.4510(5)
C69 C 0.8864(5) 0.5254(4) 0.3987(5)
C70 C 0.1155(5) 0.8113(3) 0.2388(3)
H17 H 0.0757 0.8096 0.2749
H18 H 0.0895 0.8556 0.2057
H19 H 0.1962 0.8161 0.2655
C71 C 0.7796(9) 0.8336(5) 0.2998(5)
C72 C 0.9234(5) 0.6228(6) 0.3182(4)
H20 H 0.229(4) 0.624(3) 0.127(3)
loop_
_geom_bond_atom_site_label_1
_geom_bond_atom_site_label_2
_geom_bond_site_symmetry_1
_geom_bond_site_symmetry_2
Si1 O1 1_555 1_555
O1 C32 1_555 1_555
C1 H1 1_555 1_555
C2 C6 1_555 1_555
C3 C1 1_555 1_555
H2 C3 1_555 1_555
C4 H3 1_555 1_555
O2 C5 1_555 1_555
C5 C4 1_555 1_555
C6 C7 1_555 1_555
C7 C22 1_555 1_555
C8 C3 1_555 1_555
H4 C8 1_555 1_555
C9 C6 1_555 1_555
C10 C2 1_555 1_555
C11 C16 1_555 1_555
C12 C21 1_555 1_555
C13 C16 1_555 1_555
C14 C24 1_555 1_555
C15 Si1 1_555 1_555
H5 C15 1_555 1_555
C16 C35 1_555 1_555
C17 C9 1_555 1_555
C18 C1 1_555 1_555
C19 C23 1_555 1_555
C20 Si1 1_555 1_555
H6 C20 1_555 1_555
H7 C20 1_555 1_555
H8 C20 1_555 1_555
C21 C9 1_555 1_555
C22 C21 1_555 1_555
C23 C10 1_555 1_555
C24 C13 1_555 1_555
C25 C17 1_555 1_555
C26 C13 1_555 1_555
C27 C2 1_555 1_555
C28 C7 1_555 1_555
C29 Si1 1_555 1_555
H9 C29 1_555 1_555
H10 C29 1_555 1_555
H11 C29 1_555 1_555
C30 C50 1_555 1_555
C31 O2 1_555 1_555
H12 C31 1_555 1_555
H13 C31 1_555 1_555
H14 C31 1_555 1_555
C32 H15 1_555 1_555
H16 C32 1_555 1_555
C33 C26 1_555 1_555
C34 C26 1_555 1_555
C35 C57 1_555 1_555
C36 C43 1_555 1_555
C37 C48 1_555 1_555
C38 C11 1_555 1_555
C39 C14 1_555 1_555
C40 C25 1_555 1_555
C41 C11 1_555 1_555
C42 C17 1_555 1_555
C43 C33 1_555 1_555
C44 C55 1_555 1_555
C45 C19 1_555 1_555
C46 C52 1_555 1_555
C47 C10 1_555 1_555
C48 C22 1_555 1_555
C49 C48 1_555 1_555
C50 C34 1_555 1_555
C51 C58 1_555 1_555
C52 C28 1_555 1_555
C53 C30 1_555 1_555
C54 C12 1_555 1_555
C55 C24 1_555 1_555
C56 C54 1_555 1_555
C57 C41 1_555 1_555
C58 C14 1_555 1_555
C59 C12 1_555 1_555
C60 C46 1_555 1_555
C61 C60 1_555 1_555
C62 C36 1_555 1_555
C63 C43 1_555 1_555
C64 C44 1_555 1_555
C65 C49 1_555 1_555
C66 C39 1_555 1_555
C67 C23 1_555 1_555
C68 C39 1_555 1_555
C69 C30 1_555 1_555
C70 C32 1_555 1_555
H17 C70 1_555 1_555
H18 C70 1_555 1_555
H19 C70 1_555 1_555
C71 C37 1_555 1_555
C72 C41 1_555 1_555
H20 C15 1_555 1_555
C2 C15 1_555 1_555
C4 C8 1_555 1_555
C5 C18 1_555 1_555
C6 C18 1_555 1_555
C19 C27 1_555 1_555
C25 C27 1_555 1_555
C28 C47 1_555 1_555
C33 C55 1_555 1_555
C34 C38 1_555 1_555
C35 C58 1_555 1_555
C36 C50 1_555 1_555
C37 C52 1_555 1_555
C38 C69 1_555 1_555
C40 C53 1_555 1_555
C40 C62 1_555 1_555
C42 C53 1_555 1_555
C42 C54 1_555 1_555
C44 C68 1_555 1_555
C45 C62 1_555 1_555
C45 C63 1_555 1_555
C46 C66 1_555 1_555
C47 C60 1_555 1_555
C49 C59 1_555 1_555
C51 C66 1_555 1_555
C51 C71 1_555 1_555
C56 C69 1_555 1_555
C56 C72 1_555 1_555
C57 C65 1_555 1_555
C59 C72 1_555 1_555
C61 C67 1_555 1_555
C61 C68 1_555 1_555
C63 C64 1_555 1_555
C64 C67 1_555 1_555
C65 C71 1_555 1_555

#END
