
#######################################################################
#
#                 Cambridge Crystallographic Data Centre
#                                CCDC 
#
#######################################################################
#
# If this CIF has been generated from an entry in the Cambridge 
# Structural Database, then it will include bibliographic, chemical, 
# crystal, experimental, refinement or atomic coordinate data resulting 
# from the CCDC's data processing and validation procedures.
#
#######################################################################

data_YAPGUU
_chemical_formula_moiety         'C15 H20 N2 O7'
_chemical_name_systematic        
'3-(hydroxyimino)-1-{5-methoxy-2-nitro-4-[(propan-2-yl)oxy]phenyl}butan-2-yl formate'
_symmetry_cell_setting           monoclinic
_symmetry_space_group_name_H-M   'P 21/c'
_symmetry_Int_Tables_number      14
_space_group_name_Hall           '-P 2ybc'
loop_
_symmetry_equiv_pos_site_id
_symmetry_equiv_pos_as_xyz
1 x,y,z
2 -x,1/2+y,1/2-z
3 -x,-y,-z
4 x,1/2-y,1/2+z
_cell_length_a                   10.6032(8)
_cell_length_b                   14.4941(12)
_cell_length_c                   21.7899(18)
_cell_angle_alpha                90
_cell_angle_beta                 91.159(3)
_cell_angle_gamma                90
_cell_volume                     3348.07
_exptl_crystal_colour            colorless
_exptl_crystal_description       tabullar
_cell_formula_units_Z            8
loop_
_atom_site_label
_atom_site_type_symbol
_atom_site_fract_x
_atom_site_fract_y
_atom_site_fract_z
C1 C 0.0696(3) 0.4516(2) 0.40807(15)
C2 C 0.0774(3) 0.3526(2) 0.38804(13)
H1 H 0.1630 0.3275 0.3984
C3 C -0.0223(3) 0.29421(19) 0.41822(14)
H2 H -0.0141 0.3016 0.4633
H3 H -0.1066 0.3172 0.4054
C4 C -0.0136(3) 0.1929(2) 0.40262(13)
C5 C 0.0626(3) 0.12767(19) 0.43241(13)
C6 C 0.0600(3) 0.0342(2) 0.41811(14)
H4 H 0.1128 -0.0075 0.4403
C7 C -0.0186(3) 0.0019(2) 0.37194(13)
C8 C -0.0965(3) 0.0665(2) 0.34011(13)
C9 C -0.0930(3) 0.1585(2) 0.35587(13)
H5 H -0.1466 0.2003 0.3342
C10 C -0.0342(4) 0.5120(2) 0.38313(19)
H6 H -0.0683 0.5493 0.4164
H7 H -0.1013 0.4734 0.3652
H8 H -0.0007 0.5527 0.3515
C11 C 0.1515(3) 0.3601(2) 0.28662(15)
H9 H 0.1366 0.3587 0.2435
C12 C -0.2533(3) 0.0916(2) 0.26122(16)
H10 H -0.3076 0.1245 0.2898
H11 H -0.3057 0.0562 0.2321
H12 H -0.2022 0.1362 0.2388
C13 C 0.0469(3) -0.1570(2) 0.38430(15)
H13 H 0.0552 -0.1426 0.4291
C14 C 0.1745(4) -0.1583(3) 0.35680(17)
H14 H 0.1666 -0.1726 0.3129
H15 H 0.2266 -0.2054 0.3773
H16 H 0.2143 -0.0977 0.3621
C15 C -0.0228(4) -0.2467(2) 0.37593(17)
H17 H -0.1080 -0.2406 0.3921
H18 H 0.0224 -0.2958 0.3981
H19 H -0.0283 -0.2621 0.3322
N1 N 0.1538(3) 0.47551(17) 0.44737(13)
N2 N 0.1498(2) 0.15393(16) 0.48247(11)
O1 O 0.1412(2) 0.56787(15) 0.46608(12)
H20 H 0.1917 0.5786 0.4954
O2 O 0.2585(3) 0.3741(2) 0.30480(12)
O3 O 0.0543(2) 0.34666(16) 0.32210(10)
O4 O 0.1867(2) 0.23434(15) 0.48595(10)
O5 O 0.1807(2) 0.09450(15) 0.51987(10)
O6 O -0.0311(2) -0.08714(14) 0.35409(10)
O7 O -0.1715(2) 0.02968(14) 0.29508(10)
C16 C 0.4259(3) 0.5372(2) 0.58831(15)
C17 C 0.4179(3) 0.6345(2) 0.61111(13)
H21 H 0.3304 0.6585 0.6038
C18 C 0.5121(3) 0.6981(2) 0.58053(14)
H22 H 0.5987 0.6775 0.5916
H23 H 0.5015 0.6928 0.5354
C19 C 0.4980(3) 0.7984(2) 0.59856(13)
C20 C 0.4087(3) 0.8606(2) 0.57484(13)
C21 C 0.4041(3) 0.9532(2) 0.59261(14)
H24 H 0.3420 0.9930 0.5751
C22 C 0.4895(3) 0.9868(2) 0.63553(14)
C23 C 0.5817(3) 0.9251(2) 0.66047(13)
C24 C 0.5836(3) 0.8344(2) 0.64171(13)
H25 H 0.6460 0.7945 0.6589
C25 C 0.5318(4) 0.4745(2) 0.60931(19)
H26 H 0.5023 0.4342 0.6422
H27 H 0.6028 0.5118 0.6247
H28 H 0.5592 0.4368 0.5747
C26 C 0.7641(3) 0.9074(2) 0.72549(16)
H29 H 0.7298 0.8560 0.7491
H30 H 0.8194 0.9448 0.7521
H31 H 0.8125 0.8832 0.6912
C27 C 0.4080(3) 1.1424(2) 0.63127(15)
H32 H 0.3214 1.1157 0.6264
C28 C 0.4552(3) 1.1719(3) 0.56992(17)
H33 H 0.5401 1.1979 0.5749
H34 H 0.3984 1.2187 0.5523
H35 H 0.4579 1.1184 0.5424
C29 C 0.4065(4) 1.2205(2) 0.67654(17)
H36 H 0.3782 1.1977 0.7163
H37 H 0.3488 1.2687 0.6616
H38 H 0.4917 1.2462 0.6813
C30 C 0.3519(3) 0.6357(2) 0.71432(15)
H39 H 0.3711 0.6336 0.7571
N3 N 0.3139(3) 0.83390(18) 0.52763(12)
N4 N 0.3381(3) 0.51449(18) 0.55049(13)
O8 O 0.3491(2) 0.42332(16) 0.52974(12)
H40 H 0.2983 0.4145 0.5002
O9 O 0.4473(2) 0.63539(17) 0.67657(10)
O10 O 0.2430(3) 0.6383(3) 0.69913(12)
O11 O 0.2945(2) 0.75217(15) 0.51738(10)
O12 O 0.2581(3) 0.89521(17) 0.50028(13)
O13 O 0.6627(2) 0.96344(14) 0.70212(10)
O14 O 0.4930(2) 1.07377(14) 0.65776(10)
loop_
_geom_bond_atom_site_label_1
_geom_bond_atom_site_label_2
_geom_bond_site_symmetry_1
_geom_bond_site_symmetry_2
C1 C2 1_555 1_555
C2 H1 1_555 1_555
C3 C2 1_555 1_555
H2 C3 1_555 1_555
H3 C3 1_555 1_555
C4 C3 1_555 1_555
C5 C4 1_555 1_555
C6 C5 1_555 1_555
H4 C6 1_555 1_555
C7 C6 1_555 1_555
C8 C7 1_555 1_555
C9 C4 1_555 1_555
H5 C9 1_555 1_555
C10 C1 1_555 1_555
H6 C10 1_555 1_555
H7 C10 1_555 1_555
H8 C10 1_555 1_555
C11 H9 1_555 1_555
C12 H10 1_555 1_555
H11 C12 1_555 1_555
H12 C12 1_555 1_555
C13 H13 1_555 1_555
C14 C13 1_555 1_555
H14 C14 1_555 1_555
H15 C14 1_555 1_555
H16 C14 1_555 1_555
C15 C13 1_555 1_555
H17 C15 1_555 1_555
H18 C15 1_555 1_555
H19 C15 1_555 1_555
N1 C1 1_555 1_555
N2 C5 1_555 1_555
O1 N1 1_555 1_555
H20 O1 1_555 1_555
O2 C11 1_555 1_555
O3 C2 1_555 1_555
O4 N2 1_555 1_555
O5 N2 1_555 1_555
O6 C7 1_555 1_555
O7 C8 1_555 1_555
C16 C17 1_555 1_555
C17 H21 1_555 1_555
C18 C17 1_555 1_555
H22 C18 1_555 1_555
H23 C18 1_555 1_555
C19 C18 1_555 1_555
C20 C19 1_555 1_555
C21 C20 1_555 1_555
H24 C21 1_555 1_555
C22 C21 1_555 1_555
C23 C22 1_555 1_555
C24 C19 1_555 1_555
H25 C24 1_555 1_555
C25 C16 1_555 1_555
H26 C25 1_555 1_555
H27 C25 1_555 1_555
H28 C25 1_555 1_555
C26 H29 1_555 1_555
H30 C26 1_555 1_555
H31 C26 1_555 1_555
C27 H32 1_555 1_555
C28 C27 1_555 1_555
H33 C28 1_555 1_555
H34 C28 1_555 1_555
H35 C28 1_555 1_555
C29 C27 1_555 1_555
H36 C29 1_555 1_555
H37 C29 1_555 1_555
H38 C29 1_555 1_555
C30 H39 1_555 1_555
N3 C20 1_555 1_555
N4 C16 1_555 1_555
O8 N4 1_555 1_555
H40 O8 1_555 1_555
O9 C17 1_555 1_555
O10 C30 1_555 1_555
O11 N3 1_555 1_555
O12 N3 1_555 1_555
O13 C23 1_555 1_555
O14 C22 1_555 1_555
C8 C9 1_555 1_555
C11 O3 1_555 1_555
C12 O7 1_555 1_555
C13 O6 1_555 1_555
C23 C24 1_555 1_555
C26 O13 1_555 1_555
C27 O14 1_555 1_555
C30 O9 1_555 1_555

#END
