
#######################################################################
#
#                 Cambridge Crystallographic Data Centre
#                                CCDC 
#
#######################################################################
#
# If this CIF has been generated from an entry in the Cambridge 
# Structural Database, then it will include bibliographic, chemical, 
# crystal, experimental, refinement or atomic coordinate data resulting 
# from the CCDC's data processing and validation procedures.
#
#######################################################################

data_YAPHAA
_chemical_formula_moiety         'C24 H30 S3'
_chemical_name_systematic        
4,6-Dihexylbisthieno[3,2-e:2',3'-g][2]benzothiophene
_symmetry_cell_setting           monoclinic
_symmetry_space_group_name_H-M   'C 2/c'
_symmetry_Int_Tables_number      15
_space_group_name_Hall           '-C 2yn'
loop_
_symmetry_equiv_pos_site_id
_symmetry_equiv_pos_as_xyz
1 x,y,z
2 1/2+x,1/2+y,z
3 -x,y,1/2-z
4 1/2-x,1/2+y,1/2-z
5 -x,-y,-z
6 1/2-x,1/2-y,-z
7 x,-y,1/2+z
8 1/2+x,1/2-y,1/2+z
_cell_length_a                   15.2751(4)
_cell_length_b                   11.0342(6)
_cell_length_c                   14.3941(9)
_cell_angle_alpha                90
_cell_angle_beta                 117.120(3)
_cell_angle_gamma                90
_cell_volume                     2159.36
_exptl_crystal_colour            'light yellow'
_exptl_crystal_description       prism
_cell_formula_units_Z            4
loop_
_atom_site_label
_atom_site_type_symbol
_atom_site_fract_x
_atom_site_fract_y
_atom_site_fract_z
S1 S 0.0000 0.04299(8) 0.2500
S2 S 0.12790(5) 0.61250(6) 0.31012(6)
C1 C 0.2313(2) 0.5222(3) 0.3614(2)
C2 C 0.2095(2) 0.4014(2) 0.3528(2)
C3 C 0.1069(2) 0.3800(2) 0.3044(2)
C4 C 0.05224(18) 0.4877(2) 0.2752(2)
C5 C 0.05349(18) 0.2641(2) 0.2767(2)
C6 C 0.09249(19) 0.1475(2) 0.2966(2)
C7 C 0.1991(2) 0.1105(2) 0.3513(2)
C8 C 0.2185(2) -0.0251(3) 0.3615(2)
C9 C 0.32958(19) -0.0486(2) 0.4167(2)
C10 C 0.3567(2) -0.1827(2) 0.4311(2)
C11 C 0.4684(2) -0.2016(2) 0.4895(2)
C12 C 0.4973(2) -0.3352(3) 0.5080(3)
H1 H 0.2967 0.5525 0.3928
H2 H 0.2571 0.3384 0.3767
H3 H 0.2280 0.1441 0.4196
H4 H 0.2303 0.1433 0.3130
H5 H 0.1898 -0.0597 0.4016
H6 H 0.1901 -0.0609 0.2940
H7 H 0.3570 -0.0112 0.4834
H8 H 0.3572 -0.0134 0.3757
H9 H 0.3275 -0.2192 0.4699
H10 H 0.3321 -0.2202 0.3645
H11 H 0.4932 -0.1614 0.5550
H12 H 0.4972 -0.1676 0.4493
H13 H 0.5668 -0.3434 0.5442
H14 H 0.4689 -0.3698 0.5484
H15 H 0.4730 -0.3759 0.4428
S2B S -0.12790(5) 0.61250(6) 0.18988(6)
C1B C -0.2313(2) 0.5222(3) 0.1386(2)
C2B C -0.2095(2) 0.4014(2) 0.1472(2)
C3B C -0.1069(2) 0.3800(2) 0.1956(2)
C4B C -0.05224(18) 0.4877(2) 0.2248(2)
C5B C -0.05349(18) 0.2641(2) 0.2233(2)
C6B C -0.09249(19) 0.1475(2) 0.2034(2)
C7B C -0.1991(2) 0.1105(2) 0.1487(2)
C8B C -0.2185(2) -0.0251(3) 0.1385(2)
C9B C -0.32958(19) -0.0486(2) 0.0833(2)
C10B C -0.3567(2) -0.1827(2) 0.0689(2)
C11B C -0.4684(2) -0.2016(2) 0.0105(2)
C12B C -0.4973(2) -0.3352(3) -0.0080(3)
H1B H -0.2967 0.5525 0.1072
H2B H -0.2571 0.3384 0.1233
H3B H -0.2280 0.1441 0.0804
H4B H -0.2303 0.1433 0.1870
H5B H -0.1898 -0.0597 0.0984
H6B H -0.1901 -0.0609 0.2060
H7B H -0.3570 -0.0112 0.0166
H8B H -0.3572 -0.0134 0.1243
H9B H -0.3275 -0.2192 0.0301
H10B H -0.3321 -0.2202 0.1355
H11B H -0.4932 -0.1614 -0.0550
H12B H -0.4972 -0.1676 0.0507
H13B H -0.5668 -0.3434 -0.0442
H14B H -0.4689 -0.3698 -0.0484
H15B H -0.4730 -0.3759 0.0572
loop_
_geom_bond_atom_site_label_1
_geom_bond_atom_site_label_2
_geom_bond_site_symmetry_1
_geom_bond_site_symmetry_2
S1 C6 1_555 1_555
S2 C1 1_555 1_555
C1 C2 1_555 1_555
C2 C3 1_555 1_555
C3 C4 1_555 1_555
C4 S2 1_555 1_555
C5 C3 1_555 1_555
C6 C5 1_555 1_555
C7 C6 1_555 1_555
C8 C7 1_555 1_555
C9 C8 1_555 1_555
C10 C9 1_555 1_555
C11 C10 1_555 1_555
C12 C11 1_555 1_555
H1 C1 1_555 1_555
H2 C2 1_555 1_555
H3 C7 1_555 1_555
H4 C7 1_555 1_555
H5 C8 1_555 1_555
H6 C8 1_555 1_555
H7 C9 1_555 1_555
H8 C9 1_555 1_555
H9 C10 1_555 1_555
H10 C10 1_555 1_555
H11 C11 1_555 1_555
H12 C11 1_555 1_555
H13 C12 1_555 1_555
H14 C12 1_555 1_555
H15 C12 1_555 1_555
S2B C1B 1_555 1_555
C1B C2B 1_555 1_555
C2B C3B 1_555 1_555
C3B C4B 1_555 1_555
C4B C4 1_555 1_555
C5B C5 1_555 1_555
C6B S1 1_555 1_555
C7B C6B 1_555 1_555
C8B C7B 1_555 1_555
C9B C8B 1_555 1_555
C10B C9B 1_555 1_555
C11B C10B 1_555 1_555
C12B C11B 1_555 1_555
H1B C1B 1_555 1_555
H2B C2B 1_555 1_555
H3B C7B 1_555 1_555
H4B C7B 1_555 1_555
H5B C8B 1_555 1_555
H6B C8B 1_555 1_555
H7B C9B 1_555 1_555
H8B C9B 1_555 1_555
H9B C10B 1_555 1_555
H10B C10B 1_555 1_555
H11B C11B 1_555 1_555
H12B C11B 1_555 1_555
H13B C12B 1_555 1_555
H14B C12B 1_555 1_555
H15B C12B 1_555 1_555
S2B C4B 1_555 1_555
C3B C5B 1_555 1_555
C5B C6B 1_555 1_555

#END
