
#######################################################################
#
#                 Cambridge Crystallographic Data Centre
#                                CCDC 
#
#######################################################################
#
# If this CIF has been generated from an entry in the Cambridge 
# Structural Database, then it will include bibliographic, chemical, 
# crystal, experimental, refinement or atomic coordinate data resulting 
# from the CCDC's data processing and validation procedures.
#
#######################################################################

data_YAPHEE
_chemical_formula_moiety         'C36 H54 S3'
_chemical_name_systematic        
4,6-Didodecylbisthieno[3,2-e:2',3'-g][2]benzothiophene
_symmetry_cell_setting           monoclinic
_symmetry_space_group_name_H-M   'C 2/c'
_symmetry_Int_Tables_number      15
_space_group_name_Hall           '-C 2yn'
loop_
_symmetry_equiv_pos_site_id
_symmetry_equiv_pos_as_xyz
1 x,y,z
2 1/2+x,1/2+y,z
3 -x,y,1/2-z
4 1/2-x,1/2+y,1/2-z
5 -x,-y,-z
6 1/2-x,1/2-y,-z
7 x,-y,1/2+z
8 1/2+x,1/2-y,1/2+z
_cell_length_a                   15.6390(3)
_cell_length_b                   10.8440(3)
_cell_length_c                   19.8682(5)
_cell_angle_alpha                90
_cell_angle_beta                 104.2655(15)
_cell_angle_gamma                90
_cell_volume                     3265.54
_exptl_crystal_colour            yellow
_exptl_crystal_description       prism
_cell_formula_units_Z            4
loop_
_atom_site_label
_atom_site_type_symbol
_atom_site_fract_x
_atom_site_fract_y
_atom_site_fract_z
S1 S 0.08773(2) 1.30159(3) 0.210445(18)
S2 S 0.0000 0.72196(4) 0.2500
C1 C 0.15633(9) 1.20983(13) 0.17592(8)
C2 C 0.14086(8) 1.08763(13) 0.18201(7)
C3 C 0.07077(8) 1.06398(11) 0.21544(7)
C4 C 0.03553(8) 1.17337(12) 0.23333(6)
C5 C 0.03589(8) 0.94719(11) 0.23270(6)
C6 C 0.06209(8) 0.82924(11) 0.21973(7)
C7 C 0.13363(8) 0.79266(12) 0.18560(7)
C8 C 0.14906(8) 0.65449(12) 0.17810(7)
C9 C 0.22352(8) 0.63796(12) 0.14137(7)
C10 C 0.24693(9) 0.50515(12) 0.12836(7)
C11 C 0.32137(9) 0.50096(12) 0.09076(7)
C12 C 0.34852(9) 0.37144(12) 0.07405(7)
C13 C 0.42176(9) 0.37567(13) 0.03508(7)
C14 C 0.45248(9) 0.24882(13) 0.01744(7)
C15 C 0.52752(9) 0.25574(13) -0.01950(7)
C16 C 0.55827(9) 0.12966(12) -0.03843(7)
C17 C 0.63165(9) 0.13958(13) -0.07656(8)
C18 C 0.65845(12) 0.01579(17) -0.10124(11)
H1 H 0.2001 1.2415 0.1549
H2 H 0.1729 1.0245 0.1659
H3 H 0.1873 0.8270 0.2120
H4 H 0.1198 0.8273 0.1403
H5 H 0.1652 0.6173 0.2227
H6 H 0.0966 0.6171 0.1515
H7 H 0.2749 0.6763 0.1690
H8 H 0.2065 0.6784 0.0977
H9 H 0.2655 0.4637 0.1716
H10 H 0.1962 0.4653 0.1007
H11 H 0.3716 0.5405 0.1192
H12 H 0.3024 0.5449 0.0483
H13 H 0.3692 0.3272 0.1162
H14 H 0.2986 0.3305 0.0460
H15 H 0.4710 0.4180 0.0631
H16 H 0.4004 0.4196 -0.0071
H17 H 0.4724 0.2038 0.0594
H18 H 0.4039 0.2072 -0.0118
H19 H 0.5764 0.2963 0.0102
H20 H 0.5078 0.3021 -0.0610
H21 H 0.5792 0.0835 0.0030
H22 H 0.5095 0.0883 -0.0676
H23 H 0.6820 0.1749 -0.0458
H24 H 0.6123 0.1918 -0.1158
H25 H 0.7043 0.0268 -0.1244
H26 H 0.6784 -0.0370 -0.0624
H27 H 0.6087 -0.0201 -0.1323
S1B S -0.08773(2) 1.30159(3) 0.289555(18)
C1B C -0.15633(9) 1.20983(13) 0.32408(8)
C2B C -0.14086(8) 1.08763(13) 0.31799(7)
C3B C -0.07077(8) 1.06398(11) 0.28456(7)
C4B C -0.03553(8) 1.17337(12) 0.26667(6)
C5B C -0.03589(8) 0.94719(11) 0.26730(6)
C6B C -0.06209(8) 0.82924(11) 0.28027(7)
C7B C -0.13363(8) 0.79266(12) 0.31440(7)
C8B C -0.14906(8) 0.65449(12) 0.32190(7)
C9B C -0.22352(8) 0.63796(12) 0.35863(7)
C10B C -0.24693(9) 0.50515(12) 0.37164(7)
C11B C -0.32137(9) 0.50096(12) 0.40924(7)
C12B C -0.34852(9) 0.37144(12) 0.42595(7)
C13B C -0.42176(9) 0.37567(13) 0.46492(7)
C14B C -0.45248(9) 0.24882(13) 0.48256(7)
C15B C -0.52752(9) 0.25574(13) 0.51950(7)
C16B C -0.55827(9) 0.12966(12) 0.53843(7)
C17B C -0.63165(9) 0.13958(13) 0.57656(8)
C18B C -0.65845(12) 0.01579(17) 0.60124(11)
H1B H -0.2001 1.2415 0.3451
H2B H -0.1729 1.0245 0.3341
H3B H -0.1873 0.8270 0.2880
H4B H -0.1198 0.8273 0.3597
H5B H -0.1652 0.6173 0.2773
H6B H -0.0966 0.6171 0.3485
H7B H -0.2749 0.6763 0.3310
H8B H -0.2065 0.6784 0.4023
H9B H -0.2655 0.4637 0.3284
H10B H -0.1962 0.4653 0.3993
H11B H -0.3716 0.5405 0.3808
H12B H -0.3024 0.5449 0.4517
H13B H -0.3692 0.3272 0.3838
H14B H -0.2986 0.3305 0.4540
H15B H -0.4710 0.4180 0.4369
H16B H -0.4004 0.4196 0.5071
H17B H -0.4724 0.2038 0.4406
H18B H -0.4039 0.2072 0.5118
H19B H -0.5764 0.2963 0.4898
H20B H -0.5078 0.3021 0.5610
H21B H -0.5792 0.0835 0.4970
H22B H -0.5095 0.0883 0.5676
H23B H -0.6820 0.1749 0.5458
H24B H -0.6123 0.1918 0.6158
H25B H -0.7043 0.0268 0.6244
H26B H -0.6784 -0.0370 0.5624
H27B H -0.6087 -0.0201 0.6323
loop_
_geom_bond_atom_site_label_1
_geom_bond_atom_site_label_2
_geom_bond_site_symmetry_1
_geom_bond_site_symmetry_2
S1 C1 1_555 1_555
S2 C6 1_555 1_555
C1 C2 1_555 1_555
C2 C3 1_555 1_555
C3 C4 1_555 1_555
C4 S1 1_555 1_555
C5 C3 1_555 1_555
C6 C5 1_555 1_555
C7 C6 1_555 1_555
C8 C7 1_555 1_555
C9 C8 1_555 1_555
C10 C9 1_555 1_555
C11 C10 1_555 1_555
C12 C11 1_555 1_555
C13 C12 1_555 1_555
C14 C13 1_555 1_555
C15 C14 1_555 1_555
C16 C15 1_555 1_555
C17 C16 1_555 1_555
C18 C17 1_555 1_555
H1 C1 1_555 1_555
H2 C2 1_555 1_555
H3 C7 1_555 1_555
H4 C7 1_555 1_555
H5 C8 1_555 1_555
H6 C8 1_555 1_555
H7 C9 1_555 1_555
H8 C9 1_555 1_555
H9 C10 1_555 1_555
H10 C10 1_555 1_555
H11 C11 1_555 1_555
H12 C11 1_555 1_555
H13 C12 1_555 1_555
H14 C12 1_555 1_555
H15 C13 1_555 1_555
H16 C13 1_555 1_555
H17 C14 1_555 1_555
H18 C14 1_555 1_555
H19 C15 1_555 1_555
H20 C15 1_555 1_555
H21 C16 1_555 1_555
H22 C16 1_555 1_555
H23 C17 1_555 1_555
H24 C17 1_555 1_555
H25 C18 1_555 1_555
H26 C18 1_555 1_555
H27 C18 1_555 1_555
S1B C1B 1_555 1_555
C1B C2B 1_555 1_555
C2B C3B 1_555 1_555
C3B C4B 1_555 1_555
C4B C4 1_555 1_555
C5B C5 1_555 1_555
C6B S2 1_555 1_555
C7B C6B 1_555 1_555
C8B C7B 1_555 1_555
C9B C8B 1_555 1_555
C10B C9B 1_555 1_555
C11B C10B 1_555 1_555
C12B C11B 1_555 1_555
C13B C12B 1_555 1_555
C14B C13B 1_555 1_555
C15B C14B 1_555 1_555
C16B C15B 1_555 1_555
C17B C16B 1_555 1_555
C18B C17B 1_555 1_555
H1B C1B 1_555 1_555
H2B C2B 1_555 1_555
H3B C7B 1_555 1_555
H4B C7B 1_555 1_555
H5B C8B 1_555 1_555
H6B C8B 1_555 1_555
H7B C9B 1_555 1_555
H8B C9B 1_555 1_555
H9B C10B 1_555 1_555
H10B C10B 1_555 1_555
H11B C11B 1_555 1_555
H12B C11B 1_555 1_555
H13B C12B 1_555 1_555
H14B C12B 1_555 1_555
H15B C13B 1_555 1_555
H16B C13B 1_555 1_555
H17B C14B 1_555 1_555
H18B C14B 1_555 1_555
H19B C15B 1_555 1_555
H20B C15B 1_555 1_555
H21B C16B 1_555 1_555
H22B C16B 1_555 1_555
H23B C17B 1_555 1_555
H24B C17B 1_555 1_555
H25B C18B 1_555 1_555
H26B C18B 1_555 1_555
H27B C18B 1_555 1_555
S1B C4B 1_555 1_555
C3B C5B 1_555 1_555
C5B C6B 1_555 1_555

#END
