
#######################################################################
#
#                 Cambridge Crystallographic Data Centre
#                                CCDC 
#
#######################################################################
#
# If this CIF has been generated from an entry in the Cambridge 
# Structural Database, then it will include bibliographic, chemical, 
# crystal, experimental, refinement or atomic coordinate data resulting 
# from the CCDC's data processing and validation procedures.
#
#######################################################################

data_YAPHIJ
_chemical_formula_moiety         'C19 H15 F3 N2 O6'
_chemical_name_systematic        
7,8-dimethoxy-4-nitro-10-[4-(trifluoromethyl)phenyl]-5,6-dihydro-1H-1,5-epoxy-2,3-benzoxazocine
_symmetry_cell_setting           triclinic
_symmetry_space_group_name_H-M   'P -1'
_symmetry_Int_Tables_number      2
_space_group_name_Hall           '-P 1'
loop_
_symmetry_equiv_pos_site_id
_symmetry_equiv_pos_as_xyz
1 x,y,z
2 -x,-y,-z
_cell_length_a                   9.364(6)
_cell_length_b                   9.834(4)
_cell_length_c                   11.190(5)
_cell_angle_alpha                109.122(9)
_cell_angle_beta                 91.307(11)
_cell_angle_gamma                110.730(9)
_cell_volume                     899.254
_exptl_crystal_colour            colorless
_exptl_crystal_description       Tabullar
_cell_formula_units_Z            2
loop_
_atom_site_label
_atom_site_type_symbol
_atom_site_fract_x
_atom_site_fract_y
_atom_site_fract_z
F1 F -0.4774(3) 0.1465(3) 0.0058(3)
F2 F -0.4049(3) 0.2941(3) -0.0972(2)
F3 F -0.5486(3) 0.3340(4) 0.0374(3)
O1 O -0.1484(2) 0.7124(2) 0.58957(18)
O2 O -0.0314(3) 0.7296(3) 0.9389(2)
O3 O 0.5159(2) 0.7437(3) 0.4448(2)
O4 O 0.5028(2) 0.9741(3) 0.67598(19)
O5 O 0.1414(2) 0.9630(3) 0.98558(19)
O6 O -0.0114(2) 0.9803(2) 0.64738(17)
N1 N -0.1097(3) 0.7207(3) 0.7120(2)
N2 N 0.0380(3) 0.8440(3) 0.9125(2)
C1 C -0.4317(4) 0.2924(4) 0.0181(3)
C2 C -0.2925(3) 0.3959(3) 0.1193(3)
C3 C -0.2788(3) 0.3658(3) 0.2315(3)
H1 H -0.3555 0.2789 0.2428
C4 C -0.1526(3) 0.4635(3) 0.3263(2)
H2 H -0.1440 0.4446 0.4036
C5 C -0.0373(3) 0.5899(3) 0.3093(2)
C6 C 0.1050(3) 0.6904(3) 0.4073(2)
C7 C 0.1053(3) 0.8049(3) 0.5223(2)
C8 C -0.0401(3) 0.8353(3) 0.5520(2)
H3 H -0.0917 0.8333 0.4719
C9 C -0.0019(3) 0.8460(3) 0.7842(2)
C10 C -0.0521(3) 0.6167(3) 0.1955(3)
H4 H 0.0258 0.7016 0.1826
C11 C -0.1794(3) 0.5206(3) 0.1013(3)
H5 H -0.1891 0.5401 0.0244
C12 C 0.2416(3) 0.6700(3) 0.3814(2)
H6 H 0.2415 0.5927 0.3035
C13 C 0.3795(3) 0.7605(3) 0.4671(3)
C14 C 0.5099(4) 0.6038(4) 0.3475(3)
H7 H 0.4412 0.5135 0.3653
H8 H 0.6140 0.6022 0.3464
H9 H 0.4706 0.5998 0.2640
C15 C 0.3795(3) 0.8747(3) 0.5820(2)
C16 C 0.6456(3) 0.9566(4) 0.6843(3)
H10 H 0.6270 0.8485 0.6739
H11 H 0.7077 1.0263 0.7682
H12 H 0.7011 0.9829 0.6167
C17 C 0.2420(3) 0.8959(3) 0.6088(2)
C18 C 0.0802(3) 0.9933(3) 0.7594(2)
H13 H 0.0816 1.0844 0.8339
C19 C 0.2442(3) 1.0175(3) 0.7341(2)
H14 H 0.2962 1.1227 0.7306
H15 H 0.3030 1.0099 0.8047
loop_
_geom_bond_atom_site_label_1
_geom_bond_atom_site_label_2
_geom_bond_site_symmetry_1
_geom_bond_site_symmetry_2
F1 C1 1_555 1_555
F2 C1 1_555 1_555
F3 C1 1_555 1_555
O1 N1 1_555 1_555
O2 N2 1_555 1_555
O3 C13 1_555 1_555
O4 C15 1_555 1_555
O5 N2 1_555 1_555
O6 C8 1_555 1_555
N1 C9 1_555 1_555
N2 C9 1_555 1_555
C1 C2 1_555 1_555
C2 C3 1_555 1_555
C3 H1 1_555 1_555
C4 C3 1_555 1_555
H2 C4 1_555 1_555
C5 C4 1_555 1_555
C6 C5 1_555 1_555
C7 C6 1_555 1_555
C8 O1 1_555 1_555
H3 C8 1_555 1_555
C9 C18 1_555 1_555
C10 C5 1_555 1_555
H4 C10 1_555 1_555
C11 C2 1_555 1_555
H5 C11 1_555 1_555
C12 C6 1_555 1_555
H6 C12 1_555 1_555
C13 C12 1_555 1_555
C14 O3 1_555 1_555
H7 C14 1_555 1_555
H8 C14 1_555 1_555
H9 C14 1_555 1_555
C15 C13 1_555 1_555
C16 O4 1_555 1_555
H10 C16 1_555 1_555
H11 C16 1_555 1_555
H12 C16 1_555 1_555
C17 C7 1_555 1_555
C18 O6 1_555 1_555
H13 C18 1_555 1_555
C19 C17 1_555 1_555
H14 C19 1_555 1_555
H15 C19 1_555 1_555
C7 C8 1_555 1_555
C10 C11 1_555 1_555
C15 C17 1_555 1_555
C18 C19 1_555 1_555

#END
