
#######################################################################
#
#                 Cambridge Crystallographic Data Centre
#                                CCDC 
#
#######################################################################
#
# If this CIF has been generated from an entry in the Cambridge 
# Structural Database, then it will include bibliographic, chemical, 
# crystal, experimental, refinement or atomic coordinate data resulting 
# from the CCDC's data processing and validation procedures.
#
#######################################################################

data_YAPKEI
_chemical_formula_moiety         'C29 H45 B1 O5'
_chemical_name_systematic        
10,13-dimethyl-17-(4-(4,4,5,5-tetramethyl-1,3,2-dioxaborolan-2-yl)butan-2-yl)decahydro-1H-cyclopenta[a]phenanthrene-3,7,12(2H,4H,6H)-trione
_symmetry_cell_setting           orthorhombic
_symmetry_space_group_name_H-M   'P 21 21 21'
_symmetry_Int_Tables_number      19
_space_group_name_Hall           'P 2ac 2ab'
loop_
_symmetry_equiv_pos_site_id
_symmetry_equiv_pos_as_xyz
1 x,y,z
2 1/2-x,-y,1/2+z
3 -x,1/2+y,1/2-z
4 1/2+x,1/2-y,-z
_cell_length_a                   6.6785(3)
_cell_length_b                   17.0629(7)
_cell_length_c                   23.2325(10)
_cell_angle_alpha                90
_cell_angle_beta                 90
_cell_angle_gamma                90
_cell_volume                     2647.45
_exptl_crystal_colour            colorless
_exptl_crystal_description       needle
_cell_formula_units_Z            4
loop_
_atom_site_label
_atom_site_type_symbol
_atom_site_fract_x
_atom_site_fract_y
_atom_site_fract_z
O1 O 0.2096(6) 1.0257(2) 0.54155(17)
O2 O -0.1462(5) 0.71346(18) 0.50925(13)
O3 O 0.5151(5) 0.66324(18) 0.66607(15)
O4 O 0.9138(5) 0.29491(18) 0.62885(14)
O5 O 0.6214(5) 0.24531(18) 0.59289(14)
C1 C -0.1639(8) 0.8353(3) 0.6986(2)
H1 H -0.2415 0.7878 0.6905
H2 H -0.2550 0.8800 0.7022
H3 H -0.0896 0.8284 0.7346
C2 C -0.0168(7) 0.8502(3) 0.6494(2)
C3 C 0.1254(8) 0.9169(3) 0.6685(2)
H4 H 0.0435 0.9624 0.6805
H5 H 0.2017 0.8990 0.7026
C4 C 0.2731(7) 0.9438(3) 0.6227(2)
H6 H 0.3492 0.9895 0.6374
H7 H 0.3698 0.9012 0.6149
C5 C 0.1697(8) 0.9661(3) 0.5679(2)
C6 C 0.0116(8) 0.9100(3) 0.5473(2)
H8 H 0.0783 0.8646 0.5289
H9 H -0.0703 0.9364 0.5176
C7 C -0.1299(8) 0.8791(3) 0.5953(2)
H10 H -0.2174 0.9237 0.6074
C8 C -0.2675(7) 0.8147(3) 0.5703(2)
H11 H -0.3741 0.8021 0.5984
H12 H -0.3321 0.8341 0.5347
C9 C -0.1479(7) 0.7414(3) 0.5570(2)
C10 C -0.0329(7) 0.7097(2) 0.60800(19)
H13 H -0.1329 0.6954 0.6383
C11 C 0.1039(7) 0.7747(2) 0.63334(19)
H14 H 0.1999 0.7899 0.6022
C12 C 0.2308(7) 0.7445(3) 0.6842(2)
H15 H 0.3332 0.7841 0.6943
H16 H 0.1435 0.7367 0.7182
C13 C 0.3336(7) 0.6674(2) 0.6691(2)
C14 C 0.1896(7) 0.6029(2) 0.6512(2)
C15 C 0.0911(7) 0.6368(3) 0.59544(19)
H17 H 0.2023 0.6530 0.5692
C16 C -0.0065(8) 0.5646(3) 0.5690(2)
H18 H -0.0161 0.5700 0.5267
H19 H -0.1427 0.5568 0.5848
C17 C 0.1308(7) 0.4955(3) 0.5852(2)
H20 H 0.1997 0.4752 0.5505
H21 H 0.0510 0.4524 0.6022
C18 C 0.2860(7) 0.5259(3) 0.6293(2)
H22 H 0.4114 0.5396 0.6080
C19 C 0.3387(7) 0.4655(3) 0.6757(2)
H23 H 0.2107 0.4525 0.6958
C20 C 0.4188(8) 0.3878(3) 0.6506(2)
H24 H 0.4321 0.3496 0.6825
H25 H 0.3178 0.3668 0.6235
C21 C 0.6196(8) 0.3927(3) 0.6192(2)
H26 H 0.7108 0.4276 0.6409
H27 H 0.5986 0.4160 0.5806
C22 C 0.0320(7) 0.5857(3) 0.69805(19)
H28 H 0.0997 0.5712 0.7339
H29 H -0.0542 0.5425 0.6855
H30 H -0.0497 0.6326 0.7045
C23 C 0.4823(7) 0.4968(3) 0.7220(2)
H31 H 0.6060 0.5151 0.7037
H32 H 0.5138 0.4548 0.7493
H33 H 0.4188 0.5404 0.7425
C24 C 1.0715(8) 0.2254(3) 0.5515(2)
H34 H 0.9805 0.2480 0.5228
H35 H 1.1183 0.1741 0.5381
H36 H 1.1865 0.2604 0.5568
C25 C 0.9609(8) 0.2158(3) 0.6088(2)
C26 C 1.1001(7) 0.1779(3) 0.6523(2)
H37 H 1.2261 0.2073 0.6539
H38 H 1.1275 0.1237 0.6407
H39 H 1.0367 0.1782 0.6903
C27 C 0.7260(8) 0.1212(3) 0.5529(2)
H40 H 0.5868 0.1031 0.5511
H41 H 0.8149 0.0761 0.5583
H42 H 0.7606 0.1479 0.5169
C28 C 0.7503(8) 0.1774(3) 0.6028(2)
C29 C 0.6772(8) 0.1394(3) 0.6583(2)
H43 H 0.6943 0.1762 0.6904
H44 H 0.7550 0.0918 0.6658
H45 H 0.5352 0.1259 0.6545
B1 B 0.7194(9) 0.3105(3) 0.6125(3)
loop_
_geom_bond_atom_site_label_1
_geom_bond_atom_site_label_2
_geom_bond_site_symmetry_1
_geom_bond_site_symmetry_2
O1 C5 1_555 1_555
O2 C9 1_555 1_555
O3 C13 1_555 1_555
O4 C25 1_555 1_555
O5 C28 1_555 1_555
C1 H1 1_555 1_555
H2 C1 1_555 1_555
H3 C1 1_555 1_555
C2 C1 1_555 1_555
C3 C2 1_555 1_555
H4 C3 1_555 1_555
H5 C3 1_555 1_555
C4 C3 1_555 1_555
H6 C4 1_555 1_555
H7 C4 1_555 1_555
C5 C4 1_555 1_555
C6 C5 1_555 1_555
H8 C6 1_555 1_555
H9 C6 1_555 1_555
C7 C2 1_555 1_555
H10 C7 1_555 1_555
C8 C7 1_555 1_555
H11 C8 1_555 1_555
H12 C8 1_555 1_555
C9 C8 1_555 1_555
C10 C9 1_555 1_555
H13 C10 1_555 1_555
C11 C2 1_555 1_555
H14 C11 1_555 1_555
C12 C11 1_555 1_555
H15 C12 1_555 1_555
H16 C12 1_555 1_555
C13 C12 1_555 1_555
C14 C13 1_555 1_555
C15 C10 1_555 1_555
H17 C15 1_555 1_555
C16 C15 1_555 1_555
H18 C16 1_555 1_555
H19 C16 1_555 1_555
C17 C16 1_555 1_555
H20 C17 1_555 1_555
H21 C17 1_555 1_555
C18 C14 1_555 1_555
H22 C18 1_555 1_555
C19 C18 1_555 1_555
H23 C19 1_555 1_555
C20 C19 1_555 1_555
H24 C20 1_555 1_555
H25 C20 1_555 1_555
C21 C20 1_555 1_555
H26 C21 1_555 1_555
H27 C21 1_555 1_555
C22 C14 1_555 1_555
H28 C22 1_555 1_555
H29 C22 1_555 1_555
H30 C22 1_555 1_555
C23 C19 1_555 1_555
H31 C23 1_555 1_555
H32 C23 1_555 1_555
H33 C23 1_555 1_555
C24 H34 1_555 1_555
H35 C24 1_555 1_555
H36 C24 1_555 1_555
C25 C24 1_555 1_555
C26 C25 1_555 1_555
H37 C26 1_555 1_555
H38 C26 1_555 1_555
H39 C26 1_555 1_555
C27 H40 1_555 1_555
H41 C27 1_555 1_555
H42 C27 1_555 1_555
C28 C25 1_555 1_555
C29 C28 1_555 1_555
H43 C29 1_555 1_555
H44 C29 1_555 1_555
H45 C29 1_555 1_555
B1 O4 1_555 1_555
O5 B1 1_555 1_555
C6 C7 1_555 1_555
C10 C11 1_555 1_555
C14 C15 1_555 1_555
C17 C18 1_555 1_555
C21 B1 1_555 1_555
C27 C28 1_555 1_555

#END
