
#######################################################################
#
#                 Cambridge Crystallographic Data Centre
#                                CCDC 
#
#######################################################################
#
# If this CIF has been generated from an entry in the Cambridge 
# Structural Database, then it will include bibliographic, chemical, 
# crystal, experimental, refinement or atomic coordinate data resulting 
# from the CCDC's data processing and validation procedures.
#
#######################################################################

data_YAPMEI
_chemical_formula_moiety         'C8 H10'
_chemical_name_systematic        7-Methylenedispiro(2.0.2.1)heptane
_symmetry_cell_setting           orthorhombic
_symmetry_space_group_name_H-M   'P n a 21'
_symmetry_Int_Tables_number      33
_space_group_name_Hall           'P 2c -2n'
loop_
_symmetry_equiv_pos_site_id
_symmetry_equiv_pos_as_xyz
1 x,y,z
2 -x,-y,1/2+z
3 1/2+x,1/2-y,z
4 1/2-x,1/2+y,1/2+z
_cell_length_a                   7.7412(2)
_cell_length_b                   15.3006(4)
_cell_length_c                   5.5257(2)
_cell_angle_alpha                90
_cell_angle_beta                 90
_cell_angle_gamma                90
_cell_volume                     654.492
_exptl_crystal_colour            colorless
_exptl_crystal_description       cylinder
_chemical_melting_point          '248 K'
_cell_formula_units_Z            4
loop_
_atom_site_label
_atom_site_type_symbol
_atom_site_fract_x
_atom_site_fract_y
_atom_site_fract_z
C1 C 0.63021(10) 0.68698(7) 0.7546(2)
C2 C 0.53282(11) 0.62843(6) 0.59753(18)
C3 C 0.72410(11) 0.62307(6) 0.60932(17)
C4 C 0.63257(11) 0.75201(8) 0.9109(3)
C5 C 0.39729(13) 0.63500(7) 0.4079(2)
C6 C 0.38327(13) 0.56720(7) 0.6068(3)
C7 C 0.87243(12) 0.61839(8) 0.4382(3)
C8 C 0.85640(13) 0.55349(8) 0.6450(3)
H1 H 0.7337(18) 0.7719(11) 0.969(4)
H2 H 0.5266(17) 0.7783(10) 0.955(4)
H3 H 0.429(2) 0.6125(8) 0.248(3)
H4 H 0.3180(18) 0.6869(9) 0.418(3)
H5 H 0.4047(16) 0.5062(9) 0.565(3)
H6 H 0.3043(17) 0.5775(8) 0.730(3)
H7 H 0.8468(17) 0.5963(10) 0.281(4)
H8 H 0.9653(16) 0.6642(9) 0.448(3)
H9 H 0.8251(17) 0.4922(8) 0.607(3)
H10 H 0.9358(18) 0.5610(8) 0.780(3)
loop_
_geom_bond_atom_site_label_1
_geom_bond_atom_site_label_2
_geom_bond_site_symmetry_1
_geom_bond_site_symmetry_2
C1 C2 1_555 1_555
C2 C3 1_555 1_555
C3 C1 1_555 1_555
C4 C1 1_555 1_555
C5 C2 1_555 1_555
C6 C2 1_555 1_555
C7 C3 1_555 1_555
C8 C3 1_555 1_555
H1 C4 1_555 1_555
H2 C4 1_555 1_555
H3 C5 1_555 1_555
H4 C5 1_555 1_555
H5 C6 1_555 1_555
H6 C6 1_555 1_555
H7 C7 1_555 1_555
H8 C7 1_555 1_555
H9 C8 1_555 1_555
H10 C8 1_555 1_555
C5 C6 1_555 1_555
C7 C8 1_555 1_555

#END
