
#######################################################################
#
#                 Cambridge Crystallographic Data Centre
#                                CCDC 
#
#######################################################################
#
# If this CIF has been generated from an entry in the Cambridge 
# Structural Database, then it will include bibliographic, chemical, 
# crystal, experimental, refinement or atomic coordinate data resulting 
# from the CCDC's data processing and validation procedures.
#
#######################################################################

data_YAPMUZ
_chemical_name_common            
1,3,5,7,9-pentakis(2,6-dichlorophenyl)corannulene
_chemical_formula_moiety         'C50 H20 Cl10'
_chemical_name_systematic        
1,3,5,7,9-pentakis(2,6-dichlorophenyl)dibenzo[ghi,mno]fluoranthene
_symmetry_cell_setting           orthorhombic
_symmetry_space_group_name_H-M   'P n a 21'
_symmetry_Int_Tables_number      33
_space_group_name_Hall           'P 2c -2n'
loop_
_symmetry_equiv_pos_site_id
_symmetry_equiv_pos_as_xyz
1 x,y,z
2 -x,-y,1/2+z
3 1/2-x,1/2+y,1/2+z
4 1/2+x,1/2-y,z
_cell_length_a                   27.6998(19)
_cell_length_b                   8.0335(6)
_cell_length_c                   19.1504(13)
_cell_angle_alpha                90
_cell_angle_beta                 90
_cell_angle_gamma                90
_cell_volume                     4261.47
_exptl_crystal_colour            'pale yellow'
_exptl_crystal_description       plate
_cell_formula_units_Z            4
loop_
_atom_site_label
_atom_site_type_symbol
_atom_site_fract_x
_atom_site_fract_y
_atom_site_fract_z
C1 C 0.10379(14) 0.5658(5) 0.3656(2)
C2 C 0.14354(14) 0.5843(4) 0.32168(19)
C3 C 0.18267(13) 0.5042(5) 0.35091(18)
C4 C 0.16819(14) 0.4351(5) 0.41602(19)
C5 C 0.11855(14) 0.4748(5) 0.42507(18)
C6 C 0.05663(14) 0.5664(5) 0.34113(19)
C7 C 0.05115(13) 0.6175(4) 0.27068(19)
H1 H 0.0214(9) 0.632(5) 0.2487(19)
C8 C 0.09115(14) 0.6414(5) 0.2261(2)
C9 C 0.13939(13) 0.6086(4) 0.2495(2)
C10 C 0.18035(13) 0.5619(5) 0.21135(19)
H2 H 0.1822(14) 0.592(5) 0.1638(11)
C11 C 0.21963(14) 0.4723(5) 0.2396(2)
C12 C 0.22031(13) 0.4314(5) 0.3125(2)
C13 C 0.24610(13) 0.3033(5) 0.34737(19)
H3 H 0.2735(10) 0.261(5) 0.3261(19)
C14 C 0.23089(13) 0.2328(5) 0.4102(2)
C15 C 0.18792(14) 0.2940(5) 0.4454(2)
C16 C 0.15839(14) 0.2092(5) 0.49538(18)
H4 H 0.1714(14) 0.119(4) 0.5194(19)
C17 C 0.10892(14) 0.2485(5) 0.50351(19)
C18 C 0.08709(14) 0.3795(5) 0.46332(19)
C19 C 0.03690(13) 0.3942(5) 0.4449(2)
H5 H 0.0118(11) 0.343(5) 0.4719(18)
C20 C 0.02203(14) 0.4839(5) 0.3853(2)
C21 C 0.08502(13) 0.6973(5) 0.15232(19)
C22 C 0.08053(14) 0.5891(5) 0.09668(19)
Cl1 Cl 0.07771(4) 0.37710(11) 0.11391(5)
C23 C 0.07820(14) 0.6412(5) 0.0287(2)
H6 H 0.0773(15) 0.563(4) -0.0088(16)
C24 C 0.07929(14) 0.8119(5) 0.0147(2)
H7 H 0.0784(15) 0.841(5) -0.0327(11)
C25 C 0.08275(13) 0.9249(5) 0.0691(2)
H8 H 0.0865(14) 1.038(3) 0.059(2)
C26 C 0.08614(12) 0.8677(4) 0.13631(18)
Cl2 Cl 0.08978(3) 1.00925(11) 0.20460(5)
C27 C 0.25792(13) 0.3987(5) 0.1947(2)
C28 C 0.25126(13) 0.2488(5) 0.1592(2)
Cl3 Cl 0.19532(4) 0.14943(13) 0.16579(6)
C29 C 0.28672(15) 0.1717(5) 0.1198(2)
H9 H 0.2805(16) 0.062(3) 0.104(2)
C30 C 0.33102(15) 0.2484(6) 0.1144(2)
H10 H 0.3564(13) 0.199(5) 0.088(2)
C31 C 0.33979(14) 0.3957(5) 0.1493(2)
H11 H 0.3682(10) 0.458(5) 0.147(2)
C32 C 0.30405(14) 0.4683(5) 0.18850(19)
Cl4 Cl 0.31616(4) 0.65371(15) 0.23079(6)
C33 C 0.25457(13) 0.0775(5) 0.4361(2)
C34 C 0.28289(14) 0.0752(5) 0.4969(2)
Cl5 Cl 0.29053(4) 0.26039(12) 0.54368(5)
C35 C 0.30666(15) -0.0659(5) 0.5181(2)
H12 H 0.3261(14) -0.058(6) 0.5587(16)
C36 C 0.30061(16) -0.2118(5) 0.4821(2)
H13 H 0.3181(14) -0.311(4) 0.493(2)
C37 C 0.27254(15) -0.2168(5) 0.4225(2)
H14 H 0.2640(15) -0.312(4) 0.3954(19)
C38 C 0.25047(13) -0.0719(5) 0.4007(2)
Cl6 Cl 0.21737(5) -0.07993(14) 0.32310(7)
C39 C 0.07756(14) 0.1391(5) 0.5478(2)
C40 C 0.05957(13) 0.1856(4) 0.6128(2)
Cl7 Cl 0.07044(4) 0.38635(12) 0.64320(5)
C41 C 0.03522(14) 0.0745(5) 0.6557(2)
H15 H 0.0279(15) 0.109(5) 0.7017(12)
C42 C 0.02652(13) -0.0839(5) 0.6330(2)
H16 H 0.0098(14) -0.159(4) 0.6604(19)
C43 C 0.04102(14) -0.1343(5) 0.5679(2)
H17 H 0.0349(15) -0.239(3) 0.547(2)
C44 C 0.06677(14) -0.0228(5) 0.52603(19)
Cl8 Cl 0.08591(4) -0.09069(14) 0.44459(6)
C45 C -0.02934(13) 0.4750(5) 0.36079(19)
C46 C -0.04700(15) 0.3327(6) 0.3292(2)
Cl9 Cl -0.00867(5) 0.16299(15) 0.31795(6)
C47 C -0.09442(18) 0.3195(7) 0.3050(3)
H18 H -0.1023(18) 0.216(4) 0.286(3)
C48 C -0.12426(17) 0.4547(8) 0.3127(3)
H19 H -0.1558(10) 0.469(7) 0.296(3)
C49 C -0.10903(16) 0.5970(7) 0.3452(3)
H20 H -0.1285(15) 0.690(4) 0.347(3)
C50 C -0.06193(14) 0.6058(5) 0.3674(2)
Cl10 Cl -0.04262(4) 0.78707(15) 0.40934(7)
Cl11? Cl 0.1941(5) -0.0803(19) 0.3566(10)
loop_
_geom_bond_atom_site_label_1
_geom_bond_atom_site_label_2
_geom_bond_site_symmetry_1
_geom_bond_site_symmetry_2
C1 C2 1_555 1_555
C2 C3 1_555 1_555
C3 C4 1_555 1_555
C4 C5 1_555 1_555
C5 C1 1_555 1_555
C6 C1 1_555 1_555
C7 C6 1_555 1_555
H1 C7 1_555 1_555
C8 C7 1_555 1_555
C9 C2 1_555 1_555
C10 C9 1_555 1_555
H2 C10 1_555 1_555
C11 C10 1_555 1_555
C12 C3 1_555 1_555
C13 C12 1_555 1_555
H3 C13 1_555 1_555
C14 C13 1_555 1_555
C15 C4 1_555 1_555
C16 C15 1_555 1_555
H4 C16 1_555 1_555
C17 C16 1_555 1_555
C18 C5 1_555 1_555
C19 C18 1_555 1_555
H5 C19 1_555 1_555
C20 C6 1_555 1_555
C21 C8 1_555 1_555
C22 C21 1_555 1_555
Cl1 C22 1_555 1_555
C23 C22 1_555 1_555
H6 C23 1_555 1_555
C24 C23 1_555 1_555
H7 C24 1_555 1_555
C25 C24 1_555 1_555
H8 C25 1_555 1_555
C26 C21 1_555 1_555
Cl2 C26 1_555 1_555
C27 C11 1_555 1_555
C28 C27 1_555 1_555
Cl3 C28 1_555 1_555
C29 C28 1_555 1_555
H9 C29 1_555 1_555
C30 C29 1_555 1_555
H10 C30 1_555 1_555
C31 C30 1_555 1_555
H11 C31 1_555 1_555
C32 C27 1_555 1_555
Cl4 C32 1_555 1_555
C33 C14 1_555 1_555
C34 C33 1_555 1_555
Cl5 C34 1_555 1_555
C35 C34 1_555 1_555
H12 C35 1_555 1_555
C36 C35 1_555 1_555
H13 C36 1_555 1_555
C37 C36 1_555 1_555
H14 C37 1_555 1_555
C38 C33 1_555 1_555
Cl6 C38 1_555 1_555
C39 C17 1_555 1_555
C40 C39 1_555 1_555
Cl7 C40 1_555 1_555
C41 C40 1_555 1_555
H15 C41 1_555 1_555
C42 C41 1_555 1_555
H16 C42 1_555 1_555
C43 C42 1_555 1_555
H17 C43 1_555 1_555
C44 C39 1_555 1_555
Cl8 C44 1_555 1_555
C45 C20 1_555 1_555
C46 C45 1_555 1_555
Cl9 C46 1_555 1_555
C47 C46 1_555 1_555
H18 C47 1_555 1_555
C48 C47 1_555 1_555
H19 C48 1_555 1_555
C49 C48 1_555 1_555
H20 C49 1_555 1_555
C50 C45 1_555 1_555
Cl10 C50 1_555 1_555
C8 C9 1_555 1_555
C11 C12 1_555 1_555
C14 C15 1_555 1_555
C17 C18 1_555 1_555
C19 C20 1_555 1_555
C25 C26 1_555 1_555
C31 C32 1_555 1_555
C37 C38 1_555 1_555
C43 C44 1_555 1_555
C49 C50 1_555 1_555

#END
