
#######################################################################
#
#                 Cambridge Crystallographic Data Centre
#                                CCDC 
#
#######################################################################
#
# If this CIF has been generated from an entry in the Cambridge 
# Structural Database, then it will include bibliographic, chemical, 
# crystal, experimental, refinement or atomic coordinate data resulting 
# from the CCDC's data processing and validation procedures.
#
#######################################################################

data_YAPMAE
_chemical_formula_moiety         'C8 H14'
_chemical_name_systematic        2,2,3,3-Tetramethyl-1-methylenecyclopropane
_symmetry_cell_setting           tetragonal
_symmetry_space_group_name_H-M   'P 4/n m m'
_symmetry_Int_Tables_number      129
_space_group_name_Hall           '-P 4a 2a'
loop_
_symmetry_equiv_pos_site_id
_symmetry_equiv_pos_as_xyz
1 x,y,z
2 1/2-y,x,z
3 1/2+x,-y,-z
4 1/2-x,1/2-y,z
5 1/2+y,1/2+x,-z
6 y,1/2-x,z
7 -x,1/2+y,-z
8 -y,-x,-z
9 -x,-y,-z
10 1/2+y,-x,-z
11 1/2-x,y,z
12 1/2+x,1/2+y,-z
13 1/2-y,1/2-x,z
14 -y,1/2+x,-z
15 x,1/2-y,z
16 y,x,z
_cell_length_a                   7.745(1)
_cell_length_b                   7.745(1)
_cell_length_c                   6.589(1)
_cell_angle_alpha                90
_cell_angle_beta                 90
_cell_angle_gamma                90
_cell_volume                     395.241
_exptl_crystal_colour            colorless
_exptl_crystal_description       cylinder
_cell_formula_units_Z            2
loop_
_atom_site_label
_atom_site_type_symbol
_atom_site_fract_x
_atom_site_fract_y
_atom_site_fract_z
C1 C 0.2500 0.2500 0.4973(3)
C2 C 0.32133(16) 0.17867(16) 0.6880(2)
C3 C 0.50528(16) 0.2500 0.74783(19)
C4 C 0.2500 0.2500 0.2962(3)
H1 H 0.519(3) 0.2500 0.901(3)
H2 H 0.572(3) 0.147(2) 0.690(4)
H3 H 0.170(3) 0.330(3) 0.220(5)
C2A C 0.32133(16) 0.32133(16) 0.6880(2)
C2C C 0.17867(16) 0.32133(16) 0.6880(2)
C2E C 0.17867(16) 0.17867(16) 0.6880(2)
C3C C -0.00528(16) 0.2500 0.74783(19)
C3A C 0.2500 0.50528(16) 0.74783(19)
C3E C 0.2500 -0.00528(16) 0.74783(19)
H1A H 0.2500 0.519(3) 0.901(3)
H1E H 0.2500 -0.019(3) 0.901(3)
H1C H -0.019(3) 0.2500 0.901(3)
H2A H 0.353(2) 0.572(3) 0.690(4)
H2O H 0.147(2) 0.572(3) 0.690(4)
H2E H 0.147(2) -0.072(3) 0.690(4)
H2L H 0.353(2) -0.072(3) 0.690(4)
H2N H 0.572(3) 0.353(2) 0.690(4)
H2C H -0.072(3) 0.353(2) 0.690(4)
H2J H -0.072(3) 0.147(2) 0.690(4)
H3A H 0.170(3) 0.170(3) 0.220(5)
H3C H 0.330(3) 0.170(3) 0.220(5)
H3E H 0.330(3) 0.330(3) 0.220(5)
loop_
_geom_bond_atom_site_label_1
_geom_bond_atom_site_label_2
_geom_bond_site_symmetry_1
_geom_bond_site_symmetry_2
C1 C2 1_555 1_555
C2 C3 1_555 1_555
C3 H1 1_555 1_555
C4 C1 1_555 1_555
H2 C3 1_555 1_555
H3 C4 1_555 1_555
C2A C1 1_555 1_555
C2C C1 1_555 1_555
C2E C1 1_555 1_555
C3C C2C 1_555 1_555
C3A C2A 1_555 1_555
C3E C2 1_555 1_555
H1A C3A 1_555 1_555
H1E C3E 1_555 1_555
H1C C3C 1_555 1_555
H2A C3A 1_555 1_555
H2O C3A 1_555 1_555
H2E C3E 1_555 1_555
H2L C3E 1_555 1_555
H2N C3 1_555 1_555
H2C C3C 1_555 1_555
H2J C3C 1_555 1_555
H3A C4 1_555 1_555
H3C C4 1_555 1_555
H3E C4 1_555 1_555
C2 C2A 1_555 1_555
C2 C2C 1_555 1_555
C2 C2E 1_555 1_555
C3 C2A 1_555 1_555
C2A C2C 1_555 1_555
C2A C2E 1_555 1_555
C2C C2E 1_555 1_555
C2C C3A 1_555 1_555
C2E C3C 1_555 1_555
C2E C3E 1_555 1_555

#END
