
#######################################################################
#
#                 Cambridge Crystallographic Data Centre
#                                CCDC 
#
#######################################################################
#
# If this CIF has been generated from an entry in the Cambridge 
# Structural Database, then it will include bibliographic, chemical, 
# crystal, experimental, refinement or atomic coordinate data resulting 
# from the CCDC's data processing and validation procedures.
#
#######################################################################

data_YAPMOS
_chemical_formula_moiety         'C30 H34'
_chemical_name_systematic        
15,15'-Bi(hexaspiro(2.0.2.0.0.0.2.0.2.0.1.0)pentadecane)
_symmetry_cell_setting           triclinic
_symmetry_space_group_name_H-M   'P -1'
_symmetry_Int_Tables_number      2
_space_group_name_Hall           '-P 1'
loop_
_symmetry_equiv_pos_site_id
_symmetry_equiv_pos_as_xyz
1 x,y,z
2 -x,-y,-z
_cell_length_a                   7.1046(3)
_cell_length_b                   9.2882(5)
_cell_length_c                   10.1212(5)
_cell_angle_alpha                112.223(1)
_cell_angle_beta                 100.382(1)
_cell_angle_gamma                102.933(1)
_cell_volume                     576.042
_exptl_crystal_colour            colorless
_exptl_crystal_description       block
_cell_formula_units_Z            1
loop_
_atom_site_label
_atom_site_type_symbol
_atom_site_fract_x
_atom_site_fract_y
_atom_site_fract_z
C1 C 0.43057(11) 0.96438(9) 0.92260(8)
C2 C 0.50406(11) 0.87741(9) 0.79392(8)
C3 C 0.64813(11) 0.78458(9) 0.76832(8)
C4 C 0.85610(13) 0.81539(11) 0.75554(10)
C5 C 0.79425(14) 0.74359(11) 0.86040(10)
C6 C 0.43670(11) 0.70999(9) 0.67132(8)
C7 C 0.26510(13) 0.55784(10) 0.61999(9)
C8 C 0.32112(13) 0.62551(10) 0.51084(9)
C9 C 0.48530(11) 1.03901(9) 0.82008(8)
C10 C 0.60537(11) 1.20317(9) 0.84274(8)
C11 C 0.81073(13) 1.29267(10) 0.85069(9)
C12 C 0.71197(14) 1.36583(10) 0.97148(9)
C13 C 0.40229(11) 1.12050(9) 0.73424(8)
C14 C 0.31219(13) 1.08107(11) 0.57591(9)
C15 C 0.21678(13) 1.16252(12) 0.69634(10)
H1 H 0.2843(16) 0.9194(13) 0.9117(12)
H2 H 0.8801(17) 0.7425(14) 0.6654(13)
H3 H 0.9442(19) 0.9315(15) 0.7999(14)
H4 H 0.7833(19) 0.6272(16) 0.8319(14)
H5 H 0.8413(19) 0.8144(15) 0.9676(14)
H6 H 0.2952(17) 0.4557(14) 0.6123(13)
H7 H 0.1417(18) 0.5708(14) 0.6479(13)
H8 H 0.3835(18) 0.5657(14) 0.4392(13)
H9 H 0.2321(17) 0.6790(13) 0.4759(12)
H10 H 0.9217(18) 1.2518(14) 0.8768(13)
H11 H 0.8225(18) 1.3415(15) 0.7818(14)
H12 H 0.7671(19) 1.3696(15) 1.0692(15)
H13 H 0.6672(18) 1.4598(15) 0.9739(14)
H14 H 0.2401(19) 0.9650(16) 0.5080(14)
H15 H 0.3849(19) 1.1485(15) 0.5335(14)
H16 H 0.0875(19) 1.0957(15) 0.6953(13)
H17 H 0.2302(19) 1.2812(16) 0.7265(14)
C1A C 0.56943(11) 1.03562(9) 1.07740(8)
C2A C 0.49594(11) 1.12259(9) 1.20608(8)
C3A C 0.35187(11) 1.21542(9) 1.23168(8)
C4A C 0.14390(13) 1.18461(11) 1.24446(10)
C5A C 0.20575(14) 1.25641(11) 1.13960(10)
C6A C 0.56330(11) 1.29001(9) 1.32868(8)
C7A C 0.73490(13) 1.44216(10) 1.38001(9)
C8A C 0.67888(13) 1.37449(10) 1.48916(9)
C9A C 0.51470(11) 0.96099(9) 1.17992(8)
C10A C 0.39463(11) 0.79683(9) 1.15726(8)
C11A C 0.18927(13) 0.70733(10) 1.14931(9)
C12A C 0.28803(14) 0.63417(10) 1.02852(9)
C13A C 0.59771(11) 0.87950(9) 1.26576(8)
C14A C 0.68781(13) 0.91893(11) 1.42409(9)
C15A C 0.78322(13) 0.83748(12) 1.30366(10)
H1A H 0.7157(16) 1.0806(13) 1.0883(12)
H2A H 0.1199(17) 1.2575(14) 1.3346(13)
H3A H 0.0558(19) 1.0685(15) 1.2001(14)
H4A H 0.2167(19) 1.3728(16) 1.1681(14)
H5A H 0.1587(19) 1.1856(15) 1.0324(14)
H6A H 0.7048(17) 1.5443(14) 1.3877(13)
H7A H 0.8583(18) 1.4292(14) 1.3521(13)
H8A H 0.6165(18) 1.4343(14) 1.5608(13)
H9A H 0.7679(17) 1.3210(13) 1.5241(12)
H10A H 0.0783(18) 0.7482(14) 1.1232(13)
H11A H 0.1775(18) 0.6585(15) 1.2182(14)
H12A H 0.2329(19) 0.6304(15) 0.9308(15)
H13A H 0.3328(18) 0.5402(15) 1.0261(14)
H14A H 0.7599(19) 1.0350(16) 1.4920(14)
H15A H 0.6151(19) 0.8515(15) 1.4665(14)
H16A H 0.9125(19) 0.9043(15) 1.3047(13)
H17A H 0.7698(19) 0.7188(16) 1.2735(14)
loop_
_geom_bond_atom_site_label_1
_geom_bond_atom_site_label_2
_geom_bond_site_symmetry_1
_geom_bond_site_symmetry_2
C1 C2 1_555 1_555
C2 C3 1_555 1_555
C3 C4 1_555 1_555
C4 C5 1_555 1_555
C5 C3 1_555 1_555
C6 C2 1_555 1_555
C7 C6 1_555 1_555
C8 C6 1_555 1_555
C9 C1 1_555 1_555
C10 C9 1_555 1_555
C11 C10 1_555 1_555
C12 C10 1_555 1_555
C13 C9 1_555 1_555
C14 C13 1_555 1_555
C15 C13 1_555 1_555
H1 C1 1_555 1_555
H2 C4 1_555 1_555
H3 C4 1_555 1_555
H4 C5 1_555 1_555
H5 C5 1_555 1_555
H6 C7 1_555 1_555
H7 C7 1_555 1_555
H8 C8 1_555 1_555
H9 C8 1_555 1_555
H10 C11 1_555 1_555
H11 C11 1_555 1_555
H12 C12 1_555 1_555
H13 C12 1_555 1_555
H14 C14 1_555 1_555
H15 C14 1_555 1_555
H16 C15 1_555 1_555
H17 C15 1_555 1_555
C1A C1 1_555 1_555
C2A C1A 1_555 1_555
C3A C2A 1_555 1_555
C4A C3A 1_555 1_555
C5A C3A 1_555 1_555
C6A C2A 1_555 1_555
C7A C6A 1_555 1_555
C8A C6A 1_555 1_555
C9A C1A 1_555 1_555
C10A C9A 1_555 1_555
C11A C10A 1_555 1_555
C12A C10A 1_555 1_555
C13A C9A 1_555 1_555
C14A C13A 1_555 1_555
C15A C13A 1_555 1_555
H1A C1A 1_555 1_555
H2A C4A 1_555 1_555
H3A C4A 1_555 1_555
H4A C5A 1_555 1_555
H5A C5A 1_555 1_555
H6A C7A 1_555 1_555
H7A C7A 1_555 1_555
H8A C8A 1_555 1_555
H9A C8A 1_555 1_555
H10A C11A 1_555 1_555
H11A C11A 1_555 1_555
H12A C12A 1_555 1_555
H13A C12A 1_555 1_555
H14A C14A 1_555 1_555
H15A C14A 1_555 1_555
H16A C15A 1_555 1_555
H17A C15A 1_555 1_555
C2 C9 1_555 1_555
C3 C6 1_555 1_555
C7 C8 1_555 1_555
C10 C13 1_555 1_555
C11 C12 1_555 1_555
C14 C15 1_555 1_555
C2A C9A 1_555 1_555
C3A C6A 1_555 1_555
C4A C5A 1_555 1_555
C7A C8A 1_555 1_555
C10A C13A 1_555 1_555
C11A C12A 1_555 1_555
C14A C15A 1_555 1_555

#END
