
#######################################################################
#
#                 Cambridge Crystallographic Data Centre
#                                CCDC 
#
#######################################################################
#
# If this CIF has been generated from an entry in the Cambridge 
# Structural Database, then it will include bibliographic, chemical, 
# crystal, experimental, refinement or atomic coordinate data resulting 
# from the CCDC's data processing and validation procedures.
#
#######################################################################

data_YAPMOT
_chemical_formula_moiety         'C50 H10,2(C1 S2)'
_chemical_name_systematic        'C50fullerene carbon disulfide'
_symmetry_cell_setting           orthorhombic
_symmetry_space_group_name_H-M   'P 21 21 21'
_symmetry_Int_Tables_number      19
_space_group_name_Hall           'P 2ac 2ab'
loop_
_symmetry_equiv_pos_site_id
_symmetry_equiv_pos_as_xyz
1 x,y,z
2 1/2-x,-y,1/2+z
3 -x,1/2+y,1/2-z
4 1/2+x,1/2-y,-z
_cell_length_a                   10.8009(4)
_cell_length_b                   16.5677(5)
_cell_length_c                   17.0172(6)
_cell_angle_alpha                90
_cell_angle_beta                 90
_cell_angle_gamma                90
_cell_volume                     3045.16
_exptl_crystal_colour            red
_exptl_crystal_description       block
_cell_formula_units_Z            4
loop_
_atom_site_label
_atom_site_type_symbol
_atom_site_fract_x
_atom_site_fract_y
_atom_site_fract_z
C1 C 0.4506(2) 0.17665(15) 0.30798(12)
C2 C 0.4133(2) 0.20432(15) 0.38559(12)
C3 C 0.2976(3) 0.16524(14) 0.40529(12)
C4 C 0.2631(2) 0.11416(14) 0.33957(13)
C5 C 0.3586(2) 0.12109(14) 0.28015(13)
C6 C 0.5058(2) 0.23098(15) 0.25678(13)
C7 C 0.52358(19) 0.31420(15) 0.27852(13)
C8 C 0.4878(2) 0.34019(15) 0.35223(12)
C9 C 0.4325(2) 0.28470(15) 0.40640(12)
C10 C 0.3371(2) 0.32857(14) 0.44810(11)
C11 C 0.2271(2) 0.29169(14) 0.46644(12)
C12 C 0.2058(2) 0.20852(14) 0.44470(11)
C13 C 0.0783(2) 0.20296(15) 0.42079(13)
C14 C 0.0457(3) 0.15381(15) 0.35878(14)
C15 C 0.1396(3) 0.10872(14) 0.31790(14)
C16 C 0.1056(2) 0.11044(13) 0.23541(14)
C17 C 0.1957(2) 0.11639(13) 0.17858(13)
C18 C 0.3240(2) 0.12197(14) 0.20112(12)
C19 C 0.3821(2) 0.17820(14) 0.14741(12)
C20 C 0.4695(2) 0.23147(15) 0.17410(12)
C21 C 0.46681(19) 0.31361(14) 0.14713(12)
C22 C 0.5004(2) 0.36540(15) 0.21193(13)
C23 C 0.4515(2) 0.44288(14) 0.21847(12)
C24 C 0.4142(2) 0.47108(14) 0.29706(12)
C25 C 0.4293(2) 0.41749(14) 0.35969(12)
C26 C 0.3355(2) 0.41061(14) 0.41976(11)
C27 C 0.2281(2) 0.45642(14) 0.41609(12)
C28 C 0.1104(2) 0.41768(14) 0.43614(11)
C29 C 0.1132(2) 0.33646(15) 0.45716(12)
C30 C 0.0212(2) 0.28095(15) 0.42849(12)
C31 C -0.0735(2) 0.30719(16) 0.37892(13)
C32 C -0.1086(2) 0.25522(16) 0.31222(15)
C33 C -0.0451(2) 0.18211(16) 0.30365(14)
C34 C -0.0072(2) 0.15476(14) 0.22650(14)
C35 C -0.0342(2) 0.20068(15) 0.15953(14)
C36 C 0.0621(2) 0.20708(15) 0.09875(12)
C37 C 0.1741(2) 0.16770(13) 0.11165(12)
C38 C 0.2895(2) 0.20632(14) 0.09253(11)
C39 C 0.2907(2) 0.28391(14) 0.06026(11)
C40 C 0.3836(2) 0.34088(14) 0.08950(11)
C41 C 0.3671(2) 0.42655(15) 0.08633(13)
H1 H 0.320(2) 0.4513(14) 0.0447(12)
C42 C 0.3994(2) 0.47540(15) 0.14773(13)
H2 H 0.368(2) 0.5298(11) 0.1472(14)
C43 C 0.3241(2) 0.53328(14) 0.30922(13)
H3 H 0.321(2) 0.5787(12) 0.2737(13)
C44 C 0.2356(2) 0.52629(14) 0.36605(13)
H4 H 0.1727(19) 0.5649(13) 0.3680(14)
C45 C -0.0071(2) 0.44566(16) 0.40691(13)
H5 H -0.017(2) 0.5024(11) 0.3994(15)
C46 C -0.0944(2) 0.39356(17) 0.37967(14)
H6 H -0.1660(19) 0.4107(15) 0.3547(14)
C47 C -0.1649(2) 0.28558(18) 0.24184(16)
H7 H -0.221(2) 0.3332(13) 0.2454(16)
C48 C -0.1297(2) 0.25952(17) 0.16914(16)
H8 H -0.164(2) 0.2843(15) 0.1235(12)
C49 C 0.0664(2) 0.27301(15) 0.04425(12)
H9 H -0.0094(17) 0.2967(14) 0.0273(14)
C50 C 0.1760(2) 0.30988(15) 0.02552(11)
H10 H 0.179(2) 0.3597(11) -0.0028(13)
C51 C 0.1279(2) 0.38307(14) 0.22140(12)
S1 S 0.19815(5) 0.31240(3) 0.26081(3)
S2 S 0.05807(7) 0.45354(4) 0.18151(4)
C52 C 0.7989(2) 0.45971(15) 0.02938(12)
S3 S 0.68534(7) 0.42714(4) 0.07290(4)
S4 S 0.91398(7) 0.49199(5) -0.01422(4)
loop_
_geom_bond_atom_site_label_1
_geom_bond_atom_site_label_2
_geom_bond_site_symmetry_1
_geom_bond_site_symmetry_2
C1 C2 1_555 1_555
C2 C3 1_555 1_555
C3 C4 1_555 1_555
C4 C5 1_555 1_555
C5 C1 1_555 1_555
C6 C1 1_555 1_555
C7 C6 1_555 1_555
C8 C7 1_555 1_555
C9 C2 1_555 1_555
C10 C9 1_555 1_555
C11 C10 1_555 1_555
C12 C3 1_555 1_555
C13 C12 1_555 1_555
C14 C13 1_555 1_555
C15 C4 1_555 1_555
C16 C15 1_555 1_555
C17 C16 1_555 1_555
C18 C5 1_555 1_555
C19 C18 1_555 1_555
C20 C6 1_555 1_555
C21 C20 1_555 1_555
C22 C7 1_555 1_555
C23 C22 1_555 1_555
C24 C23 1_555 1_555
C25 C8 1_555 1_555
C26 C10 1_555 1_555
C27 C26 1_555 1_555
C28 C27 1_555 1_555
C29 C11 1_555 1_555
C30 C13 1_555 1_555
C31 C30 1_555 1_555
C32 C31 1_555 1_555
C33 C14 1_555 1_555
C34 C16 1_555 1_555
C35 C34 1_555 1_555
C36 C35 1_555 1_555
C37 C17 1_555 1_555
C38 C19 1_555 1_555
C39 C38 1_555 1_555
C40 C21 1_555 1_555
C41 C40 1_555 1_555
H1 C41 1_555 1_555
C42 C23 1_555 1_555
H2 C42 1_555 1_555
C43 C24 1_555 1_555
H3 C43 1_555 1_555
C44 C27 1_555 1_555
H4 C44 1_555 1_555
C45 C28 1_555 1_555
H5 C45 1_555 1_555
C46 C31 1_555 1_555
H6 C46 1_555 1_555
C47 C32 1_555 1_555
H7 C47 1_555 1_555
C48 C35 1_555 1_555
H8 C48 1_555 1_555
C49 C36 1_555 1_555
H9 C49 1_555 1_555
C50 C39 1_555 1_555
H10 C50 1_555 1_555
C51 S1 1_555 1_555
S2 C51 1_555 1_555
C52 S3 1_555 1_555
S4 C52 1_555 1_555
C8 C9 1_555 1_555
C11 C12 1_555 1_555
C14 C15 1_555 1_555
C17 C18 1_555 1_555
C19 C20 1_555 1_555
C21 C22 1_555 1_555
C24 C25 1_555 1_555
C25 C26 1_555 1_555
C28 C29 1_555 1_555
C29 C30 1_555 1_555
C32 C33 1_555 1_555
C33 C34 1_555 1_555
C36 C37 1_555 1_555
C37 C38 1_555 1_555
C39 C40 1_555 1_555
C41 C42 1_555 1_555
C43 C44 1_555 1_555
C45 C46 1_555 1_555
C47 C48 1_555 1_555
C49 C50 1_555 1_555

#END
