
#######################################################################
#
#                 Cambridge Crystallographic Data Centre
#                                CCDC 
#
#######################################################################
#
# If this CIF has been generated from an entry in the Cambridge 
# Structural Database, then it will include bibliographic, chemical, 
# crystal, experimental, refinement or atomic coordinate data resulting 
# from the CCDC's data processing and validation procedures.
#
#######################################################################

data_YAPMIM
_chemical_formula_moiety         'C15 H26'
_chemical_name_systematic        
1,1,2,2,5,5,6,6-Octamethyldispiro(2.0.2.1)heptane
_symmetry_cell_setting           monoclinic
_symmetry_space_group_name_H-M   'P 21/c'
_symmetry_Int_Tables_number      14
_space_group_name_Hall           '-P 2ybc'
loop_
_symmetry_equiv_pos_site_id
_symmetry_equiv_pos_as_xyz
1 x,y,z
2 -x,1/2+y,1/2-z
3 -x,-y,-z
4 x,1/2-y,1/2+z
_cell_length_a                   15.9120(6)
_cell_length_b                   6.8493(2)
_cell_length_c                   12.6448(5)
_cell_angle_alpha                90
_cell_angle_beta                 98.39(2)
_cell_angle_gamma                90
_cell_volume                     1363.36
_exptl_crystal_colour            colorless
_exptl_crystal_description       plate
_cell_formula_units_Z            4
loop_
_atom_site_label
_atom_site_type_symbol
_atom_site_fract_x
_atom_site_fract_y
_atom_site_fract_z
C1 C 0.38199(9) 0.6481(2) 0.90443(12)
C2 C 0.34059(9) 0.6615(2) 1.00798(11)
C3 C 0.28983(9) 0.6975(2) 0.90026(11)
C4 C 0.20553(9) 0.6608(2) 0.83841(11)
C5 C 0.12214(9) 0.5661(2) 0.84839(12)
C6 C 0.16259(9) 0.5477(2) 0.74437(12)
C7 C 0.23707(10) 0.8670(2) 0.85360(13)
C8 C 0.44189(11) 0.8103(3) 0.88068(14)
C9 C 0.40852(10) 0.4497(2) 0.86649(13)
C10 C 0.36234(11) 0.8355(3) 1.08127(14)
C11 C 0.32601(11) 0.4773(2) 1.06889(13)
C12 C 0.04505(10) 0.6958(3) 0.84852(15)
C13 C 0.11970(11) 0.3887(3) 0.91974(14)
C14 C 0.12363(11) 0.6591(3) 0.64564(13)
C15 C 0.19862(11) 0.3530(2) 0.71690(14)
H1 H 0.2535(11) 0.938(3) 0.7893(14)
H2 H 0.2108(11) 0.950(3) 0.9044(15)
H3 H 0.4993(13) 0.792(3) 0.9224(15)
H4 H 0.4478(12) 0.818(3) 0.8012(17)
H5 H 0.4216(13) 0.947(3) 0.8986(16)
H6 H 0.4118(11) 0.453(3) 0.7879(16)
H7 H 0.3655(12) 0.340(3) 0.8754(15)
H8 H 0.4653(13) 0.411(3) 0.9062(15)
H9 H 0.3238(12) 0.833(3) 1.1402(15)
H10 H 0.4230(12) 0.826(3) 1.1159(15)
H11 H 0.3554(11) 0.964(3) 1.0440(15)
H12 H 0.3131(11) 0.362(3) 1.0217(15)
H13 H 0.2756(12) 0.499(3) 1.1075(14)
H14 H 0.3739(12) 0.450(3) 1.1221(15)
H15 H -0.0078(14) 0.625(3) 0.8136(16)
H16 H 0.0486(12) 0.824(3) 0.8132(16)
H17 H 0.0364(11) 0.727(3) 0.9236(16)
H18 H 0.1718(13) 0.309(3) 0.9243(16)
H19 H 0.1153(12) 0.428(3) 0.9961(17)
H20 H 0.0711(13) 0.307(3) 0.8936(16)
H21 H 0.1662(12) 0.673(3) 0.5943(15)
H22 H 0.1079(12) 0.796(3) 0.6631(15)
H23 H 0.0715(12) 0.590(3) 0.6075(15)
H24 H 0.2416(12) 0.372(3) 0.6668(15)
H25 H 0.1538(12) 0.261(3) 0.6844(16)
H26 H 0.2290(11) 0.281(3) 0.7824(16)
loop_
_geom_bond_atom_site_label_1
_geom_bond_atom_site_label_2
_geom_bond_site_symmetry_1
_geom_bond_site_symmetry_2
C1 C2 1_555 1_555
C2 C3 1_555 1_555
C3 C1 1_555 1_555
C4 C3 1_555 1_555
C5 C4 1_555 1_555
C6 C4 1_555 1_555
C7 C3 1_555 1_555
C8 C1 1_555 1_555
C9 C1 1_555 1_555
C10 C2 1_555 1_555
C11 C2 1_555 1_555
C12 C5 1_555 1_555
C13 C5 1_555 1_555
C14 C6 1_555 1_555
C15 C6 1_555 1_555
H1 C7 1_555 1_555
H2 C7 1_555 1_555
H3 C8 1_555 1_555
H4 C8 1_555 1_555
H5 C8 1_555 1_555
H6 C9 1_555 1_555
H7 C9 1_555 1_555
H8 C9 1_555 1_555
H9 C10 1_555 1_555
H10 C10 1_555 1_555
H11 C10 1_555 1_555
H12 C11 1_555 1_555
H13 C11 1_555 1_555
H14 C11 1_555 1_555
H15 C12 1_555 1_555
H16 C12 1_555 1_555
H17 C12 1_555 1_555
H18 C13 1_555 1_555
H19 C13 1_555 1_555
H20 C13 1_555 1_555
H21 C14 1_555 1_555
H22 C14 1_555 1_555
H23 C14 1_555 1_555
H24 C15 1_555 1_555
H25 C15 1_555 1_555
H26 C15 1_555 1_555
C4 C7 1_555 1_555
C5 C6 1_555 1_555

#END
