
#######################################################################
#
#                 Cambridge Crystallographic Data Centre
#                                CCDC 
#
#######################################################################
#
# If this CIF has been generated from an entry in the Cambridge 
# Structural Database, then it will include bibliographic, chemical, 
# crystal, experimental, refinement or atomic coordinate data resulting 
# from the CCDC's data processing and validation procedures.
#
#######################################################################

data_YAPNUB
_chemical_formula_moiety         'C32 H24 N2'
_chemical_name_systematic        1-methyl-4,5,6,7-tetraphenyl-1H-indazole
_symmetry_cell_setting           orthorhombic
_symmetry_space_group_name_H-M   'P n a 21'
_symmetry_Int_Tables_number      33
_space_group_name_Hall           'P 2c -2n'
loop_
_symmetry_equiv_pos_site_id
_symmetry_equiv_pos_as_xyz
1 x,y,z
2 -x,-y,1/2+z
3 1/2+x,1/2-y,z
4 1/2-x,1/2+y,1/2+z
_cell_length_a                   12.6825(2)
_cell_length_b                   14.4458(2)
_cell_length_c                   13.1365(2)
_cell_angle_alpha                90
_cell_angle_beta                 90
_cell_angle_gamma                90
_cell_volume                     2406.72
_exptl_crystal_colour            colorless
_exptl_crystal_description       block
_cell_formula_units_Z            4
loop_
_atom_site_label
_atom_site_type_symbol
_atom_site_fract_x
_atom_site_fract_y
_atom_site_fract_z
N1 N 0.82237(17) 0.54541(16) 0.74558(18)
N2 N 0.84066(19) 0.61739(17) 0.81018(19)
C1 C 0.8515(3) 0.4534(2) 0.7771(3)
H1 H 0.8337 0.4092 0.7231
H2 H 0.9275 0.4512 0.7903
H3 H 0.8132 0.4372 0.8394
C2 C 0.7945(2) 0.6902(2) 0.7696(2)
H4 H 0.7968 0.7507 0.7978
C3 C 0.6128(2) 0.8509(2) 0.7109(2)
H5 H 0.5936 0.8096 0.7640
C4 C 0.5947(2) 0.9444(2) 0.7217(3)
H6 H 0.5630 0.9671 0.7823
C5 C 0.6220(3) 1.0047(2) 0.6464(3)
H7 H 0.6084 1.0690 0.6542
C6 C 0.6692(3) 0.9725(2) 0.5589(3)
H8 H 0.6891 1.0146 0.5068
C7 C 0.6876(3) 0.8786(2) 0.5472(2)
H9 H 0.7203 0.8566 0.4868
C8 C 0.6589(2) 0.81652(19) 0.6227(2)
C9 C 0.4622(2) 0.7510(2) 0.4955(2)
H10 H 0.4482 0.7504 0.5665
C10 C 0.3901(2) 0.7912(2) 0.4298(3)
H11 H 0.3276 0.8183 0.4561
C11 C 0.4088(3) 0.7918(2) 0.3270(3)
H12 H 0.3584 0.8181 0.2819
C12 C 0.5006(2) 0.7545(2) 0.2892(2)
H13 H 0.5139 0.7557 0.2180
C13 C 0.5737(2) 0.71509(19) 0.3544(2)
H14 H 0.6374 0.6902 0.3278
C14 C 0.5544(2) 0.71174(18) 0.4592(2)
C15 C 0.4945(2) 0.4989(2) 0.4335(2)
H15 H 0.4538 0.5168 0.4909
C16 C 0.4467(2) 0.4543(3) 0.3533(3)
H16 H 0.3732 0.4416 0.3557
C17 C 0.5051(3) 0.4277(3) 0.2691(3)
H17 H 0.4719 0.3973 0.2136
C18 C 0.6115(3) 0.4458(2) 0.2666(3)
H18 H 0.6522 0.4272 0.2094
C19 C 0.6595(2) 0.4910(2) 0.3469(2)
H19 H 0.7330 0.5035 0.3442
C20 C 0.6019(2) 0.51808(18) 0.43104(19)
C21 C 0.6908(3) 0.3504(2) 0.5720(3)
H20 H 0.6204 0.3594 0.5948
C22 C 0.7275(6) 0.2617(3) 0.5516(5)
H21 H 0.6819 0.2102 0.5608
C23 C 0.8276(7) 0.2476(4) 0.5187(4)
H22 H 0.8520 0.1865 0.5059
C24 C 0.8937(4) 0.3221(4) 0.5038(3)
H23 H 0.9633 0.3124 0.4793
C25 C 0.8589(3) 0.4111(3) 0.5245(3)
H24 H 0.9050 0.4622 0.5150
C26 C 0.7570(2) 0.4256(2) 0.5591(2)
C27 C 0.76174(18) 0.57232(19) 0.6646(2)
C28 C 0.74074(19) 0.66691(19) 0.67802(19)
C29 C 0.67585(19) 0.71513(17) 0.60942(19)
C30 C 0.62956(18) 0.66536(18) 0.53037(19)
C31 C 0.65296(18) 0.56956(18) 0.51659(19)
C32 C 0.72200(19) 0.52223(19) 0.5804(2)
loop_
_geom_bond_atom_site_label_1
_geom_bond_atom_site_label_2
_geom_bond_site_symmetry_1
_geom_bond_site_symmetry_2
N1 N2 1_555 1_555
N2 C2 1_555 1_555
C1 N1 1_555 1_555
H1 C1 1_555 1_555
H2 C1 1_555 1_555
H3 C1 1_555 1_555
C2 H4 1_555 1_555
C3 H5 1_555 1_555
C4 C3 1_555 1_555
H6 C4 1_555 1_555
C5 C4 1_555 1_555
H7 C5 1_555 1_555
C6 C5 1_555 1_555
H8 C6 1_555 1_555
C7 C6 1_555 1_555
H9 C7 1_555 1_555
C8 C3 1_555 1_555
C9 H10 1_555 1_555
C10 C9 1_555 1_555
H11 C10 1_555 1_555
C11 C10 1_555 1_555
H12 C11 1_555 1_555
C12 C11 1_555 1_555
H13 C12 1_555 1_555
C13 C12 1_555 1_555
H14 C13 1_555 1_555
C14 C9 1_555 1_555
C15 H15 1_555 1_555
C16 C15 1_555 1_555
H16 C16 1_555 1_555
C17 C16 1_555 1_555
H17 C17 1_555 1_555
C18 C17 1_555 1_555
H18 C18 1_555 1_555
C19 C18 1_555 1_555
H19 C19 1_555 1_555
C20 C15 1_555 1_555
C21 H20 1_555 1_555
C22 C21 1_555 1_555
H21 C22 1_555 1_555
C23 C22 1_555 1_555
H22 C23 1_555 1_555
C24 C23 1_555 1_555
H23 C24 1_555 1_555
C25 C24 1_555 1_555
H24 C25 1_555 1_555
C26 C21 1_555 1_555
C27 N1 1_555 1_555
C28 C2 1_555 1_555
C29 C8 1_555 1_555
C30 C14 1_555 1_555
C31 C20 1_555 1_555
C32 C26 1_555 1_555
C7 C8 1_555 1_555
C13 C14 1_555 1_555
C19 C20 1_555 1_555
C25 C26 1_555 1_555
C27 C28 1_555 1_555
C27 C32 1_555 1_555
C28 C29 1_555 1_555
C29 C30 1_555 1_555
C30 C31 1_555 1_555
C31 C32 1_555 1_555

#END
