
#######################################################################
#
#                 Cambridge Crystallographic Data Centre
#                                CCDC 
#
#######################################################################
#
# If this CIF has been generated from an entry in the Cambridge 
# Structural Database, then it will include bibliographic, chemical, 
# crystal, experimental, refinement or atomic coordinate data resulting 
# from the CCDC's data processing and validation procedures.
#
#######################################################################

data_YAPNOT
_chemical_formula_moiety         'C23 H17 N1 O3 S1'
_chemical_name_systematic        
'4-(3-(Quinolin-2-ylmethoxy)phenylsulfanyl)benzoic acid'
_chemical_properties_biological  'antileukotrienic activity'
_symmetry_cell_setting           monoclinic
_symmetry_space_group_name_H-M   'P 21/c'
_symmetry_Int_Tables_number      14
_space_group_name_Hall           '-P 2ybc'
loop_
_symmetry_equiv_pos_site_id
_symmetry_equiv_pos_as_xyz
1 x,y,z
2 -x,1/2+y,1/2-z
3 -x,-y,-z
4 x,1/2-y,1/2+z
_cell_length_a                   8.7959(6)
_cell_length_b                   10.6195(7)
_cell_length_c                   20.557(1)
_cell_angle_alpha                90
_cell_angle_beta                 93.480(4)
_cell_angle_gamma                90
_cell_volume                     1916.65
_exptl_crystal_colour            colorless
_exptl_crystal_description       cube
_chemical_melting_point          '95-97 deg.C'
_cell_formula_units_Z            4
_exptl_crystal_recrystallization_method methanol
loop_
_atom_site_label
_atom_site_type_symbol
_atom_site_fract_x
_atom_site_fract_y
_atom_site_fract_z
S1 S 0.38231(6) 0.71381(5) 0.54412(2)
O1 O 0.77067(16) 1.02244(15) 0.31957(6)
O2 O 0.92979(16) 1.03877(16) 0.40754(7)
O3 O 0.19872(15) 0.38528(14) 0.37919(7)
N1 N 0.13147(16) 0.10597(15) 0.32032(7)
C1 C 0.7994(2) 1.00448(18) 0.37718(9)
C2 C 0.6944(2) 0.93876(17) 0.41946(8)
C3 C 0.5577(2) 0.8938(2) 0.39190(9)
C4 C 0.4605(2) 0.8255(2) 0.42821(9)
C5 C 0.4984(2) 0.80082(17) 0.49318(8)
C6 C 0.6336(2) 0.8480(2) 0.52180(9)
C7 C 0.7309(2) 0.91667(19) 0.48526(9)
C8 C 0.2396(2) 0.65151(19) 0.48846(9)
C9 C 0.2697(2) 0.54301(19) 0.45394(9)
C10 C 0.1575(2) 0.49132(18) 0.41165(9)
C11 C 0.0142(2) 0.5472(2) 0.40478(11)
C12 C -0.0131(3) 0.6547(2) 0.43976(12)
C13 C 0.0976(2) 0.7078(2) 0.48129(11)
C14 C 0.0872(3) 0.3271(2) 0.33678(13)
C15 C 0.1637(2) 0.22137(19) 0.30314(9)
C16 C 0.2636(3) 0.2485(2) 0.25434(11)
C17 C 0.3303(3) 0.1523(2) 0.22314(11)
C18 C 0.2982(2) 0.0275(2) 0.23937(9)
C19 C 0.3595(3) -0.0778(2) 0.20812(11)
C20 C 0.3213(3) -0.1960(2) 0.22518(12)
C21 C 0.2223(3) -0.2165(2) 0.27458(11)
C22 C 0.1612(2) -0.1173(2) 0.3064(1)
C23 C 0.1968(2) 0.00713(18) 0.28923(8)
H1 H 0.532(2) 0.912(2) 0.3462(11)
H2 H 0.366(2) 0.794(2) 0.406(1)
H3 H 0.658(2) 0.831(2) 0.5682(11)
H4 H 0.828(2) 0.953(2) 0.506(1)
H5 H 0.366(3) 0.503(2) 0.458(1)
H6 H -0.065(3) 0.506(2) 0.3729(11)
H7 H -0.115(3) 0.691(2) 0.4352(11)
H8 H 0.076(2) 0.789(2) 0.5040(11)
H9 H 0.002(3) 0.294(2) 0.3628(11)
H10 H 0.047(3) 0.391(2) 0.3054(11)
H11 H 0.277(3) 0.333(3) 0.2432(11)
H12 H 0.401(3) 0.173(2) 0.1870(12)
H13 H 0.434(3) -0.059(2) 0.1733(12)
H14 H 0.363(3) -0.270(3) 0.2062(12)
H15 H 0.195(3) -0.296(2) 0.2854(12)
H16 H 0.090(2) -0.128(2) 0.3408(11)
H17 H 0.986(2) 1.063(2) 0.381(1)
loop_
_geom_bond_atom_site_label_1
_geom_bond_atom_site_label_2
_geom_bond_site_symmetry_1
_geom_bond_site_symmetry_2
S1 C5 1_555 1_555
O1 C1 1_555 1_555
O2 C1 1_555 1_555
O3 C10 1_555 1_555
N1 C15 1_555 1_555
C1 C2 1_555 1_555
C2 C3 1_555 1_555
C3 C4 1_555 1_555
C4 C5 1_555 1_555
C5 C6 1_555 1_555
C6 C7 1_555 1_555
C7 C2 1_555 1_555
C8 S1 1_555 1_555
C9 C8 1_555 1_555
C10 C9 1_555 1_555
C11 C10 1_555 1_555
C12 C11 1_555 1_555
C13 C8 1_555 1_555
C14 O3 1_555 1_555
C15 C14 1_555 1_555
C16 C15 1_555 1_555
C17 C16 1_555 1_555
C18 C17 1_555 1_555
C19 C18 1_555 1_555
C20 C19 1_555 1_555
C21 C20 1_555 1_555
C22 C21 1_555 1_555
C23 N1 1_555 1_555
H1 C3 1_555 1_555
H2 C4 1_555 1_555
H3 C6 1_555 1_555
H4 C7 1_555 1_555
H5 C9 1_555 1_555
H6 C11 1_555 1_555
H7 C12 1_555 1_555
H8 C13 1_555 1_555
H9 C14 1_555 1_555
H10 C14 1_555 1_555
H11 C16 1_555 1_555
H12 C17 1_555 1_555
H13 C19 1_555 1_555
H14 C20 1_555 1_555
H15 C21 1_555 1_555
H16 C22 1_555 1_555
H17 O2 1_555 1_555
C12 C13 1_555 1_555
C18 C23 1_555 1_555
C22 C23 1_555 1_555

#END
