
#######################################################################
#
#                 Cambridge Crystallographic Data Centre
#                                CCDC 
#
#######################################################################
#
# If this CIF has been generated from an entry in the Cambridge 
# Structural Database, then it will include bibliographic, chemical, 
# crystal, experimental, refinement or atomic coordinate data resulting 
# from the CCDC's data processing and validation procedures.
#
#######################################################################

data_YAPPIR
_chemical_formula_moiety         'C42 H59 B1 N2 O9'
_chemical_name_systematic        
'4,4,6a,6b,8a,11,14b-heptamethyl-14-oxo-11-(4,4,5,5-tetramethyl-1,3,2-dioxaborolan-2-yl)-1,2,3,4,4a,5,6,6a,6b,7,8,8a,9,10,11,12,12a,14,14a,14b-icosahydropicen-3-yl 3,5-dinitrobenzoate'
_symmetry_cell_setting           orthorhombic
_symmetry_space_group_name_H-M   'P 21 21 21'
_symmetry_Int_Tables_number      19
_space_group_name_Hall           'P 2ac 2ab'
loop_
_symmetry_equiv_pos_site_id
_symmetry_equiv_pos_as_xyz
1 x,y,z
2 1/2-x,-y,1/2+z
3 -x,1/2+y,1/2-z
4 1/2+x,1/2-y,-z
_cell_length_a                   7.2593(3)
_cell_length_b                   13.7343(6)
_cell_length_c                   39.6303(19)
_cell_angle_alpha                90
_cell_angle_beta                 90
_cell_angle_gamma                90
_cell_volume                     3951.2
_exptl_crystal_colour            colorless
_exptl_crystal_description       Needle
_cell_formula_units_Z            4
loop_
_atom_site_label
_atom_site_type_symbol
_atom_site_fract_x
_atom_site_fract_y
_atom_site_fract_z
O1 O 0.2305(2) 0.48094(16) 0.48014(5)
O2 O 0.4688(2) 0.06867(16) 0.40226(5)
O3 O 0.6171(3) 0.01348(17) 0.20982(5)
O4 O 0.3528(3) 0.00890(17) 0.17855(5)
O5 O 0.4969(3) 0.56041(18) 0.46941(5)
O6 O -0.1984(3) 0.59951(17) 0.56155(6)
O7 O -0.0979(3) 0.67870(18) 0.60521(6)
O8 O 0.5160(3) 0.81304(18) 0.60297(6)
O9 O 0.6714(3) 0.80803(17) 0.55619(6)
N1 N -0.0762(3) 0.6409(2) 0.57738(7)
N2 N 0.5413(3) 0.7845(2) 0.57387(8)
C1 C 0.2000(3) 0.2214(2) 0.41878(7)
C2 C 0.3891(4) 0.2694(2) 0.42608(8)
H1 H 0.480148 0.217654 0.431012
H2 H 0.430775 0.304156 0.405576
C3 C 0.3853(4) 0.3409(2) 0.45552(7)
H3 H 0.356062 0.305320 0.476586
H4 H 0.508507 0.370769 0.458160
C4 C 0.2441(4) 0.4197(2) 0.44996(7)
H5 H 0.282939 0.460836 0.430399
C5 C 0.0464(3) 0.3815(2) 0.44365(7)
C6 C 0.0586(3) 0.3057(2) 0.41460(7)
H6 H 0.104329 0.343642 0.394766
C7 C -0.1301(3) 0.2667(2) 0.40348(8)
H7 H -0.174560 0.218221 0.420064
H8 H -0.219993 0.320883 0.402718
C8 C -0.1165(3) 0.2199(2) 0.36901(7)
H9 H -0.082786 0.270480 0.352312
H10 H -0.239127 0.194198 0.362685
C9 C 0.0254(3) 0.1364(2) 0.36699(7)
C10 C 0.2121(3) 0.1687(2) 0.38371(7)
H11 H 0.262467 0.219251 0.368062
C11 C 0.3484(3) 0.0842(2) 0.38118(7)
C12 C 0.3344(3) 0.0202(2) 0.35162(7)
H12 H 0.424027 -0.029774 0.349358
C13 C 0.2054(3) 0.0266(2) 0.32760(7)
C14 C 0.0663(3) 0.1103(2) 0.32875(7)
C15 C -0.1171(3) 0.0871(3) 0.31001(7)
H13 H -0.201504 0.053746 0.325856
H14 H -0.175898 0.149231 0.303294
C16 C -0.0938(3) 0.0240(2) 0.27881(8)
H15 H -0.026149 0.061341 0.261399
H16 H -0.216828 0.007890 0.269602
C17 C 0.0114(3) -0.0713(2) 0.28627(7)
C18 C 0.2082(3) -0.0443(2) 0.29807(7)
H17 H 0.266810 -0.105601 0.306398
C19 C 0.3299(3) -0.0058(2) 0.26903(7)
H18 H 0.456796 0.003182 0.277614
H19 H 0.283222 0.058832 0.262047
C20 C 0.3369(4) -0.0728(2) 0.23763(8)
C21 C 0.1372(4) -0.0948(3) 0.22656(8)
H20 H 0.079874 -0.034132 0.218105
H21 H 0.139620 -0.142171 0.207723
C22 C 0.0202(4) -0.1355(3) 0.25482(8)
H22 H 0.069664 -0.200021 0.261311
H23 H -0.106541 -0.145466 0.246278
C23 C 0.1540(4) 0.1498(2) 0.44764(8)
H24 H 0.202135 0.175468 0.468969
H25 H 0.210579 0.086490 0.442942
H26 H 0.020097 0.142175 0.449330
C24 C -0.0381(4) 0.3414(2) 0.47642(7)
H27 H 0.053474 0.301710 0.488281
H28 H -0.145722 0.301284 0.470981
H29 H -0.075977 0.395726 0.490886
C25 C -0.0716(4) 0.4685(2) 0.43264(8)
H30 H -0.060801 0.520737 0.449374
H31 H -0.200648 0.448251 0.430843
H32 H -0.028662 0.492141 0.410673
C26 C -0.0565(4) 0.0480(2) 0.38604(8)
H33 H -0.100221 0.068899 0.408287
H34 H 0.038616 -0.002007 0.388792
H35 H -0.159718 0.021166 0.373099
C27 C 0.1585(4) 0.1955(2) 0.30930(8)
H36 H 0.289507 0.198632 0.315171
H37 H 0.098619 0.256913 0.315480
H38 H 0.145578 0.184745 0.284965
C28 C -0.0876(4) -0.1283(3) 0.31400(8)
H39 H -0.030175 -0.192486 0.316495
H40 H -0.217560 -0.136318 0.307916
H41 H -0.078486 -0.092666 0.335354
C29 C 0.4425(4) -0.1674(2) 0.24508(8)
H42 H 0.568937 -0.151672 0.251806
H43 H 0.444763 -0.208126 0.224778
H44 H 0.381081 -0.202670 0.263391
C30 C 0.6665(4) 0.0515(2) 0.17651(7)
C31 C 0.4747(4) 0.0767(2) 0.16110(8)
C32 C 0.7639(4) -0.0295(3) 0.15773(8)
H45 H 0.870213 -0.051611 0.170916
H46 H 0.805973 -0.005342 0.135772
H47 H 0.678751 -0.083988 0.154339
C33 C 0.7951(4) 0.1372(3) 0.18104(9)
H48 H 0.740054 0.183908 0.196771
H49 H 0.815497 0.168809 0.159190
H50 H 0.913062 0.114314 0.190087
C34 C 0.4576(4) 0.0610(3) 0.12366(8)
H51 H 0.479811 -0.007775 0.118438
H52 H 0.548399 0.101328 0.111869
H53 H 0.333352 0.079096 0.116299
C35 C 0.4072(4) 0.1783(3) 0.17053(9)
H54 H 0.279991 0.186630 0.162775
H55 H 0.485998 0.227217 0.159798
H56 H 0.412171 0.186202 0.195093
C36 C 0.3602(4) 0.5471(2) 0.48623(8)
C37 C 0.3127(4) 0.6043(2) 0.51730(8)
C38 C 0.1423(4) 0.5938(2) 0.53300(8)
H57 H 0.052351 0.550363 0.524251
C39 C 0.1071(4) 0.6483(2) 0.56170(8)
C40 C 0.2350(4) 0.7097(2) 0.57612(8)
H58 H 0.210341 0.744178 0.596404
C41 C 0.4009(4) 0.7182(2) 0.55941(8)
C42 C 0.4432(4) 0.6679(2) 0.53024(8)
H59 H 0.558549 0.676583 0.519331
B1 B 0.4378(4) -0.0162(3) 0.20836(9)
loop_
_geom_bond_atom_site_label_1
_geom_bond_atom_site_label_2
_geom_bond_site_symmetry_1
_geom_bond_site_symmetry_2
O1 C4 1_555 1_555
O2 C11 1_555 1_555
O3 C30 1_555 1_555
O4 C31 1_555 1_555
O5 C36 1_555 1_555
O6 N1 1_555 1_555
O7 N1 1_555 1_555
O8 N2 1_555 1_555
O9 N2 1_555 1_555
N1 C39 1_555 1_555
N2 C41 1_555 1_555
C1 C2 1_555 1_555
C2 H1 1_555 1_555
H2 C2 1_555 1_555
C3 C2 1_555 1_555
H3 C3 1_555 1_555
H4 C3 1_555 1_555
C4 C3 1_555 1_555
H5 C4 1_555 1_555
C5 C4 1_555 1_555
C6 C1 1_555 1_555
H6 C6 1_555 1_555
C7 C6 1_555 1_555
H7 C7 1_555 1_555
H8 C7 1_555 1_555
C8 C7 1_555 1_555
H9 C8 1_555 1_555
H10 C8 1_555 1_555
C9 C8 1_555 1_555
C10 C1 1_555 1_555
H11 C10 1_555 1_555
C11 C10 1_555 1_555
C12 C11 1_555 1_555
H12 C12 1_555 1_555
C13 C12 1_555 1_555
C14 C9 1_555 1_555
C15 C14 1_555 1_555
H13 C15 1_555 1_555
H14 C15 1_555 1_555
C16 C15 1_555 1_555
H15 C16 1_555 1_555
H16 C16 1_555 1_555
C17 C16 1_555 1_555
C18 C13 1_555 1_555
H17 C18 1_555 1_555
C19 C18 1_555 1_555
H18 C19 1_555 1_555
H19 C19 1_555 1_555
C20 C19 1_555 1_555
C21 C20 1_555 1_555
H20 C21 1_555 1_555
H21 C21 1_555 1_555
C22 C17 1_555 1_555
H22 C22 1_555 1_555
H23 C22 1_555 1_555
C23 C1 1_555 1_555
H24 C23 1_555 1_555
H25 C23 1_555 1_555
H26 C23 1_555 1_555
C24 C5 1_555 1_555
H27 C24 1_555 1_555
H28 C24 1_555 1_555
H29 C24 1_555 1_555
C25 C5 1_555 1_555
H30 C25 1_555 1_555
H31 C25 1_555 1_555
H32 C25 1_555 1_555
C26 C9 1_555 1_555
H33 C26 1_555 1_555
H34 C26 1_555 1_555
H35 C26 1_555 1_555
C27 C14 1_555 1_555
H36 C27 1_555 1_555
H37 C27 1_555 1_555
H38 C27 1_555 1_555
C28 C17 1_555 1_555
H39 C28 1_555 1_555
H40 C28 1_555 1_555
H41 C28 1_555 1_555
C29 C20 1_555 1_555
H42 C29 1_555 1_555
H43 C29 1_555 1_555
H44 C29 1_555 1_555
C30 C31 1_555 1_555
C31 C34 1_555 1_555
C32 C30 1_555 1_555
H45 C32 1_555 1_555
H46 C32 1_555 1_555
H47 C32 1_555 1_555
C33 C30 1_555 1_555
H48 C33 1_555 1_555
H49 C33 1_555 1_555
H50 C33 1_555 1_555
C34 H51 1_555 1_555
H52 C34 1_555 1_555
H53 C34 1_555 1_555
C35 C31 1_555 1_555
H54 C35 1_555 1_555
H55 C35 1_555 1_555
H56 C35 1_555 1_555
C36 O1 1_555 1_555
C37 C36 1_555 1_555
C38 C37 1_555 1_555
H57 C38 1_555 1_555
C39 C38 1_555 1_555
C40 C39 1_555 1_555
H58 C40 1_555 1_555
C41 C40 1_555 1_555
C42 C37 1_555 1_555
H59 C42 1_555 1_555
B1 O3 1_555 1_555
O4 B1 1_555 1_555
C5 C6 1_555 1_555
C9 C10 1_555 1_555
C13 C14 1_555 1_555
C17 C18 1_555 1_555
C20 B1 1_555 1_555
C21 C22 1_555 1_555
C41 C42 1_555 1_555

#END
