
#######################################################################
#
#                 Cambridge Crystallographic Data Centre
#                                CCDC 
#
#######################################################################
#
# If this CIF has been generated from an entry in the Cambridge 
# Structural Database, then it will include bibliographic, chemical, 
# crystal, experimental, refinement or atomic coordinate data resulting 
# from the CCDC's data processing and validation procedures.
#
#######################################################################

data_YAPPAJ
_chemical_formula_moiety         'C22 H20 N2'
_chemical_name_systematic        1,4,6-trimethyl-5,7-diphenyl-1H-indazole
_symmetry_cell_setting           triclinic
_symmetry_space_group_name_H-M   'P -1'
_symmetry_Int_Tables_number      2
_space_group_name_Hall           '-P 1'
loop_
_symmetry_equiv_pos_site_id
_symmetry_equiv_pos_as_xyz
1 x,y,z
2 -x,-y,-z
_cell_length_a                   10.4269(2)
_cell_length_b                   12.2862(2)
_cell_length_c                   14.7706(3)
_cell_angle_alpha                70.9293(9)
_cell_angle_beta                 75.7297(9)
_cell_angle_gamma                78.3025(9)
_cell_volume                     1717.69
_exptl_crystal_colour            colorless
_exptl_crystal_description       block
_cell_formula_units_Z            4
loop_
_atom_site_label
_atom_site_type_symbol
_atom_site_fract_x
_atom_site_fract_y
_atom_site_fract_z
N1 N 0.3367(2) 0.93660(16) 0.45668(15)
N2 N 0.4235(2) 0.98652(18) 0.37381(17)
C1 C 0.4543(2) 0.9139(2) 0.32067(19)
H1 H 0.5123 0.9273 0.2585
C2 C 0.3897(2) 0.8128(2) 0.36809(17)
C3 C 0.3140(2) 0.83100(18) 0.45530(17)
C4 C 0.2949(3) 0.9937(2) 0.5323(2)
H2 H 0.2335 0.9490 0.5868
H3 H 0.3733 0.9990 0.5554
H4 H 0.2497 1.0720 0.5061
C5 C 0.2325(2) 0.74937(18) 0.52360(16)
C6 C 0.2358(2) 0.64732(18) 0.50061(16)
C7 C 0.3167(2) 0.62745(19) 0.41278(16)
C8 C 0.3918(2) 0.7104(2) 0.34507(17)
C9 C 0.4729(3) 0.6932(2) 0.2496(2)
H5 H 0.5184 0.7614 0.2125
H6 H 0.5394 0.6240 0.2628
H7 H 0.4136 0.6831 0.2116
C10 C 0.1480(3) 0.5578(2) 0.56679(18)
H8 H 0.1625 0.4919 0.5402
H9 H 0.1703 0.5306 0.6320
H10 H 0.0542 0.5924 0.5713
C11 C 0.1444(2) 0.77390(18) 0.61270(17)
C12 C 0.0238(3) 0.8478(2) 0.6056(2)
H11 H -0.0030 0.8801 0.5442
C13 C -0.0571(3) 0.8744(3) 0.6874(2)
H12 H -0.1382 0.9256 0.6817
C14 C -0.0202(3) 0.8269(3) 0.7769(2)
H13 H -0.0754 0.8454 0.8329
C15 C 0.0972(3) 0.7523(2) 0.78507(19)
H14 H 0.1217 0.7184 0.8471
C16 C 0.1795(3) 0.7264(2) 0.70380(17)
H15 H 0.2608 0.6757 0.7103
C17 C 0.3202(2) 0.5143(2) 0.39259(17)
C18 C 0.4160(3) 0.4216(2) 0.4204(2)
H16 H 0.4794 0.4287 0.4539
C19 C 0.4212(3) 0.3173(2) 0.4002(2)
H17 H 0.4874 0.2540 0.4203
C20 C 0.3308(3) 0.3060(2) 0.3513(2)
H18 H 0.3353 0.2357 0.3362
C21 C 0.2335(3) 0.3974(2) 0.3243(2)
H19 H 0.1699 0.3894 0.2914
C22 C 0.2274(3) 0.5007(2) 0.3447(2)
H20 H 0.1594 0.5628 0.3259
N3 N 0.7560(2) 1.00952(16) 0.06121(15)
N4 N 0.6936(2) 1.08369(17) -0.01128(17)
C23 C 0.6616(3) 1.0182(2) -0.05521(19)
H21 H 0.6171 1.0472 -0.1089
C24 C 0.7023(2) 0.89889(19) -0.01192(16)
C25 C 0.7641(2) 0.89679(18) 0.06275(16)
C26 C 0.8014(3) 1.0589(2) 0.1222(2)
H22 H 0.7795 1.1437 0.1010
H23 H 0.7572 1.0284 0.1903
H24 H 0.8983 1.0382 0.1165
C27 C 0.8186(2) 0.79181(18) 0.12373(16)
C28 C 0.8052(2) 0.69050(18) 0.10680(16)
C29 C 0.7402(2) 0.69231(18) 0.03114(16)
C30 C 0.6891(2) 0.79609(19) -0.02909(16)
C31 C 0.6192(3) 0.8040(2) -0.11019(19)
H25 H 0.5917 0.8858 -0.1430
H26 H 0.6804 0.7680 -0.1576
H27 H 0.5403 0.7634 -0.0825
C32 C 0.8583(3) 0.5744(2) 0.1696(2)
H28 H 0.8408 0.5122 0.1481
H29 H 0.9547 0.5704 0.1637
H30 H 0.8138 0.5649 0.2379
C33 C 0.8856(2) 0.79111(18) 0.20245(17)
C34 C 0.8198(3) 0.7643(2) 0.29931(18)
H31 H 0.7322 0.7434 0.3165
C35 C 0.8823(3) 0.7680(2) 0.3714(2)
H32 H 0.8376 0.7491 0.4377
C36 C 1.0091(3) 0.7989(2) 0.3462(2)
H33 H 1.0511 0.8026 0.3952
C37 C 1.0746(3) 0.8244(3) 0.2508(2)
H34 H 1.1622 0.8452 0.2340
C38 C 1.0145(3) 0.8200(2) 0.1790(2)
H35 H 1.0614 0.8367 0.1131
C39 C 0.7255(2) 0.57967(19) 0.01906(16)
C40 C 0.8013(3) 0.5412(2) -0.0580(2)
H36 H 0.8661 0.5864 -0.1037
C41 C 0.7850(4) 0.4380(3) -0.0701(2)
H37 H 0.8387 0.4133 -0.1237
C42 C 0.6925(3) 0.3715(2) -0.0058(2)
H38 H 0.6803 0.3016 -0.0150
C43 C 0.6172(3) 0.4071(2) 0.0724(2)
H39 H 0.5543 0.3604 0.1187
C44 C 0.6327(3) 0.5108(2) 0.0839(2)
H40 H 0.5784 0.5352 0.1375
loop_
_geom_bond_atom_site_label_1
_geom_bond_atom_site_label_2
_geom_bond_site_symmetry_1
_geom_bond_site_symmetry_2
N1 N2 1_555 1_555
N2 C1 1_555 1_555
C1 H1 1_555 1_555
C2 C1 1_555 1_555
C3 N1 1_555 1_555
C4 N1 1_555 1_555
H2 C4 1_555 1_555
H3 C4 1_555 1_555
H4 C4 1_555 1_555
C5 C3 1_555 1_555
C6 C5 1_555 1_555
C7 C6 1_555 1_555
C8 C2 1_555 1_555
C9 C8 1_555 1_555
H5 C9 1_555 1_555
H6 C9 1_555 1_555
H7 C9 1_555 1_555
C10 C6 1_555 1_555
H8 C10 1_555 1_555
H9 C10 1_555 1_555
H10 C10 1_555 1_555
C11 C5 1_555 1_555
C12 C11 1_555 1_555
H11 C12 1_555 1_555
C13 C12 1_555 1_555
H12 C13 1_555 1_555
C14 C13 1_555 1_555
H13 C14 1_555 1_555
C15 C14 1_555 1_555
H14 C15 1_555 1_555
C16 C11 1_555 1_555
H15 C16 1_555 1_555
C17 C7 1_555 1_555
C18 C17 1_555 1_555
H16 C18 1_555 1_555
C19 C18 1_555 1_555
H17 C19 1_555 1_555
C20 C19 1_555 1_555
H18 C20 1_555 1_555
C21 C20 1_555 1_555
H19 C21 1_555 1_555
C22 C17 1_555 1_555
H20 C22 1_555 1_555
N3 N4 1_555 1_555
N4 C23 1_555 1_555
C23 H21 1_555 1_555
C24 C23 1_555 1_555
C25 N3 1_555 1_555
C26 N3 1_555 1_555
H22 C26 1_555 1_555
H23 C26 1_555 1_555
H24 C26 1_555 1_555
C27 C25 1_555 1_555
C28 C27 1_555 1_555
C29 C28 1_555 1_555
C30 C24 1_555 1_555
C31 C30 1_555 1_555
H25 C31 1_555 1_555
H26 C31 1_555 1_555
H27 C31 1_555 1_555
C32 C28 1_555 1_555
H28 C32 1_555 1_555
H29 C32 1_555 1_555
H30 C32 1_555 1_555
C33 C27 1_555 1_555
C34 C33 1_555 1_555
H31 C34 1_555 1_555
C35 C34 1_555 1_555
H32 C35 1_555 1_555
C36 C35 1_555 1_555
H33 C36 1_555 1_555
C37 C36 1_555 1_555
H34 C37 1_555 1_555
C38 C33 1_555 1_555
H35 C38 1_555 1_555
C39 C29 1_555 1_555
C40 C39 1_555 1_555
H36 C40 1_555 1_555
C41 C40 1_555 1_555
H37 C41 1_555 1_555
C42 C41 1_555 1_555
H38 C42 1_555 1_555
C43 C42 1_555 1_555
H39 C43 1_555 1_555
C44 C39 1_555 1_555
H40 C44 1_555 1_555
C2 C3 1_555 1_555
C7 C8 1_555 1_555
C15 C16 1_555 1_555
C21 C22 1_555 1_555
C24 C25 1_555 1_555
C29 C30 1_555 1_555
C37 C38 1_555 1_555
C43 C44 1_555 1_555

#END
