
#######################################################################
#
#                 Cambridge Crystallographic Data Centre
#                                CCDC 
#
#######################################################################
#
# If this CIF has been generated from an entry in the Cambridge 
# Structural Database, then it will include bibliographic, chemical, 
# crystal, experimental, refinement or atomic coordinate data resulting 
# from the CCDC's data processing and validation procedures.
#
#######################################################################

data_YAPRAL
_chemical_formula_moiety         'C20 H17 F2 I1 O5'
_chemical_name_systematic        
5,6-difluoro-1-((1-(4-methoxyphenyl)-2-oxocyclohexyl)oxy)-1,2-benziodoxol-3(1H)-one
_symmetry_cell_setting           monoclinic
_symmetry_space_group_name_H-M   'P 21/c'
_symmetry_Int_Tables_number      14
_space_group_name_Hall           '-P 2ybc'
loop_
_symmetry_equiv_pos_site_id
_symmetry_equiv_pos_as_xyz
1 x,y,z
2 -x,1/2+y,1/2-z
3 -x,-y,-z
4 x,1/2-y,1/2+z
_cell_length_a                   12.089(2)
_cell_length_b                   7.6727(12)
_cell_length_c                   20.333(3)
_cell_angle_alpha                90
_cell_angle_beta                 95.591(3)
_cell_angle_gamma                90
_cell_volume                     1877.02
_exptl_crystal_colour            colorless
_exptl_crystal_description       prismatic
_cell_formula_units_Z            4
loop_
_atom_site_label
_atom_site_type_symbol
_atom_site_fract_x
_atom_site_fract_y
_atom_site_fract_z
I1 I 0.84549(2) 0.81270(2) 1.01949(2)
O1 O 0.6504(3) 0.6651(4) 1.16964(13)
O2 O 0.7952(2) 0.7440(3) 1.11743(10)
O3 O 0.85402(18) 0.8921(2) 0.92597(9)
O4 O 1.05317(19) 0.7716(3) 0.97125(10)
O5 O 0.66623(19) 0.1607(3) 0.82745(11)
F1 F 0.3390(2) 0.7357(5) 0.98075(16)
F2 F 0.4426(2) 0.8458(4) 0.87877(12)
C1 C 0.6909(3) 0.7129(5) 1.12032(16)
C2 C 0.6216(3) 0.7413(5) 1.05573(15)
C3 C 0.5075(3) 0.7193(5) 1.04907(19)
H1 H 0.4706 0.6834 1.0848
C4 C 0.4496(3) 0.7513(7) 0.9887(2)
C5 C 0.5025(3) 0.8082(5) 0.93636(19)
C6 C 0.6164(3) 0.8302(4) 0.94065(16)
H2 H 0.6528 0.8669 0.9048
C7 C 0.6726(3) 0.7944(4) 1.00128(15)
C8 C 0.9111(2) 0.7850(3) 0.88179(13)
C9 C 1.0275(2) 0.7422(4) 0.91309(14)
C10 C 1.1081(3) 0.6692(4) 0.86892(17)
H3 H 1.0857 0.5520 0.8557
H4 H 1.1813 0.6628 0.8930
C11 C 1.1134(3) 0.7820(5) 0.80742(18)
H5 H 1.1511 0.8905 0.8198
H6 H 1.1563 0.7220 0.7765
C12 C 0.9989(3) 0.8215(4) 0.77428(16)
H7 H 0.9646 0.7144 0.7571
H8 H 1.0052 0.8997 0.7373
C13 C 0.9257(3) 0.9047(4) 0.82224(13)
H9 H 0.8534 0.9301 0.7993
H10 H 0.9587 1.0140 0.8380
C14 C 0.8453(2) 0.6186(3) 0.86372(12)
C15 C 0.7612(2) 0.6132(4) 0.81263(13)
H11 H 0.7457 0.7122 0.7870
C16 C 0.6994(2) 0.4631(4) 0.79890(13)
H12 H 0.6436 0.4617 0.7640
C17 C 0.7207(2) 0.3160(3) 0.83693(14)
C18 C 0.8046(2) 0.3195(3) 0.88886(14)
H13 H 0.8194 0.2210 0.9149
C19 C 0.8652(2) 0.4683(3) 0.90144(12)
H14 H 0.9212 0.4692 0.9362
C20 C 0.5860(3) 0.1436(5) 0.77202(17)
H15 H 0.5257 0.2228 0.7765
H16 H 0.5583 0.0263 0.7697
H17 H 0.6198 0.1702 0.7324
loop_
_geom_bond_atom_site_label_1
_geom_bond_atom_site_label_2
_geom_bond_site_symmetry_1
_geom_bond_site_symmetry_2
I1 O2 1_555 1_555
O1 C1 1_555 1_555
O2 C1 1_555 1_555
O3 I1 1_555 1_555
O4 C9 1_555 1_555
O5 C17 1_555 1_555
F1 C4 1_555 1_555
F2 C5 1_555 1_555
C1 C2 1_555 1_555
C2 C3 1_555 1_555
C3 H1 1_555 1_555
C4 C3 1_555 1_555
C5 C4 1_555 1_555
C6 C5 1_555 1_555
H2 C6 1_555 1_555
C7 I1 1_555 1_555
C8 O3 1_555 1_555
C9 C8 1_555 1_555
C10 C9 1_555 1_555
H3 C10 1_555 1_555
H4 C10 1_555 1_555
C11 C10 1_555 1_555
H5 C11 1_555 1_555
H6 C11 1_555 1_555
C12 C11 1_555 1_555
H7 C12 1_555 1_555
H8 C12 1_555 1_555
C13 C8 1_555 1_555
H9 C13 1_555 1_555
H10 C13 1_555 1_555
C14 C8 1_555 1_555
C15 C14 1_555 1_555
H11 C15 1_555 1_555
C16 C15 1_555 1_555
H12 C16 1_555 1_555
C17 C16 1_555 1_555
C18 C17 1_555 1_555
H13 C18 1_555 1_555
C19 C14 1_555 1_555
H14 C19 1_555 1_555
C20 O5 1_555 1_555
H15 C20 1_555 1_555
H16 C20 1_555 1_555
H17 C20 1_555 1_555
C2 C7 1_555 1_555
C6 C7 1_555 1_555
C12 C13 1_555 1_555
C18 C19 1_555 1_555

#END
