
#######################################################################
#
#                 Cambridge Crystallographic Data Centre
#                                CCDC 
#
#######################################################################
#
# If this CIF has been generated from an entry in the Cambridge 
# Structural Database, then it will include bibliographic, chemical, 
# crystal, experimental, refinement or atomic coordinate data resulting 
# from the CCDC's data processing and validation procedures.
#
#######################################################################

data_YAPTAN
_chemical_formula_moiety         'C24 H22 O1'
_chemical_name_systematic        
3-ethyl-4-methyl-2-(prop-1-en-2-yl)-2'H-spiro[indene-1,1'-naphthalen]-2'-one
_symmetry_cell_setting           triclinic
_symmetry_space_group_name_H-M   'P -1'
_symmetry_Int_Tables_number      2
_space_group_name_Hall           '-P 1'
loop_
_symmetry_equiv_pos_site_id
_symmetry_equiv_pos_as_xyz
1 x,y,z
2 -x,-y,-z
_cell_length_a                   8.849(3)
_cell_length_b                   9.103(3)
_cell_length_c                   11.658(3)
_cell_angle_alpha                86.312(5)
_cell_angle_beta                 89.574(5)
_cell_angle_gamma                78.137(5)
_cell_volume                     917.104
_exptl_crystal_colour            colorless
_exptl_crystal_description       block
_cell_formula_units_Z            2
loop_
_atom_site_label
_atom_site_type_symbol
_atom_site_fract_x
_atom_site_fract_y
_atom_site_fract_z
C1 C 0.2800(3) 0.9000(3) 0.64253(19)
C2 C 0.4511(3) 0.8584(3) 0.81652(19)
C3 C 0.3069(3) 0.8237(3) 0.76310(19)
C4 C 0.1754(3) 0.8792(3) 0.8496(2)
C5 C 0.5512(3) 0.7243(3) 0.8540(2)
C6 C 0.1680(3) 1.0304(3) 0.6223(2)
C7 C 0.0710(3) 1.0200(3) 0.8198(2)
H1 H 0.0038 1.0642 0.8754
C8 C 0.6881(3) 0.7314(3) 0.9135(2)
C9 C 0.0676(3) 1.0891(3) 0.7147(3)
H2 H -0.0028 1.1794 0.7003
C10 C 0.4851(3) 0.5984(3) 0.8178(2)
C11 C 0.7186(3) 0.8736(3) 0.9248(2)
H3 H 0.8098 0.8807 0.9613
C12 C 0.3569(4) 0.9174(4) 0.4449(2)
H4 H 0.4207 0.8788 0.3856
C13 C 0.3474(3) 0.6519(3) 0.7637(2)
C14 C 0.3732(3) 0.8443(3) 0.5527(2)
H5 H 0.4477 0.7565 0.5653
C15 C 0.1536(3) 1.1032(3) 0.5120(3)
H6 H 0.0794 1.1910 0.4983
C16 C 0.2470(4) 1.0470(4) 0.4243(2)
H7 H 0.2363 1.0960 0.3515
C17 C 0.2444(4) 0.5704(3) 0.7103(3)
C18 C 0.7956(4) 0.5963(4) 0.9701(3)
H8 H 0.8810 0.6277 1.0044
H9 H 0.8332 0.5258 0.9135
H10 H 0.7408 0.5494 1.0284
C19 C 0.5641(4) 0.4346(3) 0.8376(3)
H11 H 0.4896 0.3717 0.8274
H12 H 0.6024 0.4162 0.9160
C20 C 0.0790(4) 0.6223(4) 0.7203(3)
H13 H 0.0119 0.5759 0.6817
H14 H 0.0400 0.7021 0.7653
C21 C 0.6984(5) 0.3918(4) 0.7547(5)
H15 H 0.6620 0.4160 0.6770
H16 H 0.7404 0.2859 0.7652
H17 H 0.7770 0.4467 0.7699
C22 C 0.3024(6) 0.4513(5) 0.6431(5)
H18 H 0.3014 0.3580 0.6862
H19 H 0.4065 0.4550 0.6213
H20 H 0.2396 0.4586 0.5754
C23 C 0.4833(3) 0.9975(3) 0.8315(2)
H21 H 0.4143 1.0851 0.8065
C24 C 0.6212(3) 1.0040(3) 0.8849(2)
H22 H 0.6475 1.0965 0.8937
O1 O 0.1680(2) 0.8088(2) 0.94128(15)
loop_
_geom_bond_atom_site_label_1
_geom_bond_atom_site_label_2
_geom_bond_site_symmetry_1
_geom_bond_site_symmetry_2
C1 C3 1_555 1_555
C2 C3 1_555 1_555
C3 C4 1_555 1_555
C4 C7 1_555 1_555
C5 C2 1_555 1_555
C6 C1 1_555 1_555
C7 H1 1_555 1_555
C8 C5 1_555 1_555
C9 C6 1_555 1_555
H2 C9 1_555 1_555
C10 C5 1_555 1_555
C11 C8 1_555 1_555
H3 C11 1_555 1_555
C12 H4 1_555 1_555
C13 C3 1_555 1_555
C14 C1 1_555 1_555
H5 C14 1_555 1_555
C15 C6 1_555 1_555
H6 C15 1_555 1_555
C16 C12 1_555 1_555
H7 C16 1_555 1_555
C17 C13 1_555 1_555
C18 C8 1_555 1_555
H8 C18 1_555 1_555
H9 C18 1_555 1_555
H10 C18 1_555 1_555
C19 C10 1_555 1_555
H11 C19 1_555 1_555
H12 C19 1_555 1_555
C20 C17 1_555 1_555
H13 C20 1_555 1_555
H14 C20 1_555 1_555
C21 C19 1_555 1_555
H15 C21 1_555 1_555
H16 C21 1_555 1_555
H17 C21 1_555 1_555
C22 C17 1_555 1_555
H18 C22 1_555 1_555
H19 C22 1_555 1_555
H20 C22 1_555 1_555
C23 C2 1_555 1_555
H21 C23 1_555 1_555
C24 C11 1_555 1_555
H22 C24 1_555 1_555
O1 C4 1_555 1_555
C7 C9 1_555 1_555
C10 C13 1_555 1_555
C12 C14 1_555 1_555
C15 C16 1_555 1_555
C23 C24 1_555 1_555

#END
