
#######################################################################
#
#                 Cambridge Crystallographic Data Centre
#                                CCDC 
#
#######################################################################
#
# If this CIF has been generated from an entry in the Cambridge 
# Structural Database, then it will include bibliographic, chemical, 
# crystal, experimental, refinement or atomic coordinate data resulting 
# from the CCDC's data processing and validation procedures.
#
#######################################################################

data_YAPYEV
_chemical_formula_moiety         'C78 H82 N4 O9,3(C2 H3 N1)'
_chemical_name_systematic        
'1,57,62,62,71,71-hexamethyl-6,9,23,26,29,32,35,49,52-nonaoxa-76,77,78,79-tetraazatetradecacyclo[55.9.9.2^2,5^.2^53,56^.1^11,37^.1^21,47^.1^58,61^.1^63,66^.1^67,70^.1^72,75^.0^10,15^.0^17,22^.0^36,41^.0^43,48^]pentaoctaconta-2,4,10,12,14,17,19,21,36,38,40,43,45,47,53,55,58,60,63,65,67,69,72,74,80,84-hexacosaene acetonitrile solvate'
_symmetry_cell_setting           triclinic
_symmetry_space_group_name_H-M   'P -1'
_symmetry_Int_Tables_number      2
_space_group_name_Hall           '-P 1'
loop_
_symmetry_equiv_pos_site_id
_symmetry_equiv_pos_as_xyz
1 x,y,z
2 -x,-y,-z
_cell_length_a                   10.5466(12)
_cell_length_b                   18.260(2)
_cell_length_c                   19.653(2)
_cell_angle_alpha                85.338(3)
_cell_angle_beta                 76.630(3)
_cell_angle_gamma                77.250(4)
_cell_volume                     3589.59
_exptl_crystal_colour            colorless
_exptl_crystal_description       prisms
_cell_formula_units_Z            2
loop_
_atom_site_label
_atom_site_type_symbol
_atom_site_fract_x
_atom_site_fract_y
_atom_site_fract_z
O1 O 0.01117(19) 0.40471(10) 0.57367(9)
O2 O 0.16941(18) 0.36579(10) 0.43134(9)
O3 O 0.41065(18) 0.21408(10) 0.27105(9)
O4 O 0.58066(19) 0.23029(11) 0.12736(10)
O5 O 0.7561(2) 0.36747(11) 0.15977(11)
O6 O 0.8437(2) 0.41536(11) 0.27597(10)
O7 O 0.58342(19) 0.38808(10) 0.37820(9)
O8 O 0.57690(18) 0.15995(10) 0.47271(9)
O9 O 0.75644(19) 0.14112(10) 0.57344(9)
N1 N 0.0336(2) 0.18464(12) 0.84859(12)
H1 H 0.0941 0.1932 0.8114
N2 N 0.3286(2) 0.07753(12) 0.85562(11)
H2 H 0.3103 0.1217 0.8345
N3 N 0.4421(2) 0.22819(12) 0.87663(11)
H3 H 0.4096 0.2301 0.8390
N4 N 0.1489(2) 0.33769(13) 0.87548(11)
H4 H 0.1918 0.3083 0.8405
C1 C 0.0244(3) 0.11421(15) 0.87911(14)
C2 C -0.0788(3) 0.12561(16) 0.93630(14)
H5 H -0.1081 0.0878 0.9683
C3 C -0.1345(3) 0.20344(15) 0.93958(14)
H6 H -0.2079 0.2268 0.9742
C4 C -0.0651(3) 0.23930(15) 0.88459(14)
C5 C -0.0779(3) 0.32242(15) 0.86529(13)
C6 C 0.0119(3) 0.35419(15) 0.89908(14)
C7 C -0.0145(3) 0.40019(16) 0.95413(14)
H7 H -0.1003 0.4204 0.9813
C8 C 0.1080(3) 0.41273(16) 0.96382(15)
H8 H 0.1183 0.4429 0.9985
C9 C 0.2089(3) 0.37384(15) 0.91443(14)
C10 C 0.3584(3) 0.36685(16) 0.90007(15)
C11 C 0.4265(3) 0.28855(15) 0.91866(14)
C12 C 0.4881(3) 0.26203(15) 0.97210(14)
H9 H 0.4930 0.2904 1.0095
C13 C 0.5441(3) 0.18415(15) 0.96200(13)
H10 H 0.5926 0.1515 0.9916
C14 C 0.5160(3) 0.16469(15) 0.90273(13)
C15 C 0.5569(3) 0.09092(15) 0.86520(13)
C16 C 0.4433(3) 0.04984(15) 0.87893(13)
C17 C 0.4330(3) -0.01966(16) 0.90826(14)
H11 H 0.4977 -0.0526 0.9291
C18 C 0.3089(3) -0.03426(16) 0.90238(14)
H12 H 0.2763 -0.0785 0.9183
C19 C 0.2455(3) 0.02696(15) 0.86967(13)
C20 C 0.1142(3) 0.04273(15) 0.84747(14)
C21 C -0.2237(3) 0.36188(16) 0.89428(15)
H13 H -0.2461 0.3538 0.9452
H14 H -0.2830 0.3410 0.8731
H15 H -0.2346 0.4159 0.8830
C22 C 0.1373(3) 0.05090(16) 0.76711(14)
H16 H 0.1913 0.0887 0.7502
H17 H 0.0513 0.0666 0.7536
H18 H 0.1840 0.0026 0.7465
C23 C 0.0439(3) -0.02318(16) 0.87177(16)
H19 H 0.1015 -0.0697 0.8518
H20 H -0.0401 -0.0138 0.8561
H21 H 0.0256 -0.0281 0.9230
C24 C 0.6740(3) 0.04156(15) 0.89239(14)
H22 H 0.6456 0.0310 0.9427
H23 H 0.7479 0.0679 0.8842
H24 H 0.7033 -0.0058 0.8677
C25 C 0.3882(3) 0.42349(16) 0.94519(17)
H25 H 0.3553 0.4116 0.9948
H26 H 0.3438 0.4744 0.9335
H27 H 0.4846 0.4204 0.9359
C26 C 0.4137(3) 0.38593(17) 0.82292(16)
H28 H 0.5107 0.3798 0.8145
H29 H 0.3739 0.4380 0.8119
H30 H 0.3917 0.3522 0.7932
C27 C -0.0482(3) 0.33898(15) 0.78568(14)
C28 C -0.0735(3) 0.29468(16) 0.73828(14)
H31 H -0.1044 0.2500 0.7547
C29 C -0.0547(3) 0.31442(15) 0.66697(14)
H32 H -0.0719 0.2831 0.6354
C30 C -0.0107(3) 0.37996(15) 0.64247(14)
C31 C 0.0123(3) 0.42596(15) 0.68943(14)
H33 H 0.0402 0.4716 0.6734
C32 C -0.0056(3) 0.40491(15) 0.75945(14)
H34 H 0.0118 0.4364 0.7909
C33 C -0.0185(3) 0.36162(16) 0.52394(14)
H35 H -0.1156 0.3641 0.5331
H36 H 0.0272 0.3084 0.5275
C34 C 0.0291(3) 0.39396(16) 0.45224(14)
H37 H -0.0171 0.3790 0.4188
H38 H 0.0096 0.4495 0.4531
C35 C 0.2264(3) 0.39432(15) 0.36608(14)
C36 C 0.2136(3) 0.36544(15) 0.30480(14)
C37 C 0.2662(3) 0.40027(15) 0.24195(15)
H39 H 0.2570 0.3832 0.1993
C38 C 0.3311(3) 0.45850(16) 0.23956(16)
H40 H 0.3641 0.4817 0.1960
C39 C 0.3479(3) 0.48303(16) 0.30158(16)
H41 H 0.3950 0.5221 0.3000
C40 C 0.2966(3) 0.45096(15) 0.36548(15)
C41 C 0.3160(3) 0.47598(16) 0.43323(15)
H42 H 0.3620 0.5187 0.4222
H43 H 0.2271 0.4950 0.4631
C42 C 0.3935(3) 0.41748(15) 0.47516(15)
C43 C 0.5223(3) 0.37641(15) 0.44766(14)
C44 C 0.5915(3) 0.32292(15) 0.48781(14)
C45 C 0.5336(3) 0.31266(16) 0.55835(15)
H44 H 0.5807 0.2774 0.5868
C46 C 0.4082(3) 0.35348(16) 0.58707(15)
H45 H 0.3701 0.3473 0.6354
C47 C 0.3389(3) 0.40322(16) 0.54530(15)
H46 H 0.2507 0.4287 0.5650
C48 C 0.7266(3) 0.27663(15) 0.45463(14)
H47 H 0.7622 0.2433 0.4912
H48 H 0.7884 0.3109 0.4365
C49 C 0.7240(3) 0.22893(15) 0.39535(14)
C50 C 0.6447(3) 0.17564(14) 0.40505(13)
C51 C 0.6280(3) 0.13887(14) 0.34830(14)
C52 C 0.7060(3) 0.15146(15) 0.28271(14)
H49 H 0.6981 0.1268 0.2436
C53 C 0.7942(3) 0.19871(16) 0.27309(15)
H50 H 0.8519 0.2031 0.2287
C54 C 0.7985(3) 0.23981(16) 0.32848(14)
H51 H 0.8532 0.2760 0.3206
C55 C 0.5248(3) 0.09143(15) 0.35666(14)
H52 H 0.5394 0.0524 0.3937
H53 H 0.5387 0.0654 0.3124
C56 C 0.3805(3) 0.13432(14) 0.37524(13)
C57 C 0.3297(3) 0.19235(14) 0.33237(13)
C58 C 0.1985(3) 0.23213(15) 0.34964(14)
C59 C 0.1147(3) 0.20883(15) 0.40956(14)
H54 H 0.0234 0.2331 0.4207
C60 C 0.1626(3) 0.15100(16) 0.45290(14)
H55 H 0.1048 0.1361 0.4938
C61 C 0.2951(3) 0.11508(15) 0.43632(14)
H56 H 0.3287 0.0766 0.4670
C62 C 0.1488(3) 0.29893(15) 0.30510(14)
H57 H 0.0513 0.3154 0.3222
H58 H 0.1647 0.2829 0.2564
C63 C 0.6504(3) 0.44970(16) 0.36948(15)
H59 H 0.7203 0.4392 0.3971
H60 H 0.5860 0.4960 0.3869
C64 C 0.7125(3) 0.46105(16) 0.29359(15)
H61 H 0.6565 0.4479 0.2643
H62 H 0.7171 0.5146 0.2838
C65 C 0.9048(3) 0.42318(17) 0.20348(15)
H63 H 1.0005 0.4226 0.1990
H64 H 0.8635 0.4725 0.1851
C66 C 0.8923(3) 0.36243(18) 0.15960(16)
H65 H 0.9431 0.3681 0.1111
H66 H 0.9297 0.3126 0.1787
C67 C 0.7333(3) 0.30845(17) 0.12379(15)
H67 H 0.7998 0.2617 0.1283
H68 H 0.7412 0.3223 0.0734
C68 C 0.5949(3) 0.29661(16) 0.15609(15)
H69 H 0.5825 0.2905 0.2076
H70 H 0.5276 0.3403 0.1451
C69 C 0.4489(3) 0.21681(17) 0.14471(14)
H71 H 0.4354 0.1903 0.1058
H72 H 0.3851 0.2658 0.1487
C70 C 0.4166(3) 0.17134(16) 0.21165(13)
H73 H 0.3299 0.1571 0.2156
H74 H 0.4858 0.1247 0.2108
C71 C 0.6347(3) 0.08941(15) 0.50146(14)
H75 H 0.6497 0.0503 0.4667
H76 H 0.5703 0.0762 0.5434
C72 C 0.7648(3) 0.08804(15) 0.52172(13)
H77 H 0.7982 0.0369 0.5398
H78 H 0.8308 0.0982 0.4792
C73 C 0.7062(3) 0.12424(15) 0.64253(13)
C74 C 0.6457(3) 0.06425(15) 0.66676(14)
H79 H 0.6384 0.0297 0.6350
C75 C 0.5955(3) 0.05508(15) 0.73846(14)
H80 H 0.5534 0.0141 0.7550
C76 C 0.6056(3) 0.10454(15) 0.78625(13)
C77 C 0.6705(3) 0.16265(16) 0.76061(14)
H81 H 0.6821 0.1957 0.7925
C78 C 0.7188(3) 0.17359(16) 0.68952(14)
H82 H 0.7605 0.2147 0.6730
N5 N 0.3024(3) 0.22364(14) 0.73996(14)
C79 C 0.2994(3) 0.21025(17) 0.68470(17)
C80 C 0.2930(4) 0.1925(2) 0.61402(17)
H83 H 0.2675 0.1438 0.6156
H84 H 0.3806 0.1903 0.5825
H85 H 0.2268 0.2316 0.5969
N6 N 0.1260(3) 0.17529(17) 1.14607(15)
C81 C 0.1462(3) 0.17945(18) 1.08675(17)
C82 C 0.1727(4) 0.1851(2) 1.01083(17)
H86 H 0.1169 0.2312 0.9961
H87 H 0.1522 0.1416 0.9929
H88 H 0.2668 0.1864 0.9923
N7 N 0.0815(5) 0.0312(2) 0.60109(18)
C83 C 0.0206(5) -0.0053(2) 0.6383(2)
C84 C -0.0562(4) -0.0523(2) 0.6861(2)
H89 H -0.1057 -0.0755 0.6604
H90 H -0.1189 -0.0216 0.7230
H91 H 0.0041 -0.0916 0.7070
loop_
_geom_bond_atom_site_label_1
_geom_bond_atom_site_label_2
_geom_bond_site_symmetry_1
_geom_bond_site_symmetry_2
O1 C30 1_555 1_555
O2 C34 1_555 1_555
O3 C57 1_555 1_555
O4 C68 1_555 1_555
O5 C66 1_555 1_555
O6 C64 1_555 1_555
O7 C43 1_555 1_555
O8 C50 1_555 1_555
O9 C72 1_555 1_555
N1 H1 1_555 1_555
N2 H2 1_555 1_555
N3 H3 1_555 1_555
N4 H4 1_555 1_555
C1 N1 1_555 1_555
C2 C1 1_555 1_555
H5 C2 1_555 1_555
C3 C2 1_555 1_555
H6 C3 1_555 1_555
C4 N1 1_555 1_555
C5 C4 1_555 1_555
C6 N4 1_555 1_555
C7 C6 1_555 1_555
H7 C7 1_555 1_555
C8 C7 1_555 1_555
H8 C8 1_555 1_555
C9 N4 1_555 1_555
C10 C9 1_555 1_555
C11 N3 1_555 1_555
C12 C11 1_555 1_555
H9 C12 1_555 1_555
C13 C12 1_555 1_555
H10 C13 1_555 1_555
C14 N3 1_555 1_555
C15 C14 1_555 1_555
C16 N2 1_555 1_555
C17 C16 1_555 1_555
H11 C17 1_555 1_555
C18 C17 1_555 1_555
H12 C18 1_555 1_555
C19 N2 1_555 1_555
C20 C1 1_555 1_555
C21 C5 1_555 1_555
H13 C21 1_555 1_555
H14 C21 1_555 1_555
H15 C21 1_555 1_555
C22 C20 1_555 1_555
H16 C22 1_555 1_555
H17 C22 1_555 1_555
H18 C22 1_555 1_555
C23 C20 1_555 1_555
H19 C23 1_555 1_555
H20 C23 1_555 1_555
H21 C23 1_555 1_555
C24 C15 1_555 1_555
H22 C24 1_555 1_555
H23 C24 1_555 1_555
H24 C24 1_555 1_555
C25 C10 1_555 1_555
H25 C25 1_555 1_555
H26 C25 1_555 1_555
H27 C25 1_555 1_555
C26 C10 1_555 1_555
H28 C26 1_555 1_555
H29 C26 1_555 1_555
H30 C26 1_555 1_555
C27 C5 1_555 1_555
C28 C27 1_555 1_555
H31 C28 1_555 1_555
C29 C28 1_555 1_555
H32 C29 1_555 1_555
C30 C29 1_555 1_555
C31 C30 1_555 1_555
H33 C31 1_555 1_555
C32 C27 1_555 1_555
H34 C32 1_555 1_555
C33 O1 1_555 1_555
H35 C33 1_555 1_555
H36 C33 1_555 1_555
C34 C33 1_555 1_555
H37 C34 1_555 1_555
H38 C34 1_555 1_555
C35 O2 1_555 1_555
C36 C35 1_555 1_555
C37 C36 1_555 1_555
H39 C37 1_555 1_555
C38 C37 1_555 1_555
H40 C38 1_555 1_555
C39 C38 1_555 1_555
H41 C39 1_555 1_555
C40 C35 1_555 1_555
C41 C40 1_555 1_555
H42 C41 1_555 1_555
H43 C41 1_555 1_555
C42 C41 1_555 1_555
C43 C42 1_555 1_555
C44 C43 1_555 1_555
C45 C44 1_555 1_555
H44 C45 1_555 1_555
C46 C45 1_555 1_555
H45 C46 1_555 1_555
C47 C42 1_555 1_555
H46 C47 1_555 1_555
C48 C44 1_555 1_555
H47 C48 1_555 1_555
H48 C48 1_555 1_555
C49 C48 1_555 1_555
C50 C49 1_555 1_555
C51 C50 1_555 1_555
C52 C51 1_555 1_555
H49 C52 1_555 1_555
C53 C52 1_555 1_555
H50 C53 1_555 1_555
C54 C49 1_555 1_555
H51 C54 1_555 1_555
C55 C51 1_555 1_555
H52 C55 1_555 1_555
H53 C55 1_555 1_555
C56 C55 1_555 1_555
C57 C56 1_555 1_555
C58 C57 1_555 1_555
C59 C58 1_555 1_555
H54 C59 1_555 1_555
C60 C59 1_555 1_555
H55 C60 1_555 1_555
C61 C56 1_555 1_555
H56 C61 1_555 1_555
C62 C36 1_555 1_555
H57 C62 1_555 1_555
H58 C62 1_555 1_555
C63 O7 1_555 1_555
H59 C63 1_555 1_555
H60 C63 1_555 1_555
C64 C63 1_555 1_555
H61 C64 1_555 1_555
H62 C64 1_555 1_555
C65 O6 1_555 1_555
H63 C65 1_555 1_555
H64 C65 1_555 1_555
C66 C65 1_555 1_555
H65 C66 1_555 1_555
H66 C66 1_555 1_555
C67 O5 1_555 1_555
H67 C67 1_555 1_555
H68 C67 1_555 1_555
C68 C67 1_555 1_555
H69 C68 1_555 1_555
H70 C68 1_555 1_555
C69 O4 1_555 1_555
H71 C69 1_555 1_555
H72 C69 1_555 1_555
C70 O3 1_555 1_555
H73 C70 1_555 1_555
H74 C70 1_555 1_555
C71 O8 1_555 1_555
H75 C71 1_555 1_555
H76 C71 1_555 1_555
C72 C71 1_555 1_555
H77 C72 1_555 1_555
H78 C72 1_555 1_555
C73 O9 1_555 1_555
C74 C73 1_555 1_555
H79 C74 1_555 1_555
C75 C74 1_555 1_555
H80 C75 1_555 1_555
C76 C15 1_555 1_555
C77 C76 1_555 1_555
H81 C77 1_555 1_555
C78 C73 1_555 1_555
H82 C78 1_555 1_555
N5 C79 1_555 1_555
C79 C80 1_555 1_555
C80 H83 1_555 1_555
H84 C80 1_555 1_555
H85 C80 1_555 1_555
N6 C81 1_555 1_555
C81 C82 1_555 1_555
C82 H86 1_555 1_555
H87 C82 1_555 1_555
H88 C82 1_555 1_555
N7 C83 1_555 1_555
C83 C84 1_555 1_555
C84 H89 1_555 1_555
H90 C84 1_555 1_555
H91 C84 1_555 1_555
C3 C4 1_555 1_555
C5 C6 1_555 1_555
C8 C9 1_555 1_555
C10 C11 1_555 1_555
C13 C14 1_555 1_555
C15 C16 1_555 1_555
C18 C19 1_555 1_555
C19 C20 1_555 1_555
C31 C32 1_555 1_555
C39 C40 1_555 1_555
C46 C47 1_555 1_555
C53 C54 1_555 1_555
C58 C62 1_555 1_555
C60 C61 1_555 1_555
C69 C70 1_555 1_555
C75 C76 1_555 1_555
C77 C78 1_555 1_555

#END
