
#######################################################################
#
#                 Cambridge Crystallographic Data Centre
#                                CCDC 
#
#######################################################################
#
# If this CIF has been generated from an entry in the Cambridge 
# Structural Database, then it will include bibliographic, chemical, 
# crystal, experimental, refinement or atomic coordinate data resulting 
# from the CCDC's data processing and validation procedures.
#
#######################################################################

data_YAPZUN
_chemical_formula_moiety         'C20 H19 I1 O5'
_chemical_name_systematic        
1-((1-(4-methoxyphenyl)-2-oxocyclohexyl)oxy)-1\l^3^,2-benziodoxol-3(1H)-one
_symmetry_cell_setting           monoclinic
_symmetry_space_group_name_H-M   'P 21/c'
_symmetry_Int_Tables_number      14
_space_group_name_Hall           '-P 2ybc'
loop_
_symmetry_equiv_pos_site_id
_symmetry_equiv_pos_as_xyz
1 x,y,z
2 -x,1/2+y,1/2-z
3 -x,-y,-z
4 x,1/2-y,1/2+z
_cell_length_a                   11.185(3)
_cell_length_b                   21.531(6)
_cell_length_c                   7.758(2)
_cell_angle_alpha                90
_cell_angle_beta                 107.659(5)
_cell_angle_gamma                90
_cell_volume                     1780.28
_exptl_crystal_colour            colorless
_exptl_crystal_description       prismatic
_cell_formula_units_Z            4
loop_
_atom_site_label
_atom_site_type_symbol
_atom_site_fract_x
_atom_site_fract_y
_atom_site_fract_z
I1 I 0.12922(5) 1.00870(3) 0.75038(8)
O1 O 0.0956(5) 0.9240(3) 0.6371(7)
O2 O -0.1151(5) 0.9575(3) 0.7067(9)
O3 O 0.2059(6) 1.0991(3) 0.8553(10)
O4 O 0.3812(8) 1.1553(3) 0.9227(12)
O5 O 0.3469(6) 0.8268(3) 1.4232(8)
C1 C 0.3242(10) 1.1081(4) 0.8690(14)
C2 C 0.3861(8) 1.0539(5) 0.8135(12)
C3 C 0.5098(9) 1.0537(5) 0.8178(13)
H1 H 0.5598 1.0883 0.8592
C4 C 0.5594(10) 1.0018(5) 0.7607(14)
H2 H 0.6435 1.0015 0.7656
C5 C 0.4865(9) 0.9512(5) 0.6972(13)
H3 H 0.5215 0.9173 0.6561
C6 C 0.3623(8) 0.9488(5) 0.6919(13)
H4 H 0.3133 0.9136 0.6527
C7 C 0.3149(9) 1.0017(4) 0.7483(12)
C8 C 0.0340(7) 0.8782(4) 0.7130(10)
C9 C -0.0941(7) 0.9027(4) 0.7154(10)
C10 C -0.1914(8) 0.8561(5) 0.7280(14)
H5 H -0.2729 0.8762 0.6934
H6 H -0.1730 0.8429 0.8528
C11 C -0.1980(9) 0.7997(5) 0.6108(14)
H7 H -0.2396 0.8107 0.4857
H8 H -0.2480 0.7680 0.6453
C12 C -0.0693(9) 0.7735(4) 0.6269(13)
H9 H -0.0773 0.7387 0.5446
H10 H -0.0304 0.7586 0.7491
C13 C 0.0123(8) 0.8234(4) 0.5818(12)
H11 H -0.0275 0.8383 0.4598
H12 H 0.0926 0.8055 0.5855
C14 C 0.1132(7) 0.8611(4) 0.9042(10)
C15 C 0.2137(8) 0.8220(5) 0.9320(12)
H13 H 0.2285 0.8032 0.8326
C16 C 0.2935(9) 0.8096(5) 1.1022(12)
H14 H 0.3619 0.7834 1.1163
C17 C 0.2718(7) 0.8361(4) 1.2518(11)
C18 C 0.1699(9) 0.8744(5) 1.2273(12)
H15 H 0.1526 0.8920 1.3267
C19 C 0.0932(8) 0.8867(5) 1.0546(11)
H16 H 0.0254 0.9134 1.0399
C20 C 0.4664(9) 0.7976(6) 1.4472(15)
H17 H 0.4537 0.7560 1.4009
H18 H 0.5125 0.7966 1.5737
H19 H 0.5128 0.8208 1.3832
loop_
_geom_bond_atom_site_label_1
_geom_bond_atom_site_label_2
_geom_bond_site_symmetry_1
_geom_bond_site_symmetry_2
I1 O1 1_555 1_555
O1 C8 1_555 1_555
O2 C9 1_555 1_555
O3 I1 1_555 1_555
O4 C1 1_555 1_555
O5 C17 1_555 1_555
C1 O3 1_555 1_555
C2 C1 1_555 1_555
C3 C2 1_555 1_555
H1 C3 1_555 1_555
C4 C3 1_555 1_555
H2 C4 1_555 1_555
C5 C4 1_555 1_555
H3 C5 1_555 1_555
C6 C5 1_555 1_555
H4 C6 1_555 1_555
C7 I1 1_555 1_555
C8 C9 1_555 1_555
C9 C10 1_555 1_555
C10 H5 1_555 1_555
H6 C10 1_555 1_555
C11 C10 1_555 1_555
H7 C11 1_555 1_555
H8 C11 1_555 1_555
C12 C11 1_555 1_555
H9 C12 1_555 1_555
H10 C12 1_555 1_555
C13 C8 1_555 1_555
H11 C13 1_555 1_555
H12 C13 1_555 1_555
C14 C8 1_555 1_555
C15 C14 1_555 1_555
H13 C15 1_555 1_555
C16 C15 1_555 1_555
H14 C16 1_555 1_555
C17 C16 1_555 1_555
C18 C17 1_555 1_555
H15 C18 1_555 1_555
C19 C14 1_555 1_555
H16 C19 1_555 1_555
C20 O5 1_555 1_555
H17 C20 1_555 1_555
H18 C20 1_555 1_555
H19 C20 1_555 1_555
C2 C7 1_555 1_555
C6 C7 1_555 1_555
C12 C13 1_555 1_555
C18 C19 1_555 1_555

#END
