
#######################################################################
#
#                 Cambridge Crystallographic Data Centre
#                                CCDC 
#
#######################################################################
#
# If this CIF has been generated from an entry in the Cambridge 
# Structural Database, then it will include bibliographic, chemical, 
# crystal, experimental, refinement or atomic coordinate data resulting 
# from the CCDC's data processing and validation procedures.
#
#######################################################################

data_YAPZEU01
_chemical_name_common            Danazol
_chemical_formula_moiety         'C22 H27 N1 O2'
_chemical_name_systematic        
17\a-Pregna-2,4-dien-20-yne-(2,3-d)isoxazole-17\b-ol
_chemical_properties_biological  
'may have minimal genomic progestational, androgenic or estrogenic activity'
_symmetry_cell_setting           orthorhombic
_symmetry_space_group_name_H-M   'P 21 21 21'
_symmetry_Int_Tables_number      19
_space_group_name_Hall           'P 2ac 2ab'
loop_
_symmetry_equiv_pos_site_id
_symmetry_equiv_pos_as_xyz
1 x,y,z
2 -x,1/2+y,1/2-z
3 1/2+x,1/2-y,-z
4 1/2-x,-y,1/2+z
_cell_length_a                   6.601(4)
_cell_length_b                   10.530(4)
_cell_length_c                   26.177(9)
_cell_angle_alpha                90
_cell_angle_beta                 90
_cell_angle_gamma                90
_cell_volume                     1819.52
_cell_formula_units_Z            4
_exptl_crystal_recrystallization_method ethanol
loop_
_atom_site_label
_atom_site_type_symbol
_atom_site_fract_x
_atom_site_fract_y
_atom_site_fract_z
C1 C 0.6709(4) 0.0037(2) 0.11696(8)
H1 H 0.5786(4) -0.0344(2) 0.09255(8)
H2 H 0.7745(4) 0.0488(2) 0.09795(8)
C2 C 0.7680(4) -0.0985(2) 0.14784(9)
C3 C 0.8303(4) -0.0726(2) 0.19576(9)
C4 C 0.7972(4) 0.0454(2) 0.22175(8)
H3 H 0.8654(4) 0.0643(2) 0.25189(8)
C5 C 0.6646(4) 0.1277(2) 0.20128(7)
C6 C 0.6042(4) 0.2448(2) 0.22996(7)
H4 H 0.7007(4) 0.2595(2) 0.25727(7)
H5 H 0.4724(4) 0.2311(2) 0.24539(7)
C7 C 0.5948(4) 0.3622(2) 0.19611(7)
H6 H 0.7298(4) 0.3826(2) 0.18393(7)
H7 H 0.5457(4) 0.4337(2) 0.21589(7)
C8 C 0.4546(4) 0.3399(2) 0.15052(7)
H8 H 0.3174(4) 0.3227(2) 0.16307(7)
C9 C 0.5288(3) 0.2248(2) 0.11933(7)
H9 H 0.6656(3) 0.2469(2) 0.10780(7)
C10 C 0.5527(3) 0.0994(2) 0.15090(7)
C11 C 0.4027(4) 0.2066(2) 0.07020(7)
H10 H 0.4608(4) 0.1379(2) 0.05029(7)
H11 H 0.2658(4) 0.1823(2) 0.07946(7)
C12 C 0.3950(4) 0.3268(2) 0.03732(7)
H12 H 0.5296(4) 0.3456(2) 0.02454(7)
H13 H 0.3071(4) 0.3124(2) 0.00820(7)
C13 C 0.3168(3) 0.4399(2) 0.06782(7)
C14 C 0.4492(3) 0.4558(2) 0.11585(7)
H14 H 0.5881(3) 0.4681(2) 0.10361(7)
C15 C 0.3821(4) 0.5840(2) 0.13799(8)
H15 H 0.4898(4) 0.6223(2) 0.15792(8)
H16 H 0.2634(4) 0.5741(2) 0.15947(8)
C16 C 0.3329(4) 0.6651(2) 0.09029(7)
H17 H 0.4305(4) 0.7334(2) 0.08663(7)
H18 H 0.1986(4) 0.7019(2) 0.09317(7)
C17 C 0.3436(3) 0.5743(2) 0.04380(7)
C18 C 0.0909(4) 0.4223(3) 0.08093(10)
H19 H 0.0408(7) 0.4977(7) 0.0972(6)
H20 H 0.0756(5) 0.3513(10) 0.1036(5)
H21 H 0.0157(5) 0.4071(16) 0.05014(12)
C19 C 0.3466(4) 0.0413(2) 0.16554(10)
H22 H 0.2696(11) 0.0247(14) 0.13514(10)
H23 H 0.2736(11) 0.0997(7) 0.1869(5)
H24 H 0.3680(4) -0.0367(8) 0.1837(5)
C20 C 0.5442(4) 0.5848(2) 0.01902(8)
C21 C 0.7082(5) 0.5917(2) 0.00130(11)
H25 H 0.8374(5) 0.5972(2) -0.01266(11)
C22 C 0.8304(5) -0.2252(2) 0.14034(11)
H26 H 0.8097(5) -0.2696(2) 0.11007(11)
O1 O 0.1896(3) 0.5995(2) 0.00634(7)
H27 H 0.1864(43) 0.6758(5) 0.0002(12)
O2 O 0.9224(3) -0.1744(2) 0.21682(7)
N1 N 0.9200(4) -0.2738(2) 0.18016(10)
loop_
_geom_bond_atom_site_label_1
_geom_bond_atom_site_label_2
_geom_bond_site_symmetry_1
_geom_bond_site_symmetry_2
C1 H1 1_555 1_555
H2 C1 1_555 1_555
C2 C1 1_555 1_555
C3 C2 1_555 1_555
C4 C3 1_555 1_555
H3 C4 1_555 1_555
C5 C4 1_555 1_555
C6 C5 1_555 1_555
H4 C6 1_555 1_555
H5 C6 1_555 1_555
C7 C6 1_555 1_555
H6 C7 1_555 1_555
H7 C7 1_555 1_555
C8 C7 1_555 1_555
H8 C8 1_555 1_555
C9 C8 1_555 1_555
H9 C9 1_555 1_555
C10 C1 1_555 1_555
C11 C9 1_555 1_555
H10 C11 1_555 1_555
H11 C11 1_555 1_555
C12 C11 1_555 1_555
H12 C12 1_555 1_555
H13 C12 1_555 1_555
C13 C12 1_555 1_555
C14 C8 1_555 1_555
H14 C14 1_555 1_555
C15 C14 1_555 1_555
H15 C15 1_555 1_555
H16 C15 1_555 1_555
C16 C15 1_555 1_555
H17 C16 1_555 1_555
H18 C16 1_555 1_555
C17 C13 1_555 1_555
C18 C13 1_555 1_555
H19 C18 1_555 1_555
H20 C18 1_555 1_555
H21 C18 1_555 1_555
C19 C10 1_555 1_555
H22 C19 1_555 1_555
H23 C19 1_555 1_555
H24 C19 1_555 1_555
C20 C17 1_555 1_555
C21 C20 1_555 1_555
H25 C21 1_555 1_555
C22 C2 1_555 1_555
H26 C22 1_555 1_555
O1 C17 1_555 1_555
H27 O1 1_555 1_555
O2 C3 1_555 1_555
N1 C22 1_555 1_555
C5 C10 1_555 1_555
C9 C10 1_555 1_555
C13 C14 1_555 1_555
C16 C17 1_555 1_555
O2 N1 1_555 1_555

#END
