
#######################################################################
#
#                 Cambridge Crystallographic Data Centre
#                                CCDC 
#
#######################################################################
#
# If this CIF has been generated from an entry in the Cambridge 
# Structural Database, then it will include bibliographic, chemical, 
# crystal, experimental, refinement or atomic coordinate data resulting 
# from the CCDC's data processing and validation procedures.
#
#######################################################################

data_YAQCUP
_chemical_formula_moiety         'C20 H24 O9 S1'
_chemical_name_systematic        
'Phenyl 2,3,4,6-tetra-O-acetyl-1-thio-\a-D-mannopyranoside'
_symmetry_cell_setting           orthorhombic
_symmetry_space_group_name_H-M   'P 21 21 21'
_symmetry_Int_Tables_number      19
_space_group_name_Hall           'P 2ac 2ab'
loop_
_symmetry_equiv_pos_site_id
_symmetry_equiv_pos_as_xyz
1 x,y,z
2 1/2-x,-y,1/2+z
3 -x,1/2+y,1/2-z
4 1/2+x,1/2-y,-z
_cell_length_a                   9.1731(11)
_cell_length_b                   11.574(2)
_cell_length_c                   21.199(3)
_cell_angle_alpha                90
_cell_angle_beta                 90
_cell_angle_gamma                90
_cell_volume                     2250.69
_exptl_crystal_colour            colorless
_exptl_crystal_description       prism
_chemical_melting_point          '84.7 deg.C'
_cell_formula_units_Z            4
_exptl_crystal_recrystallization_method methanol
loop_
_atom_site_label
_atom_site_type_symbol
_atom_site_fract_x
_atom_site_fract_y
_atom_site_fract_z
S1 S 0.75168(10) 0.23006(7) 0.78503(4)
O1 O 0.62973(19) 0.22550(17) 0.90360(9)
O2 O 0.3314(2) 0.2835(2) 0.89445(11)
O3 O 0.1133(3) 0.2605(3) 0.93686(15)
O4 O 0.4648(2) -0.06091(19) 0.89140(11)
O5 O 0.4411(6) -0.1174(5) 0.9881(2)
O6 O 0.7610(2) -0.11482(17) 0.88960(9)
O7 O 0.8512(3) -0.1426(2) 0.79276(12)
O8 O 0.8740(2) 0.07993(18) 0.94542(10)
O9 O 1.0722(2) -0.0177(2) 0.91188(12)
C1 C 0.7624(3) 0.2085(3) 0.87123(13)
H1 H 0.8331 0.2642 0.8879
C2 C 0.8252(3) 0.0878(3) 0.88110(14)
H2 H 0.9070 0.0749 0.8522
C3 C 0.7075(3) -0.0035(3) 0.87048(14)
H3 H 0.6820 -0.0059 0.8256
C4 C 0.5728(3) 0.0230(3) 0.90857(14)
H4 H 0.5938 0.0194 0.9539
C5 C 0.5191(3) 0.1430(3) 0.89011(15)
H5 H 0.4991 0.1439 0.8447
C6 C 0.7109(3) 0.3793(3) 0.77905(14)
C7 C 0.5805(4) 0.4233(3) 0.80040(18)
H6 H 0.5132 0.3751 0.8200
C8 C 0.5499(5) 0.5399(3) 0.79262(18)
H7 H 0.4626 0.5697 0.8079
C9 C 0.6461(5) 0.6114(3) 0.76295(18)
H8 H 0.6247 0.6893 0.7579
C10 C 0.7741(5) 0.5674(3) 0.74081(19)
H9 H 0.8397 0.6155 0.7201
C11 C 0.8072(4) 0.4517(3) 0.74884(17)
H10 H 0.8951 0.4227 0.7337
C12 C 0.3828(3) 0.1801(3) 0.92518(16)
H11 H 0.3093 0.1199 0.9232
H12 H 0.4051 0.1955 0.9691
C13 C 0.1938(4) 0.3150(3) 0.90430(17)
C14 C 0.1560(4) 0.4243(4) 0.8719(2)
H13 H 0.0558 0.4431 0.8801
H14 H 0.1702 0.4154 0.8273
H15 H 0.2174 0.4853 0.8873
C15 C 0.4124(5) -0.1307(4) 0.9353(2)
C16 C 0.3173(5) -0.2216(3) 0.9099(3)
H16 H 0.2829 -0.2695 0.9437
H17 H 0.3711 -0.2680 0.8804
H18 H 0.2357 -0.1868 0.8888
C17 C 0.8383(4) -0.1757(3) 0.84597(17)
C18 C 0.8999(4) -0.2819(3) 0.87330(19)
H19 H 0.9540 -0.3227 0.8416
H20 H 0.8223 -0.3301 0.8885
H21 H 0.9635 -0.2622 0.9076
C19 C 1.0013(3) 0.0228(3) 0.95440(16)
C20 C 1.0428(4) 0.0192(3) 1.02238(17)
H22 H 1.1333 -0.0216 1.0270
H23 H 0.9681 -0.0198 1.0459
H24 H 1.0538 0.0966 1.0380
loop_
_geom_bond_atom_site_label_1
_geom_bond_atom_site_label_2
_geom_bond_site_symmetry_1
_geom_bond_site_symmetry_2
S1 C1 1_555 1_555
O1 C1 1_555 1_555
O2 C12 1_555 1_555
O3 C13 1_555 1_555
O4 C4 1_555 1_555
O5 C15 1_555 1_555
O6 C3 1_555 1_555
O7 C17 1_555 1_555
O8 C2 1_555 1_555
O9 C19 1_555 1_555
C1 H1 1_555 1_555
C2 C1 1_555 1_555
H2 C2 1_555 1_555
C3 C2 1_555 1_555
H3 C3 1_555 1_555
C4 C3 1_555 1_555
H4 C4 1_555 1_555
C5 O1 1_555 1_555
H5 C5 1_555 1_555
C6 S1 1_555 1_555
C7 C6 1_555 1_555
H6 C7 1_555 1_555
C8 C7 1_555 1_555
H7 C8 1_555 1_555
C9 C8 1_555 1_555
H8 C9 1_555 1_555
C10 C9 1_555 1_555
H9 C10 1_555 1_555
C11 C6 1_555 1_555
H10 C11 1_555 1_555
C12 C5 1_555 1_555
H11 C12 1_555 1_555
H12 C12 1_555 1_555
C13 O2 1_555 1_555
C14 C13 1_555 1_555
H13 C14 1_555 1_555
H14 C14 1_555 1_555
H15 C14 1_555 1_555
C15 O4 1_555 1_555
C16 C15 1_555 1_555
H16 C16 1_555 1_555
H17 C16 1_555 1_555
H18 C16 1_555 1_555
C17 O6 1_555 1_555
C18 C17 1_555 1_555
H19 C18 1_555 1_555
H20 C18 1_555 1_555
H21 C18 1_555 1_555
C19 O8 1_555 1_555
C20 C19 1_555 1_555
H22 C20 1_555 1_555
H23 C20 1_555 1_555
H24 C20 1_555 1_555
C4 C5 1_555 1_555
C10 C11 1_555 1_555

#END
