
#######################################################################
#
#                 Cambridge Crystallographic Data Centre
#                                CCDC 
#
#######################################################################
#
# If this CIF has been generated from an entry in the Cambridge 
# Structural Database, then it will include bibliographic, chemical, 
# crystal, experimental, refinement or atomic coordinate data resulting 
# from the CCDC's data processing and validation procedures.
#
#######################################################################

data_YAQDEC
_chemical_name_common            
'B-phenyl alpha-phenylethynyl-meso-triphenylsubchlorophin'
_chemical_formula_moiety         'C45 H30 B1 N3'
_chemical_name_systematic        
phenyl[2,7,11-triphenyl-10-(phenylethynyl)-9,15,16-triazatricyclo[10.2.1.1^3,6^]hexadeca-1,3,5,7,9,11,13-heptaenato]boron
_symmetry_cell_setting           triclinic
_symmetry_space_group_name_H-M   'P -1'
_symmetry_Int_Tables_number      2
_space_group_name_Hall           '-P 1'
loop_
_symmetry_equiv_pos_site_id
_symmetry_equiv_pos_as_xyz
1 x,y,z
2 -x,-y,-z
_cell_length_a                   10.371(2)
_cell_length_b                   12.334(3)
_cell_length_c                   14.161(5)
_cell_angle_alpha                102.283(6)
_cell_angle_beta                 93.113(9)
_cell_angle_gamma                113.5907(14)
_cell_volume                     1602.24
_exptl_crystal_colour            red
_exptl_crystal_description       Prism
_cell_formula_units_Z            2
loop_
_atom_site_label
_atom_site_type_symbol
_atom_site_fract_x
_atom_site_fract_y
_atom_site_fract_z
N1 N 0.88259(14) 0.39207(11) 0.26103(11)
N2 N 0.72833(14) 0.22582(11) 0.32664(10)
N3 N 0.84031(13) 0.17931(11) 0.19105(10)
C1 C 0.79277(18) 0.43260(15) 0.41313(13)
C2 C 0.72639(18) 0.30495(15) 0.40807(13)
C3 C 0.6801(2) 0.23653(17) 0.47940(14)
H1 H 0.6649 0.2670 0.5433
C4 C 0.66161(19) 0.11900(16) 0.43854(14)
H2 H 0.6303 0.0534 0.4692
C5 C 0.69722(17) 0.11207(14) 0.34267(13)
C6 C 0.73370(16) 0.02807(14) 0.27959(12)
C7 C 0.81446(16) 0.06609(13) 0.20607(12)
C8 C 0.90443(17) 0.02415(14) 0.15173(12)
H3 H 0.9085 -0.0525 0.1461
C9 C 0.98447(17) 0.11402(15) 0.10867(13)
H4 H 1.0534 0.1105 0.0681
C10 C 0.94501(16) 0.21374(15) 0.13609(12)
C11 C 1.00684(16) 0.33859(15) 0.13180(13)
B1 B 0.76651(18) 0.25815(15) 0.23148(14)
C12 C 0.78920(18) 0.52329(15) 0.49879(13)
C13 C 0.66674(19) 0.49990(17) 0.54216(16)
H5 H 0.5851 0.4248 0.5164
C14 C 0.6623(2) 0.58440(17) 0.62222(16)
H6 H 0.5779 0.5664 0.6510
C15 C 0.7784(2) 0.69402(16) 0.66054(14)
H7 H 0.7747 0.7519 0.7154
C16 C 0.90022(19) 0.71884(16) 0.61829(13)
H8 H 0.9806 0.7949 0.6438
C17 C 0.90721(18) 0.63485(15) 0.53945(13)
H9 H 0.9930 0.6529 0.5124
C18 C 1.10788(18) 0.37444(16) 0.06179(15)
C19 C 1.0764(2) 0.3023(2) -0.03329(16)
H10 H 0.9907 0.2293 -0.0522
C20 C 1.1665(2) 0.3335(2) -0.10183(18)
H11 H 1.1423 0.2820 -0.1664
C21 C 1.2888(3) 0.4377(2) -0.0764(2)
H12 H 1.3494 0.4602 -0.1235
C22 C 1.3249(2) 0.5103(2) 0.0174(2)
H13 H 1.4111 0.5829 0.0349
C23 C 1.2363(2) 0.47899(18) 0.0880(2)
H14 H 1.2637 0.5288 0.1533
C24 C 0.63325(16) 0.24294(13) 0.15701(12)
C25 C 0.54472(17) 0.30086(15) 0.18603(14)
H15 H 0.5656 0.3517 0.2506
C26 C 0.42827(18) 0.28683(17) 0.12436(15)
H16 H 0.3709 0.3278 0.1465
C27 C 0.39569(18) 0.21307(17) 0.03053(16)
H17 H 0.3150 0.2023 -0.0120
C28 C 0.48094(19) 0.15456(17) -0.00185(15)
H18 H 0.4596 0.1044 -0.0667
C29 C 0.59787(18) 0.16998(15) 0.06152(13)
H19 H 0.6554 0.1294 0.0389
C30 C 0.9791(15) 0.4309(10) 0.2037(9)
C31 C 0.8783(19) 0.4731(18) 0.3450(14)
H20 H 0.9356 0.5582 0.3555
C32 C 1.0551(2) 0.5577(2) 0.21758(19)
C33 C 1.1137(2) 0.6679(2) 0.23315(19)
C34 C 1.1862(4) 0.7985(4) 0.2482(4)
C35 C 1.1827(5) 0.8765(4) 0.3339(4)
H21 H 1.1318 0.8431 0.3822
C36 C 1.2527(6) 1.0023(4) 0.3494(4)
H22 H 1.2479 1.0554 0.4071
C37 C 1.3312(10) 1.0502(8) 0.2783(5)
H23 H 1.3832 1.1362 0.2892
C38 C 1.3326(4) 0.9724(4) 0.1927(4)
H24 H 1.3822 1.0058 0.1439
C39 C 1.2642(3) 0.8492(3) 0.1772(3)
H25 H 1.2686 0.7970 0.1188
C40 C 0.7087(3) -0.09099(18) 0.30255(19)
C41 C 0.5706(2) -0.1803(2) 0.2925(3)
H26 H 0.4924 -0.1677 0.2675
C42 C 0.5471(2) -0.2881(2) 0.3191(3)
H27 H 0.4528 -0.3491 0.3123
C43 C 0.6617(3) -0.3065(2) 0.35575(19)
H28 H 0.6456 -0.3802 0.3739
C44 C 0.7997(3) -0.2173(3) 0.3658(3)
H29 H 0.8780 -0.2299 0.3908
C45 C 0.8232(2) -0.1095(3) 0.3392(3)
H30 H 0.9176 -0.0484 0.3460
C46? C 0.981(3) 0.413(3) 0.187(2)
H31? H 1.0291 0.4954 0.1824
C47? C 0.864(4) 0.467(4) 0.332(3)
C48? C 0.9750(6) 0.6015(5) 0.3316(4)
C49? C 1.0530(6) 0.7015(5) 0.3239(4)
C50? C 1.1452(11) 0.8212(9) 0.3149(10)
C51? C 1.1631(8) 0.9263(7) 0.3902(7)
H32? H 1.1109 0.9166 0.4432
C52? C 1.2565(12) 1.0423(10) 0.3858(9)
H33? H 1.2730 1.1130 0.4363
C53? C 1.320(2) 1.050(2) 0.3093(13)
H34? H 1.3829 1.1302 0.3070
C54? C 1.3092(9) 0.9564(10) 0.2310(8)
H35? H 1.3588 0.9726 0.1776
C55? C 1.2230(12) 0.8390(10) 0.2338(12)
H36? H 1.2148 0.7710 0.1833
C56? C 0.7092(8) -0.0905(5) 0.3047(5)
C57? C 0.6017(10) -0.2000(6) 0.2492(8)
H37? H 0.5424 -0.2000 0.1956
C58? C 0.5808(10) -0.3093(6) 0.2721(9)
H38? H 0.5073 -0.3841 0.2341
C59? C 0.6675(9) -0.3093(7) 0.3505(6)
H39? H 0.6533 -0.3840 0.3661
C60? C 0.7751(14) -0.1998(8) 0.4060(6)
H40? H 0.8343 -0.1998 0.4596
C61? C 0.7959(13) -0.0905(6) 0.3831(8)
H41? H 0.8694 -0.0157 0.4210
loop_
_geom_bond_atom_site_label_1
_geom_bond_atom_site_label_2
_geom_bond_site_symmetry_1
_geom_bond_site_symmetry_2
N1 B1 1_555 1_555
N2 C2 1_555 1_555
N3 C7 1_555 1_555
C1 C2 1_555 1_555
C2 C3 1_555 1_555
C3 H1 1_555 1_555
C4 C3 1_555 1_555
H2 C4 1_555 1_555
C5 N2 1_555 1_555
C6 C5 1_555 1_555
C7 C6 1_555 1_555
C8 C7 1_555 1_555
H3 C8 1_555 1_555
C9 C8 1_555 1_555
H4 C9 1_555 1_555
C10 N3 1_555 1_555
C11 C10 1_555 1_555
B1 N2 1_555 1_555
C12 C1 1_555 1_555
C13 C12 1_555 1_555
H5 C13 1_555 1_555
C14 C13 1_555 1_555
H6 C14 1_555 1_555
C15 C14 1_555 1_555
H7 C15 1_555 1_555
C16 C15 1_555 1_555
H8 C16 1_555 1_555
C17 C12 1_555 1_555
H9 C17 1_555 1_555
C18 C11 1_555 1_555
C19 C18 1_555 1_555
H10 C19 1_555 1_555
C20 C19 1_555 1_555
H11 C20 1_555 1_555
C21 C20 1_555 1_555
H12 C21 1_555 1_555
C22 C21 1_555 1_555
H13 C22 1_555 1_555
C23 C18 1_555 1_555
H14 C23 1_555 1_555
C24 B1 1_555 1_555
C25 C24 1_555 1_555
H15 C25 1_555 1_555
C26 C25 1_555 1_555
H16 C26 1_555 1_555
C27 C26 1_555 1_555
H17 C27 1_555 1_555
C28 C27 1_555 1_555
H18 C28 1_555 1_555
C29 C24 1_555 1_555
H19 C29 1_555 1_555
C30 N1 1_555 1_555
C31 N1 1_555 1_555
H20 C31 1_555 1_555
C32 C30 1_555 1_555
C33 C32 1_555 1_555
C34 C33 1_555 1_555
C35 C34 1_555 1_555
H21 C35 1_555 1_555
C36 C35 1_555 1_555
H22 C36 1_555 1_555
C37 C36 1_555 1_555
H23 C37 1_555 1_555
C38 C37 1_555 1_555
H24 C38 1_555 1_555
C39 C34 1_555 1_555
H25 C39 1_555 1_555
C40 C6 1_555 1_555
C41 C40 1_555 1_555
H26 C41 1_555 1_555
C42 C41 1_555 1_555
H27 C42 1_555 1_555
C43 C42 1_555 1_555
H28 C43 1_555 1_555
C44 C43 1_555 1_555
H29 C44 1_555 1_555
C45 C40 1_555 1_555
H30 C45 1_555 1_555
N3 B1 1_555 1_555
C1 C31 1_555 1_555
C4 C5 1_555 1_555
C9 C10 1_555 1_555
C11 C30 1_555 1_555
C16 C17 1_555 1_555
C22 C23 1_555 1_555
C28 C29 1_555 1_555
C38 C39 1_555 1_555
C44 C45 1_555 1_555

#END
