
#######################################################################
#
#                 Cambridge Crystallographic Data Centre
#                                CCDC 
#
#######################################################################
#
# If this CIF has been generated from an entry in the Cambridge 
# Structural Database, then it will include bibliographic, chemical, 
# crystal, experimental, refinement or atomic coordinate data resulting 
# from the CCDC's data processing and validation procedures.
#
#######################################################################

data_YAQGIJ
_chemical_formula_moiety         'C17 H14 I1 N1 O2,C1 H1 Cl3'
_chemical_name_systematic        
'3-(2-(4-iodophenyl)-2-oxoethyl)-3-methylisoindolin-1-one chloroform solvate'
_symmetry_cell_setting           monoclinic
_symmetry_space_group_name_H-M   'C 2/c'
_symmetry_Int_Tables_number      15
_space_group_name_Hall           '-C 2yn'
loop_
_symmetry_equiv_pos_site_id
_symmetry_equiv_pos_as_xyz
1 x,y,z
2 -x,y,1/2-z
3 1/2+x,1/2+y,z
4 1/2-x,1/2+y,1/2-z
5 -x,-y,-z
6 x,-y,1/2+z
7 1/2-x,1/2-y,-z
8 1/2+x,1/2-y,1/2+z
_cell_length_a                   17.0239(5)
_cell_length_b                   9.3470(3)
_cell_length_c                   25.5660(6)
_cell_angle_alpha                90
_cell_angle_beta                 105.901(2)
_cell_angle_gamma                90
_cell_volume                     3912.46
_exptl_crystal_colour            colorless
_exptl_crystal_description       block
_cell_formula_units_Z            8
loop_
_atom_site_label
_atom_site_type_symbol
_atom_site_fract_x
_atom_site_fract_y
_atom_site_fract_z
I1 I 0.66638(2) -0.11703(2) 0.55023(2)
O1 O 0.55313(12) 0.3016(3) 0.31307(9)
O2 O 0.62052(13) 0.3123(2) 0.13653(8)
N1 N 0.62307(15) 0.3669(2) 0.22498(10)
H1 H 0.5728 0.3406 0.2231
C1 C 0.75471(17) 0.4470(3) 0.25647(11)
C2 C 0.62262(17) 0.2766(3) 0.34105(11)
C3 C 0.74114(17) 0.4042(3) 0.20288(12)
C4 C 0.69591(17) 0.3214(3) 0.32275(11)
H2 H 0.7213 0.2346 0.3123
H3 H 0.7363 0.3654 0.3540
C5 C 0.65528(18) 0.3548(3) 0.18262(12)
C6 C 0.63631(18) 0.1929(3) 0.39240(11)
C7 C 0.67850(17) 0.4277(3) 0.27465(11)
C8 C 0.72383(19) 0.0703(4) 0.46994(12)
H4 H 0.7770 0.0476 0.4919
C9 C 0.71336(18) 0.1570(4) 0.42433(13)
H5 H 0.7600 0.1923 0.4149
C10 C 0.8025(2) 0.4065(3) 0.17617(14)
H6 H 0.7923 0.3767 0.1394
C11 C 0.83107(18) 0.4977(3) 0.28550(13)
H7 H 0.8409 0.5291 0.3221
C12 C 0.89283(19) 0.5010(3) 0.25915(14)
H8 H 0.9453 0.5358 0.2781
C13 C 0.65543(19) 0.0176(3) 0.48273(11)
C14 C 0.56770(19) 0.1416(4) 0.40683(13)
H9 H 0.5145 0.1677 0.3858
C15 C 0.6458(2) 0.5691(3) 0.28949(12)
H10 H 0.6386 0.6362 0.2591
H11 H 0.6846 0.6090 0.3218
H12 H 0.5931 0.5530 0.2971
C16 C 0.87904(19) 0.4542(3) 0.20561(14)
H13 H 0.9227 0.4549 0.1891
C17 C 0.5772(2) 0.0531(4) 0.45155(13)
H14 H 0.5307 0.0168 0.4609
Cl1 Cl 0.41474(7) 0.60147(13) 0.07616(5)
Cl2 Cl 0.54666(7) 0.67053(14) 0.02904(5)
Cl3 Cl 0.56931(9) 0.70316(14) 0.14377(5)
C18 C 0.5213(3) 0.6003(4) 0.08647(16)
H15 H 0.5415 0.4995 0.0925
loop_
_geom_bond_atom_site_label_1
_geom_bond_atom_site_label_2
_geom_bond_site_symmetry_1
_geom_bond_site_symmetry_2
I1 C13 1_555 1_555
O1 C2 1_555 1_555
O2 C5 1_555 1_555
N1 H1 1_555 1_555
C1 C3 1_555 1_555
C2 C4 1_555 1_555
C3 C5 1_555 1_555
C4 H2 1_555 1_555
H3 C4 1_555 1_555
C5 N1 1_555 1_555
C6 C2 1_555 1_555
C7 N1 1_555 1_555
C8 H4 1_555 1_555
C9 C6 1_555 1_555
H5 C9 1_555 1_555
C10 C3 1_555 1_555
H6 C10 1_555 1_555
C11 C1 1_555 1_555
H7 C11 1_555 1_555
C12 C11 1_555 1_555
H8 C12 1_555 1_555
C13 C8 1_555 1_555
C14 C6 1_555 1_555
H9 C14 1_555 1_555
C15 C7 1_555 1_555
H10 C15 1_555 1_555
H11 C15 1_555 1_555
H12 C15 1_555 1_555
C16 C10 1_555 1_555
H13 C16 1_555 1_555
C17 C13 1_555 1_555
H14 C17 1_555 1_555
Cl1 C18 1_555 1_555
Cl2 C18 1_555 1_555
Cl3 C18 1_555 1_555
C18 H15 1_555 1_555
C1 C7 1_555 1_555
C4 C7 1_555 1_555
C8 C9 1_555 1_555
C12 C16 1_555 1_555
C14 C17 1_555 1_555

#END
