
#######################################################################
#
#                 Cambridge Crystallographic Data Centre
#                                CCDC 
#
#######################################################################
#
# If this CIF has been generated from an entry in the Cambridge 
# Structural Database, then it will include bibliographic, chemical, 
# crystal, experimental, refinement or atomic coordinate data resulting 
# from the CCDC's data processing and validation procedures.
#
#######################################################################

data_YAQVEU
_chemical_formula_moiety         'C36 H12 Cl6 N12 O6,C70'
_chemical_name_systematic        
'45,46,49,50,53,54-hexachloro-2,11,16,25,30,39-hexaoxa-13,14,27,28,41,42,43,44,47,48,51,52-dodecaazadecacyclo[38.2.2.2^12,15^.2^26,29^.1^3,7^.1^6,10^.1^17,21^.1^20,24^.1^31,35^.1^34,38^]tetrapentaconta-1(42),3(54),4,6(53),7,9,12,14,17(50),18,20(49),21,23,26,28,31(46),32,34,36,38(45),40,43,47,51-tetracosaene C70fullerene'
_symmetry_cell_setting           monoclinic
_symmetry_space_group_name_H-M   'P 21/c'
_symmetry_Int_Tables_number      14
_space_group_name_Hall           '-P 2ybc'
loop_
_symmetry_equiv_pos_site_id
_symmetry_equiv_pos_as_xyz
1 x,y,z
2 -x,1/2+y,1/2-z
3 -x,-y,-z
4 x,1/2-y,1/2+z
_cell_length_a                   13.544(3)
_cell_length_b                   23.908(5)
_cell_length_c                   27.497(5)
_cell_angle_alpha                90
_cell_angle_beta                 90.665(4)
_cell_angle_gamma                90
_cell_volume                     8903.2
_exptl_crystal_colour            black
_exptl_crystal_description       block
_cell_formula_units_Z            4
loop_
_atom_site_label
_atom_site_type_symbol
_atom_site_fract_x
_atom_site_fract_y
_atom_site_fract_z
C37 C 0.3814(10) 0.6348(6) 0.6939(5)
C38 C 0.3188(12) 0.5856(7) 0.6949(6)
C39 C 0.2179(12) 0.5903(6) 0.6804(5)
C40 C 0.1669(13) 0.6487(8) 0.6666(5)
C41 C 0.2170(13) 0.6913(8) 0.6631(5)
C42 C 0.3285(9) 0.6848(6) 0.6743(4)
C43 C 0.3553(10) 0.7367(5) 0.6965(4)
C44 C 0.4176(11) 0.7364(7) 0.7347(6)
C45 C 0.4570(11) 0.6966(8) 0.7485(6)
C46 C 0.4537(10) 0.6459(7) 0.7348(6)
C47 C 0.4572(9) 0.7158(7) 0.8173(5)
C48 C 0.4620(14) 0.6110(9) 0.7738(7)
C49 C 0.3855(13) 0.5516(7) 0.8164(7)
C50 C 0.3317(14) 0.5585(7) 0.8945(6)
C51 C 0.3822(14) 0.5611(8) 0.8594(9)
C52 C 0.4674(11) 0.6449(8) 0.8267(7)
C53 C 0.4382(11) 0.6334(8) 0.8716(7)
C54 C 0.4048(11) 0.6860(7) 0.8975(5)
C55 C 0.4030(11) 0.7352(7) 0.8711(6)
C56 C 0.3317(14) 0.6746(9) 0.9325(6)
C57 C 0.3647(17) 0.6076(9) 0.9187(7)
C58 C 0.2495(14) 0.5346(6) 0.8926(6)
C59 C 0.2101(13) 0.5129(5) 0.8480(6)
C60 C 0.2892(11) 0.5182(5) 0.8085(5)
C61 C 0.1158(14) 0.5177(7) 0.8344(7)
C62 C 0.1653(15) 0.5592(7) 0.9220(6)
C63 C 0.0575(15) 0.5436(8) 0.8689(8)
C64 C 0.0864(13) 0.5293(6) 0.7874(7)
C65 C -0.0169(13) 0.5762(8) 0.8391(7)
C66 C 0.0040(14) 0.5652(9) 0.7872(7)
C67 C 0.1389(13) 0.5656(7) 0.7091(6)
C68 C 0.0548(11) 0.5973(6) 0.7113(5)
C69 C 0.0703(10) 0.6499(6) 0.6854(5)
C70 C 0.0288(12) 0.6964(7) 0.7060(6)
C71 C -0.0494(13) 0.6567(9) 0.7698(7)
C72 C -0.0233(13) 0.6965(8) 0.7465(7)
C73 C -0.0419(15) 0.7083(9) 0.8432(8)
C74 C -0.0496(14) 0.6301(9) 0.8554(8)
C75 C -0.0608(14) 0.6648(10) 0.8229(8)
C76 C -0.0109(11) 0.6041(7) 0.7594(6)
C77 C -0.0006(13) 0.7537(8) 0.7945(7)
C78 C -0.0125(16) 0.7107(9) 0.8866(9)
C79 C 0.2744(14) 0.7148(7) 0.9384(5)
C80 C 0.0366(16) 0.7760(8) 0.8368(8)
C81 C 0.1581(15) 0.7815(7) 0.8955(7)
C82 C 0.1101(15) 0.7957(7) 0.8518(7)
C83 C 0.1837(13) 0.8139(5) 0.8172(6)
C84 C 0.3200(13) 0.7762(6) 0.8707(6)
C85 C 0.2838(13) 0.8066(5) 0.8273(6)
C86 C 0.1654(11) 0.8090(5) 0.7660(5)
C87 C 0.0715(12) 0.7792(6) 0.7479(6)
C88 C 0.2526(11) 0.8025(5) 0.7397(5)
C89 C 0.2615(12) 0.7709(6) 0.7007(5)
C90 C 0.0794(13) 0.7482(7) 0.7068(6)
C91 C 0.3941(15) 0.7760(8) 0.7804(7)
C92 C 0.3326(15) 0.7993(7) 0.7736(7)
C93 C 0.0029(11) 0.6372(7) 0.9107(6)
C94 C 0.1738(13) 0.7458(7) 0.6832(5)
C95 C 0.2537(14) 0.7741(6) 0.9006(6)
C96 C 0.0507(19) 0.7250(9) 0.9133(8)
C97 C 0.1096(17) 0.7427(9) 0.9246(7)
C98 C 0.1672(14) 0.7025(8) 0.9491(5)
C99 C 0.3011(16) 0.6242(9) 0.9410(6)
C100 C 0.2023(13) 0.6096(7) 0.9499(5)
C101 C 0.1228(12) 0.6492(7) 0.9510(4)
C102 C 0.1531(12) 0.5320(5) 0.7474(6)
C103 C 0.2569(12) 0.5239(5) 0.7607(6)
C104 C 0.3507(12) 0.5562(6) 0.7348(6)
C105 C 0.4123(13) 0.5732(7) 0.7649(7)
C106 C 0.0759(15) 0.5641(8) 0.9072(7)
Cl1 Cl 0.7705(3) 0.61867(14) 0.61760(11)
Cl2 Cl 0.6758(2) 0.55844(14) 0.85131(11)
Cl3 Cl 0.3626(2) 0.31581(13) 0.68435(11)
Cl4 Cl -0.0711(2) 0.45067(12) 0.70233(17)
Cl5 Cl 0.4687(3) 0.69570(17) 0.51039(12)
Cl6 Cl -0.0026(3) 0.73545(14) 0.57261(13)
O1 O 0.6667(5) 0.4502(3) 0.8033(3)
O2 O 0.3462(6) 0.3353(3) 0.7879(3)
O3 O -0.0503(6) 0.4353(3) 0.6009(5)
O4 O -0.0069(5) 0.6299(3) 0.5253(2)
O5 O 0.4765(6) 0.8029(3) 0.5560(2)
O6 O 0.7649(5) 0.7281(3) 0.6635(3)
N1 N 0.5130(5) 0.4442(3) 0.7681(3)
N2 N 0.4279(6) 0.4137(3) 0.7638(3)
N3 N 0.4893(7) 0.3515(3) 0.8246(3)
N4 N 0.5676(7) 0.3792(3) 0.8293(3)
N5 N -0.1039(7) 0.5018(3) 0.5502(4)
N6 N -0.0901(7) 0.5513(4) 0.5302(4)
N7 N 0.0349(6) 0.5170(4) 0.6024(4)
N8 N 0.0458(7) 0.5677(3) 0.5829(3)
N9 N 0.5288(5) 0.7371(3) 0.6133(2)
N10 N 0.6023(5) 0.7172(3) 0.6397(2)
N11 N 0.7070(5) 0.7875(3) 0.6057(3)
N12 N 0.6346(6) 0.8061(3) 0.5801(3)
C1 C 0.7467(7) 0.6832(5) 0.6947(5)
C2 C 0.7242(6) 0.7032(5) 0.7475(3)
H1 H 0.7174 0.7396 0.7589
C3 C 0.7170(7) 0.6535(6) 0.7732(5)
H2 H 0.7134 0.6585 0.8066
C4 C 0.7139(6) 0.5954(4) 0.7585(4)
C5 C 0.6940(7) 0.5496(5) 0.7897(4)
C6 C 0.6856(6) 0.4960(4) 0.7688(5)
C7 C 0.7029(9) 0.4745(12) 0.7216(5)
H3 H 0.7025 0.4374 0.7116
C8 C 0.7235(8) 0.5295(5) 0.6893(4)
H4 H 0.7315 0.5255 0.6559
C9 C 0.7296(6) 0.5821(5) 0.7094(4)
C10 C 0.7486(6) 0.6306(4) 0.6763(4)
C11 C 0.5806(7) 0.4245(4) 0.7995(3)
C12 C 0.4240(6) 0.3671(3) 0.7910(3)
C13 C 0.2621(8) 0.3558(4) 0.7592(3)
C14 C 0.1840(7) 0.3781(4) 0.7856(4)
H5 H 0.1841 0.3805 0.8193
C15 C 0.1062(7) 0.3963(4) 0.7563(4)
H6 H 0.0520 0.4122 0.7714
C16 C 0.1039(6) 0.3922(4) 0.7059(3)
C17 C 0.0265(8) 0.4160(5) 0.6777(4)
C18 C 0.0302(8) 0.4124(5) 0.6279(4)
C19 C 0.0997(7) 0.3859(4) 0.5999(4)
H7 H 0.0977 0.3825 0.5662
C20 C 0.1751(9) 0.3646(5) 0.6313(4)
H8 H 0.2265 0.3461 0.6159
C21 C 0.1830(6) 0.3674(4) 0.6821(3)
C22 C 0.2635(7) 0.3475(4) 0.7096(3)
C23 C -0.0371(8) 0.4865(4) 0.5834(4)
C24 C -0.0147(7) 0.5797(4) 0.5461(4)
C25 C 0.0993(9) 0.6536(4) 0.5266(4)
C26 C 0.2634(8) 0.6480(4) 0.5102(4)
H9 H 0.3203 0.6299 0.5000
C27 C 0.2721(6) 0.7016(3) 0.5312(3)
C28 C 0.1942(6) 0.7319(3) 0.5502(3)
C29 C 0.0992(7) 0.7061(4) 0.5481(3)
C30 C 0.2087(8) 0.7850(4) 0.5708(4)
H10 H 0.1522 0.8020 0.5827
C31 C 0.3692(9) 0.7793(4) 0.5577(4)
C32 C 0.3664(8) 0.7269(4) 0.5357(4)
C33 C 0.5499(7) 0.7813(4) 0.5841(3)
C34 C 0.6892(6) 0.7437(4) 0.6363(3)
C35 C 0.2964(6) 0.8163(5) 0.5760(3)
H11 H 0.3045 0.8523 0.5883
C36 C 0.1722(7) 0.6209(5) 0.5042(4)
H12 H 0.1617 0.5871 0.4882
loop_
_geom_bond_atom_site_label_1
_geom_bond_atom_site_label_2
_geom_bond_site_symmetry_1
_geom_bond_site_symmetry_2
Cl1 C10 1_555 1_555
Cl2 C5 1_555 1_555
Cl3 C22 1_555 1_555
Cl4 C17 1_555 1_555
Cl5 C32 1_555 1_555
Cl6 C29 1_555 1_555
O1 C6 1_555 1_555
O2 C12 1_555 1_555
O3 C18 1_555 1_555
O4 C24 1_555 1_555
O5 C31 1_555 1_555
O6 C1 1_555 1_555
N1 N2 1_555 1_555
N2 C12 1_555 1_555
N3 N4 1_555 1_555
N4 C11 1_555 1_555
N5 N6 1_555 1_555
N6 C24 1_555 1_555
N7 N8 1_555 1_555
N8 C24 1_555 1_555
N9 N10 1_555 1_555
N10 C34 1_555 1_555
N11 N12 1_555 1_555
N12 C33 1_555 1_555
C1 C2 1_555 1_555
C2 H1 1_555 1_555
C3 C2 1_555 1_555
H2 C3 1_555 1_555
C4 C3 1_555 1_555
C5 C4 1_555 1_555
C6 C5 1_555 1_555
C7 C6 1_555 1_555
H3 C7 1_555 1_555
C8 C7 1_555 1_555
H4 C8 1_555 1_555
C9 C4 1_555 1_555
C10 C1 1_555 1_555
C11 O1 1_555 1_555
C12 N3 1_555 1_555
C13 O2 1_555 1_555
C14 C13 1_555 1_555
H5 C14 1_555 1_555
C15 C14 1_555 1_555
H6 C15 1_555 1_555
C16 C15 1_555 1_555
C17 C16 1_555 1_555
C18 C17 1_555 1_555
C19 C18 1_555 1_555
H7 C19 1_555 1_555
C20 C19 1_555 1_555
H8 C20 1_555 1_555
C21 C16 1_555 1_555
C22 C13 1_555 1_555
C23 O3 1_555 1_555
C25 O4 1_555 1_555
C26 H9 1_555 1_555
C27 C26 1_555 1_555
C28 C27 1_555 1_555
C29 C25 1_555 1_555
C30 C28 1_555 1_555
H10 C30 1_555 1_555
C31 C32 1_555 1_555
C32 C27 1_555 1_555
C33 O5 1_555 1_555
C34 O6 1_555 1_555
C35 C30 1_555 1_555
H11 C35 1_555 1_555
C36 C25 1_555 1_555
H12 C36 1_555 1_555
C37 C38 1_555 1_555
C38 C39 1_555 1_555
C39 C40 1_555 1_555
C40 C41 1_555 1_555
C41 C42 1_555 1_555
C42 C37 1_555 1_555
C43 C42 1_555 1_555
C44 C43 1_555 1_555
C45 C44 1_555 1_555
C46 C37 1_555 1_555
C47 C52 1_555 1_555
C48 C46 1_555 1_555
C49 C51 1_555 1_555
C50 C51 1_555 1_555
C52 C48 1_555 1_555
C53 C52 1_555 1_555
C54 C53 1_555 1_555
C55 C47 1_555 1_555
C56 C54 1_555 1_555
C57 C50 1_555 1_555
C58 C50 1_555 1_555
C59 C58 1_555 1_555
C60 C49 1_555 1_555
C61 C59 1_555 1_555
C62 C58 1_555 1_555
C63 C61 1_555 1_555
C64 C61 1_555 1_555
C65 C63 1_555 1_555
C66 C64 1_555 1_555
C67 C39 1_555 1_555
C68 C67 1_555 1_555
C69 C40 1_555 1_555
C70 C69 1_555 1_555
C71 C72 1_555 1_555
C72 C70 1_555 1_555
C73 C75 1_555 1_555
C74 C65 1_555 1_555
C75 C71 1_555 1_555
C76 C66 1_555 1_555
C77 C80 1_555 1_555
C78 C73 1_555 1_555
C79 C56 1_555 1_555
C80 C82 1_555 1_555
C81 C82 1_555 1_555
C82 C83 1_555 1_555
C83 C85 1_555 1_555
C84 C55 1_555 1_555
C85 C84 1_555 1_555
C86 C83 1_555 1_555
C87 C77 1_555 1_555
C88 C86 1_555 1_555
C89 C43 1_555 1_555
C90 C70 1_555 1_555
C91 C44 1_555 1_555
C92 C85 1_555 1_555
C93 C74 1_555 1_555
C94 C41 1_555 1_555
C95 C79 1_555 1_555
C96 C78 1_555 1_555
C97 C81 1_555 1_555
C98 C79 1_555 1_555
C99 C56 1_555 1_555
C100 C62 1_555 1_555
C101 C98 1_555 1_555
C102 C64 1_555 1_555
C103 C60 1_555 1_555
C104 C38 1_555 1_555
C105 C48 1_555 1_555
C106 C62 1_555 1_555
N1 C11 1_555 1_555
N5 C23 1_555 1_555
N7 C23 1_555 1_555
N9 C33 1_555 1_555
N11 C34 1_555 1_555
C8 C9 1_555 1_555
C9 C10 1_555 1_555
C20 C21 1_555 1_555
C21 C22 1_555 1_555
C26 C36 1_555 1_555
C28 C29 1_555 1_555
C31 C35 1_555 1_555
C45 C46 1_555 1_555
C49 C105 1_555 1_555
C53 C57 1_555 1_555
C54 C55 1_555 1_555
C56 C57 1_555 1_555
C57 C99 1_555 1_555
C59 C60 1_555 1_555
C63 C106 1_555 1_555
C65 C66 1_555 1_555
C67 C102 1_555 1_555
C68 C69 1_555 1_555
C68 C76 1_555 1_555
C71 C76 1_555 1_555
C74 C75 1_555 1_555
C81 C95 1_555 1_555
C84 C95 1_555 1_555
C86 C87 1_555 1_555
C87 C90 1_555 1_555
C88 C89 1_555 1_555
C88 C92 1_555 1_555
C89 C94 1_555 1_555
C90 C94 1_555 1_555
C91 C92 1_555 1_555
C96 C97 1_555 1_555
C97 C98 1_555 1_555
C99 C100 1_555 1_555
C100 C101 1_555 1_555
C102 C103 1_555 1_555
C103 C104 1_555 1_555
C104 C105 1_555 1_555

#END
