
#######################################################################
#
#                 Cambridge Crystallographic Data Centre
#                                CCDC 
#
#######################################################################
#
# If this CIF has been generated from an entry in the Cambridge 
# Structural Database, then it will include bibliographic, chemical, 
# crystal, experimental, refinement or atomic coordinate data resulting 
# from the CCDC's data processing and validation procedures.
#
#######################################################################

data_YAQVUK
_chemical_formula_moiety         'C11 H13 N1 S2'
_chemical_name_systematic        
7-(4-methylphenyl)-2,5-dithia-7-azabicyclo[2.2.1]heptane
_symmetry_cell_setting           monoclinic
_symmetry_space_group_name_H-M   'P 21'
_symmetry_Int_Tables_number      4
_space_group_name_Hall           'P 2yb'
loop_
_symmetry_equiv_pos_site_id
_symmetry_equiv_pos_as_xyz
1 x,y,z
2 -x,1/2+y,-z
_cell_length_a                   9.9321(16)
_cell_length_b                   22.705(4)
_cell_length_c                   19.824(3)
_cell_angle_alpha                90
_cell_angle_beta                 98.538(3)
_cell_angle_gamma                90
_cell_volume                     4420.93
_exptl_crystal_colour            colorless
_exptl_crystal_description       Block
_cell_formula_units_Z            16
loop_
_atom_site_label
_atom_site_type_symbol
_atom_site_fract_x
_atom_site_fract_y
_atom_site_fract_z
C1 C 0.9888(4) 0.92346(17) 0.02387(18)
C2 C 1.0982(4) 0.95702(19) 0.0111(2)
H1 H 1.1836 0.9398 0.0129
C3 C 1.0814(4) 1.01597(19) -0.0044(2)
H2 H 1.1568 1.0377 -0.0123
C4 C 0.9584(4) 1.04374(19) -0.0086(2)
C5 C 0.8500(5) 1.0095(2) 0.0035(2)
H3 H 0.7645 1.0267 0.0011
C6 C 0.8647(4) 0.9509(2) 0.0192(2)
H4 H 0.7889 0.9292 0.0267
C7 C 0.9405(5) 1.10843(18) -0.0254(2)
H5 H 1.0272 1.1253 -0.0303
H6 H 0.9039 1.1281 0.0107
H7 H 0.8792 1.1130 -0.0673
C8 C 1.1250(4) 0.83039(18) 0.0369(2)
H8 H 1.2097 0.8524 0.0500
C9 C 0.9293(4) 0.77326(19) 0.0819(2)
H9 H 0.8855 0.7367 0.0656
H10 H 0.8990 0.7842 0.1245
C10 C 0.8995(4) 0.82180(18) 0.0292(2)
H11 H 0.8087 0.8388 0.0287
C11 C 1.1074(5) 0.8121(2) -0.0362(2)
H12 H 1.1630 0.7780 -0.0424
H13 H 1.1314 0.8439 -0.0649
N1 N 1.0062(3) 0.86436(14) 0.04817(15)
S1 S 1.11356(12) 0.76650(5) 0.09231(6)
S2 S 0.92598(15) 0.79432(6) -0.05617(6)
C12 C 0.9522(4) 0.55095(18) 0.25606(19)
C13 C 0.9729(4) 0.58514(19) 0.2014(2)
H14 H 0.9631 0.5687 0.1579
C14 C 1.0081(5) 0.6434(2) 0.2103(2)
H15 H 1.0219 0.6653 0.1723
C15 C 1.0240(4) 0.6712(2) 0.2727(2)
C16 C 1.0031(5) 0.6360(2) 0.3270(2)
H16 H 1.0124 0.6523 0.3705
C17 C 0.9687(5) 0.5773(2) 0.3185(2)
H17 H 0.9564 0.5551 0.3565
C18 C 1.0604(5) 0.73509(19) 0.2811(3)
H18 H 1.0880 0.7496 0.2398
H19 H 1.1338 0.7397 0.3181
H20 H 0.9827 0.7569 0.2908
C19 C 0.9381(4) 0.44900(19) 0.2997(2)
H21 H 0.9406 0.4655 0.3455
C20 C 0.8331(5) 0.4017(2) 0.2851(2)
H22 H 0.7487 0.4131 0.3007
H23 H 0.8649 0.3650 0.3070
C21 C 0.9204(4) 0.45884(18) 0.1875(2)
H24 H 0.8937 0.4813 0.1454
C22 C 1.0675(5) 0.4398(2) 0.1954(3)
H25 H 1.1251 0.4715 0.1834
H26 H 1.0786 0.4058 0.1670
N2 N 0.9012(3) 0.49254(14) 0.24757(15)
S3 S 0.81019(12) 0.39474(5) 0.19275(6)
S4 S 1.10771(14) 0.42132(7) 0.28529(8)
C23 C 0.5191(4) 0.68039(19) 0.23251(19)
C24 C 0.6451(4) 0.7027(2) 0.2580(2)
H27 H 0.7210 0.6782 0.2631
C25 C 0.6596(5) 0.7613(2) 0.2760(3)
H28 H 0.7465 0.7755 0.2918
C26 C 0.5533(4) 0.7992(2) 0.2719(2)
C27 C 0.4295(5) 0.7760(2) 0.2480(3)
H29 H 0.3537 0.8004 0.2444
C28 C 0.4108(4) 0.7178(2) 0.2287(2)
H30 H 0.3237 0.7041 0.2129
C29 C 0.5729(5) 0.8631(2) 0.2908(2)
H31 H 0.6296 0.8663 0.3343
H32 H 0.4860 0.8808 0.2933
H33 H 0.6156 0.8830 0.2568
C30 C 0.6006(4) 0.57660(19) 0.2270(2)
H34 H 0.6942 0.5914 0.2316
C31 C 0.5750(5) 0.5292(2) 0.1739(2)
H35 H 0.6110 0.4916 0.1917
H36 H 0.6157 0.5391 0.1338
C32 C 0.3777(4) 0.5903(2) 0.2103(2)
H37 H 0.2969 0.6142 0.1947
C33 C 0.3810(5) 0.5709(2) 0.2832(3)
H38 H 0.3204 0.5379 0.2863
H39 H 0.3556 0.6029 0.3112
N3 N 0.5021(3) 0.62229(15) 0.20492(16)
S5 S 0.38943(14) 0.52697(6) 0.15410(7)
S6 S 0.55793(16) 0.54974(7) 0.30904(7)
C34 C 0.5297(4) 0.30669(18) 0.4853(2)
C35 C 0.4832(5) 0.3294(2) 0.4218(2)
H40 H 0.4762 0.3048 0.3839
C36 C 0.4465(5) 0.3878(2) 0.4129(2)
H41 H 0.4178 0.4016 0.3690
C37 C 0.4508(4) 0.4262(2) 0.4664(2)
C38 C 0.4939(6) 0.4029(2) 0.5294(2)
H42 H 0.4974 0.4272 0.5674
C39 C 0.5323(5) 0.3451(2) 0.5392(2)
H43 H 0.5608 0.3316 0.5833
C40 C 0.4150(5) 0.4901(2) 0.4571(3)
H44 H 0.3929 0.5057 0.4991
H45 H 0.3381 0.4942 0.4219
H46 H 0.4912 0.5112 0.4444
C41 C 0.5631(5) 0.2165(2) 0.5564(2)
H47 H 0.5840 0.2401 0.5980
C42 C 0.4157(5) 0.1955(2) 0.5450(3)
H48 H 0.3545 0.2270 0.5537
H49 H 0.4032 0.1624 0.5743
C43 C 0.5541(4) 0.20401(19) 0.4448(2)
H50 H 0.5549 0.2191 0.3985
C44 C 0.6604(4) 0.1575(2) 0.4637(3)
H51 H 0.7452 0.1682 0.4481
H52 H 0.6302 0.1198 0.4440
N4 N 0.5842(3) 0.24942(15) 0.49578(17)
S7 S 0.38614(12) 0.17395(7) 0.45606(8)
S8 S 0.68084(15) 0.15470(6) 0.55524(8)
C45 C 0.0322(4) 0.05118(18) 0.24421(19)
C46 C 0.0099(6) 0.0768(2) 0.1809(2)
H53 H 0.0186 0.0542 0.1427
C47 C -0.0250(6) 0.1356(2) 0.1726(2)
H54 H -0.0375 0.1516 0.1289
C48 C -0.0419(4) 0.17078(19) 0.2267(2)
C49 C -0.0210(5) 0.1447(2) 0.2893(2)
H55 H -0.0308 0.1672 0.3275
C50 C 0.0141(5) 0.0860(2) 0.2979(2)
H56 H 0.0257 0.0699 0.3415
C51 C -0.0757(5) 0.23499(19) 0.2163(2)
H57 H -0.0977 0.2514 0.2580
H58 H -0.1523 0.2392 0.1809
H59 H 0.0013 0.2554 0.2035
C52 C 0.0675(4) -0.04058(19) 0.3131(2)
H60 H 0.0914 -0.0179 0.3552
C53 C -0.0790(4) -0.0619(2) 0.3038(2)
H61 H -0.1395 -0.0311 0.3153
H62 H -0.0884 -0.0961 0.3321
C54 C 0.0514(4) -0.05023(19) 0.2008(2)
H63 H 0.0486 -0.0335 0.1550
C55 C 0.1611(5) -0.0968(2) 0.2155(2)
H64 H 0.2449 -0.0843 0.2001
H65 H 0.1320 -0.1339 0.1939
N5 N 0.0855(3) -0.00653(14) 0.25280(16)
S9 S -0.11585(14) -0.08062(7) 0.21359(7)
S10 S 0.18272(13) -0.10300(5) 0.30833(6)
C56 C 0.5292(4) 0.67856(18) 0.73366(19)
C57 C 0.6551(4) 0.7032(2) 0.7458(3)
H66 H 0.7312 0.6805 0.7415
C58 C 0.6721(5) 0.7627(2) 0.7650(3)
H67 H 0.7595 0.7784 0.7729
C59 C 0.5638(4) 0.79828(19) 0.7723(2)
C60 C 0.4387(4) 0.77225(19) 0.7616(2)
H68 H 0.3628 0.7948 0.7669
C61 C 0.4196(4) 0.7135(2) 0.7430(2)
H69 H 0.3324 0.6976 0.7369
C62 C 0.5835(5) 0.86222(19) 0.7905(2)
H70 H 0.6334 0.8810 0.7586
H71 H 0.6334 0.8657 0.8357
H72 H 0.4963 0.8809 0.7889
C63 C 0.3910(4) 0.58643(19) 0.7180(2)
H73 H 0.3063 0.6092 0.7093
C64 C 0.4189(5) 0.5642(2) 0.7913(2)
H74 H 0.3627 0.5303 0.7978
H75 H 0.4027 0.5948 0.8233
C65 C 0.6134(4) 0.57749(19) 0.7170(2)
H76 H 0.7039 0.5943 0.7156
C66 C 0.5752(4) 0.53233(19) 0.6618(2)
H77 H 0.6203 0.4951 0.6738
H78 H 0.5989 0.5458 0.6187
N6 N 0.5080(3) 0.62114(15) 0.70533(16)
S11 S 0.59894(14) 0.54418(6) 0.80130(6)
S12 S 0.39160(13) 0.52536(5) 0.65752(6)
C67 C 0.4575(4) 0.30001(17) 0.98429(19)
C68 C 0.4460(5) 0.3266(2) 0.9220(2)
H79 H 0.4193 0.3042 0.8830
C69 C 0.4730(4) 0.3860(2) 0.9152(2)
H80 H 0.4633 0.4025 0.8718
C70 C 0.5134(4) 0.4209(2) 0.9705(2)
C71 C 0.5308(5) 0.3938(2) 1.0326(2)
H81 H 0.5604 0.4161 1.0712
C72 C 0.5062(5) 0.3342(2) 1.0403(2)
H82 H 0.5225 0.3172 1.0834
C73 C 0.5336(5) 0.48669(19) 0.9646(3)
H83 H 0.4492 0.5047 0.9454
H84 H 0.6011 0.4942 0.9357
H85 H 0.5634 0.5029 1.0091
C74 C 0.4365(4) 0.20966(19) 1.0543(2)
H86 H 0.4305 0.2348 1.0940
C75 C 0.3341(4) 0.16032(19) 1.0478(2)
H87 H 0.2465 0.1740 1.0574
H88 H 0.3649 0.1283 1.0786
C76 C 0.4370(4) 0.19703(18) 0.9431(2)
H89 H 0.4179 0.2111 0.8959
C77 C 0.5843(4) 0.1792(2) 0.9628(2)
H90 H 0.6444 0.2074 0.9457
H91 H 0.6007 0.1406 0.9448
N7 N 0.4095(3) 0.24145(14) 0.99138(16)
S13 S 0.61083(13) 0.17844(7) 1.05515(7)
S14 S 0.32382(12) 0.13726(5) 0.95942(7)
C78 C 0.0331(4) 0.92892(17) 0.52112(19)
C79 C 0.1574(4) 0.9570(2) 0.5279(2)
H92 H 0.2364 0.9356 0.5422
C80 C 0.1668(4) 1.0160(2) 0.5138(2)
H93 H 0.2522 1.0336 0.5189
C81 C 0.0538(4) 1.04959(19) 0.4924(2)
C82 C -0.0687(5) 1.0218(2) 0.4828(2)
H94 H -0.1470 1.0431 0.4670
C83 C -0.0787(4) 0.96212(19) 0.4962(2)
H95 H -0.1636 0.9441 0.4880
C84 C 0.0638(5) 1.11541(19) 0.4820(2)
H96 H -0.0257 1.1314 0.4687
H97 H 0.1186 1.1231 0.4469
H98 H 0.1049 1.1335 0.5238
C85 C -0.1018(4) 0.83762(19) 0.5314(2)
H99 H -0.1828 0.8619 0.5333
C86 C -0.0861(5) 0.7889(2) 0.5848(2)
H100 H -0.1462 0.7561 0.5706
H101 H -0.1055 0.8035 0.6284
C87 C 0.1207(4) 0.82699(18) 0.5327(2)
H102 H 0.2141 0.8419 0.5426
C88 C 0.0854(5) 0.8083(2) 0.4585(2)
H103 H 0.1241 0.7700 0.4509
H104 H 0.1179 0.8368 0.4283
N8 N 0.0232(3) 0.87100(14) 0.54638(16)
S15 S 0.09133(14) 0.76718(5) 0.59031(6)
S16 S -0.09930(15) 0.80530(7) 0.44564(7)
loop_
_geom_bond_atom_site_label_1
_geom_bond_atom_site_label_2
_geom_bond_site_symmetry_1
_geom_bond_site_symmetry_2
C1 C2 1_555 1_555
C2 H1 1_555 1_555
C3 C2 1_555 1_555
H2 C3 1_555 1_555
C4 C3 1_555 1_555
C5 C4 1_555 1_555
H3 C5 1_555 1_555
C6 C1 1_555 1_555
H4 C6 1_555 1_555
C7 C4 1_555 1_555
H5 C7 1_555 1_555
H6 C7 1_555 1_555
H7 C7 1_555 1_555
C8 H8 1_555 1_555
C9 H9 1_555 1_555
H10 C9 1_555 1_555
C10 C9 1_555 1_555
H11 C10 1_555 1_555
C11 C8 1_555 1_555
H12 C11 1_555 1_555
H13 C11 1_555 1_555
N1 C1 1_555 1_555
S1 C8 1_555 1_555
S2 C10 1_555 1_555
C12 C13 1_555 1_555
C13 H14 1_555 1_555
C14 C13 1_555 1_555
H15 C14 1_555 1_555
C15 C14 1_555 1_555
C16 C15 1_555 1_555
H16 C16 1_555 1_555
C17 C12 1_555 1_555
H17 C17 1_555 1_555
C18 C15 1_555 1_555
H18 C18 1_555 1_555
H19 C18 1_555 1_555
H20 C18 1_555 1_555
C19 H21 1_555 1_555
C20 C19 1_555 1_555
H22 C20 1_555 1_555
H23 C20 1_555 1_555
C21 H24 1_555 1_555
C22 C21 1_555 1_555
H25 C22 1_555 1_555
H26 C22 1_555 1_555
N2 C12 1_555 1_555
S3 C20 1_555 1_555
S4 C19 1_555 1_555
C23 C24 1_555 1_555
C24 H27 1_555 1_555
C25 C24 1_555 1_555
H28 C25 1_555 1_555
C26 C25 1_555 1_555
C27 C26 1_555 1_555
H29 C27 1_555 1_555
C28 C23 1_555 1_555
H30 C28 1_555 1_555
C29 C26 1_555 1_555
H31 C29 1_555 1_555
H32 C29 1_555 1_555
H33 C29 1_555 1_555
C30 H34 1_555 1_555
C31 C30 1_555 1_555
H35 C31 1_555 1_555
H36 C31 1_555 1_555
C32 H37 1_555 1_555
C33 C32 1_555 1_555
H38 C33 1_555 1_555
H39 C33 1_555 1_555
N3 C23 1_555 1_555
S5 C31 1_555 1_555
S6 C30 1_555 1_555
C34 C35 1_555 1_555
C35 H40 1_555 1_555
C36 C35 1_555 1_555
H41 C36 1_555 1_555
C37 C36 1_555 1_555
C38 C37 1_555 1_555
H42 C38 1_555 1_555
C39 C34 1_555 1_555
H43 C39 1_555 1_555
C40 C37 1_555 1_555
H44 C40 1_555 1_555
H45 C40 1_555 1_555
H46 C40 1_555 1_555
C41 H47 1_555 1_555
C42 C41 1_555 1_555
H48 C42 1_555 1_555
H49 C42 1_555 1_555
C43 H50 1_555 1_555
C44 C43 1_555 1_555
H51 C44 1_555 1_555
H52 C44 1_555 1_555
N4 C34 1_555 1_555
S7 C42 1_555 1_555
S8 C41 1_555 1_555
C45 C46 1_555 1_555
C46 H53 1_555 1_555
C47 C46 1_555 1_555
H54 C47 1_555 1_555
C48 C47 1_555 1_555
C49 C48 1_555 1_555
H55 C49 1_555 1_555
C50 C45 1_555 1_555
H56 C50 1_555 1_555
C51 C48 1_555 1_555
H57 C51 1_555 1_555
H58 C51 1_555 1_555
H59 C51 1_555 1_555
C52 H60 1_555 1_555
C53 C52 1_555 1_555
H61 C53 1_555 1_555
H62 C53 1_555 1_555
C54 H63 1_555 1_555
C55 C54 1_555 1_555
H64 C55 1_555 1_555
H65 C55 1_555 1_555
N5 C45 1_555 1_555
S9 C53 1_555 1_555
S10 C52 1_555 1_555
C56 C57 1_555 1_555
C57 H66 1_555 1_555
C58 C57 1_555 1_555
H67 C58 1_555 1_555
C59 C58 1_555 1_555
C60 C59 1_555 1_555
H68 C60 1_555 1_555
C61 C56 1_555 1_555
H69 C61 1_555 1_555
C62 C59 1_555 1_555
H70 C62 1_555 1_555
H71 C62 1_555 1_555
H72 C62 1_555 1_555
C63 H73 1_555 1_555
C64 C63 1_555 1_555
H74 C64 1_555 1_555
H75 C64 1_555 1_555
C65 H76 1_555 1_555
C66 C65 1_555 1_555
H77 C66 1_555 1_555
H78 C66 1_555 1_555
N6 C56 1_555 1_555
S11 C64 1_555 1_555
S12 C63 1_555 1_555
C67 C68 1_555 1_555
C68 H79 1_555 1_555
C69 C68 1_555 1_555
H80 C69 1_555 1_555
C70 C69 1_555 1_555
C71 C70 1_555 1_555
H81 C71 1_555 1_555
C72 C67 1_555 1_555
H82 C72 1_555 1_555
C73 C70 1_555 1_555
H83 C73 1_555 1_555
H84 C73 1_555 1_555
H85 C73 1_555 1_555
C74 H86 1_555 1_555
C75 C74 1_555 1_555
H87 C75 1_555 1_555
H88 C75 1_555 1_555
C76 H89 1_555 1_555
C77 C76 1_555 1_555
H90 C77 1_555 1_555
H91 C77 1_555 1_555
N7 C67 1_555 1_555
S13 C74 1_555 1_555
S14 C75 1_555 1_555
C78 C79 1_555 1_555
C79 H92 1_555 1_555
C80 C79 1_555 1_555
H93 C80 1_555 1_555
C81 C80 1_555 1_555
C82 C81 1_555 1_555
H94 C82 1_555 1_555
C83 C78 1_555 1_555
H95 C83 1_555 1_555
C84 C81 1_555 1_555
H96 C84 1_555 1_555
H97 C84 1_555 1_555
H98 C84 1_555 1_555
C85 H99 1_555 1_555
C86 C85 1_555 1_555
H100 C86 1_555 1_555
H101 C86 1_555 1_555
C87 H102 1_555 1_555
C88 C87 1_555 1_555
H103 C88 1_555 1_555
H104 C88 1_555 1_555
N8 C78 1_555 1_555
S15 C86 1_555 1_555
S16 C85 1_555 1_555
C5 C6 1_555 1_555
C8 N1 1_555 1_555
C9 S1 1_555 1_555
C10 N1 1_555 1_555
C11 S2 1_555 1_555
C16 C17 1_555 1_555
C19 N2 1_555 1_555
C21 N2 1_555 1_555
C21 S3 1_555 1_555
C22 S4 1_555 1_555
C27 C28 1_555 1_555
C30 N3 1_555 1_555
C32 N3 1_555 1_555
C32 S5 1_555 1_555
C33 S6 1_555 1_555
C38 C39 1_555 1_555
C41 N4 1_555 1_555
C43 N4 1_555 1_555
C43 S7 1_555 1_555
C44 S8 1_555 1_555
C49 C50 1_555 1_555
C52 N5 1_555 1_555
C54 N5 1_555 1_555
C54 S9 1_555 1_555
C55 S10 1_555 1_555
C60 C61 1_555 1_555
C63 N6 1_555 1_555
C65 N6 1_555 1_555
C65 S11 1_555 1_555
C66 S12 1_555 1_555
C71 C72 1_555 1_555
C74 N7 1_555 1_555
C76 N7 1_555 1_555
C76 S14 1_555 1_555
C77 S13 1_555 1_555
C82 C83 1_555 1_555
C85 N8 1_555 1_555
C87 N8 1_555 1_555
C87 S15 1_555 1_555
C88 S16 1_555 1_555

#END
