
#######################################################################
#
#                 Cambridge Crystallographic Data Centre
#                                CCDC 
#
#######################################################################
#
# If this CIF has been generated from an entry in the Cambridge 
# Structural Database, then it will include bibliographic, chemical, 
# crystal, experimental, refinement or atomic coordinate data resulting 
# from the CCDC's data processing and validation procedures.
#
#######################################################################

data_YARCOM
_chemical_formula_moiety         'C29 H29 N1 O6 S1'
_chemical_name_systematic        
'ethyl 6-(3-ethoxy-3-oxoprop-1-en-1-yl)-5-[(4-methylphenyl)sulfonyl]-6,7-dihydro-5H-dibenzo[b,d]azepine-2-carboxylate'
_symmetry_cell_setting           triclinic
_symmetry_space_group_name_H-M   'P -1'
_symmetry_Int_Tables_number      2
_space_group_name_Hall           '-P 1'
loop_
_symmetry_equiv_pos_site_id
_symmetry_equiv_pos_as_xyz
1 x,y,z
2 -x,-y,-z
_cell_length_a                   7.6657(15)
_cell_length_b                   11.049(2)
_cell_length_c                   15.566(3)
_cell_angle_alpha                81.944(3)
_cell_angle_beta                 86.996(3)
_cell_angle_gamma                80.757(3)
_cell_volume                     1287.85
_exptl_crystal_colour            colorless
_exptl_crystal_description       block
_cell_formula_units_Z            2
loop_
_atom_site_label
_atom_site_type_symbol
_atom_site_fract_x
_atom_site_fract_y
_atom_site_fract_z
S1 S -0.23342(8) 0.17811(6) 0.35784(4)
O1 O -0.2500(3) 0.1090(2) 0.44202(13)
O2 O -0.3452(3) 0.2935(2) 0.33619(15)
O3 O 0.4720(3) 0.3339(2) 0.56641(15)
O4 O 0.1853(3) 0.3564(2) 0.60546(16)
C1 C 0.1421(4) 0.2074(3) 0.47373(18)
H1 H 0.0430 0.2398 0.5050
C2 C 0.2941(4) 0.2333(3) 0.4942(2)
H2 H 0.3972 0.2006 0.4659
C3 C 0.3050(4) 0.3139(3) 0.56179(19)
C4 C 0.5050(5) 0.4172(4) 0.6236(3)
H3 H 0.4755 0.3848 0.6828
H4 H 0.4307 0.4965 0.6091
C5 C 0.6887(6) 0.4336(4) 0.6168(3)
H5 H 0.7614 0.3567 0.6369
H6 H 0.7067 0.4953 0.6517
H7 H 0.7201 0.4596 0.5574
C6 C 0.1128(3) 0.2393(2) 0.20271(17)
C7 C 0.1575(4) 0.1045(2) 0.20276(18)
C8 C 0.1586(3) 0.3229(2) 0.13310(17)
H8 H 0.2178 0.2933 0.0847
C9 C 0.0240(3) 0.2875(2) 0.27540(16)
C10 C 0.1175(4) 0.4502(3) 0.13444(18)
C11 C 0.0344(4) 0.4950(3) 0.20694(19)
H9 H 0.0109 0.5799 0.2086
C12 C -0.0140(4) 0.4149(3) 0.27711(18)
H10 H -0.0718 0.4457 0.3254
C13 C 0.2775(4) 0.0873(3) 0.35222(18)
H11 H 0.3378 0.1573 0.3324
H12 H 0.3568 0.0273 0.3893
C14 C 0.1105(3) 0.1308(3) 0.40510(17)
H13 H 0.0646 0.0572 0.4341
C15 C 0.2366(4) 0.0302(3) 0.27556(19)
C16 C 0.1244(4) 0.0505(3) 0.13119(19)
H14 H 0.0716 0.0999 0.0833
C17 C 0.1689(5) -0.0758(3) 0.1301(2)
H15 H 0.1471 -0.1110 0.0816
C18 C 0.2800(4) -0.0975(3) 0.2733(2)
H16 H 0.3323 -0.1480 0.3209
C19 C 0.2461(4) -0.1491(3) 0.2018(2)
H17 H 0.2754 -0.2341 0.2016
C20 C 0.1670(4) 0.5404(3) 0.05927(19)
C21 C 0.3179(4) 0.5678(3) -0.0767(2)
H18 H 0.3987 0.6166 -0.0571
H19 H 0.2190 0.6237 -0.1034
C22 C 0.4096(5) 0.4882(4) -0.1400(2)
H20 H 0.5056 0.4321 -0.1125
H21 H 0.4548 0.5392 -0.1885
H22 H 0.3276 0.4420 -0.1601
O5 O 0.2553(3) 0.48602(19) -0.00338(13)
O6 O 0.1294(4) 0.6511(2) 0.05785(16)
C23 C -0.2642(4) 0.0839(3) 0.27947(18)
C24 C -0.2060(5) -0.0423(3) 0.2942(2)
H23 H -0.1524 -0.0777 0.3460
C25 C -0.3618(5) 0.0626(3) 0.1401(2)
H24 H -0.4150 0.0984 0.0883
C26 C -0.2279(5) -0.1147(3) 0.2320(2)
H25 H -0.1910 -0.1997 0.2429
C27 C -0.3417(4) 0.1361(3) 0.2023(2)
H26 H -0.3803 0.2209 0.1922
C28 C -0.3037(4) -0.0646(3) 0.1536(2)
C29 C -0.3220(6) -0.1449(4) 0.0856(3)
H27 H -0.3288 -0.0957 0.0296
H28 H -0.4276 -0.1815 0.0976
H29 H -0.2212 -0.2091 0.0862
N1 N -0.0282(3) 0.2038(2) 0.34773(15)
loop_
_geom_bond_atom_site_label_1
_geom_bond_atom_site_label_2
_geom_bond_site_symmetry_1
_geom_bond_site_symmetry_2
S1 O1 1_555 1_555
O2 S1 1_555 1_555
O3 C3 1_555 1_555
O4 C3 1_555 1_555
C1 H1 1_555 1_555
C2 C1 1_555 1_555
H2 C2 1_555 1_555
C3 C2 1_555 1_555
C4 O3 1_555 1_555
H3 C4 1_555 1_555
H4 C4 1_555 1_555
C5 C4 1_555 1_555
H5 C5 1_555 1_555
H6 C5 1_555 1_555
H7 C5 1_555 1_555
C6 C7 1_555 1_555
C7 C15 1_555 1_555
C8 C6 1_555 1_555
H8 C8 1_555 1_555
C9 C6 1_555 1_555
C10 C8 1_555 1_555
C11 C10 1_555 1_555
H9 C11 1_555 1_555
C12 C9 1_555 1_555
H10 C12 1_555 1_555
C13 H11 1_555 1_555
H12 C13 1_555 1_555
C14 C1 1_555 1_555
H13 C14 1_555 1_555
C15 C13 1_555 1_555
C16 C7 1_555 1_555
H14 C16 1_555 1_555
C17 C16 1_555 1_555
H15 C17 1_555 1_555
C18 C15 1_555 1_555
H16 C18 1_555 1_555
C19 C17 1_555 1_555
H17 C19 1_555 1_555
C20 C10 1_555 1_555
C21 H18 1_555 1_555
H19 C21 1_555 1_555
C22 C21 1_555 1_555
H20 C22 1_555 1_555
H21 C22 1_555 1_555
H22 C22 1_555 1_555
O5 C20 1_555 1_555
O6 C20 1_555 1_555
C23 S1 1_555 1_555
C24 C23 1_555 1_555
H23 C24 1_555 1_555
C25 H24 1_555 1_555
C26 C24 1_555 1_555
H25 C26 1_555 1_555
C27 C23 1_555 1_555
H26 C27 1_555 1_555
C28 C25 1_555 1_555
C29 C28 1_555 1_555
H27 C29 1_555 1_555
H28 C29 1_555 1_555
H29 C29 1_555 1_555
N1 S1 1_555 1_555
C9 N1 1_555 1_555
C11 C12 1_555 1_555
C13 C14 1_555 1_555
C14 N1 1_555 1_555
C18 C19 1_555 1_555
C21 O5 1_555 1_555
C25 C27 1_555 1_555
C26 C28 1_555 1_555

#END
