
#######################################################################
#
#                 Cambridge Crystallographic Data Centre
#                                CCDC 
#
#######################################################################
#
# If this CIF has been generated from an entry in the Cambridge 
# Structural Database, then it will include bibliographic, chemical, 
# crystal, experimental, refinement or atomic coordinate data resulting 
# from the CCDC's data processing and validation procedures.
#
#######################################################################

data_YARCEC
_chemical_formula_moiety         'C26 H26 N2 O3 S1'
_chemical_name_systematic        
N,N-dimethyl-3-(5-((4-methylphenyl)sulfonyl)-6,7-dihydro-5H-dibenzo[b,d]azepin-6-yl)prop-2-enamide
_symmetry_cell_setting           monoclinic
_symmetry_space_group_name_H-M   'C 2/c'
_symmetry_Int_Tables_number      15
_space_group_name_Hall           '-C 2yn'
loop_
_symmetry_equiv_pos_site_id
_symmetry_equiv_pos_as_xyz
1 x,y,z
2 -x,y,1/2-z
3 1/2+x,1/2+y,z
4 1/2-x,1/2+y,1/2-z
5 -x,-y,-z
6 x,-y,1/2+z
7 1/2-x,1/2-y,-z
8 1/2+x,1/2-y,1/2+z
_cell_length_a                   18.154(9)
_cell_length_b                   19.790(10)
_cell_length_c                   13.725(8)
_cell_angle_alpha                90
_cell_angle_beta                 112.371(7)
_cell_angle_gamma                90
_cell_volume                     4559.84
_exptl_crystal_colour            colorless
_exptl_crystal_description       block
_cell_formula_units_Z            8
loop_
_atom_site_label
_atom_site_type_symbol
_atom_site_fract_x
_atom_site_fract_y
_atom_site_fract_z
S1 S 0.09436(5) 0.36512(4) 0.61788(7)
O1 O 0.02925(13) 0.34291(12) 0.6435(2)
O2 O 0.09900(14) 0.34563(12) 0.52061(17)
C1 C 0.09569(17) 0.45332(16) 0.6229(3)
C2 C 0.10700(19) 0.49097(18) 0.5453(3)
H1 H 0.1143 0.4696 0.4894
C3 C 0.0982(2) 0.5938(2) 0.6328(4)
C4 C 0.0849(2) 0.48614(19) 0.7050(3)
H2 H 0.0766 0.4614 0.7575
C5 C 0.0865(2) 0.5557(2) 0.7091(3)
H3 H 0.0796 0.5774 0.7651
C6 C 0.1074(2) 0.5604(2) 0.5511(3)
H4 H 0.1142 0.5853 0.4976
C7 C 0.1009(3) 0.6701(2) 0.6390(4)
H5 H 0.1015 0.6882 0.5745
H6 H 0.1480 0.6840 0.6968
H7 H 0.0547 0.6864 0.6497
C8 C 0.17374(18) 0.32544(15) 0.8192(2)
H8 H 0.1290 0.3504 0.8251
C9 C 0.09279(19) 0.15284(16) 0.8590(2)
N1 N 0.04209(17) 0.12999(13) 0.9019(2)
C10 C 0.16128(18) 0.25195(16) 0.8312(2)
H9 H 0.1983 0.2220 0.8241
C11 C 0.10201(18) 0.22670(15) 0.8511(2)
H10 H 0.0649 0.2557 0.8605
O3 O 0.13058(15) 0.11387(12) 0.8268(2)
C12 C 0.0305(2) 0.05786(18) 0.9070(3)
H11 H 0.0600 0.0344 0.8724
H12 H -0.0251 0.0474 0.8727
H13 H 0.0489 0.0439 0.9794
C13 C -0.0026(2) 0.1718(2) 0.9451(3)
H14 H 0.0288 0.1810 1.0178
H15 H -0.0506 0.1487 0.9396
H16 H -0.0160 0.2135 0.9066
N2 N 0.17470(14) 0.33800(12) 0.71279(19)
C14 C 0.3041(2) 0.38880(19) 0.7391(3)
C15 C 0.24894(19) 0.33732(18) 0.6972(2)
C16 C 0.3738(2) 0.3869(2) 0.7196(3)
H17 H 0.4113 0.4211 0.7458
C17 C 0.2637(2) 0.2851(2) 0.6405(3)
H18 H 0.2269 0.2505 0.6139
C18 C 0.3353(3) 0.2852(3) 0.6236(3)
H19 H 0.3461 0.2504 0.5855
C19 C 0.3884(3) 0.3359(3) 0.6628(3)
H20 H 0.4355 0.3358 0.6508
C20 C 0.29111(18) 0.44165(18) 0.8059(3)
C21 C 0.3044(2) 0.5092(2) 0.7912(3)
H21 H 0.3201 0.5214 0.7366
C22 C 0.26762(18) 0.42427(17) 0.8885(3)
C23 C 0.2602(2) 0.47432(19) 0.9539(3)
H22 H 0.2463 0.4627 1.0102
C24 C 0.2950(2) 0.5581(2) 0.8556(4)
H23 H 0.3035 0.6031 0.8438
C25 C 0.2730(2) 0.5412(2) 0.9377(3)
H24 H 0.2667 0.5745 0.9817
C26 C 0.25135(19) 0.35129(17) 0.9044(3)
H25 H 0.2481 0.3462 0.9729
H26 H 0.2954 0.3239 0.9037
loop_
_geom_bond_atom_site_label_1
_geom_bond_atom_site_label_2
_geom_bond_site_symmetry_1
_geom_bond_site_symmetry_2
S1 O1 1_555 1_555
O2 S1 1_555 1_555
C1 S1 1_555 1_555
C2 C1 1_555 1_555
H1 C2 1_555 1_555
C3 C5 1_555 1_555
C4 C1 1_555 1_555
H2 C4 1_555 1_555
C5 C4 1_555 1_555
H3 C5 1_555 1_555
C6 C2 1_555 1_555
H4 C6 1_555 1_555
C7 C3 1_555 1_555
H5 C7 1_555 1_555
H6 C7 1_555 1_555
H7 C7 1_555 1_555
C8 H8 1_555 1_555
C9 N1 1_555 1_555
N1 C12 1_555 1_555
C10 C8 1_555 1_555
H9 C10 1_555 1_555
C11 C9 1_555 1_555
H10 C11 1_555 1_555
O3 C9 1_555 1_555
C12 H11 1_555 1_555
H12 C12 1_555 1_555
H13 C12 1_555 1_555
C13 N1 1_555 1_555
H14 C13 1_555 1_555
H15 C13 1_555 1_555
H16 C13 1_555 1_555
N2 S1 1_555 1_555
C14 C15 1_555 1_555
C15 N2 1_555 1_555
C16 C14 1_555 1_555
H17 C16 1_555 1_555
C17 C15 1_555 1_555
H18 C17 1_555 1_555
C18 C17 1_555 1_555
H19 C18 1_555 1_555
C19 C16 1_555 1_555
H20 C19 1_555 1_555
C20 C14 1_555 1_555
C21 C20 1_555 1_555
H21 C21 1_555 1_555
C22 C20 1_555 1_555
C23 C22 1_555 1_555
H22 C23 1_555 1_555
C24 C21 1_555 1_555
H23 C24 1_555 1_555
C25 C23 1_555 1_555
H24 C25 1_555 1_555
C26 C8 1_555 1_555
H25 C26 1_555 1_555
H26 C26 1_555 1_555
C3 C6 1_555 1_555
C8 N2 1_555 1_555
C10 C11 1_555 1_555
C18 C19 1_555 1_555
C22 C26 1_555 1_555
C24 C25 1_555 1_555

#END
