
#######################################################################
#
#                 Cambridge Crystallographic Data Centre
#                                CCDC 
#
#######################################################################
#
# If this CIF has been generated from an entry in the Cambridge 
# Structural Database, then it will include bibliographic, chemical, 
# crystal, experimental, refinement or atomic coordinate data resulting 
# from the CCDC's data processing and validation procedures.
#
#######################################################################

data_YARHEG
_chemical_formula_moiety         'C14 H13 N3 O2 S1'
_chemical_name_systematic        
1-(4-(Methylsulfanyl)benzylidene)-2-(4-nitrophenyl)hydrazine
_symmetry_cell_setting           monoclinic
_symmetry_space_group_name_H-M   'P 21/n'
_symmetry_Int_Tables_number      14
_space_group_name_Hall           '-P 2yn'
loop_
_symmetry_equiv_pos_site_id
_symmetry_equiv_pos_as_xyz
1 x,y,z
2 1/2-x,1/2+y,1/2-z
3 -x,-y,-z
4 1/2+x,1/2-y,1/2+z
_cell_length_a                   6.5050(5)
_cell_length_b                   7.8622(4)
_cell_length_c                   27.1096(13)
_cell_angle_alpha                90
_cell_angle_beta                 94.290(2)
_cell_angle_gamma                90
_cell_volume                     1382.6
_cell_formula_units_Z            4
loop_
_atom_site_label
_atom_site_type_symbol
_atom_site_fract_x
_atom_site_fract_y
_atom_site_fract_z
S1 S 0.90500(8) 0.61657(6) 0.165362(19)
N1 N 0.1946(2) 0.49524(19) 0.33230(5)
N2 N 0.0239(3) 0.4504(2) 0.35543(6)
N3 N -0.2053(4) 0.7734(3) 0.52598(8)
O1 O -0.0834(4) 0.8678(3) 0.54887(7)
O2 O -0.3772(4) 0.7415(3) 0.53957(9)
C1 C 0.7008(3) 0.5513(2) 0.19990(7)
C2 C 0.7114(3) 0.6008(2) 0.24978(7)
C3 C 0.5565(3) 0.5605(2) 0.27937(7)
C4 C 0.3850(3) 0.4680(2) 0.26063(6)
C5 C 0.3771(3) 0.4169(2) 0.21140(7)
C6 C 0.5308(3) 0.4592(2) 0.18117(7)
C7 C 0.8786(6) 0.4867(4) 0.11133(11)
C8 C 0.2133(3) 0.4266(2) 0.29026(7)
C9 C -0.0262(3) 0.5325(2) 0.39743(6)
C10 C 0.1061(3) 0.6468(2) 0.42279(7)
C11 C 0.0479(4) 0.7252(3) 0.46493(8)
C12 C -0.1427(4) 0.6910(2) 0.48155(7)
C13 C -0.2762(4) 0.5794(3) 0.45689(8)
C14 C -0.2194(3) 0.4994(3) 0.41523(7)
H1 H 0.566(3) 0.598(2) 0.3150(9)
H2 H 0.264(3) 0.353(2) 0.1989(7)
H3 H 0.231(3) 0.667(3) 0.4121(7)
H4 H 0.826(3) 0.662(3) 0.2625(7)
H5 H 0.517(3) 0.424(2) 0.1474(7)
H6 H 0.111(3) 0.343(3) 0.2754(7)
H7 H -0.304(3) 0.425(3) 0.3986(8)
H8 H -0.058(4) 0.379(3) 0.3411(10)
H9 H 0.758(5) 0.525(4) 0.0883(13)
H10 H -0.406(3) 0.558(3) 0.4669(8)
H11 H 0.988(4) 0.510(3) 0.0937(10)
H12 H 0.142(4) 0.800(3) 0.4812(9)
H13 H 0.879(4) 0.369(4) 0.1214(11)
loop_
_geom_bond_atom_site_label_1
_geom_bond_atom_site_label_2
_geom_bond_site_symmetry_1
_geom_bond_site_symmetry_2
S1 C1 1_555 1_555
N1 N2 1_555 1_555
N2 C9 1_555 1_555
N3 O1 1_555 1_555
O2 N3 1_555 1_555
C1 C2 1_555 1_555
C2 C3 1_555 1_555
C3 C4 1_555 1_555
C4 C5 1_555 1_555
C5 C6 1_555 1_555
C6 C1 1_555 1_555
C7 S1 1_555 1_555
C8 N1 1_555 1_555
C9 C10 1_555 1_555
C10 C11 1_555 1_555
C11 C12 1_555 1_555
C12 N3 1_555 1_555
C13 C12 1_555 1_555
C14 C9 1_555 1_555
H1 C3 1_555 1_555
H2 C5 1_555 1_555
H3 C10 1_555 1_555
H4 C2 1_555 1_555
H5 C6 1_555 1_555
H6 C8 1_555 1_555
H7 C14 1_555 1_555
H8 N2 1_555 1_555
H9 C7 1_555 1_555
H10 C13 1_555 1_555
H11 C7 1_555 1_555
H12 C11 1_555 1_555
H13 C7 1_555 1_555
C4 C8 1_555 1_555
C13 C14 1_555 1_555

#END
