
#######################################################################
#
#                 Cambridge Crystallographic Data Centre
#                                CCDC 
#
#######################################################################
#
# If this CIF has been generated from an entry in the Cambridge 
# Structural Database, then it will include bibliographic, chemical, 
# crystal, experimental, refinement or atomic coordinate data resulting 
# from the CCDC's data processing and validation procedures.
#
#######################################################################

data_YARLAH
_chemical_formula_moiety         'C14 H9 Cl2 N3,C1 H4 O1'
_chemical_name_systematic        
'4,5-bis(4-chlorophenyl)-2H-1,2,3-triazole methanol solvate'
_symmetry_cell_setting           monoclinic
_symmetry_space_group_name_H-M   'C 2/c'
_symmetry_Int_Tables_number      15
_space_group_name_Hall           '-C 2yn'
loop_
_symmetry_equiv_pos_site_id
_symmetry_equiv_pos_as_xyz
1 x,y,z
2 -x,y,1/2-z
3 1/2+x,1/2+y,z
4 1/2-x,1/2+y,1/2-z
5 -x,-y,-z
6 x,-y,1/2+z
7 1/2-x,1/2-y,-z
8 1/2+x,1/2-y,1/2+z
_cell_length_a                   20.604(2)
_cell_length_b                   11.3027(11)
_cell_length_c                   16.5652(16)
_cell_angle_alpha                90
_cell_angle_beta                 127.042(5)
_cell_angle_gamma                90
_cell_volume                     3079.21
_exptl_crystal_colour            colorless
_exptl_crystal_description       Needle
_cell_formula_units_Z            8
loop_
_atom_site_label
_atom_site_type_symbol
_atom_site_fract_x
_atom_site_fract_y
_atom_site_fract_z
Cl1 Cl 0.00696(9) 0.22939(12) 0.39193(11)
Cl2 Cl 0.07488(10) 0.92674(14) 0.13342(10)
C1 C 0.1568(2) 0.6983(4) 0.5759(3)
C2 C 0.1204(2) 0.5827(4) 0.5311(3)
C3 C 0.1428(3) 0.7464(4) 0.3794(3)
C4 C 0.0454(3) 0.5772(4) 0.4352(3)
C5 C 0.1423(2) 0.8329(4) 0.4394(3)
C6 C 0.1590(3) 0.4785(4) 0.5837(3)
C7 C 0.1644(2) 0.8020(4) 0.5393(3)
C8 C 0.0100(3) 0.4679(4) 0.3915(3)
C9 C 0.0508(3) 0.3659(4) 0.4463(4)
C10 C 0.1243(3) 0.3688(4) 0.5419(3)
C11 C 0.1227(3) 0.9497(4) 0.4052(3)
C12 C 0.1023(3) 0.8919(4) 0.2526(3)
C13 C 0.1222(3) 0.7752(4) 0.2845(3)
C14 C 0.1028(3) 0.9799(4) 0.3109(4)
N1 N 0.1924(2) 0.7206(3) 0.6755(2)
N2 N 0.2035(2) 0.8822(3) 0.6167(3)
N3 N 0.2198(2) 0.8316(3) 0.6986(3)
O1 O 0.2141(3) 0.5913(4) 0.8267(3)
C15 C 0.1938(4) 0.6319(6) 0.8873(4)
loop_
_geom_bond_atom_site_label_1
_geom_bond_atom_site_label_2
_geom_bond_site_symmetry_1
_geom_bond_site_symmetry_2
Cl1 C9 1_555 1_555
Cl2 C12 1_555 1_555
C1 C2 1_555 1_555
C2 C4 1_555 1_555
C3 C5 1_555 1_555
C4 C8 1_555 1_555
C5 C7 1_555 1_555
C6 C2 1_555 1_555
C7 C1 1_555 1_555
C8 C9 1_555 1_555
C9 C10 1_555 1_555
C10 C6 1_555 1_555
C11 C5 1_555 1_555
C12 C13 1_555 1_555
C13 C3 1_555 1_555
C14 C11 1_555 1_555
N1 C1 1_555 1_555
N2 C7 1_555 1_555
N3 N1 1_555 1_555
O1 C15 1_555 1_555
C12 C14 1_555 1_555
N2 N3 1_555 1_555

#END
