
#######################################################################
#
#                 Cambridge Crystallographic Data Centre
#                                CCDC 
#
#######################################################################
#
# If this CIF has been generated from an entry in the Cambridge 
# Structural Database, then it will include bibliographic, chemical, 
# crystal, experimental, refinement or atomic coordinate data resulting 
# from the CCDC's data processing and validation procedures.
#
#######################################################################

data_YARLAE
_chemical_formula_moiety         'C25 H31 N1 O2 S7'
_chemical_name_systematic        
2-(4,5-bis(n-Pentylthio)-1,3-dithiole-2-ylidene)-N-p-tosyl-(1,3)dithiolo(4,5-c)pyrrole
_symmetry_cell_setting           monoclinic
_symmetry_space_group_name_H-M   'C 2/c'
_symmetry_Int_Tables_number      15
_space_group_name_Hall           '-C 2yn'
loop_
_symmetry_equiv_pos_site_id
_symmetry_equiv_pos_as_xyz
1 x,y,z
2 -x,y,1/2-z
3 1/2+x,1/2+y,z
4 1/2-x,1/2+y,1/2-z
5 -x,-y,-z
6 x,-y,1/2+z
7 1/2-x,1/2-y,-z
8 1/2+x,1/2-y,1/2+z
_cell_length_a                   47.689(5)
_cell_length_b                   5.2313(5)
_cell_length_c                   22.185(2)
_cell_angle_alpha                90
_cell_angle_beta                 90.990(10)
_cell_angle_gamma                90
_cell_volume                     5533.79
_exptl_crystal_colour            yellow
_exptl_crystal_description       needles
_chemical_melting_point          79-81deg.C
_cell_formula_units_Z            8
_exptl_crystal_recrystallization_method acetone/cyclohexane
loop_
_atom_site_label
_atom_site_type_symbol
_atom_site_fract_x
_atom_site_fract_y
_atom_site_fract_z
S1 S 0.1232(1) 0.8970(2) 0.0772(1)
S2 S 0.0907(1) 0.5237(2) 0.1641(1)
S3 S 0.0553(1) 0.2302(2) 0.2505(1)
S4 S 0.1151(1) -0.0560(2) 0.2949(1)
S5 S 0.1437(1) 0.2911(2) 0.2072(1)
S6 S 0.1786(1) 0.6820(2) 0.1209(1)
S7 S 0.2035(1) 1.4369(2) -0.0438(1)
O1 O 0.2305(1) 1.4899(4) -0.0178(1)
O2 O 0.1839(1) 1.6363(4) -0.0575(1)
N1 N 0.1875(1) 1.2494(5) 0.0059(1)
C1 C 0.1415(1) 0.6842(6) 0.1255(1)
C2 C 0.1276(1) 0.5262(6) 0.1616(1)
C3 C 0.0885(1) 0.3000(6) 0.2227(1)
C4 C 0.1126(1) 0.1900(6) 0.2418(1)
C5 C 0.1796(1) 0.9382(6) 0.0705(1)
C6 C 0.2005(1) 1.0684(6) 0.0430(1)
C7 C 0.1585(1) 1.2276(6) 0.0095(1)
C8 C 0.1535(1) 1.0372(6) 0.0495(1)
C9 C 0.2078(1) 1.2487(6) -0.1086(1)
C10 C 0.2279(1) 1.0553(6) -0.1089(1)
C11 C 0.2312(1) 0.9139(6) -0.1605(1)
C12 C 0.2150(1) 0.9622(6) -0.2125(1)
C13 C 0.1950(1) 1.1529(6) -0.2109(1)
C14 C 0.1912(1) 1.2977(6) -0.1593(1)
C15 C 0.2198(1) 0.8125(6) -0.2694(1)
C16 C 0.0448(1) 0.5457(6) 0.2776(1)
C17 C 0.0213(1) 0.5148(6) 0.3229(1)
C18 C 0.0114(1) 0.7735(6) 0.3464(2)
C19 C -0.0122(1) 0.7506(7) 0.3911(2)
C20 C -0.0220(1) 1.0105(8) 0.4141(2)
C21 C 0.1341(1) 0.1063(6) 0.3561(1)
C22 C 0.1191(1) 0.3376(6) 0.3810(1)
C23 C 0.0931(1) 0.2812(7) 0.4167(1)
C24 C 0.0802(1) 0.5218(7) 0.4430(2)
C25 C 0.0558(1) 0.4660(9) 0.4843(2)
H1 H 0.2201 1.0416 0.0481
H2 H 0.1449 1.3266 -0.0117
H3 H 0.2391 1.0218 -0.0740
H4 H 0.2448 0.7809 -0.1610
H5 H 0.1837 1.1856 -0.2457
H6 H 0.1774 1.4284 -0.1587
H7 H 0.2155 0.6318 -0.2624
H8 H 0.2394 0.8295 -0.2811
H9 H 0.2076 0.8787 -0.3018
H10 H 0.0610 0.6322 0.2970
H11 H 0.0382 0.6521 0.2433
H12 H 0.0281 0.4092 0.3572
H13 H 0.0053 0.4245 0.3034
H14 H 0.0275 0.8624 0.3660
H15 H 0.0050 0.8794 0.3118
H16 H -0.0058 0.6453 0.4257
H17 H -0.0283 0.6617 0.3715
H18 H -0.0062 1.0986 0.4340
H19 H -0.0370 0.9860 0.4430
H20 H -0.0289 1.1136 0.3801
H21 H 0.1374 -0.0171 0.3893
H22 H 0.1526 0.1609 0.3413
H23 H 0.1325 0.4330 0.4072
H24 H 0.1138 0.4509 0.3469
H25 H 0.0979 0.1617 0.4499
H26 H 0.0790 0.1961 0.3901
H27 H 0.0736 0.6332 0.4096
H28 H 0.0948 0.6162 0.4660
H29 H 0.0420 0.3580 0.4631
H30 H 0.0469 0.6271 0.4960
H31 H 0.0627 0.3772 0.5205
loop_
_geom_bond_atom_site_label_1
_geom_bond_atom_site_label_2
_geom_bond_site_symmetry_1
_geom_bond_site_symmetry_2
S1 C1 1_555 1_555
S2 C2 1_555 1_555
S3 C3 1_555 1_555
S4 C4 1_555 1_555
S5 C2 1_555 1_555
S6 C1 1_555 1_555
S7 O1 1_555 1_555
O2 S7 1_555 1_555
N1 S7 1_555 1_555
C1 C2 1_555 1_555
C3 S2 1_555 1_555
C4 S5 1_555 1_555
C5 S6 1_555 1_555
C6 N1 1_555 1_555
C7 N1 1_555 1_555
C8 S1 1_555 1_555
C9 S7 1_555 1_555
C10 C9 1_555 1_555
C11 C10 1_555 1_555
C12 C11 1_555 1_555
C13 C12 1_555 1_555
C14 C9 1_555 1_555
C15 C12 1_555 1_555
C16 S3 1_555 1_555
C17 C16 1_555 1_555
C18 C17 1_555 1_555
C19 C18 1_555 1_555
C20 C19 1_555 1_555
C21 S4 1_555 1_555
C22 C21 1_555 1_555
C23 C22 1_555 1_555
C24 C23 1_555 1_555
C25 C24 1_555 1_555
H1 C6 1_555 1_555
H2 C7 1_555 1_555
H3 C10 1_555 1_555
H4 C11 1_555 1_555
H5 C13 1_555 1_555
H6 C14 1_555 1_555
H7 C15 1_555 1_555
H8 C15 1_555 1_555
H9 C15 1_555 1_555
H10 C16 1_555 1_555
H11 C16 1_555 1_555
H12 C17 1_555 1_555
H13 C17 1_555 1_555
H14 C18 1_555 1_555
H15 C18 1_555 1_555
H16 C19 1_555 1_555
H17 C19 1_555 1_555
H18 C20 1_555 1_555
H19 C20 1_555 1_555
H20 C20 1_555 1_555
H21 C21 1_555 1_555
H22 C21 1_555 1_555
H23 C22 1_555 1_555
H24 C22 1_555 1_555
H25 C23 1_555 1_555
H26 C23 1_555 1_555
H27 C24 1_555 1_555
H28 C24 1_555 1_555
H29 C25 1_555 1_555
H30 C25 1_555 1_555
H31 C25 1_555 1_555
C3 C4 1_555 1_555
C5 C6 1_555 1_555
C5 C8 1_555 1_555
C7 C8 1_555 1_555
C13 C14 1_555 1_555

#END
