
#######################################################################
#
#                 Cambridge Crystallographic Data Centre
#                                CCDC 
#
#######################################################################
#
# If this CIF has been generated from an entry in the Cambridge 
# Structural Database, then it will include bibliographic, chemical, 
# crystal, experimental, refinement or atomic coordinate data resulting 
# from the CCDC's data processing and validation procedures.
#
#######################################################################

data_YARMOW
_chemical_formula_moiety         'C16 H14 N2 O1'
_chemical_name_systematic        
1-methyl-3-(4-methylphenyl)quinoxalin-2(1H)-one
_symmetry_cell_setting           orthorhombic
_symmetry_space_group_name_H-M   'P n a 21'
_symmetry_Int_Tables_number      33
_space_group_name_Hall           'P 2c -2n'
loop_
_symmetry_equiv_pos_site_id
_symmetry_equiv_pos_as_xyz
1 x,y,z
2 -x,-y,1/2+z
3 1/2+x,1/2-y,z
4 1/2-x,1/2+y,1/2+z
_cell_length_a                   9.9288(5)
_cell_length_b                   26.7988(15)
_cell_length_c                   4.7384(2)
_cell_angle_alpha                90
_cell_angle_beta                 90
_cell_angle_gamma                90
_cell_volume                     1260.79
_exptl_crystal_colour            colorless
_exptl_crystal_description       block
_cell_formula_units_Z            4
loop_
_atom_site_label
_atom_site_type_symbol
_atom_site_fract_x
_atom_site_fract_y
_atom_site_fract_z
N1 N 0.4308(2) 0.29615(8) 0.7865(5)
O1 O 0.5930(2) 0.28091(7) 0.4641(6)
C1 C 0.3468(2) 0.32916(9) 0.9305(6)
N2 N 0.4515(2) 0.39742(8) 0.6718(4)
C2 C 0.2524(3) 0.31361(12) 1.1319(7)
H1 H 0.2437 0.2799 1.1750
C3 C 0.1735(3) 0.34800(12) 1.2644(7)
H2 H 0.1108 0.3375 1.3976
C4 C 0.1853(3) 0.39886(12) 1.2032(7)
H3 H 0.1311 0.4220 1.2953
C5 C 0.2771(3) 0.41425(10) 1.0073(6)
H4 H 0.2849 0.4481 0.9665
C6 C 0.3594(2) 0.38010(9) 0.8673(6)
C7 C 0.5240(3) 0.31154(10) 0.5920(6)
C8 C 0.5307(2) 0.36668(9) 0.5420(5)
C9 C 0.6277(2) 0.38788(9) 0.3367(5)
C10 C 0.7351(3) 0.36177(10) 0.2212(7)
H5 H 0.7486 0.3286 0.2724
C11 C 0.8228(3) 0.38395(10) 0.0312(7)
H6 H 0.8939 0.3654 -0.0420
C12 C 0.8068(2) 0.43313(10) -0.0520(5)
C13 C 0.7001(3) 0.45954(10) 0.0626(6)
H7 H 0.6868 0.4926 0.0102
C14 C 0.6127(2) 0.43753(9) 0.2543(6)
H8 H 0.5425 0.4563 0.3294
C15 C 0.9022(3) 0.45646(12) -0.2618(7)
H9 H 0.8754 0.4475 -0.4497
H10 H 0.9919 0.4447 -0.2271
H11 H 0.8998 0.4921 -0.2422
C16 C 0.4188(4) 0.24225(10) 0.8402(9)
H12 H 0.3313 0.2310 0.7822
H13 H 0.4305 0.2359 1.0380
H14 H 0.4867 0.2247 0.7353
loop_
_geom_bond_atom_site_label_1
_geom_bond_atom_site_label_2
_geom_bond_site_symmetry_1
_geom_bond_site_symmetry_2
N1 C1 1_555 1_555
O1 C7 1_555 1_555
C1 C2 1_555 1_555
N2 C6 1_555 1_555
C2 H1 1_555 1_555
C3 C2 1_555 1_555
H2 C3 1_555 1_555
C4 C3 1_555 1_555
H3 C4 1_555 1_555
C5 C4 1_555 1_555
H4 C5 1_555 1_555
C6 C1 1_555 1_555
C7 N1 1_555 1_555
C8 N2 1_555 1_555
C9 C8 1_555 1_555
C10 C9 1_555 1_555
H5 C10 1_555 1_555
C11 C10 1_555 1_555
H6 C11 1_555 1_555
C12 C11 1_555 1_555
C13 C12 1_555 1_555
H7 C13 1_555 1_555
C14 C9 1_555 1_555
H8 C14 1_555 1_555
C15 C12 1_555 1_555
H9 C15 1_555 1_555
H10 C15 1_555 1_555
H11 C15 1_555 1_555
C16 N1 1_555 1_555
H12 C16 1_555 1_555
H13 C16 1_555 1_555
H14 C16 1_555 1_555
C5 C6 1_555 1_555
C7 C8 1_555 1_555
C13 C14 1_555 1_555

#END
