
#######################################################################
#
#                 Cambridge Crystallographic Data Centre
#                                CCDC 
#
#######################################################################
#
# If this CIF has been generated from an entry in the Cambridge 
# Structural Database, then it will include bibliographic, chemical, 
# crystal, experimental, refinement or atomic coordinate data resulting 
# from the CCDC's data processing and validation procedures.
#
#######################################################################

data_YARNEN
_chemical_formula_moiety         'C42 H24 N12 O6,C6 H14,C1 H1 Cl3'
_chemical_name_systematic        
'3,5,8,10,13,15-hexaoxa-4,9,14(3,6)-tritetrazina-1,2,6,7,11,12(1,4)-hexabenzenacyclopentadecaphane chloroform hexane solvate'
_symmetry_cell_setting           monoclinic
_symmetry_space_group_name_H-M   'P 21/c'
_symmetry_Int_Tables_number      14
_space_group_name_Hall           '-P 2ybc'
loop_
_symmetry_equiv_pos_site_id
_symmetry_equiv_pos_as_xyz
1 x,y,z
2 -x,1/2+y,1/2-z
3 -x,-y,-z
4 x,1/2-y,1/2+z
_cell_length_a                   13.024(3)
_cell_length_b                   26.334(5)
_cell_length_c                   29.969(6)
_cell_angle_alpha                90
_cell_angle_beta                 101.74(3)
_cell_angle_gamma                90
_cell_volume                     10063.6
_exptl_crystal_colour            red
_exptl_crystal_description       plate
_cell_formula_units_Z            8
loop_
_atom_site_label
_atom_site_type_symbol
_atom_site_fract_x
_atom_site_fract_y
_atom_site_fract_z
O1 O 0.5838(4) 0.85956(17) 0.83419(18)
O2 O 0.5838(4) 0.66298(16) 0.83998(18)
O3 O 0.2095(4) 0.46628(17) 0.57541(18)
O4 O 0.0655(4) 0.56571(17) 0.42660(18)
O5 O 0.0781(4) 0.94017(16) 0.42215(16)
O6 O 0.1839(4) 1.04671(17) 0.56991(18)
N1 N 0.6226(4) 0.7883(2) 0.8735(2)
N2 N 0.6220(5) 0.7364(2) 0.8747(2)
N3 N 0.5419(5) 0.7344(2) 0.7964(2)
N4 N 0.5409(5) 0.7855(2) 0.7944(2)
N5 N 0.1130(5) 0.4671(2) 0.5035(2)
N6 N 0.0763(5) 0.4923(2) 0.4652(2)
N7 N 0.1873(4) 0.5624(2) 0.4938(2)
N8 N 0.2225(5) 0.5368(2) 0.5319(2)
N9 N 0.0652(5) 1.0137(2) 0.4588(2)
N10 N 0.0928(5) 1.0415(2) 0.4966(2)
N11 N 0.2240(4) 0.9807(2) 0.5263(2)
N12 N 0.1998(4) 0.9532(2) 0.4888(2)
C1 C 0.5818(5) 0.8082(2) 0.8327(2)
C2 C 0.5821(5) 0.7136(2) 0.8355(2)
C3 C 0.5299(6) 0.6359(3) 0.8003(3)
C4 C 0.5830(6) 0.6198(3) 0.7676(3)
H1 H 0.6534 0.6278 0.7699
C5 C 0.5305(6) 0.5915(3) 0.7314(3)
H2 H 0.5665 0.5800 0.7096
C6 C 0.4261(5) 0.5801(2) 0.7269(3)
C7 C 0.3727(6) 0.5960(2) 0.7602(3)
H3 H 0.3023 0.5878 0.7579
C8 C 0.4263(6) 0.6246(2) 0.7973(3)
H4 H 0.3915 0.6357 0.8197
C9 C 0.3696(6) 0.5502(2) 0.6867(3)
C10 C 0.4213(6) 0.5114(3) 0.6664(3)
H5 H 0.4915 0.5043 0.6781
C11 C 0.3679(6) 0.4848(3) 0.6299(3)
H6 H 0.4018 0.4600 0.6162
C12 C 0.2635(6) 0.4952(2) 0.6135(3)
C13 C 0.2109(7) 0.5323(3) 0.6326(3)
H7 H 0.1407 0.5390 0.6203
C14 C 0.2616(6) 0.5591(3) 0.6691(3)
H8 H 0.2256 0.5832 0.6826
C15 C 0.1806(5) 0.4915(3) 0.5372(3)
C16 C 0.1116(5) 0.5404(2) 0.4647(3)
C17 C 0.0790(6) 0.6202(3) 0.4303(3)
C18 C 0.1403(6) 0.6419(3) 0.4037(3)
H9 H 0.1749 0.6220 0.3858
C19 C 0.1497(5) 0.6937(3) 0.4041(3)
H10 H 0.1934 0.7093 0.3872
C20 C 0.0924(5) 0.7239(3) 0.4303(3)
C21 C 0.0315(6) 0.6998(3) 0.4553(3)
H11 H -0.0052 0.7193 0.4727
C22 C 0.0215(6) 0.6474(3) 0.4559(3)
H12 H -0.0217 0.6315 0.4728
C23 C 0.0998(5) 0.7815(3) 0.4310(3)
C24 C 0.1310(5) 0.8089(2) 0.3949(3)
H13 H 0.1537 0.7914 0.3718
C25 C 0.1277(5) 0.8608(3) 0.3942(3)
H14 H 0.1482 0.8786 0.3707
C26 C 0.0946(5) 0.8862(3) 0.4280(3)
C27 C 0.0664(5) 0.8624(3) 0.4641(3)
H15 H 0.0433 0.8806 0.4868
C28 C 0.0738(5) 0.8098(3) 0.4655(3)
H16 H 0.0604 0.7930 0.4910
C29 C 0.1153(5) 0.9694(3) 0.4597(2)
C30 C 0.1667(5) 1.0220(3) 0.5304(3)
C31 C 0.2406(5) 1.0196(2) 0.6087(2)
C32 C 0.3345(6) 1.0376(3) 0.6306(3)
H17 H 0.3623 1.0671 0.6208
C33 C 0.3875(6) 1.0115(2) 0.6673(2)
H18 H 0.4519 1.0238 0.6827
C34 C 0.3481(5) 0.9666(2) 0.6828(2)
C35 C 0.2501(6) 0.9504(2) 0.6602(3)
H19 H 0.2210 0.9213 0.6701
C36 C 0.1953(6) 0.9766(3) 0.6234(3)
H20 H 0.1291 0.9659 0.6086
C37 C 0.4121(5) 0.9379(3) 0.7223(3)
C38 C 0.5182(5) 0.9372(2) 0.7305(2)
H21 H 0.5526 0.9550 0.7111
C39 C 0.5783(6) 0.9104(2) 0.7675(3)
H22 H 0.6512 0.9102 0.7729
C40 C 0.5248(6) 0.8852(2) 0.7948(3)
C41 C 0.4158(6) 0.8844(2) 0.7886(3)
H23 H 0.3822 0.8667 0.8083
C42 C 0.3591(5) 0.9116(2) 0.7515(2)
H24 H 0.2862 0.9122 0.7462
O7 O 0.5748(4) 0.35453(17) 0.58637(17)
O8 O 0.5928(4) 0.15752(17) 0.58941(17)
O9 O 0.2120(4) -0.04204(17) 0.32993(18)
O10 O 0.0583(4) 0.05123(17) 0.17889(18)
O11 O 0.0874(4) 0.42485(17) 0.17183(18)
O12 O 0.1895(4) 0.53602(17) 0.31603(18)
N13 N 0.6191(4) 0.2823(2) 0.6251(2)
N14 N 0.6246(4) 0.2328(2) 0.6263(2)
N15 N 0.5420(5) 0.2293(2) 0.5465(2)
N16 N 0.5378(5) 0.2811(2) 0.5461(2)
N17 N 0.1105(5) -0.0444(2) 0.2590(2)
N18 N 0.0723(4) -0.0211(2) 0.2199(2)
N19 N 0.1832(4) 0.0487(2) 0.2440(2)
N20 N 0.2265(5) 0.0255(2) 0.2833(2)
N21 N 0.0737(4) 0.4997(2) 0.2063(2)
N22 N 0.1022(4) 0.5283(2) 0.2432(2)
N23 N 0.2298(5) 0.4672(2) 0.2764(2)
N24 N 0.2014(5) 0.4385(2) 0.2390(2)
C43 C 0.5765(6) 0.3031(2) 0.5857(3)
C44 C 0.5856(5) 0.2090(3) 0.5875(3)
C45 C 0.5371(6) 0.1299(3) 0.5504(3)
C46 C 0.5931(6) 0.1106(3) 0.5205(3)
H25 H 0.6647 0.1168 0.5247
C47 C 0.5431(6) 0.0821(3) 0.4840(3)
H26 H 0.5809 0.0684 0.4637
C48 C 0.4332(6) 0.0737(2) 0.4775(3)
C49 C 0.3812(6) 0.0945(3) 0.5093(3)
H27 H 0.3093 0.0895 0.5058
C50 C 0.4334(6) 0.1222(2) 0.5458(3)
H28 H 0.3974 0.1354 0.5670
C51 C 0.3771(6) 0.0439(2) 0.4380(3)
C52 C 0.4225(6) 0.0029(3) 0.4208(3)
H29 H 0.4902 -0.0068 0.4347
C53 C 0.3712(6) -0.0242(3) 0.3837(3)
H30 H 0.4052 -0.0500 0.3712
C54 C 0.2703(7) -0.0126(3) 0.3658(3)
C55 C 0.2183(6) 0.0271(3) 0.3828(3)
H31 H 0.1483 0.0341 0.3705
C56 C 0.2728(6) 0.0550(2) 0.4178(3)
H32 H 0.2399 0.0823 0.4286
C57 C 0.1797(6) -0.0193(2) 0.2883(3)
C58 C 0.1036(6) 0.0268(3) 0.2161(3)
C59 C 0.0712(6) 0.1051(3) 0.1794(3)
C60 C 0.1366(5) 0.1269(3) 0.1540(3)
H33 H 0.1754 0.1071 0.1377
C61 C 0.1423(6) 0.1795(3) 0.1537(3)
H34 H 0.1827 0.1949 0.1353
C62 C 0.0913(5) 0.2096(3) 0.1792(3)
C63 C 0.0266(6) 0.1848(3) 0.2051(3)
H35 H -0.0115 0.2040 0.2220
C64 C 0.0195(5) 0.1338(3) 0.2055(3)
H36 H -0.0210 0.1181 0.2238
C65 C 0.1021(5) 0.2660(2) 0.1796(3)
C66 C 0.1310(5) 0.2924(3) 0.1442(3)
H37 H 0.1510 0.2744 0.1207
C67 C 0.1309(6) 0.3449(3) 0.1432(3)
H38 H 0.1518 0.3619 0.1194
C68 C 0.1003(6) 0.3714(3) 0.1769(2)
C69 C 0.0711(6) 0.3471(3) 0.2133(3)
H39 H 0.0500 0.3656 0.2363
C70 C 0.0740(6) 0.2941(3) 0.2146(3)
H40 H 0.0568 0.2773 0.2394
C71 C 0.1219(6) 0.4545(3) 0.2076(3)
C72 C 0.1708(6) 0.5091(2) 0.2779(3)
C73 C 0.2425(6) 0.5107(2) 0.3556(3)
C74 C 0.3424(6) 0.5253(3) 0.3754(3)
H41 H 0.3751 0.5516 0.3630
C75 C 0.3933(6) 0.5007(2) 0.4139(3)
H42 H 0.4589 0.5125 0.4285
C76 C 0.3514(7) 0.4594(2) 0.4319(3)
C77 C 0.2485(6) 0.4461(3) 0.4113(3)
H43 H 0.2162 0.4194 0.4234
C78 C 0.1932(6) 0.4714(3) 0.3734(3)
H44 H 0.1248 0.4622 0.3602
C79 C 0.4066(6) 0.4316(2) 0.4725(3)
C80 C 0.5171(6) 0.4275(2) 0.4800(3)
H45 H 0.5538 0.4427 0.4600
C81 C 0.5705(6) 0.4005(2) 0.5174(3)
H46 H 0.6429 0.3967 0.5220
C82 C 0.5166(5) 0.3795(2) 0.5476(2)
C83 C 0.4098(6) 0.3842(2) 0.5416(3)
H47 H 0.3741 0.3705 0.5627
C84 C 0.3573(6) 0.4092(2) 0.5043(3)
H48 H 0.2847 0.4114 0.4998
C85 C 0.7323(8) 0.6612(4) 0.6693(4)
H49 H 0.7294 0.6248 0.6690
H50 H 0.7108 0.6736 0.6961
H51 H 0.8027 0.6721 0.6696
C86 C 0.6601(8) 0.6817(3) 0.6276(4)
H52 H 0.6832 0.6694 0.6008
H53 H 0.6653 0.7185 0.6278
C87 C 0.5449(8) 0.6668(4) 0.6241(3)
H54 H 0.5241 0.6770 0.6522
H55 H 0.5398 0.6301 0.6222
C88 C 0.4658(8) 0.6894(3) 0.5839(3)
H56 H 0.4695 0.7261 0.5862
H57 H 0.4870 0.6798 0.5559
C89 C 0.3566(8) 0.6739(4) 0.5808(4)
H58 H 0.3339 0.6839 0.6084
H59 H 0.3518 0.6372 0.5784
C90 C 0.2829(10) 0.6978(5) 0.5393(4)
H60 H 0.3213 0.7045 0.5158
H61 H 0.2550 0.7291 0.5483
H62 H 0.2263 0.6748 0.5280
C91 C 0.7298(8) 0.1538(4) 0.4210(4)
H63 H 0.7288 0.1174 0.4203
H64 H 0.7092 0.1655 0.4483
H65 H 0.7994 0.1657 0.4207
C92 C 0.6527(7) 0.1747(3) 0.3789(3)
H66 H 0.6545 0.2115 0.3799
H67 H 0.6764 0.1642 0.3516
C93 C 0.5409(7) 0.1574(3) 0.3753(3)
H68 H 0.5169 0.1669 0.4027
H69 H 0.5374 0.1207 0.3726
C94 C 0.4700(8) 0.1811(3) 0.3343(3)
H70 H 0.4735 0.2178 0.3369
H71 H 0.4938 0.1715 0.3068
C95 C 0.3582(9) 0.1640(4) 0.3308(4)
H72 H 0.3356 0.1731 0.3586
H73 H 0.3555 0.1272 0.3282
C96 C 0.2816(9) 0.1870(5) 0.2900(4)
H74 H 0.3023 0.1774 0.2622
H75 H 0.2826 0.2234 0.2927
H76 H 0.2121 0.1748 0.2897
Cl1 Cl 0.1751(2) 0.68716(13) 0.76397(13)
Cl2 Cl 0.3016(3) 0.71240(16) 0.70024(14)
Cl3 Cl 0.2244(3) 0.79033(14) 0.75176(17)
C97 C 0.2641(9) 0.7295(4) 0.7527(4)
H77 H 0.3267 0.7265 0.7770
Cl4 Cl 0.7724(3) 0.71162(14) 0.49891(17)
Cl5 Cl 0.8214(2) 0.81467(12) 0.48299(12)
Cl6 Cl 0.7030(3) 0.79096(16) 0.55042(15)
C98 C 0.7306(7) 0.7727(4) 0.4980(4)
H78 H 0.6655 0.7753 0.4750
loop_
_geom_bond_atom_site_label_1
_geom_bond_atom_site_label_2
_geom_bond_site_symmetry_1
_geom_bond_site_symmetry_2
O1 C1 1_555 1_555
O2 C2 1_555 1_555
O3 C12 1_555 1_555
O4 C16 1_555 1_555
O5 C26 1_555 1_555
O6 C30 1_555 1_555
N1 N2 1_555 1_555
N2 C2 1_555 1_555
N3 N4 1_555 1_555
N4 C1 1_555 1_555
N5 N6 1_555 1_555
N6 C16 1_555 1_555
N7 N8 1_555 1_555
N8 C15 1_555 1_555
N9 N10 1_555 1_555
N10 C30 1_555 1_555
N11 N12 1_555 1_555
N12 C29 1_555 1_555
C1 N1 1_555 1_555
C2 N3 1_555 1_555
C3 O2 1_555 1_555
C4 C3 1_555 1_555
H1 C4 1_555 1_555
C5 C4 1_555 1_555
H2 C5 1_555 1_555
C6 C5 1_555 1_555
C7 C6 1_555 1_555
H3 C7 1_555 1_555
C8 C3 1_555 1_555
H4 C8 1_555 1_555
C9 C6 1_555 1_555
C10 C9 1_555 1_555
H5 C10 1_555 1_555
C11 C10 1_555 1_555
H6 C11 1_555 1_555
C12 C11 1_555 1_555
C13 C12 1_555 1_555
H7 C13 1_555 1_555
C14 C9 1_555 1_555
H8 C14 1_555 1_555
C15 O3 1_555 1_555
C16 N7 1_555 1_555
C17 O4 1_555 1_555
C18 C17 1_555 1_555
H9 C18 1_555 1_555
C19 C18 1_555 1_555
H10 C19 1_555 1_555
C20 C19 1_555 1_555
C21 C20 1_555 1_555
H11 C21 1_555 1_555
C22 C17 1_555 1_555
H12 C22 1_555 1_555
C23 C20 1_555 1_555
C24 C23 1_555 1_555
H13 C24 1_555 1_555
C25 C24 1_555 1_555
H14 C25 1_555 1_555
C26 C25 1_555 1_555
C27 C26 1_555 1_555
H15 C27 1_555 1_555
C28 C23 1_555 1_555
H16 C28 1_555 1_555
C29 O5 1_555 1_555
C30 N11 1_555 1_555
C31 O6 1_555 1_555
C32 C31 1_555 1_555
H17 C32 1_555 1_555
C33 C32 1_555 1_555
H18 C33 1_555 1_555
C34 C33 1_555 1_555
C35 C34 1_555 1_555
H19 C35 1_555 1_555
C36 C31 1_555 1_555
H20 C36 1_555 1_555
C37 C34 1_555 1_555
C38 C37 1_555 1_555
H21 C38 1_555 1_555
C39 C38 1_555 1_555
H22 C39 1_555 1_555
C40 O1 1_555 1_555
C41 C40 1_555 1_555
H23 C41 1_555 1_555
C42 C37 1_555 1_555
H24 C42 1_555 1_555
O7 C43 1_555 1_555
O8 C44 1_555 1_555
O9 C54 1_555 1_555
O10 C58 1_555 1_555
O11 C68 1_555 1_555
O12 C72 1_555 1_555
N13 N14 1_555 1_555
N14 C44 1_555 1_555
N15 N16 1_555 1_555
N16 C43 1_555 1_555
N17 N18 1_555 1_555
N18 C58 1_555 1_555
N19 N20 1_555 1_555
N20 C57 1_555 1_555
N21 N22 1_555 1_555
N22 C72 1_555 1_555
N23 N24 1_555 1_555
N24 C71 1_555 1_555
C43 N13 1_555 1_555
C44 N15 1_555 1_555
C45 O8 1_555 1_555
C46 C45 1_555 1_555
H25 C46 1_555 1_555
C47 C46 1_555 1_555
H26 C47 1_555 1_555
C48 C47 1_555 1_555
C49 C48 1_555 1_555
H27 C49 1_555 1_555
C50 C45 1_555 1_555
H28 C50 1_555 1_555
C51 C48 1_555 1_555
C52 C51 1_555 1_555
H29 C52 1_555 1_555
C53 C52 1_555 1_555
H30 C53 1_555 1_555
C54 C53 1_555 1_555
C55 C54 1_555 1_555
H31 C55 1_555 1_555
C56 C51 1_555 1_555
H32 C56 1_555 1_555
C57 O9 1_555 1_555
C58 N19 1_555 1_555
C59 O10 1_555 1_555
C60 C59 1_555 1_555
H33 C60 1_555 1_555
C61 C60 1_555 1_555
H34 C61 1_555 1_555
C62 C61 1_555 1_555
C63 C62 1_555 1_555
H35 C63 1_555 1_555
C64 C59 1_555 1_555
H36 C64 1_555 1_555
C65 C62 1_555 1_555
C66 C65 1_555 1_555
H37 C66 1_555 1_555
C67 C66 1_555 1_555
H38 C67 1_555 1_555
C68 C67 1_555 1_555
C69 C68 1_555 1_555
H39 C69 1_555 1_555
C70 C65 1_555 1_555
H40 C70 1_555 1_555
C71 O11 1_555 1_555
C72 N23 1_555 1_555
C73 O12 1_555 1_555
C74 C73 1_555 1_555
H41 C74 1_555 1_555
C75 C74 1_555 1_555
H42 C75 1_555 1_555
C76 C75 1_555 1_555
C77 C76 1_555 1_555
H43 C77 1_555 1_555
C78 C73 1_555 1_555
H44 C78 1_555 1_555
C79 C76 1_555 1_555
C80 C79 1_555 1_555
H45 C80 1_555 1_555
C81 C80 1_555 1_555
H46 C81 1_555 1_555
C82 O7 1_555 1_555
C83 C82 1_555 1_555
H47 C83 1_555 1_555
C84 C79 1_555 1_555
H48 C84 1_555 1_555
C85 H49 1_555 1_555
H50 C85 1_555 1_555
H51 C85 1_555 1_555
C86 C85 1_555 1_555
H52 C86 1_555 1_555
H53 C86 1_555 1_555
C87 C86 1_555 1_555
H54 C87 1_555 1_555
H55 C87 1_555 1_555
C88 C87 1_555 1_555
H56 C88 1_555 1_555
H57 C88 1_555 1_555
C89 C88 1_555 1_555
H58 C89 1_555 1_555
H59 C89 1_555 1_555
C90 C89 1_555 1_555
H60 C90 1_555 1_555
H61 C90 1_555 1_555
H62 C90 1_555 1_555
C91 H63 1_555 1_555
H64 C91 1_555 1_555
H65 C91 1_555 1_555
C92 C91 1_555 1_555
H66 C92 1_555 1_555
H67 C92 1_555 1_555
C93 C92 1_555 1_555
H68 C93 1_555 1_555
H69 C93 1_555 1_555
C94 C93 1_555 1_555
H70 C94 1_555 1_555
H71 C94 1_555 1_555
C95 C94 1_555 1_555
H72 C95 1_555 1_555
H73 C95 1_555 1_555
C96 C95 1_555 1_555
H74 C96 1_555 1_555
H75 C96 1_555 1_555
H76 C96 1_555 1_555
Cl1 C97 1_555 1_555
Cl2 C97 1_555 1_555
Cl3 C97 1_555 1_555
C97 H77 1_555 1_555
Cl4 C98 1_555 1_555
Cl5 C98 1_555 1_555
Cl6 C98 1_555 1_555
C98 H78 1_555 1_555
N5 C15 1_555 1_555
N9 C29 1_555 1_555
C7 C8 1_555 1_555
C13 C14 1_555 1_555
C21 C22 1_555 1_555
C27 C28 1_555 1_555
C35 C36 1_555 1_555
C39 C40 1_555 1_555
C41 C42 1_555 1_555
N17 C57 1_555 1_555
N21 C71 1_555 1_555
C49 C50 1_555 1_555
C55 C56 1_555 1_555
C63 C64 1_555 1_555
C69 C70 1_555 1_555
C77 C78 1_555 1_555
C81 C82 1_555 1_555
C83 C84 1_555 1_555

#END
