
#######################################################################
#
#                 Cambridge Crystallographic Data Centre
#                                CCDC 
#
#######################################################################
#
# If this CIF has been generated from an entry in the Cambridge 
# Structural Database, then it will include bibliographic, chemical, 
# crystal, experimental, refinement or atomic coordinate data resulting 
# from the CCDC's data processing and validation procedures.
#
#######################################################################

data_YARNAJ
_chemical_formula_moiety         'C36 H18 N12 O6,C3 H6 O1'
_chemical_name_systematic        
'2,11,16,25,30,39-hexaoxa-13,14,27,28,41,42,43,44,47,48,51,52-dodecaazadecacyclo[38.2.2.2^12,15^.2^26,29^.1^3,7^.1^6,10^.1^17,21^.1^20,24^.1^31,35^.1^34,38^]tetrapentaconta-1(42),3(54),4,6,8,10(53),12,14,17(50),18,20,22,24(49),26,28,31(46),32,34,36,38(45),40,43,47,51-tetracosaene acetone unknown solvate'
_symmetry_cell_setting           monoclinic
_symmetry_space_group_name_H-M   'P 21/c'
_symmetry_Int_Tables_number      14
_space_group_name_Hall           '-P 2ybc'
loop_
_symmetry_equiv_pos_site_id
_symmetry_equiv_pos_as_xyz
1 x,y,z
2 -x,1/2+y,1/2-z
3 -x,-y,-z
4 x,1/2-y,1/2+z
_cell_length_a                   27.360(6)
_cell_length_b                   6.8093(14)
_cell_length_c                   25.381(5)
_cell_angle_alpha                90
_cell_angle_beta                 112.41(3)
_cell_angle_gamma                90
_cell_volume                     4371.44
_exptl_crystal_colour            red
_exptl_crystal_description       block
_cell_formula_units_Z            4
loop_
_atom_site_label
_atom_site_type_symbol
_atom_site_fract_x
_atom_site_fract_y
_atom_site_fract_z
O1 O 0.48977(10) 0.4906(5) 0.38887(13)
O2 O 0.57860(12) 0.0683(5) 0.57050(13)
N1 N 0.50704(14) 0.2160(5) 0.50796(15)
N2 N 0.48428(13) 0.3238(5) 0.46216(15)
N3 N 0.58897(14) 0.2378(6) 0.49734(17)
O3 O 0.6399(3) 0.8400(11) 0.2031(3)
C1 C 0.55836(17) 0.1785(6) 0.52340(17)
N4 N 0.56650(14) 0.3462(6) 0.45072(16)
O4 O 0.97348(14) 0.1548(7) 0.55685(15)
C2 C 0.51531(15) 0.3837(6) 0.43554(18)
C3 C 0.52106(15) 0.5838(7) 0.36253(18)
O5 O 0.8437(3) 0.7669(12) 0.2861(4)
C4 C 0.52476(15) 0.4973(8) 0.31659(19)
H1 H 0.5087 0.3765 0.3039
C5 C 0.55353(15) 0.5922(8) 0.28747(18)
N5 N 0.89170(16) 0.0461(7) 0.54649(19)
C6 C 0.9430(2) 0.0381(8) 0.57321(19)
N6 N 0.8638(2) -0.0682(8) 0.5671(2)
C7 C 0.57740(16) 0.7723(9) 0.30830(18)
N7 N 0.97017(18) -0.0837(8) 0.61472(19)
C8 C 0.61136(18) 0.7806(13) 0.2344(2)
C9 C 0.54367(18) 0.7640(8) 0.38370(19)
H2 H 0.5398 0.8190 0.4154
N8 N 0.9430(2) -0.1970(7) 0.63465(19)
C10 C 0.60684(18) 0.8718(11) 0.2802(2)
H3 H 0.6222 0.9937 0.2926
C11 C 0.7904(4) 0.7717(16) 0.2634(4)
C12 C 0.6928(4) 0.8062(15) 0.2230(4)
C13 C 0.55964(18) 0.5110(9) 0.2394(2)
H4 H 0.5439 0.3910 0.2251
C14 C 0.6316(2) 0.0241(9) 0.5886(2)
N9 N 0.7183(4) 0.9298(13) 0.2045(4)
N10 N 0.7708(4) 0.9123(14) 0.2258(4)
C15 C 0.5879(2) 0.6048(12) 0.2139(2)
H5 H 0.5915 0.5494 0.1821
N11 N 0.7639(3) 0.6302(13) 0.2753(4)
N12 N 0.7117(3) 0.6511(13) 0.2541(3)
C16 C 0.8908(2) -0.1733(8) 0.6123(2)
C17 C 0.5716(2) 0.8584(9) 0.3570(2)
H6 H 0.5870 0.9796 0.3705
O6 O 0.86495(19) -0.2870(7) 0.6361(2)
C18 C 0.7034(3) -0.1920(8) 0.5928(3)
C19 C 0.7358(2) -0.0468(8) 0.6250(2)
C20 C 0.6444(3) -0.1508(11) 0.5727(3)
H7 H 0.6191 -0.2400 0.5508
C21 C 0.8690(4) 0.7159(17) 0.3385(4)
C22 C 0.9439(4) 0.3027(16) 0.5151(4)
C23 C 0.6690(2) 0.1550(10) 0.6228(2)
H8 H 0.6575 0.2712 0.6335
C24 C 0.9509(4) 0.3051(16) 0.4638(4)
H9 H 0.9728 0.2124 0.4569
C25 C 0.8656(4) 0.7297(15) 0.3907(4)
H10 H 0.8451 0.8262 0.3982
C26 C 0.9251(3) 0.4475(16) 0.4217(3)
C27 C 0.7179(4) -0.3617(11) 0.5768(4)
H11 H 0.6928 -0.4549 0.5569
C28 C 0.8073(3) -0.2507(11) 0.6219(3)
C29 C 0.7208(3) 0.1214(10) 0.6409(2)
H12 H 0.7453 0.2115 0.6636
C30 C 0.8874(4) 0.5873(14) 0.4846(3)
H13 H 0.8647 0.6769 0.4912
C31 C 0.8941(4) 0.5934(14) 0.4326(3)
C32 C 0.9138(4) 0.4505(12) 0.5268(3)
H14 H 0.9114 0.4572 0.5623
C33 C 0.7945(3) -0.0889(12) 0.6401(3)
H15 H 0.8203 -0.0007 0.6618
C34 C 0.7727(4) -0.3969(13) 0.5909(4)
H16 H 0.7848 -0.5116 0.5801
C35 C 0.9294(4) 0.4426(16) 0.3688(3)
H17 H 0.9515 0.3505 0.3621
C36 C 0.9014(3) 0.5724(15) 0.3263(4)
H18 H 0.9036 0.5667 0.2906
C49 C 0.0645(3) 0.6854(9) 0.2953(3)
C50 C 0.0840(3) 0.5829(8) 0.2573(2)
H25 H 0.1191 0.6275 0.2637
H26 H 0.0612 0.6088 0.2185
H27 H 0.0847 0.4443 0.2645
O9 O 0.0913(2) 0.8074(9) 0.3305(3)
C51 C 0.0133(3) 0.6337(8) 0.2935(2)
H28 H -0.0119 0.6422 0.2549
H29 H 0.0033 0.7223 0.3171
H30 H 0.0140 0.5019 0.3072
C37? C 0.8758(3) 0.4321(17) 0.3154(5)
H19? H 0.8647 0.3957 0.2773
C38? C 0.8687(3) 0.6243(18) 0.3296(4)
C39? C 0.8847(3) 0.6837(18) 0.3861(4)
H20? H 0.8799 0.8122 0.3956
C40? C 0.9084(3) 0.5417(15) 0.4283(5)
C41? C 0.9160(3) 0.3459(15) 0.4152(4)
C42? C 0.8993(3) 0.2951(16) 0.3576(4)
H21? H 0.9040 0.1672 0.3476
C43? C 0.9392(4) 0.2018(17) 0.4567(4)
H22? H 0.9442 0.0721 0.4484
C44? C 0.9537(5) 0.274(2) 0.5109(6)
C45? C 0.9476(5) 0.4630(18) 0.5269(6)
H23? H 0.9589 0.4969 0.5652
C46? C 0.9246(4) 0.6001(19) 0.4850(5)
H24? H 0.9199 0.7289 0.4943
N13? N 0.7721(5) 1.0066(17) 0.2349(5)
N14? N 0.7120(4) 0.7510(17) 0.2656(5)
O7? O 0.8442(5) 0.8612(14) 0.2958(5)
C47? C 0.7910(5) 0.8654(19) 0.2723(6)
N15? N 0.7641(4) 0.7280(16) 0.2876(5)
C48? C 0.6930(5) 0.905(2) 0.2327(5)
N16? N 0.7208(5) 1.0282(17) 0.2136(5)
O8? O 0.6419(4) 0.9448(14) 0.2131(4)
loop_
_geom_bond_atom_site_label_1
_geom_bond_atom_site_label_2
_geom_bond_site_symmetry_1
_geom_bond_site_symmetry_2
O1 C2 1_555 1_555
O2 C1 1_555 1_555
N1 N2 1_555 1_555
N2 C2 1_555 1_555
N3 C1 1_555 1_555
O3 C8 1_555 1_555
C1 N1 1_555 1_555
N4 N3 1_555 1_555
O4 C6 1_555 1_555
C2 N4 1_555 1_555
C3 O1 1_555 1_555
O5 C11 1_555 1_555
C4 C3 1_555 1_555
H1 C4 1_555 1_555
C5 C4 1_555 1_555
N5 C6 1_555 1_555
C6 N7 1_555 1_555
N6 N5 1_555 1_555
C7 C5 1_555 1_555
N7 N8 1_555 1_555
C8 C10 1_555 1_555
C9 C3 1_555 1_555
H2 C9 1_555 1_555
N8 C16 1_555 1_555
C10 C7 1_555 1_555
H3 C10 1_555 1_555
C11 N10 1_555 1_555
C12 O3 1_555 1_555
C13 C5 1_555 1_555
H4 C13 1_555 1_555
C14 O2 1_555 1_555
N9 C12 1_555 1_555
N10 N9 1_555 1_555
C15 C8 1_555 1_555
H5 C15 1_555 1_555
N11 C11 1_555 1_555
N12 C12 1_555 1_555
C16 N6 1_555 1_555
C17 C7 1_555 1_555
H6 C17 1_555 1_555
O6 C16 1_555 1_555
C18 C19 1_555 1_555
C19 C29 1_555 1_555
C20 C14 1_555 1_555
H7 C20 1_555 1_555
C21 O5 1_555 1_555
C22 O4 1_555 1_555
C23 C14 1_555 1_555
H8 C23 1_555 1_555
C24 C22 1_555 1_555
H9 C24 1_555 1_555
C25 C21 1_555 1_555
H10 C25 1_555 1_555
C26 C24 1_555 1_555
C27 C18 1_555 1_555
H11 C27 1_555 1_555
C28 O6 1_555 1_555
C29 C23 1_555 1_555
H12 C29 1_555 1_555
C30 H13 1_555 1_555
C31 C25 1_555 1_555
C32 C22 1_555 1_555
H14 C32 1_555 1_555
C33 C19 1_555 1_555
H15 C33 1_555 1_555
C34 C27 1_555 1_555
H16 C34 1_555 1_555
C35 C26 1_555 1_555
H17 C35 1_555 1_555
C36 C21 1_555 1_555
H18 C36 1_555 1_555
C49 C50 1_555 1_555
C50 H25 1_555 1_555
H26 C50 1_555 1_555
H27 C50 1_555 1_555
O9 C49 1_555 1_555
C51 C49 1_555 1_555
H28 C51 1_555 1_555
H29 C51 1_555 1_555
H30 C51 1_555 1_555
C9 C17 1_555 1_555
C13 C15 1_555 1_555
N11 N12 1_555 1_555
C18 C20 1_555 1_555
C26 C31 1_555 1_555
C28 C33 1_555 1_555
C28 C34 1_555 1_555
C30 C31 1_555 1_555
C30 C32 1_555 1_555
C35 C36 1_555 1_555

#END
