
#######################################################################
#
#                 Cambridge Crystallographic Data Centre
#                                CCDC 
#
#######################################################################
#
# If this CIF has been generated from an entry in the Cambridge 
# Structural Database, then it will include bibliographic, chemical, 
# crystal, experimental, refinement or atomic coordinate data resulting 
# from the CCDC's data processing and validation procedures.
#
#######################################################################

data_YARPIR
_chemical_formula_moiety         'C24 H38 N2 O3,C2 H2 O4,H2 O1'
_chemical_name_systematic        
'4-(1-(Benzylamino)hept-2-enyl)-2,2-dimethyloxazolidine-3-carboxylic acid t-butyl ester oxalic acid solvate monohydrate'
_symmetry_cell_setting           orthorhombic
_symmetry_space_group_name_H-M   'P 21 21 2'
_symmetry_Int_Tables_number      18
_space_group_name_Hall           'P 2 2ab'
loop_
_symmetry_equiv_pos_site_id
_symmetry_equiv_pos_as_xyz
1 x,y,z
2 -x,-y,z
3 1/2+x,1/2-y,-z
4 1/2-x,1/2+y,-z
_cell_length_a                   28.67(4)
_cell_length_b                   10.843(2)
_cell_length_c                   9.198(3)
_cell_angle_alpha                90
_cell_angle_beta                 90
_cell_angle_gamma                90
_cell_volume                     2859.37
_exptl_crystal_colour            colorless
_exptl_crystal_description       prism
_cell_formula_units_Z            4
loop_
_atom_site_label
_atom_site_type_symbol
_atom_site_fract_x
_atom_site_fract_y
_atom_site_fract_z
O1 O -0.0964(2) -0.762(1) -0.4917(4)
O2 O -0.0642(1) -0.7445(7) -0.0721(4)
O3 O -0.1364(1) -0.6934(5) -0.0296(4)
N1 N -0.1121(1) -0.7312(5) -0.2542(5)
N2 N -0.2380(1) -0.7527(4) -0.3611(5)
C1 C -0.0727(2) -0.767(1) -0.3667(5)
C2 C -0.1528(2) -0.7163(5) -0.3406(7)
C3 C -0.1408(2) -0.7126(6) -0.4788(9)
C4 C -0.1949(2) -0.8000(4) -0.2780(6)
C5 C -0.1834(2) -0.9228(5) -0.2906(8)
C6 C -0.1704(2) -1.0153(5) -0.2147(8)
C7 C -0.1647(3) -1.1425(4) -0.186(2)
C8 C -0.1284(4) -1.200(1) -0.114(1)
C9 C -0.1106(4) -1.3141(6) -0.027(1)
C10 C -0.1084(4) -1.359(1) -0.1750(9)
C11 C -0.2790(2) -0.7999(5) -0.2677(9)
C12 C -0.3262(2) -0.7906(6) -0.3465(6)
C13 C -0.3384(2) -0.6544(6) -0.344(1)
C14 C -0.3827(2) -0.6203(7) -0.393(2)
C15 C -0.4134(2) -0.7092(7) -0.4198(9)
C16 C -0.4001(3) -0.8529(9) -0.429(1)
C17 C -0.3564(3) -0.8691(8) -0.405(1)
C18 C -0.0418(2) -0.6633(7) -0.369(1)
C19 C -0.0478(3) -0.882(1) -0.346(2)
C20 C -0.1070(2) -0.7169(6) -0.1215(6)
C21 C -0.0530(2) -0.750(1) 0.0956(7)
C22 C -0.0812(3) -0.830(1) 0.1512(8)
C23 C 0.0010(3) -0.7671(9) 0.077(1)
C24 C -0.0570(4) -0.6420(8) 0.172(2)
H1 H -0.1625 -0.6343 -0.3203
H2 H -0.1408 -0.6296 -0.5120
H3 H -0.1623 -0.7595 -0.5349
H4 H -0.1988 -0.7814 -0.1778
H5 H -0.1860 -0.9471 -0.3895
H6 H -0.1574 -0.9777 -0.1307
H7 H -0.1654 -1.1804 -0.2794
H8 H -0.1918 -1.1652 -0.1333
H9 H -0.1211 -1.1371 -0.0462
H10 H -0.1059 -1.1997 -0.1903
H11 H -0.0817 -1.3048 0.0223
H12 H -0.1324 -1.3533 0.0354
H13 H -0.0998 -1.4433 -0.1750
H14 H -0.1380 -1.3494 -0.2197
H15 H -0.0858 -1.3126 -0.2277
H16 H -0.2423 -0.6673 -0.3432
H17 H -0.2734 -0.8838 -0.2437
H18 H -0.2805 -0.7523 -0.1812
H19 H -0.3168 -0.5946 -0.3098
H20 H -0.3905 -0.5361 -0.4081
H21 H -0.4451 -0.6865 -0.4341
H22 H -0.4216 -0.9172 -0.4487
H23 H -0.3441 -0.9468 -0.4333
H24 H -0.0594 -0.5897 -0.3793
H25 H -0.0208 -0.6710 -0.4480
H26 H -0.0248 -0.6604 -0.2803
H27 H -0.0304 -0.9011 -0.4309
H28 H -0.0696 -0.9468 -0.3278
H29 H -0.0273 -0.8750 -0.2653
H30 H -0.1123 -0.8114 0.1229
H31 H -0.0731 -0.9101 0.1174
H32 H -0.0789 -0.8278 0.2542
H33 H 0.0127 -0.7053 0.0133
H34 H 0.0158 -0.7602 0.1687
H35 H 0.0071 -0.8462 0.0366
H36 H -0.0846 -0.6002 0.1427
H37 H -0.0307 -0.5913 0.1527
H38 H -0.0586 -0.6596 0.2729
O4 O -0.2597(1) -1.0666(3) -0.8851(6)
O5 O -0.2605(1) -0.9995(3) -0.6020(5)
O6 O -0.2473(2) -0.8681(4) -0.9421(4)
O7 O -0.2374(2) -0.7980(3) -0.6510(4)
C25 C -0.2513(2) -0.9299(5) -0.8505(6)
C26 C -0.2484(2) -0.9070(5) -0.6896(6)
H39 H -0.2570 -1.0961 -1.0087
H40 H -0.2435 -0.7907 -0.5049
O8 O -0.2919(2) -1.1100(2) -1.1504(4)
H41 H -0.2990 -1.0024 -1.1720
H42 H -0.261(1) -1.099(5) -1.237(4)
loop_
_geom_bond_atom_site_label_1
_geom_bond_atom_site_label_2
_geom_bond_site_symmetry_1
_geom_bond_site_symmetry_2
O1 C1 1_555 1_555
O2 C20 1_555 1_555
O3 C20 1_555 1_555
O4 C25 1_555 1_555
O5 C26 1_555 1_555
O6 C25 1_555 1_555
O7 C26 1_555 1_555
O8 H41 1_555 1_555
N1 C1 1_555 1_555
N2 C4 1_555 1_555
C1 C18 1_555 1_555
C2 N1 1_555 1_555
C3 O1 1_555 1_555
C4 C2 1_555 1_555
C5 C4 1_555 1_555
C6 C5 1_555 1_555
C7 C6 1_555 1_555
C8 C7 1_555 1_555
C9 C8 1_555 1_555
C10 C9 1_555 1_555
C11 N2 1_555 1_555
C12 C11 1_555 1_555
C13 C12 1_555 1_555
C14 C13 1_555 1_555
C15 C14 1_555 1_555
C16 C15 1_555 1_555
C17 C12 1_555 1_555
C18 H24 1_555 1_555
C19 C1 1_555 1_555
C20 N1 1_555 1_555
C21 O2 1_555 1_555
C22 C21 1_555 1_555
C23 C21 1_555 1_555
C24 C21 1_555 1_555
C25 C26 1_555 1_555
H1 C2 1_555 1_555
H2 C3 1_555 1_555
H3 C3 1_555 1_555
H4 C4 1_555 1_555
H5 C5 1_555 1_555
H6 C6 1_555 1_555
H7 C7 1_555 1_555
H8 C7 1_555 1_555
H9 C8 1_555 1_555
H10 C8 1_555 1_555
H11 C9 1_555 1_555
H12 C9 1_555 1_555
H13 C10 1_555 1_555
H14 C10 1_555 1_555
H15 C10 1_555 1_555
H16 N2 1_555 1_555
H17 C11 1_555 1_555
H18 C11 1_555 1_555
H19 C13 1_555 1_555
H20 C14 1_555 1_555
H21 C15 1_555 1_555
H22 C16 1_555 1_555
H23 C17 1_555 1_555
H25 C18 1_555 1_555
H26 C18 1_555 1_555
H27 C19 1_555 1_555
H28 C19 1_555 1_555
H29 C19 1_555 1_555
H30 C22 1_555 1_555
H31 C22 1_555 1_555
H32 C22 1_555 1_555
H33 C23 1_555 1_555
H34 C23 1_555 1_555
H35 C23 1_555 1_555
H36 C24 1_555 1_555
H37 C24 1_555 1_555
H38 C24 1_555 1_555
H39 O4 1_555 1_555
H40 O7 1_555 1_555
H42 O8 1_555 1_555
C2 C3 1_555 1_555
C16 C17 1_555 1_555

#END
