
#######################################################################
#
#                 Cambridge Crystallographic Data Centre
#                                CCDC 
#
#######################################################################
#
# If this CIF has been generated from an entry in the Cambridge 
# Structural Database, then it will include bibliographic, chemical, 
# crystal, experimental, refinement or atomic coordinate data resulting 
# from the CCDC's data processing and validation procedures.
#
#######################################################################

data_YARQOA
_chemical_formula_moiety         'C20 H23 N1 O3'
_chemical_name_systematic        
17-amino-4-methoxy-2-oxatricyclo[13.2.2.1^3,7^]icosa-1(17),3(20),4,6,15,18-hexaen-10-one
_symmetry_cell_setting           monoclinic
_symmetry_space_group_name_H-M   'P 21'
_symmetry_Int_Tables_number      4
_space_group_name_Hall           'P 2yb'
loop_
_symmetry_equiv_pos_site_id
_symmetry_equiv_pos_as_xyz
1 x,y,z
2 -x,1/2+y,-z
_cell_length_a                   8.69815(8)
_cell_length_b                   8.99657(8)
_cell_length_c                   11.23680(11)
_cell_angle_alpha                90
_cell_angle_beta                 99.4584(9)
_cell_angle_gamma                90
_cell_volume                     867.365
_exptl_crystal_colour            'light colorless'
_exptl_crystal_description       block
_cell_formula_units_Z            2
loop_
_atom_site_label
_atom_site_type_symbol
_atom_site_fract_x
_atom_site_fract_y
_atom_site_fract_z
O1 O 0.21586(12) 0.81441(13) 0.38891(11)
C1 C 0.22666(17) 0.95185(16) 0.33456(14)
O2 O 0.47433(13) 0.95921(13) 0.45271(11)
C2 C 0.10931(18) 1.01255(19) 0.25242(15)
H1 H 0.0174 0.9594 0.2303
C3 C 0.07446(17) 0.73968(16) 0.35495(14)
C4 C 0.36581(17) 1.02893(17) 0.36954(14)
C5 C -0.03557(19) 0.74836(17) 0.43194(13)
C6 C 0.2628(2) 1.22701(18) 0.23640(15)
H2 H 0.2764 1.3200 0.2035
C7 C 0.38184(19) 1.16694(19) 0.31941(15)
H3 H 0.4737 1.2202 0.3416
C8 C -0.18065(19) 0.68476(19) 0.39193(15)
H4 H -0.2559 0.6880 0.4419
C9 C 0.12434(19) 1.15195(17) 0.20131(14)
C10 C 0.04531(19) 0.66300(19) 0.24818(15)
H5 H 0.1234 0.6518 0.2014
O3 O -0.21137(19) 0.99053(16) -0.01098(11)
C11 C -0.1007(2) 0.6023(2) 0.21032(16)
H6 H -0.1210 0.5514 0.1374
C12 C -0.0072(2) 1.2166(2) 0.11206(17)
H7 H 0.0015 1.1807 0.0321
H8 H 0.0041 1.3239 0.1116
C13 C -0.3344(2) 0.9451(2) 0.15909(16)
H9 H -0.4106 1.0121 0.1838
H10 H -0.2678 0.9110 0.2318
C14 C -0.3829(2) 0.5748(2) 0.2299(2)
H11 H -0.4277 0.5228 0.2916
H12 H -0.3827 0.5070 0.1628
C15 C -0.4204(2) 0.8116(3) 0.09840(18)
H13 H -0.3500 0.7553 0.0571
H14 H -0.5058 0.8462 0.0382
N1 N 0.0007(2) 0.8175(2) 0.54290(14)
H15 H 0.0734 0.8817 0.5389
H16 H -0.0800 0.8631 0.5604
C16 C -0.23630(19) 1.0320(2) 0.08629(14)
C17 C 0.6120(2) 1.0412(3) 0.4988(2)
H17 H 0.6694 1.0613 0.4346
H18 H 0.6755 0.9840 0.5603
H19 H 0.5836 1.1333 0.5325
C18 C -0.21690(19) 0.61668(18) 0.28023(15)
C19 C -0.1694(2) 1.17873(19) 0.13846(16)
H20 H -0.1651 1.1763 0.2252
H21 H -0.2402 1.2579 0.1070
C20 C -0.4854(2) 0.7089(3) 0.1867(2)
H22 H -0.5866 0.6730 0.1483
H23 H -0.5010 0.7667 0.2566
loop_
_geom_bond_atom_site_label_1
_geom_bond_atom_site_label_2
_geom_bond_site_symmetry_1
_geom_bond_site_symmetry_2
O1 C1 1_555 1_555
C1 C2 1_555 1_555
O2 C4 1_555 1_555
C2 H1 1_555 1_555
C3 O1 1_555 1_555
C4 C1 1_555 1_555
C5 C3 1_555 1_555
C6 H2 1_555 1_555
C7 C4 1_555 1_555
H3 C7 1_555 1_555
C8 C5 1_555 1_555
H4 C8 1_555 1_555
C9 C2 1_555 1_555
C10 C3 1_555 1_555
H5 C10 1_555 1_555
O3 C16 1_555 1_555
C11 C10 1_555 1_555
H6 C11 1_555 1_555
C12 C9 1_555 1_555
H7 C12 1_555 1_555
H8 C12 1_555 1_555
C13 H9 1_555 1_555
H10 C13 1_555 1_555
C14 H11 1_555 1_555
H12 C14 1_555 1_555
C15 C13 1_555 1_555
H13 C15 1_555 1_555
H14 C15 1_555 1_555
N1 C5 1_555 1_555
H15 N1 1_555 1_555
H16 N1 1_555 1_555
C16 C13 1_555 1_555
C17 O2 1_555 1_555
H17 C17 1_555 1_555
H18 C17 1_555 1_555
H19 C17 1_555 1_555
C18 C8 1_555 1_555
C19 C12 1_555 1_555
H20 C19 1_555 1_555
H21 C19 1_555 1_555
C20 C14 1_555 1_555
H22 C20 1_555 1_555
H23 C20 1_555 1_555
C6 C7 1_555 1_555
C6 C9 1_555 1_555
C11 C18 1_555 1_555
C14 C18 1_555 1_555
C15 C20 1_555 1_555
C16 C19 1_555 1_555

#END
