
#######################################################################
#
#                 Cambridge Crystallographic Data Centre
#                                CCDC 
#
#######################################################################
#
# If this CIF has been generated from an entry in the Cambridge 
# Structural Database, then it will include bibliographic, chemical, 
# crystal, experimental, refinement or atomic coordinate data resulting 
# from the CCDC's data processing and validation procedures.
#
#######################################################################

data_YARTET
_chemical_formula_moiety         'C32 H24 Br1 N3 O3'
_chemical_name_systematic        
4-(4-bromophenyl)-9-nitro-2,6,8-triphenyl-2,3-diazaspiro[4.5]deca-3,6-dien-1-one
_symmetry_cell_setting           orthorhombic
_symmetry_space_group_name_H-M   'P 21 21 21'
_symmetry_Int_Tables_number      19
_space_group_name_Hall           'P 2ac 2ab'
loop_
_symmetry_equiv_pos_site_id
_symmetry_equiv_pos_as_xyz
1 x,y,z
2 1/2-x,-y,1/2+z
3 1/2+x,1/2-y,-z
4 -x,1/2+y,1/2-z
_cell_length_a                   7.6027(3)
_cell_length_b                   16.7807(6)
_cell_length_c                   21.1178(5)
_cell_angle_alpha                90
_cell_angle_beta                 90
_cell_angle_gamma                90
_cell_volume                     2694.18
_exptl_crystal_colour            'light colorless'
_exptl_crystal_description       block
_cell_formula_units_Z            4
loop_
_atom_site_label
_atom_site_type_symbol
_atom_site_fract_x
_atom_site_fract_y
_atom_site_fract_z
Br1 Br -0.20772(7) -0.08684(3) -0.048113(18)
O1 O -0.2519(4) 0.19925(16) -0.44040(11)
O2 O 0.1238(5) -0.1171(3) -0.37010(15)
O3 O 0.0853(4) -0.0546(2) -0.45717(15)
N1 N -0.2667(5) 0.2388(2) -0.33527(13)
N2 N -0.2545(5) 0.2017(2) -0.27559(13)
N3 N 0.0408(5) -0.0725(2) -0.40343(17)
C1 C -0.2586(5) 0.1009(2) -0.35296(15)
C2 C -0.4319(5) 0.0619(3) -0.37193(17)
C3 C -0.4374(6) -0.0083(3) -0.40119(17)
H1 H -0.5477 -0.0276 -0.4125
C4 C -0.2812(6) -0.0595(2) -0.41771(17)
H2 H -0.2505 -0.0474 -0.4617
C5 C -0.1240(5) -0.0352(3) -0.37713(18)
H3 H -0.1421 -0.0536 -0.3336
C6 C -0.0959(5) 0.0549(3) -0.37715(19)
H4 H -0.0689 0.0723 -0.4199
H5 H 0.0042 0.0676 -0.3505
C7 C -0.2577(5) 0.1847(2) -0.38432(17)
C8 C -0.2496(5) 0.1260(2) -0.28405(17)
C9 C -0.3211(6) -0.1481(3) -0.41459(18)
C10 C -0.4224(7) -0.1799(3) -0.3657(2)
H6 H -0.4639 -0.1466 -0.3338
C11 C -0.4623(7) -0.2608(3) -0.3639(2)
H7 H -0.5320 -0.2813 -0.3316
C12 C -0.3972(7) -0.3100(3) -0.4105(3)
H8 H -0.4228 -0.3642 -0.4093
C13 C -0.2953(7) -0.2804(3) -0.4586(2)
H9 H -0.2518 -0.3143 -0.4897
C14 C -0.2573(6) -0.1991(3) -0.4606(2)
H10 H -0.1883 -0.1790 -0.4933
C15 C -0.5893(5) 0.1135(3) -0.36302(18)
C16 C -0.6496(6) 0.1360(3) -0.30313(19)
H11 H -0.6048 0.1114 -0.2671
C17 C -0.7768(6) 0.1954(3) -0.2973(2)
H12 H -0.8167 0.2102 -0.2574
C18 C -0.8437(6) 0.2321(3) -0.3503(2)
H13 H -0.9233 0.2738 -0.3459
C19 C -0.7938(7) 0.2075(3) -0.4093(2)
H14 H -0.8451 0.2301 -0.4450
C20 C -0.6665(5) 0.1487(3) -0.41606(19)
H15 H -0.6324 0.1326 -0.4564
C21 C -0.2364(5) 0.0733(2) -0.22804(16)
C22 C -0.1601(5) 0.1028(3) -0.17256(17)
H16 H -0.1154 0.1544 -0.1714
C23 C -0.1513(6) 0.0548(3) -0.11920(17)
H17 H -0.0998 0.0740 -0.0823
C24 C -0.2190(6) -0.0216(3) -0.12077(16)
C25 C -0.2941(6) -0.0519(3) -0.17515(16)
H18 H -0.3380 -0.1036 -0.1759
C26 C -0.3033(6) -0.0040(3) -0.22872(16)
H19 H -0.3548 -0.0237 -0.2655
C27 C -0.2655(6) 0.3234(2) -0.33753(17)
C28 C -0.2222(7) 0.3659(3) -0.2838(2)
H20 H -0.1957 0.3395 -0.2463
C29 C -0.2187(7) 0.4486(3) -0.2865(2)
H21 H -0.1921 0.4776 -0.2502
C30 C -0.2538(6) 0.4878(3) -0.3417(2)
H22 H -0.2488 0.5432 -0.3430
C31 C -0.2967(8) 0.4458(3) -0.3955(2)
H23 H -0.3209 0.4727 -0.4330
C32 C -0.3037(7) 0.3629(3) -0.39386(19)
H24 H -0.3336 0.3343 -0.4300
loop_
_geom_bond_atom_site_label_1
_geom_bond_atom_site_label_2
_geom_bond_site_symmetry_1
_geom_bond_site_symmetry_2
Br1 C24 1_555 1_555
O1 C7 1_555 1_555
O2 N3 1_555 1_555
O3 N3 1_555 1_555
N1 N2 1_555 1_555
N2 C8 1_555 1_555
N3 C5 1_555 1_555
C1 C2 1_555 1_555
C2 C3 1_555 1_555
C3 H1 1_555 1_555
C4 C3 1_555 1_555
H2 C4 1_555 1_555
C5 C4 1_555 1_555
H3 C5 1_555 1_555
C6 C1 1_555 1_555
H4 C6 1_555 1_555
H5 C6 1_555 1_555
C7 N1 1_555 1_555
C8 C1 1_555 1_555
C9 C4 1_555 1_555
C10 C9 1_555 1_555
H6 C10 1_555 1_555
C11 C10 1_555 1_555
H7 C11 1_555 1_555
C12 C11 1_555 1_555
H8 C12 1_555 1_555
C13 C12 1_555 1_555
H9 C13 1_555 1_555
C14 C9 1_555 1_555
H10 C14 1_555 1_555
C15 C2 1_555 1_555
C16 C15 1_555 1_555
H11 C16 1_555 1_555
C17 C16 1_555 1_555
H12 C17 1_555 1_555
C18 C17 1_555 1_555
H13 C18 1_555 1_555
C19 C18 1_555 1_555
H14 C19 1_555 1_555
C20 C15 1_555 1_555
H15 C20 1_555 1_555
C21 C8 1_555 1_555
C22 C21 1_555 1_555
H16 C22 1_555 1_555
C23 C22 1_555 1_555
H17 C23 1_555 1_555
C24 C23 1_555 1_555
C25 C24 1_555 1_555
H18 C25 1_555 1_555
C26 C21 1_555 1_555
H19 C26 1_555 1_555
C27 N1 1_555 1_555
C28 C27 1_555 1_555
H20 C28 1_555 1_555
C29 C28 1_555 1_555
H21 C29 1_555 1_555
C30 C29 1_555 1_555
H22 C30 1_555 1_555
C31 C30 1_555 1_555
H23 C31 1_555 1_555
C32 C27 1_555 1_555
H24 C32 1_555 1_555
C1 C7 1_555 1_555
C5 C6 1_555 1_555
C13 C14 1_555 1_555
C19 C20 1_555 1_555
C25 C26 1_555 1_555
C31 C32 1_555 1_555

#END
