
#######################################################################
#
#                 Cambridge Crystallographic Data Centre
#                                CCDC 
#
#######################################################################
#
# If this CIF has been generated from an entry in the Cambridge 
# Structural Database, then it will include bibliographic, chemical, 
# crystal, experimental, refinement or atomic coordinate data resulting 
# from the CCDC's data processing and validation procedures.
#
#######################################################################

data_YARTAP
_chemical_formula_moiety         'C18 H14 F2 O2'
_chemical_name_systematic        
(3,3-difluoro-2-hydroxy-5-phenylcyclopent-1-en-1-yl)(phenyl)methanone
_symmetry_cell_setting           triclinic
_symmetry_space_group_name_H-M   'P -1'
_symmetry_Int_Tables_number      2
_space_group_name_Hall           '-P 1'
loop_
_symmetry_equiv_pos_site_id
_symmetry_equiv_pos_as_xyz
1 x,y,z
2 -x,-y,-z
_cell_length_a                   6.572(5)
_cell_length_b                   9.090(5)
_cell_length_c                   12.884(5)
_cell_angle_alpha                77.172(5)
_cell_angle_beta                 75.946(5)
_cell_angle_gamma                79.191(5)
_cell_volume                     720.708
_exptl_crystal_colour            colorless
_exptl_crystal_description       block
_cell_formula_units_Z            2
loop_
_atom_site_label
_atom_site_type_symbol
_atom_site_fract_x
_atom_site_fract_y
_atom_site_fract_z
C1 C -0.2200(3) 0.2140(2) 0.84725(14)
H1 H -0.0868 0.1630 0.8557
O1 O 0.31464(18) -0.00906(17) 0.61619(12)
F1 F -0.0882(2) -0.15065(18) 0.97326(10)
C2 C -0.2952(3) 0.3480(2) 0.88592(16)
H2 H -0.2138 0.3857 0.9212
O2 O 0.2557(2) -0.20666(17) 0.78410(13)
H3 H 0.3157 -0.2050 0.7179
F2 F -0.0809(2) -0.35694(14) 0.91382(12)
C3 C -0.4894(4) 0.4257(2) 0.87252(15)
H4 H -0.5392 0.5170 0.8976
C4 C -0.6097(3) 0.3688(3) 0.82227(17)
H5 H -0.7422 0.4210 0.8136
C5 C -0.5349(3) 0.2332(2) 0.78409(16)
H6 H -0.6181 0.1954 0.7500
C6 C -0.3394(2) 0.15402(18) 0.79603(12)
C7 C -0.1074(3) -0.2027(2) 0.88440(16)
C8 C -0.3122(3) -0.1367(2) 0.85131(16)
H7 H -0.4167 -0.1039 0.9122
H8 H -0.3661 -0.2113 0.8257
C9 C -0.2631(2) 0.00241(18) 0.75773(13)
H9 H -0.3334 0.0003 0.6993
C10 C -0.0257(2) -0.03020(17) 0.71733(12)
C11 C 0.0618(3) -0.1494(2) 0.78939(15)
C12 C 0.1144(2) 0.04218(19) 0.62687(14)
C13 C 0.0608(3) 0.1724(2) 0.54238(13)
C14 C -0.1441(3) 0.2295(2) 0.52818(14)
H10 H -0.2580 0.1850 0.5739
C15 C -0.1791(4) 0.3520(3) 0.44635(17)
H11 H -0.3166 0.3888 0.4369
C16 C -0.0130(4) 0.4205(3) 0.37858(17)
H12 H -0.0381 0.5045 0.3247
C17 C 0.1915(4) 0.3635(3) 0.39123(19)
H13 H 0.3046 0.4084 0.3450
C18 C 0.2285(3) 0.2408(3) 0.47164(16)
H14 H 0.3668 0.2028 0.4791
loop_
_geom_bond_atom_site_label_1
_geom_bond_atom_site_label_2
_geom_bond_site_symmetry_1
_geom_bond_site_symmetry_2
C1 H1 1_555 1_555
O1 C12 1_555 1_555
F1 C7 1_555 1_555
C2 C1 1_555 1_555
H2 C2 1_555 1_555
O2 H3 1_555 1_555
F2 C7 1_555 1_555
C3 C2 1_555 1_555
H4 C3 1_555 1_555
C4 C3 1_555 1_555
H5 C4 1_555 1_555
C5 C4 1_555 1_555
H6 C5 1_555 1_555
C6 C1 1_555 1_555
C7 C8 1_555 1_555
C8 H7 1_555 1_555
H8 C8 1_555 1_555
C9 C6 1_555 1_555
H9 C9 1_555 1_555
C10 C9 1_555 1_555
C11 O2 1_555 1_555
C12 C10 1_555 1_555
C13 C12 1_555 1_555
C14 C13 1_555 1_555
H10 C14 1_555 1_555
C15 C14 1_555 1_555
H11 C15 1_555 1_555
C16 C15 1_555 1_555
H12 C16 1_555 1_555
C17 C16 1_555 1_555
H13 C17 1_555 1_555
C18 C13 1_555 1_555
H14 C18 1_555 1_555
C5 C6 1_555 1_555
C7 C11 1_555 1_555
C8 C9 1_555 1_555
C10 C11 1_555 1_555
C17 C18 1_555 1_555

#END
