
#######################################################################
#
#                 Cambridge Crystallographic Data Centre
#                                CCDC 
#
#######################################################################
#
# If this CIF has been generated from an entry in the Cambridge 
# Structural Database, then it will include bibliographic, chemical, 
# crystal, experimental, refinement or atomic coordinate data resulting 
# from the CCDC's data processing and validation procedures.
#
#######################################################################

data_YASDAY
_chemical_formula_moiety         'C18 H19 N3 O1,0.5(H2 O1)'
_chemical_name_systematic        
'2-Amino-7,7-dimethyl-5-oxo-4-phenyl-1,4,5,6,7,8-hexahydroquinoline-3-carbonitrile hemihydrate'
_symmetry_cell_setting           monoclinic
_symmetry_space_group_name_H-M   'P 21/c'
_symmetry_Int_Tables_number      14
_space_group_name_Hall           '-P 2ybc'
loop_
_symmetry_equiv_pos_site_id
_symmetry_equiv_pos_as_xyz
1 x,y,z
2 -x,1/2+y,1/2-z
3 -x,-y,-z
4 x,1/2-y,1/2+z
_cell_length_a                   9.1652(13)
_cell_length_b                   14.716(2)
_cell_length_c                   23.596(3)
_cell_angle_alpha                90
_cell_angle_beta                 93.918(4)
_cell_angle_gamma                90
_cell_volume                     3175.07
_exptl_crystal_colour            yellow
_exptl_crystal_description       block
_chemical_melting_point          '553-554 K'
_cell_formula_units_Z            8
_exptl_crystal_recrystallization_method ethanol
loop_
_atom_site_label
_atom_site_type_symbol
_atom_site_fract_x
_atom_site_fract_y
_atom_site_fract_z
O1 O 0.61224(14) 0.70192(9) 0.36733(6)
N1 N 0.44188(16) 0.41692(10) 0.42385(7)
H1 H 0.4577 0.3579 0.4249
N2 N 0.05650(19) 0.60365(12) 0.48291(8)
N3 N 0.24352(18) 0.38914(12) 0.47481(8)
H2 H 0.1631 0.4051 0.4906
H3 H 0.2752 0.3328 0.4777
C1 C 0.54090(19) 0.47211(13) 0.40004(8)
C2 C 0.51236(19) 0.56114(12) 0.39010(8)
C3 C 0.36426(19) 0.60218(12) 0.39954(8)
H7 H 0.3810 0.6616 0.4195
C4 C 0.28265(19) 0.54014(12) 0.43826(8)
C5 C 0.3179(2) 0.45087(13) 0.44632(8)
C6 C 0.6282(2) 0.61878(13) 0.37241(8)
C7 C 0.7745(2) 0.57653(14) 0.36273(9)
H8 H 0.8381 0.5815 0.3982
H9 H 0.8209 0.6119 0.3331
C8 C 0.7678(2) 0.47702(14) 0.34463(9)
C9 C 0.6804(2) 0.42522(13) 0.38719(9)
H10 H 0.6568 0.3640 0.3718
H11 H 0.7420 0.4174 0.4230
C10 C 0.27117(19) 0.62009(12) 0.34445(8)
C11 C 0.2753(2) 0.56255(14) 0.29774(9)
H12 H 0.3417 0.5129 0.2991
C12 C 0.1840(2) 0.57676(17) 0.24941(9)
H13 H 0.1877 0.5368 0.2179
C13 C 0.0875(2) 0.64900(18) 0.24688(10)
H14 H 0.0251 0.6589 0.2136
C14 C 0.0819(2) 0.70656(16) 0.29262(10)
H15 H 0.0159 0.7564 0.2909
C15 C 0.1721(2) 0.69209(14) 0.34114(9)
H16 H 0.1665 0.7318 0.3727
C16 C 0.1574(2) 0.57422(12) 0.46267(8)
C17 C 0.6966(3) 0.46818(17) 0.28460(9)
H17 H 0.6878 0.4038 0.2744
H18 H 0.7571 0.4992 0.2579
H19 H 0.5992 0.4959 0.2829
C18 C 0.9229(2) 0.43758(16) 0.34611(11)
H20 H 0.9683 0.4415 0.3849
H21 H 0.9812 0.4722 0.3203
H22 H 0.9182 0.3738 0.3341
O2 O 0.54389(17) 0.74046(10) 0.02206(7)
N4 N 0.42462(18) 0.45853(11) 0.10099(7)
H4 H 0.3540 0.4204 0.1078
N5 N 0.9350(2) 0.45265(14) 0.14893(10)
N6 N 0.58308(19) 0.35743(11) 0.14713(8)
H5 H 0.6700 0.3406 0.1616
H6 H 0.5078 0.3207 0.1489
C19 C 0.3921(2) 0.53490(12) 0.06973(8)
C20 C 0.4937(2) 0.60064(12) 0.06356(8)
C21 C 0.6424(2) 0.59858(13) 0.09601(8)
H23 H 0.7182 0.6160 0.0695
C22 C 0.6738(2) 0.50224(13) 0.11683(9)
C23 C 0.5652(2) 0.43973(13) 0.12210(8)
C24 C 0.4544(2) 0.67970(13) 0.02927(8)
C25 C 0.3012(2) 0.68769(14) 0.00288(9)
H24 H 0.2992 0.6640 -0.0364
H25 H 0.2747 0.7529 0.0006
C26 C 0.1849(2) 0.63754(13) 0.03446(8)
C27 C 0.2389(2) 0.53988(13) 0.04367(9)
H26 H 0.1731 0.5080 0.0686
H27 H 0.2339 0.5079 0.0067
C28 C 0.6464(2) 0.66727(12) 0.14447(8)
C29 C 0.7492(2) 0.73700(14) 0.14874(9)
H28 H 0.8210 0.7411 0.1217
C30 C 0.7479(2) 0.80067(15) 0.19212(10)
H29 H 0.8189 0.8478 0.1947
C31 C 0.6443(2) 0.79573(15) 0.23133(9)
H30 H 0.6427 0.8399 0.2606
C32 C 0.5420(2) 0.72642(15) 0.22819(9)
H31 H 0.4707 0.7226 0.2555
C33 C 0.5440(2) 0.66309(14) 0.18530(9)
H32 H 0.4739 0.6155 0.1835
C34 C 0.8180(2) 0.47669(14) 0.13506(9)
C35 C 0.1639(2) 0.68351(15) 0.09140(9)
H33 H 0.2577 0.6857 0.1139
H34 H 0.0932 0.6489 0.1120
H35 H 0.1275 0.7455 0.0848
C36 C 0.0389(2) 0.63815(16) -0.00084(10)
H36 H 0.0080 0.7011 -0.0081
H37 H -0.0349 0.6067 0.0200
H38 H 0.0501 0.6071 -0.0370
O3 O 0.8023(2) 0.84786(13) 0.37303(11)
H39 H 0.775(3) 0.7944(10) 0.3644(13)
H40 H 0.886(2) 0.860(2) 0.3623(16)
loop_
_geom_bond_atom_site_label_1
_geom_bond_atom_site_label_2
_geom_bond_site_symmetry_1
_geom_bond_site_symmetry_2
O1 C6 1_555 1_555
O2 C24 1_555 1_555
O3 H39 1_555 1_555
N1 H1 1_555 1_555
N2 C16 1_555 1_555
N3 H2 1_555 1_555
H3 N3 1_555 1_555
N4 H4 1_555 1_555
N5 C34 1_555 1_555
N6 H5 1_555 1_555
H6 N6 1_555 1_555
C1 N1 1_555 1_555
C2 C1 1_555 1_555
C3 C2 1_555 1_555
H7 C3 1_555 1_555
C4 C3 1_555 1_555
C5 N1 1_555 1_555
C6 C2 1_555 1_555
C7 C6 1_555 1_555
H8 C7 1_555 1_555
H9 C7 1_555 1_555
C8 C7 1_555 1_555
C9 C1 1_555 1_555
H10 C9 1_555 1_555
H11 C9 1_555 1_555
C10 C3 1_555 1_555
C11 C10 1_555 1_555
H12 C11 1_555 1_555
C12 C11 1_555 1_555
H13 C12 1_555 1_555
C13 C12 1_555 1_555
H14 C13 1_555 1_555
C14 C13 1_555 1_555
H15 C14 1_555 1_555
C15 C10 1_555 1_555
H16 C15 1_555 1_555
C16 C4 1_555 1_555
C17 C8 1_555 1_555
H17 C17 1_555 1_555
H18 C17 1_555 1_555
H19 C17 1_555 1_555
C18 C8 1_555 1_555
H20 C18 1_555 1_555
H21 C18 1_555 1_555
H22 C18 1_555 1_555
C19 N4 1_555 1_555
C20 C19 1_555 1_555
C21 C20 1_555 1_555
H23 C21 1_555 1_555
C22 C21 1_555 1_555
C23 N4 1_555 1_555
C24 C20 1_555 1_555
C25 C24 1_555 1_555
H24 C25 1_555 1_555
H25 C25 1_555 1_555
C26 C25 1_555 1_555
C27 C19 1_555 1_555
H26 C27 1_555 1_555
H27 C27 1_555 1_555
C28 C21 1_555 1_555
C29 C28 1_555 1_555
H28 C29 1_555 1_555
C30 C29 1_555 1_555
H29 C30 1_555 1_555
C31 C30 1_555 1_555
H30 C31 1_555 1_555
C32 C31 1_555 1_555
H31 C32 1_555 1_555
C33 C28 1_555 1_555
H32 C33 1_555 1_555
C34 C22 1_555 1_555
C35 C26 1_555 1_555
H33 C35 1_555 1_555
H34 C35 1_555 1_555
H35 C35 1_555 1_555
C36 C26 1_555 1_555
H36 C36 1_555 1_555
H37 C36 1_555 1_555
H38 C36 1_555 1_555
H40 O3 1_555 1_555
N3 C5 1_555 1_555
N6 C23 1_555 1_555
C4 C5 1_555 1_555
C8 C9 1_555 1_555
C14 C15 1_555 1_555
C22 C23 1_555 1_555
C26 C27 1_555 1_555
C32 C33 1_555 1_555

#END
