
#######################################################################
#
#                 Cambridge Crystallographic Data Centre
#                                CCDC 
#
#######################################################################
#
# If this CIF has been generated from an entry in the Cambridge 
# Structural Database, then it will include bibliographic, chemical, 
# crystal, experimental, refinement or atomic coordinate data resulting 
# from the CCDC's data processing and validation procedures.
#
#######################################################################

data_YASHUX
_chemical_formula_moiety         'C21 H13 Br2 N1 O2,0.5(C4 H8 O2),0.5(H2 O1)'
_chemical_name_systematic        
'7-(3,5-dibromophenyl)-7,11-dihydrobenzo[h]furo[3,4-b]quinolin-8(10H)-one ethyl acetate solvate hemihydrate'
_symmetry_cell_setting           orthorhombic
_symmetry_space_group_name_H-M   'P 21 21 21'
_symmetry_Int_Tables_number      19
_space_group_name_Hall           'P 2ac 2ab'
loop_
_symmetry_equiv_pos_site_id
_symmetry_equiv_pos_as_xyz
1 x,y,z
2 1/2-x,-y,1/2+z
3 1/2+x,1/2-y,-z
4 -x,1/2+y,1/2-z
_cell_length_a                   8.6598(4)
_cell_length_b                   21.3183(10)
_cell_length_c                   23.6397(10)
_cell_angle_alpha                90
_cell_angle_beta                 90
_cell_angle_gamma                90
_cell_volume                     4364.18
_exptl_crystal_colour            colorless
_exptl_crystal_description       needle
_cell_formula_units_Z            8
loop_
_atom_site_label
_atom_site_type_symbol
_atom_site_fract_x
_atom_site_fract_y
_atom_site_fract_z
C1 C 0.4347(8) 0.7434(3) 0.4852(3)
C2 C 0.4426(7) 0.8076(3) 0.4665(3)
C3 C 0.3702(7) 0.8645(3) 0.4924(2)
H1 H 0.2555 0.8595 0.4904
C4 C 0.4165(8) 0.9234(3) 0.4561(3)
C5 C 0.3560(8) 0.9819(3) 0.4722(3)
H2 H 0.2896 0.9850 0.5041
C6 C 0.3921(9) 1.0333(4) 0.4424(3)
H3 H 0.3527 1.0726 0.4546
C7 C 0.4868(9) 1.0314(4) 0.3934(3)
C8 C 0.5205(10) 1.0854(4) 0.3601(4)
H4 H 0.4824 1.1254 0.3712
C9 C 0.6057(10) 1.0798(5) 0.3132(4)
H5 H 0.6260 1.1162 0.2913
C10 C 0.6660(10) 1.0225(4) 0.2952(4)
H6 H 0.7255 1.0195 0.2616
C11 C 0.6373(8) 0.9718(4) 0.3269(3)
H7 H 0.6799 0.9328 0.3155
C12 C 0.5469(8) 0.9736(3) 0.3765(3)
C13 C 0.5104(8) 0.9184(3) 0.4092(3)
C14 C 0.5300(7) 0.8078(3) 0.4205(3)
C15 C 0.5829(9) 0.7439(3) 0.4046(3)
H8 H 0.5434 0.7316 0.3669
H9 H 0.6970 0.7410 0.4047
C16 C 0.4150(7) 0.8754(3) 0.5548(3)
C17 C 0.3016(7) 0.8834(3) 0.5947(3)
H10 H 0.1957 0.8823 0.5842
C18 C 0.3440(7) 0.8931(3) 0.6509(3)
C19 C 0.4981(7) 0.8988(3) 0.6676(3)
H11 H 0.5267 0.9060 0.7058
C20 C 0.6066(7) 0.8932(3) 0.6248(3)
C21 C 0.5705(8) 0.8806(3) 0.5695(3)
H12 H 0.6493 0.8756 0.5419
N1 N 0.5689(7) 0.8600(3) 0.3918(3)
H13 H 0.6305 0.8576 0.3623
O1 O 0.5148(6) 0.7058(2) 0.4494(2)
O2 O 0.3687(6) 0.7194(2) 0.5261(2)
Br1 Br 0.18690(8) 0.89621(4) 0.70670(3)
Br2 Br 0.81894(8) 0.90267(4) 0.64545(3)
C22 C 1.2824(11) 0.8011(5) 0.3101(4)
C23 C 1.1972(9) 0.8547(4) 0.3280(3)
C24 C 1.2100(8) 0.9200(3) 0.3069(3)
H14 H 1.3202 0.9335 0.3106
C25 C 1.1114(8) 0.9626(4) 0.3445(3)
C26 C 1.1105(9) 1.0280(4) 0.3340(3)
H15 H 1.1692 1.0439 0.3032
C27 C 1.0312(10) 1.0678(4) 0.3653(3)
H16 H 1.0325 1.1110 0.3558
C28 C 0.9446(9) 1.0481(3) 0.4126(3)
C29 C 0.8628(9) 1.0911(4) 0.4486(3)
H17 H 0.8624 1.1346 0.4401
C30 C 0.7858(9) 1.0693(4) 0.4948(3)
H18 H 0.7312 1.0980 0.5182
C31 C 0.7855(9) 1.0068(4) 0.5082(3)
H19 H 0.7319 0.9929 0.5410
C32 C 0.8616(8) 0.9638(3) 0.4751(3)
H20 H 0.8602 0.9207 0.4854
C33 C 0.9420(8) 0.9826(3) 0.4260(3)
C34 C 1.0229(8) 0.9402(3) 0.3903(3)
C35 C 1.1041(9) 0.8364(4) 0.3711(3)
C36 C 1.1156(10) 0.7680(4) 0.3792(4)
H21 H 1.1470 0.7578 0.4183
H22 H 1.0159 0.7473 0.3709
C37 C 1.1653(8) 0.9240(3) 0.2452(3)
C38 C 1.2747(8) 0.9323(3) 0.2043(3)
H23 H 1.3801 0.9371 0.2145
C39 C 1.2316(8) 0.9339(3) 0.1479(3)
C40 C 1.0796(8) 0.9294(3) 0.1316(3)
H24 H 1.0516 0.9317 0.0928
C41 C 0.9669(8) 0.9212(3) 0.1734(3)
C42 C 1.0089(7) 0.9180(3) 0.2294(3)
H25 H 0.9323 0.9116 0.2576
N2 N 1.0168(7) 0.8754(3) 0.4010(2)
H26 H 0.9551 0.8607 0.4274
O3 O 1.2345(8) 0.7487(3) 0.3386(2)
O4 O 1.3856(8) 0.7953(3) 0.2747(3)
Br3 Br 1.38609(9) 0.94418(5) 0.09116(4)
Br4 Br 0.75872(8) 0.91409(4) 0.15234(3)
C43 C 0.8989(15) 0.7439(6) 0.1942(6)
C44 C 0.7488(19) 0.7310(7) 0.1638(7)
H27 H 0.7141 0.6883 0.1725
H28 H 0.7643 0.7352 0.1229
H29 H 0.6704 0.7612 0.1763
C45 C 1.1705(16) 0.7536(6) 0.1782(6)
H30 H 1.1988 0.7176 0.2026
H31 H 1.1710 0.7923 0.2013
C46 C 1.287(2) 0.7597(9) 0.1258(8)
H32 H 1.3922 0.7660 0.1399
H33 H 1.2568 0.7955 0.1023
H34 H 1.2832 0.7212 0.1032
O5 O 1.0139(13) 0.7434(5) 0.1510(5)
O6 O 0.9349(12) 0.7552(4) 0.2372(4)
O7 O 0.7145(10) 0.8125(4) 0.2938(3)
H35 H 0.7887 0.7934 0.2745
H36 H 0.6119 0.8003 0.2819
loop_
_geom_bond_atom_site_label_1
_geom_bond_atom_site_label_2
_geom_bond_site_symmetry_1
_geom_bond_site_symmetry_2
C1 C2 1_555 1_555
C2 C3 1_555 1_555
C3 H1 1_555 1_555
C4 C3 1_555 1_555
C5 C4 1_555 1_555
H2 C5 1_555 1_555
C6 C5 1_555 1_555
H3 C6 1_555 1_555
C7 C6 1_555 1_555
C8 C7 1_555 1_555
H4 C8 1_555 1_555
C9 C8 1_555 1_555
H5 C9 1_555 1_555
C10 C9 1_555 1_555
H6 C10 1_555 1_555
C11 C10 1_555 1_555
H7 C11 1_555 1_555
C12 C7 1_555 1_555
C13 C4 1_555 1_555
C14 C2 1_555 1_555
C15 C14 1_555 1_555
H8 C15 1_555 1_555
H9 C15 1_555 1_555
C16 C3 1_555 1_555
C17 C16 1_555 1_555
H10 C17 1_555 1_555
C18 C17 1_555 1_555
C19 C18 1_555 1_555
H11 C19 1_555 1_555
C20 C19 1_555 1_555
C21 C16 1_555 1_555
H12 C21 1_555 1_555
N1 C13 1_555 1_555
H13 N1 1_555 1_555
O1 C1 1_555 1_555
O2 C1 1_555 1_555
Br1 C18 1_555 1_555
Br2 C20 1_555 1_555
C22 C23 1_555 1_555
C23 C24 1_555 1_555
C24 H14 1_555 1_555
C25 C24 1_555 1_555
C26 C25 1_555 1_555
H15 C26 1_555 1_555
C27 C26 1_555 1_555
H16 C27 1_555 1_555
C28 C27 1_555 1_555
C29 C28 1_555 1_555
H17 C29 1_555 1_555
C30 C29 1_555 1_555
H18 C30 1_555 1_555
C31 C30 1_555 1_555
H19 C31 1_555 1_555
C32 C31 1_555 1_555
H20 C32 1_555 1_555
C33 C28 1_555 1_555
C34 C25 1_555 1_555
C35 C23 1_555 1_555
C36 C35 1_555 1_555
H21 C36 1_555 1_555
H22 C36 1_555 1_555
C37 C24 1_555 1_555
C38 C37 1_555 1_555
H23 C38 1_555 1_555
C39 C38 1_555 1_555
C40 C39 1_555 1_555
H24 C40 1_555 1_555
C41 C40 1_555 1_555
C42 C37 1_555 1_555
H25 C42 1_555 1_555
N2 C34 1_555 1_555
H26 N2 1_555 1_555
O3 C22 1_555 1_555
O4 C22 1_555 1_555
Br3 C39 1_555 1_555
Br4 C41 1_555 1_555
C43 C44 1_555 1_555
C44 H27 1_555 1_555
H28 C44 1_555 1_555
H29 C44 1_555 1_555
C45 H30 1_555 1_555
H31 C45 1_555 1_555
C46 C45 1_555 1_555
H32 C46 1_555 1_555
H33 C46 1_555 1_555
H34 C46 1_555 1_555
O5 C43 1_555 1_555
O6 C43 1_555 1_555
O7 H35 1_555 1_555
H36 O7 1_555 1_555
C11 C12 1_555 1_555
C12 C13 1_555 1_555
C14 N1 1_555 1_555
C15 O1 1_555 1_555
C20 C21 1_555 1_555
C32 C33 1_555 1_555
C33 C34 1_555 1_555
C35 N2 1_555 1_555
C36 O3 1_555 1_555
C41 C42 1_555 1_555
C45 O5 1_555 1_555

#END
