
#######################################################################
#
#                 Cambridge Crystallographic Data Centre
#                                CCDC 
#
#######################################################################
#
# If this CIF has been generated from an entry in the Cambridge 
# Structural Database, then it will include bibliographic, chemical, 
# crystal, experimental, refinement or atomic coordinate data resulting 
# from the CCDC's data processing and validation procedures.
#
#######################################################################

data_YASKIP01
_chemical_formula_moiety         'C7 H14 N1 1+,I1 O4 1-'
_chemical_name_systematic        '1-azoniabicyclo[2.2.2]octane periodate'
_symmetry_cell_setting           cubic
_symmetry_space_group_name_H-M   'P m -3 m'
_symmetry_Int_Tables_number      221
_space_group_name_Hall           '-P 4 2 3'
loop_
_symmetry_equiv_pos_site_id
_symmetry_equiv_pos_as_xyz
1 x,y,z
2 -x,-y,z
3 -x,y,-z
4 x,-y,-z
5 z,x,y
6 z,-x,-y
7 -z,-x,y
8 -z,x,-y
9 y,z,x
10 -y,z,-x
11 y,-z,-x
12 -y,-z,x
13 y,x,-z
14 -y,-x,-z
15 y,-x,z
16 -y,x,z
17 x,z,-y
18 -x,z,y
19 -x,-z,-y
20 x,-z,y
21 z,y,-x
22 z,-y,x
23 -z,y,x
24 -z,-y,-x
25 -x,-y,-z
26 x,y,-z
27 x,-y,z
28 -x,y,z
29 -z,-x,-y
30 -z,x,y
31 z,x,-y
32 z,-x,y
33 -y,-z,-x
34 y,-z,x
35 -y,z,x
36 y,z,-x
37 -y,-x,z
38 y,x,z
39 -y,x,-z
40 y,-x,-z
41 -x,-z,y
42 x,-z,-y
43 x,z,y
44 -x,z,-y
45 -z,-y,x
46 -z,y,-x
47 z,-y,-x
48 z,y,x
_cell_length_a                   6.437(8)
_cell_length_b                   6.437(8)
_cell_length_c                   6.437(8)
_cell_angle_alpha                90
_cell_angle_beta                 90
_cell_angle_gamma                90
_cell_volume                     266.717
_exptl_crystal_colour            colorless
_exptl_crystal_description       block
_cell_formula_units_Z            1
loop_
_atom_site_label
_atom_site_type_symbol
_atom_site_fract_x
_atom_site_fract_y
_atom_site_fract_z
I1 I 0.0000 0.0000 0.0000
O1 O 0.261(3) 0.0000 0.0000
O2 O 0.1507(19) 0.1507(19) 0.1507(19)
O1A O -0.261(3) 0.0000 0.0000
O2A O -0.1507(19) -0.1507(19) 0.1507(19)
O2B O -0.1507(19) 0.1507(19) -0.1507(19)
O2C O 0.1507(19) -0.1507(19) -0.1507(19)
O1D O 0.0000 0.261(3) 0.0000
O1E O 0.0000 -0.261(3) 0.0000
O1H O 0.0000 0.0000 0.261(3)
O1I O 0.0000 0.0000 -0.261(3)
O2L O 0.1507(19) 0.1507(19) -0.1507(19)
O2M O -0.1507(19) -0.1507(19) -0.1507(19)
O2N O 0.1507(19) -0.1507(19) 0.1507(19)
O2O O -0.1507(19) 0.1507(19) 0.1507(19)
C1 C 0.337(7) 0.5000 0.337(7)
C2 C 0.5000 0.5000 0.194(5)
C1A C 0.663(7) 0.5000 0.337(7)
C1D C 0.337(7) 0.337(7) 0.5000
C2D C 0.194(5) 0.5000 0.5000
C1E C 0.337(7) 0.663(7) 0.5000
C1F C 0.663(7) 0.663(7) 0.5000
C2F C 0.806(5) 0.5000 0.5000
C1G C 0.663(7) 0.337(7) 0.5000
C1H C 0.5000 0.337(7) 0.337(7)
C2H C 0.5000 0.194(5) 0.5000
C1K C 0.5000 0.663(7) 0.337(7)
C2J C 0.5000 0.806(5) 0.5000
C1C C 0.337(7) 0.5000 0.663(7)
C1B C 0.663(7) 0.5000 0.663(7)
C2B C 0.5000 0.5000 0.806(5)
C1I C 0.5000 0.337(7) 0.663(7)
C1J C 0.5000 0.663(7) 0.663(7)
loop_
_geom_bond_atom_site_label_1
_geom_bond_atom_site_label_2
_geom_bond_site_symmetry_1
_geom_bond_site_symmetry_2
I1 O1 1_555 1_555
O1 O2 1_555 1_555
O2 I1 1_555 1_555
C1 C2 1_555 1_555
C2 C1A 1_555 1_555
O1A I1 1_555 1_555
O2A I1 1_555 1_555
O2B I1 1_555 1_555
O2C I1 1_555 1_555
O1D I1 1_555 1_555
O1E I1 1_555 1_555
O1H I1 1_555 1_555
O1I I1 1_555 1_555
O2L I1 1_555 1_555
O2M I1 1_555 1_555
O2N I1 1_555 1_555
O2O I1 1_555 1_555
C1A C1F 1_555 1_555
C1D C1 1_555 1_555
C2D C1 1_555 1_555
C1E C1 1_555 1_555
C1F C2F 1_555 1_555
C2F C1A 1_555 1_555
C1G C1A 1_555 1_555
C1H C1 1_555 1_555
C2H C1D 1_555 1_555
C1K C1 1_555 1_555
C2J C1E 1_555 1_555
C1C C1D 1_555 1_555
C1B C1F 1_555 1_555
C2B C1C 1_555 1_555
C1I C1D 1_555 1_555
C1J C1E 1_555 1_555
O1 O2C 1_555 1_555
O1 O2L 1_555 1_555
O1 O2N 1_555 1_555
O2 O1D 1_555 1_555
O2 O1H 1_555 1_555
C2 C1H 1_555 1_555
C2 C1K 1_555 1_555
O1A O2A 1_555 1_555
O1A O2B 1_555 1_555
O1A O2M 1_555 1_555
O1A O2O 1_555 1_555
O2A O1E 1_555 1_555
O2A O1H 1_555 1_555
O2B O1D 1_555 1_555
O2B O1I 1_555 1_555
O2C O1E 1_555 1_555
O2C O1I 1_555 1_555
O1D O2L 1_555 1_555
O1D O2O 1_555 1_555
O1E O2M 1_555 1_555
O1E O2N 1_555 1_555
O1H O2N 1_555 1_555
O1H O2O 1_555 1_555
O1I O2L 1_555 1_555
O1I O2M 1_555 1_555
C1A C1H 1_555 1_555
C1A C1K 1_555 1_555
C1D C2D 1_555 1_555
C1D C1H 1_555 1_555
C2D C1E 1_555 1_555
C2D C1C 1_555 1_555
C1E C1K 1_555 1_555
C1E C1C 1_555 1_555
C1F C1K 1_555 1_555
C1F C2J 1_555 1_555
C1F C1J 1_555 1_555
C2F C1G 1_555 1_555
C2F C1B 1_555 1_555
C1G C1H 1_555 1_555
C1G C2H 1_555 1_555
C1G C1B 1_555 1_555
C1G C1I 1_555 1_555
C1H C2H 1_555 1_555
C2H C1I 1_555 1_555
C1K C2J 1_555 1_555
C2J C1J 1_555 1_555
C1C C1I 1_555 1_555
C1C C1J 1_555 1_555
C1B C2B 1_555 1_555
C1B C1I 1_555 1_555
C1B C1J 1_555 1_555
C2B C1I 1_555 1_555
C2B C1J 1_555 1_555

#END
