
#######################################################################
#
#                 Cambridge Crystallographic Data Centre
#                                CCDC 
#
#######################################################################
#
# If this CIF has been generated from an entry in the Cambridge 
# Structural Database, then it will include bibliographic, chemical, 
# crystal, experimental, refinement or atomic coordinate data resulting 
# from the CCDC's data processing and validation procedures.
#
#######################################################################

data_YASVEW
_chemical_formula_moiety         'C21 H22 N2 O2 S1'
_chemical_name_systematic        
4,10-dimethyl-1-((4-methylphenyl)sulfonyl)-1,2,5,10-tetrahydroazepino[2,3-b]indole
_symmetry_cell_setting           monoclinic
_symmetry_space_group_name_H-M   'P 21/n'
_symmetry_Int_Tables_number      14
_space_group_name_Hall           '-P 2yn'
loop_
_symmetry_equiv_pos_site_id
_symmetry_equiv_pos_as_xyz
1 x,y,z
2 1/2-x,1/2+y,1/2-z
3 -x,-y,-z
4 1/2+x,1/2-y,1/2+z
_cell_length_a                   14.3337(6)
_cell_length_b                   6.8499(4)
_cell_length_c                   18.7839(8)
_cell_angle_alpha                90
_cell_angle_beta                 95.751(4)
_cell_angle_gamma                90
_cell_volume                     1835
_exptl_crystal_colour            'light yellow'
_exptl_crystal_description       block
_cell_formula_units_Z            4
loop_
_atom_site_label
_atom_site_type_symbol
_atom_site_fract_x
_atom_site_fract_y
_atom_site_fract_z
S1 S 0.37587(3) 0.66575(8) 0.07487(2)
O1 O 0.44768(9) 0.5405(2) 0.10720(7)
O2 O 0.39268(9) 0.8701(2) 0.06767(7)
N1 N 0.34860(10) 0.5825(2) -0.00613(8)
N2 N 0.31735(10) 0.8274(2) -0.09875(7)
C1 C 0.24220(13) 0.8839(3) -0.14555(9)
C2 C 0.23763(16) 1.0127(3) -0.20312(11)
H1 H 0.2909 1.0856 -0.2136
C3 C 0.15342(17) 1.0306(3) -0.24409(12)
H2 H 0.1490 1.1146 -0.2845
C4 C 0.07372(16) 0.9280(3) -0.22782(11)
H3 H 0.0165 0.9433 -0.2575
C5 C 0.07687(14) 0.8063(3) -0.16992(10)
H4 H 0.0220 0.7408 -0.1582
C6 C 0.16273(13) 0.7798(3) -0.12807(9)
C7 C 0.19168(12) 0.6571(3) -0.06882(9)
C8 C 0.28510(12) 0.6896(2) -0.05338(9)
C9 C 0.34929(13) 0.3696(3) -0.01993(11)
H5 H 0.3992 0.3107 0.0136
H6 H 0.3673 0.3495 -0.0689
C10 C 0.26029(14) 0.2581(3) -0.01348(10)
H7 H 0.2697 0.1229 -0.0040
C11 C 0.17135(13) 0.3125(3) -0.01856(9)
C12 C 0.13248(12) 0.5146(3) -0.03297(10)
H8 H 0.0719 0.5017 -0.0629
H9 H 0.1189 0.5717 0.0133
C13 C 0.41334(12) 0.8935(3) -0.09933(10)
H10 H 0.4322 0.9659 -0.0552
H11 H 0.4181 0.9789 -0.1407
H12 H 0.4546 0.7805 -0.1025
C14 C 0.09570(15) 0.1656(3) -0.00816(13)
H13 H 0.1238 0.0357 -0.0010
H14 H 0.0500 0.1639 -0.0506
H15 H 0.0641 0.2014 0.0339
C15 C 0.27761(12) 0.6420(3) 0.12337(9)
C16 C 0.21783(14) 0.7991(3) 0.12782(10)
H16 H 0.2288 0.9182 0.1041
C17 C 0.14183(15) 0.7804(3) 0.16731(11)
H17 H 0.0999 0.8871 0.1698
C18 C 0.12580(14) 0.6087(3) 0.20333(10)
C19 C 0.18551(15) 0.4531(3) 0.19679(11)
H18 H 0.1743 0.3335 0.2201
C20 C 0.26140(14) 0.4677(3) 0.15697(10)
H19 H 0.3018 0.3592 0.1528
C21 C 0.04706(17) 0.5955(4) 0.25034(13)
H20 H 0.0545 0.6979 0.2869
H21 H 0.0484 0.4673 0.2736
H22 H -0.0130 0.6128 0.2212
loop_
_geom_bond_atom_site_label_1
_geom_bond_atom_site_label_2
_geom_bond_site_symmetry_1
_geom_bond_site_symmetry_2
S1 O1 1_555 1_555
O2 S1 1_555 1_555
N1 S1 1_555 1_555
N2 C1 1_555 1_555
C1 C2 1_555 1_555
C2 H1 1_555 1_555
C3 C2 1_555 1_555
H2 C3 1_555 1_555
C4 C3 1_555 1_555
H3 C4 1_555 1_555
C5 C4 1_555 1_555
H4 C5 1_555 1_555
C6 C1 1_555 1_555
C7 C6 1_555 1_555
C8 N1 1_555 1_555
C9 N1 1_555 1_555
H5 C9 1_555 1_555
H6 C9 1_555 1_555
C10 C9 1_555 1_555
H7 C10 1_555 1_555
C11 C10 1_555 1_555
C12 C7 1_555 1_555
H8 C12 1_555 1_555
H9 C12 1_555 1_555
C13 N2 1_555 1_555
H10 C13 1_555 1_555
H11 C13 1_555 1_555
H12 C13 1_555 1_555
C14 C11 1_555 1_555
H13 C14 1_555 1_555
H14 C14 1_555 1_555
H15 C14 1_555 1_555
C15 S1 1_555 1_555
C16 C15 1_555 1_555
H16 C16 1_555 1_555
C17 C16 1_555 1_555
H17 C17 1_555 1_555
C18 C17 1_555 1_555
C19 C18 1_555 1_555
H18 C19 1_555 1_555
C20 C15 1_555 1_555
H19 C20 1_555 1_555
C21 C18 1_555 1_555
H20 C21 1_555 1_555
H21 C21 1_555 1_555
H22 C21 1_555 1_555
N2 C8 1_555 1_555
C5 C6 1_555 1_555
C7 C8 1_555 1_555
C11 C12 1_555 1_555
C19 C20 1_555 1_555

#END
