
#######################################################################
#
#                 Cambridge Crystallographic Data Centre
#                                CCDC 
#
#######################################################################
#
# If this CIF has been generated from an entry in the Cambridge 
# Structural Database, then it will include bibliographic, chemical, 
# crystal, experimental, refinement or atomic coordinate data resulting 
# from the CCDC's data processing and validation procedures.
#
#######################################################################

data_YASVOE
_chemical_formula_moiety         'C18 H28 N2 O3 S1'
_chemical_name_systematic        
(4R,5R)-5-((2S,5R)-2-Isopropyl-5-methylcyclohexyloxy)-4-(4-methyl-1,3-thiazol-2-ylamino)-2,3,4,5-tetrahydrofuran-2-one
_symmetry_cell_setting           orthorhombic
_symmetry_space_group_name_H-M   'P 21 21 21'
_symmetry_Int_Tables_number      19
_space_group_name_Hall           'P 2ac 2ab'
loop_
_symmetry_equiv_pos_site_id
_symmetry_equiv_pos_as_xyz
1 x,y,z
2 1/2-x,-y,1/2+z
3 -x,1/2+y,1/2-z
4 1/2+x,1/2-y,-z
_cell_length_a                   8.841(3)
_cell_length_b                   11.203(3)
_cell_length_c                   19.692(6)
_cell_angle_alpha                90
_cell_angle_beta                 90
_cell_angle_gamma                90
_cell_volume                     1950.41
_exptl_crystal_colour            yellow
_exptl_crystal_description       prism
_chemical_melting_point          '466.5-468.3 K'
_cell_formula_units_Z            4
_exptl_crystal_recrystallization_method 'petroleum/ethyl acetate'
loop_
_atom_site_label
_atom_site_type_symbol
_atom_site_fract_x
_atom_site_fract_y
_atom_site_fract_z
S1 S -0.14879(8) 0.22367(6) 0.22496(4)
N1 N 0.0071(2) 0.32833(17) 0.12363(9)
H1 H -0.0308 0.2749 0.0973
N2 N 0.0458(2) 0.39337(16) 0.23518(9)
O1 O 0.32722(17) 0.33004(13) 0.05899(8)
O2 O 0.2752(2) 0.30145(18) -0.05033(9)
O3 O 0.34001(15) 0.50952(11) 0.11756(7)
C1 C 0.2406(3) 0.3434(2) 0.00327(12)
C2 C 0.1045(3) 0.4157(2) 0.01931(10)
H2 H 0.0139 0.3777 0.0019
H3 H 0.1127 0.4950 -0.0001
C3 C 0.1008(2) 0.42168(19) 0.09624(10)
H4 H 0.0665 0.5003 0.1118
C4 C 0.2669(2) 0.40099(18) 0.11472(11)
H5 H 0.2759 0.3582 0.1580
C5 C 0.4856(2) 0.50793(18) 0.15171(10)
H6 H 0.5394 0.4342 0.1400
C6 C 0.5742(2) 0.6141(2) 0.12578(11)
H7 H 0.5156 0.6853 0.1376
C7 C 0.7230(3) 0.6217(3) 0.16558(14)
H8 H 0.7842 0.5520 0.1555
H9 H 0.7787 0.6917 0.1509
C8 C 0.6973(4) 0.6288(3) 0.24116(13)
H10 H 0.6435 0.7019 0.2517
H11 H 0.7942 0.6314 0.2642
C9 C 0.6075(3) 0.5236(2) 0.26728(11)
H12 H 0.6671 0.4513 0.2591
C10 C 0.4604(2) 0.5124(2) 0.22740(11)
H13 H 0.4082 0.4405 0.2416
H14 H 0.3959 0.5799 0.2380
C11 C 0.5946(3) 0.6162(2) 0.04876(12)
H15 H 0.4945 0.6016 0.0290
C12 C 0.6960(4) 0.5201(4) 0.02260(15)
H16 H 0.6963 0.5216 -0.0261
H17 H 0.6601 0.4439 0.0380
H18 H 0.7969 0.5329 0.0391
C13 C 0.6448(6) 0.7383(4) 0.02369(15)
H19 H 0.7458 0.7541 0.0393
H20 H 0.5776 0.7983 0.0410
H21 H 0.6429 0.7397 -0.0251
C14 C 0.5763(4) 0.5313(4) 0.34349(13)
H22 H 0.5131 0.5991 0.3526
H23 H 0.6702 0.5397 0.3675
H24 H 0.5260 0.4599 0.3582
C15 C -0.0212(2) 0.32530(19) 0.19166(11)
C16 C -0.0043(3) 0.3657(2) 0.30031(11)
C17 C -0.1064(3) 0.2785(2) 0.30402(13)
H25 H -0.1491 0.2509 0.3442
C18 C 0.0602(4) 0.4356(3) 0.35836(12)
H26 H 0.0235 0.5162 0.3565
H27 H 0.1686 0.4357 0.3553
H28 H 0.0298 0.3996 0.4005
loop_
_geom_bond_atom_site_label_1
_geom_bond_atom_site_label_2
_geom_bond_site_symmetry_1
_geom_bond_site_symmetry_2
S1 C15 1_555 1_555
N1 H1 1_555 1_555
N2 C15 1_555 1_555
O1 C1 1_555 1_555
O2 C1 1_555 1_555
O3 C4 1_555 1_555
C1 C2 1_555 1_555
C2 H2 1_555 1_555
H3 C2 1_555 1_555
C3 N1 1_555 1_555
H4 C3 1_555 1_555
C4 O1 1_555 1_555
H5 C4 1_555 1_555
C5 O3 1_555 1_555
H6 C5 1_555 1_555
C6 C5 1_555 1_555
H7 C6 1_555 1_555
C7 C6 1_555 1_555
H8 C7 1_555 1_555
H9 C7 1_555 1_555
C8 C7 1_555 1_555
H10 C8 1_555 1_555
H11 C8 1_555 1_555
C9 C8 1_555 1_555
H12 C9 1_555 1_555
C10 C5 1_555 1_555
H13 C10 1_555 1_555
H14 C10 1_555 1_555
C11 C6 1_555 1_555
H15 C11 1_555 1_555
C12 C11 1_555 1_555
H16 C12 1_555 1_555
H17 C12 1_555 1_555
H18 C12 1_555 1_555
C13 C11 1_555 1_555
H19 C13 1_555 1_555
H20 C13 1_555 1_555
H21 C13 1_555 1_555
C14 C9 1_555 1_555
H22 C14 1_555 1_555
H23 C14 1_555 1_555
H24 C14 1_555 1_555
C15 N1 1_555 1_555
C16 N2 1_555 1_555
C17 S1 1_555 1_555
H25 C17 1_555 1_555
C18 C16 1_555 1_555
H26 C18 1_555 1_555
H27 C18 1_555 1_555
H28 C18 1_555 1_555
C2 C3 1_555 1_555
C3 C4 1_555 1_555
C9 C10 1_555 1_555
C16 C17 1_555 1_555

#END
