
#######################################################################
#
#                 Cambridge Crystallographic Data Centre
#                                CCDC 
#
#######################################################################
#
# If this CIF has been generated from an entry in the Cambridge 
# Structural Database, then it will include bibliographic, chemical, 
# crystal, experimental, refinement or atomic coordinate data resulting 
# from the CCDC's data processing and validation procedures.
#
#######################################################################

data_YASXEY
_chemical_formula_moiety         'C11 H15 N1 O4'
_chemical_name_systematic        
'methyl 7-methyl-3-oxo-6-vinyltetrahydro-1H-pyrrolo[1,2-c][1,3]oxazole-7-carboxylate'
_symmetry_cell_setting           orthorhombic
_symmetry_space_group_name_H-M   'P 21 21 21'
_symmetry_Int_Tables_number      19
_space_group_name_Hall           'P 2ac 2ab'
loop_
_symmetry_equiv_pos_site_id
_symmetry_equiv_pos_as_xyz
1 x,y,z
2 1/2-x,-y,1/2+z
3 -x,1/2+y,1/2-z
4 1/2+x,1/2-y,-z
_cell_length_a                   7.0297(16)
_cell_length_b                   10.925(3)
_cell_length_c                   15.255(3)
_cell_angle_alpha                90
_cell_angle_beta                 90
_cell_angle_gamma                90
_cell_volume                     1171.58
_cell_formula_units_Z            4
loop_
_atom_site_label
_atom_site_type_symbol
_atom_site_fract_x
_atom_site_fract_y
_atom_site_fract_z
N1 N 0.48216(17) 0.48613(12) 0.80430(8)
O1 O 0.52719(18) 0.28792(12) 0.85281(7)
O2 O 0.60064(19) 0.45049(13) 0.93717(8)
O3 O 0.0855(2) 0.62817(12) 0.98516(8)
O4 O 0.16446(17) 0.45411(10) 0.92062(7)
C1 C 0.5762(3) 0.58112(19) 0.93269(12)
H1 H 0.6986 0.6221 0.9322
H2 H 0.5035 0.6104 0.9825
C2 C 0.5336(2) 0.39748(19) 0.86293(11)
C3 C 0.4689(2) 0.60498(15) 0.84722(11)
H3 H 0.5376 0.6662 0.8125
C4 C 0.2537(2) 0.63603(14) 0.84772(10)
C5 C 0.1952(2) 0.58042(14) 0.75778(10)
H4 H 0.2347 0.6391 0.7127
C6 C 0.3199(2) 0.46494(14) 0.74565(10)
H5 H 0.2510 0.3917 0.7624
H6 H 0.3616 0.4569 0.6853
C7 C -0.0130(3) 0.55807(15) 0.74456(11)
H7 H -0.0723 0.5022 0.7816
C8 C -0.1169(3) 0.6109(2) 0.68519(12)
H8 H -0.0624 0.6673 0.6470
H9 H -0.2457 0.5924 0.6809
C9 C 0.2198(3) 0.77400(15) 0.85124(11)
H10 H 0.0856 0.7901 0.8508
H11 H 0.2780 0.8121 0.8012
H12 H 0.2747 0.8066 0.9039
C10 C 0.1568(2) 0.57599(16) 0.92529(11)
C11 C 0.0939(3) 0.38521(17) 0.99491(11)
H13 H 0.1586 0.4112 1.0471
H14 H 0.1167 0.2996 0.9856
H15 H -0.0402 0.3991 1.0013
loop_
_geom_bond_atom_site_label_1
_geom_bond_atom_site_label_2
_geom_bond_site_symmetry_1
_geom_bond_site_symmetry_2
N1 C2 1_555 1_555
O1 C2 1_555 1_555
O2 C1 1_555 1_555
O3 C10 1_555 1_555
O4 C10 1_555 1_555
C1 H1 1_555 1_555
H2 C1 1_555 1_555
C2 O2 1_555 1_555
C3 N1 1_555 1_555
H3 C3 1_555 1_555
C4 C3 1_555 1_555
C5 C4 1_555 1_555
H4 C5 1_555 1_555
C6 N1 1_555 1_555
H5 C6 1_555 1_555
H6 C6 1_555 1_555
C7 C5 1_555 1_555
H7 C7 1_555 1_555
C8 C7 1_555 1_555
H8 C8 1_555 1_555
H9 C8 1_555 1_555
C9 C4 1_555 1_555
H10 C9 1_555 1_555
H11 C9 1_555 1_555
H12 C9 1_555 1_555
C10 C4 1_555 1_555
C11 O4 1_555 1_555
H13 C11 1_555 1_555
H14 C11 1_555 1_555
H15 C11 1_555 1_555
C1 C3 1_555 1_555
C5 C6 1_555 1_555

#END
