
#######################################################################
#
#                 Cambridge Crystallographic Data Centre
#                                CCDC 
#
#######################################################################
#
# If this CIF has been generated from an entry in the Cambridge 
# Structural Database, then it will include bibliographic, chemical, 
# crystal, experimental, refinement or atomic coordinate data resulting 
# from the CCDC's data processing and validation procedures.
#
#######################################################################

data_YATBOM
_chemical_formula_moiety         'C17 H12 O2,C2 H4 O2'
_chemical_name_systematic        '2,6-Diphenyl-4H-pyran-4-one acetic acid'
_symmetry_cell_setting           monoclinic
_symmetry_space_group_name_H-M   'P 21/c'
_symmetry_Int_Tables_number      14
_space_group_name_Hall           '-P 2ybc'
loop_
_symmetry_equiv_pos_site_id
_symmetry_equiv_pos_as_xyz
1 x,y,z
2 -x,1/2+y,1/2-z
3 -x,-y,-z
4 x,1/2-y,1/2+z
_cell_length_a                   5.6114(11)
_cell_length_b                   10.648(2)
_cell_length_c                   26.171(5)
_cell_angle_alpha                90
_cell_angle_beta                 90.14(3)
_cell_angle_gamma                90
_cell_volume                     1563.72
_cell_formula_units_Z            4
loop_
_atom_site_label
_atom_site_type_symbol
_atom_site_fract_x
_atom_site_fract_y
_atom_site_fract_z
C1 C 0.2568(3) -0.0052(2) 0.07345(7)
C2 C 0.4055(3) 0.00243(19) 0.11801(7)
H1 H 0.5271 -0.0559 0.1224
C3 C 0.3733(3) 0.09151(18) 0.15328(7)
C4 C 0.5208(3) 0.11197(18) 0.19934(7)
C5 C 0.7255(3) 0.0401(2) 0.20708(7)
H2 H 0.7638 -0.0232 0.1840
C6 C 0.8717(4) 0.0620(2) 0.24855(8)
H3 H 1.0084 0.0139 0.2532
C7 C 0.8166(4) 0.1542(2) 0.28291(8)
H4 H 0.9171 0.1695 0.3105
C8 C 0.6120(4) 0.2246(2) 0.27669(8)
H5 H 0.5724 0.2858 0.3005
C9 C 0.4656(4) 0.2037(2) 0.23476(7)
H6 H 0.3289 0.2519 0.2304
C10 C 0.0699(3) 0.0863(2) 0.07103(7)
H7 H -0.0358 0.0850 0.0436
C11 C 0.0442(3) 0.17375(19) 0.10749(7)
C12 C -0.1355(3) 0.27356(18) 0.10997(7)
C13 C -0.3114(3) 0.2842(2) 0.07257(7)
H8 H -0.3130 0.2285 0.0452
C14 C -0.4831(4) 0.3764(2) 0.07565(8)
H9 H -0.5983 0.3833 0.0502
C15 C -0.4846(4) 0.4579(2) 0.11611(8)
H10 H -0.6017 0.5195 0.1183
C16 C -0.3131(4) 0.4488(2) 0.15336(8)
H11 H -0.3148 0.5041 0.1809
C17 C -0.1383(4) 0.3582(2) 0.15028(8)
H12 H -0.0213 0.3537 0.1754
O1 O 0.2897(3) -0.08576(14) 0.03928(5)
O2 O 0.1955(2) 0.17747(12) 0.14868(4)
C18 C 0.8083(4) -0.2651(2) 0.06935(9)
C19 C 0.9926(4) -0.3582(2) 0.05399(10)
H13 H 1.1436 -0.3346 0.0684
H14 H 1.0046 -0.3600 0.0174
H15 H 0.9485 -0.4399 0.0662
O3 O 0.6584(3) -0.23964(17) 0.03238(6)
H16 H 0.5319 -0.1783 0.0407
O4 O 0.7969(3) -0.21916(17) 0.11115(6)
loop_
_geom_bond_atom_site_label_1
_geom_bond_atom_site_label_2
_geom_bond_site_symmetry_1
_geom_bond_site_symmetry_2
C1 C2 1_555 1_555
C2 H1 1_555 1_555
C3 C2 1_555 1_555
C4 C3 1_555 1_555
C5 C4 1_555 1_555
H2 C5 1_555 1_555
C6 C5 1_555 1_555
H3 C6 1_555 1_555
C7 C6 1_555 1_555
H4 C7 1_555 1_555
C8 C7 1_555 1_555
H5 C8 1_555 1_555
C9 C4 1_555 1_555
H6 C9 1_555 1_555
C10 C1 1_555 1_555
H7 C10 1_555 1_555
C11 C10 1_555 1_555
C12 C11 1_555 1_555
C13 C12 1_555 1_555
H8 C13 1_555 1_555
C14 C13 1_555 1_555
H9 C14 1_555 1_555
C15 C14 1_555 1_555
H10 C15 1_555 1_555
C16 C15 1_555 1_555
H11 C16 1_555 1_555
C17 C12 1_555 1_555
H12 C17 1_555 1_555
O1 C1 1_555 1_555
O2 C3 1_555 1_555
C18 C19 1_555 1_555
C19 H13 1_555 1_555
H14 C19 1_555 1_555
H15 C19 1_555 1_555
O3 C18 1_555 1_555
H16 O3 1_555 1_555
O4 C18 1_555 1_555
C8 C9 1_555 1_555
C11 O2 1_555 1_555
C16 C17 1_555 1_555

#END
