
#######################################################################
#
#                 Cambridge Crystallographic Data Centre
#                                CCDC 
#
#######################################################################
#
# If this CIF has been generated from an entry in the Cambridge 
# Structural Database, then it will include bibliographic, chemical, 
# crystal, experimental, refinement or atomic coordinate data resulting 
# from the CCDC's data processing and validation procedures.
#
#######################################################################

data_YATBIG
_chemical_formula_moiety         'C17 H13 O2 1+,C2 F3 O2 1-'
_chemical_name_systematic        
'2,6-Diphenyl-4-hydroxypyrylium trifluoroacetate'
_symmetry_cell_setting           monoclinic
_symmetry_space_group_name_H-M   'P 21/n'
_symmetry_Int_Tables_number      14
_space_group_name_Hall           '-P 2yn'
loop_
_symmetry_equiv_pos_site_id
_symmetry_equiv_pos_as_xyz
1 x,y,z
2 1/2-x,1/2+y,1/2-z
3 -x,-y,-z
4 1/2+x,1/2-y,1/2+z
_cell_length_a                   9.4765(19)
_cell_length_b                   9.5705(19)
_cell_length_c                   18.723(4)
_cell_angle_alpha                90
_cell_angle_beta                 102.69(3)
_cell_angle_gamma                90
_cell_volume                     1656.6
_cell_formula_units_Z            4
loop_
_atom_site_label
_atom_site_type_symbol
_atom_site_fract_x
_atom_site_fract_y
_atom_site_fract_z
C1 C 0.7231(2) 0.0753(2) 0.97057(11)
C2 C 0.6848(2) 0.1417(2) 1.03145(12)
C3 C 0.7717(2) 0.2412(2) 1.06952(11)
C4 C 0.7481(2) 0.3206(2) 1.13286(11)
C5 C 0.6164(3) 0.3115(3) 1.15398(14)
C6 C 0.5921(3) 0.3892(3) 1.21230(16)
C7 C 0.6977(3) 0.4760(3) 1.25016(15)
C8 C 0.8290(3) 0.4848(4) 1.23033(17)
C9 C 0.8543(3) 0.4072(3) 1.17198(15)
C10 C 0.8575(2) 0.1144(2) 0.95443(11)
C11 C 0.9398(2) 0.2144(2) 0.99417(10)
C12 C 1.0801(2) 0.2657(2) 0.98400(11)
C13 C 1.1389(3) 0.2131(3) 0.92752(14)
C14 C 1.2726(3) 0.2595(3) 0.91870(17)
C15 C 1.3478(3) 0.3576(3) 0.96606(17)
C16 C 1.2903(3) 0.4115(3) 1.02105(17)
C17 C 1.1564(3) 0.3662(3) 1.03079(14)
H1 H 0.669(4) -0.063(5) 0.880(3)
H2 H 0.596(3) 0.113(3) 1.0474(14)
H3 H 0.545(3) 0.249(3) 1.1277(16)
H4 H 0.500(4) 0.390(3) 1.2272(19)
H5 H 0.684(3) 0.531(3) 1.2935(17)
H6 H 0.904(3) 0.535(3) 1.2574(17)
H7 H 0.948(3) 0.421(3) 1.1595(18)
H8 H 0.895(2) 0.066(3) 0.9165(14)
H9 H 1.094(3) 0.141(3) 0.8965(17)
H10 H 1.319(4) 0.230(4) 0.880(2)
H11 H 1.438(3) 0.394(3) 0.9597(17)
H12 H 1.337(3) 0.484(4) 1.0537(17)
H13 H 1.108(3) 0.408(3) 1.0711(18)
O1 O 0.63951(17) -0.01552(18) 0.93297(9)
O2 O 0.89635(14) 0.27868(15) 1.05008(8)
C18 C 0.8008(2) -0.1284(2) 0.80115(12)
C19 C 0.7803(3) -0.1878(3) 0.72344(15)
F1 F 0.6908(4) -0.1179(4) 0.67660(13)
F2 F 0.7345(4) -0.3138(3) 0.71997(17)
F3 F 0.8970(3) -0.1934(4) 0.69906(14)
O3 O 0.68223(19) -0.1233(2) 0.82183(10)
O4 O 0.92125(19) -0.0948(2) 0.83325(10)
loop_
_geom_bond_atom_site_label_1
_geom_bond_atom_site_label_2
_geom_bond_site_symmetry_1
_geom_bond_site_symmetry_2
C1 C2 1_555 1_555
C2 C3 1_555 1_555
C3 C4 1_555 1_555
C4 C5 1_555 1_555
C5 C6 1_555 1_555
C6 C7 1_555 1_555
C7 C8 1_555 1_555
C8 C9 1_555 1_555
C9 C4 1_555 1_555
C10 C1 1_555 1_555
C11 C10 1_555 1_555
C12 C11 1_555 1_555
C13 C12 1_555 1_555
C14 C13 1_555 1_555
C15 C14 1_555 1_555
C16 C15 1_555 1_555
C17 C12 1_555 1_555
C18 C19 1_555 1_555
C19 F1 1_555 1_555
F2 C19 1_555 1_555
F3 C19 1_555 1_555
H1 O1 1_555 1_555
H2 C2 1_555 1_555
H3 C5 1_555 1_555
H4 C6 1_555 1_555
H5 C7 1_555 1_555
H6 C8 1_555 1_555
H7 C9 1_555 1_555
H8 C10 1_555 1_555
H9 C13 1_555 1_555
H10 C14 1_555 1_555
H11 C15 1_555 1_555
H12 C16 1_555 1_555
H13 C17 1_555 1_555
O1 C1 1_555 1_555
O2 C3 1_555 1_555
O3 C18 1_555 1_555
O4 C18 1_555 1_555
C11 O2 1_555 1_555
C16 C17 1_555 1_555

#END
