
#######################################################################
#
#                 Cambridge Crystallographic Data Centre
#                                CCDC 
#
#######################################################################
#
# If this CIF has been generated from an entry in the Cambridge 
# Structural Database, then it will include bibliographic, chemical, 
# crystal, experimental, refinement or atomic coordinate data resulting 
# from the CCDC's data processing and validation procedures.
#
#######################################################################

data_YATCII01
_chemical_formula_moiety         'C20 H13 Br1'
_chemical_name_systematic        9-(3-bromophenyl)anthracene
_symmetry_cell_setting           triclinic
_symmetry_space_group_name_H-M   'P -1'
_symmetry_Int_Tables_number      2
_space_group_name_Hall           '-P 1'
loop_
_symmetry_equiv_pos_site_id
_symmetry_equiv_pos_as_xyz
1 x,y,z
2 -x,-y,-z
_cell_length_a                   11.351(2)
_cell_length_b                   11.641(2)
_cell_length_c                   13.509(3)
_cell_angle_alpha                112.65(3)
_cell_angle_beta                 104.93(3)
_cell_angle_gamma                99.81(3)
_cell_volume                     1517.26
_exptl_crystal_colour            yellow
_exptl_crystal_description       block
_cell_formula_units_Z            4
_exptl_crystal_recrystallization_method 'Re-crystallisation from solvent'
_exptl_crystal_preparation       ', Luminescent'
loop_
_atom_site_label
_atom_site_type_symbol
_atom_site_fract_x
_atom_site_fract_y
_atom_site_fract_z
Br1 Br 0.48306(14) 0.73581(13) 0.02005(13)
C1 C 0.0568(8) 0.7412(8) 0.2339(7)
C2 C 0.0003(8) 0.6084(9) 0.1490(8)
H1 H 0.0520 0.5612 0.1197
C3 C -0.1268(9) 0.5499(10) 0.1104(9)
H2 H -0.1606 0.4629 0.0557
C4 C -0.2088(10) 0.6165(11) 0.1503(10)
H3 H -0.2961 0.5739 0.1216
C5 C -0.1626(9) 0.7415(10) 0.2299(9)
H4 H -0.2183 0.7846 0.2563
C6 C -0.0290(9) 0.8097(9) 0.2748(8)
C7 C 0.0242(10) 0.9407(10) 0.3579(9)
H5 H -0.0293 0.9859 0.3861
C8 C 0.1548(9) 1.0052(8) 0.3996(8)
C9 C 0.2056(11) 1.1372(10) 0.4860(9)
H6 H 0.1512 1.1803 0.5149
C10 C 0.3342(12) 1.2017(10) 0.5273(9)
H7 H 0.3668 1.2880 0.5836
C11 C 0.4161(10) 1.1358(9) 0.4834(9)
H8 H 0.5030 1.1795 0.5114
C12 C 0.3717(9) 1.0116(9) 0.4024(9)
H9 H 0.4286 0.9709 0.3757
C13 C 0.2377(9) 0.9394(8) 0.3554(8)
C14 C 0.1904(8) 0.8075(9) 0.2744(8)
C15 C 0.2751(8) 0.7334(8) 0.2290(7)
C16 C 0.3301(9) 0.7661(9) 0.1584(8)
H10 H 0.3142 0.8319 0.1392
C17 C 0.4108(9) 0.6954(10) 0.1175(9)
C18 C 0.4318(10) 0.5972(11) 0.1450(10)
H11 H 0.4861 0.5527 0.1176
C19 C 0.3760(10) 0.5627(11) 0.2109(10)
H12 H 0.3888 0.4940 0.2269
C20 C 0.2992(9) 0.6339(9) 0.2536(9)
H13 H 0.2623 0.6134 0.3010
Br2 Br 0.33846(15) 0.07356(14) 0.10031(13)
C21 C 0.1648(10) 0.4038(9) 0.4513(9)
C22 C 0.2848(12) 0.4729(10) 0.4566(11)
H14 H 0.3034 0.4517 0.3898
C23 C 0.3728(12) 0.5699(12) 0.5582(13)
H15 H 0.4501 0.6133 0.5591
C24 C 0.3484(12) 0.6057(11) 0.6628(11)
H16 H 0.4086 0.6717 0.7316
C25 C 0.2360(12) 0.5417(11) 0.6593(10)
H17 H 0.2207 0.5645 0.7277
C26 C 0.1376(10) 0.4396(9) 0.5555(8)
C27 C 0.0233(11) 0.3743(10) 0.5538(10)
H18 H 0.0068 0.3974 0.6217
C28 C -0.0670(9) 0.2755(9) 0.4535(9)
C29 C -0.1815(11) 0.2050(12) 0.4543(11)
H19 H -0.1952 0.2263 0.5233
C30 C -0.2720(11) 0.1061(13) 0.3553(12)
H20 H -0.3477 0.0623 0.3567
C31 C -0.2499(12) 0.0712(12) 0.2513(12)
H21 H -0.3116 0.0043 0.1840
C32 C -0.1407(11) 0.1331(10) 0.2475(10)
H22 H -0.1278 0.1069 0.1779
C33 C -0.0446(10) 0.2381(10) 0.3482(9)
C34 C 0.0730(10) 0.3041(9) 0.3492(8)
C35 C 0.0999(10) 0.2633(10) 0.2401(10)
C36 C 0.1888(10) 0.1974(10) 0.2224(8)
H23 H 0.2328 0.1780 0.2793
C37 C 0.2133(11) 0.1597(10) 0.1202(10)
C38 C 0.1451(15) 0.1832(13) 0.0332(11)
H24 H 0.1600 0.1568 -0.0356
C39 C 0.0553(16) 0.2460(14) 0.0503(11)
H25 H 0.0088 0.2613 -0.0085
C40 C 0.0314(13) 0.2869(12) 0.1500(11)
H26 H -0.0297 0.3303 0.1589
loop_
_geom_bond_atom_site_label_1
_geom_bond_atom_site_label_2
_geom_bond_site_symmetry_1
_geom_bond_site_symmetry_2
Br1 C17 1_555 1_555
C1 C2 1_555 1_555
C2 H1 1_555 1_555
C3 C2 1_555 1_555
H2 C3 1_555 1_555
C4 C3 1_555 1_555
H3 C4 1_555 1_555
C5 C4 1_555 1_555
H4 C5 1_555 1_555
C6 C1 1_555 1_555
C7 C6 1_555 1_555
H5 C7 1_555 1_555
C8 C7 1_555 1_555
C9 C8 1_555 1_555
H6 C9 1_555 1_555
C10 C9 1_555 1_555
H7 C10 1_555 1_555
C11 C10 1_555 1_555
H8 C11 1_555 1_555
C12 C11 1_555 1_555
H9 C12 1_555 1_555
C13 C8 1_555 1_555
C14 C1 1_555 1_555
C15 C14 1_555 1_555
C16 C15 1_555 1_555
H10 C16 1_555 1_555
C17 C16 1_555 1_555
C18 C17 1_555 1_555
H11 C18 1_555 1_555
C19 C18 1_555 1_555
H12 C19 1_555 1_555
C20 C15 1_555 1_555
H13 C20 1_555 1_555
Br2 C37 1_555 1_555
C21 C22 1_555 1_555
C22 H14 1_555 1_555
C23 C22 1_555 1_555
H15 C23 1_555 1_555
C24 C23 1_555 1_555
H16 C24 1_555 1_555
C25 C24 1_555 1_555
H17 C25 1_555 1_555
C26 C21 1_555 1_555
C27 C26 1_555 1_555
H18 C27 1_555 1_555
C28 C27 1_555 1_555
C29 C28 1_555 1_555
H19 C29 1_555 1_555
C30 C29 1_555 1_555
H20 C30 1_555 1_555
C31 C30 1_555 1_555
H21 C31 1_555 1_555
C32 C31 1_555 1_555
H22 C32 1_555 1_555
C33 C28 1_555 1_555
C34 C21 1_555 1_555
C35 C34 1_555 1_555
C36 C35 1_555 1_555
H23 C36 1_555 1_555
C37 C36 1_555 1_555
C38 C37 1_555 1_555
H24 C38 1_555 1_555
C39 C38 1_555 1_555
H25 C39 1_555 1_555
C40 C35 1_555 1_555
H26 C40 1_555 1_555
C5 C6 1_555 1_555
C12 C13 1_555 1_555
C13 C14 1_555 1_555
C19 C20 1_555 1_555
C25 C26 1_555 1_555
C32 C33 1_555 1_555
C33 C34 1_555 1_555
C39 C40 1_555 1_555

#END
