
#######################################################################
#
#                 Cambridge Crystallographic Data Centre
#                                CCDC 
#
#######################################################################
#
# If this CIF has been generated from an entry in the Cambridge 
# Structural Database, then it will include bibliographic, chemical, 
# crystal, experimental, refinement or atomic coordinate data resulting 
# from the CCDC's data processing and validation procedures.
#
#######################################################################

data_YATCUT
_chemical_name_common            '(8S,12S)-isoandrographolide monohydrate'
_chemical_formula_moiety         'C20 H30 O5,H2 O1'
_chemical_name_systematic        
'3-(7-Hydroxy-6-(hydroxymethyl)-3a,6,9a-trimethyldodecahydronaphtho[2,1-b]furan-2-yl)furan-2(5H)-one monohydrate'
_symmetry_cell_setting           monoclinic
_symmetry_space_group_name_H-M   'C 2'
_symmetry_Int_Tables_number      5
_space_group_name_Hall           'C 2y'
loop_
_symmetry_equiv_pos_site_id
_symmetry_equiv_pos_as_xyz
1 x,y,z
2 -x,y,-z
3 1/2+x,1/2+y,z
4 1/2-x,1/2+y,-z
_cell_length_a                   13.216(2)
_cell_length_b                   6.3512(12)
_cell_length_c                   22.587(4)
_cell_angle_alpha                90
_cell_angle_beta                 91.860(4)
_cell_angle_gamma                90
_cell_volume                     1894.9
_exptl_crystal_colour            colorless
_exptl_crystal_description       plate
_cell_formula_units_Z            4
loop_
_atom_site_label
_atom_site_type_symbol
_atom_site_fract_x
_atom_site_fract_y
_atom_site_fract_z
C1 C 0.6502(2) 0.4825(5) 0.70435(15)
H1 H 0.6535 0.6180 0.7241
H2 H 0.7106 0.4041 0.7161
C2 C 0.6495(3) 0.5171(6) 0.63829(15)
H3 H 0.6537 0.3820 0.6185
H4 H 0.7086 0.5987 0.6283
O1 O 0.55548(18) 0.6510(4) 0.55288(10)
H5 H 0.5930 0.7535 0.5433
C3 C 0.5555(3) 0.6307(6) 0.61615(15)
H6 H 0.5575 0.7729 0.6329
C4 C 0.4544(3) 0.5303(5) 0.63269(15)
C5 C 0.4609(2) 0.4838(5) 0.70017(14)
H7 H 0.4681 0.6239 0.7180
C6 C 0.3618(2) 0.3991(6) 0.72607(15)
H8 H 0.3052 0.4812 0.7103
H9 H 0.3518 0.2544 0.7134
C7 C 0.3624(2) 0.4083(6) 0.79346(15)
H10 H 0.3655 0.5538 0.8064
H11 H 0.3005 0.3469 0.8076
O2 O 0.47187(17) 0.3398(4) 0.88084(9)
C8 C 0.4531(3) 0.2886(6) 0.81906(14)
C9 C 0.5488(2) 0.3746(6) 0.79224(14)
H12 H 0.5462 0.5259 0.8005
C10 C 0.5569(2) 0.3627(5) 0.72494(14)
C11 C 0.6319(3) 0.2929(6) 0.83484(14)
H13 H 0.6901 0.3860 0.8361
H14 H 0.6534 0.1524 0.8241
C12 C 0.5776(3) 0.2926(6) 0.89459(15)
H15 H 0.5820 0.1506 0.9115
C13 C 0.6131(3) 0.4455(6) 0.94050(16)
C14 C 0.6245(3) 0.4133(7) 0.99839(16)
H16 H 0.6163 0.2840 1.0169
O3 O 0.6561(2) 0.7638(4) 0.98220(12)
C15 C 0.6517(3) 0.6089(7) 1.02905(18)
H17 H 0.6010 0.6467 1.0572
H18 H 0.7168 0.5957 1.0498
O4 O 0.6368(2) 0.7632(4) 0.88330(13)
C16 C 0.6348(3) 0.6699(7) 0.92957(19)
C17 C 0.4344(3) 0.0509(6) 0.81636(17)
H19 H 0.3829 0.0137 0.8435
H20 H 0.4959 -0.0223 0.8270
H21 H 0.4128 0.0120 0.7769
C18 C 0.3700(3) 0.6934(6) 0.62088(16)
H22 H 0.3648 0.7239 0.5793
H23 H 0.3858 0.8203 0.6424
H24 H 0.3068 0.6379 0.6337
O5 O 0.38129(16) 0.3734(4) 0.53850(9)
H25 H 0.4208 0.4473 0.5180
C19 C 0.4323(3) 0.3309(6) 0.59456(14)
H26 H 0.4958 0.2604 0.5873
H27 H 0.3910 0.2351 0.6169
C20 C 0.5634(2) 0.1335(6) 0.70253(15)
H28 H 0.5824 0.1334 0.6619
H29 H 0.4987 0.0666 0.7057
H30 H 0.6132 0.0581 0.7261
O6 O 0.6666(2) 1.0038(4) 0.52927(13)
H31 H 0.6471 1.0731 0.4988
H32 H 0.7305 0.9899 0.5287
loop_
_geom_bond_atom_site_label_1
_geom_bond_atom_site_label_2
_geom_bond_site_symmetry_1
_geom_bond_site_symmetry_2
C1 H1 1_555 1_555
H2 C1 1_555 1_555
C2 C1 1_555 1_555
H3 C2 1_555 1_555
H4 C2 1_555 1_555
O1 H5 1_555 1_555
C3 C2 1_555 1_555
H6 C3 1_555 1_555
C4 C3 1_555 1_555
C5 C4 1_555 1_555
H7 C5 1_555 1_555
C6 C5 1_555 1_555
H8 C6 1_555 1_555
H9 C6 1_555 1_555
C7 C6 1_555 1_555
H10 C7 1_555 1_555
H11 C7 1_555 1_555
O2 C8 1_555 1_555
C8 C7 1_555 1_555
C9 C8 1_555 1_555
H12 C9 1_555 1_555
C10 C1 1_555 1_555
C11 C9 1_555 1_555
H13 C11 1_555 1_555
H14 C11 1_555 1_555
C12 O2 1_555 1_555
H15 C12 1_555 1_555
C13 C12 1_555 1_555
C14 C13 1_555 1_555
H16 C14 1_555 1_555
O3 C15 1_555 1_555
C15 C14 1_555 1_555
H17 C15 1_555 1_555
H18 C15 1_555 1_555
O4 C16 1_555 1_555
C16 C13 1_555 1_555
C17 C8 1_555 1_555
H19 C17 1_555 1_555
H20 C17 1_555 1_555
H21 C17 1_555 1_555
C18 C4 1_555 1_555
H22 C18 1_555 1_555
H23 C18 1_555 1_555
H24 C18 1_555 1_555
O5 H25 1_555 1_555
C19 C4 1_555 1_555
H26 C19 1_555 1_555
H27 C19 1_555 1_555
C20 C10 1_555 1_555
H28 C20 1_555 1_555
H29 C20 1_555 1_555
H30 C20 1_555 1_555
O6 H31 1_555 1_555
H32 O6 1_555 1_555
O1 C3 1_555 1_555
C5 C10 1_555 1_555
C9 C10 1_555 1_555
C11 C12 1_555 1_555
O3 C16 1_555 1_555
O5 C19 1_555 1_555

#END
