
#######################################################################
#
#                 Cambridge Crystallographic Data Centre
#                                CCDC 
#
#######################################################################
#
# If this CIF has been generated from an entry in the Cambridge 
# Structural Database, then it will include bibliographic, chemical, 
# crystal, experimental, refinement or atomic coordinate data resulting 
# from the CCDC's data processing and validation procedures.
#
#######################################################################

data_YATCII
_chemical_formula_moiety         'C20 H13 Br1'
_chemical_name_systematic        9-(3-bromophenyl)anthracene
_symmetry_cell_setting           triclinic
_symmetry_space_group_name_H-M   'P -1'
_symmetry_Int_Tables_number      2
_space_group_name_Hall           '-P 1'
loop_
_symmetry_equiv_pos_site_id
_symmetry_equiv_pos_as_xyz
1 x,y,z
2 -x,-y,-z
_cell_length_a                   10.415(2)
_cell_length_b                   11.326(2)
_cell_length_c                   13.360(3)
_cell_angle_alpha                74.79(3)
_cell_angle_beta                 80.52(3)
_cell_angle_gamma                86.87(3)
_cell_volume                     1499.87
_exptl_crystal_colour            colorless
_exptl_crystal_description       block
_cell_formula_units_Z            4
_exptl_crystal_recrystallization_method 'Re-crystallisation from solvent'
_exptl_crystal_preparation       ', Luminescent'
loop_
_atom_site_label
_atom_site_type_symbol
_atom_site_fract_x
_atom_site_fract_y
_atom_site_fract_z
Br1 Br 0.55575(5) 0.49259(4) 0.25212(4)
C1 C 0.8195(3) 0.2082(3) -0.0495(2)
C2 C 0.8083(4) 0.3309(3) -0.1116(3)
H1 H 0.8083 0.3960 -0.0812
C3 C 0.7976(4) 0.3529(4) -0.2145(3)
H2 H 0.7892 0.4332 -0.2537
C4 C 0.7989(4) 0.2562(4) -0.2641(3)
H3 H 0.7926 0.2732 -0.3351
C5 C 0.8094(3) 0.1404(4) -0.2079(3)
H4 H 0.8097 0.0775 -0.2409
C6 C 0.8199(3) 0.1106(3) -0.0999(2)
C7 C 0.8267(3) -0.0089(3) -0.0412(2)
H5 H 0.8269 -0.0718 -0.0741
C8 C 0.8334(3) -0.0384(3) 0.0658(2)
C9 C 0.8398(3) -0.1616(3) 0.1271(3)
H6 H 0.8400 -0.2253 0.0950
C10 C 0.8454(4) -0.1877(3) 0.2305(3)
H7 H 0.8486 -0.2687 0.2693
C11 C 0.8465(4) -0.0922(3) 0.2798(3)
H8 H 0.8514 -0.1113 0.3512
C12 C 0.8407(3) 0.0258(3) 0.2263(2)
H9 H 0.8409 0.0868 0.2613
C13 C 0.8342(3) 0.0589(3) 0.1167(2)
C14 C 0.8272(3) 0.1807(3) 0.0579(2)
C15 C 0.8273(3) 0.2819(3) 0.1112(2)
C16 C 0.9437(4) 0.3231(4) 0.1248(3)
H10 H 1.0220 0.2891 0.1003
C17 C 0.9433(5) 0.4155(4) 0.1752(4)
H11 H 1.0220 0.4439 0.1835
C18 C 0.8292(5) 0.4656(3) 0.2130(3)
H12 H 0.8300 0.5270 0.2474
C19 C 0.7138(4) 0.4241(3) 0.1995(2)
C20 C 0.7111(3) 0.3324(3) 0.1489(2)
H13 H 0.6321 0.3050 0.1403
Br2 Br 0.25670(4) 0.47238(3) 0.50652(3)
C21 C 0.3608(3) 0.1557(3) 0.2133(2)
C22 C 0.3179(4) 0.2715(3) 0.1546(3)
H14 H 0.2583 0.3184 0.1881
C23 C 0.3632(4) 0.3138(4) 0.0506(3)
H15 H 0.3341 0.3893 0.0138
C24 C 0.4537(4) 0.2451(4) -0.0025(3)
H16 H 0.4842 0.2759 -0.0737
C25 C 0.4963(4) 0.1353(4) 0.0492(3)
H17 H 0.5556 0.0907 0.0132
C26 C 0.4521(3) 0.0866(3) 0.1579(3)
C27 C 0.4940(3) -0.0276(3) 0.2119(3)
H18 H 0.5533 -0.0725 0.1761
C28 C 0.4498(3) -0.0758(3) 0.3169(3)
C29 C 0.4881(4) -0.1960(3) 0.3722(3)
H19 H 0.5451 -0.2425 0.3364
C30 C 0.4434(4) -0.2422(4) 0.4741(3)
H20 H 0.4668 -0.3213 0.5075
C31 C 0.3612(4) -0.1719(4) 0.5311(3)
H21 H 0.3336 -0.2040 0.6025
C32 C 0.3215(4) -0.0581(3) 0.4837(3)
H22 H 0.2679 -0.0128 0.5231
C33 C 0.3610(3) -0.0067(3) 0.3739(2)
C34 C 0.3167(3) 0.1080(3) 0.3207(2)
C35 C 0.2238(3) 0.1820(3) 0.3788(2)
C36 C 0.2709(3) 0.2766(3) 0.4096(2)
H23 H 0.3593 0.2939 0.3939
C37 C 0.1867(3) 0.3454(3) 0.4637(2)
C38 C 0.0566(4) 0.3237(4) 0.4880(3)
H24 H 0.0012 0.3710 0.5243
C39 C 0.0092(4) 0.2296(4) 0.4571(3)
H25 H -0.0795 0.2134 0.4728
C40 C 0.0913(3) 0.1588(3) 0.4034(3)
H26 H 0.0577 0.0955 0.3836
loop_
_geom_bond_atom_site_label_1
_geom_bond_atom_site_label_2
_geom_bond_site_symmetry_1
_geom_bond_site_symmetry_2
Br1 C19 1_555 1_555
C1 C2 1_555 1_555
C2 H1 1_555 1_555
C3 C2 1_555 1_555
H2 C3 1_555 1_555
C4 C3 1_555 1_555
H3 C4 1_555 1_555
C5 C4 1_555 1_555
H4 C5 1_555 1_555
C6 C1 1_555 1_555
C7 C6 1_555 1_555
H5 C7 1_555 1_555
C8 C7 1_555 1_555
C9 C8 1_555 1_555
H6 C9 1_555 1_555
C10 C9 1_555 1_555
H7 C10 1_555 1_555
C11 C10 1_555 1_555
H8 C11 1_555 1_555
C12 C11 1_555 1_555
H9 C12 1_555 1_555
C13 C8 1_555 1_555
C14 C1 1_555 1_555
C15 C14 1_555 1_555
C16 C15 1_555 1_555
H10 C16 1_555 1_555
C17 C16 1_555 1_555
H11 C17 1_555 1_555
C18 C17 1_555 1_555
H12 C18 1_555 1_555
C19 C18 1_555 1_555
C20 C15 1_555 1_555
H13 C20 1_555 1_555
Br2 C37 1_555 1_555
C21 C22 1_555 1_555
C22 H14 1_555 1_555
C23 C22 1_555 1_555
H15 C23 1_555 1_555
C24 C23 1_555 1_555
H16 C24 1_555 1_555
C25 C24 1_555 1_555
H17 C25 1_555 1_555
C26 C21 1_555 1_555
C27 C26 1_555 1_555
H18 C27 1_555 1_555
C28 C27 1_555 1_555
C29 C28 1_555 1_555
H19 C29 1_555 1_555
C30 C29 1_555 1_555
H20 C30 1_555 1_555
C31 C30 1_555 1_555
H21 C31 1_555 1_555
C32 C31 1_555 1_555
H22 C32 1_555 1_555
C33 C28 1_555 1_555
C34 C21 1_555 1_555
C35 C34 1_555 1_555
C36 C35 1_555 1_555
H23 C36 1_555 1_555
C37 C36 1_555 1_555
C38 C37 1_555 1_555
H24 C38 1_555 1_555
C39 C38 1_555 1_555
H25 C39 1_555 1_555
C40 C35 1_555 1_555
H26 C40 1_555 1_555
C5 C6 1_555 1_555
C12 C13 1_555 1_555
C13 C14 1_555 1_555
C19 C20 1_555 1_555
C25 C26 1_555 1_555
C32 C33 1_555 1_555
C33 C34 1_555 1_555
C39 C40 1_555 1_555

#END
