
#######################################################################
#
#                 Cambridge Crystallographic Data Centre
#                                CCDC 
#
#######################################################################
#
# If this CIF has been generated from an entry in the Cambridge 
# Structural Database, then it will include bibliographic, chemical, 
# crystal, experimental, refinement or atomic coordinate data resulting 
# from the CCDC's data processing and validation procedures.
#
#######################################################################

data_YATDAA
_chemical_name_common            '(8R,12R)-isoandrographolide hydrate'
_chemical_formula_moiety         'C20 H30 O5,0.07(H2 O1)'
_chemical_name_systematic        
'3-(7-Hydroxy-6-(hydroxymethyl)-3a,6,9a-trimethyldodecahydronaphtho[2,1-b]furan-2-yl)furan-2(5H)-one hydrate'
_symmetry_cell_setting           orthorhombic
_symmetry_space_group_name_H-M   'P 21 21 21'
_symmetry_Int_Tables_number      19
_space_group_name_Hall           'P 2ac 2ab'
loop_
_symmetry_equiv_pos_site_id
_symmetry_equiv_pos_as_xyz
1 x,y,z
2 1/2-x,-y,1/2+z
3 -x,1/2+y,1/2-z
4 1/2+x,1/2-y,-z
_cell_length_a                   12.2994(13)
_cell_length_b                   13.1192(14)
_cell_length_c                   22.113(2)
_cell_angle_alpha                90
_cell_angle_beta                 90
_cell_angle_gamma                90
_cell_volume                     3568.12
_exptl_crystal_colour            colorless
_exptl_crystal_description       block
_cell_formula_units_Z            8
loop_
_atom_site_label
_atom_site_type_symbol
_atom_site_fract_x
_atom_site_fract_y
_atom_site_fract_z
C1 C 0.4135(2) 0.6653(2) 0.25527(12)
H1 H 0.4939 0.6664 0.2571
H2 H 0.3892 0.7315 0.2385
C2 C 0.3685(2) 0.65378(19) 0.31937(12)
H3 H 0.3941 0.7111 0.3448
H4 H 0.2881 0.6558 0.3183
O1 O 0.37035(16) 0.54316(14) 0.40794(8)
H5 H 0.4107 0.5798 0.4303
C3 C 0.4058(2) 0.5540(2) 0.34650(12)
H6 H 0.4871 0.5531 0.3461
C4 C 0.3652(2) 0.4607(2) 0.31073(12)
C5 C 0.4004(2) 0.4751(2) 0.24314(12)
H7 H 0.4815 0.4700 0.2440
C6 C 0.3646(2) 0.3882(2) 0.20127(12)
H8 H 0.3681 0.3224 0.2231
H9 H 0.2887 0.3993 0.1879
C7 C 0.4401(2) 0.3855(2) 0.14663(12)
H10 H 0.5125 0.3616 0.1600
H11 H 0.4116 0.3351 0.1174
O2 O 0.36111(15) 0.50036(13) 0.07448(8)
C8 C 0.4539(2) 0.4873(2) 0.11431(12)
C9 C 0.4505(2) 0.5840(2) 0.15441(12)
H12 H 0.5265 0.5991 0.1676
C10 C 0.3775(2) 0.5797(2) 0.21241(12)
C11 C 0.4178(2) 0.6654(2) 0.10678(12)
H13 H 0.4825 0.7032 0.0925
H14 H 0.3652 0.7145 0.1241
C12 C 0.3651(2) 0.6041(2) 0.05402(13)
H15 H 0.4139 0.6081 0.0179
C13 C 0.2538(2) 0.6367(2) 0.03577(12)
C14 C 0.1572(2) 0.5941(2) 0.04377(13)
H16 H 0.1447 0.5315 0.0643
O3 O 0.13030(17) 0.74196(16) -0.01091(9)
C15 C 0.0719(2) 0.6581(2) 0.01605(14)
H17 H 0.0312 0.6195 -0.0150
H18 H 0.0202 0.6829 0.0471
O4 O 0.30505(17) 0.78988(15) -0.01731(9)
C16 C 0.2375(2) 0.7299(2) 0.00047(12)
C17 C 0.5591(2) 0.4849(2) 0.07720(13)
H19 H 0.5566 0.4277 0.0487
H20 H 0.6213 0.4765 0.1044
H21 H 0.5666 0.5489 0.0548
C18 C 0.4245(2) 0.3653(2) 0.33534(13)
H22 H 0.4164 0.3624 0.3794
H23 H 0.5018 0.3691 0.3249
H24 H 0.3927 0.3039 0.3173
O5 O 0.21392(17) 0.40752(15) 0.37809(9)
H25 H 0.2451 0.4458 0.4038
C19 C 0.2418(2) 0.4461(2) 0.31955(13)
H26 H 0.2049 0.5124 0.3134
H27 H 0.2145 0.3984 0.2884
C20 C 0.2563(2) 0.5940(2) 0.19656(12)
H28 H 0.2120 0.5830 0.2328
H29 H 0.2354 0.5448 0.1653
H30 H 0.2445 0.6634 0.1815
C21 C 0.3210(2) 0.8261(2) 0.76033(12)
H31 H 0.2406 0.8270 0.7625
H32 H 0.3432 0.7588 0.7443
C22 C 0.3667(2) 0.8383(2) 0.82388(13)
H33 H 0.3396 0.7827 0.8501
H34 H 0.4471 0.8343 0.8227
O6 O 0.36840(18) 0.95480(15) 0.90985(8)
H35 H 0.3439 0.9066 0.9316
C23 C 0.3316(2) 0.9406(2) 0.84920(12)
H36 H 0.2504 0.9420 0.8497
C24 C 0.3707(2) 1.0327(2) 0.81192(12)
C25 C 0.3362(2) 1.0155(2) 0.74453(12)
H37 H 0.2551 1.0216 0.7448
C26 C 0.3746(2) 1.0996(2) 0.70132(12)
H38 H 0.3688 1.1668 0.7214
H39 H 0.4517 1.0882 0.6904
C27 C 0.3046(2) 1.0986(2) 0.64430(13)
H40 H 0.3373 1.1455 0.6143
H41 H 0.2316 1.1254 0.6546
O7 O 0.38622(15) 0.97347(13) 0.57893(8)
C28 C 0.2911(2) 0.9931(2) 0.61481(13)
C29 C 0.2865(2) 0.9014(2) 0.65842(12)
H42 H 0.2094 0.8910 0.6713
C30 C 0.3589(2) 0.9096(2) 0.71611(12)
C31 C 0.3188(2) 0.81368(19) 0.61478(12)
H43 H 0.3656 0.7632 0.6355
H44 H 0.2535 0.7786 0.5990
C32 C 0.3818(2) 0.86734(19) 0.56295(12)
H45 H 0.3377 0.8609 0.5251
C33 C 0.4946(2) 0.8321(2) 0.54929(12)
C34 C 0.5899(2) 0.8763(2) 0.55819(12)
H46 H 0.6005 0.9389 0.5789
O8 O 0.62167(16) 0.72808(14) 0.50405(9)
C35 C 0.6776(2) 0.8138(2) 0.53116(13)
H47 H 0.7179 0.8531 0.5002
H48 H 0.7293 0.7906 0.5625
O9 O 0.44788(16) 0.68063(15) 0.49253(9)
C36 C 0.5135(2) 0.7388(2) 0.51353(12)
C37 C 0.1909(2) 0.9965(2) 0.57334(13)
H49 H 0.2012 1.0490 0.5423
H50 H 0.1262 1.0126 0.5974
H51 H 0.1813 0.9300 0.5538
C38 C 0.3109(2) 1.1286(2) 0.83506(13)
H52 H 0.3143 1.1308 0.8793
H53 H 0.2347 1.1263 0.8221
H54 H 0.3457 1.1897 0.8184
O10 O 0.52088(16) 1.09604(15) 0.87665(9)
H55 H 0.4855 1.0656 0.9043
C39 C 0.4936(2) 1.0496(2) 0.82028(12)
H56 H 0.5312 0.9831 0.8173
H57 H 0.5207 1.0933 0.7870
C40 C 0.4802(2) 0.8924(2) 0.70215(12)
H58 H 0.5225 0.8988 0.7395
H59 H 0.5049 0.9435 0.6729
H60 H 0.4903 0.8241 0.6852
O11 O 0.517(2) 1.1557(18) 0.5837(11)
loop_
_geom_bond_atom_site_label_1
_geom_bond_atom_site_label_2
_geom_bond_site_symmetry_1
_geom_bond_site_symmetry_2
C1 H1 1_555 1_555
H2 C1 1_555 1_555
C2 C1 1_555 1_555
H3 C2 1_555 1_555
H4 C2 1_555 1_555
O1 H5 1_555 1_555
C3 C2 1_555 1_555
H6 C3 1_555 1_555
C4 C3 1_555 1_555
C5 C4 1_555 1_555
H7 C5 1_555 1_555
C6 C5 1_555 1_555
H8 C6 1_555 1_555
H9 C6 1_555 1_555
C7 C6 1_555 1_555
H10 C7 1_555 1_555
H11 C7 1_555 1_555
O2 C8 1_555 1_555
C8 C7 1_555 1_555
C9 C8 1_555 1_555
H12 C9 1_555 1_555
C10 C1 1_555 1_555
C11 C9 1_555 1_555
H13 C11 1_555 1_555
H14 C11 1_555 1_555
C12 O2 1_555 1_555
H15 C12 1_555 1_555
C13 C12 1_555 1_555
C14 C13 1_555 1_555
H16 C14 1_555 1_555
O3 C15 1_555 1_555
C15 C14 1_555 1_555
H17 C15 1_555 1_555
H18 C15 1_555 1_555
O4 C16 1_555 1_555
C16 C13 1_555 1_555
C17 C8 1_555 1_555
H19 C17 1_555 1_555
H20 C17 1_555 1_555
H21 C17 1_555 1_555
C18 C4 1_555 1_555
H22 C18 1_555 1_555
H23 C18 1_555 1_555
H24 C18 1_555 1_555
O5 H25 1_555 1_555
C19 C4 1_555 1_555
H26 C19 1_555 1_555
H27 C19 1_555 1_555
C20 C10 1_555 1_555
H28 C20 1_555 1_555
H29 C20 1_555 1_555
H30 C20 1_555 1_555
C21 H31 1_555 1_555
H32 C21 1_555 1_555
C22 C21 1_555 1_555
H33 C22 1_555 1_555
H34 C22 1_555 1_555
O6 H35 1_555 1_555
C23 C22 1_555 1_555
H36 C23 1_555 1_555
C24 C23 1_555 1_555
C25 C24 1_555 1_555
H37 C25 1_555 1_555
C26 C25 1_555 1_555
H38 C26 1_555 1_555
H39 C26 1_555 1_555
C27 C26 1_555 1_555
H40 C27 1_555 1_555
H41 C27 1_555 1_555
O7 C28 1_555 1_555
C28 C27 1_555 1_555
C29 C28 1_555 1_555
H42 C29 1_555 1_555
C30 C21 1_555 1_555
C31 C29 1_555 1_555
H43 C31 1_555 1_555
H44 C31 1_555 1_555
C32 O7 1_555 1_555
H45 C32 1_555 1_555
C33 C32 1_555 1_555
C34 C33 1_555 1_555
H46 C34 1_555 1_555
O8 C35 1_555 1_555
C35 C34 1_555 1_555
H47 C35 1_555 1_555
H48 C35 1_555 1_555
O9 C36 1_555 1_555
C36 C33 1_555 1_555
C37 C28 1_555 1_555
H49 C37 1_555 1_555
H50 C37 1_555 1_555
H51 C37 1_555 1_555
C38 C24 1_555 1_555
H52 C38 1_555 1_555
H53 C38 1_555 1_555
H54 C38 1_555 1_555
O10 H55 1_555 1_555
C39 C24 1_555 1_555
H56 C39 1_555 1_555
H57 C39 1_555 1_555
C40 C30 1_555 1_555
H58 C40 1_555 1_555
H59 C40 1_555 1_555
H60 C40 1_555 1_555
O1 C3 1_555 1_555
C5 C10 1_555 1_555
C9 C10 1_555 1_555
C11 C12 1_555 1_555
O3 C16 1_555 1_555
O5 C19 1_555 1_555
O6 C23 1_555 1_555
C25 C30 1_555 1_555
C29 C30 1_555 1_555
C31 C32 1_555 1_555
O8 C36 1_555 1_555
O10 C39 1_555 1_555

#END
