
#######################################################################
#
#                 Cambridge Crystallographic Data Centre
#                                CCDC 
#
#######################################################################
#
# If this CIF has been generated from an entry in the Cambridge 
# Structural Database, then it will include bibliographic, chemical, 
# crystal, experimental, refinement or atomic coordinate data resulting 
# from the CCDC's data processing and validation procedures.
#
#######################################################################

data_YATGUX
_chemical_formula_moiety         'C26 H18 N4 O4'
_chemical_name_systematic        
8-Methyl-7-(3-nitrophenyl)-10-phenyl-10,11-dihydrochromeno[4,3-b]pyrazolo[4,3-e]pyridin-6(7H)-one
_symmetry_cell_setting           triclinic
_symmetry_space_group_name_H-M   'P -1'
_symmetry_Int_Tables_number      2
_space_group_name_Hall           '-P 1'
loop_
_symmetry_equiv_pos_site_id
_symmetry_equiv_pos_as_xyz
1 x,y,z
2 -x,-y,-z
_cell_length_a                   7.7288(15)
_cell_length_b                   11.168(2)
_cell_length_c                   12.645(3)
_cell_angle_alpha                107.02(3)
_cell_angle_beta                 90.85(3)
_cell_angle_gamma                101.93(3)
_cell_volume                     1017.79
_exptl_crystal_colour            yellow
_exptl_crystal_description       block
_cell_formula_units_Z            2
loop_
_atom_site_label
_atom_site_type_symbol
_atom_site_fract_x
_atom_site_fract_y
_atom_site_fract_z
O1 O 0.0165(2) 0.17149(19) 1.02527(14)
O2 O 0.0858(2) 0.36217(17) 1.00811(14)
O3 O 0.14532(19) 0.27914(13) 0.49130(12)
O4 O 0.28343(18) 0.48275(13) 0.54869(12)
N1 N 0.0360(2) 0.2453(2) 0.96836(16)
N2 N -0.1322(2) 0.57812(16) 0.74056(14)
H1 H -0.1021 0.6488 0.7983
N3 N -0.5642(2) 0.38441(16) 0.74322(15)
N4 N -0.4412(2) 0.49988(16) 0.77398(15)
C1 C -0.0375(3) 0.27161(19) 0.78935(17)
H2 H -0.0199 0.3613 0.8249
C2 C -0.0070(3) 0.1903(2) 0.84821(17)
C3 C -0.0230(3) 0.0597(2) 0.7998(2)
H3 H -0.0025 0.0062 0.8426
C4 C -0.0698(3) 0.0099(2) 0.6871(2)
H4 H -0.0767 -0.0786 0.6507
C5 C -0.1067(3) 0.08933(19) 0.62688(18)
H5 H -0.1411 0.0536 0.5497
C6 C -0.0944(2) 0.21969(18) 0.67727(16)
C7 C -0.1521(3) 0.30497(18) 0.61478(17)
H6 H -0.1913 0.2526 0.5361
C8 C 0.1409(3) 0.38599(19) 0.54921(17)
C9 C -0.0027(3) 0.41774(19) 0.61619(17)
C10 C 0.0049(3) 0.54212(18) 0.67874(16)
C11 C 0.1574(3) 0.64239(18) 0.67734(16)
C12 C 0.1744(3) 0.77303(19) 0.73460(18)
H7 H 0.0840 0.7997 0.7799
C13 C 0.3200(3) 0.8628(2) 0.72597(19)
H8 H 0.3294 0.9510 0.7648
C14 C 0.4539(3) 0.8249(2) 0.66045(19)
H9 H 0.5548 0.8873 0.6553
C15 C 0.4412(3) 0.6968(2) 0.60279(18)
H10 H 0.5324 0.6707 0.5581
C16 C 0.2929(3) 0.60769(18) 0.61154(17)
C17 C -0.2843(3) 0.48312(19) 0.72993(17)
C18 C -0.3046(3) 0.35814(18) 0.66838(16)
C19 C -0.4815(3) 0.30032(19) 0.67937(17)
C20 C -0.5763(3) 0.1640(2) 0.6295(2)
H11 H -0.6978 0.1525 0.6523
H12 H -0.5140 0.1082 0.6549
H13 H -0.5797 0.1416 0.5484
C21 C -0.4800(3) 0.6047(2) 0.85892(18)
C22 C -0.4008(3) 0.7304(2) 0.86689(19)
H14 H -0.3239 0.7487 0.8130
C23 C -0.4345(3) 0.8299(2) 0.9546(2)
H15 H -0.3795 0.9163 0.9610
C24 C -0.5475(4) 0.8033(3) 1.0322(2)
H16 H -0.5689 0.8712 1.0927
C25 C -0.6293(3) 0.6777(3) 1.0217(2)
H17 H -0.7085 0.6597 1.0746
C26 C -0.5975(3) 0.5778(2) 0.9352(2)
H18 H -0.6554 0.4917 0.9280
loop_
_geom_bond_atom_site_label_1
_geom_bond_atom_site_label_2
_geom_bond_site_symmetry_1
_geom_bond_site_symmetry_2
O1 N1 1_555 1_555
O2 N1 1_555 1_555
O3 C8 1_555 1_555
O4 C8 1_555 1_555
N1 C2 1_555 1_555
N2 H1 1_555 1_555
N3 N4 1_555 1_555
N4 C17 1_555 1_555
C1 H2 1_555 1_555
C2 C1 1_555 1_555
C3 C2 1_555 1_555
H3 C3 1_555 1_555
C4 C3 1_555 1_555
H4 C4 1_555 1_555
C5 C4 1_555 1_555
H5 C5 1_555 1_555
C6 C1 1_555 1_555
C7 C6 1_555 1_555
H6 C7 1_555 1_555
C8 C9 1_555 1_555
C9 C7 1_555 1_555
C10 N2 1_555 1_555
C11 C10 1_555 1_555
C12 C11 1_555 1_555
H7 C12 1_555 1_555
C13 C12 1_555 1_555
H8 C13 1_555 1_555
C14 C13 1_555 1_555
H9 C14 1_555 1_555
C15 C14 1_555 1_555
H10 C15 1_555 1_555
C16 O4 1_555 1_555
C17 N2 1_555 1_555
C18 C7 1_555 1_555
C19 N3 1_555 1_555
C20 C19 1_555 1_555
H11 C20 1_555 1_555
H12 C20 1_555 1_555
H13 C20 1_555 1_555
C21 N4 1_555 1_555
C22 C21 1_555 1_555
H14 C22 1_555 1_555
C23 C22 1_555 1_555
H15 C23 1_555 1_555
C24 C23 1_555 1_555
H16 C24 1_555 1_555
C25 C24 1_555 1_555
H17 C25 1_555 1_555
C26 C21 1_555 1_555
H18 C26 1_555 1_555
C5 C6 1_555 1_555
C9 C10 1_555 1_555
C11 C16 1_555 1_555
C15 C16 1_555 1_555
C17 C18 1_555 1_555
C18 C19 1_555 1_555
C25 C26 1_555 1_555

#END
