
#######################################################################
#
#                 Cambridge Crystallographic Data Centre
#                                CCDC 
#
#######################################################################
#
# If this CIF has been generated from an entry in the Cambridge 
# Structural Database, then it will include bibliographic, chemical, 
# crystal, experimental, refinement or atomic coordinate data resulting 
# from the CCDC's data processing and validation procedures.
#
#######################################################################

data_YATNIT
_chemical_formula_moiety         'C23 H17 N3'
_chemical_name_systematic        
2-methyl-N-(quinolin-8-yl)phenanthridin-4-amine
_symmetry_cell_setting           monoclinic
_symmetry_space_group_name_H-M   'P 21/c'
_symmetry_Int_Tables_number      14
_space_group_name_Hall           '-P 2ybc'
loop_
_symmetry_equiv_pos_site_id
_symmetry_equiv_pos_as_xyz
1 x,y,z
2 -x,1/2+y,1/2-z
3 -x,-y,-z
4 x,1/2-y,1/2+z
_cell_length_a                   7.6896(15)
_cell_length_b                   18.267(4)
_cell_length_c                   12.396(3)
_cell_angle_alpha                90
_cell_angle_beta                 98.19(3)
_cell_angle_gamma                90
_cell_volume                     1723.46
_exptl_crystal_colour            red
_exptl_crystal_description       block
_cell_formula_units_Z            4
_exptl_crystal_recrystallization_method 'ethyl acetate/hexanes'
loop_
_atom_site_label
_atom_site_type_symbol
_atom_site_fract_x
_atom_site_fract_y
_atom_site_fract_z
C1 C 0.0882(2) 0.72567(9) 0.07370(12)
H1 H 0.0107 0.7155 0.1228
C2 C 0.04613(19) 0.78485(9) -0.00050(11)
C3 C -0.1023(2) 0.82920(11) 0.00350(15)
H2 H -0.1784 0.8189 0.0535
C4 C -0.1353(3) 0.88736(12) -0.06578(18)
H3 H -0.2322 0.9172 -0.0619
C5 C -0.0227(2) 0.90186(11) -0.14279(17)
H4 H -0.0462 0.9413 -0.1901
C6 C 0.1212(2) 0.85889(9) -0.14931(12)
H5 H 0.1934 0.8688 -0.2017
C7 C 0.16080(18) 0.79975(8) -0.07725(10)
C8 C 0.31432(17) 0.75403(8) -0.07599(10)
C9 C 0.34196(18) 0.69863(8) 0.00343(10)
C10 C 0.49356(19) 0.65251(8) 0.00989(11)
C11 C 0.6092(2) 0.66336(9) -0.06453(12)
H6 H 0.7085 0.6339 -0.0612
C12 C 0.58008(19) 0.71769(9) -0.14471(12)
C13 C 0.43606(19) 0.76258(9) -0.15004(11)
H7 H 0.4186 0.7990 -0.2030
C14 C 0.7078(2) 0.72574(12) -0.22629(16)
H8 H 0.6567 0.7562 -0.2855
H9 H 0.7332 0.6784 -0.2538
H10 H 0.8145 0.7477 -0.1913
C15 C 0.4068(3) 0.48291(12) 0.34366(18)
H11 H 0.3083 0.4957 0.3752
C16 C 0.5079(3) 0.42451(13) 0.3883(2)
H12 H 0.4788 0.3998 0.4488
C17 C 0.6495(3) 0.40428(11) 0.34212(17)
H13 H 0.7177 0.3648 0.3702
C18 C 0.6941(2) 0.44278(9) 0.25167(13)
C19 C 0.58466(19) 0.50195(8) 0.21320(11)
C20 C 0.6225(2) 0.54434(9) 0.12171(12)
C21 C 0.7647(3) 0.52358(15) 0.0744(2)
H14 H 0.7920 0.5494 0.0144
C22 C 0.8703(4) 0.46427(16) 0.1141(2)
H15 H 0.9658 0.4519 0.0795
C23 C 0.8383(3) 0.42456(11) 0.20069(18)
H16 H 0.9111 0.3857 0.2259
N1 N 0.22741(18) 0.68501(8) 0.07735(10)
N2 N 0.50694(19) 0.60073(8) 0.09190(11)
H17 H 0.4261 0.6045 0.1329
N3 N 0.44170(19) 0.52142(8) 0.25932(12)
loop_
_geom_bond_atom_site_label_1
_geom_bond_atom_site_label_2
_geom_bond_site_symmetry_1
_geom_bond_site_symmetry_2
C1 H1 1_555 1_555
C2 C1 1_555 1_555
C3 C2 1_555 1_555
H2 C3 1_555 1_555
C4 C3 1_555 1_555
H3 C4 1_555 1_555
C5 C4 1_555 1_555
H4 C5 1_555 1_555
C6 C5 1_555 1_555
H5 C6 1_555 1_555
C7 C2 1_555 1_555
C8 C7 1_555 1_555
C9 C8 1_555 1_555
C10 C9 1_555 1_555
C11 C10 1_555 1_555
H6 C11 1_555 1_555
C12 C11 1_555 1_555
C13 C8 1_555 1_555
H7 C13 1_555 1_555
C14 C12 1_555 1_555
H8 C14 1_555 1_555
H9 C14 1_555 1_555
H10 C14 1_555 1_555
C15 H11 1_555 1_555
C16 C15 1_555 1_555
H12 C16 1_555 1_555
C17 C16 1_555 1_555
H13 C17 1_555 1_555
C18 C17 1_555 1_555
C19 C18 1_555 1_555
C20 C19 1_555 1_555
C21 C20 1_555 1_555
H14 C21 1_555 1_555
C22 C21 1_555 1_555
H15 C22 1_555 1_555
C23 C18 1_555 1_555
H16 C23 1_555 1_555
N1 C1 1_555 1_555
N2 C10 1_555 1_555
H17 N2 1_555 1_555
N3 C15 1_555 1_555
C6 C7 1_555 1_555
C9 N1 1_555 1_555
C12 C13 1_555 1_555
C19 N3 1_555 1_555
C20 N2 1_555 1_555
C22 C23 1_555 1_555

#END
