
#######################################################################
#
#                 Cambridge Crystallographic Data Centre
#                                CCDC 
#
#######################################################################
#
# If this CIF has been generated from an entry in the Cambridge 
# Structural Database, then it will include bibliographic, chemical, 
# crystal, experimental, refinement or atomic coordinate data resulting 
# from the CCDC's data processing and validation procedures.
#
#######################################################################

data_YATNOZ
_chemical_formula_moiety         'C28 H21 N3'
_chemical_name_systematic        N,N-bis(2-methylphenanthridin-4-yl)amine
_symmetry_cell_setting           orthorhombic
_symmetry_space_group_name_H-M   'P n a 21'
_symmetry_Int_Tables_number      33
_space_group_name_Hall           'P 2c -2n'
loop_
_symmetry_equiv_pos_site_id
_symmetry_equiv_pos_as_xyz
1 x,y,z
2 -x,-y,1/2+z
3 1/2+x,1/2-y,z
4 1/2-x,1/2+y,1/2+z
_cell_length_a                   15.7873(5)
_cell_length_b                   7.2730(2)
_cell_length_c                   17.5934(5)
_cell_angle_alpha                90
_cell_angle_beta                 90
_cell_angle_gamma                90
_cell_volume                     2020.09
_exptl_crystal_colour            yellow
_exptl_crystal_description       block
_cell_formula_units_Z            4
_exptl_crystal_recrystallization_method 'ethyl acetate/hexanes'
loop_
_atom_site_label
_atom_site_type_symbol
_atom_site_fract_x
_atom_site_fract_y
_atom_site_fract_z
C1 C 0.27058(16) 0.3664(4) 0.68154(15)
H1 H 0.3001 0.3512 0.7282
C2 C 0.18013(15) 0.3531(3) 0.68326(14)
C3 C 0.13676(17) 0.3123(4) 0.75145(16)
H2 H 0.1676 0.2957 0.7973
C4 C 0.05005(17) 0.2968(4) 0.75158(17)
H3 H 0.0209 0.2698 0.7975
C5 C 0.00442(17) 0.3208(4) 0.68359(17)
H4 H -0.0555 0.3089 0.6838
C6 C 0.04592(15) 0.3614(3) 0.61666(16)
H5 H 0.0142 0.3775 0.5712
C7 C 0.13524(14) 0.3794(3) 0.61486(15)
C8 C 0.18334(15) 0.4210(3) 0.54694(14)
C9 C 0.27235(15) 0.4242(3) 0.55304(15)
C10 C 0.32290(15) 0.4593(3) 0.48720(14)
C11 C 0.28323(16) 0.4974(3) 0.41896(15)
H6 H 0.3164 0.5231 0.3752
C12 C 0.19436(16) 0.4984(3) 0.41358(14)
C13 C 0.14543(15) 0.4596(3) 0.47586(15)
H7 H 0.0855 0.4587 0.4713
C14 C 0.15325(18) 0.5501(4) 0.33881(15)
H8 H 0.0961 0.4978 0.3365
H9 H 0.1872 0.5017 0.2967
H10 H 0.1499 0.6843 0.3348
C15 C 0.63140(16) 0.6089(3) 0.58471(15)
H11 H 0.6315 0.6551 0.6352
C16 C 0.71130(15) 0.5875(3) 0.54766(16)
C17 C 0.78790(17) 0.6289(4) 0.58514(17)
H12 H 0.7868 0.6719 0.6361
C18 C 0.86394(17) 0.6075(4) 0.54866(18)
H13 H 0.9153 0.6378 0.5738
C19 C 0.86537(17) 0.5406(4) 0.47392(19)
H14 H 0.9182 0.5235 0.4490
C20 C 0.79128(17) 0.4992(4) 0.43604(17)
H15 H 0.7936 0.4534 0.3855
C21 C 0.71195(15) 0.5243(3) 0.47171(16)
C22 C 0.63149(16) 0.4859(3) 0.43570(15)
C23 C 0.55748(16) 0.5057(3) 0.47996(14)
C24 C 0.47692(16) 0.4557(3) 0.44903(14)
C25 C 0.47273(16) 0.3938(3) 0.37462(15)
H16 H 0.4196 0.3575 0.3541
C26 C 0.54572(17) 0.3837(3) 0.32895(14)
C27 C 0.62371(17) 0.4261(3) 0.35950(15)
H17 H 0.6730 0.4150 0.3289
C28 C 0.53702(19) 0.3232(4) 0.24697(15)
H18 H 0.5126 0.4235 0.2169
H19 H 0.4999 0.2154 0.2442
H20 H 0.5930 0.2915 0.2267
N1 N 0.31542(13) 0.3980(3) 0.62058(13)
N2 N 0.40966(13) 0.4620(3) 0.49956(12)
H21 H 0.4245 0.4689 0.5477
N3 N 0.55817(13) 0.5694(3) 0.55416(12)
loop_
_geom_bond_atom_site_label_1
_geom_bond_atom_site_label_2
_geom_bond_site_symmetry_1
_geom_bond_site_symmetry_2
C1 H1 1_555 1_555
C2 C1 1_555 1_555
C3 C2 1_555 1_555
H2 C3 1_555 1_555
C4 C3 1_555 1_555
H3 C4 1_555 1_555
C5 C4 1_555 1_555
H4 C5 1_555 1_555
C6 C5 1_555 1_555
H5 C6 1_555 1_555
C7 C2 1_555 1_555
C8 C7 1_555 1_555
C9 C8 1_555 1_555
C10 C9 1_555 1_555
C11 C10 1_555 1_555
H6 C11 1_555 1_555
C12 C11 1_555 1_555
C13 C8 1_555 1_555
H7 C13 1_555 1_555
C14 C12 1_555 1_555
H8 C14 1_555 1_555
H9 C14 1_555 1_555
H10 C14 1_555 1_555
C15 H11 1_555 1_555
C16 C15 1_555 1_555
C17 C16 1_555 1_555
H12 C17 1_555 1_555
C18 C17 1_555 1_555
H13 C18 1_555 1_555
C19 C18 1_555 1_555
H14 C19 1_555 1_555
C20 C19 1_555 1_555
H15 C20 1_555 1_555
C21 C16 1_555 1_555
C22 C21 1_555 1_555
C23 C22 1_555 1_555
C24 C23 1_555 1_555
C25 C24 1_555 1_555
H16 C25 1_555 1_555
C26 C25 1_555 1_555
C27 C22 1_555 1_555
H17 C27 1_555 1_555
C28 C26 1_555 1_555
H18 C28 1_555 1_555
H19 C28 1_555 1_555
H20 C28 1_555 1_555
N1 C1 1_555 1_555
N2 C10 1_555 1_555
H21 N2 1_555 1_555
N3 C15 1_555 1_555
C6 C7 1_555 1_555
C9 N1 1_555 1_555
C12 C13 1_555 1_555
C20 C21 1_555 1_555
C23 N3 1_555 1_555
C24 N2 1_555 1_555
C26 C27 1_555 1_555

#END
