
#######################################################################
#
#                 Cambridge Crystallographic Data Centre
#                                CCDC 
#
#######################################################################
#
# If this CIF has been generated from an entry in the Cambridge 
# Structural Database, then it will include bibliographic, chemical, 
# crystal, experimental, refinement or atomic coordinate data resulting 
# from the CCDC's data processing and validation procedures.
#
#######################################################################

data_YATYOH10
_chemical_formula_moiety         'C12 H6 Se2'
_chemical_name_systematic        Dibenzo(bc,fg)(1,4)diselenapentalene
_symmetry_cell_setting           monoclinic
_symmetry_space_group_name_H-M   'P 21/c'
_symmetry_Int_Tables_number      14
_space_group_name_Hall           '-P 2ybc'
loop_
_symmetry_equiv_pos_site_id
_symmetry_equiv_pos_as_xyz
1 x,y,z
2 -x,1/2+y,1/2-z
3 -x,-y,-z
4 x,1/2-y,1/2+z
_cell_length_a                   7.922(2)
_cell_length_b                   8.606(1)
_cell_length_c                   14.286(3)
_cell_angle_alpha                90
_cell_angle_beta                 94.52
_cell_angle_gamma                90
_cell_volume                     970.944
_chemical_melting_point          '213 deg.C'
_cell_formula_units_Z            4
loop_
_atom_site_label
_atom_site_type_symbol
_atom_site_fract_x
_atom_site_fract_y
_atom_site_fract_z
Se1 Se 0.7890(1) 0.2982(1) 0.03807(6)
Se2 Se 0.3703(1) -0.0381(1) 0.21586(6)
C1 C 0.554(1) 0.247(1) 0.0205(6)
C2 C 0.422(1) 0.283(1) -0.0472(6)
C3 C 0.267(1) 0.219(1) -0.0369(7)
C4 C 0.226(1) 0.122(1) 0.0379(6)
C5 C 0.355(1) 0.0870(9) 0.1041(5)
C6 C 0.516(1) 0.1483(9) 0.0940(5)
C7 C 0.607(1) 0.0168(9) 0.2340(5)
C8 C 0.737(1) -0.016(1) 0.3035(6)
C9 C 0.892(1) 0.046(1) 0.2936(7)
C10 C 0.931(1) 0.142(1) 0.2193(6)
C11 C 0.804(1) 0.1743(9) 0.1510(6)
C12 C 0.6446(9) 0.1112(9) 0.1612(5)
H1 H 0.4405 0.3495 -0.0987
H2 H 0.1778 0.2422 -0.0842
H3 H 0.1153 0.0825 0.0420
H4 H 0.7166 -0.0802 0.3559
H5 H 0.9805 0.0237 0.3411
H6 H 1.0418 0.1826 0.2158
loop_
_geom_bond_atom_site_label_1
_geom_bond_atom_site_label_2
_geom_bond_site_symmetry_1
_geom_bond_site_symmetry_2
Se1 C1 1_555 1_555
Se2 C5 1_555 1_555
C1 C2 1_555 1_555
C2 C3 1_555 1_555
C3 C4 1_555 1_555
C4 C5 1_555 1_555
C5 C6 1_555 1_555
C6 C1 1_555 1_555
C7 Se2 1_555 1_555
C8 C7 1_555 1_555
C9 C8 1_555 1_555
C10 C9 1_555 1_555
C11 Se1 1_555 1_555
C12 C6 1_555 1_555
H1 C2 1_555 1_555
H2 C3 1_555 1_555
H3 C4 1_555 1_555
H4 C8 1_555 1_555
H5 C9 1_555 1_555
H6 C10 1_555 1_555
C7 C12 1_555 1_555
C10 C11 1_555 1_555
C11 C12 1_555 1_555

#END
