
#######################################################################
#
#                 Cambridge Crystallographic Data Centre
#                                CCDC 
#
#######################################################################
#
# If this CIF has been generated from an entry in the Cambridge 
# Structural Database, then it will include bibliographic, chemical, 
# crystal, experimental, refinement or atomic coordinate data resulting 
# from the CCDC's data processing and validation procedures.
#
#######################################################################

data_YATYUN
_chemical_formula_moiety         'C12 H6 S2'
_chemical_name_systematic        Dibenzo(bc,fg)(1,4)thiapentalene
_symmetry_cell_setting           monoclinic
_symmetry_space_group_name_H-M   'P 21/c'
_symmetry_Int_Tables_number      14
_space_group_name_Hall           '-P 2ybc'
loop_
_symmetry_equiv_pos_site_id
_symmetry_equiv_pos_as_xyz
1 x,y,z
2 -x,1/2+y,1/2-z
3 -x,-y,-z
4 x,1/2-y,1/2+z
_cell_length_a                   7.717(1)
_cell_length_b                   4.070
_cell_length_c                   14.904(2)
_cell_angle_alpha                90
_cell_angle_beta                 94.90(1)
_cell_angle_gamma                90
_cell_volume                     466.397
_cell_formula_units_Z            2
loop_
_atom_site_label
_atom_site_type_symbol
_atom_site_fract_x
_atom_site_fract_y
_atom_site_fract_z
S1 S 0.70659(7) 0.2109(1) 0.39985(3)
C1 C 0.4751(3) 0.3408(6) 0.3867(2)
C2 C 0.3438(4) 0.3197(7) 0.3173(2)
C3 C 0.1821(4) 0.4516(8) 0.3330(2)
C4 C 0.1433(3) 0.6013(7) 0.4125(2)
C5 C 0.7249(3) 0.3780(7) 0.5182(2)
C6 C 0.4343(3) 0.4901(6) 0.4653(2)
H1 H 0.362(3) 0.219(7) 0.262(2)
H2 H 0.090(3) 0.434(7) 0.285(2)
H3 H 0.033(3) 0.681(7) 0.418(2)
C5B C 0.2751(3) 0.6220(7) 0.4818(2)
S1B S 0.29341(7) 0.7891(1) 0.60015(3)
C1B C 0.5249(3) 0.6592(6) 0.6133(2)
C2B C 0.6562(4) 0.6803(7) 0.6827(2)
C3B C 0.8179(4) 0.5484(8) 0.6670(2)
C4B C 0.8567(3) 0.3987(7) 0.5875(2)
C6B C 0.5657(3) 0.5099(6) 0.5347(2)
H3B H 0.967(3) 0.319(7) 0.582(2)
H2B H 0.910(3) 0.566(7) 0.715(2)
H1B H 0.638(3) 0.781(7) 0.738(2)
loop_
_geom_bond_atom_site_label_1
_geom_bond_atom_site_label_2
_geom_bond_site_symmetry_1
_geom_bond_site_symmetry_2
S1 C1 1_555 1_555
C1 C2 1_555 1_555
C2 C3 1_555 1_555
C3 C4 1_555 1_555
C4 H3 1_555 1_555
C5 S1 1_555 1_555
C6 C1 1_555 1_555
H1 C2 1_555 1_555
H2 C3 1_555 1_555
C5B C4 1_555 1_555
S1B C5B 1_555 1_555
C1B S1B 1_555 1_555
C2B C1B 1_555 1_555
C3B C2B 1_555 1_555
C4B C5 1_555 1_555
C6B C5 1_555 1_555
H3B C4B 1_555 1_555
H2B C3B 1_555 1_555
H1B C2B 1_555 1_555
C6 C5B 1_555 1_555
C6 C6B 1_555 1_555
C1B C6B 1_555 1_555
C3B C4B 1_555 1_555

#END
