
#######################################################################
#
#                 Cambridge Crystallographic Data Centre
#                                CCDC 
#
#######################################################################
#
# If this CIF has been generated from an entry in the Cambridge 
# Structural Database, then it will include bibliographic, chemical, 
# crystal, experimental, refinement or atomic coordinate data resulting 
# from the CCDC's data processing and validation procedures.
#
#######################################################################

data_YAVMIU
_chemical_formula_moiety         'C102 H26 F40 N10 S1,C1 H2 Cl2,2.5(C6 H14)'
_chemical_name_systematic        
'10,15,20,25,35,40,45,50-octakis(pentafluorophenyl)-5,30-(thiene-2,5-diyl)-[44]decaphyrin(1.1.1.1.1.1.1.1.1.1) dichloromethane n-hexane solvate'
_symmetry_cell_setting           triclinic
_symmetry_space_group_name_H-M   'P -1'
_symmetry_Int_Tables_number      2
_space_group_name_Hall           '-P 1'
loop_
_symmetry_equiv_pos_site_id
_symmetry_equiv_pos_as_xyz
1 x,y,z
2 -x,-y,-z
_cell_length_a                   15.7785(12)
_cell_length_b                   19.6157(7)
_cell_length_c                   22.386(2)
_cell_angle_alpha                66.210(13)
_cell_angle_beta                 77.68(2)
_cell_angle_gamma                66.653(19)
_cell_volume                     5808.97
_exptl_crystal_colour            violet
_exptl_crystal_description       Prism
_cell_formula_units_Z            2
loop_
_atom_site_label
_atom_site_type_symbol
_atom_site_fract_x
_atom_site_fract_y
_atom_site_fract_z
C1 C 0.5932(4) 0.2378(3) 0.3631(2)
C2 C 0.6649(4) 0.1877(3) 0.3292(2)
C3 C 0.6962(4) 0.1041(3) 0.3471(3)
H1 H 0.6751 0.0677 0.3843
C4 C 0.7630(4) 0.0861(3) 0.3000(3)
H2 H 0.7974 0.0345 0.2986
C5 C 0.7714(4) 0.1574(3) 0.2542(2)
N1 N 0.7087(3) 0.2201(2) 0.27268(18)
C6 C 0.8366(4) 0.1704(3) 0.2003(2)
C7 C 0.8441(4) 0.2444(3) 0.1618(2)
C8 C 0.9125(4) 0.2638(3) 0.1113(3)
H3 H 0.9615 0.2278 0.0941
C9 C 0.8941(4) 0.3437(3) 0.0922(3)
H4 H 0.9286 0.3736 0.0601
C10 C 0.8129(4) 0.3730(3) 0.1301(2)
N2 N 0.7847(3) 0.3127(2) 0.1714(2)
H5 H 0.7363 0.3165 0.1996
C11 C 0.7632(4) 0.4540(3) 0.1266(2)
C12 C 0.6708(4) 0.4834(3) 0.1443(3)
C13 C 0.5989(4) 0.4470(3) 0.1626(3)
H6 H 0.6077 0.3934 0.1702
C14 C 0.5184(4) 0.5050(3) 0.1664(3)
H7 H 0.4587 0.5006 0.1775
C15 C 0.5406(4) 0.5766(3) 0.1500(2)
N3 N 0.6305(3) 0.5622(2) 0.1380(2)
C16 C 0.4803(4) 0.6578(3) 0.1425(2)
C17 C 0.3858(4) 0.6862(3) 0.1423(2)
C18 C 0.3245(4) 0.7676(3) 0.1286(3)
H8 H 0.3428 0.8109 0.1221
C19 C 0.2379(4) 0.7727(3) 0.1264(3)
H9 H 0.1853 0.8201 0.1171
C20 C 0.2380(4) 0.6941(3) 0.1405(3)
N4 N 0.3290(3) 0.6438(2) 0.1509(2)
H10 H 0.3480 0.5919 0.1615
C21 C 0.1681(3) 0.6680(3) 0.1403(2)
C22 C 0.1853(4) 0.5868(3) 0.1518(2)
C23 C 0.1286(4) 0.5582(3) 0.1310(2)
H11 H 0.0706 0.5884 0.1120
C24 C 0.1760(4) 0.4792(3) 0.1445(2)
H12 H 0.1590 0.4437 0.1347
C25 C 0.2568(3) 0.4599(3) 0.1764(2)
N5 N 0.2620(3) 0.5274(2) 0.17899(19)
C26 C 0.3176(3) 0.3830(3) 0.2055(2)
C27 C 0.3164(3) 0.3204(3) 0.1864(2)
C28 C 0.3282(4) 0.3199(3) 0.1205(2)
H13 H 0.3391 0.3597 0.0812
C29 C 0.3205(4) 0.2501(3) 0.1269(2)
H14 H 0.3266 0.2316 0.0924
C30 C 0.3014(4) 0.2104(3) 0.1948(2)
N6 N 0.3023(3) 0.2539(2) 0.23004(18)
C31 C 0.2761(4) 0.1423(3) 0.2238(2)
C32 C 0.2468(5) 0.1142(3) 0.2902(2)
C33 C 0.2036(6) 0.0561(4) 0.3224(3)
H15 H 0.1981 0.0217 0.3045
C34 C 0.1711(6) 0.0585(4) 0.3840(3)
H16 H 0.1365 0.0283 0.4156
C35 C 0.1997(5) 0.1151(3) 0.3912(2)
N7 N 0.2428(3) 0.1488(2) 0.33314(18)
H17 H 0.2645 0.1870 0.3249
C36 C 0.1820(4) 0.1392(3) 0.4466(2)
C37 C 0.2272(4) 0.1806(3) 0.4574(2)
C38 C 0.3054(4) 0.2040(3) 0.4227(2)
H18 H 0.3368 0.1966 0.3834
C39 C 0.3252(4) 0.2379(4) 0.4563(2)
H19 H 0.3731 0.2596 0.4455
C40 C 0.2587(4) 0.2354(3) 0.5133(2)
N8 N 0.2003(3) 0.2009(3) 0.5128(2)
C41 C 0.2499(4) 0.2586(4) 0.5681(3)
C42 C 0.3149(4) 0.2796(4) 0.5829(3)
C43 C 0.3132(4) 0.2981(4) 0.6404(3)
H20 H 0.2639 0.3024 0.6731
C44 C 0.3931(4) 0.3078(3) 0.6391(2)
H21 H 0.4098 0.3210 0.6704
C45 C 0.4498(4) 0.2950(3) 0.5818(2)
N9 N 0.3974(3) 0.2827(3) 0.5487(2)
H22 H 0.4143 0.2774 0.5102
C46 C 0.5429(4) 0.2867(3) 0.5643(2)
C47 C 0.5909(4) 0.2613(3) 0.5100(2)
C48 C 0.6880(4) 0.2242(3) 0.4995(3)
H23 H 0.7348 0.2158 0.5248
C49 C 0.7007(4) 0.2034(3) 0.4474(3)
H24 H 0.7577 0.1743 0.4303
C50 C 0.6105(4) 0.2341(3) 0.4221(2)
N10 N 0.5446(3) 0.2679(3) 0.46292(19)
C51 C 0.5088(3) 0.2928(3) 0.3297(2)
C52 C 0.4474(4) 0.3632(3) 0.3371(2)
H25 H 0.4535 0.3831 0.3676
C53 C 0.3752(4) 0.4019(3) 0.2943(2)
H26 H 0.3275 0.4507 0.2933
C54 C 0.3797(3) 0.3628(3) 0.2541(2)
S1 S 0.47606(9) 0.27575(7) 0.26927(6)
C55 C 0.8911(4) 0.1023(4) 0.1754(3)
C56 C 0.9795(4) 0.0553(4) 0.1967(3)
C57 C 1.0348(3) -0.0036(4) 0.1715(3)
C58 C 1.0018(4) -0.0156(3) 0.1251(4)
C59 C 0.9135(4) 0.0314(4) 0.1038(3)
C60 C 0.8581(4) 0.0904(4) 0.1289(4)
F1 F 1.0138(5) 0.0663(5) 0.2394(4)
F2 F 1.1184(4) -0.0514(4) 0.1927(3)
F3 F 1.0542(5) -0.0719(3) 0.0996(4)
F4 F 0.8833(4) 0.0227(3) 0.0563(3)
F5 F 0.7771(4) 0.1372(4) 0.1048(3)
C61 C 0.8131(3) 0.5119(3) 0.0999(2)
C62 C 0.8402(3) 0.5398(3) 0.0333(2)
C63 C 0.8815(4) 0.5969(3) 0.0077(2)
C64 C 0.8948(4) 0.6288(3) 0.0477(3)
C65 C 0.8677(4) 0.6050(3) 0.1127(3)
C66 C 0.8280(4) 0.5461(3) 0.1382(3)
F6 F 0.8249(2) 0.51191(18) -0.00706(14)
F7 F 0.9078(2) 0.62062(19) -0.05659(15)
F8 F 0.9331(2) 0.68607(19) 0.02278(17)
F9 F 0.8791(2) 0.6363(2) 0.15179(18)
F10 F 0.8029(2) 0.5231(2) 0.20245(15)
C67 C 0.5294(3) 0.7122(3) 0.1297(2)
C68 C 0.5848(4) 0.7317(3) 0.0717(3)
C69 C 0.6382(4) 0.7765(4) 0.0619(3)
C70 C 0.6373(4) 0.8056(4) 0.1084(3)
C71 C 0.5830(5) 0.7891(4) 0.1662(3)
C72 C 0.5308(4) 0.7424(3) 0.1752(3)
F11 F 0.5884(3) 0.7052(2) 0.02499(16)
F12 F 0.6922(3) 0.7929(2) 0.00657(18)
F13 F 0.6876(3) 0.8512(3) 0.0975(2)
F14 F 0.5788(3) 0.8184(2) 0.21185(18)
F15 F 0.4809(2) 0.72499(19) 0.23330(15)
C73 C 0.0735(4) 0.7283(3) 0.1230(3)
C74 C 0.0574(4) 0.7918(3) 0.0655(3)
C75 C -0.0269(5) 0.8505(4) 0.0509(4)
C76 C -0.1009(5) 0.8448(4) 0.0957(5)
C77 C -0.0895(4) 0.7800(4) 0.1542(4)
C78 C -0.0027(4) 0.7234(3) 0.1672(3)
F16 F 0.1270(3) 0.8004(2) 0.01884(17)
F17 F -0.0399(3) 0.9126(2) -0.0037(2)
F18 F -0.1843(3) 0.9019(2) 0.0843(3)
F19 F -0.1608(2) 0.7735(2) 0.1983(2)
F20 F 0.0081(2) 0.66202(17) 0.22462(15)
C79 C 0.2732(4) 0.1007(3) 0.1817(2)
C80 C 0.2083(4) 0.1377(3) 0.1343(3)
C81 C 0.2047(5) 0.0987(4) 0.0955(3)
C82 C 0.2600(5) 0.0227(4) 0.1051(3)
C83 C 0.3257(5) -0.0151(3) 0.1516(3)
C84 C 0.3291(5) 0.0230(3) 0.1894(3)
F21 F 0.1500(2) 0.21040(19) 0.12487(17)
F22 F 0.1409(3) 0.1357(2) 0.05108(19)
F23 F 0.2543(3) -0.0163(2) 0.06952(19)
F24 F 0.3794(4) -0.0911(2) 0.1617(2)
F25 F 0.3929(3) -0.01512(19) 0.23484(18)
C85 C 0.1708(4) 0.2465(5) 0.6177(3)
C86 C 0.0805(5) 0.2970(4) 0.6036(3)
C87 C 0.0072(4) 0.2803(5) 0.6462(3)
C88 C 0.0241(4) 0.2132(5) 0.7028(3)
C89 C 0.1145(5) 0.1627(4) 0.7169(3)
C90 C 0.1878(4) 0.1794(4) 0.6743(3)
F26 F 0.0637(4) 0.3593(5) 0.5491(3)
F27 F -0.0793(4) 0.3288(5) 0.6329(3)
F28 F -0.0463(5) 0.1962(5) 0.7454(4)
F29 F 0.1270(5) 0.0990(5) 0.7710(3)
F30 F 0.2699(4) 0.1285(4) 0.6877(3)
C91 C 0.5949(4) 0.2985(3) 0.6052(2)
C92 C 0.5838(4) 0.3750(3) 0.5997(3)
C93 C 0.6313(5) 0.3883(3) 0.6363(3)
C94 C 0.6943(4) 0.3255(4) 0.6792(3)
C95 C 0.7081(4) 0.2508(3) 0.6845(3)
C96 C 0.6588(4) 0.2380(3) 0.6483(3)
F31 F 0.5237(4) 0.4369(2) 0.5589(2)
F32 F 0.6175(4) 0.4627(2) 0.6303(2)
F33 F 0.7407(2) 0.3394(2) 0.71389(17)
F34 F 0.7697(3) 0.1894(2) 0.7255(2)
F35 F 0.6746(3) 0.1618(2) 0.65678(18)
C97 C 0.1016(3) 0.1207(2) 0.49693(19)
C98 C 0.1120(3) 0.0421(2) 0.5355(2)
C99 C 0.0441(3) 0.0247(2) 0.5839(2)
C100 C -0.0341(3) 0.0858(3) 0.5937(2)
C101 C -0.0445(3) 0.1643(2) 0.5551(2)
C102 C 0.0233(3) 0.18175(18) 0.5067(2)
F36 F 0.1856(3) -0.0174(2) 0.52860(18)
F37 F 0.0520(3) -0.0505(2) 0.6201(2)
F38 F -0.0980(7) 0.0689(6) 0.6402(4)
F39 F -0.1191(3) 0.2228(3) 0.5658(2)
F40 F 0.0105(3) 0.2567(2) 0.47131(19)
Cl1 Cl 0.0798(12) 0.4233(10) 0.3346(8)
Cl2 Cl 0.0052(10) 0.3266(13) 0.2570(7)
C103 C 0.0632(12) 0.3593(10) 0.3016(7)
C104 C 0.5036(8) 0.9922(5) 0.4686(5)
C105 C 0.4586(13) 0.9387(8) 0.4003(8)
C106 C 0.4452(9) 0.9480(7) 0.4697(7)
C104A C 0.4964(8) 1.0078(5) 0.5314(5)
C105A C 0.5414(13) 1.0613(8) 0.5997(8)
C106A C 0.5548(9) 1.0520(7) 0.5303(7)
C107 C 0.5220(5) 0.4555(4) 0.0108(3)
C108 C 0.6294(6) 0.4259(6) -0.0002(4)
C109 C 0.6757(9) 0.3392(8) 0.0246(6)
C107A C 0.4780(5) 0.5445(4) -0.0108(3)
C108A C 0.3706(6) 0.5741(6) 0.0002(4)
C109A C 0.3243(9) 0.6608(8) -0.0246(6)
C110 C 0.6648(18) 0.4367(15) 0.3677(13)
C111 C 0.7362(15) 0.4447(15) 0.3933(11)
C112 C 0.7526(19) 0.4440(16) 0.4556(12)
C113 C 0.8201(18) 0.4755(18) 0.4665(14)
C114 C 0.800(2) 0.5043(16) 0.5270(14)
C115 C 0.6071(18) 0.4804(17) 0.3136(10)
F41? F 1.0169(7) 0.1072(5) 0.2572(5)
F42? F 1.1380(9) -0.0887(6) 0.1655(6)
F43? F 1.1610(7) -0.0176(5) 0.2365(5)
F44? F 0.9721(15) -0.0376(9) 0.1123(6)
F45? F 0.8291(17) 0.0859(12) 0.1313(8)
C116? C 0.9191(8) 0.0997(7) 0.1960(7)
C117? C 1.0033(10) 0.0733(8) 0.2226(7)
C118? C 1.0763(8) 0.0096(7) 0.2118(6)
C119? C 1.0652(8) -0.0278(7) 0.1744(7)
C120? C 0.9810(9) -0.0014(8) 0.1477(7)
C121? C 0.9080(7) 0.0623(7) 0.1585(6)
F46? F -0.0738(17) 0.2397(13) 0.7261(11)
F47? F 0.0892(14) 0.3922(8) 0.5739(8)
F48? F -0.0667(12) 0.3784(14) 0.6513(8)
F49? F 0.080(3) 0.1022(16) 0.7282(17)
F50? F 0.2236(18) 0.1176(9) 0.6509(9)
C122? C 0.1642(12) 0.2552(12) 0.6109(9)
C123? C 0.0891(16) 0.3240(10) 0.6085(9)
C124? C 0.0087(13) 0.3192(11) 0.6473(10)
C125? C 0.0034(12) 0.2455(13) 0.6884(11)
C126? C 0.0786(16) 0.1767(10) 0.6908(11)
C127? C 0.1590(13) 0.1815(10) 0.6520(10)
C128? C 0.1233(12) 0.1160(13) 0.4966(8)
C129? C 0.1284(11) 0.0918(12) 0.5636(9)
C130? C 0.0536(14) 0.0782(13) 0.6061(7)
C131? C -0.0263(12) 0.0888(14) 0.5814(9)
C132? C -0.0314(12) 0.1130(14) 0.5144(10)
C133? C 0.0434(15) 0.1266(13) 0.4719(7)
F51? F 0.2025(11) 0.0722(8) 0.5902(7)
F52? F 0.0552(13) 0.0562(10) 0.6692(8)
F53? F -0.113(4) 0.085(3) 0.623(2)
F54? F -0.1115(13) 0.1202(12) 0.4952(10)
F55? F 0.0319(11) 0.1522(10) 0.4084(8)
C134? C 0.5600(14) 0.0898(15) 0.2266(13)
C135? C 0.5761(19) 0.1106(15) 0.0958(11)
C136? C 0.5782(18) 0.0752(16) 0.0431(12)
C137? C 0.5209(19) 0.0317(15) 0.0439(13)
C138? C 0.5871(17) 0.0717(17) 0.1657(11)
C139? C 0.5000 0.0000 0.0000
loop_
_geom_bond_atom_site_label_1
_geom_bond_atom_site_label_2
_geom_bond_site_symmetry_1
_geom_bond_site_symmetry_2
C1 C2 1_555 1_555
C2 C3 1_555 1_555
C3 H1 1_555 1_555
C4 C3 1_555 1_555
H2 C4 1_555 1_555
C5 C4 1_555 1_555
N1 C2 1_555 1_555
C6 C5 1_555 1_555
C7 C6 1_555 1_555
C8 C7 1_555 1_555
H3 C8 1_555 1_555
C9 C8 1_555 1_555
H4 C9 1_555 1_555
C10 C9 1_555 1_555
N2 C7 1_555 1_555
H5 N2 1_555 1_555
C11 C10 1_555 1_555
C12 C11 1_555 1_555
C13 C12 1_555 1_555
H6 C13 1_555 1_555
C14 C13 1_555 1_555
H7 C14 1_555 1_555
C15 C14 1_555 1_555
N3 C12 1_555 1_555
C16 C15 1_555 1_555
C17 C16 1_555 1_555
C18 C17 1_555 1_555
H8 C18 1_555 1_555
C19 C18 1_555 1_555
H9 C19 1_555 1_555
C20 C19 1_555 1_555
N4 C17 1_555 1_555
H10 N4 1_555 1_555
C21 C20 1_555 1_555
C22 C21 1_555 1_555
C23 C22 1_555 1_555
H11 C23 1_555 1_555
C24 C23 1_555 1_555
H12 C24 1_555 1_555
C25 C24 1_555 1_555
N5 C22 1_555 1_555
C26 C25 1_555 1_555
C27 C26 1_555 1_555
C28 C27 1_555 1_555
H13 C28 1_555 1_555
C29 C28 1_555 1_555
H14 C29 1_555 1_555
C30 C29 1_555 1_555
N6 C27 1_555 1_555
C31 C30 1_555 1_555
C32 C31 1_555 1_555
C33 C32 1_555 1_555
H15 C33 1_555 1_555
C34 C33 1_555 1_555
H16 C34 1_555 1_555
C35 C34 1_555 1_555
N7 C32 1_555 1_555
H17 N7 1_555 1_555
C36 C35 1_555 1_555
C37 C36 1_555 1_555
C38 C37 1_555 1_555
H18 C38 1_555 1_555
C39 C38 1_555 1_555
H19 C39 1_555 1_555
C40 C39 1_555 1_555
N8 C37 1_555 1_555
C41 C40 1_555 1_555
C42 C41 1_555 1_555
C43 C42 1_555 1_555
H20 C43 1_555 1_555
C44 C43 1_555 1_555
H21 C44 1_555 1_555
C45 C44 1_555 1_555
N9 C42 1_555 1_555
H22 N9 1_555 1_555
C46 C45 1_555 1_555
C47 C46 1_555 1_555
C48 C47 1_555 1_555
H23 C48 1_555 1_555
C49 C48 1_555 1_555
H24 C49 1_555 1_555
C50 C1 1_555 1_555
N10 C47 1_555 1_555
C51 C1 1_555 1_555
C52 C51 1_555 1_555
H25 C52 1_555 1_555
C53 C52 1_555 1_555
H26 C53 1_555 1_555
C54 C26 1_555 1_555
S1 C51 1_555 1_555
C55 C6 1_555 1_555
C56 C55 1_555 1_555
C57 C56 1_555 1_555
C58 C57 1_555 1_555
C59 C58 1_555 1_555
C60 C55 1_555 1_555
F1 C56 1_555 1_555
F2 C57 1_555 1_555
F3 C58 1_555 1_555
F4 C59 1_555 1_555
F5 C60 1_555 1_555
C61 C11 1_555 1_555
C62 C61 1_555 1_555
C63 C62 1_555 1_555
C64 C63 1_555 1_555
C65 C64 1_555 1_555
C66 C61 1_555 1_555
F6 C62 1_555 1_555
F7 C63 1_555 1_555
F8 C64 1_555 1_555
F9 C65 1_555 1_555
F10 C66 1_555 1_555
C67 C16 1_555 1_555
C68 C67 1_555 1_555
C69 C68 1_555 1_555
C70 C69 1_555 1_555
C71 C70 1_555 1_555
C72 C67 1_555 1_555
F11 C68 1_555 1_555
F12 C69 1_555 1_555
F13 C70 1_555 1_555
F14 C71 1_555 1_555
F15 C72 1_555 1_555
C73 C21 1_555 1_555
C74 C73 1_555 1_555
C75 C74 1_555 1_555
C76 C75 1_555 1_555
C77 C76 1_555 1_555
C78 C73 1_555 1_555
F16 C74 1_555 1_555
F17 C75 1_555 1_555
F18 C76 1_555 1_555
F19 C77 1_555 1_555
F20 C78 1_555 1_555
C79 C31 1_555 1_555
C80 C79 1_555 1_555
C81 C80 1_555 1_555
C82 C81 1_555 1_555
C83 C82 1_555 1_555
C84 C79 1_555 1_555
F21 C80 1_555 1_555
F22 C81 1_555 1_555
F23 C82 1_555 1_555
F24 C83 1_555 1_555
F25 C84 1_555 1_555
C85 C41 1_555 1_555
C86 C85 1_555 1_555
C87 C86 1_555 1_555
C88 C87 1_555 1_555
C89 C88 1_555 1_555
C90 C85 1_555 1_555
F26 C86 1_555 1_555
F27 C87 1_555 1_555
F28 C88 1_555 1_555
F29 C89 1_555 1_555
F30 C90 1_555 1_555
C91 C46 1_555 1_555
C92 C91 1_555 1_555
C93 C92 1_555 1_555
C94 C93 1_555 1_555
C95 C94 1_555 1_555
C96 C91 1_555 1_555
F31 C92 1_555 1_555
F32 C93 1_555 1_555
F33 C94 1_555 1_555
F34 C95 1_555 1_555
F35 C96 1_555 1_555
C97 C36 1_555 1_555
C98 C97 1_555 1_555
C99 C98 1_555 1_555
C100 C99 1_555 1_555
C101 C100 1_555 1_555
C102 C97 1_555 1_555
F36 C98 1_555 1_555
F37 C99 1_555 1_555
F38 C100 1_555 1_555
F39 C101 1_555 1_555
F40 C102 1_555 1_555
Cl1 C103 1_555 1_555
Cl2 C103 1_555 1_555
C104 C106 1_555 1_555
C105 C106 1_555 1_555
C107 C108 1_555 1_555
C108 C109 1_555 1_555
C110 C111 1_555 1_555
C111 C112 1_555 1_555
C112 C113 1_555 1_555
C113 C114 1_555 1_555
C115 C110 1_555 1_555
C104A C104 1_555 1_555
C105A C106A 1_555 1_555
C106A C104A 1_555 1_555
C107A C107 1_555 1_555
C108A C107A 1_555 1_555
C109A C108A 1_555 1_555
C5 N1 1_555 1_555
C10 N2 1_555 1_555
C15 N3 1_555 1_555
C20 N4 1_555 1_555
C25 N5 1_555 1_555
C30 N6 1_555 1_555
C35 N7 1_555 1_555
C40 N8 1_555 1_555
C45 N9 1_555 1_555
C49 C50 1_555 1_555
C50 N10 1_555 1_555
C53 C54 1_555 1_555
C54 S1 1_555 1_555
C59 C60 1_555 1_555
C65 C66 1_555 1_555
C71 C72 1_555 1_555
C77 C78 1_555 1_555
C83 C84 1_555 1_555
C89 C90 1_555 1_555
C95 C96 1_555 1_555
C101 C102 1_555 1_555

#END
