
#######################################################################
#
#                 Cambridge Crystallographic Data Centre
#                                CCDC 
#
#######################################################################
#
# If this CIF has been generated from an entry in the Cambridge 
# Structural Database, then it will include bibliographic, chemical, 
# crystal, experimental, refinement or atomic coordinate data resulting 
# from the CCDC's data processing and validation procedures.
#
#######################################################################

data_YAVMUG
_chemical_name_common            
(E)-2-Bromo-5-methyl-8,9,10,15-tetrahydrodibenzo[d,g][1]oxa[2,6]diazacycloundecine
_chemical_formula_moiety         'C17 H17 Br1 N2 O1'
_chemical_name_systematic        
2-bromo-5-methyl-8,9,10,15-tetrahydrodibenzo[d,g][1,2,6]oxadiazacycloundecine
_symmetry_cell_setting           orthorhombic
_symmetry_space_group_name_H-M   'P 21 21 21'
_symmetry_Int_Tables_number      19
_space_group_name_Hall           'P 2ac 2ab'
loop_
_symmetry_equiv_pos_site_id
_symmetry_equiv_pos_as_xyz
1 x,y,z
2 1/2-x,-y,1/2+z
3 -x,1/2+y,1/2-z
4 1/2+x,1/2-y,-z
_cell_length_a                   7.9199(3)
_cell_length_b                   10.7537(5)
_cell_length_c                   17.5419(8)
_cell_angle_alpha                90
_cell_angle_beta                 90
_cell_angle_gamma                90
_cell_volume                     1494.01
_exptl_crystal_colour            colorless
_exptl_crystal_description       Block
_chemical_melting_point          '88-90 deg.C'
_cell_formula_units_Z            4
loop_
_atom_site_label
_atom_site_type_symbol
_atom_site_fract_x
_atom_site_fract_y
_atom_site_fract_z
C1 C 0.4800(3) 0.8111(2) 0.66784(11)
C2 C 0.4843(3) 0.70571(18) 0.62309(11)
H1 H 0.4911 0.6260 0.6462
C3 C 0.4789(2) 0.71614(17) 0.54360(11)
C4 C 0.4690(3) 0.83642(18) 0.50966(11)
C5 C 0.4644(3) 0.9400(2) 0.55796(13)
H2 H 0.4581 1.0206 0.5359
C6 C 0.4688(3) 0.9295(2) 0.63691(12)
H3 H 0.4643 1.0010 0.6686
C7 C 0.4082(3) 0.49836(18) 0.49748(11)
C8 C 0.3196(3) 0.45223(19) 0.55963(12)
H4 H 0.3152 0.4986 0.6057
C9 C 0.2370(3) 0.3379(2) 0.55462(13)
H5 H 0.1793 0.3061 0.5979
C10 C 0.2380(3) 0.2707(2) 0.48790(13)
H6 H 0.1786 0.1941 0.4843
C11 C 0.3277(3) 0.3169(2) 0.42550(12)
H7 H 0.3293 0.2705 0.3794
C12 C 0.4148(3) 0.42884(18) 0.42894(11)
C13 C 0.5098(3) 0.47573(17) 0.35988(10)
H8 H 0.5482 0.4035 0.3295
H9 H 0.6114 0.5212 0.3773
C14 C 0.4042(3) 0.5623(2) 0.30811(12)
H10 H 0.3498 0.5113 0.2681
H11 H 0.3133 0.6002 0.3391
C15 C 0.5038(3) 0.6663(2) 0.26964(10)
H12 H 0.6253 0.6447 0.2705
H13 H 0.4685 0.6721 0.2156
C16 C 0.3630(3) 0.9690(2) 0.39685(14)
H14 H 0.4356 1.0421 0.4032
H15 H 0.2579 0.9813 0.4253
H16 H 0.3372 0.9575 0.3427
C17 C 0.4524(3) 0.85604(19) 0.42656(12)
N1 N 0.4925(3) 0.61323(14) 0.49621(8)
H17 H 0.5664 0.6214 0.4591
N2 N 0.5143(3) 0.77019(16) 0.38332(9)
O1 O 0.4809(2) 0.78640(13) 0.30549(8)
Br1 Br 0.49737(3) 0.79467(2) 0.775314(11)
loop_
_geom_bond_atom_site_label_1
_geom_bond_atom_site_label_2
_geom_bond_site_symmetry_1
_geom_bond_site_symmetry_2
C1 C2 1_555 1_555
C2 H1 1_555 1_555
C3 C2 1_555 1_555
C4 C3 1_555 1_555
C5 C4 1_555 1_555
H2 C5 1_555 1_555
C6 C1 1_555 1_555
H3 C6 1_555 1_555
C7 C8 1_555 1_555
C8 H4 1_555 1_555
C9 C8 1_555 1_555
H5 C9 1_555 1_555
C10 C9 1_555 1_555
H6 C10 1_555 1_555
C11 C10 1_555 1_555
H7 C11 1_555 1_555
C12 C7 1_555 1_555
C13 C12 1_555 1_555
H8 C13 1_555 1_555
H9 C13 1_555 1_555
C14 C13 1_555 1_555
H10 C14 1_555 1_555
H11 C14 1_555 1_555
C15 C14 1_555 1_555
H12 C15 1_555 1_555
H13 C15 1_555 1_555
C16 H14 1_555 1_555
H15 C16 1_555 1_555
H16 C16 1_555 1_555
C17 C4 1_555 1_555
N1 C3 1_555 1_555
H17 N1 1_555 1_555
N2 C17 1_555 1_555
O1 C15 1_555 1_555
Br1 C1 1_555 1_555
C5 C6 1_555 1_555
C7 N1 1_555 1_555
C11 C12 1_555 1_555
C16 C17 1_555 1_555
N2 O1 1_555 1_555

#END
