
#######################################################################
#
#                 Cambridge Crystallographic Data Centre
#                                CCDC 
#
#######################################################################
#
# If this CIF has been generated from an entry in the Cambridge 
# Structural Database, then it will include bibliographic, chemical, 
# crystal, experimental, refinement or atomic coordinate data resulting 
# from the CCDC's data processing and validation procedures.
#
#######################################################################

data_YAVNER
_chemical_formula_moiety         'C32 H48 N4 O2'
_chemical_name_systematic        
16,32-dimethyl-6,7,8,9,10,11,12,13,22,23,24,25,26,27,28,29-hexadecahydro-5H,21H-dibenzo[d,r][1,15,2,6,16,20]dioxatetraazacyclooctacosine
_symmetry_cell_setting           monoclinic
_symmetry_space_group_name_H-M   'C c'
_symmetry_Int_Tables_number      9
_space_group_name_Hall           'C -2yc'
loop_
_symmetry_equiv_pos_site_id
_symmetry_equiv_pos_as_xyz
1 x,y,z
2 x,-y,1/2+z
3 1/2+x,1/2+y,z
4 1/2+x,1/2-y,1/2+z
_cell_length_a                   4.7534(2)
_cell_length_b                   16.7024(9)
_cell_length_c                   37.157(2)
_cell_angle_alpha                90
_cell_angle_beta                 93.67
_cell_angle_gamma                90
_cell_volume                     2943.96
_exptl_crystal_colour            colorless
_exptl_crystal_description       platy
_chemical_melting_point          '166-168 deg.C'
_cell_formula_units_Z            4
loop_
_atom_site_label
_atom_site_type_symbol
_atom_site_fract_x
_atom_site_fract_y
_atom_site_fract_z
C1 C 0.7193(6) 0.05199(17) 0.54265(7)
C2 C 0.8951(6) 0.11210(16) 0.55924(7)
C3 C 0.8843(6) 0.19776(16) 0.54883(7)
C4 C 1.0638(8) 0.25911(19) 0.56864(9)
H1 H 1.2164 0.2756 0.5537
H2 H 1.1442 0.2362 0.5913
H3 H 0.9483 0.3058 0.5739
C5 C 0.7394(7) -0.02678(17) 0.55643(8)
H4 H 0.6191 -0.0673 0.5461
C6 C 1.0883(7) 0.08858(18) 0.58768(8)
H5 H 1.2108 0.1277 0.5986
C7 C 0.9300(7) -0.04580(18) 0.58447(8)
H6 H 0.9404 -0.0993 0.5932
C8 C 1.1057(7) 0.01150(18) 0.60008(8)
H7 H 1.2382 -0.0023 0.6193
C9 C 0.4163(7) 0.36386(19) 0.35123(8)
H8 H 0.3291 0.4158 0.3569
H9 H 0.2626 0.3243 0.3469
C10 C 0.6509(7) 0.30893(19) 0.45086(8)
H10 H 0.7140 0.2529 0.4482
H11 H 0.8199 0.3437 0.4514
C11 C 0.5131(7) 0.31709(18) 0.48610(8)
H12 H 0.4365 0.3719 0.4880
H13 H 0.3532 0.2791 0.4863
C12 C 0.6039(7) 0.3372(2) 0.38346(8)
H14 H 0.7625 0.3755 0.3870
H15 H 0.6845 0.2842 0.3781
C13 C 0.5716(7) 0.37277(19) 0.31703(8)
H16 H 0.7354 0.4085 0.3221
H17 H 0.6451 0.3197 0.3104
C14 C 0.4562(7) 0.33132(19) 0.41840(8)
H18 H 0.3046 0.2908 0.4154
H19 H 0.3667 0.3835 0.4231
C15 C 0.3954(7) 0.40585(19) 0.28507(8)
H20 H 0.3196 0.4587 0.2917
H21 H 0.2332 0.3697 0.2796
N1 N 0.4584(5) 0.18610(13) 0.22802(6)
O1 O 0.2865(5) 0.11852(12) 0.23344(5)
C16 C 0.7799(6) 0.24853(17) 0.19043(7)
N2 N 0.5374(5) 0.06874(15) 0.51371(6)
C17 C 0.1359(7) 0.13262(18) 0.26515(7)
H22 H -0.0293 0.0965 0.2649
H23 H 0.0655 0.1884 0.2648
C18 C 0.1514(7) 0.1208(2) 0.33277(7)
H24 H -0.0078 0.0827 0.3296
H25 H 0.0715 0.1751 0.3355
C19 C 0.1695(6) 0.04756(18) 0.46667(8)
H26 H 0.0854 0.0983 0.4746
H27 H 0.0132 0.0107 0.4593
C20 C 0.3182(7) 0.1191(2) 0.29955(8)
H28 H 0.4134 0.0665 0.2981
H29 H 0.4657 0.1609 0.3017
C21 C 0.1614(6) 0.09131(19) 0.40069(7)
H30 H 0.0744 0.1437 0.4057
H31 H 0.0074 0.0522 0.3957
C22 C 0.7736(6) 0.32484(16) 0.20770(7)
C23 C 0.5577(7) 0.41521(17) 0.25150(8)
H32 H 0.4440 0.4461 0.2331
H33 H 0.7349 0.4449 0.2575
N3 N 0.6213(5) 0.33688(14) 0.23742(6)
C24 C 0.3299(7) 0.0991(2) 0.36732(7)
H34 H 0.4274 0.0477 0.3634
H35 H 0.4762 0.1407 0.3719
C25 C 0.9541(6) 0.24006(19) 0.16190(7)
H36 H 0.9635 0.1893 0.1505
C26 C 0.9323(7) 0.38769(19) 0.19409(7)
H37 H 0.9233 0.4392 0.2048
C27 C 0.5992(7) 0.17999(17) 0.19986(7)
C28 C 1.1146(7) 0.30249(19) 0.14945(8)
H38 H 1.2322 0.2944 0.1300
C29 C 1.1000(7) 0.3765(2) 0.16578(8)
H39 H 1.2067 0.4200 0.1574
C30 C 0.3418(7) 0.01123(18) 0.49807(8)
H40 H 0.2148 -0.0071 0.5165
H41 H 0.4460 -0.0359 0.4897
C31 C 0.3412(7) 0.0645(2) 0.43398(8)
H42 H 0.4819 0.1066 0.4405
H43 H 0.4450 0.0153 0.4280
O2 O 0.7034(5) 0.30188(11) 0.51661(6)
N4 N 0.7094(6) 0.21756(13) 0.52253(7)
C32 C 0.5887(10) 0.1074(2) 0.17627(10)
H44 H 0.7690 0.0790 0.1792
H45 H 0.5536 0.1237 0.1510
H46 H 0.4367 0.0721 0.1832
H47 H 0.517(7) 0.1185(18) 0.5082(7)
H48 H 0.504(9) 0.2991(19) 0.2432(9)
loop_
_geom_bond_atom_site_label_1
_geom_bond_atom_site_label_2
_geom_bond_site_symmetry_1
_geom_bond_site_symmetry_2
C1 C2 1_555 1_555
C2 C3 1_555 1_555
C3 C4 1_555 1_555
C4 H1 1_555 1_555
H2 C4 1_555 1_555
H3 C4 1_555 1_555
C5 C1 1_555 1_555
H4 C5 1_555 1_555
C6 C2 1_555 1_555
H5 C6 1_555 1_555
C7 C5 1_555 1_555
H6 C7 1_555 1_555
C8 C6 1_555 1_555
H7 C8 1_555 1_555
C9 H8 1_555 1_555
H9 C9 1_555 1_555
C10 H10 1_555 1_555
H11 C10 1_555 1_555
C11 C10 1_555 1_555
H12 C11 1_555 1_555
H13 C11 1_555 1_555
C12 C9 1_555 1_555
H14 C12 1_555 1_555
H15 C12 1_555 1_555
C13 C9 1_555 1_555
H16 C13 1_555 1_555
H17 C13 1_555 1_555
C14 C10 1_555 1_555
H18 C14 1_555 1_555
H19 C14 1_555 1_555
C15 C13 1_555 1_555
H20 C15 1_555 1_555
H21 C15 1_555 1_555
N1 O1 1_555 1_555
O1 C17 1_555 1_555
C16 C22 1_555 1_555
N2 C1 1_555 1_555
C17 H22 1_555 1_555
H23 C17 1_555 1_555
C18 H24 1_555 1_555
H25 C18 1_555 1_555
C19 H26 1_555 1_555
H27 C19 1_555 1_555
C20 C17 1_555 1_555
H28 C20 1_555 1_555
H29 C20 1_555 1_555
C21 H30 1_555 1_555
H31 C21 1_555 1_555
C22 N3 1_555 1_555
C23 C15 1_555 1_555
H32 C23 1_555 1_555
H33 C23 1_555 1_555
N3 C23 1_555 1_555
C24 C18 1_555 1_555
H34 C24 1_555 1_555
H35 C24 1_555 1_555
C25 C16 1_555 1_555
H36 C25 1_555 1_555
C26 C22 1_555 1_555
H37 C26 1_555 1_555
C27 N1 1_555 1_555
C28 C25 1_555 1_555
H38 C28 1_555 1_555
C29 C26 1_555 1_555
H39 C29 1_555 1_555
C30 N2 1_555 1_555
H40 C30 1_555 1_555
H41 C30 1_555 1_555
C31 C19 1_555 1_555
H42 C31 1_555 1_555
H43 C31 1_555 1_555
O2 C11 1_555 1_555
N4 C3 1_555 1_555
C32 C27 1_555 1_555
H44 C32 1_555 1_555
H45 C32 1_555 1_555
H46 C32 1_555 1_555
H47 N2 1_555 1_555
H48 N3 1_555 1_555
C7 C8 1_555 1_555
C12 C14 1_555 1_555
C16 C27 1_555 1_555
C18 C20 1_555 1_555
C19 C30 1_555 1_555
C21 C24 1_555 1_555
C21 C31 1_555 1_555
C28 C29 1_555 1_555
O2 N4 1_555 1_555

#END
