
#######################################################################
#
#                 Cambridge Crystallographic Data Centre
#                                CCDC 
#
#######################################################################
#
# If this CIF has been generated from an entry in the Cambridge 
# Structural Database, then it will include bibliographic, chemical, 
# crystal, experimental, refinement or atomic coordinate data resulting 
# from the CCDC's data processing and validation procedures.
#
#######################################################################

data_YAVNAN
_chemical_name_common            
(Z)-8-Methyl-11-trifluoromethyl-5,13-dihydrodibenzo[d,g][1,2,6]oxadiazonine
_chemical_formula_moiety         'C16 H13 N3 O1'
_chemical_name_systematic        
8-methyl-5,13-dihydrodibenzo[d,g][1,2,6]oxadiazonine-11-carbonitrile
_symmetry_cell_setting           monoclinic
_symmetry_space_group_name_H-M   'P 21/n'
_symmetry_Int_Tables_number      14
_space_group_name_Hall           '-P 2yn'
loop_
_symmetry_equiv_pos_site_id
_symmetry_equiv_pos_as_xyz
1 x,y,z
2 1/2-x,1/2+y,1/2-z
3 -x,-y,-z
4 1/2+x,1/2-y,1/2+z
_cell_length_a                   7.9947(3)
_cell_length_b                   8.5421(3)
_cell_length_c                   19.4070(8)
_cell_angle_alpha                90
_cell_angle_beta                 93.584(2)
_cell_angle_gamma                90
_cell_volume                     1322.74
_exptl_crystal_colour            colorless
_exptl_crystal_description       Block
_chemical_melting_point          '182-184 deg.C'
_cell_formula_units_Z            4
loop_
_atom_site_label
_atom_site_type_symbol
_atom_site_fract_x
_atom_site_fract_y
_atom_site_fract_z
C1 C 0.9868(3) 0.5576(3) 0.35321(12)
H1 H 1.0716 0.5967 0.3884
H2 H 1.0439 0.5354 0.3105
C2 C 0.9096(2) 0.4097(2) 0.37861(10)
C3 C 0.9716(3) 0.3375(3) 0.43887(11)
H3 H 1.0665 0.3806 0.4640
C4 C 0.8972(3) 0.2034(3) 0.46300(11)
H4 H 0.9425 0.1539 0.5038
C5 C 0.7569(3) 0.1419(3) 0.42761(11)
H5 H 0.7051 0.0504 0.4442
C6 C 0.6921(3) 0.2142(2) 0.36781(11)
H6 H 0.5954 0.1722 0.3436
C7 C 0.7675(2) 0.3476(2) 0.34311(10)
C8 C 0.5765(2) 0.5219(2) 0.26845(10)
C9 C 0.4853(2) 0.5143(2) 0.20427(10)
H7 H 0.5152 0.4381 0.1716
C10 C 0.3534(2) 0.6143(2) 0.18734(10)
C11 C 0.2590(2) 0.5935(2) 0.12203(10)
C12 C 0.3063(3) 0.7289(2) 0.23371(11)
H8 H 0.2159 0.7983 0.2223
C13 C 0.3955(3) 0.7376(2) 0.29650(10)
H9 H 0.3640 0.8145 0.3286
C14 C 0.5310(2) 0.6384(2) 0.31571(10)
C15 C 0.6119(3) 0.6676(2) 0.38603(10)
C16 C 0.5025(3) 0.6839(3) 0.44564(11)
H10 H 0.5726 0.6879 0.4889
H11 H 0.4266 0.5939 0.4466
H12 H 0.4367 0.7805 0.4404
N1 N 0.1811(2) 0.5725(2) 0.07144(9)
N2 N 0.7686(2) 0.6876(2) 0.40095(9)
N3 N 0.7051(2) 0.41302(19) 0.27830(8)
H13 H 0.7529 0.3810 0.2412
O1 O 0.86015(18) 0.67555(16) 0.33947(8)
loop_
_geom_bond_atom_site_label_1
_geom_bond_atom_site_label_2
_geom_bond_site_symmetry_1
_geom_bond_site_symmetry_2
C1 H1 1_555 1_555
H2 C1 1_555 1_555
C2 C1 1_555 1_555
C3 C2 1_555 1_555
H3 C3 1_555 1_555
C4 C3 1_555 1_555
H4 C4 1_555 1_555
C5 C4 1_555 1_555
H5 C5 1_555 1_555
C6 C5 1_555 1_555
H6 C6 1_555 1_555
C7 C2 1_555 1_555
C8 C9 1_555 1_555
C9 H7 1_555 1_555
C10 C9 1_555 1_555
C11 C10 1_555 1_555
C12 C10 1_555 1_555
H8 C12 1_555 1_555
C13 C12 1_555 1_555
H9 C13 1_555 1_555
C14 C8 1_555 1_555
C15 C14 1_555 1_555
C16 C15 1_555 1_555
H10 C16 1_555 1_555
H11 C16 1_555 1_555
H12 C16 1_555 1_555
N1 C11 1_555 1_555
N2 C15 1_555 1_555
N3 C7 1_555 1_555
H13 N3 1_555 1_555
O1 C1 1_555 1_555
C6 C7 1_555 1_555
C8 N3 1_555 1_555
C13 C14 1_555 1_555
N2 O1 1_555 1_555

#END
