
#######################################################################
#
#                 Cambridge Crystallographic Data Centre
#                                CCDC 
#
#######################################################################
#
# If this CIF has been generated from an entry in the Cambridge 
# Structural Database, then it will include bibliographic, chemical, 
# crystal, experimental, refinement or atomic coordinate data resulting 
# from the CCDC's data processing and validation procedures.
#
#######################################################################

data_YAVPAP
_chemical_formula_moiety         'C44 H32 Br2'
_chemical_name_systematic        
9,18-dibromo-3,12-di-t-butylbenzo[a]dinaphtho[2,1,8-cde:1',2',3',4'-ghi]perylene
_symmetry_cell_setting           monoclinic
_symmetry_space_group_name_H-M   'C 2/c'
_symmetry_Int_Tables_number      15
_space_group_name_Hall           '-C 2yn'
loop_
_symmetry_equiv_pos_site_id
_symmetry_equiv_pos_as_xyz
1 x,y,z
2 -x,y,1/2-z
3 1/2+x,1/2+y,z
4 1/2-x,1/2+y,1/2-z
5 -x,-y,-z
6 x,-y,1/2+z
7 1/2-x,1/2-y,-z
8 1/2+x,1/2-y,1/2+z
_cell_length_a                   15.5245(9)
_cell_length_b                   22.8208(17)
_cell_length_c                   19.0938(11)
_cell_angle_alpha                90
_cell_angle_beta                 108.749(4)
_cell_angle_gamma                90
_cell_volume                     6405.62
_exptl_crystal_colour            brown
_exptl_crystal_description       block
_cell_formula_units_Z            8
loop_
_atom_site_label
_atom_site_type_symbol
_atom_site_fract_x
_atom_site_fract_y
_atom_site_fract_z
Br1 Br 0.74358(2) 0.70544(2) 0.71011(2)
Br2 Br 0.05181(3) 0.51264(2) 0.35121(2)
C1 C 0.6809(2) 0.47464(15) 0.76466(18)
C2 C 0.7300(2) 0.52640(16) 0.78947(18)
H1 H 0.7884 0.5239 0.8259
C3 C 0.6967(2) 0.58027(16) 0.76299(18)
H2 H 0.7314 0.6143 0.7827
C4 C 0.6118(2) 0.58658(15) 0.70706(17)
C5 C 0.5694(2) 0.64309(14) 0.68162(17)
C6 C 0.6159(2) 0.69829(16) 0.69250(18)
C7 C 0.5698(2) 0.74960(16) 0.67996(19)
H3 H 0.6031 0.7853 0.6889
C8 C 0.4734(2) 0.75184(15) 0.65388(18)
C9 C 0.4266(3) 0.80535(15) 0.6427(2)
H4 H 0.4588 0.8410 0.6581
C10 C 0.3342(3) 0.80606(15) 0.60960(19)
H5 H 0.3026 0.8424 0.6012
C11 C 0.2861(2) 0.75402(15) 0.58812(18)
H6 H 0.2222 0.7559 0.5640
C12 C 0.3283(2) 0.69927(14) 0.60073(17)
C13 C 0.2807(2) 0.64416(14) 0.57548(17)
C14 C 0.1824(2) 0.63749(15) 0.55431(17)
C15 C 0.1287(2) 0.67602(15) 0.58038(18)
H7 H 0.1578 0.7074 0.6117
C16 C 0.0358(2) 0.67006(17) 0.5623(2)
C17 C -0.0046(2) 0.62127(18) 0.5197(2)
H8 H -0.0684 0.6157 0.5072
C18 C 0.0455(2) 0.58162(17) 0.4958(2)
H9 H 0.0160 0.5484 0.4685
C19 C 0.1397(2) 0.58864(15) 0.51055(17)
C20 C 0.1952(2) 0.54577(15) 0.48901(17)
C21 C 0.1636(2) 0.50332(16) 0.43116(19)
C22 C 0.2160(3) 0.45779(16) 0.42303(19)
H10 H 0.1920 0.4305 0.3841
C23 C 0.3059(2) 0.45050(15) 0.47175(18)
C24 C 0.3595(2) 0.40301(15) 0.46503(19)
H11 H 0.3335 0.3722 0.4314
C25 C 0.4494(2) 0.40071(15) 0.50678(19)
H12 H 0.4858 0.3688 0.5009
C26 C 0.4881(2) 0.44467(15) 0.55772(18)
H13 H 0.5512 0.4429 0.5848
C27 C 0.4365(2) 0.49119(14) 0.56997(16)
C28 C 0.4753(2) 0.53880(14) 0.62107(17)
C29 C 0.5616(2) 0.53461(14) 0.67836(17)
C30 C 0.5971(2) 0.48055(14) 0.71053(18)
H14 H 0.5615 0.4463 0.6942
C31 C 0.4748(2) 0.64458(14) 0.64604(17)
C32 C 0.4251(2) 0.69830(14) 0.63371(17)
C33 C 0.4279(2) 0.59179(13) 0.61370(17)
C34 C 0.3313(2) 0.59408(14) 0.57228(16)
C35 C 0.2889(2) 0.54430(14) 0.52957(17)
C36 C 0.3440(2) 0.49540(14) 0.52438(17)
C37 C 0.7171(2) 0.41375(17) 0.7922(2)
C38 C 0.6457(3) 0.37745(19) 0.8130(3)
H15 H 0.5918 0.3725 0.7694
H16 H 0.6287 0.3978 0.8518
H17 H 0.6712 0.3389 0.8311
C39 C 0.7393(3) 0.3825(2) 0.7288(2)
H18 H 0.6840 0.3793 0.6860
H19 H 0.7630 0.3432 0.7449
H20 H 0.7852 0.4051 0.7151
C40 C 0.8025(3) 0.4155(2) 0.8596(2)
H21 H 0.8209 0.3754 0.8762
H22 H 0.7900 0.4374 0.8994
H23 H 0.8516 0.4348 0.8464
C41 C -0.0227(3) 0.7139(2) 0.5878(3)
C42 C 0.0312(3) 0.7666(2) 0.6274(3)
H24 H 0.0597 0.7862 0.5949
H25 H 0.0783 0.7536 0.6725
H26 H -0.0098 0.7940 0.6405
C43 C -0.0917(7) 0.7415(4) 0.5136(6)
H27 H -0.0571 0.7603 0.4850
H28 H -0.1299 0.7104 0.4840
H29 H -0.1303 0.7707 0.5265
C44 C -0.0745(12) 0.6863(5) 0.6298(11)
H30 H -0.1079 0.6527 0.6021
H31 H -0.0329 0.6729 0.6775
H32 H -0.1175 0.7146 0.6383
C45? C -0.1145(14) 0.7232(15) 0.5383(15)
H33? H -0.1407 0.6857 0.5168
H34? H -0.1518 0.7402 0.5660
H35? H -0.1131 0.7501 0.4987
C46? C -0.0358(15) 0.6774(11) 0.6618(13)
H36? H 0.0241 0.6695 0.6979
H37? H -0.0716 0.7014 0.6848
H38? H -0.0674 0.6402 0.6451
loop_
_geom_bond_atom_site_label_1
_geom_bond_atom_site_label_2
_geom_bond_site_symmetry_1
_geom_bond_site_symmetry_2
Br1 C6 1_555 1_555
Br2 C21 1_555 1_555
C1 C2 1_555 1_555
C2 H1 1_555 1_555
C3 C2 1_555 1_555
H2 C3 1_555 1_555
C4 C3 1_555 1_555
C5 C4 1_555 1_555
C6 C5 1_555 1_555
C7 C6 1_555 1_555
H3 C7 1_555 1_555
C8 C7 1_555 1_555
C9 C8 1_555 1_555
H4 C9 1_555 1_555
C10 C9 1_555 1_555
H5 C10 1_555 1_555
C11 C10 1_555 1_555
H6 C11 1_555 1_555
C12 C11 1_555 1_555
C13 C12 1_555 1_555
C14 C13 1_555 1_555
C15 C14 1_555 1_555
H7 C15 1_555 1_555
C16 C15 1_555 1_555
C17 C16 1_555 1_555
H8 C17 1_555 1_555
C18 C17 1_555 1_555
H9 C18 1_555 1_555
C19 C14 1_555 1_555
C20 C19 1_555 1_555
C21 C20 1_555 1_555
C22 C21 1_555 1_555
H10 C22 1_555 1_555
C23 C22 1_555 1_555
C24 C23 1_555 1_555
H11 C24 1_555 1_555
C25 C24 1_555 1_555
H12 C25 1_555 1_555
C26 C25 1_555 1_555
H13 C26 1_555 1_555
C27 C26 1_555 1_555
C28 C27 1_555 1_555
C29 C4 1_555 1_555
C30 C1 1_555 1_555
H14 C30 1_555 1_555
C31 C5 1_555 1_555
C32 C8 1_555 1_555
C33 C28 1_555 1_555
C34 C13 1_555 1_555
C35 C20 1_555 1_555
C36 C23 1_555 1_555
C37 C1 1_555 1_555
C38 C37 1_555 1_555
H15 C38 1_555 1_555
H16 C38 1_555 1_555
H17 C38 1_555 1_555
C39 C37 1_555 1_555
H18 C39 1_555 1_555
H19 C39 1_555 1_555
H20 C39 1_555 1_555
C40 C37 1_555 1_555
H21 C40 1_555 1_555
H22 C40 1_555 1_555
H23 C40 1_555 1_555
C41 C16 1_555 1_555
C42 C41 1_555 1_555
H24 C42 1_555 1_555
H25 C42 1_555 1_555
H26 C42 1_555 1_555
C43 C41 1_555 1_555
H27 C43 1_555 1_555
H28 C43 1_555 1_555
H29 C43 1_555 1_555
C44 C41 1_555 1_555
H30 C44 1_555 1_555
H31 C44 1_555 1_555
H32 C44 1_555 1_555
C12 C32 1_555 1_555
C18 C19 1_555 1_555
C27 C36 1_555 1_555
C28 C29 1_555 1_555
C29 C30 1_555 1_555
C31 C32 1_555 1_555
C31 C33 1_555 1_555
C33 C34 1_555 1_555
C34 C35 1_555 1_555
C35 C36 1_555 1_555

#END
