
#######################################################################
#
#                 Cambridge Crystallographic Data Centre
#                                CCDC 
#
#######################################################################
#
# If this CIF has been generated from an entry in the Cambridge 
# Structural Database, then it will include bibliographic, chemical, 
# crystal, experimental, refinement or atomic coordinate data resulting 
# from the CCDC's data processing and validation procedures.
#
#######################################################################

data_YAVQOB
_chemical_formula_moiety         
'C48 H48 N32 O16,C10 H28 N4 4+,4(Cl1 1-),18(H2 O1)'
_chemical_name_systematic        
'Cucurbit(8)uril 1,4,8,11-tetra-azoniacyclotetradecane clathrate tetrachloride octadecahydrate'
_symmetry_cell_setting           rhombohedral
_symmetry_space_group_name_H-M   'R -3'
_symmetry_Int_Tables_number      148
_space_group_name_Hall           '-R 3'
loop_
_symmetry_equiv_pos_site_id
_symmetry_equiv_pos_as_xyz
1 x,y,z
2 -y,x-y,z
3 -x+y,-x,z
4 2/3+x,1/3+y,1/3+z
5 2/3-y,1/3+x-y,1/3+z
6 2/3-x+y,1/3-x,1/3+z
7 1/3+x,2/3+y,2/3+z
8 2/3+y,1/3-x+y,1/3-z
9 2/3+x-y,1/3+x,1/3-z
10 -x,-y,-z
11 y,-x+y,-z
12 x-y,x,-z
13 1/3-x,2/3-y,2/3-z
14 1/3+y,2/3-x+y,2/3-z
15 1/3+x-y,2/3+x,2/3-z
16 2/3-x,1/3-y,1/3-z
17 1/3-y,2/3+x-y,2/3+z
18 1/3-x+y,2/3-x,2/3+z
_cell_length_a                   29.3372(7)
_cell_length_b                   29.3372(7)
_cell_length_c                   26.6945(10)
_cell_angle_alpha                90
_cell_angle_beta                 90
_cell_angle_gamma                120.00
_cell_volume                     19897.1
_exptl_crystal_colour            colorless
_exptl_crystal_description       block
_cell_formula_units_Z            9
loop_
_atom_site_label
_atom_site_type_symbol
_atom_site_fract_x
_atom_site_fract_y
_atom_site_fract_z
Cl1 Cl 0.3333 0.6667 0.54436(19)
Cl2 Cl 0.42508(13) 0.85359(12) 0.56060(12)
Cl3 Cl 0.8045(4) 1.1343(4) 0.3083(4)
O1 O 0.56108(17) 0.84650(16) 0.15210(17)
O2 O 0.45981(17) 0.79334(16) 0.26452(16)
O3 O 0.4349(2) 0.70488(17) 0.37963(17)
O4 O 0.50001(16) 0.63022(16) 0.43312(16)
O5 O 0.62093(17) 0.62928(19) 0.38636(17)
O6 O 0.60890(15) 0.98445(16) 0.39361(15)
O7 O 0.57904(15) 0.89837(15) 0.50827(16)
O8 O 0.64727(15) 0.82990(15) 0.55412(16)
N1 N 0.63496(19) 0.92990(18) 0.14951(19)
N2 N 0.56616(19) 0.91751(19) 0.19542(19)
N3 N 0.50556(19) 0.88454(18) 0.26623(18)
N4 N 0.46621(18) 0.84103(18) 0.33646(18)
N5 N 0.44269(19) 0.78318(18) 0.40904(18)
N6 N 0.45934(19) 0.73394(18) 0.46112(18)
N7 N 0.50347(19) 0.68885(19) 0.49324(19)
N8 N 0.56127(18) 0.66050(18) 0.49752(18)
N9 N 0.63867(18) 0.65880(18) 0.46812(18)
N10 N 0.62731(18) 0.99048(18) 0.24899(17)
N11 N 0.56453(18) 0.95985(19) 0.31764(18)
N12 N 0.52149(18) 0.91919(18) 0.38698(17)
N13 N 0.50502(17) 0.86097(17) 0.45738(17)
N14 N 0.51502(18) 0.81049(18) 0.51358(18)
N15 N 0.55936(19) 0.76489(18) 0.54526(19)
N16 N 0.62128(18) 0.74185(18) 0.54237(19)
C1 C 0.5849(2) 0.8932(2) 0.1643(2)
C2 C 0.5117(2) 0.8925(3) 0.2122(2)
H1 H 0.4916 0.8583 0.1956
H2 H 0.4966 0.9142 0.2019
C3 C 0.4753(2) 0.8354(2) 0.2864(2)
C4 C 0.4243(2) 0.7970(2) 0.3645(2)
H3 H 0.3976 0.8061 0.3740
H4 H 0.4074 0.7661 0.3425
C5 C 0.4446(2) 0.7376(2) 0.4131(2)
C6 C 0.4539(2) 0.6855(2) 0.4806(3)
H5 H 0.4317 0.6755 0.5107
H6 H 0.4357 0.6576 0.4557
C7 C 0.5199(2) 0.6573(2) 0.4712(2)
C8 C 0.5854(2) 0.6286(2) 0.4867(2)
H7 H 0.5855 0.6103 0.5174
H8 H 0.5638 0.6019 0.4618
C9 C 0.6492(2) 0.9831(2) 0.1656(2)
H9 H 0.6531 1.0059 0.1367
C10 C 0.6026(2) 0.9739(2) 0.1997(2)
H10 H 0.5864 0.9949 0.1887
C11 C 0.5115(2) 0.9262(2) 0.3000(2)
H11 H 0.4961 0.9467 0.2859
C12 C 0.4816(2) 0.8953(2) 0.3482(2)
H12 H 0.4507 0.8993 0.3554
C13 C 0.4549(2) 0.8119(2) 0.4564(2)
H13 H 0.4257 0.8173 0.4672
C14 C 0.4628(2) 0.7759(2) 0.4933(2)
H14 H 0.4356 0.7620 0.5199
C15 C 0.5291(2) 0.7085(2) 0.5417(2)
H15 H 0.5040 0.6929 0.5698
C16 C 0.5719(2) 0.6917(2) 0.5426(2)
H16 H 0.5687 0.6708 0.5729
C17 C 0.6519(2) 0.6525(2) 0.4209(2)
C18 C 0.6025(2) 1.0049(2) 0.2890(2)
H17 H 0.6299 1.0299 0.3116
H18 H 0.5849 1.0225 0.2741
C19 C 0.5689(2) 0.9572(2) 0.3685(2)
C20 C 0.5099(2) 0.9096(2) 0.4398(2)
H19 H 0.5379 0.9388 0.4588
H20 H 0.4769 0.9093 0.4468
C21 C 0.5373(2) 0.8605(2) 0.4946(2)
C22 C 0.5361(2) 0.7970(2) 0.5570(2)
H21 H 0.5628 0.8296 0.5729
H22 H 0.5076 0.7782 0.5813
C23 C 0.6129(2) 0.7838(2) 0.5483(2)
C24 C 0.6625(2) 0.9207(2) 0.1087(2)
H23 H 0.6396 0.8856 0.0949
H24 H 0.6696 0.9464 0.0821
N9L N 0.69466(18) 1.00787(18) 0.19855(18)
C8L C 0.7479(2) 1.0381(2) 0.1800(2)
N8L N 0.77206(18) 1.00617(18) 0.16915(18)
C7L C 0.8134(2) 1.0094(2) 0.1955(2)
O4L O 0.83332(16) 1.03645(16) 0.23355(16)
N7L N 0.82986(19) 0.97782(19) 0.17343(19)
C6L C 0.8794(2) 0.9812(2) 0.1861(3)
N6L N 0.87399(19) 0.93273(18) 0.20555(18)
C5L C 0.8887(2) 0.9291(2) 0.2536(2)
O3L O 0.8984(2) 0.96179(17) 0.28704(17)
N5L N 0.89064(19) 0.88349(18) 0.25763(18)
C4L C 0.9090(2) 0.8697(2) 0.3022(2)
N4L N 0.86712(18) 0.82564(18) 0.33021(18)
C3L C 0.8580(2) 0.8313(2) 0.3803(2)
O2L O 0.87352(17) 0.87333(16) 0.40215(16)
N3L N 0.82777(19) 0.78213(18) 0.40044(18)
C2L C 0.8216(2) 0.7742(3) 0.4545(2)
N2L N 0.76717(19) 0.74916(19) 0.47125(19)
C1L C 0.7484(2) 0.7735(2) 0.5024(2)
O1L O 0.77225(17) 0.82017(16) 0.51457(17)
N1L N 0.69837(19) 0.73677(18) 0.51716(19)
C9L C 0.6841(2) 0.6836(2) 0.5011(2)
C17L C 0.6814(2) 1.0142(2) 0.2458(2)
O5L O 0.71240(17) 1.03739(19) 0.28031(17)
C24L C 0.6708(2) 0.7460(2) 0.5580(2)
H23L H 0.6937 0.7811 0.5718
H24L H 0.6637 0.7203 0.5846
N10L N 0.70602(18) 0.67619(18) 0.41768(17)
C10L C 0.7307(2) 0.6928(2) 0.4670(2)
H9L H 0.6802 0.6608 0.5300
H10L H 0.7469 0.6718 0.4780
C18L C 0.7308(2) 0.6618(2) 0.3777(2)
N11L N 0.76880(18) 0.70682(19) 0.34903(18)
C11L C 0.8218(2) 0.7405(2) 0.3667(2)
H11L H 0.8372 0.7200 0.3808
C12L C 0.8517(2) 0.7714(2) 0.3185(2)
N12L N 0.81184(18) 0.74748(18) 0.27969(17)
C19L C 0.7644(2) 0.7095(2) 0.2982(2)
O6L O 0.72443(15) 0.68222(16) 0.27306(15)
C20L C 0.8234(2) 0.7571(2) 0.2269(2)
N13L N 0.82831(17) 0.80570(17) 0.20929(17)
C13L C 0.8784(2) 0.8548(2) 0.2103(2)
H13L H 0.9076 0.8494 0.1995
C14L C 0.8705(2) 0.8908(2) 0.1734(2)
N14L N 0.81831(18) 0.85618(18) 0.15309(18)
C21L C 0.7960(2) 0.8062(2) 0.1721(2)
O7L O 0.75429(15) 0.76830(15) 0.15840(16)
C22L C 0.7972(2) 0.8697(2) 0.1097(2)
N15L N 0.77397(19) 0.90178(18) 0.12141(19)
C15L C 0.8042(2) 0.9582(2) 0.1250(2)
H15L H 0.8293 0.9738 0.0969
C16L C 0.7614(2) 0.9750(2) 0.1241(2)
N16L N 0.71205(18) 0.92482(18) 0.12430(19)
C23L C 0.7204(2) 0.8829(2) 0.1184(2)
O8L O 0.68606(15) 0.83677(15) 0.11255(16)
H16L H 0.7646 0.9959 0.0938
H21L H 0.7705 0.8371 0.0938
H22L H 0.8257 0.8885 0.0854
H14L H 0.8977 0.9047 0.1468
H19L H 0.7954 0.7279 0.2079
H20L H 0.8564 0.7574 0.2199
H12L H 0.8826 0.7674 0.3113
H17L H 0.7034 0.6368 0.3551
H18L H 0.7484 0.6442 0.3926
H1L H 0.8417 0.8084 0.4711
H2L H 0.8367 0.7525 0.4648
H3L H 0.9357 0.8606 0.2927
H4L H 0.9259 0.9006 0.3242
H5L H 0.9016 0.9912 0.1560
H6L H 0.8976 1.0091 0.2110
H7L H 0.7478 1.0564 0.1493
H8L H 0.7695 1.0648 0.2049
C25 C 0.7531(5) 0.8794(8) 0.2747(5)
H25 H 0.7742 0.9128 0.2570
H26 H 0.7752 0.8632 0.2774
C26 C 0.7786(4) 0.8853(4) 0.3643(4)
H27 H 0.7732 0.8497 0.3609
H28 H 0.8160 0.9103 0.3582
C27 C 0.7647(3) 0.8927(4) 0.4167(3)
H29 H 0.7677 0.9274 0.4190
H30 H 0.7903 0.8922 0.4399
C28 C 0.7097(3) 0.8513(4) 0.4331(3)
H31 H 0.7061 0.8163 0.4303
H32 H 0.7046 0.8571 0.4683
C29 C 0.7173(4) 0.8516(7) 0.2467(4)
H33 H 0.7130 0.8752 0.2236
H34 H 0.7296 0.8319 0.2266
N17 N 0.7464(3) 0.8934(3) 0.3264(3)
N18 N 0.6647(2) 0.8135(3) 0.2646(2)
C28L C 0.6236(3) 0.8154(4) 0.2336(3)
C27L C 0.5686(3) 0.7740(4) 0.2500(3)
C26L C 0.5547(4) 0.7814(4) 0.3024(4)
H27L H 0.5601 0.8170 0.3058
H28L H 0.5173 0.7564 0.3085
N17L N 0.5869(3) 0.7733(3) 0.3403(3)
C25L C 0.5802(5) 0.7873(8) 0.3920(5)
H25L H 0.5591 0.7539 0.4097
H26L H 0.5581 0.8035 0.3893
C29L C 0.6160(4) 0.8151(7) 0.4200(4)
H33L H 0.6203 0.7915 0.4431
H34L H 0.6037 0.8348 0.4401
N18L N 0.6686(2) 0.8532(3) 0.4021(2)
H29L H 0.5656 0.7393 0.2477
H30L H 0.5430 0.7745 0.2268
H31L H 0.6272 0.8504 0.2364
H32L H 0.6287 0.8096 0.1984
O9 O 0.5114(2) 0.8005(2) 0.0621(2)
O10 O 0.7881(2) 1.0007(3) 0.3286(2)
O11 O 0.6897(3) 0.9606(3) 0.3755(3)
O12 O 0.4817(3) 0.9721(3) 0.5469(3)
O13 O 0.4148(4) 0.6776(3) 0.2605(5)
O14 O 0.6114(8) 1.1071(8) 0.3482(4)
O15 O 0.3333 0.6667 0.3045(8)
O16 O 0.7345(15) 1.1701(9) 0.3416(7)
O17 O 0.274(5) 0.695(5) 0.6195(16)
O18 O 0.3333 0.6667 0.457(3)
O21 O 0.423(2) 0.7341(13) 0.1753(9)
O19? O 0.7192(14) 1.1336(13) 0.3320(15)
O20? O 0.3333(16) 0.7467(10) 0.6213(8)
loop_
_geom_bond_atom_site_label_1
_geom_bond_atom_site_label_2
_geom_bond_site_symmetry_1
_geom_bond_site_symmetry_2
O1 C1 1_555 1_555
O2 C3 1_555 1_555
O3 C5 1_555 1_555
O4 C7 1_555 1_555
O5 C17 1_555 1_555
O6 C19 1_555 1_555
O7 C21 1_555 1_555
O8 C23 1_555 1_555
N1 C1 1_555 1_555
N2 C1 1_555 1_555
N3 C2 1_555 1_555
N4 C3 1_555 1_555
N5 C4 1_555 1_555
N6 C5 1_555 1_555
N7 C6 1_555 1_555
N8 C7 1_555 1_555
N9 C8 1_555 1_555
N10 C10 1_555 1_555
N11 C11 1_555 1_555
N12 C12 1_555 1_555
N13 C13 1_555 1_555
N14 C14 1_555 1_555
N15 C15 1_555 1_555
N16 C16 1_555 1_555
C2 N2 1_555 1_555
H1 C2 1_555 1_555
H2 C2 1_555 1_555
C3 N3 1_555 1_555
C4 N4 1_555 1_555
H3 C4 1_555 1_555
H4 C4 1_555 1_555
C5 N5 1_555 1_555
C6 N6 1_555 1_555
H5 C6 1_555 1_555
H6 C6 1_555 1_555
C7 N7 1_555 1_555
C8 N8 1_555 1_555
H7 C8 1_555 1_555
H8 C8 1_555 1_555
C9 N1 1_555 1_555
H9 C9 1_555 1_555
C10 N2 1_555 1_555
H10 C10 1_555 1_555
C11 N3 1_555 1_555
H11 C11 1_555 1_555
C12 N4 1_555 1_555
H12 C12 1_555 1_555
C13 N5 1_555 1_555
H13 C13 1_555 1_555
C14 N6 1_555 1_555
H14 C14 1_555 1_555
C15 N7 1_555 1_555
H15 C15 1_555 1_555
C16 N8 1_555 1_555
H16 C16 1_555 1_555
C17 N9 1_555 1_555
C18 N10 1_555 1_555
H17 C18 1_555 1_555
H18 C18 1_555 1_555
C19 N11 1_555 1_555
C20 N12 1_555 1_555
H19 C20 1_555 1_555
H20 C20 1_555 1_555
C21 N13 1_555 1_555
C22 N14 1_555 1_555
H21 C22 1_555 1_555
H22 C22 1_555 1_555
C23 N15 1_555 1_555
C24 N1 1_555 1_555
H23 C24 1_555 1_555
H24 C24 1_555 1_555
C25 H25 1_555 1_555
H26 C25 1_555 1_555
C26 H27 1_555 1_555
H28 C26 1_555 1_555
C27 C26 1_555 1_555
H29 C27 1_555 1_555
H30 C27 1_555 1_555
C28 C27 1_555 1_555
H31 C28 1_555 1_555
H32 C28 1_555 1_555
C29 C25 1_555 1_555
H33 C29 1_555 1_555
H34 C29 1_555 1_555
N17 C25 1_555 1_555
N18 C29 1_555 1_555
N9L C9 1_555 1_555
C8L N9L 1_555 1_555
N8L C8L 1_555 1_555
C7L N8L 1_555 1_555
O4L C7L 1_555 1_555
N7L C7L 1_555 1_555
C6L N7L 1_555 1_555
N6L C6L 1_555 1_555
C5L N6L 1_555 1_555
O3L C5L 1_555 1_555
N5L C5L 1_555 1_555
C4L N5L 1_555 1_555
N4L C4L 1_555 1_555
C3L N4L 1_555 1_555
O2L C3L 1_555 1_555
N3L C3L 1_555 1_555
C2L N3L 1_555 1_555
N2L C2L 1_555 1_555
C1L N2L 1_555 1_555
O1L C1L 1_555 1_555
N1L C1L 1_555 1_555
C9L N9 1_555 1_555
C17L N10 1_555 1_555
O5L C17L 1_555 1_555
C24L N16 1_555 1_555
H23L C24L 1_555 1_555
H24L C24L 1_555 1_555
N10L C17 1_555 1_555
C10L N2L 1_555 1_555
H9L C9L 1_555 1_555
H10L C10L 1_555 1_555
C18L N10L 1_555 1_555
N11L C18L 1_555 1_555
C11L N3L 1_555 1_555
H11L C11L 1_555 1_555
C12L N4L 1_555 1_555
N12L C12L 1_555 1_555
C19L N11L 1_555 1_555
O6L C19L 1_555 1_555
C20L N12L 1_555 1_555
N13L C20L 1_555 1_555
C13L N5L 1_555 1_555
H13L C13L 1_555 1_555
C14L N6L 1_555 1_555
N14L C14L 1_555 1_555
C21L N13L 1_555 1_555
O7L C21L 1_555 1_555
C22L N14L 1_555 1_555
N15L C22L 1_555 1_555
C15L N7L 1_555 1_555
H15L C15L 1_555 1_555
C16L N8L 1_555 1_555
N16L C24 1_555 1_555
C23L N15L 1_555 1_555
O8L C23L 1_555 1_555
H16L C16L 1_555 1_555
H21L C22L 1_555 1_555
H22L C22L 1_555 1_555
H14L C14L 1_555 1_555
H19L C20L 1_555 1_555
H20L C20L 1_555 1_555
H12L C12L 1_555 1_555
H17L C18L 1_555 1_555
H18L C18L 1_555 1_555
H1L C2L 1_555 1_555
H2L C2L 1_555 1_555
H3L C4L 1_555 1_555
H4L C4L 1_555 1_555
H5L C6L 1_555 1_555
H6L C6L 1_555 1_555
H7L C8L 1_555 1_555
H8L C8L 1_555 1_555
C28L N18 1_555 1_555
C27L C28L 1_555 1_555
C26L C27L 1_555 1_555
H27L C26L 1_555 1_555
H28L C26L 1_555 1_555
N17L C26L 1_555 1_555
C25L N17L 1_555 1_555
H25L C25L 1_555 1_555
H26L C25L 1_555 1_555
C29L C25L 1_555 1_555
H33L C29L 1_555 1_555
H34L C29L 1_555 1_555
N18L C28 1_555 1_555
H29L C27L 1_555 1_555
H30L C27L 1_555 1_555
H31L C28L 1_555 1_555
H32L C28L 1_555 1_555
N11 C18 1_555 1_555
N12 C19 1_555 1_555
N13 C20 1_555 1_555
N14 C21 1_555 1_555
N15 C22 1_555 1_555
N16 C23 1_555 1_555
C9 C10 1_555 1_555
C11 C12 1_555 1_555
C13 C14 1_555 1_555
C15 C16 1_555 1_555
C26 N17 1_555 1_555
N9L C17L 1_555 1_555
N1L C9L 1_555 1_555
N1L C24L 1_555 1_555
C9L C10L 1_555 1_555
N10L C10L 1_555 1_555
N11L C11L 1_555 1_555
C11L C12L 1_555 1_555
N12L C19L 1_555 1_555
N13L C13L 1_555 1_555
C13L C14L 1_555 1_555
N14L C21L 1_555 1_555
N15L C15L 1_555 1_555
C15L C16L 1_555 1_555
C16L N16L 1_555 1_555
N16L C23L 1_555 1_555
C29L N18L 1_555 1_555

#END
