
#######################################################################
#
#                 Cambridge Crystallographic Data Centre
#                                CCDC 
#
#######################################################################
#
# If this CIF has been generated from an entry in the Cambridge 
# Structural Database, then it will include bibliographic, chemical, 
# crystal, experimental, refinement or atomic coordinate data resulting 
# from the CCDC's data processing and validation procedures.
#
#######################################################################

data_YAVQIV
_chemical_formula_moiety         
'C48 H48 N32 O16,C8 H24 N4 4+,4(Cl1 1-),19.67(H2 O1)'
_chemical_name_systematic        
'Cucurbit(8)uril 1,4,7,10-tetra-azoniacyclododecane clathrate tetrachloride hydrate'
_symmetry_cell_setting           rhombohedral
_symmetry_space_group_name_H-M   'R -3'
_symmetry_Int_Tables_number      148
_space_group_name_Hall           '-R 3'
loop_
_symmetry_equiv_pos_site_id
_symmetry_equiv_pos_as_xyz
1 x,y,z
2 -y,x-y,z
3 -x+y,-x,z
4 2/3+x,1/3+y,1/3+z
5 2/3-y,1/3+x-y,1/3+z
6 2/3-x+y,1/3-x,1/3+z
7 1/3+x,2/3+y,2/3+z
8 2/3+y,1/3-x+y,1/3-z
9 2/3+x-y,1/3+x,1/3-z
10 -x,-y,-z
11 y,-x+y,-z
12 x-y,x,-z
13 1/3-x,2/3-y,2/3-z
14 1/3+y,2/3-x+y,2/3-z
15 1/3+x-y,2/3+x,2/3-z
16 2/3-x,1/3-y,1/3-z
17 1/3-y,2/3+x-y,2/3+z
18 1/3-x+y,2/3-x,2/3+z
_cell_length_a                   29.1533(10)
_cell_length_b                   29.1533(10)
_cell_length_c                   26.7471(13)
_cell_angle_alpha                90
_cell_angle_beta                 90
_cell_angle_gamma                120.00
_cell_volume                     19687.1
_exptl_crystal_colour            colorless
_exptl_crystal_description       block
_cell_formula_units_Z            9
loop_
_atom_site_label
_atom_site_type_symbol
_atom_site_fract_x
_atom_site_fract_y
_atom_site_fract_z
Cl1 Cl 0.0000 0.0000 0.12230(17)
Cl2 Cl -0.09456(11) 0.09110(11) 0.10436(10)
Cl3 Cl 0.27874(19) 0.4750(2) 0.06423(17)
O1 O 0.28369(15) 0.43756(14) 0.16013(14)
O2 O 0.15255(14) 0.31487(14) 0.11232(14)
O3 O 0.01653(15) 0.24724(14) 0.15502(15)
O4 O -0.03725(16) 0.27944(14) 0.27018(13)
O5 O 0.32495(19) 0.28538(16) 0.28181(15)
O6 O 0.20384(15) 0.16652(15) 0.23363(15)
O7 O 0.06136(16) 0.10090(17) 0.28482(14)
O8 O -0.00178(15) 0.12574(15) 0.39592(13)
N1 N 0.35087(17) 0.43283(16) 0.20182(16)
N2 N 0.29667(16) 0.36568(16) 0.15288(16)
N3 N 0.21476(17) 0.28898(17) 0.12607(16)
N4 N 0.12983(16) 0.22716(16) 0.11982(17)
N5 N 0.03914(16) 0.18220(16) 0.15003(16)
N6 N -0.02080(16) 0.17368(16) 0.20624(15)
N7 N -0.06265(18) 0.19046(16) 0.27598(15)
N8 N -0.06075(19) 0.23358(17) 0.34492(16)
N9 N 0.36396(18) 0.37133(17) 0.25259(16)
N10 N 0.31419(17) 0.30508(17) 0.20095(16)
N11 N 0.23534(17) 0.22817(17) 0.17009(17)
N12 N 0.14937(16) 0.17144(17) 0.17352(17)
N13 N 0.05915(17) 0.12714(17) 0.20398(16)
N14 N -0.00828(17) 0.10944(17) 0.25412(15)
N15 N -0.04403(16) 0.13184(15) 0.32557(15)
N16 N -0.04596(17) 0.17287(16) 0.39510(15)
C1 C 0.3078(2) 0.4141(2) 0.17054(19)
C2 C 0.2603(2) 0.3392(2) 0.1119(2)
H1 H 0.2796 0.3329 0.0847
H2 H 0.2478 0.3627 0.0987
C3 C 0.1643(2) 0.2805(2) 0.11858(19)
C4 C 0.0741(2) 0.2032(2) 0.1074(2)
H3 H 0.0680 0.2301 0.0909
H4 H 0.0648 0.1742 0.0832
C5 C 0.0120(2) 0.20574(19) 0.16910(19)
C6 C -0.0649(2) 0.1792(2) 0.22330(18)
H5 H -0.0654 0.2080 0.2043
H6 H -0.0983 0.1460 0.2160
C7 C -0.0522(2) 0.2386(2) 0.29460(19)
C8 C 0.3721(2) 0.39738(19) 0.20441(18)
H7 H 0.4100 0.4152 0.1938
C9 C 0.33602(19) 0.35151(19) 0.16896(19)
H8 H 0.3561 0.3485 0.1401
C10 C 0.2161(2) 0.2396(2) 0.12481(19)
H9 H 0.2348 0.2371 0.0945
C11 C 0.1565(2) 0.1970(2) 0.12483(19)
H10 H 0.1475 0.1712 0.0967
C12 C 0.02140(19) 0.13032(19) 0.17083(19)
H11 H 0.0083 0.1023 0.1444
C13 C -0.02352(19) 0.12256(18) 0.20718(18)
H12 H -0.0588 0.0936 0.1957
C14 C -0.0813(2) 0.14985(19) 0.31403(18)
H13 H -0.1174 0.1196 0.3061
C15 C -0.0814(2) 0.1792(2) 0.36177(19)
H14 H -0.1177 0.1640 0.3763
C16 C -0.0685(2) 0.2714(2) 0.3736(2)
H15 H -0.0655 0.2996 0.3509
H16 H -0.1048 0.2532 0.3876
C17 C 0.3335(2) 0.3173(2) 0.2483(2)
C18 C 0.2914(2) 0.2519(2) 0.1810(2)
H17 H 0.2966 0.2294 0.2054
H18 H 0.3104 0.2530 0.1499
C19 C 0.1970(2) 0.1867(2) 0.1964(2)
C20 C 0.1026(2) 0.1214(2) 0.1856(2)
H19 H 0.0909 0.0990 0.1552
H20 H 0.1120 0.1030 0.2111
C21 C 0.0396(2) 0.1116(2) 0.25118(19)
C22 C -0.0421(2) 0.09003(19) 0.29746(18)
H21 H -0.0292 0.0717 0.3197
H22 H -0.0784 0.0637 0.2866
C23 C -0.02837(19) 0.14156(18) 0.37433(19)
C24 C 0.3806(2) 0.4876(2) 0.21796(19)
H23 H 0.3662 0.5079 0.2013
H24 H 0.4180 0.5027 0.2073
C16L C 0.4018(2) 0.3953(2) 0.2931(2)
N8L N 0.39408(19) 0.43309(17) 0.32175(16)
C7L C 0.3855(2) 0.4281(2) 0.37207(19)
O4L O 0.37058(16) 0.38723(14) 0.39649(13)
N7L N 0.39598(18) 0.47621(16) 0.39069(15)
C6L C 0.3982(2) 0.4875(2) 0.44337(18)
N6L N 0.35413(16) 0.49299(16) 0.46043(15)
C5L C 0.3213(2) 0.46093(19) 0.49757(19)
O3L O 0.31680(15) 0.41943(14) 0.51165(15)
N5L N 0.29419(16) 0.48447(16) 0.51664(16)
C4L C 0.2592(2) 0.4635(2) 0.5593(2)
N4L N 0.20350(16) 0.43951(16) 0.54685(17)
C3L C 0.1690(2) 0.3862(2) 0.54809(19)
O2L O 0.18078(14) 0.35180(14) 0.55435(14)
N3L N 0.11857(17) 0.37769(17) 0.54060(16)
C2L C 0.0730(2) 0.3275(2) 0.5548(2)
N2L N 0.03666(16) 0.30099(16) 0.51379(16)
C1L C 0.0255(2) 0.2526(2) 0.49613(19)
O1L O 0.04964(15) 0.22911(14) 0.50654(14)
N1L N -0.01754(17) 0.23384(16) 0.46485(16)
C8L C -0.0388(2) 0.26929(19) 0.46226(18)
N9L N -0.03063(18) 0.29534(17) 0.41408(16)
C24L C -0.0473(2) 0.1791(2) 0.44871(19)
H23L H -0.0329 0.1588 0.4654
H24L H -0.0847 0.1640 0.4594
C17L C -0.0002(2) 0.3494(2) 0.4184(2)
O5L O 0.00838(19) 0.38129(16) 0.38486(15)
N10L N 0.01914(17) 0.36159(17) 0.46572(16)
C9L C -0.00269(19) 0.31516(19) 0.49771(19)
H7L H -0.0767 0.2515 0.4729
H8L H -0.0228 0.3182 0.5266
C18L C 0.0419(2) 0.4148(2) 0.4857(2)
N11L N 0.09799(17) 0.43850(17) 0.49658(17)
C10L C 0.1172(2) 0.4271(2) 0.54186(19)
H9L H 0.0985 0.4296 0.5722
C11L C 0.1768(2) 0.4697(2) 0.54184(19)
N12L N 0.18396(16) 0.49523(17) 0.49315(17)
C19L C 0.1363(2) 0.4800(2) 0.4703(2)
O6L O 0.12949(15) 0.50015(15) 0.43304(15)
C20L C 0.2307(2) 0.5453(2) 0.4811(2)
N13L N 0.27418(17) 0.53953(17) 0.46269(16)
C12L C 0.31193(19) 0.53635(19) 0.49584(19)
H11L H 0.3250 0.5644 0.5223
C13L C 0.35685(19) 0.54411(18) 0.45949(18)
N14L N 0.34161(17) 0.55723(17) 0.41255(15)
C21L C 0.2937(2) 0.5551(2) 0.41549(19)
O7L O 0.27197(16) 0.56577(17) 0.38185(14)
C22L C 0.3754(2) 0.57664(19) 0.36921(18)
N15L N 0.37736(16) 0.53483(15) 0.34110(15)
C14L C 0.4146(2) 0.51682(19) 0.35264(18)
H13L H 0.4507 0.5471 0.3606
C15L C 0.4147(2) 0.4875(2) 0.30490(19)
N16L N 0.37929(17) 0.49380(16) 0.27157(15)
C23L C 0.36170(19) 0.52511(18) 0.29234(19)
O8L O 0.33511(15) 0.54093(15) 0.27075(13)
H14L H 0.4510 0.5027 0.2904
H21L H 0.3625 0.5950 0.3470
H22L H 0.4117 0.6030 0.3801
H12L H 0.3921 0.5731 0.4710
H19L H 0.2424 0.5677 0.5115
H20L H 0.2213 0.5637 0.4556
H10L H 0.1858 0.4955 0.5700
H17L H 0.0367 0.4373 0.4613
H18L H 0.0229 0.4137 0.5168
H1L H 0.0537 0.3338 0.5820
H2L H 0.0855 0.3040 0.5680
H3L H 0.2653 0.4366 0.5758
H4L H 0.2685 0.4925 0.5835
H5L H 0.3987 0.4587 0.4624
H6L H 0.4316 0.5207 0.4507
H15L H 0.3988 0.3671 0.3158
H16L H 0.4381 0.4135 0.2791
N17 N 0.1442(3) 0.2659(3) 0.2943(2)
H25 H 0.1679 0.2945 0.3130
H26 H 0.1590 0.2448 0.2891
N18 N 0.1401(3) 0.2879(3) 0.3972(2)
H27 H 0.1695 0.3006 0.3769
H28 H 0.1377 0.2596 0.4148
C25 C 0.1377(4) 0.2846(3) 0.2470(3)
H29 H 0.1063 0.2892 0.2483
H30 H 0.1313 0.2578 0.2210
C26 C 0.0960(3) 0.2359(3) 0.3234(3)
H31 H 0.0953 0.2044 0.3379
H32 H 0.0649 0.2236 0.3011
C27 C 0.0920(3) 0.2686(3) 0.3648(3)
H33 H 0.0902 0.2991 0.3508
H34 H 0.0596 0.2469 0.3848
C28 C 0.1852(4) 0.3361(3) 0.2331(3)
H35 H 0.2170 0.3320 0.2330
H36 H 0.1806 0.3463 0.1990
N18L N 0.1932(3) 0.3788(3) 0.2695(2)
H27L H 0.1638 0.3661 0.2898
H28L H 0.1956 0.4071 0.2519
C27L C 0.2413(3) 0.3981(3) 0.3019(3)
C26L C 0.2373(3) 0.4308(3) 0.3433(3)
N17L N 0.1891(3) 0.4008(3) 0.3724(2)
H25L H 0.1654 0.3722 0.3537
H26L H 0.1743 0.4219 0.3776
C25L C 0.1956(4) 0.3821(3) 0.4197(3)
H29L H 0.2270 0.3775 0.4184
H30L H 0.2020 0.4089 0.4457
C28L C 0.1481(4) 0.3306(3) 0.4336(3)
H35L H 0.1163 0.3347 0.4337
H36L H 0.1527 0.3204 0.4677
H31L H 0.2380 0.4623 0.3288
H32L H 0.2684 0.4431 0.3656
H33L H 0.2431 0.3676 0.3159
H34L H 0.2737 0.4198 0.2819
O9 O 0.4941(5) 0.3823(7) 0.3493(4)
O10 O 0.2230(2) 0.4722(2) 0.21843(19)
O11 O 0.0844(2) 0.0999(2) 0.38523(19)
O12 O 0.3055(2) 0.1586(2) 0.1202(2)
O13 O -0.0202(3) 0.0784(3) 0.4889(2)
O14 O 0.2158(3) 0.2193(3) 0.3322(2)
O15 O 0.0781(3) 0.3557(3) 0.2833(3)
O16 O 0.3327(4) 0.1977(4) 0.3088(5)
O18 O 0.0000 0.0000 0.4153(5)
O19 O 0.3916(6) 0.2684(6) 0.3479(5)
O22 O 0.0743(7) 0.0840(5) 0.0476(4)
O17? O 0.3532(7) 0.1709(6) 0.3124(5)
O20? O 0.4361(8) 0.2694(10) 0.3396(6)
O21? O 0.481(3) 0.3135(14) 0.3166(11)
loop_
_geom_bond_atom_site_label_1
_geom_bond_atom_site_label_2
_geom_bond_site_symmetry_1
_geom_bond_site_symmetry_2
O1 C1 1_555 1_555
O2 C3 1_555 1_555
O3 C5 1_555 1_555
O4 C7 1_555 1_555
O5 C17 1_555 1_555
O6 C19 1_555 1_555
O7 C21 1_555 1_555
O8 C23 1_555 1_555
N1 C1 1_555 1_555
N2 C1 1_555 1_555
N3 C2 1_555 1_555
N4 C3 1_555 1_555
N5 C4 1_555 1_555
N6 C5 1_555 1_555
N7 C6 1_555 1_555
N8 C7 1_555 1_555
N9 C8 1_555 1_555
N10 C9 1_555 1_555
N11 C10 1_555 1_555
N12 C11 1_555 1_555
N13 C12 1_555 1_555
N14 C13 1_555 1_555
N15 C14 1_555 1_555
N16 C15 1_555 1_555
C2 N2 1_555 1_555
H1 C2 1_555 1_555
H2 C2 1_555 1_555
C3 N3 1_555 1_555
C4 N4 1_555 1_555
H3 C4 1_555 1_555
H4 C4 1_555 1_555
C5 N5 1_555 1_555
C6 N6 1_555 1_555
H5 C6 1_555 1_555
H6 C6 1_555 1_555
C7 N7 1_555 1_555
C8 N1 1_555 1_555
H7 C8 1_555 1_555
C9 N2 1_555 1_555
H8 C9 1_555 1_555
C10 N3 1_555 1_555
H9 C10 1_555 1_555
C11 N4 1_555 1_555
H10 C11 1_555 1_555
C12 N5 1_555 1_555
H11 C12 1_555 1_555
C13 N6 1_555 1_555
H12 C13 1_555 1_555
C14 N7 1_555 1_555
H13 C14 1_555 1_555
C15 N8 1_555 1_555
H14 C15 1_555 1_555
C16 N8 1_555 1_555
H15 C16 1_555 1_555
H16 C16 1_555 1_555
C17 N9 1_555 1_555
C18 N10 1_555 1_555
H17 C18 1_555 1_555
H18 C18 1_555 1_555
C19 N11 1_555 1_555
C20 N12 1_555 1_555
H19 C20 1_555 1_555
H20 C20 1_555 1_555
C21 N13 1_555 1_555
C22 N14 1_555 1_555
H21 C22 1_555 1_555
H22 C22 1_555 1_555
C23 N15 1_555 1_555
C24 N1 1_555 1_555
H23 C24 1_555 1_555
H24 C24 1_555 1_555
N17 H25 1_555 1_555
H26 N17 1_555 1_555
N18 H27 1_555 1_555
H28 N18 1_555 1_555
C25 N17 1_555 1_555
H29 C25 1_555 1_555
H30 C25 1_555 1_555
C26 N17 1_555 1_555
H31 C26 1_555 1_555
H32 C26 1_555 1_555
C27 N18 1_555 1_555
H33 C27 1_555 1_555
H34 C27 1_555 1_555
C28 C25 1_555 1_555
H35 C28 1_555 1_555
H36 C28 1_555 1_555
C16L N9 1_555 1_555
N8L C16L 1_555 1_555
C7L N8L 1_555 1_555
O4L C7L 1_555 1_555
N7L C7L 1_555 1_555
C6L N7L 1_555 1_555
N6L C6L 1_555 1_555
C5L N6L 1_555 1_555
O3L C5L 1_555 1_555
N5L C5L 1_555 1_555
C4L N5L 1_555 1_555
N4L C4L 1_555 1_555
C3L N4L 1_555 1_555
O2L C3L 1_555 1_555
N3L C3L 1_555 1_555
C2L N3L 1_555 1_555
N2L C2L 1_555 1_555
C1L N2L 1_555 1_555
O1L C1L 1_555 1_555
N1L C1L 1_555 1_555
C8L N1L 1_555 1_555
N9L C16 1_555 1_555
C24L N16 1_555 1_555
H23L C24L 1_555 1_555
H24L C24L 1_555 1_555
C17L N9L 1_555 1_555
O5L C17L 1_555 1_555
N10L C17L 1_555 1_555
C9L N2L 1_555 1_555
H7L C8L 1_555 1_555
H8L C9L 1_555 1_555
C18L N10L 1_555 1_555
N11L C18L 1_555 1_555
C10L N3L 1_555 1_555
H9L C10L 1_555 1_555
C11L N4L 1_555 1_555
N12L C11L 1_555 1_555
C19L N11L 1_555 1_555
O6L C19L 1_555 1_555
C20L N12L 1_555 1_555
N13L C20L 1_555 1_555
C12L N5L 1_555 1_555
H11L C12L 1_555 1_555
C13L N6L 1_555 1_555
N14L C13L 1_555 1_555
C21L N13L 1_555 1_555
O7L C21L 1_555 1_555
C22L N14L 1_555 1_555
N15L C22L 1_555 1_555
C14L N7L 1_555 1_555
H13L C14L 1_555 1_555
C15L N8L 1_555 1_555
N16L C24 1_555 1_555
C23L N15L 1_555 1_555
O8L C23L 1_555 1_555
H14L C15L 1_555 1_555
H21L C22L 1_555 1_555
H22L C22L 1_555 1_555
H12L C13L 1_555 1_555
H19L C20L 1_555 1_555
H20L C20L 1_555 1_555
H10L C11L 1_555 1_555
H17L C18L 1_555 1_555
H18L C18L 1_555 1_555
H1L C2L 1_555 1_555
H2L C2L 1_555 1_555
H3L C4L 1_555 1_555
H4L C4L 1_555 1_555
H5L C6L 1_555 1_555
H6L C6L 1_555 1_555
H15L C16L 1_555 1_555
H16L C16L 1_555 1_555
N18L C28 1_555 1_555
H27L N18L 1_555 1_555
H28L N18L 1_555 1_555
C27L N18L 1_555 1_555
C26L C27L 1_555 1_555
N17L C26L 1_555 1_555
H25L N17L 1_555 1_555
H26L N17L 1_555 1_555
C25L N17L 1_555 1_555
H29L C25L 1_555 1_555
H30L C25L 1_555 1_555
C28L N18 1_555 1_555
H35L C28L 1_555 1_555
H36L C28L 1_555 1_555
H31L C26L 1_555 1_555
H32L C26L 1_555 1_555
H33L C27L 1_555 1_555
H34L C27L 1_555 1_555
N10 C17 1_555 1_555
N11 C18 1_555 1_555
N12 C19 1_555 1_555
N13 C20 1_555 1_555
N14 C21 1_555 1_555
N15 C22 1_555 1_555
N16 C23 1_555 1_555
C8 C9 1_555 1_555
C10 C11 1_555 1_555
C12 C13 1_555 1_555
C14 C15 1_555 1_555
C26 C27 1_555 1_555
N1L C24L 1_555 1_555
C8L N9L 1_555 1_555
C8L C9L 1_555 1_555
N10L C9L 1_555 1_555
N11L C10L 1_555 1_555
C10L C11L 1_555 1_555
N12L C19L 1_555 1_555
N13L C12L 1_555 1_555
C12L C13L 1_555 1_555
N14L C21L 1_555 1_555
N15L C14L 1_555 1_555
C14L C15L 1_555 1_555
C15L N16L 1_555 1_555
N16L C23L 1_555 1_555
C25L C28L 1_555 1_555

#END
