
#######################################################################
#
#                 Cambridge Crystallographic Data Centre
#                                CCDC 
#
#######################################################################
#
# If this CIF has been generated from an entry in the Cambridge 
# Structural Database, then it will include bibliographic, chemical, 
# crystal, experimental, refinement or atomic coordinate data resulting 
# from the CCDC's data processing and validation procedures.
#
#######################################################################

data_YAVQAN
_chemical_formula_moiety         'C48 H54 O6,0.5(C1 H1 Cl3)'
_chemical_name_systematic        
'3,5,9,11,14,16-Hexaoxa-1^2^,1^4^,1^6^,7^2^,7^4^,7^6^-hexaethyl-1,7(1,3,5)-4,10,15(1,2)-hexabenzenabicyclo(5.5.5)heptadecaphane chloroform solvate'
_symmetry_cell_setting           monoclinic
_symmetry_space_group_name_H-M   'P 21/n'
_symmetry_Int_Tables_number      14
_space_group_name_Hall           '-P 2yn'
loop_
_symmetry_equiv_pos_site_id
_symmetry_equiv_pos_as_xyz
1 x,y,z
2 1/2-x,1/2+y,1/2-z
3 -x,-y,-z
4 1/2+x,1/2-y,1/2+z
_cell_length_a                   13.5223(2)
_cell_length_b                   21.9568(4)
_cell_length_c                   14.05680(10)
_cell_angle_alpha                90
_cell_angle_beta                 94.2610(10)
_cell_angle_gamma                90
_cell_volume                     4162.02
_exptl_crystal_colour            colorless
_exptl_crystal_description       plate
_cell_formula_units_Z            4
loop_
_atom_site_label
_atom_site_type_symbol
_atom_site_fract_x
_atom_site_fract_y
_atom_site_fract_z
O1 O 0.5786(2) 0.14324(17) 0.4811(2)
O2 O 0.3778(2) 0.35194(12) 0.5731(2)
O3 O 0.2345(2) 0.13292(16) 0.6412(2)
O4 O 0.5011(2) 0.15034(15) 0.3147(2)
O5 O 0.3174(3) 0.34954(12) 0.3991(2)
O6 O 0.1492(2) 0.12580(19) 0.4780(2)
C2 C 0.5370(3) 0.18233(18) 0.6259(3)
C3 C 0.5321(3) 0.24629(19) 0.6265(3)
C4 C 0.4517(3) 0.27495(18) 0.6672(3)
C5 C 0.3768(3) 0.24024(18) 0.7042(3)
C6 C 0.3822(3) 0.17612(18) 0.7013(3)
C7 C 0.4608(3) 0.14716(18) 0.6612(3)
C8 C 0.6093(3) 0.2841(2) 0.5791(3)
H1 H 0.6189 0.3228 0.6134
H2 H 0.6727 0.2623 0.5839
C9 C 0.5795(4) 0.2972(2) 0.4748(3)
H3 H 0.6307 0.3214 0.4480
H4 H 0.5175 0.3196 0.4697
H5 H 0.5714 0.2591 0.4402
C10 C 0.2900(3) 0.2702(2) 0.7474(3)
H6 H 0.2297 0.2466 0.7306
H7 H 0.2804 0.3112 0.7209
C11 C 0.3068(4) 0.2743(2) 0.8558(3)
H8 H 0.2501 0.2939 0.8814
H9 H 0.3661 0.2980 0.8726
H10 H 0.3147 0.2336 0.8823
C12 C 0.4636(3) 0.07802(18) 0.6541(3)
H11 H 0.3956 0.0623 0.6466
H12 H 0.4971 0.0663 0.5973
C13 C 0.5174(4) 0.0494(2) 0.7419(4)
H13 H 0.5183 0.0055 0.7345
H14 H 0.4832 0.0599 0.7979
H15 H 0.5849 0.0646 0.7492
C14 C 0.6174(3) 0.1501(2) 0.5768(3)
H16 H 0.6783 0.1745 0.5801
H17 H 0.6320 0.1104 0.6062
C15 C 0.6294(3) 0.11259(19) 0.4166(3)
C16 C 0.7162(3) 0.08027(19) 0.4348(3)
H18 H 0.7463 0.0781 0.4972
C17 C 0.7587(3) 0.0510(2) 0.3604(4)
H19 H 0.8174 0.0286 0.3727
C18 C 0.7162(3) 0.0545(2) 0.2696(4)
H20 H 0.7459 0.0344 0.2200
C19 C 0.6288(3) 0.0876(2) 0.2498(3)
H21 H 0.6000 0.0904 0.1869
C20 C 0.5854(3) 0.11588(19) 0.3232(3)
C21 C 0.4309(3) 0.14306(19) 0.2341(3)
H22 H 0.4174 0.0998 0.2215
H23 H 0.4556 0.1616 0.1770
C22 C 0.4394(3) 0.34352(18) 0.6588(3)
H24 H 0.4077 0.3600 0.7137
H25 H 0.5037 0.3635 0.6545
C23 C 0.3694(3) 0.40805(18) 0.5313(3)
C24 C 0.3914(3) 0.46305(18) 0.5749(3)
H26 H 0.4168 0.4642 0.6390
C25 C 0.3758(3) 0.5169(2) 0.5241(3)
H27 H 0.3917 0.5544 0.5536
C26 C 0.3373(3) 0.51552(19) 0.4314(3)
H28 H 0.3255 0.5523 0.3982
C27 C 0.3154(3) 0.46056(18) 0.3856(3)
H29 H 0.2896 0.4600 0.3217
C28 C 0.3323(3) 0.40666(17) 0.4354(3)
C29 C 0.2668(3) 0.33969(17) 0.3087(3)
H30 H 0.3037 0.3573 0.2579
H31 H 0.2004 0.3577 0.3058
C30 C 0.2946(3) 0.1387(2) 0.7283(3)
H32 H 0.3160 0.0987 0.7528
H33 H 0.2586 0.1597 0.7767
C31 C 0.1439(3) 0.10578(18) 0.6392(3)
C32 C 0.0995(3) 0.08314(19) 0.7164(3)
H34 H 0.1316 0.0857 0.7779
C33 C 0.0060(3) 0.0562(2) 0.7023(3)
H35 H -0.0248 0.0403 0.7547
C34 C -0.0414(3) 0.0529(2) 0.6128(3)
H36 H -0.1044 0.0347 0.6041
C35 C 0.0035(3) 0.07638(19) 0.5349(3)
H37 H -0.0291 0.0743 0.4735
C36 C 0.0954(3) 0.10253(19) 0.5477(3)
C37 C 0.1048(3) 0.14031(19) 0.3864(3)
H38 H 0.0457 0.1656 0.3915
H39 H 0.0857 0.1032 0.3509
C38 C 0.3389(3) 0.17542(17) 0.2621(2)
C39 C 0.3385(3) 0.23966(17) 0.2611(3)
C40 C 0.2610(3) 0.27103(17) 0.2995(3)
C41 C 0.1831(3) 0.23945(17) 0.3394(3)
C42 C 0.1836(3) 0.17498(18) 0.3374(3)
C43 C 0.2617(3) 0.14324(17) 0.3006(3)
C44 C 0.4233(3) 0.27323(19) 0.2182(3)
H40 H 0.4318 0.3132 0.2487
H41 H 0.4849 0.2502 0.2315
C45 C 0.4046(4) 0.2816(2) 0.1116(3)
H42 H 0.4601 0.3030 0.0871
H43 H 0.3445 0.3052 0.0981
H44 H 0.3972 0.2421 0.0810
C46 C 0.1050(3) 0.2739(2) 0.3896(3)
H45 H 0.0418 0.2521 0.3805
H46 H 0.0959 0.3143 0.3603
C47 C 0.1321(4) 0.2815(3) 0.4957(3)
H47 H 0.0802 0.3041 0.5242
H48 H 0.1942 0.3036 0.5052
H49 H 0.1392 0.2418 0.5254
C48 C 0.2689(4) 0.07414(19) 0.3093(3)
H50 H 0.2020 0.0569 0.3090
H51 H 0.3002 0.0578 0.2541
C49 C 0.32854(14) 0.05479(11) 0.40005(13)
H52 H 0.3310 0.0107 0.4033
H53 H 0.2974 0.0706 0.4549
H54 H 0.3954 0.0708 0.3998
Cl1 Cl 0.40803(14) -0.03278(11) 1.00001(13)
Cl2 Cl 0.40310(14) 0.09430(11) 0.97793(13)
C1 C 0.47042(14) 0.02552(11) 1.03371(13)
Cl1B Cl 0.59197(14) 0.03278(11) 0.99999(13)
C1B C 0.52958(14) -0.02552(11) 0.96629(13)
Cl2B Cl 0.59690(14) -0.09430(11) 1.02207(13)
loop_
_geom_bond_atom_site_label_1
_geom_bond_atom_site_label_2
_geom_bond_site_symmetry_1
_geom_bond_site_symmetry_2
Cl1 C1 1_555 1_555
Cl2 C1 1_555 1_555
C1 Cl1B 1_555 1_555
O1 C14 1_555 1_555
O2 C22 1_555 1_555
O3 C30 1_555 1_555
O4 C20 1_555 1_555
O5 C28 1_555 1_555
O6 C36 1_555 1_555
C2 C3 1_555 1_555
C3 C4 1_555 1_555
C4 C5 1_555 1_555
C5 C6 1_555 1_555
C6 C7 1_555 1_555
C7 C2 1_555 1_555
C8 C3 1_555 1_555
H1 C8 1_555 1_555
H2 C8 1_555 1_555
C9 C8 1_555 1_555
H3 C9 1_555 1_555
H4 C9 1_555 1_555
H5 C9 1_555 1_555
C10 C5 1_555 1_555
H6 C10 1_555 1_555
H7 C10 1_555 1_555
C11 C10 1_555 1_555
H8 C11 1_555 1_555
H9 C11 1_555 1_555
H10 C11 1_555 1_555
C12 C7 1_555 1_555
H11 C12 1_555 1_555
H12 C12 1_555 1_555
C13 C12 1_555 1_555
H13 C13 1_555 1_555
H14 C13 1_555 1_555
H15 C13 1_555 1_555
C14 C2 1_555 1_555
H16 C14 1_555 1_555
H17 C14 1_555 1_555
C15 O1 1_555 1_555
C16 C15 1_555 1_555
H18 C16 1_555 1_555
C17 C16 1_555 1_555
H19 C17 1_555 1_555
C18 C17 1_555 1_555
H20 C18 1_555 1_555
C19 C18 1_555 1_555
H21 C19 1_555 1_555
C20 C15 1_555 1_555
C21 O4 1_555 1_555
H22 C21 1_555 1_555
H23 C21 1_555 1_555
C22 C4 1_555 1_555
H24 C22 1_555 1_555
H25 C22 1_555 1_555
C23 O2 1_555 1_555
C24 C23 1_555 1_555
H26 C24 1_555 1_555
C25 C24 1_555 1_555
H27 C25 1_555 1_555
C26 C25 1_555 1_555
H28 C26 1_555 1_555
C27 C26 1_555 1_555
H29 C27 1_555 1_555
C28 C23 1_555 1_555
C29 O5 1_555 1_555
H30 C29 1_555 1_555
H31 C29 1_555 1_555
C30 C6 1_555 1_555
H32 C30 1_555 1_555
H33 C30 1_555 1_555
C31 O3 1_555 1_555
C32 C31 1_555 1_555
H34 C32 1_555 1_555
C33 C32 1_555 1_555
H35 C33 1_555 1_555
C34 C33 1_555 1_555
H36 C34 1_555 1_555
C35 C34 1_555 1_555
H37 C35 1_555 1_555
C36 C31 1_555 1_555
C37 O6 1_555 1_555
H38 C37 1_555 1_555
H39 C37 1_555 1_555
C38 C21 1_555 1_555
C39 C38 1_555 1_555
C40 C29 1_555 1_555
C41 C40 1_555 1_555
C42 C37 1_555 1_555
C43 C38 1_555 1_555
C44 C39 1_555 1_555
H40 C44 1_555 1_555
H41 C44 1_555 1_555
C45 C44 1_555 1_555
H42 C45 1_555 1_555
H43 C45 1_555 1_555
H44 C45 1_555 1_555
C46 C41 1_555 1_555
H45 C46 1_555 1_555
H46 C46 1_555 1_555
C47 C46 1_555 1_555
H47 C47 1_555 1_555
H48 C47 1_555 1_555
H49 C47 1_555 1_555
C48 C43 1_555 1_555
H50 C48 1_555 1_555
H51 C48 1_555 1_555
C49 C48 1_555 1_555
H52 C49 1_555 1_555
H53 C49 1_555 1_555
H54 C49 1_555 1_555
Cl1B C1B 1_555 1_555
C1B Cl1 1_555 1_555
Cl2B C1B 1_555 1_555
C1 C1B 1_555 1_555
C19 C20 1_555 1_555
C27 C28 1_555 1_555
C35 C36 1_555 1_555
C39 C40 1_555 1_555
C41 C42 1_555 1_555
C42 C43 1_555 1_555

#END
