
#######################################################################
#
#                 Cambridge Crystallographic Data Centre
#                                CCDC 
#
#######################################################################
#
# If this CIF has been generated from an entry in the Cambridge 
# Structural Database, then it will include bibliographic, chemical, 
# crystal, experimental, refinement or atomic coordinate data resulting 
# from the CCDC's data processing and validation procedures.
#
#######################################################################

data_YAVQER
_chemical_formula_moiety         'C48 H54 O6,H4 N1 1+,F6 P1 1-,C2 H3 N1'
_chemical_name_systematic        
'3,5,9,11,14,16-Hexaoxa-1^2^,1^4^,1^6^,7^2^,7^4^,7^6^-hexaethyl-1,7(1,3,5)-4,10,15(1,2)-hexabenzenabicyclo(5.5.5)heptadecaphane ammonium clathrate hexafluorophosphate acetonitrile solvate'
_symmetry_cell_setting           trigonal
_symmetry_space_group_name_H-M   'P -3 c 1'
_symmetry_Int_Tables_number      165
_space_group_name_Hall           '-P 3 2"c'
loop_
_symmetry_equiv_pos_site_id
_symmetry_equiv_pos_as_xyz
1 x,y,z
2 -y,x-y,z
3 -x+y,-x,z
4 y,x,1/2-z
5 x-y,-y,1/2-z
6 -x,-x+y,1/2-z
7 -x,-y,-z
8 y,-x+y,-z
9 x-y,x,-z
10 -y,-x,1/2+z
11 -x+y,y,1/2+z
12 x,x-y,1/2+z
_cell_length_a                   16.6234(2)
_cell_length_b                   16.6234(2)
_cell_length_c                   19.6564(4)
_cell_angle_alpha                90
_cell_angle_beta                 90
_cell_angle_gamma                120
_cell_volume                     4704.08
_exptl_crystal_colour            colorless
_exptl_crystal_description       hexagonal
_cell_formula_units_Z            4
loop_
_atom_site_label
_atom_site_type_symbol
_atom_site_fract_x
_atom_site_fract_y
_atom_site_fract_z
N1 N 0.6667 0.3333 0.4623(3)
H20 H 0.6781 0.3817 0.4708
H21 H 0.6667 0.3333 0.4158
H20A H 0.6183 0.2964 0.4708
H20B H 0.7036 0.3219 0.4708
C18 C 0.0000(5) 0.0000(5) 0.3213(3)
C19 C 0.0000(5) 0.0000(5) 0.3965(3)
N2 N 0.0000(5) 0.0000(5) 0.4734(3)
N2F N 0.0000(5) 0.0000(5) 0.5266(3)
C19F C 0.0000(5) 0.0000(5) 0.6035(3)
C18F C 0.0000(5) 0.0000(5) 0.6787(3)
P1 P 0.78322(13) 0.0000 0.2500
F1 F 0.8032(7) 0.0434(7) 0.3191(4)
F2 F 0.6864(5) -0.0676(7) 0.2750(6)
F3 F 0.8139(7) -0.0671(7) 0.2718(7)
F4 F 0.8540(15) 0.014(2) 0.3006(13)
F5 F 0.7358(18) 0.0254(16) 0.3045(9)
F6 F 0.7259(18) -0.1006(9) 0.2745(9)
F1D F 0.7598(10) -0.0434(7) 0.1809(4)
F4D F 0.8400(25) -0.014(2) 0.1994(13)
F2D F 0.7540(9) 0.0676(7) 0.2250(6)
F5D F 0.7104(24) -0.0254(16) 0.1955(9)
F3D F 0.8810(10) 0.0671(7) 0.2282(7)
F6D F 0.8265(20) 0.1006(9) 0.2255(9)
O1 O 0.4681(2) 0.1869(2) 0.39729(18)
O2 O 0.4705(2) 0.1819(2) 0.52695(17)
C1 C 0.4875(6) 0.3899(6) 0.3752(6)
H1 H 0.4410 0.4083 0.3693
H2 H 0.5374 0.4350 0.4036
H3 H 0.4594 0.3293 0.3967
C2 C 0.5237(4) 0.3856(5) 0.3105(5)
H4 H 0.5490 0.4466 0.2888
H5 H 0.4719 0.3410 0.2823
C3 C 0.5980(3) 0.3587(3) 0.3097(3)
C4 C 0.5731(3) 0.2653(3) 0.3105(2)
C5 C 0.4733(3) 0.1930(3) 0.3249(3)
H6 H 0.4307 0.2125 0.3069
H7 H 0.4579 0.1332 0.3047
C6 C 0.3856(3) 0.1221(3) 0.4268(3)
C7 C 0.3056(3) 0.0625(3) 0.3922(3)
H8 H 0.3033 0.0652 0.3445
C8 C 0.2282(4) -0.0018(4) 0.4287(5)
H9 H 0.1737 -0.0433 0.4053
C9 C 0.2302(4) -0.0054(4) 0.4980(5)
H10 H 0.1771 -0.0491 0.5217
C10 C 0.3095(3) 0.0545(3) 0.5335(3)
H11 H 0.3109 0.0517 0.5812
C11 C 0.3875(3) 0.1190(3) 0.4977(3)
C12 C 0.4763(3) 0.1856(3) 0.5995(3)
H12 H 0.4651 0.1262 0.6183
H13 H 0.4311 0.2006 0.6190
C13 C 0.5740(3) 0.2616(3) 0.6136(2)
C14 C 0.5946(3) 0.3544(3) 0.6141(2)
C15 C 0.5156(4) 0.3768(4) 0.6109(4)
C16 C 0.4868(5) 0.3878(5) 0.5488(3)
H14 H 0.4374 0.4023 0.5543
H15 H 0.4640 0.3309 0.5229
H16 H 0.5385 0.4383 0.5249
C17 C 0.4709(5) 0.3732(5) 0.6682(3)
H17 H 0.5025 0.3652 0.7062
H18 H 0.4085 0.3218 0.6660
H19 H 0.4697 0.4299 0.6735
C4B C 0.6922(4) 0.4269(3) 0.3105(2)
C3B C 0.7607(4) 0.4020(3) 0.3097(3)
C2B C 0.8619(6) 0.4763(4) 0.3105(5)
C1B C 0.9024(8) 0.5125(6) 0.3752(6)
H1B H 0.9673 0.5590 0.3693
H2B H 0.8976 0.4626 0.4036
H3B H 0.8699 0.5406 0.3967
H4B H 0.8976 0.4510 0.2888
H5B H 0.8691 0.5281 0.2823
C4A C 0.7347(3) 0.3078(4) 0.3105(2)
C3A C 0.6413(3) 0.2393(4) 0.3097(3)
C2A C 0.6144(5) 0.1381(6) 0.3105(5)
C1A C 0.6101(6) 0.0976(8) 0.3752(6)
H1A H 0.5917 0.0327 0.3693
H2A H 0.5650 0.1024 0.4036
H3A H 0.6707 0.1301 0.3967
H4A H 0.5534 0.1024 0.2888
H5A H 0.6590 0.1309 0.2823
C5A C 0.8070(3) 0.2803(4) 0.3249(3)
O1A O 0.8131(2) 0.2812(3) 0.39729(18)
C6A C 0.8779(3) 0.2635(4) 0.4268(3)
C7A C 0.9375(3) 0.2431(4) 0.3922(3)
H8A H 0.9348 0.2381 0.3445
C8A C 1.0018(4) 0.2300(6) 0.4287(5)
H9A H 1.0433 0.2170 0.4053
C9A C 1.0054(4) 0.2356(6) 0.4980(5)
H10A H 1.0491 0.2262 0.5217
C10A C 0.9455(3) 0.2550(4) 0.5335(3)
H11A H 0.9483 0.2592 0.5812
C11A C 0.8810(3) 0.2685(4) 0.4977(3)
O2A O 0.8181(2) 0.2886(3) 0.52695(17)
C12A C 0.8144(3) 0.2907(4) 0.5995(3)
H12A H 0.8738 0.3389 0.6183
H13A H 0.7994 0.2305 0.6190
C13A C 0.7384(3) 0.3124(4) 0.6136(2)
C14A C 0.6456(3) 0.2402(4) 0.6141(2)
C13B C 0.6876(4) 0.4260(3) 0.6136(2)
C12B C 0.7093(4) 0.5237(3) 0.5995(3)
O2B O 0.7114(3) 0.5295(2) 0.52695(17)
C11B C 0.7315(4) 0.6125(3) 0.4977(3)
C6B C 0.7365(4) 0.6144(3) 0.4268(3)
O1B O 0.7188(3) 0.5319(2) 0.39729(18)
C5B C 0.7197(4) 0.5267(3) 0.3249(3)
H6B H 0.7818 0.5693 0.3069
H7B H 0.6753 0.5421 0.3047
C7B C 0.7569(4) 0.6944(3) 0.3922(3)
H8B H 0.7619 0.6967 0.3445
C8B C 0.7700(6) 0.7718(4) 0.4287(5)
H9B H 0.7830 0.8263 0.4053
C9B C 0.7644(6) 0.7698(4) 0.4980(5)
H10B H 0.7738 0.8229 0.5217
C10B C 0.7450(4) 0.6905(3) 0.5335(3)
H11B H 0.7408 0.6891 0.5812
H12B H 0.6611 0.5349 0.6183
H13B H 0.7695 0.5689 0.6190
C14B C 0.7598(4) 0.4054(3) 0.6141(2)
C15B C 0.8612(6) 0.4844(4) 0.6109(4)
C16B C 0.9010(7) 0.5132(5) 0.5488(3)
H14B H 0.9649 0.5626 0.5543
H15B H 0.8669 0.5360 0.5229
H16B H 0.8998 0.4615 0.5249
C17B C 0.9023(7) 0.5291(5) 0.6682(3)
H17B H 0.8627 0.4975 0.7062
H18B H 0.9133 0.5915 0.6660
H19B H 0.9602 0.5303 0.6735
C15A C 0.6232(4) 0.1388(6) 0.6109(4)
C16A C 0.6122(5) 0.0990(7) 0.5488(3)
H14A H 0.5977 0.0351 0.5543
H15A H 0.6691 0.1331 0.5229
H16A H 0.5617 0.1002 0.5249
C17A C 0.6268(5) 0.0977(7) 0.6682(3)
H17A H 0.6348 0.1373 0.7062
H18A H 0.6782 0.0867 0.6660
H19A H 0.5701 0.0398 0.6735
H6A H 0.7875 0.2182 0.3069
H7A H 0.8668 0.3247 0.3047
loop_
_geom_bond_atom_site_label_1
_geom_bond_atom_site_label_2
_geom_bond_site_symmetry_1
_geom_bond_site_symmetry_2
O1 C5 1_555 1_555
O2 C11 1_555 1_555
C1 H1 1_555 1_555
H2 C1 1_555 1_555
H3 C1 1_555 1_555
C2 C1 1_555 1_555
H4 C2 1_555 1_555
H5 C2 1_555 1_555
C3 C2 1_555 1_555
C4 C3 1_555 1_555
C5 C4 1_555 1_555
H6 C5 1_555 1_555
H7 C5 1_555 1_555
C6 O1 1_555 1_555
C7 C6 1_555 1_555
H8 C7 1_555 1_555
C8 C7 1_555 1_555
H9 C8 1_555 1_555
C9 C8 1_555 1_555
H10 C9 1_555 1_555
C10 C9 1_555 1_555
H11 C10 1_555 1_555
C11 C6 1_555 1_555
C12 O2 1_555 1_555
H12 C12 1_555 1_555
H13 C12 1_555 1_555
C13 C12 1_555 1_555
C14 C13 1_555 1_555
C15 C14 1_555 1_555
C16 C15 1_555 1_555
H14 C16 1_555 1_555
H15 C16 1_555 1_555
H16 C16 1_555 1_555
C17 C15 1_555 1_555
H17 C17 1_555 1_555
H18 C17 1_555 1_555
H19 C17 1_555 1_555
N1 H20 1_555 1_555
H21 N1 1_555 1_555
C18 C19 1_555 1_555
C19 N2 1_555 1_555
N2 N2F 1_555 1_555
P1 F1 1_555 1_555
F1 F4 1_555 1_555
F2 P1 1_555 1_555
F3 P1 1_555 1_555
F4 P1 1_555 1_555
F5 P1 1_555 1_555
F6 P1 1_555 1_555
C4B C3 1_555 1_555
C3B C4B 1_555 1_555
C2B C3B 1_555 1_555
C1B C2B 1_555 1_555
H1B C1B 1_555 1_555
H2B C1B 1_555 1_555
H3B C1B 1_555 1_555
H4B C2B 1_555 1_555
H5B C2B 1_555 1_555
C4A C3B 1_555 1_555
C3A C4 1_555 1_555
C2A C3A 1_555 1_555
C1A C2A 1_555 1_555
H1A C1A 1_555 1_555
H2A C1A 1_555 1_555
H3A C1A 1_555 1_555
H4A C2A 1_555 1_555
H5A C2A 1_555 1_555
C5A C4A 1_555 1_555
O1A C5A 1_555 1_555
C6A O1A 1_555 1_555
C7A C6A 1_555 1_555
H8A C7A 1_555 1_555
C8A C7A 1_555 1_555
H9A C8A 1_555 1_555
C9A C8A 1_555 1_555
H10A C9A 1_555 1_555
C10A C9A 1_555 1_555
H11A C10A 1_555 1_555
C11A C6A 1_555 1_555
O2A C11A 1_555 1_555
C12A O2A 1_555 1_555
H12A C12A 1_555 1_555
H13A C12A 1_555 1_555
C13A C12A 1_555 1_555
C14A C13 1_555 1_555
C13B C14 1_555 1_555
C12B C13B 1_555 1_555
O2B C12B 1_555 1_555
C11B O2B 1_555 1_555
C6B C11B 1_555 1_555
O1B C6B 1_555 1_555
C5B C4B 1_555 1_555
H6B C5B 1_555 1_555
H7B C5B 1_555 1_555
C7B C6B 1_555 1_555
H8B C7B 1_555 1_555
C8B C7B 1_555 1_555
H9B C8B 1_555 1_555
C9B C8B 1_555 1_555
H10B C9B 1_555 1_555
C10B C11B 1_555 1_555
H11B C10B 1_555 1_555
H12B C12B 1_555 1_555
H13B C12B 1_555 1_555
C14B C13A 1_555 1_555
C15B C14B 1_555 1_555
C16B C15B 1_555 1_555
H14B C16B 1_555 1_555
H15B C16B 1_555 1_555
H16B C16B 1_555 1_555
C17B C15B 1_555 1_555
H17B C17B 1_555 1_555
H18B C17B 1_555 1_555
H19B C17B 1_555 1_555
C15A C14A 1_555 1_555
C16A C15A 1_555 1_555
H14A C16A 1_555 1_555
H15A C16A 1_555 1_555
H16A C16A 1_555 1_555
C17A C15A 1_555 1_555
H17A C17A 1_555 1_555
H18A C17A 1_555 1_555
H19A C17A 1_555 1_555
H6A C5A 1_555 1_555
H7A C5A 1_555 1_555
H20A N1 1_555 1_555
H20B N1 1_555 1_555
N2F C19F 1_555 1_555
C19F C18F 1_555 1_555
F1D P1 1_555 1_555
F4D P1 1_555 1_555
F2D P1 1_555 1_555
F5D P1 1_555 1_555
F3D P1 1_555 1_555
F6D P1 1_555 1_555
C10 C11 1_555 1_555
F1 F5 1_555 1_555
F2 F5 1_555 1_555
F2 F6 1_555 1_555
F2 F5D 1_555 1_555
F3 F4 1_555 1_555
F3 F6 1_555 1_555
F3 F4D 1_555 1_555
F4 F3D 1_555 1_555
F5 F2D 1_555 1_555
C4A C3A 1_555 1_555
C10A C11A 1_555 1_555
C13A C14A 1_555 1_555
C13B C14B 1_555 1_555
O1B C5B 1_555 1_555
C9B C10B 1_555 1_555
F1D F4D 1_555 1_555
F1D F5D 1_555 1_555
F4D F3D 1_555 1_555
F2D F5D 1_555 1_555
F2D F6D 1_555 1_555
F3D F6D 1_555 1_555

#END
