
#######################################################################
#
#                 Cambridge Crystallographic Data Centre
#                                CCDC 
#
#######################################################################
#
# If this CIF has been generated from an entry in the Cambridge 
# Structural Database, then it will include bibliographic, chemical, 
# crystal, experimental, refinement or atomic coordinate data resulting 
# from the CCDC's data processing and validation procedures.
#
#######################################################################

data_YAVRUJ
_chemical_formula_moiety         
'C10 H10 N2 2+,H3 O1 1+,C6 H6 O9 P3 3-,2(H2 O1)'
_chemical_name_systematic        
"(4,4'-Bipyridinium) oxonium benzene-1,3,5-triphosphate dihydrate"
_symmetry_cell_setting           triclinic
_symmetry_space_group_name_H-M   'P -1'
_symmetry_Int_Tables_number      2
_space_group_name_Hall           '-P 1'
loop_
_symmetry_equiv_pos_site_id
_symmetry_equiv_pos_as_xyz
1 x,y,z
2 -x,-y,-z
_cell_length_a                   7.2494(18)
_cell_length_b                   12.317(3)
_cell_length_c                   12.528(3)
_cell_angle_alpha                84.392(4)
_cell_angle_beta                 77.085(4)
_cell_angle_gamma                85.179(4)
_cell_volume                     1082.89
_exptl_crystal_colour            colorless
_exptl_crystal_description       block
_cell_formula_units_Z            2
loop_
_atom_site_label
_atom_site_type_symbol
_atom_site_fract_x
_atom_site_fract_y
_atom_site_fract_z
P1 P 0.45474(11) 0.30201(6) -0.12590(7)
P2 P 0.03529(11) 0.48096(6) 0.24859(7)
P3 P 0.24428(11) 0.03537(6) 0.26181(7)
O1 O 0.5298(3) 0.41616(18) -0.14010(18)
O2 O 0.3078(3) 0.29469(17) -0.19419(18)
O3 O 0.6173(3) 0.21491(18) -0.14779(18)
O4 O -0.0289(3) 0.55375(19) 0.15060(19)
H1 H -0.114(6) 0.591(3) 0.179(3)
O5 O -0.1250(3) 0.45271(18) 0.34131(18)
O6 O 0.1915(3) 0.53647(17) 0.28266(18)
O7 O 0.4081(3) -0.03274(18) 0.19535(18)
O8 O 0.0536(3) -0.01063(17) 0.28434(18)
O9 O 0.3075(3) 0.0536(2) 0.3694(2)
H2 H 0.254(7) 0.075(4) 0.409(4)
C1 C 0.3358(4) 0.2840(3) 0.0165(3)
C2 C 0.2440(4) 0.3739(3) 0.0697(3)
H3 H 0.250(6) 0.441(4) 0.037(4)
C3 C 0.1463(4) 0.3631(3) 0.1804(3)
C4 C 0.1465(4) 0.2589(3) 0.2370(3)
H4 H 0.083(4) 0.254(3) 0.321(3)
C5 C 0.2390(4) 0.1682(3) 0.1856(3)
C6 C 0.3329(4) 0.1808(3) 0.0750(3)
H5 H 0.390(5) 0.117(3) 0.037(3)
H6 H 0.671(12) 0.436(8) -0.216(8)
O10 O 0.0507(3) 0.13100(19) 0.86305(19)
H7 H 0.1281 0.1791 0.8338
H8 H -0.005(7) 0.097(4) 0.819(4)
O11 O 0.0937(4) 0.1384(2) 0.5323(2)
H9 H 0.1050 0.1057 0.4743
H10 H -0.004(6) 0.212(4) 0.525(4)
H11 H 0.031(6) 0.098(3) 0.592(4)
O12 O -0.0913(4) 0.3363(2) 0.5351(2)
H12 H -0.103(6) 0.372(4) 0.471(4)
H13 H -0.112(9) 0.383(5) 0.597(5)
N1 N 0.4249(4) 0.2898(2) 0.5879(2)
N2 N 0.8229(4) 0.2059(2) 0.0415(2)
H14 H 0.868(7) 0.183(5) -0.024(5)
H15 H 0.386(5) 0.299(3) 0.665(3)
C7 C 0.5360(5) 0.1997(3) 0.5626(3)
H16 H 0.553(5) 0.149(3) 0.618(3)
C8 C 0.6129(5) 0.1814(3) 0.4545(3)
H17 H 0.682(5) 0.119(3) 0.444(3)
C9 C 0.5724(4) 0.2574(3) 0.3716(3)
C10 C 0.4557(5) 0.3502(3) 0.4015(3)
H18 H 0.427(5) 0.401(3) 0.352(3)
C11 C 0.3826(5) 0.3643(3) 0.5099(3)
H19 H 0.299(6) 0.427(4) 0.534(4)
C12 C 0.6556(4) 0.2399(3) 0.2542(3)
C13 C 0.7091(4) 0.1338(3) 0.2229(3)
H20 H 0.693(4) 0.063(3) 0.276(3)
C14 C 0.7935(5) 0.1202(3) 0.1151(3)
H21 H 0.825(5) 0.057(3) 0.095(3)
C15 C 0.7676(4) 0.3082(3) 0.0684(3)
H22 H 0.808(5) 0.364(3) 0.005(3)
C16 C 0.6845(5) 0.3276(3) 0.1740(3)
H23 H 0.669(5) 0.396(3) 0.180(3)
P1A P 0.54526(11) 0.69799(6) 0.12590(7)
P2A P 0.96471(11) 0.51904(6) -0.24859(7)
P3A P 0.75572(11) 0.96463(6) -0.26181(7)
O1A O 0.4702(3) 0.58384(18) 0.14010(18)
O2A O 0.6922(3) 0.70531(17) 0.19419(18)
O3A O 0.3827(3) 0.78509(18) 0.14779(18)
O4A O 1.0289(3) 0.44625(19) -0.15060(19)
H1A H 1.114(6) 0.409(3) -0.179(3)
O5A O 1.1250(3) 0.54729(18) -0.34131(18)
O6A O 0.8085(3) 0.46353(17) -0.28266(18)
O7A O 0.5919(3) 1.03274(18) -0.19535(18)
O8A O 0.9464(3) 1.01063(17) -0.28434(18)
O9A O 0.6925(3) 0.9464(2) -0.3694(2)
H2A H 0.746(7) 0.925(4) -0.409(4)
C1A C 0.6642(4) 0.7160(3) -0.0165(3)
C2A C 0.7560(4) 0.6261(3) -0.0697(3)
H3A H 0.750(6) 0.559(4) -0.037(4)
C3A C 0.8537(4) 0.6369(3) -0.1804(3)
C4A C 0.8535(4) 0.7411(3) -0.2370(3)
H4A H 0.917(4) 0.746(3) -0.321(3)
C5A C 0.7610(4) 0.8318(3) -0.1856(3)
C6A C 0.6671(4) 0.8192(3) -0.0750(3)
H5A H 0.610(5) 0.883(3) -0.037(3)
H6A H 0.329(12) 0.564(8) 0.216(8)
loop_
_geom_bond_atom_site_label_1
_geom_bond_atom_site_label_2
_geom_bond_site_symmetry_1
_geom_bond_site_symmetry_2
P1 O1 1_555 1_555
P2 O4 1_555 1_555
P3 O7 1_555 1_555
O1 H6 1_555 1_555
O2 P1 1_555 1_555
O3 P1 1_555 1_555
O4 H1 1_555 1_555
O5 P2 1_555 1_555
O6 P2 1_555 1_555
O8 P3 1_555 1_555
O9 P3 1_555 1_555
H2 O9 1_555 1_555
C1 P1 1_555 1_555
C2 C1 1_555 1_555
H3 C2 1_555 1_555
C3 P2 1_555 1_555
C4 C3 1_555 1_555
H4 C4 1_555 1_555
C5 P3 1_555 1_555
C6 C1 1_555 1_555
H5 C6 1_555 1_555
O10 H7 1_555 1_555
H8 O10 1_555 1_555
O11 H9 1_555 1_555
H10 O11 1_555 1_555
H11 O11 1_555 1_555
O12 H12 1_555 1_555
H13 O12 1_555 1_555
N1 H15 1_555 1_555
N2 H14 1_555 1_555
C7 N1 1_555 1_555
H16 C7 1_555 1_555
C8 C7 1_555 1_555
H17 C8 1_555 1_555
C9 C8 1_555 1_555
C10 C9 1_555 1_555
H18 C10 1_555 1_555
C11 N1 1_555 1_555
H19 C11 1_555 1_555
C12 C9 1_555 1_555
C13 C12 1_555 1_555
H20 C13 1_555 1_555
C14 N2 1_555 1_555
H21 C14 1_555 1_555
C15 N2 1_555 1_555
H22 C15 1_555 1_555
C16 C12 1_555 1_555
H23 C16 1_555 1_555
P1A O1A 1_555 1_555
P2A O4A 1_555 1_555
P3A O7A 1_555 1_555
O1A H6A 1_555 1_555
O2A P1A 1_555 1_555
O3A P1A 1_555 1_555
O4A H1A 1_555 1_555
O5A P2A 1_555 1_555
O6A P2A 1_555 1_555
O8A P3A 1_555 1_555
O9A P3A 1_555 1_555
H2A O9A 1_555 1_555
C1A P1A 1_555 1_555
C2A C1A 1_555 1_555
H3A C2A 1_555 1_555
C3A P2A 1_555 1_555
C4A C3A 1_555 1_555
H4A C4A 1_555 1_555
C5A P3A 1_555 1_555
C6A C1A 1_555 1_555
H5A C6A 1_555 1_555
C2 C3 1_555 1_555
C4 C5 1_555 1_555
C5 C6 1_555 1_555
C10 C11 1_555 1_555
C13 C14 1_555 1_555
C15 C16 1_555 1_555
C2A C3A 1_555 1_555
C4A C5A 1_555 1_555
C5A C6A 1_555 1_555

#END
