
#######################################################################
#
#                 Cambridge Crystallographic Data Centre
#                                CCDC 
#
#######################################################################
#
# If this CIF has been generated from an entry in the Cambridge 
# Structural Database, then it will include bibliographic, chemical, 
# crystal, experimental, refinement or atomic coordinate data resulting 
# from the CCDC's data processing and validation procedures.
#
#######################################################################

data_YAVROD
_chemical_formula_moiety         
'C10 H9 N2 1+,0.5(C10 H10 N2 2+),C6 H7 O9 P3 2-'
_chemical_name_systematic        
"hemikis(2,2'-Bipyridinium) 2-(2-pyridyl)pyridinium 3,5-bis(phosphato)phenylphosphonic acid"
_symmetry_cell_setting           monoclinic
_symmetry_space_group_name_H-M   'P 21/n'
_symmetry_Int_Tables_number      14
_space_group_name_Hall           '-P 2yn'
loop_
_symmetry_equiv_pos_site_id
_symmetry_equiv_pos_as_xyz
1 x,y,z
2 1/2-x,1/2+y,1/2-z
3 -x,-y,-z
4 1/2+x,1/2-y,1/2+z
_cell_length_a                   10.3098(19)
_cell_length_b                   15.608(3)
_cell_length_c                   14.243(3)
_cell_angle_alpha                90
_cell_angle_beta                 101.618(3)
_cell_angle_gamma                90
_cell_volume                     2244.96
_exptl_crystal_colour            colorless
_exptl_crystal_description       hexagonal
_cell_formula_units_Z            4
_exptl_crystal_recrystallization_method ethanol/water
loop_
_atom_site_label
_atom_site_type_symbol
_atom_site_fract_x
_atom_site_fract_y
_atom_site_fract_z
P1 P 0.69982(6) 0.06464(4) 1.07712(5)
P2 P 0.89476(7) -0.18600(4) 0.86687(5)
P3 P 0.99113(6) 0.15903(4) 0.80649(5)
O1 O 0.7353(2) 0.15956(12) 1.10278(14)
O2 O 0.74550(19) 0.00448(12) 1.15928(13)
O3 O 0.55004(18) 0.06411(13) 1.03952(14)
O4 O 0.8701(2) -0.23789(12) 0.95132(13)
O5 O 0.7882(2) -0.20960(12) 0.77587(13)
H1 H 0.723(4) -0.240(3) 0.783(3)
O6 O 1.02777(19) -0.19539(12) 0.84114(15)
O7 O 0.90473(18) 0.18940(12) 0.71504(13)
O8 O 1.12088(19) 0.12268(13) 0.78550(16)
O9 O 1.0177(2) 0.23379(12) 0.87740(14)
C1 C 0.7825(2) 0.03623(17) 0.98109(18)
C2 C 0.7978(2) -0.04991(17) 0.95921(18)
H4 H 0.761(3) -0.0932(17) 0.9943(19)
C3 C 0.8691(2) -0.07384(16) 0.89027(18)
C4 C 0.9265(2) -0.01032(17) 0.84260(18)
H5 H 0.981(3) -0.0261(18) 0.796(2)
C5 C 0.9119(2) 0.07618(16) 0.86283(18)
C6 C 0.8387(2) 0.09879(17) 0.93187(18)
H6 H 0.830(3) 0.160(2) 0.948(2)
H19 H 0.821(5) 0.171(3) 1.123(4)
H20 H 1.057(4) 0.229(3) 0.936(3)
H21 H 1.166(5) 0.074(3) 0.808(4)
N1 N 0.8416(2) 0.00553(15) 0.57054(16)
N2 N 0.8910(2) 0.16574(14) 0.52388(16)
H2 H 0.899(3) 0.145(2) 0.587(3)
C7 C 0.8200(3) -0.07491(19) 0.5964(2)
H7 H 0.823(3) -0.082(2) 0.665(2)
C8 C 0.7905(3) -0.1421(2) 0.5321(2)
H8 H 0.776(4) -0.200(2) 0.556(3)
C9 C 0.7831(3) -0.12601(19) 0.4362(2)
H9 H 0.767(4) -0.170(2) 0.387(3)
C10 C 0.8035(3) -0.04296(18) 0.4069(2)
H10 H 0.798(3) -0.030(2) 0.338(2)
C11 C 0.8316(2) 0.02026(17) 0.47658(19)
C12 C 0.8538(2) 0.11028(17) 0.45109(18)
C13 C 0.8388(3) 0.14122(19) 0.3580(2)
H11 H 0.811(3) 0.105(2) 0.310(2)
C14 C 0.8624(3) 0.22693(19) 0.3432(2)
H12 H 0.855(3) 0.246(2) 0.284(2)
C15 C 0.9042(3) 0.28105(18) 0.4201(2)
H13 H 0.924(3) 0.338(2) 0.411(2)
C16 C 0.9176(3) 0.24841(18) 0.5110(2)
H14 H 0.944(3) 0.279(2) 0.569(2)
N3 N 0.9506(3) -0.42344(17) 0.9003(2)
H3 H 0.931(3) -0.369(2) 0.938(2)
C17 C 0.9339(3) -0.4192(3) 0.8032(2)
H15 H 0.909(4) -0.365(3) 0.774(3)
C18 C 0.9576(4) -0.4917(4) 0.7533(3)
H16 H 0.948(5) -0.481(3) 0.695(4)
C19 C 0.9951(4) -0.5661(3) 0.8033(4)
H17 H 1.016(5) -0.617(3) 0.777(3)
C20 C 1.0132(3) -0.57033(19) 0.8999(3)
H18 H 1.0410 -0.6219 0.9333
C21 C 0.9905(3) -0.49868(18) 0.9474(2)
N3B N 1.0494(3) -0.57656(17) 1.0997(2)
H3B H 1.069(3) -0.631(2) 1.062(2)
C17B C 1.0661(3) -0.5808(3) 1.1968(2)
H15B H 1.091(4) -0.635(3) 1.226(3)
C18B C 1.0424(4) -0.5083(4) 1.2467(3)
H16B H 1.052(5) -0.519(3) 1.305(4)
C19B C 1.0049(4) -0.4339(3) 1.1967(4)
H17B H 0.984(5) -0.383(3) 1.223(3)
C20B C 0.9868(3) -0.42967(19) 1.1001(3)
H18B H 0.9590 -0.3781 1.0667
C21B C 1.0095(3) -0.50132(18) 1.0526(2)
loop_
_geom_bond_atom_site_label_1
_geom_bond_atom_site_label_2
_geom_bond_site_symmetry_1
_geom_bond_site_symmetry_2
P1 O1 1_555 1_555
P2 O4 1_555 1_555
P3 O7 1_555 1_555
O1 H19 1_555 1_555
O2 P1 1_555 1_555
O3 P1 1_555 1_555
O5 P2 1_555 1_555
H1 O5 1_555 1_555
O6 P2 1_555 1_555
O8 P3 1_555 1_555
O9 P3 1_555 1_555
N1 C7 1_555 1_555
N2 H2 1_555 1_555
N3 H3 1_555 1_555
C1 P1 1_555 1_555
C2 C1 1_555 1_555
H4 C2 1_555 1_555
C3 P2 1_555 1_555
C4 C3 1_555 1_555
H5 C4 1_555 1_555
C5 P3 1_555 1_555
C6 C1 1_555 1_555
H6 C6 1_555 1_555
C7 H7 1_555 1_555
C8 C7 1_555 1_555
H8 C8 1_555 1_555
C9 C8 1_555 1_555
H9 C9 1_555 1_555
C10 C9 1_555 1_555
H10 C10 1_555 1_555
C11 N1 1_555 1_555
C12 N2 1_555 1_555
C13 C12 1_555 1_555
H11 C13 1_555 1_555
C14 C13 1_555 1_555
H12 C14 1_555 1_555
C15 C14 1_555 1_555
H13 C15 1_555 1_555
C16 N2 1_555 1_555
H14 C16 1_555 1_555
C17 N3 1_555 1_555
H15 C17 1_555 1_555
C18 C17 1_555 1_555
H16 C18 1_555 1_555
C19 C18 1_555 1_555
H17 C19 1_555 1_555
C20 C19 1_555 1_555
H18 C20 1_555 1_555
C21 N3 1_555 1_555
H20 O9 1_555 1_555
H21 O8 1_555 1_555
N3B H3B 1_555 1_555
C17B N3B 1_555 1_555
H15B C17B 1_555 1_555
C18B C17B 1_555 1_555
H16B C18B 1_555 1_555
C19B C18B 1_555 1_555
H17B C19B 1_555 1_555
C20B C19B 1_555 1_555
H18B C20B 1_555 1_555
C21B C21 1_555 1_555
C2 C3 1_555 1_555
C4 C5 1_555 1_555
C5 C6 1_555 1_555
C10 C11 1_555 1_555
C11 C12 1_555 1_555
C15 C16 1_555 1_555
C20 C21 1_555 1_555
N3B C21B 1_555 1_555
C20B C21B 1_555 1_555

#END
