
#######################################################################
#
#                 Cambridge Crystallographic Data Centre
#                                CCDC 
#
#######################################################################
#
# If this CIF has been generated from an entry in the Cambridge 
# Structural Database, then it will include bibliographic, chemical, 
# crystal, experimental, refinement or atomic coordinate data resulting 
# from the CCDC's data processing and validation procedures.
#
#######################################################################

data_YAVSAR
_chemical_name_common            4-(9-Anthryl)-6-phenyl-2,2'-bipyridine
_chemical_formula_moiety         'C30 H20 N2'
_chemical_name_systematic        
4-(Anthracen-9-yl)-2-phenyl-6-(pyridin-2-yl)pyridine
_symmetry_cell_setting           monoclinic
_symmetry_space_group_name_H-M   'P 21/c'
_symmetry_Int_Tables_number      14
_space_group_name_Hall           '-P 2ybc'
loop_
_symmetry_equiv_pos_site_id
_symmetry_equiv_pos_as_xyz
1 x,y,z
2 -x,1/2+y,1/2-z
3 -x,-y,-z
4 x,1/2-y,1/2+z
_cell_length_a                   12.6420(3)
_cell_length_b                   14.8499(4)
_cell_length_c                   11.8707(3)
_cell_angle_alpha                90
_cell_angle_beta                 104.006(2)
_cell_angle_gamma                90
_cell_volume                     2162.26
_exptl_crystal_colour            'pale yellow'
_exptl_crystal_description       block
_cell_formula_units_Z            4
loop_
_atom_site_label
_atom_site_type_symbol
_atom_site_fract_x
_atom_site_fract_y
_atom_site_fract_z
N1 N 0.56725(12) 0.37331(10) 0.11808(12)
C1 C 0.64872(14) 0.37932(12) 0.21431(15)
C2 C 0.47454(15) 0.29870(13) -0.05928(15)
C3 C 0.82717(15) 0.18045(13) 0.18202(16)
N2 N 0.71173(15) 0.45087(13) 0.40278(15)
C4 C 0.65564(15) 0.24508(14) 0.05996(16)
H1 H 0.6560 0.2001 0.0056
C5 C 0.57066(15) 0.30714(13) 0.04214(15)
C6 C 0.82357(16) 0.11106(13) 0.26209(17)
C7 C 0.90771(15) 0.18139(13) 0.11945(17)
C8 C 0.73990(14) 0.25080(13) 0.15945(17)
C9 C 0.90315(17) 0.04023(14) 0.27789(19)
C10 C 0.47702(17) 0.24029(15) -0.14691(16)
H2 H 0.5407 0.2087 -0.1464
C11 C 0.63672(15) 0.44908(12) 0.29968(16)
C12 C 0.98524(16) 0.10877(15) 0.13417(18)
C13 C 0.73694(15) 0.31995(13) 0.23649(17)
H3 H 0.7933 0.3269 0.3027
C14 C 0.74384(18) 0.10684(15) 0.32911(19)
H4 H 0.6908 0.1515 0.3199
C15 C 0.69808(19) 0.51083(16) 0.48382(18)
H5 H 0.7490 0.5117 0.5550
C16 C 0.98102(17) 0.04122(15) 0.2135(2)
H6 H 1.0322 -0.0050 0.2239
C17 C 0.99391(19) 0.24831(18) -0.0222(2)
H7 H 0.9983 0.2948 -0.0733
C18 C 0.91720(17) 0.25100(16) 0.03936(18)
H8 H 0.8692 0.2994 0.0294
C19 C 0.54987(18) 0.50785(16) 0.2783(2)
H9 H 0.4988 0.5066 0.2072
C20 C 0.38033(18) 0.34689(19) -0.06388(19)
H10 H 0.3781 0.3885 -0.0060
C21 C 0.8981(2) -0.02999(16) 0.3592(2)
H11 H 0.9490 -0.0764 0.3699
C22 C 0.6140(2) 0.56951(17) 0.4665(2)
H12 H 0.6075 0.6099 0.5243
C23 C 0.7437(2) 0.03950(17) 0.4056(2)
H13 H 0.6917 0.0391 0.4491
C24 C 1.0679(2) 0.1750(2) -0.0096(2)
H14 H 1.1196 0.1728 -0.0536
C25 C 1.06313(19) 0.10878(18) 0.0663(2)
H15 H 1.1126 0.0615 0.0744
C26 C 0.8214(2) -0.03005(19) 0.4202(2)
H16 H 0.8197 -0.0764 0.4724
C27 C 0.5389(2) 0.56830(18) 0.3625(2)
H17 H 0.4805 0.6082 0.3485
C28 C 0.2928(2) 0.2736(2) -0.2388(2)
H18 H 0.2314 0.2637 -0.2989
C29 C 0.3868(2) 0.22766(18) -0.23564(19)
H19 H 0.3896 0.1872 -0.2947
C30 C 0.2893(2) 0.3338(2) -0.1538(2)
H20 H 0.2258 0.3662 -0.1561
loop_
_geom_bond_atom_site_label_1
_geom_bond_atom_site_label_2
_geom_bond_site_symmetry_1
_geom_bond_site_symmetry_2
N1 C1 1_555 1_555
C1 C11 1_555 1_555
C2 C5 1_555 1_555
C3 C6 1_555 1_555
N2 C11 1_555 1_555
C4 H1 1_555 1_555
C5 N1 1_555 1_555
C6 C9 1_555 1_555
C7 C3 1_555 1_555
C8 C3 1_555 1_555
C9 C16 1_555 1_555
C10 C2 1_555 1_555
H2 C10 1_555 1_555
C11 C19 1_555 1_555
C12 C7 1_555 1_555
C13 C1 1_555 1_555
H3 C13 1_555 1_555
C14 C6 1_555 1_555
H4 C14 1_555 1_555
C15 N2 1_555 1_555
H5 C15 1_555 1_555
C16 C12 1_555 1_555
H6 C16 1_555 1_555
C17 H7 1_555 1_555
C18 C7 1_555 1_555
H8 C18 1_555 1_555
C19 H9 1_555 1_555
C20 C2 1_555 1_555
H10 C20 1_555 1_555
C21 C9 1_555 1_555
H11 C21 1_555 1_555
C22 C15 1_555 1_555
H12 C22 1_555 1_555
C23 C14 1_555 1_555
H13 C23 1_555 1_555
C24 C17 1_555 1_555
H14 C24 1_555 1_555
C25 C12 1_555 1_555
H15 C25 1_555 1_555
C26 C21 1_555 1_555
H16 C26 1_555 1_555
C27 C19 1_555 1_555
H17 C27 1_555 1_555
C28 H18 1_555 1_555
C29 C10 1_555 1_555
H19 C29 1_555 1_555
C30 C20 1_555 1_555
H20 C30 1_555 1_555
C4 C5 1_555 1_555
C4 C8 1_555 1_555
C8 C13 1_555 1_555
C17 C18 1_555 1_555
C22 C27 1_555 1_555
C23 C26 1_555 1_555
C24 C25 1_555 1_555
C28 C29 1_555 1_555
C28 C30 1_555 1_555

#END
