
#######################################################################
#
#                 Cambridge Crystallographic Data Centre
#                                CCDC 
#
#######################################################################
#
# If this CIF has been generated from an entry in the Cambridge 
# Structural Database, then it will include bibliographic, chemical, 
# crystal, experimental, refinement or atomic coordinate data resulting 
# from the CCDC's data processing and validation procedures.
#
#######################################################################

data_YAVYOL
_chemical_compound_source        'Mesua ferrea'
_chemical_formula_moiety         'C30 H34 O5'
_chemical_name_systematic        
6-[(2E)-3,7-Dimethylocta-2,6-dien-1-yl]-5,7-dihydroxy-8-(2-methylbutanoyl)-4-phenyl-2H-chromen-2-one
_chemical_properties_biological  'tested for antimicrobial activity'
_symmetry_cell_setting           triclinic
_symmetry_space_group_name_H-M   'P -1'
_symmetry_Int_Tables_number      2
_space_group_name_Hall           '-P 1'
loop_
_symmetry_equiv_pos_site_id
_symmetry_equiv_pos_as_xyz
1 x,y,z
2 -x,-y,-z
_cell_length_a                   5.9426(2)
_cell_length_b                   13.4688(5)
_cell_length_c                   16.3275(6)
_cell_angle_alpha                91.955(3)
_cell_angle_beta                 99.515(3)
_cell_angle_gamma                95.834(3)
_cell_volume                     1280.47
_exptl_crystal_colour            colorless
_exptl_crystal_description       prism
_cell_formula_units_Z            2
loop_
_atom_site_label
_atom_site_type_symbol
_atom_site_fract_x
_atom_site_fract_y
_atom_site_fract_z
O1 O 0.9303(2) 0.47777(9) 0.36863(8)
O2 O 1.2727(2) 0.55978(10) 0.41312(9)
O3 O 0.7244(2) 0.13093(9) 0.41205(9)
H1 H 0.851(3) 0.138(2) 0.4450(14)
O4 O 0.1977(2) 0.30693(11) 0.25255(9)
H2 H 0.198(6) 0.3641(14) 0.232(2)
O5 O 0.284(4) 0.473(2) 0.218(3)
C1 C 1.1476(3) 0.48355(13) 0.41647(12)
C2 C 1.1949(3) 0.40121(13) 0.46801(11)
H3 H 1.3363 0.4046 0.5055
C3 C 1.0417(3) 0.31880(13) 0.46420(11)
C4 C 0.8304(3) 0.30996(13) 0.40438(11)
C5 C 0.6749(3) 0.22155(13) 0.38407(11)
C6 C 0.4647(3) 0.22110(13) 0.33394(11)
C7 C 0.4069(3) 0.31019(14) 0.29808(11)
C8 C 0.5641(3) 0.39885(14) 0.30749(11)
C9 C 0.7747(3) 0.39437(13) 0.36031(11)
C10 C 1.0886(3) 0.24091(13) 0.52593(11)
C11 C 1.2800(4) 0.18927(16) 0.52804(13)
H4 H 1.3861 0.2055 0.4917
C12 C 1.3170(4) 0.11372(18) 0.58338(15)
H5 H 1.4461 0.0774 0.5836
C13 C 1.1665(4) 0.09147(16) 0.63781(14)
H6 H 1.1912 0.0395 0.6751
C14 C 0.9803(4) 0.14473(15) 0.63803(13)
H7 H 0.8794 0.1305 0.6766
C15 C 0.9392(4) 0.21920(14) 0.58222(13)
H8 H 0.8098 0.2552 0.5824
C16 C 0.3045(3) 0.12556(14) 0.31303(12)
H9 H 0.3228 0.0817 0.3606
H10 H 0.1435 0.1414 0.3026
C17 C 0.3576(3) 0.07200(14) 0.23678(13)
H11 H 0.5157 0.0679 0.2355
C18 C 0.2122(3) 0.03001(13) 0.17137(12)
C19 C -0.0431(3) 0.02650(17) 0.16256(13)
H12 H -0.0823 0.0682 0.2074
H13 H -0.1095 -0.0426 0.1658
H14 H -0.1049 0.0516 0.1087
C20 C 0.2995(3) -0.01785(14) 0.09938(12)
H15 H 0.4624 0.0082 0.1015
H16 H 0.2117 0.0022 0.0468
C21 C 0.2809(5) -0.13182(16) 0.09853(15)
H17 H 0.3737 -0.1526 0.1499
H18 H 0.1191 -0.1584 0.0979
C22 C 0.3627(5) -0.17516(16) 0.02434(15)
H19 H 0.5179 -0.1552 0.0197
C23 C 0.2449(4) -0.23810(17) -0.03575(14)
C24 C 0.3472(5) -0.27142(19) -0.10876(16)
H20 H 0.5074 -0.2421 -0.1023
H21 H 0.2603 -0.2494 -0.1600
H22 H 0.3409 -0.3445 -0.1116
C25 C 0.0024(6) -0.2785(4) -0.0393(2)
H23 H -0.0533 -0.2536 0.0100
H24 H -0.0096 -0.3517 -0.0407
H25 H -0.0907 -0.2570 -0.0895
C26 C 0.480(2) 0.4832(7) 0.2594(10)
C27 C 0.6207(16) 0.5821(7) 0.2569(5)
H26 H 0.7212 0.5942 0.3125
C30 C 0.7818(6) 0.5736(2) 0.1937(2)
H29 H 0.8578 0.5118 0.2025
H30 H 0.6900 0.5676 0.1370
C31 C 0.9641(7) 0.6620(3) 0.1995(3)
H31 H 1.0600 0.6530 0.1570
H32 H 1.0598 0.6668 0.2547
H33 H 0.8902 0.7235 0.1905
C32 C 0.4816(13) 0.6723(6) 0.2447(5)
H34 H 0.3892 0.6764 0.2889
H35 H 0.3803 0.6642 0.1905
H36 H 0.5868 0.7336 0.2469
O6? O 0.308(4) 0.489(2) 0.223(3)
C28? C 0.506(2) 0.4880(7) 0.2608(9)
C29? C 0.6741(18) 0.5785(8) 0.2554(6)
H27? H 0.8304 0.5578 0.2586
H28? H 0.6755 0.6263 0.3029
C33? C 0.6076(11) 0.6297(4) 0.1732(3)
H37? H 0.4480 0.6489 0.1690
C34? C 0.7783(13) 0.7238(4) 0.1787(4)
H38? H 0.7365 0.7635 0.1304
H39? H 0.9333 0.7046 0.1794
H40? H 0.7744 0.7635 0.2298
C35? C 0.6254(7) 0.5651(3) 0.0980(2)
H41? H 0.5155 0.5051 0.0944
H42? H 0.7814 0.5457 0.1029
H43? H 0.5910 0.6025 0.0479
loop_
_geom_bond_atom_site_label_1
_geom_bond_atom_site_label_2
_geom_bond_site_symmetry_1
_geom_bond_site_symmetry_2
O1 C1 1_555 1_555
O2 C1 1_555 1_555
O3 H1 1_555 1_555
O4 H2 1_555 1_555
O5 C26 1_555 1_555
C1 C2 1_555 1_555
C2 H3 1_555 1_555
C3 C2 1_555 1_555
C4 C3 1_555 1_555
C5 O3 1_555 1_555
C6 C5 1_555 1_555
C7 O4 1_555 1_555
C8 C7 1_555 1_555
C9 O1 1_555 1_555
C10 C3 1_555 1_555
C11 C10 1_555 1_555
H4 C11 1_555 1_555
C12 C11 1_555 1_555
H5 C12 1_555 1_555
C13 C12 1_555 1_555
H6 C13 1_555 1_555
C14 C13 1_555 1_555
H7 C14 1_555 1_555
C15 C10 1_555 1_555
H8 C15 1_555 1_555
C16 C6 1_555 1_555
H9 C16 1_555 1_555
H10 C16 1_555 1_555
C17 C16 1_555 1_555
H11 C17 1_555 1_555
C18 C17 1_555 1_555
C19 C18 1_555 1_555
H12 C19 1_555 1_555
H13 C19 1_555 1_555
H14 C19 1_555 1_555
C20 C18 1_555 1_555
H15 C20 1_555 1_555
H16 C20 1_555 1_555
C21 C20 1_555 1_555
H17 C21 1_555 1_555
H18 C21 1_555 1_555
C22 C21 1_555 1_555
H19 C22 1_555 1_555
C23 C22 1_555 1_555
C24 C23 1_555 1_555
H20 C24 1_555 1_555
H21 C24 1_555 1_555
H22 C24 1_555 1_555
C25 C23 1_555 1_555
H23 C25 1_555 1_555
H24 C25 1_555 1_555
H25 C25 1_555 1_555
C26 C8 1_555 1_555
C27 C26 1_555 1_555
H26 C27 1_555 1_555
C30 C27 1_555 1_555
H29 C30 1_555 1_555
H30 C30 1_555 1_555
C31 C30 1_555 1_555
H31 C31 1_555 1_555
H32 C31 1_555 1_555
H33 C31 1_555 1_555
C32 C27 1_555 1_555
H34 C32 1_555 1_555
H35 C32 1_555 1_555
H36 C32 1_555 1_555
C4 C5 1_555 1_555
C4 C9 1_555 1_555
C6 C7 1_555 1_555
C8 C9 1_555 1_555
C14 C15 1_555 1_555

#END
