
#######################################################################
#
#                 Cambridge Crystallographic Data Centre
#                                CCDC 
#
#######################################################################
#
# If this CIF has been generated from an entry in the Cambridge 
# Structural Database, then it will include bibliographic, chemical, 
# crystal, experimental, refinement or atomic coordinate data resulting 
# from the CCDC's data processing and validation procedures.
#
#######################################################################

data_YAWDIJ
_chemical_formula_moiety         'C26 H24 N2 O5 S1'
_chemical_name_systematic        
7\a,8-bis(Methoxycarbonyl)-4-oxo-5\b-(phenylthio)-1,4,5,6\b,7,8-hexahydro-2H-3,5,6-ethanoazonino(5,4-b)indole
_symmetry_cell_setting           orthorhombic
_symmetry_space_group_name_H-M   'P b c a'
_symmetry_Int_Tables_number      61
_space_group_name_Hall           '-P 2ac 2ab'
loop_
_symmetry_equiv_pos_site_id
_symmetry_equiv_pos_as_xyz
1 x,y,z
2 1/2-x,1/2+y,z
3 x,1/2-y,1/2+z
4 1/2-x,-y,1/2+z
5 -x,-y,-z
6 1/2+x,1/2-y,-z
7 -x,1/2+y,1/2-z
8 1/2+x,y,1/2-z
_cell_length_a                   16.594(10)
_cell_length_b                   26.484(24)
_cell_length_c                   10.099(6)
_cell_angle_alpha                90
_cell_angle_beta                 90
_cell_angle_gamma                90
_cell_volume                     4438.26
_exptl_crystal_colour            colorless
_chemical_melting_point          245-247deg.C
_cell_formula_units_Z            8
loop_
_atom_site_label
_atom_site_type_symbol
_atom_site_fract_x
_atom_site_fract_y
_atom_site_fract_z
N1 N 0.2088(2) -0.1707(1) 0.3420(4)
C1 C 0.2378(3) -0.1243(2) 0.2897(5)
C2 C 0.3073(3) -0.1115(2) 0.3534(5)
C3 C 0.3233(3) -0.1498(2) 0.4524(5)
C4 C 0.3831(3) -0.1547(2) 0.5481(5)
C5 C 0.3819(3) -0.1967(2) 0.6301(5)
C6 C 0.3221(3) -0.2328(2) 0.6179(5)
C7 C 0.2616(3) -0.2287(2) 0.5248(5)
C8 C 0.2627(3) -0.1867(2) 0.4427(5)
C9 C 0.1918(3) -0.0904(2) 0.1971(5)
C10 C 0.1160(3) -0.0659(2) 0.2555(5)
C11 C 0.1144(3) -0.0099(2) 0.2937(5)
C12 C 0.1997(3) 0.0080(2) 0.3143(5)
N2 N 0.2307(2) -0.0164(1) 0.4205(4)
C13 C 0.3178(3) -0.0224(2) 0.4387(5)
C14 C 0.3516(3) -0.0623(2) 0.3443(5)
C15 C 0.1014(3) -0.0510(2) 0.3969(5)
C16 C 0.1719(3) -0.0475(2) 0.4917(5)
C17 C 0.1435(3) -0.1996(2) 0.3012(5)
O1 O 0.1250(2) -0.2394(1) 0.3498(4)
O2 O 0.1047(2) -0.1767(1) 0.2026(3)
C18 C 0.0361(4) -0.2032(2) 0.1479(6)
C19 C 0.1744(3) -0.1106(2) 0.0587(5)
O3 O 0.1148(2) -0.1003(1) -0.0055(3)
O4 O 0.2362(2) -0.1376(1) 0.0136(3)
C20 C 0.2316(4) -0.1528(2) -0.1247(5)
S1 S 0.0396(1) 0.02831(5) 0.2210(1)
C21 C 0.0290(3) 0.0796(2) 0.3326(5)
C22 C -0.0364(3) 0.1116(2) 0.3088(5)
C23 C -0.0474(3) 0.1542(2) 0.3862(5)
C24 C 0.0052(3) 0.1655(2) 0.4874(5)
C25 C 0.0691(3) 0.1335(2) 0.5119(5)
C26 C 0.0813(3) 0.0905(2) 0.4365(5)
O5 O 0.2367(2) 0.0381(1) 0.2435(3)
H1 H 0.421(2) -0.130(2) 0.560(4)
H2 H 0.417(3) -0.199(2) 0.691(5)
H3 H 0.324(3) -0.262(2) 0.676(5)
H4 H 0.218(2) -0.254(1) 0.523(4)
H5 H 0.230(2) -0.066(1) 0.175(4)
H6 H 0.069(2) -0.078(1) 0.220(4)
H7 H 0.348(3) 0.013(2) 0.421(4)
H8 H 0.325(3) -0.034(2) 0.527(5)
H9 H 0.407(2) -0.067(1) 0.360(4)
H10 H 0.346(3) -0.047(2) 0.254(5)
H11 H 0.049(3) -0.058(2) 0.432(5)
H12 H 0.192(2) -0.078(1) 0.517(4)
H13 H 0.156(3) -0.032(2) 0.572(5)
H14 H -0.008(5) -0.195(3) 0.198(8)
H15 H 0.029(4) -0.195(2) 0.066(7)
H16 H 0.047(4) -0.238(3) 0.156(8)
H17 H 0.190(3) -0.175(2) -0.144(6)
H18 H 0.227(2) -0.123(2) -0.177(4)
H19 H 0.280(3) -0.175(2) -0.144(5)
H20 H -0.069(3) 0.104(2) 0.244(5)
H21 H -0.094(3) 0.177(2) 0.370(5)
H22 H 0.003(3) 0.195(2) 0.535(5)
H23 H 0.106(3) 0.142(1) 0.577(4)
H24 H 0.124(3) 0.070(2) 0.455(4)
loop_
_geom_bond_atom_site_label_1
_geom_bond_atom_site_label_2
_geom_bond_site_symmetry_1
_geom_bond_site_symmetry_2
N1 C1 1_555 1_555
C1 C2 1_555 1_555
C2 C3 1_555 1_555
C3 C4 1_555 1_555
C4 C5 1_555 1_555
C5 C6 1_555 1_555
C6 C7 1_555 1_555
C7 C8 1_555 1_555
C8 N1 1_555 1_555
C9 C1 1_555 1_555
C10 C9 1_555 1_555
C11 C10 1_555 1_555
C12 C11 1_555 1_555
N2 C12 1_555 1_555
C13 N2 1_555 1_555
C14 C2 1_555 1_555
C15 C10 1_555 1_555
C16 N2 1_555 1_555
C17 N1 1_555 1_555
O1 C17 1_555 1_555
O2 C17 1_555 1_555
C18 O2 1_555 1_555
C19 C9 1_555 1_555
O3 C19 1_555 1_555
O4 C19 1_555 1_555
C20 O4 1_555 1_555
S1 C11 1_555 1_555
C21 S1 1_555 1_555
C22 C21 1_555 1_555
C23 C22 1_555 1_555
C24 C23 1_555 1_555
C25 C24 1_555 1_555
C26 C21 1_555 1_555
O5 C12 1_555 1_555
H1 C4 1_555 1_555
H2 C5 1_555 1_555
H3 C6 1_555 1_555
H4 C7 1_555 1_555
H5 C9 1_555 1_555
H6 C10 1_555 1_555
H7 C13 1_555 1_555
H8 C13 1_555 1_555
H9 C14 1_555 1_555
H10 C14 1_555 1_555
H11 C15 1_555 1_555
H12 C16 1_555 1_555
H13 C16 1_555 1_555
H14 C18 1_555 1_555
H15 C18 1_555 1_555
H16 C18 1_555 1_555
H17 C20 1_555 1_555
H18 C20 1_555 1_555
H19 C20 1_555 1_555
H20 C22 1_555 1_555
H21 C23 1_555 1_555
H22 C24 1_555 1_555
H23 C25 1_555 1_555
H24 C26 1_555 1_555
C3 C8 1_555 1_555
C11 C15 1_555 1_555
C13 C14 1_555 1_555
C15 C16 1_555 1_555
C25 C26 1_555 1_555

#END
