
#######################################################################
#
#                 Cambridge Crystallographic Data Centre
#                                CCDC 
#
#######################################################################
#
# If this CIF has been generated from an entry in the Cambridge 
# Structural Database, then it will include bibliographic, chemical, 
# crystal, experimental, refinement or atomic coordinate data resulting 
# from the CCDC's data processing and validation procedures.
#
#######################################################################

data_YAWFEH
_chemical_formula_moiety         'C26 H30 N2 O7 S1,C2 H6 O1'
_chemical_name_systematic        
'5,6-Benzo(e)-12-hydroxymethyl-7-toluenesulfonyl-11-oxa-1,7-diazapentacyclo(12.2.1.0^4,16^.0^9,14^)heptadec-5-ene-10,13-diol ethanol solvate'
_symmetry_cell_setting           monoclinic
_symmetry_space_group_name_H-M   'P 21'
_symmetry_Int_Tables_number      4
_space_group_name_Hall           'P 2yb'
loop_
_symmetry_equiv_pos_site_id
_symmetry_equiv_pos_as_xyz
1 x,y,z
2 -x,1/2+y,-z
_cell_length_a                   7.753(3)
_cell_length_b                   9.453(2)
_cell_length_c                   18.452(6)
_cell_angle_alpha                90
_cell_angle_beta                 90.43(3)
_cell_angle_gamma                90
_cell_volume                     1352.29
_exptl_crystal_colour            colorless
_chemical_melting_point          257-259deg.C
_cell_formula_units_Z            2
loop_
_atom_site_label
_atom_site_type_symbol
_atom_site_fract_x
_atom_site_fract_y
_atom_site_fract_z
N1 N 0.0263(4) 0.15329 0.2198(2)
C1 C -0.1028(5) 0.1685(6) 0.2802(2)
C2 C 0.0023(5) 0.1558(6) 0.3515(2)
C3 C 0.0245(5) 0.0002(6) 0.3720(2)
O1 O -0.1336(4) -0.0559(5) 0.3993(2)
C4 C -0.1960(5) 0.0156(6) 0.4625(2)
C5 C -0.2348(5) 0.1719(6) 0.4463(2)
C6 C -0.0694(5) 0.2393(6) 0.4168(2)
C7 C -0.1017(5) 0.3913(6) 0.3960(2)
C8 C -0.3857(5) 0.1874(6) 0.3926(2)
N2 N -0.4024(4) 0.3312(5) 0.3609(2)
C9 C -0.5031(5) 0.3238(6) 0.2924(2)
C10 C -0.3700(5) 0.3049(6) 0.2305(2)
C11 C -0.1891(5) 0.3158(6) 0.2673(2)
C12 C -0.2368(5) 0.3934(6) 0.3375(2)
C13 C -0.0526(5) 0.3901(6) 0.2232(2)
C14 C -0.0332(6) 0.5337(7) 0.2084(2)
C15 C 0.1088(6) 0.5757(7) 0.1664(3)
C16 C 0.2240(6) 0.4784(7) 0.1411(3)
C17 C 0.2078(5) 0.3359(6) 0.1561(2)
C18 C 0.0663(5) 0.2942(6) 0.1970(2)
S1 S -0.00266(13) 0.0310(4) 0.15654(5)
O2 O -0.0627(4) -0.0923(5) 0.1930(2)
O3 O 0.1567(4) 0.0263(6) 0.1175(2)
C19 C -0.1633(5) 0.0900(6) 0.0961(2)
C20 C -0.3248(5) 0.0261(7) 0.0969(2)
C21 C -0.4524(6) 0.0692(6) 0.0487(2)
C22 C -0.4177(5) 0.1769(6) -0.0011(2)
C23 C -0.2559(6) 0.2429(6) -0.0007(2)
C24 C -0.1291(5) 0.1995(6) 0.0473(2)
O4 O -0.5305(4) 0.2230(6) -0.0523(2)
C25 C -0.6928(6) 0.1543(8) -0.0584(3)
O5 O 0.1588(4) -0.0066(5) 0.4235(2)
C26 C -0.3505(6) -0.0692(6) 0.4892(2)
O6 O -0.4138(5) 0.0010(5) 0.5513(2)
O7 O -0.2716(4) 0.2435(5) 0.5135(2)
H1 H -0.1875 0.0945 0.2773
H2 H 0.1154 0.1925 0.3419
H3 H 0.0572 -0.0524 0.3298
H4 H -0.1078 0.0118 0.4993
H5 H 0.0160 0.2378 0.4548
H6 H 0.0028 0.4336 0.3786
H7 H -0.1402 0.4441 0.4372
H8 H -0.4909 0.1643 0.4170
H9 H -0.3710 0.1203 0.3540
H10 H -0.5683 0.4091 0.2853
H11 H -0.5816 0.2452 0.2934
H12 H -0.3842 0.3775 0.1946
H13 H -0.3842 0.2144 0.2076
H14 H -0.2583 0.4905 0.3252
H15 H -0.1143 0.6018 0.2262
H16 H 0.1252 0.6741 0.1555
H17 H 0.3186 0.5100 0.1120
H18 H 0.2905 0.2684 0.1390
H19 H -0.3480 -0.0482 0.1309
H20 H -0.5640 0.0252 0.0494
H21 H -0.2329 0.3184 -0.0340
H22 H -0.0179 0.2442 0.0473
H23 H -0.7592 0.1975 -0.0965
H24 H -0.6752 0.0561 -0.0693
H25 H -0.7535 0.1627 -0.0134
H26 H 0.1680 -0.0901 0.4292
H27 H -0.3165 -0.1641 0.5010
H28 H -0.4381 -0.0729 0.4522
H29 H -0.4785 -0.0441 0.5757
H30 H -0.3471 0.1997 0.5325
O8 O 0.3426(12) 0.2411(12) 0.6871(5)
C27 C 0.4855(12) 0.2736(12) 0.7273(5)
C28 C 0.5861(12) 0.3481(12) 0.7296(5)
loop_
_geom_bond_atom_site_label_1
_geom_bond_atom_site_label_2
_geom_bond_site_symmetry_1
_geom_bond_site_symmetry_2
N1 C1 1_555 1_555
C1 C2 1_555 1_555
C2 C3 1_555 1_555
C3 O1 1_555 1_555
O1 C4 1_555 1_555
C4 C5 1_555 1_555
C5 C6 1_555 1_555
C6 C2 1_555 1_555
C7 C6 1_555 1_555
C8 C5 1_555 1_555
N2 C8 1_555 1_555
C9 N2 1_555 1_555
C10 C9 1_555 1_555
C11 C1 1_555 1_555
C12 C7 1_555 1_555
C13 C11 1_555 1_555
C14 C13 1_555 1_555
C15 C14 1_555 1_555
C16 C15 1_555 1_555
C17 C16 1_555 1_555
C18 N1 1_555 1_555
S1 N1 1_555 1_555
O2 S1 1_555 1_555
O3 S1 1_555 1_555
C19 S1 1_555 1_555
C20 C19 1_555 1_555
C21 C20 1_555 1_555
C22 C21 1_555 1_555
C23 C22 1_555 1_555
C24 C19 1_555 1_555
O4 C22 1_555 1_555
C25 O4 1_555 1_555
O5 C3 1_555 1_555
C26 C4 1_555 1_555
O6 C26 1_555 1_555
O7 C5 1_555 1_555
O8 C27 1_555 1_555
C27 C28 1_555 1_555
H1 C1 1_555 1_555
H2 C2 1_555 1_555
H3 C3 1_555 1_555
H4 C4 1_555 1_555
H5 C6 1_555 1_555
H6 C7 1_555 1_555
H7 C7 1_555 1_555
H8 C8 1_555 1_555
H9 C8 1_555 1_555
H10 C9 1_555 1_555
H11 C9 1_555 1_555
H12 C10 1_555 1_555
H13 C10 1_555 1_555
H14 C12 1_555 1_555
H15 C14 1_555 1_555
H16 C15 1_555 1_555
H17 C16 1_555 1_555
H18 C17 1_555 1_555
H19 C20 1_555 1_555
H20 C21 1_555 1_555
H21 C23 1_555 1_555
H22 C24 1_555 1_555
H23 C25 1_555 1_555
H24 C25 1_555 1_555
H25 C25 1_555 1_555
H26 O5 1_555 1_555
H27 C26 1_555 1_555
H28 C26 1_555 1_555
H29 O6 1_555 1_555
H30 O7 1_555 1_555
N2 C12 1_555 1_555
C10 C11 1_555 1_555
C11 C12 1_555 1_555
C13 C18 1_555 1_555
C17 C18 1_555 1_555
C23 C24 1_555 1_555

#END
