
#######################################################################
#
#                 Cambridge Crystallographic Data Centre
#                                CCDC 
#
#######################################################################
#
# If this CIF has been generated from an entry in the Cambridge 
# Structural Database, then it will include bibliographic, chemical, 
# crystal, experimental, refinement or atomic coordinate data resulting 
# from the CCDC's data processing and validation procedures.
#
#######################################################################

data_YAWFOR
_chemical_formula_moiety         'C25 H40 O9,2(H2 O1)'
_chemical_name_systematic        
"11-((Acetyloxy)methyl)-4-hydroxy-2-(hydroxymethyl)-hexadecahydro-5a,12a-dimethyl-oxepino(3,2-b)pyrano(2',3':5,6)pyrano(2,3-b)pyrano(2,3-f)oxepin dihydrate"
_symmetry_cell_setting           tetragonal
_symmetry_space_group_name_H-M   'P 41 21 2'
_symmetry_Int_Tables_number      92
_space_group_name_Hall           'P 4abw 2nw'
loop_
_symmetry_equiv_pos_site_id
_symmetry_equiv_pos_as_xyz
1 x,y,z
2 1/2-y,1/2+x,1/4+z
3 -x,-y,1/2+z
4 1/2+y,1/2-x,3/4+z
5 y,x,-z
6 1/2+x,1/2-y,3/4-z
7 -y,-x,1/2-z
8 1/2-x,1/2+y,1/4-z
_cell_length_a                   10.784(4)
_cell_length_b                   10.784(4)
_cell_length_c                   45.20(4)
_cell_angle_alpha                90
_cell_angle_beta                 90
_cell_angle_gamma                90
_cell_volume                     5256.52
_exptl_crystal_colour            colorless
_chemical_melting_point          178.3deg.C
_cell_formula_units_Z            8
loop_
_atom_site_label
_atom_site_type_symbol
_atom_site_fract_x
_atom_site_fract_y
_atom_site_fract_z
O1 O 1.1043(12) -0.3802(14) 0.1876(3)
O2 O 0.9258(10) -0.3241(9) 0.2046(2)
O3 O 0.8272(8) -0.1193(10) 0.1748(2)
O4 O 0.5656(8) 0.0724(8) 0.2000(2)
O5 O 0.6161(8) 0.3769(8) 0.1922(2)
O6 O 0.2845(7) 0.3538(8) 0.1734(2)
O7 O 0.1553(8) 0.3079(9) 0.1191(2)
O8 O 0.3951(7) 0.5290(8) 0.1091(2)
O9 O 0.4096(9) 0.4372(9) 0.0503(2)
C1 C 1.0870(14) -0.3415(16) 0.2387(3)
C2 C 1.0430(17) -0.3489(15) 0.2085(3)
C3 C 0.8734(14) -0.3313(14) 0.1757(3)
C4 C 0.7700(14) -0.2377(14) 0.1736(3)
C5 C 0.6738(13) -0.2556(13) 0.1984(3)
C6 C 0.5796(14) -0.1508(11) 0.1976(3)
C7 C 0.6495(11) -0.0283(12) 0.1988(3)
C8 C 0.7400(12) -0.0147(15) 0.1733(3)
C9 C 0.6791(12) -0.0120(15) 0.1432(3)
C10 C 0.8252(12) 0.0945(14) 0.1787(3)
C11 C 0.7612(11) 0.2240(13) 0.1754(3)
C12 C 0.6877(12) 0.2700(13) 0.2018(3)
C13 C 0.6061(12) 0.1739(12) 0.2181(3)
C14 C 0.4969(12) 0.2271(12) 0.2336(3)
C15 C 0.3818(11) 0.2522(11) 0.2138(2)
C16 C 0.3925(11) 0.3635(11) 0.1930(2)
C17 C 0.3854(13) 0.4858(11) 0.2105(2)
C18 C 0.5127(11) 0.3521(12) 0.1739(3)
C19 C 0.5122(11) 0.4462(11) 0.1488(3)
C20 C 0.3935(11) 0.4305(12) 0.1303(2)
C21 C 0.2798(12) 0.4428(13) 0.1498(3)
C22 C 0.1619(12) 0.4281(14) 0.1321(3)
C23 C 0.1671(11) 0.5249(13) 0.1073(3)
C24 C 0.2896(12) 0.5226(13) 0.0900(3)
C25 C 0.2985(14) 0.4237(15) 0.0674(3)
H1 H 0.1389 0.2537 0.1322
H2 H 0.4722 0.4169 0.0606
H3 H 1.1737 -0.3615 0.2383
H4 H 1.0419 -0.3985 0.2509
H5 H 1.0745 -0.2356 0.2435
H6 H 0.9355 -0.3141 0.1610
H7 H 0.7251 -0.2473 0.1554
H8 H 0.6320 -0.3332 0.1955
H9 H 0.7151 -0.2562 0.2172
H10 H 0.5262 -0.1573 0.2146
H11 H 0.5310 -0.1551 0.1799
H12 H 0.6987 -0.0256 0.2165
H13 H 0.6225 0.0566 0.1423
H14 H 0.6347 -0.0879 0.1400
H15 H 0.7415 -0.0023 0.1283
H16 H 0.8563 0.0885 0.1985
H17 H 0.8929 0.0901 0.1649
H18 H 0.7048 0.2179 0.1590
H19 H 0.8240 0.2843 0.1710
H20 H 0.7476 0.2903 0.2167
H21 H 0.6620 0.1434 0.2330
H22 H 0.4724 0.1698 0.2488
H23 H 0.5200 0.3039 0.2426
H24 H 0.3117 0.2660 0.2265
H25 H 0.3694 0.1806 0.2021
H26 H 0.4561 0.4928 0.2233
H27 H 0.3109 0.4861 0.2221
H28 H 0.3828 0.5546 0.1971
H29 H 0.5148 0.5284 0.1569
H30 H 0.5834 0.4334 0.1364
H31 H 0.3896 0.3506 0.1210
H32 H 0.2795 0.5243 0.1584
H33 H 0.0914 0.4382 0.1449
H34 H 0.1561 0.6056 0.1158
H35 H 0.1006 0.5083 0.0937
H36 H 0.2889 0.5982 0.0787
H37 H 0.2280 0.4277 0.0545
H38 H 0.3000 0.3446 0.0772
O10 O 0.4381(19) 0.6102(17) 0.0083(4)
H39 H 0.5117 0.5934 -0.0029
H40 H 0.3674 0.6094 -0.0046
O11 O 0.4567(18) 0.8299(16) 0.0348(4)
H41 H 0.5341 0.8725 0.0374
H42 H 0.3898 0.8885 0.0357
loop_
_geom_bond_atom_site_label_1
_geom_bond_atom_site_label_2
_geom_bond_site_symmetry_1
_geom_bond_site_symmetry_2
O1 C2 1_555 1_555
O2 C2 1_555 1_555
O3 C4 1_555 1_555
O4 C7 1_555 1_555
O5 C12 1_555 1_555
O6 C16 1_555 1_555
O7 C22 1_555 1_555
O8 C20 1_555 1_555
O9 C25 1_555 1_555
C1 C2 1_555 1_555
C3 O2 1_555 1_555
C4 C3 1_555 1_555
C5 C4 1_555 1_555
C6 C5 1_555 1_555
C7 C6 1_555 1_555
C8 O3 1_555 1_555
C9 C8 1_555 1_555
C10 C8 1_555 1_555
C11 C10 1_555 1_555
C12 C11 1_555 1_555
C13 O4 1_555 1_555
C14 C13 1_555 1_555
C15 C14 1_555 1_555
C16 C15 1_555 1_555
C17 C16 1_555 1_555
C18 O5 1_555 1_555
C19 C18 1_555 1_555
C20 C19 1_555 1_555
C21 O6 1_555 1_555
C22 C21 1_555 1_555
C23 C22 1_555 1_555
C24 O8 1_555 1_555
C25 C24 1_555 1_555
O10 H39 1_555 1_555
O11 H41 1_555 1_555
H1 O7 1_555 1_555
H2 O9 1_555 1_555
H3 C1 1_555 1_555
H4 C1 1_555 1_555
H5 C1 1_555 1_555
H6 C3 1_555 1_555
H7 C4 1_555 1_555
H8 C5 1_555 1_555
H9 C5 1_555 1_555
H10 C6 1_555 1_555
H11 C6 1_555 1_555
H12 C7 1_555 1_555
H13 C9 1_555 1_555
H14 C9 1_555 1_555
H15 C9 1_555 1_555
H16 C10 1_555 1_555
H17 C10 1_555 1_555
H18 C11 1_555 1_555
H19 C11 1_555 1_555
H20 C12 1_555 1_555
H21 C13 1_555 1_555
H22 C14 1_555 1_555
H23 C14 1_555 1_555
H24 C15 1_555 1_555
H25 C15 1_555 1_555
H26 C17 1_555 1_555
H27 C17 1_555 1_555
H28 C17 1_555 1_555
H29 C19 1_555 1_555
H30 C19 1_555 1_555
H31 C20 1_555 1_555
H32 C21 1_555 1_555
H33 C22 1_555 1_555
H34 C23 1_555 1_555
H35 C23 1_555 1_555
H36 C24 1_555 1_555
H37 C25 1_555 1_555
H38 C25 1_555 1_555
H40 O10 1_555 1_555
H42 O11 1_555 1_555
C7 C8 1_555 1_555
C12 C13 1_555 1_555
C16 C18 1_555 1_555
C20 C21 1_555 1_555
C23 C24 1_555 1_555

#END
