
#######################################################################
#
#                 Cambridge Crystallographic Data Centre
#                                CCDC 
#
#######################################################################
#
# If this CIF has been generated from an entry in the Cambridge 
# Structural Database, then it will include bibliographic, chemical, 
# crystal, experimental, refinement or atomic coordinate data resulting 
# from the CCDC's data processing and validation procedures.
#
#######################################################################

data_YAWHOV
_chemical_formula_moiety         'C13 H16 Cl1 N5 O4'
_chemical_name_systematic        
'Ethyl (3-((6-chloropyridin-3-yl)methyl)-2-(nitroimino)imidazolidin-1-yl)acetate'
_symmetry_cell_setting           monoclinic
_symmetry_space_group_name_H-M   'P 21/c'
_symmetry_Int_Tables_number      14
_space_group_name_Hall           '-P 2ybc'
loop_
_symmetry_equiv_pos_site_id
_symmetry_equiv_pos_as_xyz
1 x,y,z
2 -x,1/2+y,1/2-z
3 -x,-y,-z
4 x,1/2-y,1/2+z
_cell_length_a                   7.8136(2)
_cell_length_b                   19.3483(4)
_cell_length_c                   10.1926(2)
_cell_angle_alpha                90
_cell_angle_beta                 100.346(2)
_cell_angle_gamma                90
_cell_volume                     1515.86
_exptl_crystal_colour            white
_exptl_crystal_description       plate
_cell_formula_units_Z            4
loop_
_atom_site_label
_atom_site_type_symbol
_atom_site_fract_x
_atom_site_fract_y
_atom_site_fract_z
Cl1 Cl 0.49235(8) 0.34128(3) -0.00544(6)
N1 N 0.4056(2) 0.42363(8) 0.17333(16)
C1 C 0.3295(2) 0.48018(10) 0.21371(18)
H1 H 0.3394 0.4877 0.3049
C2 C 0.2376(2) 0.52773(9) 0.12776(16)
C3 C 0.2223(2) 0.51489(10) -0.00787(17)
H2 H 0.1600 0.5453 -0.0692
C4 C 0.2988(2) 0.45741(10) -0.05220(18)
H3 H 0.2903 0.4481 -0.1426
C5 C 0.3884(2) 0.41447(10) 0.04397(19)
C6 C 0.1554(2) 0.59159(10) 0.17545(16)
H4 H 0.1805 0.6309 0.1230
H5 H 0.0302 0.5855 0.1602
N2 N 0.21587(18) 0.60656(8) 0.31527(14)
C7 C 0.3777(2) 0.64367(10) 0.36251(18)
H6 H 0.3764 0.6890 0.3218
H7 H 0.4774 0.6180 0.3440
C8 C 0.3805(2) 0.64912(11) 0.5113(2)
H8 H 0.4723 0.6208 0.5610
H9 H 0.3969 0.6966 0.5414
N3 N 0.20831(18) 0.62338(7) 0.52662(14)
C9 C 0.1228(2) 0.59805(8) 0.41189(16)
N4 N -0.02640(17) 0.56113(7) 0.38209(14)
N5 N -0.15702(18) 0.57746(7) 0.44638(14)
O1 O -0.28030(16) 0.53623(7) 0.43068(15)
O2 O -0.15984(16) 0.63170(7) 0.51017(13)
C10 C 0.1705(2) 0.61047(9) 0.65820(16)
H10 H 0.2751 0.5946 0.7165
H11 H 0.0836 0.5743 0.6531
C11 C 0.1042(2) 0.67502(9) 0.71615(17)
O3 O 0.13493(19) 0.73282(7) 0.68446(14)
O4 O 0.01369(17) 0.65861(6) 0.81063(12)
C12 C -0.0639(3) 0.71622(11) 0.8720(2)
H12 H 0.0215 0.7527 0.8939
H13 H -0.0980 0.7007 0.9541
C13 C -0.2189(3) 0.74367(13) 0.7804(3)
H14 H -0.1828 0.7651 0.7049
H15 H -0.2765 0.7772 0.8266
H16 H -0.2975 0.7064 0.7505
loop_
_geom_bond_atom_site_label_1
_geom_bond_atom_site_label_2
_geom_bond_site_symmetry_1
_geom_bond_site_symmetry_2
Cl1 C5 1_555 1_555
N1 C1 1_555 1_555
C1 H1 1_555 1_555
C2 C1 1_555 1_555
C3 C2 1_555 1_555
H2 C3 1_555 1_555
C4 C3 1_555 1_555
H3 C4 1_555 1_555
C5 N1 1_555 1_555
C6 C2 1_555 1_555
H4 C6 1_555 1_555
H5 C6 1_555 1_555
N2 C6 1_555 1_555
C7 N2 1_555 1_555
H6 C7 1_555 1_555
H7 C7 1_555 1_555
C8 C7 1_555 1_555
H8 C8 1_555 1_555
H9 C8 1_555 1_555
N3 C8 1_555 1_555
C9 N2 1_555 1_555
N4 C9 1_555 1_555
N5 N4 1_555 1_555
O1 N5 1_555 1_555
O2 N5 1_555 1_555
C10 N3 1_555 1_555
H10 C10 1_555 1_555
H11 C10 1_555 1_555
C11 C10 1_555 1_555
O3 C11 1_555 1_555
O4 C11 1_555 1_555
C12 O4 1_555 1_555
H12 C12 1_555 1_555
H13 C12 1_555 1_555
C13 C12 1_555 1_555
H14 C13 1_555 1_555
H15 C13 1_555 1_555
H16 C13 1_555 1_555
C4 C5 1_555 1_555
N3 C9 1_555 1_555

#END
