
#######################################################################
#
#                 Cambridge Crystallographic Data Centre
#                                CCDC 
#
#######################################################################
#
# If this CIF has been generated from an entry in the Cambridge 
# Structural Database, then it will include bibliographic, chemical, 
# crystal, experimental, refinement or atomic coordinate data resulting 
# from the CCDC's data processing and validation procedures.
#
#######################################################################

data_YAWHIP
_chemical_name_common            'Diisopropylammonium nitrite'
_chemical_formula_moiety         'C6 H16 N1 1+,N1 O2 1-'
_chemical_name_systematic        'N-Isopropylpropan-2-aminium nitrite'
_symmetry_cell_setting           monoclinic
_symmetry_space_group_name_H-M   'P 21/n'
_symmetry_Int_Tables_number      14
_space_group_name_Hall           '-P 2yn'
loop_
_symmetry_equiv_pos_site_id
_symmetry_equiv_pos_as_xyz
1 x,y,z
2 1/2-x,1/2+y,1/2-z
3 -x,-y,-z
4 1/2+x,1/2-y,1/2+z
_cell_length_a                   8.2314(16)
_cell_length_b                   7.7466(15)
_cell_length_c                   14.583(3)
_cell_angle_alpha                90
_cell_angle_beta                 94.16(3)
_cell_angle_gamma                90
_cell_volume                     927.44
_exptl_crystal_colour            colorless
_exptl_crystal_description       block
_cell_formula_units_Z            4
loop_
_atom_site_label
_atom_site_type_symbol
_atom_site_fract_x
_atom_site_fract_y
_atom_site_fract_z
N1 N 0.6713(3) 0.1958(3) 0.35567(15)
H1 H 0.6950 0.0825 0.3543
H2 H 0.6890 0.2393 0.3000
C1 C 0.4930(4) 0.2132(4) 0.3690(2)
H3 H 0.4733 0.1702 0.4304
C2 C 0.7889(4) 0.2792(4) 0.4247(2)
H4 H 0.7676 0.4037 0.4255
C3 C 0.7724(5) 0.2066(6) 0.5196(2)
H5 H 0.6642 0.2277 0.5376
H6 H 0.8500 0.2614 0.5626
H7 H 0.7925 0.0846 0.5192
C4 C 0.3999(4) 0.1012(6) 0.2986(3)
H8 H 0.4409 -0.0148 0.3032
H9 H 0.4133 0.1453 0.2381
H10 H 0.2865 0.1017 0.3099
C5 C 0.9579(5) 0.2488(7) 0.3938(3)
H11 H 0.9700 0.3099 0.3374
H12 H 0.9736 0.1275 0.3841
H13 H 1.0374 0.2895 0.4402
C6 C 0.4425(5) 0.3998(5) 0.3631(3)
H14 H 0.5025 0.4643 0.4104
H15 H 0.3280 0.4089 0.3710
H16 H 0.4646 0.4452 0.3040
O1 O 0.7263(3) 0.3533(3) 0.18791(17)
N2 N 0.7438(4) 0.2425(4) 0.1320(2)
O2 O 0.8050(4) 0.2847(5) 0.0648(2)
loop_
_geom_bond_atom_site_label_1
_geom_bond_atom_site_label_2
_geom_bond_site_symmetry_1
_geom_bond_site_symmetry_2
N1 H1 1_555 1_555
H2 N1 1_555 1_555
C1 N1 1_555 1_555
H3 C1 1_555 1_555
O1 N2 1_555 1_555
C2 N1 1_555 1_555
H4 C2 1_555 1_555
N2 O2 1_555 1_555
C3 C2 1_555 1_555
H5 C3 1_555 1_555
H6 C3 1_555 1_555
H7 C3 1_555 1_555
C4 C1 1_555 1_555
H8 C4 1_555 1_555
H9 C4 1_555 1_555
H10 C4 1_555 1_555
C5 C2 1_555 1_555
H11 C5 1_555 1_555
H12 C5 1_555 1_555
H13 C5 1_555 1_555
C6 C1 1_555 1_555
H14 C6 1_555 1_555
H15 C6 1_555 1_555
H16 C6 1_555 1_555

#END
