
#######################################################################
#
#                 Cambridge Crystallographic Data Centre
#                                CCDC 
#
#######################################################################
#
# If this CIF has been generated from an entry in the Cambridge 
# Structural Database, then it will include bibliographic, chemical, 
# crystal, experimental, refinement or atomic coordinate data resulting 
# from the CCDC's data processing and validation procedures.
#
#######################################################################

data_YAWPEU
_chemical_formula_moiety         'C14 H16 N2 2+,2(I1 1-),I2'
_chemical_name_systematic        
"4,4'-(ethene-1,2-diyl)bis(1-methylpyridin-1-ium) diiodide iodine"
_symmetry_cell_setting           triclinic
_symmetry_space_group_name_H-M   'P -1'
_symmetry_Int_Tables_number      2
_space_group_name_Hall           '-P 1'
loop_
_symmetry_equiv_pos_site_id
_symmetry_equiv_pos_as_xyz
1 x,y,z
2 -x,-y,-z
_cell_length_a                   5.0563(3)
_cell_length_b                   7.4227(5)
_cell_length_c                   13.9181(11)
_cell_angle_alpha                104.960(3)
_cell_angle_beta                 93.225(3)
_cell_angle_gamma                104.956(2)
_cell_volume                     483.322
_exptl_crystal_colour            'purple red'
_exptl_crystal_description       block
_cell_formula_units_Z            1
loop_
_atom_site_label
_atom_site_type_symbol
_atom_site_fract_x
_atom_site_fract_y
_atom_site_fract_z
I1 I 0.39151(5) -0.30926(3) -1.152555(16)
I2 I 0.12868(5) -0.45214(4) -1.40008(2)
I2A I -0.12868(5) -0.54786(4) -1.59992(2)
N1 N 1.0763(6) -0.1516(4) -0.8262(2)
C1 C 1.0632(7) -0.0026(5) -0.7500(3)
H1 H 0.9596 0.0820 -0.7611
C2 C 1.4973(7) -0.0683(5) -0.5409(2)
H2 H 1.607(11) -0.161(8) -0.545(3)
C3 C 1.3682(7) -0.2415(5) -0.7209(3)
H3 H 1.4767 -0.3248 -0.7126
C4 C 1.2282(8) -0.2703(5) -0.8133(3)
H4 H 1.2382 -0.3741 -0.8683
C5 C 1.3533(6) -0.0925(4) -0.6398(2)
C6 C 0.9201(9) -0.1890(7) -0.9259(3)
H5 H 0.8207 -0.0910 -0.9234
H6 H 0.7876 -0.3186 -0.9445
H7 H 1.0485 -0.1821 -0.9759
C7 C 1.1968(8) 0.0294(5) -0.6564(2)
H8 H 1.1833 0.1343 -0.6027
N1A N 1.9237(6) 0.1516(4) -0.1738(2)
C1A C 1.9368(7) 0.0026(5) -0.2500(3)
H1A H 2.0404 -0.0820 -0.2389
C2A C 1.5027(7) 0.0683(5) -0.4591(2)
H2A H 1.393(11) 0.161(8) -0.455(3)
C3A C 1.6318(7) 0.2415(5) -0.2791(3)
H3A H 1.5233 0.3248 -0.2874
C4A C 1.7718(8) 0.2703(5) -0.1867(3)
H4A H 1.7618 0.3741 -0.1317
C5A C 1.6467(6) 0.0925(4) -0.3602(2)
C6A C 2.0799(9) 0.1890(7) -0.0741(3)
H5A H 2.1793 0.0910 -0.0766
H6A H 2.2124 0.3186 -0.0555
H7A H 1.9515 0.1821 -0.0241
C7A C 1.8032(8) -0.0294(5) -0.3436(2)
H8A H 1.8167 -0.1343 -0.3973
loop_
_geom_bond_atom_site_label_1
_geom_bond_atom_site_label_2
_geom_bond_site_symmetry_1
_geom_bond_site_symmetry_2
I2 I2A 1_555 1_555
N1 C1 1_555 1_555
C1 H1 1_555 1_555
C2 H2 1_555 1_555
C3 H3 1_555 1_555
C4 N1 1_555 1_555
H4 C4 1_555 1_555
C5 C2 1_555 1_555
C6 N1 1_555 1_555
H5 C6 1_555 1_555
H6 C6 1_555 1_555
H7 C6 1_555 1_555
C7 C1 1_555 1_555
H8 C7 1_555 1_555
N1A C1A 1_555 1_555
C1A H1A 1_555 1_555
C2A C2 1_555 1_555
H2A C2A 1_555 1_555
C3A H3A 1_555 1_555
C4A N1A 1_555 1_555
H4A C4A 1_555 1_555
C5A C2A 1_555 1_555
C6A N1A 1_555 1_555
H5A C6A 1_555 1_555
H6A C6A 1_555 1_555
H7A C6A 1_555 1_555
C7A C1A 1_555 1_555
H8A C7A 1_555 1_555
C3 C4 1_555 1_555
C3 C5 1_555 1_555
C5 C7 1_555 1_555
C3A C4A 1_555 1_555
C3A C5A 1_555 1_555
C5A C7A 1_555 1_555

#END
