
#######################################################################
#
#                 Cambridge Crystallographic Data Centre
#                                CCDC 
#
#######################################################################
#
# If this CIF has been generated from an entry in the Cambridge 
# Structural Database, then it will include bibliographic, chemical, 
# crystal, experimental, refinement or atomic coordinate data resulting 
# from the CCDC's data processing and validation procedures.
#
#######################################################################

data_YAWTIB
_chemical_formula_moiety         'C10 H7 Cl1 F3 N3 O1'
_chemical_name_systematic        
2-(4-Chloro-2-fluorophenyl)-4-(difluoromethyl)-5-methyl-2,4-dihydro-3H-1,2,4-triazol-3-one
_symmetry_cell_setting           monoclinic
_symmetry_space_group_name_H-M   'C 2/c'
_symmetry_Int_Tables_number      15
_space_group_name_Hall           '-C 2yn'
loop_
_symmetry_equiv_pos_site_id
_symmetry_equiv_pos_as_xyz
1 x,y,z
2 -x,y,1/2-z
3 1/2+x,1/2+y,z
4 1/2-x,1/2+y,1/2-z
5 -x,-y,-z
6 x,-y,1/2+z
7 1/2-x,1/2-y,-z
8 1/2+x,1/2-y,1/2+z
_cell_length_a                   15.286(3)
_cell_length_b                   13.610(3)
_cell_length_c                   11.231(2)
_cell_angle_alpha                90
_cell_angle_beta                 100.91(3)
_cell_angle_gamma                90
_cell_volume                     2294.29
_exptl_crystal_colour            colorless
_exptl_crystal_description       block
_cell_formula_units_Z            8
loop_
_atom_site_label
_atom_site_type_symbol
_atom_site_fract_x
_atom_site_fract_y
_atom_site_fract_z
Cl1 Cl 0.07385(7) 0.56530(8) 0.15418(11)
O1 O 0.44175(13) 0.54039(17) -0.12275(18)
F1 F 0.26705(12) 0.64405(16) -0.14770(16)
N1 N 0.42189(15) 0.65403(18) 0.0253(2)
C1 C 0.3335(2) 0.6085(2) 0.1748(3)
H1 H 0.3846 0.6094 0.2348
N2 N 0.54325(16) 0.66315(18) -0.0433(2)
F2 F 0.62510(18) 0.72262(17) -0.1740(2)
C2 C 0.2523(3) 0.5883(3) 0.2052(3)
H2 H 0.2483 0.5761 0.2855
F3 F 0.68716(13) 0.62152(16) -0.0370(2)
N3 N 0.47231(18) 0.72846(19) 0.0904(2)
C3 C 0.1768(2) 0.5862(2) 0.1157(3)
C4 C 0.1812(2) 0.6026(2) -0.0036(3)
H3 H 0.1304 0.5994 -0.0639
C5 C 0.2627(2) 0.6237(2) -0.0314(3)
C6 C 0.3396(2) 0.6273(2) 0.0557(3)
C7 C 0.4651(2) 0.6095(2) -0.0559(3)
C8 C 0.5439(2) 0.7331(2) 0.0472(3)
C9 C 0.6171(3) 0.8030(3) 0.0887(4)
H4 H 0.6034 0.8418 0.1541
H5 H 0.6242 0.8454 0.0228
H6 H 0.6714 0.7674 0.1160
C10 C 0.6099(2) 0.6433(3) -0.1112(3)
H7 H 0.5914 0.5883 -0.1667
loop_
_geom_bond_atom_site_label_1
_geom_bond_atom_site_label_2
_geom_bond_site_symmetry_1
_geom_bond_site_symmetry_2
Cl1 C3 1_555 1_555
O1 C7 1_555 1_555
F1 C5 1_555 1_555
N1 N3 1_555 1_555
C1 H1 1_555 1_555
N2 C7 1_555 1_555
F2 C10 1_555 1_555
C2 C1 1_555 1_555
H2 C2 1_555 1_555
F3 C10 1_555 1_555
N3 C8 1_555 1_555
C3 C2 1_555 1_555
C4 C3 1_555 1_555
H3 C4 1_555 1_555
C5 C4 1_555 1_555
C6 N1 1_555 1_555
C7 N1 1_555 1_555
C8 N2 1_555 1_555
C9 C8 1_555 1_555
H4 C9 1_555 1_555
H5 C9 1_555 1_555
H6 C9 1_555 1_555
C10 N2 1_555 1_555
H7 C10 1_555 1_555
C1 C6 1_555 1_555
C5 C6 1_555 1_555

#END
