
#######################################################################
#
#                 Cambridge Crystallographic Data Centre
#                                CCDC 
#
#######################################################################
#
# If this CIF has been generated from an entry in the Cambridge 
# Structural Database, then it will include bibliographic, chemical, 
# crystal, experimental, refinement or atomic coordinate data resulting 
# from the CCDC's data processing and validation procedures.
#
#######################################################################

data_YAWZIF
_chemical_formula_moiety         'C18 H14 N2 O4 S1'
_chemical_name_systematic        N-(4-Nitrophenyl)-N-phenylsulfonamide
_chemical_properties_biological  'antibacterial activity'
_symmetry_cell_setting           monoclinic
_symmetry_space_group_name_H-M   'P 21/n'
_symmetry_Int_Tables_number      14
_space_group_name_Hall           '-P 2yn'
loop_
_symmetry_equiv_pos_site_id
_symmetry_equiv_pos_as_xyz
1 x,y,z
2 1/2-x,1/2+y,1/2-z
3 -x,-y,-z
4 1/2+x,1/2-y,1/2+z
_cell_length_a                   24.463(1)
_cell_length_b                   5.745(2)
_cell_length_c                   11.428(3)
_cell_angle_alpha                90
_cell_angle_beta                 94.39(2)
_cell_angle_gamma                90
_cell_volume                     1601.38
_exptl_crystal_colour            white
_cell_formula_units_Z            4
loop_
_atom_site_label
_atom_site_type_symbol
_atom_site_fract_x
_atom_site_fract_y
_atom_site_fract_z
S1 S 0.1073(1) 0.2235(1) 0.9383(1)
N1 N 0.1560(1) 0.3744(3) 1.0154(2)
N2 N 0.1266(1) 1.0503(5) 1.3665(2)
O1 O 0.1357(1) 0.0403(3) 0.8829(2)
O2 O 0.0653(1) 0.1673(3) 1.0145(2)
O3 O 0.1625(1) 1.1973(4) 1.3834(2)
O4 O 0.0849(1) 1.0410(5) 1.4203(2)
C1 C 0.0793(1) 0.4109(4) 0.8275(2)
C2 C 0.0873(1) 0.3606(5) 0.7106(2)
C3 C 0.0641(1) 0.5029(6) 0.6235(2)
C4 C 0.0337(1) 0.6949(6) 0.6521(3)
C5 C 0.0263(1) 0.7440(5) 0.7680(3)
C6 C 0.0486(1) 0.6038(5) 0.8565(2)
C7 C 0.1471(1) 0.5394(4) 1.1057(2)
C8 C 0.0980(1) 0.5533(5) 1.1607(2)
C9 C 0.0919(1) 0.7179(6) 1.2471(2)
C10 C 0.1336(1) 0.8684(4) 1.2781(2)
C11 C 0.1828(1) 0.8544(5) 1.2282(2)
C12 C 0.1893(1) 0.6894(4) 1.1427(2)
C13 C 0.2091(1) 0.3750(4) 0.9650(2)
C14 C 0.2216(1) 0.5474(4) 0.8868(2)
C15 C 0.2728(1) 0.5415(4) 0.8404(2)
C16 C 0.3096(1) 0.3671(4) 0.8715(2)
C17 C 0.2967(1) 0.1951(4) 0.9494(2)
C18 C 0.2460(1) 0.2002(4) 0.9965(2)
H1 H 0.111(1) 0.223(3) 0.695(2)
H2 H 0.067(1) 0.462(3) 0.545(2)
H3 H 0.018(1) 0.790(3) 0.592(2)
H4 H 0.008(1) 0.875(3) 0.788(2)
H5 H 0.046(1) 0.644(3) 0.940(2)
H6 H 0.063(1) 0.458(3) 1.128(2)
H7 H 0.058(1) 0.723(3) 1.282(2)
H8 H 0.209(1) 0.955(3) 1.252(2)
H9 H 0.222(1) 0.681(3) 1.109(2)
H10 H 0.195(1) 0.670(3) 0.864(2)
H11 H 0.283(1) 0.659(3) 0.781(2)
H12 H 0.343(1) 0.361(3) 0.844(2)
H13 H 0.323(1) 0.072(3) 0.974(1)
H14 H 0.239(1) 0.088(3) 1.050(2)
loop_
_geom_bond_atom_site_label_1
_geom_bond_atom_site_label_2
_geom_bond_site_symmetry_1
_geom_bond_site_symmetry_2
S1 N1 1_555 1_555
N1 C7 1_555 1_555
N2 O3 1_555 1_555
O1 S1 1_555 1_555
O2 S1 1_555 1_555
O4 N2 1_555 1_555
C1 S1 1_555 1_555
C2 C1 1_555 1_555
C3 C2 1_555 1_555
C4 C3 1_555 1_555
C5 C4 1_555 1_555
C6 C1 1_555 1_555
C7 C8 1_555 1_555
C8 C9 1_555 1_555
C9 C10 1_555 1_555
C10 N2 1_555 1_555
C11 C10 1_555 1_555
C12 C7 1_555 1_555
C13 N1 1_555 1_555
C14 C13 1_555 1_555
C15 C14 1_555 1_555
C16 C15 1_555 1_555
C17 C16 1_555 1_555
C18 C13 1_555 1_555
H1 C2 1_555 1_555
H2 C3 1_555 1_555
H3 C4 1_555 1_555
H4 C5 1_555 1_555
H5 C6 1_555 1_555
H6 C8 1_555 1_555
H7 C9 1_555 1_555
H8 C11 1_555 1_555
H9 C12 1_555 1_555
H10 C14 1_555 1_555
H11 C15 1_555 1_555
H12 C16 1_555 1_555
H13 C17 1_555 1_555
H14 C18 1_555 1_555
C5 C6 1_555 1_555
C11 C12 1_555 1_555
C17 C18 1_555 1_555

#END
