
#######################################################################
#
#                 Cambridge Crystallographic Data Centre
#                                CCDC 
#
#######################################################################
#
# If this CIF has been generated from an entry in the Cambridge 
# Structural Database, then it will include bibliographic, chemical, 
# crystal, experimental, refinement or atomic coordinate data resulting 
# from the CCDC's data processing and validation procedures.
#
#######################################################################

data_YAXBAC
_chemical_formula_moiety         'C22 H17 N3 O5 S1'
_chemical_name_systematic        
'1-(4-Methylphenyl)-3-phenyl-1H-pyrazol-5-yl 4-nitrobenzenesulfonate'
_symmetry_cell_setting           monoclinic
_symmetry_space_group_name_H-M   'P 21/c'
_symmetry_Int_Tables_number      14
_space_group_name_Hall           '-P 2ybc'
loop_
_symmetry_equiv_pos_site_id
_symmetry_equiv_pos_as_xyz
1 x,y,z
2 -x,1/2+y,1/2-z
3 -x,-y,-z
4 x,1/2-y,1/2+z
_cell_length_a                   13.5339(12)
_cell_length_b                   10.4827(10)
_cell_length_c                   14.9303(13)
_cell_angle_alpha                90
_cell_angle_beta                 111.975(3)
_cell_angle_gamma                90
_cell_volume                     1964.3
_exptl_crystal_colour            yellow
_exptl_crystal_description       plate
_cell_formula_units_Z            4
loop_
_atom_site_label
_atom_site_type_symbol
_atom_site_fract_x
_atom_site_fract_y
_atom_site_fract_z
S1 S 0.47829(6) 0.20331(9) 0.00726(6)
O1 O 0.51909(18) 0.3508(3) 0.01445(17)
O2 O 0.5619(2) 0.1219(3) 0.0044(2)
O3 O 0.4369(2) 0.1938(3) 0.08223(19)
O4 O 0.1490(2) 0.2303(3) -0.4513(2)
O5 O 0.0359(2) 0.2650(3) -0.3824(2)
N1 N 0.7023(2) 0.4081(3) 0.0618(2)
N2 N 0.7780(2) 0.4243(3) 0.0225(2)
N3 N 0.1265(2) 0.2427(3) -0.3796(2)
C1 C 0.6074(2) 0.3760(3) -0.0095(2)
C2 C 0.7290(2) 0.4006(3) -0.0717(2)
C3 C 0.6198(3) 0.3718(3) -0.0957(2)
H1 H 0.5673 0.3539 -0.1576
C4 C 0.3726(3) 0.2062(3) -0.1065(3)
C5 C 0.2715(3) 0.2430(4) -0.1110(3)
H2 H 0.2587 0.2609 -0.0539
C6 C 0.1898(3) 0.2525(4) -0.2022(3)
H3 H 0.1196 0.2749 -0.2081
C7 C 0.2126(3) 0.2292(3) -0.2831(3)
C8 C 0.3132(3) 0.1929(4) -0.2796(3)
H4 H 0.3262 0.1777 -0.3370
C9 C 0.3942(3) 0.1796(3) -0.1886(3)
H5 H 0.4633 0.1527 -0.1829
C10 C 0.7302(3) 0.4228(3) 0.1639(2)
C11 C 0.8359(3) 0.3992(3) 0.2245(3)
H6 H 0.8871 0.3757 0.1980
C12 C 0.8651(3) 0.4106(3) 0.3239(2)
H7 H 0.9369 0.3951 0.3651
C13 C 0.7909(3) 0.4445(3) 0.3644(3)
C14 C 0.6856(3) 0.4686(4) 0.3023(3)
H8 H 0.6343 0.4919 0.3287
C15 C 0.6551(3) 0.4590(3) 0.2020(3)
H9 H 0.5838 0.4770 0.1604
C16 C 0.8218(3) 0.4510(4) 0.4733(3)
H10 H 0.7642 0.4912 0.4879
H11 H 0.8871 0.5014 0.5020
H12 H 0.8341 0.3645 0.5002
C17 C 0.7883(3) 0.4054(3) -0.1369(2)
C18 C 0.7359(3) 0.3973(3) -0.2370(2)
H13 H 0.6609 0.3851 -0.2640
C19 C 0.7925(3) 0.4068(3) -0.2978(2)
H14 H 0.7563 0.4007 -0.3658
C20 C 0.9031(3) 0.4255(4) -0.2584(3)
H15 H 0.9417 0.4348 -0.2997
C21 C 0.9563(3) 0.4303(3) -0.1586(3)
H16 H 1.0315 0.4409 -0.1319
C22 C 0.8997(3) 0.4196(3) -0.0977(2)
H17 H 0.9365 0.4218 -0.0297
loop_
_geom_bond_atom_site_label_1
_geom_bond_atom_site_label_2
_geom_bond_site_symmetry_1
_geom_bond_site_symmetry_2
S1 O1 1_555 1_555
O1 C1 1_555 1_555
O2 S1 1_555 1_555
O3 S1 1_555 1_555
O4 N3 1_555 1_555
O5 N3 1_555 1_555
N1 N2 1_555 1_555
N2 C2 1_555 1_555
N3 C7 1_555 1_555
C1 N1 1_555 1_555
C2 C3 1_555 1_555
C3 C1 1_555 1_555
H1 C3 1_555 1_555
C4 S1 1_555 1_555
C5 C4 1_555 1_555
H2 C5 1_555 1_555
C6 C5 1_555 1_555
H3 C6 1_555 1_555
C7 C6 1_555 1_555
C8 C7 1_555 1_555
H4 C8 1_555 1_555
C9 C4 1_555 1_555
H5 C9 1_555 1_555
C10 N1 1_555 1_555
C11 C10 1_555 1_555
H6 C11 1_555 1_555
C12 C11 1_555 1_555
H7 C12 1_555 1_555
C13 C12 1_555 1_555
C14 C13 1_555 1_555
H8 C14 1_555 1_555
C15 C10 1_555 1_555
H9 C15 1_555 1_555
C16 C13 1_555 1_555
H10 C16 1_555 1_555
H11 C16 1_555 1_555
H12 C16 1_555 1_555
C17 C2 1_555 1_555
C18 C17 1_555 1_555
H13 C18 1_555 1_555
C19 C18 1_555 1_555
H14 C19 1_555 1_555
C20 C19 1_555 1_555
H15 C20 1_555 1_555
C21 C20 1_555 1_555
H16 C21 1_555 1_555
C22 C17 1_555 1_555
H17 C22 1_555 1_555
C8 C9 1_555 1_555
C14 C15 1_555 1_555
C21 C22 1_555 1_555

#END
