
#######################################################################
#
#                 Cambridge Crystallographic Data Centre
#                                CCDC 
#
#######################################################################
#
# If this CIF has been generated from an entry in the Cambridge 
# Structural Database, then it will include bibliographic, chemical, 
# crystal, experimental, refinement or atomic coordinate data resulting 
# from the CCDC's data processing and validation procedures.
#
#######################################################################

data_YAXDEI
_chemical_formula_moiety         'C12 H11 Br2 N1 O2'
_chemical_name_systematic        
3,6-Dibromo-7-(ethylamino)-4-methyl-2H-chromen-2-one
_symmetry_cell_setting           triclinic
_symmetry_space_group_name_H-M   'P -1'
_symmetry_Int_Tables_number      2
_space_group_name_Hall           '-P 1'
loop_
_symmetry_equiv_pos_site_id
_symmetry_equiv_pos_as_xyz
1 x,y,z
2 -x,-y,-z
_cell_length_a                   7.5795(9)
_cell_length_b                   7.6839(9)
_cell_length_c                   11.2610(14)
_cell_angle_alpha                93.628(2)
_cell_angle_beta                 98.288(3)
_cell_angle_gamma                102.626(3)
_cell_volume                     630.24
_exptl_crystal_colour            colorless
_exptl_crystal_description       block
_cell_formula_units_Z            2
loop_
_atom_site_label
_atom_site_type_symbol
_atom_site_fract_x
_atom_site_fract_y
_atom_site_fract_z
Br1 Br 0.93608(5) 0.72412(5) 0.21480(3)
Br2 Br 0.64459(6) 0.54212(6) 0.87739(3)
O1 O 0.5330(4) 0.1746(4) 0.7375(2)
O2 O 0.6172(3) 0.2336(3) 0.5627(2)
N1 N 0.7998(4) 0.3167(4) 0.1806(3)
C1 C 0.6005(5) 0.2886(5) 0.6787(3)
C2 C 0.6637(5) 0.4800(5) 0.7146(3)
C3 C 0.7310(4) 0.6008(4) 0.6420(3)
C4 C 0.7489(4) 0.5355(4) 0.5224(3)
C5 C 0.6917(4) 0.3514(4) 0.4864(3)
C6 C 0.7056(4) 0.2766(4) 0.3743(3)
H1 H 0.6655 0.1534 0.3547
C7 C 0.7792(4) 0.3845(4) 0.2908(3)
C8 C 0.8355(4) 0.5712(4) 0.3261(3)
C9 C 0.8197(4) 0.6442(4) 0.4371(3)
H2 H 0.8565 0.7677 0.4561
C10 C 0.7902(5) 0.7994(5) 0.6800(3)
H3 H 0.7510 0.8247 0.7552
H4 H 0.7361 0.8632 0.6195
H5 H 0.9213 0.8366 0.6894
C11 C 0.7252(5) 0.1281(5) 0.1345(3)
H6 H 0.5925 0.1010 0.1252
H7 H 0.7695 0.0515 0.1913
C12 C 0.7831(6) 0.0925(6) 0.0148(4)
H8 H 0.9142 0.1137 0.0251
H9 H 0.7420 0.1709 -0.0405
H10 H 0.7300 -0.0298 -0.0166
H11 H 0.848(4) 0.380(4) 0.128(2)
loop_
_geom_bond_atom_site_label_1
_geom_bond_atom_site_label_2
_geom_bond_site_symmetry_1
_geom_bond_site_symmetry_2
Br1 C8 1_555 1_555
Br2 C2 1_555 1_555
O1 C1 1_555 1_555
O2 C1 1_555 1_555
N1 C7 1_555 1_555
C1 C2 1_555 1_555
C2 C3 1_555 1_555
C3 C4 1_555 1_555
C4 C5 1_555 1_555
C5 O2 1_555 1_555
C6 C5 1_555 1_555
H1 C6 1_555 1_555
C7 C6 1_555 1_555
C8 C7 1_555 1_555
C9 C4 1_555 1_555
H2 C9 1_555 1_555
C10 C3 1_555 1_555
H3 C10 1_555 1_555
H4 C10 1_555 1_555
H5 C10 1_555 1_555
C11 N1 1_555 1_555
H6 C11 1_555 1_555
H7 C11 1_555 1_555
C12 C11 1_555 1_555
H8 C12 1_555 1_555
H9 C12 1_555 1_555
H10 C12 1_555 1_555
H11 N1 1_555 1_555
C8 C9 1_555 1_555

#END
