
#######################################################################
#
#                 Cambridge Crystallographic Data Centre
#                                CCDC 
#
#######################################################################
#
# If this CIF has been generated from an entry in the Cambridge 
# Structural Database, then it will include bibliographic, chemical, 
# crystal, experimental, refinement or atomic coordinate data resulting 
# from the CCDC's data processing and validation procedures.
#
#######################################################################

data_YAXDOS02
_chemical_formula_moiety         'C16 H16 Br1 N1'
_chemical_name_systematic        9-(4-bromobutyl)-9H-carbazole
_symmetry_cell_setting           orthorhombic
_symmetry_space_group_name_H-M   'P b c a'
_symmetry_Int_Tables_number      61
_space_group_name_Hall           '-P 2ac 2ab'
loop_
_symmetry_equiv_pos_site_id
_symmetry_equiv_pos_as_xyz
1 x,y,z
2 1/2-x,-y,1/2+z
3 -x,1/2+y,1/2-z
4 1/2+x,1/2-y,-z
5 -x,-y,-z
6 1/2+x,y,1/2-z
7 x,1/2-y,1/2+z
8 1/2-x,1/2+y,z
_cell_length_a                   16.0499(9)
_cell_length_b                   7.6796(3)
_cell_length_c                   22.6554(11)
_cell_angle_alpha                90
_cell_angle_beta                 90
_cell_angle_gamma                90
_cell_volume                     2792.43
_exptl_crystal_colour            colorless
_exptl_crystal_description       rodlike
_cell_formula_units_Z            8
loop_
_atom_site_label
_atom_site_type_symbol
_atom_site_fract_x
_atom_site_fract_y
_atom_site_fract_z
Br1 Br 0.14910(4) 0.67749(6) 0.01103(3)
N1 N 0.0678(2) -0.0439(4) 0.13363(13)
C1 C 0.0941(3) 0.2736(5) 0.1330(2)
H1 H 0.1147 0.2657 0.1731
H2 H 0.0350 0.2994 0.1347
C2 C 0.0915(3) 0.4825(6) 0.0510(2)
H3 H 0.0369 0.5202 0.0643
H4 H 0.0841 0.3868 0.0236
C3 C -0.0655(3) -0.0603(7) 0.0779(2)
C4 C -0.1384(4) -0.1569(10) 0.0753(3)
H5 H -0.1778 -0.1280 0.0469
C5 C -0.1552(4) -0.2952(10) 0.1132(3)
H6 H -0.2052 -0.3555 0.1096
C6 C -0.0990(3) -0.3442(6) 0.1562(2)
H7 H -0.1105 -0.4369 0.1813
C7 C 0.1444(4) -0.3451(6) 0.2731(2)
H8 H 0.1594 -0.4156 0.3047
C8 C 0.1983(3) -0.2173(6) 0.2539(2)
H9 H 0.2493 -0.2038 0.2728
C9 C 0.0689(3) -0.3693(5) 0.2460(2)
H10 H 0.0327 -0.4557 0.2591
C10 C 0.1065(3) 0.1012(5) 0.10268(17)
H11 H 0.0836 0.1079 0.0631
H12 H 0.1658 0.0788 0.0991
C11 C -0.0096(3) -0.1129(5) 0.12161(17)
C12 C 0.1399(3) 0.4255(6) 0.1006(2)
H13 H 0.1481 0.5218 0.1277
H14 H 0.1942 0.3863 0.0873
C13 C -0.0242(3) -0.2515(5) 0.16122(19)
C14 C 0.1787(3) -0.1094(5) 0.20760(18)
H15 H 0.2154 -0.0236 0.1950
C15 C 0.1032(3) -0.1325(4) 0.18068(16)
C16 C 0.0471(3) -0.2634(4) 0.19893(17)
loop_
_geom_bond_atom_site_label_1
_geom_bond_atom_site_label_2
_geom_bond_site_symmetry_1
_geom_bond_site_symmetry_2
Br1 C2 1_555 1_555
N1 C10 1_555 1_555
C1 H1 1_555 1_555
H2 C1 1_555 1_555
C2 H3 1_555 1_555
H4 C2 1_555 1_555
C3 C4 1_555 1_555
C4 H5 1_555 1_555
C5 C4 1_555 1_555
H6 C5 1_555 1_555
C6 C5 1_555 1_555
H7 C6 1_555 1_555
C7 H8 1_555 1_555
C8 C7 1_555 1_555
H9 C8 1_555 1_555
C9 C7 1_555 1_555
H10 C9 1_555 1_555
C10 C1 1_555 1_555
H11 C10 1_555 1_555
H12 C10 1_555 1_555
C11 N1 1_555 1_555
C12 C1 1_555 1_555
H13 C12 1_555 1_555
H14 C12 1_555 1_555
C13 C6 1_555 1_555
C14 C8 1_555 1_555
H15 C14 1_555 1_555
C15 N1 1_555 1_555
C16 C9 1_555 1_555
C2 C12 1_555 1_555
C3 C11 1_555 1_555
C11 C13 1_555 1_555
C13 C16 1_555 1_555
C14 C15 1_555 1_555
C15 C16 1_555 1_555

#END
