
#######################################################################
#
#                 Cambridge Crystallographic Data Centre
#                                CCDC 
#
#######################################################################
#
# If this CIF has been generated from an entry in the Cambridge 
# Structural Database, then it will include bibliographic, chemical, 
# crystal, experimental, refinement or atomic coordinate data resulting 
# from the CCDC's data processing and validation procedures.
#
#######################################################################

data_YAXFIO
_chemical_formula_moiety         'C18 H10 Cl2 N2 S1,2(H2 O1)'
_chemical_name_systematic        
"4,4'-Sulfanediylbis(7-chloroquinoline) dihydrate"
_symmetry_cell_setting           monoclinic
_symmetry_space_group_name_H-M   'P 21/n'
_symmetry_Int_Tables_number      14
_space_group_name_Hall           '-P 2yn'
loop_
_symmetry_equiv_pos_site_id
_symmetry_equiv_pos_as_xyz
1 x,y,z
2 1/2-x,1/2+y,1/2-z
3 -x,-y,-z
4 1/2+x,1/2-y,1/2+z
_cell_length_a                   7.8228(2)
_cell_length_b                   11.5596(3)
_cell_length_c                   19.2421(13)
_cell_angle_alpha                90
_cell_angle_beta                 97.384(7)
_cell_angle_gamma                90
_cell_volume                     1725.6
_exptl_crystal_colour            colorless
_cell_formula_units_Z            4
loop_
_atom_site_label
_atom_site_type_symbol
_atom_site_fract_x
_atom_site_fract_y
_atom_site_fract_z
Cl1 Cl 0.85633(5) 1.32103(3) 0.808816(19)
Cl2 Cl -0.32119(4) 0.87710(3) 1.034518(16)
S1 S 0.06139(4) 1.02020(3) 0.737790(16)
N1 N 0.52489(13) 1.07717(9) 0.61826(5)
N2 N 0.23604(14) 0.80256(9) 0.93354(5)
C1 C 0.39198(17) 1.01334(11) 0.59386(7)
H1 H 0.3906 0.9805 0.5485
C2 C 0.25041(16) 0.99018(11) 0.63076(7)
H2 H 0.1584 0.9422 0.6108
C3 C 0.24849(15) 1.03816(11) 0.69563(6)
C4 C 0.38920(15) 1.10900(10) 0.72461(6)
C5 C 0.40017(16) 1.16405(11) 0.79070(6)
H3 H 0.3077 1.1563 0.8179
C6 C 0.54164(17) 1.22826(11) 0.81616(7)
H4 H 0.5484 1.2640 0.8609
C7 C 0.67699(16) 1.24043(11) 0.77498(7)
C8 C 0.67128(16) 1.19187(11) 0.71010(7)
H5 H 0.7634 1.2031 0.6831
C9 C 0.52619(16) 1.12451(10) 0.68348(6)
C10 C 0.13671(15) 0.93878(10) 0.81318(6)
C11 C 0.29263(16) 0.88236(11) 0.82280(6)
H6 H 0.3700 0.8880 0.7887
C12 C 0.33593(16) 0.81603(11) 0.88393(7)
H7 H 0.4448 0.7784 0.8898
C13 C 0.07979(15) 0.85759(10) 0.92474(6)
C14 C -0.02935(16) 0.84226(11) 0.97723(6)
H8 H 0.0063 0.7951 1.0169
C15 C -0.18652(16) 0.89577(11) 0.97044(6)
C16 C -0.24385(16) 0.96705(11) 0.91269(7)
H9 H -0.3530 1.0041 0.9095
C17 C -0.14015(16) 0.98214(11) 0.86128(7)
H10 H -0.1785 1.0297 0.8221
C18 C 0.02362(15) 0.92796(10) 0.86552(6)
O1 O 0.84280(13) 1.08318(9) 0.56043(6)
H11 H 0.7463(16) 1.0890(16) 0.5755(10)
H12 H 0.862(2) 1.0129(9) 0.5534(10)
O2 O 0.41907(12) 0.64316(8) 1.02803(5)
H13 H 0.3515(19) 0.6916(13) 1.0055(8)
H14 H 0.5009(17) 0.6346(15) 1.0038(8)
loop_
_geom_bond_atom_site_label_1
_geom_bond_atom_site_label_2
_geom_bond_site_symmetry_1
_geom_bond_site_symmetry_2
Cl1 C7 1_555 1_555
Cl2 C15 1_555 1_555
S1 C3 1_555 1_555
N1 C1 1_555 1_555
N2 C12 1_555 1_555
C1 H1 1_555 1_555
C2 C1 1_555 1_555
H2 C2 1_555 1_555
C3 C2 1_555 1_555
C4 C3 1_555 1_555
C5 C4 1_555 1_555
H3 C5 1_555 1_555
C6 C5 1_555 1_555
H4 C6 1_555 1_555
C7 C6 1_555 1_555
C8 C7 1_555 1_555
H5 C8 1_555 1_555
C9 N1 1_555 1_555
C10 S1 1_555 1_555
C11 C10 1_555 1_555
H6 C11 1_555 1_555
C12 C11 1_555 1_555
H7 C12 1_555 1_555
C13 N2 1_555 1_555
C14 C13 1_555 1_555
H8 C14 1_555 1_555
C15 C14 1_555 1_555
C16 C15 1_555 1_555
H9 C16 1_555 1_555
C17 C16 1_555 1_555
H10 C17 1_555 1_555
C18 C10 1_555 1_555
O1 H11 1_555 1_555
H12 O1 1_555 1_555
O2 H13 1_555 1_555
H14 O2 1_555 1_555
C4 C9 1_555 1_555
C8 C9 1_555 1_555
C13 C18 1_555 1_555
C17 C18 1_555 1_555

#END
