
#######################################################################
#
#                 Cambridge Crystallographic Data Centre
#                                CCDC 
#
#######################################################################
#
# If this CIF has been generated from an entry in the Cambridge 
# Structural Database, then it will include bibliographic, chemical, 
# crystal, experimental, refinement or atomic coordinate data resulting 
# from the CCDC's data processing and validation procedures.
#
#######################################################################

data_YAXGUB
_chemical_name_common            
'2,4-bis(diphenylphosphanyl)-1,1,2,3,3,4-hexaphenyl-1,3-diphospha-2,4-diboracyclobutane tetrahydrofuran solvate'
_chemical_formula_moiety         'C60 H50 B2 P4,1.5(C4 H8 O1)'
_chemical_name_systematic        
'2,4-bis(diphenylphosphino)-1,1,2,3,3,4-hexaphenyl-1,3,2,4-diphosphadiboretane tetrahydrofuran solvate'
_symmetry_cell_setting           orthorhombic
_symmetry_space_group_name_H-M   'P b c a'
_symmetry_Int_Tables_number      61
_space_group_name_Hall           '-P 2ac 2ab'
loop_
_symmetry_equiv_pos_site_id
_symmetry_equiv_pos_as_xyz
1 x,y,z
2 1/2-x,-y,1/2+z
3 -x,1/2+y,1/2-z
4 1/2+x,1/2-y,-z
5 -x,-y,-z
6 1/2+x,y,1/2-z
7 x,1/2-y,1/2+z
8 1/2-x,1/2+y,z
_cell_length_a                   19.2421(4)
_cell_length_b                   11.6938(2)
_cell_length_c                   24.9769(5)
_cell_angle_alpha                90
_cell_angle_beta                 90
_cell_angle_gamma                90
_cell_volume                     5620.13
_exptl_crystal_colour            colorless
_exptl_crystal_description       prism
_cell_formula_units_Z            4
loop_
_atom_site_label
_atom_site_type_symbol
_atom_site_fract_x
_atom_site_fract_y
_atom_site_fract_z
O1 O 0.1940(2) 0.5614(5) 0.24577(17)
C1 C 0.2198(2) 0.5279(4) 0.1944(2)
H1 H 0.1834 0.5419 0.1672
H2 H 0.2297 0.4448 0.1948
C2 C 0.2832(2) 0.5897(4) 0.17909(16)
H3 H 0.2749 0.6378 0.1471
H4 H 0.3214 0.5356 0.1711
C3 C 0.3004(2) 0.6610(4) 0.22580(13)
H5 H 0.3059 0.7420 0.2151
H6 H 0.3441 0.6346 0.2427
C4 C 0.24158(17) 0.6479(4) 0.26295(13)
H7 H 0.2595 0.6279 0.2989
H8 H 0.2167 0.7217 0.2659
C5 C 1.06155(9) -0.01162(16) 0.34268(7)
C6 C 1.00019(10) 0.02724(18) 0.31988(7)
H9 H 0.9719 0.0795 0.3392
C7 C 0.97947(11) -0.00883(19) 0.26950(8)
H10 H 0.9371 0.0185 0.2547
C8 C 1.01996(11) -0.0841(2) 0.24080(8)
H11 H 1.0057 -0.1089 0.2063
C9 C 1.08146(11) -0.12344(19) 0.26268(8)
H12 H 1.1099 -0.1749 0.2430
C10 C 1.10164(10) -0.08786(17) 0.31321(7)
H13 H 1.1437 -0.1161 0.3280
C11 C 1.13848(10) 0.16430(16) 0.39173(7)
C12 C 1.20183(10) 0.18941(18) 0.41622(7)
H14 H 1.2214 0.1365 0.4408
C13 C 1.23674(11) 0.29054(19) 0.40521(9)
H15 H 1.2794 0.3070 0.4228
C14 C 1.20972(12) 0.36709(19) 0.36884(9)
H16 H 1.2332 0.4369 0.3617
C15 C 1.14820(11) 0.34169(18) 0.34279(9)
H17 H 1.1302 0.3933 0.3169
C16 C 1.11277(10) 0.24195(18) 0.35416(8)
H18 H 1.0704 0.2259 0.3362
C17 C 0.98211(9) 0.19751(16) 0.43708(7)
C18 C 1.01833(11) 0.29722(16) 0.45140(7)
H19 H 1.0579 0.2909 0.4740
C19 C 0.99832(12) 0.40388(18) 0.43376(9)
H20 H 1.0236 0.4696 0.4448
C20 C 0.94210(12) 0.41587(19) 0.40029(9)
H21 H 0.9291 0.4892 0.3874
C21 C 0.90491(12) 0.32050(19) 0.38570(8)
H22 H 0.8659 0.3282 0.3627
C22 C 0.92386(10) 0.21293(17) 0.40430(7)
H23 H 0.8967 0.1484 0.3946
C23 C 0.86269(9) -0.06475(16) 0.46070(6)
C24 C 0.82663(9) 0.03413(16) 0.47541(7)
H24 H 0.8517 0.1014 0.4844
C25 C 0.75461(10) 0.03493(18) 0.47697(8)
H25 H 0.7306 0.1022 0.4876
C26 C 0.71758(10) -0.06199(19) 0.46314(8)
H26 H 0.6682 -0.0612 0.4639
C27 C 0.75253(10) -0.15974(18) 0.44826(8)
H27 H 0.7271 -0.2259 0.4381
C28 C 0.82462(10) -0.16246(17) 0.44795(7)
H28 H 0.8482 -0.2313 0.4390
C29 C 0.98791(10) -0.18291(16) 0.42454(7)
C30 C 0.95519(11) -0.21012(17) 0.37607(7)
H29 H 0.9138 -0.1714 0.3660
C31 C 0.98292(11) -0.29323(18) 0.34282(8)
H30 H 0.9600 -0.3124 0.3104
C32 C 1.04372(12) -0.34830(17) 0.35668(8)
H31 H 1.0624 -0.4054 0.3338
C33 C 1.07740(11) -0.32094(17) 0.40355(8)
H32 H 1.1197 -0.3581 0.4126
C34 C 1.04967(10) -0.23923(16) 0.43754(7)
H33 H 1.0729 -0.2213 0.4700
B1 B 1.01311(10) 0.07717(18) 0.45461(7)
P1 P 1.09614(2) 0.02764(4) 0.409099(17)
P2 P 0.95699(2) -0.06707(4) 0.467327(17)
C5D C 0.93845(9) 0.01162(16) 0.65732(7)
C6D C 0.99981(10) -0.02724(18) 0.68012(7)
H9D H 1.0281 -0.0795 0.6608
C7D C 1.02053(11) 0.00883(19) 0.73050(8)
H10D H 1.0629 -0.0185 0.7453
C8D C 0.98004(11) 0.0841(2) 0.75920(8)
H11D H 0.9943 0.1089 0.7937
C9D C 0.91854(11) 0.12344(19) 0.73732(8)
H12D H 0.8901 0.1749 0.7570
C10D C 0.89836(10) 0.08786(17) 0.68679(7)
H13D H 0.8563 0.1161 0.6720
C11D C 0.86152(10) -0.16430(16) 0.60827(7)
C12D C 0.79817(10) -0.18941(18) 0.58378(7)
H14D H 0.7786 -0.1365 0.5592
C13D C 0.76326(11) -0.29054(19) 0.59479(9)
H15D H 0.7206 -0.3070 0.5772
C14D C 0.79028(12) -0.36709(19) 0.63116(9)
H16D H 0.7668 -0.4369 0.6383
C15D C 0.85180(11) -0.34169(18) 0.65721(9)
H17D H 0.8698 -0.3933 0.6831
C16D C 0.88723(10) -0.24195(18) 0.64584(8)
H18D H 0.9296 -0.2259 0.6638
C17D C 1.01789(9) -0.19751(16) 0.56292(7)
C18D C 0.98167(11) -0.29722(16) 0.54860(7)
H19D H 0.9421 -0.2909 0.5260
C19D C 1.00168(12) -0.40388(18) 0.56624(9)
H20D H 0.9764 -0.4696 0.5552
C20D C 1.05790(12) -0.41587(19) 0.59971(9)
H21D H 1.0709 -0.4892 0.6126
C21D C 1.09509(12) -0.32050(19) 0.61430(8)
H22D H 1.1341 -0.3282 0.6373
C22D C 1.07614(10) -0.21293(17) 0.59570(7)
H23D H 1.1033 -0.1484 0.6054
C23D C 1.13731(9) 0.06475(16) 0.53930(6)
C24D C 1.17337(9) -0.03413(16) 0.52459(7)
H24D H 1.1483 -0.1014 0.5156
C25D C 1.24539(10) -0.03493(18) 0.52303(8)
H25D H 1.2694 -0.1022 0.5124
C26D C 1.28242(10) 0.06199(19) 0.53686(8)
H26D H 1.3318 0.0612 0.5361
C27D C 1.24747(10) 0.15974(18) 0.55174(8)
H27D H 1.2729 0.2259 0.5619
C28D C 1.17538(10) 0.16246(17) 0.55205(7)
H28D H 1.1518 0.2313 0.5610
C29D C 1.01209(10) 0.18291(16) 0.57546(7)
C30D C 1.04481(11) 0.21012(17) 0.62393(7)
H29D H 1.0862 0.1714 0.6340
C31D C 1.01708(11) 0.29323(18) 0.65718(8)
H30D H 1.0400 0.3124 0.6896
C32D C 0.95628(12) 0.34830(17) 0.64332(8)
H31D H 0.9376 0.4054 0.6662
C33D C 0.92260(11) 0.32094(17) 0.59645(8)
H32D H 0.8803 0.3581 0.5874
C34D C 0.95033(10) 0.23923(16) 0.56246(7)
H33D H 0.9271 0.2213 0.5300
B1D B 0.98689(10) -0.07717(18) 0.54539(7)
P1D P 0.90386(2) -0.02764(4) 0.590901(17)
P2D P 1.04301(2) 0.06707(4) 0.532673(17)
H34? H 0.1909 0.5086 0.1629
H35? H 0.2305 0.4572 0.2147
H36? H 0.2513 0.5891 0.2905
H37? H 0.2301 0.7211 0.2808
O2? O 0.1872(2) 0.6123(6) 0.2276(2)
loop_
_geom_bond_atom_site_label_1
_geom_bond_atom_site_label_2
_geom_bond_site_symmetry_1
_geom_bond_site_symmetry_2
O1 C1 1_555 1_555
C1 H1 1_555 1_555
H2 C1 1_555 1_555
C2 C1 1_555 1_555
H3 C2 1_555 1_555
H4 C2 1_555 1_555
C3 C2 1_555 1_555
H5 C3 1_555 1_555
H6 C3 1_555 1_555
C4 O1 1_555 1_555
H7 C4 1_555 1_555
H8 C4 1_555 1_555
C5 C6 1_555 1_555
C6 H9 1_555 1_555
C7 C6 1_555 1_555
H10 C7 1_555 1_555
C8 C7 1_555 1_555
H11 C8 1_555 1_555
C9 C8 1_555 1_555
H12 C9 1_555 1_555
C10 C5 1_555 1_555
H13 C10 1_555 1_555
C11 C12 1_555 1_555
C12 H14 1_555 1_555
C13 C12 1_555 1_555
H15 C13 1_555 1_555
C14 C13 1_555 1_555
H16 C14 1_555 1_555
C15 C14 1_555 1_555
H17 C15 1_555 1_555
C16 C11 1_555 1_555
H18 C16 1_555 1_555
C17 C18 1_555 1_555
C18 H19 1_555 1_555
C19 C18 1_555 1_555
H20 C19 1_555 1_555
C20 C19 1_555 1_555
H21 C20 1_555 1_555
C21 C20 1_555 1_555
H22 C21 1_555 1_555
C22 C17 1_555 1_555
H23 C22 1_555 1_555
C23 C24 1_555 1_555
C24 H24 1_555 1_555
C25 C24 1_555 1_555
H25 C25 1_555 1_555
C26 C25 1_555 1_555
H26 C26 1_555 1_555
C27 C26 1_555 1_555
H27 C27 1_555 1_555
C28 C23 1_555 1_555
H28 C28 1_555 1_555
C29 C30 1_555 1_555
C30 H29 1_555 1_555
C31 C30 1_555 1_555
H30 C31 1_555 1_555
C32 C31 1_555 1_555
H31 C32 1_555 1_555
C33 C32 1_555 1_555
H32 C33 1_555 1_555
C34 C29 1_555 1_555
H33 C34 1_555 1_555
B1 C17 1_555 1_555
P1 C5 1_555 1_555
P2 C23 1_555 1_555
C5D C6D 1_555 1_555
C6D H9D 1_555 1_555
C7D C6D 1_555 1_555
H10D C7D 1_555 1_555
C8D C7D 1_555 1_555
H11D C8D 1_555 1_555
C9D C8D 1_555 1_555
H12D C9D 1_555 1_555
C10D C5D 1_555 1_555
H13D C10D 1_555 1_555
C11D C12D 1_555 1_555
C12D H14D 1_555 1_555
C13D C12D 1_555 1_555
H15D C13D 1_555 1_555
C14D C13D 1_555 1_555
H16D C14D 1_555 1_555
C15D C14D 1_555 1_555
H17D C15D 1_555 1_555
C16D C11D 1_555 1_555
H18D C16D 1_555 1_555
C17D C18D 1_555 1_555
C18D H19D 1_555 1_555
C19D C18D 1_555 1_555
H20D C19D 1_555 1_555
C20D C19D 1_555 1_555
H21D C20D 1_555 1_555
C21D C20D 1_555 1_555
H22D C21D 1_555 1_555
C22D C17D 1_555 1_555
H23D C22D 1_555 1_555
C23D C24D 1_555 1_555
C24D H24D 1_555 1_555
C25D C24D 1_555 1_555
H25D C25D 1_555 1_555
C26D C25D 1_555 1_555
H26D C26D 1_555 1_555
C27D C26D 1_555 1_555
H27D C27D 1_555 1_555
C28D C23D 1_555 1_555
H28D C28D 1_555 1_555
C29D C30D 1_555 1_555
C30D H29D 1_555 1_555
C31D C30D 1_555 1_555
H30D C31D 1_555 1_555
C32D C31D 1_555 1_555
H31D C32D 1_555 1_555
C33D C32D 1_555 1_555
H32D C33D 1_555 1_555
C34D C29D 1_555 1_555
H33D C34D 1_555 1_555
B1D P2 1_555 1_555
P1D C5D 1_555 1_555
P2D B1 1_555 1_555
C3 C4 1_555 1_555
C9 C10 1_555 1_555
C11 P1 1_555 1_555
C15 C16 1_555 1_555
C21 C22 1_555 1_555
C27 C28 1_555 1_555
C29 P2 1_555 1_555
C33 C34 1_555 1_555
B1 P1 1_555 1_555
B1 P2 1_555 1_555
C9D C10D 1_555 1_555
C11D P1D 1_555 1_555
C15D C16D 1_555 1_555
C17D B1D 1_555 1_555
C21D C22D 1_555 1_555
C23D P2D 1_555 1_555
C27D C28D 1_555 1_555
C29D P2D 1_555 1_555
C33D C34D 1_555 1_555
B1D P1D 1_555 1_555
B1D P2D 1_555 1_555

#END
