
#######################################################################
#
#                 Cambridge Crystallographic Data Centre
#                                CCDC 
#
#######################################################################
#
# If this CIF has been generated from an entry in the Cambridge 
# Structural Database, then it will include bibliographic, chemical, 
# crystal, experimental, refinement or atomic coordinate data resulting 
# from the CCDC's data processing and validation procedures.
#
#######################################################################

data_YAXGEL
_chemical_formula_moiety         'C7 H10 O1 S4 Si1'
_chemical_name_systematic        
6,6-Dimethyl-6,7-dihydro-5H-[1,3]dithiolo[4,5-f][1,5,3]dithiasilepin-2-one
_symmetry_cell_setting           triclinic
_symmetry_space_group_name_H-M   'P -1'
_symmetry_Int_Tables_number      2
_space_group_name_Hall           '-P 1'
loop_
_symmetry_equiv_pos_site_id
_symmetry_equiv_pos_as_xyz
1 x,y,z
2 -x,-y,-z
_cell_length_a                   6.148(7)
_cell_length_b                   8.569(10)
_cell_length_c                   11.846(14)
_cell_angle_alpha                69.292(12)
_cell_angle_beta                 85.821(13)
_cell_angle_gamma                83.129(13)
_cell_volume                     579.248
_exptl_crystal_colour            colorless
_exptl_crystal_description       block
_cell_formula_units_Z            2
loop_
_atom_site_label
_atom_site_type_symbol
_atom_site_fract_x
_atom_site_fract_y
_atom_site_fract_z
C1 C 1.2928(4) 0.0788(3) 0.3530(2)
C2 C 0.9211(4) 0.2483(3) 0.2614(2)
C3 C 0.9299(4) 0.2691(3) 0.3675(2)
C4 C 0.7687(4) 0.5515(3) 0.0965(2)
H1 H 0.7085 0.6027 0.0167
H2 H 0.9260 0.5568 0.0873
C5 C 0.7677(4) 0.5943(3) 0.3452(2)
H3 H 0.9237 0.6060 0.3372
H4 H 0.7013 0.6636 0.3904
C6 C 0.7323(5) 0.8941(3) 0.1163(3)
H5 H 0.6818 0.9381 0.0351
H6 H 0.8890 0.8919 0.1147
H7 H 0.6672 0.9640 0.1601
C7 C 0.3523(4) 0.6708(4) 0.2051(3)
H8 H 0.2889 0.7372 0.2519
H9 H 0.3200 0.5568 0.2443
H10 H 0.2920 0.7145 0.1261
O1 O 1.4633(3) -0.0091(3) 0.37000(19)
S1 S 1.16208(11) 0.17662(9) 0.45212(6)
S2 S 1.14230(12) 0.12822(9) 0.22118(7)
S3 S 0.71611(11) 0.33291(8) 0.15538(7)
S4 S 0.72980(11) 0.37770(10) 0.43285(6)
Si1 Si 0.65327(11) 0.67844(9) 0.19121(7)
loop_
_geom_bond_atom_site_label_1
_geom_bond_atom_site_label_2
_geom_bond_site_symmetry_1
_geom_bond_site_symmetry_2
C1 O1 1_555 1_555
C2 C3 1_555 1_555
C3 S1 1_555 1_555
C4 H1 1_555 1_555
H2 C4 1_555 1_555
C5 H3 1_555 1_555
H4 C5 1_555 1_555
C6 H5 1_555 1_555
H6 C6 1_555 1_555
H7 C6 1_555 1_555
C7 H8 1_555 1_555
H9 C7 1_555 1_555
H10 C7 1_555 1_555
S1 C1 1_555 1_555
S2 C1 1_555 1_555
S3 C2 1_555 1_555
S4 C3 1_555 1_555
Si1 C4 1_555 1_555
C2 S2 1_555 1_555
C4 S3 1_555 1_555
C5 S4 1_555 1_555
C5 Si1 1_555 1_555
C6 Si1 1_555 1_555
C7 Si1 1_555 1_555

#END
