
#######################################################################
#
#                 Cambridge Crystallographic Data Centre
#                                CCDC 
#
#######################################################################
#
# If this CIF has been generated from an entry in the Cambridge 
# Structural Database, then it will include bibliographic, chemical, 
# crystal, experimental, refinement or atomic coordinate data resulting 
# from the CCDC's data processing and validation procedures.
#
#######################################################################

data_YAXGIP01
_chemical_formula_moiety         'C10 H6 O6 S2 2-,C2 H8 N1 1+,C1 H6 N3 1+'
_chemical_name_systematic        
'guanidinium dimethylammonium naphthalene-1,5-disulfonate'
_symmetry_cell_setting           triclinic
_symmetry_space_group_name_H-M   'P -1'
_symmetry_Int_Tables_number      2
_space_group_name_Hall           '-P 1'
loop_
_symmetry_equiv_pos_site_id
_symmetry_equiv_pos_as_xyz
1 x,y,z
2 -x,-y,-z
_cell_length_a                   8.7782(18)
_cell_length_b                   9.0316(18)
_cell_length_c                   11.923(2)
_cell_angle_alpha                87.10(3)
_cell_angle_beta                 74.74(3)
_cell_angle_gamma                88.77(3)
_cell_volume                     910.74
_exptl_crystal_colour            colorless
_exptl_crystal_description       block
_cell_formula_units_Z            2
loop_
_atom_site_label
_atom_site_type_symbol
_atom_site_fract_x
_atom_site_fract_y
_atom_site_fract_z
S1 S 0.56454(6) 1.10040(6) 0.20852(5)
O1 O 0.72470(18) 1.14764(18) 0.19535(15)
O2 O 0.47542(19) 1.21224(18) 0.15867(15)
O3 O 0.5537(2) 0.95431(18) 0.16728(16)
C1 C 0.4733(2) 1.0921(2) 0.3610(2)
C2 C 0.3440(3) 1.1794(3) 0.4035(2)
H1 H 0.3017 1.2376 0.3523
C3 C 0.2749(3) 1.1819(3) 0.5227(3)
H2 H 0.1878 1.2430 0.5500
C4 C 0.3320(3) 1.0973(3) 0.5998(2)
H3 H 0.2843 1.1018 0.6791
C5 C 0.4640(2) 1.0017(2) 0.5607(2)
S1A S 0.43546(6) 0.89960(6) 0.79148(5)
O1A O 0.27530(18) 0.85236(18) 0.80465(15)
O2A O 0.52458(19) 0.78776(18) 0.84133(15)
O3A O 0.4463(2) 1.04569(18) 0.83272(16)
C1A C 0.5267(2) 0.9079(2) 0.6390(2)
C2A C 0.6560(3) 0.8206(3) 0.5965(2)
H1A H 0.6983 0.7624 0.6477
C3A C 0.7251(3) 0.8181(3) 0.4773(3)
H2A H 0.8122 0.7570 0.4500
C4A C 0.6680(3) 0.9027(3) 0.4002(2)
H3A H 0.7157 0.8982 0.3209
C5A C 0.5360(2) 0.9983(2) 0.4393(2)
C6 C 0.1383(3) 0.9844(2) 0.12679(19)
N1 N -0.0065(2) 0.9450(2) 0.1321(2)
H4 H -0.0779 1.0115 0.1317
H5 H -0.0300 0.8526 0.1361
N2 N 0.1747(3) 1.1261(2) 0.12075(19)
H6 H 0.1034 1.1928 0.1203
H7 H 0.2697 1.1517 0.1173
N3 N 0.2482(2) 0.8819(2) 0.12657(18)
H8 H 0.2247 0.7896 0.1299
H9 H 0.3432 0.9077 0.1231
C7 C 0.6168(4) 0.6027(3) 0.0828(3)
H10 H 0.5056 0.6163 0.0916
H11 H 0.6669 0.5753 0.0049
H12 H 0.6613 0.6934 0.0978
C8 C 0.5666(4) 0.5162(4) 0.2865(3)
H13 H 0.6138 0.6018 0.3077
H14 H 0.5807 0.4322 0.3355
H15 H 0.4559 0.5344 0.2961
N4 N 0.6420(3) 0.4860(2) 0.1648(2)
H16 H 0.7465 0.4739 0.1558
H17 H 0.6042 0.4005 0.1478
C9 C -0.0137(2) 0.4444(2) 0.3530(2)
C10 C -0.0994(3) 0.3161(2) 0.3832(2)
H18 H -0.1247 0.2632 0.3256
C11 C -0.1487(3) 0.2647(3) 0.4988(2)
H19 H -0.2053 0.1769 0.5174
C12 C -0.1155(3) 0.3404(2) 0.5852(2)
H20 H -0.1513 0.3050 0.6622
C13 C -0.0266(2) 0.4732(2) 0.55895(19)
S2 S 0.03040(7) 0.51286(6) 0.20605(5)
O4 O 0.1966(2) 0.5447(2) 0.16779(16)
O5 O -0.0671(2) 0.64568(17) 0.20878(16)
O6 O -0.0188(2) 0.39850(18) 0.14233(15)
C9A C 0.0137(2) 0.5556(2) 0.6470(2)
C10A C 0.0994(3) 0.6839(2) 0.6168(2)
H18A H 0.1247 0.7368 0.6744
C11A C 0.1487(3) 0.7353(3) 0.5012(2)
H19A H 0.2053 0.8231 0.4826
C12A C 0.1155(3) 0.6596(2) 0.4148(2)
H20A H 0.1513 0.6950 0.3378
C13A C 0.0266(2) 0.5268(2) 0.44105(19)
S2A S -0.03040(7) 0.48714(6) 0.79395(5)
O4A O -0.1966(2) 0.4553(2) 0.83221(16)
O5A O 0.0671(2) 0.35432(17) 0.79122(16)
O6A O 0.0188(2) 0.60150(18) 0.85767(15)
loop_
_geom_bond_atom_site_label_1
_geom_bond_atom_site_label_2
_geom_bond_site_symmetry_1
_geom_bond_site_symmetry_2
S1 O1 1_555 1_555
O2 S1 1_555 1_555
O3 S1 1_555 1_555
C1 S1 1_555 1_555
C2 C1 1_555 1_555
H1 C2 1_555 1_555
C3 C2 1_555 1_555
H2 C3 1_555 1_555
C4 C3 1_555 1_555
H3 C4 1_555 1_555
C5 C4 1_555 1_555
C6 N1 1_555 1_555
N1 H4 1_555 1_555
H5 N1 1_555 1_555
N2 C6 1_555 1_555
H6 N2 1_555 1_555
H7 N2 1_555 1_555
N3 C6 1_555 1_555
H8 N3 1_555 1_555
H9 N3 1_555 1_555
C7 H10 1_555 1_555
H11 C7 1_555 1_555
H12 C7 1_555 1_555
C8 H13 1_555 1_555
H14 C8 1_555 1_555
H15 C8 1_555 1_555
N4 C7 1_555 1_555
H16 N4 1_555 1_555
H17 N4 1_555 1_555
C9 C10 1_555 1_555
C10 H18 1_555 1_555
C11 C10 1_555 1_555
H19 C11 1_555 1_555
C12 C11 1_555 1_555
H20 C12 1_555 1_555
C13 C12 1_555 1_555
S2 C9 1_555 1_555
O4 S2 1_555 1_555
O5 S2 1_555 1_555
O6 S2 1_555 1_555
S1A O1A 1_555 1_555
O2A S1A 1_555 1_555
O3A S1A 1_555 1_555
C1A C5 1_555 1_555
C2A C1A 1_555 1_555
H1A C2A 1_555 1_555
C3A C2A 1_555 1_555
H2A C3A 1_555 1_555
C4A C3A 1_555 1_555
H3A C4A 1_555 1_555
C5A C1 1_555 1_555
C9A C13 1_555 1_555
C10A C9A 1_555 1_555
H18A C10A 1_555 1_555
C11A C10A 1_555 1_555
H19A C11A 1_555 1_555
C12A C11A 1_555 1_555
H20A C12A 1_555 1_555
C13A C9 1_555 1_555
S2A C9A 1_555 1_555
O4A S2A 1_555 1_555
O5A S2A 1_555 1_555
O6A S2A 1_555 1_555
C5 C5A 1_555 1_555
C8 N4 1_555 1_555
C13 C13A 1_555 1_555
S1A C1A 1_555 1_555
C4A C5A 1_555 1_555
C12A C13A 1_555 1_555

#END
