
#######################################################################
#
#                 Cambridge Crystallographic Data Centre
#                                CCDC 
#
#######################################################################
#
# If this CIF has been generated from an entry in the Cambridge 
# Structural Database, then it will include bibliographic, chemical, 
# crystal, experimental, refinement or atomic coordinate data resulting 
# from the CCDC's data processing and validation procedures.
#
#######################################################################

data_YAXHUC
_chemical_formula_moiety         'C17 H21 N1'
_chemical_name_systematic        (E)-N-Benzylideneadamantan-1-amine
_symmetry_cell_setting           orthorhombic
_symmetry_space_group_name_H-M   'P 21 21 21'
_symmetry_Int_Tables_number      19
_space_group_name_Hall           'P 2ac 2ab'
loop_
_symmetry_equiv_pos_site_id
_symmetry_equiv_pos_as_xyz
1 x,y,z
2 1/2-x,-y,1/2+z
3 -x,1/2+y,1/2-z
4 1/2+x,1/2-y,-z
_cell_length_a                   6.480(2)
_cell_length_b                   7.141(2)
_cell_length_c                   29.674(11)
_cell_angle_alpha                90
_cell_angle_beta                 90
_cell_angle_gamma                90
_cell_volume                     1373.13
_exptl_crystal_colour            colorless
_exptl_crystal_description       plate
_chemical_melting_point          '320.5 K'
_cell_formula_units_Z            4
loop_
_atom_site_label
_atom_site_type_symbol
_atom_site_fract_x
_atom_site_fract_y
_atom_site_fract_z
C1 C 0.1858(3) 0.5833(3) 0.14354(7)
C2 C 0.3828(4) 0.5357(3) 0.16995(9)
H1 H 0.4953 0.5136 0.1490
H2 H 0.3611 0.4222 0.1872
C3 C 0.2221(4) 0.7625(3) 0.11730(8)
H3 H 0.0982 0.7945 0.1007
H4 H 0.3326 0.7429 0.0957
C4 C 0.0121(3) 0.6168(3) 0.17747(8)
H5 H -0.0107 0.5039 0.1950
H6 H -0.1146 0.6458 0.1615
C5 C 0.0674(4) 0.7804(3) 0.20945(7)
H7 H -0.0453 0.8011 0.2309
C6 C 0.2638(4) 0.7272(4) 0.23476(9)
H8 H 0.2993 0.8259 0.2558
H9 H 0.2402 0.6133 0.2518
C7 C 0.4407(4) 0.6974(3) 0.20206(8)
H10 H 0.5671 0.6664 0.2186
C8 C 0.4736(4) 0.8731(3) 0.17412(9)
H11 H 0.5135 0.9755 0.1938
H12 H 0.5848 0.8522 0.1528
C9 C 0.2796(4) 0.9257(3) 0.14885(8)
H13 H 0.3031 1.0398 0.1312
C10 C 0.1026(4) 0.9556(3) 0.18180(9)
H14 H 0.1348 1.0595 0.2016
H15 H -0.0221 0.9865 0.1653
C11 C -0.0168(4) 0.3554(3) 0.10652(8)
H16 H -0.1226 0.3914 0.1258
C12 C -0.0603(4) 0.2091(3) 0.07252(8)
C13 C 0.0838(4) 0.1560(3) 0.04071(8)
H17 H 0.2133 0.2121 0.0404
C14 C 0.0355(6) 0.0188(3) 0.00920(9)
H18 H 0.1322 -0.0163 -0.0124
C15 C -0.1551(6) -0.0648(4) 0.00991(9)
H19 H -0.1870 -0.1577 -0.0109
C16 C -0.2978(5) -0.0116(4) 0.04126(10)
H20 H -0.4274 -0.0676 0.0416
C17 C -0.2507(4) 0.1241(4) 0.07226(9)
H21 H -0.3490 0.1592 0.0935
N1 N 0.1537(3) 0.4325(2) 0.11053(6)
loop_
_geom_bond_atom_site_label_1
_geom_bond_atom_site_label_2
_geom_bond_site_symmetry_1
_geom_bond_site_symmetry_2
C1 C2 1_555 1_555
C2 H1 1_555 1_555
H2 C2 1_555 1_555
C3 C1 1_555 1_555
H3 C3 1_555 1_555
H4 C3 1_555 1_555
C4 C1 1_555 1_555
H5 C4 1_555 1_555
H6 C4 1_555 1_555
C5 C4 1_555 1_555
H7 C5 1_555 1_555
C6 C5 1_555 1_555
H8 C6 1_555 1_555
H9 C6 1_555 1_555
C7 C2 1_555 1_555
H10 C7 1_555 1_555
C8 C7 1_555 1_555
H11 C8 1_555 1_555
H12 C8 1_555 1_555
C9 C3 1_555 1_555
H13 C9 1_555 1_555
C10 C5 1_555 1_555
H14 C10 1_555 1_555
H15 C10 1_555 1_555
C11 H16 1_555 1_555
C12 C11 1_555 1_555
C13 C12 1_555 1_555
H17 C13 1_555 1_555
C14 C13 1_555 1_555
H18 C14 1_555 1_555
C15 C14 1_555 1_555
H19 C15 1_555 1_555
C16 C15 1_555 1_555
H20 C16 1_555 1_555
C17 C12 1_555 1_555
H21 C17 1_555 1_555
N1 C1 1_555 1_555
C6 C7 1_555 1_555
C8 C9 1_555 1_555
C9 C10 1_555 1_555
C11 N1 1_555 1_555
C16 C17 1_555 1_555

#END
