
#######################################################################
#
#                 Cambridge Crystallographic Data Centre
#                                CCDC 
#
#######################################################################
#
# If this CIF has been generated from an entry in the Cambridge 
# Structural Database, then it will include bibliographic, chemical, 
# crystal, experimental, refinement or atomic coordinate data resulting 
# from the CCDC's data processing and validation procedures.
#
#######################################################################

data_YAXHIQ
_chemical_formula_moiety         'C15 H17 N1 O8'
_chemical_name_systematic        
'(4R*,5R*)-Diethyl 2-(4-nitrophenyl)-1,3-dioxolane-4,5-dicarboxylate'
_symmetry_cell_setting           monoclinic
_symmetry_space_group_name_H-M   'P 21'
_symmetry_Int_Tables_number      4
_space_group_name_Hall           'P 2yb'
loop_
_symmetry_equiv_pos_site_id
_symmetry_equiv_pos_as_xyz
1 x,y,z
2 -x,1/2+y,-z
_cell_length_a                   12.261(3)
_cell_length_b                   4.5200(9)
_cell_length_c                   15.656(3)
_cell_angle_alpha                90
_cell_angle_beta                 112.27(3)
_cell_angle_gamma                90
_cell_volume                     802.932
_exptl_crystal_colour            colorless
_exptl_crystal_description       block
_cell_formula_units_Z            2
loop_
_atom_site_label
_atom_site_type_symbol
_atom_site_fract_x
_atom_site_fract_y
_atom_site_fract_z
N1 N 0.1597(5) 0.1051(17) 0.6035(3)
C1 C 0.3496(4) -0.1471(14) 0.4814(3)
H1 H 0.4154 -0.2670 0.4932
O1 O 0.0820(6) 0.276(2) 0.5904(4)
C2 C 0.3039(4) -0.1052(17) 0.5489(3)
H2 H 0.3396 -0.1929 0.6066
O2 O 0.2028(4) -0.0395(18) 0.6735(3)
O3 O 0.26487(19) -0.1203(6) 0.23682(14)
C3 C 0.2075(4) 0.0631(14) 0.5303(3)
O4 O 0.40116(19) 0.2240(6) 0.31395(14)
C4 C 0.1556(4) 0.2006(17) 0.4495(3)
H3 H 0.0895 0.3184 0.4387
O5 O 0.5315(2) 0.1545(8) 0.14859(18)
C5 C 0.2020(4) 0.1647(15) 0.3817(3)
H4 H 0.1675 0.2616 0.3254
C6 C 0.2981(3) -0.0121(9) 0.3972(2)
O6 O 0.5589(3) -0.1270(9) 0.2711(2)
C7 C 0.3507(3) -0.0501(8) 0.3259(2)
H5 H 0.4116 -0.2038 0.3455
C8 C 0.4003(3) 0.2225(8) 0.2239(2)
H6 H 0.3970 0.4254 0.2010
O7 O 0.1014(2) 0.2755(6) 0.15578(16)
C9 C 0.2829(3) 0.0569(8) 0.1691(2)
H7 H 0.2942 -0.0709 0.1226
O8 O 0.1850(2) 0.4257(7) 0.05872(16)
C10 C 0.5053(3) 0.0613(9) 0.2180(3)
C11 C 0.6333(4) 0.0176(15) 0.1381(3)
H8 H 0.6229 -0.1952 0.1325
H9 H 0.7040 0.0595 0.1917
C12 C 0.6445(5) 0.1387(18) 0.0547(4)
H10 H 0.7100 0.0469 0.0457
H11 H 0.6573 0.3484 0.0616
H12 H 0.5735 0.1000 0.0022
C13 C 0.1838(3) 0.2735(8) 0.1218(2)
C14 C 0.0027(4) 0.4800(12) 0.1144(3)
H13 H 0.0301 0.6610 0.0960
H14 H -0.0562 0.3910 0.0601
C15 C -0.0484(5) 0.5452(19) 0.1824(4)
H15 H -0.1132 0.6799 0.1563
H16 H 0.0103 0.6335 0.2359
H17 H -0.0761 0.3653 0.1998
loop_
_geom_bond_atom_site_label_1
_geom_bond_atom_site_label_2
_geom_bond_site_symmetry_1
_geom_bond_site_symmetry_2
N1 O1 1_555 1_555
C1 H1 1_555 1_555
C2 C1 1_555 1_555
H2 C2 1_555 1_555
O2 N1 1_555 1_555
O3 C7 1_555 1_555
C3 N1 1_555 1_555
O4 C7 1_555 1_555
C4 C3 1_555 1_555
H3 C4 1_555 1_555
O5 C10 1_555 1_555
C5 C4 1_555 1_555
H4 C5 1_555 1_555
C6 C1 1_555 1_555
O6 C10 1_555 1_555
C7 C6 1_555 1_555
H5 C7 1_555 1_555
C8 O4 1_555 1_555
H6 C8 1_555 1_555
O7 C13 1_555 1_555
C9 O3 1_555 1_555
H7 C9 1_555 1_555
O8 C13 1_555 1_555
C10 C8 1_555 1_555
C11 O5 1_555 1_555
H8 C11 1_555 1_555
H9 C11 1_555 1_555
C12 C11 1_555 1_555
H10 C12 1_555 1_555
H11 C12 1_555 1_555
H12 C12 1_555 1_555
C13 C9 1_555 1_555
C14 O7 1_555 1_555
H13 C14 1_555 1_555
H14 C14 1_555 1_555
C15 C14 1_555 1_555
H15 C15 1_555 1_555
H16 C15 1_555 1_555
H17 C15 1_555 1_555
C2 C3 1_555 1_555
C5 C6 1_555 1_555
C8 C9 1_555 1_555

#END
