
#######################################################################
#
#                 Cambridge Crystallographic Data Centre
#                                CCDC 
#
#######################################################################
#
# If this CIF has been generated from an entry in the Cambridge 
# Structural Database, then it will include bibliographic, chemical, 
# crystal, experimental, refinement or atomic coordinate data resulting 
# from the CCDC's data processing and validation procedures.
#
#######################################################################

data_YAXLAM
_chemical_formula_moiety         'C16 H9 Cl2 N5 O2'
_chemical_name_systematic        
1-(2,4-Dichlorophenyl)-5-((2-nitrophenyl)amino)-1H-pyrazole-4-carbonitrile
_symmetry_cell_setting           orthorhombic
_symmetry_space_group_name_H-M   'P b c n'
_symmetry_Int_Tables_number      60
_space_group_name_Hall           '-P 2n 2ab'
loop_
_symmetry_equiv_pos_site_id
_symmetry_equiv_pos_as_xyz
1 x,y,z
2 1/2-x,1/2-y,1/2+z
3 -x,y,1/2-z
4 1/2+x,1/2-y,-z
5 -x,-y,-z
6 1/2+x,1/2+y,1/2-z
7 x,-y,1/2+z
8 1/2-x,1/2+y,z
_cell_length_a                   13.878(3)
_cell_length_b                   13.475(3)
_cell_length_c                   17.421(4)
_cell_angle_alpha                90
_cell_angle_beta                 90
_cell_angle_gamma                90
_cell_volume                     3257.83
_exptl_crystal_colour            yellow
_exptl_crystal_description       prism
_cell_formula_units_Z            8
loop_
_atom_site_label
_atom_site_type_symbol
_atom_site_fract_x
_atom_site_fract_y
_atom_site_fract_z
Cl1 Cl 0.15552(5) 0.60779(4) 0.46994(4)
Cl2 Cl -0.14562(5) 0.48959(6) 0.30041(5)
O1 O 0.35014(15) 0.63038(12) 0.30863(12)
O2 O 0.41521(15) 0.62525(14) 0.19700(10)
N1 N 0.20172(14) 0.33598(13) 0.53423(10)
N2 N 0.20985(13) 0.39203(11) 0.46920(9)
N3 N 0.54146(17) 0.37889(14) 0.51865(12)
N4 N 0.32727(13) 0.46781(13) 0.38776(9)
N5 N 0.37959(14) 0.58365(14) 0.25298(11)
C1 C 0.09266(15) 0.51444(13) 0.42412(12)
C2 C 0.00946(15) 0.53705(15) 0.38503(13)
H1 H -0.0128 0.6021 0.3830
C3 C -0.04013(16) 0.46247(16) 0.34907(13)
C4 C -0.00852(16) 0.36558(16) 0.35107(13)
H2 H -0.0428 0.3158 0.3261
C5 C 0.07443(15) 0.34366(14) 0.39045(12)
H3 H 0.0962 0.2785 0.3925
C6 C 0.12581(15) 0.41746(14) 0.42708(11)
C7 C 0.30239(15) 0.41365(13) 0.45245(11)
C8 C 0.35782(15) 0.37153(15) 0.50928(12)
C9 C 0.29092(16) 0.32434(15) 0.55794(11)
H4 H 0.3079 0.2890 0.6018
C10 C 0.45966(19) 0.37500(15) 0.51458(12)
C11 C 0.34423(13) 0.42402(14) 0.31790(11)
C12 C 0.33508(16) 0.32211(15) 0.30894(12)
H5 H 0.3164 0.2838 0.3508
C13 C 0.35285(19) 0.27656(18) 0.24013(15)
H6 H 0.3455 0.2082 0.2360
C14 C 0.3815(2) 0.3305(2) 0.17670(14)
H7 H 0.3942 0.2988 0.1304
C15 C 0.39084(16) 0.4299(2) 0.18286(12)
H8 H 0.4098 0.4670 0.1404
C16 C 0.37242(14) 0.47708(15) 0.25204(11)
H9 H 0.3360(18) 0.528(2) 0.3926(15)
loop_
_geom_bond_atom_site_label_1
_geom_bond_atom_site_label_2
_geom_bond_site_symmetry_1
_geom_bond_site_symmetry_2
Cl1 C1 1_555 1_555
Cl2 C3 1_555 1_555
O1 N5 1_555 1_555
O2 N5 1_555 1_555
N1 N2 1_555 1_555
N2 C6 1_555 1_555
N3 C10 1_555 1_555
N4 C7 1_555 1_555
N5 C16 1_555 1_555
C1 C2 1_555 1_555
C2 H1 1_555 1_555
C3 C2 1_555 1_555
C4 C3 1_555 1_555
H2 C4 1_555 1_555
C5 C4 1_555 1_555
H3 C5 1_555 1_555
C6 C1 1_555 1_555
C7 N2 1_555 1_555
C8 C7 1_555 1_555
C9 N1 1_555 1_555
H4 C9 1_555 1_555
C10 C8 1_555 1_555
C11 N4 1_555 1_555
C12 C11 1_555 1_555
H5 C12 1_555 1_555
C13 C12 1_555 1_555
H6 C13 1_555 1_555
C14 C13 1_555 1_555
H7 C14 1_555 1_555
C15 C14 1_555 1_555
H8 C15 1_555 1_555
C16 C11 1_555 1_555
H9 N4 1_555 1_555
C5 C6 1_555 1_555
C8 C9 1_555 1_555
C15 C16 1_555 1_555

#END
