
#######################################################################
#
#                 Cambridge Crystallographic Data Centre
#                                CCDC 
#
#######################################################################
#
# If this CIF has been generated from an entry in the Cambridge 
# Structural Database, then it will include bibliographic, chemical, 
# crystal, experimental, refinement or atomic coordinate data resulting 
# from the CCDC's data processing and validation procedures.
#
#######################################################################

data_YAXMAM
_chemical_formula_moiety         'C16 H34 N2 Se4,2(H2 O1)'
_chemical_name_systematic        
'1,11-Dimethyl-1,11-diaza-4,8,14,18-tetraselenacycloicosane dihydrate'
_symmetry_cell_setting           monoclinic
_symmetry_space_group_name_H-M   'C 2/c'
_symmetry_Int_Tables_number      15
_space_group_name_Hall           '-C 2yn'
loop_
_symmetry_equiv_pos_site_id
_symmetry_equiv_pos_as_xyz
1 x,y,z
2 1/2+x,1/2+y,z
3 -x,y,1/2-z
4 1/2-x,1/2+y,1/2-z
5 -x,-y,-z
6 1/2-x,1/2-y,-z
7 x,-y,1/2+z
8 1/2+x,1/2-y,1/2+z
_cell_length_a                   22.038(6)
_cell_length_b                   5.2657(14)
_cell_length_c                   22.387(6)
_cell_angle_alpha                90
_cell_angle_beta                 113.443(4)
_cell_angle_gamma                90
_cell_volume                     2383.47
_exptl_crystal_colour            colorless
_exptl_crystal_description       block
_chemical_melting_point          '49-52 deg.C'
_cell_formula_units_Z            4
_exptl_crystal_recrystallization_method acetone
loop_
_atom_site_label
_atom_site_type_symbol
_atom_site_fract_x
_atom_site_fract_y
_atom_site_fract_z
Se1 Se 1.12368(3) 0.59735(17) 0.11413(4)
Se2 Se 0.75724(4) 0.58234(19) 0.10373(4)
N1 N 0.9327(3) 0.8332(10) 0.0890(3)
C1 C 1.0516(3) 0.8140(13) 0.1141(4)
H1 H 1.0610 0.8695 0.1582
H2 H 1.0487 0.9636 0.0878
C2 C 0.9868(3) 0.6765(13) 0.0877(4)
H3 H 0.9770 0.6251 0.0432
H4 H 0.9902 0.5243 0.1132
C3 C 0.8754(3) 0.6745(14) 0.0823(4)
H5 H 0.8908 0.5260 0.1099
H6 H 0.8542 0.6165 0.0376
C4 C 0.8259(4) 0.8112(14) 0.1002(4)
H7 H 0.8054 0.9439 0.0685
H8 H 0.8483 0.8913 0.1424
C5 C 0.8089(3) 0.4068(14) 0.1845(3)
H9 H 0.7864 0.2502 0.1862
H10 H 0.8515 0.3618 0.1843
C6 C 0.8201(3) 0.5578(14) 0.2447(3)
H11 H 0.7777 0.6006 0.2458
H12 H 0.8424 0.7151 0.2434
C7 C 1.1389(3) 0.4138(13) 0.1941(3)
H13 H 1.0965 0.3730 0.1953
H14 H 1.1610 0.2551 0.1936
C8 C 0.9130(4) 1.0197(15) 0.0369(4)
H15 H 0.8971 0.9341 -0.0044
H16 H 0.9504 1.1233 0.0412
H17 H 0.8786 1.1249 0.0394
Se1B Se 0.87632(3) 0.59735(17) 0.38587(4)
Se2B Se 1.24276(4) 0.58234(19) 0.39627(4)
N1B N 1.0673(3) 0.8332(10) 0.4110(3)
C1B C 0.9484(3) 0.8140(13) 0.3859(4)
H1B H 0.9390 0.8695 0.3418
H2B H 0.9513 0.9636 0.4122
C2B C 1.0132(3) 0.6765(13) 0.4123(4)
H3B H 1.0230 0.6251 0.4568
H4B H 1.0098 0.5243 0.3868
C3B C 1.1246(3) 0.6745(14) 0.4177(4)
H5B H 1.1092 0.5260 0.3901
H6B H 1.1458 0.6165 0.4624
C4B C 1.1741(4) 0.8112(14) 0.3998(4)
H7B H 1.1946 0.9439 0.4315
H8B H 1.1517 0.8913 0.3576
C5B C 1.1911(3) 0.4068(14) 0.3155(3)
H9B H 1.2136 0.2502 0.3138
H10B H 1.1485 0.3618 0.3157
C6B C 1.1799(3) 0.5578(14) 0.2553(3)
H11B H 1.2223 0.6006 0.2542
H12B H 1.1576 0.7151 0.2566
C7B C 0.8611(3) 0.4138(13) 0.3059(3)
H13B H 0.9035 0.3730 0.3047
H14B H 0.8390 0.2551 0.3064
C8B C 1.0870(4) 1.0197(15) 0.4631(4)
H15B H 1.1029 0.9341 0.5044
H16B H 1.0496 1.1233 0.4588
H17B H 1.1214 1.1249 0.4606
O1 O 0.9783(5) 0.1808(19) 0.2054(5)
O2? O 0.9795(8) 0.718(3) 0.2286(6)
loop_
_geom_bond_atom_site_label_1
_geom_bond_atom_site_label_2
_geom_bond_site_symmetry_1
_geom_bond_site_symmetry_2
Se1 C1 1_555 1_555
Se2 C4 1_555 1_555
N1 C2 1_555 1_555
C1 H1 1_555 1_555
H2 C1 1_555 1_555
C2 C1 1_555 1_555
H3 C2 1_555 1_555
H4 C2 1_555 1_555
C3 N1 1_555 1_555
H5 C3 1_555 1_555
H6 C3 1_555 1_555
C4 C3 1_555 1_555
H7 C4 1_555 1_555
H8 C4 1_555 1_555
C5 Se2 1_555 1_555
H9 C5 1_555 1_555
H10 C5 1_555 1_555
C6 C5 1_555 1_555
H11 C6 1_555 1_555
H12 C6 1_555 1_555
C7 Se1 1_555 1_555
H13 C7 1_555 1_555
H14 C7 1_555 1_555
C8 N1 1_555 1_555
H15 C8 1_555 1_555
H16 C8 1_555 1_555
H17 C8 1_555 1_555
Se1B C1B 1_555 1_555
Se2B C4B 1_555 1_555
N1B C2B 1_555 1_555
C1B H1B 1_555 1_555
H2B C1B 1_555 1_555
C2B C1B 1_555 1_555
H3B C2B 1_555 1_555
H4B C2B 1_555 1_555
C3B N1B 1_555 1_555
H5B C3B 1_555 1_555
H6B C3B 1_555 1_555
C4B C3B 1_555 1_555
H7B C4B 1_555 1_555
H8B C4B 1_555 1_555
C5B Se2B 1_555 1_555
H9B C5B 1_555 1_555
H10B C5B 1_555 1_555
C6B C7 1_555 1_555
H11B C6B 1_555 1_555
H12B C6B 1_555 1_555
C7B C6 1_555 1_555
H13B C7B 1_555 1_555
H14B C7B 1_555 1_555
C8B N1B 1_555 1_555
H15B C8B 1_555 1_555
H16B C8B 1_555 1_555
H17B C8B 1_555 1_555
Se1B C7B 1_555 1_555
C5B C6B 1_555 1_555

#END
