
#######################################################################
#
#                 Cambridge Crystallographic Data Centre
#                                CCDC 
#
#######################################################################
#
# If this CIF has been generated from an entry in the Cambridge 
# Structural Database, then it will include bibliographic, chemical, 
# crystal, experimental, refinement or atomic coordinate data resulting 
# from the CCDC's data processing and validation procedures.
#
#######################################################################

data_YAXMAN
_chemical_formula_moiety         'C12 H7 Cl3 N4 O1'
_chemical_name_systematic        
2-Chloro-N-(3-cyano-1-(3,4-dichlorophenyl)-1H-pyrazol-5-yl)acetamide
_symmetry_cell_setting           monoclinic
_symmetry_space_group_name_H-M   'P 21/n'
_symmetry_Int_Tables_number      14
_space_group_name_Hall           '-P 2yn'
loop_
_symmetry_equiv_pos_site_id
_symmetry_equiv_pos_as_xyz
1 x,y,z
2 1/2-x,1/2+y,1/2-z
3 -x,-y,-z
4 1/2+x,1/2-y,1/2+z
_cell_length_a                   4.6280(9)
_cell_length_b                   17.245(3)
_cell_length_c                   17.468(4)
_cell_angle_alpha                90
_cell_angle_beta                 94.04(3)
_cell_angle_gamma                90
_cell_volume                     1390.65
_exptl_crystal_colour            colorless
_exptl_crystal_description       block
_chemical_melting_point          '473 K'
_cell_formula_units_Z            4
loop_
_atom_site_label
_atom_site_type_symbol
_atom_site_fract_x
_atom_site_fract_y
_atom_site_fract_z
O1 O 0.8240(5) 0.38138(13) 0.35313(18)
Cl1 Cl -0.40136(18) 0.21696(4) -0.00295(5)
C1 C -0.0120(6) 0.23735(15) 0.11596(15)
H1 H -0.0419 0.1852 0.1266
Cl2 Cl -0.3173(2) 0.39579(5) -0.03563(5)
N1 N 0.3510(5) 0.24173(12) 0.22197(12)
N2 N 0.4349(5) 0.16733(12) 0.21185(13)
C2 C -0.1647(6) 0.27227(15) 0.05502(15)
Cl3 Cl 0.69321(17) 0.53185(4) 0.41501(5)
C3 C -0.1258(7) 0.35054(16) 0.04024(15)
N3 N 0.8375(9) 0.01856(18) 0.2981(2)
N4 N 0.3729(4) 0.34308(13) 0.31669(13)
H2 H 0.1933 0.3562 0.3119
C4 C 0.0724(8) 0.39217(16) 0.08606(17)
H3 H 0.0990 0.4446 0.0762
C5 C 0.2322(7) 0.35752(15) 0.14625(16)
H4 H 0.3688 0.3857 0.1763
C6 C 0.1850(6) 0.27986(14) 0.16112(14)
C7 C 0.4522(5) 0.26933(16) 0.29174(15)
C8 C 0.6121(7) 0.21299(17) 0.32747(17)
H5 H 0.7116 0.2150 0.3756
C9 C 0.5948(7) 0.15113(15) 0.27610(16)
C10 C 0.7278(8) 0.07622(19) 0.28682(18)
C11 C 0.5659(6) 0.39367(15) 0.34757(15)
C12 C 0.4304(6) 0.46675(15) 0.37652(18)
H6 H 0.3004 0.4534 0.4157
H7 H 0.3171 0.4916 0.3346
loop_
_geom_bond_atom_site_label_1
_geom_bond_atom_site_label_2
_geom_bond_site_symmetry_1
_geom_bond_site_symmetry_2
O1 C11 1_555 1_555
Cl1 C2 1_555 1_555
C1 H1 1_555 1_555
Cl2 C3 1_555 1_555
N1 N2 1_555 1_555
N2 C9 1_555 1_555
C2 C1 1_555 1_555
Cl3 C12 1_555 1_555
C3 C2 1_555 1_555
N3 C10 1_555 1_555
N4 H2 1_555 1_555
C4 C3 1_555 1_555
H3 C4 1_555 1_555
C5 C4 1_555 1_555
H4 C5 1_555 1_555
C6 C1 1_555 1_555
C7 N1 1_555 1_555
C8 C7 1_555 1_555
H5 C8 1_555 1_555
C9 C8 1_555 1_555
C10 C9 1_555 1_555
C11 N4 1_555 1_555
C12 C11 1_555 1_555
H6 C12 1_555 1_555
H7 C12 1_555 1_555
N1 C6 1_555 1_555
N4 C7 1_555 1_555
C5 C6 1_555 1_555

#END
