
#######################################################################
#
#                 Cambridge Crystallographic Data Centre
#                                CCDC 
#
#######################################################################
#
# If this CIF has been generated from an entry in the Cambridge 
# Structural Database, then it will include bibliographic, chemical, 
# crystal, experimental, refinement or atomic coordinate data resulting 
# from the CCDC's data processing and validation procedures.
#
#######################################################################

data_YAXPIZ
_chemical_formula_moiety         'C19 H19 N1 O3'
_chemical_name_systematic        
2-ethyl-6-(4-methoxyphenyl)-4-oxo-3-phenyl-2H-1,4-oxazine
_symmetry_cell_setting           monoclinic
_symmetry_space_group_name_H-M   'P 21/c'
_symmetry_Int_Tables_number      14
_space_group_name_Hall           '-P 2ybc'
loop_
_symmetry_equiv_pos_site_id
_symmetry_equiv_pos_as_xyz
1 x,y,z
2 -x,1/2+y,1/2-z
3 -x,-y,-z
4 x,1/2-y,1/2+z
_cell_length_a                   10.875(8)
_cell_length_b                   5.860(4)
_cell_length_c                   24.703(18)
_cell_angle_alpha                90
_cell_angle_beta                 91.969(13)
_cell_angle_gamma                90
_cell_volume                     1573.33
_exptl_crystal_colour            yellow
_exptl_crystal_description       needle
_cell_formula_units_Z            4
loop_
_atom_site_label
_atom_site_type_symbol
_atom_site_fract_x
_atom_site_fract_y
_atom_site_fract_z
O1 O 0.7342(2) 0.1300(4) 0.05801(9)
O2 O 0.5292(3) -0.0163(5) -0.18039(11)
O3 O 0.6916(3) -0.4248(4) 0.14986(10)
C1 C 0.9915(5) 0.2633(9) 0.05165(18)
H1 H 0.9442 0.2596 0.0181
H2 H 1.0768 0.2390 0.0446
H3 H 0.9817 0.4091 0.0687
C2 C 0.8682(4) 0.0367(8) 0.31269(17)
H4 H 0.8914 0.0577 0.3489
C3 C 0.8935(4) 0.2008(7) 0.27461(17)
H5 H 0.9327 0.3352 0.2854
C4 C 0.8613(4) 0.1674(7) 0.22113(15)
H6 H 0.8800 0.2797 0.1961
C5 C 0.8014(3) -0.0299(6) 0.20303(15)
C6 C 0.7743(3) -0.0591(6) 0.14539(15)
C7 C 0.8155(3) 0.1160(6) 0.10543(15)
H7 H 0.8131 0.2647 0.1235
C8 C 0.6997(3) -0.0711(7) 0.03570(16)
C9 C 0.6581(3) -0.0571(6) -0.02068(15)
C10 C 0.5896(4) -0.2279(6) -0.04593(16)
H8 H 0.5711 -0.3583 -0.0264
C11 C 0.5481(4) -0.2116(7) -0.09889(17)
H9 H 0.5028 -0.3301 -0.1147
C12 C 0.5738(4) -0.0181(7) -0.12871(16)
C13 C 0.5492(4) 0.1810(7) -0.21204(17)
H10 H 0.5197 0.3130 -0.1935
H11 H 0.5059 0.1661 -0.2464
H12 H 0.6356 0.1976 -0.2177
N1 N 0.7258(3) -0.2449(5) 0.12314(12)
C14 C 0.7026(4) -0.2575(7) 0.06657(15)
H13 H 0.6890 -0.3993 0.0505
C15 C 0.9472(4) 0.0780(7) 0.08858(16)
H14 H 1.0009 0.0719 0.1207
H15 H 0.9525 -0.0679 0.0702
C16 C 0.6405(4) 0.1540(7) -0.10461(16)
H16 H 0.6578 0.2852 -0.1241
C17 C 0.6824(4) 0.1340(7) -0.05137(16)
H17 H 0.7283 0.2523 -0.0357
C18 C 0.7755(4) -0.1916(7) 0.24268(16)
H18 H 0.7349 -0.3255 0.2326
C19 C 0.8084(4) -0.1574(8) 0.29608(17)
H19 H 0.7898 -0.2682 0.3215
loop_
_geom_bond_atom_site_label_1
_geom_bond_atom_site_label_2
_geom_bond_site_symmetry_1
_geom_bond_site_symmetry_2
O1 C7 1_555 1_555
O2 C12 1_555 1_555
O3 N1 1_555 1_555
C1 H1 1_555 1_555
H2 C1 1_555 1_555
H3 C1 1_555 1_555
C2 H4 1_555 1_555
C3 C2 1_555 1_555
H5 C3 1_555 1_555
C4 C3 1_555 1_555
H6 C4 1_555 1_555
C5 C4 1_555 1_555
C6 C5 1_555 1_555
C7 C6 1_555 1_555
H7 C7 1_555 1_555
C8 O1 1_555 1_555
C9 C8 1_555 1_555
C10 C9 1_555 1_555
H8 C10 1_555 1_555
C11 C10 1_555 1_555
H9 C11 1_555 1_555
C12 C11 1_555 1_555
C13 O2 1_555 1_555
H10 C13 1_555 1_555
H11 C13 1_555 1_555
H12 C13 1_555 1_555
N1 C6 1_555 1_555
C14 C8 1_555 1_555
H13 C14 1_555 1_555
C15 C1 1_555 1_555
H14 C15 1_555 1_555
H15 C15 1_555 1_555
C16 C12 1_555 1_555
H16 C16 1_555 1_555
C17 C9 1_555 1_555
H17 C17 1_555 1_555
C18 C5 1_555 1_555
H18 C18 1_555 1_555
C19 C2 1_555 1_555
H19 C19 1_555 1_555
C7 C15 1_555 1_555
N1 C14 1_555 1_555
C16 C17 1_555 1_555
C18 C19 1_555 1_555

#END
