
#######################################################################
#
#                 Cambridge Crystallographic Data Centre
#                                CCDC 
#
#######################################################################
#
# If this CIF has been generated from an entry in the Cambridge 
# Structural Database, then it will include bibliographic, chemical, 
# crystal, experimental, refinement or atomic coordinate data resulting 
# from the CCDC's data processing and validation procedures.
#
#######################################################################

data_YAXPUL
_chemical_formula_moiety         'C26 H24 N2 O6'
_chemical_name_systematic        
'dimethyl 4a-cyano-2-ethyl-7a-(4-methylphenyl)-3-phenyl-4a,7a-dihydro-2H-furo[3,2-b][1,4]oxazine-6,7-dicarboxylate'
_symmetry_cell_setting           triclinic
_symmetry_space_group_name_H-M   'P -1'
_symmetry_Int_Tables_number      2
_space_group_name_Hall           '-P 1'
loop_
_symmetry_equiv_pos_site_id
_symmetry_equiv_pos_as_xyz
1 x,y,z
2 -x,-y,-z
_cell_length_a                   8.4381(7)
_cell_length_b                   9.3782(8)
_cell_length_c                   16.1900(14)
_cell_angle_alpha                99.967(3)
_cell_angle_beta                 91.355(3)
_cell_angle_gamma                108.655(3)
_cell_volume                     1191.26
_exptl_crystal_colour            colorless
_exptl_crystal_description       block
_cell_formula_units_Z            2
loop_
_atom_site_label
_atom_site_type_symbol
_atom_site_fract_x
_atom_site_fract_y
_atom_site_fract_z
C1 C 0.3187(9) 0.5309(8) 0.1030(5)
H1 H 0.2275 0.4353 0.0807
H2 H 0.2774 0.5959 0.1450
H3 H 0.3592 0.5849 0.0570
O1 O 0.83186(17) 0.89227(14) 0.31506(8)
O2 O 0.95017(17) 0.55581(15) 0.25978(8)
O3 O 0.5594(2) 0.7453(3) 0.16187(11)
O4 O 0.7326(3) 0.3117(2) 0.10257(12)
O5 O 0.6630(2) 0.26579(16) 0.22917(9)
N1 N 0.9259(2) 0.68154(18) 0.39129(9)
C2 C 0.8147(2) 0.7361(2) 0.42326(11)
O6 O 0.4728(2) 0.4918(2) 0.14695(12)
C3 C 0.6351(3) 0.5985(3) 0.65112(14)
H4 H 0.5964 0.5691 0.7023
C4 C 0.7866(3) 0.5868(3) 0.62571(14)
H5 H 0.8515 0.5486 0.6593
C5 C 0.8437(3) 0.6306(2) 0.55144(13)
H6 H 0.9471 0.6211 0.5339
C6 C 0.7506(2) 0.6885(2) 0.50255(11)
C7 C 0.7507(2) 0.8486(2) 0.38744(11)
H7 H 0.6269 0.8022 0.3725
C8 C 0.8778(2) 0.7814(2) 0.25873(11)
C9 C 0.9774(2) 0.8646(2) 0.19426(12)
C10 C 1.0521(3) 1.0222(2) 0.21095(14)
H8 H 1.0367 1.0804 0.2624
C11 C 1.1495(3) 1.0963(3) 0.15298(15)
H9 H 1.1989 1.2047 0.1656
C12 C 1.1761(3) 1.0165(3) 0.07777(13)
C13 C 1.2839(3) 1.0975(3) 0.01545(15)
H10 H 1.3755 1.0557 0.0042
H11 H 1.3308 1.2074 0.0389
H12 H 1.2153 1.0818 -0.0371
C14 C 0.9809(2) 0.7094(2) 0.30995(12)
C15 C 0.7952(3) 0.5184(2) 0.21800(12)
C16 C 0.7379(2) 0.6352(2) 0.21802(12)
C17 C 0.5807(3) 0.6208(4) 0.17277(14)
C18 C 0.7258(3) 0.3530(2) 0.17585(13)
C19 C 0.5978(4) 0.1002(2) 0.19732(16)
H13 H 0.5262 0.0791 0.1451
H14 H 0.5318 0.0494 0.2393
H15 H 0.6916 0.0613 0.1862
C20 C 1.1644(3) 0.7869(3) 0.31888(12)
N2 N 1.3052(3) 0.8457(3) 0.32887(14)
C21 C 1.0036(3) 0.7841(3) 0.11804(13)
H16 H 0.9538 0.6757 0.1049
C22 C 1.1006(3) 0.8594(3) 0.06135(14)
H17 H 1.1159 0.8016 0.0097
C23 C 0.7877(3) 0.9995(2) 0.45078(12)
H18 H 0.7405 0.9765 0.5042
H19 H 0.9108 1.0476 0.4625
C24 C 0.7173(3) 1.1125(2) 0.42126(14)
H20 H 0.7676 1.1401 0.3699
H21 H 0.7430 1.2047 0.4652
H22 H 0.5953 1.0661 0.4095
C25 C 0.5966(3) 0.6981(2) 0.52828(13)
H23 H 0.5305 0.7357 0.4950
C26 C 0.5406(3) 0.6528(2) 0.60246(13)
H24 H 0.4360 0.6593 0.6198
C27? C 0.3940(5) 0.7074(5) 0.1153(3)
H25? H 0.3760 0.8021 0.1065
H26? H 0.3906 0.6419 0.0607
H27? H 0.3056 0.6532 0.1478
loop_
_geom_bond_atom_site_label_1
_geom_bond_atom_site_label_2
_geom_bond_site_symmetry_1
_geom_bond_site_symmetry_2
C1 H1 1_555 1_555
H2 C1 1_555 1_555
H3 C1 1_555 1_555
O1 C7 1_555 1_555
O2 C14 1_555 1_555
O3 C17 1_555 1_555
O4 C18 1_555 1_555
O5 C18 1_555 1_555
N1 C2 1_555 1_555
C2 C6 1_555 1_555
O6 C1 1_555 1_555
C3 H4 1_555 1_555
C4 C3 1_555 1_555
H5 C4 1_555 1_555
C5 C4 1_555 1_555
H6 C5 1_555 1_555
C6 C5 1_555 1_555
C7 C2 1_555 1_555
H7 C7 1_555 1_555
C8 O1 1_555 1_555
C9 C8 1_555 1_555
C10 C9 1_555 1_555
H8 C10 1_555 1_555
C11 C10 1_555 1_555
H9 C11 1_555 1_555
C12 C11 1_555 1_555
C13 C12 1_555 1_555
H10 C13 1_555 1_555
H11 C13 1_555 1_555
H12 C13 1_555 1_555
C14 N1 1_555 1_555
C15 O2 1_555 1_555
C16 C8 1_555 1_555
C17 O6 1_555 1_555
C18 C15 1_555 1_555
C19 O5 1_555 1_555
H13 C19 1_555 1_555
H14 C19 1_555 1_555
H15 C19 1_555 1_555
C20 C14 1_555 1_555
N2 C20 1_555 1_555
C21 C9 1_555 1_555
H16 C21 1_555 1_555
C22 C12 1_555 1_555
H17 C22 1_555 1_555
C23 C7 1_555 1_555
H18 C23 1_555 1_555
H19 C23 1_555 1_555
C24 C23 1_555 1_555
H20 C24 1_555 1_555
H21 C24 1_555 1_555
H22 C24 1_555 1_555
C25 C6 1_555 1_555
H23 C25 1_555 1_555
C26 C3 1_555 1_555
H24 C26 1_555 1_555
C8 C14 1_555 1_555
C15 C16 1_555 1_555
C16 C17 1_555 1_555
C21 C22 1_555 1_555
C25 C26 1_555 1_555

#END
