
#######################################################################
#
#                 Cambridge Crystallographic Data Centre
#                                CCDC 
#
#######################################################################
#
# If this CIF has been generated from an entry in the Cambridge 
# Structural Database, then it will include bibliographic, chemical, 
# crystal, experimental, refinement or atomic coordinate data resulting 
# from the CCDC's data processing and validation procedures.
#
#######################################################################

data_YAXPOF
_chemical_formula_moiety         'C20 H18 N2 O3'
_chemical_name_systematic        
2-ethyl-6-(4-methoxyphenyl)-4-oxo-3-phenyl-2H-1,4-oxazine-5-carbonitrile
_symmetry_cell_setting           monoclinic
_symmetry_space_group_name_H-M   'P 21/n'
_symmetry_Int_Tables_number      14
_space_group_name_Hall           '-P 2yn'
loop_
_symmetry_equiv_pos_site_id
_symmetry_equiv_pos_as_xyz
1 x,y,z
2 1/2-x,1/2+y,1/2-z
3 -x,-y,-z
4 1/2+x,1/2-y,1/2+z
_cell_length_a                   8.3106(9)
_cell_length_b                   21.776(2)
_cell_length_c                   9.5196(10)
_cell_angle_alpha                90
_cell_angle_beta                 93.481(2)
_cell_angle_gamma                90
_cell_volume                     1719.6
_exptl_crystal_colour            yellow
_exptl_crystal_description       block
_cell_formula_units_Z            4
loop_
_atom_site_label
_atom_site_type_symbol
_atom_site_fract_x
_atom_site_fract_y
_atom_site_fract_z
O1 O 0.46349(18) 0.17236(7) 0.38511(16)
O2 O 0.4226(3) -0.10651(9) 0.2274(2)
O3 O 0.2408(2) 0.21910(8) 0.72608(19)
N1 N 0.2958(2) 0.21250(9) 0.6024(2)
N2 N 0.0592(4) 0.09003(13) 0.6656(3)
C1 C 0.4832(4) 0.43578(15) 0.6788(4)
H1 H 0.5072 0.4755 0.7092
C2 C 0.4118(4) 0.39578(16) 0.7648(3)
H2 H 0.3883 0.4085 0.8546
C3 C 0.3730(3) 0.33665(14) 0.7224(3)
H3 H 0.3231 0.3103 0.7832
C4 C 0.4082(3) 0.31617(11) 0.5888(2)
C5 C 0.3733(3) 0.25465(10) 0.5341(2)
C6 C 0.4174(3) 0.23630(10) 0.3885(2)
H4 H 0.5125 0.2604 0.3671
C7 C 0.3607(3) 0.13214(10) 0.4399(2)
C8 C 0.3717(3) 0.07033(11) 0.3821(3)
C9 C 0.4641(4) 0.06091(12) 0.2690(3)
H5 H 0.5149 0.0942 0.2295
C10 C 0.4832(4) 0.00238(12) 0.2120(3)
H6 H 0.5460 -0.0034 0.1354
C11 C 0.4077(4) -0.04637(12) 0.2709(3)
C12 C 0.5023(5) -0.11741(15) 0.1053(3)
H7 H 0.4458 -0.0973 0.0272
H8 H 0.5057 -0.1608 0.0877
H9 H 0.6102 -0.1017 0.1166
C13 C 0.5196(4) 0.41740(13) 0.5477(4)
H10 H 0.5685 0.4446 0.4882
C14 C 0.4839(4) 0.35851(12) 0.5035(3)
H11 H 0.5107 0.3464 0.4142
C15 C 0.2693(3) 0.15280(11) 0.5420(3)
C16 C 0.2869(3) 0.25087(12) 0.2758(3)
H12 H 0.1917 0.2270 0.2932
H13 H 0.2586 0.2939 0.2824
C17 C 0.3354(4) 0.23771(16) 0.1286(3)
H14 H 0.4347 0.2584 0.1132
H15 H 0.2527 0.2521 0.0618
H16 H 0.3495 0.1943 0.1172
C18 C 0.3186(3) -0.03841(13) 0.3844(3)
H17 H 0.2703 -0.0721 0.4247
C19 C 0.2997(3) 0.01886(12) 0.4395(3)
H18 H 0.2377 0.0237 0.5169
C20 C 0.1524(3) 0.11809(13) 0.6115(3)
loop_
_geom_bond_atom_site_label_1
_geom_bond_atom_site_label_2
_geom_bond_site_symmetry_1
_geom_bond_site_symmetry_2
O1 C6 1_555 1_555
O2 C11 1_555 1_555
O3 N1 1_555 1_555
N1 C5 1_555 1_555
N2 C20 1_555 1_555
C1 H1 1_555 1_555
C2 C1 1_555 1_555
H2 C2 1_555 1_555
C3 C2 1_555 1_555
H3 C3 1_555 1_555
C4 C3 1_555 1_555
C5 C4 1_555 1_555
C6 C5 1_555 1_555
H4 C6 1_555 1_555
C7 O1 1_555 1_555
C8 C7 1_555 1_555
C9 C8 1_555 1_555
H5 C9 1_555 1_555
C10 C9 1_555 1_555
H6 C10 1_555 1_555
C11 C10 1_555 1_555
C12 O2 1_555 1_555
H7 C12 1_555 1_555
H8 C12 1_555 1_555
H9 C12 1_555 1_555
C13 C1 1_555 1_555
H10 C13 1_555 1_555
C14 C4 1_555 1_555
H11 C14 1_555 1_555
C15 N1 1_555 1_555
C16 C6 1_555 1_555
H12 C16 1_555 1_555
H13 C16 1_555 1_555
C17 C16 1_555 1_555
H14 C17 1_555 1_555
H15 C17 1_555 1_555
H16 C17 1_555 1_555
C18 C11 1_555 1_555
H17 C18 1_555 1_555
C19 C8 1_555 1_555
H18 C19 1_555 1_555
C20 C15 1_555 1_555
C7 C15 1_555 1_555
C13 C14 1_555 1_555
C18 C19 1_555 1_555

#END
