
#######################################################################
#
#                 Cambridge Crystallographic Data Centre
#                                CCDC 
#
#######################################################################
#
# If this CIF has been generated from an entry in the Cambridge 
# Structural Database, then it will include bibliographic, chemical, 
# crystal, experimental, refinement or atomic coordinate data resulting 
# from the CCDC's data processing and validation procedures.
#
#######################################################################

data_YAXRIB
_chemical_formula_moiety         'C16 H10 Cl1 N1 O2'
_chemical_name_systematic        
2-(2-chlorophenyl)-4-phenyl-6H-1,3-oxazin-6-one
_symmetry_cell_setting           triclinic
_symmetry_space_group_name_H-M   'P -1'
_symmetry_Int_Tables_number      2
_space_group_name_Hall           '-P 1'
loop_
_symmetry_equiv_pos_site_id
_symmetry_equiv_pos_as_xyz
1 x,y,z
2 -x,-y,-z
_cell_length_a                   7.4540(4)
_cell_length_b                   7.9852(4)
_cell_length_c                   12.3366(6)
_cell_angle_alpha                78.039(2)
_cell_angle_beta                 87.320(2)
_cell_angle_gamma                63.031(2)
_cell_volume                     639.293
_exptl_crystal_colour            colorless
_exptl_crystal_description       block
_cell_formula_units_Z            2
loop_
_atom_site_label
_atom_site_type_symbol
_atom_site_fract_x
_atom_site_fract_y
_atom_site_fract_z
Cl1 Cl 0.77166(5) 0.51548(4) 0.03573(2)
O1 O 0.69305(14) 0.37897(13) 0.26156(7)
O2 O 0.88463(16) 0.06833(13) 0.32910(8)
N1 N 0.62235(16) 0.61660(15) 0.36404(9)
C1 C 0.5421(2) 0.69249(19) 0.06623(11)
C2 C 0.4194(2) 0.8288(2) -0.02291(11)
H1 H 0.4577 0.8185 -0.0967
C3 C 0.2410(2) 0.9799(2) -0.00375(12)
H2 H 0.1565 1.0733 -0.0646
C4 C 0.1847(2) 0.99572(19) 0.10404(12)
H3 H 0.0620 1.0996 0.1169
C5 C 0.3078(2) 0.85974(19) 0.19262(11)
H4 H 0.2694 0.8720 0.2662
C6 C 0.4883(2) 0.70423(18) 0.17557(11)
C7 C 0.60816(19) 0.56352(18) 0.27506(11)
C8 C 0.8114(2) 0.22832(19) 0.34814(11)
C9 C 0.8286(2) 0.28525(19) 0.44800(11)
H5 H 0.9043 0.1904 0.5108
C10 C 0.73763(19) 0.47361(18) 0.45399(10)
C11 C 0.7549(2) 0.54198(19) 0.55390(11)
C12 C 0.8914(2) 0.41739(19) 0.64269(11)
H6 H 0.9749 0.2870 0.6391
C13 C 0.9054(2) 0.4832(2) 0.73565(11)
H7 H 0.9976 0.3973 0.7958
C14 C 0.7856(2) 0.6741(2) 0.74174(11)
H8 H 0.7966 0.7188 0.8055
C15 C 0.6499(2) 0.7990(2) 0.65426(12)
H9 H 0.5675 0.9295 0.6582
C16 C 0.6344(2) 0.73389(19) 0.56086(11)
H10 H 0.5412 0.8202 0.5012
loop_
_geom_bond_atom_site_label_1
_geom_bond_atom_site_label_2
_geom_bond_site_symmetry_1
_geom_bond_site_symmetry_2
Cl1 C1 1_555 1_555
O1 C7 1_555 1_555
O2 C8 1_555 1_555
N1 C7 1_555 1_555
C1 C2 1_555 1_555
C2 H1 1_555 1_555
C3 C2 1_555 1_555
H2 C3 1_555 1_555
C4 C3 1_555 1_555
H3 C4 1_555 1_555
C5 C4 1_555 1_555
H4 C5 1_555 1_555
C6 C1 1_555 1_555
C7 C6 1_555 1_555
C8 O1 1_555 1_555
C9 C8 1_555 1_555
H5 C9 1_555 1_555
C10 N1 1_555 1_555
C11 C10 1_555 1_555
C12 C11 1_555 1_555
H6 C12 1_555 1_555
C13 C12 1_555 1_555
H7 C13 1_555 1_555
C14 C13 1_555 1_555
H8 C14 1_555 1_555
C15 C14 1_555 1_555
H9 C15 1_555 1_555
C16 C11 1_555 1_555
H10 C16 1_555 1_555
C5 C6 1_555 1_555
C9 C10 1_555 1_555
C15 C16 1_555 1_555

#END
