
#######################################################################
#
#                 Cambridge Crystallographic Data Centre
#                                CCDC 
#
#######################################################################
#
# If this CIF has been generated from an entry in the Cambridge 
# Structural Database, then it will include bibliographic, chemical, 
# crystal, experimental, refinement or atomic coordinate data resulting 
# from the CCDC's data processing and validation procedures.
#
#######################################################################

data_YAXRUM
_chemical_formula_moiety         'C16 H21 Br1 O2'
_chemical_name_systematic        
(5-Bromo-2-hydroxyphenyl)(4-propylcyclohexyl)methanone
_symmetry_cell_setting           monoclinic
_symmetry_space_group_name_H-M   'P 21/c'
_symmetry_Int_Tables_number      14
_space_group_name_Hall           '-P 2ybc'
loop_
_symmetry_equiv_pos_site_id
_symmetry_equiv_pos_as_xyz
1 x,y,z
2 -x,1/2+y,1/2-z
3 -x,-y,-z
4 x,1/2-y,1/2+z
_cell_length_a                   14.5826(12)
_cell_length_b                   8.5467(8)
_cell_length_c                   12.6369(10)
_cell_angle_alpha                90
_cell_angle_beta                 113.037(5)
_cell_angle_gamma                90
_cell_volume                     1449.38
_exptl_crystal_colour            colorless
_exptl_crystal_description       prism
_cell_formula_units_Z            4
_exptl_crystal_recrystallization_method 'dichloromethane/petroleum ether'
loop_
_atom_site_label
_atom_site_type_symbol
_atom_site_fract_x
_atom_site_fract_y
_atom_site_fract_z
Br1 Br 1.101943(12) 0.65152(2) 0.057741(15)
O1 O 0.80421(9) 1.03963(14) -0.31892(10)
H1 H 0.759(2) 1.066(3) -0.301(2)
O2 O 0.69906(9) 1.05226(14) -0.19829(10)
C1 C 0.92537(13) 0.83440(18) -0.04336(14)
H2 H 0.9181 0.8160 0.0271
C2 C 1.00541(12) 0.77214(19) -0.06037(14)
C3 C 1.01921(13) 0.8002(2) -0.16215(15)
H3 H 1.0747 0.7565 -0.1733
C4 C 0.95127(13) 0.8920(2) -0.24620(15)
H4 H 0.9610 0.9135 -0.3148
C5 C 0.86871(13) 0.95348(19) -0.23174(14)
C6 C 0.85425(12) 0.92496(19) -0.12913(14)
C7 C 0.76554(12) 0.99105(19) -0.11519(14)
C8 C 0.75600(12) 0.98403(19) -0.00005(13)
H5 H 0.8240 0.9946 0.0623
C9 C 0.69103(13) 1.11868(19) 0.01104(14)
H6 H 0.7221 1.2196 0.0053
H7 H 0.6247 1.1133 -0.0530
C10 C 0.67844(13) 1.11146(19) 0.12561(14)
H8 H 0.7440 1.1282 0.1893
H9 H 0.6335 1.1968 0.1283
C11 C 0.63570(12) 0.95477(18) 0.14288(13)
H10 H 0.5675 0.9435 0.0812
C12 C 0.70000(13) 0.82152(19) 0.12971(14)
H11 H 0.6697 0.7205 0.1368
H12 H 0.7668 0.8276 0.1928
C13 C 0.71144(13) 0.82583(19) 0.01480(14)
H13 H 0.6456 0.8109 -0.0487
H14 H 0.7556 0.7396 0.0116
C14 C 0.62659(13) 0.9434(2) 0.25955(14)
H15 H 0.5998 0.8389 0.2656
H16 H 0.6942 0.9509 0.3211
C15 C 0.56089(13) 1.0669(2) 0.28140(15)
H17 H 0.4955 1.0692 0.2156
H18 H 0.5923 1.1709 0.2869
C16 C 0.54478(14) 1.0347(2) 0.39195(15)
H19 H 0.5087 0.9359 0.3843
H20 H 0.5059 1.1201 0.4056
H21 H 0.6095 1.0276 0.4568
loop_
_geom_bond_atom_site_label_1
_geom_bond_atom_site_label_2
_geom_bond_site_symmetry_1
_geom_bond_site_symmetry_2
Br1 C2 1_555 1_555
O1 H1 1_555 1_555
O2 C7 1_555 1_555
C1 H2 1_555 1_555
C2 C1 1_555 1_555
C3 C2 1_555 1_555
H3 C3 1_555 1_555
C4 C3 1_555 1_555
H4 C4 1_555 1_555
C5 O1 1_555 1_555
C6 C1 1_555 1_555
C7 C6 1_555 1_555
C8 C7 1_555 1_555
H5 C8 1_555 1_555
C9 C8 1_555 1_555
H6 C9 1_555 1_555
H7 C9 1_555 1_555
C10 C9 1_555 1_555
H8 C10 1_555 1_555
H9 C10 1_555 1_555
C11 C10 1_555 1_555
H10 C11 1_555 1_555
C12 C11 1_555 1_555
H11 C12 1_555 1_555
H12 C12 1_555 1_555
C13 C8 1_555 1_555
H13 C13 1_555 1_555
H14 C13 1_555 1_555
C14 C11 1_555 1_555
H15 C14 1_555 1_555
H16 C14 1_555 1_555
C15 C14 1_555 1_555
H17 C15 1_555 1_555
H18 C15 1_555 1_555
C16 C15 1_555 1_555
H19 C16 1_555 1_555
H20 C16 1_555 1_555
H21 C16 1_555 1_555
C4 C5 1_555 1_555
C5 C6 1_555 1_555
C12 C13 1_555 1_555

#END
