
#######################################################################
#
#                 Cambridge Crystallographic Data Centre
#                                CCDC 
#
#######################################################################
#
# If this CIF has been generated from an entry in the Cambridge 
# Structural Database, then it will include bibliographic, chemical, 
# crystal, experimental, refinement or atomic coordinate data resulting 
# from the CCDC's data processing and validation procedures.
#
#######################################################################

data_YAXTUO
_chemical_formula_moiety         'C17 H14 O5 S1'
_chemical_name_systematic        
'4-Methyl-2-oxo-2H-chromen-7-yl 4-methylbenzenesulfonate'
_symmetry_cell_setting           triclinic
_symmetry_space_group_name_H-M   'P -1'
_symmetry_Int_Tables_number      2
_space_group_name_Hall           '-P 1'
loop_
_symmetry_equiv_pos_site_id
_symmetry_equiv_pos_as_xyz
1 x,y,z
2 -x,-y,-z
_cell_length_a                   7.5582(19)
_cell_length_b                   8.024(2)
_cell_length_c                   13.336(4)
_cell_angle_alpha                88.648(8)
_cell_angle_beta                 87.420(7)
_cell_angle_gamma                74.341(4)
_cell_volume                     777.926
_exptl_crystal_colour            colorless
_cell_formula_units_Z            2
loop_
_atom_site_label
_atom_site_type_symbol
_atom_site_fract_x
_atom_site_fract_y
_atom_site_fract_z
S1 S -0.05701(5) 0.90186(5) 0.20148(3)
O1 O 0.63814(14) 0.58774(12) 0.35269(7)
O2 O 0.11089(15) 0.98205(12) 0.22320(7)
O3 O 0.88672(15) 0.39807(14) 0.40502(9)
O4 O -0.14270(15) 0.87024(14) 0.29442(7)
O5 O -0.15830(17) 1.02006(14) 0.13018(8)
C1 C 0.7537(2) 0.51511(19) 0.42877(12)
C2 C 0.7040(2) 0.58301(19) 0.52862(12)
H1 H 0.7814 0.5339 0.5819
C3 C 0.5524(2) 0.71307(18) 0.54922(11)
C4 C 0.43676(19) 0.79009(17) 0.46707(10)
C5 C 0.2782(2) 0.92868(17) 0.47851(11)
H2 H 0.2448 0.9795 0.5426
C6 C 0.1701(2) 0.99233(17) 0.39833(10)
H3 H 0.0638 1.0872 0.4064
C7 C 0.2198(2) 0.91503(17) 0.30561(10)
C8 C 0.3765(2) 0.78118(18) 0.28978(10)
H4 H 0.4094 0.7319 0.2253
C9 C 0.48388(19) 0.72125(17) 0.37112(11)
C10 C 0.0542(2) 0.70422(18) 0.14554(10)
C11 C 0.0484(2) 0.55129(19) 0.19411(12)
H5 H -0.0192 0.5528 0.2560
C12 C 0.1434(2) 0.3959(2) 0.15060(13)
H6 H 0.1384 0.2902 0.1828
C13 C 0.2454(2) 0.3912(2) 0.06117(13)
C14 C 0.2448(2) 0.5469(2) 0.01312(12)
H7 H 0.3111 0.5456 -0.0492
C15 C 0.1497(2) 0.7033(2) 0.05420(11)
H8 H 0.1497 0.8089 0.0204
C16 C 0.4986(2) 0.7756(2) 0.65416(11)
H9 H 0.5894 0.7093 0.7004
H10 H 0.3773 0.7599 0.6731
H11 H 0.4938 0.8987 0.6575
C17 C 0.3556(3) 0.2207(2) 0.01848(17)
H12 H 0.4712 0.1806 0.0533
H13 H 0.3824 0.2354 -0.0533
H14 H 0.2849 0.1351 0.0276
loop_
_geom_bond_atom_site_label_1
_geom_bond_atom_site_label_2
_geom_bond_site_symmetry_1
_geom_bond_site_symmetry_2
S1 O2 1_555 1_555
O1 C1 1_555 1_555
O2 C7 1_555 1_555
O3 C1 1_555 1_555
O4 S1 1_555 1_555
O5 S1 1_555 1_555
C1 C2 1_555 1_555
C2 H1 1_555 1_555
C3 C2 1_555 1_555
C4 C3 1_555 1_555
C5 C4 1_555 1_555
H2 C5 1_555 1_555
C6 C5 1_555 1_555
H3 C6 1_555 1_555
C7 C6 1_555 1_555
C8 C7 1_555 1_555
H4 C8 1_555 1_555
C9 O1 1_555 1_555
C10 S1 1_555 1_555
C11 C10 1_555 1_555
H5 C11 1_555 1_555
C12 C11 1_555 1_555
H6 C12 1_555 1_555
C13 C12 1_555 1_555
C14 C13 1_555 1_555
H7 C14 1_555 1_555
C15 C10 1_555 1_555
H8 C15 1_555 1_555
C16 C3 1_555 1_555
H9 C16 1_555 1_555
H10 C16 1_555 1_555
H11 C16 1_555 1_555
C17 C13 1_555 1_555
H12 C17 1_555 1_555
H13 C17 1_555 1_555
H14 C17 1_555 1_555
C4 C9 1_555 1_555
C8 C9 1_555 1_555
C14 C15 1_555 1_555

#END
