
#######################################################################
#
#                 Cambridge Crystallographic Data Centre
#                                CCDC 
#
#######################################################################
#
# If this CIF has been generated from an entry in the Cambridge 
# Structural Database, then it will include bibliographic, chemical, 
# crystal, experimental, refinement or atomic coordinate data resulting 
# from the CCDC's data processing and validation procedures.
#
#######################################################################

data_YAXVUQ
_chemical_formula_moiety         'C17 H10 F3 N3 O1'
_chemical_name_systematic        
(Z)-1-(2,4-Difluorophenyl)-3-(4-fluorophenyl)-2-(1H-1,2,4-triazol-1-yl)prop-2-en-1-one
_symmetry_cell_setting           monoclinic
_symmetry_space_group_name_H-M   'P 21/c'
_symmetry_Int_Tables_number      14
_space_group_name_Hall           '-P 2ybc'
loop_
_symmetry_equiv_pos_site_id
_symmetry_equiv_pos_as_xyz
1 x,y,z
2 -x,1/2+y,1/2-z
3 -x,-y,-z
4 x,1/2-y,1/2+z
_cell_length_a                   11.735(6)
_cell_length_b                   7.698(4)
_cell_length_c                   17.065(7)
_cell_angle_alpha                90
_cell_angle_beta                 110.45(3)
_cell_angle_gamma                90
_cell_volume                     1444.43
_exptl_crystal_colour            colorless
_exptl_crystal_description       block
_cell_formula_units_Z            4
_exptl_crystal_recrystallization_method 'ethyl acetate/petroleum ether'
loop_
_atom_site_label
_atom_site_type_symbol
_atom_site_fract_x
_atom_site_fract_y
_atom_site_fract_z
F1 F -0.10204(11) 0.63601(19) 0.88238(9)
F2 F 0.09918(11) 0.6680(2) 0.69415(7)
F3 F 0.87808(11) 1.03042(17) 1.09542(8)
O1 O 0.29519(13) 0.4323(2) 0.74119(9)
N1 N 0.52550(12) 0.49839(18) 0.83262(8)
N2 N 0.61373(13) 0.40221(19) 0.88775(9)
N3 N 0.64451(15) 0.4248(2) 0.76604(10)
C1 C -0.00130(16) 0.6098(3) 0.86429(13)
C2 C -0.00402(16) 0.6532(3) 0.78670(12)
H1 H -0.0732 0.7000 0.7469
C3 C 0.09943(16) 0.6248(2) 0.77016(10)
C4 C 0.20312(15) 0.5587(2) 0.82741(10)
C5 C 0.20019(16) 0.5199(2) 0.90521(11)
H2 H 0.2696 0.4763 0.9460
C6 C 0.09753(18) 0.5442(3) 0.92381(12)
H3 H 0.0958 0.5161 0.9764
C7 C 0.30928(16) 0.5142(2) 0.80365(11)
C8 C 0.43130(14) 0.5720(2) 0.85556(9)
C9 C 0.54611(17) 0.5086(3) 0.76135(11)
H4 H 0.4968 0.5679 0.7142
C10 C 0.68092(17) 0.3624(3) 0.84397(12)
H5 H 0.7504 0.2943 0.8656
C11 C 0.45564(14) 0.6885(2) 0.91621(9)
H6 H 0.3900 0.7203 0.9317
C12 C 0.56903(15) 0.7736(2) 0.96193(9)
C13 C 0.65828(16) 0.8061(2) 0.92821(10)
H7 H 0.6477 0.7676 0.8745
C14 C 0.76122(17) 0.8936(2) 0.97250(11)
H8 H 0.8206 0.9166 0.9494
C15 C 0.77542(17) 0.9468(2) 1.05143(12)
C16 C 0.69124(17) 0.9189(2) 1.08757(11)
H9 H 0.7039 0.9559 1.1419
C17 C 0.58720(16) 0.8347(2) 1.04174(10)
H10 H 0.5268 0.8179 1.0646
loop_
_geom_bond_atom_site_label_1
_geom_bond_atom_site_label_2
_geom_bond_site_symmetry_1
_geom_bond_site_symmetry_2
F1 C1 1_555 1_555
F2 C3 1_555 1_555
F3 C15 1_555 1_555
O1 C7 1_555 1_555
N1 N2 1_555 1_555
N2 C10 1_555 1_555
N3 C9 1_555 1_555
C1 C2 1_555 1_555
C2 H1 1_555 1_555
C3 C2 1_555 1_555
C4 C3 1_555 1_555
C5 C4 1_555 1_555
H2 C5 1_555 1_555
C6 C1 1_555 1_555
H3 C6 1_555 1_555
C7 C4 1_555 1_555
C8 N1 1_555 1_555
C9 N1 1_555 1_555
H4 C9 1_555 1_555
C10 N3 1_555 1_555
H5 C10 1_555 1_555
C11 C8 1_555 1_555
H6 C11 1_555 1_555
C12 C11 1_555 1_555
C13 C12 1_555 1_555
H7 C13 1_555 1_555
C14 C13 1_555 1_555
H8 C14 1_555 1_555
C15 C14 1_555 1_555
C16 C15 1_555 1_555
H9 C16 1_555 1_555
C17 C12 1_555 1_555
H10 C17 1_555 1_555
C5 C6 1_555 1_555
C7 C8 1_555 1_555
C16 C17 1_555 1_555

#END
