
#######################################################################
#
#                 Cambridge Crystallographic Data Centre
#                                CCDC 
#
#######################################################################
#
# If this CIF has been generated from an entry in the Cambridge 
# Structural Database, then it will include bibliographic, chemical, 
# crystal, experimental, refinement or atomic coordinate data resulting 
# from the CCDC's data processing and validation procedures.
#
#######################################################################

data_YAYCAE
_chemical_formula_moiety         'C16 H12 Cl2 N3 1+,Cl1 1-,H2 O1'
_chemical_name_systematic        
'4-((E)-2-(2,4-Dichlorobenzylidene)hydrazin-1-yl)quinolin-1-ium chloride monohydrate'
_symmetry_cell_setting           triclinic
_symmetry_space_group_name_H-M   'P -1'
_symmetry_Int_Tables_number      2
_space_group_name_Hall           '-P 1'
loop_
_symmetry_equiv_pos_site_id
_symmetry_equiv_pos_as_xyz
1 x,y,z
2 -x,-y,-z
_cell_length_a                   7.6815(2)
_cell_length_b                   9.7491(3)
_cell_length_c                   10.8418(3)
_cell_angle_alpha                87.831(2)
_cell_angle_beta                 87.171(2)
_cell_angle_gamma                87.146(2)
_cell_volume                     809.412
_exptl_crystal_colour            colorless
_exptl_crystal_description       block
_cell_formula_units_Z            2
loop_
_atom_site_label
_atom_site_type_symbol
_atom_site_fract_x
_atom_site_fract_y
_atom_site_fract_z
Cl1 Cl 0.23598(6) 1.20701(5) 0.14241(5)
Cl2 Cl 0.81838(6) 1.41676(5) -0.06262(5)
N1 N 0.7250(2) 0.35248(17) 0.32132(15)
H1 H 0.785(2) 0.2747(14) 0.337(2)
N2 N 0.4580(2) 0.72610(16) 0.26643(15)
H2 H 0.3464(14) 0.740(2) 0.2871(19)
N3 N 0.5488(2) 0.83194(16) 0.21124(14)
C1 C 0.8043(3) 0.4576(2) 0.26455(18)
H3 H 0.9235 0.4453 0.2378
C2 C 0.7194(2) 0.5834(2) 0.24339(17)
H4 H 0.7794 0.6566 0.2029
C3 C 0.5435(2) 0.60214(19) 0.28223(16)
C4 C 0.4548(2) 0.48914(19) 0.34195(16)
C5 C 0.2776(2) 0.4957(2) 0.38498(17)
H5 H 0.2080 0.5778 0.3719
C6 C 0.2056(3) 0.3845(2) 0.44529(18)
H6 H 0.0868 0.3907 0.4742
C7 C 0.3057(3) 0.2609(2) 0.46494(18)
H7 H 0.2544 0.1849 0.5074
C8 C 0.4769(3) 0.2506(2) 0.42284(18)
H8 H 0.5441 0.1672 0.4353
C9 C 0.5527(2) 0.36373(19) 0.36120(16)
C10 C 0.4620(2) 0.94746(19) 0.19875(17)
H9 H 0.3440 0.9576 0.2288
C11 C 0.5500(2) 1.06322(19) 0.13685(17)
C12 C 0.4584(2) 1.18619(19) 0.10639(17)
C13 C 0.5395(2) 1.2951(2) 0.04510(17)
H10 H 0.4754 1.3783 0.0258
C14 C 0.7152(3) 1.27973(19) 0.01280(17)
C15 C 0.8113(2) 1.1589(2) 0.04001(18)
H11 H 0.9317 1.1491 0.0157
C16 C 0.7286(3) 1.0533(2) 0.10297(18)
H12 H 0.7945 0.9715 0.1241
Cl3 Cl 0.05983(6) 0.83146(5) 0.32453(5)
O1 O 0.8874(3) 0.11709(18) 0.39542(16)
H13 H 0.908(4) 0.119(3) 0.4704(12)
H14 H 0.933(4) 0.0432(19) 0.370(3)
loop_
_geom_bond_atom_site_label_1
_geom_bond_atom_site_label_2
_geom_bond_site_symmetry_1
_geom_bond_site_symmetry_2
Cl1 C12 1_555 1_555
Cl2 C14 1_555 1_555
N1 H1 1_555 1_555
N2 H2 1_555 1_555
N3 N2 1_555 1_555
C1 N1 1_555 1_555
H3 C1 1_555 1_555
C2 C1 1_555 1_555
H4 C2 1_555 1_555
C3 N2 1_555 1_555
C4 C3 1_555 1_555
C5 C4 1_555 1_555
H5 C5 1_555 1_555
C6 C5 1_555 1_555
H6 C6 1_555 1_555
C7 C6 1_555 1_555
H7 C7 1_555 1_555
C8 C7 1_555 1_555
H8 C8 1_555 1_555
C9 N1 1_555 1_555
C10 N3 1_555 1_555
H9 C10 1_555 1_555
C11 C10 1_555 1_555
C12 C11 1_555 1_555
C13 C12 1_555 1_555
H10 C13 1_555 1_555
C14 C13 1_555 1_555
C15 C14 1_555 1_555
H11 C15 1_555 1_555
C16 C11 1_555 1_555
H12 C16 1_555 1_555
O1 H13 1_555 1_555
H14 O1 1_555 1_555
C2 C3 1_555 1_555
C4 C9 1_555 1_555
C8 C9 1_555 1_555
C15 C16 1_555 1_555

#END
