
#######################################################################
#
#                 Cambridge Crystallographic Data Centre
#                                CCDC 
#
#######################################################################
#
# If this CIF has been generated from an entry in the Cambridge 
# Structural Database, then it will include bibliographic, chemical, 
# crystal, experimental, refinement or atomic coordinate data resulting 
# from the CCDC's data processing and validation procedures.
#
#######################################################################

data_YAYHIP
_chemical_formula_moiety         'C30 H35 N1 O4'
_chemical_name_systematic        
(2S,3R)-2-(\a-Phenylbenzyl)-3-camphanoyloxy-quinuclidine
_chemical_properties_biological  'neurokinin-1 antagonist activity'
_symmetry_cell_setting           monoclinic
_symmetry_space_group_name_H-M   'P 21'
_symmetry_Int_Tables_number      4
_space_group_name_Hall           'P 2yb'
loop_
_symmetry_equiv_pos_site_id
_symmetry_equiv_pos_as_xyz
1 x,y,z
2 -x,1/2+y,-z
_cell_length_a                   10.166(3)
_cell_length_b                   11.398(5)
_cell_length_c                   10.991(5)
_cell_angle_alpha                90
_cell_angle_beta                 95.06(3)
_cell_angle_gamma                90
_cell_volume                     1268.59
_cell_formula_units_Z            2
loop_
_atom_site_label
_atom_site_type_symbol
_atom_site_fract_x
_atom_site_fract_y
_atom_site_fract_z
O1 O -0.0870(4) 1.2334(3) 0.2771(3)
O2 O 0.0561(3) 1.1692(2) 0.4290(2)
O3 O 0.2920(4) 1.1487(3) 0.5451(4)
O4 O 0.2557(2) 0.9654 0.6053(2)
N1 N 0.4912(3) 0.7969(3) 0.7938(3)
C1 C 0.3834(4) 0.9570(4) 0.9023(3)
C2 C 0.4002(4) 0.8816(4) 1.0160(3)
C3 C 0.3259(4) 0.7822(5) 1.0303(4)
C4 C 0.3408(5) 0.7182(5) 1.1372(4)
C5 C 0.4324(5) 0.7529(5) 1.2306(4)
C6 C 0.5070(5) 0.8476(6) 1.2171(4)
C7 C 0.4908(4) 0.9134(5) 1.1116(4)
C8 C 0.2620(4) 1.0341(3) 0.9085(3)
C9 C 0.1347(4) 0.9929(4) 0.8725(4)
C10 C 0.0263(4) 1.0632(5) 0.8875(4)
C11 C 0.0404(5) 1.1739(5) 0.9369(4)
C12 C 0.1663(6) 1.2154(4) 0.9704(4)
C13 C 0.2755(5) 1.1446(4) 0.9557(4)
C14 C 0.3822(4) 0.8827(4) 0.7845(3)
C15 C 0.3883(4) 0.9580(4) 0.6703(3)
C16 C 0.4802(4) 0.8982(6) 0.5868(4)
C17 C 0.4412(5) 0.7686(5) 0.5716(4)
C18 C 0.4644(5) 0.7111(5) 0.6966(4)
C19 C 0.6166(4) 0.8531(6) 0.7776(4)
C20 C 0.6201(4) 0.9082(7) 0.6512(5)
C21 C 0.2246(4) 1.0635(4) 0.5461(4)
C22 C 0.0911(4) 1.0526(3) 0.4748(3)
C23 C -0.0242(4) 1.0097(4) 0.5420(3)
C24 C -0.1305(4) 0.9902(5) 0.4332(4)
C25 C -0.0600(4) 1.0232(4) 0.3200(3)
C26 C -0.1297(5) 0.9874(5) 0.1983(4)
C27 C -0.0367(4) 1.1513(4) 0.3328(4)
C28 C 0.0842(4) 0.9796(3) 0.3548(3)
C29 C 0.1810(4) 1.0189(4) 0.2660(4)
C30 C 0.0938(5) 0.8465(4) 0.3732(4)
H1 H 0.4575 1.0073 0.8992
H2 H 0.2636 0.7576 0.9658
H3 H 0.2883 0.6504 1.1465
H4 H 0.4423 0.7094 1.3045
H5 H 0.5718 0.8697 1.2805
H6 H 0.5428 0.9819 1.1044
H7 H 0.1227 0.9169 0.8380
H8 H -0.0597 1.0344 0.8631
H9 H -0.0348 1.2209 0.9478
H10 H 0.1783 1.2921 1.0033
H11 H 0.3614 1.1740 0.9792
H12 H 0.3004 0.8420 0.7765
H13 H 0.4194 1.0344 0.6923
H14 H 0.4752 0.9333 0.5082
H15 H 0.4941 0.7317 0.5156
H16 H 0.3508 0.7624 0.5423
H17 H 0.3880 0.6676 0.7120
H18 H 0.5378 0.6596 0.6962
H19 H 0.6846 0.7959 0.7884
H20 H 0.6316 0.9128 0.8375
H21 H 0.6453 0.9884 0.6588
H22 H 0.6811 0.8675 0.6060
H23 H -0.0513 1.0671 0.5973
H24 H -0.0035 0.9387 0.5849
H25 H -0.2048 1.0395 0.4404
H26 H -0.1583 0.9106 0.4292
H27 H -0.0787 1.0115 0.1343
H28 H -0.1400 0.9046 0.1960
H29 H -0.2141 1.0237 0.1882
H30 H 0.1745 1.1015 0.2551
H31 H 0.2682 0.9992 0.2976
H32 H 0.1610 0.9809 0.1897
H33 H 0.0328 0.8225 0.4289
H34 H 0.0737 0.8081 0.2971
H35 H 0.1808 0.8264 0.4049
loop_
_geom_bond_atom_site_label_1
_geom_bond_atom_site_label_2
_geom_bond_site_symmetry_1
_geom_bond_site_symmetry_2
O1 C27 1_555 1_555
O2 C22 1_555 1_555
O3 C21 1_555 1_555
O4 C15 1_555 1_555
N1 C14 1_555 1_555
C1 C2 1_555 1_555
C2 C3 1_555 1_555
C3 C4 1_555 1_555
C4 C5 1_555 1_555
C5 C6 1_555 1_555
C6 C7 1_555 1_555
C7 C2 1_555 1_555
C8 C1 1_555 1_555
C9 C8 1_555 1_555
C10 C9 1_555 1_555
C11 C10 1_555 1_555
C12 C11 1_555 1_555
C13 C8 1_555 1_555
C14 C1 1_555 1_555
C15 C14 1_555 1_555
C16 C15 1_555 1_555
C17 C16 1_555 1_555
C18 N1 1_555 1_555
C19 N1 1_555 1_555
C20 C16 1_555 1_555
C21 O4 1_555 1_555
C22 C21 1_555 1_555
C23 C22 1_555 1_555
C24 C23 1_555 1_555
C25 C24 1_555 1_555
C26 C25 1_555 1_555
C27 O2 1_555 1_555
C28 C22 1_555 1_555
C29 C28 1_555 1_555
C30 C28 1_555 1_555
H1 C1 1_555 1_555
H2 C3 1_555 1_555
H3 C4 1_555 1_555
H4 C5 1_555 1_555
H5 C6 1_555 1_555
H6 C7 1_555 1_555
H7 C9 1_555 1_555
H8 C10 1_555 1_555
H9 C11 1_555 1_555
H10 C12 1_555 1_555
H11 C13 1_555 1_555
H12 C14 1_555 1_555
H13 C15 1_555 1_555
H14 C16 1_555 1_555
H15 C17 1_555 1_555
H16 C17 1_555 1_555
H17 C18 1_555 1_555
H18 C18 1_555 1_555
H19 C19 1_555 1_555
H20 C19 1_555 1_555
H21 C20 1_555 1_555
H22 C20 1_555 1_555
H23 C23 1_555 1_555
H24 C23 1_555 1_555
H25 C24 1_555 1_555
H26 C24 1_555 1_555
H27 C26 1_555 1_555
H28 C26 1_555 1_555
H29 C26 1_555 1_555
H30 C29 1_555 1_555
H31 C29 1_555 1_555
H32 C29 1_555 1_555
H33 C30 1_555 1_555
H34 C30 1_555 1_555
H35 C30 1_555 1_555
C12 C13 1_555 1_555
C17 C18 1_555 1_555
C19 C20 1_555 1_555
C25 C27 1_555 1_555
C25 C28 1_555 1_555

#END
