
#######################################################################
#
#                 Cambridge Crystallographic Data Centre
#                                CCDC 
#
#######################################################################
#
# If this CIF has been generated from an entry in the Cambridge 
# Structural Database, then it will include bibliographic, chemical, 
# crystal, experimental, refinement or atomic coordinate data resulting 
# from the CCDC's data processing and validation procedures.
#
#######################################################################

data_YAYHEL
_chemical_formula_moiety         'C30 H35 N1 O4'
_chemical_name_systematic        
(2S,3S)-2-(\a-Phenylbenzyl)-3-camphanoyloxy-quinuclidine
_chemical_properties_biological  'neurokinin-1 antagonist activity'
_symmetry_cell_setting           orthorhombic
_symmetry_space_group_name_H-M   'P 21 21 21'
_symmetry_Int_Tables_number      19
_space_group_name_Hall           'P 2ac 2ab'
loop_
_symmetry_equiv_pos_site_id
_symmetry_equiv_pos_as_xyz
1 x,y,z
2 1/2+x,1/2-y,-z
3 -x,1/2+y,1/2-z
4 1/2-x,-y,1/2+z
_cell_length_a                   9.294(4)
_cell_length_b                   11.357(6)
_cell_length_c                   24.702(9)
_cell_angle_alpha                90
_cell_angle_beta                 90
_cell_angle_gamma                90
_cell_volume                     2607.34
_cell_formula_units_Z            4
loop_
_atom_site_label
_atom_site_type_symbol
_atom_site_fract_x
_atom_site_fract_y
_atom_site_fract_z
O1 O 0.5756(9) 0.2603(6) -0.0272(2)
O2 O 0.5200(7) 0.3184(5) 0.0566(2)
O3 O 0.5348(8) 0.3065(5) 0.1987(2)
O4 O 0.5309(6) 0.4514(4) 0.1386(2)
N1 N 0.5868(7) 0.7395(6) 0.1432(3)
C1 C 0.3462(9) 0.6418(7) 0.1375(3)
C2 C 0.269(1) 0.7565(8) 0.1256(4)
C3 C 0.2612(9) 0.8454(7) 0.1647(3)
C4 C 0.176(1) 0.9458(8) 0.1563(4)
C5 C 0.103(1) 0.9543(9) 0.1073(4)
C6 C 0.109(1) 0.8717(9) 0.0703(4)
C7 C 0.191(1) 0.7677(9) 0.0784(4)
C8 C 0.2436(9) 0.5560(7) 0.1663(3)
C9 C 0.199(1) 0.5771(9) 0.2178(4)
C10 C 0.103(1) 0.5010(9) 0.2429(4)
C11 C 0.058(1) 0.4030(9) 0.2175(4)
C12 C 0.096(1) 0.3802(8) 0.1665(4)
C13 C 0.191(1) 0.4572(8) 0.1400(4)
C14 C 0.4872(9) 0.6558(7) 0.1686(3)
C15 C 0.5641(9) 0.5384(7) 0.1806(3)
C16 C 0.724(1) 0.5603(8) 0.1789(3)
C17 C 0.752(1) 0.6692(9) 0.2164(4)
C18 C 0.689(1) 0.7754(8) 0.1842(3)
C19 C 0.668(1) 0.6791(8) 0.0985(4)
C20 C 0.771(1) 0.5866(9) 0.1234(4)
C21 C 0.5241(9) 0.3416(7) 0.1535(3)
C22 C 0.5134(9) 0.2571(8) 0.1075(3)
C23 C 0.375(1) 0.1851(9) 0.1033(4)
C24 C 0.419(1) 0.0880(9) 0.0619(4)
C25 C 0.575(1) 0.1205(7) 0.0476(3)
C26 C 0.658(1) 0.0272(9) 0.0153(4)
C27 C 0.563(1) 0.2345(9) 0.0185(4)
C28 C 0.6303(9) 0.1629(8) 0.1015(3)
C29 C 0.775(1) 0.223(1) 0.0971(4)
C30 C 0.630(1) 0.0708(9) 0.1477(4)
H1 H 0.374 0.610 0.104
H2 H 0.314 0.837 0.197
H3 H 0.169 1.006 0.183
H4 H 0.046 1.022 0.100
H5 H 0.058 0.882 0.037
H6 H 0.191 0.707 0.052
H7 H 0.233 0.644 0.237
H8 H 0.069 0.518 0.278
H9 H -0.002 0.349 0.236
H10 H 0.059 0.313 0.148
H11 H 0.219 0.441 0.104
H12 H 0.458 0.688 0.202
H13 H 0.534 0.510 0.215
H14 H 0.776 0.493 0.191
H15 H 0.852 0.680 0.222
H16 H 0.704 0.660 0.250
H17 H 0.641 0.827 0.209
H18 H 0.766 0.816 0.167
H19 H 0.722 0.736 0.079
H20 H 0.602 0.641 0.075
H21 H 0.770 0.517 0.102
H22 H 0.867 0.617 0.124
H23 H 0.297 0.231 0.090
H24 H 0.349 0.152 0.137
H25 H 0.359 0.090 0.031
H26 H 0.414 0.012 0.078
H27 H 0.753 0.055 0.008
H28 H 0.663 -0.044 0.036
H29 H 0.610 0.013 -0.018
H30 H 0.772 0.279 0.069
H31 H 0.796 0.261 0.130
H32 H 0.847 0.166 0.090
H33 H 0.538 0.034 0.150
H34 H 0.701 0.013 0.141
H35 H 0.651 0.109 0.181
loop_
_geom_bond_atom_site_label_1
_geom_bond_atom_site_label_2
_geom_bond_site_symmetry_1
_geom_bond_site_symmetry_2
O1 C27 1_555 1_555
O2 C22 1_555 1_555
O3 C21 1_555 1_555
O4 C15 1_555 1_555
N1 C14 1_555 1_555
C1 C2 1_555 1_555
C2 C3 1_555 1_555
C3 C4 1_555 1_555
C4 C5 1_555 1_555
C5 C6 1_555 1_555
C6 C7 1_555 1_555
C7 C2 1_555 1_555
C8 C1 1_555 1_555
C9 C8 1_555 1_555
C10 C9 1_555 1_555
C11 C10 1_555 1_555
C12 C11 1_555 1_555
C13 C8 1_555 1_555
C14 C1 1_555 1_555
C15 C14 1_555 1_555
C16 C15 1_555 1_555
C17 C16 1_555 1_555
C18 N1 1_555 1_555
C19 N1 1_555 1_555
C20 C16 1_555 1_555
C21 O4 1_555 1_555
C22 C21 1_555 1_555
C23 C22 1_555 1_555
C24 C23 1_555 1_555
C25 C24 1_555 1_555
C26 C25 1_555 1_555
C27 O2 1_555 1_555
C28 C22 1_555 1_555
C29 C28 1_555 1_555
C30 C28 1_555 1_555
H1 C1 1_555 1_555
H2 C3 1_555 1_555
H3 C4 1_555 1_555
H4 C5 1_555 1_555
H5 C6 1_555 1_555
H6 C7 1_555 1_555
H7 C9 1_555 1_555
H8 C10 1_555 1_555
H9 C11 1_555 1_555
H10 C12 1_555 1_555
H11 C13 1_555 1_555
H12 C14 1_555 1_555
H13 C15 1_555 1_555
H14 C16 1_555 1_555
H15 C17 1_555 1_555
H16 C17 1_555 1_555
H17 C18 1_555 1_555
H18 C18 1_555 1_555
H19 C19 1_555 1_555
H20 C19 1_555 1_555
H21 C20 1_555 1_555
H22 C20 1_555 1_555
H23 C23 1_555 1_555
H24 C23 1_555 1_555
H25 C24 1_555 1_555
H26 C24 1_555 1_555
H27 C26 1_555 1_555
H28 C26 1_555 1_555
H29 C26 1_555 1_555
H30 C29 1_555 1_555
H31 C29 1_555 1_555
H32 C29 1_555 1_555
H33 C30 1_555 1_555
H34 C30 1_555 1_555
H35 C30 1_555 1_555
C12 C13 1_555 1_555
C17 C18 1_555 1_555
C19 C20 1_555 1_555
C25 C27 1_555 1_555
C25 C28 1_555 1_555

#END
