
#######################################################################
#
#                 Cambridge Crystallographic Data Centre
#                                CCDC 
#
#######################################################################
#
# If this CIF has been generated from an entry in the Cambridge 
# Structural Database, then it will include bibliographic, chemical, 
# crystal, experimental, refinement or atomic coordinate data resulting 
# from the CCDC's data processing and validation procedures.
#
#######################################################################

data_YAYJAL
_chemical_formula_moiety         'C12 H20 N2 O1'
_chemical_name_systematic        3-Anilino-1-(isopropylamino)propan-2-ol
_symmetry_cell_setting           monoclinic
_symmetry_space_group_name_H-M   'P 21'
_symmetry_Int_Tables_number      4
_space_group_name_Hall           'P 2yb'
loop_
_symmetry_equiv_pos_site_id
_symmetry_equiv_pos_as_xyz
1 x,y,z
2 -x,1/2+y,-z
_cell_length_a                   8.7676(8)
_cell_length_b                   6.4662(6)
_cell_length_c                   11.1677(12)
_cell_angle_alpha                90
_cell_angle_beta                 105.290(1)
_cell_angle_gamma                90
_cell_volume                     610.72
_exptl_crystal_colour            colorless
_exptl_crystal_description       block
_cell_formula_units_Z            2
_exptl_crystal_recrystallization_method 'ethyl acetate'
loop_
_atom_site_label
_atom_site_type_symbol
_atom_site_fract_x
_atom_site_fract_y
_atom_site_fract_z
N1 N -0.0180(3) 0.3886(4) 0.30241(18)
N2 N 0.2976(3) -0.1975(4) 0.5341(2)
O1 O -0.00479(19) 0.0345(3) 0.4500(2)
C1 C 0.1036(3) 0.2296(5) 0.3115(2)
H1 H 0.1998 0.2945 0.3028
H2 H 0.0686 0.1324 0.2437
C2 C 0.1394(3) 0.1128(4) 0.4333(2)
H3 H 0.1871 0.2073 0.5015
C3 C 0.2559(3) -0.0607(5) 0.4288(2)
H4 H 0.2115 -0.1434 0.3554
H5 H 0.3523 0.0016 0.4185
C4 C 0.4017(3) -0.1471(5) 0.6467(2)
C5 C 0.4858(3) 0.0390(5) 0.6669(2)
H6 H 0.4746 0.1334 0.6023
C6 C 0.5857(3) 0.0842(6) 0.7822(3)
H7 H 0.6395 0.2096 0.7945
C7 C 0.6063(4) -0.0521(7) 0.8776(3)
H8 H 0.6733 -0.0198 0.9548
C8 C 0.5280(4) -0.2371(8) 0.8595(3)
H9 H 0.5430 -0.3311 0.9245
C9 C 0.4260(3) -0.2863(6) 0.7449(3)
H10 H 0.3739 -0.4129 0.7339
C10 C -0.0414(3) 0.5221(5) 0.1919(2)
H11 H 0.0609 0.5847 0.1933
C11 C -0.0983(4) 0.4051(6) 0.0701(2)
H12 H -0.1940 0.3324 0.0691
H13 H -0.0187 0.3080 0.0621
H14 H -0.1179 0.5011 0.0021
C12 C -0.1543(4) 0.6954(5) 0.1993(3)
H15 H -0.2579 0.6394 0.1915
H16 H -0.1583 0.7922 0.1334
H17 H -0.1184 0.7645 0.2778
H18 H 0.010(4) -0.007(6) 0.519(4)
H19 H -0.107(4) 0.331(5) 0.299(3)
H20 H 0.222(4) -0.286(6) 0.539(3)
loop_
_geom_bond_atom_site_label_1
_geom_bond_atom_site_label_2
_geom_bond_site_symmetry_1
_geom_bond_site_symmetry_2
N1 C1 1_555 1_555
N2 C3 1_555 1_555
O1 C2 1_555 1_555
C1 H1 1_555 1_555
H2 C1 1_555 1_555
C2 C1 1_555 1_555
H3 C2 1_555 1_555
C3 C2 1_555 1_555
H4 C3 1_555 1_555
H5 C3 1_555 1_555
C4 N2 1_555 1_555
C5 C4 1_555 1_555
H6 C5 1_555 1_555
C6 C5 1_555 1_555
H7 C6 1_555 1_555
C7 C6 1_555 1_555
H8 C7 1_555 1_555
C8 C7 1_555 1_555
H9 C8 1_555 1_555
C9 C4 1_555 1_555
H10 C9 1_555 1_555
C10 N1 1_555 1_555
H11 C10 1_555 1_555
C11 C10 1_555 1_555
H12 C11 1_555 1_555
H13 C11 1_555 1_555
H14 C11 1_555 1_555
C12 C10 1_555 1_555
H15 C12 1_555 1_555
H16 C12 1_555 1_555
H17 C12 1_555 1_555
H18 O1 1_555 1_555
H19 N1 1_555 1_555
H20 N2 1_555 1_555
C8 C9 1_555 1_555

#END
