
#######################################################################
#
#                 Cambridge Crystallographic Data Centre
#                                CCDC 
#
#######################################################################
#
# If this CIF has been generated from an entry in the Cambridge 
# Structural Database, then it will include bibliographic, chemical, 
# crystal, experimental, refinement or atomic coordinate data resulting 
# from the CCDC's data processing and validation procedures.
#
#######################################################################

data_YAYKIT
_chemical_formula_moiety         'C19 H27 N1 O6 S1'
_chemical_name_systematic        
1,5-Deoxy-2,3:4,6-di-O-isopropylidine-1,5-sulfonamino-D-allitol
_symmetry_cell_setting           monoclinic
_symmetry_space_group_name_H-M   'C c'
_symmetry_Int_Tables_number      9
_space_group_name_Hall           'C -2yc'
loop_
_symmetry_equiv_pos_site_id
_symmetry_equiv_pos_as_xyz
1 x,y,z
2 x,-y,1/2+z
3 1/2+x,1/2+y,z
4 1/2+x,1/2-y,1/2+z
_cell_length_a                   15.742(3)
_cell_length_b                   10.8070(19)
_cell_length_c                   11.583(2)
_cell_angle_alpha                90
_cell_angle_beta                 97.583(3)
_cell_angle_gamma                90
_cell_volume                     1953.31
_exptl_crystal_colour            colorless
_exptl_crystal_description       rod
_chemical_melting_point          162-163deg.C
_cell_formula_units_Z            4
loop_
_atom_site_label
_atom_site_type_symbol
_atom_site_fract_x
_atom_site_fract_y
_atom_site_fract_z
S1 S 0.38814(4) 0.94871(6) 1.11377(5)
O1 O 0.40142(14) 0.89225(19) 1.22618(16)
O2 O 0.44628(13) 1.04057(17) 1.08502(19)
O3 O 0.17196(12) 0.80811(14) 1.02666(15)
O4 O 0.11572(12) 0.93971(14) 0.88878(15)
O5 O 0.14093(11) 1.19569(14) 0.90251(14)
O6 O 0.27297(12) 1.28869(17) 0.90490(18)
N1 N 0.29423(13) 1.01316(19) 1.10232(17)
C1 C 0.4020(3) 0.5388(3) 0.7628(3)
H1 H 0.4610 0.5233 0.7549
H2 H 0.3717 0.5623 0.6886
H3 H 0.3768 0.4651 0.7897
C2 C 0.39637(17) 0.6415(3) 0.8489(3)
C3 C 0.41582(19) 0.7614(3) 0.8235(2)
H4 H 0.4323 0.7792 0.7510
C4 C 0.41172(17) 0.8555(3) 0.9014(2)
H5 H 0.4244 0.9362 0.8818
C5 C 0.38844(16) 0.8292(2) 1.0101(2)
C6 C 0.3684(2) 0.7096(2) 1.0377(3)
H6 H 0.3518 0.6919 1.1100
C7 C 0.3730(2) 0.6175(2) 0.9586(3)
H7 H 0.3602 0.5367 0.9782
C8 C 0.22836(18) 0.9587(2) 1.1665(2)
H8 H 0.2108 1.0205 1.2193
H9 H 0.2537 0.8903 1.2132
C9 C 0.15042(18) 0.9128(2) 1.0902(2)
H10 H 0.1058 0.8907 1.1382
C10 C 0.11396(16) 1.0057(2) 0.9944(2)
H11 H 0.0551 1.0288 1.0038
C11 C 0.17003(16) 1.1184(2) 0.9984(2)
H12 H 0.1640 1.1639 1.0701
C12 C 0.26399(16) 1.0890(2) 0.9981(2)
H13 H 0.2713 1.0423 0.9276
C13 C 0.31201(19) 1.2116(3) 0.9978(3)
H14 H 0.3110 1.2534 1.0717
H15 H 0.3713 1.1962 0.9879
C14 C 0.11865(18) 0.8105(2) 0.9182(2)
C15 C 0.0309(2) 0.7620(3) 0.9295(3)
H16 H 0.0060 0.8103 0.9860
H17 H 0.0350 0.6772 0.9543
H18 H -0.0045 0.7675 0.8556
C16 C 0.1620(3) 0.7427(3) 0.8302(3)
H19 H 0.1695 0.6576 0.8530
H20 H 0.2169 0.7795 0.8253
H21 H 0.1274 0.7474 0.7555
C17 C 0.18455(17) 1.3116(2) 0.9036(2)
C18 C 0.1664(2) 1.3935(3) 1.0034(3)
H22 H 0.1941 1.4721 0.9978
H23 H 0.1880 1.3548 1.0760
H24 H 0.1057 1.4057 0.9997
C19 C 0.1550(2) 1.3711(2) 0.7864(2)
H25 H 0.1622 1.3136 0.7253
H26 H 0.1886 1.4439 0.7777
H27 H 0.0957 1.3935 0.7822
loop_
_geom_bond_atom_site_label_1
_geom_bond_atom_site_label_2
_geom_bond_site_symmetry_1
_geom_bond_site_symmetry_2
S1 O1 1_555 1_555
O2 S1 1_555 1_555
O3 C9 1_555 1_555
O4 C10 1_555 1_555
O5 C11 1_555 1_555
O6 C13 1_555 1_555
N1 S1 1_555 1_555
C1 H1 1_555 1_555
H2 C1 1_555 1_555
H3 C1 1_555 1_555
C2 C1 1_555 1_555
C3 C2 1_555 1_555
H4 C3 1_555 1_555
C4 C3 1_555 1_555
H5 C4 1_555 1_555
C5 S1 1_555 1_555
C6 C5 1_555 1_555
H6 C6 1_555 1_555
C7 C2 1_555 1_555
H7 C7 1_555 1_555
C8 N1 1_555 1_555
H8 C8 1_555 1_555
H9 C8 1_555 1_555
C9 C8 1_555 1_555
H10 C9 1_555 1_555
C10 C9 1_555 1_555
H11 C10 1_555 1_555
C11 C10 1_555 1_555
H12 C11 1_555 1_555
C12 N1 1_555 1_555
H13 C12 1_555 1_555
C13 C12 1_555 1_555
H14 C13 1_555 1_555
H15 C13 1_555 1_555
C14 O3 1_555 1_555
C15 C14 1_555 1_555
H16 C15 1_555 1_555
H17 C15 1_555 1_555
H18 C15 1_555 1_555
C16 C14 1_555 1_555
H19 C16 1_555 1_555
H20 C16 1_555 1_555
H21 C16 1_555 1_555
C17 O5 1_555 1_555
C18 C17 1_555 1_555
H22 C18 1_555 1_555
H23 C18 1_555 1_555
H24 C18 1_555 1_555
C19 C17 1_555 1_555
H25 C19 1_555 1_555
H26 C19 1_555 1_555
H27 C19 1_555 1_555
O4 C14 1_555 1_555
O6 C17 1_555 1_555
C4 C5 1_555 1_555
C6 C7 1_555 1_555
C11 C12 1_555 1_555

#END
