
#######################################################################
#
#                 Cambridge Crystallographic Data Centre
#                                CCDC 
#
#######################################################################
#
# If this CIF has been generated from an entry in the Cambridge 
# Structural Database, then it will include bibliographic, chemical, 
# crystal, experimental, refinement or atomic coordinate data resulting 
# from the CCDC's data processing and validation procedures.
#
#######################################################################

data_YAYKAN
_chemical_formula_moiety         'C64 H72 B2 Li2 O4'
_chemical_name_systematic        
"(\m-3,3'-di-t-butyl-5,5'-bis(triphenylboranyl)[1,1'-bi(cyclohexa-2,5-dien-1-ylidene)]-4,4'-dione)-bis(diethyl ether)-di-lithium(i)"
_symmetry_cell_setting           monoclinic
_symmetry_space_group_name_H-M   'P 21/c'
_symmetry_Int_Tables_number      14
_space_group_name_Hall           '-P 2ybc'
loop_
_symmetry_equiv_pos_site_id
_symmetry_equiv_pos_as_xyz
1 x,y,z
2 -x,1/2+y,1/2-z
3 -x,-y,-z
4 x,1/2-y,1/2+z
_cell_length_a                   11.2234(16)
_cell_length_b                   28.634(4)
_cell_length_c                   18.027(3)
_cell_angle_alpha                90
_cell_angle_beta                 105.397(2)
_cell_angle_gamma                90
_cell_volume                     5585.42
_exptl_crystal_colour            blue
_exptl_crystal_description       block
_cell_formula_units_Z            4
loop_
_atom_site_label
_atom_site_type_symbol
_atom_site_fract_x
_atom_site_fract_y
_atom_site_fract_z
Li1 Li 0.1568(3) 0.34343(11) 0.22743(17)
O1 O 0.01738(11) 0.37970(4) 0.18346(7)
O2 O 0.18698(12) 0.31982(5) 0.32875(7)
B1 B 0.21023(17) 0.36864(7) 0.10126(11)
C1 C 0.00303(15) 0.40617(6) 0.12641(9)
C2 C 0.09695(15) 0.40709(6) 0.08252(9)
C3 C 0.08976(15) 0.44346(6) 0.03326(9)
H1 H 0.1494 0.4451 0.0046
C4 C -0.00266(15) 0.47994(6) 0.02148(9)
C5 C -0.10344(15) 0.47259(6) 0.05586(9)
H2 H -0.1709 0.4938 0.0436
C6 C -0.10679(15) 0.43707(6) 0.10454(9)
C7 C -0.21568(16) 0.42997(6) 0.13957(10)
C8 C -0.26225(18) 0.37938(6) 0.12644(12)
H3 H -0.2877 0.3728 0.0711
H4 H -0.3330 0.3752 0.1481
H5 H -0.1958 0.3579 0.1518
C9 C -0.32333(16) 0.46238(6) 0.10240(11)
H6 H -0.2977 0.4949 0.1134
H7 H -0.3936 0.4556 0.1234
H8 H -0.3476 0.4574 0.0466
C10 C -0.17474(18) 0.44043(7) 0.22606(10)
H9 H -0.1083 0.4190 0.2512
H10 H -0.2450 0.4363 0.2481
H11 H -0.1448 0.4727 0.2341
C11 C 0.15635(15) 0.31521(6) 0.10572(9)
C12 C 0.22147(16) 0.27923(6) 0.15161(10)
H12 H 0.2967 0.2866 0.1885
C13 C 0.18088(18) 0.23311(6) 0.14554(12)
H13 H 0.2276 0.2100 0.1785
C14 C 0.07305(18) 0.22088(6) 0.09181(12)
H14 H 0.0462 0.1893 0.0864
C15 C 0.00438(18) 0.25558(7) 0.04577(11)
H15 H -0.0704 0.2478 0.0087
C16 C 0.04464(16) 0.30151(6) 0.05371(10)
H16 H -0.0053 0.3247 0.0227
C17 C 0.31320(15) 0.38493(6) 0.18120(9)
C18 C 0.29637(17) 0.42197(6) 0.22848(10)
H17 H 0.2190 0.4376 0.2166
C19 C 0.38919(19) 0.43667(7) 0.29238(11)
H18 H 0.3744 0.4621 0.3226
C20 C 0.50262(19) 0.41432(7) 0.31189(11)
H19 H 0.5656 0.4240 0.3556
C21 C 0.52280(17) 0.37769(7) 0.26684(11)
H20 H 0.6004 0.3621 0.2796
C22 C 0.43034(16) 0.36343(6) 0.20300(10)
H21 H 0.4468 0.3382 0.1729
C23 C 0.28024(15) 0.36789(6) 0.03118(9)
C24 C 0.35739(16) 0.40472(6) 0.02124(10)
H22 H 0.3718 0.4299 0.0569
C25 C 0.41358(17) 0.40560(7) -0.03911(10)
H23 H 0.4636 0.4315 -0.0446
C26 C 0.39704(17) 0.36915(7) -0.09090(10)
H24 H 0.4351 0.3697 -0.1321
C27 C 0.32442(17) 0.33197(7) -0.08182(10)
H25 H 0.3136 0.3063 -0.1164
C28 C 0.26677(16) 0.33163(6) -0.02241(10)
H26 H 0.2162 0.3057 -0.0180
C29 C 0.1078(2) 0.28877(8) 0.35639(13)
H27 H 0.0828 0.3035 0.3996
H28 H 0.1524 0.2594 0.3752
C30 C -0.0042(2) 0.27839(8) 0.29186(14)
H29 H -0.0504 0.3073 0.2755
H30 H -0.0569 0.2560 0.3094
H31 H 0.0215 0.2651 0.2484
C31 C 0.29716(19) 0.33339(8) 0.38629(11)
H32 H 0.3596 0.3444 0.3605
H33 H 0.3316 0.3058 0.4177
C32 C 0.2735(2) 0.37140(10) 0.43845(13)
H34 H 0.2332 0.3979 0.4073
H35 H 0.3521 0.3816 0.4730
H36 H 0.2197 0.3594 0.4689
O1B O -0.01738(11) 0.62030(4) -0.18346(7)
B1B B -0.21023(17) 0.63136(7) -0.10126(11)
C1B C -0.00303(15) 0.59383(6) -0.12641(9)
C2B C -0.09695(15) 0.59291(6) -0.08252(9)
C3B C -0.08976(15) 0.55654(6) -0.03326(9)
H1B H -0.1494 0.5549 -0.0046
C4B C 0.00266(15) 0.52006(6) -0.02148(9)
C5B C 0.10344(15) 0.52741(6) -0.05586(9)
H2B H 0.1709 0.5062 -0.0436
C6B C 0.10679(15) 0.56293(6) -0.10454(9)
C7B C 0.21568(16) 0.57003(6) -0.13957(10)
C8B C 0.26225(18) 0.62062(6) -0.12644(12)
H3B H 0.2877 0.6272 -0.0711
H4B H 0.3330 0.6248 -0.1481
H5B H 0.1958 0.6421 -0.1518
C9B C 0.32333(16) 0.53762(6) -0.10240(11)
H6B H 0.2977 0.5051 -0.1134
H7B H 0.3936 0.5444 -0.1234
H8B H 0.3476 0.5426 -0.0466
C10B C 0.17474(18) 0.55957(7) -0.22606(10)
H9B H 0.1083 0.5810 -0.2512
H10B H 0.2450 0.5637 -0.2481
H11B H 0.1448 0.5273 -0.2341
C11B C -0.15635(15) 0.68479(6) -0.10572(9)
C12B C -0.22147(16) 0.72077(6) -0.15161(10)
H12B H -0.2967 0.7134 -0.1885
C13B C -0.18088(18) 0.76689(6) -0.14554(12)
H13B H -0.2276 0.7900 -0.1785
C14B C -0.07305(18) 0.77912(6) -0.09181(12)
H14B H -0.0462 0.8107 -0.0864
C15B C -0.00438(18) 0.74442(7) -0.04577(11)
H15B H 0.0704 0.7522 -0.0087
C16B C -0.04464(16) 0.69849(6) -0.05371(10)
H16B H 0.0053 0.6753 -0.0227
C17B C -0.31320(15) 0.61507(6) -0.18120(9)
C18B C -0.29637(17) 0.57803(6) -0.22848(10)
H17B H -0.2190 0.5624 -0.2166
C19B C -0.38919(19) 0.56333(7) -0.29238(11)
H18B H -0.3744 0.5379 -0.3226
C20B C -0.50262(19) 0.58568(7) -0.31189(11)
H19B H -0.5656 0.5760 -0.3556
C21B C -0.52280(17) 0.62231(7) -0.26684(11)
H20B H -0.6004 0.6379 -0.2796
C22B C -0.43034(16) 0.63657(6) -0.20300(10)
H21B H -0.4468 0.6618 -0.1729
C23B C -0.28024(15) 0.63211(6) -0.03118(9)
C24B C -0.35739(16) 0.59528(6) -0.02124(10)
H22B H -0.3718 0.5701 -0.0569
C25B C -0.41358(17) 0.59440(7) 0.03911(10)
H23B H -0.4636 0.5685 0.0446
C26B C -0.39704(17) 0.63085(7) 0.09090(10)
H24B H -0.4351 0.6303 0.1321
C27B C -0.32442(17) 0.66803(7) 0.08182(10)
H25B H -0.3136 0.6937 0.1164
C28B C -0.26677(16) 0.66837(6) 0.02241(10)
H26B H -0.2162 0.6943 0.0180
Li1B Li -0.1568(3) 0.65657(11) -0.22743(17)
O2B O -0.18698(12) 0.68018(5) -0.32875(7)
C29B C -0.1078(2) 0.71123(8) -0.35639(13)
H27B H -0.0828 0.6965 -0.3996
H28B H -0.1524 0.7406 -0.3752
C30B C 0.0042(2) 0.72161(8) -0.29186(14)
H29B H 0.0504 0.6927 -0.2755
H30B H 0.0569 0.7440 -0.3094
H31B H -0.0215 0.7349 -0.2484
C31B C -0.29716(19) 0.66661(8) -0.38629(11)
H32B H -0.3596 0.6556 -0.3605
H33B H -0.3316 0.6942 -0.4177
C32B C -0.2735(2) 0.62860(10) -0.43845(13)
H34B H -0.2332 0.6021 -0.4073
H35B H -0.3521 0.6184 -0.4730
H36B H -0.2197 0.6406 -0.4689
Li2 Li 0.3109(3) 0.65242(11) 0.26544(18)
O3 O 0.43294(12) 0.60634(4) 0.29047(7)
O4 O 0.31148(13) 0.68967(5) 0.17957(7)
B2 B 0.26928(17) 0.62471(6) 0.39030(11)
C33 C 0.45938(16) 0.58308(6) 0.35114(9)
C34 C 0.37848(15) 0.58537(6) 0.40377(9)
C35 C 0.39823(15) 0.55268(6) 0.46020(9)
H37 H 0.3449 0.5525 0.4933
C36 C 0.49543(15) 0.51801(6) 0.47314(9)
C37 C 0.58509(15) 0.52304(6) 0.42895(9)
H38 H 0.6562 0.5036 0.4414
C38 C 0.57260(16) 0.55408(6) 0.37084(9)
C39 C 0.66858(17) 0.55928(6) 0.32496(10)
C40 C 0.61321(19) 0.54268(7) 0.24182(10)
H39 H 0.6746 0.5464 0.2124
H40 H 0.5398 0.5613 0.2180
H41 H 0.5900 0.5097 0.2420
C41 C 0.7096(2) 0.61067(7) 0.32544(12)
H42 H 0.7449 0.6209 0.3786
H43 H 0.6380 0.6302 0.3014
H44 H 0.7720 0.6136 0.2966
C42 C 0.78404(17) 0.53000(7) 0.36024(11)
H45 H 0.8180 0.5389 0.4142
H46 H 0.8461 0.5356 0.3319
H47 H 0.7619 0.4968 0.3572
C43 C 0.19899(15) 0.62132(6) 0.45981(9)
C44 C 0.23639(17) 0.64744(7) 0.52745(10)
H48 H 0.3044 0.6682 0.5334
C45 C 0.17859(18) 0.64440(7) 0.58632(11)
H49 H 0.2064 0.6633 0.6308
C46 C 0.08142(18) 0.61422(8) 0.58087(11)
H50 H 0.0408 0.6124 0.6208
C47 C 0.0443(2) 0.58674(9) 0.51620(12)
H51 H -0.0209 0.5649 0.5121
C48 C 0.10159(19) 0.59060(7) 0.45658(11)
H52 H 0.0731 0.5716 0.4122
C49 C 0.16308(16) 0.61302(6) 0.30818(10)
C50 C 0.07666(19) 0.64567(8) 0.26845(11)
H53 H 0.0848 0.6773 0.2852
C51 C -0.0208(2) 0.63387(9) 0.20535(13)
H54 H -0.0774 0.6573 0.1805
C52 C -0.0356(2) 0.58890(9) 0.17899(12)
H55 H -0.1023 0.5808 0.1361
C53 C 0.0476(2) 0.55561(8) 0.21564(12)
H56 H 0.0388 0.5242 0.1981
C54 C 0.14490(19) 0.56782(7) 0.27844(11)
H57 H 0.2017 0.5442 0.3022
C55 C 0.33041(16) 0.67781(6) 0.39410(9)
C56 C 0.25603(17) 0.71715(6) 0.39498(11)
H58 H 0.1694 0.7128 0.3855
C57 C 0.30320(19) 0.76198(7) 0.40907(12)
H59 H 0.2490 0.7874 0.4096
C58 C 0.42909(19) 0.77004(6) 0.42241(11)
H60 H 0.4618 0.8007 0.4317
C59 C 0.50551(18) 0.73246(7) 0.42190(11)
H61 H 0.5920 0.7372 0.4310
C60 C 0.45692(17) 0.68743(6) 0.40815(10)
H62 H 0.5120 0.6622 0.4083
C61 C 0.3490(2) 0.73824(7) 0.18742(14)
H63 H 0.3488 0.7493 0.2394
H64 H 0.2881 0.7571 0.1494
C62 C 0.4734(3) 0.74561(10) 0.1758(2)
H65 H 0.5334 0.7258 0.2116
H66 H 0.4969 0.7785 0.1853
H67 H 0.4721 0.7374 0.1228
C63 C 0.2729(2) 0.67297(9) 0.10260(12)
H68 H 0.3400 0.6776 0.0770
H69 H 0.1997 0.6908 0.0736
C64 C 0.2416(2) 0.62244(9) 0.10254(13)
H70 H 0.3150 0.6048 0.1298
H71 H 0.2134 0.6113 0.0494
H72 H 0.1758 0.6180 0.1284
O3B O 0.56706(12) 0.39366(4) 0.70953(7)
B2B B 0.73072(17) 0.37529(6) 0.60970(11)
C33B C 0.54062(16) 0.41692(6) 0.64886(9)
C34B C 0.62152(15) 0.41463(6) 0.59623(9)
C35B C 0.60177(15) 0.44732(6) 0.53980(9)
H37B H 0.6551 0.4475 0.5067
C36B C 0.50457(15) 0.48199(6) 0.52686(9)
C37B C 0.41491(15) 0.47696(6) 0.57105(9)
H38B H 0.3438 0.4964 0.5586
C38B C 0.42740(16) 0.44592(6) 0.62916(9)
C39B C 0.33142(17) 0.44072(6) 0.67504(10)
C40B C 0.38679(19) 0.45732(7) 0.75818(10)
H39B H 0.3254 0.4536 0.7876
H40B H 0.4602 0.4387 0.7820
H41B H 0.4100 0.4903 0.7580
C41B C 0.2904(2) 0.38933(7) 0.67456(12)
H42B H 0.2551 0.3791 0.6214
H43B H 0.3620 0.3698 0.6986
H44B H 0.2280 0.3864 0.7034
C42B C 0.21596(17) 0.47000(7) 0.63976(11)
H45B H 0.1820 0.4611 0.5858
H46B H 0.1539 0.4644 0.6681
H47B H 0.2381 0.5032 0.6428
C43B C 0.80101(15) 0.37868(6) 0.54019(9)
C44B C 0.76361(17) 0.35256(7) 0.47255(10)
H48B H 0.6956 0.3318 0.4666
C45B C 0.82141(18) 0.35560(7) 0.41368(11)
H49B H 0.7936 0.3367 0.3692
C46B C 0.91858(18) 0.38578(8) 0.41913(11)
H50B H 0.9592 0.3876 0.3792
C47B C 0.9557(2) 0.41326(9) 0.48380(12)
H51B H 1.0209 0.4351 0.4879
C48B C 0.89841(19) 0.40940(7) 0.54342(11)
H52B H 0.9269 0.4284 0.5878
C49B C 0.83692(16) 0.38698(6) 0.69182(10)
C50B C 0.92334(19) 0.35433(8) 0.73155(11)
H53B H 0.9152 0.3227 0.7148
C51B C 1.0208(2) 0.36613(9) 0.79465(13)
H54B H 1.0774 0.3427 0.8195
C52B C 1.0356(2) 0.41110(9) 0.82101(12)
H55B H 1.1023 0.4192 0.8639
C53B C 0.9524(2) 0.44439(8) 0.78436(12)
H56B H 0.9612 0.4758 0.8019
C54B C 0.85510(19) 0.43218(7) 0.72156(11)
H57B H 0.7983 0.4558 0.6978
C55B C 0.66959(16) 0.32219(6) 0.60590(9)
C56B C 0.74397(17) 0.28285(6) 0.60502(11)
H58B H 0.8306 0.2872 0.6145
C57B C 0.69680(19) 0.23802(7) 0.59093(12)
H59B H 0.7510 0.2126 0.5904
C58B C 0.57091(19) 0.22996(6) 0.57759(11)
H60B H 0.5382 0.1993 0.5683
C59B C 0.49449(18) 0.26754(7) 0.57810(11)
H61B H 0.4080 0.2628 0.5690
C60B C 0.54308(17) 0.31257(6) 0.59185(10)
H62B H 0.4880 0.3378 0.5917
Li2B Li 0.6891(3) 0.34758(11) 0.73456(18)
O4B O 0.68852(13) 0.31033(5) 0.82043(7)
C61B C 0.6510(2) 0.26176(7) 0.81258(14)
H63B H 0.6512 0.2507 0.7606
H64B H 0.7119 0.2429 0.8506
C62B C 0.5266(3) 0.25439(10) 0.8242(2)
H65B H 0.4666 0.2742 0.7884
H66B H 0.5031 0.2215 0.8147
H67B H 0.5279 0.2626 0.8772
C63B C 0.7271(2) 0.32703(9) 0.89740(12)
H68B H 0.6600 0.3224 0.9230
H69B H 0.8003 0.3092 0.9264
C64B C 0.7584(2) 0.37756(9) 0.89746(13)
H70B H 0.6850 0.3952 0.8702
H71B H 0.7866 0.3887 0.9506
H72B H 0.8242 0.3820 0.8716
loop_
_geom_bond_atom_site_label_1
_geom_bond_atom_site_label_2
_geom_bond_site_symmetry_1
_geom_bond_site_symmetry_2
Li1 O1 1_555 1_555
O1 C1 1_555 1_555
O2 Li1 1_555 1_555
B1 C2 1_555 1_555
C1 C2 1_555 1_555
C2 C3 1_555 1_555
C3 H1 1_555 1_555
C4 C3 1_555 1_555
C5 C4 1_555 1_555
H2 C5 1_555 1_555
C6 C1 1_555 1_555
C7 C6 1_555 1_555
C8 C7 1_555 1_555
H3 C8 1_555 1_555
H4 C8 1_555 1_555
H5 C8 1_555 1_555
C9 C7 1_555 1_555
H6 C9 1_555 1_555
H7 C9 1_555 1_555
H8 C9 1_555 1_555
C10 C7 1_555 1_555
H9 C10 1_555 1_555
H10 C10 1_555 1_555
H11 C10 1_555 1_555
C11 Li1 1_555 1_555
C12 C11 1_555 1_555
H12 C12 1_555 1_555
C13 C12 1_555 1_555
H13 C13 1_555 1_555
C14 C13 1_555 1_555
H14 C14 1_555 1_555
C15 C14 1_555 1_555
H15 C15 1_555 1_555
C16 C11 1_555 1_555
H16 C16 1_555 1_555
C17 Li1 1_555 1_555
C18 C17 1_555 1_555
H17 C18 1_555 1_555
C19 C18 1_555 1_555
H18 C19 1_555 1_555
C20 C19 1_555 1_555
H19 C20 1_555 1_555
C21 C20 1_555 1_555
H20 C21 1_555 1_555
C22 C17 1_555 1_555
H21 C22 1_555 1_555
C23 B1 1_555 1_555
C24 C23 1_555 1_555
H22 C24 1_555 1_555
C25 C24 1_555 1_555
H23 C25 1_555 1_555
C26 C25 1_555 1_555
H24 C26 1_555 1_555
C27 C26 1_555 1_555
H25 C27 1_555 1_555
C28 C23 1_555 1_555
H26 C28 1_555 1_555
C29 O2 1_555 1_555
H27 C29 1_555 1_555
H28 C29 1_555 1_555
C30 C29 1_555 1_555
H29 C30 1_555 1_555
H30 C30 1_555 1_555
H31 C30 1_555 1_555
C31 O2 1_555 1_555
H32 C31 1_555 1_555
H33 C31 1_555 1_555
C32 C31 1_555 1_555
H34 C32 1_555 1_555
H35 C32 1_555 1_555
H36 C32 1_555 1_555
Li2 O3 1_555 1_555
O3 C33 1_555 1_555
O4 Li2 1_555 1_555
B2 C34 1_555 1_555
C33 C34 1_555 1_555
C34 C35 1_555 1_555
C35 H37 1_555 1_555
C36 C35 1_555 1_555
C37 C36 1_555 1_555
H38 C37 1_555 1_555
C38 C33 1_555 1_555
C39 C38 1_555 1_555
C40 C39 1_555 1_555
H39 C40 1_555 1_555
H40 C40 1_555 1_555
H41 C40 1_555 1_555
C41 C39 1_555 1_555
H42 C41 1_555 1_555
H43 C41 1_555 1_555
H44 C41 1_555 1_555
C42 C39 1_555 1_555
H45 C42 1_555 1_555
H46 C42 1_555 1_555
H47 C42 1_555 1_555
C43 B2 1_555 1_555
C44 C43 1_555 1_555
H48 C44 1_555 1_555
C45 C44 1_555 1_555
H49 C45 1_555 1_555
C46 C45 1_555 1_555
H50 C46 1_555 1_555
C47 C46 1_555 1_555
H51 C47 1_555 1_555
C48 C43 1_555 1_555
H52 C48 1_555 1_555
C49 Li2 1_555 1_555
C50 C49 1_555 1_555
H53 C50 1_555 1_555
C51 C50 1_555 1_555
H54 C51 1_555 1_555
C52 C51 1_555 1_555
H55 C52 1_555 1_555
C53 C52 1_555 1_555
H56 C53 1_555 1_555
C54 C49 1_555 1_555
H57 C54 1_555 1_555
C55 Li2 1_555 1_555
C56 C55 1_555 1_555
H58 C56 1_555 1_555
C57 C56 1_555 1_555
H59 C57 1_555 1_555
C58 C57 1_555 1_555
H60 C58 1_555 1_555
C59 C58 1_555 1_555
H61 C59 1_555 1_555
C60 C55 1_555 1_555
H62 C60 1_555 1_555
C61 O4 1_555 1_555
H63 C61 1_555 1_555
H64 C61 1_555 1_555
C62 C61 1_555 1_555
H65 C62 1_555 1_555
H66 C62 1_555 1_555
H67 C62 1_555 1_555
C63 O4 1_555 1_555
H68 C63 1_555 1_555
H69 C63 1_555 1_555
C64 C63 1_555 1_555
H70 C64 1_555 1_555
H71 C64 1_555 1_555
H72 C64 1_555 1_555
O1B C1B 1_555 1_555
B1B C2B 1_555 1_555
C1B C2B 1_555 1_555
C2B C3B 1_555 1_555
C3B H1B 1_555 1_555
C4B C4 1_555 1_555
C5B C4B 1_555 1_555
H2B C5B 1_555 1_555
C6B C1B 1_555 1_555
C7B C6B 1_555 1_555
C8B C7B 1_555 1_555
H3B C8B 1_555 1_555
H4B C8B 1_555 1_555
H5B C8B 1_555 1_555
C9B C7B 1_555 1_555
H6B C9B 1_555 1_555
H7B C9B 1_555 1_555
H8B C9B 1_555 1_555
C10B C7B 1_555 1_555
H9B C10B 1_555 1_555
H10B C10B 1_555 1_555
H11B C10B 1_555 1_555
C11B B1B 1_555 1_555
C12B C11B 1_555 1_555
H12B C12B 1_555 1_555
C13B C12B 1_555 1_555
H13B C13B 1_555 1_555
C14B C13B 1_555 1_555
H14B C14B 1_555 1_555
C15B C14B 1_555 1_555
H15B C15B 1_555 1_555
C16B C11B 1_555 1_555
H16B C16B 1_555 1_555
C17B B1B 1_555 1_555
C18B C17B 1_555 1_555
H17B C18B 1_555 1_555
C19B C18B 1_555 1_555
H18B C19B 1_555 1_555
C20B C19B 1_555 1_555
H19B C20B 1_555 1_555
C21B C20B 1_555 1_555
H20B C21B 1_555 1_555
C22B C17B 1_555 1_555
H21B C22B 1_555 1_555
C23B B1B 1_555 1_555
C24B C23B 1_555 1_555
H22B C24B 1_555 1_555
C25B C24B 1_555 1_555
H23B C25B 1_555 1_555
C26B C25B 1_555 1_555
H24B C26B 1_555 1_555
C27B C26B 1_555 1_555
H25B C27B 1_555 1_555
C28B C23B 1_555 1_555
H26B C28B 1_555 1_555
Li1B O1B 1_555 1_555
O2B Li1B 1_555 1_555
C29B O2B 1_555 1_555
H27B C29B 1_555 1_555
H28B C29B 1_555 1_555
C30B C29B 1_555 1_555
H29B C30B 1_555 1_555
H30B C30B 1_555 1_555
H31B C30B 1_555 1_555
C31B O2B 1_555 1_555
H32B C31B 1_555 1_555
H33B C31B 1_555 1_555
C32B C31B 1_555 1_555
H34B C32B 1_555 1_555
H35B C32B 1_555 1_555
H36B C32B 1_555 1_555
O3B C33B 1_555 1_555
B2B C34B 1_555 1_555
C33B C34B 1_555 1_555
C34B C35B 1_555 1_555
C35B H37B 1_555 1_555
C36B C36 1_555 1_555
C37B C36B 1_555 1_555
H38B C37B 1_555 1_555
C38B C33B 1_555 1_555
C39B C38B 1_555 1_555
C40B C39B 1_555 1_555
H39B C40B 1_555 1_555
H40B C40B 1_555 1_555
H41B C40B 1_555 1_555
C41B C39B 1_555 1_555
H42B C41B 1_555 1_555
H43B C41B 1_555 1_555
H44B C41B 1_555 1_555
C42B C39B 1_555 1_555
H45B C42B 1_555 1_555
H46B C42B 1_555 1_555
H47B C42B 1_555 1_555
C43B B2B 1_555 1_555
C44B C43B 1_555 1_555
H48B C44B 1_555 1_555
C45B C44B 1_555 1_555
H49B C45B 1_555 1_555
C46B C45B 1_555 1_555
H50B C46B 1_555 1_555
C47B C46B 1_555 1_555
H51B C47B 1_555 1_555
C48B C43B 1_555 1_555
H52B C48B 1_555 1_555
C49B B2B 1_555 1_555
C50B C49B 1_555 1_555
H53B C50B 1_555 1_555
C51B C50B 1_555 1_555
H54B C51B 1_555 1_555
C52B C51B 1_555 1_555
H55B C52B 1_555 1_555
C53B C52B 1_555 1_555
H56B C53B 1_555 1_555
C54B C49B 1_555 1_555
H57B C54B 1_555 1_555
C55B B2B 1_555 1_555
C56B C55B 1_555 1_555
H58B C56B 1_555 1_555
C57B C56B 1_555 1_555
H59B C57B 1_555 1_555
C58B C57B 1_555 1_555
H60B C58B 1_555 1_555
C59B C58B 1_555 1_555
H61B C59B 1_555 1_555
C60B C55B 1_555 1_555
H62B C60B 1_555 1_555
Li2B O3B 1_555 1_555
O4B Li2B 1_555 1_555
C61B O4B 1_555 1_555
H63B C61B 1_555 1_555
H64B C61B 1_555 1_555
C62B C61B 1_555 1_555
H65B C62B 1_555 1_555
H66B C62B 1_555 1_555
H67B C62B 1_555 1_555
C63B O4B 1_555 1_555
H68B C63B 1_555 1_555
H69B C63B 1_555 1_555
C64B C63B 1_555 1_555
H70B C64B 1_555 1_555
H71B C64B 1_555 1_555
H72B C64B 1_555 1_555
B1 C11 1_555 1_555
B1 C17 1_555 1_555
C5 C6 1_555 1_555
C15 C16 1_555 1_555
C21 C22 1_555 1_555
C27 C28 1_555 1_555
B2 C49 1_555 1_555
B2 C55 1_555 1_555
C37 C38 1_555 1_555
C47 C48 1_555 1_555
C53 C54 1_555 1_555
C59 C60 1_555 1_555
C3B C4B 1_555 1_555
C5B C6B 1_555 1_555
C11B Li1B 1_555 1_555
C15B C16B 1_555 1_555
C17B Li1B 1_555 1_555
C21B C22B 1_555 1_555
C27B C28B 1_555 1_555
C35B C36B 1_555 1_555
C37B C38B 1_555 1_555
C47B C48B 1_555 1_555
C49B Li2B 1_555 1_555
C53B C54B 1_555 1_555
C55B Li2B 1_555 1_555
C59B C60B 1_555 1_555

#END
