
#######################################################################
#
#                 Cambridge Crystallographic Data Centre
#                                CCDC 
#
#######################################################################
#
# If this CIF has been generated from an entry in the Cambridge 
# Structural Database, then it will include bibliographic, chemical, 
# crystal, experimental, refinement or atomic coordinate data resulting 
# from the CCDC's data processing and validation procedures.
#
#######################################################################

data_YAYSEZ
_chemical_formula_moiety         'C18 H25 N1 O1 S1'
_chemical_name_systematic        1-(1,3-benzothiazol-2-yl)undec-10-en-2-ol
_symmetry_cell_setting           monoclinic
_symmetry_space_group_name_H-M   'P 21'
_symmetry_Int_Tables_number      4
_space_group_name_Hall           'P 2yb'
loop_
_symmetry_equiv_pos_site_id
_symmetry_equiv_pos_as_xyz
1 x,y,z
2 -x,1/2+y,-z
_cell_length_a                   8.3801(12)
_cell_length_b                   5.5354(8)
_cell_length_c                   37.303(5)
_cell_angle_alpha                90
_cell_angle_beta                 95.251(3)
_cell_angle_gamma                90
_cell_volume                     1723.12
_exptl_crystal_colour            colorless
_exptl_crystal_description       prismatic
_cell_formula_units_Z            4
loop_
_atom_site_label
_atom_site_type_symbol
_atom_site_fract_x
_atom_site_fract_y
_atom_site_fract_z
S1 S 0.12764(16) -0.6113(3) 0.63235(4)
N1 N -0.0282(4) -0.2150(8) 0.63843(11)
O1 O -0.0201(4) 0.0333(8) 0.70418(9)
H1 H -0.0535 0.0212 0.6829
C1 C 0.0314(5) -0.4890(10) 0.59391(14)
C2 C 0.0241(6) -0.5679(13) 0.55868(15)
H2 H 0.0769 -0.7081 0.5527
C3 C -0.0627(7) -0.4351(12) 0.53261(15)
H3 H -0.0692 -0.4858 0.5088
C4 C -0.1399(6) -0.2280(12) 0.54152(16)
H4 H -0.1993 -0.1417 0.5235
C5 C -0.1319(5) -0.1457(11) 0.57596(14)
H5 H -0.1841 -0.0043 0.5815
C6 C -0.0442(5) -0.2767(10) 0.60263(14)
C7 C 0.0593(5) -0.3714(10) 0.65719(14)
C8 C 0.1008(6) -0.3582(11) 0.69646(15)
H6 H 0.1990 -0.4479 0.7024
H7 H 0.0167 -0.4362 0.7085
C9 C 0.1228(5) -0.1040(11) 0.71085(13)
H8 H 0.2073 -0.0257 0.6985
C10 C 0.1717(6) -0.1010(13) 0.75040(14)
H9 H 0.2700 -0.1929 0.7549
H10 H 0.0897 -0.1827 0.7626
C11 C 0.1979(7) 0.1475(13) 0.76679(15)
H11 H 0.2723 0.2359 0.7532
H12 H 0.0970 0.2344 0.7647
C12 C 0.2627(8) 0.1404(15) 0.80595(16)
H13 H 0.1909 0.0441 0.8191
H14 H 0.3658 0.0595 0.8077
C13 C 0.2832(8) 0.3840(16) 0.82385(16)
H15 H 0.3531 0.4816 0.8104
H16 H 0.1797 0.4635 0.8225
C14 C 0.3509(9) 0.3767(17) 0.86247(16)
H17 H 0.2835 0.2725 0.8756
H18 H 0.4563 0.3030 0.8635
C15 C 0.3658(10) 0.6136(18) 0.88124(18)
H19 H 0.2604 0.6870 0.8805
H20 H 0.4329 0.7185 0.8682
C16 C 0.4346(11) 0.601(2) 0.9196(2)
H21 H 0.5328 0.5105 0.9203
H22 H 0.3604 0.5163 0.9332
C17 C 0.465(3) 0.844(5) 0.9370(8)
H23 H 0.5407 0.9453 0.9280
C18 C 0.392(3) 0.917(6) 0.9638(5)
H24 H 0.3167 0.8180 0.9732
H25 H 0.4150 1.0683 0.9737
S2 S 0.63418(15) 0.4238(3) 0.63101(3)
N2 N 0.4871(5) 0.0414(9) 0.64960(12)
O2 O 0.4828(4) 0.6455(7) 0.70617(9)
H26 H 0.4854 0.7209 0.6873
C19 C 0.5389(5) 0.2468(10) 0.59699(13)
C20 C 0.5283(6) 0.2820(12) 0.56021(14)
H27 H 0.5769 0.4148 0.5505
C21 C 0.4457(7) 0.1194(13) 0.53851(15)
H28 H 0.4378 0.1402 0.5137
C22 C 0.3733(7) -0.0772(14) 0.55317(16)
H29 H 0.3173 -0.1876 0.5380
C23 C 0.3826(6) -0.1119(12) 0.58951(16)
H30 H 0.3325 -0.2444 0.5989
C24 C 0.4679(6) 0.0526(10) 0.61270(14)
C25 C 0.5701(5) 0.2225(10) 0.66267(13)
C26 C 0.6142(7) 0.2608(11) 0.70132(14)
H31 H 0.7154 0.1797 0.7077
H32 H 0.5342 0.1826 0.7145
C27 C 0.6304(5) 0.5208(11) 0.71405(13)
H33 H 0.7136 0.6006 0.7015
C28 C 0.6780(7) 0.5278(12) 0.75375(14)
H34 H 0.7764 0.4363 0.7585
H35 H 0.5958 0.4456 0.7658
C29 C 0.7034(7) 0.7748(13) 0.77048(14)
H36 H 0.7803 0.8630 0.7576
H37 H 0.6031 0.8631 0.7679
C30 C 0.7633(8) 0.7636(14) 0.80988(15)
H38 H 0.6870 0.6718 0.8224
H39 H 0.8639 0.6758 0.8122
C31 C 0.7888(8) 1.0035(14) 0.82822(15)
H40 H 0.8622 1.0980 0.8152
H41 H 0.6874 1.0890 0.8268
C32 C 0.8542(9) 0.9883(16) 0.86703(17)
H42 H 0.9573 0.9074 0.8682
H43 H 0.7829 0.8881 0.8797
C33 C 0.8755(10) 1.2242(18) 0.88641(18)
H44 H 0.9474 1.3246 0.8739
H45 H 0.7726 1.3057 0.8853
C34 C 0.9400(12) 1.2037(19) 0.9249(2)
H46 H 1.0410 1.1210 0.9257
H47 H 0.8662 1.1094 0.9372
C35 C 0.965(3) 1.439(5) 0.9439(7)
H48 H 1.0478 1.5367 0.9373
C36 C 0.882(2) 1.519(4) 0.9687(4)
H49 H 0.7980 1.4271 0.9761
H50 H 0.9057 1.6685 0.9792
H51? H 0.5474 0.5688 0.9201
H52? H 0.3833 0.4704 0.9310
H53? H 1.0500 1.1532 0.9261
H54? H 0.8776 1.0869 0.9365
C37? C 0.929(7) 1.448(9) 0.9432(18)
H55? H 0.8420 1.5498 0.9375
C38? C 1.042(5) 1.508(9) 0.9666(8)
H56? H 1.1280 1.4036 0.9720
H57? H 1.0389 1.6559 0.9783
C39? C 0.409(4) 0.831(7) 0.9398(13)
C40? C 0.515(3) 0.940(6) 0.9609(6)
H58? H 0.3074 0.9004 0.9368
H59? H 0.6178 0.8772 0.9648
H60? H 0.4885 1.0819 0.9724
loop_
_geom_bond_atom_site_label_1
_geom_bond_atom_site_label_2
_geom_bond_site_symmetry_1
_geom_bond_site_symmetry_2
S1 C1 1_555 1_555
N1 C6 1_555 1_555
O1 H1 1_555 1_555
C1 C2 1_555 1_555
C2 H2 1_555 1_555
C3 C2 1_555 1_555
H3 C3 1_555 1_555
C4 C3 1_555 1_555
H4 C4 1_555 1_555
C5 C4 1_555 1_555
H5 C5 1_555 1_555
C6 C1 1_555 1_555
C7 S1 1_555 1_555
C8 C7 1_555 1_555
H6 C8 1_555 1_555
H7 C8 1_555 1_555
C9 O1 1_555 1_555
H8 C9 1_555 1_555
C10 C9 1_555 1_555
H9 C10 1_555 1_555
H10 C10 1_555 1_555
C11 C10 1_555 1_555
H11 C11 1_555 1_555
H12 C11 1_555 1_555
C12 C11 1_555 1_555
H13 C12 1_555 1_555
H14 C12 1_555 1_555
C13 C12 1_555 1_555
H15 C13 1_555 1_555
H16 C13 1_555 1_555
C14 C13 1_555 1_555
H17 C14 1_555 1_555
H18 C14 1_555 1_555
C15 C14 1_555 1_555
H19 C15 1_555 1_555
H20 C15 1_555 1_555
C16 C15 1_555 1_555
H21 C16 1_555 1_555
H22 C16 1_555 1_555
C17 C16 1_555 1_555
H23 C17 1_555 1_555
C18 C17 1_555 1_555
H24 C18 1_555 1_555
H25 C18 1_555 1_555
S2 C19 1_555 1_555
N2 C24 1_555 1_555
O2 H26 1_555 1_555
C19 C20 1_555 1_555
C20 H27 1_555 1_555
C21 C20 1_555 1_555
H28 C21 1_555 1_555
C22 C21 1_555 1_555
H29 C22 1_555 1_555
C23 C22 1_555 1_555
H30 C23 1_555 1_555
C24 C19 1_555 1_555
C25 S2 1_555 1_555
C26 C25 1_555 1_555
H31 C26 1_555 1_555
H32 C26 1_555 1_555
C27 O2 1_555 1_555
H33 C27 1_555 1_555
C28 C27 1_555 1_555
H34 C28 1_555 1_555
H35 C28 1_555 1_555
C29 C28 1_555 1_555
H36 C29 1_555 1_555
H37 C29 1_555 1_555
C30 C29 1_555 1_555
H38 C30 1_555 1_555
H39 C30 1_555 1_555
C31 C30 1_555 1_555
H40 C31 1_555 1_555
H41 C31 1_555 1_555
C32 C31 1_555 1_555
H42 C32 1_555 1_555
H43 C32 1_555 1_555
C33 C32 1_555 1_555
H44 C33 1_555 1_555
H45 C33 1_555 1_555
C34 C33 1_555 1_555
H46 C34 1_555 1_555
H47 C34 1_555 1_555
C35 C34 1_555 1_555
H48 C35 1_555 1_555
C36 C35 1_555 1_555
H49 C36 1_555 1_555
H50 C36 1_555 1_555
N1 C7 1_555 1_555
C5 C6 1_555 1_555
C8 C9 1_555 1_555
N2 C25 1_555 1_555
C23 C24 1_555 1_555
C26 C27 1_555 1_555

#END
