
#######################################################################
#
#                 Cambridge Crystallographic Data Centre
#                                CCDC 
#
#######################################################################
#
# If this CIF has been generated from an entry in the Cambridge 
# Structural Database, then it will include bibliographic, chemical, 
# crystal, experimental, refinement or atomic coordinate data resulting 
# from the CCDC's data processing and validation procedures.
#
#######################################################################

data_YAYWIF
_chemical_formula_moiety         'C32 H24 S1'
_chemical_name_systematic        2,5-bis(2,2-Diphenylethenyl)thiophene
_symmetry_cell_setting           monoclinic
_symmetry_space_group_name_H-M   'C 2/c'
_symmetry_Int_Tables_number      15
_space_group_name_Hall           '-C 2yn'
loop_
_symmetry_equiv_pos_site_id
_symmetry_equiv_pos_as_xyz
1 x,y,z
2 1/2+x,1/2+y,z
3 -x,y,1/2-z
4 1/2-x,1/2+y,1/2-z
5 -x,-y,-z
6 1/2-x,1/2-y,-z
7 x,-y,1/2+z
8 1/2+x,1/2-y,1/2+z
_cell_length_a                   26.7320(14)
_cell_length_b                   9.7504(5)
_cell_length_c                   21.9268(12)
_cell_angle_alpha                90
_cell_angle_beta                 125.9890(10)
_cell_angle_gamma                90
_cell_volume                     4624.31
_exptl_crystal_colour            red
_exptl_crystal_description       block
_cell_formula_units_Z            8
_exptl_crystal_recrystallization_method dichloromethane/hexane
loop_
_atom_site_label
_atom_site_type_symbol
_atom_site_fract_x
_atom_site_fract_y
_atom_site_fract_z
S1 S 0.085451(14) 0.53140(3) 0.129295(16)
C1 C 0.10774(6) 0.70125(13) 0.15324(6)
C2 C 0.08333(6) 0.75620(15) 0.18841(7)
H1 H 0.0897 0.8485 0.2053
C3 C 0.14865(5) 0.77593(13) 0.14244(6)
H2 H 0.1531 0.8703 0.1555
C4 C 0.18161(5) 0.73538(12) 0.11720(6)
C5 C 0.22250(5) 0.83575(12) 0.11536(6)
C6 C 0.22321(6) 0.84329(13) 0.05213(7)
H3 H 0.1991 0.7807 0.0117
C7 C 0.25872(7) 0.94087(13) 0.04777(7)
H4 H 0.2580 0.9461 0.0040
C8 C 0.29517(6) 1.03064(13) 0.10702(7)
H5 H 0.3198 1.0971 0.1043
C9 C 0.29556(6) 1.02298(14) 0.17048(7)
H6 H 0.3206 1.0842 0.2113
C10 C 0.25962(6) 0.92661(14) 0.17461(6)
H7 H 0.2603 0.9224 0.2183
C11 C 0.18047(5) 0.59449(12) 0.08990(6)
C12 C 0.23216(6) 0.50995(13) 0.13297(7)
H8 H 0.2669 0.5410 0.1805
C13 C 0.23332(6) 0.38108(13) 0.10709(8)
H9 H 0.2684 0.3236 0.1374
C14 C 0.18345(6) 0.33591(13) 0.03719(8)
H10 H 0.1846 0.2486 0.0189
C15 C 0.13195(6) 0.41869(14) -0.00578(7)
H11 H 0.0975 0.3875 -0.0535
C16 C 0.13034(6) 0.54680(13) 0.02027(7)
H12 H 0.0947 0.6027 -0.0097
C17 C 0.04457(6) 0.53373(15) 0.16842(7)
C18 C 0.04808(6) 0.66196(16) 0.19682(7)
H13 H 0.0284 0.6848 0.2201
C19 C 0.01012(6) 0.42050(16) 0.16918(7)
H14 H -0.0131 0.4424 0.1880
C20 C 0.00553(5) 0.28903(15) 0.14765(7)
C21 C -0.03716(6) 0.19140(16) 0.14748(7)
C22 C -0.02829(6) 0.05043(17) 0.14727(8)
H15 H 0.0055 0.0180 0.1478
C23 C -0.06780(7) -0.04353(19) 0.14633(9)
H16 H -0.0611 -0.1391 0.1459
C24 C -0.11697(7) 0.0022(2) 0.14606(9)
H17 H -0.1439 -0.0618 0.1458
C25 C -0.12663(6) 0.14159(19) 0.14611(8)
H18 H -0.1603 0.1731 0.1459
C26 C -0.08760(6) 0.23566(18) 0.14642(7)
H19 H -0.0951 0.3311 0.1459
C27 C 0.04295(6) 0.23408(14) 0.12293(7)
C28 C 0.10688(6) 0.21811(15) 0.17474(7)
H20 H 0.1268 0.2443 0.2258
C29 C 0.14136(6) 0.16416(15) 0.15179(8)
H21 H 0.1848 0.1541 0.1872
C30 C 0.11293(7) 0.12503(14) 0.07791(9)
H22 H 0.1367 0.0869 0.0627
C31 C 0.04969(7) 0.14145(15) 0.02592(8)
H23 H 0.0301 0.1163 -0.0252
C32 C 0.01495(6) 0.19469(15) 0.04863(7)
H24 H -0.0285 0.2043 0.0129
loop_
_geom_bond_atom_site_label_1
_geom_bond_atom_site_label_2
_geom_bond_site_symmetry_1
_geom_bond_site_symmetry_2
S1 C1 1_555 1_555
C1 C2 1_555 1_555
C2 H1 1_555 1_555
C3 C1 1_555 1_555
H2 C3 1_555 1_555
C4 C3 1_555 1_555
C5 C4 1_555 1_555
C6 C5 1_555 1_555
H3 C6 1_555 1_555
C7 C6 1_555 1_555
H4 C7 1_555 1_555
C8 C7 1_555 1_555
H5 C8 1_555 1_555
C9 C8 1_555 1_555
H6 C9 1_555 1_555
C10 C5 1_555 1_555
H7 C10 1_555 1_555
C11 C4 1_555 1_555
C12 C11 1_555 1_555
H8 C12 1_555 1_555
C13 C12 1_555 1_555
H9 C13 1_555 1_555
C14 C13 1_555 1_555
H10 C14 1_555 1_555
C15 C14 1_555 1_555
H11 C15 1_555 1_555
C16 C11 1_555 1_555
H12 C16 1_555 1_555
C17 S1 1_555 1_555
C18 C2 1_555 1_555
H13 C18 1_555 1_555
C19 C17 1_555 1_555
H14 C19 1_555 1_555
C20 C19 1_555 1_555
C21 C20 1_555 1_555
C22 C21 1_555 1_555
H15 C22 1_555 1_555
C23 C22 1_555 1_555
H16 C23 1_555 1_555
C24 C23 1_555 1_555
H17 C24 1_555 1_555
C25 C24 1_555 1_555
H18 C25 1_555 1_555
C26 C21 1_555 1_555
H19 C26 1_555 1_555
C27 C20 1_555 1_555
C28 C27 1_555 1_555
H20 C28 1_555 1_555
C29 C28 1_555 1_555
H21 C29 1_555 1_555
C30 C29 1_555 1_555
H22 C30 1_555 1_555
C31 C30 1_555 1_555
H23 C31 1_555 1_555
C32 C27 1_555 1_555
H24 C32 1_555 1_555
C9 C10 1_555 1_555
C15 C16 1_555 1_555
C17 C18 1_555 1_555
C25 C26 1_555 1_555
C31 C32 1_555 1_555

#END
