
#######################################################################
#
#                 Cambridge Crystallographic Data Centre
#                                CCDC 
#
#######################################################################
#
# If this CIF has been generated from an entry in the Cambridge 
# Structural Database, then it will include bibliographic, chemical, 
# crystal, experimental, refinement or atomic coordinate data resulting 
# from the CCDC's data processing and validation procedures.
#
#######################################################################

data_YAZHUE
_chemical_formula_moiety         'C13 H19 N3 O4 S1'
_chemical_name_systematic        
'Methyl 2-(2-acetamidophenylsulfonamido)-2-methylpropanoate'
_symmetry_cell_setting           monoclinic
_symmetry_space_group_name_H-M   'C 2/c'
_symmetry_Int_Tables_number      15
_space_group_name_Hall           '-C 2yn'
loop_
_symmetry_equiv_pos_site_id
_symmetry_equiv_pos_as_xyz
1 x,y,z
2 -x,y,1/2-z
3 1/2+x,1/2+y,z
4 1/2-x,1/2+y,1/2-z
5 -x,-y,-z
6 x,-y,1/2+z
7 1/2-x,1/2-y,-z
8 1/2+x,1/2-y,1/2+z
_cell_length_a                   34.8270(8)
_cell_length_b                   8.3408(4)
_cell_length_c                   26.8610(9)
_cell_angle_alpha                90
_cell_angle_beta                 129.3180(10)
_cell_angle_gamma                90
_cell_volume                     6036.5
_exptl_crystal_colour            colorless
_exptl_crystal_description       needle
_chemical_melting_point          '157-161 deg.C'
_cell_formula_units_Z            16
loop_
_atom_site_label
_atom_site_type_symbol
_atom_site_fract_x
_atom_site_fract_y
_atom_site_fract_z
S1 S 0.12384(3) 1.07199(8) 0.16980(3)
O1 O 0.03534(8) 0.5052(3) 0.10784(10)
O2 O 0.08365(8) 1.0754(2) 0.10157(9)
O3 O 0.16524(8) 1.1760(2) 0.19613(10)
O4 O 0.10947(8) 1.2631(3) 0.33616(9)
N1 N 0.06520(8) 0.7559(3) 0.11470(11)
H1 H 0.0554 0.8537 0.0992
N2 N 0.09838(8) 1.1137(3) 0.20166(11)
H2 H 0.0669 1.1410 0.1747
N3 N 0.07779(9) 1.3699(3) 0.24015(11)
H3 H 0.0737 1.3588 0.2045
C1 C 0.02864(10) 0.6421(4) 0.08680(13)
C2 C 0.11636(10) 0.7365(3) 0.16495(13)
C3 C 0.14751(10) 0.8723(3) 0.19136(13)
C4 C 0.19871(10) 0.8540(4) 0.23714(14)
H4 H 0.2195 0.9459 0.2533
C5 C 0.21960(11) 0.7037(4) 0.25935(14)
H5 H 0.2546 0.6918 0.2905
C6 C 0.18880(11) 0.5704(4) 0.23549(14)
H6 H 0.2028 0.4670 0.2516
C7 C 0.13825(11) 0.5859(3) 0.18879(13)
H7 H 0.1179 0.4928 0.1725
C8 C 0.12154(10) 1.1116(4) 0.27103(13)
C9 C 0.17797(11) 1.1296(4) 0.31658(14)
H8 H 0.1928 1.0355 0.3127
H9 H 0.1904 1.1385 0.3610
H10 H 0.1869 1.2263 0.3053
C10 C 0.10690(13) 0.9561(4) 0.28495(15)
H11 H 0.0706 0.9484 0.2567
H12 H 0.1205 0.9553 0.3300
H13 H 0.1201 0.8648 0.2771
C11 C 0.10140(10) 1.2558(4) 0.28438(13)
C12 C 0.05833(12) 1.5134(4) 0.24837(15)
H14 H 0.0240 1.4942 0.2307
H15 H 0.0592 1.6034 0.2256
H16 H 0.0787 1.5390 0.2943
C13 C -0.02089(11) 0.6987(4) 0.02735(14)
H17 H -0.0231 0.6796 -0.0104
H18 H -0.0245 0.8137 0.0311
H19 H -0.0474 0.6398 0.0226
S2 S 0.18458(2) 0.20138(8) 0.52405(3)
O5 O 0.14872(8) 0.7169(3) 0.40206(10)
O6 O 0.21915(7) 0.1844(2) 0.51216(9)
O7 O 0.19085(7) 0.1049(2) 0.57281(9)
O8 O 0.00341(8) 0.0457(3) 0.36409(11)
N4 N 0.19606(9) 0.5095(3) 0.46831(11)
H20 H 0.2141 0.4266 0.4739
N5 N 0.13112(8) 0.1616(3) 0.45538(11)
H21 H 0.1313 0.1270 0.4246
N6 N 0.06994(9) -0.0867(3) 0.38980(11)
H22 H 0.1023 -0.0864 0.4117
C14 C 0.17721(10) 0.6061(4) 0.41644(13)
C15 C 0.18852(10) 0.5340(3) 0.51346(13)
C16 C 0.18515(10) 0.4046(3) 0.54448(13)
C17 C 0.18002(10) 0.4335(3) 0.59093(13)
H23 H 0.1797 0.3460 0.6133
C18 C 0.17530(11) 0.5889(4) 0.60493(14)
H24 H 0.1704 0.6078 0.6355
C19 C 0.17775(11) 0.7160(4) 0.57388(14)
H25 H 0.1743 0.8224 0.5831
C20 C 0.18515(11) 0.6906(4) 0.53001(14)
H26 H 0.1880 0.7798 0.5106
C21 C 0.08180(10) 0.1777(3) 0.43910(13)
C22 C 0.05883(11) 0.3389(4) 0.40568(15)
H27 H 0.0795 0.4263 0.4355
H28 H 0.0254 0.3471 0.3924
H29 H 0.0569 0.3466 0.3677
C23 C 0.08306(11) 0.1590(4) 0.49702(14)
H30 H 0.1000 0.0588 0.5196
H31 H 0.0491 0.1566 0.4820
H32 H 0.1010 0.2496 0.5264
C24 C 0.04853(10) 0.0394(4) 0.39344(13)
C25 C 0.04113(12) -0.2253(4) 0.35043(15)
H33 H 0.0180 -0.2557 0.3580
H34 H 0.0636 -0.3151 0.3619
H35 H 0.0224 -0.1986 0.3049
C26 C 0.19337(11) 0.5674(4) 0.37762(14)
H36 H 0.1646 0.5715 0.3317
H37 H 0.2078 0.4596 0.3887
H38 H 0.2182 0.6457 0.3871
loop_
_geom_bond_atom_site_label_1
_geom_bond_atom_site_label_2
_geom_bond_site_symmetry_1
_geom_bond_site_symmetry_2
S1 O2 1_555 1_555
O1 C1 1_555 1_555
O3 S1 1_555 1_555
O4 C11 1_555 1_555
N1 H1 1_555 1_555
N2 S1 1_555 1_555
H2 N2 1_555 1_555
N3 H3 1_555 1_555
C1 N1 1_555 1_555
C2 N1 1_555 1_555
C3 S1 1_555 1_555
C4 C3 1_555 1_555
H4 C4 1_555 1_555
C5 C4 1_555 1_555
H5 C5 1_555 1_555
C6 C5 1_555 1_555
H6 C6 1_555 1_555
C7 C2 1_555 1_555
H7 C7 1_555 1_555
C8 N2 1_555 1_555
C9 C8 1_555 1_555
H8 C9 1_555 1_555
H9 C9 1_555 1_555
H10 C9 1_555 1_555
C10 C8 1_555 1_555
H11 C10 1_555 1_555
H12 C10 1_555 1_555
H13 C10 1_555 1_555
C11 N3 1_555 1_555
C12 N3 1_555 1_555
H14 C12 1_555 1_555
H15 C12 1_555 1_555
H16 C12 1_555 1_555
C13 C1 1_555 1_555
H17 C13 1_555 1_555
H18 C13 1_555 1_555
H19 C13 1_555 1_555
S2 O6 1_555 1_555
O5 C14 1_555 1_555
O7 S2 1_555 1_555
O8 C24 1_555 1_555
N4 H20 1_555 1_555
N5 S2 1_555 1_555
H21 N5 1_555 1_555
N6 H22 1_555 1_555
C14 N4 1_555 1_555
C15 N4 1_555 1_555
C16 S2 1_555 1_555
C17 C16 1_555 1_555
H23 C17 1_555 1_555
C18 C17 1_555 1_555
H24 C18 1_555 1_555
C19 C18 1_555 1_555
H25 C19 1_555 1_555
C20 C15 1_555 1_555
H26 C20 1_555 1_555
C21 N5 1_555 1_555
C22 C21 1_555 1_555
H27 C22 1_555 1_555
H28 C22 1_555 1_555
H29 C22 1_555 1_555
C23 C21 1_555 1_555
H30 C23 1_555 1_555
H31 C23 1_555 1_555
H32 C23 1_555 1_555
C24 N6 1_555 1_555
C25 N6 1_555 1_555
H33 C25 1_555 1_555
H34 C25 1_555 1_555
H35 C25 1_555 1_555
C26 C14 1_555 1_555
H36 C26 1_555 1_555
H37 C26 1_555 1_555
H38 C26 1_555 1_555
C2 C3 1_555 1_555
C6 C7 1_555 1_555
C8 C11 1_555 1_555
C15 C16 1_555 1_555
C19 C20 1_555 1_555
C21 C24 1_555 1_555

#END
