
#######################################################################
#
#                 Cambridge Crystallographic Data Centre
#                                CCDC 
#
#######################################################################
#
# If this CIF has been generated from an entry in the Cambridge 
# Structural Database, then it will include bibliographic, chemical, 
# crystal, experimental, refinement or atomic coordinate data resulting 
# from the CCDC's data processing and validation procedures.
#
#######################################################################

data_YAZJAM
_chemical_formula_moiety         'C12 H16 N2 O4 S1'
_chemical_name_systematic        
'(S)-methyl 1-((2-aminophenyl)sulfonyl)pyrrolidine-2-carboxylate'
_symmetry_cell_setting           orthorhombic
_symmetry_space_group_name_H-M   'P 21 21 21'
_symmetry_Int_Tables_number      19
_space_group_name_Hall           'P 2ac 2ab'
loop_
_symmetry_equiv_pos_site_id
_symmetry_equiv_pos_as_xyz
1 x,y,z
2 1/2+x,1/2-y,-z
3 -x,1/2+y,1/2-z
4 1/2-x,-y,1/2+z
_cell_length_a                   7.6518(4)
_cell_length_b                   11.1273(6)
_cell_length_c                   14.9119(9)
_cell_angle_alpha                90
_cell_angle_beta                 90
_cell_angle_gamma                90
_cell_volume                     1269.66
_exptl_crystal_colour            colorless
_exptl_crystal_description       rectangular
_chemical_melting_point          '118-119 deg.C'
_cell_formula_units_Z            4
loop_
_atom_site_label
_atom_site_type_symbol
_atom_site_fract_x
_atom_site_fract_y
_atom_site_fract_z
S1 S 0.99580(5) 0.46544(3) 0.76432(2)
O1 O 1.04330(15) 0.36240(11) 0.71158(8)
O2 O 1.04521(15) 0.58361(10) 0.73401(8)
O3 O 0.61364(18) 0.69744(11) 0.91711(8)
O4 O 0.71827(16) 0.51194(11) 0.94418(8)
N1 N 1.0800(2) 0.65875(13) 0.91144(10)
H1 H 1.1035 0.7153 0.9509
H2 H 1.0317 0.6777 0.8598
N2 N 0.78414(18) 0.46540(13) 0.76842(9)
C1 C 1.1184(2) 0.54213(16) 0.93028(11)
C2 C 1.0832(2) 0.44401(16) 0.87261(11)
C3 C 1.1127(2) 0.32550(16) 0.89967(11)
H3 H 1.0834 0.2612 0.8605
C4 C 1.1842(2) 0.30070(17) 0.98293(12)
H4 H 1.2030 0.2201 1.0017
C5 C 1.2283(2) 0.39723(17) 1.03889(12)
H5 H 1.2814 0.3818 1.0953
C6 C 1.1959(2) 0.51365(16) 1.01362(12)
H6 H 1.2266 0.5770 1.0533
C7 C 0.6780(2) 0.56989(16) 0.79153(12)
H7 H 0.7178 0.6413 0.7563
C8 C 0.4974(2) 0.52933(15) 0.75857(11)
H8 H 0.4029 0.5738 0.7895
H9 H 0.4854 0.5409 0.6930
C9 C 0.4940(3) 0.39547(17) 0.78322(12)
H10 H 0.4565 0.3843 0.8462
H11 H 0.4130 0.3509 0.7435
C10 C 0.6823(2) 0.35198(15) 0.77014(13)
H12 H 0.7197 0.2998 0.8204
H13 H 0.6951 0.3073 0.7131
C11 C 0.6677(2) 0.60213(16) 0.89124(12)
C12 C 0.7174(3) 0.5381(2) 1.03969(12)
H14 H 0.7952 0.6062 1.0518
H15 H 0.7580 0.4675 1.0729
H16 H 0.5984 0.5584 1.0587
loop_
_geom_bond_atom_site_label_1
_geom_bond_atom_site_label_2
_geom_bond_site_symmetry_1
_geom_bond_site_symmetry_2
S1 O1 1_555 1_555
O2 S1 1_555 1_555
O3 C11 1_555 1_555
O4 C11 1_555 1_555
N1 H1 1_555 1_555
H2 N1 1_555 1_555
N2 S1 1_555 1_555
C1 N1 1_555 1_555
C2 S1 1_555 1_555
C3 C2 1_555 1_555
H3 C3 1_555 1_555
C4 C3 1_555 1_555
H4 C4 1_555 1_555
C5 C4 1_555 1_555
H5 C5 1_555 1_555
C6 C1 1_555 1_555
H6 C6 1_555 1_555
C7 N2 1_555 1_555
H7 C7 1_555 1_555
C8 C7 1_555 1_555
H8 C8 1_555 1_555
H9 C8 1_555 1_555
C9 C8 1_555 1_555
H10 C9 1_555 1_555
H11 C9 1_555 1_555
C10 N2 1_555 1_555
H12 C10 1_555 1_555
H13 C10 1_555 1_555
C11 C7 1_555 1_555
C12 O4 1_555 1_555
H14 C12 1_555 1_555
H15 C12 1_555 1_555
H16 C12 1_555 1_555
C1 C2 1_555 1_555
C5 C6 1_555 1_555
C9 C10 1_555 1_555

#END
