
#######################################################################
#
#                 Cambridge Crystallographic Data Centre
#                                CCDC 
#
#######################################################################
#
# If this CIF has been generated from an entry in the Cambridge 
# Structural Database, then it will include bibliographic, chemical, 
# crystal, experimental, refinement or atomic coordinate data resulting 
# from the CCDC's data processing and validation procedures.
#
#######################################################################

data_YAZJEQ
_chemical_formula_moiety         'C14 H20 N2 O5 S1'
_chemical_name_systematic        
'(S)-Methyl 2-(2-acetamidophenylsulfonamido)-3-methylbutanoate'
_symmetry_cell_setting           monoclinic
_symmetry_space_group_name_H-M   'C 2'
_symmetry_Int_Tables_number      5
_space_group_name_Hall           'C 2y'
loop_
_symmetry_equiv_pos_site_id
_symmetry_equiv_pos_as_xyz
1 x,y,z
2 -x,y,-z
3 1/2+x,1/2+y,z
4 1/2-x,1/2+y,-z
_cell_length_a                   15.395(4)
_cell_length_b                   8.2539(4)
_cell_length_c                   27.027(1)
_cell_angle_alpha                90
_cell_angle_beta                 101.261(1)
_cell_angle_gamma                90
_cell_volume                     3368.17
_exptl_crystal_colour            colorless
_exptl_crystal_description       plate
_chemical_melting_point          '122-124 deg.C'
_cell_formula_units_Z            8
loop_
_atom_site_label
_atom_site_type_symbol
_atom_site_fract_x
_atom_site_fract_y
_atom_site_fract_z
S1 S 0.75785(3) 0.41959(5) 0.638479(16)
O1 O 0.75128(9) 0.3220(2) 0.79033(5)
O2 O 0.73593(10) 0.52852(17) 0.67486(5)
O3 O 0.69428(9) 0.38567(19) 0.59364(6)
O4 O 0.9972(2) 0.3182(5) 0.63809(10)
O5 O 0.98006(16) 0.2428(3) 0.55919(8)
N1 N 0.86085(10) 0.3514(2) 0.74718(6)
H1 H 0.9072 0.4046 0.7435
N2 N 0.84389(10) 0.4947(2) 0.62075(6)
H2 H 0.8713 0.5756 0.6368
C1 C 0.81472(11) 0.3998(3) 0.78179(6)
C2 C 0.83412(12) 0.2133(2) 0.71659(7)
C3 C 0.78695(13) 0.2280(2) 0.66722(7)
C4 C 0.76005(19) 0.0894(3) 0.63906(9)
H3 H 0.7292 0.0993 0.6060
C5 C 0.7787(2) -0.0622(3) 0.65964(11)
H4 H 0.7593 -0.1542 0.6408
C6 C 0.8256(2) -0.0768(3) 0.70779(11)
H5 H 0.8391 -0.1792 0.7215
C7 C 0.85333(16) 0.0590(3) 0.73642(9)
H6 H 0.8851 0.0472 0.7692
C8 C 0.87515(13) 0.4262(3) 0.57785(7)
H7 H 0.8290 0.3527 0.5606
C9 C 0.88863(19) 0.5566(3) 0.53976(8)
H8 H 0.9111 0.5035 0.5123
C10 C 0.9566(3) 0.6810(6) 0.56362(14)
H9 H 0.9340 0.7405 0.5889
H10 H 0.9684 0.7542 0.5382
H11 H 1.0104 0.6268 0.5789
C11 C 0.8000(3) 0.6349(5) 0.51725(12)
H12 H 0.7751 0.6829 0.5437
H13 H 0.7602 0.5539 0.5003
H14 H 0.8088 0.7170 0.4936
C12 C 0.95810(17) 0.3247(4) 0.59616(9)
C13 C 1.0586(3) 0.1446(6) 0.57130(17)
H15 H 1.1070 0.2096 0.5884
H16 H 1.0728 0.1020 0.5408
H17 H 1.0485 0.0568 0.5928
C14 C 0.84332(16) 0.5533(3) 0.80921(8)
H18 H 0.7935 0.6248 0.8067
H19 H 0.8884 0.6041 0.7946
H20 H 0.8665 0.5297 0.8441
S2 S 0.59125(3) 0.18204(5) 0.868753(17)
O6 O 0.46712(9) 0.09195(19) 0.71322(5)
O7 O 0.54368(9) 0.29257(18) 0.83279(6)
O8 O 0.56562(10) 0.1600(2) 0.91621(6)
O9 O 0.78354(15) 0.3346(3) 0.99899(6)
O10 O 0.83152(11) 0.4321(2) 0.93256(5)
N3 N 0.60618(10) 0.0988(2) 0.75888(6)
H21 H 0.6572 0.1448 0.7630
N4 N 0.69318(10) 0.2392(2) 0.87923(6)
H22 H 0.7091 0.3088 0.8591
C15 C 0.54048(12) 0.1565(3) 0.72319(6)
C16 C 0.59516(12) -0.0350(2) 0.79016(7)
C17 C 0.58678(12) -0.0136(2) 0.84006(8)
C18 C 0.57844(17) -0.1471(3) 0.87016(10)
H23 H 0.5732 -0.1324 0.9036
C19 C 0.57799(19) -0.3019(3) 0.85033(11)
H24 H 0.5723 -0.3915 0.8703
C20 C 0.58595(18) -0.3224(3) 0.80110(11)
H25 H 0.5854 -0.4264 0.7878
C21 C 0.59474(15) -0.1909(3) 0.77110(10)
H26 H 0.6004 -0.2069 0.7378
C22 C 0.76042(13) 0.1789(3) 0.92137(7)
H27 H 0.7328 0.0991 0.9403
C23 C 0.84011(15) 0.0980(3) 0.90367(9)
H28 H 0.8663 0.1774 0.8839
C24 C 0.9100(2) 0.0521(5) 0.95019(12)
H29 H 0.8838 -0.0174 0.9717
H30 H 0.9319 0.1484 0.9683
H31 H 0.9581 -0.0036 0.9397
C25 C 0.81335(17) -0.0492(3) 0.87104(10)
H32 H 0.8652 -0.0997 0.8633
H33 H 0.7747 -0.0168 0.8403
H34 H 0.7831 -0.1246 0.8888
C26 C 0.79182(15) 0.3228(3) 0.95595(7)
C27 C 0.8680(2) 0.5728(3) 0.96138(10)
H35 H 0.8210 0.6460 0.9647
H36 H 0.9090 0.6265 0.9443
H37 H 0.8982 0.5393 0.9943
C28 C 0.56115(16) 0.3058(3) 0.69664(9)
H38 H 0.5724 0.2773 0.6640
H39 H 0.6126 0.3574 0.7161
H40 H 0.5117 0.3788 0.6927
loop_
_geom_bond_atom_site_label_1
_geom_bond_atom_site_label_2
_geom_bond_site_symmetry_1
_geom_bond_site_symmetry_2
S1 O2 1_555 1_555
O1 C1 1_555 1_555
O3 S1 1_555 1_555
O4 C12 1_555 1_555
O5 C12 1_555 1_555
N1 H1 1_555 1_555
N2 S1 1_555 1_555
H2 N2 1_555 1_555
C1 N1 1_555 1_555
C2 N1 1_555 1_555
C3 S1 1_555 1_555
C4 C3 1_555 1_555
H3 C4 1_555 1_555
C5 C4 1_555 1_555
H4 C5 1_555 1_555
C6 C5 1_555 1_555
H5 C6 1_555 1_555
C7 C2 1_555 1_555
H6 C7 1_555 1_555
C8 N2 1_555 1_555
H7 C8 1_555 1_555
C9 C8 1_555 1_555
H8 C9 1_555 1_555
C10 C9 1_555 1_555
H9 C10 1_555 1_555
H10 C10 1_555 1_555
H11 C10 1_555 1_555
C11 C9 1_555 1_555
H12 C11 1_555 1_555
H13 C11 1_555 1_555
H14 C11 1_555 1_555
C12 C8 1_555 1_555
C13 O5 1_555 1_555
H15 C13 1_555 1_555
H16 C13 1_555 1_555
H17 C13 1_555 1_555
C14 C1 1_555 1_555
H18 C14 1_555 1_555
H19 C14 1_555 1_555
H20 C14 1_555 1_555
S2 O7 1_555 1_555
O6 C15 1_555 1_555
O8 S2 1_555 1_555
O9 C26 1_555 1_555
O10 C26 1_555 1_555
N3 H21 1_555 1_555
N4 S2 1_555 1_555
H22 N4 1_555 1_555
C15 N3 1_555 1_555
C16 N3 1_555 1_555
C17 S2 1_555 1_555
C18 C17 1_555 1_555
H23 C18 1_555 1_555
C19 C18 1_555 1_555
H24 C19 1_555 1_555
C20 C19 1_555 1_555
H25 C20 1_555 1_555
C21 C16 1_555 1_555
H26 C21 1_555 1_555
C22 N4 1_555 1_555
H27 C22 1_555 1_555
C23 C22 1_555 1_555
H28 C23 1_555 1_555
C24 C23 1_555 1_555
H29 C24 1_555 1_555
H30 C24 1_555 1_555
H31 C24 1_555 1_555
C25 C23 1_555 1_555
H32 C25 1_555 1_555
H33 C25 1_555 1_555
H34 C25 1_555 1_555
C26 C22 1_555 1_555
C27 O10 1_555 1_555
H35 C27 1_555 1_555
H36 C27 1_555 1_555
H37 C27 1_555 1_555
C28 C15 1_555 1_555
H38 C28 1_555 1_555
H39 C28 1_555 1_555
H40 C28 1_555 1_555
C2 C3 1_555 1_555
C6 C7 1_555 1_555
C16 C17 1_555 1_555
C20 C21 1_555 1_555

#END
