
#######################################################################
#
#                 Cambridge Crystallographic Data Centre
#                                CCDC 
#
#######################################################################
#
# If this CIF has been generated from an entry in the Cambridge 
# Structural Database, then it will include bibliographic, chemical, 
# crystal, experimental, refinement or atomic coordinate data resulting 
# from the CCDC's data processing and validation procedures.
#
#######################################################################

data_YAZQUM
_chemical_formula_moiety         'C19 H20 N6 2+,2(Br1 1-)'
_chemical_name_systematic        
"1,1'-di(2-picolyl)-3,3'-methylenediimidazolium dibromide"
_symmetry_cell_setting           monoclinic
_symmetry_space_group_name_H-M   'C 2/c'
_symmetry_Int_Tables_number      15
_space_group_name_Hall           '-C 2yn'
loop_
_symmetry_equiv_pos_site_id
_symmetry_equiv_pos_as_xyz
1 x,y,z
2 1/2+x,1/2+y,z
3 -x,y,1/2-z
4 1/2-x,1/2+y,1/2-z
5 -x,-y,-z
6 1/2-x,1/2-y,-z
7 x,-y,1/2+z
8 1/2+x,1/2-y,1/2+z
_cell_length_a                   23.6789(17)
_cell_length_b                   4.8423(4)
_cell_length_c                   19.4700(14)
_cell_angle_alpha                90
_cell_angle_beta                 117.932(3)
_cell_angle_gamma                90
_cell_volume                     1972.37
_exptl_crystal_colour            colorless
_exptl_crystal_description       plate
_cell_formula_units_Z            4
_exptl_crystal_recrystallization_method 'diethyl ether/DMF'
loop_
_atom_site_label
_atom_site_type_symbol
_atom_site_fract_x
_atom_site_fract_y
_atom_site_fract_z
Br1 Br 0.06851(2) 0.88045(10) 0.14108(2)
C1 C 0.4586(2) 1.0900(9) 0.6138(3)
H1 H 0.4844 1.2136 0.6025
C2 C 0.3892(2) 0.7699(11) 0.6024(3)
H2 H 0.3577 0.6293 0.5806
C3 C 0.4161(2) 0.8622(9) 0.6759(3)
H3 H 0.4068 0.8016 0.7159
C4 C 0.5000 1.2301(15) 0.7500
H4 H 0.5276 1.3505 0.7373
H5 H 0.4724 1.3505 0.7627
C5 C 0.3995(2) 0.8908(10) 0.4820(3)
H6 H 0.4054 0.6962 0.4711
H7 H 0.4285 1.0067 0.4706
C6 C 0.3313(2) 0.9758(11) 0.4297(3)
C7 C 0.2976(2) 0.8477(10) 0.3585(3)
H8 H 0.3167 0.7050 0.3430
C8 C 0.2354(2) 0.9300(11) 0.3101(3)
H9 H 0.2109 0.8455 0.2609
C9 C 0.2101(2) 1.1408(10) 0.3359(3)
H10 H 0.1676 1.2037 0.3043
C10 C 0.2469(2) 1.2557(13) 0.4068(3)
H11 H 0.2287 1.3983 0.4236
N1 N 0.4599(2) 1.0626(8) 0.6822(2)
N2 N 0.41614(19) 0.9192(8) 0.5640(2)
N3 N 0.3080(2) 1.1796(9) 0.4552(2)
C1B C 0.5414(2) 1.0900(9) 0.8862(3)
H1B H 0.5156 1.2136 0.8975
C2B C 0.6108(2) 0.7699(11) 0.8976(3)
H2B H 0.6423 0.6293 0.9194
C3B C 0.5839(2) 0.8622(9) 0.8241(3)
H3B H 0.5932 0.8016 0.7841
C5B C 0.6005(2) 0.8908(10) 1.0180(3)
H6B H 0.5946 0.6962 1.0289
H7B H 0.5715 1.0067 1.0294
C6B C 0.6687(2) 0.9758(11) 1.0703(3)
C7B C 0.7024(2) 0.8477(10) 1.1415(3)
H8B H 0.6833 0.7050 1.1570
C8B C 0.7646(2) 0.9300(11) 1.1899(3)
H9B H 0.7891 0.8455 1.2391
C9B C 0.7899(2) 1.1408(10) 1.1641(3)
H10B H 0.8324 1.2037 1.1957
C10B C 0.7531(2) 1.2557(13) 1.0932(3)
H11B H 0.7713 1.3983 1.0764
N1B N 0.5401(2) 1.0626(8) 0.8178(2)
N2B N 0.58386(19) 0.9192(8) 0.9360(2)
N3B N 0.6920(2) 1.1796(9) 1.0448(2)
loop_
_geom_bond_atom_site_label_1
_geom_bond_atom_site_label_2
_geom_bond_site_symmetry_1
_geom_bond_site_symmetry_2
C1 H1 1_555 1_555
C2 H2 1_555 1_555
C3 C2 1_555 1_555
H3 C3 1_555 1_555
C4 H4 1_555 1_555
H5 C4 1_555 1_555
C5 H6 1_555 1_555
H7 C5 1_555 1_555
C6 C5 1_555 1_555
C7 C6 1_555 1_555
H8 C7 1_555 1_555
C8 C7 1_555 1_555
H9 C8 1_555 1_555
C9 C8 1_555 1_555
H10 C9 1_555 1_555
C10 C9 1_555 1_555
H11 C10 1_555 1_555
N1 C1 1_555 1_555
N2 C1 1_555 1_555
N3 C6 1_555 1_555
C1B H1B 1_555 1_555
C2B H2B 1_555 1_555
C3B C2B 1_555 1_555
H3B C3B 1_555 1_555
C5B H6B 1_555 1_555
H7B C5B 1_555 1_555
C6B C5B 1_555 1_555
C7B C6B 1_555 1_555
H8B C7B 1_555 1_555
C8B C7B 1_555 1_555
H9B C8B 1_555 1_555
C9B C8B 1_555 1_555
H10B C9B 1_555 1_555
C10B C9B 1_555 1_555
H11B C10B 1_555 1_555
N1B C4 1_555 1_555
N2B C1B 1_555 1_555
N3B C6B 1_555 1_555
C2 N2 1_555 1_555
C3 N1 1_555 1_555
C4 N1 1_555 1_555
C5 N2 1_555 1_555
C10 N3 1_555 1_555
C1B N1B 1_555 1_555
C2B N2B 1_555 1_555
C3B N1B 1_555 1_555
C5B N2B 1_555 1_555
C10B N3B 1_555 1_555

#END
