
#######################################################################
#
#                 Cambridge Crystallographic Data Centre
#                                CCDC 
#
#######################################################################
#
# If this CIF has been generated from an entry in the Cambridge 
# Structural Database, then it will include bibliographic, chemical, 
# crystal, experimental, refinement or atomic coordinate data resulting 
# from the CCDC's data processing and validation procedures.
#
#######################################################################

data_YAZRUP
_chemical_formula_moiety         'C21 H23 N3 O6'
_chemical_name_systematic        
'5-ethyl 2-methyl 3,3-dicyano-2-(2-methoxy-2-oxoethyl)-4-(4-methylphenyl)pyrrolidine-2,5-dicarboxylate'
_symmetry_cell_setting           triclinic
_symmetry_space_group_name_H-M   'P -1'
_symmetry_Int_Tables_number      2
_space_group_name_Hall           '-P 1'
loop_
_symmetry_equiv_pos_site_id
_symmetry_equiv_pos_as_xyz
1 x,y,z
2 -x,-y,-z
_cell_length_a                   9.1043(15)
_cell_length_b                   10.3101(17)
_cell_length_c                   12.910(2)
_cell_angle_alpha                108.789(4)
_cell_angle_beta                 106.251(4)
_cell_angle_gamma                98.820(5)
_cell_volume                     1061.15
_exptl_crystal_colour            colorless
_exptl_crystal_description       block
_cell_formula_units_Z            2
loop_
_atom_site_label
_atom_site_type_symbol
_atom_site_fract_x
_atom_site_fract_y
_atom_site_fract_z
C1 C 0.23366(19) 0.62379(18) 0.39515(14)
H1 H 0.3417 0.6375 0.4081
C2 C 0.1831(2) 0.67726(19) 0.48796(14)
H2 H 0.2580 0.7264 0.5627
C3 C 0.0223(2) 0.65924(17) 0.47198(15)
C4 C -0.0327(3) 0.7149(2) 0.57370(19)
H3 H 0.0367 0.8067 0.6269
H4 H -0.0308 0.6505 0.6134
H5 H -0.1389 0.7229 0.5456
C5 C -0.0860(2) 0.58582(19) 0.35976(16)
H6 H -0.1940 0.5721 0.3469
C6 C -0.03687(18) 0.53240(17) 0.26612(14)
H7 H -0.1120 0.4844 0.1913
C7 C 0.12384(16) 0.54970(14) 0.28274(12)
C8 C 0.16882(16) 0.48777(14) 0.17724(12)
H8 H 0.0736 0.4634 0.1086
C9 C 0.22686(17) 0.34959(14) 0.16278(13)
C10 C 0.3504(2) 0.36631(18) 0.27187(15)
C11 C 0.09589(19) 0.22599(15) 0.13508(14)
C12 C 0.30043(16) 0.33828(14) 0.06197(13)
C13 C 0.46716(18) 0.31615(17) 0.10063(14)
C14 C 0.6159(3) 0.1566(3) 0.1299(3)
H9 H 0.6708 0.1663 0.0781
H10 H 0.6020 0.0619 0.1289
H11 H 0.6769 0.2239 0.2078
C15 C 0.19224(17) 0.21975(15) -0.05418(13)
H12 H 0.1747 0.1302 -0.0440
H13 H 0.0902 0.2396 -0.0787
C16 C 0.26483(19) 0.20751(16) -0.14696(14)
O1 O 0.16136(17) 0.12332(17) -0.25164(11)
C17 C 0.2205(3) 0.0998(3) -0.34704(19)
H14 H 0.2621 0.1894 -0.3498
H15 H 0.1355 0.0417 -0.4193
H16 H 0.3031 0.0525 -0.3354
C18 C 0.30343(16) 0.57768(14) 0.15989(13)
H17 H 0.4038 0.6042 0.2249
C19 C 0.26010(18) 0.70759(15) 0.14427(14)
C20 C 0.2871(3) 0.9508(2) 0.2505(2)
H18 H 0.3440 0.9981 0.2137
H19 H 0.1741 0.9316 0.2100
C21 C 0.3298(7) 1.0397(4) 0.3723(4)
H20 H 0.2781 0.9894 0.4090
H21 H 0.2969 1.1252 0.3787
H22 H 0.4428 1.0635 0.4103
N1 N 0.4475(3) 0.3769(2) 0.35406(17)
N2 N -0.0053(2) 0.13427(16) 0.11873(16)
N3 N 0.30830(19) 0.47681(14) 0.05305(13)
O2 O 0.58660(14) 0.40989(16) 0.13706(14)
O3 O 0.46095(15) 0.18340(14) 0.09170(12)
O4 O 0.39987(16) 0.26225(16) -0.12971(12)
O5 O 0.17196(18) 0.70979(15) 0.05757(13)
O6 O 0.32878(16) 0.81908(12) 0.24463(11)
H23 H 0.387(3) 0.501(2) 0.040(2)
loop_
_geom_bond_atom_site_label_1
_geom_bond_atom_site_label_2
_geom_bond_site_symmetry_1
_geom_bond_site_symmetry_2
C1 H1 1_555 1_555
C2 C1 1_555 1_555
H2 C2 1_555 1_555
C3 C2 1_555 1_555
C4 C3 1_555 1_555
H3 C4 1_555 1_555
H4 C4 1_555 1_555
H5 C4 1_555 1_555
C5 C3 1_555 1_555
H6 C5 1_555 1_555
C6 C5 1_555 1_555
H7 C6 1_555 1_555
C7 C1 1_555 1_555
C8 C7 1_555 1_555
H8 C8 1_555 1_555
C9 C8 1_555 1_555
C10 C9 1_555 1_555
C11 C9 1_555 1_555
C12 C9 1_555 1_555
C13 C12 1_555 1_555
C14 H9 1_555 1_555
H10 C14 1_555 1_555
H11 C14 1_555 1_555
C15 C12 1_555 1_555
H12 C15 1_555 1_555
H13 C15 1_555 1_555
C16 C15 1_555 1_555
O1 C16 1_555 1_555
C17 O1 1_555 1_555
H14 C17 1_555 1_555
H15 C17 1_555 1_555
H16 C17 1_555 1_555
C18 C8 1_555 1_555
H17 C18 1_555 1_555
C19 C18 1_555 1_555
C20 H18 1_555 1_555
H19 C20 1_555 1_555
C21 C20 1_555 1_555
H20 C21 1_555 1_555
H21 C21 1_555 1_555
H22 C21 1_555 1_555
N1 C10 1_555 1_555
N2 C11 1_555 1_555
N3 C12 1_555 1_555
O2 C13 1_555 1_555
O3 C13 1_555 1_555
O4 C16 1_555 1_555
O5 C19 1_555 1_555
O6 C19 1_555 1_555
H23 N3 1_555 1_555
C6 C7 1_555 1_555
C14 O3 1_555 1_555
C18 N3 1_555 1_555
C20 O6 1_555 1_555

#END
