
#######################################################################
#
#                 Cambridge Crystallographic Data Centre
#                                CCDC 
#
#######################################################################
#
# If this CIF has been generated from an entry in the Cambridge 
# Structural Database, then it will include bibliographic, chemical, 
# crystal, experimental, refinement or atomic coordinate data resulting 
# from the CCDC's data processing and validation procedures.
#
#######################################################################

data_YAZRID
_chemical_formula_moiety         'C20 H15 Cl1 O4 S1'
_chemical_name_systematic        
'methyl 9-chloro-6-oxo-5-phenyl-5,6-dihydro-2H-6\l^4^-[1]benzothieno[3,2-b]oxepine-4-carboxylate'
_symmetry_cell_setting           monoclinic
_symmetry_space_group_name_H-M   'C 2/c'
_symmetry_Int_Tables_number      15
_space_group_name_Hall           '-C 2yn'
loop_
_symmetry_equiv_pos_site_id
_symmetry_equiv_pos_as_xyz
1 x,y,z
2 -x,y,1/2-z
3 1/2+x,1/2+y,z
4 1/2-x,1/2+y,1/2-z
5 -x,-y,-z
6 x,-y,1/2+z
7 1/2-x,1/2-y,-z
8 1/2+x,1/2-y,1/2+z
_cell_length_a                   26.3420(19)
_cell_length_b                   8.9941(7)
_cell_length_c                   20.0725(13)
_cell_angle_alpha                90
_cell_angle_beta                 130.740(7)
_cell_angle_gamma                90
_cell_volume                     3603.24
_exptl_crystal_colour            colorless
_exptl_crystal_description       Block
_cell_formula_units_Z            8
loop_
_atom_site_label
_atom_site_type_symbol
_atom_site_fract_x
_atom_site_fract_y
_atom_site_fract_z
C1 C 0.83133(12) 0.8605(3) 0.65562(16)
H1 H 0.8688 0.8202 0.7085
C2 C 0.83797(14) 0.9637(3) 0.61003(18)
C3 C 0.78379(14) 1.0226(3) 0.53111(18)
H2 H 0.7901 1.0929 0.5031
C4 C 0.71984(14) 0.9775(3) 0.49313(17)
H3 H 0.6827 1.0130 0.4383
C5 C 0.71254(11) 0.8786(3) 0.53881(14)
C6 C 0.76769(12) 0.8200(3) 0.61990(14)
C7 C 0.74629(12) 0.7292(2) 0.65817(15)
C8 C 0.67940(12) 0.7231(2) 0.61044(14)
C9 C 0.63738(11) 0.6749(2) 0.63271(14)
H4 H 0.5987 0.7421 0.6004
C10 C 0.67589(12) 0.7042(2) 0.73049(14)
C11 C 0.73776(12) 0.6558(3) 0.79311(15)
H5 H 0.7581 0.6744 0.8514
C12 C 0.77633(13) 0.5728(3) 0.77441(16)
H6 H 0.8159 0.5293 0.8285
H7 H 0.7490 0.4927 0.7336
C13 C 0.64479(14) 0.7964(3) 0.75700(17)
C14 C 0.5505(2) 0.9353(5) 0.7088(3)
H8 H 0.5472 0.8847 0.7479
H9 H 0.5065 0.9595 0.6552
H10 H 0.5760 1.0250 0.7361
C15 C 0.60847(11) 0.5178(2) 0.60524(14)
C16 C 0.56558(12) 0.4705(3) 0.61888(16)
H11 H 0.5559 0.5336 0.6461
C17 C 0.53733(14) 0.3309(3) 0.59229(18)
H12 H 0.5091 0.3001 0.6023
C18 C 0.55033(14) 0.2370(3) 0.55129(19)
H13 H 0.5310 0.1429 0.5337
C19 C 0.59168(15) 0.2818(3) 0.5363(2)
H14 H 0.6003 0.2186 0.5080
C20 C 0.62094(13) 0.4220(3) 0.56343(17)
H15 H 0.6492 0.4518 0.5533
Cl1 Cl 0.91784(4) 1.02268(12) 0.65691(6)
O1 O 0.59403(9) 0.9316(2) 0.49539(13)
O2 O 0.79625(8) 0.6699(2) 0.73731(10)
O3 O 0.67248(12) 0.8303(3) 0.83144(13)
O4 O 0.58344(10) 0.8405(3) 0.68936(13)
S1 S 0.63583(3) 0.80841(7) 0.50554(3)
loop_
_geom_bond_atom_site_label_1
_geom_bond_atom_site_label_2
_geom_bond_site_symmetry_1
_geom_bond_site_symmetry_2
C1 H1 1_555 1_555
C2 C1 1_555 1_555
C3 C2 1_555 1_555
H2 C3 1_555 1_555
C4 C3 1_555 1_555
H3 C4 1_555 1_555
C5 C4 1_555 1_555
C6 C1 1_555 1_555
C7 C6 1_555 1_555
C8 C7 1_555 1_555
C9 C8 1_555 1_555
H4 C9 1_555 1_555
C10 C9 1_555 1_555
C11 C10 1_555 1_555
H5 C11 1_555 1_555
C12 C11 1_555 1_555
H6 C12 1_555 1_555
H7 C12 1_555 1_555
C13 C10 1_555 1_555
C14 H8 1_555 1_555
H9 C14 1_555 1_555
H10 C14 1_555 1_555
C15 C9 1_555 1_555
C16 C15 1_555 1_555
H11 C16 1_555 1_555
C17 C16 1_555 1_555
H12 C17 1_555 1_555
C18 C17 1_555 1_555
H13 C18 1_555 1_555
C19 C18 1_555 1_555
H14 C19 1_555 1_555
C20 C15 1_555 1_555
H15 C20 1_555 1_555
Cl1 C2 1_555 1_555
O1 S1 1_555 1_555
O2 C7 1_555 1_555
O3 C13 1_555 1_555
O4 C13 1_555 1_555
S1 C5 1_555 1_555
C5 C6 1_555 1_555
C8 S1 1_555 1_555
C12 O2 1_555 1_555
C14 O4 1_555 1_555
C19 C20 1_555 1_555

#END
