
#######################################################################
#
#                 Cambridge Crystallographic Data Centre
#                                CCDC 
#
#######################################################################
#
# If this CIF has been generated from an entry in the Cambridge 
# Structural Database, then it will include bibliographic, chemical, 
# crystal, experimental, refinement or atomic coordinate data resulting 
# from the CCDC's data processing and validation procedures.
#
#######################################################################

data_YAZSAW
_chemical_formula_moiety         'C21 H23 N3 O7'
_chemical_name_systematic        
'5-ethyl 2-methyl 3,3-dicyano-2-(2-methoxy-2-oxoethyl)-4-(3-methoxyphenyl)pyrrolidine-2,5-dicarboxylate'
_symmetry_cell_setting           triclinic
_symmetry_space_group_name_H-M   'P -1'
_symmetry_Int_Tables_number      2
_space_group_name_Hall           '-P 1'
loop_
_symmetry_equiv_pos_site_id
_symmetry_equiv_pos_as_xyz
1 x,y,z
2 -x,-y,-z
_cell_length_a                   10.2898(13)
_cell_length_b                   10.3345(13)
_cell_length_c                   10.6805(16)
_cell_angle_alpha                110.213(4)
_cell_angle_beta                 92.129(4)
_cell_angle_gamma                94.620(4)
_cell_volume                     1059.79
_exptl_crystal_colour            colorless
_exptl_crystal_description       block
_cell_formula_units_Z            2
loop_
_atom_site_label
_atom_site_type_symbol
_atom_site_fract_x
_atom_site_fract_y
_atom_site_fract_z
C1 C 0.6958(2) 0.2755(2) 0.5381(2)
H1 H 0.6352 0.3260 0.5921
C2 C 0.8093(2) 0.2512(3) 0.5957(3)
C3 C 0.7461(3) 0.3635(4) 0.8176(3)
H2 H 0.7267 0.4457 0.8011
H3 H 0.7796 0.3879 0.9088
H4 H 0.6680 0.3012 0.8018
C4 C 0.8993(2) 0.1763(3) 0.5161(3)
H5 H 0.9758 0.1594 0.5544
C5 C 0.8749(2) 0.1269(3) 0.3797(3)
H6 H 0.9361 0.0771 0.3261
C6 C 0.7612(2) 0.1494(2) 0.3199(3)
H7 H 0.7458 0.1143 0.2273
C7 C 0.6714(2) 0.2246(2) 0.3995(2)
C8 C 0.5432(2) 0.2524(2) 0.3451(2)
H8 H 0.5120 0.3300 0.4160
C9 C 0.4317(2) 0.1308(2) 0.3068(2)
C10 C 0.3879(2) 0.1049(2) 0.4260(2)
C11 C 0.4733(2) 0.0012(2) 0.2125(2)
C12 C 0.5420(2) 0.2912(2) 0.2191(2)
H9 H 0.6001 0.2368 0.1551
C13 C 0.5801(2) 0.4455(2) 0.2539(2)
C14 C 0.6307(3) 0.6192(3) 0.1572(4)
H10 H 0.5883 0.6262 0.0775
H11 H 0.5864 0.6736 0.2335
C15 C 0.7629(4) 0.6751(4) 0.1705(5)
H12 H 0.8033 0.6764 0.2534
H13 H 0.7666 0.7679 0.1695
H14 H 0.8084 0.6189 0.0975
C16 C 0.3266(2) 0.1866(2) 0.2312(2)
C17 C 0.2404(2) 0.0654(2) 0.1289(2)
C18 C 0.0702(3) -0.1103(3) 0.1030(3)
H15 H 0.0001 -0.0760 0.0659
H16 H 0.0351 -0.1639 0.1539
H17 H 0.1170 -0.1677 0.0320
C19 C 0.2441(2) 0.2832(2) 0.3323(2)
H18 H 0.2106 0.2369 0.3912
H19 H 0.2993 0.3656 0.3866
C20 C 0.1316(2) 0.3252(2) 0.2664(3)
C21 C -0.0480(3) 0.4574(3) 0.3080(4)
H20 H -0.0251 0.5039 0.2469
H21 H -0.0885 0.5190 0.3819
H22 H -0.1079 0.3770 0.2627
N1 N 0.3567(2) 0.0899(2) 0.5208(2)
N2 N 0.4998(2) -0.0984(2) 0.1351(2)
N3 N 0.40569(19) 0.2605(2) 0.1622(2)
O1 O 0.84135(19) 0.2978(2) 0.73047(19)
O2 O 0.5709(2) 0.53124(18) 0.36073(19)
O3 O 0.6172(2) 0.47328(18) 0.14818(19)
O4 O 0.24974(18) 0.0281(2) 0.01097(17)
O5 O 0.15854(15) 0.00559(17) 0.18977(15)
O6 O 0.1009(2) 0.2824(2) 0.1492(2)
O7 O 0.06877(18) 0.41551(19) 0.35698(19)
H23 H 0.399(3) 0.216(3) 0.083(3)
loop_
_geom_bond_atom_site_label_1
_geom_bond_atom_site_label_2
_geom_bond_site_symmetry_1
_geom_bond_site_symmetry_2
C1 H1 1_555 1_555
C2 C1 1_555 1_555
C3 H2 1_555 1_555
H3 C3 1_555 1_555
H4 C3 1_555 1_555
C4 C2 1_555 1_555
H5 C4 1_555 1_555
C5 C4 1_555 1_555
H6 C5 1_555 1_555
C6 C5 1_555 1_555
H7 C6 1_555 1_555
C7 C1 1_555 1_555
C8 C7 1_555 1_555
H8 C8 1_555 1_555
C9 C8 1_555 1_555
C10 C9 1_555 1_555
C11 C9 1_555 1_555
C12 C8 1_555 1_555
H9 C12 1_555 1_555
C13 C12 1_555 1_555
C14 H10 1_555 1_555
H11 C14 1_555 1_555
C15 C14 1_555 1_555
H12 C15 1_555 1_555
H13 C15 1_555 1_555
H14 C15 1_555 1_555
C16 C9 1_555 1_555
C17 C16 1_555 1_555
C18 H15 1_555 1_555
H16 C18 1_555 1_555
H17 C18 1_555 1_555
C19 C16 1_555 1_555
H18 C19 1_555 1_555
H19 C19 1_555 1_555
C20 C19 1_555 1_555
C21 H20 1_555 1_555
H21 C21 1_555 1_555
H22 C21 1_555 1_555
N1 C10 1_555 1_555
N2 C11 1_555 1_555
N3 C12 1_555 1_555
O1 C2 1_555 1_555
O2 C13 1_555 1_555
O3 C13 1_555 1_555
O4 C17 1_555 1_555
O5 C17 1_555 1_555
O6 C20 1_555 1_555
O7 C20 1_555 1_555
H23 N3 1_555 1_555
C3 O1 1_555 1_555
C6 C7 1_555 1_555
C14 O3 1_555 1_555
C16 N3 1_555 1_555
C18 O5 1_555 1_555
C21 O7 1_555 1_555

#END
