
#######################################################################
#
#                 Cambridge Crystallographic Data Centre
#                                CCDC 
#
#######################################################################
#
# If this CIF has been generated from an entry in the Cambridge 
# Structural Database, then it will include bibliographic, chemical, 
# crystal, experimental, refinement or atomic coordinate data resulting 
# from the CCDC's data processing and validation procedures.
#
#######################################################################

data_YAZSOK
_chemical_formula_moiety         'C22 H25 Cl1 N2 O8'
_chemical_name_systematic        
'3,5-diethyl 2-methyl 4-(4-chlorophenyl)-3-cyano-2-(2-methoxy-2-oxoethyl)pyrrolidine-2,3,5-tricarboxylate'
_symmetry_cell_setting           monoclinic
_symmetry_space_group_name_H-M   'C 2/c'
_symmetry_Int_Tables_number      15
_space_group_name_Hall           '-C 2yn'
loop_
_symmetry_equiv_pos_site_id
_symmetry_equiv_pos_as_xyz
1 x,y,z
2 -x,y,1/2-z
3 1/2+x,1/2+y,z
4 1/2-x,1/2+y,1/2-z
5 -x,-y,-z
6 x,-y,1/2+z
7 1/2-x,1/2-y,-z
8 1/2+x,1/2-y,1/2+z
_cell_length_a                   20.981(3)
_cell_length_b                   11.5804(17)
_cell_length_c                   20.012(3)
_cell_angle_alpha                90
_cell_angle_beta                 100.351(5)
_cell_angle_gamma                90
_cell_volume                     4783.15
_exptl_crystal_colour            colorless
_exptl_crystal_description       block
_cell_formula_units_Z            8
loop_
_atom_site_label
_atom_site_type_symbol
_atom_site_fract_x
_atom_site_fract_y
_atom_site_fract_z
C1 C 0.14821(13) 0.6998(2) 0.29295(14)
H1 H 0.1865 0.6858 0.2769
C2 C 0.13586(16) 0.8100(2) 0.31466(17)
H2 H 0.1654 0.8694 0.3131
C3 C 0.07943(15) 0.8301(2) 0.33854(16)
C4 C 0.03613(13) 0.7428(2) 0.34214(14)
H3 H -0.0016 0.7571 0.3590
C5 C 0.04895(11) 0.6340(2) 0.32072(12)
H4 H 0.0197 0.5747 0.3237
C6 C 0.10487(10) 0.61043(18) 0.29460(10)
C7 C 0.11522(9) 0.48758(18) 0.27219(10)
H5 H 0.0734 0.4591 0.2479
C8 C 0.13815(9) 0.40370(18) 0.33255(9)
C9 C 0.19053(10) 0.4593(2) 0.38099(10)
C10 C 0.08218(10) 0.36721(19) 0.36811(10)
C11 C 0.05045(15) 0.3345(3) 0.47431(14)
H6 H 0.0569 0.3774 0.5166
H7 H 0.0079 0.3535 0.4490
C12 C 0.0536(3) 0.2138(4) 0.4886(3)
H8 H 0.0504 0.1714 0.4469
H9 H 0.0185 0.1925 0.5110
H10 H 0.0941 0.1962 0.5176
C13 C 0.16893(9) 0.30195(19) 0.29532(10)
C14 C 0.21718(11) 0.2329(2) 0.34644(11)
C15 C 0.22511(18) 0.1027(3) 0.43816(17)
H11 H 0.2413 0.0364 0.4178
H12 H 0.1992 0.0779 0.4704
H13 H 0.2608 0.1481 0.4609
C16 C 0.11557(10) 0.22405(19) 0.25648(11)
H14 H 0.0900 0.1930 0.2882
H15 H 0.0871 0.2703 0.2234
C17 C 0.14180(11) 0.1259(2) 0.22063(13)
C18 C 0.11598(18) -0.0051(4) 0.1301(2)
H16 H 0.1563 0.0072 0.1148
H17 H 0.0823 -0.0193 0.0917
H18 H 0.1200 -0.0705 0.1601
C19 C 0.16602(10) 0.46660(19) 0.22549(10)
H19 H 0.1961 0.5321 0.2306
C20 C 0.13325(11) 0.4593(2) 0.15133(10)
C21 C 0.14085(17) 0.3776(3) 0.04411(13)
H20 H 0.0939 0.3739 0.0361
H21 H 0.1535 0.4428 0.0190
C22 C 0.1656(4) 0.2768(5) 0.0221(2)
H22 H 0.2117 0.2753 0.0368
H23 H 0.1557 0.2734 -0.0266
H24 H 0.1466 0.2117 0.0408
Cl1 Cl 0.06294(7) 0.96843(8) 0.36505(8)
N1 N 0.23165(10) 0.5039(2) 0.41598(10)
N2 N 0.20264(9) 0.36247(18) 0.24895(9)
O1 O 0.02987(7) 0.34237(16) 0.33762(9)
O2 O 0.09979(8) 0.36817(17) 0.43493(8)
O3 O 0.27464(8) 0.23832(19) 0.35158(10)
O4 O 0.18581(8) 0.17167(16) 0.38588(9)
O5 O 0.19187(9) 0.07671(17) 0.23962(11)
O6 O 0.09998(9) 0.09654(19) 0.16597(11)
O7 O 0.08522(9) 0.5110(2) 0.12790(9)
O8 O 0.16554(9) 0.39270(19) 0.11628(8)
H25 H 0.2382(13) 0.380(2) 0.2685(13)
loop_
_geom_bond_atom_site_label_1
_geom_bond_atom_site_label_2
_geom_bond_site_symmetry_1
_geom_bond_site_symmetry_2
C1 H1 1_555 1_555
C2 C1 1_555 1_555
H2 C2 1_555 1_555
C3 C2 1_555 1_555
C4 C3 1_555 1_555
H3 C4 1_555 1_555
C5 C4 1_555 1_555
H4 C5 1_555 1_555
C6 C1 1_555 1_555
C7 C6 1_555 1_555
H5 C7 1_555 1_555
C8 C7 1_555 1_555
C9 C8 1_555 1_555
C10 C8 1_555 1_555
C11 H6 1_555 1_555
H7 C11 1_555 1_555
C12 C11 1_555 1_555
H8 C12 1_555 1_555
H9 C12 1_555 1_555
H10 C12 1_555 1_555
C13 C8 1_555 1_555
C14 C13 1_555 1_555
C15 H11 1_555 1_555
H12 C15 1_555 1_555
H13 C15 1_555 1_555
C16 C13 1_555 1_555
H14 C16 1_555 1_555
H15 C16 1_555 1_555
C17 C16 1_555 1_555
C18 H16 1_555 1_555
H17 C18 1_555 1_555
H18 C18 1_555 1_555
C19 C7 1_555 1_555
H19 C19 1_555 1_555
C20 C19 1_555 1_555
C21 H20 1_555 1_555
H21 C21 1_555 1_555
C22 C21 1_555 1_555
H22 C22 1_555 1_555
H23 C22 1_555 1_555
H24 C22 1_555 1_555
Cl1 C3 1_555 1_555
N1 C9 1_555 1_555
N2 C13 1_555 1_555
O1 C10 1_555 1_555
O2 C10 1_555 1_555
O3 C14 1_555 1_555
O4 C14 1_555 1_555
O5 C17 1_555 1_555
O6 C17 1_555 1_555
O7 C20 1_555 1_555
O8 C20 1_555 1_555
H25 N2 1_555 1_555
C5 C6 1_555 1_555
C11 O2 1_555 1_555
C15 O4 1_555 1_555
C18 O6 1_555 1_555
C19 N2 1_555 1_555
C21 O8 1_555 1_555

#END
