
#######################################################################
#
#                 Cambridge Crystallographic Data Centre
#                                CCDC 
#
#######################################################################
#
# If this CIF has been generated from an entry in the Cambridge 
# Structural Database, then it will include bibliographic, chemical, 
# crystal, experimental, refinement or atomic coordinate data resulting 
# from the CCDC's data processing and validation procedures.
#
#######################################################################

data_YAZSIE
_chemical_formula_moiety         'C20 H20 Cl1 N3 O6,C1 H2 Cl2'
_chemical_name_systematic        
'5-ethyl 2-methyl 4-(4-chlorophenyl)-3,3-dicyano-2-(2-methoxy-2-oxoethyl)pyrrolidine-2,5-dicarboxylate dichloromethane solvate'
_symmetry_cell_setting           monoclinic
_symmetry_space_group_name_H-M   'P 21/c'
_symmetry_Int_Tables_number      14
_space_group_name_Hall           '-P 2ybc'
loop_
_symmetry_equiv_pos_site_id
_symmetry_equiv_pos_as_xyz
1 x,y,z
2 -x,1/2+y,1/2-z
3 -x,-y,-z
4 x,1/2-y,1/2+z
_cell_length_a                   11.7002(19)
_cell_length_b                   10.3645(14)
_cell_length_c                   20.605(3)
_cell_angle_alpha                90
_cell_angle_beta                 97.755(5)
_cell_angle_gamma                90
_cell_volume                     2475.85
_exptl_crystal_colour            colorless
_exptl_crystal_description       block
_cell_formula_units_Z            4
loop_
_atom_site_label
_atom_site_type_symbol
_atom_site_fract_x
_atom_site_fract_y
_atom_site_fract_z
C1 C 0.9431(3) 0.7971(3) 0.12189(16)
H1 H 0.9975 0.8629 0.1257
C2 C 0.9682(3) 0.6831(3) 0.15503(17)
H2 H 1.0388 0.6720 0.1811
C3 C 0.8877(3) 0.5859(3) 0.14906(16)
C4 C 0.7829(3) 0.6014(3) 0.11064(19)
H3 H 0.7292 0.5348 0.1069
C5 C 0.7579(3) 0.7153(3) 0.07782(18)
H4 H 0.6869 0.7256 0.0520
C6 C 0.8378(2) 0.8157(3) 0.08279(14)
C7 C 0.8144(2) 0.9442(3) 0.04914(13)
H5 H 0.8893 0.9821 0.0438
C8 C 0.7494(2) 1.0442(3) 0.08715(13)
C9 C 0.6434(3) 0.9870(3) 0.10705(15)
C10 C 0.8233(3) 1.0894(3) 0.14647(14)
C11 C 0.7409(2) 0.9452(3) -0.01852(13)
H6 H 0.6766 0.8842 -0.0195
C12 C 0.8148(2) 0.9125(3) -0.07152(14)
C13 C 0.8173(4) 0.8173(5) -0.17529(19)
H7 H 0.8872 0.7698 -0.1601
H8 H 0.8385 0.8961 -0.1961
C14 C 0.7417(5) 0.7393(6) -0.2223(2)
H9 H 0.7151 0.6656 -0.2003
H10 H 0.7837 0.7109 -0.2566
H11 H 0.6767 0.7901 -0.2407
C15 C 0.7166(2) 1.1508(3) 0.03306(13)
C16 C 0.6043(2) 1.2186(3) 0.04473(16)
C17 C 0.5208(4) 1.3599(5) 0.1137(3)
H12 H 0.4937 1.4217 0.0804
H13 H 0.5398 1.4033 0.1549
H14 H 0.4616 1.2972 0.1172
C18 C 0.8160(2) 1.2475(3) 0.03288(16)
H15 H 0.8368 1.2814 0.0768
H16 H 0.8828 1.2032 0.0205
C19 C 0.7845(3) 1.3572(3) -0.01345(16)
C20 C 0.8586(5) 1.5335(5) -0.0655(3)
H17 H 0.8171 1.5098 -0.1072
H18 H 0.9315 1.5705 -0.0718
H19 H 0.8145 1.5956 -0.0448
Cl1 Cl 0.91907(11) 0.44107(9) 0.19005(5)
N1 N 0.5611(3) 0.9454(4) 0.12119(17)
N2 N 0.8815(3) 1.1216(3) 0.19197(15)
N3 N 0.6974(2) 1.0777(3) -0.02774(12)
H20 H 0.6647 1.1083 -0.0644
O1 O 0.9141(2) 0.9409(3) -0.06966(13)
O2 O 0.75627(19) 0.8482(2) -0.12007(11)
O3 O 0.51237(19) 1.1978(3) 0.01358(13)
O4 O 0.62267(19) 1.2957(2) 0.09628(12)
O5 O 0.6888(2) 1.3872(3) -0.03561(14)
O6 O 0.8775(2) 1.4203(3) -0.02451(15)
C21 C 0.6078(6) 0.2428(7) 0.3163(3)
H21 H 0.5379 0.2940 0.3136
H22 H 0.6287 0.2170 0.3615
Cl2 Cl 0.5810(2) 0.1070(2) 0.26845(12)
Cl3 Cl 0.7149(2) 0.3346(3) 0.29294(14)
loop_
_geom_bond_atom_site_label_1
_geom_bond_atom_site_label_2
_geom_bond_site_symmetry_1
_geom_bond_site_symmetry_2
C1 H1 1_555 1_555
C2 C1 1_555 1_555
H2 C2 1_555 1_555
C3 C2 1_555 1_555
C4 C3 1_555 1_555
H3 C4 1_555 1_555
C5 C4 1_555 1_555
H4 C5 1_555 1_555
C6 C1 1_555 1_555
C7 C6 1_555 1_555
H5 C7 1_555 1_555
C8 C7 1_555 1_555
C9 C8 1_555 1_555
C10 C8 1_555 1_555
C11 C7 1_555 1_555
H6 C11 1_555 1_555
C12 C11 1_555 1_555
C13 H7 1_555 1_555
H8 C13 1_555 1_555
C14 C13 1_555 1_555
H9 C14 1_555 1_555
H10 C14 1_555 1_555
H11 C14 1_555 1_555
C15 C8 1_555 1_555
C16 C15 1_555 1_555
C17 H12 1_555 1_555
H13 C17 1_555 1_555
H14 C17 1_555 1_555
C18 C15 1_555 1_555
H15 C18 1_555 1_555
H16 C18 1_555 1_555
C19 C18 1_555 1_555
C20 H17 1_555 1_555
H18 C20 1_555 1_555
H19 C20 1_555 1_555
Cl1 C3 1_555 1_555
N1 C9 1_555 1_555
N2 C10 1_555 1_555
N3 C11 1_555 1_555
H20 N3 1_555 1_555
O1 C12 1_555 1_555
O2 C12 1_555 1_555
O3 C16 1_555 1_555
O4 C16 1_555 1_555
O5 C19 1_555 1_555
O6 C19 1_555 1_555
C21 H21 1_555 1_555
H22 C21 1_555 1_555
Cl2 C21 1_555 1_555
Cl3 C21 1_555 1_555
C5 C6 1_555 1_555
C13 O2 1_555 1_555
C15 N3 1_555 1_555
C17 O4 1_555 1_555
C20 O6 1_555 1_555

#END
