
#######################################################################
#
#                 Cambridge Crystallographic Data Centre
#                                CCDC 
#
#######################################################################
#
# If this CIF has been generated from an entry in the Cambridge 
# Structural Database, then it will include bibliographic, chemical, 
# crystal, experimental, refinement or atomic coordinate data resulting 
# from the CCDC's data processing and validation procedures.
#
#######################################################################

data_YAZTIF
_chemical_formula_moiety         'C21 H21 N5,0.5(H2 O1)'
_chemical_name_systematic        
'6-amino-8-(3,4-dimethylphenyl)-2-methyl-2,3,8,8a-tetrahydroisoquinoline-5,7,7(1H)-tricarbonitrile hemihydrate'
_symmetry_cell_setting           triclinic
_symmetry_space_group_name_H-M   'P -1'
_symmetry_Int_Tables_number      2
_space_group_name_Hall           '-P 1'
loop_
_symmetry_equiv_pos_site_id
_symmetry_equiv_pos_as_xyz
1 x,y,z
2 -x,-y,-z
_cell_length_a                   9.482(7)
_cell_length_b                   14.010(7)
_cell_length_c                   16.677(5)
_cell_angle_alpha                88.45(4)
_cell_angle_beta                 74.44(3)
_cell_angle_gamma                77.12(4)
_cell_volume                     2079.26
_exptl_crystal_colour            red
_exptl_crystal_description       block
_cell_formula_units_Z            4
loop_
_atom_site_label
_atom_site_type_symbol
_atom_site_fract_x
_atom_site_fract_y
_atom_site_fract_z
C1 C 0.3342(8) 0.8082(6) 0.1339(4)
C2 C 0.2371(7) 0.9027(5) 0.1180(4)
C3 C 0.3271(9) 0.9783(6) 0.1066(4)
C4 C 0.1992(9) 0.8862(5) 0.0366(4)
C5 C 0.0627(9) 0.8680(4) 0.0400(4)
C6 C 0.0321(11) 0.8544(5) -0.0376(5)
C7 C -0.0513(8) 0.8604(4) 0.1167(5)
C8 C -0.1902(10) 0.8535(5) 0.1175(5)
H1 H -0.2139 0.8542 0.0669
C9 C -0.3087(9) 0.8447(6) 0.1946(6)
H2 H -0.3857 0.9050 0.2049
H3 H -0.3551 0.7919 0.1865
C10 C -0.3749(7) 0.8400(5) 0.3436(5)
H4 H -0.4429 0.7996 0.3403
H5 H -0.4274 0.9075 0.3502
H6 H -0.3353 0.8220 0.3906
C11 C -0.1465(7) 0.8879(4) 0.2701(4)
H7 H -0.1173 0.8781 0.3217
H8 H -0.1957 0.9563 0.2686
C12 C -0.0080(6) 0.8620(4) 0.1963(4)
H9 H 0.0495 0.7966 0.2039
C13 C 0.0922(7) 0.9357(4) 0.1917(4)
H10 H 0.0370 0.9983 0.1766
C14 C 0.1283(8) 0.9548(6) 0.2719(5)
C15 C 0.1081(9) 1.0491(6) 0.2989(5)
C16 C 0.1431(10) 1.0622(8) 0.3823(7)
C17 C 0.1118(14) 1.1683(8) 0.4066(9)
H11 H 0.1321 1.1747 0.4594
H12 H 0.0083 1.1978 0.4109
H13 H 0.1749 1.2005 0.3651
C18 C 0.1971(10) 0.9739(11) 0.4181(6)
C19 C 0.2303(13) 1.0099(12) 0.5036(6)
H14 H 0.2676 0.9535 0.5322
H15 H 0.1388 1.0477 0.5393
H16 H 0.3036 1.0493 0.4890
C20 C 0.2175(10) 0.8873(9) 0.4000(8)
H17 H 0.2507 0.8354 0.4312
C21 C 0.1797(8) 0.8782(8) 0.3176(5)
H18 H 0.1926 0.8153 0.2964
N1 N 0.3968(8) 1.0352(6) 0.0962(4)
N2 N 0.4068(8) 0.7355(6) 0.1439(4)
N3 N 0.3100(8) 0.8872(5) -0.0334(4)
H19 H 0.2973 0.8756 -0.0811
H20 H 0.3935 0.8994 -0.0305
N4 N 0.0080(12) 0.8466(6) -0.0993(5)
N5 N -0.2501(6) 0.8258(4) 0.2664(4)
C22 C 0.9113(7) 0.4743(4) 0.4071(4)
C23 C 0.8315(6) 0.5682(4) 0.3795(3)
C24 C 0.9365(6) 0.6345(4) 0.3666(4)
C25 C 0.6920(6) 0.6103(4) 0.4511(3)
C26 C 0.5540(6) 0.6088(4) 0.4437(3)
C27 C 0.4269(7) 0.6547(4) 0.5091(4)
C28 C 0.5239(6) 0.5643(4) 0.3719(3)
C29 C 0.3868(7) 0.5734(4) 0.3637(4)
H21 H 0.3068 0.6076 0.4055
C30 C 0.3526(7) 0.5327(5) 0.2923(4)
H22 H 0.3211 0.5857 0.2578
H23 H 0.2699 0.5004 0.3126
C31 C 0.4577(8) 0.4386(7) 0.1593(4)
H24 H 0.5442 0.3931 0.1266
H25 H 0.4405 0.4979 0.1296
H26 H 0.3715 0.4103 0.1695
C32 C 0.6200(6) 0.4997(5) 0.2272(4)
H27 H 0.6039 0.5638 0.2032
H28 H 0.7026 0.4565 0.1881
C33 C 0.6601(5) 0.5078(4) 0.3087(3)
H29 H 0.6887 0.4417 0.3286
C34 C 0.7916(5) 0.5569(4) 0.2954(3)
H30 H 0.7573 0.6234 0.2780
C35 C 0.9252(6) 0.5081(4) 0.2258(3)
C36 C 0.9853(6) 0.5637(5) 0.1618(4)
H31 H 0.9500 0.6314 0.1650
C37 C 1.1001(7) 0.5194(6) 0.0912(4)
C38 C 1.1577(9) 0.5861(6) 0.0228(5)
H32 H 1.2342 0.5477 -0.0214
H33 H 1.1988 0.6328 0.0451
H34 H 1.0763 0.6202 0.0016
C39 C 1.1532(7) 0.4190(6) 0.0871(4)
C40 C 1.2753(8) 0.3689(7) 0.0111(5)
H35 H 1.3034 0.4174 -0.0280
H36 H 1.2378 0.3231 -0.0146
H37 H 1.3615 0.3349 0.0283
C41 C 1.0959(7) 0.3646(5) 0.1514(5)
H38 H 1.1342 0.2973 0.1491
C42 C 0.9826(6) 0.4067(4) 0.2199(4)
H39 H 0.9441 0.3675 0.2623
N6 N 0.9749(6) 0.4068(4) 0.4320(4)
N7 N 1.0183(6) 0.6841(4) 0.3566(3)
N8 N 0.7208(5) 0.6487(4) 0.5161(3)
H40 H 0.6480 0.6752 0.5578
H41 H 0.8120 0.6468 0.5161
N9 N 0.3242(6) 0.6932(4) 0.5600(4)
N10 N 0.4843(6) 0.4615(4) 0.2410(3)
O1 O 0.4575(7) 0.2891(4) 0.3201(3)
H42? H 0.0045 1.0822 0.3040
H43? H 0.1710 1.0817 0.2565
loop_
_geom_bond_atom_site_label_1
_geom_bond_atom_site_label_2
_geom_bond_site_symmetry_1
_geom_bond_site_symmetry_2
C1 C2 1_555 1_555
C2 C3 1_555 1_555
C3 N1 1_555 1_555
C4 C2 1_555 1_555
C5 C4 1_555 1_555
C6 C5 1_555 1_555
C7 C5 1_555 1_555
C8 C7 1_555 1_555
H1 C8 1_555 1_555
C9 C8 1_555 1_555
H2 C9 1_555 1_555
H3 C9 1_555 1_555
C10 H4 1_555 1_555
H5 C10 1_555 1_555
H6 C10 1_555 1_555
C11 H7 1_555 1_555
H8 C11 1_555 1_555
C12 C7 1_555 1_555
H9 C12 1_555 1_555
C13 C2 1_555 1_555
H10 C13 1_555 1_555
C14 C13 1_555 1_555
C15 C14 1_555 1_555
C16 C15 1_555 1_555
C17 C16 1_555 1_555
H11 C17 1_555 1_555
H12 C17 1_555 1_555
H13 C17 1_555 1_555
C18 C16 1_555 1_555
C19 C18 1_555 1_555
H14 C19 1_555 1_555
H15 C19 1_555 1_555
H16 C19 1_555 1_555
C20 C18 1_555 1_555
H17 C20 1_555 1_555
C21 C14 1_555 1_555
H18 C21 1_555 1_555
N2 C1 1_555 1_555
N3 C4 1_555 1_555
H19 N3 1_555 1_555
H20 N3 1_555 1_555
N4 C6 1_555 1_555
N5 C9 1_555 1_555
C22 C23 1_555 1_555
C23 C24 1_555 1_555
C24 N7 1_555 1_555
C25 C23 1_555 1_555
C26 C25 1_555 1_555
C27 C26 1_555 1_555
C28 C26 1_555 1_555
C29 C28 1_555 1_555
H21 C29 1_555 1_555
C30 C29 1_555 1_555
H22 C30 1_555 1_555
H23 C30 1_555 1_555
C31 H24 1_555 1_555
H25 C31 1_555 1_555
H26 C31 1_555 1_555
C32 H27 1_555 1_555
H28 C32 1_555 1_555
C33 C28 1_555 1_555
H29 C33 1_555 1_555
C34 C23 1_555 1_555
H30 C34 1_555 1_555
C35 C34 1_555 1_555
C36 C35 1_555 1_555
H31 C36 1_555 1_555
C37 C36 1_555 1_555
C38 C37 1_555 1_555
H32 C38 1_555 1_555
H33 C38 1_555 1_555
H34 C38 1_555 1_555
C39 C37 1_555 1_555
C40 C39 1_555 1_555
H35 C40 1_555 1_555
H36 C40 1_555 1_555
H37 C40 1_555 1_555
C41 C39 1_555 1_555
H38 C41 1_555 1_555
C42 C35 1_555 1_555
H39 C42 1_555 1_555
N6 C22 1_555 1_555
N8 C25 1_555 1_555
H40 N8 1_555 1_555
H41 N8 1_555 1_555
N9 C27 1_555 1_555
N10 C30 1_555 1_555
C10 N5 1_555 1_555
C11 C12 1_555 1_555
C11 N5 1_555 1_555
C12 C13 1_555 1_555
C20 C21 1_555 1_555
C31 N10 1_555 1_555
C32 C33 1_555 1_555
C32 N10 1_555 1_555
C33 C34 1_555 1_555
C41 C42 1_555 1_555

#END
