
#######################################################################
#
#                 Cambridge Crystallographic Data Centre
#                                CCDC 
#
#######################################################################
#
# If this CIF has been generated from an entry in the Cambridge 
# Structural Database, then it will include bibliographic, chemical, 
# crystal, experimental, refinement or atomic coordinate data resulting 
# from the CCDC's data processing and validation procedures.
#
#######################################################################

data_YAZTAU
_chemical_formula_moiety         'C14 H16 Br4'
_chemical_name_systematic        
4,5,11,12-Tetrabromopentacyclo(6.6.0.0^2,6^.0^3,13^.0^10,14^)tetradecane
_symmetry_cell_setting           orthorhombic
_symmetry_space_group_name_H-M   'P n m a'
_symmetry_Int_Tables_number      62
_space_group_name_Hall           '-P 2ac 2n'
loop_
_symmetry_equiv_pos_site_id
_symmetry_equiv_pos_as_xyz
1 x,y,z
2 1/2-x,1/2+y,1/2+z
3 x,1/2-y,z
4 1/2-x,-y,1/2+z
5 -x,-y,-z
6 1/2+x,1/2-y,1/2-z
7 -x,1/2+y,-z
8 1/2+x,y,1/2-z
_cell_length_a                   14.183(4)
_cell_length_b                   16.477(4)
_cell_length_c                   6.387(4)
_cell_angle_alpha                90
_cell_angle_beta                 90
_cell_angle_gamma                90
_cell_volume                     1492.6
_exptl_crystal_colour            colorless
_chemical_melting_point          '232-234 deg.C'
_cell_formula_units_Z            4
loop_
_atom_site_label
_atom_site_type_symbol
_atom_site_fract_x
_atom_site_fract_y
_atom_site_fract_z
Br1 Br 0.11469(8) 0.46828(6) 0.1987(2)
Br2 Br 0.34977(9) 0.37322(8) 0.1749(2)
C1 C 0.1747(7) 0.3247(6) -0.329(2)
C2 C 0.2540(6) 0.2965(6) -0.176(2)
C3 C 0.2354(8) 0.3428(7) 0.026(2)
C4 C 0.1776(7) 0.4144(6) -0.037(2)
C5 C 0.1082(7) 0.3812(5) -0.197(2)
C6 C 0.0310(9) 0.3256(9) -0.116(3)
C7 C 0.027(1) 0.2500 -0.249(2)
C8 C 0.1170(10) 0.2500 -0.390(2)
H1 H 0.199(5) 0.353(5) -0.45(1)
H2 H 0.304(4) 0.310(4) -0.22(1)
H3 H 0.209(6) 0.316(5) 0.13(1)
H4 H 0.219(5) 0.461(4) -0.09(1)
H5 H 0.0832 0.4241 -0.2827
H6 H 0.00(1) 0.321(8) 0.02(2)
H7 H -0.022(6) 0.350(5) -0.12(1)
H8 H -0.023(9) 0.2500 -0.33(2)
H9 H 0.07(1) 0.2500 -0.52(3)
C2B C 0.2540(6) 0.2035(6) -0.176(2)
C6B C 0.0310(9) 0.1744(9) -0.116(3)
C1B C 0.1747(7) 0.1753(6) -0.329(2)
C3B C 0.2354(8) 0.1572(7) 0.026(2)
H2B H 0.304(4) 0.190(4) -0.22(1)
C5B C 0.1082(7) 0.1188(5) -0.197(2)
H6B H 0.00(1) 0.179(8) 0.02(2)
H7B H -0.022(6) 0.150(5) -0.12(1)
H1B H 0.199(5) 0.147(5) -0.45(1)
Br2B Br 0.34977(9) 0.12678(8) 0.1749(2)
C4B C 0.1776(7) 0.0856(6) -0.037(2)
H3B H 0.209(6) 0.184(5) 0.13(1)
H5B H 0.0832 0.0759 -0.2827
Br1B Br 0.11469(8) 0.03172(6) 0.1987(2)
H4B H 0.219(5) 0.039(4) -0.09(1)
loop_
_geom_bond_atom_site_label_1
_geom_bond_atom_site_label_2
_geom_bond_site_symmetry_1
_geom_bond_site_symmetry_2
Br1 C4 1_555 1_555
Br2 C3 1_555 1_555
C1 C2 1_555 1_555
C2 C3 1_555 1_555
C3 C4 1_555 1_555
C4 C5 1_555 1_555
C5 C1 1_555 1_555
C6 C5 1_555 1_555
C7 C6 1_555 1_555
C8 C1 1_555 1_555
H1 C1 1_555 1_555
H2 C2 1_555 1_555
H3 C3 1_555 1_555
H4 C4 1_555 1_555
H5 C5 1_555 1_555
H6 C6 1_555 1_555
H7 C6 1_555 1_555
H8 C7 1_555 1_555
H9 C8 1_555 1_555
C2B C2 1_555 1_555
C6B C7 1_555 1_555
C1B C8 1_555 1_555
C3B C2B 1_555 1_555
H2B C2B 1_555 1_555
C5B C6B 1_555 1_555
H6B C6B 1_555 1_555
H7B C6B 1_555 1_555
H1B C1B 1_555 1_555
Br2B C3B 1_555 1_555
C4B C3B 1_555 1_555
H3B C3B 1_555 1_555
H5B C5B 1_555 1_555
Br1B C4B 1_555 1_555
H4B C4B 1_555 1_555
C7 C8 1_555 1_555
C2B C1B 1_555 1_555
C1B C5B 1_555 1_555
C5B C4B 1_555 1_555

#END
