
#######################################################################
#
#                 Cambridge Crystallographic Data Centre
#                                CCDC 
#
#######################################################################
#
# If this CIF has been generated from an entry in the Cambridge 
# Structural Database, then it will include bibliographic, chemical, 
# crystal, experimental, refinement or atomic coordinate data resulting 
# from the CCDC's data processing and validation procedures.
#
#######################################################################

data_YAZTEB
_chemical_formula_moiety         'C19 H16 Br1 N3 O5,C2 H6 O1'
_chemical_name_systematic        
'dimethyl 7-(4-bromophenyl)-8-cyano-3-methyl-2-oxo-1,2,3,7-tetrahydroimidazo[1,2-a]pyridine-5,6-dicarboxylate ethanol solvate'
_symmetry_cell_setting           triclinic
_symmetry_space_group_name_H-M   'P -1'
_symmetry_Int_Tables_number      2
_space_group_name_Hall           '-P 1'
loop_
_symmetry_equiv_pos_site_id
_symmetry_equiv_pos_as_xyz
1 x,y,z
2 -x,-y,-z
_cell_length_a                   9.4419(10)
_cell_length_b                   10.4165(11)
_cell_length_c                   12.7123(12)
_cell_angle_alpha                80.387(3)
_cell_angle_beta                 71.426(3)
_cell_angle_gamma                76.536(3)
_cell_volume                     1146.72
_exptl_crystal_colour            colorless
_exptl_crystal_description       block
_cell_formula_units_Z            2
loop_
_atom_site_label
_atom_site_type_symbol
_atom_site_fract_x
_atom_site_fract_y
_atom_site_fract_z
Br1 Br 0.67178(9) 0.79914(8) -0.02012(6)
C1 C 0.2722(6) 0.7473(5) 0.2227(4)
H1 H 0.1858 0.8018 0.2630
C2 C 0.3873(8) 0.8028(6) 0.1453(5)
H2 H 0.3781 0.8945 0.1331
C3 C 0.5146(6) 0.7230(6) 0.0867(4)
C4 C 0.5295(6) 0.5890(6) 0.1021(4)
H3 H 0.6162 0.5349 0.0617
C5 C 0.4122(6) 0.5345(5) 0.1799(4)
H4 H 0.4208 0.4428 0.1907
C6 C 0.2852(5) 0.6121(4) 0.2405(3)
C7 C 0.1565(5) 0.5512(5) 0.3259(4)
H5 H 0.0730 0.6240 0.3547
C8 C 0.0960(5) 0.4639(5) 0.2732(4)
C9 C 0.0292(6) 0.5250(5) 0.1875(4)
C10 C 0.1091(5) 0.3336(5) 0.3027(4)
C11 C 0.2979(9) 0.0190(7) 0.3950(9)
H6 H 0.3690 0.0325 0.3228
H7 H 0.2696 -0.0657 0.4032
H8 H 0.3442 0.0213 0.4517
C12 C 0.1569(7) 0.1280(5) 0.4068(6)
H9 H 0.0893 0.1178 0.4830
C13 C 0.0727(7) 0.1212(6) 0.3270(6)
C14 C 0.2214(5) 0.3408(5) 0.4441(4)
C15 C 0.2908(7) 0.2566(6) 0.5305(5)
C16 C 0.2499(13) 0.1643(11) 0.7154(7)
H10 H 0.3386 0.1943 0.7154
H11 H 0.2767 0.0724 0.7024
H12 H 0.1741 0.1750 0.7863
C17 C 0.2072(5) 0.4725(5) 0.4237(4)
C18 C 0.2345(5) 0.5557(6) 0.4959(4)
C19 C 0.3400(7) 0.5582(8) 0.6404(5)
H13 H 0.3940 0.6272 0.5997
H14 H 0.3999 0.4982 0.6831
H15 H 0.2447 0.5967 0.6899
N1 N -0.0174(7) 0.5778(6) 0.1165(5)
N2 N 0.0560(5) 0.2416(4) 0.2660(3)
H16 H 0.0172 0.2582 0.2114
N3 N 0.1805(4) 0.2671(4) 0.3803(3)
O1 O 0.0281(7) 0.0245(4) 0.3166(5)
O2 O 0.4234(5) 0.2052(4) 0.5077(4)
O3 O 0.1891(5) 0.2426(4) 0.6271(3)
O4 O 0.1878(5) 0.6732(4) 0.4941(3)
O5 O 0.3124(4) 0.4873(4) 0.5639(3)
O6 O 0.9058(8) 0.2922(7) 0.1052(5)
H21 H 0.9219 0.3504 0.0533
C21 C 0.8618(10) 0.1886(10) 0.0709(8)
H22 H 0.9311 0.1054 0.0795
H23 H 0.8641 0.2077 -0.0069
C22 C 0.7026(10) 0.1792(11) 0.1433(8)
H24 H 0.6698 0.1094 0.1220
H25 H 0.6350 0.2618 0.1338
H26 H 0.7017 0.1603 0.2200
C20? C 0.145(6) 0.039(4) 0.516(2)
H17? H 0.2386 0.0265 0.5354
H18? H 0.1284 -0.0458 0.5078
H19? H 0.0623 0.0793 0.5744
H20? H 0.2582 0.0848 0.3644
loop_
_geom_bond_atom_site_label_1
_geom_bond_atom_site_label_2
_geom_bond_site_symmetry_1
_geom_bond_site_symmetry_2
Br1 C3 1_555 1_555
C1 H1 1_555 1_555
C2 C1 1_555 1_555
H2 C2 1_555 1_555
C3 C2 1_555 1_555
C4 C3 1_555 1_555
H3 C4 1_555 1_555
C5 C4 1_555 1_555
H4 C5 1_555 1_555
C6 C1 1_555 1_555
C7 C6 1_555 1_555
H5 C7 1_555 1_555
C8 C7 1_555 1_555
C9 C8 1_555 1_555
C10 C8 1_555 1_555
C11 H6 1_555 1_555
H7 C11 1_555 1_555
H8 C11 1_555 1_555
C12 C11 1_555 1_555
H9 C12 1_555 1_555
C13 C12 1_555 1_555
C14 C15 1_555 1_555
C15 O2 1_555 1_555
C16 H10 1_555 1_555
H11 C16 1_555 1_555
H12 C16 1_555 1_555
C17 C7 1_555 1_555
C18 C17 1_555 1_555
C19 H13 1_555 1_555
H14 C19 1_555 1_555
H15 C19 1_555 1_555
N1 C9 1_555 1_555
N2 C10 1_555 1_555
H16 N2 1_555 1_555
N3 C10 1_555 1_555
O1 C13 1_555 1_555
O3 C15 1_555 1_555
O4 C18 1_555 1_555
O5 C18 1_555 1_555
O6 H21 1_555 1_555
C21 O6 1_555 1_555
H22 C21 1_555 1_555
H23 C21 1_555 1_555
C22 C21 1_555 1_555
H24 C22 1_555 1_555
H25 C22 1_555 1_555
H26 C22 1_555 1_555
C5 C6 1_555 1_555
C12 N3 1_555 1_555
C13 N2 1_555 1_555
C14 C17 1_555 1_555
C14 N3 1_555 1_555
C16 O3 1_555 1_555
C19 O5 1_555 1_555

#END
