
#######################################################################
#
#                 Cambridge Crystallographic Data Centre
#                                CCDC 
#
#######################################################################
#
# If this CIF has been generated from an entry in the Cambridge 
# Structural Database, then it will include bibliographic, chemical, 
# crystal, experimental, refinement or atomic coordinate data resulting 
# from the CCDC's data processing and validation procedures.
#
#######################################################################

data_YAZYOQ
_chemical_formula_moiety         'C23 H16 Cl1 N1 O6'
_chemical_name_systematic        
3-chloro-8-phenyl-11,12,13,13a-tetrahydro-9aH-pyrano[3'',2'':5',6']pyrano[4',3':2,3]pyrrolo[2,1-c][1,4]benzoxazine-6,7,14-trione
_symmetry_cell_setting           triclinic
_symmetry_space_group_name_H-M   'P -1'
_symmetry_Int_Tables_number      2
_space_group_name_Hall           '-P 1'
loop_
_symmetry_equiv_pos_site_id
_symmetry_equiv_pos_as_xyz
1 x,y,z
2 -x,-y,-z
_cell_length_a                   9.2253(13)
_cell_length_b                   10.7101(13)
_cell_length_c                   11.3059(15)
_cell_angle_alpha                73.195(11)
_cell_angle_beta                 81.299(11)
_cell_angle_gamma                69.205(12)
_cell_volume                     998.223
_exptl_crystal_colour            yellow
_exptl_crystal_description       plate
_cell_formula_units_Z            2
loop_
_atom_site_label
_atom_site_type_symbol
_atom_site_fract_x
_atom_site_fract_y
_atom_site_fract_z
Cl1 Cl 1.23475(10) -0.13075(8) 0.37297(10)
O1 O 0.37181(18) 0.54213(17) 0.40046(13)
O2 O 0.94399(19) 0.44953(17) 0.38141(16)
O3 O 0.45218(19) 0.66566(17) 0.21969(14)
N1 N 0.8821(2) 0.3671(2) 0.19185(18)
C1 C 1.0037(3) 0.3114(3) 0.3793(2)
C2 C 0.8308(3) 0.5415(2) 0.3037(2)
C3 C 0.7587(3) 0.4793(2) 0.2318(2)
C4 C 0.5040(3) 0.5635(2) 0.33700(19)
H1 H 0.5463 0.6052 0.3841
C5 C 1.0546(3) 0.1311(3) 0.2787(3)
H2 H 1.0422 0.0999 0.2134
O4 O 0.7901(2) 0.65995(18) 0.30441(17)
C6 C 0.9824(3) 0.2674(3) 0.2818(2)
C7 C 0.6914(3) 0.5781(3) 0.1140(2)
C8 C 0.6308(2) 0.4326(2) 0.31702(19)
H3 H 0.6744 0.3780 0.3971
O5 O 0.9961(2) 0.3146(2) 0.00879(19)
O6 O 0.7715(3) 0.5761(2) -0.10050(16)
C9 C 0.5444(3) 0.6693(2) 0.1159(2)
C10 C 0.5675(3) 0.3443(3) 0.2683(2)
H4 H 0.5407 0.3889 0.1830
H5 H 0.6463 0.2550 0.2709
C11 C 1.0939(3) 0.2203(3) 0.4764(3)
H6 H 1.1057 0.2508 0.5424
C12 C 0.7813(3) 0.5298(3) 0.0108(2)
C13 C 1.1652(3) 0.0847(3) 0.4738(3)
H7 H 1.2259 0.0225 0.5381
C14 C 0.4639(3) 0.7808(3) 0.0126(2)
C15 C 1.1466(3) 0.0413(3) 0.3761(3)
C16 C 0.9014(3) 0.3900(3) 0.0653(2)
C17 C 0.4246(3) 0.3252(3) 0.3471(2)
H8 H 0.3796 0.2753 0.3124
H9 H 0.4539 0.2713 0.4302
C18 C 0.3037(4) 0.8219(3) 0.0096(3)
H10 H 0.2482 0.7737 0.0693
C19 C 0.3076(3) 0.4625(3) 0.3521(2)
H11 H 0.2732 0.5136 0.2696
H12 H 0.2180 0.4489 0.4043
C20 C 0.5451(4) 0.8534(3) -0.0765(2)
H13 H 0.6527 0.8265 -0.0762
C21 C 0.2260(5) 0.9335(3) -0.0809(3)
H14 H 0.1186 0.9599 -0.0828
C22 C 0.3071(6) 1.0055(3) -0.1680(3)
H15 H 0.2548 1.0814 -0.2288
C23 C 0.4659(6) 0.9658(4) -0.1657(3)
H16 H 0.5204 1.0154 -0.2250
loop_
_geom_bond_atom_site_label_1
_geom_bond_atom_site_label_2
_geom_bond_site_symmetry_1
_geom_bond_site_symmetry_2
Cl1 C15 1_555 1_555
O1 C4 1_555 1_555
O2 C1 1_555 1_555
O3 C4 1_555 1_555
N1 C3 1_555 1_555
C1 C6 1_555 1_555
C2 O2 1_555 1_555
C3 C2 1_555 1_555
C4 H1 1_555 1_555
C5 H2 1_555 1_555
O4 C2 1_555 1_555
C6 N1 1_555 1_555
C7 C3 1_555 1_555
C8 C3 1_555 1_555
H3 C8 1_555 1_555
O5 C16 1_555 1_555
O6 C12 1_555 1_555
C9 O3 1_555 1_555
C10 C8 1_555 1_555
H4 C10 1_555 1_555
H5 C10 1_555 1_555
C11 C1 1_555 1_555
H6 C11 1_555 1_555
C12 C7 1_555 1_555
C13 C11 1_555 1_555
H7 C13 1_555 1_555
C14 C9 1_555 1_555
C15 C5 1_555 1_555
C16 N1 1_555 1_555
C17 C10 1_555 1_555
H8 C17 1_555 1_555
H9 C17 1_555 1_555
C18 C14 1_555 1_555
H10 C18 1_555 1_555
C19 O1 1_555 1_555
H11 C19 1_555 1_555
H12 C19 1_555 1_555
C20 C14 1_555 1_555
H13 C20 1_555 1_555
C21 C18 1_555 1_555
H14 C21 1_555 1_555
C22 C21 1_555 1_555
H15 C22 1_555 1_555
C23 C20 1_555 1_555
H16 C23 1_555 1_555
C4 C8 1_555 1_555
C5 C6 1_555 1_555
C7 C9 1_555 1_555
C12 C16 1_555 1_555
C13 C15 1_555 1_555
C17 C19 1_555 1_555
C22 C23 1_555 1_555

#END
