
#######################################################################
#
#                 Cambridge Crystallographic Data Centre
#                                CCDC 
#
#######################################################################
#
# If this CIF has been generated from an entry in the Cambridge 
# Structural Database, then it will include bibliographic, chemical, 
# crystal, experimental, refinement or atomic coordinate data resulting 
# from the CCDC's data processing and validation procedures.
#
#######################################################################

data_YAZYIK
_chemical_formula_moiety         'C23 H16 Br1 N1 O6'
_chemical_name_systematic        
'3-(4-bromobenzoyl)-3a-(3,4-dihydro-2H-pyran-5-yl)-2-hydroxy-1H-pyrrolo[2,1-c][1,4]benzoxazine-1,4(3aH)-dione unknown solvate'
_symmetry_cell_setting           cubic
_symmetry_space_group_name_H-M   'I a -3 d'
_symmetry_Int_Tables_number      230
_space_group_name_Hall           '-I 4bd 2c 3'
loop_
_symmetry_equiv_pos_site_id
_symmetry_equiv_pos_as_xyz
1 x,y,z
2 1/2-x,-y,1/2+z
3 -x,1/2+y,1/2-z
4 1/2+x,1/2-y,-z
5 z,x,y
6 1/2+z,1/2-x,-y
7 1/2-z,-x,1/2+y
8 -z,1/2+x,1/2-y
9 y,z,x
10 -y,1/2+z,1/2-x
11 1/2+y,1/2-z,-x
12 1/2-y,-z,1/2+x
13 3/4+y,1/4+x,1/4-z
14 3/4-y,3/4-x,3/4-z
15 1/4+y,1/4-x,3/4+z
16 1/4-y,3/4+x,1/4+z
17 3/4+x,1/4+z,1/4-y
18 1/4-x,3/4+z,1/4+y
19 3/4-x,3/4-z,3/4-y
20 1/4+x,1/4-z,3/4+y
21 3/4+z,1/4+y,1/4-x
22 1/4+z,1/4-y,3/4+x
23 1/4-z,3/4+y,1/4+x
24 3/4-z,3/4-y,3/4-x
25 1/2+x,1/2+y,1/2+z
26 -x,1/2-y,z
27 1/2-x,y,-z
28 x,-y,1/2-z
29 1/2+z,1/2+x,1/2+y
30 z,-x,1/2-y
31 -z,1/2-x,y
32 1/2-z,x,-y
33 1/2+y,1/2+z,1/2+x
34 1/2-y,z,-x
35 y,-z,1/2-x
36 -y,1/2-z,x
37 1/4+y,3/4+x,3/4-z
38 1/4-y,1/4-x,1/4-z
39 3/4+y,3/4-x,1/4+z
40 3/4-y,1/4+x,3/4+z
41 1/4+x,3/4+z,3/4-y
42 3/4-x,1/4+z,3/4+y
43 1/4-x,1/4-z,1/4-y
44 3/4+x,3/4-z,1/4+y
45 1/4+z,3/4+y,3/4-x
46 3/4+z,3/4-y,1/4+x
47 3/4-z,1/4+y,3/4+x
48 1/4-z,1/4-y,1/4-x
49 -x,-y,-z
50 1/2+x,y,1/2-z
51 x,1/2-y,1/2+z
52 1/2-x,1/2+y,z
53 -z,-x,-y
54 1/2-z,1/2+x,y
55 1/2+z,x,1/2-y
56 z,1/2-x,1/2+y
57 -y,-z,-x
58 y,1/2-z,1/2+x
59 1/2-y,1/2+z,x
60 1/2+y,z,1/2-x
61 1/4-y,3/4-x,3/4+z
62 1/4+y,1/4+x,1/4+z
63 3/4-y,3/4+x,1/4-z
64 3/4+y,1/4-x,3/4-z
65 1/4-x,3/4-z,3/4+y
66 3/4+x,1/4-z,3/4-y
67 1/4+x,1/4+z,1/4+y
68 3/4-x,3/4+z,1/4-y
69 1/4-z,3/4-y,3/4+x
70 3/4-z,3/4+y,1/4-x
71 3/4+z,1/4-y,3/4-x
72 1/4+z,1/4+y,1/4+x
73 1/2-x,1/2-y,1/2-z
74 x,1/2+y,-z
75 1/2+x,-y,z
76 -x,y,1/2+z
77 1/2-z,1/2-x,1/2-y
78 -z,x,1/2+y
79 z,1/2+x,-y
80 1/2+z,-x,y
81 1/2-y,1/2-z,1/2-x
82 1/2+y,-z,x
83 -y,z,1/2+x
84 y,1/2+z,-x
85 3/4-y,1/4-x,1/4+z
86 3/4+y,3/4+x,3/4+z
87 1/4-y,1/4+x,3/4-z
88 1/4+y,3/4-x,1/4-z
89 3/4-x,1/4-z,1/4+y
90 1/4+x,3/4-z,1/4-y
91 3/4+x,3/4+z,3/4+y
92 1/4-x,1/4+z,3/4-y
93 3/4-z,1/4-y,1/4+x
94 1/4-z,1/4+y,3/4-x
95 1/4+z,3/4-y,1/4-x
96 3/4+z,3/4+y,3/4+x
_cell_length_a                   37.8244(14)
_cell_length_b                   37.8244(14)
_cell_length_c                   37.8244(14)
_cell_angle_alpha                90
_cell_angle_beta                 90
_cell_angle_gamma                90
_cell_volume                     54114.8
_exptl_crystal_colour            colorless
_exptl_crystal_description       prism
_cell_formula_units_Z            96
loop_
_atom_site_label
_atom_site_type_symbol
_atom_site_fract_x
_atom_site_fract_y
_atom_site_fract_z
Br1 Br -0.04465(2) 0.60626(2) 0.373573(19)
O1 O 0.12425(9) 0.54985(8) 0.21810(8)
N1 N 0.08090(11) 0.55802(9) 0.17609(12)
C1 C 0.09854(15) 0.56836(13) 0.14540(14)
O2 O -0.02728(9) 0.54251(11) 0.20840(10)
C2 C 0.12921(15) 0.55361(13) 0.13287(15)
H1 H 0.1408 0.5363 0.1460
O3 O 0.06620(7) 0.53983(8) 0.26579(9)
H2 H 0.0929 0.5402 0.2702
C3 C 0.14277(16) 0.56434(16) 0.10108(18)
H3 H 0.1637 0.5544 0.0928
O4 O 0.05325(10) 0.61238(8) 0.13916(10)
C4 C 0.12601(19) 0.58929(18) 0.08147(16)
H4 H 0.1351 0.5958 0.0596
O5 O 0.01137(9) 0.61649(9) 0.17941(9)
C5 C 0.09584(18) 0.60492(15) 0.09388(16)
H5 H 0.0846 0.6226 0.0810
O6 O -0.00712(12) 0.52617(14) 0.09724(11)
C6 C 0.08261(15) 0.59379(15) 0.12575(16)
C7 C 0.09327(15) 0.55159(11) 0.20886(14)
C8 C 0.06236(14) 0.54779(11) 0.23209(14)
C9 C 0.03264(13) 0.55370(11) 0.21421(12)
C10 C 0.04195(13) 0.56022(13) 0.17559(13)
C11 C 0.03341(16) 0.59854(14) 0.16605(14)
C12 C 0.02661(13) 0.53505(14) 0.14936(14)
C13 C 0.00824(15) 0.54619(15) 0.12244(16)
H6 H 0.0054 0.5705 0.1204
C14 C -0.0123(5) 0.4882(7) 0.1114(6)
H7 H -0.0279 0.4880 0.1318
H8 H -0.0220 0.4728 0.0933
C15 C 0.0249(2) 0.47667(15) 0.12175(19)
H9 H 0.0254 0.4515 0.1265
H10 H 0.0414 0.4818 0.1028
C16 C 0.03448(15) 0.49687(15) 0.15399(15)
H11 H 0.0595 0.4938 0.1589
H12 H 0.0213 0.4878 0.1740
C17 C -0.00390(14) 0.55255(13) 0.22739(15)
C18 C -0.01100(14) 0.56420(14) 0.26367(14)
C19 C 0.00766(14) 0.59025(15) 0.28030(16)
H13 H 0.0275 0.5995 0.2691
C20 C -0.00155(16) 0.60330(13) 0.31286(16)
H14 H 0.0116 0.6211 0.3235
C21 C -0.03006(19) 0.58962(17) 0.32882(15)
C22 C -0.04949(15) 0.56344(18) 0.31407(18)
H15 H -0.0689 0.5540 0.3258
C23 C -0.03967(14) 0.55096(14) 0.28084(16)
H16 H -0.0530 0.5332 0.2702
C24? C -0.0019(5) 0.4919(7) 0.0986(6)
H17? H 0.0008 0.4822 0.0750
H18? H -0.0239 0.4829 0.1082
loop_
_geom_bond_atom_site_label_1
_geom_bond_atom_site_label_2
_geom_bond_site_symmetry_1
_geom_bond_site_symmetry_2
Br1 C21 1_555 1_555
O1 C7 1_555 1_555
N1 C1 1_555 1_555
C1 C2 1_555 1_555
O2 C17 1_555 1_555
C2 H1 1_555 1_555
O3 H2 1_555 1_555
C3 C2 1_555 1_555
H3 C3 1_555 1_555
O4 C6 1_555 1_555
C4 C3 1_555 1_555
H4 C4 1_555 1_555
O5 C11 1_555 1_555
C5 C4 1_555 1_555
H5 C5 1_555 1_555
O6 C13 1_555 1_555
C6 C1 1_555 1_555
C7 N1 1_555 1_555
C8 O3 1_555 1_555
C9 C8 1_555 1_555
C10 N1 1_555 1_555
C11 O4 1_555 1_555
C12 C10 1_555 1_555
C13 C12 1_555 1_555
H6 C13 1_555 1_555
C14 O6 1_555 1_555
H7 C14 1_555 1_555
H8 C14 1_555 1_555
C15 C14 1_555 1_555
H9 C15 1_555 1_555
H10 C15 1_555 1_555
C16 C12 1_555 1_555
H11 C16 1_555 1_555
H12 C16 1_555 1_555
C17 C9 1_555 1_555
C18 C17 1_555 1_555
C19 C18 1_555 1_555
H13 C19 1_555 1_555
C20 C19 1_555 1_555
H14 C20 1_555 1_555
C21 C20 1_555 1_555
C22 C21 1_555 1_555
H15 C22 1_555 1_555
C23 C18 1_555 1_555
H16 C23 1_555 1_555
C5 C6 1_555 1_555
C7 C8 1_555 1_555
C9 C10 1_555 1_555
C10 C11 1_555 1_555
C15 C16 1_555 1_555
C22 C23 1_555 1_555

#END
