
#######################################################################
#
#                 Cambridge Crystallographic Data Centre
#                                CCDC 
#
#######################################################################
#
# If this CIF has been generated from an entry in the Cambridge 
# Structural Database, then it will include bibliographic, chemical, 
# crystal, experimental, refinement or atomic coordinate data resulting 
# from the CCDC's data processing and validation procedures.
#
#######################################################################

data_YAZZOO
_chemical_formula_moiety         'C22 H22 N1 1+,Cl1 O4 1-'
_chemical_name_systematic        'N-Tritylazetidinium perchlorate'
_symmetry_cell_setting           orthorhombic
_symmetry_space_group_name_H-M   'P n m a'
_symmetry_Int_Tables_number      62
_space_group_name_Hall           '-P 2ac 2n'
loop_
_symmetry_equiv_pos_site_id
_symmetry_equiv_pos_as_xyz
1 x,y,z
2 1/2-x,-y,1/2+z
3 1/2+x,1/2-y,1/2-z
4 -x,1/2+y,-z
5 -x,-y,-z
6 1/2+x,y,1/2-z
7 1/2-x,1/2+y,1/2+z
8 x,1/2-y,z
_cell_length_a                   9.349(2)
_cell_length_b                   12.159(3)
_cell_length_c                   17.220(4)
_cell_angle_alpha                90
_cell_angle_beta                 90
_cell_angle_gamma                90
_cell_volume                     1957.47
_chemical_melting_point          178-180deg.C
_cell_formula_units_Z            4
loop_
_atom_site_label
_atom_site_type_symbol
_atom_site_fract_x
_atom_site_fract_y
_atom_site_fract_z
Cl1 Cl 0.1008(2) 0.2500 0.8665(1)
O1 O -0.0347(8) 0.2500 0.8380(6)
O2 O 0.1283(6) 0.3431(5) 0.9105(3)
O3 O 0.2037(10) 0.2500 0.8060(4)
O2G O 0.1283(6) 0.1569(5) 0.9105(3)
N1 N -0.0761(6) 0.2500 0.5132(3)
H1 H -0.1716 0.2500 0.5229
C1 C -0.0120(5) 0.3380(4) 0.5664(2)
H2 H -0.1028 0.3737 0.5895
H3 H 0.0521 0.3931 0.5391
C2 C 0.0664(11) 0.2500 0.6121(5)
H4 H 0.0589 0.2500 0.6771
H5 H 0.1628 0.2500 0.5944
C3 C -0.0387(7) 0.2500 0.4271(3)
C4 C -0.1076(5) 0.3523(4) 0.3898(2)
C5 C -0.0614(6) 0.3871(4) 0.3161(3)
H6 H 0.0109 0.3318 0.2942
C6 C -0.1274(6) 0.4731(4) 0.2787(3)
H7 H -0.1038 0.5024 0.2244
C7 C -0.2416(6) 0.5273(4) 0.3125(3)
H8 H -0.2841 0.5866 0.2842
C8 C -0.2877(5) 0.4959(4) 0.3847(3)
H9 H -0.3753 0.5299 0.4185
C9 C -0.2216(5) 0.4083(4) 0.4233(3)
H10 H -0.2548 0.3787 0.4759
C10 C 0.1254(7) 0.2500 0.4198(4)
C11 C 0.2019(5) 0.3483(4) 0.4189(3)
H11 H 0.1396 0.4172 0.4216
C12 C 0.3508(6) 0.3481(6) 0.4170(3)
H12 H 0.4046 0.4257 0.4133
C13 C 0.4249(9) 0.2500 0.4154(5)
H13 H 0.5464 0.2500 0.4133
C1G C -0.0120(5) 0.1620(4) 0.5664(2)
C4G C -0.1076(5) 0.1477(4) 0.3898(2)
C11G C 0.2019(5) 0.1517(4) 0.4189(3)
C12G C 0.3508(6) 0.1519(6) 0.4170(3)
H2G H -0.1028 0.1263 0.5895
H3G H 0.0521 0.1069 0.5391
C5G C -0.0614(6) 0.1129(4) 0.3161(3)
C9G C -0.2216(5) 0.0917(4) 0.4233(3)
H11G H 0.1396 0.0828 0.4216
H12G H 0.4046 0.0743 0.4133
H6G H 0.0109 0.1682 0.2942
C6G C -0.1274(6) 0.0269(4) 0.2787(3)
C8G C -0.2877(5) 0.0041(4) 0.3847(3)
H10G H -0.2548 0.1213 0.4759
H7G H -0.1038 -0.0024 0.2244
C7G C -0.2416(6) -0.0273(4) 0.3125(3)
H9G H -0.3753 -0.0299 0.4185
H8G H -0.2841 -0.0866 0.2842
loop_
_geom_bond_atom_site_label_1
_geom_bond_atom_site_label_2
_geom_bond_site_symmetry_1
_geom_bond_site_symmetry_2
Cl1 O1 1_555 1_555
O2 Cl1 1_555 1_555
O3 Cl1 1_555 1_555
N1 H1 1_555 1_555
C1 N1 1_555 1_555
H2 C1 1_555 1_555
H3 C1 1_555 1_555
C2 C1 1_555 1_555
H4 C2 1_555 1_555
H5 C2 1_555 1_555
C3 N1 1_555 1_555
C4 C3 1_555 1_555
C5 C4 1_555 1_555
H6 C5 1_555 1_555
C6 C5 1_555 1_555
H7 C6 1_555 1_555
C7 C6 1_555 1_555
H8 C7 1_555 1_555
C8 C7 1_555 1_555
H9 C8 1_555 1_555
C9 C4 1_555 1_555
H10 C9 1_555 1_555
C10 C3 1_555 1_555
C11 C10 1_555 1_555
H11 C11 1_555 1_555
C12 C11 1_555 1_555
H12 C12 1_555 1_555
C13 C12 1_555 1_555
H13 C13 1_555 1_555
O2G Cl1 1_555 1_555
C1G N1 1_555 1_555
C4G C3 1_555 1_555
C11G C10 1_555 1_555
C12G C13 1_555 1_555
H2G C1G 1_555 1_555
H3G C1G 1_555 1_555
C5G C4G 1_555 1_555
C9G C4G 1_555 1_555
H11G C11G 1_555 1_555
H12G C12G 1_555 1_555
H6G C5G 1_555 1_555
C6G C5G 1_555 1_555
C8G C9G 1_555 1_555
H10G C9G 1_555 1_555
H7G C6G 1_555 1_555
C7G C6G 1_555 1_555
H9G C8G 1_555 1_555
H8G C7G 1_555 1_555
C2 C1G 1_555 1_555
C8 C9 1_555 1_555
C11G C12G 1_555 1_555
C8G C7G 1_555 1_555

#END
