
#######################################################################
#
#                 Cambridge Crystallographic Data Centre
#                                CCDC 
#
#######################################################################
#
# If this CIF has been generated from an entry in the Cambridge 
# Structural Database, then it will include bibliographic, chemical, 
# crystal, experimental, refinement or atomic coordinate data resulting 
# from the CCDC's data processing and validation procedures.
#
#######################################################################

data_YAZZUU
_chemical_formula_moiety         'C22 H21 N1'
_chemical_name_systematic        N-Tritylazetidine
_symmetry_cell_setting           monoclinic
_symmetry_space_group_name_H-M   'C 2/c'
_symmetry_Int_Tables_number      15
_space_group_name_Hall           '-C 2yn'
loop_
_symmetry_equiv_pos_site_id
_symmetry_equiv_pos_as_xyz
1 x,y,z
2 1/2+x,1/2+y,z
3 -x,y,1/2-z
4 1/2-x,1/2+y,1/2-z
5 -x,-y,-z
6 1/2-x,1/2-y,-z
7 x,-y,1/2+z
8 1/2+x,1/2-y,1/2+z
_cell_length_a                   16.074(7)
_cell_length_b                   7.443(2)
_cell_length_c                   29.903(1)
_cell_angle_alpha                90
_cell_angle_beta                 102.88(3)
_cell_angle_gamma                90
_cell_volume                     3487.54
_exptl_crystal_colour            white
_chemical_melting_point          115-116deg.C
_cell_formula_units_Z            8
loop_
_atom_site_label
_atom_site_type_symbol
_atom_site_fract_x
_atom_site_fract_y
_atom_site_fract_z
N1 N 0.3262(3) 0.0178(6) 0.4297(1)
C1 C 0.2627(4) -0.1203(8) 0.4355(2)
H1 H 0.2287 -0.1645 0.4071
H2 H 0.2281 -0.0851 0.4563
C2 C 0.3371(4) -0.2417(8) 0.4577(2)
H3 H 0.3327 -0.3617 0.4458
H4 H 0.3502 -0.2422 0.4906
C3 C 0.3958(4) -0.1196(7) 0.4367(2)
H5 H 0.4468 -0.0832 0.4580
H6 H 0.4076 -0.1633 0.4086
C4 C 0.3092(3) 0.1366(7) 0.3886(2)
C5 C 0.2899(4) 0.0230(7) 0.3446(2)
C6 C 0.2082(4) -0.0371(7) 0.3257(2)
H7 H 0.1620 0.0076 0.3380
C7 C 0.1919(5) -0.1576(9) 0.2893(2)
H8 H 0.1354 -0.2009 0.2767
C8 C 0.2580(7) -0.2224(9) 0.2720(2)
H9 H 0.2473 -0.3041 0.2465
C9 C 0.3396(6) -0.1658(9) 0.2901(2)
H10 H 0.3857 -0.2121 0.2780
C10 C 0.3558(4) -0.0429(8) 0.3261(2)
H11 H 0.4125 -0.0003 0.3385
C11 C 0.3868(3) 0.2638(7) 0.3921(2)
C12 C 0.4007(4) 0.3473(8) 0.3532(2)
H12 H 0.3634 0.3222 0.3240
C13 C 0.4671(4) 0.4701(9) 0.3565(3)
H13 H 0.4769 0.5241 0.3291
C14 C 0.5192(4) 0.5102(9) 0.3979(3)
H14 H 0.5651 0.5940 0.3995
C15 C 0.5050(4) 0.4289(9) 0.4369(3)
H15 H 0.5411 0.4573 0.4662
C16 C 0.4389(3) 0.3061(7) 0.4341(2)
H16 H 0.4291 0.2498 0.4612
C17 C 0.2354(3) 0.2640(6) 0.3930(2)
C18 C 0.1897(4) 0.3570(8) 0.3548(2)
H17 H 0.2028 0.3375 0.3254
C19 C 0.1265(4) 0.4751(9) 0.3594(3)
H18 H 0.0964 0.5403 0.3331
C20 C 0.1076(4) 0.5062(8) 0.4015(3)
H19 H 0.0624 0.5867 0.4040
C21 C 0.1527(4) 0.4184(9) 0.4391(3)
H20 H 0.1398 0.4382 0.4685
C22 C 0.2161(3) 0.2952(8) 0.4349(2)
H21 H 0.2480 0.2331 0.4613
loop_
_geom_bond_atom_site_label_1
_geom_bond_atom_site_label_2
_geom_bond_site_symmetry_1
_geom_bond_site_symmetry_2
N1 C1 1_555 1_555
C1 H1 1_555 1_555
H2 C1 1_555 1_555
C2 C1 1_555 1_555
H3 C2 1_555 1_555
H4 C2 1_555 1_555
C3 N1 1_555 1_555
H5 C3 1_555 1_555
H6 C3 1_555 1_555
C4 N1 1_555 1_555
C5 C4 1_555 1_555
C6 C5 1_555 1_555
H7 C6 1_555 1_555
C7 C6 1_555 1_555
H8 C7 1_555 1_555
C8 C7 1_555 1_555
H9 C8 1_555 1_555
C9 C8 1_555 1_555
H10 C9 1_555 1_555
C10 C5 1_555 1_555
H11 C10 1_555 1_555
C11 C4 1_555 1_555
C12 C11 1_555 1_555
H12 C12 1_555 1_555
C13 C12 1_555 1_555
H13 C13 1_555 1_555
C14 C13 1_555 1_555
H14 C14 1_555 1_555
C15 C14 1_555 1_555
H15 C15 1_555 1_555
C16 C11 1_555 1_555
H16 C16 1_555 1_555
C17 C4 1_555 1_555
C18 C17 1_555 1_555
H17 C18 1_555 1_555
C19 C18 1_555 1_555
H18 C19 1_555 1_555
C20 C19 1_555 1_555
H19 C20 1_555 1_555
C21 C20 1_555 1_555
H20 C21 1_555 1_555
C22 C17 1_555 1_555
H21 C22 1_555 1_555
C2 C3 1_555 1_555
C9 C10 1_555 1_555
C15 C16 1_555 1_555
C21 C22 1_555 1_555

#END
