
#######################################################################
#
#                 Cambridge Crystallographic Data Centre
#                                CCDC 
#
#######################################################################
#
# If this CIF has been generated from an entry in the Cambridge 
# Structural Database, then it will include bibliographic, chemical, 
# crystal, experimental, refinement or atomic coordinate data resulting 
# from the CCDC's data processing and validation procedures.
#
#######################################################################

data_YEBJAS
_chemical_formula_moiety         'C48 H58 N2 S14'
_chemical_name_systematic        
11,24-bis(4,5-bis(propylsulfanyl)-1,3-dithiol-2-ylidene)-2,2,7,7,15,15,20,20-octamethyl-10,12,23,25,27,29-hexathia-28,30-diazaheptacyclo-[19.5.1.1^3,6^.1^8,14^.1^16,19^.0^9,13^.0^22,26^]triaconta-1(26),3,5,8,13,16,18,21-octaene
_symmetry_cell_setting           monoclinic
_symmetry_space_group_name_H-M   'P 21/c'
_symmetry_Int_Tables_number      14
_space_group_name_Hall           '-P 2ybc'
loop_
_symmetry_equiv_pos_site_id
_symmetry_equiv_pos_as_xyz
1 x,y,z
2 -x,1/2+y,1/2-z
3 -x,-y,-z
4 x,1/2-y,1/2+z
_cell_length_a                   18.8923(5)
_cell_length_b                   14.1621(4)
_cell_length_c                   20.1768(6)
_cell_angle_alpha                90
_cell_angle_beta                 96.518(2)
_cell_angle_gamma                90
_cell_volume                     5363.5
_exptl_crystal_colour            yellow
_exptl_crystal_description       prisms
_cell_formula_units_Z            4
loop_
_atom_site_label
_atom_site_type_symbol
_atom_site_fract_x
_atom_site_fract_y
_atom_site_fract_z
S1 S 0.81361(4) 0.85170(5) 0.39767(4)
S2 S 0.71680(3) 0.72916(4) 0.62332(3)
S3 S 0.70469(4) 0.59012(5) 0.36232(5)
S4 S 0.85875(4) 0.55645(5) 0.41171(5)
S5 S 0.67337(4) 0.37089(5) 0.36687(4)
S6 S 0.82351(4) 0.33092(5) 0.41607(4)
S7 S 0.63226(4) 0.16781(5) 0.35449(3)
S8 S 0.80354(4) 0.12049(5) 0.40822(4)
S9 S 0.65194(3) 0.47104(5) 0.52525(4)
S10 S 0.80464(3) 0.46015(5) 0.57970(4)
S11 S 0.64012(3) 0.24457(5) 0.52596(3)
S12 S 0.79050(4) 0.22753(5) 0.58048(4)
S13 S 0.60866(4) 0.03879(5) 0.53961(4)
S14 S 0.77918(5) 0.01854(6) 0.60655(6)
N1 N 0.62508(11) 0.76239(14) 0.45910(10)
H1 H 0.6587 0.7932 0.4841
N2 N 0.90027(12) 0.72665(16) 0.55545(13)
H2 H 0.8671 0.7705 0.5499
C1 C 0.86956(14) 0.75524(19) 0.41320(14)
C2 C 0.83224(14) 0.67434(18) 0.39917(14)
C3 C 0.75881(13) 0.68978(18) 0.37582(13)
C4 C 0.73961(14) 0.78255(17) 0.37251(13)
C5 C 0.66511(14) 0.82244(18) 0.35298(13)
C6 C 0.61436(13) 0.76609(17) 0.39034(12)
C7 C 0.55699(13) 0.71012(18) 0.37098(13)
H3 H 0.5369 0.6993 0.3263
C8 C 0.53245(13) 0.67073(18) 0.42888(14)
H4 H 0.4932 0.6291 0.4299
C9 C 0.57581(12) 0.70380(17) 0.48306(13)
C10 C 0.57883(13) 0.68804(17) 0.55739(13)
C11 C 0.65428(13) 0.65423(17) 0.58150(12)
C12 C 0.68624(13) 0.56984(17) 0.57043(12)
C13 C 0.75981(13) 0.56563(17) 0.59641(13)
C14 C 0.78461(13) 0.64633(18) 0.62767(13)
C15 C 0.85943(15) 0.6687(2) 0.66171(14)
C16 C 0.90971(14) 0.6661(2) 0.60904(15)
C17 C 0.96713(15) 0.6107(2) 0.59937(17)
H5 H 0.9871 0.5626 0.6286
C18 C 0.99141(15) 0.6375(2) 0.53870(18)
H6 H 1.0304 0.6101 0.5198
C19 C 0.94942(14) 0.7095(2) 0.51161(16)
C20 C 0.94625(15) 0.7638(2) 0.44670(17)
C21 C 0.66192(16) 0.92692(18) 0.37193(15)
H7 H 0.6744 0.9339 0.4202
H8 H 0.6136 0.9510 0.3594
H9 H 0.6957 0.9628 0.3484
C22 C 0.64518(17) 0.8117(2) 0.27773(14)
H10 H 0.6771 0.8505 0.2540
H11 H 0.5959 0.8325 0.2658
H12 H 0.6497 0.7453 0.2651
C23 C 0.56237(15) 0.78107(19) 0.59188(14)
H13 H 0.5968 0.8294 0.5820
H14 H 0.5657 0.7711 0.6402
H15 H 0.5141 0.8020 0.5754
C24 C 0.52386(14) 0.6139(2) 0.57311(15)
H16 H 0.4758 0.6373 0.5587
H17 H 0.5287 0.6019 0.6213
H18 H 0.5320 0.5551 0.5495
C25 C 0.86061(17) 0.7661(2) 0.69554(17)
H19 H 0.9079 0.7776 0.7194
H20 H 0.8249 0.7677 0.7272
H21 H 0.8497 0.8151 0.6616
C26 C 0.88005(17) 0.5942(2) 0.71581(16)
H22 H 0.8803 0.5315 0.6952
H23 H 0.8454 0.5951 0.7484
H24 H 0.9276 0.6084 0.7383
C27 C 0.96685(18) 0.8682(2) 0.4606(2)
H25 H 0.9350 0.8958 0.4904
H26 H 0.9625 0.9033 0.4184
H27 H 1.0161 0.8716 0.4817
C28 C 0.99760(17) 0.7209(3) 0.4013(2)
H28 H 1.0462 0.7219 0.4243
H29 H 0.9959 0.7577 0.3601
H30 H 0.9836 0.6555 0.3906
C29 C 0.77335(14) 0.50910(19) 0.38706(16)
C30 C 0.75936(13) 0.41640(18) 0.38865(15)
C31 C 0.69960(14) 0.25200(17) 0.37053(13)
C32 C 0.76788(14) 0.23364(18) 0.39328(14)
C33 C 0.59738(17) 0.1973(2) 0.26945(15)
H31 H 0.5546 0.1583 0.2564
H32 H 0.5823 0.2643 0.2680
C34 C 0.6496(2) 0.1825(2) 0.21912(16)
H33 H 0.6269 0.2019 0.1746
H34 H 0.6915 0.2238 0.2308
C35 C 0.6747(4) 0.0818(3) 0.2154(2)
H35 H 0.6966 0.0617 0.2595
H36 H 0.7097 0.0774 0.1833
H37 H 0.6339 0.0410 0.2010
C36 C 0.88432(19) 0.1304(3) 0.3662(3)
H38 H 0.9145 0.1820 0.3869
H39 H 0.9118 0.0709 0.3723
C37 C 0.8662(2) 0.1506(3) 0.2904(2)
H40 H 0.8381 0.0972 0.2694
H41 H 0.8364 0.2081 0.2845
C38 C 0.9312(3) 0.1639(4) 0.2561(3)
H42 H 0.9519 0.2260 0.2675
H43 H 0.9185 0.1598 0.2077
H44 H 0.9660 0.1146 0.2705
C39 C 0.72496(13) 0.39831(18) 0.55403(14)
C40 C 0.71957(13) 0.30396(19) 0.55444(13)
C41 C 0.66922(15) 0.13220(18) 0.55398(14)
C42 C 0.73764(16) 0.1243(2) 0.57960(16)
C43 C 0.53881(17) 0.0743(2) 0.58963(16)
H45 H 0.5210 0.1371 0.5740
H46 H 0.4988 0.0291 0.5811
C44 C 0.55967(19) 0.0795(3) 0.66324(17)
H47 H 0.6032 0.1185 0.6718
H48 H 0.5213 0.1117 0.6841
C45 C 0.5731(2) -0.0129(3) 0.6952(2)
H49 H 0.5804 -0.0048 0.7438
H50 H 0.6157 -0.0412 0.6800
H51 H 0.5321 -0.0544 0.6833
C46 C 0.7853(2) 0.0339(4) 0.6991(2)
H52 H 0.7415 0.0659 0.7101
H53 H 0.7867 -0.0293 0.7201
C47 C 0.8451(4) 0.0863(4) 0.7278(3)
H54 H 0.8403 0.0970 0.7755
H55 H 0.8447 0.1488 0.7058
C48 C 0.9142(3) 0.0406(7) 0.7223(4)
H56 H 0.9170 -0.0186 0.7475
H57 H 0.9528 0.0827 0.7404
H58 H 0.9188 0.0274 0.6753
loop_
_geom_bond_atom_site_label_1
_geom_bond_atom_site_label_2
_geom_bond_site_symmetry_1
_geom_bond_site_symmetry_2
S1 C1 1_555 1_555
S2 C11 1_555 1_555
S3 C3 1_555 1_555
S4 C2 1_555 1_555
S5 C30 1_555 1_555
S6 C30 1_555 1_555
S7 C31 1_555 1_555
S8 C32 1_555 1_555
S9 C12 1_555 1_555
S10 C13 1_555 1_555
S11 C40 1_555 1_555
S12 C40 1_555 1_555
S13 C41 1_555 1_555
S14 C42 1_555 1_555
N1 H1 1_555 1_555
N2 H2 1_555 1_555
C1 C2 1_555 1_555
C2 C3 1_555 1_555
C3 C4 1_555 1_555
C4 S1 1_555 1_555
C5 C4 1_555 1_555
C6 N1 1_555 1_555
C7 C6 1_555 1_555
H3 C7 1_555 1_555
C8 C7 1_555 1_555
H4 C8 1_555 1_555
C9 N1 1_555 1_555
C10 C9 1_555 1_555
C11 C10 1_555 1_555
C12 C11 1_555 1_555
C13 C12 1_555 1_555
C14 S2 1_555 1_555
C15 C14 1_555 1_555
C16 N2 1_555 1_555
C17 C16 1_555 1_555
H5 C17 1_555 1_555
C18 C17 1_555 1_555
H6 C18 1_555 1_555
C19 N2 1_555 1_555
C20 C1 1_555 1_555
C21 C5 1_555 1_555
H7 C21 1_555 1_555
H8 C21 1_555 1_555
H9 C21 1_555 1_555
C22 C5 1_555 1_555
H10 C22 1_555 1_555
H11 C22 1_555 1_555
H12 C22 1_555 1_555
C23 C10 1_555 1_555
H13 C23 1_555 1_555
H14 C23 1_555 1_555
H15 C23 1_555 1_555
C24 C10 1_555 1_555
H16 C24 1_555 1_555
H17 C24 1_555 1_555
H18 C24 1_555 1_555
C25 C15 1_555 1_555
H19 C25 1_555 1_555
H20 C25 1_555 1_555
H21 C25 1_555 1_555
C26 C15 1_555 1_555
H22 C26 1_555 1_555
H23 C26 1_555 1_555
H24 C26 1_555 1_555
C27 C20 1_555 1_555
H25 C27 1_555 1_555
H26 C27 1_555 1_555
H27 C27 1_555 1_555
C28 C20 1_555 1_555
H28 C28 1_555 1_555
H29 C28 1_555 1_555
H30 C28 1_555 1_555
C29 S3 1_555 1_555
C30 C29 1_555 1_555
C31 S5 1_555 1_555
C32 S6 1_555 1_555
C33 S7 1_555 1_555
H31 C33 1_555 1_555
H32 C33 1_555 1_555
C34 C33 1_555 1_555
H33 C34 1_555 1_555
H34 C34 1_555 1_555
C35 C34 1_555 1_555
H35 C35 1_555 1_555
H36 C35 1_555 1_555
H37 C35 1_555 1_555
C36 S8 1_555 1_555
H38 C36 1_555 1_555
H39 C36 1_555 1_555
C37 C36 1_555 1_555
H40 C37 1_555 1_555
H41 C37 1_555 1_555
C38 C37 1_555 1_555
H42 C38 1_555 1_555
H43 C38 1_555 1_555
H44 C38 1_555 1_555
C39 S9 1_555 1_555
C40 C39 1_555 1_555
C41 S11 1_555 1_555
C42 S12 1_555 1_555
C43 S13 1_555 1_555
H45 C43 1_555 1_555
H46 C43 1_555 1_555
C44 C43 1_555 1_555
H47 C44 1_555 1_555
H48 C44 1_555 1_555
C45 C44 1_555 1_555
H49 C45 1_555 1_555
H50 C45 1_555 1_555
H51 C45 1_555 1_555
C46 S14 1_555 1_555
H52 C46 1_555 1_555
H53 C46 1_555 1_555
C47 C46 1_555 1_555
H54 C47 1_555 1_555
H55 C47 1_555 1_555
C48 C47 1_555 1_555
H56 C48 1_555 1_555
H57 C48 1_555 1_555
H58 C48 1_555 1_555
S4 C29 1_555 1_555
S10 C39 1_555 1_555
C5 C6 1_555 1_555
C8 C9 1_555 1_555
C13 C14 1_555 1_555
C15 C16 1_555 1_555
C18 C19 1_555 1_555
C19 C20 1_555 1_555
C31 C32 1_555 1_555
C41 C42 1_555 1_555

#END
