
#######################################################################
#
#                 Cambridge Crystallographic Data Centre
#                                CCDC 
#
#######################################################################
#
# If this CIF has been generated from an entry in the Cambridge 
# Structural Database, then it will include bibliographic, chemical, 
# crystal, experimental, refinement or atomic coordinate data resulting 
# from the CCDC's data processing and validation procedures.
#
#######################################################################

data_YEBMIB
_chemical_formula_moiety         'C18 H20 O1'
_chemical_name_systematic        o-t-Pentylbenzophenone
_symmetry_cell_setting           orthorhombic
_symmetry_space_group_name_H-M   'P b c a'
_symmetry_Int_Tables_number      61
_space_group_name_Hall           '-P 2ac 2ab'
loop_
_symmetry_equiv_pos_site_id
_symmetry_equiv_pos_as_xyz
1 x,y,z
2 1/2-x,1/2+y,z
3 x,1/2-y,1/2+z
4 1/2-x,-y,1/2+z
5 -x,-y,-z
6 1/2+x,1/2-y,-z
7 -x,1/2+y,1/2-z
8 1/2+x,y,1/2-z
_cell_length_a                   12.92(2)
_cell_length_b                   13.96(2)
_cell_length_c                   16.20(2)
_cell_angle_alpha                90
_cell_angle_beta                 90
_cell_angle_gamma                90
_cell_volume                     2921.88
_exptl_crystal_colour            white
_chemical_melting_point          66.5-67.0deg.C
_cell_formula_units_Z            8
loop_
_atom_site_label
_atom_site_type_symbol
_atom_site_fract_x
_atom_site_fract_y
_atom_site_fract_z
O1 O 0.317(1) 0.9515(6) 1.0681(7)
C1 C 0.209(2) 0.9850(7) 1.2367(9)
C2 C 0.151(2) 0.9953(8) 1.320(1)
C3 C 0.055(2) 0.9633(7) 1.3317(9)
C4 C 0.013(2) 0.9136(8) 1.259(1)
C5 C 0.069(2) 0.9015(7) 1.1757(9)
C6 C 0.162(2) 0.9370(7) 1.1629(8)
C7 C 0.227(2) 0.9223(8) 1.0765(8)
C8 C 0.178(2) 0.8744(7) 0.9939(8)
C9 C 0.112(2) 0.9204(8) 0.9434(9)
C10 C 0.062(2) 0.8899(8) 0.860(1)
C11 C 0.094(2) 0.8113(8) 0.8300(9)
C12 C 0.166(1) 0.7660(8) 0.8799(9)
C13 C 0.214(2) 0.7954(7) 0.9639(8)
C14 C 0.290(2) 0.7421(8) 1.0155(9)
C15 C 0.280(2) 0.7434(9) 1.1251(9)
C16 C 0.282(2) 0.6512(9) 0.984(1)
C17 C 0.399(2) 0.777(1) 0.993(1)
C18 C 0.427(2) 0.792(1) 0.894(1)
H1 H 0.275 1.009 1.229
H2 H 0.180 1.027 1.371
H3 H 0.018 0.973 1.389
H4 H -0.054 0.890 1.268
H5 H 0.041 0.867 1.127
H6 H 0.096 0.974 0.966
H7 H 0.011 0.920 0.827
H8 H 0.066 0.789 0.773
H9 H 0.185 0.713 0.857
H10 H 0.330 0.708 1.152
H11 H 0.291 0.798 1.148
H12 H 0.213 0.725 1.142
H13 H 0.331 0.619 1.017
H14 H 0.214 0.633 1.000
H15 H 0.292 0.646 0.917
H16 H 0.449 0.740 1.019
H17 H 0.403 0.828 1.026
H18 H 0.495 0.815 0.891
H19 H 0.425 0.741 0.859
H20 H 0.379 0.830 0.866
loop_
_geom_bond_atom_site_label_1
_geom_bond_atom_site_label_2
_geom_bond_site_symmetry_1
_geom_bond_site_symmetry_2
O1 C7 1_555 1_555
C1 C2 1_555 1_555
C2 C3 1_555 1_555
C3 C4 1_555 1_555
C4 C5 1_555 1_555
C5 C6 1_555 1_555
C6 C1 1_555 1_555
C7 C6 1_555 1_555
C8 C7 1_555 1_555
C9 C8 1_555 1_555
C10 C9 1_555 1_555
C11 C10 1_555 1_555
C12 C11 1_555 1_555
C13 C8 1_555 1_555
C14 C13 1_555 1_555
C15 C14 1_555 1_555
C16 C14 1_555 1_555
C17 C14 1_555 1_555
C18 C17 1_555 1_555
H1 C1 1_555 1_555
H2 C2 1_555 1_555
H3 C3 1_555 1_555
H4 C4 1_555 1_555
H5 C5 1_555 1_555
H6 C9 1_555 1_555
H7 C10 1_555 1_555
H8 C11 1_555 1_555
H9 C12 1_555 1_555
H10 C15 1_555 1_555
H11 C15 1_555 1_555
H12 C15 1_555 1_555
H13 C16 1_555 1_555
H14 C16 1_555 1_555
H15 C16 1_555 1_555
H16 C17 1_555 1_555
H17 C17 1_555 1_555
H18 C18 1_555 1_555
H19 C18 1_555 1_555
H20 C18 1_555 1_555
C12 C13 1_555 1_555

#END
