
#######################################################################
#
#                 Cambridge Crystallographic Data Centre
#                                CCDC 
#
#######################################################################
#
# If this CIF has been generated from an entry in the Cambridge 
# Structural Database, then it will include bibliographic, chemical, 
# crystal, experimental, refinement or atomic coordinate data resulting 
# from the CCDC's data processing and validation procedures.
#
#######################################################################

data_YEBQIH
_chemical_formula_moiety         'C14 H14 O4'
_chemical_name_systematic        
3-(3-Furyl)-3a,7-dimethyl-3,3a,4,5-tetrahydro-2-benzofuran-1,6-dione
_symmetry_cell_setting           orthorhombic
_symmetry_space_group_name_H-M   'P 21 21 21'
_symmetry_Int_Tables_number      19
_space_group_name_Hall           'P 2ac 2ab'
loop_
_symmetry_equiv_pos_site_id
_symmetry_equiv_pos_as_xyz
1 x,y,z
2 1/2-x,-y,1/2+z
3 -x,1/2+y,1/2-z
4 1/2+x,1/2-y,-z
_cell_length_a                   7.574(3)
_cell_length_b                   7.877(3)
_cell_length_c                   20.411(8)
_cell_angle_alpha                90
_cell_angle_beta                 90
_cell_angle_gamma                90
_cell_volume                     1217.73
_exptl_crystal_colour            colorless
_exptl_crystal_description       block
_cell_formula_units_Z            4
loop_
_atom_site_label
_atom_site_type_symbol
_atom_site_fract_x
_atom_site_fract_y
_atom_site_fract_z
C1 C 0.7324(8) 0.4595(6) 0.3161(3)
H1 H 0.7043 0.5460 0.2869
C2 C 0.7893(9) 0.4774(8) 0.3777(3)
H2 H 0.8058 0.5814 0.3984
C3 C 0.7771(9) 0.2088(7) 0.3594(3)
H3 H 0.7846 0.0920 0.3654
C4 C 0.7233(7) 0.2824(6) 0.3043(2)
C5 C 0.6585(8) 0.1948(6) 0.2439(2)
H4 H 0.5300 0.2082 0.2415
C6 C 0.7341(8) -0.0628(7) 0.1920(2)
C7 C 0.7288(7) 0.0768(6) 0.1421(2)
C8 C 0.7387(8) 0.2450(5) 0.1765(2)
C9 C 0.6288(9) 0.3733(7) 0.1394(3)
H5 H 0.5048 0.3481 0.1463
H6 H 0.6515 0.4855 0.1571
C10 C 0.6649(12) 0.3751(7) 0.0688(3)
H7 H 0.7771 0.4315 0.0616
H8 H 0.5745 0.4425 0.0474
C11 C 0.6712(10) 0.2036(8) 0.0364(3)
C12 C 0.6983(9) 0.0522(6) 0.0783(2)
C13 C 0.6856(12) -0.1193(7) 0.0451(3)
H9 H 0.7671 -0.1236 0.0091
H10 H 0.5677 -0.1360 0.0291
H11 H 0.7141 -0.2069 0.0760
C14 C 0.9305(7) 0.3036(7) 0.1835(3)
H12 H 0.9331 0.4151 0.2024
H13 H 0.9854 0.3063 0.1411
H14 H 0.9932 0.2261 0.2114
O1 O 0.8201(7) 0.3249(5) 0.40621(17)
O2 O 0.6989(5) 0.0134(4) 0.25121(16)
O3 O 0.7584(6) -0.2107(4) 0.18822(17)
O4 O 0.6547(9) 0.1903(6) -0.02246(19)
loop_
_geom_bond_atom_site_label_1
_geom_bond_atom_site_label_2
_geom_bond_site_symmetry_1
_geom_bond_site_symmetry_2
C1 H1 1_555 1_555
C2 C1 1_555 1_555
H2 C2 1_555 1_555
C3 H3 1_555 1_555
C4 C1 1_555 1_555
C5 C4 1_555 1_555
H4 C5 1_555 1_555
C6 C7 1_555 1_555
C7 C8 1_555 1_555
C8 C5 1_555 1_555
C9 C8 1_555 1_555
H5 C9 1_555 1_555
H6 C9 1_555 1_555
C10 C9 1_555 1_555
H7 C10 1_555 1_555
H8 C10 1_555 1_555
C11 C10 1_555 1_555
C12 C7 1_555 1_555
C13 C12 1_555 1_555
H9 C13 1_555 1_555
H10 C13 1_555 1_555
H11 C13 1_555 1_555
C14 C8 1_555 1_555
H12 C14 1_555 1_555
H13 C14 1_555 1_555
H14 C14 1_555 1_555
O1 C2 1_555 1_555
O2 C5 1_555 1_555
O3 C6 1_555 1_555
O4 C11 1_555 1_555
C3 C4 1_555 1_555
C3 O1 1_555 1_555
C6 O2 1_555 1_555
C11 C12 1_555 1_555

#END
