
#######################################################################
#
#                 Cambridge Crystallographic Data Centre
#                                CCDC 
#
#######################################################################
#
# If this CIF has been generated from an entry in the Cambridge 
# Structural Database, then it will include bibliographic, chemical, 
# crystal, experimental, refinement or atomic coordinate data resulting 
# from the CCDC's data processing and validation procedures.
#
#######################################################################

data_YEBRAA
_chemical_formula_moiety         'C20 H16 F4 N2 O3'
_chemical_name_systematic        
3-(3-Furyl)-3a,7-dimethyl-6-((2,3,5,6-tetrafluorophenyl)hydrazono)-3a,4,5,6-tetrahydro-2-benzofuran-1(3H)-one
_symmetry_cell_setting           monoclinic
_symmetry_space_group_name_H-M   'P 21'
_symmetry_Int_Tables_number      4
_space_group_name_Hall           'P 2yb'
loop_
_symmetry_equiv_pos_site_id
_symmetry_equiv_pos_as_xyz
1 x,y,z
2 -x,1/2+y,-z
_cell_length_a                   10.248(11)
_cell_length_b                   16.924(19)
_cell_length_c                   10.510(12)
_cell_angle_alpha                90
_cell_angle_beta                 90.00
_cell_angle_gamma                90
_cell_volume                     1822.82
_exptl_crystal_colour            colorless
_exptl_crystal_description       block
_cell_formula_units_Z            4
loop_
_atom_site_label
_atom_site_type_symbol
_atom_site_fract_x
_atom_site_fract_y
_atom_site_fract_z
C1 C 0.3110(4) 0.2973(3) 0.5534(4)
C2 C 0.3754(4) 0.2358(3) 0.6315(4)
C3 C 0.3561(4) 0.1579(3) 0.6256(4)
C4 C 0.4285(4) 0.1078(3) 0.7156(4)
C5 C 0.4987(4) 0.1445(2) 0.8259(4)
H1 H 0.5920 0.1421 0.8105
H2 H 0.4804 0.1142 0.9021
C6 C 0.4596(4) 0.2304(2) 0.8482(4)
H3 H 0.3723 0.2323 0.8838
H4 H 0.5190 0.2543 0.9088
C7 C 0.4630(4) 0.2764(2) 0.7242(4)
C8 C 0.3959(4) 0.3578(2) 0.7329(4)
H5 H 0.3277 0.3557 0.7982
C9 C 0.4822(4) 0.4280(2) 0.7581(4)
C10 C 0.5448(5) 0.4466(3) 0.8750(4)
H6 H 0.5404 0.4178 0.9501
C11 C 0.6106(5) 0.5131(3) 0.8564(5)
H7 H 0.6607 0.5385 0.9179
C12 C 0.5166(5) 0.4855(3) 0.6787(5)
H8 H 0.4901 0.4887 0.5943
C13 C 0.2638(4) 0.1198(3) 0.5328(4)
H9 H 0.1793 0.1439 0.5401
H10 H 0.2571 0.0644 0.5512
H11 H 0.2961 0.1268 0.4478
C14 C 0.6025(4) 0.2833(3) 0.6740(4)
H12 H 0.6337 0.2320 0.6499
H13 H 0.6577 0.3047 0.7393
H14 H 0.6036 0.3177 0.6013
C15 C 0.4851(4) -0.0970(3) 0.7521(4)
C16 C 0.3863(4) -0.1354(3) 0.6860(4)
C17 C 0.3864(5) -0.2173(3) 0.6789(4)
C18 C 0.4760(6) -0.2641(3) 0.7358(5)
H15 H 0.4722 -0.3189 0.7307
C19 C 0.5731(5) -0.2258(3) 0.8017(5)
C20 C 0.5782(4) -0.1460(3) 0.8098(4)
F1 F 0.2909(3) -0.09619(16) 0.6284(2)
F2 F 0.2857(3) -0.25083(16) 0.6142(3)
F3 F 0.6689(3) -0.26881(18) 0.8581(3)
F4 F 0.6767(3) -0.11140(17) 0.8754(3)
N1 N 0.4268(3) 0.0329(2) 0.6918(3)
N2 N 0.4950(3) -0.0161(2) 0.7706(3)
H31 H 0.5430 0.0028 0.8305
O1 O 0.2470(3) 0.2924(2) 0.4587(3)
O2 O 0.3349(3) 0.36888(18) 0.6087(3)
O3 O 0.5951(3) 0.53890(18) 0.7364(3)
C21 C 0.8094(4) 0.0509(3) 0.0403(4)
C22 C 0.8728(4) 0.1114(2) 0.1196(4)
C23 C 0.8736(4) 0.1903(2) 0.1033(4)
C24 C 0.9528(4) 0.2383(3) 0.1905(4)
C25 C 1.0362(4) 0.1997(3) 0.2887(4)
H16 H 0.9911 0.2006 0.3698
H17 H 1.1165 0.2295 0.2981
C26 C 1.0694(4) 0.1142(2) 0.2545(4)
H18 H 1.1291 0.1136 0.1828
H19 H 1.1128 0.0892 0.3260
C27 C 0.9472(4) 0.0676(2) 0.2206(4)
C28 C 0.9765(4) -0.0087(2) 0.1497(4)
H20 H 1.0543 -0.0001 0.0972
C29 C 0.9962(4) -0.0824(3) 0.2245(4)
C30 C 1.0776(5) -0.0923(3) 0.3339(5)
H21 H 1.1296 -0.0540 0.3720
C31 C 1.0641(6) -0.1670(3) 0.3704(6)
H22 H 1.1051 -0.1892 0.4408
C32 C 0.9425(4) -0.1529(3) 0.2031(6)
H23 H 0.8852 -0.1642 0.1369
C33 C 0.7974(4) 0.2328(3) 0.0019(4)
H24 H 0.7614 0.1951 -0.0565
H25 H 0.8542 0.2682 -0.0432
H26 H 0.7281 0.2624 0.0406
C34 C 0.8586(4) 0.0530(2) 0.3346(4)
H27 H 0.8294 0.1027 0.3682
H28 H 0.9061 0.0249 0.3991
H29 H 0.7846 0.0223 0.3085
C35 C 0.9992(4) 0.4429(3) 0.2420(4)
C36 C 0.9032(5) 0.4825(3) 0.1735(4)
C37 C 0.9047(5) 0.5625(3) 0.1643(5)
C38 C 0.9967(6) 0.6087(3) 0.2219(5)
H30 H 0.9958 0.6634 0.2142
C39 C 1.0900(5) 0.5708(3) 0.2912(5)
C40 C 1.0913(5) 0.4895(3) 0.3000(4)
F5 F 0.8065(3) 0.44415(16) 0.1122(2)
F6 F 0.8101(3) 0.59820(17) 0.0943(3)
F7 F 1.1848(3) 0.61147(18) 0.3499(3)
F8 F 1.1875(3) 0.45416(17) 0.3675(3)
N3 N 0.9389(3) 0.3136(2) 0.1772(3)
N4 N 1.0078(3) 0.3616(2) 0.2565(3)
H32 H 1.0562 0.3417 0.3151
O4 O 0.7208(3) 0.0557(2) -0.0372(3)
O5 O 0.8646(3) -0.02034(17) 0.0643(3)
O6 O 0.9835(4) -0.2064(2) 0.2923(4)
loop_
_geom_bond_atom_site_label_1
_geom_bond_atom_site_label_2
_geom_bond_site_symmetry_1
_geom_bond_site_symmetry_2
C1 C2 1_555 1_555
C2 C3 1_555 1_555
C3 C4 1_555 1_555
C4 C5 1_555 1_555
C5 H1 1_555 1_555
H2 C5 1_555 1_555
C6 C5 1_555 1_555
H3 C6 1_555 1_555
H4 C6 1_555 1_555
C7 C2 1_555 1_555
C8 C7 1_555 1_555
H5 C8 1_555 1_555
C9 C8 1_555 1_555
C10 C9 1_555 1_555
H6 C10 1_555 1_555
C11 C10 1_555 1_555
H7 C11 1_555 1_555
C12 C9 1_555 1_555
H8 C12 1_555 1_555
C13 C3 1_555 1_555
H9 C13 1_555 1_555
H10 C13 1_555 1_555
H11 C13 1_555 1_555
C14 C7 1_555 1_555
H12 C14 1_555 1_555
H13 C14 1_555 1_555
H14 C14 1_555 1_555
C15 C16 1_555 1_555
C16 C17 1_555 1_555
C17 C18 1_555 1_555
C18 H15 1_555 1_555
C19 C18 1_555 1_555
C20 C15 1_555 1_555
C21 C22 1_555 1_555
C22 C23 1_555 1_555
C23 C24 1_555 1_555
C24 C25 1_555 1_555
C25 H16 1_555 1_555
H17 C25 1_555 1_555
C26 C25 1_555 1_555
H18 C26 1_555 1_555
H19 C26 1_555 1_555
C27 C22 1_555 1_555
C28 C27 1_555 1_555
H20 C28 1_555 1_555
C29 C28 1_555 1_555
C30 C29 1_555 1_555
H21 C30 1_555 1_555
C31 C30 1_555 1_555
H22 C31 1_555 1_555
C32 C29 1_555 1_555
H23 C32 1_555 1_555
C33 C23 1_555 1_555
H24 C33 1_555 1_555
H25 C33 1_555 1_555
H26 C33 1_555 1_555
C34 C27 1_555 1_555
H27 C34 1_555 1_555
H28 C34 1_555 1_555
H29 C34 1_555 1_555
C35 C36 1_555 1_555
C36 C37 1_555 1_555
C37 C38 1_555 1_555
C38 H30 1_555 1_555
C39 C38 1_555 1_555
C40 C35 1_555 1_555
F1 C16 1_555 1_555
F2 C17 1_555 1_555
F3 C19 1_555 1_555
F4 C20 1_555 1_555
F5 C36 1_555 1_555
F6 C37 1_555 1_555
F7 C39 1_555 1_555
F8 C40 1_555 1_555
N1 C4 1_555 1_555
N2 C15 1_555 1_555
H31 N2 1_555 1_555
N3 C24 1_555 1_555
N4 C35 1_555 1_555
H32 N4 1_555 1_555
O1 C1 1_555 1_555
O2 C1 1_555 1_555
O3 C11 1_555 1_555
O4 C21 1_555 1_555
O5 C21 1_555 1_555
O6 C31 1_555 1_555
C6 C7 1_555 1_555
C8 O2 1_555 1_555
C12 O3 1_555 1_555
C19 C20 1_555 1_555
C26 C27 1_555 1_555
C28 O5 1_555 1_555
C32 O6 1_555 1_555
C39 C40 1_555 1_555
N1 N2 1_555 1_555
N3 N4 1_555 1_555

#END
