
#######################################################################
#
#                 Cambridge Crystallographic Data Centre
#                                CCDC 
#
#######################################################################
#
# If this CIF has been generated from an entry in the Cambridge 
# Structural Database, then it will include bibliographic, chemical, 
# crystal, experimental, refinement or atomic coordinate data resulting 
# from the CCDC's data processing and validation procedures.
#
#######################################################################

data_YEBRUU
_chemical_formula_moiety         'C22 H24 N2 O3'
_chemical_name_systematic        
1-(8-Methoxy-3-(4-methoxyphenyl)-3a-methyl-3,3a,4,5-tetrahydro-2H-benzo[g]indazol-2-yl)ethanone
_symmetry_cell_setting           triclinic
_symmetry_space_group_name_H-M   'P -1'
_symmetry_Int_Tables_number      2
_space_group_name_Hall           '-P 1'
loop_
_symmetry_equiv_pos_site_id
_symmetry_equiv_pos_as_xyz
1 x,y,z
2 -x,-y,-z
_cell_length_a                   8.7412(16)
_cell_length_b                   11.069(2)
_cell_length_c                   12.030(2)
_cell_angle_alpha                116.358(3)
_cell_angle_beta                 90.306(4)
_cell_angle_gamma                111.929(3)
_cell_volume                     946.776
_exptl_crystal_colour            colorless
_exptl_crystal_description       chunk
_cell_formula_units_Z            2
loop_
_atom_site_label
_atom_site_type_symbol
_atom_site_fract_x
_atom_site_fract_y
_atom_site_fract_z
O1 O 0.42330(18) 0.42265(15) 0.27197(15)
O2 O 0.77466(16) 1.32462(13) 0.42722(12)
O3 O 0.66933(18) 0.01585(14) -0.08816(13)
N1 N 0.57616(17) 0.61443(15) 0.23936(14)
N2 N 0.60976(17) 0.76369(15) 0.27941(13)
C1 C 0.7357(2) 0.59683(18) 0.24637(15)
H1 H 0.769(2) 0.618(2) 0.3341(18)
C2 C 0.8579(2) 0.73112(17) 0.23316(15)
C3 C 1.0330(2) 0.8105(2) 0.31743(19)
H2 H 1.022(3) 0.825(2) 0.401(2)
H3 H 1.096(2) 0.750(2) 0.2833(18)
C4 C 1.1315(2) 0.9623(2) 0.3259(2)
H4 H 1.232(3) 1.021(3) 0.396(2)
H5 H 1.176(3) 0.946(3) 0.246(2)
C5 C 1.0299(2) 1.05246(19) 0.34562(16)
C6 C 1.1120(2) 1.2052(2) 0.38643(18)
H6 H 1.234(3) 1.252(3) 0.399(2)
C7 C 1.0249(2) 1.29228(19) 0.41189(17)
H7 H 1.080(3) 1.396(2) 0.443(2)
C8 C 0.8494(2) 1.22847(18) 0.39643(16)
C9 C 0.7640(2) 1.07736(18) 0.35262(16)
H8 H 0.645(3) 1.036(2) 0.3456(18)
C10 C 0.8540(2) 0.98971(18) 0.32635(15)
C11 C 0.7665(2) 0.82989(17) 0.28129(15)
C12 C 0.8677(3) 0.6936(2) 0.09474(18)
H9 H 0.753(3) 0.642(2) 0.043(2)
H10 H 0.929(3) 0.629(3) 0.059(2)
H11 H 0.932(3) 0.784(3) 0.091(2)
C13 C 0.4314(2) 0.52869(19) 0.26068(16)
C14 C 0.2852(2) 0.5690(2) 0.2625(2)
H12 H 0.299(5) 0.650(4) 0.342(4)
H13 H 0.282(4) 0.607(4) 0.209(3)
H14 H 0.181(5) 0.486(4) 0.240(3)
C15 C 0.5954(3) 1.2618(2) 0.3924(2)
H15 H 0.552(3) 1.191(3) 0.300(2)
H16 H 0.564(3) 1.340(3) 0.412(2)
H17 H 0.541(3) 1.215(3) 0.442(2)
C16 C 0.7225(2) 0.44510(18) 0.15420(15)
C17 C 0.6215(2) 0.3594(2) 0.03306(17)
H18 H 0.553(3) 0.392(3) 0.001(2)
C18 C 0.6098(2) 0.2188(2) -0.04593(18)
H19 H 0.540(3) 0.160(2) -0.128(2)
C19 C 0.6977(2) 0.15919(18) -0.00511(16)
C20 C 0.8036(2) 0.24429(19) 0.11300(17)
H20 H 0.867(3) 0.207(2) 0.144(2)
C21 C 0.8140(2) 0.38616(18) 0.19165(16)
H21 H 0.886(3) 0.443(2) 0.2721(19)
C22 C 0.7573(3) -0.0499(2) -0.0510(2)
H22 H 0.715(4) -0.148(4) -0.118(3)
H23 H 0.882(3) 0.002(3) -0.045(2)
H24 H 0.734(3) -0.044(3) 0.031(2)
loop_
_geom_bond_atom_site_label_1
_geom_bond_atom_site_label_2
_geom_bond_site_symmetry_1
_geom_bond_site_symmetry_2
O1 C13 1_555 1_555
O2 C8 1_555 1_555
O3 C19 1_555 1_555
N1 N2 1_555 1_555
N2 C11 1_555 1_555
C1 N1 1_555 1_555
H1 C1 1_555 1_555
C2 C1 1_555 1_555
C3 C2 1_555 1_555
H2 C3 1_555 1_555
H3 C3 1_555 1_555
C4 C3 1_555 1_555
H4 C4 1_555 1_555
H5 C4 1_555 1_555
C5 C4 1_555 1_555
C6 C5 1_555 1_555
H6 C6 1_555 1_555
C7 C6 1_555 1_555
H7 C7 1_555 1_555
C8 C7 1_555 1_555
C9 C8 1_555 1_555
H8 C9 1_555 1_555
C10 C5 1_555 1_555
C11 C2 1_555 1_555
C12 C2 1_555 1_555
H9 C12 1_555 1_555
H10 C12 1_555 1_555
H11 C12 1_555 1_555
C13 N1 1_555 1_555
C14 C13 1_555 1_555
H12 C14 1_555 1_555
H13 C14 1_555 1_555
H14 C14 1_555 1_555
C15 O2 1_555 1_555
H15 C15 1_555 1_555
H16 C15 1_555 1_555
H17 C15 1_555 1_555
C16 C1 1_555 1_555
C17 C16 1_555 1_555
H18 C17 1_555 1_555
C18 C17 1_555 1_555
H19 C18 1_555 1_555
C19 C18 1_555 1_555
C20 C19 1_555 1_555
H20 C20 1_555 1_555
C21 C16 1_555 1_555
H21 C21 1_555 1_555
C22 O3 1_555 1_555
H22 C22 1_555 1_555
H23 C22 1_555 1_555
H24 C22 1_555 1_555
C9 C10 1_555 1_555
C10 C11 1_555 1_555
C20 C21 1_555 1_555

#END
