
#######################################################################
#
#                 Cambridge Crystallographic Data Centre
#                                CCDC 
#
#######################################################################
#
# If this CIF has been generated from an entry in the Cambridge 
# Structural Database, then it will include bibliographic, chemical, 
# crystal, experimental, refinement or atomic coordinate data resulting 
# from the CCDC's data processing and validation procedures.
#
#######################################################################

data_YEBSOP
_chemical_formula_moiety         'C27 H42 N2 O4'
_chemical_name_systematic        'Ethyl 15-oxo-16-(prolylamino)beyeran-18-oate'
_symmetry_cell_setting           orthorhombic
_symmetry_space_group_name_H-M   'P 21 21 21'
_symmetry_Int_Tables_number      19
_space_group_name_Hall           'P 2ac 2ab'
loop_
_symmetry_equiv_pos_site_id
_symmetry_equiv_pos_as_xyz
1 x,y,z
2 1/2-x,-y,1/2+z
3 -x,1/2+y,1/2-z
4 1/2+x,1/2-y,-z
_cell_length_a                   8.6741(17)
_cell_length_b                   9.6589(19)
_cell_length_c                   30.899(6)
_cell_angle_alpha                90
_cell_angle_beta                 90
_cell_angle_gamma                90
_cell_volume                     2588.79
_exptl_crystal_colour            colorless
_exptl_crystal_description       prismatic
_cell_formula_units_Z            4
loop_
_atom_site_label
_atom_site_type_symbol
_atom_site_fract_x
_atom_site_fract_y
_atom_site_fract_z
O1 O 0.7337(3) 0.1961(3) 0.42566(7)
O2 O 0.4532(5) -0.1414(4) 0.47365(11)
O3 O 0.9494(5) 0.7450(3) 0.34873(11)
O4 O 1.0565(4) 0.5572(3) 0.37691(8)
C1 C 0.6147(5) 0.4935(4) 0.29339(11)
H1 H 0.6121 0.4420 0.2664
H2 H 0.5089 0.5087 0.3024
C2 C 0.6904(5) 0.6325(4) 0.28531(12)
H3 H 0.6361 0.6802 0.2623
H4 H 0.6831 0.6888 0.3112
C3 C 0.8583(5) 0.6155(4) 0.27290(12)
H5 H 0.9038 0.7065 0.2694
H6 H 0.8638 0.5688 0.2452
C4 C 0.9544(4) 0.5335(4) 0.30598(11)
C5 C 0.8699(4) 0.3930(3) 0.31510(9)
H7 H 0.8676 0.3467 0.2869
C6 C 0.9554(4) 0.2903(4) 0.34474(11)
H8 H 1.0640 0.2895 0.3373
H9 H 0.9457 0.3201 0.3746
C7 C 0.8900(4) 0.1459(3) 0.33997(10)
H10 H 0.9432 0.0847 0.3599
H11 H 0.9104 0.1132 0.3108
C8 C 0.7176(4) 0.1369(3) 0.34854(9)
C9 C 0.6254(4) 0.2572(3) 0.32679(9)
H12 H 0.6208 0.2329 0.2960
C10 C 0.6973(4) 0.4051(3) 0.32808(9)
C11 C 0.4566(4) 0.2503(4) 0.34267(12)
H13 H 0.4524 0.2823 0.3724
H14 H 0.3946 0.3128 0.3253
C12 C 0.3862(5) 0.1048(4) 0.34025(12)
H15 H 0.2914 0.1039 0.3569
H16 H 0.3600 0.0850 0.3104
C13 C 0.4911(4) -0.0101(4) 0.35699(11)
C14 C 0.6460(4) -0.0002(4) 0.33286(10)
H17 H 0.6300 0.0013 0.3018
H18 H 0.7119 -0.0779 0.3401
C15 C 0.6760(4) 0.1299(3) 0.39683(9)
C16 C 0.5511(4) 0.0207(4) 0.40305(9)
H19 H 0.6029 -0.0635 0.4132
C17 C 0.4130(6) -0.1498(5) 0.35345(15)
H20 H 0.3180 -0.1483 0.3693
H21 H 0.4794 -0.2200 0.3652
H22 H 0.3922 -0.1699 0.3236
C18 C 1.1147(5) 0.5077(5) 0.28629(13)
H23 H 1.1644 0.5948 0.2809
H24 H 1.1039 0.4579 0.2596
H25 H 1.1758 0.4544 0.3061
C19 C 0.9829(5) 0.6249(4) 0.34609(12)
C20 C 0.6771(5) 0.4751(4) 0.37252(10)
H26 H 0.7240 0.5651 0.3720
H27 H 0.7255 0.4196 0.3944
H28 H 0.5693 0.4842 0.3789
C21 C 0.2784(5) 0.0335(4) 0.49920(10)
H29 H 0.3236 0.0445 0.5281
C22 C 0.1366(7) -0.0618(5) 0.50189(15)
H30 H 0.1638 -0.1569 0.4954
H31 H 0.0896 -0.0578 0.5304
C23 C 0.0311(8) -0.0033(8) 0.4680(2)
H32 H 0.0530 -0.0430 0.4399
H33 H -0.0760 -0.0210 0.4753
C24 C 0.0647(6) 0.1486(6) 0.4684(2)
H34 H 0.0548 0.1866 0.4395
H35 H -0.0071 0.1963 0.4873
C25 C 0.3984(4) -0.0275(4) 0.46832(11)
C26 C 1.0956(6) 0.6311(4) 0.41603(13)
H36 H 1.0044 0.6441 0.4337
H37 H 1.1376 0.7214 0.4090
C27 C 1.2118(9) 0.5476(7) 0.4398(2)
H38 H 1.2399 0.5946 0.4660
H39 H 1.3016 0.5356 0.4221
H40 H 1.1690 0.4587 0.4467
N1 N 0.4375(4) 0.0562(3) 0.43543(9)
N2 N 0.2209(4) 0.1657(4) 0.48404(10)
H41 H 0.392(5) 0.133(4) 0.4373(11)
H42 H 0.221(8) 0.217(7) 0.5074(19)
loop_
_geom_bond_atom_site_label_1
_geom_bond_atom_site_label_2
_geom_bond_site_symmetry_1
_geom_bond_site_symmetry_2
O1 C15 1_555 1_555
O2 C25 1_555 1_555
O3 C19 1_555 1_555
O4 C19 1_555 1_555
C1 H1 1_555 1_555
H2 C1 1_555 1_555
C2 C1 1_555 1_555
H3 C2 1_555 1_555
H4 C2 1_555 1_555
C3 C2 1_555 1_555
H5 C3 1_555 1_555
H6 C3 1_555 1_555
C4 C3 1_555 1_555
C5 C4 1_555 1_555
H7 C5 1_555 1_555
C6 C5 1_555 1_555
H8 C6 1_555 1_555
H9 C6 1_555 1_555
C7 C6 1_555 1_555
H10 C7 1_555 1_555
H11 C7 1_555 1_555
C8 C7 1_555 1_555
C9 C8 1_555 1_555
H12 C9 1_555 1_555
C10 C1 1_555 1_555
C11 C9 1_555 1_555
H13 C11 1_555 1_555
H14 C11 1_555 1_555
C12 C11 1_555 1_555
H15 C12 1_555 1_555
H16 C12 1_555 1_555
C13 C12 1_555 1_555
C14 C8 1_555 1_555
H17 C14 1_555 1_555
H18 C14 1_555 1_555
C15 C8 1_555 1_555
C16 C13 1_555 1_555
H19 C16 1_555 1_555
C17 C13 1_555 1_555
H20 C17 1_555 1_555
H21 C17 1_555 1_555
H22 C17 1_555 1_555
C18 C4 1_555 1_555
H23 C18 1_555 1_555
H24 C18 1_555 1_555
H25 C18 1_555 1_555
C19 C4 1_555 1_555
C20 C10 1_555 1_555
H26 C20 1_555 1_555
H27 C20 1_555 1_555
H28 C20 1_555 1_555
C21 H29 1_555 1_555
C22 C21 1_555 1_555
H30 C22 1_555 1_555
H31 C22 1_555 1_555
C23 C22 1_555 1_555
H32 C23 1_555 1_555
H33 C23 1_555 1_555
C24 C23 1_555 1_555
H34 C24 1_555 1_555
H35 C24 1_555 1_555
C25 C21 1_555 1_555
C26 O4 1_555 1_555
H36 C26 1_555 1_555
H37 C26 1_555 1_555
C27 C26 1_555 1_555
H38 C27 1_555 1_555
H39 C27 1_555 1_555
H40 C27 1_555 1_555
N1 C16 1_555 1_555
N2 C21 1_555 1_555
H41 N1 1_555 1_555
H42 N2 1_555 1_555
C5 C10 1_555 1_555
C9 C10 1_555 1_555
C13 C14 1_555 1_555
C15 C16 1_555 1_555
C24 N2 1_555 1_555
C25 N1 1_555 1_555

#END
