
#######################################################################
#
#                 Cambridge Crystallographic Data Centre
#                                CCDC 
#
#######################################################################
#
# If this CIF has been generated from an entry in the Cambridge 
# Structural Database, then it will include bibliographic, chemical, 
# crystal, experimental, refinement or atomic coordinate data resulting 
# from the CCDC's data processing and validation procedures.
#
#######################################################################

data_YEBTAC
_chemical_formula_moiety         'C22 H36 O4'
_chemical_name_systematic        'Ethyl 15,16-dihydroxybeyeran-18-oate'
_symmetry_cell_setting           orthorhombic
_symmetry_space_group_name_H-M   'P 21 21 21'
_symmetry_Int_Tables_number      19
_space_group_name_Hall           'P 2ac 2ab'
loop_
_symmetry_equiv_pos_site_id
_symmetry_equiv_pos_as_xyz
1 x,y,z
2 1/2-x,-y,1/2+z
3 -x,1/2+y,1/2-z
4 1/2+x,1/2-y,-z
_cell_length_a                   7.5482(15)
_cell_length_b                   15.307(3)
_cell_length_c                   17.243(3)
_cell_angle_alpha                90
_cell_angle_beta                 90
_cell_angle_gamma                90
_cell_volume                     1992.26
_exptl_crystal_colour            colorless
_exptl_crystal_description       prismatic
_cell_formula_units_Z            4
loop_
_atom_site_label
_atom_site_type_symbol
_atom_site_fract_x
_atom_site_fract_y
_atom_site_fract_z
O1 O 0.4611(6) 0.3560(2) 0.2564(2)
O2 O 0.3369(6) 0.2200(3) 0.3311(2)
H1 H 0.3879 0.1915 0.3647
O3 O 0.2105(6) 0.6751(2) 0.0290(4)
O4 O 0.4527(6) 0.6078(2) 0.0720(2)
C1 C -0.0405(6) 0.4348(3) 0.0917(3)
H2 H -0.0794 0.3894 0.0563
H3 H -0.1108 0.4299 0.1386
C2 C -0.0761(7) 0.5236(3) 0.0547(3)
H4 H -0.2005 0.5282 0.0412
H5 H -0.0484 0.5696 0.0914
C3 C 0.0366(8) 0.5347(3) -0.0181(3)
H6 H 0.0015 0.4912 -0.0559
H7 H 0.0134 0.5918 -0.0403
C4 C 0.2347(7) 0.5261(3) -0.0028(3)
C5 C 0.2710(6) 0.4373(3) 0.0388(2)
H8 H 0.2297 0.3936 0.0013
C6 C 0.4648(6) 0.4121(3) 0.0527(3)
H9 H 0.5366 0.4300 0.0088
H10 H 0.5090 0.4415 0.0986
C7 C 0.4769(7) 0.3132(3) 0.0635(3)
H11 H 0.6001 0.2974 0.0713
H12 H 0.4369 0.2849 0.0163
C8 C 0.3673(6) 0.2784(3) 0.1319(2)
C9 C 0.1782(6) 0.3193(3) 0.1314(2)
H13 H 0.1188 0.2899 0.0882
C10 C 0.1565(6) 0.4189(3) 0.1123(2)
C11 C 0.0754(7) 0.2878(3) 0.2032(3)
H14 H -0.0476 0.3054 0.1985
H15 H 0.1239 0.3156 0.2491
C12 C 0.0845(7) 0.1879(3) 0.2131(3)
H16 H 0.0065 0.1608 0.1755
H17 H 0.0414 0.1727 0.2644
C13 C 0.2730(7) 0.1501(3) 0.2030(3)
C14 C 0.3433(7) 0.1788(3) 0.1245(3)
H18 H 0.2595 0.1648 0.0837
H19 H 0.4553 0.1505 0.1132
C15 C 0.4691(7) 0.2789(3) 0.2108(3)
H20 H 0.5944 0.2694 0.1984
C16 C 0.4056(7) 0.1964(3) 0.2559(3)
H21 H 0.5076 0.1578 0.2634
C17 C 0.2708(9) 0.0508(3) 0.2153(4)
H22 H 0.3885 0.0281 0.2092
H23 H 0.1937 0.0242 0.1779
H24 H 0.2287 0.0381 0.2666
C18 C 0.3336(10) 0.5269(4) -0.0833(3)
H25 H 0.3127 0.5816 -0.1089
H26 H 0.2897 0.4801 -0.1151
H27 H 0.4584 0.5193 -0.0751
C19 C 0.3113(7) 0.6053(3) 0.0384(3)
C20 C 0.2046(7) 0.4801(3) 0.1812(3)
H28 H 0.1890 0.5399 0.1657
H29 H 0.3258 0.4707 0.1959
H30 H 0.1287 0.4675 0.2244
C21 C 0.2776(11) 0.7584(4) 0.0521(7)
H31 H 0.2745 0.7986 0.0087
H32 H 0.3994 0.7528 0.0694
C22 C 0.1660(13) 0.7918(6) 0.1160(5)
H33 H 0.2090 0.8480 0.1321
H34 H 0.1708 0.7520 0.1589
H35 H 0.0458 0.7972 0.0984
H36 H 0.374(13) 0.337(6) 0.302(6)
loop_
_geom_bond_atom_site_label_1
_geom_bond_atom_site_label_2
_geom_bond_site_symmetry_1
_geom_bond_site_symmetry_2
O1 C15 1_555 1_555
O2 H1 1_555 1_555
O3 C19 1_555 1_555
O4 C19 1_555 1_555
C1 H2 1_555 1_555
H3 C1 1_555 1_555
C2 C1 1_555 1_555
H4 C2 1_555 1_555
H5 C2 1_555 1_555
C3 C2 1_555 1_555
H6 C3 1_555 1_555
H7 C3 1_555 1_555
C4 C3 1_555 1_555
C5 C4 1_555 1_555
H8 C5 1_555 1_555
C6 C5 1_555 1_555
H9 C6 1_555 1_555
H10 C6 1_555 1_555
C7 C6 1_555 1_555
H11 C7 1_555 1_555
H12 C7 1_555 1_555
C8 C7 1_555 1_555
C9 C8 1_555 1_555
H13 C9 1_555 1_555
C10 C1 1_555 1_555
C11 C9 1_555 1_555
H14 C11 1_555 1_555
H15 C11 1_555 1_555
C12 C11 1_555 1_555
H16 C12 1_555 1_555
H17 C12 1_555 1_555
C13 C12 1_555 1_555
C14 C8 1_555 1_555
H18 C14 1_555 1_555
H19 C14 1_555 1_555
C15 C8 1_555 1_555
H20 C15 1_555 1_555
C16 O2 1_555 1_555
H21 C16 1_555 1_555
C17 C13 1_555 1_555
H22 C17 1_555 1_555
H23 C17 1_555 1_555
H24 C17 1_555 1_555
C18 C4 1_555 1_555
H25 C18 1_555 1_555
H26 C18 1_555 1_555
H27 C18 1_555 1_555
C19 C4 1_555 1_555
C20 C10 1_555 1_555
H28 C20 1_555 1_555
H29 C20 1_555 1_555
H30 C20 1_555 1_555
C21 O3 1_555 1_555
H31 C21 1_555 1_555
H32 C21 1_555 1_555
C22 C21 1_555 1_555
H33 C22 1_555 1_555
H34 C22 1_555 1_555
H35 C22 1_555 1_555
H36 O1 1_555 1_555
C5 C10 1_555 1_555
C9 C10 1_555 1_555
C13 C14 1_555 1_555
C13 C16 1_555 1_555
C15 C16 1_555 1_555

#END
