
#######################################################################
#
#                 Cambridge Crystallographic Data Centre
#                                CCDC 
#
#######################################################################
#
# If this CIF has been generated from an entry in the Cambridge 
# Structural Database, then it will include bibliographic, chemical, 
# crystal, experimental, refinement or atomic coordinate data resulting 
# from the CCDC's data processing and validation procedures.
#
#######################################################################

data_YEBTEG
_chemical_formula_moiety         'C27 H43 N1 O3'
_chemical_name_systematic        
'Ethyl 15-formyl-16-(pyrrolidin-1-yl)beyeran-18-oate'
_symmetry_cell_setting           orthorhombic
_symmetry_space_group_name_H-M   'P 21 21 21'
_symmetry_Int_Tables_number      19
_space_group_name_Hall           'P 2ac 2ab'
loop_
_symmetry_equiv_pos_site_id
_symmetry_equiv_pos_as_xyz
1 x,y,z
2 1/2-x,-y,1/2+z
3 1/2+x,1/2-y,-z
4 -x,1/2+y,1/2-z
_cell_length_a                   9.2549(2)
_cell_length_b                   14.8330(3)
_cell_length_c                   18.3055(4)
_cell_angle_alpha                90
_cell_angle_beta                 90
_cell_angle_gamma                90
_cell_volume                     2512.94
_exptl_crystal_colour            colorless
_exptl_crystal_description       block
_chemical_melting_point          '395 K'
_cell_formula_units_Z            4
loop_
_atom_site_label
_atom_site_type_symbol
_atom_site_fract_x
_atom_site_fract_y
_atom_site_fract_z
O1 O 1.2478(3) 1.0019(2) -0.07616(10)
O2 O 1.3221(3) 1.08588(15) 0.01547(11)
O3 O 1.0886(2) 1.23117(13) 0.19569(17)
N1 N 0.68729(18) 1.14075(11) 0.24478(10)
C1 C 0.9964(3) 0.85588(17) 0.06120(14)
H1 H 1.0123 0.8049 0.0934
H2 H 0.8941 0.8580 0.0497
C2 C 1.0818(4) 0.8412(2) -0.00970(16)
H3 H 1.0559 0.7833 -0.0305
H4 H 1.0560 0.8876 -0.0447
C3 C 1.2431(4) 0.8439(2) 0.00358(17)
H5 H 1.2926 0.8374 -0.0428
H6 H 1.2698 0.7929 0.0339
C4 C 1.2952(3) 0.93082(16) 0.04067(13)
C5 C 1.2062(2) 0.94419(13) 0.11212(10)
H7 H 1.2256 0.8895 0.1405
C6 C 1.2545(2) 1.02081(14) 0.16238(11)
H8 H 1.3590 1.0207 0.1665
H9 H 1.2251 1.0782 0.1418
C7 C 1.1877(2) 1.00921(14) 0.23737(10)
H10 H 1.2199 1.0581 0.2686
H11 H 1.2223 0.9532 0.2585
C8 C 1.02190(19) 1.00786(12) 0.23664(9)
C9 C 0.9673(2) 0.93964(12) 0.17910(11)
H12 H 0.9928 0.8802 0.1986
C10 C 1.0391(2) 0.94389(13) 0.10202(11)
C11 C 0.8007(2) 0.94107(15) 0.17712(13)
H13 H 0.7693 0.9946 0.1512
H14 H 0.7670 0.8890 0.1500
C12 C 0.7311(2) 0.94030(15) 0.25270(15)
H15 H 0.7348 0.8794 0.2719
H16 H 0.6302 0.9569 0.2478
C13 C 0.8028(2) 1.00394(16) 0.30759(12)
C14 C 0.9630(2) 0.97966(16) 0.31088(11)
H17 H 1.0110 1.0122 0.3499
H18 H 0.9759 0.9155 0.3186
C15 C 0.9466(2) 1.10212(12) 0.22619(10)
H19 H 0.9110 1.1066 0.1759
C16 C 0.8147(2) 1.10220(13) 0.27932(10)
H20 H 0.8397 1.1405 0.3211
C17 C 0.7324(4) 0.9941(2) 0.38328(16)
H21 H 0.6294 0.9997 0.3787
H22 H 0.7682 1.0403 0.4152
H23 H 0.7555 0.9360 0.4032
C18 C 1.4570(3) 0.9207(2) 0.05890(17)
H24 H 1.4686 0.8771 0.0973
H25 H 1.4949 0.9777 0.0746
H26 H 1.5082 0.9008 0.0162
C19 C 1.2840(3) 1.0079(2) -0.01353(13)
C20 C 0.9885(2) 1.02549(16) 0.05654(11)
H27 H 1.0205 1.0186 0.0070
H28 H 1.0286 1.0798 0.0767
H29 H 0.8849 1.0289 0.0576
C21 C 1.3158(13) 1.1647(5) -0.0318(7)
H30 H 1.4020 1.1676 -0.0618
H31 H 1.2327 1.1604 -0.0639
C22 C 1.3050(13) 1.2446(4) 0.0119(4)
H32 H 1.3122 1.2968 -0.0189
H33 H 1.3818 1.2453 0.0472
H34 H 1.2136 1.2451 0.0368
C23 C 1.0456(2) 1.17974(14) 0.24088(17)
H35 H 1.0759 1.1886 0.2888
C24 C 0.7122(3) 1.23303(17) 0.21947(18)
H36 H 0.7669 1.2332 0.1743
H37 H 0.7646 1.2675 0.2559
C25 C 0.5629(3) 1.2717(2) 0.2077(3)
H38 H 0.5605 1.3351 0.2206
H39 H 0.5336 1.2651 0.1571
C26 C 0.4659(3) 1.21819(19) 0.2569(2)
H40 H 0.3914 1.1879 0.2289
H41 H 0.4201 1.2571 0.2927
C27 C 0.5629(3) 1.15045(18) 0.29397(16)
H42 H 0.5934 1.1722 0.3415
H43 H 0.5135 1.0933 0.3001
C28? C 1.283(7) 1.166(3) -0.027(4)
C29? C 1.411(6) 1.220(2) 0.002(2)
H44? H 1.1899 1.1916 -0.0133
H45? H 1.2864 1.1564 -0.0796
H46? H 1.4042 1.2815 -0.0150
H47? H 1.4994 1.1941 -0.0158
H48? H 1.4104 1.2194 0.0542
loop_
_geom_bond_atom_site_label_1
_geom_bond_atom_site_label_2
_geom_bond_site_symmetry_1
_geom_bond_site_symmetry_2
O1 C19 1_555 1_555
O2 C19 1_555 1_555
O3 C23 1_555 1_555
N1 C16 1_555 1_555
C1 H1 1_555 1_555
H2 C1 1_555 1_555
C2 C1 1_555 1_555
H3 C2 1_555 1_555
H4 C2 1_555 1_555
C3 C2 1_555 1_555
H5 C3 1_555 1_555
H6 C3 1_555 1_555
C4 C3 1_555 1_555
C5 C4 1_555 1_555
H7 C5 1_555 1_555
C6 C5 1_555 1_555
H8 C6 1_555 1_555
H9 C6 1_555 1_555
C7 C6 1_555 1_555
H10 C7 1_555 1_555
H11 C7 1_555 1_555
C8 C7 1_555 1_555
C9 C8 1_555 1_555
H12 C9 1_555 1_555
C10 C1 1_555 1_555
C11 C9 1_555 1_555
H13 C11 1_555 1_555
H14 C11 1_555 1_555
C12 C11 1_555 1_555
H15 C12 1_555 1_555
H16 C12 1_555 1_555
C13 C12 1_555 1_555
C14 C8 1_555 1_555
H17 C14 1_555 1_555
H18 C14 1_555 1_555
C15 C8 1_555 1_555
H19 C15 1_555 1_555
C16 C13 1_555 1_555
H20 C16 1_555 1_555
C17 C13 1_555 1_555
H21 C17 1_555 1_555
H22 C17 1_555 1_555
H23 C17 1_555 1_555
C18 C4 1_555 1_555
H24 C18 1_555 1_555
H25 C18 1_555 1_555
H26 C18 1_555 1_555
C19 C4 1_555 1_555
C20 C10 1_555 1_555
H27 C20 1_555 1_555
H28 C20 1_555 1_555
H29 C20 1_555 1_555
C21 O2 1_555 1_555
H30 C21 1_555 1_555
H31 C21 1_555 1_555
C22 C21 1_555 1_555
H32 C22 1_555 1_555
H33 C22 1_555 1_555
H34 C22 1_555 1_555
C23 C15 1_555 1_555
H35 C23 1_555 1_555
C24 N1 1_555 1_555
H36 C24 1_555 1_555
H37 C24 1_555 1_555
C25 C24 1_555 1_555
H38 C25 1_555 1_555
H39 C25 1_555 1_555
C26 C25 1_555 1_555
H40 C26 1_555 1_555
H41 C26 1_555 1_555
C27 N1 1_555 1_555
H42 C27 1_555 1_555
H43 C27 1_555 1_555
C5 C10 1_555 1_555
C9 C10 1_555 1_555
C13 C14 1_555 1_555
C15 C16 1_555 1_555
C26 C27 1_555 1_555

#END
