
#######################################################################
#
#                 Cambridge Crystallographic Data Centre
#                                CCDC 
#
#######################################################################
#
# If this CIF has been generated from an entry in the Cambridge 
# Structural Database, then it will include bibliographic, chemical, 
# crystal, experimental, refinement or atomic coordinate data resulting 
# from the CCDC's data processing and validation procedures.
#
#######################################################################

data_YEBWAF
_chemical_name_common            
'(E)-2-(2,6-Dinitro-4-(trifluoromethyl)phenoxy)benzaldehyde O-(2,4-dichlorobenzyl) oxime'
_chemical_formula_moiety         'C21 H12 Cl2 F3 N3 O6'
_chemical_name_systematic        
N-((2,4-Dichlorobenzyl)oxy)-1-(2-(2,6-dinitro-4-(trifluoromethyl)phenoxy)phenyl)methanimine
_chemical_properties_biological  'Antiproliferative activity'
_symmetry_cell_setting           monoclinic
_symmetry_space_group_name_H-M   'P 21/n'
_symmetry_Int_Tables_number      14
_space_group_name_Hall           '-P 2yn'
loop_
_symmetry_equiv_pos_site_id
_symmetry_equiv_pos_as_xyz
1 x,y,z
2 1/2-x,1/2+y,1/2-z
3 -x,-y,-z
4 1/2+x,1/2-y,1/2+z
_cell_length_a                   12.530(5)
_cell_length_b                   14.445(5)
_cell_length_c                   13.827(5)
_cell_angle_alpha                90
_cell_angle_beta                 114.087(3)
_cell_angle_gamma                90
_cell_volume                     2284.72
_chemical_melting_point          '142-143 deg.C'
_cell_formula_units_Z            4
loop_
_atom_site_label
_atom_site_type_symbol
_atom_site_fract_x
_atom_site_fract_y
_atom_site_fract_z
Cl1 Cl -0.31149(18) 0.11483(14) 0.9366(3)
O1 O 0.2755(3) 0.5365(2) 0.9492(3)
C1 C 0.1910(4) 0.4544(3) 1.0472(4)
N1 N 0.1983(4) 0.2928(3) 1.0340(4)
C2 C 0.1337(5) 0.4529(4) 1.1144(4)
H1 H 0.1117 0.3965 1.1333
C3 C 0.2223(4) 0.5400(3) 1.0219(4)
C4 C 0.4279(4) 0.6530(3) 0.9932(4)
O2 O 0.2230(4) 0.2204(2) 0.9786(4)
C5 C 0.3197(4) 0.6153(3) 0.9275(4)
C6 C 0.1987(5) 0.6198(4) 1.0602(5)
H2 H 0.2195 0.6765 1.0410
C7 C 0.2162(4) 0.3693(3) 1.0031(4)
H3 H 0.2459 0.3727 0.9516
C8 C 0.2607(5) 0.6607(4) 0.8319(4)
F1 F 0.3765(5) 0.9051(4) 0.7697(5)
F2 F 0.5204(4) 0.9064(3) 0.9152(4)
C9 C 0.4085(5) 0.7720(4) 0.8691(4)
C10 C 0.4723(4) 0.7300(4) 0.9656(4)
H4 H 0.5443 0.7538 1.0110
C11 C 0.3046(5) 0.7362(4) 0.8033(4)
H5 H 0.2629 0.7637 0.7378
C12 C 0.1940(6) 0.1336(4) 1.0151(6)
H6 H 0.2407 0.1272 1.0905
H7 H 0.2135 0.0826 0.9796
N2 N 0.1438(5) 0.6278(4) 0.7595(5)
C13 C 0.1095(6) 0.5326(4) 1.1529(5)
H8 H 0.0695 0.5307 1.1966
C14 C 0.4553(7) 0.8560(5) 0.8399(6)
C15 C -0.0196(6) 0.1145(4) 0.8957(6)
O3 O 0.1253(5) 0.6221(4) 0.6666(5)
C16 C 0.0669(5) 0.1281(3) 0.9942(5)
C17 C 0.0328(6) 0.1358(4) 1.0775(6)
H9 H 0.0893 0.1440 1.1460
N3 N 0.5010(6) 0.6085(4) 1.0934(5)
C18 C -0.1636(6) 0.1199(4) 0.9597(7)
C19 C 0.1434(6) 0.6159(4) 1.1280(5)
H10 H 0.1291 0.6702 1.1570
C20 C -0.1354(6) 0.1104(4) 0.8768(7)
H11 H -0.1925 0.1013 0.8087
O4 O 0.0752(5) 0.6084(5) 0.7956(5)
O5 O 0.5725(8) 0.6488(6) 1.1569(5)
F3 F 0.5291(7) 0.8308(5) 0.7955(6)
C21 C -0.0832(7) 0.1316(4) 1.0604(7)
H12 H -0.1059 0.1366 1.1164
O6 O 0.4886(6) 0.5256(5) 1.1015(5)
Cl2 Cl 0.0179(3) 0.0986(2) 0.7916(2)
loop_
_geom_bond_atom_site_label_1
_geom_bond_atom_site_label_2
_geom_bond_site_symmetry_1
_geom_bond_site_symmetry_2
Cl1 C18 1_555 1_555
O1 C3 1_555 1_555
C1 C2 1_555 1_555
N1 O2 1_555 1_555
C2 H1 1_555 1_555
C3 C1 1_555 1_555
C4 C5 1_555 1_555
O2 C12 1_555 1_555
C5 O1 1_555 1_555
C6 C3 1_555 1_555
H2 C6 1_555 1_555
C7 C1 1_555 1_555
H3 C7 1_555 1_555
C8 C5 1_555 1_555
F1 C14 1_555 1_555
F2 C14 1_555 1_555
C9 C10 1_555 1_555
C10 C4 1_555 1_555
H4 C10 1_555 1_555
C11 C8 1_555 1_555
H5 C11 1_555 1_555
C12 H6 1_555 1_555
H7 C12 1_555 1_555
N2 C8 1_555 1_555
C13 C2 1_555 1_555
H8 C13 1_555 1_555
C14 C9 1_555 1_555
C15 C16 1_555 1_555
O3 N2 1_555 1_555
C16 C12 1_555 1_555
C17 C16 1_555 1_555
H9 C17 1_555 1_555
N3 C4 1_555 1_555
C18 C20 1_555 1_555
C19 C6 1_555 1_555
H10 C19 1_555 1_555
C20 C15 1_555 1_555
H11 C20 1_555 1_555
O4 N2 1_555 1_555
O5 N3 1_555 1_555
F3 C14 1_555 1_555
C21 C17 1_555 1_555
H12 C21 1_555 1_555
O6 N3 1_555 1_555
Cl2 C15 1_555 1_555
N1 C7 1_555 1_555
C9 C11 1_555 1_555
C13 C19 1_555 1_555
C18 C21 1_555 1_555

#END
