
#######################################################################
#
#                 Cambridge Crystallographic Data Centre
#                                CCDC 
#
#######################################################################
#
# If this CIF has been generated from an entry in the Cambridge 
# Structural Database, then it will include bibliographic, chemical, 
# crystal, experimental, refinement or atomic coordinate data resulting 
# from the CCDC's data processing and validation procedures.
#
#######################################################################

data_YECBUD
_chemical_formula_moiety         'C17 H19 N1 O1 S1'
_chemical_name_systematic        
(S)-(4-(N,N-Dimethylamino)phenyl)-(4-(2-propenyl)phenyl)-sulfoxide
_symmetry_cell_setting           monoclinic
_symmetry_space_group_name_H-M   'P 21'
_symmetry_Int_Tables_number      4
_space_group_name_Hall           'P 2yb'
loop_
_symmetry_equiv_pos_site_id
_symmetry_equiv_pos_as_xyz
1 x,y,z
2 -x,1/2+y,-z
_cell_length_a                   7.6716(13)
_cell_length_b                   8.250(2)
_cell_length_c                   26.113(5)
_cell_angle_alpha                90
_cell_angle_beta                 114.716(13)
_cell_angle_gamma                90
_cell_volume                     1501.31
_cell_formula_units_Z            4
loop_
_atom_site_label
_atom_site_type_symbol
_atom_site_fract_x
_atom_site_fract_y
_atom_site_fract_z
S1 S 0.2494(5) 0.7990(4) 0.3908(1)
O1 O 0.2177(14) 0.9539(9) 0.3586(4)
C1 C 0.4901(14) 0.7950(15) 0.4418(4)
C2 C 0.6322(14) 0.8875(17) 0.4354(4)
C3 C 0.8161(15) 0.8890(16) 0.4777(4)
C4 C 0.8724(15) 0.7939(16) 0.5264(4)
C5 C 0.7269(14) 0.7028(16) 0.5311(4)
C6 C 0.5415(14) 0.6977(18) 0.4902(4)
C7 C 1.0595(16) 0.7915(19) 0.5670(5)
C8 C 0.2620(16) 0.6438(12) 0.3441(4)
C9 C 0.2420(17) 0.6864(15) 0.2915(4)
C10 C 0.2402(20) 0.5696(13) 0.2533(5)
C11 C 0.2647(18) 0.4060(13) 0.2700(4)
C12 C 0.2682(17) 0.3641(14) 0.3220(4)
C13 C 0.2677(19) 0.4838(13) 0.3589(5)
N1 N 0.2605(18) 0.2809(13) 0.2292(4)
C14 C 0.2470(19) 0.3303(21) 0.1741(4)
C15 C 0.2679(25) 0.1090(15) 0.2442(6)
C16 C 1.2065(16) 0.8802(19) 0.5564(5)
C17 C 1.1166(15) 0.7067(20) 0.6150(4)
H1 H 0.5934(14) 0.9598(17) 0.4038(4)
H2 H 0.9104(15) 0.9551(16) 0.4725(4)
H3 H 0.7583(14) 0.6401(16) 0.5648(4)
H4 H 0.4456(14) 0.6300(18) 0.4939(4)
H5 H 0.2369(17) 0.7984(15) 0.2811(4)
H6 H 0.2373(20) 0.5989(13) 0.2174(5)
H7 H 0.2733(17) 0.2516(14) 0.3320(4)
H8 H 0.2761(19) 0.4541(13) 0.3954(5)
H9 H 0.2506(19) 0.2407(21) 0.1511(4)
H10 H 0.1286(19) 0.3882(21) 0.1554(4)
H11 H 0.3527(19) 0.4017(21) 0.1802(4)
H12 H 0.2715(25) 0.0423(15) 0.2146(6)
H13 H 0.3746(25) 0.0826(15) 0.2790(6)
H14 H 0.1502(25) 0.0900(15) 0.2479(6)
H15 H 1.1522(16) 0.9326(19) 0.5203(5)
H16 H 1.2514(16) 0.9606(19) 0.5856(5)
H17 H 1.3120(16) 0.8130(19) 0.5589(5)
H18 H 1.2461(15) 0.7164(20) 0.6431(4)
H19 H 1.0269(15) 0.6389(20) 0.6219(4)
S2 S 0.7524(5) 0.2009(4) 0.1094(1)
O2 O 0.7744(14) 0.0437(9) 0.1392(4)
C18 C 0.7451(17) 0.3541(12) 0.1564(4)
C19 C 0.7514(17) 0.3141(15) 0.2089(4)
C20 C 0.7467(20) 0.4349(14) 0.2442(5)
C21 C 0.7451(18) 0.5980(13) 0.2330(4)
C22 C 0.7288(17) 0.6364(14) 0.1785(4)
C23 C 0.7303(19) 0.5191(13) 0.1417(5)
C24 C 0.7424(22) 0.7155(17) 0.2702(5)
C25 C 0.5071(14) 0.2076(15) 0.0574(4)
C26 C 0.3724(14) 0.1117(17) 0.0640(4)
C27 C 0.1852(15) 0.1147(17) 0.0243(4)
C28 C 0.1329(15) 0.2094(16) -0.0246(4)
C29 C 0.2756(14) 0.3040(17) -0.0317(4)
C30 C 0.4620(14) 0.2964(18) 0.0093(4)
N2 N -0.0638(13) 0.2102(15) -0.0673(4)
C31 C -0.2094(15) 0.1115(19) -0.0585(5)
C32 C -0.1145(15) 0.3035(20) -0.1191(4)
C33 C 0.7566(18) 0.6685(22) 0.3257(4)
C34 C 0.7343(23) 0.8695(16) 0.2590(7)
H20 H 0.7676(17) 0.2023(15) 0.2201(4)
H21 H 0.7598(20) 0.4048(14) 0.2812(5)
H22 H 0.7168(17) 0.7478(14) 0.1669(4)
H23 H 0.7254(19) 0.5465(13) 0.1054(5)
H24 H 0.4013(14) 0.0554(17) 0.0988(4)
H25 H 0.0890(15) 0.0479(17) 0.0282(4)
H26 H 0.2430(14) 0.3718(17) -0.0643(4)
H27 H 0.5601(14) 0.3553(18) 0.0035(4)
H28 H -0.3330(15) 0.1197(19) -0.0897(5)
H29 H -0.1747(15) -0.0007(19) -0.0509(5)
H30 H -0.2142(15) 0.1605(19) -0.0258(5)
H31 H -0.2483(15) 0.2917(20) -0.1434(4)
H32 H -0.0874(15) 0.4150(20) -0.1080(4)
H33 H -0.0391(15) 0.2701(20) -0.1387(4)
H34 H 0.7776(18) 0.5546(22) 0.3333(4)
H35 H 0.8603(18) 0.7284(22) 0.3535(4)
H36 H 0.6380(18) 0.6996(22) 0.3271(4)
H37 H 0.7223(23) 0.9445(16) 0.2854(7)
H38 H 0.7254(23) 0.9074(16) 0.2232(7)
loop_
_geom_bond_atom_site_label_1
_geom_bond_atom_site_label_2
_geom_bond_site_symmetry_1
_geom_bond_site_symmetry_2
S1 O1 1_555 1_555
C1 S1 1_555 1_555
C2 C1 1_555 1_555
C3 C2 1_555 1_555
C4 C3 1_555 1_555
C5 C4 1_555 1_555
C6 C1 1_555 1_555
C7 C4 1_555 1_555
C8 S1 1_555 1_555
C9 C8 1_555 1_555
C10 C9 1_555 1_555
C11 C10 1_555 1_555
C12 C11 1_555 1_555
C13 C8 1_555 1_555
N1 C11 1_555 1_555
C14 N1 1_555 1_555
C15 N1 1_555 1_555
C16 C7 1_555 1_555
C17 C7 1_555 1_555
S2 O2 1_555 1_555
C18 S2 1_555 1_555
C19 C18 1_555 1_555
C20 C19 1_555 1_555
C21 C20 1_555 1_555
C22 C21 1_555 1_555
C23 C18 1_555 1_555
C24 C21 1_555 1_555
C25 S2 1_555 1_555
C26 C25 1_555 1_555
C27 C26 1_555 1_555
C28 C27 1_555 1_555
C29 C28 1_555 1_555
C30 C25 1_555 1_555
N2 C28 1_555 1_555
C31 N2 1_555 1_555
C32 N2 1_555 1_555
C33 C24 1_555 1_555
C34 C24 1_555 1_555
H1 C2 1_555 1_555
H2 C3 1_555 1_555
H3 C5 1_555 1_555
H4 C6 1_555 1_555
H5 C9 1_555 1_555
H6 C10 1_555 1_555
H7 C12 1_555 1_555
H8 C13 1_555 1_555
H9 C14 1_555 1_555
H10 C14 1_555 1_555
H11 C14 1_555 1_555
H12 C15 1_555 1_555
H13 C15 1_555 1_555
H14 C15 1_555 1_555
H15 C16 1_555 1_555
H16 C16 1_555 1_555
H17 C16 1_555 1_555
H18 C17 1_555 1_555
H19 C17 1_555 1_555
H20 C19 1_555 1_555
H21 C20 1_555 1_555
H22 C22 1_555 1_555
H23 C23 1_555 1_555
H24 C26 1_555 1_555
H25 C27 1_555 1_555
H26 C29 1_555 1_555
H27 C30 1_555 1_555
H28 C31 1_555 1_555
H29 C31 1_555 1_555
H30 C31 1_555 1_555
H31 C32 1_555 1_555
H32 C32 1_555 1_555
H33 C32 1_555 1_555
H34 C33 1_555 1_555
H35 C33 1_555 1_555
H36 C33 1_555 1_555
H37 C34 1_555 1_555
H38 C34 1_555 1_555
C5 C6 1_555 1_555
C12 C13 1_555 1_555
C22 C23 1_555 1_555
C29 C30 1_555 1_555

#END
