
#######################################################################
#
#                 Cambridge Crystallographic Data Centre
#                                CCDC 
#
#######################################################################
#
# If this CIF has been generated from an entry in the Cambridge 
# Structural Database, then it will include bibliographic, chemical, 
# crystal, experimental, refinement or atomic coordinate data resulting 
# from the CCDC's data processing and validation procedures.
#
#######################################################################

data_YECCEO
_chemical_formula_moiety         'C15 H17 N1 O1 S1'
_chemical_name_systematic        
(S)-p-Tolyl-(4-(N,N-dimethylamino)phenyl)-sulfoxide
_symmetry_cell_setting           monoclinic
_symmetry_space_group_name_H-M   'P 21'
_symmetry_Int_Tables_number      4
_space_group_name_Hall           'P 2yb'
loop_
_symmetry_equiv_pos_site_id
_symmetry_equiv_pos_as_xyz
1 x,y,z
2 -x,1/2+y,-z
_cell_length_a                   7.7523(8)
_cell_length_b                   5.9869(7)
_cell_length_c                   14.813(2)
_cell_angle_alpha                90
_cell_angle_beta                 103.224(8)
_cell_angle_gamma                90
_cell_volume                     669.274
_cell_formula_units_Z            2
loop_
_atom_site_label
_atom_site_type_symbol
_atom_site_fract_x
_atom_site_fract_y
_atom_site_fract_z
S1 S 0.3051(1) 0.7654 0.2120(1)
O1 O 0.4657(2) 0.6302(5) 0.2087(1)
C1 C 0.1176(3) 0.5909(5) 0.1633(2)
C2 C 0.1430(3) 0.3814(5) 0.1295(2)
C3 C -0.0033(3) 0.2511(6) 0.0895(2)
C4 C -0.1752(3) 0.3282(5) 0.0849(1)
C5 C -0.1969(3) 0.5416(5) 0.1184(2)
C6 C -0.0528(3) 0.6732(5) 0.1572(2)
C7 C -0.3335(3) 0.1847(7) 0.0450(2)
C8 C 0.2838(3) 0.7682(6) 0.3291(1)
C9 C 0.3566(3) 0.5981(5) 0.3899(2)
C10 C 0.3400(3) 0.6039(5) 0.4811(2)
C11 C 0.2490(2) 0.7787(5) 0.5133(1)
C12 C 0.1789(3) 0.9509(5) 0.4512(2)
C13 C 0.1979(3) 0.9454(5) 0.3602(2)
N1 N 0.2280(3) 0.7803(6) 0.6035(1)
C14 C 0.3139(4) 0.6219(6) 0.6705(2)
C15 C 0.1403(4) 0.9651(7) 0.6367(2)
H1 H 0.2628(41) 0.3385(65) 0.1301(22)
H2 H 0.0177(41) 0.1132(76) 0.0622(23)
H3 H -0.3155(33) 0.5982(59) 0.1159(18)
H4 H -0.0648(38) 0.8073(64) 0.1837(20)
H5 H -0.2958(3) 0.0434(7) 0.0257(2)
H6 H -0.4009(3) 0.1610(7) 0.0911(2)
H7 H -0.4056(3) 0.2601(7) -0.0074(2)
H8 H 0.4231(37) 0.4825(61) 0.3663(20)
H9 H 0.3917(37) 0.4832(62) 0.5210(21)
H10 H 0.1130(40) 1.0745(76) 0.4706(23)
H11 H 0.1541(40) 1.0754(73) 0.3194(23)
H12 H 0.3672(4) 0.5078(6) 0.6403(2)
H13 H 0.4039(4) 0.6956(6) 0.7161(2)
H14 H 0.2287(4) 0.5555(6) 0.7002(2)
H15 H 0.0876(4) 1.0600(7) 0.5856(2)
H16 H 0.0498(4) 0.9090(7) 0.6654(2)
H17 H 0.2251(4) 1.0491(7) 0.6813(2)
loop_
_geom_bond_atom_site_label_1
_geom_bond_atom_site_label_2
_geom_bond_site_symmetry_1
_geom_bond_site_symmetry_2
S1 O1 1_555 1_555
C1 S1 1_555 1_555
C2 C1 1_555 1_555
C3 C2 1_555 1_555
C4 C3 1_555 1_555
C5 C4 1_555 1_555
C6 C1 1_555 1_555
C7 C4 1_555 1_555
C8 S1 1_555 1_555
C9 C8 1_555 1_555
C10 C9 1_555 1_555
C11 C10 1_555 1_555
C12 C11 1_555 1_555
C13 C8 1_555 1_555
N1 C11 1_555 1_555
C14 N1 1_555 1_555
C15 N1 1_555 1_555
H1 C2 1_555 1_555
H2 C3 1_555 1_555
H3 C5 1_555 1_555
H4 C6 1_555 1_555
H5 C7 1_555 1_555
H6 C7 1_555 1_555
H7 C7 1_555 1_555
H8 C9 1_555 1_555
H9 C10 1_555 1_555
H10 C12 1_555 1_555
H11 C13 1_555 1_555
H12 C14 1_555 1_555
H13 C14 1_555 1_555
H14 C14 1_555 1_555
H15 C15 1_555 1_555
H16 C15 1_555 1_555
H17 C15 1_555 1_555
C5 C6 1_555 1_555
C12 C13 1_555 1_555

#END
