
#######################################################################
#
#                 Cambridge Crystallographic Data Centre
#                                CCDC 
#
#######################################################################
#
# If this CIF has been generated from an entry in the Cambridge 
# Structural Database, then it will include bibliographic, chemical, 
# crystal, experimental, refinement or atomic coordinate data resulting 
# from the CCDC's data processing and validation procedures.
#
#######################################################################

data_YECHAR
_chemical_formula_moiety         'C22 H23 N1 O2 S1'
_chemical_name_systematic        
2-((4-Methylphenyl)sulfonyl)-8a-phenyl-1,2,6,7,8,8a-hexahydroisoquinoline
_symmetry_cell_setting           orthorhombic
_symmetry_space_group_name_H-M   'P c a b'
_symmetry_Int_Tables_number      61
_space_group_name_Hall           '-P 2bc 2ac'
loop_
_symmetry_equiv_pos_site_id
_symmetry_equiv_pos_as_xyz
1 x,y,z
2 -x,1/2-y,1/2+z
3 1/2+x,-y,1/2-z
4 1/2-x,1/2+y,-z
5 -x,-y,-z
6 x,1/2+y,1/2-z
7 1/2-x,y,1/2+z
8 1/2+x,1/2-y,z
_cell_length_a                   13.4556(11)
_cell_length_b                   13.6408(10)
_cell_length_c                   21.0602(12)
_cell_angle_alpha                90
_cell_angle_beta                 90
_cell_angle_gamma                90
_cell_volume                     3865.5
_exptl_crystal_colour            white
_cell_formula_units_Z            8
loop_
_atom_site_label
_atom_site_type_symbol
_atom_site_fract_x
_atom_site_fract_y
_atom_site_fract_z
C1 C 0.5050(2) -0.2754(2) 0.29028(15)
H1 H 0.4910 -0.3281 0.3191
H2 H 0.5705 -0.2505 0.2983
H3 H 0.5012 -0.2989 0.2474
C2 C 0.4302(2) -0.1948(2) 0.29967(13)
C3 C 0.3468(3) -0.2089(2) 0.33651(14)
H4 H 0.3373 -0.2688 0.3567
C4 C 0.2771(2) -0.1355(2) 0.34391(13)
H5 H 0.2220 -0.1459 0.3697
C5 C 0.4408(2) -0.1052(2) 0.26995(13)
H6 H 0.4965 -0.0940 0.2448
C6 C 0.3715(2) -0.0323(2) 0.27655(12)
H7 H 0.3805 0.0274 0.2560
C7 C 0.28864(18) -0.04747(17) 0.31350(11)
C8 C 0.2312(2) 0.08115(19) 0.44298(12)
H8 H 0.1924 0.0261 0.4509
C9 C 0.2786(2) 0.12437(18) 0.49105(13)
H9 H 0.2735 0.0967 0.5313
C10 C 0.33785(18) 0.21256(18) 0.48357(11)
C11 C 0.32925(17) 0.26283(17) 0.41919(10)
C12 C 0.32437(18) 0.18173(18) 0.36868(11)
H10 H 0.3185 0.2110 0.3269
H11 H 0.3851 0.1435 0.3697
C13 C 0.3976(2) 0.2467(2) 0.52873(12)
H12 H 0.3989 0.2128 0.5671
C14 C 0.4628(2) 0.3349(2) 0.52292(13)
H13 H 0.5318 0.3142 0.5237
H14 H 0.4517 0.3774 0.5592
C15 C 0.4437(2) 0.3920(2) 0.46260(12)
H15 H 0.5012 0.4323 0.4530
H16 H 0.3873 0.4352 0.4689
C16 C 0.42311(18) 0.32419(19) 0.40704(11)
H17 H 0.4795 0.2809 0.4007
H18 H 0.4144 0.3627 0.3687
C17 C 0.23642(18) 0.32725(16) 0.41506(11)
C18 C 0.2116(2) 0.3729(2) 0.35855(13)
H19 H 0.2511 0.3621 0.3230
C19 C 0.1304(3) 0.4337(2) 0.35331(14)
H20 H 0.1159 0.4633 0.3146
C20 C 0.0712(2) 0.45073(19) 0.40460(15)
H21 H 0.0165 0.4920 0.4012
C21 C 0.0933(2) 0.4063(2) 0.46130(13)
H22 H 0.0531 0.4171 0.4965
C22 C 0.17511(19) 0.34550(18) 0.46632(11)
H23 H 0.1892 0.3162 0.5051
N1 N 0.23854(15) 0.11715(14) 0.38048(9)
O1 O 0.20282(14) 0.10592(13) 0.26615(8)
O2 O 0.10952(13) 0.00259(13) 0.34270(9)
S1 S 0.20048(5) 0.04660(5) 0.32203(3)
loop_
_geom_bond_atom_site_label_1
_geom_bond_atom_site_label_2
_geom_bond_site_symmetry_1
_geom_bond_site_symmetry_2
C1 H1 1_555 1_555
H2 C1 1_555 1_555
H3 C1 1_555 1_555
C2 C1 1_555 1_555
C3 C2 1_555 1_555
H4 C3 1_555 1_555
C4 C3 1_555 1_555
H5 C4 1_555 1_555
C5 C2 1_555 1_555
H6 C5 1_555 1_555
C6 C5 1_555 1_555
H7 C6 1_555 1_555
C7 C4 1_555 1_555
C8 H8 1_555 1_555
C9 C8 1_555 1_555
H9 C9 1_555 1_555
C10 C9 1_555 1_555
C11 C10 1_555 1_555
C12 C11 1_555 1_555
H10 C12 1_555 1_555
H11 C12 1_555 1_555
C13 C10 1_555 1_555
H12 C13 1_555 1_555
C14 C13 1_555 1_555
H13 C14 1_555 1_555
H14 C14 1_555 1_555
C15 C14 1_555 1_555
H15 C15 1_555 1_555
H16 C15 1_555 1_555
C16 C11 1_555 1_555
H17 C16 1_555 1_555
H18 C16 1_555 1_555
C17 C11 1_555 1_555
C18 C17 1_555 1_555
H19 C18 1_555 1_555
C19 C18 1_555 1_555
H20 C19 1_555 1_555
C20 C19 1_555 1_555
H21 C20 1_555 1_555
C21 C20 1_555 1_555
H22 C21 1_555 1_555
C22 C17 1_555 1_555
H23 C22 1_555 1_555
N1 C8 1_555 1_555
O1 S1 1_555 1_555
O2 S1 1_555 1_555
S1 C7 1_555 1_555
C6 C7 1_555 1_555
C12 N1 1_555 1_555
C15 C16 1_555 1_555
C21 C22 1_555 1_555
N1 S1 1_555 1_555

#END
