
#######################################################################
#
#                 Cambridge Crystallographic Data Centre
#                                CCDC 
#
#######################################################################
#
# If this CIF has been generated from an entry in the Cambridge 
# Structural Database, then it will include bibliographic, chemical, 
# crystal, experimental, refinement or atomic coordinate data resulting 
# from the CCDC's data processing and validation procedures.
#
#######################################################################

data_YECHEU
_chemical_formula_moiety         'C12 H8 N4 O1,C4 H4 O4'
_chemical_name_systematic        
'2,5-bis(4-Pyridyl)-1,3,4-oxadiazole fumaric acid'
_symmetry_cell_setting           monoclinic
_symmetry_space_group_name_H-M   'P 2/c'
_symmetry_Int_Tables_number      13
_space_group_name_Hall           '-P 2yc'
loop_
_symmetry_equiv_pos_site_id
_symmetry_equiv_pos_as_xyz
1 x,y,z
2 -x,y,1/2-z
3 -x,-y,-z
4 x,-y,1/2+z
_cell_length_a                   10.585(6)
_cell_length_b                   11.337(5)
_cell_length_c                   13.697(6)
_cell_angle_alpha                90
_cell_angle_beta                 104.733(6)
_cell_angle_gamma                90
_cell_volume                     1589.63
_exptl_crystal_colour            colorless
_exptl_crystal_description       Lamellar
_chemical_melting_point          261deg.C
_cell_formula_units_Z            4
loop_
_atom_site_label
_atom_site_type_symbol
_atom_site_fract_x
_atom_site_fract_y
_atom_site_fract_z
O1 O 0.5000 0.02295(17) 0.2500
N1 N 0.46548(19) 0.20676(16) 0.19912(12)
N2 N 0.25675(18) -0.03200(18) -0.11717(13)
C1 C 0.4475(2) 0.0979(2) 0.17304(16)
C2 C 0.3805(2) 0.05129(19) 0.07392(16)
C3 C 0.3638(2) -0.0683(2) 0.05615(16)
H3 H 0.3937 -0.1224 0.1079
C4 C 0.3017(2) -0.1059(2) -0.03996(17)
H4 H 0.2907 -0.1865 -0.0516
C5 C 0.2725(2) 0.0831(2) -0.09882(17)
H5 H 0.2414 0.1355 -0.1517
C6 C 0.3324(2) 0.1280(2) -0.00535(17)
H6 H 0.3406 0.2091 0.0045
N1A N 0.53452(19) 0.20676(16) 0.30088(12)
N2A N 0.74325(18) -0.03200(18) 0.61717(13)
C1A C 0.5525(2) 0.0979(2) 0.32696(16)
C2A C 0.6195(2) 0.05129(19) 0.42608(16)
C3A C 0.6362(2) -0.0683(2) 0.44385(16)
H3A H 0.6063 -0.1224 0.3921
C4A C 0.6983(2) -0.1059(2) 0.53996(17)
H4A H 0.7093 -0.1865 0.5516
C5A C 0.7275(2) 0.0831(2) 0.59882(17)
H5A H 0.7586 0.1355 0.6517
C6A C 0.6676(2) 0.1280(2) 0.50535(17)
H6A H 0.6594 0.2091 0.4955
O2 O 0.5000 0.52306(19) 0.2500
N3 N 0.4312(2) 0.70747(17) 0.23249(19)
N4 N 0.0082(2) 0.4704(2) 0.12684(15)
C7 C 0.3968(3) 0.5979(2) 0.22337(17)
C8 C 0.2640(3) 0.5520(2) 0.19008(17)
C9 C 0.2379(3) 0.4330(2) 0.18192(18)
H7 H 0.3054 0.3781 0.1973
C10 C 0.1091(3) 0.3968(3) 0.15034(19)
H8 H 0.0922 0.3162 0.1452
C11 C 0.0352(3) 0.5855(3) 0.13472(19)
H9 H -0.0340 0.6385 0.1185
C12 C 0.1600(3) 0.6300(2) 0.16552(19)
H10 H 0.1742 0.7110 0.1698
N3A N 0.5688(2) 0.70747(17) 0.26751(19)
N4A N 0.9918(2) 0.4704(2) 0.37316(15)
C7A C 0.6032(3) 0.5979(2) 0.27663(17)
C8A C 0.7360(3) 0.5520(2) 0.30992(17)
C9A C 0.7621(3) 0.4330(2) 0.31808(18)
H7A H 0.6946 0.3781 0.3027
C10A C 0.8909(3) 0.3968(3) 0.34966(19)
H8A H 0.9078 0.3162 0.3548
C11A C 0.9648(3) 0.5855(3) 0.36528(19)
H9A H 1.0340 0.6385 0.3815
C12A C 0.8400(3) 0.6300(2) 0.33448(19)
H10A H 0.8258 0.7110 0.3302
O3 O 0.2783(2) 0.59642(18) 0.43624(14)
O4 O 0.23550(18) 0.40425(14) 0.43160(15)
H1 H 0.1597 0.4270 0.4126
C13 C 0.3143(3) 0.4958(3) 0.44807(19)
C14 C 0.4535(3) 0.4622(2) 0.48394(18)
H11 H 0.4754 0.3827 0.4834
O3B O 0.7217(2) 0.40358(18) 0.56376(14)
O4B O 0.76450(18) 0.59575(14) 0.56840(15)
H1B H 0.8403 0.5730 0.5874
C13B C 0.6857(3) 0.5042(3) 0.55193(19)
C14B C 0.5465(3) 0.5378(2) 0.51606(18)
H11B H 0.5246 0.6173 0.5166
O5 O 0.13372(19) 0.09916(14) 0.19654(11)
H2 H 0.1704 0.0771 0.2537
O6 O 0.10169(18) -0.09254(16) 0.16939(11)
C15 C 0.0889(2) 0.0067(2) 0.13967(17)
C16 C 0.0224(2) 0.03932(19) 0.03475(15)
H12 H 0.0123 0.1188 0.0177
O5B O -0.13372(19) -0.09916(14) -0.19654(11)
H2B H -0.1704 -0.0771 -0.2537
O6B O -0.10169(18) 0.09254(16) -0.16939(11)
C15B C -0.0889(2) -0.0067(2) -0.13967(17)
C16B C -0.0224(2) -0.03932(19) -0.03475(15)
H12B H -0.0123 -0.1188 -0.0177
loop_
_geom_bond_atom_site_label_1
_geom_bond_atom_site_label_2
_geom_bond_site_symmetry_1
_geom_bond_site_symmetry_2
O1 C1 1_555 1_555
O2 C7 1_555 1_555
O3 C13 1_555 1_555
O4 H1 1_555 1_555
O5 H2 1_555 1_555
O6 C15 1_555 1_555
N1 C1 1_555 1_555
N2 C4 1_555 1_555
N3 C7 1_555 1_555
N4 C10 1_555 1_555
C1 C2 1_555 1_555
C2 C3 1_555 1_555
C3 H3 1_555 1_555
C4 C3 1_555 1_555
H4 C4 1_555 1_555
C5 N2 1_555 1_555
H5 C5 1_555 1_555
C6 C2 1_555 1_555
H6 C6 1_555 1_555
C7 C8 1_555 1_555
C8 C9 1_555 1_555
C9 H7 1_555 1_555
C10 C9 1_555 1_555
H8 C10 1_555 1_555
C11 N4 1_555 1_555
H9 C11 1_555 1_555
C12 C8 1_555 1_555
H10 C12 1_555 1_555
C13 O4 1_555 1_555
C14 C13 1_555 1_555
H11 C14 1_555 1_555
C15 O5 1_555 1_555
C16 C15 1_555 1_555
H12 C16 1_555 1_555
O3B C13B 1_555 1_555
O4B H1B 1_555 1_555
O5B H2B 1_555 1_555
O6B C15B 1_555 1_555
N1A N1 1_555 1_555
N2A C4A 1_555 1_555
N3A N3 1_555 1_555
N4A C10A 1_555 1_555
C1A O1 1_555 1_555
C2A C1A 1_555 1_555
C3A C2A 1_555 1_555
H3A C3A 1_555 1_555
C4A C3A 1_555 1_555
H4A C4A 1_555 1_555
C5A N2A 1_555 1_555
H5A C5A 1_555 1_555
C6A C2A 1_555 1_555
H6A C6A 1_555 1_555
C7A O2 1_555 1_555
C8A C7A 1_555 1_555
C9A C8A 1_555 1_555
H7A C9A 1_555 1_555
C10A C9A 1_555 1_555
H8A C10A 1_555 1_555
C11A N4A 1_555 1_555
H9A C11A 1_555 1_555
C12A C8A 1_555 1_555
H10A C12A 1_555 1_555
C13B O4B 1_555 1_555
C14B C14 1_555 1_555
H11B C14B 1_555 1_555
C15B O5B 1_555 1_555
C16B C16 1_555 1_555
H12B C16B 1_555 1_555
C5 C6 1_555 1_555
C11 C12 1_555 1_555
N1A C1A 1_555 1_555
N3A C7A 1_555 1_555
C5A C6A 1_555 1_555
C11A C12A 1_555 1_555
C13B C14B 1_555 1_555
C15B C16B 1_555 1_555

#END
