
#######################################################################
#
#                 Cambridge Crystallographic Data Centre
#                                CCDC 
#
#######################################################################
#
# If this CIF has been generated from an entry in the Cambridge 
# Structural Database, then it will include bibliographic, chemical, 
# crystal, experimental, refinement or atomic coordinate data resulting 
# from the CCDC's data processing and validation procedures.
#
#######################################################################

data_YECHIY
_chemical_formula_moiety         'C12 H8 N4 O1,C8 H14 O4'
_chemical_name_systematic        
'2,5-bis(3-Pyridyl)-1,3,4-oxadiazole suberic acid'
_symmetry_cell_setting           monoclinic
_symmetry_space_group_name_H-M   'C 2/c'
_symmetry_Int_Tables_number      15
_space_group_name_Hall           '-C 2yn'
loop_
_symmetry_equiv_pos_site_id
_symmetry_equiv_pos_as_xyz
1 x,y,z
2 1/2+x,1/2+y,z
3 -x,y,1/2-z
4 1/2-x,1/2+y,1/2-z
5 -x,-y,-z
6 1/2-x,1/2-y,-z
7 x,-y,1/2+z
8 1/2+x,1/2-y,1/2+z
_cell_length_a                   5.1367(11)
_cell_length_b                   13.129(3)
_cell_length_c                   29.552(6)
_cell_angle_alpha                90
_cell_angle_beta                 91.771(4)
_cell_angle_gamma                90
_cell_volume                     1992.03
_exptl_crystal_colour            colorless
_exptl_crystal_description       Block
_chemical_melting_point          131-133deg.C
_cell_formula_units_Z            4
loop_
_atom_site_label
_atom_site_type_symbol
_atom_site_fract_x
_atom_site_fract_y
_atom_site_fract_z
O1 O 0.0000 0.54404(13) 0.2500
N1 N 0.7141(4) 0.49326(14) 0.35619(6)
N2 N 0.1053(4) 0.38557(13) 0.26567(6)
C1 C 0.5169(4) 0.45937(17) 0.32997(7)
H2 H 0.4812 0.3899 0.3298
C2 C 0.7615(5) 0.59345(19) 0.35617(8)
H3 H 0.9005 0.6178 0.3739
C3 C 0.6165(5) 0.66162(18) 0.33148(8)
H4 H 0.6536 0.7309 0.3330
C4 C 0.4152(5) 0.62634(16) 0.30440(7)
H5 H 0.3143 0.6714 0.2871
C5 C 0.3631(4) 0.52288(15) 0.30306(7)
C6 C 0.1587(4) 0.47968(15) 0.27386(7)
N1B N -0.7141(4) 0.49326(14) 0.14381(6)
N2B N -0.1053(4) 0.38557(13) 0.23433(6)
C1B C -0.5169(4) 0.45937(17) 0.17003(7)
H2B H -0.4812 0.3899 0.1702
C2B C -0.7615(5) 0.59345(19) 0.14383(8)
H3B H -0.9005 0.6178 0.1261
C3B C -0.6165(5) 0.66162(18) 0.16852(8)
H4B H -0.6536 0.7309 0.1670
C4B C -0.4152(5) 0.62634(16) 0.19560(7)
H5B H -0.3143 0.6714 0.2129
C5B C -0.3631(4) 0.52288(15) 0.19694(7)
C6B C -0.1587(4) 0.47968(15) 0.22614(7)
O2 O 0.1560(3) 0.75881(12) 0.40041(6)
O3 O 0.4748(4) 0.86791(13) 0.41336(7)
H1 H 0.3831 0.9041 0.3968
C7 C 0.3563(4) 0.78102(17) 0.42007(8)
C8 C 0.5011(4) 0.71613(17) 0.45319(8)
H6 H 0.5095 0.7513 0.4821
H7 H 0.6782 0.7086 0.4432
C9 C 0.3899(5) 0.61180(18) 0.46048(8)
H8 H 0.3830 0.5752 0.4319
H9 H 0.2134 0.6182 0.4709
C10 C 0.5528(5) 0.55118(16) 0.49517(9)
H10 H 0.7277 0.5437 0.4842
H11 H 0.5648 0.5896 0.5232
O2D O 0.8440(3) 0.24119(12) 0.59959(6)
O3D O 0.5252(4) 0.13209(13) 0.58664(7)
H1D H 0.6169 0.0959 0.6032
C7D C 0.6437(4) 0.21898(17) 0.57993(8)
C8D C 0.4989(4) 0.28387(17) 0.54681(8)
H6D H 0.4905 0.2487 0.5179
H7D H 0.3218 0.2914 0.5568
C9D C 0.6101(5) 0.38820(18) 0.53952(8)
H8D H 0.6170 0.4248 0.5681
H9D H 0.7866 0.3818 0.5291
C10D C 0.4472(5) 0.44882(16) 0.50483(9)
H10D H 0.2723 0.4563 0.5158
H11D H 0.4352 0.4104 0.4768
loop_
_geom_bond_atom_site_label_1
_geom_bond_atom_site_label_2
_geom_bond_site_symmetry_1
_geom_bond_site_symmetry_2
O1 C6 1_555 1_555
O2 C7 1_555 1_555
O3 H1 1_555 1_555
N1 C1 1_555 1_555
N2 C6 1_555 1_555
C1 H2 1_555 1_555
C2 N1 1_555 1_555
H3 C2 1_555 1_555
C3 C2 1_555 1_555
H4 C3 1_555 1_555
C4 C3 1_555 1_555
H5 C4 1_555 1_555
C5 C1 1_555 1_555
C6 C5 1_555 1_555
C7 O3 1_555 1_555
C8 C7 1_555 1_555
H6 C8 1_555 1_555
H7 C8 1_555 1_555
C9 C8 1_555 1_555
H8 C9 1_555 1_555
H9 C9 1_555 1_555
C10 C9 1_555 1_555
H10 C10 1_555 1_555
H11 C10 1_555 1_555
O2D C7D 1_555 1_555
O3D H1D 1_555 1_555
N1B C1B 1_555 1_555
N2B N2 1_555 1_555
C1B H2B 1_555 1_555
C2B N1B 1_555 1_555
H3B C2B 1_555 1_555
C3B C2B 1_555 1_555
H4B C3B 1_555 1_555
C4B C3B 1_555 1_555
H5B C4B 1_555 1_555
C5B C1B 1_555 1_555
C6B O1 1_555 1_555
C7D O3D 1_555 1_555
C8D C7D 1_555 1_555
H6D C8D 1_555 1_555
H7D C8D 1_555 1_555
C9D C8D 1_555 1_555
H8D C9D 1_555 1_555
H9D C9D 1_555 1_555
C10D C10 1_555 1_555
H10D C10D 1_555 1_555
H11D C10D 1_555 1_555
C4 C5 1_555 1_555
N2B C6B 1_555 1_555
C4B C5B 1_555 1_555
C5B C6B 1_555 1_555
C9D C10D 1_555 1_555

#END
