
#######################################################################
#
#                 Cambridge Crystallographic Data Centre
#                                CCDC 
#
#######################################################################
#
# If this CIF has been generated from an entry in the Cambridge 
# Structural Database, then it will include bibliographic, chemical, 
# crystal, experimental, refinement or atomic coordinate data resulting 
# from the CCDC's data processing and validation procedures.
#
#######################################################################

data_YECKOG
_chemical_formula_moiety         'C43 H32 N2 O2 P2,1.5(C7 H8)'
_chemical_name_systematic        
'2,6-bis(Triphenylphosphoranylidene)-1,7-heptane-dinitrile-3,5-dione toluene solvate'
_symmetry_cell_setting           triclinic
_symmetry_space_group_name_H-M   'P -1'
_symmetry_Int_Tables_number      2
_space_group_name_Hall           '-P 1'
loop_
_symmetry_equiv_pos_site_id
_symmetry_equiv_pos_as_xyz
1 x,y,z
2 -x,-y,-z
_cell_length_a                   10.202(3)
_cell_length_b                   10.533(3)
_cell_length_c                   23.884(7)
_cell_angle_alpha                77.80(5)
_cell_angle_beta                 86.50(5)
_cell_angle_gamma                62.60(6)
_cell_volume                     2225.2
_exptl_crystal_colour            white-yellow
_chemical_melting_point          243-244deg.C(dec.)
_cell_formula_units_Z            2
loop_
_atom_site_label
_atom_site_type_symbol
_atom_site_fract_x
_atom_site_fract_y
_atom_site_fract_z
P1 P 0.7981(3) 0.1126(3) 0.1664(1)
P2 P 0.3970(3) 0.3448(3) 0.4146(1)
O1 O 0.7277(8) -0.0046(7) 0.2834(3)
O2 O 0.4995(7) 0.3316(6) 0.3025(3)
N1 N 0.393(1) 0.341(1) 0.1339(5)
N2 N 0.2565(9) 0.0736(8) 0.4056(4)
C1 C 0.624(1) 0.153(1) 0.1950(4)
C2 C 0.498(1) 0.257(1) 0.1612(5)
C3 C 0.618(1) 0.086(1) 0.2534(5)
C4 C 0.465(1) 0.137(1) 0.2790(4)
C5 C 0.450(1) 0.243(1) 0.3175(5)
C6 C 0.379(1) 0.2401(9) 0.3706(4)
C7 C 0.314(1) 0.1466(9) 0.3903(4)
C8 C 0.9157(7) -0.0793(5) 0.1746(3)
C9 C 0.8536(7) -0.1750(5) 0.1824(3)
C10 C 0.9442(7) -0.3244(5) 0.1867(3)
C11 C 1.0968(7) -0.3782(5) 0.1832(3)
C12 C 1.1590(7) -0.2825(5) 0.1753(3)
C13 C 1.0684(7) -0.1330(5) 0.1710(3)
C14 C 0.8906(8) 0.1921(7) 0.1967(3)
C15 C 1.0026(8) 0.2157(7) 0.1674(3)
C16 C 1.0820(8) 0.2677(7) 0.1931(3)
C17 C 1.0494(8) 0.2963(7) 0.2481(3)
C18 C 0.9374(8) 0.2727(7) 0.2774(3)
C19 C 0.8580(8) 0.2206(7) 0.2516(3)
C20 C 0.7717(8) 0.1901(9) 0.0918(3)
C21 C 0.7146(8) 0.3411(9) 0.0735(3)
C22 C 0.6858(8) 0.4042(9) 0.0152(3)
C23 C 0.7141(8) 0.3162(9) -0.0248(3)
C24 C 0.77412(8) 0.1651(9) -0.0064(3)
C25 C 0.8000(8) 0.1021(9) 0.0519(3)
C26 C 0.2836(7) 0.5379(5) 0.3908(3)
C27 C 0.2830(7) 0.6348(5) 0.4227(3)
C28 C 0.1939(7) 0.7847(5) 0.4045(3)
C29 C 0.1052(7) 0.8377(5) 0.3544(3)
C30 C 0.1058(7) 0.7408(5) 0.3225(3)
C31 C 0.1950(7) 0.5909(5) 0.3407(3)
C32 C 0.5869(5) 0.3021(7) 0.4219(3)
C33 C 0.6363(5) 0.4074(7) 0.4163(3)
C34 C 0.7864(5) 0.3646(7) 0.4241(3)
C35 C 0.8871(5) 0.2165(7) 0.4375(3)
C36 C 0.8377(5) 0.1112(7) 0.4431(3)
C37 C 0.6876(5) 0.1540(7) 0.4354(3)
C38 C 0.3325(8) 0.3010(7) 0.4839(3)
C39 C 0.1840(8) 0.3331(7) 0.4881(3)
C40 C 0.1295(8) 0.2995(7) 0.5412(3)
C41 C 0.2236(8) 0.2338(7) 0.5901(3)
C42 C 0.3721(8) 0.2017(7) 0.5858(3)
C43 C 0.4266(8) 0.2353(7) 0.5328(3)
H1 H 0.45286 0.04635 0.30466
H2 H 0.37695 0.19517 0.24593
H3 H 0.73658 -0.13439 0.18567
H4 H 0.89668 -0.39979 0.19392
H5 H 1.16750 -0.49575 0.18714
H6 H 1.27822 -0.32630 0.17211
H7 H 1.11811 -0.06089 0.16386
H8 H 1.02974 0.19202 0.12533
H9 H 1.16994 0.28572 0.17057
H10 H 1.11210 0.33692 0.26801
H11 H 0.91407 0.29442 0.32022
H12 H 0.77388 0.20072 0.27498
H13 H 0.69027 0.41003 0.10419
H14 H 0.64171 0.52280 0.00077
H15 H 0.69394 0.36753 -0.07055
H16 H 0.79474 0.09448 -0.03846
H17 H 0.84330 -0.01329 0.06496
H18 H 0.35502 0.59328 0.46049
H19 H 0.19447 0.85919 0.42940
H20 H 0.03353 0.95408 0.34150
H21 H 0.03313 0.78307 0.28470
H22 H 0.19367 0.51716 0.31579
H23 H 0.55836 0.52126 0.40636
H24 H 0.82495 0.44616 0.41849
H25 H 1.00444 0.18355 0.44172
H26 H 0.91735 -0.00396 0.45281
H27 H 0.65076 0.07114 0.44067
H28 H 0.11131 0.38581 0.45136
H29 H 0.01524 0.32461 0.54544
H30 H 0.18302 0.20542 0.63187
H31 H 0.44686 0.14743 0.62423
H32 H 0.54292 0.20864 0.53014
C44? C 0.43240 0.88990 0.18910
C45? C 0.58130 0.65800 0.16850
C46? C 0.51620 0.74100 0.21000
C47? C 0.50490 0.86070 0.08690
C48? C 0.44050 0.94370 0.13020
C49? C 0.50730 0.66900 0.27260
C50? C 0.57940 0.71290 0.11000
C51? C 0.42630 0.81950 0.24450
C52? C 0.56550 0.59700 0.22560
C53? C 0.50860 0.80990 0.14970
C54? C -0.13210 0.74140 -0.01440
C55? C 0.12450 0.34930 0.05270
C56? C -0.03770 0.49800 -0.04490
C57? C 0.05400 0.34780 -0.03910
C58? C 0.04580 0.42090 0.00540
loop_
_geom_bond_atom_site_label_1
_geom_bond_atom_site_label_2
_geom_bond_site_symmetry_1
_geom_bond_site_symmetry_2
P1 C1 1_555 1_555
P2 C6 1_555 1_555
O1 C3 1_555 1_555
O2 C5 1_555 1_555
N1 C2 1_555 1_555
N2 C7 1_555 1_555
C1 C2 1_555 1_555
C3 C1 1_555 1_555
C4 C3 1_555 1_555
C5 C4 1_555 1_555
C6 C5 1_555 1_555
C7 C6 1_555 1_555
C8 P1 1_555 1_555
C9 C8 1_555 1_555
C10 C9 1_555 1_555
C11 C10 1_555 1_555
C12 C11 1_555 1_555
C13 C8 1_555 1_555
C14 P1 1_555 1_555
C15 C14 1_555 1_555
C16 C15 1_555 1_555
C17 C16 1_555 1_555
C18 C17 1_555 1_555
C19 C14 1_555 1_555
C20 P1 1_555 1_555
C21 C20 1_555 1_555
C22 C21 1_555 1_555
C23 C22 1_555 1_555
C24 C23 1_555 1_555
C25 C20 1_555 1_555
C26 P2 1_555 1_555
C27 C26 1_555 1_555
C28 C27 1_555 1_555
C29 C28 1_555 1_555
C30 C29 1_555 1_555
C31 C26 1_555 1_555
C32 P2 1_555 1_555
C33 C32 1_555 1_555
C34 C33 1_555 1_555
C35 C34 1_555 1_555
C36 C35 1_555 1_555
C37 C32 1_555 1_555
C38 P2 1_555 1_555
C39 C38 1_555 1_555
C40 C39 1_555 1_555
C41 C40 1_555 1_555
C42 C41 1_555 1_555
C43 C38 1_555 1_555
H1 C4 1_555 1_555
H2 C4 1_555 1_555
H3 C9 1_555 1_555
H4 C10 1_555 1_555
H5 C11 1_555 1_555
H6 C12 1_555 1_555
H7 C13 1_555 1_555
H8 C15 1_555 1_555
H9 C16 1_555 1_555
H10 C17 1_555 1_555
H11 C18 1_555 1_555
H12 C19 1_555 1_555
H13 C21 1_555 1_555
H14 C22 1_555 1_555
H15 C23 1_555 1_555
H16 C24 1_555 1_555
H17 C25 1_555 1_555
H18 C27 1_555 1_555
H19 C28 1_555 1_555
H20 C29 1_555 1_555
H21 C30 1_555 1_555
H22 C31 1_555 1_555
H23 C33 1_555 1_555
H24 C34 1_555 1_555
H25 C35 1_555 1_555
H26 C36 1_555 1_555
H27 C37 1_555 1_555
H28 C39 1_555 1_555
H29 C40 1_555 1_555
H30 C41 1_555 1_555
H31 C42 1_555 1_555
H32 C43 1_555 1_555
C12 C13 1_555 1_555
C18 C19 1_555 1_555
C24 C25 1_555 1_555
C30 C31 1_555 1_555
C36 C37 1_555 1_555
C42 C43 1_555 1_555

#END
