
#######################################################################
#
#                 Cambridge Crystallographic Data Centre
#                                CCDC 
#
#######################################################################
#
# If this CIF has been generated from an entry in the Cambridge 
# Structural Database, then it will include bibliographic, chemical, 
# crystal, experimental, refinement or atomic coordinate data resulting 
# from the CCDC's data processing and validation procedures.
#
#######################################################################

data_YECPIH
_chemical_formula_moiety         'C28 H32 O9'
_chemical_name_systematic        
6,24-Dimethyl-3,7,12,15,18,23,27-heptaoxahexacyclo[27.2.2.0^4,9^.0^4,11^.0^19,26^.0^21,26^]tritriaconta-1(31),5,24,29,32-pentaene-8,22-dione
_symmetry_cell_setting           orthorhombic
_symmetry_space_group_name_H-M   'P n m a'
_symmetry_Int_Tables_number      62
_space_group_name_Hall           '-P 2ac 2n'
loop_
_symmetry_equiv_pos_site_id
_symmetry_equiv_pos_as_xyz
1 x,y,z
2 1/2-x,-y,1/2+z
3 1/2+x,1/2-y,1/2-z
4 -x,1/2+y,-z
5 -x,-y,-z
6 1/2+x,y,1/2-z
7 1/2-x,1/2+y,1/2+z
8 x,1/2-y,z
_cell_length_a                   8.32670(10)
_cell_length_b                   31.8091(4)
_cell_length_c                   10.0349(2)
_cell_angle_alpha                90
_cell_angle_beta                 90
_cell_angle_gamma                90
_cell_volume                     2657.89
_exptl_crystal_colour            colorless
_exptl_crystal_description       block
_cell_formula_units_Z            4
loop_
_atom_site_label
_atom_site_type_symbol
_atom_site_fract_x
_atom_site_fract_y
_atom_site_fract_z
O1 O 0.8801(2) 0.2500 0.41741(16)
C1 C 0.8092(3) 0.21297(4) 0.36519(18)
H1 H 0.8382 0.2098 0.2700
H2 H 0.6908 0.2148 0.3718
C2 C 0.86821(18) 0.17580(4) 0.44257(16)
H3 H 0.9867 0.1740 0.4373
H4 H 0.8371 0.1785 0.5374
O2 O 0.79674(12) 0.13891(3) 0.38556(10)
C3 C 0.77256(16) 0.10601(4) 0.47796(14)
H5 H 0.8682 0.0990 0.5340
C4 C 0.69766(17) 0.06835(4) 0.40408(15)
H6 H 0.7244 0.0408 0.4439
H7 H 0.7181 0.0684 0.3069
C5 C 0.52722(16) 0.08513(4) 0.44341(13)
H8 H 0.4844 0.1045 0.3735
C6 C 0.40477(16) 0.05299(4) 0.48088(14)
O3 O 0.29572(13) 0.04123(3) 0.41213(10)
O4 O 0.42024(11) 0.03433(3) 0.60316(9)
C7 C 0.52444(15) 0.05018(4) 0.70023(13)
C8 C 0.51838(17) 0.02278(4) 0.82025(14)
H9 H 0.5822 0.0355 0.8918
H10 H 0.5622 -0.0050 0.7983
H11 H 0.4068 0.0198 0.8497
C9 C 0.61053(16) 0.08502(4) 0.68235(14)
C10 C 0.61087(16) 0.11022(4) 0.55648(13)
O5 O 0.56704(12) 0.15259(3) 0.57553(10)
C11 C 0.40549(17) 0.15916(4) 0.61946(16)
H12 H 0.3881 0.1463 0.7082
H13 H 0.3282 0.1468 0.5556
C12 C 0.38599(15) 0.20611(4) 0.62612(14)
C13 C 0.46804(16) 0.22820(4) 0.72476(14)
H14 H 0.5243 0.2133 0.7923
C14 C 0.29991(16) 0.22806(4) 0.53084(14)
H15 H 0.2406 0.2132 0.4651
H16 H 0.676(2) 0.0950(5) 0.7564(18)
C1G C 0.8092(3) 0.28703(4) 0.36519(18)
H1G H 0.8382 0.2902 0.2700
H2G H 0.6908 0.2852 0.3718
C2G C 0.86821(18) 0.32420(4) 0.44257(16)
H3G H 0.9867 0.3260 0.4373
H4G H 0.8371 0.3215 0.5374
O2G O 0.79674(12) 0.36109(3) 0.38556(10)
C3G C 0.77256(16) 0.39399(4) 0.47796(14)
H5G H 0.8682 0.4010 0.5340
C4G C 0.69766(17) 0.43165(4) 0.40408(15)
H6G H 0.7244 0.4592 0.4439
H7G H 0.7181 0.4316 0.3069
C5G C 0.52722(16) 0.41487(4) 0.44341(13)
H8G H 0.4844 0.3955 0.3735
C6G C 0.40477(16) 0.44701(4) 0.48088(14)
O3G O 0.29572(13) 0.45877(3) 0.41213(10)
O4G O 0.42024(11) 0.46567(3) 0.60316(9)
C7G C 0.52444(15) 0.44982(4) 0.70023(13)
C8G C 0.51838(17) 0.47722(4) 0.82025(14)
H9G H 0.5822 0.4645 0.8918
H10G H 0.5622 0.5050 0.7983
H11G H 0.4068 0.4802 0.8497
C9G C 0.61053(16) 0.41498(4) 0.68235(14)
C10G C 0.61087(16) 0.38978(4) 0.55648(13)
O5G O 0.56704(12) 0.34741(3) 0.57553(10)
C11G C 0.40549(17) 0.34084(4) 0.61946(16)
H12G H 0.3881 0.3537 0.7082
H13G H 0.3282 0.3532 0.5556
C12G C 0.38599(15) 0.29389(4) 0.62612(14)
C13G C 0.46804(16) 0.27180(4) 0.72476(14)
H14G H 0.5243 0.2867 0.7923
C14G C 0.29991(16) 0.27194(4) 0.53084(14)
H15G H 0.2406 0.2868 0.4651
H16G H 0.676(2) 0.4050(5) 0.7564(18)
loop_
_geom_bond_atom_site_label_1
_geom_bond_atom_site_label_2
_geom_bond_site_symmetry_1
_geom_bond_site_symmetry_2
O1 C1 1_555 1_555
C1 H1 1_555 1_555
H2 C1 1_555 1_555
C2 C1 1_555 1_555
H3 C2 1_555 1_555
H4 C2 1_555 1_555
O2 C2 1_555 1_555
C3 O2 1_555 1_555
H5 C3 1_555 1_555
C4 C3 1_555 1_555
H6 C4 1_555 1_555
H7 C4 1_555 1_555
C5 C4 1_555 1_555
H8 C5 1_555 1_555
C6 C5 1_555 1_555
O3 C6 1_555 1_555
O4 C6 1_555 1_555
C7 O4 1_555 1_555
C8 C7 1_555 1_555
H9 C8 1_555 1_555
H10 C8 1_555 1_555
H11 C8 1_555 1_555
C9 C7 1_555 1_555
C10 C3 1_555 1_555
O5 C10 1_555 1_555
C11 O5 1_555 1_555
H12 C11 1_555 1_555
H13 C11 1_555 1_555
C12 C11 1_555 1_555
C13 C12 1_555 1_555
H14 C13 1_555 1_555
C14 C12 1_555 1_555
H15 C14 1_555 1_555
H16 C9 1_555 1_555
C1G O1 1_555 1_555
H1G C1G 1_555 1_555
H2G C1G 1_555 1_555
C2G C1G 1_555 1_555
H3G C2G 1_555 1_555
H4G C2G 1_555 1_555
O2G C2G 1_555 1_555
C3G O2G 1_555 1_555
H5G C3G 1_555 1_555
C4G C3G 1_555 1_555
H6G C4G 1_555 1_555
H7G C4G 1_555 1_555
C5G C4G 1_555 1_555
H8G C5G 1_555 1_555
C6G C5G 1_555 1_555
O3G C6G 1_555 1_555
O4G C6G 1_555 1_555
C7G O4G 1_555 1_555
C8G C7G 1_555 1_555
H9G C8G 1_555 1_555
H10G C8G 1_555 1_555
H11G C8G 1_555 1_555
C9G C7G 1_555 1_555
C10G C3G 1_555 1_555
O5G C10G 1_555 1_555
C11G O5G 1_555 1_555
H12G C11G 1_555 1_555
H13G C11G 1_555 1_555
C12G C11G 1_555 1_555
C13G C13 1_555 1_555
H14G C13G 1_555 1_555
C14G C14 1_555 1_555
H15G C14G 1_555 1_555
H16G C9G 1_555 1_555
C5 C10 1_555 1_555
C9 C10 1_555 1_555
C5G C10G 1_555 1_555
C9G C10G 1_555 1_555
C12G C13G 1_555 1_555
C12G C14G 1_555 1_555

#END
