
#######################################################################
#
#                 Cambridge Crystallographic Data Centre
#                                CCDC 
#
#######################################################################
#
# If this CIF has been generated from an entry in the Cambridge 
# Structural Database, then it will include bibliographic, chemical, 
# crystal, experimental, refinement or atomic coordinate data resulting 
# from the CCDC's data processing and validation procedures.
#
#######################################################################

data_YECPON
_chemical_formula_moiety         'C36 H40 N2 O12'
_chemical_name_systematic        
6,9,12,15,26,29,32,35-Octaoxa-3,38-diazahexacyclo[38.3.1.1^3,43^.1^38,41^.0^16,21^.0^20,25^]hexatetraconta-1(44),16,18,20,22,24,40,42-octaene-2,39,45,46-tetrone
_symmetry_cell_setting           monoclinic
_symmetry_space_group_name_H-M   'C 2/c'
_symmetry_Int_Tables_number      15
_space_group_name_Hall           '-C 2yn'
loop_
_symmetry_equiv_pos_site_id
_symmetry_equiv_pos_as_xyz
1 x,y,z
2 -x,y,1/2-z
3 1/2+x,1/2+y,z
4 1/2-x,1/2+y,1/2-z
5 -x,-y,-z
6 x,-y,1/2+z
7 1/2-x,1/2-y,-z
8 1/2+x,1/2-y,1/2+z
_cell_length_a                   49.459(10)
_cell_length_b                   6.8564(14)
_cell_length_c                   19.281(4)
_cell_angle_alpha                90
_cell_angle_beta                 91.93(3)
_cell_angle_gamma                90
_cell_volume                     6534.68
_cell_formula_units_Z            8
loop_
_atom_site_label
_atom_site_type_symbol
_atom_site_fract_x
_atom_site_fract_y
_atom_site_fract_z
O1 O 0.09847(3) 0.6756(2) -0.00888(8)
O2 O 0.06590(4) 0.8049(3) -0.13288(10)
O3 O 0.01884(4) 0.5189(3) -0.16067(11)
O4 O 0.00717(4) 0.1554(3) -0.07465(11)
O5 O 0.09857(3) 0.1625(3) -0.05251(8)
O6 O 0.05023(3) 0.1642(3) 0.14558(9)
O7 O 0.20051(3) 0.3289(3) 0.11564(8)
O8 O 0.15234(3) 0.3306(2) 0.31434(8)
O9 O 0.25236(3) 0.2798(3) 0.29657(9)
O10 O 0.18525(4) 0.7205(3) 0.39812(10)
O11 O 0.15146(3) 0.8223(2) 0.26939(8)
N1 N 0.06846(4) 0.1491(3) 0.03674(10)
N2 N 0.18249(4) 0.3423(3) 0.22482(9)
C1 C 0.10421(5) 0.6505(4) -0.08112(12)
H1 H 0.1159 0.5383 -0.0867
H2 H 0.1135 0.7648 -0.0981
C2 C 0.07815(5) 0.6209(4) -0.12170(13)
H3 H 0.0816 0.5593 -0.1658
H4 H 0.0662 0.5370 -0.0962
C3 C 0.04388(6) 0.8056(5) -0.18197(15)
H5 H 0.0491 0.7315 -0.2223
H6 H 0.0407 0.9389 -0.1969
C4 C 0.01801(6) 0.7241(5) -0.15695(18)
H7 H 0.0155 0.7646 -0.1094
H8 H 0.0029 0.7729 -0.1854
C5 C -0.00651(6) 0.4314(6) -0.1464(2)
H9 H -0.0196 0.4608 -0.1836
H10 H -0.0132 0.4841 -0.1036
C6 C -0.00335(7) 0.2254(6) -0.1401(2)
H11 H 0.0086 0.1817 -0.1759
H12 H -0.0208 0.1650 -0.1492
C7 C 0.03318(6) 0.2211(5) -0.05383(18)
H13 H 0.0321 0.3497 -0.0332
H14 H 0.0447 0.2284 -0.0935
C8 C 0.04450(5) 0.0775(4) -0.00174(12)
H15 H 0.0306 0.0460 0.0309
H16 H 0.0491 -0.0418 -0.0256
C9 C 0.09384(4) 0.1737(3) 0.00835(12)
C10 C 0.11290(4) 0.2176(3) 0.06796(11)
C11 C 0.14050(4) 0.2512(3) 0.06783(11)
H17 H 0.1502 0.2527 0.0274
C12 C 0.15247(4) 0.2823(3) 0.13301(11)
C13 C 0.18134(5) 0.3201(3) 0.15283(11)
C14 C 0.15710(5) 0.3205(3) 0.25321(11)
C15 C 0.13779(5) 0.2824(3) 0.19361(11)
C16 C 0.11018(4) 0.2496(3) 0.19331(11)
H18 H 0.1004 0.2488 0.2337
C17 C 0.09825(4) 0.2179(3) 0.12840(11)
C18 C 0.06943(5) 0.1749(3) 0.10876(12)
C19 C 0.20727(5) 0.3925(4) 0.26450(12)
H19 H 0.2028 0.4231 0.3119
H20 H 0.2154 0.5074 0.2444
C20 C 0.22742(5) 0.2261(4) 0.26458(15)
H21 H 0.2200 0.1156 0.2890
H22 H 0.2303 0.1863 0.2171
C21 C 0.25585(7) 0.2331(5) 0.36781(16)
H23 H 0.2730 0.1667 0.3748
H24 H 0.2417 0.1429 0.3803
C22 C 0.25525(6) 0.4001(5) 0.41420(15)
H25 H 0.2612 0.5190 0.3921
H26 H 0.2658 0.3783 0.4569
C23 C 0.21979(7) 0.5680(6) 0.46636(17)
H27 H 0.2369 0.6035 0.4890
H28 H 0.2082 0.5242 0.5028
O12 O 0.22514(5) 0.3999(4) 0.42554(14)
C24 C 0.20811(6) 0.7470(5) 0.44044(16)
H29 H 0.2035 0.8281 0.4795
H30 H 0.2216 0.8164 0.4146
C25 C 0.17205(6) 0.8977(4) 0.37979(13)
H31 H 0.1835 0.9755 0.3508
H32 H 0.1684 0.9720 0.4212
C26 C 0.14618(5) 0.8501(4) 0.34145(12)
H33 H 0.1384 0.7323 0.3603
H34 H 0.1333 0.9556 0.3466
C27 C 0.12942(5) 0.7863(3) 0.22631(12)
C28 C 0.10327(5) 0.7707(3) 0.24782(12)
H35 H 0.0995 0.7839 0.2945
C29 C 0.08230(5) 0.7348(4) 0.19832(13)
H36 H 0.0646 0.7242 0.2129
C30 C 0.08721(5) 0.7149(3) 0.12930(12)
H37 H 0.0730 0.6911 0.0976
C31 C 0.11395(4) 0.7306(3) 0.10620(12)
C32 C 0.12025(5) 0.7110(3) 0.03469(12)
C33 C 0.14648(5) 0.7261(3) 0.01378(12)
H38 H 0.1504 0.7116 -0.0328
C34 C 0.16744(5) 0.7637(3) 0.06316(12)
H39 H 0.1851 0.7749 0.0485
C35 C 0.16248(5) 0.7840(3) 0.13211(12)
H40 H 0.1766 0.8089 0.1638
C36 C 0.13567(5) 0.7669(3) 0.15496(12)
C37? C 0.25525(6) 0.4001(5) 0.41420(15)
C38? C 0.21979(7) 0.5680(6) 0.46636(17)
H41? H 0.2482 0.3488 0.4569
H42? H 0.2741 0.4296 0.4246
H43? H 0.2080 0.4557 0.4609
H44? H 0.2273 0.5770 0.5134
O13? O 0.24262(11) 0.5861(8) 0.4059(3)
loop_
_geom_bond_atom_site_label_1
_geom_bond_atom_site_label_2
_geom_bond_site_symmetry_1
_geom_bond_site_symmetry_2
O1 C1 1_555 1_555
O2 C2 1_555 1_555
O3 C4 1_555 1_555
O4 C6 1_555 1_555
O5 C9 1_555 1_555
O6 C18 1_555 1_555
O7 C13 1_555 1_555
O8 C14 1_555 1_555
O9 C20 1_555 1_555
O10 C24 1_555 1_555
O11 C26 1_555 1_555
N1 C8 1_555 1_555
N2 C13 1_555 1_555
C1 H1 1_555 1_555
H2 C1 1_555 1_555
C2 C1 1_555 1_555
H3 C2 1_555 1_555
H4 C2 1_555 1_555
C3 O2 1_555 1_555
H5 C3 1_555 1_555
H6 C3 1_555 1_555
C4 C3 1_555 1_555
H7 C4 1_555 1_555
H8 C4 1_555 1_555
C5 O3 1_555 1_555
H9 C5 1_555 1_555
H10 C5 1_555 1_555
C6 C5 1_555 1_555
H11 C6 1_555 1_555
H12 C6 1_555 1_555
C7 O4 1_555 1_555
H13 C7 1_555 1_555
H14 C7 1_555 1_555
C8 C7 1_555 1_555
H15 C8 1_555 1_555
H16 C8 1_555 1_555
C9 N1 1_555 1_555
C10 C9 1_555 1_555
C11 C10 1_555 1_555
H17 C11 1_555 1_555
C12 C11 1_555 1_555
C13 C12 1_555 1_555
C14 N2 1_555 1_555
C15 C12 1_555 1_555
C16 C15 1_555 1_555
H18 C16 1_555 1_555
C17 C10 1_555 1_555
C18 N1 1_555 1_555
C19 N2 1_555 1_555
H19 C19 1_555 1_555
H20 C19 1_555 1_555
C20 C19 1_555 1_555
H21 C20 1_555 1_555
H22 C20 1_555 1_555
C21 O9 1_555 1_555
H23 C21 1_555 1_555
H24 C21 1_555 1_555
C22 C21 1_555 1_555
H25 C22 1_555 1_555
H26 C22 1_555 1_555
C23 H27 1_555 1_555
H28 C23 1_555 1_555
O12 C22 1_555 1_555
C24 C23 1_555 1_555
H29 C24 1_555 1_555
H30 C24 1_555 1_555
C25 O10 1_555 1_555
H31 C25 1_555 1_555
H32 C25 1_555 1_555
C26 C25 1_555 1_555
H33 C26 1_555 1_555
H34 C26 1_555 1_555
C27 O11 1_555 1_555
C28 C27 1_555 1_555
H35 C28 1_555 1_555
C29 C28 1_555 1_555
H36 C29 1_555 1_555
C30 C29 1_555 1_555
H37 C30 1_555 1_555
C31 C30 1_555 1_555
C32 O1 1_555 1_555
C33 C32 1_555 1_555
H38 C33 1_555 1_555
C34 C33 1_555 1_555
H39 C34 1_555 1_555
C35 C34 1_555 1_555
H40 C35 1_555 1_555
C36 C27 1_555 1_555
C14 C15 1_555 1_555
C16 C17 1_555 1_555
C17 C18 1_555 1_555
C23 O12 1_555 1_555
C31 C32 1_555 1_555
C31 C36 1_555 1_555
C35 C36 1_555 1_555

#END
