
#######################################################################
#
#                 Cambridge Crystallographic Data Centre
#                                CCDC 
#
#######################################################################
#
# If this CIF has been generated from an entry in the Cambridge 
# Structural Database, then it will include bibliographic, chemical, 
# crystal, experimental, refinement or atomic coordinate data resulting 
# from the CCDC's data processing and validation procedures.
#
#######################################################################

data_YECREF
_chemical_formula_moiety         'C29 H38 O1 P1 Si1 1+,I1 1-'
_chemical_name_systematic        
'(2-((t-Butyl(dimethyl)silyl)oxy)-2-cyclopropylethyl)(triphenyl)phosphonium iodide'
_symmetry_cell_setting           monoclinic
_symmetry_space_group_name_H-M   'P 21/n'
_symmetry_Int_Tables_number      14
_space_group_name_Hall           '-P 2yn'
loop_
_symmetry_equiv_pos_site_id
_symmetry_equiv_pos_as_xyz
1 x,y,z
2 1/2-x,1/2+y,1/2-z
3 -x,-y,-z
4 1/2+x,1/2-y,1/2+z
_cell_length_a                   13.6074(2)
_cell_length_b                   13.0416(2)
_cell_length_c                   17.0381(2)
_cell_angle_alpha                90
_cell_angle_beta                 95.5280(10)
_cell_angle_gamma                90
_cell_volume                     3009.56
_exptl_crystal_colour            colorless
_exptl_crystal_description       block
_cell_formula_units_Z            4
loop_
_atom_site_label
_atom_site_type_symbol
_atom_site_fract_x
_atom_site_fract_y
_atom_site_fract_z
I1 I 0.75439(3) 0.60448(3) 0.14036(2)
Si1 Si 1.08119(9) 0.16697(10) 0.16031(8)
P1 P 0.76416(8) 0.23580(8) 0.09357(6)
O1 O 0.97156(19) 0.2028(2) 0.18399(18)
C1 C 0.9281(3) 0.2994(3) 0.1984(2)
H1 H 0.9476 0.3491 0.1597
C2 C 0.9564(3) 0.3402(4) 0.2794(3)
H2 H 0.9459 0.2936 0.3229
C3 C 1.0414(4) 0.4106(4) 0.2934(3)
H3 H 1.0822 0.4048 0.3431
H4 H 1.0769 0.4286 0.2486
C4 C 0.9413(4) 0.4510(4) 0.2952(3)
H5 H 0.9149 0.4937 0.2515
H6 H 0.9202 0.4698 0.3461
C5 C 1.1546(5) 0.1120(5) 0.2476(4)
C6 C 1.1874(6) 0.1991(6) 0.3093(4)
H7 H 1.2243 0.1692 0.3545
H8 H 1.1299 0.2327 0.3255
H9 H 1.2279 0.2481 0.2854
C7 C 1.0937(3) 0.0358(3) 0.2875(2)
H10 H 1.1322 0.0079 0.3327
H11 H 1.0737 -0.0185 0.2514
H12 H 1.0363 0.0692 0.3040
C8 C 1.2461(3) 0.0578(3) 0.2207(2)
H13 H 1.2840 0.0284 0.2655
H14 H 1.2859 0.1066 0.1959
H15 H 1.2255 0.0045 0.1838
C9 C 1.0596(3) 0.0638(3) 0.0859(2)
H16 H 1.0258 0.0078 0.1081
H17 H 1.1217 0.0403 0.0705
H18 H 1.0200 0.0898 0.0406
C10 C 1.1454(4) 0.2752(5) 0.1178(4)
H19 H 1.1556 0.3289 0.1562
H20 H 1.1059 0.3006 0.0722
H21 H 1.2080 0.2524 0.1028
C11 C 0.8159(3) 0.2856(3) 0.1870(2)
H22 H 0.7856 0.3517 0.1950
H23 H 0.7971 0.2401 0.2281
C12 C 0.6375(3) 0.2755(3) 0.0812(3)
C13 C 0.5782(4) 0.2477(4) 0.1393(3)
H24 H 0.6047 0.2132 0.1843
C14 C 0.4776(4) 0.2722(5) 0.1293(4)
H25 H 0.4370 0.2549 0.1682
C15 C 0.4393(4) 0.3208(5) 0.0635(4)
H26 H 0.3720 0.3347 0.0569
C16 C 0.4961(4) 0.3497(5) 0.0071(4)
H27 H 0.4683 0.3842 -0.0374
C17 C 0.5980(4) 0.3277(4) 0.0156(3)
H28 H 0.6379 0.3482 -0.0228
C18 C 0.7600(3) 0.0988(3) 0.0871(3)
C19 C 0.7019(4) 0.0566(4) 0.0234(3)
H29 H 0.6679 0.0995 -0.0134
C20 C 0.6944(5) -0.0480(4) 0.0145(4)
H30 H 0.6554 -0.0758 -0.0281
C21 C 0.7438(5) -0.1099(4) 0.0679(4)
H31 H 0.7394 -0.1805 0.0610
C22 C 0.7994(4) -0.0722(4) 0.1309(4)
H32 H 0.8321 -0.1167 0.1673
C23 C 0.8083(3) 0.0354(3) 0.1421(3)
H33 H 0.8461 0.0622 0.1857
C24 C 0.8308(3) 0.2859(3) 0.0167(2)
C25 C 0.8407(4) 0.3914(3) 0.0091(3)
H34 H 0.8080 0.4357 0.0405
C26 C 0.8999(4) 0.4299(4) -0.0460(3)
H35 H 0.9053 0.5005 -0.0523
C27 C 0.9495(4) 0.3669(5) -0.0903(3)
H36 H 0.9907 0.3940 -0.1255
C28 C 0.9399(4) 0.2631(4) -0.0839(3)
H37 H 0.9736 0.2198 -0.1154
C29 C 0.8805(3) 0.2223(4) -0.0311(3)
H38 H 0.8737 0.1516 -0.0275
loop_
_geom_bond_atom_site_label_1
_geom_bond_atom_site_label_2
_geom_bond_site_symmetry_1
_geom_bond_site_symmetry_2
Si1 O1 1_555 1_555
P1 C11 1_555 1_555
O1 C1 1_555 1_555
C1 H1 1_555 1_555
C2 C1 1_555 1_555
H2 C2 1_555 1_555
C3 C2 1_555 1_555
H3 C3 1_555 1_555
H4 C3 1_555 1_555
C4 C2 1_555 1_555
H5 C4 1_555 1_555
H6 C4 1_555 1_555
C5 Si1 1_555 1_555
C6 C5 1_555 1_555
H7 C6 1_555 1_555
H8 C6 1_555 1_555
H9 C6 1_555 1_555
C7 C5 1_555 1_555
H10 C7 1_555 1_555
H11 C7 1_555 1_555
H12 C7 1_555 1_555
C8 C5 1_555 1_555
H13 C8 1_555 1_555
H14 C8 1_555 1_555
H15 C8 1_555 1_555
C9 Si1 1_555 1_555
H16 C9 1_555 1_555
H17 C9 1_555 1_555
H18 C9 1_555 1_555
C10 Si1 1_555 1_555
H19 C10 1_555 1_555
H20 C10 1_555 1_555
H21 C10 1_555 1_555
C11 C1 1_555 1_555
H22 C11 1_555 1_555
H23 C11 1_555 1_555
C12 P1 1_555 1_555
C13 C12 1_555 1_555
H24 C13 1_555 1_555
C14 C13 1_555 1_555
H25 C14 1_555 1_555
C15 C14 1_555 1_555
H26 C15 1_555 1_555
C16 C15 1_555 1_555
H27 C16 1_555 1_555
C17 C12 1_555 1_555
H28 C17 1_555 1_555
C18 P1 1_555 1_555
C19 C18 1_555 1_555
H29 C19 1_555 1_555
C20 C19 1_555 1_555
H30 C20 1_555 1_555
C21 C20 1_555 1_555
H31 C21 1_555 1_555
C22 C21 1_555 1_555
H32 C22 1_555 1_555
C23 C18 1_555 1_555
H33 C23 1_555 1_555
C24 P1 1_555 1_555
C25 C24 1_555 1_555
H34 C25 1_555 1_555
C26 C25 1_555 1_555
H35 C26 1_555 1_555
C27 C26 1_555 1_555
H36 C27 1_555 1_555
C28 C27 1_555 1_555
H37 C28 1_555 1_555
C29 C24 1_555 1_555
H38 C29 1_555 1_555
C3 C4 1_555 1_555
C16 C17 1_555 1_555
C22 C23 1_555 1_555
C28 C29 1_555 1_555

#END
