
#######################################################################
#
#                 Cambridge Crystallographic Data Centre
#                                CCDC 
#
#######################################################################
#
# If this CIF has been generated from an entry in the Cambridge 
# Structural Database, then it will include bibliographic, chemical, 
# crystal, experimental, refinement or atomic coordinate data resulting 
# from the CCDC's data processing and validation procedures.
#
#######################################################################

data_YEDKIC
_chemical_formula_moiety         'C43 H41 B1 N2 O2'
_chemical_name_systematic        
bis(4-Butylphenyl)-(4-(2,6-bis(2-oxyphenyl)pyridylboryl)phenyl)amine
_symmetry_cell_setting           monoclinic
_symmetry_space_group_name_H-M   'P 21/c'
_symmetry_Int_Tables_number      14
_space_group_name_Hall           '-P 2ybc'
loop_
_symmetry_equiv_pos_site_id
_symmetry_equiv_pos_as_xyz
1 x,y,z
2 -x,1/2+y,1/2-z
3 -x,-y,-z
4 x,1/2-y,1/2+z
_cell_length_a                   16.815(3)
_cell_length_b                   10.182(2)
_cell_length_c                   20.772(4)
_cell_angle_alpha                90
_cell_angle_beta                 99.93(3)
_cell_angle_gamma                90
_cell_volume                     3503.1
_exptl_crystal_colour            yellow
_exptl_crystal_description       block
_cell_formula_units_Z            4
_exptl_crystal_recrystallization_method 'diethyl ether/chloroform'
loop_
_atom_site_label
_atom_site_type_symbol
_atom_site_fract_x
_atom_site_fract_y
_atom_site_fract_z
C1 C 0.8328(3) 0.1114(6) 0.23878(19)
H1 H 0.8666 0.0656 0.2126
H2 H 0.7840 0.0602 0.2378
C2 C 0.8835(4) 0.1200(6) 0.3188(2)
H3 H 0.9312 0.1748 0.3217
H4 H 0.8488 0.1558 0.3472
C3 C 0.9077(4) -0.0262(6) 0.3383(3)
H5 H 0.9491 -0.0575 0.3149
H6 H 0.8611 -0.0838 0.3288
C4 C 0.9422(4) -0.0200(7) 0.4184(3)
H7 H 0.9841 0.0449 0.4272
H8 H 0.9635 -0.1043 0.4333
H9 H 0.8989 0.0030 0.4410
B1 B 0.42606(14) 0.8279(2) 0.13738(11)
O1 O 0.41962(8) 0.94760(13) 0.17472(6)
O2 O 0.37834(8) 0.73070(13) 0.16412(6)
N1 N 0.38482(9) 0.85652(15) 0.06323(7)
N2 N 0.75693(10) 0.64195(17) 0.15439(9)
C5 C 0.44471(12) 1.0598(2) 0.15001(10)
C6 C 0.47663(14) 1.1611(2) 0.19098(11)
H10 H 0.4794 1.1515 0.2358
C7 C 0.50320(15) 1.2706(2) 0.16839(12)
H11 H 0.5240 1.3366 0.1974
C8 C 0.50063(14) 1.2884(2) 0.10293(13)
H12 H 0.5212 1.3651 0.0878
C9 C 0.46788(13) 1.1939(2) 0.05931(12)
H13 H 0.4648 1.2077 0.0147
C10 C 0.43898(12) 1.0762(2) 0.08202(10)
C11 C 0.39712(12) 0.9766(2) 0.03748(9)
C12 C 0.36845(13) 0.9997(2) -0.02772(10)
H14 H 0.3768 1.0806 -0.0462
C13 C 0.32793(14) 0.9032(2) -0.06460(10)
H15 H 0.3106 0.9173 -0.1090
C14 C 0.31205(13) 0.7851(2) -0.03756(10)
H16 H 0.2817 0.7214 -0.0628
C15 C 0.34173(12) 0.7623(2) 0.02747(9)
C16 C 0.32798(12) 0.63939(19) 0.06069(10)
C17 C 0.29280(14) 0.5273(2) 0.02619(12)
H17 H 0.2786 0.5313 -0.0191
C18 C 0.27924(17) 0.4139(2) 0.05779(13)
H18 H 0.2574 0.3410 0.0341
C19 C 0.29788(16) 0.4081(2) 0.12400(13)
H19 H 0.2879 0.3315 0.1456
C20 C 0.33153(13) 0.5151(2) 0.15940(12)
H20 H 0.3442 0.5103 0.2047
C21 C 0.34632(12) 0.6284(2) 0.12785(10)
C22 C 0.51712(12) 0.78153(18) 0.13881(9)
C23 C 0.53709(12) 0.66875(19) 0.10718(9)
H21 H 0.4958 0.6225 0.0812
C24 C 0.61518(13) 0.6220(2) 0.11237(11)
H22 H 0.6256 0.5462 0.0903
C25 C 0.67697(12) 0.6881(2) 0.15019(10)
C26 C 0.66108(12) 0.8009(2) 0.18088(10)
H23 H 0.7029 0.8479 0.2057
C27 C 0.58312(13) 0.8447(2) 0.17508(9)
H24 H 0.5739 0.9216 0.1968
C28 C 0.77359(13) 0.5054(2) 0.17282(10)
C29 C 0.72827(14) 0.4358(2) 0.20945(10)
H25 H 0.6843 0.4757 0.2231
C30 C 0.74658(15) 0.3092(2) 0.22624(12)
H26 H 0.7152 0.2633 0.2514
C31 C 0.80946(17) 0.2500(2) 0.20693(12)
C32 C 0.85603(15) 0.3150(2) 0.16911(12)
H27 H 0.8993 0.2726 0.1555
C33 C 0.83856(14) 0.4411(2) 0.15170(11)
H28 H 0.8696 0.4855 0.1257
C34 C 0.82014(13) 0.7320(2) 0.15141(12)
C35 C 0.88792(18) 0.7341(3) 0.19852(17)
H29 H 0.8958 0.6706 0.2312
C36 C 0.94560(19) 0.8336(3) 0.1969(2)
H30 H 0.9891 0.8416 0.2311
C37 C 0.93784(18) 0.9186(3) 0.1452(2)
C38 C 0.87350(16) 0.9127(3) 0.09961(15)
H31 H 0.8683 0.9721 0.0651
C39 C 0.81446(15) 0.8230(2) 0.10110(13)
H32 H 0.7695 0.8224 0.0680
C40 C 1.0767(3) 0.9645(5) 0.1151(2)
H33 H 1.0614 0.9315 0.0709
H34 H 1.1005 0.8932 0.1428
C41 C 1.1410(3) 1.0855(5) 0.1168(2)
H35 H 1.1195 1.1537 0.0860
H36 H 1.1534 1.1233 0.1602
C42 C 1.2171(2) 1.0222(4) 0.09709(19)
H37 H 1.2609 1.0258 0.1334
H38 H 1.2317 1.0693 0.0608
H39 H 1.2060 0.9323 0.0848
C43 C 1.0039(3) 1.0176(4) 0.1395(2)
H40 H 0.9807 1.0873 0.1102
H41 H 1.0216 1.0567 0.1821
loop_
_geom_bond_atom_site_label_1
_geom_bond_atom_site_label_2
_geom_bond_site_symmetry_1
_geom_bond_site_symmetry_2
C1 H1 1_555 1_555
H2 C1 1_555 1_555
C2 C1 1_555 1_555
H3 C2 1_555 1_555
H4 C2 1_555 1_555
C3 C2 1_555 1_555
H5 C3 1_555 1_555
H6 C3 1_555 1_555
C4 C3 1_555 1_555
H7 C4 1_555 1_555
H8 C4 1_555 1_555
H9 C4 1_555 1_555
B1 O1 1_555 1_555
O1 C5 1_555 1_555
O2 B1 1_555 1_555
N1 B1 1_555 1_555
N2 C25 1_555 1_555
C5 C6 1_555 1_555
C6 H10 1_555 1_555
C7 C6 1_555 1_555
H11 C7 1_555 1_555
C8 C7 1_555 1_555
H12 C8 1_555 1_555
C9 C8 1_555 1_555
H13 C9 1_555 1_555
C10 C5 1_555 1_555
C11 N1 1_555 1_555
C12 C11 1_555 1_555
H14 C12 1_555 1_555
C13 C12 1_555 1_555
H15 C13 1_555 1_555
C14 C13 1_555 1_555
H16 C14 1_555 1_555
C15 N1 1_555 1_555
C16 C15 1_555 1_555
C17 C16 1_555 1_555
H17 C17 1_555 1_555
C18 C17 1_555 1_555
H18 C18 1_555 1_555
C19 C18 1_555 1_555
H19 C19 1_555 1_555
C20 C19 1_555 1_555
H20 C20 1_555 1_555
C21 O2 1_555 1_555
C22 B1 1_555 1_555
C23 C22 1_555 1_555
H21 C23 1_555 1_555
C24 C23 1_555 1_555
H22 C24 1_555 1_555
C25 C24 1_555 1_555
C26 C25 1_555 1_555
H23 C26 1_555 1_555
C27 C22 1_555 1_555
H24 C27 1_555 1_555
C28 N2 1_555 1_555
C29 C28 1_555 1_555
H25 C29 1_555 1_555
C30 C29 1_555 1_555
H26 C30 1_555 1_555
C31 C1 1_555 1_555
C32 C31 1_555 1_555
H27 C32 1_555 1_555
C33 C28 1_555 1_555
H28 C33 1_555 1_555
C34 N2 1_555 1_555
C35 C34 1_555 1_555
H29 C35 1_555 1_555
C36 C35 1_555 1_555
H30 C36 1_555 1_555
C37 C36 1_555 1_555
C38 C37 1_555 1_555
H31 C38 1_555 1_555
C39 C34 1_555 1_555
H32 C39 1_555 1_555
C40 H33 1_555 1_555
H34 C40 1_555 1_555
C41 C40 1_555 1_555
H35 C41 1_555 1_555
H36 C41 1_555 1_555
C42 C41 1_555 1_555
H37 C42 1_555 1_555
H38 C42 1_555 1_555
H39 C42 1_555 1_555
C43 C37 1_555 1_555
H40 C43 1_555 1_555
H41 C43 1_555 1_555
C9 C10 1_555 1_555
C10 C11 1_555 1_555
C14 C15 1_555 1_555
C16 C21 1_555 1_555
C20 C21 1_555 1_555
C26 C27 1_555 1_555
C30 C31 1_555 1_555
C32 C33 1_555 1_555
C38 C39 1_555 1_555
C40 C43 1_555 1_555

#END
