
#######################################################################
#
#                 Cambridge Crystallographic Data Centre
#                                CCDC 
#
#######################################################################
#
# If this CIF has been generated from an entry in the Cambridge 
# Structural Database, then it will include bibliographic, chemical, 
# crystal, experimental, refinement or atomic coordinate data resulting 
# from the CCDC's data processing and validation procedures.
#
#######################################################################

data_YEDRII01
_chemical_formula_moiety         'C12 H11 N1 O2'
_chemical_name_systematic        'ethyl 2-cyano-3-phenylacrylate'
_symmetry_cell_setting           triclinic
_symmetry_space_group_name_H-M   'P -1'
_symmetry_Int_Tables_number      2
_space_group_name_Hall           '-P 1'
loop_
_symmetry_equiv_pos_site_id
_symmetry_equiv_pos_as_xyz
1 x,y,z
2 -x,-y,-z
_cell_length_a                   7.4425(3)
_cell_length_b                   7.5450(3)
_cell_length_c                   10.8920(5)
_cell_angle_alpha                100.835(3)
_cell_angle_beta                 96.718(4)
_cell_angle_gamma                113.445(3)
_cell_volume                     538.502
_exptl_crystal_colour            yellow
_exptl_crystal_description       Block
_cell_formula_units_Z            2
loop_
_atom_site_label
_atom_site_type_symbol
_atom_site_fract_x
_atom_site_fract_y
_atom_site_fract_z
C1 C 0.2679(5) 0.8453(5) 0.0496(3)
H1 H 0.3874 0.9126 0.1158
H2 H 0.2624 0.9334 -0.0024
H3 H 0.2691 0.7283 -0.0026
C2 C 0.0936(4) 0.7871(4) 0.1070(3)
H4 H -0.0280 0.7220 0.0407
H5 H 0.0921 0.9043 0.1609
C3 C 0.2061(3) 0.7303(3) 0.3034(2)
C4 C 0.1943(3) 0.5745(3) 0.37233(19)
C5 C 0.0685(3) 0.3722(3) 0.3036(2)
C6 C 0.2996(3) 0.6310(3) 0.4922(2)
C7 C 0.3171(3) 0.5150(3) 0.58161(19)
C8 C 0.4304(4) 0.6210(4) 0.7037(2)
C9 C 0.4529(5) 0.5235(5) 0.7955(3)
C10 C 0.3631(4) 0.3192(5) 0.7664(3)
C11 C 0.2556(4) 0.2115(4) 0.6457(3)
C12 C 0.2325(3) 0.3079(4) 0.5536(3)
H6 H 0.159(4) 0.227(4) 0.474(3)
H7 H 0.203(4) 0.069(4) 0.626(3)
H8 H 0.374(4) 0.250(4) 0.827(3)
H9 H 0.538(5) 0.612(5) 0.877(3)
H10 H 0.487(4) 0.755(4) 0.719(2)
H11 H 0.373(3) 0.766(3) 0.5247(19)
N1 N -0.0345(4) 0.2108(3) 0.2481(2)
O1 O 0.1031(3) 0.6495(2) 0.18363(15)
O2 O 0.2968(3) 0.9061(2) 0.35074(16)
loop_
_geom_bond_atom_site_label_1
_geom_bond_atom_site_label_2
_geom_bond_site_symmetry_1
_geom_bond_site_symmetry_2
C1 H1 1_555 1_555
H2 C1 1_555 1_555
H3 C1 1_555 1_555
C2 C1 1_555 1_555
H4 C2 1_555 1_555
H5 C2 1_555 1_555
C3 C4 1_555 1_555
C4 C5 1_555 1_555
C5 N1 1_555 1_555
C6 C4 1_555 1_555
C7 C6 1_555 1_555
C8 C7 1_555 1_555
C9 C8 1_555 1_555
C10 C9 1_555 1_555
C11 C10 1_555 1_555
C12 C7 1_555 1_555
H6 C12 1_555 1_555
H7 C11 1_555 1_555
H8 C10 1_555 1_555
H9 C9 1_555 1_555
H10 C8 1_555 1_555
H11 C6 1_555 1_555
O1 C2 1_555 1_555
O2 C3 1_555 1_555
C3 O1 1_555 1_555
C11 C12 1_555 1_555

#END
