
#######################################################################
#
#                 Cambridge Crystallographic Data Centre
#                                CCDC 
#
#######################################################################
#
# If this CIF has been generated from an entry in the Cambridge 
# Structural Database, then it will include bibliographic, chemical, 
# crystal, experimental, refinement or atomic coordinate data resulting 
# from the CCDC's data processing and validation procedures.
#
#######################################################################

data_YEDSAD
_chemical_formula_moiety         'C30 H39 N3'
_chemical_name_systematic        
N-(1-(6-(2-((2,6-Dimethylphenyl)amino)propan-2-yl)pyridin-2-yl)ethylidene)-2,6-diisopropylaniline
_symmetry_cell_setting           monoclinic
_symmetry_space_group_name_H-M   'C 2/c'
_symmetry_Int_Tables_number      15
_space_group_name_Hall           '-C 2yn'
loop_
_symmetry_equiv_pos_site_id
_symmetry_equiv_pos_as_xyz
1 x,y,z
2 -x,y,1/2-z
3 1/2+x,1/2+y,z
4 1/2-x,1/2+y,1/2-z
5 -x,-y,-z
6 x,-y,1/2+z
7 1/2-x,1/2-y,-z
8 1/2+x,1/2-y,1/2+z
_cell_length_a                   29.014(6)
_cell_length_b                   8.8416(18)
_cell_length_c                   22.887(5)
_cell_angle_alpha                90
_cell_angle_beta                 115.79(3)
_cell_angle_gamma                90
_cell_volume                     5286.4
_exptl_crystal_colour            yellow
_exptl_crystal_description       block
_cell_formula_units_Z            8
loop_
_atom_site_label
_atom_site_type_symbol
_atom_site_fract_x
_atom_site_fract_y
_atom_site_fract_z
N1 N 0.11294(9) 0.8739(3) 0.00653(11)
N2 N 0.14486(9) 0.7337(3) 0.16551(11)
C1 C 0.10939(11) 0.8554(3) 0.06000(13)
N3 N 0.20064(10) 0.4885(3) 0.30921(12)
C2 C 0.18050(11) 0.6504(3) 0.21178(13)
C3 C 0.08297(12) 1.1190(3) -0.04576(14)
C4 C 0.04101(11) 0.8838(3) -0.10015(14)
C5 C 0.22413(11) 0.5966(3) 0.20676(14)
H1 H 0.2488 0.5408 0.2402
C6 C 0.22984(11) 0.6283(3) 0.15082(13)
H2 H 0.2582 0.5931 0.1460
C7 C 0.15087(10) 0.7629(3) 0.11130(13)
C8 C 0.07729(11) 0.9621(3) -0.04553(13)
C9 C 0.19275(11) 0.7128(3) 0.10244(13)
H3 H 0.1957 0.7357 0.0646
C10 C 0.17409(11) 0.3586(3) 0.31524(13)
C11 C 0.17526(11) 0.3222(3) 0.37540(14)
C12 C 0.14968(11) 0.2614(3) 0.26186(14)
C13 C 0.01558(12) 1.1248(4) -0.15527(15)
H4 H -0.0051 1.1799 -0.1920
C14 C 0.17386(11) 0.6289(3) 0.27464(13)
C15 C 0.20183(13) 0.7634(3) 0.31849(14)
H5 H 0.1972 0.7598 0.3575
H6 H 0.1880 0.8564 0.2960
H7 H 0.2377 0.7580 0.3292
C16 C 0.15250(12) 0.1889(3) 0.38213(15)
H8 H 0.1539 0.1638 0.4223
C17 C 0.12788(12) 0.0933(4) 0.33005(16)
H9 H 0.1124 0.0051 0.3349
C18 C 0.05107(13) 1.1984(4) -0.10163(15)
H10 H 0.0539 1.3031 -0.1025
C19 C 0.11784(12) 0.6302(3) 0.26155(15)
H11 H 0.1004 0.5476 0.2334
H12 H 0.1025 0.7239 0.2413
H13 H 0.1153 0.6198 0.3018
C20 C 0.12636(12) 0.1303(3) 0.26990(15)
H14 H 0.1095 0.0664 0.2347
C21 C 0.15091(13) 0.2909(4) 0.19773(14)
H15 H 0.1307 0.3788 0.1779
H16 H 0.1371 0.2051 0.1698
H17 H 0.1856 0.3076 0.2047
C22 C 0.06806(11) 0.9175(4) 0.07603(14)
H18 H 0.0447 0.9770 0.0403
H19 H 0.0832 0.9798 0.1141
H20 H 0.0499 0.8355 0.0840
C23 C 0.01046(12) 0.9699(4) -0.15486(14)
H21 H -0.0137 0.9216 -0.1915
C24 C 0.20140(14) 0.4233(4) 0.43373(15)
H22 H 0.2378 0.4168 0.4488
H23 H 0.1925 0.3916 0.4676
H24 H 0.1905 0.5259 0.4219
C25 C 0.03647(12) 0.7136(4) -0.09896(14)
H25 H 0.0704 0.6742 -0.0700
C26 C -0.00041(14) 0.6669(4) -0.07039(17)
H26 H 0.0111 0.7088 -0.0276
H27 H -0.0013 0.5586 -0.0681
H28 H -0.0341 0.7042 -0.0976
C27 C 0.12541(13) 1.1992(4) 0.01152(15)
H29 H 0.1290 1.1479 0.0512
C28 C 0.11479(16) 1.3668(4) 0.01805(19)
H30 H 0.1406 1.4058 0.0580
H31 H 0.0818 1.3770 0.0180
H32 H 0.1152 1.4224 -0.0177
C29 C 0.17568(15) 1.1801(4) 0.0064(2)
H33 H 0.1828 1.0744 0.0052
H34 H 0.2029 1.2263 0.0432
H35 H 0.1731 1.2278 -0.0327
C30 C 0.02085(16) 0.6396(4) -0.16518(16)
H36 H -0.0131 0.6712 -0.1942
H37 H 0.0216 0.5316 -0.1605
H38 H 0.0443 0.6695 -0.1825
H39 H 0.2241(12) 0.520(3) 0.3464(15)
loop_
_geom_bond_atom_site_label_1
_geom_bond_atom_site_label_2
_geom_bond_site_symmetry_1
_geom_bond_site_symmetry_2
N1 C1 1_555 1_555
N2 C2 1_555 1_555
C1 C7 1_555 1_555
N3 C10 1_555 1_555
C2 C5 1_555 1_555
C3 C8 1_555 1_555
C4 C8 1_555 1_555
C5 H1 1_555 1_555
C6 C5 1_555 1_555
H2 C6 1_555 1_555
C7 N2 1_555 1_555
C8 N1 1_555 1_555
C9 C6 1_555 1_555
H3 C9 1_555 1_555
C10 C11 1_555 1_555
C11 C16 1_555 1_555
C12 C10 1_555 1_555
C13 H4 1_555 1_555
C14 N3 1_555 1_555
C15 C14 1_555 1_555
H5 C15 1_555 1_555
H6 C15 1_555 1_555
H7 C15 1_555 1_555
C16 H8 1_555 1_555
C17 C16 1_555 1_555
H9 C17 1_555 1_555
C18 C3 1_555 1_555
H10 C18 1_555 1_555
C19 C14 1_555 1_555
H11 C19 1_555 1_555
H12 C19 1_555 1_555
H13 C19 1_555 1_555
C20 C12 1_555 1_555
H14 C20 1_555 1_555
C21 C12 1_555 1_555
H15 C21 1_555 1_555
H16 C21 1_555 1_555
H17 C21 1_555 1_555
C22 C1 1_555 1_555
H18 C22 1_555 1_555
H19 C22 1_555 1_555
H20 C22 1_555 1_555
C23 C4 1_555 1_555
H21 C23 1_555 1_555
C24 C11 1_555 1_555
H22 C24 1_555 1_555
H23 C24 1_555 1_555
H24 C24 1_555 1_555
C25 C4 1_555 1_555
H25 C25 1_555 1_555
C26 C25 1_555 1_555
H26 C26 1_555 1_555
H27 C26 1_555 1_555
H28 C26 1_555 1_555
C27 C3 1_555 1_555
H29 C27 1_555 1_555
C28 C27 1_555 1_555
H30 C28 1_555 1_555
H31 C28 1_555 1_555
H32 C28 1_555 1_555
C29 C27 1_555 1_555
H33 C29 1_555 1_555
H34 C29 1_555 1_555
H35 C29 1_555 1_555
C30 C25 1_555 1_555
H36 C30 1_555 1_555
H37 C30 1_555 1_555
H38 C30 1_555 1_555
H39 N3 1_555 1_555
C2 C14 1_555 1_555
C7 C9 1_555 1_555
C13 C18 1_555 1_555
C13 C23 1_555 1_555
C17 C20 1_555 1_555

#END
