
#######################################################################
#
#                 Cambridge Crystallographic Data Centre
#                                CCDC 
#
#######################################################################
#
# If this CIF has been generated from an entry in the Cambridge 
# Structural Database, then it will include bibliographic, chemical, 
# crystal, experimental, refinement or atomic coordinate data resulting 
# from the CCDC's data processing and validation procedures.
#
#######################################################################

data_YEDTIL
_chemical_formula_moiety         'C6 H4 Br2 Cl1 N1'
_chemical_name_systematic        6-Chloro-2-(dibromomethyl)pyridine
_symmetry_cell_setting           orthorhombic
_symmetry_space_group_name_H-M   'P n m a'
_symmetry_Int_Tables_number      62
_space_group_name_Hall           '-P 2ac 2n'
loop_
_symmetry_equiv_pos_site_id
_symmetry_equiv_pos_as_xyz
1 x,y,z
2 1/2-x,-y,1/2+z
3 -x,1/2+y,-z
4 1/2+x,1/2-y,1/2-z
5 -x,-y,-z
6 1/2+x,y,1/2-z
7 x,1/2-y,z
8 1/2-x,1/2+y,1/2+z
_cell_length_a                   14.839(3)
_cell_length_b                   7.0388(12)
_cell_length_c                   7.9745(14)
_cell_angle_alpha                90
_cell_angle_beta                 90
_cell_angle_gamma                90
_cell_volume                     832.927
_exptl_crystal_colour            colorless
_exptl_crystal_description       block
_cell_formula_units_Z            4
loop_
_atom_site_label
_atom_site_type_symbol
_atom_site_fract_x
_atom_site_fract_y
_atom_site_fract_z
Br1 Br 0.206716(16) 0.02502(4) 0.38211(4)
Cl1 Cl 0.53522(7) 0.2500 0.83011(16)
N1 N 0.39728(18) 0.2500 0.6301(3)
C1 C 0.2573(2) 0.2500 0.4863(4)
H1 H 0.2394 0.2500 0.6046
C2 C 0.3583(2) 0.2500 0.4793(4)
C3 C 0.4869(2) 0.2500 0.6317(5)
C4 C 0.5409(2) 0.2500 0.4931(5)
H2 H 0.6034 0.2500 0.5022
C5 C 0.4990(3) 0.2500 0.3399(5)
H3 H 0.5331 0.2500 0.2421
C6 C 0.4062(2) 0.2500 0.3314(5)
H4 H 0.3768 0.2500 0.2285
Br1F Br 0.206716(16) 0.47498(4) 0.38211(4)
loop_
_geom_bond_atom_site_label_1
_geom_bond_atom_site_label_2
_geom_bond_site_symmetry_1
_geom_bond_site_symmetry_2
Br1 C1 1_555 1_555
Cl1 C3 1_555 1_555
N1 C2 1_555 1_555
C1 H1 1_555 1_555
C2 C1 1_555 1_555
C3 N1 1_555 1_555
C4 C3 1_555 1_555
H2 C4 1_555 1_555
C5 C4 1_555 1_555
H3 C5 1_555 1_555
C6 C2 1_555 1_555
H4 C6 1_555 1_555
Br1F C1 1_555 1_555
C5 C6 1_555 1_555

#END
