
#######################################################################
#
#                 Cambridge Crystallographic Data Centre
#                                CCDC 
#
#######################################################################
#
# If this CIF has been generated from an entry in the Cambridge 
# Structural Database, then it will include bibliographic, chemical, 
# crystal, experimental, refinement or atomic coordinate data resulting 
# from the CCDC's data processing and validation procedures.
#
#######################################################################

data_YEDVAF
_chemical_formula_moiety         'C11 H9 F1 N4 S1'
_chemical_name_systematic        
6-(4-Fluorophenyl)-3-methyl-7H-1,2,4-triazolo(3,4-b)(1,3,4)thiadiazine
_symmetry_cell_setting           monoclinic
_symmetry_space_group_name_H-M   'P 21/n'
_symmetry_Int_Tables_number      14
_space_group_name_Hall           '-P 2yn'
loop_
_symmetry_equiv_pos_site_id
_symmetry_equiv_pos_as_xyz
1 x,y,z
2 1/2-x,1/2+y,1/2-z
3 -x,-y,-z
4 1/2+x,1/2-y,1/2+z
_cell_length_a                   4.0626(5)
_cell_length_b                   25.530(3)
_cell_length_c                   10.5576(12)
_cell_angle_alpha                90
_cell_angle_beta                 96.909(2)
_cell_angle_gamma                90
_cell_volume                     1087.06
_exptl_crystal_colour            colorless
_exptl_crystal_description       block
_cell_formula_units_Z            4
_exptl_crystal_recrystallization_method ethanol
loop_
_atom_site_label
_atom_site_type_symbol
_atom_site_fract_x
_atom_site_fract_y
_atom_site_fract_z
S1 S 0.8735(3) 0.24151(4) 0.72499(11)
F1 F 1.0076(8) 0.03966(10) 0.1569(2)
N1 N 0.7069(8) 0.12193(11) 0.6884(3)
N2 N 0.6314(7) 0.14918(11) 0.7955(3)
N3 N 0.5017(9) 0.16212(14) 0.9870(3)
N4 N 0.6276(9) 0.20906(13) 0.9430(3)
C1 C 0.9444(11) 0.06735(17) 0.2609(3)
C2 C 0.8215(12) 0.04057(16) 0.3574(4)
H1 H 0.7821 0.0047 0.3509
C3 C 0.7578(11) 0.06797(15) 0.4643(4)
H2 H 0.6749 0.0503 0.5307
C4 C 0.8152(9) 0.12138(14) 0.4744(3)
C5 C 0.9368(10) 0.14676(15) 0.3726(3)
H3 H 0.9739 0.1827 0.3770
C6 C 1.0032(11) 0.11961(16) 0.2654(3)
H4 H 1.0860 0.1367 0.1982
C7 C 0.7389(8) 0.14991(13) 0.5889(3)
C8 C 0.6819(10) 0.20808(13) 0.5836(3)
H5 H 0.4453 0.2149 0.5738
H6 H 0.7705 0.2222 0.5094
C9 C 0.7015(9) 0.19973(15) 0.8291(3)
C10 C 0.5113(10) 0.12712(15) 0.8988(3)
C11 C 0.4010(12) 0.07198(16) 0.9011(4)
H7 H 0.3308 0.0643 0.9827
H8 H 0.5812 0.0493 0.8867
H9 H 0.2193 0.0666 0.8354
loop_
_geom_bond_atom_site_label_1
_geom_bond_atom_site_label_2
_geom_bond_site_symmetry_1
_geom_bond_site_symmetry_2
S1 C8 1_555 1_555
F1 C1 1_555 1_555
N1 N2 1_555 1_555
N2 C9 1_555 1_555
N3 N4 1_555 1_555
N4 C9 1_555 1_555
C1 C2 1_555 1_555
C2 H1 1_555 1_555
C3 C2 1_555 1_555
H2 C3 1_555 1_555
C4 C3 1_555 1_555
C5 C4 1_555 1_555
H3 C5 1_555 1_555
C6 C1 1_555 1_555
H4 C6 1_555 1_555
C7 N1 1_555 1_555
C8 C7 1_555 1_555
H5 C8 1_555 1_555
H6 C8 1_555 1_555
C9 S1 1_555 1_555
C10 N2 1_555 1_555
C11 C10 1_555 1_555
H7 C11 1_555 1_555
H8 C11 1_555 1_555
H9 C11 1_555 1_555
N3 C10 1_555 1_555
C4 C7 1_555 1_555
C5 C6 1_555 1_555

#END
