
#######################################################################
#
#                 Cambridge Crystallographic Data Centre
#                                CCDC 
#
#######################################################################
#
# If this CIF has been generated from an entry in the Cambridge 
# Structural Database, then it will include bibliographic, chemical, 
# crystal, experimental, refinement or atomic coordinate data resulting 
# from the CCDC's data processing and validation procedures.
#
#######################################################################

data_YEDYIQ
_chemical_formula_moiety         'C13 H11 N3 O4,H2 O1'
_chemical_name_systematic        
'4-(2-Methoxy-4-nitrophenyldiazenyl)phenol monohydrate'
_symmetry_cell_setting           triclinic
_symmetry_space_group_name_H-M   'P -1'
_symmetry_Int_Tables_number      2
_space_group_name_Hall           '-P 1'
loop_
_symmetry_equiv_pos_site_id
_symmetry_equiv_pos_as_xyz
1 x,y,z
2 -x,-y,-z
_cell_length_a                   7.2392(18)
_cell_length_b                   8.6741(15)
_cell_length_c                   11.066(3)
_cell_angle_alpha                75.286(11)
_cell_angle_beta                 88.505(15)
_cell_angle_gamma                84.737(15)
_cell_volume                     669.249
_exptl_crystal_colour            orange
_chemical_melting_point          '499 K'
_cell_formula_units_Z            2
_exptl_crystal_recrystallization_method toluene
loop_
_atom_site_label
_atom_site_type_symbol
_atom_site_fract_x
_atom_site_fract_y
_atom_site_fract_z
O1 O 0.05712(18) -0.62942(13) 0.85645(10)
H1 H 0.0433 -0.6909 0.8103
O2 O 0.27545(16) 0.06065(12) 0.22128(10)
O3 O 0.4557(2) 0.70362(14) 0.24945(13)
O4 O 0.4171(2) 0.63411(15) 0.07898(11)
N1 N 0.25982(16) -0.00952(14) 0.46748(11)
N2 N 0.23014(17) -0.02976(15) 0.58330(11)
N3 N 0.41916(19) 0.60607(15) 0.19300(13)
C1 C 0.3328(2) 0.26703(18) 0.46383(14)
H4 H 0.3310 0.2437 0.5525
C2 C 0.3694(2) 0.41758(18) 0.39486(14)
H5 H 0.3895 0.4994 0.4349
C3 C 0.3761(2) 0.44652(17) 0.26627(14)
C4 C 0.3471(2) 0.33273(17) 0.20297(14)
H6 H 0.3542 0.3567 0.1144
C5 C 0.30725(19) 0.18181(17) 0.27285(14)
C6 C 0.29842(19) 0.14870(17) 0.40423(13)
C7 C 0.1615(2) -0.30650(17) 0.58683(13)
H7 H 0.1713 -0.2853 0.4985
C8 C 0.1175(2) -0.45451(17) 0.65558(14)
H8 H 0.0960 -0.5349 0.6145
C9 C 0.1046(2) -0.48669(17) 0.78558(13)
C10 C 0.1378(2) -0.36974(19) 0.84615(14)
H9 H 0.1315 -0.3921 0.9347
C11 C 0.1801(2) -0.22087(18) 0.77670(14)
H10 H 0.2015 -0.1405 0.8178
C12 C 0.19181(19) -0.18742(17) 0.64657(13)
C13 C 0.2944(3) 0.0876(2) 0.08859(15)
H11 H 0.2027 0.1739 0.0473
H12 H 0.2740 -0.0106 0.0643
H13 H 0.4195 0.1179 0.0634
O5 O 0.9941(2) 0.17111(15) 0.71625(12)
H2 H 1.078(4) 0.122(4) 0.678(3)
H3 H 0.902(4) 0.121(3) 0.720(2)
loop_
_geom_bond_atom_site_label_1
_geom_bond_atom_site_label_2
_geom_bond_site_symmetry_1
_geom_bond_site_symmetry_2
O1 H1 1_555 1_555
O2 C5 1_555 1_555
O3 N3 1_555 1_555
O4 N3 1_555 1_555
O5 H2 1_555 1_555
H3 O5 1_555 1_555
N1 N2 1_555 1_555
N2 C12 1_555 1_555
N3 C3 1_555 1_555
C1 H4 1_555 1_555
C2 C1 1_555 1_555
H5 C2 1_555 1_555
C3 C2 1_555 1_555
C4 C3 1_555 1_555
H6 C4 1_555 1_555
C5 C4 1_555 1_555
C6 N1 1_555 1_555
C7 H7 1_555 1_555
C8 C7 1_555 1_555
H8 C8 1_555 1_555
C9 O1 1_555 1_555
C10 C9 1_555 1_555
H9 C10 1_555 1_555
C11 C10 1_555 1_555
H10 C11 1_555 1_555
C12 C7 1_555 1_555
C13 O2 1_555 1_555
H11 C13 1_555 1_555
H12 C13 1_555 1_555
H13 C13 1_555 1_555
C1 C6 1_555 1_555
C5 C6 1_555 1_555
C8 C9 1_555 1_555
C11 C12 1_555 1_555

#END
