
#######################################################################
#
#                 Cambridge Crystallographic Data Centre
#                                CCDC 
#
#######################################################################
#
# If this CIF has been generated from an entry in the Cambridge 
# Structural Database, then it will include bibliographic, chemical, 
# crystal, experimental, refinement or atomic coordinate data resulting 
# from the CCDC's data processing and validation procedures.
#
#######################################################################

data_YEFFUN
_chemical_formula_moiety         'C16 H13 N1 O3 Se1'
_chemical_name_systematic        
3-[(2H-1,3-benzodioxol-5-yl)selanyl]-5-methoxy-1H-indole
_symmetry_cell_setting           orthorhombic
_symmetry_space_group_name_H-M   'P b c a'
_symmetry_Int_Tables_number      61
_space_group_name_Hall           '-P 2ac 2ab'
loop_
_symmetry_equiv_pos_site_id
_symmetry_equiv_pos_as_xyz
1 x,y,z
2 1/2-x,-y,1/2+z
3 1/2+x,1/2-y,-z
4 -x,1/2+y,1/2-z
5 -x,-y,-z
6 1/2+x,y,1/2-z
7 1/2-x,1/2+y,z
8 x,1/2-y,1/2+z
_cell_length_a                   11.2923(5)
_cell_length_b                   11.1395(5)
_cell_length_c                   22.6048(7)
_cell_angle_alpha                90
_cell_angle_beta                 90
_cell_angle_gamma                90
_cell_volume                     2843.47
_exptl_crystal_colour            colorless
_exptl_crystal_description       needle
_cell_formula_units_Z            8
loop_
_atom_site_label
_atom_site_type_symbol
_atom_site_fract_x
_atom_site_fract_y
_atom_site_fract_z
Se1 Se 0.81194(3) 0.12566(3) 0.52923(2)
O1 O 0.8043(2) -0.0807(2) 0.77134(10)
O2 O 0.3638(2) 0.0255(2) 0.58095(11)
O3 O 0.3150(2) 0.2159(2) 0.61398(11)
N1 N 1.0487(2) 0.2621(2) 0.64636(12)
H1 H 1.1065 0.3091 0.6552
C1 C 0.9938(3) 0.2567(3) 0.59319(15)
H2 H 1.0135 0.3031 0.5605
C2 C 0.9052(3) 0.1733(3) 0.59450(14)
C3 C 0.9059(3) 0.1221(3) 0.65294(13)
C4 C 0.9970(3) 0.1799(3) 0.68419(15)
C5 C 1.0230(3) 0.1501(3) 0.74213(15)
H3 H 1.0838 0.1881 0.7626
C6 C 0.9556(3) 0.0621(3) 0.76841(14)
H4 H 0.9721 0.0399 0.8072
C7 C 0.8631(3) 0.0052(3) 0.73840(14)
C8 C 0.8362(3) 0.0346(3) 0.68045(13)
H5 H 0.7741 -0.0025 0.6605
C9 C 0.7109(3) -0.1450(3) 0.74316(18)
H6 H 0.7400 -0.1812 0.7075
H7 H 0.6477 -0.0906 0.7337
H8 H 0.6821 -0.2063 0.7693
C10 C 0.6567(3) 0.1618(3) 0.55936(13)
C11 C 0.6274(3) 0.2757(3) 0.57866(15)
H9 H 0.6849 0.3355 0.5786
C12 C 0.5131(4) 0.3028(3) 0.59820(16)
H10 H 0.4933 0.3790 0.6118
C13 C 0.4322(3) 0.2125(3) 0.59642(14)
C14 C 0.4607(3) 0.0996(3) 0.57654(14)
C15 C 0.5725(3) 0.0711(3) 0.55858(13)
H11 H 0.5915 -0.0062 0.5463
C16 C 0.2674(3) 0.1023(3) 0.59722(19)
H12 H 0.2136 0.1118 0.5641
H13 H 0.2238 0.0674 0.6300
loop_
_geom_bond_atom_site_label_1
_geom_bond_atom_site_label_2
_geom_bond_site_symmetry_1
_geom_bond_site_symmetry_2
Se1 C2 1_555 1_555
O1 C7 1_555 1_555
O2 C14 1_555 1_555
O3 C13 1_555 1_555
N1 H1 1_555 1_555
C1 N1 1_555 1_555
H2 C1 1_555 1_555
C2 C1 1_555 1_555
C3 C2 1_555 1_555
C4 N1 1_555 1_555
C5 C4 1_555 1_555
H3 C5 1_555 1_555
C6 C5 1_555 1_555
H4 C6 1_555 1_555
C7 C6 1_555 1_555
C8 C3 1_555 1_555
H5 C8 1_555 1_555
C9 O1 1_555 1_555
H6 C9 1_555 1_555
H7 C9 1_555 1_555
H8 C9 1_555 1_555
C10 Se1 1_555 1_555
C11 C10 1_555 1_555
H9 C11 1_555 1_555
C12 C11 1_555 1_555
H10 C12 1_555 1_555
C13 C12 1_555 1_555
C14 C13 1_555 1_555
C15 C10 1_555 1_555
H11 C15 1_555 1_555
C16 O2 1_555 1_555
H12 C16 1_555 1_555
H13 C16 1_555 1_555
O3 C16 1_555 1_555
C3 C4 1_555 1_555
C7 C8 1_555 1_555
C14 C15 1_555 1_555

#END
