
#######################################################################
#
#                 Cambridge Crystallographic Data Centre
#                                CCDC 
#
#######################################################################
#
# If this CIF has been generated from an entry in the Cambridge 
# Structural Database, then it will include bibliographic, chemical, 
# crystal, experimental, refinement or atomic coordinate data resulting 
# from the CCDC's data processing and validation procedures.
#
#######################################################################

data_YEFFEV
_chemical_formula_moiety         'C18 H15 Cl1 N4 O1 S1'
_chemical_name_systematic        
6-(4-Chlorophenyl)-3-(2-ethoxyphenyl)-7H-1,2,4-triazolo(3,4-b)(1,3,4)thiadiazine
_symmetry_cell_setting           monoclinic
_symmetry_space_group_name_H-M   'P 21/c'
_symmetry_Int_Tables_number      14
_space_group_name_Hall           '-P 2ybc'
loop_
_symmetry_equiv_pos_site_id
_symmetry_equiv_pos_as_xyz
1 x,y,z
2 -x,1/2+y,1/2-z
3 -x,-y,-z
4 x,1/2-y,1/2+z
_cell_length_a                   12.8542(9)
_cell_length_b                   13.3382(11)
_cell_length_c                   10.3438(11)
_cell_angle_alpha                90
_cell_angle_beta                 99.488(2)
_cell_angle_gamma                90
_cell_volume                     1749.2
_exptl_crystal_colour            colorless
_exptl_crystal_description       block
_cell_formula_units_Z            4
_exptl_crystal_recrystallization_method '95% ethanol'
loop_
_atom_site_label
_atom_site_type_symbol
_atom_site_fract_x
_atom_site_fract_y
_atom_site_fract_z
Cl1 Cl 0.21889(8) 1.17908(7) 0.76052(12)
S1 S 0.51427(7) 0.71966(8) 1.23833(10)
O1 O 0.13039(17) 0.62955(19) 1.0077(3)
N1 N 0.33189(19) 0.72352(19) 0.9967(2)
N2 N 0.36048(19) 0.63524(19) 1.0652(3)
N3 N 0.4616(2) 0.5238(2) 1.1801(3)
N4 N 0.3864(2) 0.4732(2) 1.0894(3)
C1 C 0.2621(3) 1.0703(2) 0.8459(4)
C2 C 0.2191(3) 0.9797(3) 0.8029(4)
H1 H 0.1692 0.9760 0.7270
C3 C 0.2505(2) 0.8947(2) 0.8731(3)
H2 H 0.2208 0.8333 0.8449
C4 C 0.3262(2) 0.8987(2) 0.9859(3)
C5 C 0.3696(3) 0.9914(2) 1.0254(3)
H3 H 0.4206 0.9958 1.1002
C6 C 0.3379(3) 1.0772(3) 0.9550(4)
H4 H 0.3677 1.1389 0.9816
C7 C 0.3573(2) 0.8054(2) 1.0600(3)
C8 C 0.4080(3) 0.8090(3) 1.2013(3)
H5 H 0.3552 0.7951 1.2559
H6 H 0.4351 0.8759 1.2221
C9 C 0.4434(2) 0.6191(3) 1.1627(3)
C10 C 0.3274(2) 0.5411(2) 1.0215(3)
C11 C 0.2401(2) 0.5210(2) 0.9144(3)
C12 C 0.1416(3) 0.5664(2) 0.9071(4)
C13 C 0.0621(3) 0.5441(3) 0.8044(4)
H7 H -0.0035 0.5745 0.7996
C14 C 0.0796(3) 0.4769(3) 0.7089(4)
H8 H 0.0258 0.4628 0.6395
C15 C 0.1746(3) 0.4315(3) 0.7157(4)
H9 H 0.1860 0.3860 0.6513
C16 C 0.2545(3) 0.4530(3) 0.8181(4)
H10 H 0.3193 0.4210 0.8225
C17 C 0.0335(3) 0.6837(4) 0.9963(5)
H11 H 0.0194 0.7173 0.9121
H12 H -0.0241 0.6378 1.0019
C18 C 0.0407(5) 0.7549(5) 1.0979(6)
H13 H 0.0490 0.7209 1.1808
H14 H -0.0223 0.7946 1.0869
H15 H 0.1005 0.7975 1.0953
loop_
_geom_bond_atom_site_label_1
_geom_bond_atom_site_label_2
_geom_bond_site_symmetry_1
_geom_bond_site_symmetry_2
Cl1 C1 1_555 1_555
S1 C8 1_555 1_555
O1 C12 1_555 1_555
N1 N2 1_555 1_555
N2 C9 1_555 1_555
N3 N4 1_555 1_555
N4 C10 1_555 1_555
C1 C2 1_555 1_555
C2 H1 1_555 1_555
C3 C2 1_555 1_555
H2 C3 1_555 1_555
C4 C3 1_555 1_555
C5 C4 1_555 1_555
H3 C5 1_555 1_555
C6 C1 1_555 1_555
H4 C6 1_555 1_555
C7 N1 1_555 1_555
C8 C7 1_555 1_555
H5 C8 1_555 1_555
H6 C8 1_555 1_555
C9 S1 1_555 1_555
C10 N2 1_555 1_555
C11 C10 1_555 1_555
C12 C11 1_555 1_555
C13 C12 1_555 1_555
H7 C13 1_555 1_555
C14 C13 1_555 1_555
H8 C14 1_555 1_555
C15 C14 1_555 1_555
H9 C15 1_555 1_555
C16 C11 1_555 1_555
H10 C16 1_555 1_555
C17 O1 1_555 1_555
H11 C17 1_555 1_555
H12 C17 1_555 1_555
C18 C17 1_555 1_555
H13 C18 1_555 1_555
H14 C18 1_555 1_555
H15 C18 1_555 1_555
N3 C9 1_555 1_555
C4 C7 1_555 1_555
C5 C6 1_555 1_555
C15 C16 1_555 1_555

#END
