
#######################################################################
#
#                 Cambridge Crystallographic Data Centre
#                                CCDC 
#
#######################################################################
#
# If this CIF has been generated from an entry in the Cambridge 
# Structural Database, then it will include bibliographic, chemical, 
# crystal, experimental, refinement or atomic coordinate data resulting 
# from the CCDC's data processing and validation procedures.
#
#######################################################################

data_YEFFUL
_chemical_formula_moiety         'C16 H18 F12 Mg1 N2 O4'
_chemical_name_systematic        
bis(1,1,1,5,5,5-Hexafluoro-2,4-pentanedionato-O,O')-(N,N,N',N'-tetramethylethylenediamine-N,N')-magnesium(ii)
_symmetry_cell_setting           monoclinic
_symmetry_space_group_name_H-M   'C 2/c'
_symmetry_Int_Tables_number      15
_space_group_name_Hall           '-C 2yn'
loop_
_symmetry_equiv_pos_site_id
_symmetry_equiv_pos_as_xyz
1 x,y,z
2 1/2+x,1/2+y,z
3 -x,y,1/2-z
4 1/2-x,1/2+y,1/2-z
5 -x,-y,-z
6 1/2-x,1/2-y,-z
7 x,-y,1/2+z
8 1/2+x,1/2-y,1/2+z
_cell_length_a                   9.1241(14)
_cell_length_b                   14.6756(14)
_cell_length_c                   17.772(2)
_cell_angle_alpha                90
_cell_angle_beta                 102.225(3)
_cell_angle_gamma                90
_cell_volume                     2325.74
_exptl_crystal_colour            colorless
_exptl_crystal_description       plate
_chemical_melting_point          61-63deg.C
_cell_formula_units_Z            4
loop_
_atom_site_label
_atom_site_type_symbol
_atom_site_fract_x
_atom_site_fract_y
_atom_site_fract_z
Mg1 Mg 1.0000 0.12757(6) 0.2500
F1 F 1.29531(17) 0.31947(12) 0.43647(11)
F2 F 1.1613(2) 0.41357(10) 0.35973(9)
F3 F 1.11090(18) 0.38771(11) 0.46906(9)
F4 F 0.63251(14) 0.25348(9) 0.42459(8)
F5 F 0.55605(16) 0.16396(16) 0.33043(9)
F6 F 0.68031(18) 0.11185(10) 0.43776(9)
O1 O 1.10657(15) 0.22515(9) 0.32559(8)
O2 O 0.83294(15) 0.13487(9) 0.31026(8)
N1 N 1.11856(18) 0.01340(11) 0.32012(9)
C1 C 1.0535(2) 0.27072(13) 0.37273(11)
C2 C 0.9151(2) 0.26024(13) 0.39315(10)
H1 H 0.8879 0.3000 0.4301
C3 C 0.8163(2) 0.19184(13) 0.35983(10)
C4 C 1.1562(2) 0.34799(16) 0.41054(13)
C5 C 0.6691(2) 0.18092(15) 0.38811(11)
C6 C 1.2823(2) 0.02687(17) 0.33941(14)
H2 H 1.3301 -0.0255 0.3691
H3 H 1.3059 0.0825 0.3701
H4 H 1.3199 0.0325 0.2919
C7 C 1.0820(3) -0.06835(14) 0.27047(13)
H5 H 1.1038 -0.1240 0.3024
H6 H 1.1459 -0.0693 0.2318
C8 C 1.0669(3) 0.00098(16) 0.39293(11)
H7 H 1.1202 -0.0505 0.4215
H8 H 0.9589 -0.0113 0.3815
H9 H 1.0874 0.0565 0.4241
F1B F 0.70469(17) 0.31947(12) 0.06353(11)
F2B F 0.8387(2) 0.41357(10) 0.14027(9)
F3B F 0.88910(18) 0.38771(11) 0.03094(9)
F4B F 1.36749(14) 0.25348(9) 0.07541(8)
F5B F 1.44395(16) 0.16396(16) 0.16957(9)
F6B F 1.31969(18) 0.11185(10) 0.06224(9)
O1B O 0.89343(15) 0.22515(9) 0.17441(8)
O2B O 1.16706(15) 0.13487(9) 0.18974(8)
N1B N 0.88144(18) 0.01340(11) 0.17988(9)
C1B C 0.9465(2) 0.27072(13) 0.12727(11)
C2B C 1.0849(2) 0.26024(13) 0.10685(10)
H1B H 1.1121 0.3000 0.0699
C3B C 1.1837(2) 0.19184(13) 0.14017(10)
C4B C 0.8438(2) 0.34799(16) 0.08946(13)
C5B C 1.3309(2) 0.18092(15) 0.11189(11)
C6B C 0.7177(2) 0.02687(17) 0.16059(14)
H2B H 0.6699 -0.0255 0.1309
H3B H 0.6941 0.0825 0.1299
H4B H 0.6801 0.0325 0.2081
C7B C 0.9180(3) -0.06835(14) 0.22953(13)
H5B H 0.8962 -0.1240 0.1976
H6B H 0.8541 -0.0693 0.2682
C8B C 0.9331(3) 0.00098(16) 0.10707(11)
H7B H 0.8798 -0.0505 0.0785
H8B H 1.0411 -0.0113 0.1185
H9B H 0.9126 0.0565 0.0759
loop_
_geom_bond_atom_site_label_1
_geom_bond_atom_site_label_2
_geom_bond_site_symmetry_1
_geom_bond_site_symmetry_2
Mg1 O1 1_555 1_555
F1 C4 1_555 1_555
F2 C4 1_555 1_555
F3 C4 1_555 1_555
F4 C5 1_555 1_555
F5 C5 1_555 1_555
F6 C5 1_555 1_555
O1 C1 1_555 1_555
O2 Mg1 1_555 1_555
N1 Mg1 1_555 1_555
C1 C2 1_555 1_555
C2 H1 1_555 1_555
C3 O2 1_555 1_555
C4 C1 1_555 1_555
C5 C3 1_555 1_555
C6 N1 1_555 1_555
H2 C6 1_555 1_555
H3 C6 1_555 1_555
H4 C6 1_555 1_555
C7 N1 1_555 1_555
H5 C7 1_555 1_555
H6 C7 1_555 1_555
C8 N1 1_555 1_555
H7 C8 1_555 1_555
H8 C8 1_555 1_555
H9 C8 1_555 1_555
F1B C4B 1_555 1_555
F2B C4B 1_555 1_555
F3B C4B 1_555 1_555
F4B C5B 1_555 1_555
F5B C5B 1_555 1_555
F6B C5B 1_555 1_555
O1B Mg1 1_555 1_555
O2B Mg1 1_555 1_555
N1B Mg1 1_555 1_555
C1B O1B 1_555 1_555
C2B C1B 1_555 1_555
H1B C2B 1_555 1_555
C3B O2B 1_555 1_555
C4B C1B 1_555 1_555
C5B C3B 1_555 1_555
C6B N1B 1_555 1_555
H2B C6B 1_555 1_555
H3B C6B 1_555 1_555
H4B C6B 1_555 1_555
C7B C7 1_555 1_555
H5B C7B 1_555 1_555
H6B C7B 1_555 1_555
C8B N1B 1_555 1_555
H7B C8B 1_555 1_555
H8B C8B 1_555 1_555
H9B C8B 1_555 1_555
C2 C3 1_555 1_555
N1B C7B 1_555 1_555
C2B C3B 1_555 1_555

#END
