
#######################################################################
#
#                 Cambridge Crystallographic Data Centre
#                                CCDC 
#
#######################################################################
#
# If this CIF has been generated from an entry in the Cambridge 
# Structural Database, then it will include bibliographic, chemical, 
# crystal, experimental, refinement or atomic coordinate data resulting 
# from the CCDC's data processing and validation procedures.
#
#######################################################################

data_YEFGEW
_chemical_formula_moiety         'C18 H22 F12 Mg1 N2 O4'
_chemical_name_systematic        
bis(1,1,1,5,5,5-Hexafluoro-2,4-pentanedionato-O,O')-(N,N'-diethyl-N,N'-dimethylethylenediamine-N,N')-magnesium(ii)
_symmetry_cell_setting           monoclinic
_symmetry_space_group_name_H-M   'P 21/c'
_symmetry_Int_Tables_number      14
_space_group_name_Hall           '-P 2ybc'
loop_
_symmetry_equiv_pos_site_id
_symmetry_equiv_pos_as_xyz
1 x,y,z
2 -x,1/2+y,1/2-z
3 -x,-y,-z
4 x,1/2-y,1/2+z
_cell_length_a                   14.241(4)
_cell_length_b                   10.358(3)
_cell_length_c                   18.104(5)
_cell_angle_alpha                90
_cell_angle_beta                 110.074(4)
_cell_angle_gamma                90
_cell_volume                     2508.26
_exptl_crystal_colour            colorless
_exptl_crystal_description       plate
_chemical_melting_point          47-49deg.C
_cell_formula_units_Z            4
loop_
_atom_site_label
_atom_site_type_symbol
_atom_site_fract_x
_atom_site_fract_y
_atom_site_fract_z
Mg1 Mg 0.74994(6) 0.60865(7) 0.64537(5)
F1 F 0.62971(16) 0.2840(2) 0.46071(15)
F2 F 0.7736(2) 0.20504(18) 0.51758(14)
F3 F 0.73993(18) 0.2953(2) 0.40735(12)
F4 F 1.02575(14) 0.7180(2) 0.56335(12)
F5 F 0.95363(16) 0.6519(2) 0.44634(12)
F6 F 0.89593(17) 0.81709(19) 0.48832(14)
F7 F 0.6394(2) 0.8339(4) 0.41355(12)
F8 F 0.5820(2) 1.0028(2) 0.45217(12)
F9 F 0.50091(15) 0.82820(19) 0.43273(11)
F10 F 0.8785(5) 0.9822(6) 0.7811(4)
F11 F 0.7506(6) 1.1156(4) 0.7138(3)
F12 F 0.7282(5) 0.9612(5) 0.7977(4)
O1 O 0.73134(15) 0.44790(17) 0.57598(11)
O2 O 0.86118(14) 0.65763(16) 0.60132(10)
O3 O 0.65275(14) 0.71155(17) 0.55254(10)
O4 O 0.76857(14) 0.77955(16) 0.70513(10)
N1 N 0.85170(18) 0.5096(2) 0.75250(14)
N2 N 0.63210(19) 0.5377(2) 0.69065(14)
C1 C 0.76191(19) 0.4306(2) 0.51966(15)
C2 C 0.8250(2) 0.5084(2) 0.49568(15)
H1 H 0.8381 0.4876 0.4490
C3 C 0.86961(19) 0.6170(2) 0.53914(15)
C4 C 0.7264(2) 0.3029(3) 0.47598(18)
C5 C 0.9370(2) 0.7010(3) 0.50891(18)
C6 C 0.6482(2) 0.8309(2) 0.54458(14)
C7 C 0.6873(2) 0.9245(2) 0.60177(16)
H2 H 0.6763 1.0133 0.5883
C8 C 0.7422(2) 0.8897(2) 0.67827(15)
C9 C 0.5917(3) 0.8757(3) 0.46050(17)
C10 C 0.7740(3) 0.9962(3) 0.74026(18)
C11 C 0.7880(3) 0.4877(5) 0.8011(2)
H3 H 0.7828 0.5688 0.8283
H4 H 0.8196 0.4218 0.8416
C12 C 0.6846(3) 0.4430(4) 0.7518(3)
H5 H 0.6898 0.3601 0.7263
H6 H 0.6449 0.4278 0.7864
C13 C 0.9382(2) 0.5947(3) 0.79466(19)
H7 H 0.9118 0.6761 0.8085
H8 H 0.9736 0.6169 0.7578
C14 C 1.0137(3) 0.5395(4) 0.8687(2)
H9 H 0.9792 0.5103 0.9041
H10 H 1.0627 0.6061 0.8949
H11 H 1.0480 0.4662 0.8550
C15 C 0.8898(3) 0.3867(3) 0.7312(2)
H12 H 0.9248 0.3377 0.7790
H13 H 0.9362 0.4057 0.7031
H14 H 0.8337 0.3356 0.6972
C16 C 0.5475(3) 0.4779(4) 0.6261(2)
H15 H 0.5245 0.5391 0.5815
H16 H 0.5719 0.3992 0.6074
C17 C 0.4612(5) 0.4428(7) 0.6506(4)
H17 H 0.4823 0.3777 0.6923
H18 H 0.4072 0.4079 0.6054
H19 H 0.4374 0.5198 0.6702
C18 C 0.5893(3) 0.6451(4) 0.7230(2)
H20 H 0.5720 0.7178 0.6852
H21 H 0.6392 0.6760 0.7727
F13? F 0.7986(7) 1.1094(7) 0.7056(5)
F14? F 0.7149(7) 1.0152(9) 0.7727(5)
F15? F 0.8529(9) 0.9860(9) 0.7967(6)
F16? F 0.8662(8) 1.0273(9) 0.7652(5)
F17? F 0.7125(7) 1.1013(8) 0.7233(5)
F18? F 0.7624(7) 0.9790(8) 0.8052(5)
C19? C 0.4931(7) 0.5973(10) 0.7385(6)
H22? H 0.4380 0.5888 0.6883
H23? H 0.4749 0.6599 0.7718
H24? H 0.5064 0.5133 0.7650
loop_
_geom_bond_atom_site_label_1
_geom_bond_atom_site_label_2
_geom_bond_site_symmetry_1
_geom_bond_site_symmetry_2
Mg1 O1 1_555 1_555
F1 C4 1_555 1_555
F2 C4 1_555 1_555
F3 C4 1_555 1_555
F4 C5 1_555 1_555
F5 C5 1_555 1_555
F6 C5 1_555 1_555
F7 C9 1_555 1_555
F8 C9 1_555 1_555
F9 C9 1_555 1_555
F10 C10 1_555 1_555
F11 C10 1_555 1_555
F12 C10 1_555 1_555
O1 C1 1_555 1_555
O2 Mg1 1_555 1_555
O3 Mg1 1_555 1_555
O4 Mg1 1_555 1_555
N1 Mg1 1_555 1_555
N2 Mg1 1_555 1_555
C1 C2 1_555 1_555
C2 H1 1_555 1_555
C3 O2 1_555 1_555
C4 C1 1_555 1_555
C5 C3 1_555 1_555
C6 O3 1_555 1_555
C7 C6 1_555 1_555
H2 C7 1_555 1_555
C8 O4 1_555 1_555
C9 C6 1_555 1_555
C10 C8 1_555 1_555
C11 N1 1_555 1_555
H3 C11 1_555 1_555
H4 C11 1_555 1_555
C12 N2 1_555 1_555
H5 C12 1_555 1_555
H6 C12 1_555 1_555
C13 N1 1_555 1_555
H7 C13 1_555 1_555
H8 C13 1_555 1_555
C14 C13 1_555 1_555
H9 C14 1_555 1_555
H10 C14 1_555 1_555
H11 C14 1_555 1_555
C15 N1 1_555 1_555
H12 C15 1_555 1_555
H13 C15 1_555 1_555
H14 C15 1_555 1_555
C16 N2 1_555 1_555
H15 C16 1_555 1_555
H16 C16 1_555 1_555
C17 C16 1_555 1_555
H17 C17 1_555 1_555
H18 C17 1_555 1_555
H19 C17 1_555 1_555
C18 N2 1_555 1_555
H20 C18 1_555 1_555
H21 C18 1_555 1_555
C2 C3 1_555 1_555
C7 C8 1_555 1_555
C11 C12 1_555 1_555

#END
