
#######################################################################
#
#                 Cambridge Crystallographic Data Centre
#                                CCDC 
#
#######################################################################
#
# If this CIF has been generated from an entry in the Cambridge 
# Structural Database, then it will include bibliographic, chemical, 
# crystal, experimental, refinement or atomic coordinate data resulting 
# from the CCDC's data processing and validation procedures.
#
#######################################################################

data_YEFGAS
_chemical_formula_moiety         'C10 H25 N2 1+,C15 H3 F18 Mg1 O6 1-'
_chemical_name_systematic        
"(N,N,N',N'-Tetraethyl-2-aminoethylammonium) tris(1,1,1,5,5,5-hexafluoro-2,4-pentanedionato-O,O')-magnesium(ii)"
_symmetry_cell_setting           monoclinic
_symmetry_space_group_name_H-M   'P 21/n'
_symmetry_Int_Tables_number      14
_space_group_name_Hall           '-P 2yn'
loop_
_symmetry_equiv_pos_site_id
_symmetry_equiv_pos_as_xyz
1 x,y,z
2 1/2-x,1/2+y,1/2-z
3 -x,-y,-z
4 1/2+x,1/2-y,1/2+z
_cell_length_a                   12.170(5)
_cell_length_b                   15.244(6)
_cell_length_c                   19.126(7)
_cell_angle_alpha                90
_cell_angle_beta                 100.156(6)
_cell_angle_gamma                90
_cell_volume                     3492.65
_exptl_crystal_colour            colorless
_exptl_crystal_description       columnar
_chemical_melting_point          80-82deg.C
_cell_formula_units_Z            4
loop_
_atom_site_label
_atom_site_type_symbol
_atom_site_fract_x
_atom_site_fract_y
_atom_site_fract_z
Mg1 Mg 0.72636(8) 0.70691(6) 0.02724(5)
O1 O 0.67688(17) 0.58136(13) -0.00262(11)
O2 O 0.83883(18) 0.65152(13) 0.10711(11)
O3 O 0.84349(17) 0.70397(13) -0.03844(11)
O4 O 0.78635(17) 0.83169(13) 0.05464(10)
O5 O 0.61580(17) 0.76752(13) -0.05198(11)
O6 O 0.60749(18) 0.72513(14) 0.08978(12)
F7 F 0.6746(8) 0.3630(3) 0.0254(3)
F8 F 0.7350(6) 0.4029(4) -0.0666(4)
F9 F 0.5731(4) 0.4396(2) -0.0533(4)
F10 F 0.9542(7) 0.4988(4) 0.2145(4)
F11 F 1.0567(4) 0.5077(4) 0.1340(3)
F12 F 1.0325(5) 0.6204(4) 0.1948(3)
F16 F 0.9144(2) 0.7060(2) -0.16785(15)
F17 F 1.0498(2) 0.6907(2) -0.08218(17)
F18 F 1.0227(2) 0.81240(16) -0.13390(14)
F19 F 0.9183(2) 0.98716(14) 0.09974(12)
F20 F 0.8730(2) 1.03083(12) -0.00679(12)
F21 F 0.7462(2) 1.00431(15) 0.05466(19)
F22 F 0.5864(7) 0.9022(7) -0.1406(5)
F23 F 0.4758(7) 0.9643(7) -0.0770(6)
F24 F 0.4157(8) 0.8546(4) -0.1426(5)
F31 F 0.3824(5) 0.8539(4) 0.1279(3)
F32 F 0.4298(6) 0.7251(4) 0.1637(4)
F33 F 0.5397(6) 0.8365(5) 0.1942(4)
C1 C 0.7275(2) 0.51239(18) 0.01803(15)
C2 C 0.8222(3) 0.5029(2) 0.06984(18)
H1 H 0.8549 0.4465 0.0783
C3 C 0.8704(3) 0.5737(2) 0.10973(16)
C4 C 0.6779(3) 0.4279(2) -0.01798(18)
C5 C 0.9744(3) 0.5536(2) 0.1650(2)
C6 C 0.8934(2) 0.76784(19) -0.05874(15)
C7 C 0.8896(2) 0.85596(18) -0.03808(15)
H2 H 0.9238 0.8997 -0.0623
C8 C 0.8361(2) 0.87979(17) 0.01760(14)
C9 C 0.9697(3) 0.7443(2) -0.11159(18)
C10 C 0.8416(3) 0.9767(2) 0.04040(18)
C11 C 0.5451(2) 0.8233(2) -0.04101(17)
C12 C 0.4986(3) 0.8338(2) 0.0197(2)
H3 H 0.4431 0.8774 0.0205
C13 C 0.5317(3) 0.7816(2) 0.07932(19)
C14 C 0.5077(3) 0.8867(3) -0.1031(2)
C15 C 0.4712(3) 0.7952(3) 0.1420(2)
N1 N -0.0696(2) 0.9125(2) 0.27408(15)
N2 N 0.1330(2) 0.89784(19) 0.23747(13)
C16 C 0.0178(3) 0.8646(3) 0.3260(2)
H4 H 0.0103 0.8005 0.3183
H5 H 0.0086 0.8776 0.3753
C17 C 0.1324(3) 0.8954(3) 0.31383(17)
H6 H 0.1485 0.9545 0.3345
H7 H 0.1908 0.8547 0.3373
C18 C -0.1007(3) 0.9976(3) 0.30475(19)
H8 H -0.0314 1.0304 0.3234
H9 H -0.1385 0.9848 0.3453
C19 C -0.1757(4) 1.0555(3) 0.2529(2)
H10 H -0.1426 1.0639 0.2103
H11 H -0.1842 1.1125 0.2750
H12 H -0.2491 1.0277 0.2398
C20 C -0.1674(3) 0.8520(3) 0.2418(2)
H13 H -0.2163 0.8838 0.2032
H14 H -0.1372 0.8000 0.2207
C21 C 0.1529(3) 0.8095(2) 0.20994(18)
H15 H 0.1188 0.7650 0.2372
H16 H 0.2343 0.7983 0.2177
C22 C 0.1056(3) 0.7988(3) 0.13177(19)
H17 H 0.0243 0.8057 0.1241
H18 H 0.1242 0.7403 0.1161
H19 H 0.1377 0.8434 0.1045
C23 C 0.2146(3) 0.9619(2) 0.21871(19)
H20 H 0.2206 0.9539 0.1682
H21 H 0.2888 0.9495 0.2476
C24 C 0.1843(3) 1.0563(3) 0.2303(2)
H22 H 0.1064 1.0667 0.2081
H23 H 0.2332 1.0952 0.2088
H24 H 0.1936 1.0682 0.2813
C25 C -0.2358(4) 0.8222(3) 0.2953(3)
H25 H -0.1867 0.7962 0.3362
H26 H -0.2902 0.7783 0.2737
H27 H -0.2753 0.8725 0.3111
F1? F 0.5756(15) 0.4161(10) -0.0035(11)
F2? F 0.7310(17) 0.3534(12) 0.0058(13)
F3? F 0.677(2) 0.4253(11) -0.0838(9)
F4? F 0.6106(17) 0.3915(13) 0.0233(12)
F5? F 0.7567(15) 0.3632(10) -0.0205(12)
F6? F 0.624(2) 0.4372(11) -0.0795(9)
F13? F 0.9679(7) 0.4793(5) 0.1994(4)
F14? F 1.0625(5) 0.5522(5) 0.1343(3)
F15? F 0.9899(6) 0.6208(4) 0.2130(4)
F25? F 0.5990(8) 0.9288(8) -0.1219(6)
F26? F 0.4453(10) 0.9515(7) -0.0940(7)
F27? F 0.4515(10) 0.8463(6) -0.1627(6)
F28? F 0.5390(18) 0.8583(9) -0.1598(6)
F29? F 0.541(4) 0.9608(9) -0.0880(10)
F30? F 0.3988(17) 0.888(3) -0.1183(8)
F34? F 0.3616(6) 0.8061(6) 0.1185(4)
F35? F 0.4832(7) 0.7210(6) 0.1852(4)
F36? F 0.5058(7) 0.8615(6) 0.1810(5)
loop_
_geom_bond_atom_site_label_1
_geom_bond_atom_site_label_2
_geom_bond_site_symmetry_1
_geom_bond_site_symmetry_2
Mg1 O1 1_555 1_555
O1 C1 1_555 1_555
O2 Mg1 1_555 1_555
O3 Mg1 1_555 1_555
O4 Mg1 1_555 1_555
O5 Mg1 1_555 1_555
O6 Mg1 1_555 1_555
N1 C16 1_555 1_555
N2 C17 1_555 1_555
F7 C4 1_555 1_555
F8 C4 1_555 1_555
F9 C4 1_555 1_555
F10 C5 1_555 1_555
F11 C5 1_555 1_555
F12 C5 1_555 1_555
F16 C9 1_555 1_555
F17 C9 1_555 1_555
F18 C9 1_555 1_555
F19 C10 1_555 1_555
F20 C10 1_555 1_555
F21 C10 1_555 1_555
F22 C14 1_555 1_555
F23 C14 1_555 1_555
F24 C14 1_555 1_555
F31 C15 1_555 1_555
F32 C15 1_555 1_555
F33 C15 1_555 1_555
C1 C2 1_555 1_555
C2 H1 1_555 1_555
C3 O2 1_555 1_555
C4 C1 1_555 1_555
C5 C3 1_555 1_555
C6 O3 1_555 1_555
C7 C6 1_555 1_555
H2 C7 1_555 1_555
C8 O4 1_555 1_555
C9 C6 1_555 1_555
C10 C8 1_555 1_555
C11 O5 1_555 1_555
C12 C11 1_555 1_555
H3 C12 1_555 1_555
C13 O6 1_555 1_555
C14 C11 1_555 1_555
C15 C13 1_555 1_555
C16 H4 1_555 1_555
H5 C16 1_555 1_555
C17 C16 1_555 1_555
H6 C17 1_555 1_555
H7 C17 1_555 1_555
C18 N1 1_555 1_555
H8 C18 1_555 1_555
H9 C18 1_555 1_555
C19 C18 1_555 1_555
H10 C19 1_555 1_555
H11 C19 1_555 1_555
H12 C19 1_555 1_555
C20 N1 1_555 1_555
H13 C20 1_555 1_555
H14 C20 1_555 1_555
C21 N2 1_555 1_555
H15 C21 1_555 1_555
H16 C21 1_555 1_555
C22 C21 1_555 1_555
H17 C22 1_555 1_555
H18 C22 1_555 1_555
H19 C22 1_555 1_555
C23 N2 1_555 1_555
H20 C23 1_555 1_555
H21 C23 1_555 1_555
C24 C23 1_555 1_555
H22 C24 1_555 1_555
H23 C24 1_555 1_555
H24 C24 1_555 1_555
C25 C20 1_555 1_555
H25 C25 1_555 1_555
H26 C25 1_555 1_555
H27 C25 1_555 1_555
C2 C3 1_555 1_555
C7 C8 1_555 1_555
C12 C13 1_555 1_555

#END
