
#######################################################################
#
#                 Cambridge Crystallographic Data Centre
#                                CCDC 
#
#######################################################################
#
# If this CIF has been generated from an entry in the Cambridge 
# Structural Database, then it will include bibliographic, chemical, 
# crystal, experimental, refinement or atomic coordinate data resulting 
# from the CCDC's data processing and validation procedures.
#
#######################################################################

data_YEFKOK
_chemical_formula_moiety         'C13 H18 O2'
_chemical_name_systematic        
((2R*,4R*,5R*)-5-Methyl-2-phenyltetrahydro-2H-pyran-4-yl)methanol
_symmetry_cell_setting           monoclinic
_symmetry_space_group_name_H-M   'P 21/c'
_symmetry_Int_Tables_number      14
_space_group_name_Hall           '-P 2ybc'
loop_
_symmetry_equiv_pos_site_id
_symmetry_equiv_pos_as_xyz
1 x,y,z
2 -x,1/2+y,1/2-z
3 -x,-y,-z
4 x,1/2-y,1/2+z
_cell_length_a                   9.7060(8)
_cell_length_b                   7.9000(6)
_cell_length_c                   17.0040(11)
_cell_angle_alpha                90
_cell_angle_beta                 119.301(3)
_cell_angle_gamma                90
_cell_volume                     1137.01
_exptl_crystal_colour            colorless
_exptl_crystal_description       parallelepiped
_chemical_melting_point          138-140deg.C
_cell_formula_units_Z            4
loop_
_atom_site_label
_atom_site_type_symbol
_atom_site_fract_x
_atom_site_fract_y
_atom_site_fract_z
O1 O 0.1952(4) 0.8222(3) 0.4198(2)
C1 C 0.1259(5) 0.5382(4) 0.3547(2)
H1 H 0.1210(5) 0.4710(4) 0.3049(2)
O2 O 0.1953(5) 0.1803(4) 0.3883(2)
H2 H 0.1770(5) 0.0837(4) 0.3982(2)
C2 C 0.2589(5) 0.4643(4) 0.4435(2)
H3 H 0.3547(5) 0.4596(4) 0.4380(2)
C3 C 0.3230(4) 0.7629(4) 0.5048(2)
H4 H 0.4221(4) 0.7676(4) 0.5028(2)
C4 C 0.3331(4) 0.8822(4) 0.5765(2)
C5 C 0.2928(5) 0.5817(4) 0.5222(2)
H5 H 0.2036(5) 0.5798(4) 0.5330(2)
H6 H 0.3845(5) 0.5402(4) 0.5761(2)
C6 C 0.2253(6) 0.2860(4) 0.4627(3)
H7 H 0.3153(6) 0.2432(4) 0.5170(3)
H8 H 0.1343(6) 0.2864(4) 0.4719(3)
C7 C 0.1733(6) 0.7166(5) 0.3455(2)
H9 H 0.2709(6) 0.7129(5) 0.3428(2)
H10 H 0.0922(6) 0.7655(5) 0.2895(2)
C8 C 0.4758(5) 0.9597(5) 0.6375(3)
H11 H 0.5667(5) 0.9394(5) 0.6336(3)
C9 C 0.2000(5) 0.9157(5) 0.5839(3)
H12 H 0.1043(5) 0.8660(5) 0.5435(3)
C10 C 0.2068(6) 1.0217(6) 0.6503(3)
H13 H 0.1161(6) 1.0424(6) 0.6544(3)
C11 C 0.4817(6) 1.0671(6) 0.7040(3)
H14 H 0.5764(6) 1.1190(6) 0.7441(3)
C12 C 0.3479(6) 1.0970(7) 0.7108(3)
H15 H 0.3526(6) 1.1675(7) 0.7558(3)
C13 C -0.0372(5) 0.5342(6) 0.3469(3)
H16 H -0.0639(5) 0.4198(6) 0.3530(3)
H17 H -0.1138(5) 0.5779(6) 0.2892(3)
H18 H -0.0367(5) 0.6026(6) 0.3938(3)
loop_
_geom_bond_atom_site_label_1
_geom_bond_atom_site_label_2
_geom_bond_site_symmetry_1
_geom_bond_site_symmetry_2
O1 C3 1_555 1_555
C1 H1 1_555 1_555
O2 H2 1_555 1_555
C2 C1 1_555 1_555
H3 C2 1_555 1_555
C3 H4 1_555 1_555
C4 C3 1_555 1_555
C5 C2 1_555 1_555
H5 C5 1_555 1_555
H6 C5 1_555 1_555
C6 O2 1_555 1_555
H7 C6 1_555 1_555
H8 C6 1_555 1_555
C7 O1 1_555 1_555
H9 C7 1_555 1_555
H10 C7 1_555 1_555
C8 C4 1_555 1_555
H11 C8 1_555 1_555
C9 C4 1_555 1_555
H12 C9 1_555 1_555
C10 C9 1_555 1_555
H13 C10 1_555 1_555
C11 C8 1_555 1_555
H14 C11 1_555 1_555
C12 C10 1_555 1_555
H15 C12 1_555 1_555
C13 C1 1_555 1_555
H16 C13 1_555 1_555
H17 C13 1_555 1_555
H18 C13 1_555 1_555
C1 C7 1_555 1_555
C2 C6 1_555 1_555
C3 C5 1_555 1_555
C11 C12 1_555 1_555

#END
