
#######################################################################
#
#                 Cambridge Crystallographic Data Centre
#                                CCDC 
#
#######################################################################
#
# If this CIF has been generated from an entry in the Cambridge 
# Structural Database, then it will include bibliographic, chemical, 
# crystal, experimental, refinement or atomic coordinate data resulting 
# from the CCDC's data processing and validation procedures.
#
#######################################################################

data_YEFMAY
_chemical_formula_moiety         'C13 H16 O4'
_chemical_name_systematic        
'Butyl (E)-3-(3,4-dihydroxyphenyl)prop-2-enoate'
_symmetry_cell_setting           triclinic
_symmetry_space_group_name_H-M   'P -1'
_symmetry_Int_Tables_number      2
_space_group_name_Hall           '-P 1'
loop_
_symmetry_equiv_pos_site_id
_symmetry_equiv_pos_as_xyz
1 x,y,z
2 -x,-y,-z
_cell_length_a                   5.282(5)
_cell_length_b                   10.490(5)
_cell_length_c                   11.558(7)
_cell_angle_alpha                83.95(6)
_cell_angle_beta                 84.31(7)
_cell_angle_gamma                81.14(6)
_cell_volume                     626.998
_exptl_crystal_colour            colorless
_exptl_crystal_description       prism
_chemical_melting_point          '382-385 K'
_cell_formula_units_Z            2
_exptl_crystal_recrystallization_method 'benzene/diethyl ether'
loop_
_atom_site_label
_atom_site_type_symbol
_atom_site_fract_x
_atom_site_fract_y
_atom_site_fract_z
O1 O -0.15551(12) 0.36945(5) 0.48529(5)
H1 H -0.2755 0.3569 0.4487
O2 O 0.22669(12) 0.37670(5) 0.62553(6)
H2 H 0.1505 0.4362 0.5831
O3 O -0.49799(13) -0.29409(6) 0.65183(5)
O4 O -0.24918(12) -0.38693(5) 0.78993(5)
C1 C -0.19922(17) 0.15206(7) 0.56953(7)
H3 H -0.3309 0.1483 0.5228
C2 C -0.08758(16) 0.26280(7) 0.56066(7)
C3 C 0.10893(17) 0.27001(8) 0.63010(8)
C4 C 0.18835(18) 0.16454(9) 0.70642(8)
H4 H 0.3195 0.1686 0.7534
C5 C 0.07701(18) 0.05383(8) 0.71408(8)
H5 H 0.1352 -0.0165 0.7654
C6 C -0.12127(16) 0.04541(7) 0.64627(7)
C7 C -0.24616(17) -0.07016(8) 0.65158(7)
H6 H -0.3770 -0.0660 0.6025
C8 C -0.19545(18) -0.17953(8) 0.71771(7)
H7 H -0.0684 -0.1865 0.7692
C9 C -0.32881(17) -0.28948(7) 0.71378(7)
C10 C -0.37054(19) -0.50276(8) 0.79766(8)
H8 H -0.3443 -0.5405 0.7235
H9 H -0.5539 -0.4824 0.8180
C11 C -0.2466(2) -0.59535(8) 0.89112(8)
H10 H -0.2628 -0.5535 0.9630
H11 H -0.0649 -0.6173 0.8678
C12 C -0.3685(2) -0.71805(9) 0.91283(9)
H12 H -0.5506 -0.6956 0.9351
H13 H -0.3512 -0.7599 0.8409
C13 C -0.2487(3) -0.81213(11) 1.00712(10)
H14 H -0.0686 -0.8352 0.9853
H15 H -0.3306 -0.8886 1.0167
H16 H -0.2709 -0.7724 1.0793
loop_
_geom_bond_atom_site_label_1
_geom_bond_atom_site_label_2
_geom_bond_site_symmetry_1
_geom_bond_site_symmetry_2
O1 H1 1_555 1_555
O2 H2 1_555 1_555
O3 C9 1_555 1_555
O4 C9 1_555 1_555
C1 H3 1_555 1_555
C2 O1 1_555 1_555
C3 O2 1_555 1_555
C4 C3 1_555 1_555
H4 C4 1_555 1_555
C5 C4 1_555 1_555
H5 C5 1_555 1_555
C6 C1 1_555 1_555
C7 C6 1_555 1_555
H6 C7 1_555 1_555
C8 C7 1_555 1_555
H7 C8 1_555 1_555
C9 C8 1_555 1_555
C10 O4 1_555 1_555
H8 C10 1_555 1_555
H9 C10 1_555 1_555
C11 C10 1_555 1_555
H10 C11 1_555 1_555
H11 C11 1_555 1_555
C12 C11 1_555 1_555
H12 C12 1_555 1_555
H13 C12 1_555 1_555
C13 C12 1_555 1_555
H14 C13 1_555 1_555
H15 C13 1_555 1_555
H16 C13 1_555 1_555
C1 C2 1_555 1_555
C2 C3 1_555 1_555
C5 C6 1_555 1_555

#END
