
#######################################################################
#
#                 Cambridge Crystallographic Data Centre
#                                CCDC 
#
#######################################################################
#
# If this CIF has been generated from an entry in the Cambridge 
# Structural Database, then it will include bibliographic, chemical, 
# crystal, experimental, refinement or atomic coordinate data resulting 
# from the CCDC's data processing and validation procedures.
#
#######################################################################

data_YEFNED
_chemical_formula_moiety         'C25 H24 Cl1 N3 O1'
_chemical_name_systematic        
2-Amino-4-(2-chlorophenyl)-7,7-dimethyl-1-(4-methylphenyl)-5-oxo-1,4,5,6,7,8-hexahydroquinoline-3-carbonitrile
_symmetry_cell_setting           monoclinic
_symmetry_space_group_name_H-M   'C c'
_symmetry_Int_Tables_number      9
_space_group_name_Hall           'C -2yc'
loop_
_symmetry_equiv_pos_site_id
_symmetry_equiv_pos_as_xyz
1 x,y,z
2 x,-y,1/2+z
3 1/2+x,1/2+y,z
4 1/2+x,1/2-y,1/2+z
_cell_length_a                   19.541(2)
_cell_length_b                   9.0199(8)
_cell_length_c                   14.8424(16)
_cell_angle_alpha                90
_cell_angle_beta                 124.628(2)
_cell_angle_gamma                90
_cell_volume                     2152.67
_exptl_crystal_colour            yellow
_exptl_crystal_description       block
_chemical_melting_point          '525-527 K'
_cell_formula_units_Z            4
_exptl_crystal_recrystallization_method dimethylformamide
loop_
_atom_site_label
_atom_site_type_symbol
_atom_site_fract_x
_atom_site_fract_y
_atom_site_fract_z
Cl1 Cl 0.11182(3) 0.63285(6) 0.52440(4)
O1 O 0.16847(7) 0.89011(14) 0.38735(10)
N1 N 0.43998(9) 0.69136(15) 0.57710(11)
N2 N 0.49479(9) 0.52581(16) 0.72348(12)
H1 H 0.4908 0.4697 0.7688
H2 H 0.5418 0.5294 0.7283
N3 N 0.34240(10) 0.46284(19) 0.77399(13)
C1 C 0.42815(10) 0.60712(18) 0.64575(14)
C2 C 0.35368(10) 0.60707(18) 0.63348(13)
C3 C 0.27622(10) 0.68359(19) 0.53900(13)
H3 H 0.2501 0.7414 0.5695
C4 C 0.30222(10) 0.79093(19) 0.48522(14)
C5 C 0.37797(10) 0.78864(18) 0.50187(14)
C6 C 0.34704(10) 0.5277(2) 0.71020(14)
C7 C 0.23899(10) 0.89547(18) 0.40799(13)
C8 C 0.26021(12) 1.0085(2) 0.35351(16)
H4 H 0.2327 1.1031 0.3491
H5 H 0.2366 0.9754 0.2776
C9 C 0.35307(11) 1.03799(19) 0.41000(15)
C10 C 0.39848(12) 0.88811(19) 0.43857(16)
H6 H 0.3828 0.8376 0.3701
H7 H 0.4592 0.9058 0.4826
C11 C 0.36675(14) 1.1220(2) 0.33161(18)
H8 H 0.4264 1.1393 0.3674
H9 H 0.3376 1.2174 0.3123
H10 H 0.3450 1.0631 0.2651
C12 C 0.38838(13) 1.1305(2) 0.51343(18)
H11 H 0.3811 1.0772 0.5649
H12 H 0.3590 1.2256 0.4944
H13 H 0.4477 1.1482 0.5474
C13 C 0.21269(10) 0.57131(18) 0.45663(13)
C14 C 0.22888(12) 0.49432(19) 0.38891(15)
H14 H 0.2791 0.5130 0.3947
C15 C 0.17322(13) 0.3916(2) 0.31366(15)
H15 H 0.1850 0.3416 0.2676
C16 C 0.10035(13) 0.3613(2) 0.30533(16)
H16 H 0.0627 0.2892 0.2545
C17 C 0.08261(13) 0.4354(2) 0.37049(17)
H17 H 0.0326 0.4151 0.3649
C18 C 0.13823(11) 0.5404(2) 0.44477(14)
C19 C 0.51664(10) 0.67763(18) 0.58396(13)
C20 C 0.58113(11) 0.77590(18) 0.64816(14)
H18 H 0.5770 0.8466 0.6923
C21 C 0.65187(11) 0.77038(19) 0.64761(15)
H19 H 0.6958 0.8388 0.6908
C22 C 0.65938(11) 0.6666(2) 0.58493(14)
C23 C 0.59529(11) 0.5653(2) 0.52389(15)
H20 H 0.6004 0.4914 0.4825
C24 C 0.52368(11) 0.5712(2) 0.52293(15)
H21 H 0.4799 0.5022 0.4805
C25 C 0.73520(12) 0.6641(2) 0.58194(17)
H22 H 0.7829 0.7043 0.6507
H23 H 0.7249 0.7246 0.5205
H24 H 0.7471 0.5618 0.5727
loop_
_geom_bond_atom_site_label_1
_geom_bond_atom_site_label_2
_geom_bond_site_symmetry_1
_geom_bond_site_symmetry_2
Cl1 C18 1_555 1_555
O1 C7 1_555 1_555
N1 C1 1_555 1_555
N2 H1 1_555 1_555
H2 N2 1_555 1_555
N3 C6 1_555 1_555
C1 N2 1_555 1_555
C2 C1 1_555 1_555
C3 C2 1_555 1_555
H3 C3 1_555 1_555
C4 C3 1_555 1_555
C5 N1 1_555 1_555
C6 C2 1_555 1_555
C7 C4 1_555 1_555
C8 C7 1_555 1_555
H4 C8 1_555 1_555
H5 C8 1_555 1_555
C9 C8 1_555 1_555
C10 C5 1_555 1_555
H6 C10 1_555 1_555
H7 C10 1_555 1_555
C11 C9 1_555 1_555
H8 C11 1_555 1_555
H9 C11 1_555 1_555
H10 C11 1_555 1_555
C12 C9 1_555 1_555
H11 C12 1_555 1_555
H12 C12 1_555 1_555
H13 C12 1_555 1_555
C13 C3 1_555 1_555
C14 C13 1_555 1_555
H14 C14 1_555 1_555
C15 C14 1_555 1_555
H15 C15 1_555 1_555
C16 C15 1_555 1_555
H16 C16 1_555 1_555
C17 C16 1_555 1_555
H17 C17 1_555 1_555
C18 C13 1_555 1_555
C19 N1 1_555 1_555
C20 C19 1_555 1_555
H18 C20 1_555 1_555
C21 C20 1_555 1_555
H19 C21 1_555 1_555
C22 C21 1_555 1_555
C23 C22 1_555 1_555
H20 C23 1_555 1_555
C24 C19 1_555 1_555
H21 C24 1_555 1_555
C25 C22 1_555 1_555
H22 C25 1_555 1_555
H23 C25 1_555 1_555
H24 C25 1_555 1_555
C4 C5 1_555 1_555
C9 C10 1_555 1_555
C17 C18 1_555 1_555
C23 C24 1_555 1_555

#END
