
#######################################################################
#
#                 Cambridge Crystallographic Data Centre
#                                CCDC 
#
#######################################################################
#
# If this CIF has been generated from an entry in the Cambridge 
# Structural Database, then it will include bibliographic, chemical, 
# crystal, experimental, refinement or atomic coordinate data resulting 
# from the CCDC's data processing and validation procedures.
#
#######################################################################

data_YEFPEH
_chemical_formula_moiety         'C10 H9 N3 O3,C2 H4 O2'
_chemical_name_systematic        
'1-((2-hydroxybenzylidene)amino)imidazolidine-2,4-dione acetic acid solvate'
_symmetry_cell_setting           monoclinic
_symmetry_space_group_name_H-M   'P 21/c'
_symmetry_Int_Tables_number      14
_space_group_name_Hall           '-P 2ybc'
loop_
_symmetry_equiv_pos_site_id
_symmetry_equiv_pos_as_xyz
1 x,y,z
2 -x,1/2+y,1/2-z
3 -x,-y,-z
4 x,1/2-y,1/2+z
_cell_length_a                   14.247(12)
_cell_length_b                   7.092(6)
_cell_length_c                   13.302(11)
_cell_angle_alpha                90
_cell_angle_beta                 108.361(11)
_cell_angle_gamma                90
_cell_volume                     1275.61
_cell_formula_units_Z            4
loop_
_atom_site_label
_atom_site_type_symbol
_atom_site_fract_x
_atom_site_fract_y
_atom_site_fract_z
O1 O -0.04854(16) 1.2556(3) 0.09351(17)
O2 O -0.32613(17) 0.9228(3) -0.0663(2)
O3 O 0.1915(2) 0.9973(3) 0.2402(2)
N1 N 0.01586(17) 0.8900(4) 0.13412(18)
N2 N -0.07836(17) 0.9382(4) 0.07708(19)
N3 N -0.20138(18) 1.1269(4) 0.0052(2)
C1 C 0.1429(2) 0.6724(4) 0.2079(2)
C2 C 0.2132(2) 0.8127(5) 0.2486(2)
C3 C 0.3371(2) 0.5769(5) 0.3122(3)
C4 C -0.2397(2) 0.9572(5) -0.0171(3)
C5 C 0.0403(2) 0.7168(5) 0.1494(2)
C6 C -0.1014(2) 1.1229(5) 0.0637(2)
C7 C 0.2684(2) 0.4373(6) 0.2741(3)
C8 C 0.1717(2) 0.4857(5) 0.2225(2)
C9 C 0.3103(2) 0.7613(6) 0.3005(3)
C10 C -0.1599(2) 0.8127(5) 0.0288(3)
H1 H -0.237(3) 1.256(5) -0.015(3)
H2 H 0.359(3) 0.860(5) 0.328(3)
H3 H 0.407(2) 0.548(5) 0.356(2)
H4 H 0.289(3) 0.302(6) 0.289(3)
H5 H 0.126(2) 0.382(4) 0.194(2)
H6 H -0.011(2) 0.617(5) 0.121(2)
H7 H -0.152(2) 0.744(5) -0.030(3)
H8 H -0.176(3) 0.737(5) 0.078(3)
H9 H 0.134(4) 1.021(7) 0.207(4)
O4 O 0.31306(18) 0.5453(4) 0.0383(2)
O5 O 0.44225(18) 0.3697(4) 0.1133(2)
C11 C 0.4002(3) 0.5318(5) 0.0851(3)
C12 C 0.4695(3) 0.6919(5) 0.1166(4)
H10 H 0.4330 0.8058 0.1163
H11 H 0.5062 0.7038 0.0676
H12 H 0.5144 0.6702 0.1865
H13 H 0.405(4) 0.268(8) 0.091(4)
loop_
_geom_bond_atom_site_label_1
_geom_bond_atom_site_label_2
_geom_bond_site_symmetry_1
_geom_bond_site_symmetry_2
O1 C6 1_555 1_555
O2 C4 1_555 1_555
O3 C2 1_555 1_555
N1 N2 1_555 1_555
N2 C6 1_555 1_555
N3 C4 1_555 1_555
C1 C2 1_555 1_555
C2 C9 1_555 1_555
C3 C7 1_555 1_555
C4 C10 1_555 1_555
C5 N1 1_555 1_555
C6 N3 1_555 1_555
C7 C8 1_555 1_555
C8 C1 1_555 1_555
C9 C3 1_555 1_555
C10 N2 1_555 1_555
H1 N3 1_555 1_555
H2 C9 1_555 1_555
H3 C3 1_555 1_555
H4 C7 1_555 1_555
H5 C8 1_555 1_555
H6 C5 1_555 1_555
H7 C10 1_555 1_555
H8 C10 1_555 1_555
H9 O3 1_555 1_555
O4 C11 1_555 1_555
O5 C11 1_555 1_555
C11 C12 1_555 1_555
C12 H10 1_555 1_555
H11 C12 1_555 1_555
H12 C12 1_555 1_555
H13 O5 1_555 1_555
C1 C5 1_555 1_555

#END
