
#######################################################################
#
#                 Cambridge Crystallographic Data Centre
#                                CCDC 
#
#######################################################################
#
# If this CIF has been generated from an entry in the Cambridge 
# Structural Database, then it will include bibliographic, chemical, 
# crystal, experimental, refinement or atomic coordinate data resulting 
# from the CCDC's data processing and validation procedures.
#
#######################################################################

data_YEFSEJ
_chemical_formula_moiety         'C21 H22 Cl1 N1 O4'
_chemical_name_systematic        
'Methyl 6-(4-chlorophenyl)-3-(4-methylphenyl)-4-(nitromethyl)hex-5-enoate'
_symmetry_cell_setting           monoclinic
_symmetry_space_group_name_H-M   'P 21'
_symmetry_Int_Tables_number      4
_space_group_name_Hall           'P 2yb'
loop_
_symmetry_equiv_pos_site_id
_symmetry_equiv_pos_as_xyz
1 x,y,z
2 -x,1/2+y,-z
_cell_length_a                   7.3797(5)
_cell_length_b                   5.6954(4)
_cell_length_c                   23.2777(17)
_cell_angle_alpha                90
_cell_angle_beta                 98.308(5)
_cell_angle_gamma                90
_cell_volume                     968.102
_exptl_crystal_colour            colorless
_exptl_crystal_description       needle
_cell_formula_units_Z            2
loop_
_atom_site_label
_atom_site_type_symbol
_atom_site_fract_x
_atom_site_fract_y
_atom_site_fract_z
C1 C 0.7911(6) 0.2829(7) 0.62052(18)
C2 C 0.7020(5) 0.3906(7) 0.57105(16)
H1 H 0.6424 0.5365 0.5748
C3 C 0.6967(5) 0.2940(7) 0.51667(18)
H2 H 0.6347 0.3715 0.4834
C4 C 0.7833(5) 0.0826(7) 0.51155(17)
C5 C 0.8722(5) -0.0328(8) 0.55963(16)
H3 H 0.9316 -0.1784 0.5553
C6 C 0.8746(6) 0.0629(7) 0.61349(19)
H4 H 0.9330 -0.0189 0.6466
C7 C 0.7901(5) 0.3929(7) 0.67734(16)
H5 H 0.7205 0.5330 0.6778
C8 C 0.8763(5) 0.3183(7) 0.72864(17)
H6 H 0.9542 0.1856 0.7286
C9 C 0.8596(5) 0.4269(7) 0.78581(15)
H7 H 0.7976 0.5823 0.7785
C10 C 1.0504(5) 0.4695(8) 0.82149(17)
H8 H 1.0384 0.4871 0.8631
H9 H 1.1309 0.3332 0.8174
C11 C 0.7417(5) 0.2737(7) 0.82109(17)
H10 H 0.8008 0.1160 0.8275
C12 C 0.5484(5) 0.2405(8) 0.78692(17)
H11 H 0.4643 0.1953 0.8145
H12 H 0.5059 0.3932 0.7696
C13 C 0.5342(6) 0.0601(7) 0.73940(18)
C14 C 0.3770(6) -0.0573(9) 0.64930(15)
H13 H 0.4895 -0.0732 0.6319
H14 H 0.2767 -0.0068 0.6196
H15 H 0.3461 -0.2088 0.6653
C15 C 0.7290(5) 0.3851(7) 0.88056(17)
C16 C 0.8108(5) 0.2795(7) 0.93159(17)
H16 H 0.8728 0.1340 0.9299
C17 C 0.8031(5) 0.3832(7) 0.98479(17)
H17 H 0.8607 0.3085 1.0191
C18 C 0.7120(5) 0.5964(7) 0.98888(17)
C19 C 0.7015(6) 0.7140(8) 1.04651(17)
H18 H 0.7750 0.8580 1.0494
H19 H 0.7489 0.6072 1.0781
H20 H 0.5738 0.7532 1.0493
C20 C 0.6319(6) 0.6999(7) 0.93785(18)
H21 H 0.5695 0.8451 0.9395
C21 C 0.6398(6) 0.5980(7) 0.88430(18)
H22 H 0.5840 0.6740 0.8499
Cl1 Cl 0.78542(14) -0.04063(19) 0.44286(4)
N1 N 1.1339(5) 0.6875(7) 0.80029(17)
O1 O 1.2088(6) 0.6736(8) 0.75840(17)
O2 O 1.1195(5) 0.8716(7) 0.82677(18)
O3 O 0.6241(4) -0.1163(5) 0.74147(12)
O4 O 0.4042(4) 0.1144(5) 0.69497(11)
loop_
_geom_bond_atom_site_label_1
_geom_bond_atom_site_label_2
_geom_bond_site_symmetry_1
_geom_bond_site_symmetry_2
C1 C2 1_555 1_555
C2 H1 1_555 1_555
C3 C2 1_555 1_555
H2 C3 1_555 1_555
C4 C3 1_555 1_555
C5 C4 1_555 1_555
H3 C5 1_555 1_555
C6 C1 1_555 1_555
H4 C6 1_555 1_555
C7 C1 1_555 1_555
H5 C7 1_555 1_555
C8 C7 1_555 1_555
H6 C8 1_555 1_555
C9 C8 1_555 1_555
H7 C9 1_555 1_555
C10 C9 1_555 1_555
H8 C10 1_555 1_555
H9 C10 1_555 1_555
C11 C9 1_555 1_555
H10 C11 1_555 1_555
C12 C11 1_555 1_555
H11 C12 1_555 1_555
H12 C12 1_555 1_555
C13 C12 1_555 1_555
C14 H13 1_555 1_555
H14 C14 1_555 1_555
H15 C14 1_555 1_555
C15 C11 1_555 1_555
C16 C15 1_555 1_555
H16 C16 1_555 1_555
C17 C16 1_555 1_555
H17 C17 1_555 1_555
C18 C17 1_555 1_555
C19 C18 1_555 1_555
H18 C19 1_555 1_555
H19 C19 1_555 1_555
H20 C19 1_555 1_555
C20 C18 1_555 1_555
H21 C20 1_555 1_555
C21 C15 1_555 1_555
H22 C21 1_555 1_555
Cl1 C4 1_555 1_555
N1 C10 1_555 1_555
O1 N1 1_555 1_555
O2 N1 1_555 1_555
O3 C13 1_555 1_555
O4 C13 1_555 1_555
C5 C6 1_555 1_555
C14 O4 1_555 1_555
C20 C21 1_555 1_555

#END
