
#######################################################################
#
#                 Cambridge Crystallographic Data Centre
#                                CCDC 
#
#######################################################################
#
# If this CIF has been generated from an entry in the Cambridge 
# Structural Database, then it will include bibliographic, chemical, 
# crystal, experimental, refinement or atomic coordinate data resulting 
# from the CCDC's data processing and validation procedures.
#
#######################################################################

data_YEFSIN
_chemical_formula_moiety         'C22 H25 N1 O6'
_chemical_name_systematic        
'Methyl 3-(2-methoxyphenyl)-6-(4-methoxyphenyl)-4-(nitromethyl)hex-5-enoate'
_symmetry_cell_setting           monoclinic
_symmetry_space_group_name_H-M   'P 21/n'
_symmetry_Int_Tables_number      14
_space_group_name_Hall           '-P 2yn'
loop_
_symmetry_equiv_pos_site_id
_symmetry_equiv_pos_as_xyz
1 x,y,z
2 1/2-x,1/2+y,1/2-z
3 -x,-y,-z
4 1/2+x,1/2-y,1/2+z
_cell_length_a                   9.4383(8)
_cell_length_b                   9.5427(7)
_cell_length_c                   23.068(2)
_cell_angle_alpha                90
_cell_angle_beta                 92.592(2)
_cell_angle_gamma                90
_cell_volume                     2075.54
_exptl_crystal_colour            colorless
_exptl_crystal_description       block
_cell_formula_units_Z            4
loop_
_atom_site_label
_atom_site_type_symbol
_atom_site_fract_x
_atom_site_fract_y
_atom_site_fract_z
C1 C 0.1855(2) -0.36937(17) 0.35494(9)
H1 H 0.2002 -0.3987 0.3955
H2 H 0.2067 -0.4478 0.3293
H3 H 0.0866 -0.3404 0.3478
C2 C 0.26508(15) -0.14186(14) 0.37877(6)
C3 C 0.37264(15) -0.02979(14) 0.36589(6)
H4 H 0.3710 -0.0127 0.3235
H5 H 0.4687 -0.0632 0.3782
C4 C 0.34213(14) 0.10766(14) 0.39724(6)
H6 H 0.3217 0.0831 0.4382
C5 C 0.21270(14) 0.18531(14) 0.37174(6)
C6 C 0.11989(14) 0.25335(14) 0.40898(6)
C7 C 0.07690(16) 0.32116(16) 0.50674(6)
H7 H 0.0863 0.4202 0.4963
H8 H 0.1166 0.3062 0.5462
H9 H -0.0236 0.2949 0.5048
C8 C 0.00395(15) 0.33054(15) 0.38674(6)
H10 H -0.0574 0.3761 0.4123
C9 C -0.02120(16) 0.34026(16) 0.32691(7)
H11 H -0.1003 0.3923 0.3117
C10 C 0.06840(16) 0.27449(17) 0.28934(6)
H12 H 0.0510 0.2813 0.2486
C11 C 0.18430(15) 0.19822(16) 0.31201(6)
H13 H 0.2456 0.1538 0.2861
C12 C 0.47724(14) 0.20239(14) 0.39970(6)
H14 H 0.5603 0.1429 0.4123
C13 C 0.45832(15) 0.31502(15) 0.44614(6)
H15 H 0.3757 0.3747 0.4350
H16 H 0.4401 0.2698 0.4837
C14 C 0.50736(14) 0.26625(14) 0.34181(6)
H17 H 0.4554 0.3474 0.3300
C15 C 0.60234(14) 0.21608(15) 0.30611(6)
H18 H 0.6556 0.1369 0.3193
C16 C 0.63305(14) 0.27099(14) 0.24832(6)
C17 C 0.73784(15) 0.20551(15) 0.21652(6)
H19 H 0.7848 0.1251 0.2323
C18 C 0.77457(15) 0.25522(15) 0.16270(6)
H20 H 0.8460 0.2093 0.1421
C19 C 0.70600(14) 0.37319(14) 0.13900(6)
C20 C 0.66570(16) 0.52322(15) 0.05705(6)
H21 H 0.5663 0.4932 0.0543
H22 H 0.6995 0.5377 0.0180
H23 H 0.6736 0.6111 0.0789
C21 C 0.59934(14) 0.43900(14) 0.16925(6)
H24 H 0.5512 0.5183 0.1531
C22 C 0.56425(14) 0.38757(15) 0.22324(6)
H25 H 0.4918 0.4327 0.2436
N1 N 0.58915(14) 0.40362(14) 0.45241(6)
O1 O 0.18078(12) -0.13658(12) 0.41613(5)
O2 O 0.27848(13) -0.25281(11) 0.34342(5)
O3 O 0.15191(11) 0.23683(11) 0.46706(4)
O4 O 0.69618(14) 0.34990(16) 0.47410(8)
O5 O 0.58194(16) 0.52494(14) 0.43565(6)
O6 O 0.75023(11) 0.41706(11) 0.08626(4)
loop_
_geom_bond_atom_site_label_1
_geom_bond_atom_site_label_2
_geom_bond_site_symmetry_1
_geom_bond_site_symmetry_2
C1 H1 1_555 1_555
H2 C1 1_555 1_555
H3 C1 1_555 1_555
C2 C3 1_555 1_555
C3 H4 1_555 1_555
H5 C3 1_555 1_555
C4 C3 1_555 1_555
H6 C4 1_555 1_555
C5 C4 1_555 1_555
C6 C5 1_555 1_555
C7 H7 1_555 1_555
H8 C7 1_555 1_555
H9 C7 1_555 1_555
C8 C6 1_555 1_555
H10 C8 1_555 1_555
C9 C8 1_555 1_555
H11 C9 1_555 1_555
C10 C9 1_555 1_555
H12 C10 1_555 1_555
C11 C5 1_555 1_555
H13 C11 1_555 1_555
C12 C4 1_555 1_555
H14 C12 1_555 1_555
C13 C12 1_555 1_555
H15 C13 1_555 1_555
H16 C13 1_555 1_555
C14 C12 1_555 1_555
H17 C14 1_555 1_555
C15 C14 1_555 1_555
H18 C15 1_555 1_555
C16 C15 1_555 1_555
C17 C16 1_555 1_555
H19 C17 1_555 1_555
C18 C17 1_555 1_555
H20 C18 1_555 1_555
C19 C18 1_555 1_555
C20 H21 1_555 1_555
H22 C20 1_555 1_555
H23 C20 1_555 1_555
C21 C19 1_555 1_555
H24 C21 1_555 1_555
C22 C16 1_555 1_555
H25 C22 1_555 1_555
N1 C13 1_555 1_555
O1 C2 1_555 1_555
O2 C1 1_555 1_555
O3 C6 1_555 1_555
O4 N1 1_555 1_555
O5 N1 1_555 1_555
O6 C19 1_555 1_555
C2 O2 1_555 1_555
C7 O3 1_555 1_555
C10 C11 1_555 1_555
C20 O6 1_555 1_555
C21 C22 1_555 1_555

#END
