
#######################################################################
#
#                 Cambridge Crystallographic Data Centre
#                                CCDC 
#
#######################################################################
#
# If this CIF has been generated from an entry in the Cambridge 
# Structural Database, then it will include bibliographic, chemical, 
# crystal, experimental, refinement or atomic coordinate data resulting 
# from the CCDC's data processing and validation procedures.
#
#######################################################################

data_YEFVEL
_chemical_formula_moiety         'C14 H10 F2 N2 O1'
_chemical_name_systematic        '2,4-Difluorobenzaldehyde benzoylhydrazone'
_chemical_properties_biological  'no bactericidal activity'
_symmetry_cell_setting           monoclinic
_symmetry_space_group_name_H-M   'P 21/n'
_symmetry_Int_Tables_number      14
_space_group_name_Hall           '-P 2yn'
loop_
_symmetry_equiv_pos_site_id
_symmetry_equiv_pos_as_xyz
1 x,y,z
2 1/2-x,1/2+y,1/2-z
3 -x,-y,-z
4 1/2+x,1/2-y,1/2+z
_cell_length_a                   10.1310(3)
_cell_length_b                   17.2172(6)
_cell_length_c                   14.4288(5)
_cell_angle_alpha                90
_cell_angle_beta                 103.957(2)
_cell_angle_gamma                90
_cell_volume                     2442.48
_exptl_crystal_colour            colorless
_exptl_crystal_description       lath
_chemical_melting_point          '461-463 K'
_cell_formula_units_Z            8
_exptl_crystal_recrystallization_method methanol/heptane
loop_
_atom_site_label
_atom_site_type_symbol
_atom_site_fract_x
_atom_site_fract_y
_atom_site_fract_z
C1 C 0.99764(19) 0.27524(11) 0.42068(15)
C2 C 1.0390(2) 0.25610(12) 0.33871(15)
F1 F 0.94624(12) 0.25951(8) 0.25303(9)
C3 C 1.1691(2) 0.23343(12) 0.33807(15)
C4 C 1.26080(19) 0.23045(12) 0.42535(16)
F2 F 1.39040(12) 0.20814(8) 0.42768(10)
C5 C 1.2284(2) 0.24928(11) 0.50982(16)
C6 C 1.09665(19) 0.27149(12) 0.50665(15)
C7 C 0.85690(19) 0.29890(11) 0.41486(15)
N1 N 0.81731(15) 0.31313(9) 0.49087(12)
N2 N 0.68381(15) 0.33782(9) 0.47659(12)
C8 C 0.63571(19) 0.35462(11) 0.55360(15)
O1 O 0.70367(13) 0.34086(8) 0.63547(10)
C9 C 0.49811(18) 0.39067(11) 0.53653(15)
C10 C 0.4473(2) 0.40510(12) 0.61610(16)
C11 C 0.3216(2) 0.44082(13) 0.60593(18)
C12 C 0.2462(2) 0.46161(13) 0.51643(18)
C13 C 0.2953(2) 0.44722(12) 0.43656(17)
C14 C 0.42156(19) 0.41249(11) 0.44662(16)
H1 H 1.1941 0.2206 0.2806
H2 H 1.2950 0.2470 0.5687
H3 H 1.0726 0.2846 0.5644
H4 H 0.7947 0.3037 0.3543
H5 H 0.6404 0.3456 0.4167
H6 H 0.4988 0.3905 0.6777
H7 H 0.2876 0.4509 0.6606
H8 H 0.1602 0.4859 0.5096
H9 H 0.2427 0.4611 0.3750
H10 H 0.4560 0.4035 0.3919
C15 C 0.61992(18) 0.07412(11) 0.28898(15)
C16 C 0.61079(19) -0.00380(12) 0.26511(16)
F3 F 0.51203(13) -0.02688(7) 0.18904(11)
C17 C 0.6983(2) -0.05991(12) 0.31253(17)
C18 C 0.8001(2) -0.03505(12) 0.38748(16)
F4 F 0.88836(13) -0.08888(7) 0.43573(10)
C19 C 0.8163(2) 0.04103(13) 0.41593(17)
C20 C 0.7253(2) 0.09501(12) 0.36670(16)
C21 C 0.52320(19) 0.13100(12) 0.23681(15)
N3 N 0.54556(15) 0.20317(10) 0.25460(12)
N4 N 0.44667(15) 0.25306(9) 0.20581(12)
C22 C 0.46447(19) 0.33006(12) 0.22207(14)
O2 O 0.56955(13) 0.35678(8) 0.27418(10)
C23 C 0.34917(19) 0.38236(11) 0.17673(14)
C24 C 0.3717(2) 0.46184(12) 0.18762(16)
C25 C 0.2679(2) 0.51418(13) 0.15371(17)
C26 C 0.1399(2) 0.48801(13) 0.10782(17)
C27 C 0.1168(2) 0.40922(13) 0.09610(17)
C28 C 0.2200(2) 0.35639(12) 0.12975(15)
H11 H 0.6886 -0.1130 0.2943
H12 H 0.8882 0.0562 0.4682
H13 H 0.7346 0.1478 0.3862
H14 H 0.4448 0.1146 0.1903
H15 H 0.3719 0.2359 0.1665
H16 H 0.4595 0.4804 0.2188
H17 H 0.2846 0.5683 0.1620
H18 H 0.0684 0.5239 0.0845
H19 H 0.0289 0.3911 0.0645
H20 H 0.2029 0.3023 0.1208
loop_
_geom_bond_atom_site_label_1
_geom_bond_atom_site_label_2
_geom_bond_site_symmetry_1
_geom_bond_site_symmetry_2
C1 C2 1_555 1_555
C2 F1 1_555 1_555
C3 C2 1_555 1_555
C4 C3 1_555 1_555
F2 C4 1_555 1_555
C5 C4 1_555 1_555
C6 C1 1_555 1_555
C7 C1 1_555 1_555
N1 C7 1_555 1_555
N2 N1 1_555 1_555
C8 N2 1_555 1_555
O1 C8 1_555 1_555
C9 C8 1_555 1_555
C10 C9 1_555 1_555
C11 C10 1_555 1_555
C12 C11 1_555 1_555
C13 C12 1_555 1_555
C14 C9 1_555 1_555
C15 C16 1_555 1_555
C16 F3 1_555 1_555
C17 C16 1_555 1_555
C18 C17 1_555 1_555
F4 C18 1_555 1_555
C19 C18 1_555 1_555
C20 C15 1_555 1_555
C21 C15 1_555 1_555
N3 C21 1_555 1_555
N4 N3 1_555 1_555
C22 N4 1_555 1_555
O2 C22 1_555 1_555
C23 C22 1_555 1_555
C24 C23 1_555 1_555
C25 C24 1_555 1_555
C26 C25 1_555 1_555
C27 C26 1_555 1_555
C28 C23 1_555 1_555
H1 C3 1_555 1_555
H2 C5 1_555 1_555
H3 C6 1_555 1_555
H4 C7 1_555 1_555
H5 N2 1_555 1_555
H6 C10 1_555 1_555
H7 C11 1_555 1_555
H8 C12 1_555 1_555
H9 C13 1_555 1_555
H10 C14 1_555 1_555
H11 C17 1_555 1_555
H12 C19 1_555 1_555
H13 C20 1_555 1_555
H14 C21 1_555 1_555
H15 N4 1_555 1_555
H16 C24 1_555 1_555
H17 C25 1_555 1_555
H18 C26 1_555 1_555
H19 C27 1_555 1_555
H20 C28 1_555 1_555
C5 C6 1_555 1_555
C13 C14 1_555 1_555
C19 C20 1_555 1_555
C27 C28 1_555 1_555

#END
