
#######################################################################
#
#                 Cambridge Crystallographic Data Centre
#                                CCDC 
#
#######################################################################
#
# If this CIF has been generated from an entry in the Cambridge 
# Structural Database, then it will include bibliographic, chemical, 
# crystal, experimental, refinement or atomic coordinate data resulting 
# from the CCDC's data processing and validation procedures.
#
#######################################################################

data_YEFYEO
_chemical_name_common            2-C-Nitromethylisomannide
_chemical_formula_moiety         'C7 H11 N1 O6'
_chemical_name_systematic        2-C-Nitromethyl-1,4:3,6-dianhydromannitol
_symmetry_cell_setting           orthorhombic
_symmetry_space_group_name_H-M   'P 21 21 21'
_symmetry_Int_Tables_number      19
_space_group_name_Hall           'P 2ac 2ab'
loop_
_symmetry_equiv_pos_site_id
_symmetry_equiv_pos_as_xyz
1 x,y,z
2 1/2-x,-y,1/2+z
3 -x,1/2+y,1/2-z
4 1/2+x,1/2-y,-z
_cell_length_a                   5.5093(11)
_cell_length_b                   7.1832(14)
_cell_length_c                   22.380(5)
_cell_angle_alpha                90
_cell_angle_beta                 90
_cell_angle_gamma                90
_cell_volume                     885.675
_exptl_crystal_colour            colorless
_exptl_crystal_description       prismatic
_chemical_melting_point          112-113deg.C
_cell_formula_units_Z            4
_exptl_crystal_recrystallization_method ethanol
loop_
_atom_site_label
_atom_site_type_symbol
_atom_site_fract_x
_atom_site_fract_y
_atom_site_fract_z
O1 O -0.1828(4) 0.2754(3) 0.14126(11)
O2 O 0.3592(4) 0.0505(3) 0.08764(10)
H1 H 0.3119 0.0661 0.0533
O3 O 0.2929(4) 0.4167(3) 0.06368(10)
O4 O -0.2262(5) 0.4420(4) 0.03382(10)
H2 H -0.403(13) 0.423(9) 0.047(3)
O5 O 0.0867(7) -0.1808(5) 0.20954(18)
O6 O 0.4679(9) -0.2000(5) 0.19275(19)
N1 N 0.2806(8) -0.1103(5) 0.19839(13)
C1 C -0.0613(6) 0.1193(5) 0.11459(18)
H3 H -0.0915 0.1152 0.0719
H4 H -0.1167 0.0035 0.1323
C2 C 0.2082(6) 0.1498(4) 0.12722(13)
C3 C 0.2272(6) 0.3642(4) 0.12324(13)
H5 H 0.3397 0.4150 0.1530
C4 C -0.0328(6) 0.4334(5) 0.13287(14)
H6 H -0.0400 0.5140 0.1682
C5 C -0.0902(6) 0.5480(5) 0.07577(15)
H7 H -0.1726 0.6650 0.0856
C6 C 0.1581(6) 0.5830(5) 0.05020(16)
H8 H 0.1494 0.6031 0.0074
H9 H 0.2326 0.6910 0.0687
C7 C 0.2894(7) 0.0958(4) 0.18986(14)
H10 H 0.4538 0.1396 0.1965
H11 H 0.1848 0.1555 0.2190
loop_
_geom_bond_atom_site_label_1
_geom_bond_atom_site_label_2
_geom_bond_site_symmetry_1
_geom_bond_site_symmetry_2
O1 C1 1_555 1_555
O2 H1 1_555 1_555
O3 C3 1_555 1_555
O4 H2 1_555 1_555
O5 N1 1_555 1_555
O6 N1 1_555 1_555
N1 C7 1_555 1_555
C1 H3 1_555 1_555
H4 C1 1_555 1_555
C2 O2 1_555 1_555
C3 C2 1_555 1_555
H5 C3 1_555 1_555
C4 O1 1_555 1_555
H6 C4 1_555 1_555
C5 O4 1_555 1_555
H7 C5 1_555 1_555
C6 O3 1_555 1_555
H8 C6 1_555 1_555
H9 C6 1_555 1_555
C7 C2 1_555 1_555
H10 C7 1_555 1_555
H11 C7 1_555 1_555
C1 C2 1_555 1_555
C3 C4 1_555 1_555
C4 C5 1_555 1_555
C5 C6 1_555 1_555

#END
