
#######################################################################
#
#                 Cambridge Crystallographic Data Centre
#                                CCDC 
#
#######################################################################
#
# If this CIF has been generated from an entry in the Cambridge 
# Structural Database, then it will include bibliographic, chemical, 
# crystal, experimental, refinement or atomic coordinate data resulting 
# from the CCDC's data processing and validation procedures.
#
#######################################################################

data_YEGBOC
_chemical_formula_moiety         'C25 H24 Cl1 N3 O11'
_chemical_name_systematic        
"5'-Chloro-2',7'-dimethyl-6',8'-dioxo-7'-(propanoyloxy)-4,4',5,6',7',8'-hexahydro-2'H,3H-spiro(furan-2,3'-isoquinolin)-4'-yl 3,5-dintrobenzoate"
_symmetry_cell_setting           monoclinic
_symmetry_space_group_name_H-M   'P 21/n'
_symmetry_Int_Tables_number      14
_space_group_name_Hall           '-P 2yn'
loop_
_symmetry_equiv_pos_site_id
_symmetry_equiv_pos_as_xyz
1 x,y,z
2 1/2-x,1/2+y,1/2-z
3 -x,-y,-z
4 1/2+x,1/2-y,1/2+z
_cell_length_a                   12.0794(10)
_cell_length_b                   14.4737(12)
_cell_length_c                   15.1150(13)
_cell_angle_alpha                90
_cell_angle_beta                 94.749(2)
_cell_angle_gamma                90
_cell_volume                     2633.54
_exptl_crystal_colour            colorless
_cell_formula_units_Z            4
loop_
_atom_site_label
_atom_site_type_symbol
_atom_site_fract_x
_atom_site_fract_y
_atom_site_fract_z
Cl1 Cl 0.77058(6) 0.75491(5) 0.76489(5)
O1 O 0.54543(16) 0.80733(15) 0.80880(14)
O2 O 0.36271(15) 0.53490(14) 0.72117(13)
O3 O 0.69055(14) 0.57575(13) 0.51116(11)
O4 O 0.35440(14) 0.70550(13) 0.79669(11)
O5 O 0.37030(15) 0.73868(14) 0.65354(12)
O6 O 0.79958(13) 0.50917(12) 0.73461(11)
O7 O 0.96875(15) 0.57219(15) 0.72404(14)
O8 O 1.26548(17) 0.47971(19) 0.94909(17)
O9 O 1.23383(16) 0.37827(18) 1.04718(15)
O10 O 0.86728(17) 0.27007(16) 1.07255(14)
O11 O 0.73719(17) 0.29652(16) 0.96936(15)
N1 N 0.63005(18) 0.44997(15) 0.58855(14)
N2 N 1.20571(19) 0.4262(2) 0.98322(17)
N3 N 0.8318(2) 0.30510(18) 1.00280(17)
C1 C 0.6510(2) 0.68950(18) 0.74735(16)
C2 C 0.5520(2) 0.7279(2) 0.78410(17)
C3 C 0.4593(2) 0.6581(2) 0.79704(16)
C4 C 0.4502(2) 0.57711(19) 0.73206(17)
C5 C 0.5503(2) 0.55296(19) 0.69083(16)
C6 C 0.6482(2) 0.60932(18) 0.70251(15)
C7 C 0.7488(2) 0.5687(2) 0.66473(17)
C8 C 0.7243(2) 0.51178(19) 0.57990(17)
C9 C 0.5491(2) 0.4769(2) 0.63691(18)
C10 C 0.8279(2) 0.4627(2) 0.55128(18)
H1 H 0.8939 0.4834 0.5867
H2 H 0.8212 0.3963 0.5576
C11 C 0.8332(3) 0.4886(3) 0.4565(2)
H3 H 0.7949 0.4434 0.4176
H4 H 0.9095 0.4936 0.4417
C12 C 0.7758(2) 0.5804(2) 0.44901(19)
H5 H 0.8276 0.6301 0.4647
H6 H 0.7429 0.5905 0.3890
C13 C 0.4810(2) 0.6194(2) 0.89127(17)
H7 H 0.4221 0.5778 0.9034
H8 H 0.4840 0.6692 0.9333
H9 H 0.5504 0.5867 0.8962
C14 C 0.3177(2) 0.7422(2) 0.71781(19)
C15 C 0.2064(3) 0.7866(3) 0.7212(2)
H10 H 0.1747 0.7656 0.7746
H11 H 0.2171 0.8528 0.7266
C16 C 0.1269(3) 0.7694(3) 0.6469(2)
H12 H 0.1131 0.7034 0.6431
H13 H 0.1594 0.7878 0.5931
C17 C 0.0178(2) 0.8181(3) 0.6503(2)
H14 H 0.0278 0.8831 0.6409
H15 H -0.0098 0.8084 0.7073
H16 H -0.0345 0.7941 0.6048
C18 C 0.9084(2) 0.5215(2) 0.75935(18)
C19 C 0.9442(2) 0.46425(18) 0.83877(16)
C20 C 1.0549(2) 0.46913(18) 0.87121(16)
H17 H 1.1051 0.5049 0.8427
C21 C 1.0889(2) 0.42003(19) 0.94630(18)
C22 C 1.0185(2) 0.36555(18) 0.99086(17)
H18 H 1.0433 0.3331 1.0418
C23 C 0.9095(2) 0.36159(18) 0.95612(17)
C24 C 0.8714(2) 0.40951(19) 0.88092(17)
H19 H 0.7974 0.4050 0.8588
C25 C 0.6108(2) 0.3728(2) 0.52599(19)
H20 H 0.5366 0.3499 0.5288
H21 H 0.6630 0.3243 0.5415
H22 H 0.6202 0.3938 0.4668
H23 H 0.4855(18) 0.4395(16) 0.6331(14)
H24 H 0.8010(16) 0.6141(15) 0.6528(13)
loop_
_geom_bond_atom_site_label_1
_geom_bond_atom_site_label_2
_geom_bond_site_symmetry_1
_geom_bond_site_symmetry_2
Cl1 C1 1_555 1_555
O1 C2 1_555 1_555
O2 C4 1_555 1_555
O3 C8 1_555 1_555
O4 C3 1_555 1_555
O5 C14 1_555 1_555
O6 C7 1_555 1_555
O7 C18 1_555 1_555
O8 N2 1_555 1_555
O9 N2 1_555 1_555
O10 N3 1_555 1_555
O11 N3 1_555 1_555
N1 C8 1_555 1_555
N2 C21 1_555 1_555
N3 C23 1_555 1_555
C1 C2 1_555 1_555
C2 C3 1_555 1_555
C3 C4 1_555 1_555
C4 C5 1_555 1_555
C5 C6 1_555 1_555
C6 C1 1_555 1_555
C7 C6 1_555 1_555
C8 C7 1_555 1_555
C9 N1 1_555 1_555
C10 C8 1_555 1_555
H1 C10 1_555 1_555
H2 C10 1_555 1_555
C11 C10 1_555 1_555
H3 C11 1_555 1_555
H4 C11 1_555 1_555
C12 O3 1_555 1_555
H5 C12 1_555 1_555
H6 C12 1_555 1_555
C13 C3 1_555 1_555
H7 C13 1_555 1_555
H8 C13 1_555 1_555
H9 C13 1_555 1_555
C14 O4 1_555 1_555
C15 C14 1_555 1_555
H10 C15 1_555 1_555
H11 C15 1_555 1_555
C16 C15 1_555 1_555
H12 C16 1_555 1_555
H13 C16 1_555 1_555
C17 C16 1_555 1_555
H14 C17 1_555 1_555
H15 C17 1_555 1_555
H16 C17 1_555 1_555
C18 O6 1_555 1_555
C19 C18 1_555 1_555
C20 C19 1_555 1_555
H17 C20 1_555 1_555
C21 C20 1_555 1_555
C22 C21 1_555 1_555
H18 C22 1_555 1_555
C23 C22 1_555 1_555
C24 C19 1_555 1_555
H19 C24 1_555 1_555
C25 N1 1_555 1_555
H20 C25 1_555 1_555
H21 C25 1_555 1_555
H22 C25 1_555 1_555
H23 C9 1_555 1_555
H24 C7 1_555 1_555
C5 C9 1_555 1_555
C11 C12 1_555 1_555
C23 C24 1_555 1_555

#END
