
#######################################################################
#
#                 Cambridge Crystallographic Data Centre
#                                CCDC 
#
#######################################################################
#
# If this CIF has been generated from an entry in the Cambridge 
# Structural Database, then it will include bibliographic, chemical, 
# crystal, experimental, refinement or atomic coordinate data resulting 
# from the CCDC's data processing and validation procedures.
#
#######################################################################

data_YEGBIW
_chemical_formula_moiety         'C25 H24 Cl1 N3 O11'
_chemical_name_systematic        
"5'-Chloro-2',7'-dimethyl-6',8'-dioxo-7'-(propanoyloxy)-4,4',5,6',7',8'-hexahydro-2'H,3H-spiro(furan-2,3'-isoquinolin)-4'-yl 3,5-dintrobenzoate"
_symmetry_cell_setting           triclinic
_symmetry_space_group_name_H-M   'P -1'
_symmetry_Int_Tables_number      2
_space_group_name_Hall           '-P 1'
loop_
_symmetry_equiv_pos_site_id
_symmetry_equiv_pos_as_xyz
1 x,y,z
2 -x,-y,-z
_cell_length_a                   9.0821(10)
_cell_length_b                   9.2067(10)
_cell_length_c                   16.5767(18)
_cell_angle_alpha                83.235(2)
_cell_angle_beta                 76.777(2)
_cell_angle_gamma                77.024(2)
_cell_volume                     1311.65
_exptl_crystal_colour            yellow
_cell_formula_units_Z            2
loop_
_atom_site_label
_atom_site_type_symbol
_atom_site_fract_x
_atom_site_fract_y
_atom_site_fract_z
Cl1 Cl 0.09571(13) 0.38166(14) 0.40364(7)
N1 N 0.5351(3) 0.6017(3) 0.18820(17)
N2 N -0.3308(4) 1.0519(4) 0.5125(3)
N3 N -0.2121(4) 1.0061(4) 0.2129(2)
O1 O 0.6168(3) 0.4300(3) 0.29182(16)
O2 O 0.0343(3) 0.1988(3) 0.2870(2)
O3 O 0.3589(3) 0.3627(4) 0.05019(18)
O4 O 0.1195(4) 0.2230(4) 0.11849(19)
O5 O 0.0083(4) 0.4610(4) 0.1467(3)
O6 O 0.2368(2) 0.6762(3) 0.31122(13)
O7 O 0.1951(3) 0.6936(3) 0.44956(16)
O8 O -0.4467(3) 1.1432(4) 0.5027(2)
O9 O -0.2982(4) 1.0040(4) 0.5792(2)
O10 O -0.3293(5) 1.0981(5) 0.2093(2)
O11 O -0.1325(4) 0.9408(4) 0.1546(2)
C1 C 0.7016(5) 0.4450(5) 0.3519(3)
H1 H 0.8060 0.3864 0.3388
H2 H 0.6517 0.4116 0.4069
C2 C 0.7035(6) 0.6045(6) 0.3479(4)
H3 H 0.7910 0.6279 0.3065
H4 H 0.7096 0.6331 0.4013
C3 C 0.5549(5) 0.6830(5) 0.3245(3)
C4 C 0.5148(4) 0.5675(4) 0.2780(2)
C5 C 0.3521(4) 0.5396(4) 0.3139(2)
H5 H 0.3459 0.4996 0.3717
C6 C 0.3075(4) 0.4318(4) 0.2660(2)
C7 C 0.3747(4) 0.4314(4) 0.1798(2)
C8 C 0.4760(4) 0.5237(4) 0.1458(2)
C9 C 0.1958(4) 0.3555(4) 0.3021(2)
C10 C 0.1417(4) 0.2611(4) 0.2568(3)
C11 C 0.2299(4) 0.2341(4) 0.1683(3)
C12 C 0.3243(4) 0.3502(4) 0.1256(3)
C13 C 0.3366(5) 0.0823(5) 0.1716(3)
H6 H 0.2773 0.0085 0.1967
H7 H 0.4111 0.0849 0.2040
H8 H 0.3891 0.0575 0.1163
C14 C 0.6473(4) 0.6917(5) 0.1446(2)
H9 H 0.7456 0.6508 0.1590
H10 H 0.6122 0.7927 0.1606
H11 H 0.6574 0.6907 0.0857
C15 C 0.0101(5) 0.3603(7) 0.1143(3)
C16 C -0.1142(7) 0.3411(7) 0.0683(4)
H12 H -0.2011 0.3149 0.1092
H13 H -0.1511 0.4361 0.0401
C17 C -0.0613(7) 0.2293(6) 0.0085(3)
H14 H -0.0225 0.1333 0.0352
H15 H 0.0216 0.2564 -0.0349
C18 C -0.2067(7) 0.2197(7) -0.0308(4)
H16 H -0.2978 0.2248 0.0125
H17 H -0.1856 0.1270 -0.0565
H18 H -0.2226 0.3015 -0.0716
C19 C 0.1573(4) 0.7300(4) 0.3844(2)
C20 C 0.0134(4) 0.8386(4) 0.3743(2)
C21 C -0.0843(4) 0.8998(4) 0.4453(2)
C22 C -0.2219(4) 0.9939(4) 0.4370(2)
C23 C -0.2658(4) 1.0329(4) 0.3621(3)
C24 C -0.1675(4) 0.9701(4) 0.2937(2)
C25 C -0.0282(4) 0.8733(4) 0.2980(2)
H19 H 0.483(5) 0.702(5) 0.373(3)
H20 H 0.563(6) 0.779(7) 0.292(3)
H21 H 0.502(3) 0.539(3) 0.0906(19)
H22 H -0.058(4) 0.881(4) 0.499(2)
H23 H -0.363(5) 1.100(5) 0.358(2)
H24 H 0.040(4) 0.832(4) 0.247(2)
loop_
_geom_bond_atom_site_label_1
_geom_bond_atom_site_label_2
_geom_bond_site_symmetry_1
_geom_bond_site_symmetry_2
Cl1 C9 1_555 1_555
N1 C4 1_555 1_555
N2 O8 1_555 1_555
N3 O10 1_555 1_555
O1 C1 1_555 1_555
O2 C10 1_555 1_555
O3 C12 1_555 1_555
O4 C11 1_555 1_555
O5 C15 1_555 1_555
O6 C5 1_555 1_555
O7 C19 1_555 1_555
O9 N2 1_555 1_555
O11 N3 1_555 1_555
C1 H1 1_555 1_555
H2 C1 1_555 1_555
C2 C1 1_555 1_555
H3 C2 1_555 1_555
H4 C2 1_555 1_555
C3 C2 1_555 1_555
C4 O1 1_555 1_555
C5 C4 1_555 1_555
H5 C5 1_555 1_555
C6 C5 1_555 1_555
C7 C6 1_555 1_555
C8 N1 1_555 1_555
C9 C6 1_555 1_555
C10 C9 1_555 1_555
C11 C10 1_555 1_555
C12 C7 1_555 1_555
C13 C11 1_555 1_555
H6 C13 1_555 1_555
H7 C13 1_555 1_555
H8 C13 1_555 1_555
C14 N1 1_555 1_555
H9 C14 1_555 1_555
H10 C14 1_555 1_555
H11 C14 1_555 1_555
C15 O4 1_555 1_555
C16 C15 1_555 1_555
H12 C16 1_555 1_555
H13 C16 1_555 1_555
C17 C16 1_555 1_555
H14 C17 1_555 1_555
H15 C17 1_555 1_555
C18 C17 1_555 1_555
H16 C18 1_555 1_555
H17 C18 1_555 1_555
H18 C18 1_555 1_555
C19 O6 1_555 1_555
C20 C19 1_555 1_555
C21 C20 1_555 1_555
C22 N2 1_555 1_555
C23 C22 1_555 1_555
C24 N3 1_555 1_555
C25 C20 1_555 1_555
H19 C3 1_555 1_555
H20 C3 1_555 1_555
H21 C8 1_555 1_555
H22 C21 1_555 1_555
H23 C23 1_555 1_555
H24 C25 1_555 1_555
C3 C4 1_555 1_555
C7 C8 1_555 1_555
C11 C12 1_555 1_555
C21 C22 1_555 1_555
C23 C24 1_555 1_555
C24 C25 1_555 1_555

#END
