
#######################################################################
#
#                 Cambridge Crystallographic Data Centre
#                                CCDC 
#
#######################################################################
#
# If this CIF has been generated from an entry in the Cambridge 
# Structural Database, then it will include bibliographic, chemical, 
# crystal, experimental, refinement or atomic coordinate data resulting 
# from the CCDC's data processing and validation procedures.
#
#######################################################################

data_YEGGUP
_chemical_formula_moiety         'C30 H44 O3'
_chemical_name_systematic        21,29-epoxylup-20(30)-ene-3,29-dione
_symmetry_cell_setting           orthorhombic
_symmetry_space_group_name_H-M   'P 21 21 21'
_symmetry_Int_Tables_number      19
_space_group_name_Hall           'P 2ac 2ab'
loop_
_symmetry_equiv_pos_site_id
_symmetry_equiv_pos_as_xyz
1 x,y,z
2 1/2-x,-y,1/2+z
3 -x,1/2+y,1/2-z
4 1/2+x,1/2-y,-z
_cell_length_a                   7.6131(5)
_cell_length_b                   11.7216(7)
_cell_length_c                   27.7076(17)
_cell_angle_alpha                90
_cell_angle_beta                 90
_cell_angle_gamma                90
_cell_volume                     2472.56
_exptl_crystal_colour            colorless
_exptl_crystal_description       Prism
_cell_formula_units_Z            4
loop_
_atom_site_label
_atom_site_type_symbol
_atom_site_fract_x
_atom_site_fract_y
_atom_site_fract_z
O1 O 0.7000(9) 0.2747(4) 1.1228(2)
O2 O 0.2109(5) 0.5554(3) 0.68677(10)
O3 O 0.0663(6) 0.3910(4) 0.68208(13)
C1 C 0.4287(7) 0.3773(4) 1.02722(13)
H1 H 0.3012 0.3872 1.0216
H2 H 0.4687 0.3118 1.0075
C2 C 0.4602(8) 0.3508(4) 1.08081(14)
H3 H 0.3999 0.4094 1.1005
H4 H 0.4059 0.2762 1.0884
C3 C 0.6490(8) 0.3471(4) 1.09523(16)
C4 C 0.7745(6) 0.4361(3) 1.07509(13)
C5 C 0.7231(6) 0.4658(3) 1.02182(11)
H5 H 0.7540 0.3957 1.0031
C6 C 0.8379(6) 0.5589(3) 0.99999(13)
H6 H 0.9620 0.5455 1.0091
H7 H 0.8022 0.6339 1.0131
C7 C 0.8213(5) 0.5604(3) 0.94485(12)
H8 H 0.8673 0.4876 0.9319
H9 H 0.8953 0.6228 0.9319
C8 C 0.6322(5) 0.5770(3) 0.92684(11)
C9 C 0.5071(5) 0.4933(3) 0.95387(10)
H10 H 0.5416 0.4159 0.9420
C10 C 0.5260(5) 0.4859(3) 1.01054(11)
C11 C 0.3177(5) 0.5085(4) 0.93680(12)
H11 H 0.2746 0.5839 0.9478
H12 H 0.2436 0.4494 0.9522
C12 C 0.2954(5) 0.5006(3) 0.88168(12)
H13 H 0.3119 0.4204 0.8715
H14 H 0.1743 0.5235 0.8730
C13 C 0.4255(5) 0.5761(3) 0.85450(11)
H15 H 0.3992 0.6569 0.8634
C14 C 0.6178(4) 0.5509(3) 0.87041(11)
C15 C 0.7510(5) 0.6247(3) 0.84160(12)
H16 H 0.7459 0.7039 0.8539
H17 H 0.8708 0.5953 0.8478
C16 C 0.7197(5) 0.6269(4) 0.78673(12)
H18 H 0.7982 0.6842 0.7718
H19 H 0.7496 0.5514 0.7730
C17 C 0.5299(5) 0.6555(3) 0.77439(12)
C18 C 0.4109(4) 0.5670(3) 0.79938(11)
H20 H 0.4567 0.4900 0.7903
C19 C 0.2307(5) 0.5807(3) 0.77408(12)
H21 H 0.1522 0.6334 0.7925
C20 C 0.1359(5) 0.4732(3) 0.76020(13)
C21 C 0.2797(6) 0.6321(4) 0.72350(13)
H22 H 0.2275 0.7099 0.7198
C22 C 0.4785(6) 0.6384(4) 0.72141(12)
H23 H 0.5178 0.7034 0.7013
H24 H 0.5291 0.5670 0.7083
C23 C 0.1290(6) 0.4657(5) 0.70646(16)
C24 C 0.0717(5) 0.3894(4) 0.78608(15)
H25 H 0.0215 0.3248 0.7706
H26 H 0.0754 0.3932 0.8203
C25 C 0.5821(6) 0.7027(3) 0.93685(12)
H27 H 0.6189 0.7235 0.9696
H28 H 0.4546 0.7118 0.9339
H29 H 0.6411 0.7523 0.9134
C26 C 0.4863(6) 0.7796(3) 0.78893(14)
H30 H 0.5315 0.7947 0.8214
H31 H 0.3587 0.7905 0.7886
H32 H 0.5410 0.8324 0.7660
C27 C 0.6651(5) 0.4251(3) 0.85928(11)
H33 H 0.6767 0.4150 0.8243
H34 H 0.5721 0.3750 0.8715
H35 H 0.7765 0.4057 0.8750
C28 C 0.4458(7) 0.5894(4) 1.03594(13)
H36 H 0.3345 0.6096 1.0203
H37 H 0.5271 0.6540 1.0338
H38 H 0.4243 0.5709 1.0699
C29 C 0.7708(7) 0.5395(4) 1.10971(13)
H39 H 0.6501 0.5677 1.1127
H40 H 0.8460 0.6002 1.0969
H41 H 0.8140 0.5161 1.1415
C30 C 0.9581(8) 0.3866(5) 1.07703(17)
H42 H 0.9834 0.3605 1.1099
H43 H 1.0434 0.4453 1.0677
H44 H 0.9665 0.3220 1.0547
loop_
_geom_bond_atom_site_label_1
_geom_bond_atom_site_label_2
_geom_bond_site_symmetry_1
_geom_bond_site_symmetry_2
O1 C3 1_555 1_555
O2 C21 1_555 1_555
O3 C23 1_555 1_555
C1 H1 1_555 1_555
H2 C1 1_555 1_555
C2 C1 1_555 1_555
H3 C2 1_555 1_555
H4 C2 1_555 1_555
C3 C2 1_555 1_555
C4 C3 1_555 1_555
C5 C4 1_555 1_555
H5 C5 1_555 1_555
C6 C5 1_555 1_555
H6 C6 1_555 1_555
H7 C6 1_555 1_555
C7 C6 1_555 1_555
H8 C7 1_555 1_555
H9 C7 1_555 1_555
C8 C7 1_555 1_555
C9 C8 1_555 1_555
H10 C9 1_555 1_555
C10 C1 1_555 1_555
C11 C9 1_555 1_555
H11 C11 1_555 1_555
H12 C11 1_555 1_555
C12 C11 1_555 1_555
H13 C12 1_555 1_555
H14 C12 1_555 1_555
C13 C12 1_555 1_555
H15 C13 1_555 1_555
C14 C8 1_555 1_555
C15 C14 1_555 1_555
H16 C15 1_555 1_555
H17 C15 1_555 1_555
C16 C15 1_555 1_555
H18 C16 1_555 1_555
H19 C16 1_555 1_555
C17 C16 1_555 1_555
C18 C13 1_555 1_555
H20 C18 1_555 1_555
C19 C18 1_555 1_555
H21 C19 1_555 1_555
C20 C19 1_555 1_555
C21 C19 1_555 1_555
H22 C21 1_555 1_555
C22 C17 1_555 1_555
H23 C22 1_555 1_555
H24 C22 1_555 1_555
C23 O2 1_555 1_555
C24 C20 1_555 1_555
H25 C24 1_555 1_555
H26 C24 1_555 1_555
C25 C8 1_555 1_555
H27 C25 1_555 1_555
H28 C25 1_555 1_555
H29 C25 1_555 1_555
C26 C17 1_555 1_555
H30 C26 1_555 1_555
H31 C26 1_555 1_555
H32 C26 1_555 1_555
C27 C14 1_555 1_555
H33 C27 1_555 1_555
H34 C27 1_555 1_555
H35 C27 1_555 1_555
C28 C10 1_555 1_555
H36 C28 1_555 1_555
H37 C28 1_555 1_555
H38 C28 1_555 1_555
C29 C4 1_555 1_555
H39 C29 1_555 1_555
H40 C29 1_555 1_555
H41 C29 1_555 1_555
C30 C4 1_555 1_555
H42 C30 1_555 1_555
H43 C30 1_555 1_555
H44 C30 1_555 1_555
C5 C10 1_555 1_555
C9 C10 1_555 1_555
C13 C14 1_555 1_555
C17 C18 1_555 1_555
C20 C23 1_555 1_555
C21 C22 1_555 1_555

#END
