
#######################################################################
#
#                 Cambridge Crystallographic Data Centre
#                                CCDC 
#
#######################################################################
#
# If this CIF has been generated from an entry in the Cambridge 
# Structural Database, then it will include bibliographic, chemical, 
# crystal, experimental, refinement or atomic coordinate data resulting 
# from the CCDC's data processing and validation procedures.
#
#######################################################################

data_YEGJIG
_chemical_formula_moiety         'C31 H22 N2 O1'
_chemical_name_systematic        
1'-methyl-3-(2-phenyl-1H-indol-3-yl)spiro[indene-1,3'-indol]-2'(1'H)-one
_symmetry_cell_setting           triclinic
_symmetry_space_group_name_H-M   'P -1'
_symmetry_Int_Tables_number      2
_space_group_name_Hall           '-P 1'
loop_
_symmetry_equiv_pos_site_id
_symmetry_equiv_pos_as_xyz
1 x,y,z
2 -x,-y,-z
_cell_length_a                   10.1058(2)
_cell_length_b                   10.8448(2)
_cell_length_c                   12.3643(2)
_cell_angle_alpha                72.7240(10)
_cell_angle_beta                 70.9130(10)
_cell_angle_gamma                62.6800(10)
_cell_volume                     1120.19
_exptl_crystal_colour            colorless
_exptl_crystal_description       block
_cell_formula_units_Z            2
loop_
_atom_site_label
_atom_site_type_symbol
_atom_site_fract_x
_atom_site_fract_y
_atom_site_fract_z
N1 N 0.6841(2) 0.1208(2) -0.18934(19)
H1 H 0.7490 0.0641 -0.2389
C1 C 0.5854(3) 0.2596(3) -0.2189(2)
C2 C 0.6645(3) 0.0860(3) -0.0704(2)
C3 C 0.5560(3) 0.2000(3) -0.0203(2)
C4 C 0.4079(3) 0.4562(3) -0.1205(2)
H2 H 0.3561 0.4966 -0.0521
C5 C 0.3858(3) 0.5368(3) -0.2286(2)
H3 H 0.3200 0.6341 -0.2348
C6 C 0.5092(3) 0.3122(3) -0.1144(2)
C7 C 0.6972(3) -0.1290(3) 0.0857(2)
H4 H 0.5970 -0.0808 0.1280
C8 C 0.7557(3) -0.0611(3) -0.0194(2)
C9 C 0.7819(3) -0.2648(3) 0.1293(2)
H5 H 0.7402 -0.3098 0.2019
C10 C 0.5603(3) 0.3380(3) -0.3254(2)
H6 H 0.6107 0.2982 -0.3942
C11 C 0.9020(3) -0.1342(3) -0.0809(2)
H7 H 0.9438 -0.0891 -0.1534
C12 C 0.4601(3) 0.4754(3) -0.3286(2)
H8 H 0.4398 0.5316 -0.4013
C13 C 0.9266(3) -0.3369(3) 0.0695(3)
H9 H 0.9849 -0.4309 0.1013
C14 C 0.9875(3) -0.2733(3) -0.0365(3)
H10 H 1.0867 -0.3237 -0.0789
C15 C 0.5556(3) 0.1646(3) 0.2028(2)
C16 C 0.4738(3) 0.1768(3) 0.4092(2)
H11 H 0.3952 0.2038 0.4761
C17 C 0.4398(3) 0.2023(3) 0.3031(2)
C18 C 0.7082(3) 0.0995(3) 0.2090(2)
H12 H 0.7871 0.0745 0.1418
C19 C 0.2857(3) 0.2703(3) 0.2713(2)
C20 C 0.7426(3) 0.0718(3) 0.3165(3)
H13 H 0.8463 0.0261 0.3226
C21 C 0.3315(3) 0.2658(3) 0.1426(2)
H14 H 0.2604 0.2995 0.0951
C22 C 0.4831(3) 0.2090(3) 0.1034(2)
C23 C 0.6275(3) 0.1101(3) 0.4150(3)
H15 H 0.6538 0.0906 0.4871
N2 N 0.0428(2) 0.2818(2) 0.38365(18)
C24 C 0.0377(3) 0.4193(3) 0.3589(2)
C25 C 0.1805(3) 0.4177(3) 0.2955(2)
C26 C 0.2032(3) 0.5410(3) 0.2604(2)
H16 H 0.3000 0.5413 0.2171
C27 C -0.0846(3) 0.5416(3) 0.3887(2)
H17 H -0.1814 0.5414 0.4319
C28 C 0.1828(3) 0.1885(3) 0.3377(2)
C29 C -0.0596(3) 0.6642(3) 0.3528(2)
H18 H -0.1414 0.7501 0.3720
C30 C 0.0806(3) 0.6655(3) 0.2897(2)
H19 H 0.0939 0.7516 0.2662
O1 O 0.2168(2) 0.06267(19) 0.34757(15)
C31 C -0.0857(3) 0.2441(3) 0.4479(3)
H20 H -0.1637 0.2862 0.4020
H21 H -0.1293 0.2792 0.5217
H22 H -0.0508 0.1413 0.4636
loop_
_geom_bond_atom_site_label_1
_geom_bond_atom_site_label_2
_geom_bond_site_symmetry_1
_geom_bond_site_symmetry_2
N1 H1 1_555 1_555
C1 N1 1_555 1_555
C2 N1 1_555 1_555
C3 C2 1_555 1_555
C4 H2 1_555 1_555
C5 C4 1_555 1_555
H3 C5 1_555 1_555
C6 C1 1_555 1_555
C7 H4 1_555 1_555
C8 C2 1_555 1_555
C9 C7 1_555 1_555
H5 C9 1_555 1_555
C10 C1 1_555 1_555
H6 C10 1_555 1_555
C11 C8 1_555 1_555
H7 C11 1_555 1_555
C12 C5 1_555 1_555
H8 C12 1_555 1_555
C13 C9 1_555 1_555
H9 C13 1_555 1_555
C14 C11 1_555 1_555
H10 C14 1_555 1_555
C15 C17 1_555 1_555
C16 H11 1_555 1_555
C17 C16 1_555 1_555
C18 C15 1_555 1_555
H12 C18 1_555 1_555
C19 C17 1_555 1_555
C20 C18 1_555 1_555
H13 C20 1_555 1_555
C21 C19 1_555 1_555
H14 C21 1_555 1_555
C22 C3 1_555 1_555
C23 C16 1_555 1_555
H15 C23 1_555 1_555
N2 C24 1_555 1_555
C24 C25 1_555 1_555
C25 C19 1_555 1_555
C26 C25 1_555 1_555
H16 C26 1_555 1_555
C27 C24 1_555 1_555
H17 C27 1_555 1_555
C28 C19 1_555 1_555
C29 C27 1_555 1_555
H18 C29 1_555 1_555
C30 C26 1_555 1_555
H19 C30 1_555 1_555
O1 C28 1_555 1_555
C31 N2 1_555 1_555
H20 C31 1_555 1_555
H21 C31 1_555 1_555
H22 C31 1_555 1_555
C3 C6 1_555 1_555
C4 C6 1_555 1_555
C7 C8 1_555 1_555
C10 C12 1_555 1_555
C13 C14 1_555 1_555
C15 C22 1_555 1_555
C20 C23 1_555 1_555
C21 C22 1_555 1_555
N2 C28 1_555 1_555
C29 C30 1_555 1_555

#END
