
#######################################################################
#
#                 Cambridge Crystallographic Data Centre
#                                CCDC 
#
#######################################################################
#
# If this CIF has been generated from an entry in the Cambridge 
# Structural Database, then it will include bibliographic, chemical, 
# crystal, experimental, refinement or atomic coordinate data resulting 
# from the CCDC's data processing and validation procedures.
#
#######################################################################

data_YEGPUY
_chemical_formula_moiety         'C14 H10 N1 O2 1+,Cl1 O4 1-'
_chemical_name_systematic        
'2-(2-oxo-2H-1-benzopyran-3-yl)pyridin-1-ium perchlorate'
_symmetry_cell_setting           monoclinic
_symmetry_space_group_name_H-M   'P 21/c'
_symmetry_Int_Tables_number      14
_space_group_name_Hall           '-P 2ybc'
loop_
_symmetry_equiv_pos_site_id
_symmetry_equiv_pos_as_xyz
1 x,y,z
2 -x,1/2+y,1/2-z
3 -x,-y,-z
4 x,1/2-y,1/2+z
_cell_length_a                   15.9429(19)
_cell_length_b                   6.8644(8)
_cell_length_c                   12.9570(16)
_cell_angle_alpha                90
_cell_angle_beta                 111.210(10)
_cell_angle_gamma                90
_cell_volume                     1321.94
_exptl_crystal_colour            'light yellow'
_exptl_crystal_description       prism
_cell_formula_units_Z            4
loop_
_atom_site_label
_atom_site_type_symbol
_atom_site_fract_x
_atom_site_fract_y
_atom_site_fract_z
C1 C 0.93940(12) 0.1709(3) 0.57081(16)
H1 H 0.9727 0.1345 0.6432
C2 C 0.98154(12) 0.2480(3) 0.50545(17)
H2 H 1.0437 0.2632 0.5321
C3 C 0.92988(14) 0.3029(3) 0.39902(18)
H3 H 0.9573 0.3560 0.3532
C4 C 0.83756(12) 0.2797(3) 0.36004(15)
H4 H 0.8030 0.3189 0.2886
C5 C 0.79666(11) 0.1982(2) 0.42720(13)
C6 C 0.69911(11) 0.1687(2) 0.39218(13)
C7 C 0.65840(11) 0.1510(2) 0.47645(14)
C8 C 0.51232(11) 0.1496(2) 0.33064(14)
C9 C 0.55039(11) 0.1520(2) 0.24978(14)
C10 C 0.64574(11) 0.1626(2) 0.28383(14)
H5 H 0.6720 0.1655 0.2304
C11 C 0.49211(13) 0.1517(3) 0.13841(16)
H6 H 0.5156 0.1512 0.0823
C12 C 0.40084(13) 0.1522(3) 0.11222(17)
H7 H 0.3626 0.1518 0.0384
C13 C 0.36530(13) 0.1533(3) 0.19526(19)
H8 H 0.3032 0.1556 0.1763
C14 C 0.42017(12) 0.1510(3) 0.30545(18)
H9 H 0.3961 0.1505 0.3610
N1 N 0.85030(10) 0.1479(2) 0.53070(13)
O1 O 0.69855(9) 0.1401(2) 0.57516(10)
O2 O 0.56681(8) 0.14694(18) 0.44111(10)
H10 H 0.8288(16) 0.090(4) 0.572(2)
O3 O 0.86894(15) -0.1496(2) 0.70923(16)
O4 O 0.90363(11) -0.4737(3) 0.69889(15)
O5 O 0.81853(13) -0.3046(3) 0.54078(14)
O6 O 0.75558(12) -0.3875(3) 0.66865(19)
Cl1 Cl 0.83578(3) -0.32981(7) 0.65590(4)
loop_
_geom_bond_atom_site_label_1
_geom_bond_atom_site_label_2
_geom_bond_site_symmetry_1
_geom_bond_site_symmetry_2
C1 H1 1_555 1_555
C2 C1 1_555 1_555
H2 C2 1_555 1_555
C3 C2 1_555 1_555
H3 C3 1_555 1_555
C4 C3 1_555 1_555
H4 C4 1_555 1_555
C5 C4 1_555 1_555
C6 C5 1_555 1_555
C7 C6 1_555 1_555
C8 C9 1_555 1_555
C9 C10 1_555 1_555
C10 C6 1_555 1_555
H5 C10 1_555 1_555
C11 C9 1_555 1_555
H6 C11 1_555 1_555
C12 C11 1_555 1_555
H7 C12 1_555 1_555
C13 C12 1_555 1_555
H8 C13 1_555 1_555
C14 C8 1_555 1_555
H9 C14 1_555 1_555
N1 C1 1_555 1_555
O1 C7 1_555 1_555
O2 C7 1_555 1_555
H10 N1 1_555 1_555
O3 Cl1 1_555 1_555
O4 Cl1 1_555 1_555
O5 Cl1 1_555 1_555
O6 Cl1 1_555 1_555
C5 N1 1_555 1_555
C8 O2 1_555 1_555
C13 C14 1_555 1_555

#END
