
#######################################################################
#
#                 Cambridge Crystallographic Data Centre
#                                CCDC 
#
#######################################################################
#
# If this CIF has been generated from an entry in the Cambridge 
# Structural Database, then it will include bibliographic, chemical, 
# crystal, experimental, refinement or atomic coordinate data resulting 
# from the CCDC's data processing and validation procedures.
#
#######################################################################

data_YEGQEJ
_chemical_formula_moiety         'C14 H8 F1 N1 O2'
_chemical_name_systematic        
7-fluoro-3-(pyridin-2-yl)-2H-1-benzopyran-2-one
_symmetry_cell_setting           monoclinic
_symmetry_space_group_name_H-M   'P 21/n'
_symmetry_Int_Tables_number      14
_space_group_name_Hall           '-P 2yn'
loop_
_symmetry_equiv_pos_site_id
_symmetry_equiv_pos_as_xyz
1 x,y,z
2 1/2-x,1/2+y,1/2-z
3 -x,-y,-z
4 1/2+x,1/2-y,1/2+z
_cell_length_a                   3.8055(7)
_cell_length_b                   12.203(2)
_cell_length_c                   23.072(4)
_cell_angle_alpha                90
_cell_angle_beta                 93.300(10)
_cell_angle_gamma                90
_cell_volume                     1069.65
_exptl_crystal_colour            'light yellow'
_exptl_crystal_description       prism
_cell_formula_units_Z            4
loop_
_atom_site_label
_atom_site_type_symbol
_atom_site_fract_x
_atom_site_fract_y
_atom_site_fract_z
C1 C 0.9906(6) 0.32081(19) 0.45545(9)
H1 H 1.0683 0.3930 0.4575
C2 C 0.9752(6) 0.2633(2) 0.50635(9)
H2 H 1.0424 0.2958 0.5417
C3 C 0.8590(6) 0.1571(2) 0.50398(9)
H3 H 0.8435 0.1162 0.5378
C4 C 0.7652(5) 0.11196(16) 0.45050(8)
H4 H 0.6864 0.0399 0.4477
C5 C 0.7899(4) 0.17532(14) 0.40100(7)
C6 C 0.6778(4) 0.13542(13) 0.34235(7)
C7 C 0.7458(5) 0.02208(14) 0.32633(8)
C8 C 0.4653(4) 0.05854(12) 0.23162(7)
C9 C 0.4025(4) 0.16729(12) 0.24629(7)
C10 C 0.5173(4) 0.20318(12) 0.30304(7)
H5 H 0.4801 0.2758 0.3133
C11 C 0.2302(5) 0.23471(14) 0.20481(8)
H6 H 0.1883 0.3077 0.2137
C12 C 0.1218(5) 0.19474(16) 0.15113(8)
H7 H 0.0064 0.2395 0.1235
C13 C 0.1894(5) 0.08608(16) 0.13944(8)
C14 C 0.3618(5) 0.01610(14) 0.17759(8)
H8 H 0.4074 -0.0562 0.1678
N1 N 0.9009(5) 0.27945(13) 0.40312(7)
O1 O 0.8954(6) -0.04602(13) 0.35589(7)
O2 O 0.6368(4) -0.01030(9) 0.27069(5)
F1 F 0.0767(4) 0.04669(12) 0.08684(5)
loop_
_geom_bond_atom_site_label_1
_geom_bond_atom_site_label_2
_geom_bond_site_symmetry_1
_geom_bond_site_symmetry_2
C1 H1 1_555 1_555
C2 C1 1_555 1_555
H2 C2 1_555 1_555
C3 C2 1_555 1_555
H3 C3 1_555 1_555
C4 C3 1_555 1_555
H4 C4 1_555 1_555
C5 C4 1_555 1_555
C6 C5 1_555 1_555
C7 C6 1_555 1_555
C8 C9 1_555 1_555
C9 C10 1_555 1_555
C10 C6 1_555 1_555
H5 C10 1_555 1_555
C11 C9 1_555 1_555
H6 C11 1_555 1_555
C12 C11 1_555 1_555
H7 C12 1_555 1_555
C13 C12 1_555 1_555
C14 C8 1_555 1_555
H8 C14 1_555 1_555
N1 C1 1_555 1_555
O1 C7 1_555 1_555
O2 C7 1_555 1_555
F1 C13 1_555 1_555
C5 N1 1_555 1_555
C8 O2 1_555 1_555
C13 C14 1_555 1_555

#END
