
#######################################################################
#
#                 Cambridge Crystallographic Data Centre
#                                CCDC 
#
#######################################################################
#
# If this CIF has been generated from an entry in the Cambridge 
# Structural Database, then it will include bibliographic, chemical, 
# crystal, experimental, refinement or atomic coordinate data resulting 
# from the CCDC's data processing and validation procedures.
#
#######################################################################

data_YEGQAF
_chemical_formula_moiety         'C15 H11 N1 O3'
_chemical_name_systematic        
6-methoxy-3-(pyridin-2-yl)-2H-1-benzopyran-2-one
_symmetry_cell_setting           monoclinic
_symmetry_space_group_name_H-M   'P 21/n'
_symmetry_Int_Tables_number      14
_space_group_name_Hall           '-P 2yn'
loop_
_symmetry_equiv_pos_site_id
_symmetry_equiv_pos_as_xyz
1 x,y,z
2 1/2-x,1/2+y,1/2-z
3 -x,-y,-z
4 1/2+x,1/2-y,1/2+z
_cell_length_a                   3.8715(8)
_cell_length_b                   11.643(2)
_cell_length_c                   26.223(5)
_cell_angle_alpha                90
_cell_angle_beta                 93.52(3)
_cell_angle_gamma                90
_cell_volume                     1179.79
_exptl_crystal_colour            'light yellow'
_exptl_crystal_description       prism
_cell_formula_units_Z            4
loop_
_atom_site_label
_atom_site_type_symbol
_atom_site_fract_x
_atom_site_fract_y
_atom_site_fract_z
C1 C 0.193(2) 0.1312(6) 0.9450(3)
H1 H 0.1864 0.0518 0.9412
C2 C 0.278(2) 0.1749(7) 0.9927(3)
H2 H 0.3354 0.1268 1.0202
C3 C 0.2768(19) 0.2920(7) 0.9983(3)
H3 H 0.3251 0.3249 1.0302
C4 C 0.2035(17) 0.3600(6) 0.9564(2)
H4 H 0.2112 0.4396 0.9594
C5 C 0.1177(16) 0.3090(5) 0.9095(2)
C6 C 0.0479(15) 0.3738(5) 0.8617(2)
C7 C -0.1230(17) 0.4877(6) 0.8630(3)
C8 C -0.0936(16) 0.4985(5) 0.7712(2)
C9 C 0.0638(15) 0.3921(5) 0.7687(2)
C10 C 0.1336(15) 0.3321(5) 0.8164(2)
H5 H 0.2433 0.2611 0.8157
C11 C 0.1466(15) 0.3501(5) 0.7208(2)
H6 H 0.2531 0.2789 0.7185
C12 C 0.0712(15) 0.4135(5) 0.6776(2)
C13 C -0.0886(17) 0.5206(6) 0.6809(3)
H7 H -0.1392 0.5635 0.6515
C14 C -0.1712(17) 0.5625(6) 0.7276(3)
H8 H -0.2786 0.6336 0.7299
C15 C 0.3026(18) 0.2728(5) 0.6235(2)
H9 H 0.5201 0.2716 0.6431
H10 H 0.3411 0.2600 0.5881
H11 H 0.1555 0.2134 0.6354
N1 N 0.1189(16) 0.1954(4) 0.9038(2)
O1 O -0.2224(14) 0.5346(4) 0.90016(19)
O2 O -0.1858(11) 0.5429(3) 0.81732(17)
O3 O 0.1410(12) 0.3815(4) 0.62907(16)
loop_
_geom_bond_atom_site_label_1
_geom_bond_atom_site_label_2
_geom_bond_site_symmetry_1
_geom_bond_site_symmetry_2
C1 H1 1_555 1_555
C2 C1 1_555 1_555
H2 C2 1_555 1_555
C3 C2 1_555 1_555
H3 C3 1_555 1_555
C4 C3 1_555 1_555
H4 C4 1_555 1_555
C5 C4 1_555 1_555
C6 C5 1_555 1_555
C7 C6 1_555 1_555
C8 C9 1_555 1_555
C9 C10 1_555 1_555
C10 C6 1_555 1_555
H5 C10 1_555 1_555
C11 C9 1_555 1_555
H6 C11 1_555 1_555
C12 C11 1_555 1_555
C13 C12 1_555 1_555
H7 C13 1_555 1_555
C14 C8 1_555 1_555
H8 C14 1_555 1_555
C15 H9 1_555 1_555
H10 C15 1_555 1_555
H11 C15 1_555 1_555
N1 C1 1_555 1_555
O1 C7 1_555 1_555
O2 C7 1_555 1_555
O3 C12 1_555 1_555
C5 N1 1_555 1_555
C8 O2 1_555 1_555
C13 C14 1_555 1_555
C15 O3 1_555 1_555

#END
