
#######################################################################
#
#                 Cambridge Crystallographic Data Centre
#                                CCDC 
#
#######################################################################
#
# If this CIF has been generated from an entry in the Cambridge 
# Structural Database, then it will include bibliographic, chemical, 
# crystal, experimental, refinement or atomic coordinate data resulting 
# from the CCDC's data processing and validation procedures.
#
#######################################################################

data_YEGZUI
_chemical_formula_moiety         'C16 H14 N4 O5'
_chemical_name_systematic        
'2-(2-(5-cyano-1-(2-hydroxyethyl)-4-methyl-2,6-dioxo-1,6-dihydropyridin-3(2H)-ylidene)hydrazino)benzoic acid'
_symmetry_cell_setting           triclinic
_symmetry_space_group_name_H-M   'P -1'
_symmetry_Int_Tables_number      2
_space_group_name_Hall           '-P 1'
loop_
_symmetry_equiv_pos_site_id
_symmetry_equiv_pos_as_xyz
1 x,y,z
2 -x,-y,-z
_cell_length_a                   6.1826(15)
_cell_length_b                   7.8609(19)
_cell_length_c                   15.839(4)
_cell_angle_alpha                99.586(4)
_cell_angle_beta                 92.691(4)
_cell_angle_gamma                98.603(4)
_cell_volume                     748.458
_exptl_crystal_colour            yellow
_exptl_crystal_description       block
_cell_formula_units_Z            2
loop_
_atom_site_label
_atom_site_type_symbol
_atom_site_fract_x
_atom_site_fract_y
_atom_site_fract_z
C1 C 0.4864(3) 0.9623(2) 0.69801(10)
C2 C 0.6572(3) 1.0934(2) 0.73875(10)
C3 C 0.8356(3) 1.1431(2) 0.69219(11)
H1 H 0.9489 1.2300 0.7184
C4 C 0.8464(3) 1.0651(2) 0.60758(12)
H2 H 0.9673 1.0980 0.5777
C5 C 0.6759(3) 0.9378(2) 0.56782(11)
H3 H 0.6817 0.8868 0.5108
C6 C 0.4974(3) 0.8860(2) 0.61202(11)
H4 H 0.3842 0.8003 0.5847
C7 C 0.6500(3) 1.1835(2) 0.82912(10)
C8 C -0.0316(3) 0.7372(2) 0.73911(10)
C9 C -0.0673(3) 0.8030(2) 0.82908(10)
C10 C -0.4289(3) 0.6155(2) 0.81120(10)
C11 C -0.3859(3) 0.5575(2) 0.72118(10)
C12 C -0.1964(3) 0.6115(2) 0.68593(10)
C13 C -0.2943(3) 0.7997(2) 0.95182(10)
H5 H -0.4490 0.7793 0.9615
H6 H -0.2427 0.9245 0.9660
C14 C -0.1699(3) 0.7070(2) 1.00955(10)
H7 H -0.0163 0.7231 0.9979
H8 H -0.1802 0.7588 1.0690
C15 C -0.5591(3) 0.4356(2) 0.67125(11)
C16 C -0.1561(3) 0.5441(2) 0.59444(11)
H9 H -0.2876 0.4735 0.5658
H10 H -0.0404 0.4750 0.5935
H11 H -0.1145 0.6409 0.5656
N1 N 0.3048(2) 0.90794(18) 0.74303(9)
N2 N 0.1452(2) 0.79068(18) 0.70139(9)
N3 N -0.2648(2) 0.73733(17) 0.86031(8)
N4 N -0.6941(3) 0.3400(2) 0.62898(11)
O1 O 0.5225(2) 1.12994(17) 0.87828(8)
O2 O 0.7959(2) 1.32730(16) 0.85039(8)
O3 O 0.0680(2) 0.91074(16) 0.87583(8)
O4 O -0.2536(2) 0.52369(15) 0.99717(8)
H12 H -0.3173 0.5016 1.0393
O5 O -0.5973(2) 0.55898(16) 0.84156(8)
H13 H 0.302(4) 0.953(3) 0.8023(17)
H14 H 0.782(4) 1.387(3) 0.8996(18)
loop_
_geom_bond_atom_site_label_1
_geom_bond_atom_site_label_2
_geom_bond_site_symmetry_1
_geom_bond_site_symmetry_2
C1 C2 1_555 1_555
C2 C3 1_555 1_555
C3 H1 1_555 1_555
C4 C3 1_555 1_555
H2 C4 1_555 1_555
C5 C4 1_555 1_555
H3 C5 1_555 1_555
C6 C1 1_555 1_555
H4 C6 1_555 1_555
C7 C2 1_555 1_555
C8 C9 1_555 1_555
C9 N3 1_555 1_555
C10 C11 1_555 1_555
C11 C12 1_555 1_555
C12 C8 1_555 1_555
C13 H5 1_555 1_555
H6 C13 1_555 1_555
C14 C13 1_555 1_555
H7 C14 1_555 1_555
H8 C14 1_555 1_555
C15 C11 1_555 1_555
C16 C12 1_555 1_555
H9 C16 1_555 1_555
H10 C16 1_555 1_555
H11 C16 1_555 1_555
N1 C1 1_555 1_555
N2 C8 1_555 1_555
N3 C10 1_555 1_555
N4 C15 1_555 1_555
O1 C7 1_555 1_555
O2 C7 1_555 1_555
O3 C9 1_555 1_555
O4 C14 1_555 1_555
H12 O4 1_555 1_555
O5 C10 1_555 1_555
H13 N1 1_555 1_555
H14 O2 1_555 1_555
C5 C6 1_555 1_555
C13 N3 1_555 1_555
N1 N2 1_555 1_555

#END
