
#######################################################################
#
#                 Cambridge Crystallographic Data Centre
#                                CCDC 
#
#######################################################################
#
# If this CIF has been generated from an entry in the Cambridge 
# Structural Database, then it will include bibliographic, chemical, 
# crystal, experimental, refinement or atomic coordinate data resulting 
# from the CCDC's data processing and validation procedures.
#
#######################################################################

data_YEHCOF
_chemical_formula_moiety         'C22 H14 F1 N1 O3'
_chemical_name_systematic        
'6-Fluoro-2-(4-phenoxyphenyl)quinoline-4-carboxylic acid'
_symmetry_cell_setting           triclinic
_symmetry_space_group_name_H-M   'P -1'
_symmetry_Int_Tables_number      2
_space_group_name_Hall           '-P 1'
loop_
_symmetry_equiv_pos_site_id
_symmetry_equiv_pos_as_xyz
1 x,y,z
2 -x,-y,-z
_cell_length_a                   9.2245(12)
_cell_length_b                   11.7731(15)
_cell_length_c                   16.368(2)
_cell_angle_alpha                108.572(3)
_cell_angle_beta                 90.821(3)
_cell_angle_gamma                98.631(4)
_cell_volume                     1662.27
_exptl_crystal_colour            'pale yellow'
_exptl_crystal_description       prisms
_cell_formula_units_Z            4
loop_
_atom_site_label
_atom_site_type_symbol
_atom_site_fract_x
_atom_site_fract_y
_atom_site_fract_z
F1 F 0.84428(18) 0.94357(14) 0.50192(9)
O1 O 1.0991(2) 0.61430(17) 0.46845(11)
O2 O 1.1587(2) 0.45765(17) 0.36631(11)
O3 O 0.8941(2) 0.19036(15) -0.17112(10)
N1 N 0.8484(2) 0.60140(17) 0.18488(11)
C1 C 0.8501(3) 0.8579(2) 0.42382(14)
C2 C 0.9283(3) 0.7680(2) 0.41936(15)
H1 H 0.9793 0.7662 0.4689
C3 C 0.9321(2) 0.6766(2) 0.33899(13)
C4 C 1.0083(2) 0.5745(2) 0.32250(14)
C5 C 1.0034(3) 0.4953(2) 0.24120(14)
H2 H 1.0545 0.4293 0.2305
C6 C 0.9227(2) 0.51025(19) 0.17200(13)
C7 C 0.8532(2) 0.6838(2) 0.26577(13)
C8 C 0.7753(3) 0.7817(2) 0.27574(15)
H3 H 0.7236 0.7868 0.2274
C9 C 0.7736(3) 0.8682(2) 0.35345(15)
H4 H 0.7222 0.9333 0.3596
C10 C 1.0932(3) 0.5512(2) 0.39217(15)
C11 C 0.9172(2) 0.4238(2) 0.08308(14)
C12 C 1.0110(3) 0.3386(2) 0.05795(15)
H5 H 1.0815 0.3349 0.0986
C13 C 1.0029(3) 0.2597(2) -0.02508(16)
H6 H 1.0673 0.2027 -0.0405
C14 C 0.9006(3) 0.2639(2) -0.08567(14)
C15 C 0.8100(3) 0.3493(2) -0.06339(14)
H7 H 0.7423 0.3544 -0.1051
C16 C 0.8179(3) 0.4281(2) 0.02020(14)
H8 H 0.7544 0.4860 0.0348
C17 C 0.8548(3) 0.0657(2) -0.19172(15)
C18 C 0.8057(3) 0.0088(2) -0.13216(17)
H9 H 0.8002 0.0546 -0.0739
C19 C 0.7657(3) -0.1142(3) -0.1597(2)
H10 H 0.7340 -0.1529 -0.1194
C20 C 0.7705(4) -0.1829(3) -0.2441(2)
H11 H 0.7415 -0.2676 -0.2618
C21 C 0.8186(3) -0.1264(3) -0.3030(2)
H12 H 0.8222 -0.1727 -0.3613
C22 C 0.8620(3) -0.0002(2) -0.27611(16)
H13 H 0.8957 0.0386 -0.3160
H14 H 1.230(4) 0.450(3) 0.410(2)
F2 F 0.42942(19) 0.90906(13) 0.54163(8)
O4 O 0.6761(2) 0.57638(16) 0.51447(10)
O5 O 0.7470(2) 0.42632(17) 0.41174(11)
O6 O 0.49059(19) 0.14410(15) -0.12417(10)
N2 N 0.4256(2) 0.55722(17) 0.22821(11)
C23 C 0.4306(3) 0.8194(2) 0.46486(14)
C24 C 0.5049(3) 0.7277(2) 0.46225(14)
H15 H 0.5537 0.7257 0.5125
C25 C 0.5078(2) 0.6349(2) 0.38244(13)
C26 C 0.5828(2) 0.5333(2) 0.36827(13)
C27 C 0.5762(2) 0.4506(2) 0.28715(13)
H16 H 0.6259 0.3838 0.2775
C28 C 0.4957(2) 0.46393(19) 0.21752(13)
C29 C 0.4312(3) 0.6418(2) 0.30850(13)
C30 C 0.3558(3) 0.7409(2) 0.31658(15)
H17 H 0.3054 0.7454 0.2677
C31 C 0.3552(3) 0.8289(2) 0.39334(15)
H18 H 0.3054 0.8947 0.3984
C32 C 0.6728(2) 0.5142(2) 0.43800(14)
C33 C 0.4889(2) 0.3751(2) 0.12905(13)
C34 C 0.5503(3) 0.2697(2) 0.11069(15)
H19 H 0.5965 0.2521 0.1558
C35 C 0.5448(3) 0.1902(2) 0.02743(15)
H20 H 0.5850 0.1184 0.0164
C36 C 0.4807(3) 0.2163(2) -0.03911(14)
C37 C 0.4174(3) 0.3185(2) -0.02319(15)
H21 H 0.3714 0.3351 -0.0688
C38 C 0.4216(3) 0.3972(2) 0.06054(15)
H22 H 0.3778 0.4672 0.0712
C39 C 0.3893(3) 0.0388(2) -0.15925(14)
C40 C 0.2668(3) 0.0075(2) -0.11947(17)
H23 H 0.2492 0.0563 -0.0639
C41 C 0.1697(3) -0.0971(3) -0.1625(2)
H24 H 0.0854 -0.1195 -0.1360
C42 C 0.1956(4) -0.1683(2) -0.24376(19)
H25 H 0.1287 -0.2388 -0.2729
C43 C 0.3188(4) -0.1365(2) -0.28220(17)
H26 H 0.3365 -0.1855 -0.3377
C44 C 0.4167(3) -0.0335(2) -0.24023(15)
H27 H 0.5019 -0.0123 -0.2665
H28 H 0.797(4) 0.418(3) 0.453(2)
loop_
_geom_bond_atom_site_label_1
_geom_bond_atom_site_label_2
_geom_bond_site_symmetry_1
_geom_bond_site_symmetry_2
F1 C1 1_555 1_555
O1 C10 1_555 1_555
O2 C10 1_555 1_555
O3 C14 1_555 1_555
N1 C6 1_555 1_555
C1 C2 1_555 1_555
C2 H1 1_555 1_555
C3 C2 1_555 1_555
C4 C3 1_555 1_555
C5 C4 1_555 1_555
H2 C5 1_555 1_555
C6 C5 1_555 1_555
C7 N1 1_555 1_555
C8 C7 1_555 1_555
H3 C8 1_555 1_555
C9 C1 1_555 1_555
H4 C9 1_555 1_555
C10 C4 1_555 1_555
C11 C6 1_555 1_555
C12 C11 1_555 1_555
H5 C12 1_555 1_555
C13 C12 1_555 1_555
H6 C13 1_555 1_555
C14 C13 1_555 1_555
C15 C14 1_555 1_555
H7 C15 1_555 1_555
C16 C11 1_555 1_555
H8 C16 1_555 1_555
C17 O3 1_555 1_555
C18 C17 1_555 1_555
H9 C18 1_555 1_555
C19 C18 1_555 1_555
H10 C19 1_555 1_555
C20 C19 1_555 1_555
H11 C20 1_555 1_555
C21 C20 1_555 1_555
H12 C21 1_555 1_555
C22 C17 1_555 1_555
H13 C22 1_555 1_555
H14 O2 1_555 1_555
F2 C23 1_555 1_555
O4 C32 1_555 1_555
O5 C32 1_555 1_555
O6 C36 1_555 1_555
N2 C28 1_555 1_555
C23 C24 1_555 1_555
C24 H15 1_555 1_555
C25 C24 1_555 1_555
C26 C25 1_555 1_555
C27 C26 1_555 1_555
H16 C27 1_555 1_555
C28 C27 1_555 1_555
C29 N2 1_555 1_555
C30 C29 1_555 1_555
H17 C30 1_555 1_555
C31 C23 1_555 1_555
H18 C31 1_555 1_555
C32 C26 1_555 1_555
C33 C28 1_555 1_555
C34 C33 1_555 1_555
H19 C34 1_555 1_555
C35 C34 1_555 1_555
H20 C35 1_555 1_555
C36 C35 1_555 1_555
C37 C36 1_555 1_555
H21 C37 1_555 1_555
C38 C33 1_555 1_555
H22 C38 1_555 1_555
C39 O6 1_555 1_555
C40 C39 1_555 1_555
H23 C40 1_555 1_555
C41 C40 1_555 1_555
H24 C41 1_555 1_555
C42 C41 1_555 1_555
H25 C42 1_555 1_555
C43 C42 1_555 1_555
H26 C43 1_555 1_555
C44 C39 1_555 1_555
H27 C44 1_555 1_555
H28 O5 1_555 1_555
C3 C7 1_555 1_555
C8 C9 1_555 1_555
C15 C16 1_555 1_555
C21 C22 1_555 1_555
C25 C29 1_555 1_555
C30 C31 1_555 1_555
C37 C38 1_555 1_555
C43 C44 1_555 1_555

#END
