
#######################################################################
#
#                 Cambridge Crystallographic Data Centre
#                                CCDC 
#
#######################################################################
#
# If this CIF has been generated from an entry in the Cambridge 
# Structural Database, then it will include bibliographic, chemical, 
# crystal, experimental, refinement or atomic coordinate data resulting 
# from the CCDC's data processing and validation procedures.
#
#######################################################################

data_YEHFAU
_chemical_name_common            
'1-Acetyl-3a-hydroxy-1,2,3,3a,8,8a-hexahydropyrrolo[2,3-b]indol-5-yl phenylcarbamate'
_chemical_formula_moiety         'C19 H19 N3 O4'
_chemical_name_systematic        
'Phenyl-carbamic acid 1-acetyl-3a-hydroxy-1,2,3,3a,8,8a-hexahydro-pyrrolo[2,3-b]indol-5-yl ester'
_symmetry_cell_setting           monoclinic
_symmetry_space_group_name_H-M   'P 21/c'
_symmetry_Int_Tables_number      14
_space_group_name_Hall           '-P 2ybc'
loop_
_symmetry_equiv_pos_site_id
_symmetry_equiv_pos_as_xyz
1 x,y,z
2 -x,1/2+y,1/2-z
3 -x,-y,-z
4 x,1/2-y,1/2+z
_cell_length_a                   12.997(9)
_cell_length_b                   7.448(5)
_cell_length_c                   18.523(16)
_cell_angle_alpha                90
_cell_angle_beta                 97.54(7)
_cell_angle_gamma                90
_cell_volume                     1777.55
_exptl_crystal_colour            colorless
_exptl_crystal_description       parallelepiped
_chemical_melting_point          '463 K'
_cell_formula_units_Z            4
loop_
_atom_site_label
_atom_site_type_symbol
_atom_site_fract_x
_atom_site_fract_y
_atom_site_fract_z
O1 O 0.69405(11) -0.29140(15) 0.11200(7)
O2 O 0.71120(8) 0.35097(15) 0.13666(6)
H1 H 0.710(2) 0.468(4) 0.1231(15)
O3 O 0.34679(9) 0.62018(16) 0.20346(7)
O4 O 0.22303(11) 0.62044(19) 0.10568(7)
N1 N 0.67524(11) -0.02313(17) 0.05862(7)
C1 C 0.68311(15) 0.1122(2) 0.00211(9)
H2 H 0.6607 0.0641 -0.0460
H3 H 0.7536 0.1565 0.0040
C2 C 0.61047(13) 0.2582(2) 0.02154(8)
H4 H 0.5395 0.2327 0.0010
H5 H 0.6304 0.3741 0.0039
C3 C 0.62217(12) 0.25535(18) 0.10499(8)
C4 C 0.52425(12) 0.29750(19) 0.13711(8)
C5 C 0.47876(12) 0.4604(2) 0.14952(8)
H6 H 0.5074 0.5681 0.1364
C6 C 0.38867(13) 0.4572(2) 0.18235(9)
C7 C 0.34493(14) 0.2986(2) 0.20169(10)
H7 H 0.2845 0.3009 0.2236
C8 C 0.39043(14) 0.1365(2) 0.18865(9)
H8 H 0.3612 0.0290 0.2014
C9 C 0.48045(13) 0.1373(2) 0.15624(8)
N2 N 0.53697(12) -0.01086(17) 0.13676(8)
H9 H 0.5363(19) -0.096(3) 0.1622(13)
C10 C 0.63823(12) 0.05347(18) 0.12297(8)
H10 H 0.6898 0.0372 0.1661
C11 C 0.70572(13) -0.1951(2) 0.05940(9)
C12 C 0.75204(18) -0.2635(3) -0.00490(11)
H11 H 0.7541 -0.1684 -0.0397
H12 H 0.7105 -0.3604 -0.0270
H13 H 0.8212 -0.3056 0.0106
N3 N 0.21160(12) 0.7959(2) 0.20568(8)
H14 H 0.2457(16) 0.808(3) 0.2487(11)
C13 C 0.25463(13) 0.6731(2) 0.16534(9)
C14 C 0.12864(13) 0.9123(3) 0.18222(10)
C15 C 0.11352(16) 1.0545(3) 0.22806(12)
H15 H 0.1572 1.0691 0.2716
C16 C 0.0336(2) 1.1740(4) 0.20894(16)
H16 H 0.0242 1.2696 0.2397
C17 C -0.0315(2) 1.1543(5) 0.1459(2)
H17 H -0.0854 1.2352 0.1334
C18 C -0.0165(2) 1.0126(5) 0.10064(17)
H18 H -0.0611 0.9979 0.0575
C19 C 0.06332(17) 0.8923(4) 0.11816(13)
H19 H 0.0730 0.7981 0.0868
loop_
_geom_bond_atom_site_label_1
_geom_bond_atom_site_label_2
_geom_bond_site_symmetry_1
_geom_bond_site_symmetry_2
O1 C11 1_555 1_555
O2 H1 1_555 1_555
O3 C6 1_555 1_555
O4 C13 1_555 1_555
N1 C1 1_555 1_555
C1 H2 1_555 1_555
H3 C1 1_555 1_555
C2 C1 1_555 1_555
H4 C2 1_555 1_555
H5 C2 1_555 1_555
C3 O2 1_555 1_555
C4 C3 1_555 1_555
C5 C4 1_555 1_555
H6 C5 1_555 1_555
C6 C5 1_555 1_555
C7 C6 1_555 1_555
H7 C7 1_555 1_555
C8 C7 1_555 1_555
H8 C8 1_555 1_555
C9 C4 1_555 1_555
N2 C9 1_555 1_555
H9 N2 1_555 1_555
C10 N1 1_555 1_555
H10 C10 1_555 1_555
C11 N1 1_555 1_555
C12 C11 1_555 1_555
H11 C12 1_555 1_555
H12 C12 1_555 1_555
H13 C12 1_555 1_555
N3 H14 1_555 1_555
C13 O3 1_555 1_555
C14 N3 1_555 1_555
C15 C14 1_555 1_555
H15 C15 1_555 1_555
C16 C15 1_555 1_555
H16 C16 1_555 1_555
C17 C16 1_555 1_555
H17 C17 1_555 1_555
C18 C17 1_555 1_555
H18 C18 1_555 1_555
C19 C14 1_555 1_555
H19 C19 1_555 1_555
C2 C3 1_555 1_555
C3 C10 1_555 1_555
C8 C9 1_555 1_555
N2 C10 1_555 1_555
N3 C13 1_555 1_555
C18 C19 1_555 1_555

#END
