
#######################################################################
#
#                 Cambridge Crystallographic Data Centre
#                                CCDC 
#
#######################################################################
#
# If this CIF has been generated from an entry in the Cambridge 
# Structural Database, then it will include bibliographic, chemical, 
# crystal, experimental, refinement or atomic coordinate data resulting 
# from the CCDC's data processing and validation procedures.
#
#######################################################################

data_YEHFAS
_chemical_formula_moiety         'C14 H21 N2 O2 P1 S1'
_chemical_name_systematic        
2-Diethylamino-3-(4'-methylbenzoyl)-2-thione-1,3,2-oxazaphospholidine
_symmetry_cell_setting           orthorhombic
_symmetry_space_group_name_H-M   'P b c a'
_symmetry_Int_Tables_number      61
_space_group_name_Hall           '-P 2ac 2ab'
loop_
_symmetry_equiv_pos_site_id
_symmetry_equiv_pos_as_xyz
1 x,y,z
2 1/2-x,1/2+y,z
3 x,1/2-y,1/2+z
4 1/2-x,-y,1/2+z
5 -x,-y,-z
6 1/2+x,1/2-y,-z
7 -x,1/2+y,1/2-z
8 1/2+x,y,1/2-z
_cell_length_a                   9.057(5)
_cell_length_b                   13.974(6)
_cell_length_c                   25.130(7)
_cell_angle_alpha                90
_cell_angle_beta                 90
_cell_angle_gamma                90
_cell_volume                     3180.52
_cell_formula_units_Z            8
loop_
_atom_site_label
_atom_site_type_symbol
_atom_site_fract_x
_atom_site_fract_y
_atom_site_fract_z
P1 P 0.7407(2) 0.3054(1) 0.39234(6)
S1 S 0.6934(3) 0.4372(2) 0.38493(9)
O1 O 0.6087(7) 0.2345(5) 0.4047(2)
O2 O 0.8892(9) 0.2299(5) 0.2558(3)
N1 N 0.7881(6) 0.2454(4) 0.3354(2)
N2 N 0.8572(8) 0.2819(4) 0.4395(2)
C1 C 0.892(1) 0.2696(5) 0.2994(2)
C2 C 0.679(1) 0.1743(6) 0.3222(3)
C3 C 0.549(1) 0.193(1) 0.3551(3)
C4 C 0.922(1) 0.358(1) 0.4709(4)
C5 C 0.840(2) 0.3839(8) 0.5206(4)
C6 C 0.912(1) 0.1837(7) 0.4474(4)
C7 C 0.869(1) 0.1389(8) 0.4990(5)
C8 C 1.328(1) 0.5633(7) 0.3353(4)
C9 C 1.0025(8) 0.3447(5) 0.3103(2)
C10 C 1.011(1) 0.4208(7) 0.2776(3)
C11 C 1.118(1) 0.4930(6) 0.2853(4)
C12 C 1.2164(7) 0.4863(6) 0.3263(3)
C13 C 1.208(1) 0.4072(6) 0.3586(3)
C14 C 1.105(1) 0.3376(6) 0.3505(4)
loop_
_geom_bond_atom_site_label_1
_geom_bond_atom_site_label_2
_geom_bond_site_symmetry_1
_geom_bond_site_symmetry_2
P1 S1 1_555 1_555
O1 P1 1_555 1_555
O2 C1 1_555 1_555
N1 P1 1_555 1_555
N2 P1 1_555 1_555
C1 N1 1_555 1_555
C2 N1 1_555 1_555
C3 O1 1_555 1_555
C4 N2 1_555 1_555
C5 C4 1_555 1_555
C6 N2 1_555 1_555
C7 C6 1_555 1_555
C8 C12 1_555 1_555
C9 C1 1_555 1_555
C10 C9 1_555 1_555
C11 C10 1_555 1_555
C12 C11 1_555 1_555
C13 C12 1_555 1_555
C14 C9 1_555 1_555
C2 C3 1_555 1_555
C13 C14 1_555 1_555

#END
