
#######################################################################
#
#                 Cambridge Crystallographic Data Centre
#                                CCDC 
#
#######################################################################
#
# If this CIF has been generated from an entry in the Cambridge 
# Structural Database, then it will include bibliographic, chemical, 
# crystal, experimental, refinement or atomic coordinate data resulting 
# from the CCDC's data processing and validation procedures.
#
#######################################################################

data_YEHHAX
_chemical_formula_moiety         'C21 H23 N1 O3'
_chemical_name_systematic        
((1R,2R)-2-(4-methoxyphenoxy)-1-phenylcyclopropyl)(pyrrolidin-1-yl)methanone
_symmetry_cell_setting           monoclinic
_symmetry_space_group_name_H-M   'P 21/c'
_symmetry_Int_Tables_number      14
_space_group_name_Hall           '-P 2ybc'
loop_
_symmetry_equiv_pos_site_id
_symmetry_equiv_pos_as_xyz
1 x,y,z
2 -x,1/2+y,1/2-z
3 -x,-y,-z
4 x,1/2-y,1/2+z
_cell_length_a                   11.9367(4)
_cell_length_b                   14.2449(4)
_cell_length_c                   11.4918(3)
_cell_angle_alpha                90
_cell_angle_beta                 112.287(4)
_cell_angle_gamma                90
_cell_volume                     1808.06
_exptl_crystal_colour            colorless
_exptl_crystal_description       irregular
_cell_formula_units_Z            4
_exptl_crystal_recrystallization_method 'Hexane/ethyl acetate'
loop_
_atom_site_label
_atom_site_type_symbol
_atom_site_fract_x
_atom_site_fract_y
_atom_site_fract_z
O1 O 0.52611(11) 0.42813(9) 0.71931(10)
O2 O 0.59330(12) 0.33400(9) 1.03840(12)
O3 O 0.12946(12) 0.46195(11) 0.27212(13)
N1 N 0.68631(13) 0.46060(10) 1.00228(12)
C1 C 0.64408(13) 0.37282(11) 0.97649(13)
C2 C 0.66803(14) 0.32021(11) 0.87339(14)
C3 C 0.42838(14) 0.43325(11) 0.60508(14)
C4 C 0.79509(8) 0.28029(8) 0.91240(10)
C5 C 0.82371(9) 0.22131(9) 0.83132(8)
H1 H 0.765937 0.208060 0.752031
C6 C 0.93869(11) 0.18215(10) 0.86875(11)
H2 H 0.957839 0.142692 0.814495
C7 C 1.02505(9) 0.20196(11) 0.98725(12)
H3 H 1.101973 0.175751 1.012293
C8 C 0.99643(9) 0.26093(12) 1.06834(10)
H4 H 1.054207 0.274180 1.147627
C9 C 0.88145(10) 0.30009(9) 1.03091(9)
H5 H 0.862305 0.339549 1.085165
C10 C 0.59901(15) 0.34821(12) 0.73792(14)
H6 H 0.640491 0.339148 0.679713
C11 C 0.22808(14) 0.45770(12) 0.38497(16)
C12 C 0.40175(16) 0.36679(12) 0.51097(16)
H7 H 0.450317 0.313927 0.521348
C13 C 0.56235(15) 0.26245(12) 0.78666(16)
H8 H 0.580339 0.202373 0.757971
H9 H 0.487240 0.264403 0.800755
C14 C 0.67225(18) 0.51345(14) 1.10569(17)
H10 H 0.722382 0.487018 1.186504
H11 H 0.588532 0.513315 1.098214
C15 C 0.25522(17) 0.52399(13) 0.47840(18)
H12 H 0.206707 0.576901 0.467800
C16 C 0.30150(17) 0.38007(13) 0.40073(17)
H13 H 0.283489 0.336001 0.336495
C17 C 0.74137(18) 0.51860(14) 0.93278(18)
H14 H 0.707547 0.504298 0.843605
H15 H 0.828493 0.510282 0.964556
C18 C 0.35577(18) 0.51131(13) 0.58889(17)
H16 H 0.374281 0.555915 0.652542
C19 C 0.7133(2) 0.61207(16) 1.0911(3)
H17 H 0.659869 0.658494 1.104263
H18 H 0.795110 0.623247 1.150773
C20 C 0.7081(2) 0.61630(16) 0.9582(3)
H19 H 0.627403 0.632802 0.900030
H20 H 0.765239 0.661978 0.950664
C21 C 0.0558(2) 0.5425(2) 0.2498(3)
H21 H -0.007110 0.538613 0.167593
H22 H 0.104027 0.597382 0.254883
H23 H 0.020149 0.546322 0.311867
loop_
_geom_bond_atom_site_label_1
_geom_bond_atom_site_label_2
_geom_bond_site_symmetry_1
_geom_bond_site_symmetry_2
O1 C3 1_555 1_555
O2 C1 1_555 1_555
O3 C11 1_555 1_555
N1 C1 1_555 1_555
C1 C2 1_555 1_555
C2 C4 1_555 1_555
C3 C12 1_555 1_555
C4 C5 1_555 1_555
C5 H1 1_555 1_555
C6 C5 1_555 1_555
H2 C6 1_555 1_555
C7 C6 1_555 1_555
H3 C7 1_555 1_555
C8 C7 1_555 1_555
H4 C8 1_555 1_555
C9 C4 1_555 1_555
H5 C9 1_555 1_555
C10 O1 1_555 1_555
H6 C10 1_555 1_555
C11 C15 1_555 1_555
C12 H7 1_555 1_555
C13 C2 1_555 1_555
H8 C13 1_555 1_555
H9 C13 1_555 1_555
C14 N1 1_555 1_555
H10 C14 1_555 1_555
H11 C14 1_555 1_555
C15 H12 1_555 1_555
C16 C11 1_555 1_555
H13 C16 1_555 1_555
C17 N1 1_555 1_555
H14 C17 1_555 1_555
H15 C17 1_555 1_555
C18 C3 1_555 1_555
H16 C18 1_555 1_555
C19 C14 1_555 1_555
H17 C19 1_555 1_555
H18 C19 1_555 1_555
C20 C17 1_555 1_555
H19 C20 1_555 1_555
H20 C20 1_555 1_555
C21 O3 1_555 1_555
H21 C21 1_555 1_555
H22 C21 1_555 1_555
H23 C21 1_555 1_555
C2 C10 1_555 1_555
C8 C9 1_555 1_555
C10 C13 1_555 1_555
C12 C16 1_555 1_555
C15 C18 1_555 1_555
C19 C20 1_555 1_555

#END
