
#######################################################################
#
#                 Cambridge Crystallographic Data Centre
#                                CCDC 
#
#######################################################################
#
# If this CIF has been generated from an entry in the Cambridge 
# Structural Database, then it will include bibliographic, chemical, 
# crystal, experimental, refinement or atomic coordinate data resulting 
# from the CCDC's data processing and validation procedures.
#
#######################################################################

data_YEHNUX
_chemical_formula_moiety         'C44 H49 B1 N4'
_chemical_name_systematic        
2-phenyl-N^4^,N^5^,1,3-tetrakis(2,4,6-trimethylphenyl)-1,3,2-diazaborolidine-4,5-diimine
_symmetry_cell_setting           monoclinic
_symmetry_space_group_name_H-M   'C c'
_symmetry_Int_Tables_number      9
_space_group_name_Hall           'C -2yc'
loop_
_symmetry_equiv_pos_site_id
_symmetry_equiv_pos_as_xyz
1 x,y,z
2 x,-y,1/2+z
3 1/2+x,1/2+y,z
4 1/2+x,1/2-y,1/2+z
_cell_length_a                   21.931(3)
_cell_length_b                   12.2382(17)
_cell_length_c                   14.940(2)
_cell_angle_alpha                90
_cell_angle_beta                 108.564(4)
_cell_angle_gamma                90
_cell_volume                     3801.2
_exptl_crystal_colour            orange
_exptl_crystal_description       block
_cell_formula_units_Z            4
loop_
_atom_site_label
_atom_site_type_symbol
_atom_site_fract_x
_atom_site_fract_y
_atom_site_fract_z
B1 B 0.49162(14) 0.6247(3) 0.5946(2)
C1 C 0.52799(12) 0.5480(2) 0.67758(19)
C2 C 0.53042(13) 0.4355(2) 0.6627(2)
H1 H 0.5061 0.4057 0.6033
C3 C 0.56778(14) 0.3660(3) 0.7329(2)
H2 H 0.5698 0.2902 0.7208
C4 C 0.60192(13) 0.4085(3) 0.8205(2)
H3 H 0.6276 0.3618 0.8685
C5 C 0.59866(13) 0.5192(3) 0.8379(2)
H4 H 0.621 0.5477 0.8987
C6 C 0.56282(12) 0.5887(2) 0.76688(19)
H5 H 0.562 0.6648 0.7791
C7 C 0.39425(12) 0.5045(2) 0.49982(19)
C8 C 0.40006(12) 0.4262(2) 0.43489(19)
C9 C 0.44983(14) 0.4380(3) 0.3855(2)
H6 H 0.4379 0.4987 0.3404
H7 H 0.452 0.3702 0.3517
H8 H 0.4919 0.4528 0.4322
C10 C 0.35860(12) 0.3373(2) 0.4171(2)
H9 H 0.3619 0.2836 0.3729
C11 C 0.31230(12) 0.3242(2) 0.4620(2)
C12 C 0.26632(15) 0.2275(3) 0.4386(3)
H10 H 0.2584 0.2023 0.4962
H11 H 0.2854 0.1681 0.4125
H12 H 0.2256 0.2499 0.3922
C13 C 0.30862(13) 0.4031(3) 0.5267(2)
H13 H 0.2776 0.3948 0.5584
C14 C 0.34886(13) 0.4941(2) 0.5467(2)
C15 C 0.34271(16) 0.5801(3) 0.6161(2)
H14 H 0.3816 0.5801 0.6714
H15 H 0.3052 0.5639 0.6361
H16 H 0.3373 0.6521 0.5859
C16 C 0.56817(12) 0.7921(2) 0.63576(17)
C17 C 0.62853(12) 0.7550(2) 0.63488(18)
C18 C 0.63690(13) 0.6493(2) 0.5874(2)
H17 H 0.6431 0.5889 0.6325
H18 H 0.6746 0.6551 0.5658
H19 H 0.5985 0.6356 0.5331
C19 C 0.68274(13) 0.8161(2) 0.6835(2)
H20 H 0.724 0.7924 0.6835
C20 C 0.67763(13) 0.9108(2) 0.73198(19)
C21 C 0.73629(15) 0.9806(3) 0.7795(2)
H21 H 0.7341 1.0484 0.7436
H22 H 0.7753 0.9403 0.7815
H23 H 0.7373 0.9981 0.844
C22 C 0.61781(14) 0.9411(2) 0.73630(19)
H24 H 0.6145 1.004 0.7717
C23 C 0.56209(13) 0.8819(2) 0.68999(18)
C24 C 0.49900(14) 0.9142(3) 0.7036(2)
H25 H 0.5006 0.8977 0.7685
H26 H 0.4638 0.8731 0.6594
H27 H 0.4918 0.9926 0.6918
C25 C 0.50860(12) 0.9557(2) 0.47317(18)
C26 C 0.56984(13) 0.9540(2) 0.46178(18)
C27 C 0.59212(14) 0.8549(2) 0.4213(2)
H28 H 0.579 0.7887 0.4473
H29 H 0.6391 0.8564 0.4378
H30 H 0.5728 0.855 0.3525
C28 C 0.60759(14) 1.0479(2) 0.4824(2)
H31 H 0.6494 1.0463 0.4765
C29 C 0.58574(14) 1.1439(2) 0.5114(2)
C30 C 0.62892(18) 1.2434(3) 0.5368(3)
H32 H 0.6572 1.2371 0.6022
H33 H 0.6025 1.3093 0.5301
H34 H 0.655 1.2481 0.4945
C31 C 0.52298(14) 1.1460(2) 0.5153(2)
H35 H 0.5067 1.212 0.5324
C32 C 0.48343(13) 1.0541(2) 0.49500(19)
C33 C 0.41399(13) 1.0602(3) 0.4908(2)
H36 H 0.4054 1.1318 0.5136
H37 H 0.4051 1.0028 0.5307
H38 H 0.3863 1.05 0.4255
C34 C 0.46848(11) 0.7774(2) 0.49546(17)
C35 C 0.41777(12) 0.6902(2) 0.45725(19)
C36 C 0.34426(12) 0.7866(2) 0.33071(19)
C37 C 0.29587(13) 0.8474(2) 0.34953(19)
C38 C 0.27182(16) 0.8152(3) 0.4294(2)
H39 H 0.2345 0.8603 0.4278
H40 H 0.306 0.8263 0.4896
H41 H 0.2592 0.738 0.4229
C39 C 0.27056(14) 0.9381(2) 0.2938(2)
H42 H 0.2383 0.9804 0.3074
C40 C 0.29133(15) 0.9679(3) 0.2193(2)
C41 C 0.26359(19) 1.0679(3) 0.1604(3)
H43 H 0.2286 1.098 0.1806
H44 H 0.2469 1.0473 0.0936
H45 H 0.2974 1.1231 0.169
C42 C 0.33762(15) 0.9033(3) 0.1995(2)
H46 H 0.3514 0.9222 0.1474
C43 C 0.36466(13) 0.8115(2) 0.25362(19)
C44 C 0.41570(14) 0.7445(3) 0.2324(2)
H47 H 0.4565 0.7532 0.2835
H48 H 0.4208 0.7691 0.1728
H49 H 0.4031 0.6673 0.227
N1 N 0.43570(10) 0.59922(18) 0.51641(15)
N2 N 0.51078(10) 0.73499(18) 0.58035(15)
N3 N 0.46612(10) 0.86526(18) 0.44957(15)
N4 N 0.36678(10) 0.69168(19) 0.38657(15)
loop_
_geom_bond_atom_site_label_1
_geom_bond_atom_site_label_2
_geom_bond_site_symmetry_1
_geom_bond_site_symmetry_2
B1 C1 1_555 1_555
C1 C2 1_555 1_555
C2 H1 1_555 1_555
C3 C2 1_555 1_555
H2 C3 1_555 1_555
C4 C3 1_555 1_555
H3 C4 1_555 1_555
C5 C4 1_555 1_555
H4 C5 1_555 1_555
C6 C1 1_555 1_555
H5 C6 1_555 1_555
C7 C8 1_555 1_555
C8 C9 1_555 1_555
C9 H6 1_555 1_555
H7 C9 1_555 1_555
H8 C9 1_555 1_555
C10 C8 1_555 1_555
H9 C10 1_555 1_555
C11 C10 1_555 1_555
C12 C11 1_555 1_555
H10 C12 1_555 1_555
H11 C12 1_555 1_555
H12 C12 1_555 1_555
C13 C11 1_555 1_555
H13 C13 1_555 1_555
C14 C7 1_555 1_555
C15 C14 1_555 1_555
H14 C15 1_555 1_555
H15 C15 1_555 1_555
H16 C15 1_555 1_555
C16 C17 1_555 1_555
C17 C18 1_555 1_555
C18 H17 1_555 1_555
H18 C18 1_555 1_555
H19 C18 1_555 1_555
C19 C17 1_555 1_555
H20 C19 1_555 1_555
C20 C19 1_555 1_555
C21 C20 1_555 1_555
H21 C21 1_555 1_555
H22 C21 1_555 1_555
H23 C21 1_555 1_555
C22 C20 1_555 1_555
H24 C22 1_555 1_555
C23 C16 1_555 1_555
C24 C23 1_555 1_555
H25 C24 1_555 1_555
H26 C24 1_555 1_555
H27 C24 1_555 1_555
C25 C26 1_555 1_555
C26 C27 1_555 1_555
C27 H28 1_555 1_555
H29 C27 1_555 1_555
H30 C27 1_555 1_555
C28 C26 1_555 1_555
H31 C28 1_555 1_555
C29 C28 1_555 1_555
C30 C29 1_555 1_555
H32 C30 1_555 1_555
H33 C30 1_555 1_555
H34 C30 1_555 1_555
C31 C29 1_555 1_555
H35 C31 1_555 1_555
C32 C25 1_555 1_555
C33 C32 1_555 1_555
H36 C33 1_555 1_555
H37 C33 1_555 1_555
H38 C33 1_555 1_555
C34 C35 1_555 1_555
C35 N1 1_555 1_555
C36 C37 1_555 1_555
C37 C38 1_555 1_555
C38 H39 1_555 1_555
H40 C38 1_555 1_555
H41 C38 1_555 1_555
C39 C37 1_555 1_555
H42 C39 1_555 1_555
C40 C39 1_555 1_555
C41 C40 1_555 1_555
H43 C41 1_555 1_555
H44 C41 1_555 1_555
H45 C41 1_555 1_555
C42 C40 1_555 1_555
H46 C42 1_555 1_555
C43 C36 1_555 1_555
C44 C43 1_555 1_555
H47 C44 1_555 1_555
H48 C44 1_555 1_555
H49 C44 1_555 1_555
N1 B1 1_555 1_555
N2 B1 1_555 1_555
N3 C25 1_555 1_555
N4 C35 1_555 1_555
C5 C6 1_555 1_555
C7 N1 1_555 1_555
C13 C14 1_555 1_555
C16 N2 1_555 1_555
C22 C23 1_555 1_555
C31 C32 1_555 1_555
C34 N2 1_555 1_555
C34 N3 1_555 1_555
C36 N4 1_555 1_555
C42 C43 1_555 1_555

#END
