
#######################################################################
#
#                 Cambridge Crystallographic Data Centre
#                                CCDC 
#
#######################################################################
#
# If this CIF has been generated from an entry in the Cambridge 
# Structural Database, then it will include bibliographic, chemical, 
# crystal, experimental, refinement or atomic coordinate data resulting 
# from the CCDC's data processing and validation procedures.
#
#######################################################################

data_YEHPEG
_chemical_formula_moiety         'C10 H10 N4'
_chemical_name_systematic        2,2'-Dimethyl-4,4'-bipyrimidine
_symmetry_cell_setting           triclinic
_symmetry_space_group_name_H-M   'P -1'
_symmetry_Int_Tables_number      2
_space_group_name_Hall           '-P 1'
loop_
_symmetry_equiv_pos_site_id
_symmetry_equiv_pos_as_xyz
1 x,y,z
2 -x,-y,-z
_cell_length_a                   3.911(1)
_cell_length_b                   5.643(1)
_cell_length_c                   10.564(2)
_cell_angle_alpha                82.82(1)
_cell_angle_beta                 82.89(2)
_cell_angle_gamma                88.16(2)
_cell_volume                     229.505
_exptl_crystal_colour            colorless
_chemical_melting_point          133deg.C
_cell_formula_units_Z            1
loop_
_atom_site_label
_atom_site_type_symbol
_atom_site_fract_x
_atom_site_fract_y
_atom_site_fract_z
C1 C 0.0756(6) -0.0322(4) -0.0639(2)
C2 C 0.3792(7) -0.2869(5) -0.1996(3)
N1 N 0.3359(6) -0.1335(4) -0.3026(2)
C3 C 0.2533(7) -0.2459(5) -0.0766(2)
C4 C 0.1615(7) 0.0678(5) -0.2814(2)
N2 N 0.0300(5) 0.1274(4) -0.1664(2)
C5 C 0.1088(8) 0.2432(6) -0.3964(2)
H1 H 0.5051(7) -0.4597(5) -0.1857(3)
H2 H 0.2544(7) -0.3396(5) 0.0190(2)
H3 H 0.2267(8) 0.1736(6) -0.4824(2)
H4 H 0.2255(8) 0.4106(6) -0.3882(2)
H5 H -0.1638(8) 0.2716(6) -0.4015(2)
C1A C -0.0756(6) 0.0322(4) 0.0639(2)
C3A C -0.2533(7) 0.2459(5) 0.0766(2)
N2A N -0.0300(5) -0.1274(4) 0.1664(2)
C2A C -0.3792(7) 0.2869(5) 0.1996(3)
H2A H -0.2544(7) 0.3396(5) -0.0190(2)
C4A C -0.1615(7) -0.0678(5) 0.2814(2)
N1A N -0.3359(6) 0.1335(4) 0.3026(2)
H1A H -0.5051(7) 0.4597(5) 0.1857(3)
C5A C -0.1088(8) -0.2432(6) 0.3964(2)
H3A H -0.2267(8) -0.1736(6) 0.4824(2)
H4A H -0.2255(8) -0.4106(6) 0.3882(2)
H5A H 0.1638(8) -0.2716(6) 0.4015(2)
loop_
_geom_bond_atom_site_label_1
_geom_bond_atom_site_label_2
_geom_bond_site_symmetry_1
_geom_bond_site_symmetry_2
C1 C3 1_555 1_555
C2 N1 1_555 1_555
N1 C4 1_555 1_555
C3 C2 1_555 1_555
C4 N2 1_555 1_555
N2 C1 1_555 1_555
C5 C4 1_555 1_555
H1 C2 1_555 1_555
H2 C3 1_555 1_555
H3 C5 1_555 1_555
H4 C5 1_555 1_555
H5 C5 1_555 1_555
C1A C1 1_555 1_555
C3A C1A 1_555 1_555
N2A C1A 1_555 1_555
C2A C3A 1_555 1_555
H2A C3A 1_555 1_555
C4A N2A 1_555 1_555
N1A C2A 1_555 1_555
H1A C2A 1_555 1_555
C5A C4A 1_555 1_555
H3A C5A 1_555 1_555
H4A C5A 1_555 1_555
H5A C5A 1_555 1_555
C4A N1A 1_555 1_555

#END
