
#######################################################################
#
#                 Cambridge Crystallographic Data Centre
#                                CCDC 
#
#######################################################################
#
# If this CIF has been generated from an entry in the Cambridge 
# Structural Database, then it will include bibliographic, chemical, 
# crystal, experimental, refinement or atomic coordinate data resulting 
# from the CCDC's data processing and validation procedures.
#
#######################################################################

data_YEHPIN
_chemical_formula_moiety         'C50 H54 B2 N4 1+,C24 B1 F20 1-,C7 H8'
_chemical_name_systematic        
'2,5-diphenyl-1,3,4,6-tetrakis(2,4,6-trimethylphenyl)-1,2,3,4,5,6-hexahydro[1,3,2]diazaborolo[4,5-d][1,3,2]diazaborol-2-ium radical cation tetrakis(pentafluorophenyl)borate toluene solvate'
_symmetry_cell_setting           monoclinic
_symmetry_space_group_name_H-M   'P 21/n'
_symmetry_Int_Tables_number      14
_space_group_name_Hall           '-P 2yn'
loop_
_symmetry_equiv_pos_site_id
_symmetry_equiv_pos_as_xyz
1 x,y,z
2 1/2-x,1/2+y,1/2-z
3 -x,-y,-z
4 1/2+x,1/2-y,1/2+z
_cell_length_a                   17.0654(2)
_cell_length_b                   18.7504(2)
_cell_length_c                   22.9274(3)
_cell_angle_alpha                90
_cell_angle_beta                 97.0523(5)
_cell_angle_gamma                90
_cell_volume                     7280.88
_exptl_crystal_colour            red
_exptl_crystal_description       block
_cell_formula_units_Z            4
loop_
_atom_site_label
_atom_site_type_symbol
_atom_site_fract_x
_atom_site_fract_y
_atom_site_fract_z
B1 B 0.49659(12) 0.15707(11) 0.30219(9)
B2 B 0.49353(12) 0.34728(11) 0.19717(9)
C1 C 0.45422(12) 0.24832(11) 0.24243(10)
C2 C 0.53487(11) 0.26016(11) 0.26235(9)
C3 C 0.49797(11) 0.08780(10) 0.33879(9)
C4 C 0.45826(13) 0.02670(11) 0.31570(11)
H1 H 0.4297 0.028 0.2774
C5 C 0.46037(16) -0.03558(13) 0.34836(14)
H2 H 0.4351 -0.0773 0.3318
C6 C 0.49884(15) -0.03722(14) 0.40466(14)
H3 H 0.499 -0.0798 0.4271
C7 C 0.53739(13) 0.02277(13) 0.42884(11)
H4 H 0.5634 0.0217 0.4679
C8 C 0.53765(12) 0.08460(12) 0.39534(10)
H5 H 0.5655 0.1254 0.4114
C9 C 0.34822(10) 0.16146(9) 0.25942(8)
C10 C 0.30437(11) 0.17420(9) 0.30590(8)
C11 C 0.33986(12) 0.20956(11) 0.36205(8)
H6 H 0.2976 0.2237 0.385
H7 H 0.3696 0.2519 0.3527
H8 H 0.3754 0.1761 0.385
C12 C 0.22611(12) 0.15196(11) 0.29936(9)
H9 H 0.1954 0.16 0.3306
C13 C 0.19133(12) 0.11835(11) 0.24866(10)
C14 C 0.10486(14) 0.09844(17) 0.24222(13)
H10 H 0.0774 0.1216 0.2072
H11 H 0.0816 0.1143 0.277
H12 H 0.0995 0.0466 0.2383
C15 C 0.23805(12) 0.10412(11) 0.20460(9)
H13 H 0.2154 0.0798 0.1703
C16 C 0.31713(11) 0.12425(10) 0.20907(8)
C17 C 0.36722(13) 0.10394(11) 0.16244(9)
H14 H 0.3917 0.0574 0.1719
H15 H 0.4085 0.1399 0.1605
H16 H 0.3342 0.1012 0.1244
C18 C 0.64387(10) 0.20086(9) 0.32576(8)
C19 C 0.69238(12) 0.14742(10) 0.30788(8)
C20 C 0.66300(15) 0.09018(12) 0.26468(11)
H17 H 0.6489 0.0477 0.286
H18 H 0.7045 0.0781 0.2404
H19 H 0.6164 0.1075 0.2394
C21 C 0.77134(12) 0.14759(11) 0.33286(10)
H20 H 0.806 0.1123 0.3208
C22 C 0.80097(12) 0.19736(12) 0.37458(10)
C23 C 0.88687(15) 0.19618(17) 0.40027(15)
H21 H 0.906 0.2452 0.4066
H22 H 0.918 0.1719 0.373
H23 H 0.8924 0.1707 0.4379
C24 C 0.74982(12) 0.24722(11) 0.39292(9)
H24 H 0.7693 0.2809 0.4221
C25 C 0.67050(11) 0.24976(10) 0.36996(8)
C26 C 0.61607(14) 0.30196(12) 0.39387(10)
H25 H 0.5798 0.2763 0.4165
H26 H 0.5857 0.3275 0.3613
H27 H 0.6471 0.3362 0.4195
C27 C 0.49260(11) 0.41166(10) 0.15542(8)
C28 C 0.55985(12) 0.43224(12) 0.13070(10)
H28 H 0.6081 0.4075 0.1414
C29 C 0.55758(14) 0.48804(14) 0.09087(12)
H29 H 0.6039 0.5007 0.0741
C30 C 0.48822(14) 0.52527(12) 0.07548(11)
H30 H 0.487 0.564 0.0486
C31 C 0.42102(14) 0.50620(12) 0.09908(11)
H31 H 0.3732 0.5314 0.0881
C32 C 0.42292(12) 0.45021(11) 0.13891(10)
H32 H 0.3762 0.4378 0.1553
C33 C 0.35185(10) 0.29432(9) 0.16663(8)
C34 C 0.28215(11) 0.31149(10) 0.18936(8)
C35 C 0.28158(13) 0.34620(12) 0.24828(9)
H33 H 0.333 0.3684 0.2603
H34 H 0.2712 0.3101 0.2773
H35 H 0.2402 0.3827 0.2457
C36 C 0.21113(12) 0.29686(12) 0.15427(11)
H36 H 0.1628 0.3073 0.1691
C37 C 0.20902(15) 0.26786(15) 0.09900(12)
C38 C 0.1315(2) 0.2511(3) 0.06274(19)
H37 H 0.0913 0.242 0.0888
H38 H 0.1376 0.2088 0.0387
H39 H 0.1153 0.2917 0.0371
C39 C 0.28001(15) 0.25573(13) 0.07681(10)
H40 H 0.2789 0.2378 0.038
C40 C 0.35262(12) 0.26895(11) 0.10956(8)
C41 C 0.42843(15) 0.25600(13) 0.08367(10)
H41 H 0.4497 0.3016 0.0718
H42 H 0.418 0.2248 0.0493
H43 H 0.4669 0.2332 0.1131
C42 C 0.64244(10) 0.34269(9) 0.24533(7)
C43 C 0.69907(11) 0.30254(10) 0.22084(8)
C44 C 0.67671(13) 0.24315(11) 0.17790(10)
H44 H 0.6667 0.2628 0.1381
H45 H 0.6289 0.2195 0.1879
H46 H 0.7199 0.2085 0.1798
C45 C 0.77768(11) 0.32202(10) 0.23456(8)
H47 H 0.8172 0.2947 0.219
C46 C 0.80045(11) 0.38008(10) 0.27025(8)
C47 C 0.88680(12) 0.39782(14) 0.28571(12)
H48 H 0.892 0.4456 0.3031
H49 H 0.9131 0.3966 0.2501
H50 H 0.9114 0.3628 0.314
C48 C 0.74198(11) 0.42126(10) 0.29046(8)
H51 H 0.7568 0.4623 0.3135
C49 C 0.66200(10) 0.40434(9) 0.27801(7)
C50 C 0.60056(11) 0.45348(11) 0.29780(9)
H52 H 0.62 0.4733 0.3364
H53 H 0.5518 0.4267 0.3005
H54 H 0.5899 0.4923 0.2694
N1 N 0.42912(9) 0.18652(8) 0.26468(6)
N2 N 0.56294(9) 0.20666(8) 0.29891(7)
N3 N 0.42667(8) 0.30020(8) 0.20341(6)
N4 N 0.56107(9) 0.31872(8) 0.23631(7)
B3 B 0.25581(11) 0.40420(10) 0.49978(8)
C51 C 0.32346(10) 0.44968(9) 0.46981(7)
C52 C 0.35072(10) 0.43484(9) 0.41660(8)
C53 C 0.40918(11) 0.47282(10) 0.39379(8)
C54 C 0.44474(10) 0.52959(10) 0.42464(9)
C55 C 0.42153(10) 0.54594(9) 0.47869(8)
C56 C 0.36376(10) 0.50573(9) 0.50005(7)
C57 C 0.30961(10) 0.35859(9) 0.55201(8)
C58 C 0.31827(10) 0.37191(9) 0.61172(8)
C59 C 0.36927(11) 0.33496(11) 0.65298(8)
C60 C 0.41444(11) 0.28042(11) 0.63442(10)
C61 C 0.40830(11) 0.26477(10) 0.57574(10)
C62 C 0.35833(11) 0.30432(10) 0.53642(8)
C63 C 0.18779(10) 0.45505(9) 0.52470(7)
C64 C 0.17163(11) 0.52635(9) 0.51280(7)
C65 C 0.10939(12) 0.56301(10) 0.53224(8)
C66 C 0.05788(11) 0.52820(12) 0.56399(9)
C67 C 0.07018(11) 0.45722(12) 0.57655(9)
C68 C 0.13311(11) 0.42291(10) 0.55671(8)
C69 C 0.20054(10) 0.35348(9) 0.45183(8)
C70 C 0.16533(10) 0.38365(10) 0.39978(8)
C71 C 0.11543(11) 0.34838(12) 0.35754(9)
C72 C 0.09543(11) 0.27877(13) 0.36714(10)
C73 C 0.12673(12) 0.24641(11) 0.41833(11)
C74 C 0.17807(11) 0.28323(10) 0.45932(9)
F1 F 0.32103(6) 0.38001(6) 0.38257(5)
F2 F 0.43203(7) 0.45387(7) 0.34193(5)
F3 F 0.50158(7) 0.56734(7) 0.40344(6)
F4 F 0.45660(7) 0.60026(6) 0.51023(5)
F5 F 0.34590(6) 0.52336(5) 0.55398(4)
F6 F 0.27524(7) 0.42336(6) 0.63450(4)
F7 F 0.37403(8) 0.35141(7) 0.71012(5)
F8 F 0.46305(8) 0.24295(8) 0.67383(6)
F9 F 0.45039(8) 0.21072(7) 0.55643(7)
F10 F 0.35777(7) 0.28701(6) 0.47922(5)
F11 F 0.21702(7) 0.56573(5) 0.48074(5)
F12 F 0.09852(8) 0.63272(7) 0.51997(6)
F13 F -0.00343(8) 0.56308(8) 0.58233(7)
F14 F 0.02101(8) 0.42186(8) 0.60792(7)
F15 F 0.14074(7) 0.35300(6) 0.57036(5)
F16 F 0.18021(7) 0.45240(6) 0.38810(5)
F17 F 0.08559(8) 0.38165(8) 0.30751(6)
F18 F 0.04653(8) 0.24335(9) 0.32685(7)
F19 F 0.10730(8) 0.17834(7) 0.42867(8)
F20 F 0.20570(7) 0.24619(6) 0.50793(6)
C75 C 0.72095(13) 0.95098(13) 0.45994(11)
C76 C 0.70060(14) 0.92424(13) 0.51175(11)
H55 H 0.6891 0.8749 0.5146
C77 C 0.69645(15) 0.96810(14) 0.56022(11)
H56 H 0.6815 0.9489 0.5956
C78 C 0.71424(16) 1.03995(15) 0.55650(13)
H57 H 0.7121 1.0702 0.5895
C79 C 0.73485(15) 1.06708(14) 0.50499(13)
H58 H 0.7469 1.1163 0.5023
C80 C 0.73820(14) 1.02323(14) 0.45680(13)
H59 H 0.7524 1.0427 0.4213
C81 C 0.7207(2) 0.90376(18) 0.40675(14)
H60 H 0.7481 0.859 0.4182
H61 H 0.7478 0.9281 0.3771
H62 H 0.6661 0.8935 0.3904
loop_
_geom_bond_atom_site_label_1
_geom_bond_atom_site_label_2
_geom_bond_site_symmetry_1
_geom_bond_site_symmetry_2
B1 C3 1_555 1_555
B2 C27 1_555 1_555
C1 C2 1_555 1_555
C2 N2 1_555 1_555
C3 C4 1_555 1_555
C4 H1 1_555 1_555
C5 C4 1_555 1_555
H2 C5 1_555 1_555
C6 C5 1_555 1_555
H3 C6 1_555 1_555
C7 C6 1_555 1_555
H4 C7 1_555 1_555
C8 C3 1_555 1_555
H5 C8 1_555 1_555
C9 C10 1_555 1_555
C10 C11 1_555 1_555
C11 H6 1_555 1_555
H7 C11 1_555 1_555
H8 C11 1_555 1_555
C12 C10 1_555 1_555
H9 C12 1_555 1_555
C13 C12 1_555 1_555
C14 C13 1_555 1_555
H10 C14 1_555 1_555
H11 C14 1_555 1_555
H12 C14 1_555 1_555
C15 C13 1_555 1_555
H13 C15 1_555 1_555
C16 C9 1_555 1_555
C17 C16 1_555 1_555
H14 C17 1_555 1_555
H15 C17 1_555 1_555
H16 C17 1_555 1_555
C18 C19 1_555 1_555
C19 C20 1_555 1_555
C20 H17 1_555 1_555
H18 C20 1_555 1_555
H19 C20 1_555 1_555
C21 C19 1_555 1_555
H20 C21 1_555 1_555
C22 C21 1_555 1_555
C23 C22 1_555 1_555
H21 C23 1_555 1_555
H22 C23 1_555 1_555
H23 C23 1_555 1_555
C24 C22 1_555 1_555
H24 C24 1_555 1_555
C25 C18 1_555 1_555
C26 C25 1_555 1_555
H25 C26 1_555 1_555
H26 C26 1_555 1_555
H27 C26 1_555 1_555
C27 C28 1_555 1_555
C28 H28 1_555 1_555
C29 C28 1_555 1_555
H29 C29 1_555 1_555
C30 C29 1_555 1_555
H30 C30 1_555 1_555
C31 C30 1_555 1_555
H31 C31 1_555 1_555
C32 C27 1_555 1_555
H32 C32 1_555 1_555
C33 C34 1_555 1_555
C34 C35 1_555 1_555
C35 H33 1_555 1_555
H34 C35 1_555 1_555
H35 C35 1_555 1_555
C36 C34 1_555 1_555
H36 C36 1_555 1_555
C37 C36 1_555 1_555
C38 C37 1_555 1_555
H37 C38 1_555 1_555
H38 C38 1_555 1_555
H39 C38 1_555 1_555
C39 C37 1_555 1_555
H40 C39 1_555 1_555
C40 C33 1_555 1_555
C41 C40 1_555 1_555
H41 C41 1_555 1_555
H42 C41 1_555 1_555
H43 C41 1_555 1_555
C42 C43 1_555 1_555
C43 C44 1_555 1_555
C44 H44 1_555 1_555
H45 C44 1_555 1_555
H46 C44 1_555 1_555
C45 C43 1_555 1_555
H47 C45 1_555 1_555
C46 C45 1_555 1_555
C47 C46 1_555 1_555
H48 C47 1_555 1_555
H49 C47 1_555 1_555
H50 C47 1_555 1_555
C48 C46 1_555 1_555
H51 C48 1_555 1_555
C49 C42 1_555 1_555
C50 C49 1_555 1_555
H52 C50 1_555 1_555
H53 C50 1_555 1_555
H54 C50 1_555 1_555
N1 B1 1_555 1_555
N2 B1 1_555 1_555
N3 B2 1_555 1_555
N4 B2 1_555 1_555
B3 C51 1_555 1_555
C51 C52 1_555 1_555
C52 C53 1_555 1_555
C53 C54 1_555 1_555
C54 C55 1_555 1_555
C55 C56 1_555 1_555
C56 C51 1_555 1_555
C57 B3 1_555 1_555
C58 C57 1_555 1_555
C59 C58 1_555 1_555
C60 C59 1_555 1_555
C61 C60 1_555 1_555
C62 C57 1_555 1_555
C63 B3 1_555 1_555
C64 C63 1_555 1_555
C65 C64 1_555 1_555
C66 C65 1_555 1_555
C67 C66 1_555 1_555
C68 C63 1_555 1_555
C69 B3 1_555 1_555
C70 C69 1_555 1_555
C71 C70 1_555 1_555
C72 C71 1_555 1_555
C73 C72 1_555 1_555
C74 C69 1_555 1_555
F1 C52 1_555 1_555
F2 C53 1_555 1_555
F3 C54 1_555 1_555
F4 C55 1_555 1_555
F5 C56 1_555 1_555
F6 C58 1_555 1_555
F7 C59 1_555 1_555
F8 C60 1_555 1_555
F9 C61 1_555 1_555
F10 C62 1_555 1_555
F11 C64 1_555 1_555
F12 C65 1_555 1_555
F13 C66 1_555 1_555
F14 C67 1_555 1_555
F15 C68 1_555 1_555
F16 C70 1_555 1_555
F17 C71 1_555 1_555
F18 C72 1_555 1_555
F19 C73 1_555 1_555
F20 C74 1_555 1_555
C75 C76 1_555 1_555
C76 H55 1_555 1_555
C77 C76 1_555 1_555
H56 C77 1_555 1_555
C78 C77 1_555 1_555
H57 C78 1_555 1_555
C79 C78 1_555 1_555
H58 C79 1_555 1_555
C80 C75 1_555 1_555
H59 C80 1_555 1_555
C81 C75 1_555 1_555
H60 C81 1_555 1_555
H61 C81 1_555 1_555
H62 C81 1_555 1_555
C1 N1 1_555 1_555
C1 N3 1_555 1_555
C2 N4 1_555 1_555
C7 C8 1_555 1_555
C9 N1 1_555 1_555
C15 C16 1_555 1_555
C18 N2 1_555 1_555
C24 C25 1_555 1_555
C31 C32 1_555 1_555
C33 N3 1_555 1_555
C39 C40 1_555 1_555
C42 N4 1_555 1_555
C48 C49 1_555 1_555
C61 C62 1_555 1_555
C67 C68 1_555 1_555
C73 C74 1_555 1_555
C79 C80 1_555 1_555

#END
