
#######################################################################
#
#                 Cambridge Crystallographic Data Centre
#                                CCDC 
#
#######################################################################
#
# If this CIF has been generated from an entry in the Cambridge 
# Structural Database, then it will include bibliographic, chemical, 
# crystal, experimental, refinement or atomic coordinate data resulting 
# from the CCDC's data processing and validation procedures.
#
#######################################################################

data_YEHREK
_chemical_formula_moiety         'C17 H13 Cl2 F1 N4,C1 H4 O1'
_chemical_name_systematic        
'7-(2-chloro-6-fluorophenyl)-5-(4-chlorophenyl)-4,5,6,7-tetrahydro[1,2,4]triazolo[1,5-a]pyrimidine methanol solvate'
_symmetry_cell_setting           monoclinic
_symmetry_space_group_name_H-M   'P 21/c'
_symmetry_Int_Tables_number      14
_space_group_name_Hall           '-P 2ybc'
loop_
_symmetry_equiv_pos_site_id
_symmetry_equiv_pos_as_xyz
1 x,y,z
2 -x,1/2+y,1/2-z
3 -x,-y,-z
4 x,1/2-y,1/2+z
_cell_length_a                   8.1141(6)
_cell_length_b                   10.4273(8)
_cell_length_c                   22.6565(17)
_cell_angle_alpha                90
_cell_angle_beta                 108.5760(10)
_cell_angle_gamma                90
_cell_volume                     1817.06
_exptl_crystal_colour            white
_exptl_crystal_description       block
_cell_formula_units_Z            4
loop_
_atom_site_label
_atom_site_type_symbol
_atom_site_fract_x
_atom_site_fract_y
_atom_site_fract_z
Cl1 Cl 0.27103(8) 0.07449(6) -0.02920(3)
N1 N -0.0994(2) 0.59974(17) 0.19542(8)
N2 N -0.1867(2) 0.69393(18) 0.21674(9)
N3 N -0.3460(2) 0.62572(17) 0.11948(8)
N4 N -0.1389(2) 0.47074(17) 0.10658(8)
H1 H -0.214(4) 0.436(3) 0.0738(14)
C1 C -0.3305(3) 0.7044(2) 0.16942(10)
H2 H -0.4194 0.7634 0.1698
C2 C -0.1958(3) 0.56124(19) 0.13826(9)
C3 C 0.0041(3) 0.38914(18) 0.14373(9)
H3 H -0.0404 0.3303 0.1700
C4 C 0.1442(3) 0.4759(2) 0.18600(9)
H4 H 0.1889 0.5336 0.1599
H5 H 0.2421 0.4223 0.2111
C5 C 0.0764(3) 0.5573(2) 0.22999(9)
H6 H 0.0660 0.4988 0.2636
C6 C 0.0742(3) 0.31028(18) 0.10113(9)
C7 C 0.0859(3) 0.17739(19) 0.10717(10)
H7 H 0.0518 0.1365 0.1389
C8 C 0.1468(3) 0.1040(2) 0.06739(10)
H8 H 0.1541 0.0134 0.0715
C9 C 0.1966(3) 0.1652(2) 0.02167(9)
C10 C 0.1897(3) 0.2974(2) 0.01514(9)
H9 H 0.2263 0.3378 -0.0161
C11 C 0.1283(3) 0.36948(19) 0.05504(9)
H10 H 0.1228 0.4602 0.0511
Cl2 Cl 0.0917(4) 0.80430(19) 0.15485(13)
F1 F 0.2886(4) 0.5346(3) 0.35227(15)
C12 C 0.1972(6) 0.6619(4) 0.26159(18)
C13 C 0.3028(5) 0.6453(4) 0.32258(17)
C14 C 0.4185(5) 0.7375(4) 0.35484(19)
H11 H 0.4871 0.7245 0.3970
C15 C 0.4318(6) 0.8494(5) 0.3239(3)
H12 H 0.5105 0.9142 0.3452
C16 C 0.3327(5) 0.8684(4) 0.2628(2)
H13 H 0.3440 0.9450 0.2417
C17 C 0.2162(6) 0.7741(5) 0.23245(17)
O1 O 0.3596(2) 0.63120(17) 0.01084(8)
H14 H 0.459(4) 0.615(3) 0.0391(14)
C18 C 0.3062(4) 0.7498(3) 0.02621(16)
H15 H 0.2298 0.7911 -0.0115
H16 H 0.4081 0.8041 0.0448
H17 H 0.2429 0.7378 0.0561
C19? C 0.1923(11) 0.6765(7) 0.2475(4)
C20? C 0.3272(9) 0.6913(7) 0.3056(3)
C21? C 0.4334(11) 0.7990(9) 0.3256(5)
C22? C 0.4135(10) 0.9013(8) 0.2860(4)
C23? C 0.2923(9) 0.8988(7) 0.2265(4)
C24? C 0.1897(13) 0.7871(10) 0.2087(3)
Cl3? Cl 0.3583(3) 0.5626(2) 0.35583(10)
F2? F 0.0827(19) 0.7820(10) 0.1493(6)
H18? H 0.5175 0.8011 0.3659
H19? H 0.4837 0.9754 0.2993
H20? H 0.2790 0.9694 0.1989
loop_
_geom_bond_atom_site_label_1
_geom_bond_atom_site_label_2
_geom_bond_site_symmetry_1
_geom_bond_site_symmetry_2
Cl1 C9 1_555 1_555
N1 N2 1_555 1_555
N2 C1 1_555 1_555
N3 C1 1_555 1_555
N4 H1 1_555 1_555
C1 H2 1_555 1_555
C2 N1 1_555 1_555
C3 N4 1_555 1_555
H3 C3 1_555 1_555
C4 C3 1_555 1_555
H4 C4 1_555 1_555
H5 C4 1_555 1_555
C5 N1 1_555 1_555
H6 C5 1_555 1_555
C6 C3 1_555 1_555
C7 C6 1_555 1_555
H7 C7 1_555 1_555
C8 C7 1_555 1_555
H8 C8 1_555 1_555
C9 C8 1_555 1_555
C10 C9 1_555 1_555
H9 C10 1_555 1_555
C11 C6 1_555 1_555
H10 C11 1_555 1_555
Cl2 C17 1_555 1_555
F1 C13 1_555 1_555
C12 C5 1_555 1_555
C13 C12 1_555 1_555
C14 C13 1_555 1_555
H11 C14 1_555 1_555
C15 C14 1_555 1_555
H12 C15 1_555 1_555
C16 C15 1_555 1_555
H13 C16 1_555 1_555
C17 C12 1_555 1_555
O1 H14 1_555 1_555
C18 O1 1_555 1_555
H15 C18 1_555 1_555
H16 C18 1_555 1_555
H17 C18 1_555 1_555
N3 C2 1_555 1_555
N4 C2 1_555 1_555
C4 C5 1_555 1_555
C10 C11 1_555 1_555
C16 C17 1_555 1_555

#END
