
#######################################################################
#
#                 Cambridge Crystallographic Data Centre
#                                CCDC 
#
#######################################################################
#
# If this CIF has been generated from an entry in the Cambridge 
# Structural Database, then it will include bibliographic, chemical, 
# crystal, experimental, refinement or atomic coordinate data resulting 
# from the CCDC's data processing and validation procedures.
#
#######################################################################

data_YEHRUA
_chemical_formula_moiety         'C17 H24 Br1 N1 O4 Si1'
_chemical_name_systematic        
7-Bromo-3-(((t-butyl(dimethyl)silyl)oxy)methyl)-3a,4-dihydro-3H-[1,3]oxazolo[4,3-c][1,4]benzoxazin-1-one
_symmetry_cell_setting           orthorhombic
_symmetry_space_group_name_H-M   'P 21 21 21'
_symmetry_Int_Tables_number      19
_space_group_name_Hall           'P 2ac 2ab'
loop_
_symmetry_equiv_pos_site_id
_symmetry_equiv_pos_as_xyz
1 x,y,z
2 1/2-x,-y,1/2+z
3 -x,1/2+y,1/2-z
4 1/2+x,1/2-y,-z
_cell_length_a                   6.5913(8)
_cell_length_b                   15.0012(18)
_cell_length_c                   20.319(3)
_cell_angle_alpha                90
_cell_angle_beta                 90
_cell_angle_gamma                90
_cell_volume                     2009.09
_exptl_crystal_colour            colorless
_exptl_crystal_description       prismatic
_cell_formula_units_Z            4
loop_
_atom_site_label
_atom_site_type_symbol
_atom_site_fract_x
_atom_site_fract_y
_atom_site_fract_z
Br1 Br 0.74671(8) 1.33698(2) -0.11432(2)
Si1 Si 0.50078(16) 0.85170(6) 0.19225(5)
O1 O 0.8466(4) 0.89889(18) -0.00405(15)
O2 O 0.5494(3) 0.82894(14) 0.00629(11)
O3 O 0.2715(3) 1.06792(14) -0.08187(11)
O4 O 0.3748(4) 0.88479(15) 0.12691(11)
N1 N 0.5432(4) 0.97561(16) -0.00141(12)
C1 C 0.6657(6) 0.9020(2) -0.00001(18)
C2 C 0.3385(5) 0.8519(2) 0.01265(17)
H1 H 0.2572 0.8183 -0.0192
C3 C 0.3297(4) 0.9513(2) -0.00295(17)
H2 H 0.2537 0.9835 0.0310
C4 C 0.2522(6) 0.9743(2) -0.07062(16)
H3 H 0.3292 0.9419 -0.1035
H4 H 0.1110 0.9569 -0.0744
C5 C 0.4583(5) 1.1033(2) -0.06696(15)
C6 C 0.5976(5) 1.0592(2) -0.02783(15)
C7 C 0.7842(5) 1.0983(2) -0.01556(16)
H5 H 0.8797 1.0688 0.0101
C8 C 0.8282(5) 1.1808(2) -0.04138(18)
H6 H 0.9540 1.2069 -0.0338
C9 C 0.6873(6) 1.2236(2) -0.07779(18)
C10 C 0.5002(5) 1.1868(2) -0.09084(15)
H7 H 0.4043 1.2179 -0.1153
C11 C 0.2733(5) 0.8298(2) 0.08167(17)
H8 H 0.1280 0.8381 0.0859
H9 H 0.3038 0.7678 0.0910
C12 C 0.7055(6) 0.7728(3) 0.1674(2)
H10 H 0.6461 0.7209 0.1476
H11 H 0.7819 0.7555 0.2056
H12 H 0.7938 0.8014 0.1364
C13 C 0.3260(7) 0.7946(3) 0.2498(2)
H13 H 0.2161 0.8339 0.2608
H14 H 0.3981 0.7785 0.2891
H15 H 0.2731 0.7419 0.2292
C14 C 0.6074(8) 0.9567(3) 0.22737(19)
C15 C 0.4292(10) 1.0158(3) 0.2497(3)
H16 H 0.3478 0.9838 0.2810
H17 H 0.3477 1.0314 0.2123
H18 H 0.4810 1.0691 0.2698
C16 C 0.7292(9) 1.0071(3) 0.1763(2)
H19 H 0.7616 1.0653 0.1928
H20 H 0.6510 1.0126 0.1367
H21 H 0.8523 0.9752 0.1671
C17 C 0.7378(11) 0.9371(3) 0.2885(2)
H22 H 0.8683 0.9155 0.2750
H23 H 0.6718 0.8929 0.3151
H24 H 0.7545 0.9908 0.3137
loop_
_geom_bond_atom_site_label_1
_geom_bond_atom_site_label_2
_geom_bond_site_symmetry_1
_geom_bond_site_symmetry_2
Br1 C9 1_555 1_555
Si1 O4 1_555 1_555
O1 C1 1_555 1_555
O2 C1 1_555 1_555
O3 C4 1_555 1_555
O4 C11 1_555 1_555
N1 C1 1_555 1_555
C2 O2 1_555 1_555
H1 C2 1_555 1_555
C3 N1 1_555 1_555
H2 C3 1_555 1_555
C4 C3 1_555 1_555
H3 C4 1_555 1_555
H4 C4 1_555 1_555
C5 O3 1_555 1_555
C6 N1 1_555 1_555
C7 C6 1_555 1_555
H5 C7 1_555 1_555
C8 C7 1_555 1_555
H6 C8 1_555 1_555
C9 C8 1_555 1_555
C10 C5 1_555 1_555
H7 C10 1_555 1_555
C11 C2 1_555 1_555
H8 C11 1_555 1_555
H9 C11 1_555 1_555
C12 Si1 1_555 1_555
H10 C12 1_555 1_555
H11 C12 1_555 1_555
H12 C12 1_555 1_555
C13 Si1 1_555 1_555
H13 C13 1_555 1_555
H14 C13 1_555 1_555
H15 C13 1_555 1_555
C14 Si1 1_555 1_555
C15 C14 1_555 1_555
H16 C15 1_555 1_555
H17 C15 1_555 1_555
H18 C15 1_555 1_555
C16 C14 1_555 1_555
H19 C16 1_555 1_555
H20 C16 1_555 1_555
H21 C16 1_555 1_555
C17 C14 1_555 1_555
H22 C17 1_555 1_555
H23 C17 1_555 1_555
H24 C17 1_555 1_555
C2 C3 1_555 1_555
C5 C6 1_555 1_555
C9 C10 1_555 1_555

#END
