
#######################################################################
#
#                 Cambridge Crystallographic Data Centre
#                                CCDC 
#
#######################################################################
#
# If this CIF has been generated from an entry in the Cambridge 
# Structural Database, then it will include bibliographic, chemical, 
# crystal, experimental, refinement or atomic coordinate data resulting 
# from the CCDC's data processing and validation procedures.
#
#######################################################################

data_YEHSOV
_chemical_name_common            ulimorelin
_chemical_formula_moiety         'C30 H40 F1 N4 O4 1+,H2 O1,Cl1 1-'
_chemical_name_systematic        
'5-Cyclopropyl-11-(4-fluorobenzyl)-2,7,8-trimethyl-6,9,12-trioxo-3,4,5,6,7,8,9,10,11,12,13,14,15,16-tetradecahydro-2H-1,4,7,10,13-benzoxatetraazacyclooctadecin-4-ium chloride monohydrate'
_symmetry_cell_setting           orthorhombic
_symmetry_space_group_name_H-M   'P 21 21 21'
_symmetry_Int_Tables_number      19
_space_group_name_Hall           'P 2ac 2ab'
loop_
_symmetry_equiv_pos_site_id
_symmetry_equiv_pos_as_xyz
1 x,y,z
2 1/2-x,-y,1/2+z
3 1/2+x,1/2-y,-z
4 -x,1/2+y,1/2-z
_cell_length_a                   10.535(2)
_cell_length_b                   13.352(9)
_cell_length_c                   22.368(6)
_cell_angle_alpha                90
_cell_angle_beta                 90
_cell_angle_gamma                90
_cell_volume                     3146.36
_exptl_crystal_colour            colorless
_exptl_crystal_description       needle
_cell_formula_units_Z            4
loop_
_atom_site_label
_atom_site_type_symbol
_atom_site_fract_x
_atom_site_fract_y
_atom_site_fract_z
H1 H 0.445(19) 0.270(13) 0.053(9)
H2 H 0.431(14) 0.342(11) 0.010(4)
O1 O 0.3934(7) 0.3169(7) 0.0415(3)
C1 C 0.3265(9) -0.2100(6) 0.1555(3)
C2 C 0.2136(9) -0.2327(6) 0.1786(3)
H3 H 0.2059 -0.2817 0.2079
C3 C 0.1084(8) -0.1817(5) 0.1581(3)
H4 H 0.0289 -0.1956 0.1741
C4 C 0.1210(8) -0.1090(5) 0.1132(3)
C5 C 0.2381(9) -0.0879(7) 0.0913(3)
H5 H 0.2468 -0.0386 0.0622
C6 C 0.3455(9) -0.1387(7) 0.1114(3)
H6 H 0.4258 -0.1253 0.096
C7 C 0.0028(7) -0.0506(5) 0.0941(3)
H7 H 0.026 -0.0029 0.0632
H8 H -0.0586 -0.0967 0.0771
C8 C -0.0583(6) 0.0053(5) 0.1459(2)
H9 H -0.0791 -0.0447 0.1765
C9 C -0.1817(8) 0.0544(6) 0.1275(3)
C10 C -0.3061(8) 0.2009(6) 0.1055(4)
H10 H -0.3749 0.1741 0.1295
H11 H -0.3245 0.1857 0.064
C11 C -0.3020(9) 0.3149(6) 0.1134(3)
H12 H -0.3883 0.3399 0.1153
H13 H -0.2614 0.3301 0.1512
C12 C -0.2323(7) 0.3696(5) 0.0642(3)
H14 H -0.262 0.3454 0.0258
H15 H -0.1424 0.3549 0.0671
C13 C -0.2517(7) 0.4825(5) 0.0675(3)
C14 C -0.3753(7) 0.5219(6) 0.0660(3)
H16 H -0.4434 0.4783 0.061
C15 C -0.3991(9) 0.6229(6) 0.0718(3)
H17 H -0.4816 0.6476 0.0702
C16 C -0.2971(10) 0.6865(6) 0.0800(3)
H18 H -0.312 0.7545 0.0854
C17 C -0.1746(9) 0.6519(5) 0.0804(3)
H19 H -0.1072 0.6959 0.0859
C18 C -0.1519(7) 0.5493(5) 0.0723(3)
C19 C 0.0771(6) 0.5707(5) 0.0817(3)
H20 H 0.0587 0.6166 0.1147
C20 C 0.1157(8) 0.6303(6) 0.0270(3)
H21 H 0.1348 0.5852 -0.0052
H22 H 0.1894 0.6697 0.0361
H23 H 0.0473 0.6737 0.0154
C21 C 0.1828(7) 0.5022(5) 0.0991(2)
H24 H 0.2517 0.5413 0.116
H25 H 0.2146 0.4683 0.0638
C22 C 0.2439(6) 0.3680(5) 0.1733(3)
H26 H 0.3052 0.3425 0.1441
C23 C 0.3077(9) 0.4325(6) 0.2205(4)
H27 H 0.2473 0.4566 0.2505
C24 C 0.4079(11) 0.5019(8) 0.2105(5)
H28 H 0.4052 0.5651 0.232
H29 H 0.4442 0.5054 0.1708
C25 C 0.4293(7) 0.4070(6) 0.2465(4)
H30 H 0.4779 0.3535 0.2282
H31 H 0.4388 0.4132 0.2895
C26 C 0.1791(6) 0.2850(4) 0.2059(2)
C27 C 0.3529(6) 0.1651(5) 0.1797(3)
H32 H 0.3632 0.2067 0.145
H33 H 0.3467 0.0963 0.1675
H34 H 0.4248 0.1732 0.2056
C28 C 0.1744(6) 0.1243(4) 0.2541(2)
H35 H 0.1537 0.1631 0.29
C29 C 0.2603(7) 0.0375(5) 0.2738(3)
H36 H 0.2727 -0.0076 0.2409
H37 H 0.2211 0.0024 0.3064
H38 H 0.3409 0.0635 0.2865
C30 C 0.0531(6) 0.0810(4) 0.2313(2)
F1 F 0.4332(5) -0.2591(4) 0.1759(2)
N1 N 0.0348(4) 0.0730(4) 0.17217(18)
H39 H 0.0801 0.1094 0.1487
N2 N -0.1901(6) 0.1522(4) 0.1222(3)
H40 H -0.1239 0.1882 0.129
N3 N 0.1401(4) 0.4258(3) 0.14399(19)
H41 H 0.0949 0.4572 0.1725
H42 H 0.0878 0.3823 0.1256
N4 N 0.2376(5) 0.1939(4) 0.21142(17)
O2 O 0.0761(5) 0.2994(3) 0.22959(19)
O3 O -0.0242(5) 0.0456(3) 0.26735(18)
O4 O -0.2761(6) -0.0011(5) 0.1187(3)
O5 O -0.0324(4) 0.5084(3) 0.07048(18)
Cl1 Cl 0.09567(16) 0.23544(11) 0.06682(6)
loop_
_geom_bond_atom_site_label_1
_geom_bond_atom_site_label_2
_geom_bond_site_symmetry_1
_geom_bond_site_symmetry_2
H1 O1 1_555 1_555
H2 O1 1_555 1_555
C1 C2 1_555 1_555
C2 H3 1_555 1_555
C3 C2 1_555 1_555
H4 C3 1_555 1_555
C4 C3 1_555 1_555
C5 C4 1_555 1_555
H5 C5 1_555 1_555
C6 C1 1_555 1_555
H6 C6 1_555 1_555
C7 C4 1_555 1_555
H7 C7 1_555 1_555
H8 C7 1_555 1_555
C8 C7 1_555 1_555
H9 C8 1_555 1_555
C9 C8 1_555 1_555
C10 H10 1_555 1_555
H11 C10 1_555 1_555
C11 C10 1_555 1_555
H12 C11 1_555 1_555
H13 C11 1_555 1_555
C12 C11 1_555 1_555
H14 C12 1_555 1_555
H15 C12 1_555 1_555
C13 C12 1_555 1_555
C14 C13 1_555 1_555
H16 C14 1_555 1_555
C15 C14 1_555 1_555
H17 C15 1_555 1_555
C16 C15 1_555 1_555
H18 C16 1_555 1_555
C17 C16 1_555 1_555
H19 C17 1_555 1_555
C18 C13 1_555 1_555
C19 H20 1_555 1_555
C20 C19 1_555 1_555
H21 C20 1_555 1_555
H22 C20 1_555 1_555
H23 C20 1_555 1_555
C21 C19 1_555 1_555
H24 C21 1_555 1_555
H25 C21 1_555 1_555
C22 H26 1_555 1_555
C23 C22 1_555 1_555
H27 C23 1_555 1_555
C24 C23 1_555 1_555
H28 C24 1_555 1_555
H29 C24 1_555 1_555
C25 C23 1_555 1_555
H30 C25 1_555 1_555
H31 C25 1_555 1_555
C26 C22 1_555 1_555
C27 H32 1_555 1_555
H33 C27 1_555 1_555
H34 C27 1_555 1_555
C28 H35 1_555 1_555
C29 C28 1_555 1_555
H36 C29 1_555 1_555
H37 C29 1_555 1_555
H38 C29 1_555 1_555
C30 C28 1_555 1_555
F1 C1 1_555 1_555
N1 C8 1_555 1_555
H39 N1 1_555 1_555
N2 C9 1_555 1_555
H40 N2 1_555 1_555
N3 C21 1_555 1_555
H41 N3 1_555 1_555
H42 N3 1_555 1_555
N4 C26 1_555 1_555
O2 C26 1_555 1_555
O3 C30 1_555 1_555
O4 C9 1_555 1_555
O5 C18 1_555 1_555
C5 C6 1_555 1_555
C10 N2 1_555 1_555
C17 C18 1_555 1_555
C19 O5 1_555 1_555
C22 N3 1_555 1_555
C24 C25 1_555 1_555
C27 N4 1_555 1_555
C28 N4 1_555 1_555
C30 N1 1_555 1_555

#END
