
#######################################################################
#
#                 Cambridge Crystallographic Data Centre
#                                CCDC 
#
#######################################################################
#
# If this CIF has been generated from an entry in the Cambridge 
# Structural Database, then it will include bibliographic, chemical, 
# crystal, experimental, refinement or atomic coordinate data resulting 
# from the CCDC's data processing and validation procedures.
#
#######################################################################

data_YEHTOW
_chemical_formula_moiety         'C18 H14 F6 O1 S2'
_chemical_name_systematic        
4-(2-(2,5-Dimethyl-3-thienyl)-3,3,4,4,5,5-hexafluorocyclopent-1-en-1-yl)-5-ethylthiophene-2-carbaldehyde
_symmetry_cell_setting           monoclinic
_symmetry_space_group_name_H-M   'P 21/c'
_symmetry_Int_Tables_number      14
_space_group_name_Hall           '-P 2ybc'
loop_
_symmetry_equiv_pos_site_id
_symmetry_equiv_pos_as_xyz
1 x,y,z
2 -x,1/2+y,1/2-z
3 -x,-y,-z
4 x,1/2-y,1/2+z
_cell_length_a                   12.720(2)
_cell_length_b                   9.0294(16)
_cell_length_c                   16.794(3)
_cell_angle_alpha                90
_cell_angle_beta                 99.914(2)
_cell_angle_gamma                90
_cell_volume                     1900.05
_exptl_crystal_colour            yellow
_exptl_crystal_description       block
_cell_formula_units_Z            4
loop_
_atom_site_label
_atom_site_type_symbol
_atom_site_fract_x
_atom_site_fract_y
_atom_site_fract_z
F1 F 0.5194(2) 0.3331(3) 1.02137(19)
F2 F 0.5939(3) 0.1221(2) 1.01091(18)
F3 F 0.38409(13) 0.2403(3) 0.90221(13)
F4 F 0.4958(2) 0.0783(2) 0.87146(14)
F5 F 0.45412(14) 0.4417(2) 0.81865(14)
F6 F 0.51287(17) 0.2569(3) 0.75832(12)
C1 C 0.5664(2) 0.2479(3) 0.97082(18)
C2 C 0.4861(2) 0.2193(4) 0.89337(19)
C3 C 0.5212(2) 0.3240(3) 0.83092(18)
S1 S 0.95299(5) 0.34387(9) 1.06998(4)
S2 S 0.80936(5) 0.66557(8) 0.77306(4)
O1 O 0.87565(19) 0.6002(3) 0.61165(14)
C4 C 0.8619(2) 0.4104(3) 1.12617(15)
C5 C 0.76224(19) 0.4037(3) 1.08201(14)
H1 H 0.7018 0.4332 1.1020
C6 C 0.75823(17) 0.3475(2) 1.00220(14)
C7 C 0.85667(18) 0.3087(3) 0.98680(14)
C8 C 0.8966(3) 0.4647(4) 1.21100(17)
H2 H 0.8349 0.4885 1.2343
H3 H 0.9400 0.5514 1.2105
H4 H 0.9370 0.3887 1.2426
C9 C 0.8878(2) 0.2405(4) 0.91329(17)
H5 H 0.8279 0.1883 0.8835
H6 H 0.9456 0.1726 0.9292
H7 H 0.9099 0.3167 0.8799
C10 C 0.8212(2) 0.5067(4) 0.63494(16)
H8 H 0.8029 0.4244 0.6022
C11 C 0.65846(17) 0.3280(3) 0.94449(14)
C12 C 0.63355(17) 0.3690(2) 0.86711(14)
C13 C 0.69737(17) 0.4581(3) 0.81912(13)
C14 C 0.73989(18) 0.5940(3) 0.84319(14)
C15 C 0.78214(18) 0.5145(3) 0.71139(14)
C16 C 0.72066(18) 0.4145(3) 0.74307(14)
H9 H 0.6964 0.3266 0.7174
C17 C 0.7323(2) 0.6801(3) 0.91874(17)
H10 H 0.6669 0.6523 0.9373
H11 H 0.7916 0.6523 0.9605
C18 C 0.7334(4) 0.8440(4) 0.9082(2)
H12 H 0.8002 0.8736 0.8940
H13 H 0.7245 0.8913 0.9578
H14 H 0.6761 0.8725 0.8660
C19? C 0.4840(11) 0.2449(18) 0.9031(9)
C20? C 0.5307(8) 0.2927(17) 0.8298(8)
C21? C 0.5621(9) 0.279(2) 0.9799(8)
F7? F 0.519(2) 0.374(3) 1.0263(17)
F8? F 0.597(2) 0.163(2) 1.0266(17)
F9? F 0.4060(11) 0.3370(16) 0.9160(12)
F10? F 0.4388(17) 0.1126(15) 0.8854(13)
F11? F 0.4765(13) 0.3995(17) 0.7852(12)
F12? F 0.5574(13) 0.1915(17) 0.7785(10)
loop_
_geom_bond_atom_site_label_1
_geom_bond_atom_site_label_2
_geom_bond_site_symmetry_1
_geom_bond_site_symmetry_2
F1 C1 1_555 1_555
F2 C1 1_555 1_555
F3 C2 1_555 1_555
F4 C2 1_555 1_555
F5 C3 1_555 1_555
F6 C3 1_555 1_555
C1 C2 1_555 1_555
C2 C3 1_555 1_555
C3 C12 1_555 1_555
S1 C4 1_555 1_555
S2 C14 1_555 1_555
O1 C10 1_555 1_555
C4 C5 1_555 1_555
C5 H1 1_555 1_555
C6 C5 1_555 1_555
C7 S1 1_555 1_555
C8 C4 1_555 1_555
H2 C8 1_555 1_555
H3 C8 1_555 1_555
H4 C8 1_555 1_555
C9 C7 1_555 1_555
H5 C9 1_555 1_555
H6 C9 1_555 1_555
H7 C9 1_555 1_555
C10 H8 1_555 1_555
C11 C1 1_555 1_555
C12 C11 1_555 1_555
C13 C12 1_555 1_555
C14 C13 1_555 1_555
C15 S2 1_555 1_555
C16 C13 1_555 1_555
H9 C16 1_555 1_555
C17 C14 1_555 1_555
H10 C17 1_555 1_555
H11 C17 1_555 1_555
C18 C17 1_555 1_555
H12 C18 1_555 1_555
H13 C18 1_555 1_555
H14 C18 1_555 1_555
C6 C7 1_555 1_555
C6 C11 1_555 1_555
C10 C15 1_555 1_555
C15 C16 1_555 1_555

#END
