
#######################################################################
#
#                 Cambridge Crystallographic Data Centre
#                                CCDC 
#
#######################################################################
#
# If this CIF has been generated from an entry in the Cambridge 
# Structural Database, then it will include bibliographic, chemical, 
# crystal, experimental, refinement or atomic coordinate data resulting 
# from the CCDC's data processing and validation procedures.
#
#######################################################################

data_YEHTAJ
_chemical_formula_moiety         'C18 H24 O3'
_chemical_name_systematic        
'methyl 1,8,8-trimethyl-11-oxo-4,4a,5,6,7,8-hexahydro-5,9-methanobenzo[8]annulene-9(3H)-carboxylate'
_symmetry_cell_setting           monoclinic
_symmetry_space_group_name_H-M   'P 21/n'
_symmetry_Int_Tables_number      14
_space_group_name_Hall           '-P 2yn'
loop_
_symmetry_equiv_pos_site_id
_symmetry_equiv_pos_as_xyz
1 x,y,z
2 1/2-x,1/2+y,1/2-z
3 -x,-y,-z
4 1/2+x,1/2-y,1/2+z
_cell_length_a                   8.0297(5)
_cell_length_b                   9.9104(5)
_cell_length_c                   19.9878(10)
_cell_angle_alpha                90
_cell_angle_beta                 96.944(5)
_cell_angle_gamma                90
_cell_volume                     1578.91
_exptl_crystal_colour            colorless
_exptl_crystal_description       Block
_cell_formula_units_Z            4
loop_
_atom_site_label
_atom_site_type_symbol
_atom_site_fract_x
_atom_site_fract_y
_atom_site_fract_z
C1 C 0.8231(3) 0.1289(2) 0.12360(12)
H1 H 0.8007 0.0643 0.1550
C2 C 0.8040(3) 0.0932(2) 0.05898(11)
O1 O 1.0992(3) 0.1465(2) 0.20992(9)
C3 C 0.7538(3) -0.0443(3) 0.03667(14)
C4 C 0.8790(3) 0.2679(2) 0.14992(12)
C5 C 0.8439(3) 0.1883(3) 0.00425(12)
H2 H 0.9502 0.1568 -0.0096
C6 C 0.7228(4) 0.3611(3) 0.15794(14)
C7 C 0.9989(4) 0.2515(3) 0.21469(13)
C8 C 0.9741(4) 0.3336(3) 0.09627(14)
O2 O 1.1138(3) 0.3805(2) 0.10949(11)
O3 O 1.0058(3) 0.3197(2) 0.26444(11)
C9 C 0.8753(4) 0.3348(3) 0.02834(13)
H3 H 0.9423 0.3798 -0.0029
C10 C 0.7187(3) -0.0706(3) -0.02888(15)
H4 H 0.6949 -0.1597 -0.0412
C11 C 0.7772(4) 0.5038(3) 0.18253(17)
H5 H 0.8266 0.4995 0.2287
H6 H 0.6809 0.5621 0.1790
H7 H 0.8577 0.5388 0.1552
C12 C 0.7166(4) 0.4188(3) 0.03267(15)
H8 H 0.7480 0.5124 0.0407
H9 H 0.6455 0.4140 -0.0101
C13 C 0.7547(4) -0.1533(3) 0.08864(16)
H10 H 0.8647 -0.1601 0.1132
H11 H 0.7251 -0.2377 0.0668
H12 H 0.6750 -0.1319 0.1191
C14 C 0.7143(4) 0.0296(4) -0.08364(15)
H13 H 0.6146 0.0150 -0.1153
H14 H 0.8113 0.0167 -0.1075
C15 C 0.6177(4) 0.3702(3) 0.08863(14)
H15 H 0.5713 0.2819 0.0767
H16 H 0.5247 0.4314 0.0917
C16 C 0.7138(4) 0.1735(3) -0.05768(14)
H17 H 0.6033 0.1958 -0.0459
H18 H 0.7397 0.2353 -0.0926
C17 C 0.6136(4) 0.2984(3) 0.20790(16)
H19 H 0.5735 0.2119 0.1915
H20 H 0.5199 0.3565 0.2124
H21 H 0.6792 0.2878 0.2510
C18 C 1.2252(4) 0.1206(4) 0.26656(15)
H22 H 1.2944 0.0465 0.2561
H23 H 1.1713 0.0987 0.3055
H24 H 1.2934 0.1996 0.2757
loop_
_geom_bond_atom_site_label_1
_geom_bond_atom_site_label_2
_geom_bond_site_symmetry_1
_geom_bond_site_symmetry_2
C1 H1 1_555 1_555
C2 C1 1_555 1_555
O1 C7 1_555 1_555
C3 C2 1_555 1_555
C4 C1 1_555 1_555
C5 C2 1_555 1_555
H2 C5 1_555 1_555
C6 C4 1_555 1_555
C7 C4 1_555 1_555
C8 C4 1_555 1_555
O2 C8 1_555 1_555
O3 C7 1_555 1_555
C9 C5 1_555 1_555
H3 C9 1_555 1_555
C10 C3 1_555 1_555
H4 C10 1_555 1_555
C11 C6 1_555 1_555
H5 C11 1_555 1_555
H6 C11 1_555 1_555
H7 C11 1_555 1_555
C12 C9 1_555 1_555
H8 C12 1_555 1_555
H9 C12 1_555 1_555
C13 C3 1_555 1_555
H10 C13 1_555 1_555
H11 C13 1_555 1_555
H12 C13 1_555 1_555
C14 C10 1_555 1_555
H13 C14 1_555 1_555
H14 C14 1_555 1_555
C15 C6 1_555 1_555
H15 C15 1_555 1_555
H16 C15 1_555 1_555
C16 C5 1_555 1_555
H17 C16 1_555 1_555
H18 C16 1_555 1_555
C17 C6 1_555 1_555
H19 C17 1_555 1_555
H20 C17 1_555 1_555
H21 C17 1_555 1_555
C18 O1 1_555 1_555
H22 C18 1_555 1_555
H23 C18 1_555 1_555
H24 C18 1_555 1_555
C8 C9 1_555 1_555
C12 C15 1_555 1_555
C14 C16 1_555 1_555

#END
