
#######################################################################
#
#                 Cambridge Crystallographic Data Centre
#                                CCDC 
#
#######################################################################
#
# If this CIF has been generated from an entry in the Cambridge 
# Structural Database, then it will include bibliographic, chemical, 
# crystal, experimental, refinement or atomic coordinate data resulting 
# from the CCDC's data processing and validation procedures.
#
#######################################################################

data_YEHVIT
_chemical_formula_moiety         'C14 H11 N3 O1'
_chemical_name_systematic        
2-(1-phenyl-1H-imidazol-3-ium-3-yl)pyridin-3-olate
_symmetry_cell_setting           orthorhombic
_symmetry_space_group_name_H-M   'P 21 21 21'
_symmetry_Int_Tables_number      19
_space_group_name_Hall           'P 2ac 2ab'
loop_
_symmetry_equiv_pos_site_id
_symmetry_equiv_pos_as_xyz
1 x,y,z
2 1/2+x,1/2-y,-z
3 -x,1/2+y,1/2-z
4 1/2-x,-y,1/2+z
_cell_length_a                   4.387(3)
_cell_length_b                   12.502(9)
_cell_length_c                   20.768(14)
_cell_angle_alpha                90
_cell_angle_beta                 90
_cell_angle_gamma                90
_cell_volume                     1139.05
_exptl_crystal_colour            yellow
_exptl_crystal_description       needle
_cell_formula_units_Z            4
_exptl_crystal_recrystallization_method acetonitrile
_exptl_crystal_preparation       ', Luminescent'
loop_
_atom_site_label
_atom_site_type_symbol
_atom_site_fract_x
_atom_site_fract_y
_atom_site_fract_z
O1 O 0.5538(7) 0.2699(2) 0.80851(14)
N1 N 0.8563(8) 0.0674(3) 0.81226(15)
N2 N 1.1592(8) 0.0629(3) 0.72999(16)
N3 N 0.5866(8) 0.0281(3) 0.90519(17)
C1 C 0.9643(9) 0.1245(3) 0.76331(19)
C2 C 1.1726(10) -0.0364(3) 0.7598(2)
C3 C 0.9884(10) -0.0342(3) 0.8108(2)
C4 C 0.6382(10) 0.1013(3) 0.86040(19)
C5 C 0.5038(9) 0.2048(3) 0.85476(19)
C6 C 0.2918(10) 0.2256(4) 0.9060(2)
C7 C 0.2412(10) 0.1513(4) 0.9536(2)
C8 C 0.3851(10) 0.0533(4) 0.9516(2)
C9 C 1.3257(9) 0.0955(3) 0.67361(19)
C10 C 1.3775(10) 0.2042(4) 0.6630(2)
C11 C 1.5312(11) 0.2360(4) 0.6077(2)
C12 C 1.6403(11) 0.1596(4) 0.5654(2)
C13 C 1.5943(11) 0.0519(4) 0.5774(2)
C14 C 1.4349(11) 0.0186(4) 0.6316(2)
H1 H 0.91256 0.19651 0.75358
H2 H 1.29204 -0.09558 0.74612
H3 H 0.95382 -0.09074 0.8405
H4 H 0.18521 0.29173 0.90704
H5 H 0.10637 0.16758 0.98805
H6 H 0.34052 0.00195 0.98401
H7 H 1.30857 0.25589 0.69325
H8 H 1.5613 0.30987 0.59906
H9 H 1.74737 0.18122 0.52779
H10 H 1.67259 0.00023 0.54823
H11 H 1.40168 -0.05533 0.63971
loop_
_geom_bond_atom_site_label_1
_geom_bond_atom_site_label_2
_geom_bond_site_symmetry_1
_geom_bond_site_symmetry_2
O1 C5 1_555 1_555
N1 C1 1_555 1_555
N2 C1 1_555 1_555
N3 C4 1_555 1_555
C1 H1 1_555 1_555
C2 N2 1_555 1_555
C3 N1 1_555 1_555
C4 N1 1_555 1_555
C5 C4 1_555 1_555
C6 C5 1_555 1_555
C7 C6 1_555 1_555
C8 N3 1_555 1_555
C9 N2 1_555 1_555
C10 C9 1_555 1_555
C11 C10 1_555 1_555
C12 C11 1_555 1_555
C13 C12 1_555 1_555
C14 C9 1_555 1_555
H2 C2 1_555 1_555
H3 C3 1_555 1_555
H4 C6 1_555 1_555
H5 C7 1_555 1_555
H6 C8 1_555 1_555
H7 C10 1_555 1_555
H8 C11 1_555 1_555
H9 C12 1_555 1_555
H10 C13 1_555 1_555
H11 C14 1_555 1_555
C2 C3 1_555 1_555
C7 C8 1_555 1_555
C13 C14 1_555 1_555

#END
