
#######################################################################
#
#                 Cambridge Crystallographic Data Centre
#                                CCDC 
#
#######################################################################
#
# If this CIF has been generated from an entry in the Cambridge 
# Structural Database, then it will include bibliographic, chemical, 
# crystal, experimental, refinement or atomic coordinate data resulting 
# from the CCDC's data processing and validation procedures.
#
#######################################################################

data_YEHVEP
_chemical_formula_moiety         'C14 H18 N2 O1,H2 O1'
_chemical_name_systematic        
'2-(3-pentyl-1H-imidazol-3-ium-1-yl)phenolate monohydrate'
_symmetry_cell_setting           monoclinic
_symmetry_space_group_name_H-M   'P 21/c'
_symmetry_Int_Tables_number      14
_space_group_name_Hall           '-P 2ybc'
loop_
_symmetry_equiv_pos_site_id
_symmetry_equiv_pos_as_xyz
1 x,y,z
2 -x,1/2+y,1/2-z
3 -x,-y,-z
4 x,1/2-y,1/2+z
_cell_length_a                   13.575(3)
_cell_length_b                   9.0637(15)
_cell_length_c                   11.584(2)
_cell_angle_alpha                90
_cell_angle_beta                 107.653(4)
_cell_angle_gamma                90
_cell_volume                     1358.18
_exptl_crystal_colour            colorless
_exptl_crystal_description       block
_cell_formula_units_Z            4
_exptl_crystal_recrystallization_method acetonitrile
loop_
_atom_site_label
_atom_site_type_symbol
_atom_site_fract_x
_atom_site_fract_y
_atom_site_fract_z
O1 O 0.62196(14) -0.0042(2) 0.91058(16)
N1 N 0.53723(17) 0.1002(2) 0.67622(18)
N2 N 0.37324(18) 0.1005(3) 0.5815(2)
C1 C 0.4537(2) 0.1860(3) 0.6361(2)
C2 C 0.4062(2) -0.0442(3) 0.5874(2)
C3 C 0.5086(2) -0.0455(3) 0.6459(2)
C4 C 0.63692(19) 0.1512(3) 0.7503(2)
C5 C 0.6872(2) 0.2610(3) 0.7072(2)
C6 C 0.7809(2) 0.3159(3) 0.7804(3)
C7 C 0.8226(2) 0.2576(3) 0.8960(3)
C8 C 0.7717(2) 0.1483(3) 0.9396(2)
C9 C 0.67446(19) 0.0916(3) 0.8695(2)
C10 C 0.2663(2) 0.1535(4) 0.5356(3)
C11 C 0.2192(2) 0.1333(7) 0.4007(3)
C12 C 0.1066(3) 0.1927(9) 0.3620(4)
C13 C 0.0585(4) 0.2268(8) 0.2247(5)
C14 C 0.0562(5) 0.1016(11) 0.1649(8)
H1 H 0.45202 0.29004 0.64494
H2 H 0.36438 -0.12768 0.55595
H3 H 0.55259 -0.12942 0.66307
H4 H 0.65775 0.29884 0.62769
H5 H 0.81583 0.39182 0.75197
H6 H 0.88717 0.29343 0.94618
H7 H 0.80286 0.11027 1.01872
H8 H 0.26468 0.25963 0.55521
H9 H 0.22363 0.10012 0.57775
H10 H 0.21931 0.02739 0.37974
H11 H 0.26042 0.18752 0.35713
H12 H 0.10502 0.28419 0.40816
H13 H 0.06223 0.11929 0.38568
H14 H -0.01231 0.26648 0.20875
H15 H 0.10086 0.30098 0.19856
H16 H 0.01301 0.0297 0.19037
H17 H 0.12651 0.06272 0.1822
H18 H 0.02721 0.11985 0.07769
O2 O 0.57837(17) -0.1195(2) 1.11597(19)
H19 H 0.518(3) -0.074(5) 1.103(4)
H20 H 0.602(3) -0.072(5) 1.063(4)
loop_
_geom_bond_atom_site_label_1
_geom_bond_atom_site_label_2
_geom_bond_site_symmetry_1
_geom_bond_site_symmetry_2
O1 C9 1_555 1_555
N1 C1 1_555 1_555
N2 C1 1_555 1_555
C1 H1 1_555 1_555
C2 N2 1_555 1_555
C3 N1 1_555 1_555
C4 N1 1_555 1_555
C5 C4 1_555 1_555
C6 C5 1_555 1_555
C7 C6 1_555 1_555
C8 C7 1_555 1_555
C9 C4 1_555 1_555
C10 N2 1_555 1_555
C11 C10 1_555 1_555
C12 C11 1_555 1_555
C13 C12 1_555 1_555
C14 C13 1_555 1_555
H2 C2 1_555 1_555
H3 C3 1_555 1_555
H4 C5 1_555 1_555
H5 C6 1_555 1_555
H6 C7 1_555 1_555
H7 C8 1_555 1_555
H8 C10 1_555 1_555
H9 C10 1_555 1_555
H10 C11 1_555 1_555
H11 C11 1_555 1_555
H12 C12 1_555 1_555
H13 C12 1_555 1_555
H14 C13 1_555 1_555
H15 C13 1_555 1_555
H16 C14 1_555 1_555
H17 C14 1_555 1_555
H18 C14 1_555 1_555
O2 H19 1_555 1_555
H20 O2 1_555 1_555
C2 C3 1_555 1_555
C8 C9 1_555 1_555

#END
