
#######################################################################
#
#                 Cambridge Crystallographic Data Centre
#                                CCDC 
#
#######################################################################
#
# If this CIF has been generated from an entry in the Cambridge 
# Structural Database, then it will include bibliographic, chemical, 
# crystal, experimental, refinement or atomic coordinate data resulting 
# from the CCDC's data processing and validation procedures.
#
#######################################################################

data_YEHVAK
_chemical_formula_moiety         'C26 H32 N2 O4'
_chemical_name_systematic        
4,4'-(Butane-1,4-diylbis(oxy-2,1-phenyleneimino))bis(pent-3-en-2-one)
_symmetry_cell_setting           monoclinic
_symmetry_space_group_name_H-M   'P 21/c'
_symmetry_Int_Tables_number      14
_space_group_name_Hall           '-P 2ybc'
loop_
_symmetry_equiv_pos_site_id
_symmetry_equiv_pos_as_xyz
1 x,y,z
2 -x,1/2+y,1/2-z
3 -x,-y,-z
4 x,1/2-y,1/2+z
_cell_length_a                   11.595(12)
_cell_length_b                   5.299(5)
_cell_length_c                   18.893(19)
_cell_angle_alpha                90
_cell_angle_beta                 96.165(14)
_cell_angle_gamma                90
_cell_volume                     1154.11
_exptl_crystal_colour            colorless
_exptl_crystal_description       prism
_cell_formula_units_Z            2
loop_
_atom_site_label
_atom_site_type_symbol
_atom_site_fract_x
_atom_site_fract_y
_atom_site_fract_z
C1 C 0.3618(2) -0.8074(5) 0.56771(12)
H1 H 0.3199 -0.7591 0.6068
H2 H 0.4436 -0.7991 0.5822
H3 H 0.3410 -0.9767 0.5534
C2 C 0.3314(2) -0.6298(5) 0.50578(12)
C3 C 0.38388(19) -0.6773(5) 0.44272(12)
H4 H 0.4392 -0.8050 0.4448
C4 C 0.36141(19) -0.5546(5) 0.37937(12)
C5 C 0.4247(3) -0.6353(8) 0.31782(19)
H5 H 0.377(3) -0.697(6) 0.2795(17)
H6 H 0.478(3) -0.757(6) 0.3324(14)
H7 H 0.459(2) -0.470(5) 0.2962(15)
C6 C 0.23525(19) -0.2176(4) 0.31404(10)
C7 C 0.2576(2) -0.2454(5) 0.24399(11)
H8 H 0.3066 -0.3740 0.2322
C8 C 0.2085(2) -0.0859(5) 0.19125(12)
H9 H 0.2253 -0.1071 0.1446
C9 C 0.1357(2) 0.1024(5) 0.20733(11)
H10 H 0.1039 0.2116 0.1719
C10 C 0.1090(2) 0.1309(5) 0.27684(11)
H11 H 0.0587 0.2584 0.2878
C11 C 0.15643(18) -0.0288(4) 0.32969(10)
C12 C 0.04915(19) 0.1642(4) 0.41701(11)
H12 H -0.0227 0.1460 0.3860
H13 H 0.0791 0.3327 0.4108
C13 C 0.02717(19) 0.1252(4) 0.49320(10)
H14 H -0.0233 0.2587 0.5068
H15 H 0.1002 0.1391 0.5232
N1 N 0.28187(16) -0.3656(4) 0.37238(9)
H16 H 0.2542 -0.3284 0.4115
O1 O 0.26242(14) -0.4536(3) 0.51158(8)
O2 O 0.13203(12) -0.0206(3) 0.39889(7)
C1B C -0.3618(2) 0.8074(5) 0.43229(12)
H1B H -0.3199 0.7591 0.3932
H2B H -0.4436 0.7991 0.4178
H3B H -0.3410 0.9767 0.4466
C2B C -0.3314(2) 0.6298(5) 0.49422(12)
C3B C -0.38388(19) 0.6773(5) 0.55728(12)
H4B H -0.4392 0.8050 0.5552
C4B C -0.36141(19) 0.5546(5) 0.62063(12)
C5B C -0.4247(3) 0.6353(8) 0.68218(19)
H5B H -0.377(3) 0.697(6) 0.7205(17)
H6B H -0.478(3) 0.757(6) 0.6676(14)
H7B H -0.459(2) 0.470(5) 0.7038(15)
C6B C -0.23525(19) 0.2176(4) 0.68596(10)
C7B C -0.2576(2) 0.2454(5) 0.75601(11)
H8B H -0.3066 0.3740 0.7678
C8B C -0.2085(2) 0.0859(5) 0.80875(12)
H9B H -0.2253 0.1071 0.8554
C9B C -0.1357(2) -0.1024(5) 0.79267(11)
H10B H -0.1039 -0.2116 0.8281
C10B C -0.1090(2) -0.1309(5) 0.72316(11)
H11B H -0.0587 -0.2584 0.7122
C11B C -0.15643(18) 0.0288(4) 0.67031(10)
C12B C -0.04915(19) -0.1642(4) 0.58299(11)
H12B H 0.0227 -0.1460 0.6140
H13B H -0.0791 -0.3327 0.5892
C13B C -0.02717(19) -0.1252(4) 0.50680(10)
H14B H 0.0233 -0.2587 0.4932
H15B H -0.1002 -0.1391 0.4768
N1B N -0.28187(16) 0.3656(4) 0.62762(9)
H16B H -0.2542 0.3284 0.5885
O1B O -0.26242(14) 0.4536(3) 0.48842(8)
O2B O -0.13203(12) 0.0206(3) 0.60111(7)
loop_
_geom_bond_atom_site_label_1
_geom_bond_atom_site_label_2
_geom_bond_site_symmetry_1
_geom_bond_site_symmetry_2
C1 H1 1_555 1_555
H2 C1 1_555 1_555
H3 C1 1_555 1_555
C2 C1 1_555 1_555
C3 C2 1_555 1_555
H4 C3 1_555 1_555
C4 C3 1_555 1_555
C5 C4 1_555 1_555
H5 C5 1_555 1_555
H6 C5 1_555 1_555
H7 C5 1_555 1_555
C6 C7 1_555 1_555
C7 H8 1_555 1_555
C8 C7 1_555 1_555
H9 C8 1_555 1_555
C9 C8 1_555 1_555
H10 C9 1_555 1_555
C10 C9 1_555 1_555
H11 C10 1_555 1_555
C11 C6 1_555 1_555
C12 H12 1_555 1_555
H13 C12 1_555 1_555
C13 C12 1_555 1_555
H14 C13 1_555 1_555
H15 C13 1_555 1_555
N1 C4 1_555 1_555
H16 N1 1_555 1_555
O1 C2 1_555 1_555
O2 C11 1_555 1_555
C1B H1B 1_555 1_555
H2B C1B 1_555 1_555
H3B C1B 1_555 1_555
C2B C1B 1_555 1_555
C3B C2B 1_555 1_555
H4B C3B 1_555 1_555
C4B C3B 1_555 1_555
C5B C4B 1_555 1_555
H5B C5B 1_555 1_555
H6B C5B 1_555 1_555
H7B C5B 1_555 1_555
C6B C7B 1_555 1_555
C7B H8B 1_555 1_555
C8B C7B 1_555 1_555
H9B C8B 1_555 1_555
C9B C8B 1_555 1_555
H10B C9B 1_555 1_555
C10B C9B 1_555 1_555
H11B C10B 1_555 1_555
C11B C6B 1_555 1_555
C12B H12B 1_555 1_555
H13B C12B 1_555 1_555
C13B C13 1_555 1_555
H14B C13B 1_555 1_555
H15B C13B 1_555 1_555
N1B C4B 1_555 1_555
H16B N1B 1_555 1_555
O1B C2B 1_555 1_555
O2B C11B 1_555 1_555
C6 N1 1_555 1_555
C10 C11 1_555 1_555
C12 O2 1_555 1_555
C6B N1B 1_555 1_555
C10B C11B 1_555 1_555
C12B C13B 1_555 1_555
C12B O2B 1_555 1_555

#END
