
#######################################################################
#
#                 Cambridge Crystallographic Data Centre
#                                CCDC 
#
#######################################################################
#
# If this CIF has been generated from an entry in the Cambridge 
# Structural Database, then it will include bibliographic, chemical, 
# crystal, experimental, refinement or atomic coordinate data resulting 
# from the CCDC's data processing and validation procedures.
#
#######################################################################

data_YEHXIS
_chemical_formula_moiety         'C19 H25 N1 O5 S2,0.5(C1 H2 Cl2)'
_chemical_name_systematic        
'2,15-Dithia(3.3)(1,3)adamantano-2,6-pyridinophane-2,2,15,15,22-pentaoxide dichloromethane solvate'
_symmetry_cell_setting           triclinic
_symmetry_space_group_name_H-M   'P -1'
_symmetry_Int_Tables_number      2
_space_group_name_Hall           '-P 1'
loop_
_symmetry_equiv_pos_site_id
_symmetry_equiv_pos_as_xyz
1 x,y,z
2 -x,-y,-z
_cell_length_a                   9.166(1)
_cell_length_b                   9.797(1)
_cell_length_c                   13.504(1)
_cell_angle_alpha                93.16(1)
_cell_angle_beta                 107.08(1)
_cell_angle_gamma                116.32(1)
_cell_volume                     1014.4
_exptl_crystal_colour            colorless
_chemical_melting_point          'above 300deg.C'
_cell_formula_units_Z            2
loop_
_atom_site_label
_atom_site_type_symbol
_atom_site_fract_x
_atom_site_fract_y
_atom_site_fract_z
C1 C 0.7167(5) 0.4195(5) 0.4642(4)
S1 S 0.7849(1) 0.5061(1) 0.3603(1)
O1 O 0.7882(6) 0.3969(5) 0.2895(4)
O2 O 0.9462(5) 0.6471(5) 0.4172(4)
C2 C 0.6414(6) 0.5763(5) 0.2909(4)
C3 C 0.4551(6) 0.4711(5) 0.2156(3)
C4 C 0.4324(7) 0.3595(7) 0.1220(4)
C5 C 0.2413(8) 0.2713(8) 0.0496(4)
C6 C 0.1821(9) 0.3833(10) 0.0067(5)
C7 C 0.2003(7) 0.4942(7) 0.0964(6)
C8 C 0.0890(7) 0.4039(7) 0.1597(5)
C9 C 0.1468(6) 0.2879(5) 0.2033(3)
C10 C 0.3373(5) 0.3731(5) 0.2736(3)
C11 C 0.1286(7) 0.1762(6) 0.1109(4)
C12 C 0.3899(7) 0.5867(6) 0.1733(5)
C13 C 0.0271(6) 0.2081(6) 0.2674(4)
S2 S -0.0272(2) 0.0192(1) 0.2963(1)
O3 O -0.0404(5) -0.0855(4) 0.2115(3)
O4 O -0.1792(4) -0.0246(4) 0.3241(3)
C14 C 0.1312(6) 0.0273(6) 0.4148(4)
C15 C 0.3004(6) 0.0577(5) 0.4054(3)
C16 C 0.3265(7) -0.0514(5) 0.3582(4)
C17 C 0.4865(7) -0.0144(6) 0.3510(5)
C18 C 0.6170(6) 0.1399(6) 0.3880(4)
C19 C 0.5891(5) 0.2495(5) 0.4322(3)
N1 N 0.4360(4) 0.2073(4) 0.4485(3)
O5 O 0.4145(4) 0.3084(3) 0.5000(3)
H1 H 0.6663 0.4737 0.4910
H2 H 0.8183 0.4351 0.5212
H3 H 0.6997 0.6447 0.2507
H4 H 0.6350 0.6403 0.3441
H5 H 0.4703 0.2868 0.1473
H6 H 0.5024 0.4176 0.0830
H7 H 0.2287 0.2006 -0.0083
H8 H 0.0632 0.3271 -0.0410
H9 H 0.2527 0.4407 -0.0323
H10 H 0.1621 0.5651 0.0677
H11 H -0.0313 0.3495 0.1145
H12 H 0.1019 0.4745 0.2178
H13 H 0.3522 0.4398 0.3347
H14 H 0.3720 0.2980 0.297
H15 H 0.1633 0.1021 0.1371
H16 H 0.0089 0.1203 0.0646
H17 H 0.4620 0.6514 0.1375
H18 H 0.3976 0.6526 0.2320
H19 H -0.0820 0.2043 0.2303
H20 H 0.0765 0.2795 0.3344
H21 H 0.0829 -0.0696 0.4368
H22 H 0.1536 0.1084 0.4695
H23 H 0.2314 -0.1555 0.3288
H24 H 0.5061 -0.0940 0.3222
H25 H 0.7279 0.1693 0.3813
Cl1? Cl 0.3808(6) -0.0703(4) 0.0586(4)
C20? C 0.5817(20) 0.0130(36) 0.0563(23)
H26? H 0.6596 -0.0220 0.0953
H27? H 0.6225 0.1161 0.0947
loop_
_geom_bond_atom_site_label_1
_geom_bond_atom_site_label_2
_geom_bond_site_symmetry_1
_geom_bond_site_symmetry_2
C1 S1 1_555 1_555
S1 O1 1_555 1_555
O2 S1 1_555 1_555
C2 S1 1_555 1_555
C3 C2 1_555 1_555
C4 C3 1_555 1_555
C5 C4 1_555 1_555
C6 C5 1_555 1_555
C7 C6 1_555 1_555
C8 C7 1_555 1_555
C9 C8 1_555 1_555
C10 C3 1_555 1_555
C11 C5 1_555 1_555
C12 C3 1_555 1_555
C13 C9 1_555 1_555
S2 C13 1_555 1_555
O3 S2 1_555 1_555
O4 S2 1_555 1_555
C14 S2 1_555 1_555
C15 C14 1_555 1_555
C16 C15 1_555 1_555
C17 C16 1_555 1_555
C18 C17 1_555 1_555
C19 C1 1_555 1_555
N1 C15 1_555 1_555
O5 N1 1_555 1_555
H1 C1 1_555 1_555
H2 C1 1_555 1_555
H3 C2 1_555 1_555
H4 C2 1_555 1_555
H5 C4 1_555 1_555
H6 C4 1_555 1_555
H7 C5 1_555 1_555
H8 C6 1_555 1_555
H9 C6 1_555 1_555
H10 C7 1_555 1_555
H11 C8 1_555 1_555
H12 C8 1_555 1_555
H13 C10 1_555 1_555
H14 C10 1_555 1_555
H15 C11 1_555 1_555
H16 C11 1_555 1_555
H17 C12 1_555 1_555
H18 C12 1_555 1_555
H19 C13 1_555 1_555
H20 C13 1_555 1_555
H21 C14 1_555 1_555
H22 C14 1_555 1_555
H23 C16 1_555 1_555
H24 C17 1_555 1_555
H25 C18 1_555 1_555
C7 C12 1_555 1_555
C9 C10 1_555 1_555
C9 C11 1_555 1_555
C18 C19 1_555 1_555
C19 N1 1_555 1_555

#END
