
#######################################################################
#
#                 Cambridge Crystallographic Data Centre
#                                CCDC 
#
#######################################################################
#
# If this CIF has been generated from an entry in the Cambridge 
# Structural Database, then it will include bibliographic, chemical, 
# crystal, experimental, refinement or atomic coordinate data resulting 
# from the CCDC's data processing and validation procedures.
#
#######################################################################

data_YEHZOD
_chemical_formula_moiety         'C37 H58 N6'
_chemical_name_systematic        
N,N'-(propane-1,3-diyl)bis(N'-(2,6-diisopropylphenyl)pyrrolidine-1-carboximidamide)
_symmetry_cell_setting           monoclinic
_symmetry_space_group_name_H-M   'P 21/c'
_symmetry_Int_Tables_number      14
_space_group_name_Hall           '-P 2ybc'
loop_
_symmetry_equiv_pos_site_id
_symmetry_equiv_pos_as_xyz
1 x,y,z
2 -x,1/2+y,1/2-z
3 -x,-y,-z
4 x,1/2-y,1/2+z
_cell_length_a                   13.3373(2)
_cell_length_b                   9.92598(15)
_cell_length_c                   26.7940(4)
_cell_angle_alpha                90
_cell_angle_beta                 96.4890(16)
_cell_angle_gamma                90
_cell_volume                     3524.42
_exptl_crystal_colour            colorless
_exptl_crystal_description       plate
_cell_formula_units_Z            4
_exptl_crystal_recrystallization_method acetonitrile
loop_
_atom_site_label
_atom_site_type_symbol
_atom_site_fract_x
_atom_site_fract_y
_atom_site_fract_z
N1 N 0.81248(9) 0.47923(12) 0.64665(4)
N2 N 0.89973(9) 0.33818(13) 0.59415(4)
N3 N 0.84133(9) 0.74292(13) 0.81571(5)
N4 N 0.84709(10) 0.60046(13) 0.74766(5)
N5 N 0.69209(9) 0.67839(13) 0.76438(5)
N6 N 0.92732(10) 0.32215(13) 0.68019(5)
C1 C 0.79006(11) 0.78501(15) 0.85651(5)
C2 C 0.79447(11) 0.67691(15) 0.77795(5)
C3 C 0.87622(11) 0.38453(15) 0.63930(5)
C4 C 0.73163(11) 0.52200(16) 0.61170(5)
C5 C 0.75005(12) 0.69013(16) 0.88842(6)
C6 C 0.78888(11) 0.92317(16) 0.86931(5)
C7 C 0.82712(11) 1.03071(15) 0.83582(6)
H1 H 0.8482 0.9863 0.8060
C8 C 0.71288(12) 0.73526(17) 0.93187(6)
H2 H 0.6866 0.6728 0.9528
C9 C 0.71368(13) 0.87010(17) 0.94509(6)
H3 H 0.6896 0.8979 0.9747
C10 C 0.88662(12) 0.31452(16) 0.72836(5)
H4 H 0.8851 0.2208 0.7385
H5 H 0.8175 0.3468 0.7239
C11 C 0.65191(12) 0.43398(17) 0.59432(6)
C12 C 0.72320(12) 0.66109(16) 0.60057(6)
C13 C 0.95308(12) 0.21021(16) 0.58801(6)
H6 H 0.9185 0.1354 0.6019
H7 H 1.0219 0.2141 0.6041
C14 C 0.75108(12) 0.96258(16) 0.91333(6)
H8 H 0.7510 1.0535 0.9216
C15 C 0.62854(12) 0.79701(17) 0.76998(6)
H9 H 0.6644 0.8795 0.7642
H10 H 0.6063 0.8003 0.8032
C16 C 0.91859(12) 1.10386(16) 0.86283(6)
H11 H 0.8982 1.1547 0.8904
H12 H 0.9462 1.1637 0.8398
H13 H 0.9688 1.0391 0.8752
C17 C 0.94486(12) 0.39426(16) 0.77038(6)
H14 H 1.0137 0.3610 0.7753
H15 H 0.9149 0.3782 0.8012
C18 C 0.94721(11) 0.54557(16) 0.76099(6)
H16 H 0.9784 0.5903 0.7910
H17 H 0.9882 0.5636 0.7341
C19 C 0.64045(12) 0.57950(17) 0.72978(6)
H18 H 0.6486 0.4890 0.7432
H19 H 0.6659 0.5825 0.6973
C20 C 0.88279(13) 0.41327(18) 0.54704(6)
H20 H 0.8995 0.5078 0.5520
H21 H 0.8134 0.4053 0.5320
C21 C 0.74708(12) 0.53920(16) 0.87743(6)
H22 H 0.7775 0.5244 0.8463
C22 C 0.74411(12) 1.13277(16) 0.81833(6)
H23 H 0.6900 1.0876 0.7983
H24 H 0.7714 1.2017 0.7987
H25 H 0.7190 1.1728 0.8471
C23 C 0.53939(12) 0.77587(18) 0.72961(6)
H26 H 0.4782 0.8152 0.7397
H27 H 0.5528 0.8150 0.6979
C24 C 0.63480(13) 0.70943(18) 0.57411(6)
H28 H 0.6288 0.8010 0.5670
C25 C 0.65514(12) 0.28399(17) 0.60643(6)
H29 H 0.7237 0.2616 0.6212
C26 C 0.80896(12) 0.75801(16) 0.61705(6)
H30 H 0.8631 0.7061 0.6359
C27 C 0.53082(12) 0.62362(19) 0.72585(7)
H31 H 0.4945 0.5964 0.6940
H32 H 0.4972 0.5868 0.7531
C28 C 0.95045(14) 0.19760(19) 0.53148(6)
H33 H 0.8888 0.1546 0.5168
H34 H 1.0079 0.1470 0.5224
C29 C 0.55577(13) 0.62427(19) 0.55821(7)
H35 H 0.4967 0.6584 0.5411
C30 C 0.77725(14) 0.86926(18) 0.65175(6)
H36 H 0.7225 0.9198 0.6346
H37 H 0.8334 0.9282 0.6609
H38 H 0.7560 0.8294 0.6815
C31 C 0.56524(13) 0.48833(19) 0.56796(7)
H39 H 0.5123 0.4312 0.5566
C32 C 0.95500(15) 0.3438(2) 0.51517(6)
H40 H 0.9327 0.3537 0.4796
H41 H 1.0228 0.3796 0.5221
C33 C 0.63874(14) 0.48769(18) 0.86938(8)
H42 H 0.6086 0.4956 0.9001
H43 H 0.6386 0.3949 0.8593
H44 H 0.6008 0.5401 0.8437
C34 C 0.80819(15) 0.45982(19) 0.91905(7)
H45 H 0.8773 0.4889 0.9220
H46 H 0.8047 0.3655 0.9111
H47 H 0.7811 0.4750 0.9503
C35 C 0.85200(16) 0.8209(2) 0.57182(7)
H48 H 0.8694 0.7508 0.5496
H49 H 0.9112 0.8722 0.5832
H50 H 0.8024 0.8790 0.5543
C36 C 0.5830(5) 0.2517(6) 0.6450(2)
H51 H 0.5998 0.3059 0.6745
H52 H 0.5888 0.1581 0.6539
H53 H 0.5151 0.2708 0.6310
C37 C 0.6306(7) 0.1985(8) 0.5591(2)
H54 H 0.5626 0.2162 0.5448
H55 H 0.6375 0.1048 0.5677
H56 H 0.6763 0.2209 0.5351
H57 H 0.8168(14) 0.5737(19) 0.7170(7)
H58 H 0.9869(14) 0.2953(18) 0.6771(6)
H59? H 0.7272 0.2622 0.6114
C38? C 0.611(4) 0.186(4) 0.5658(12)
H60? H 0.5388 0.1913 0.5623
H61? H 0.6317 0.0956 0.5751
H62? H 0.6352 0.2086 0.5344
C39? C 0.616(3) 0.246(3) 0.6563(8)
H63? H 0.6602 0.2837 0.6836
H64? H 0.6151 0.1498 0.6595
H65? H 0.5494 0.2811 0.6569
loop_
_geom_bond_atom_site_label_1
_geom_bond_atom_site_label_2
_geom_bond_site_symmetry_1
_geom_bond_site_symmetry_2
N1 C3 1_555 1_555
N2 C3 1_555 1_555
N3 C1 1_555 1_555
N4 C2 1_555 1_555
N5 C2 1_555 1_555
N6 C3 1_555 1_555
C1 C5 1_555 1_555
C2 N3 1_555 1_555
C4 N1 1_555 1_555
C5 C8 1_555 1_555
C6 C1 1_555 1_555
C7 C6 1_555 1_555
H1 C7 1_555 1_555
C8 H2 1_555 1_555
C9 C8 1_555 1_555
H3 C9 1_555 1_555
C10 N6 1_555 1_555
H4 C10 1_555 1_555
H5 C10 1_555 1_555
C11 C4 1_555 1_555
C12 C4 1_555 1_555
C13 N2 1_555 1_555
H6 C13 1_555 1_555
H7 C13 1_555 1_555
C14 C6 1_555 1_555
H8 C14 1_555 1_555
C15 N5 1_555 1_555
H9 C15 1_555 1_555
H10 C15 1_555 1_555
C16 C7 1_555 1_555
H11 C16 1_555 1_555
H12 C16 1_555 1_555
H13 C16 1_555 1_555
C17 C10 1_555 1_555
H14 C17 1_555 1_555
H15 C17 1_555 1_555
C18 N4 1_555 1_555
H16 C18 1_555 1_555
H17 C18 1_555 1_555
C19 N5 1_555 1_555
H18 C19 1_555 1_555
H19 C19 1_555 1_555
C20 N2 1_555 1_555
H20 C20 1_555 1_555
H21 C20 1_555 1_555
C21 C5 1_555 1_555
H22 C21 1_555 1_555
C22 C7 1_555 1_555
H23 C22 1_555 1_555
H24 C22 1_555 1_555
H25 C22 1_555 1_555
C23 C15 1_555 1_555
H26 C23 1_555 1_555
H27 C23 1_555 1_555
C24 C12 1_555 1_555
H28 C24 1_555 1_555
C25 C11 1_555 1_555
H29 C25 1_555 1_555
C26 C12 1_555 1_555
H30 C26 1_555 1_555
C27 C19 1_555 1_555
H31 C27 1_555 1_555
H32 C27 1_555 1_555
C28 C13 1_555 1_555
H33 C28 1_555 1_555
H34 C28 1_555 1_555
C29 C24 1_555 1_555
H35 C29 1_555 1_555
C30 C26 1_555 1_555
H36 C30 1_555 1_555
H37 C30 1_555 1_555
H38 C30 1_555 1_555
C31 C11 1_555 1_555
H39 C31 1_555 1_555
C32 C20 1_555 1_555
H40 C32 1_555 1_555
H41 C32 1_555 1_555
C33 C21 1_555 1_555
H42 C33 1_555 1_555
H43 C33 1_555 1_555
H44 C33 1_555 1_555
C34 C21 1_555 1_555
H45 C34 1_555 1_555
H46 C34 1_555 1_555
H47 C34 1_555 1_555
C35 C26 1_555 1_555
H48 C35 1_555 1_555
H49 C35 1_555 1_555
H50 C35 1_555 1_555
C36 C25 1_555 1_555
H51 C36 1_555 1_555
H52 C36 1_555 1_555
H53 C36 1_555 1_555
C37 C25 1_555 1_555
H54 C37 1_555 1_555
H55 C37 1_555 1_555
H56 C37 1_555 1_555
H57 N4 1_555 1_555
H58 N6 1_555 1_555
C9 C14 1_555 1_555
C17 C18 1_555 1_555
C23 C27 1_555 1_555
C28 C32 1_555 1_555
C29 C31 1_555 1_555

#END
