
#######################################################################
#
#                 Cambridge Crystallographic Data Centre
#                                CCDC 
#
#######################################################################
#
# If this CIF has been generated from an entry in the Cambridge 
# Structural Database, then it will include bibliographic, chemical, 
# crystal, experimental, refinement or atomic coordinate data resulting 
# from the CCDC's data processing and validation procedures.
#
#######################################################################

data_YEJCUN
_chemical_formula_moiety         'C14 H13 N1 O6'
_chemical_name_systematic        
'2,5-Dioxo-1-phenylpyrrolidine-3,4-diyl diacetate'
_symmetry_cell_setting           hexagonal
_symmetry_space_group_name_H-M   'P 62'
_symmetry_Int_Tables_number      171
_space_group_name_Hall           'P 62'
loop_
_symmetry_equiv_pos_site_id
_symmetry_equiv_pos_as_xyz
1 x,y,z
2 -y,x-y,2/3+z
3 -x+y,-x,1/3+z
4 -x,-y,z
5 y,-x+y,2/3+z
6 x-y,x,1/3+z
_cell_length_a                   10.0848(14)
_cell_length_b                   10.0848(14)
_cell_length_c                   11.677(2)
_cell_angle_alpha                90
_cell_angle_beta                 90
_cell_angle_gamma                120
_cell_volume                     1028.48
_exptl_crystal_colour            colorless
_exptl_crystal_description       block
_cell_formula_units_Z            3
loop_
_atom_site_label
_atom_site_type_symbol
_atom_site_fract_x
_atom_site_fract_y
_atom_site_fract_z
C1 C 0.5000 0.5000 -0.2323(8)
H1 H 0.5000 0.5000 -0.3119
C2 C 0.3943(8) 0.5219(7) -0.1756(5)
H2 H 0.3234 0.5364 -0.2165
C3 C 0.3926(8) 0.5225(7) -0.0565(5)
H3 H 0.3215 0.5376 -0.0164
C4 C 0.5000 0.5000 0.0004(7)
C5 C 0.3686(8) 0.4194(7) 0.1909(5)
C6 C 0.4129(7) 0.4646(7) 0.3140(6)
H4 H 0.3858 0.5417 0.3368
C7 C 0.2790(7) 0.3495(8) 0.4873(5)
C8 C 0.2012(7) 0.2006(8) 0.5509(7)
H5 H 0.2353 0.2173 0.6291
H6 H 0.2262 0.1297 0.5158
H7 H 0.0924 0.1593 0.5487
N1 N 0.5000 0.5000 0.1253(5)
O1 O 0.2418(5) 0.3307(6) 0.1549(4)
O2 O 0.3354(5) 0.3328(5) 0.3855(4)
O3 O 0.2930(6) 0.4691(6) 0.5177(4)
C2C C 0.6057(8) 0.4781(7) -0.1756(5)
H2C H 0.6766 0.4636 -0.2165
C3C C 0.6074(8) 0.4775(7) -0.0565(5)
H3C H 0.6785 0.4624 -0.0164
C5C C 0.6314(8) 0.5806(7) 0.1909(5)
C6C C 0.5871(7) 0.5354(7) 0.3140(6)
H4C H 0.6142 0.4583 0.3368
C7C C 0.7210(7) 0.6505(8) 0.4873(5)
C8C C 0.7988(7) 0.7994(8) 0.5509(7)
H5C H 0.7647 0.7827 0.6291
H6C H 0.7738 0.8703 0.5158
H7C H 0.9076 0.8407 0.5487
O1C O 0.7582(5) 0.6693(6) 0.1549(4)
O2C O 0.6646(5) 0.6672(5) 0.3855(4)
O3C O 0.7070(6) 0.5309(6) 0.5177(4)
loop_
_geom_bond_atom_site_label_1
_geom_bond_atom_site_label_2
_geom_bond_site_symmetry_1
_geom_bond_site_symmetry_2
C1 H1 1_555 1_555
C2 C1 1_555 1_555
H2 C2 1_555 1_555
C3 C2 1_555 1_555
H3 C3 1_555 1_555
C4 C3 1_555 1_555
C5 C6 1_555 1_555
C6 H4 1_555 1_555
C7 C8 1_555 1_555
C8 H5 1_555 1_555
H6 C8 1_555 1_555
H7 C8 1_555 1_555
N1 C4 1_555 1_555
O1 C5 1_555 1_555
O2 C6 1_555 1_555
O3 C7 1_555 1_555
C2C C1 1_555 1_555
H2C C2C 1_555 1_555
C3C C4 1_555 1_555
H3C C3C 1_555 1_555
C5C N1 1_555 1_555
C6C C6 1_555 1_555
H4C C6C 1_555 1_555
C7C C8C 1_555 1_555
C8C H5C 1_555 1_555
H6C C8C 1_555 1_555
H7C C8C 1_555 1_555
O1C C5C 1_555 1_555
O2C C6C 1_555 1_555
O3C C7C 1_555 1_555
C5 N1 1_555 1_555
C7 O2 1_555 1_555
C2C C3C 1_555 1_555
C5C C6C 1_555 1_555
C7C O2C 1_555 1_555

#END
