
#######################################################################
#
#                 Cambridge Crystallographic Data Centre
#                                CCDC 
#
#######################################################################
#
# If this CIF has been generated from an entry in the Cambridge 
# Structural Database, then it will include bibliographic, chemical, 
# crystal, experimental, refinement or atomic coordinate data resulting 
# from the CCDC's data processing and validation procedures.
#
#######################################################################

data_YEJCIB
_chemical_formula_moiety         'C23 H18 I1 N3 O1'
_chemical_name_systematic        
4-(((4-Iodophenyl)amino)(phenyl)methylene)-5-methyl-2-phenyl-2,4-dihydro-3H-pyrazol-3-one
_symmetry_cell_setting           triclinic
_symmetry_space_group_name_H-M   'P -1'
_symmetry_Int_Tables_number      2
_space_group_name_Hall           '-P 1'
loop_
_symmetry_equiv_pos_site_id
_symmetry_equiv_pos_as_xyz
1 x,y,z
2 -x,-y,-z
_cell_length_a                   7.5861(7)
_cell_length_b                   11.0115(9)
_cell_length_c                   13.6683(12)
_cell_angle_alpha                109.621(2)
_cell_angle_beta                 99.4160(10)
_cell_angle_gamma                104.785(2)
_cell_volume                     1000.15
_exptl_crystal_colour            yellow
_exptl_crystal_description       block
_cell_formula_units_Z            2
loop_
_atom_site_label
_atom_site_type_symbol
_atom_site_fract_x
_atom_site_fract_y
_atom_site_fract_z
I1 I 1.2466(4) 0.8307(5) 0.5972(3)
O1 O 0.2513(5) 0.8945(3) 0.2583(3)
N1 N -0.0481(5) 0.7438(4) 0.1445(3)
N2 N -0.1495(6) 0.6049(4) 0.1051(3)
N3 N 0.4527(6) 0.7515(4) 0.3233(3)
H1 H 0.4342 0.8268 0.3278
C1 C -0.1417(7) 0.8354(5) 0.1303(4)
C2 C -0.0398(8) 0.9562(5) 0.1262(5)
H2 H 0.0888 0.9768 0.1308
C3 C -0.1328(9) 1.0468(6) 0.1151(5)
H3 H -0.0651 1.1296 0.1143
C4 C -0.3205(10) 1.0151(6) 0.1054(5)
H4 H -0.3807 1.0763 0.0977
C5 C -0.4250(8) 0.8928(7) 0.1068(5)
H5 H -0.5547 0.8714 0.0989
C6 C -0.3340(7) 0.8025(6) 0.1201(4)
H6 H -0.4020 0.7206 0.1221
C7 C 0.1329(6) 0.7772(4) 0.2069(4)
C8 C 0.1494(6) 0.6465(4) 0.2018(3)
C9 C -0.0344(6) 0.5475(4) 0.1376(4)
C10 C -0.1085(8) 0.3971(5) 0.1081(5)
H7 H -0.2378 0.3609 0.0650
H8 H -0.1022 0.3796 0.1726
H9 H -0.0332 0.3540 0.0677
C11 C 0.3085(6) 0.6370(4) 0.2602(3)
C12 C 0.3230(6) 0.5046(4) 0.2597(4)
C13 C 0.3264(7) 0.4803(5) 0.3528(4)
H10 H 0.3177 0.5457 0.4143
C14 C 0.3427(9) 0.3591(6) 0.3545(5)
H11 H 0.3433 0.3421 0.4167
C15 C 0.3578(9) 0.2636(6) 0.2642(5)
H12 H 0.3702 0.1824 0.2659
C16 C 0.3549(8) 0.2865(5) 0.1715(5)
H13 H 0.3662 0.2212 0.1109
C17 C 0.3353(7) 0.4068(5) 0.1678(4)
H14 H 0.3305 0.4218 0.1045
C18 C 0.6328(6) 0.7648(5) 0.3840(4)
C19 C 0.7326(7) 0.6799(5) 0.3436(4)
H15 H 0.6826 0.6115 0.2744
C20 C 0.9067(7) 0.6965(6) 0.4059(4)
H16 H 0.9729 0.6381 0.3796
C21 C 0.9817(7) 0.8002(6) 0.5074(4)
C22 C 0.8855(8) 0.8869(5) 0.5478(4)
H17 H 0.9378 0.9572 0.6162
C23 C 0.7121(7) 0.8689(5) 0.4866(4)
H18 H 0.6461 0.9271 0.5139
I2? I 1.2345(16) 0.793(3) 0.5994(6)
loop_
_geom_bond_atom_site_label_1
_geom_bond_atom_site_label_2
_geom_bond_site_symmetry_1
_geom_bond_site_symmetry_2
I1 C21 1_555 1_555
O1 C7 1_555 1_555
N1 N2 1_555 1_555
N2 C9 1_555 1_555
N3 H1 1_555 1_555
C1 N1 1_555 1_555
C2 C1 1_555 1_555
H2 C2 1_555 1_555
C3 C2 1_555 1_555
H3 C3 1_555 1_555
C4 C3 1_555 1_555
H4 C4 1_555 1_555
C5 C4 1_555 1_555
H5 C5 1_555 1_555
C6 C1 1_555 1_555
H6 C6 1_555 1_555
C7 N1 1_555 1_555
C8 C7 1_555 1_555
C9 C8 1_555 1_555
C10 C9 1_555 1_555
H7 C10 1_555 1_555
H8 C10 1_555 1_555
H9 C10 1_555 1_555
C11 N3 1_555 1_555
C12 C11 1_555 1_555
C13 C12 1_555 1_555
H10 C13 1_555 1_555
C14 C13 1_555 1_555
H11 C14 1_555 1_555
C15 C14 1_555 1_555
H12 C15 1_555 1_555
C16 C15 1_555 1_555
H13 C16 1_555 1_555
C17 C12 1_555 1_555
H14 C17 1_555 1_555
C18 N3 1_555 1_555
C19 C18 1_555 1_555
H15 C19 1_555 1_555
C20 C19 1_555 1_555
H16 C20 1_555 1_555
C21 C20 1_555 1_555
C22 C21 1_555 1_555
H17 C22 1_555 1_555
C23 C18 1_555 1_555
H18 C23 1_555 1_555
C5 C6 1_555 1_555
C8 C11 1_555 1_555
C16 C17 1_555 1_555
C22 C23 1_555 1_555

#END
