
#######################################################################
#
#                 Cambridge Crystallographic Data Centre
#                                CCDC 
#
#######################################################################
#
# If this CIF has been generated from an entry in the Cambridge 
# Structural Database, then it will include bibliographic, chemical, 
# crystal, experimental, refinement or atomic coordinate data resulting 
# from the CCDC's data processing and validation procedures.
#
#######################################################################

data_YEJLII01
_chemical_formula_moiety         'C6 H5 I1 N2 O2'
_chemical_name_systematic        2-Iodo-4-nitroaniline
_symmetry_cell_setting           triclinic
_symmetry_space_group_name_H-M   'P -1'
_symmetry_Int_Tables_number      2
_space_group_name_Hall           '-P 1'
loop_
_symmetry_equiv_pos_site_id
_symmetry_equiv_pos_as_xyz
1 x,y,z
2 -x,-y,-z
_cell_length_a                   7.1647(4)
_cell_length_b                   7.9572(4)
_cell_length_c                   8.0489(5)
_cell_angle_alpha                67.905(3)
_cell_angle_beta                 86.956(3)
_cell_angle_gamma                65.744(2)
_cell_volume                     384.837
_exptl_crystal_colour            yellow
_exptl_crystal_description       needle
_chemical_melting_point          385-387K
_cell_formula_units_Z            2
_exptl_crystal_recrystallization_method ethanol
loop_
_atom_site_label
_atom_site_type_symbol
_atom_site_fract_x
_atom_site_fract_y
_atom_site_fract_z
N1 N 0.5600(9) 1.1211(8) 0.1092(7)
C1 C 0.5549(9) 0.9692(8) 0.2561(7)
C2 C 0.3716(9) 0.9557(8) 0.3118(7)
I1 I 0.08930(6) 1.17350(5) 0.15765(5)
C3 C 0.3701(9) 0.8046(8) 0.4684(8)
C4 C 0.5571(9) 0.6618(8) 0.5699(7)
O1 O 0.3910(7) 0.5031(6) 0.7809(6)
O2 O 0.7239(7) 0.3786(6) 0.8240(6)
N2 N 0.5571(8) 0.5051(7) 0.7357(6)
C5 C 0.7436(9) 0.6646(8) 0.5181(7)
C6 C 0.7417(9) 0.8177(8) 0.3609(8)
H1 H 0.4444 1.2177 0.0434
H2 H 0.6790 1.1237 0.0790
H3 H 0.2441 0.7986 0.5057
H4 H 0.8699 0.5637 0.5889
H5 H 0.8686 0.8208 0.3229
loop_
_geom_bond_atom_site_label_1
_geom_bond_atom_site_label_2
_geom_bond_site_symmetry_1
_geom_bond_site_symmetry_2
N1 C1 1_555 1_555
C1 C2 1_555 1_555
C2 I1 1_555 1_555
C3 C2 1_555 1_555
C4 C3 1_555 1_555
O1 N2 1_555 1_555
O2 N2 1_555 1_555
N2 C4 1_555 1_555
C5 C4 1_555 1_555
C6 C1 1_555 1_555
H1 N1 1_555 1_555
H2 N1 1_555 1_555
H3 C3 1_555 1_555
H4 C5 1_555 1_555
H5 C6 1_555 1_555
C5 C6 1_555 1_555

#END
