
#######################################################################
#
#                 Cambridge Crystallographic Data Centre
#                                CCDC 
#
#######################################################################
#
# If this CIF has been generated from an entry in the Cambridge 
# Structural Database, then it will include bibliographic, chemical, 
# crystal, experimental, refinement or atomic coordinate data resulting 
# from the CCDC's data processing and validation procedures.
#
#######################################################################

data_YEJLII
_chemical_formula_moiety         'C6 H5 I1 N2 O2'
_chemical_name_systematic        2-Iodo-4-nitroaniline
_symmetry_cell_setting           orthorhombic
_symmetry_space_group_name_H-M   'P b c a'
_symmetry_Int_Tables_number      61
_space_group_name_Hall           '-P 2ac 2ab'
loop_
_symmetry_equiv_pos_site_id
_symmetry_equiv_pos_as_xyz
1 x,y,z
2 1/2+x,y,1/2-z
3 x,1/2-y,1/2+z
4 1/2-x,1/2+y,z
5 -x,-y,-z
6 1/2-x,-y,1/2+z
7 -x,1/2+y,1/2-z
8 1/2+x,1/2-y,-z
_cell_length_a                   7.4215(5)
_cell_length_b                   12.6755(9)
_cell_length_c                   16.4638(11)
_cell_angle_alpha                90
_cell_angle_beta                 90
_cell_angle_gamma                90
_cell_volume                     1548.77
_exptl_crystal_colour            yellow
_exptl_crystal_description       plate
_chemical_melting_point          385-387K
_cell_formula_units_Z            8
_exptl_crystal_recrystallization_method ethanol
loop_
_atom_site_label
_atom_site_type_symbol
_atom_site_fract_x
_atom_site_fract_y
_atom_site_fract_z
C1 C 0.5827(11) 0.4747(7) 0.3056(5)
N1 N 0.5512(11) 0.4240(6) 0.3743(5)
C2 C 0.6364(10) 0.5828(7) 0.3030(4)
I1 I 0.66772(8) 0.66835(5) 0.41043(3)
C3 C 0.6636(11) 0.6331(6) 0.2307(5)
C4 C 0.6401(11) 0.5789(7) 0.1593(5)
N2 N 0.6642(10) 0.6332(7) 0.0834(4)
O1 O 0.6825(10) 0.7298(6) 0.0850(4)
O2 O 0.6703(9) 0.5836(6) 0.0201(4)
C5 C 0.5885(12) 0.4739(8) 0.1586(6)
C6 C 0.5595(11) 0.4233(7) 0.2307(6)
H1 H 0.5164 0.3593 0.3734
H2 H 0.5655 0.4557 0.4201
H3 H 0.6979 0.7036 0.2299
H4 H 0.5737 0.4383 0.1096
H5 H 0.5234 0.3530 0.2302
loop_
_geom_bond_atom_site_label_1
_geom_bond_atom_site_label_2
_geom_bond_site_symmetry_1
_geom_bond_site_symmetry_2
C1 N1 1_555 1_555
N1 H1 1_555 1_555
C2 C1 1_555 1_555
I1 C2 1_555 1_555
C3 C2 1_555 1_555
C4 C3 1_555 1_555
N2 C4 1_555 1_555
O1 N2 1_555 1_555
O2 N2 1_555 1_555
C5 C4 1_555 1_555
C6 C1 1_555 1_555
H2 N1 1_555 1_555
H3 C3 1_555 1_555
H4 C5 1_555 1_555
H5 C6 1_555 1_555
C5 C6 1_555 1_555

#END
