
#######################################################################
#
#                 Cambridge Crystallographic Data Centre
#                                CCDC 
#
#######################################################################
#
# If this CIF has been generated from an entry in the Cambridge 
# Structural Database, then it will include bibliographic, chemical, 
# crystal, experimental, refinement or atomic coordinate data resulting 
# from the CCDC's data processing and validation procedures.
#
#######################################################################

data_YEJNIK
_chemical_formula_moiety         'C12 H18 O3'
_chemical_name_systematic        
trans-1,1',1''-Cyclopropane-1,2,3-triyl-tris(cyclopropanol)
_symmetry_cell_setting           monoclinic
_symmetry_space_group_name_H-M   'P 21/c'
_symmetry_Int_Tables_number      14
_space_group_name_Hall           '-P 2ybc'
loop_
_symmetry_equiv_pos_site_id
_symmetry_equiv_pos_as_xyz
1 x,y,z
2 x,1/2-y,1/2+z
3 -x,-y,-z
4 -x,1/2+y,1/2-z
_cell_length_a                   12.6464(3)
_cell_length_b                   8.4615(2)
_cell_length_c                   10.4323(2)
_cell_angle_alpha                90
_cell_angle_beta                 96.5780(10)
_cell_angle_gamma                90
_cell_volume                     1108.99
_exptl_crystal_colour            colorless
_exptl_crystal_description       prism
_chemical_melting_point          129-130deg.C
_cell_formula_units_Z            4
_exptl_crystal_recrystallization_method 'diethyl ether'
loop_
_atom_site_label
_atom_site_type_symbol
_atom_site_fract_x
_atom_site_fract_y
_atom_site_fract_z
O1 O 0.84923(7) 0.45925(10) 0.06654(9)
O2 O 0.70894(8) 0.31988(10) 0.21164(8)
O3 O 0.75775(7) 1.02880(10) 0.31831(9)
C1 C 0.76243(9) 0.67846(13) 0.16650(11)
C2 C 0.68786(9) 0.59524(13) 0.24978(11)
C3 C 0.74427(9) 0.74430(13) 0.29710(11)
C4 C 0.86449(9) 0.60215(13) 0.13911(11)
C5 C 0.96650(10) 0.61334(16) 0.22856(13)
C6 C 0.95383(10) 0.70138(15) 0.10029(12)
C7 C 0.71554(9) 0.43754(13) 0.30985(11)
C8 C 0.79725(11) 0.41681(15) 0.42510(13)
C9 C 0.67936(11) 0.39635(15) 0.43774(12)
C10 C 0.68713(9) 0.89786(13) 0.30778(11)
C11 C 0.58054(10) 0.93183(15) 0.23469(13)
C12 C 0.59075(10) 0.90901(15) 0.38025(13)
H1 H 0.8107(16) 0.403(2) 0.1049(19)
H2 H 0.7258(14) 0.231(2) 0.2480(18)
H3 H 0.7909(17) 1.028(2) 0.398(2)
H4 H 0.7263(11) 0.7376(17) 0.0932(14)
H5 H 0.6123(12) 0.6036(17) 0.2184(14)
H6 H 0.8033(12) 0.7290(18) 0.3652(14)
H7 H 0.9672(12) 0.6761(19) 0.3075(16)
H8 H 1.0128(14) 0.519(2) 0.2335(17)
H9 H 0.9916(12) 0.6614(18) 0.0339(15)
H10 H 0.9447(12) 0.8155(19) 0.1030(15)
H11 H 0.8405(13) 0.322(2) 0.4267(15)
H12 H 0.8334(14) 0.509(2) 0.4654(16)
H13 H 0.6547(12) 0.288(2) 0.4510(15)
H14 H 0.6434(13) 0.478(2) 0.4803(16)
H15 H 0.5435(13) 0.848(2) 0.1792(16)
H16 H 0.5685(13) 1.0399(19) 0.2041(16)
H17 H 0.5853(13) 1.003(2) 0.4353(16)
H18 H 0.5631(13) 0.809(2) 0.4128(16)
loop_
_geom_bond_atom_site_label_1
_geom_bond_atom_site_label_2
_geom_bond_site_symmetry_1
_geom_bond_site_symmetry_2
O1 C4 1_555 1_555
O2 C7 1_555 1_555
O3 C10 1_555 1_555
C1 C2 1_555 1_555
C2 C3 1_555 1_555
C3 C1 1_555 1_555
C4 C1 1_555 1_555
C5 C4 1_555 1_555
C6 C4 1_555 1_555
C7 C2 1_555 1_555
C8 C7 1_555 1_555
C9 C7 1_555 1_555
C10 C3 1_555 1_555
C11 C10 1_555 1_555
C12 C10 1_555 1_555
H1 O1 1_555 1_555
H2 O2 1_555 1_555
H3 O3 1_555 1_555
H4 C1 1_555 1_555
H5 C2 1_555 1_555
H6 C3 1_555 1_555
H7 C5 1_555 1_555
H8 C5 1_555 1_555
H9 C6 1_555 1_555
H10 C6 1_555 1_555
H11 C8 1_555 1_555
H12 C8 1_555 1_555
H13 C9 1_555 1_555
H14 C9 1_555 1_555
H15 C11 1_555 1_555
H16 C11 1_555 1_555
H17 C12 1_555 1_555
H18 C12 1_555 1_555
C5 C6 1_555 1_555
C8 C9 1_555 1_555
C11 C12 1_555 1_555

#END
