
#######################################################################
#
#                 Cambridge Crystallographic Data Centre
#                                CCDC 
#
#######################################################################
#
# If this CIF has been generated from an entry in the Cambridge 
# Structural Database, then it will include bibliographic, chemical, 
# crystal, experimental, refinement or atomic coordinate data resulting 
# from the CCDC's data processing and validation procedures.
#
#######################################################################

data_YEJSOX
_chemical_formula_moiety         'C18 H14 N4 O4'
_chemical_name_systematic        
'Dimethyl 3,6-bis(pyridin-2-yl)pyrazine-2,5-dicarboxylate'
_symmetry_cell_setting           triclinic
_symmetry_space_group_name_H-M   'P -1'
_symmetry_Int_Tables_number      2
_space_group_name_Hall           '-P 1'
loop_
_symmetry_equiv_pos_site_id
_symmetry_equiv_pos_as_xyz
1 x,y,z
2 -x,-y,-z
_cell_length_a                   6.9280(10)
_cell_length_b                   7.522(2)
_cell_length_c                   9.174(2)
_cell_angle_alpha                107.090(10)
_cell_angle_beta                 101.270(10)
_cell_angle_gamma                107.620(10)
_cell_volume                     413.765
_exptl_crystal_colour            colorless
_exptl_crystal_description       rod
_cell_formula_units_Z            1
loop_
_atom_site_label
_atom_site_type_symbol
_atom_site_fract_x
_atom_site_fract_y
_atom_site_fract_z
O1 O 0.7318(3) 1.1867(3) 0.4194(2)
O2 O 0.6982(3) 0.8635(3) 0.3310(2)
N1 N 0.3842(3) 0.9101(3) 0.0840(2)
N2 N -0.0478(3) 0.8179(3) -0.2541(2)
C1 C 0.2853(4) 0.9023(3) -0.0604(3)
C2 C 0.5944(4) 1.0067(3) 0.1439(3)
C3 C 0.0499(4) 0.8000(3) -0.1208(3)
C4 C -0.0611(4) 0.6957(4) -0.0422(3)
H1 H 0.0100 0.6900 0.0524
C5 C -0.2795(4) 0.6002(4) -0.1073(4)
H2 H -0.3577 0.5267 -0.0580
C6 C -0.3801(4) 0.6142(4) -0.2445(4)
H3 H -0.5272 0.5496 -0.2908
C7 C -0.2594(4) 0.7258(4) -0.3123(3)
H4 H -0.3290 0.7379 -0.4042
C8 C 0.6855(4) 1.0083(4) 0.3077(3)
C9 C 0.8374(5) 1.2155(6) 0.5823(3)
H5 H 0.8776 1.3530 0.6516
H6 H 0.9624 1.1846 0.5855
H7 H 0.7420 1.1280 0.6178
O1A O 0.2682(3) 0.8133(3) -0.4194(2)
O2A O 0.3018(3) 1.1365(3) -0.3310(2)
N1A N 0.6158(3) 1.0899(3) -0.0840(2)
N2A N 1.0478(3) 1.1821(3) 0.2541(2)
C1A C 0.7147(4) 1.0977(3) 0.0604(3)
C2A C 0.4056(4) 0.9933(3) -0.1439(3)
C3A C 0.9501(4) 1.2000(3) 0.1208(3)
C4A C 1.0611(4) 1.3043(4) 0.0422(3)
H1A H 0.9900 1.3100 -0.0524
C5A C 1.2795(4) 1.3998(4) 0.1073(4)
H2A H 1.3577 1.4733 0.0580
C6A C 1.3801(4) 1.3858(4) 0.2445(4)
H3A H 1.5272 1.4504 0.2908
C7A C 1.2594(4) 1.2742(4) 0.3123(3)
H4A H 1.3290 1.2621 0.4042
C8A C 0.3145(4) 0.9917(4) -0.3077(3)
C9A C 0.1626(5) 0.7845(6) -0.5823(3)
H5A H 0.1224 0.6470 -0.6516
H6A H 0.0376 0.8154 -0.5855
H7A H 0.2580 0.8720 -0.6178
loop_
_geom_bond_atom_site_label_1
_geom_bond_atom_site_label_2
_geom_bond_site_symmetry_1
_geom_bond_site_symmetry_2
O1 C8 1_555 1_555
O2 C8 1_555 1_555
N1 C1 1_555 1_555
N2 C3 1_555 1_555
C1 C3 1_555 1_555
C2 N1 1_555 1_555
C3 C4 1_555 1_555
C4 H1 1_555 1_555
C5 C4 1_555 1_555
H2 C5 1_555 1_555
C6 C5 1_555 1_555
H3 C6 1_555 1_555
C7 N2 1_555 1_555
H4 C7 1_555 1_555
C8 C2 1_555 1_555
C9 O1 1_555 1_555
H5 C9 1_555 1_555
H6 C9 1_555 1_555
H7 C9 1_555 1_555
O1A C8A 1_555 1_555
O2A C8A 1_555 1_555
N1A C1A 1_555 1_555
N2A C3A 1_555 1_555
C1A C2 1_555 1_555
C2A C1 1_555 1_555
C3A C1A 1_555 1_555
C4A C3A 1_555 1_555
H1A C4A 1_555 1_555
C5A C4A 1_555 1_555
H2A C5A 1_555 1_555
C6A C5A 1_555 1_555
H3A C6A 1_555 1_555
C7A N2A 1_555 1_555
H4A C7A 1_555 1_555
C8A C2A 1_555 1_555
C9A O1A 1_555 1_555
H5A C9A 1_555 1_555
H6A C9A 1_555 1_555
H7A C9A 1_555 1_555
C6 C7 1_555 1_555
N1A C2A 1_555 1_555
C6A C7A 1_555 1_555

#END
