
#######################################################################
#
#                 Cambridge Crystallographic Data Centre
#                                CCDC 
#
#######################################################################
#
# If this CIF has been generated from an entry in the Cambridge 
# Structural Database, then it will include bibliographic, chemical, 
# crystal, experimental, refinement or atomic coordinate data resulting 
# from the CCDC's data processing and validation procedures.
#
#######################################################################

data_YEJSUD
_chemical_formula_moiety         'C20 H18 N4 O4'
_chemical_name_systematic        
'Diethyl 3,6-bis(pyridin-2-yl)pyrazine-2,5-dicarboxylate'
_symmetry_cell_setting           triclinic
_symmetry_space_group_name_H-M   'P -1'
_symmetry_Int_Tables_number      2
_space_group_name_Hall           '-P 1'
loop_
_symmetry_equiv_pos_site_id
_symmetry_equiv_pos_as_xyz
1 x,y,z
2 -x,-y,-z
_cell_length_a                   7.014(1)
_cell_length_b                   7.337(2)
_cell_length_c                   9.380(2)
_cell_angle_alpha                78.29(1)
_cell_angle_beta                 78.47(1)
_cell_angle_gamma                79.18(1)
_cell_volume                     457.646
_exptl_crystal_colour            colorless
_exptl_crystal_description       plate
_cell_formula_units_Z            1
loop_
_atom_site_label
_atom_site_type_symbol
_atom_site_fract_x
_atom_site_fract_y
_atom_site_fract_z
O1 O -0.2376(6) 0.8672(5) 0.8819(4)
O2 O -0.1628(5) 1.1608(5) 0.8384(3)
N1 N 0.0951(5) 0.9128(5) 0.6177(4)
N2 N 0.4864(6) 0.8218(6) 0.3169(5)
C1 C 0.1885(6) 0.9104(6) 0.4777(5)
C2 C -0.0891(6) 1.0023(6) 0.6385(5)
C3 C 0.3959(6) 0.8165(6) 0.4571(5)
C4 C 0.4899(8) 0.7321(8) 0.5754(6)
H1 H 0.4244 0.7336 0.6719
C5 C 0.6826(8) 0.6456(8) 0.5477(7)
H2 H 0.7486 0.5869 0.6255
C6 C 0.7763(7) 0.6468(7) 0.4043(7)
H3 H 0.9054 0.5875 0.3830
C7 C 0.6735(7) 0.7381(7) 0.2933(6)
H4 H 0.7379 0.7419 0.1962
C8 C -0.1779(6) 1.0001(7) 0.8001(5)
C9 C -0.2572(8) 1.1888(8) 0.9872(5)
H5 H -0.1977 1.0936 1.0602
H6 H -0.3966 1.1814 1.0019
C10 C -0.2272(13) 1.3786(10) 1.0004(7)
H7 H -0.2755 1.3994 1.0999
H8 H -0.2973 1.4718 0.9340
H9 H -0.0893 1.3876 0.9759
O1A O 0.2376(6) 1.1328(5) 0.1181(4)
O2A O 0.1628(5) 0.8392(5) 0.1616(3)
N1A N -0.0951(5) 1.0872(5) 0.3823(4)
N2A N -0.4864(6) 1.1782(6) 0.6831(5)
C1A C -0.1885(6) 1.0896(6) 0.5223(5)
C2A C 0.0891(6) 0.9977(6) 0.3615(5)
C3A C -0.3959(6) 1.1835(6) 0.5429(5)
C4A C -0.4899(8) 1.2679(8) 0.4246(6)
H1A H -0.4244 1.2664 0.3281
C5A C -0.6826(8) 1.3544(8) 0.4523(7)
H2A H -0.7486 1.4131 0.3745
C6A C -0.7763(7) 1.3532(7) 0.5957(7)
H3A H -0.9054 1.4125 0.6170
C7A C -0.6735(7) 1.2619(7) 0.7067(6)
H4A H -0.7379 1.2581 0.8038
C8A C 0.1779(6) 0.9999(7) 0.1999(5)
C9A C 0.2572(8) 0.8112(8) 0.0128(5)
H5A H 0.1977 0.9064 -0.0602
H6A H 0.3966 0.8186 -0.0019
C10A C 0.2272(13) 0.6214(10) -0.0004(7)
H7A H 0.2755 0.6006 -0.0999
H8A H 0.2973 0.5282 0.0660
H9A H 0.0893 0.6124 0.0241
loop_
_geom_bond_atom_site_label_1
_geom_bond_atom_site_label_2
_geom_bond_site_symmetry_1
_geom_bond_site_symmetry_2
O1 C8 1_555 1_555
O2 C8 1_555 1_555
N1 C1 1_555 1_555
N2 C3 1_555 1_555
C1 C3 1_555 1_555
C2 N1 1_555 1_555
C3 C4 1_555 1_555
C4 H1 1_555 1_555
C5 C4 1_555 1_555
H2 C5 1_555 1_555
C6 C5 1_555 1_555
H3 C6 1_555 1_555
C7 N2 1_555 1_555
H4 C7 1_555 1_555
C8 C2 1_555 1_555
C9 O2 1_555 1_555
H5 C9 1_555 1_555
H6 C9 1_555 1_555
C10 C9 1_555 1_555
H7 C10 1_555 1_555
H8 C10 1_555 1_555
H9 C10 1_555 1_555
O1A C8A 1_555 1_555
O2A C8A 1_555 1_555
N1A C1A 1_555 1_555
N2A C3A 1_555 1_555
C1A C2 1_555 1_555
C2A C1 1_555 1_555
C3A C1A 1_555 1_555
C4A C3A 1_555 1_555
H1A C4A 1_555 1_555
C5A C4A 1_555 1_555
H2A C5A 1_555 1_555
C6A C5A 1_555 1_555
H3A C6A 1_555 1_555
C7A N2A 1_555 1_555
H4A C7A 1_555 1_555
C8A C2A 1_555 1_555
C9A O2A 1_555 1_555
H5A C9A 1_555 1_555
H6A C9A 1_555 1_555
C10A C9A 1_555 1_555
H7A C10A 1_555 1_555
H8A C10A 1_555 1_555
H9A C10A 1_555 1_555
C6 C7 1_555 1_555
N1A C2A 1_555 1_555
C6A C7A 1_555 1_555

#END
