
#######################################################################
#
#                 Cambridge Crystallographic Data Centre
#                                CCDC 
#
#######################################################################
#
# If this CIF has been generated from an entry in the Cambridge 
# Structural Database, then it will include bibliographic, chemical, 
# crystal, experimental, refinement or atomic coordinate data resulting 
# from the CCDC's data processing and validation procedures.
#
#######################################################################

data_YEKFAX
_chemical_name_common            ditolylmethano[10]annulene
_chemical_formula_moiety         'C25 H22'
_chemical_name_systematic        
7,10-bis(4-methylphenyl)bicyclo[4.4.1]undeca-1,3,5,7,9-pentaene
_symmetry_cell_setting           monoclinic
_symmetry_space_group_name_H-M   'P 21/n'
_symmetry_Int_Tables_number      14
_space_group_name_Hall           '-P 2yn'
loop_
_symmetry_equiv_pos_site_id
_symmetry_equiv_pos_as_xyz
1 x,y,z
2 1/2-x,1/2+y,1/2-z
3 -x,-y,-z
4 1/2+x,1/2-y,1/2+z
_cell_length_a                   15.389(3)
_cell_length_b                   4.647(2)
_cell_length_c                   26.708(4)
_cell_angle_alpha                90
_cell_angle_beta                 105.78(2)
_cell_angle_gamma                90
_cell_volume                     1837.98
_exptl_crystal_colour            yellow
_exptl_crystal_description       prismatic
_cell_formula_units_Z            4
loop_
_atom_site_label
_atom_site_type_symbol
_atom_site_fract_x
_atom_site_fract_y
_atom_site_fract_z
C1 C 1.0486(2) 0.1319(7) 0.6077(1)
C2 C 1.1392(2) 0.1991(7) 0.6364(1)
C3 C 1.1617(2) 0.1965(9) 0.6900(1)
C4 C 1.1047(3) 0.1991(9) 0.7244(1)
C5 C 1.0120(2) 0.2077(8) 0.7135(1)
C6 C 0.9587(2) 0.1400(7) 0.6623(1)
C7 C 0.8788(2) 0.2748(8) 0.6358(1)
C8 C 0.8514(2) 0.2996(10) 0.5817(1)
C9 C 0.9065(2) 0.294(1) 0.5481(1)
C10 C 1.0006(2) 0.2600(9) 0.5619(1)
C11 C 0.9980(3) -0.0683(8) 0.6324(2)
C12 C 1.2068(2) 0.2855(7) 0.6092(1)
C13 C 1.2711(2) 0.4915(10) 0.6287(1)
C14 C 1.3351(2) 0.560(1) 0.6030(2)
C15 C 1.3382(2) 0.4320(9) 0.5577(1)
C16 C 1.2737(3) 0.2336(10) 0.5377(1)
C17 C 1.2093(3) 0.1602(9) 0.5625(1)
C18 C 1.4081(3) 0.508(1) 0.5307(2)
C19 C 0.9688(2) 0.2955(8) 0.7545(1)
C20 C 1.0068(2) 0.4972(9) 0.7921(1)
C21 C 0.9671(3) 0.556(1) 0.8316(1)
C22 C 0.8904(3) 0.423(1) 0.8358(1)
C23 C 0.8515(3) 0.228(1) 0.7978(2)
C24 C 0.8894(3) 0.1626(9) 0.7577(1)
C25 C 0.8507(3) 0.487(1) 0.8804(2)
H1 H 1.2266 0.2345 0.7064
H2 H 1.1394 0.2391 0.7612
H3 H 0.8429 0.3782 0.6552
H4 H 0.794 0.3795 0.5675
H5 H 0.883 0.3646 0.5148
H6 H 1.031 0.3538 0.5402
H7 H 0.9523 -0.1514 0.608
H8 H 1.0401 -0.1891 0.6555
H9 H 1.2696 0.5753 0.6609
H10 H 1.3808 0.6981 0.616
H11 H 1.2698 0.1611 0.503
H12 H 1.1641 0.0284 0.5481
H13 H 1.3909 0.5144 0.4931
H14 H 1.418 0.7047 0.5313
H15 H 1.4578 0.4182 0.541
H16 H 1.063 0.5885 0.7884
H17 H 0.994 0.6724 0.8548
H18 H 0.7992 0.1383 0.799
H19 H 0.8628 0.0121 0.7353
H20 H 0.8346 0.6528 0.8797
H21 H 0.8879 0.4201 0.9123
H22 H 0.7969 0.412 0.8792
loop_
_geom_bond_atom_site_label_1
_geom_bond_atom_site_label_2
_geom_bond_site_symmetry_1
_geom_bond_site_symmetry_2
C1 C2 1_555 1_555
C2 C3 1_555 1_555
C3 C4 1_555 1_555
C4 C5 1_555 1_555
C5 C6 1_555 1_555
C6 C7 1_555 1_555
C7 C8 1_555 1_555
C8 C9 1_555 1_555
C9 C10 1_555 1_555
C10 C1 1_555 1_555
C11 C1 1_555 1_555
C12 C2 1_555 1_555
C13 C12 1_555 1_555
C14 C13 1_555 1_555
C15 C14 1_555 1_555
C16 C15 1_555 1_555
C17 C12 1_555 1_555
C18 C15 1_555 1_555
C19 C5 1_555 1_555
C20 C19 1_555 1_555
C21 C20 1_555 1_555
C22 C21 1_555 1_555
C23 C22 1_555 1_555
C24 C19 1_555 1_555
C25 C22 1_555 1_555
H1 C3 1_555 1_555
H2 C4 1_555 1_555
H3 C7 1_555 1_555
H4 C8 1_555 1_555
H5 C9 1_555 1_555
H6 C10 1_555 1_555
H7 C11 1_555 1_555
H8 C11 1_555 1_555
H9 C13 1_555 1_555
H10 C14 1_555 1_555
H11 C16 1_555 1_555
H12 C17 1_555 1_555
H13 C18 1_555 1_555
H14 C18 1_555 1_555
H15 C18 1_555 1_555
H16 C20 1_555 1_555
H17 C21 1_555 1_555
H18 C23 1_555 1_555
H19 C24 1_555 1_555
H20 C25 1_555 1_555
H21 C25 1_555 1_555
H22 C25 1_555 1_555
C6 C11 1_555 1_555
C16 C17 1_555 1_555
C23 C24 1_555 1_555

#END
