
#######################################################################
#
#                 Cambridge Crystallographic Data Centre
#                                CCDC 
#
#######################################################################
#
# If this CIF has been generated from an entry in the Cambridge 
# Structural Database, then it will include bibliographic, chemical, 
# crystal, experimental, refinement or atomic coordinate data resulting 
# from the CCDC's data processing and validation procedures.
#
#######################################################################

data_YEKFIF
_chemical_formula_moiety         'C10 H9 N3 O2 S2'
_chemical_name_systematic        
2-Methoxy-8,9-dihydropyrimido[4',5':4,5]thieno[2,3-f][1,4]thiazepin-6(7H)-one
_symmetry_cell_setting           triclinic
_symmetry_space_group_name_H-M   'P -1'
_symmetry_Int_Tables_number      2
_space_group_name_Hall           '-P 1'
loop_
_symmetry_equiv_pos_site_id
_symmetry_equiv_pos_as_xyz
1 x,y,z
2 -x,-y,-z
_cell_length_a                   5.117(8)
_cell_length_b                   9.387(14)
_cell_length_c                   11.362(17)
_cell_angle_alpha                86.01(3)
_cell_angle_beta                 84.90(3)
_cell_angle_gamma                89.39(3)
_cell_volume                     542.27
_cell_formula_units_Z            2
loop_
_atom_site_label
_atom_site_type_symbol
_atom_site_fract_x
_atom_site_fract_y
_atom_site_fract_z
S1 S 0.3845(6) 0.9715(4) 0.6478(3)
S2 S 0.4548(6) 0.6602(3) 0.9408(3)
O1 O 0.8301(15) 0.8413(9) 0.9949(7)
O2 O -0.2411(15) 0.5532(9) 0.5947(7)
N1 N 0.7763(18) 1.0403(11) 0.8781(8)
H1 H 0.8983 1.0780 0.9144
N2 N -0.062(2) 0.4696(12) 0.7552(9)
N3 N 0.0561(17) 0.7016(10) 0.6665(8)
C1 C 0.665(2) 1.0723(14) 0.6710(11)
H2 H 0.8208 1.0111 0.6601
H3 H 0.6839 1.1515 0.6100
C2 C 0.662(3) 1.1326(15) 0.7905(12)
H4 H 0.7562 1.2234 0.7816
H5 H 0.4793 1.1526 0.8188
C3 C 0.720(2) 0.9026(14) 0.9113(10)
C4 C 0.520(2) 0.8249(13) 0.8598(10)
C5 C 0.236(2) 0.6112(13) 0.8448(10)
C6 C 0.095(2) 0.4912(14) 0.8421(11)
H6 H 0.1058 0.4193 0.9033
C7 C -0.072(2) 0.5827(14) 0.6758(10)
C8 C 0.216(2) 0.7171(13) 0.7516(10)
C9 C 0.381(2) 0.8392(13) 0.7597(9)
C10 C -0.259(3) 0.6601(16) 0.4988(12)
H7 H -0.3839 0.6300 0.4463
H8 H -0.0881 0.6728 0.4552
H9 H -0.3168 0.7497 0.5303
loop_
_geom_bond_atom_site_label_1
_geom_bond_atom_site_label_2
_geom_bond_site_symmetry_1
_geom_bond_site_symmetry_2
S1 C1 1_555 1_555
S2 C4 1_555 1_555
O1 C3 1_555 1_555
O2 C7 1_555 1_555
N1 H1 1_555 1_555
N2 C6 1_555 1_555
N3 C7 1_555 1_555
C1 H2 1_555 1_555
H3 C1 1_555 1_555
C2 N1 1_555 1_555
H4 C2 1_555 1_555
H5 C2 1_555 1_555
C3 N1 1_555 1_555
C4 C3 1_555 1_555
C5 S2 1_555 1_555
C6 C5 1_555 1_555
H6 C6 1_555 1_555
C7 N2 1_555 1_555
C8 N3 1_555 1_555
C9 S1 1_555 1_555
C10 O2 1_555 1_555
H7 C10 1_555 1_555
H8 C10 1_555 1_555
H9 C10 1_555 1_555
C1 C2 1_555 1_555
C4 C9 1_555 1_555
C5 C8 1_555 1_555
C8 C9 1_555 1_555

#END
