
#######################################################################
#
#                 Cambridge Crystallographic Data Centre
#                                CCDC 
#
#######################################################################
#
# If this CIF has been generated from an entry in the Cambridge 
# Structural Database, then it will include bibliographic, chemical, 
# crystal, experimental, refinement or atomic coordinate data resulting 
# from the CCDC's data processing and validation procedures.
#
#######################################################################

data_YEKGEA
_chemical_formula_moiety         'C15 H22 N2 O7'
_chemical_name_systematic        
6-Hydroxy-5-methylene-1-(((2,2,4-trimethyl)-1,3-dioxolan-4-yl)(hydroxy)methyl)-2-oxa-7,9-diazabicyclo(4.2.2)decan-8,10-dione
_symmetry_cell_setting           monoclinic
_symmetry_space_group_name_H-M   'P 21'
_symmetry_Int_Tables_number      4
_space_group_name_Hall           'P 2yb'
loop_
_symmetry_equiv_pos_site_id
_symmetry_equiv_pos_as_xyz
1 x,y,z
2 -x,1/2+y,-z
_cell_length_a                   7.579(2)
_cell_length_b                   10.355(2)
_cell_length_c                   11.266(2)
_cell_angle_alpha                90
_cell_angle_beta                 108.80(2)
_cell_angle_gamma                90
_cell_volume                     836.991
_exptl_crystal_colour            colorless
_chemical_melting_point          161-163deg.C
_cell_formula_units_Z            2
loop_
_atom_site_label
_atom_site_type_symbol
_atom_site_fract_x
_atom_site_fract_y
_atom_site_fract_z
C1 C 0.9488(4) 0.3115 0.5818(3)
C2 C 0.8064(4) 0.2015(4) 0.5335(3)
N1 N 0.6278(3) 0.2383(4) 0.4837(2)
C3 C 0.5650(4) 0.3711(4) 0.4674(3)
O1 O 0.5081(3) 0.4159(3) 0.5701(2)
C4 C 0.6104(4) 0.3703(5) 0.6941(3)
C5 C 0.8150(4) 0.4175(5) 0.7451(3)
C6 C 0.9612(4) 0.3326(5) 0.7194(3)
N2 N 0.8913(3) 0.4279(4) 0.5082(2)
C7 C 0.7152(4) 0.4650(4) 0.4561(3)
O2 O 1.1198(3) 0.2795(4) 0.5673(3)
O3 O 0.8577(3) 0.0899(3) 0.5469(2)
C8 C 0.3874(4) 0.3830(4) 0.3527(3)
O4 O 0.2540(3) 0.2914(4) 0.3629(2)
C9 C 0.4134(4) 0.3610(4) 0.2238(3)
O5 O 0.6095(3) 0.3582(4) 0.2351(2)
C10 C 0.3148(6) 0.4681(5) 0.1336(3)
C11 C 0.3550(5) 0.2252(4) 0.1688(3)
O6 O 0.4610(3) 0.2101(4) 0.0855(2)
C12 C 1.0943(6) 0.2750(6) 0.8090(4)
O7 O 0.6685(3) 0.5706(3) 0.4074(2)
C13 C 0.6394(5) 0.2641(5) 0.1484(3)
C14 C 0.7750(5) 0.1622(5) 0.2211(4)
C15 C 0.7054(6) 0.3329(6) 0.0514(4)
loop_
_geom_bond_atom_site_label_1
_geom_bond_atom_site_label_2
_geom_bond_site_symmetry_1
_geom_bond_site_symmetry_2
C1 C2 1_555 1_555
C2 N1 1_555 1_555
N1 C3 1_555 1_555
C3 O1 1_555 1_555
O1 C4 1_555 1_555
C4 C5 1_555 1_555
C5 C6 1_555 1_555
C6 C1 1_555 1_555
N2 C1 1_555 1_555
C7 C3 1_555 1_555
O2 C1 1_555 1_555
O3 C2 1_555 1_555
C8 C3 1_555 1_555
O4 C8 1_555 1_555
C9 C8 1_555 1_555
O5 C9 1_555 1_555
C10 C9 1_555 1_555
C11 C9 1_555 1_555
O6 C11 1_555 1_555
C12 C6 1_555 1_555
O7 C7 1_555 1_555
C13 O5 1_555 1_555
C14 C13 1_555 1_555
C15 C13 1_555 1_555
N2 C7 1_555 1_555
O6 C13 1_555 1_555

#END
