
#######################################################################
#
#                 Cambridge Crystallographic Data Centre
#                                CCDC 
#
#######################################################################
#
# If this CIF has been generated from an entry in the Cambridge 
# Structural Database, then it will include bibliographic, chemical, 
# crystal, experimental, refinement or atomic coordinate data resulting 
# from the CCDC's data processing and validation procedures.
#
#######################################################################

data_YEKGOK
_chemical_formula_moiety         'C15 H22 N2 O7'
_chemical_name_systematic        
6-Hydroxy-5-methylene-1-(5-hydroxy-2,2,5-trimethyl-1,3-dioxacyclohexan-4-yl)-2-oxa-7,9-diazabicyclo(4.2.2)decan-8,10-dione
_symmetry_cell_setting           monoclinic
_symmetry_space_group_name_H-M   'P 21'
_symmetry_Int_Tables_number      4
_space_group_name_Hall           'P 2yb'
loop_
_symmetry_equiv_pos_site_id
_symmetry_equiv_pos_as_xyz
1 x,y,z
2 -x,1/2+y,-z
_cell_length_a                   10.468(5)
_cell_length_b                   10.889(4)
_cell_length_c                   14.416(5)
_cell_angle_alpha                90
_cell_angle_beta                 102.70(3)
_cell_angle_gamma                90
_cell_volume                     1603.02
_exptl_crystal_colour            colorless
_chemical_melting_point          189-193deg.C
_cell_formula_units_Z            4
loop_
_atom_site_label
_atom_site_type_symbol
_atom_site_fract_x
_atom_site_fract_y
_atom_site_fract_z
C1 C 0.5048(3) 0.3954 0.4268(3)
C2 C 0.6058(3) 0.2914(5) 0.4291(2)
N1 N 0.7313(3) 0.3277(5) 0.4461(2)
C3 C 0.7789(3) 0.4494(5) 0.4778(3)
O1 O 0.8053(2) 0.5197(4) 0.4021(2)
C4 C 0.6951(4) 0.5780(5) 0.3395(3)
C5 C 0.5859(4) 0.4978(5) 0.2847(3)
C6 C 0.4739(3) 0.4561(5) 0.3290(3)
N2 N 0.5574(3) 0.4873(5) 0.4990(2)
C7 C 0.6830(3) 0.5208(5) 0.5235(3)
O2 O 0.3938(2) 0.3472(4) 0.4530(2)
O3 O 0.5700(3) 0.1861(4) 0.4121(2)
C8 C 0.9070(3) 0.4322(5) 0.5532(3)
O4 O 0.8696(2) 0.3504(4) 0.6194(2)
C9 C 1.0291(4) 0.3798(5) 0.5223(3)
O5 O 0.9972(3) 0.2656(4) 0.4738(2)
C10 C 1.0871(4) 0.4669(5) 0.4584(4)
C11 C 1.1299(4) 0.3579(6) 0.6140(3)
O6 O 1.0826(3) 0.2768(4) 0.6757(2)
C12 C 0.3519(4) 0.4708(6) 0.2833(3)
O7 O 0.7226(3) 0.6089(4) 0.5749(2)
C13 C 0.9668(4) 0.3203(5) 0.7024(3)
C14 C 0.9122(4) 0.2121(6) 0.7466(3)
C15 C 0.9937(4) 0.4292(5) 0.7695(3)
C16 C 0.9706(3) 0.2503(5) 1.0376(3)
C17 C 0.8591(3) 0.1577(5) 1.0027(3)
N3 N 0.7378(3) 0.1981(4) 0.9986(2)
C18 C 0.7029(3) 0.3181(5) 1.0263(2)
O8 O 0.6901(2) 0.3212(4) 1.1227(2)
C19 C 0.7895(4) 0.2570(6) 1.1912(3)
C20 C 0.9265(4) 0.2972(6) 1.2060(3)
C21 C 1.0162(3) 0.2437(5) 1.1458(3)
N4 N 0.9239(3) 0.3746(4) 1.0108(2)
C22 C 0.8056(3) 0.4159(5) 1.0143(2)
O9 O 1.0708(2) 0.2318(4) 0.9892(2)
O10 O 0.8835(2) 0.0537(4) 0.9816(2)
C23 C 0.5728(3) 0.3578(5) 0.9617(2)
O11 O 0.5999(2) 0.3459(4) 0.8697(2)
C24 C 0.4460(3) 0.2890(5) 0.9677(3)
O12 O 0.4684(2) 0.1596(4) 0.9609(2)
C25 C 0.3990(3) 0.3196(5) 1.0581(3)
C26 C 0.3411(3) 0.3302(5) 0.8814(3)
O13 O 0.3823(2) 0.3198(4) 0.7946(2)
C27 C 1.1319(4) 0.2002(6) 1.1854(3)
O14 O 0.7758(2) 0.5254(4) 1.0101(2)
C28 C 0.4996(3) 0.3862(5) 0.7925(3)
C29 C 0.5419(4) 0.3422(6) 0.7043(3)
C30 C 0.4804(4) 0.5238(5) 0.7937(3)
loop_
_geom_bond_atom_site_label_1
_geom_bond_atom_site_label_2
_geom_bond_site_symmetry_1
_geom_bond_site_symmetry_2
C1 C2 1_555 1_555
C2 N1 1_555 1_555
N1 C3 1_555 1_555
C3 O1 1_555 1_555
O1 C4 1_555 1_555
C4 C5 1_555 1_555
C5 C6 1_555 1_555
C6 C1 1_555 1_555
N2 C1 1_555 1_555
C7 C3 1_555 1_555
O2 C1 1_555 1_555
O3 C2 1_555 1_555
C8 C3 1_555 1_555
O4 C8 1_555 1_555
C9 C8 1_555 1_555
O5 C9 1_555 1_555
C10 C9 1_555 1_555
C11 C9 1_555 1_555
O6 C11 1_555 1_555
C12 C6 1_555 1_555
O7 C7 1_555 1_555
C13 O4 1_555 1_555
C14 C13 1_555 1_555
C15 C13 1_555 1_555
C16 C17 1_555 1_555
C17 N3 1_555 1_555
N3 C18 1_555 1_555
C18 O8 1_555 1_555
O8 C19 1_555 1_555
C19 C20 1_555 1_555
C20 C21 1_555 1_555
C21 C16 1_555 1_555
N4 C16 1_555 1_555
C22 C18 1_555 1_555
O9 C16 1_555 1_555
O10 C17 1_555 1_555
C23 C18 1_555 1_555
O11 C23 1_555 1_555
C24 C23 1_555 1_555
O12 C24 1_555 1_555
C25 C24 1_555 1_555
C26 C24 1_555 1_555
O13 C26 1_555 1_555
C27 C21 1_555 1_555
O14 C22 1_555 1_555
C28 O11 1_555 1_555
C29 C28 1_555 1_555
C30 C28 1_555 1_555
N2 C7 1_555 1_555
O6 C13 1_555 1_555
N4 C22 1_555 1_555
O13 C28 1_555 1_555

#END
