
#######################################################################
#
#                 Cambridge Crystallographic Data Centre
#                                CCDC 
#
#######################################################################
#
# If this CIF has been generated from an entry in the Cambridge 
# Structural Database, then it will include bibliographic, chemical, 
# crystal, experimental, refinement or atomic coordinate data resulting 
# from the CCDC's data processing and validation procedures.
#
#######################################################################

data_YEKGEC
_chemical_formula_moiety         'C4 N10 O4 2-,2(C1 H9 N6 1+)'
_chemical_name_systematic        'Triaminoguanidinium 3,3-dinitroazotriazolate'
_symmetry_cell_setting           monoclinic
_symmetry_space_group_name_H-M   'P 21/n'
_symmetry_Int_Tables_number      14
_space_group_name_Hall           '-P 2yn'
loop_
_symmetry_equiv_pos_site_id
_symmetry_equiv_pos_as_xyz
1 x,y,z
2 1/2-x,1/2+y,1/2-z
3 -x,-y,-z
4 1/2+x,1/2-y,1/2+z
_cell_length_a                   7.087(3)
_cell_length_b                   7.733(4)
_cell_length_c                   16.437(8)
_cell_angle_alpha                90
_cell_angle_beta                 92.968(8)
_cell_angle_gamma                90
_cell_volume                     899.601
_exptl_crystal_colour            yellow
_exptl_crystal_description       'thin plate'
_cell_formula_units_Z            2
loop_
_atom_site_label
_atom_site_type_symbol
_atom_site_fract_x
_atom_site_fract_y
_atom_site_fract_z
N1 N 0.03181(17) 0.51676(16) -0.03438(7)
C1 C 0.11607(19) 0.67967(18) -0.03846(9)
N2 N 0.13935(17) 0.79849(15) 0.02145(7)
C2 C 0.2250(2) 0.92159(18) -0.01964(9)
N3 N 0.28582(17) 1.08187(16) 0.01885(8)
O1 O 0.37146(16) 1.18589(14) -0.02262(7)
O2 O 0.25013(17) 1.10521(14) 0.08994(7)
N4 N 0.25546(18) 0.88996(16) -0.09753(8)
N5 N 0.18284(18) 0.72873(17) -0.11016(8)
N1B N -0.03181(17) 0.48324(16) 0.03438(7)
C1B C -0.11607(19) 0.32033(18) 0.03846(9)
N2B N -0.13935(17) 0.20151(15) -0.02145(7)
C2B C -0.2250(2) 0.07841(18) 0.01964(9)
N3B N -0.28582(17) -0.08187(16) -0.01885(8)
O1B O -0.37146(16) -0.18589(14) 0.02262(7)
O2B O -0.25013(17) -0.10521(14) -0.08994(7)
N4B N -0.25546(18) 0.11004(16) 0.09753(8)
N5B N -0.18284(18) 0.27127(17) 0.11016(8)
C3 C 0.1335(2) 0.87132(18) 0.25994(9)
N6 N 0.31573(18) 0.90933(18) 0.27097(8)
H1 H 0.349(3) 0.963(2) 0.3169(8)
N7 N 0.44472(19) 0.85722(19) 0.21367(9)
H2 H 0.494(3) 0.9526(19) 0.1923(12)
H3 H 0.536(2) 0.800(2) 0.2433(11)
N8 N 0.01566(18) 0.92001(17) 0.31629(8)
H4 H -0.0984(17) 0.874(2) 0.3148(12)
N9 N 0.0963(2) 0.99076(19) 0.38882(8)
H5 H 0.047(3) 1.0962(17) 0.3958(13)
H6 H 0.070(3) 0.922(2) 0.4308(10)
N10 N 0.06762(17) 0.78876(17) 0.19364(8)
H7 H 0.137(2) 0.789(2) 0.1491(8)
N11 N -0.13000(18) 0.76205(18) 0.18514(8)
H8 H -0.146(3) 0.6626(18) 0.1574(11)
H9 H -0.180(3) 0.850(2) 0.1550(11)
loop_
_geom_bond_atom_site_label_1
_geom_bond_atom_site_label_2
_geom_bond_site_symmetry_1
_geom_bond_site_symmetry_2
N1 C1 1_555 1_555
C1 N2 1_555 1_555
N2 C2 1_555 1_555
C2 N3 1_555 1_555
N3 O1 1_555 1_555
O2 N3 1_555 1_555
N4 C2 1_555 1_555
N5 C1 1_555 1_555
C3 N6 1_555 1_555
N6 H1 1_555 1_555
N7 N6 1_555 1_555
H2 N7 1_555 1_555
H3 N7 1_555 1_555
N8 C3 1_555 1_555
H4 N8 1_555 1_555
N9 N8 1_555 1_555
H5 N9 1_555 1_555
H6 N9 1_555 1_555
N10 C3 1_555 1_555
H7 N10 1_555 1_555
N11 N10 1_555 1_555
H8 N11 1_555 1_555
H9 N11 1_555 1_555
N1B N1 1_555 1_555
C1B N1B 1_555 1_555
N2B C1B 1_555 1_555
C2B N2B 1_555 1_555
N3B C2B 1_555 1_555
O1B N3B 1_555 1_555
O2B N3B 1_555 1_555
N4B C2B 1_555 1_555
N5B C1B 1_555 1_555
N4 N5 1_555 1_555
N4B N5B 1_555 1_555

#END
