
#######################################################################
#
#                 Cambridge Crystallographic Data Centre
#                                CCDC 
#
#######################################################################
#
# If this CIF has been generated from an entry in the Cambridge 
# Structural Database, then it will include bibliographic, chemical, 
# crystal, experimental, refinement or atomic coordinate data resulting 
# from the CCDC's data processing and validation procedures.
#
#######################################################################

data_YEKGAX
_chemical_name_common            
'(1,2-dicarba-closo-dodecaboran-1-yl)(di-isopropylamino)(1H-inden-3-yl)phosphine oxide'
_chemical_formula_moiety         'C17 H32 B10 N1 O1 P1'
_chemical_name_systematic        
'P-(1,2-dicarba-closo-dodecaboran-1-yl)-P-(1H-inden-1-yl)-N,N-di-isopropylphosphinic amide'
_symmetry_cell_setting           triclinic
_symmetry_space_group_name_H-M   'P -1'
_symmetry_Int_Tables_number      2
_space_group_name_Hall           '-P 1'
loop_
_symmetry_equiv_pos_site_id
_symmetry_equiv_pos_as_xyz
1 x,y,z
2 -x,-y,-z
_cell_length_a                   10.6093(9)
_cell_length_b                   11.4181(9)
_cell_length_c                   20.0274(16)
_cell_angle_alpha                84.344(2)
_cell_angle_beta                 85.426(2)
_cell_angle_gamma                76.998(2)
_cell_volume                     2348.22
_exptl_crystal_colour            colorless
_exptl_crystal_description       block
_cell_formula_units_Z            4
_exptl_crystal_recrystallization_method toluene
loop_
_atom_site_label
_atom_site_type_symbol
_atom_site_fract_x
_atom_site_fract_y
_atom_site_fract_z
P1 P 0.73768(5) 0.81256(5) 0.53481(3)
O3 O 0.64431(12) 0.92978(11) 0.54047(7)
N1 N 0.73290(14) 0.71658(13) 0.60047(8)
C1 C 0.69773(17) 0.74960(15) 0.45801(9)
C3 C 0.7343(2) 0.6052(2) 0.43757(13)
H1 H 0.7994 0.5320 0.4661
C5 C 0.90072(17) 0.83864(16) 0.51367(10)
H3 H 0.9006 0.8864 0.4703
C7 C 1.01655(18) 0.73064(18) 0.51227(11)
H5 H 1.0259 0.6682 0.4845
C9 C 1.10111(18) 0.73810(18) 0.55561(11)
H7 H 1.1784 0.6821 0.5625
C11 C 1.05677(19) 0.84522(18) 0.59064(10)
C13 C 1.1104(2) 0.8904(2) 0.64169(11)
H9 H 1.1888 0.8492 0.6586
C15 C 1.0455(2) 0.9958(2) 0.66583(12)
H11 H 1.0789 1.0254 0.7006
C17 C 0.9305(2) 1.0600(2) 0.63987(11)
H13 H 0.8894 1.1331 0.6564
C19 C 0.87588(19) 1.01635(16) 0.58935(10)
H15 H 0.7988 1.0594 0.5718
C21 C 0.93892(18) 0.90760(17) 0.56588(10)
C23 C 0.82037(19) 0.59462(17) 0.60901(11)
H17 H 0.8743 0.5839 0.5671
C25 C 0.9125(2) 0.5814(2) 0.66449(11)
H19 H 0.9598 0.6444 0.6576
H20 H 0.9720 0.5044 0.6640
H21 H 0.8641 0.5869 0.7071
C27 C 0.7472(2) 0.49367(17) 0.61746(11)
H25 H 0.6914 0.5020 0.5811
H26 H 0.6962 0.4978 0.6593
H27 H 0.8078 0.4173 0.6174
C29 C 0.6468(2) 0.75396(19) 0.66208(11)
H31 H 0.6592 0.6812 0.6934
C31 C 0.6911(2) 0.84507(19) 0.69809(11)
H33 H 0.7821 0.8185 0.7047
H34 H 0.6440 0.8538 0.7409
H35 H 0.6756 0.9213 0.6717
C33 C 0.5038(2) 0.7834(2) 0.64991(12)
H39 H 0.4545 0.8049 0.6909
H40 H 0.4804 0.7143 0.6349
H41 H 0.4855 0.8498 0.6162
B1 B 0.5754(2) 0.6700(2) 0.47011(14)
H45 H 0.5352 0.6408 0.5197
B3 B 0.54882(19) 0.81635(18) 0.43456(11)
H47 H 0.4871 0.8868 0.4636
B5 B 0.6776(2) 0.8520(2) 0.38836(13)
H49 H 0.7036 0.9403 0.3860
B7 B 0.7956(2) 0.7187(2) 0.38698(12)
H51 H 0.8993 0.7198 0.3825
B9 B 0.5949(2) 0.5820(2) 0.40086(13)
H53 H 0.5681 0.4938 0.4053
B11 B 0.4786(3) 0.7204(2) 0.40040(14)
H55 H 0.3739 0.7233 0.4049
B13 B 0.5403(3) 0.8308(2) 0.35064(15)
H57 H 0.4765 0.9056 0.3226
B15 B 0.6960(3) 0.7659(3) 0.31838(14)
H59 H 0.7349 0.7968 0.2689
B17 B 0.7302(2) 0.6112(2) 0.34902(13)
H61 H 0.7911 0.5410 0.3195
B19 B 0.5728(3) 0.6839(2) 0.32734(14)
H63 H 0.5307 0.6612 0.2832
P2 P 0.26090(7) 0.65128(6) 1.04462(3)
O1 O 0.36397(18) 0.54573(15) 1.02927(9)
N2 N 0.27126(15) 0.70889(14) 1.11466(8)
C2 C 0.27653(19) 0.7776(2) 0.97442(11)
C4 C 0.3729(3) 0.8747(3) 0.98590(15)
H2 H 0.4105 0.8797 1.0349
C6 C 0.1092(2) 0.61927(17) 1.03204(12)
H4 H 0.1072 0.6027 0.9851
C8 C -0.0251(3) 0.7080(3) 1.05420(15)
H6 H -0.0541 0.7874 1.0371
C10 C -0.0860(2) 0.6493(2) 1.10030(12)
H8 H -0.1654 0.6869 1.1197
C12 C -0.0344(3) 0.5371(2) 1.11895(14)
C14 C -0.0710(3) 0.4556(3) 1.16461(13)
H10 H -0.1479 0.4752 1.1909
C16 C 0.0055(3) 0.3451(3) 1.17162(16)
H12 H -0.0187 0.2879 1.2034
C18 C 0.1160(4) 0.3152(3) 1.13385(17)
H14 H 0.1631 0.2363 1.1409
C20 C 0.1735(3) 0.3979(2) 1.07987(16)
H16 H 0.2503 0.3772 1.0537
C22 C 0.08799(19) 0.5082(3) 1.07840(11)
C24 C 0.3816(2) 0.6404(2) 1.15556(18)
H18 H 0.3676 0.6812 1.1972
C26 C 0.3805(3) 0.5158(2) 1.17907(13)
H22 H 0.2952 0.5107 1.1972
H23 H 0.4412 0.4885 1.2134
H24 H 0.4044 0.4660 1.1422
C28 C 0.5144(2) 0.6619(3) 1.12670(13)
H28 H 0.5810 0.6165 1.1546
H29 H 0.5142 0.7462 1.1256
H30 H 0.5307 0.6364 1.0820
C30 C 0.1786(3) 0.7939(2) 1.15205(13)
H32 H 0.1123 0.8240 1.1194
C32 C 0.1030(2) 0.7444(2) 1.20804(11)
H36 H 0.0789 0.6739 1.1953
H37 H 0.0263 0.8038 1.2189
H38 H 0.1544 0.7231 1.2466
C34 C 0.2186(2) 0.9072(2) 1.16377(12)
H42 H 0.2640 0.9345 1.1240
H43 H 0.2743 0.8919 1.2006
H44 H 0.1431 0.9682 1.1743
B2 B 0.4230(2) 0.7578(2) 0.93913(11)
H46 H 0.4976 0.6810 0.9580
B4 B 0.3044(3) 0.7271(3) 0.89611(14)
H48 H 0.2967 0.6363 0.8855
B6 B 0.1653(3) 0.8393(3) 0.91425(15)
H50 H 0.0670 0.8225 0.9157
B8 B 0.2100(3) 0.9316(3) 0.97014(17)
H52 H 0.1397 0.9748 1.0086
B10 B 0.4693(3) 0.8903(3) 0.91202(15)
H54 H 0.5681 0.9054 0.9120
B12 B 0.4259(3) 0.7995(3) 0.85631(14)
H56 H 0.4991 0.7548 0.8196
B14 B 0.2617(3) 0.8550(3) 0.83759(15)
H58 H 0.2262 0.8481 0.7883
B16 B 0.2014(3) 0.9809(3) 0.88469(18)
H60 H 0.1251 1.0568 0.8664
B18 B 0.3269(3) 1.0045(3) 0.92977(17)
H62 H 0.3329 1.0953 0.9411
B20 B 0.3606(4) 0.9564(3) 0.84701(18)
H64 H 0.3887 1.0151 0.8042
P3? P 0.17823(16) 0.75453(15) 1.04566(9)
O2? O 0.0615(4) 0.8519(3) 1.0532(2)
loop_
_geom_bond_atom_site_label_1
_geom_bond_atom_site_label_2
_geom_bond_site_symmetry_1
_geom_bond_site_symmetry_2
P1 O3 1_555 1_555
P2 O1 1_555 1_555
N1 P1 1_555 1_555
N2 P2 1_555 1_555
C1 P1 1_555 1_555
C2 P2 1_555 1_555
C3 C1 1_555 1_555
H1 C3 1_555 1_555
C4 C2 1_555 1_555
H2 C4 1_555 1_555
C5 P1 1_555 1_555
H3 C5 1_555 1_555
C6 P2 1_555 1_555
H4 C6 1_555 1_555
C7 C5 1_555 1_555
H5 C7 1_555 1_555
C8 C6 1_555 1_555
H6 C8 1_555 1_555
C9 C7 1_555 1_555
H7 C9 1_555 1_555
C10 C8 1_555 1_555
H8 C10 1_555 1_555
C11 C9 1_555 1_555
C12 C10 1_555 1_555
C13 C11 1_555 1_555
H9 C13 1_555 1_555
C14 C12 1_555 1_555
H10 C14 1_555 1_555
C15 C13 1_555 1_555
H11 C15 1_555 1_555
C16 C14 1_555 1_555
H12 C16 1_555 1_555
C17 C15 1_555 1_555
H13 C17 1_555 1_555
C18 C16 1_555 1_555
H14 C18 1_555 1_555
C19 C17 1_555 1_555
H15 C19 1_555 1_555
C20 C18 1_555 1_555
H16 C20 1_555 1_555
C21 C5 1_555 1_555
C22 C6 1_555 1_555
C23 N1 1_555 1_555
H17 C23 1_555 1_555
C24 N2 1_555 1_555
H18 C24 1_555 1_555
C25 C23 1_555 1_555
H19 C25 1_555 1_555
H20 C25 1_555 1_555
H21 C25 1_555 1_555
C26 C24 1_555 1_555
H22 C26 1_555 1_555
H23 C26 1_555 1_555
H24 C26 1_555 1_555
C27 C23 1_555 1_555
H25 C27 1_555 1_555
H26 C27 1_555 1_555
H27 C27 1_555 1_555
C28 C24 1_555 1_555
H28 C28 1_555 1_555
H29 C28 1_555 1_555
H30 C28 1_555 1_555
C29 N1 1_555 1_555
H31 C29 1_555 1_555
C30 N2 1_555 1_555
H32 C30 1_555 1_555
C31 C29 1_555 1_555
H33 C31 1_555 1_555
H34 C31 1_555 1_555
H35 C31 1_555 1_555
C32 C30 1_555 1_555
H36 C32 1_555 1_555
H37 C32 1_555 1_555
H38 C32 1_555 1_555
C33 C29 1_555 1_555
H39 C33 1_555 1_555
H40 C33 1_555 1_555
H41 C33 1_555 1_555
C34 C30 1_555 1_555
H42 C34 1_555 1_555
H43 C34 1_555 1_555
H44 C34 1_555 1_555
B1 C1 1_555 1_555
H45 B1 1_555 1_555
B2 C2 1_555 1_555
H46 B2 1_555 1_555
B3 C1 1_555 1_555
H47 B3 1_555 1_555
B4 C2 1_555 1_555
H48 B4 1_555 1_555
B5 C1 1_555 1_555
H49 B5 1_555 1_555
B6 C2 1_555 1_555
H50 B6 1_555 1_555
B7 C1 1_555 1_555
H51 B7 1_555 1_555
B8 C2 1_555 1_555
H52 B8 1_555 1_555
B9 C3 1_555 1_555
H53 B9 1_555 1_555
B10 C4 1_555 1_555
H54 B10 1_555 1_555
B11 B1 1_555 1_555
H55 B11 1_555 1_555
B12 B2 1_555 1_555
H56 B12 1_555 1_555
B13 B3 1_555 1_555
H57 B13 1_555 1_555
B14 B4 1_555 1_555
H58 B14 1_555 1_555
B15 B5 1_555 1_555
H59 B15 1_555 1_555
B16 B6 1_555 1_555
H60 B16 1_555 1_555
B17 C3 1_555 1_555
H61 B17 1_555 1_555
B18 C4 1_555 1_555
H62 B18 1_555 1_555
B19 B9 1_555 1_555
H63 B19 1_555 1_555
B20 B10 1_555 1_555
H64 B20 1_555 1_555
C3 B1 1_555 1_555
C3 B7 1_555 1_555
C4 B2 1_555 1_555
C4 B8 1_555 1_555
C11 C21 1_555 1_555
C12 C22 1_555 1_555
C19 C21 1_555 1_555
C20 C22 1_555 1_555
B1 B3 1_555 1_555
B1 B9 1_555 1_555
B2 B4 1_555 1_555
B2 B10 1_555 1_555
B3 B5 1_555 1_555
B3 B11 1_555 1_555
B4 B6 1_555 1_555
B4 B12 1_555 1_555
B5 B7 1_555 1_555
B5 B13 1_555 1_555
B6 B8 1_555 1_555
B6 B14 1_555 1_555
B7 B15 1_555 1_555
B7 B17 1_555 1_555
B8 B16 1_555 1_555
B8 B18 1_555 1_555
B9 B11 1_555 1_555
B9 B17 1_555 1_555
B10 B12 1_555 1_555
B10 B18 1_555 1_555
B11 B13 1_555 1_555
B11 B19 1_555 1_555
B12 B14 1_555 1_555
B12 B20 1_555 1_555
B13 B15 1_555 1_555
B13 B19 1_555 1_555
B14 B16 1_555 1_555
B14 B20 1_555 1_555
B15 B17 1_555 1_555
B15 B19 1_555 1_555
B16 B18 1_555 1_555
B16 B20 1_555 1_555
B17 B19 1_555 1_555
B18 B20 1_555 1_555

#END
