
#######################################################################
#
#                 Cambridge Crystallographic Data Centre
#                                CCDC 
#
#######################################################################
#
# If this CIF has been generated from an entry in the Cambridge 
# Structural Database, then it will include bibliographic, chemical, 
# crystal, experimental, refinement or atomic coordinate data resulting 
# from the CCDC's data processing and validation procedures.
#
#######################################################################

data_YEKGAW
_chemical_formula_moiety         'C15 H20 N2 O7,H2 O1'
_chemical_name_systematic        
'6-Hydroxy-5-methylene-1-((2,2,4-trimethyl)-1,3-dioxolan-4-yl-carbonyl)-2-oxa-7,9-diazabicyclo(4.2.2)decan-8,10-dione monohydrate'
_symmetry_cell_setting           monoclinic
_symmetry_space_group_name_H-M   'P 21'
_symmetry_Int_Tables_number      4
_space_group_name_Hall           'P 2yb'
loop_
_symmetry_equiv_pos_site_id
_symmetry_equiv_pos_as_xyz
1 x,y,z
2 -x,1/2+y,-z
_cell_length_a                   6.497(3)
_cell_length_b                   10.908(5)
_cell_length_c                   12.294(7)
_cell_angle_alpha                90
_cell_angle_beta                 90.73(4)
_cell_angle_gamma                90
_cell_volume                     871.196
_exptl_crystal_colour            colorless
_chemical_melting_point          154-158deg.C
_cell_formula_units_Z            2
loop_
_atom_site_label
_atom_site_type_symbol
_atom_site_fract_x
_atom_site_fract_y
_atom_site_fract_z
C1 C 0.6483(11) 0.7807 0.9852(5)
C2 C 0.6256(11) 0.8723(9) 0.8898(6)
N1 N 0.6624(9) 0.8278(8) 0.7896(5)
C3 C 0.7186(10) 0.7024(9) 0.7673(5)
O1 O 0.9344(6) 0.6832(8) 0.7677(3)
C4 C 1.0630(11) 0.7417(10) 0.8477(6)
C5 C 1.0258(11) 0.7094(10) 0.9675(5)
C6 C 0.8685(11) 0.7880(10) 1.0237(6)
N2 N 0.5895(9) 0.6586(8) 0.9500(5)
C7 C 0.6153(11) 0.6161(9) 0.8499(5)
O2 O 0.5037(9) 0.8081(8) 1.0656(4)
O3 O 0.5799(8) 0.9786(8) 0.9065(4)
C8 C 0.6367(11) 0.6677(9) 0.6520(5)
O4 O 0.4624(8) 0.6921(9) 0.6303(4)
C9 C 0.7831(11) 0.6007(9) 0.5728(5)
O5 O 0.6703(7) 0.5833(8) 0.4733(4)
C10 C 0.8524(12) 0.4781(10) 0.6134(6)
C11 C 0.9635(10) 0.6855(9) 0.5429(5)
O6 O 0.9786(7) 0.6660(8) 0.4273(3)
C12 C 0.9247(14) 0.8607(11) 1.1024(7)
O7 O 0.5681(9) 0.5128(8) 0.8206(4)
C13 C 0.7760(12) 0.6484(10) 0.3865(6)
C14 C 0.7825(13) 0.5640(11) 0.2887(6)
C15 C 0.6635(13) 0.7640(11) 0.3631(6)
O8 O 0.2913(8) 0.4809(8) 0.3955(5)
loop_
_geom_bond_atom_site_label_1
_geom_bond_atom_site_label_2
_geom_bond_site_symmetry_1
_geom_bond_site_symmetry_2
C1 C2 1_555 1_555
C2 N1 1_555 1_555
N1 C3 1_555 1_555
C3 O1 1_555 1_555
O1 C4 1_555 1_555
C4 C5 1_555 1_555
C5 C6 1_555 1_555
C6 C1 1_555 1_555
N2 C1 1_555 1_555
C7 C3 1_555 1_555
O2 C1 1_555 1_555
O3 C2 1_555 1_555
C8 C3 1_555 1_555
O4 C8 1_555 1_555
C9 C8 1_555 1_555
O5 C9 1_555 1_555
C10 C9 1_555 1_555
C11 C9 1_555 1_555
O6 C11 1_555 1_555
C12 C6 1_555 1_555
O7 C7 1_555 1_555
C13 O5 1_555 1_555
C14 C13 1_555 1_555
C15 C13 1_555 1_555
N2 C7 1_555 1_555
O6 C13 1_555 1_555

#END
