
#######################################################################
#
#                 Cambridge Crystallographic Data Centre
#                                CCDC 
#
#######################################################################
#
# If this CIF has been generated from an entry in the Cambridge 
# Structural Database, then it will include bibliographic, chemical, 
# crystal, experimental, refinement or atomic coordinate data resulting 
# from the CCDC's data processing and validation procedures.
#
#######################################################################

data_YEKHEE
_chemical_formula_moiety         'C18 H16 F2 O2'
_chemical_name_systematic        
'methyl 2-(difluoromethyl)-1,2-diphenylcyclopropane-1-carboxylate unknown solvate'
_symmetry_cell_setting           hexagonal
_symmetry_space_group_name_H-M   'P 65'
_symmetry_Int_Tables_number      170
_space_group_name_Hall           'P 65'
loop_
_symmetry_equiv_pos_site_id
_symmetry_equiv_pos_as_xyz
1 x,y,z
2 -y,x-y,2/3+z
3 -x+y,-x,1/3+z
4 -x,-y,1/2+z
5 y,-x+y,1/6+z
6 x-y,x,5/6+z
_cell_length_a                   17.5697(4)
_cell_length_b                   17.5697(4)
_cell_length_c                   9.1671(2)
_cell_angle_alpha                90
_cell_angle_beta                 90
_cell_angle_gamma                120
_cell_volume                     2450.71
_exptl_crystal_colour            colorless
_exptl_crystal_description       needle
_cell_formula_units_Z            6
loop_
_atom_site_label
_atom_site_type_symbol
_atom_site_fract_x
_atom_site_fract_y
_atom_site_fract_z
F1 F 0.68029(15) 0.24130(10) 0.23539(16)
F2 F 0.57357(10) 0.17169(9) 0.39042(19)
O1 O 0.69163(11) 0.24988(9) 0.68025(16)
O2 O 0.65010(10) 0.12668(9) 0.80702(16)
C1 C 0.68181(13) 0.17696(13) 0.6886(2)
C2 C 0.70603(13) 0.13264(13) 0.5723(2)
C3 C 0.69873(14) 0.15484(13) 0.4102(2)
C4 C 0.78639(14) 0.19545(14) 0.4836(2)
H1 H 0.8146 0.2575 0.5073
H2 H 0.8264 0.1753 0.4542
C5 C 0.66340(17) 0.21562(15) 0.3770(3)
H3 H 0.6901 0.2668 0.4418
C6 C 0.69117(14) 0.04261(13) 0.6080(2)
C7 C 0.76030(15) 0.02834(15) 0.6352(3)
H4 H 0.8177 0.0744 0.6252
C8 C 0.74499(18) -0.05439(17) 0.6775(3)
H5 H 0.7920 -0.0632 0.6966
C9 C 0.65979(18) -0.12317(15) 0.6911(3)
H6 H 0.6494 -0.1785 0.7188
C10 C 0.59019(16) -0.10999(14) 0.6639(3)
H7 H 0.5329 -0.1563 0.6734
C11 C 0.60559(14) -0.02772(14) 0.6222(2)
H8 H 0.5583 -0.0192 0.6034
C12 C 0.67545(14) 0.08424(13) 0.2966(2)
C13 C 0.73872(16) 0.08610(15) 0.2043(3)
H9 H 0.7972 0.1294 0.2165
C14 C 0.71644(17) 0.02453(16) 0.0939(3)
H10 H 0.7599 0.0266 0.0333
C15 C 0.62978(17) -0.03994(15) 0.0734(3)
H11 H 0.6147 -0.0808 -0.0014
C16 C 0.56574(16) -0.04320(15) 0.1652(3)
H12 H 0.5075 -0.0869 0.1528
C17 C 0.58798(14) 0.01842(13) 0.2757(2)
H13 H 0.5444 0.0159 0.3364
C18 C 0.63113(16) 0.16704(15) 0.9293(2)
H14 H 0.5830 0.1758 0.9047
H15 H 0.6821 0.2227 0.9511
H16 H 0.6158 0.1293 1.0130
loop_
_geom_bond_atom_site_label_1
_geom_bond_atom_site_label_2
_geom_bond_site_symmetry_1
_geom_bond_site_symmetry_2
F1 C5 1_555 1_555
F2 C5 1_555 1_555
O1 C1 1_555 1_555
O2 C1 1_555 1_555
C1 C2 1_555 1_555
C2 C3 1_555 1_555
C3 C4 1_555 1_555
C4 C2 1_555 1_555
H1 C4 1_555 1_555
H2 C4 1_555 1_555
C5 C3 1_555 1_555
H3 C5 1_555 1_555
C6 C2 1_555 1_555
C7 C6 1_555 1_555
H4 C7 1_555 1_555
C8 C7 1_555 1_555
H5 C8 1_555 1_555
C9 C8 1_555 1_555
H6 C9 1_555 1_555
C10 C9 1_555 1_555
H7 C10 1_555 1_555
C11 C6 1_555 1_555
H8 C11 1_555 1_555
C12 C3 1_555 1_555
C13 C12 1_555 1_555
H9 C13 1_555 1_555
C14 C13 1_555 1_555
H10 C14 1_555 1_555
C15 C14 1_555 1_555
H11 C15 1_555 1_555
C16 C15 1_555 1_555
H12 C16 1_555 1_555
C17 C12 1_555 1_555
H13 C17 1_555 1_555
C18 O2 1_555 1_555
H14 C18 1_555 1_555
H15 C18 1_555 1_555
H16 C18 1_555 1_555
C10 C11 1_555 1_555
C16 C17 1_555 1_555

#END
