
#######################################################################
#
#                 Cambridge Crystallographic Data Centre
#                                CCDC 
#
#######################################################################
#
# If this CIF has been generated from an entry in the Cambridge 
# Structural Database, then it will include bibliographic, chemical, 
# crystal, experimental, refinement or atomic coordinate data resulting 
# from the CCDC's data processing and validation procedures.
#
#######################################################################

data_YEKKOP
_chemical_formula_moiety         'C23 H19 F2 N3 O2'
_chemical_name_systematic        
(+)-4-((3aS,4R,7S,8aS,8bR)-2-(4-fluorobenzyl)-7-fluoro-1,3-dioxodecahydropyrrolo[3,4-a]pyrrolizin-4-yl)benzonitrile
_symmetry_cell_setting           orthorhombic
_symmetry_space_group_name_H-M   'P 21 21 21'
_symmetry_Int_Tables_number      19
_space_group_name_Hall           'P 2ac 2ab'
loop_
_symmetry_equiv_pos_site_id
_symmetry_equiv_pos_as_xyz
1 x,y,z
2 1/2-x,-y,1/2+z
3 -x,1/2+y,1/2-z
4 1/2+x,1/2-y,-z
_cell_length_a                   10.4015(3)
_cell_length_b                   12.6531(4)
_cell_length_c                   14.8005(5)
_cell_angle_alpha                90
_cell_angle_beta                 90
_cell_angle_gamma                90
_cell_volume                     1947.91
_exptl_crystal_colour            colorless
_chemical_melting_point          '142-145 deg.C'
_cell_formula_units_Z            4
loop_
_atom_site_label
_atom_site_type_symbol
_atom_site_fract_x
_atom_site_fract_y
_atom_site_fract_z
C1 C 0.32200(18) 0.26774(14) 0.21467(14)
N1 N 0.40771(15) 0.31252(12) 0.15380(10)
C2 C 0.50603(17) 0.36792(13) 0.19469(12)
C3 C 0.48589(16) 0.36299(14) 0.29627(12)
H1 H 0.4641 0.4341 0.3215
C4 C 0.37381(17) 0.28444(14) 0.30863(12)
H2 H 0.3068 0.3115 0.3512
C5 C 0.59845(17) 0.31222(13) 0.34758(12)
H3 H 0.5840 0.3231 0.4137
N2 N 0.57772(14) 0.19938(11) 0.32725(10)
C6 C 0.43915(17) 0.18251(14) 0.34372(13)
H4 H 0.4083 0.1202 0.3083
C7 C 0.4256(2) 0.16027(17) 0.44631(13)
H5 H 0.4011 0.2253 0.4793
H6 H 0.3600 0.1052 0.4576
C8 C 0.5577(2) 0.12257(16) 0.47526(14)
H7 H 0.5532 0.0491 0.5001
C9 C 0.63997(19) 0.12583(15) 0.39077(12)
H8 H 0.7277 0.1506 0.4056
H9 H 0.6463 0.0545 0.3637
C10 C 0.73127(17) 0.35254(14) 0.32454(11)
C11 C 0.82423(17) 0.29005(15) 0.28359(12)
H10 H 0.8028 0.2207 0.2641
C12 C 0.94778(18) 0.32784(16) 0.27096(13)
H11 H 1.0117 0.2840 0.2446
C13 C 0.97777(17) 0.43041(15) 0.29717(13)
C14 C 0.88477(17) 0.49547(15) 0.33555(12)
H12 H 0.9049 0.5662 0.3518
C15 C 0.76283(18) 0.45584(14) 0.34969(13)
H13 H 0.6994 0.4994 0.3769
C16 C 1.10739(19) 0.46976(16) 0.28766(14)
N3 N 1.21051(17) 0.50196(16) 0.28353(14)
O1 O 0.58966(13) 0.41419(10) 0.15366(9)
O2 O 0.22502(13) 0.22170(12) 0.19219(10)
F1 F 0.61055(13) 0.19307(10) 0.54000(8)
C17 C 0.3939(2) 0.30034(15) 0.05592(12)
H14 H 0.4490 0.3530 0.0253
H15 H 0.3036 0.3151 0.0389
C18 C 0.42980(18) 0.19119(15) 0.02329(12)
C19 C 0.3531(2) 0.14066(16) -0.04057(12)
H16 H 0.2762 0.1736 -0.0608
C20 C 0.3874(2) 0.04316(16) -0.07493(13)
H17 H 0.3350 0.0088 -0.1185
C21 C 0.4978(2) -0.00254(15) -0.04499(13)
C22 C 0.5757(2) 0.04324(16) 0.01930(14)
H18 H 0.6515 0.0087 0.0394
C23 C 0.54076(19) 0.14119(16) 0.05402(13)
H19 H 0.5926 0.1741 0.0988
F2 F 0.53318(14) -0.09841(10) -0.07883(10)
loop_
_geom_bond_atom_site_label_1
_geom_bond_atom_site_label_2
_geom_bond_site_symmetry_1
_geom_bond_site_symmetry_2
C1 N1 1_555 1_555
N1 C2 1_555 1_555
C2 C3 1_555 1_555
C3 H1 1_555 1_555
C4 C1 1_555 1_555
H2 C4 1_555 1_555
C5 C3 1_555 1_555
H3 C5 1_555 1_555
N2 C5 1_555 1_555
C6 C4 1_555 1_555
H4 C6 1_555 1_555
C7 C6 1_555 1_555
H5 C7 1_555 1_555
H6 C7 1_555 1_555
C8 C7 1_555 1_555
H7 C8 1_555 1_555
C9 N2 1_555 1_555
H8 C9 1_555 1_555
H9 C9 1_555 1_555
C10 C5 1_555 1_555
C11 C10 1_555 1_555
H10 C11 1_555 1_555
C12 C11 1_555 1_555
H11 C12 1_555 1_555
C13 C12 1_555 1_555
C14 C13 1_555 1_555
H12 C14 1_555 1_555
C15 C10 1_555 1_555
H13 C15 1_555 1_555
C16 C13 1_555 1_555
N3 C16 1_555 1_555
O1 C2 1_555 1_555
O2 C1 1_555 1_555
F1 C8 1_555 1_555
C17 N1 1_555 1_555
H14 C17 1_555 1_555
H15 C17 1_555 1_555
C18 C17 1_555 1_555
C19 C18 1_555 1_555
H16 C19 1_555 1_555
C20 C19 1_555 1_555
H17 C20 1_555 1_555
C21 C20 1_555 1_555
C22 C21 1_555 1_555
H18 C22 1_555 1_555
C23 C18 1_555 1_555
H19 C23 1_555 1_555
F2 C21 1_555 1_555
C3 C4 1_555 1_555
N2 C6 1_555 1_555
C8 C9 1_555 1_555
C14 C15 1_555 1_555
C22 C23 1_555 1_555

#END
