
#######################################################################
#
#                 Cambridge Crystallographic Data Centre
#                                CCDC 
#
#######################################################################
#
# If this CIF has been generated from an entry in the Cambridge 
# Structural Database, then it will include bibliographic, chemical, 
# crystal, experimental, refinement or atomic coordinate data resulting 
# from the CCDC's data processing and validation procedures.
#
#######################################################################

data_YEKTAK
_chemical_name_common            
'(methyl cholan-24-oate-3,12-diyl) benzene-1,3-diylbis(3-methyl-1H-imidazol-3-ium-1-ylacetate) bis(bromide) chloroform solvate dihydrate'
_chemical_formula_moiety         
'C43 H58 N4 O6 2+,2(Br1 1-),2(C1 H1 Cl3),2(H2 O1)'
_chemical_name_systematic        
"3\a,12\a-O,O'-(3,3'-(benzene-1,3-dimethylene)bis(1-imidazole)diacetyl)deoxycholate bis(hydrogen bromide) chloroform solvate dihydrate"
_symmetry_cell_setting           monoclinic
_symmetry_space_group_name_H-M   'P 21'
_symmetry_Int_Tables_number      4
_space_group_name_Hall           'P 2yb'
loop_
_symmetry_equiv_pos_site_id
_symmetry_equiv_pos_as_xyz
1 x,y,z
2 -x,1/2+y,-z
_cell_length_a                   13.409(2)
_cell_length_b                   13.645(2)
_cell_length_c                   14.854(2)
_cell_angle_alpha                90
_cell_angle_beta                 103.485(2)
_cell_angle_gamma                90
_cell_volume                     2642.85
_exptl_crystal_colour            colorless
_exptl_crystal_description       needle
_chemical_melting_point          'decomposes at 189 deg.C'
_cell_formula_units_Z            2
_exptl_crystal_recrystallization_method chloroform/hexane
loop_
_atom_site_label
_atom_site_type_symbol
_atom_site_fract_x
_atom_site_fract_y
_atom_site_fract_z
Br1 Br 0.98859(7) 0.98561(7) 0.03466(6)
Br2 Br 0.52073(7) 0.41960(7) 0.93685(8)
O1 O 0.3238(5) 1.1467(4) 0.2541(4)
O2 O 0.2962(4) 0.9897(4) 0.2879(3)
O3 O -0.2613(5) 1.1209(5) 0.1696(4)
O4 O -0.1820(4) 0.9750(5) 0.2026(4)
O5 O 0.7426(6) 0.6903(6) 0.2783(6)
O6 O 0.6005(5) 0.6021(6) 0.2388(5)
C1 C -0.2443(7) 1.2430(7) -0.1803(7)
H1 H -0.2337 1.3090 -0.1556
H2 H -0.2937 1.2463 -0.2394
C2 C -0.1440(6) 1.2033(6) -0.1948(6)
C3 C -0.1452(7) 1.1209(6) -0.2508(6)
H3 H -0.2070 1.0921 -0.2803
C4 C -0.0528(7) 1.0823(7) -0.2618(6)
H4 H -0.0529 1.0262 -0.2973
C5 C 0.0387(6) 1.1266(6) -0.2205(6)
H5 H 0.1001 1.1007 -0.2288
C6 C 0.0393(6) 1.2094(6) -0.1670(6)
C7 C -0.0523(7) 1.2474(6) -0.1546(6)
H6 H -0.0517 1.3033 -0.1186
C8 C 0.1389(7) 1.2626(7) -0.1229(6)
H7 H 0.1751 1.2777 -0.1706
H8 H 0.1223 1.3242 -0.0971
C9 C 0.1791(7) 1.1391(6) 0.0025(6)
H9 H 0.1126 1.1163 -0.0030
C10 C 0.3438(7) 1.1604(7) 0.0533(7)
H10 H 0.4110 1.1547 0.0880
C11 C 0.3104(7) 1.2215(7) -0.0177(6)
H11 H 0.3501 1.2663 -0.0411
C12 C 0.2628(7) 1.0305(6) 0.1330(6)
H12 H 0.3081 0.9786 0.1222
H13 H 0.1943 1.0033 0.1236
C13 C 0.2971(6) 1.0642(7) 0.2311(6)
C14 C -0.2364(7) 1.1111(6) -0.0648(6)
H14 H -0.1689 1.0917 -0.0605
C15 C -0.3845(7) 1.1903(6) -0.1034(6)
H15 H -0.4349 1.2345 -0.1317
C16 C -0.3928(7) 1.1221(7) -0.0417(6)
H16 H -0.4503 1.1106 -0.0183
C17 C -0.2731(6) 0.9973(6) 0.0515(5)
H17 H -0.2175 0.9586 0.0384
H18 H -0.3310 0.9538 0.0491
C18 C -0.2396(6) 1.0406(7) 0.1485(6)
C19 C -0.1316(6) 1.0075(6) 0.2947(5)
H19 H -0.1825 1.0365 0.3246
C20 C -0.0873(6) 0.9168(7) 0.3471(6)
H20 H -0.0415 0.8850 0.3144
H21 H -0.1424 0.8715 0.3492
C21 C -0.0283(7) 0.9402(7) 0.4463(6)
H22 H -0.0785 0.9660 0.4787
C22 C 0.0570(7) 1.0225(7) 0.4520(6)
C23 C 0.0066(7) 1.1088(6) 0.3902(6)
H23 H -0.0420 1.1404 0.4200
H24 H 0.0594 1.1564 0.3871
C24 C -0.0485(7) 1.0825(7) 0.2926(6)
H25 H -0.0001 1.0557 0.2597
H26 H -0.0790 1.1408 0.2601
C25 C 0.0909(7) 1.0578(7) 0.5499(6)
H27 H 0.0318 1.0716 0.5738
H28 H 0.1311 1.1162 0.5515
H29 H 0.1315 1.0080 0.5870
C26 C 0.0149(7) 0.8477(7) 0.4965(6)
H30 H -0.0382 0.7980 0.4868
H31 H 0.0355 0.8610 0.5623
C27 C 0.1063(7) 0.8088(7) 0.4638(7)
H32 H 0.1336 0.7520 0.5007
H33 H 0.0837 0.7877 0.3999
C28 C 0.1898(6) 0.8837(6) 0.4708(6)
H34 H 0.2158 0.9005 0.5362
C29 C 0.1477(7) 0.9774(8) 0.4179(6)
H35 H 0.1205 0.9582 0.3533
C30 C 0.2783(6) 0.8450(6) 0.4336(6)
H36 H 0.2512 0.8327 0.3675
C31 C 0.3681(6) 0.9188(7) 0.4415(5)
C32 C 0.3269(6) 1.0113(6) 0.3878(6)
H37 H 0.3812 1.0609 0.3984
C33 C 0.2329(8) 1.0536(8) 0.4179(7)
H38 H 0.2045 1.1068 0.3765
H39 H 0.2553 1.0807 0.4797
C34 C 0.4167(7) 0.9498(7) 0.5405(6)
H40 H 0.3641 0.9714 0.5702
H41 H 0.4641 1.0023 0.5400
H42 H 0.4524 0.8951 0.5739
C35 C 0.3309(7) 0.7510(7) 0.4748(6)
H43 H 0.2923 0.6940 0.4474
H44 H 0.3381 0.7493 0.5413
C36 C 0.4364(7) 0.7541(7) 0.4511(7)
H45 H 0.4903 0.7477 0.5071
H46 H 0.4426 0.7005 0.4099
C37 C 0.4461(6) 0.8522(7) 0.4042(6)
H47 H 0.4183 0.8433 0.3376
C38 C 0.5565(7) 0.8885(8) 0.4172(7)
H48 H 0.5825 0.9037 0.4830
C39 C 0.5663(7) 0.9794(9) 0.3632(8)
H49 H 0.5368 1.0338 0.3887
H50 H 0.5308 0.9703 0.2997
H51 H 0.6374 0.9923 0.3666
C40 C 0.6235(7) 0.8049(9) 0.3922(7)
H52 H 0.6931 0.8289 0.4002
H53 H 0.6252 0.7516 0.4358
C41 C 0.5876(7) 0.7636(8) 0.2932(7)
H54 H 0.5182 0.7391 0.2851
H55 H 0.5860 0.8167 0.2494
C42 C 0.6531(7) 0.6841(8) 0.2710(7)
C43 C 0.6563(8) 0.5232(9) 0.2101(8)
H56 H 0.7021 0.4951 0.2633
H57 H 0.6952 0.5475 0.1681
H58 H 0.6091 0.4740 0.1796
N1 N -0.2852(5) 1.1827(5) -0.1176(5)
N2 N -0.3018(5) 1.0713(5) -0.0183(5)
N3 N 0.2064(5) 1.2061(5) -0.0500(5)
N4 N 0.2618(6) 1.1083(5) 0.0655(6)
C44 C 0.0907(7) 0.8466(7) 0.8769(6)
H59 H 0.0464 0.8977 0.8929
Cl1 Cl 0.22039(17) 0.86967(18) 0.93993(16)
Cl2 Cl 0.0844(2) 0.85340(18) 0.75939(16)
Cl3 Cl 0.05033(17) 0.73347(16) 0.90987(15)
C45 C 0.6950(8) 0.8695(8) 0.7573(7)
H60 H 0.6571 0.8088 0.7610
Cl4 Cl 0.61208(19) 0.9709(2) 0.75884(19)
Cl5 Cl 0.7379(3) 0.8688(2) 0.65452(18)
Cl6 Cl 0.80039(18) 0.87578(18) 0.85367(16)
O7 O 0.5614(5) 0.2716(6) 0.1279(5)
O8 O 0.5172(10) 0.2423(12) 0.2908(10)
loop_
_geom_bond_atom_site_label_1
_geom_bond_atom_site_label_2
_geom_bond_site_symmetry_1
_geom_bond_site_symmetry_2
O1 C13 1_555 1_555
O2 C13 1_555 1_555
O3 C18 1_555 1_555
O4 C18 1_555 1_555
O5 C42 1_555 1_555
O6 C42 1_555 1_555
C1 H1 1_555 1_555
H2 C1 1_555 1_555
C2 C1 1_555 1_555
C3 C2 1_555 1_555
H3 C3 1_555 1_555
C4 C3 1_555 1_555
H4 C4 1_555 1_555
C5 C4 1_555 1_555
H5 C5 1_555 1_555
C6 C5 1_555 1_555
C7 C2 1_555 1_555
H6 C7 1_555 1_555
C8 C6 1_555 1_555
H7 C8 1_555 1_555
H8 C8 1_555 1_555
C9 H9 1_555 1_555
C10 H10 1_555 1_555
C11 C10 1_555 1_555
H11 C11 1_555 1_555
C12 H12 1_555 1_555
H13 C12 1_555 1_555
C13 C12 1_555 1_555
C14 H14 1_555 1_555
C15 H15 1_555 1_555
C16 C15 1_555 1_555
H16 C16 1_555 1_555
C17 H17 1_555 1_555
H18 C17 1_555 1_555
C18 C17 1_555 1_555
C19 O4 1_555 1_555
H19 C19 1_555 1_555
C20 C19 1_555 1_555
H20 C20 1_555 1_555
H21 C20 1_555 1_555
C21 C20 1_555 1_555
H22 C21 1_555 1_555
C22 C21 1_555 1_555
C23 C22 1_555 1_555
H23 C23 1_555 1_555
H24 C23 1_555 1_555
C24 C19 1_555 1_555
H25 C24 1_555 1_555
H26 C24 1_555 1_555
C25 C22 1_555 1_555
H27 C25 1_555 1_555
H28 C25 1_555 1_555
H29 C25 1_555 1_555
C26 C21 1_555 1_555
H30 C26 1_555 1_555
H31 C26 1_555 1_555
C27 C26 1_555 1_555
H32 C27 1_555 1_555
H33 C27 1_555 1_555
C28 C27 1_555 1_555
H34 C28 1_555 1_555
C29 C22 1_555 1_555
H35 C29 1_555 1_555
C30 C28 1_555 1_555
H36 C30 1_555 1_555
C31 C30 1_555 1_555
C32 O2 1_555 1_555
H37 C32 1_555 1_555
C33 C29 1_555 1_555
H38 C33 1_555 1_555
H39 C33 1_555 1_555
C34 C31 1_555 1_555
H40 C34 1_555 1_555
H41 C34 1_555 1_555
H42 C34 1_555 1_555
C35 C30 1_555 1_555
H43 C35 1_555 1_555
H44 C35 1_555 1_555
C36 C35 1_555 1_555
H45 C36 1_555 1_555
H46 C36 1_555 1_555
C37 C31 1_555 1_555
H47 C37 1_555 1_555
C38 C37 1_555 1_555
H48 C38 1_555 1_555
C39 C38 1_555 1_555
H49 C39 1_555 1_555
H50 C39 1_555 1_555
H51 C39 1_555 1_555
C40 C38 1_555 1_555
H52 C40 1_555 1_555
H53 C40 1_555 1_555
C41 C40 1_555 1_555
H54 C41 1_555 1_555
H55 C41 1_555 1_555
C42 C41 1_555 1_555
C43 O6 1_555 1_555
H56 C43 1_555 1_555
H57 C43 1_555 1_555
H58 C43 1_555 1_555
N1 C1 1_555 1_555
N2 C14 1_555 1_555
N3 C8 1_555 1_555
N4 C9 1_555 1_555
C44 H59 1_555 1_555
Cl1 C44 1_555 1_555
Cl2 C44 1_555 1_555
Cl3 C44 1_555 1_555
C45 H60 1_555 1_555
Cl4 C45 1_555 1_555
Cl5 C45 1_555 1_555
Cl6 C45 1_555 1_555
C6 C7 1_555 1_555
C9 N3 1_555 1_555
C10 N4 1_555 1_555
C11 N3 1_555 1_555
C12 N4 1_555 1_555
C14 N1 1_555 1_555
C15 N1 1_555 1_555
C16 N2 1_555 1_555
C17 N2 1_555 1_555
C23 C24 1_555 1_555
C28 C29 1_555 1_555
C31 C32 1_555 1_555
C32 C33 1_555 1_555
C36 C37 1_555 1_555

#END
