
#######################################################################
#
#                 Cambridge Crystallographic Data Centre
#                                CCDC 
#
#######################################################################
#
# If this CIF has been generated from an entry in the Cambridge 
# Structural Database, then it will include bibliographic, chemical, 
# crystal, experimental, refinement or atomic coordinate data resulting 
# from the CCDC's data processing and validation procedures.
#
#######################################################################

data_YEKVUG
_chemical_name_common            
"[3]-(6,6':7,7':10,10':11,11'-tetrakis(3,6-dioxaoctane-1,8-dioxy)bis(4b,8b-dimethyltribenzobicyclo[2.2.2]octane))-bis(dibenzylammonium)-pseudorotaxane bis(hexafluorophosphate) acetonitrile solvate"
_chemical_formula_moiety         
'C68 H76 O16,2(C14 H16 N1 1+),2(F6 P1 1-),2(C2 H3 N1)'
_chemical_name_systematic        
"[3]-(9,9',10,10'-Tetramethyl-2,2',3',3:6,6',7',7-di(24-crown-8)triptycene)-bis(dibenzylammonium)-pseudorotaxane bis(hexafluorophosphate) acetonitrile solvate"
_symmetry_cell_setting           monoclinic
_symmetry_space_group_name_H-M   'P 21/n'
_symmetry_Int_Tables_number      14
_space_group_name_Hall           '-P 2yn'
loop_
_symmetry_equiv_pos_site_id
_symmetry_equiv_pos_as_xyz
1 x,y,z
2 1/2-x,1/2+y,1/2-z
3 -x,-y,-z
4 1/2+x,1/2-y,1/2+z
_cell_length_a                   12.3934(15)
_cell_length_b                   22.795(3)
_cell_length_c                   17.545(2)
_cell_angle_alpha                90
_cell_angle_beta                 102.413(2)
_cell_angle_gamma                90
_cell_volume                     4840.73
_exptl_crystal_colour            colorless
_cell_formula_units_Z            2
loop_
_atom_site_label
_atom_site_type_symbol
_atom_site_fract_x
_atom_site_fract_y
_atom_site_fract_z
O1 O 0.6613(3) 0.65532(16) 0.7288(2)
O2 O 0.7757(4) 0.7124(3) 0.6152(4)
O3 O 0.6917(5) 0.7836(3) 0.4817(3)
O4 O 0.4818(3) 0.27671(16) 0.6246(2)
O5 O 0.4437(3) 0.64944(18) 0.7094(3)
O6 O 0.2753(3) 0.72740(18) 0.6379(2)
O7 O 0.1848(3) 0.73261(19) 0.4778(3)
O8 O 0.6947(3) 0.29023(16) 0.6403(2)
C1 C 0.6913(5) 0.4504(2) 0.8382(3)
C2 C 0.6313(5) 0.5061(2) 0.8032(3)
C3 C 0.6824(5) 0.5559(2) 0.7839(3)
H1 H 0.7590 0.5574 0.7920
C4 C 0.6186(5) 0.6042(2) 0.7521(3)
C5 C 0.5047(5) 0.6008(2) 0.7409(3)
C6 C 0.4538(5) 0.5506(2) 0.7591(3)
H2 H 0.3772 0.5489 0.7508
C7 C 0.5176(5) 0.5026(2) 0.7899(3)
C8 C 0.4733(5) 0.4430(2) 0.8113(3)
C9 C 0.5275(5) 0.3982(2) 0.7669(3)
C10 C 0.4726(5) 0.3561(2) 0.7162(3)
H3 H 0.3964 0.3521 0.7090
C11 C 0.5310(5) 0.3199(2) 0.6762(3)
C12 C 0.6452(4) 0.3267(2) 0.6853(3)
C13 C 0.7001(5) 0.3678(2) 0.7375(3)
H4 H 0.7763 0.3720 0.7446
C14 C 0.6418(5) 0.4026(2) 0.7790(3)
C15 C 0.6436(6) 0.4380(2) 0.9108(3)
C16 C 0.5299(6) 0.4342(2) 0.8970(3)
C17 C 0.4764(7) 0.4239(3) 0.9579(4)
H5 H 0.3999 0.4203 0.9480
C18 C 0.5377(10) 0.4191(3) 1.0326(4)
H6 H 0.5024 0.4127 1.0735
C19 C 0.6501(10) 0.4235(3) 1.0474(4)
H7 H 0.6902 0.4206 1.0986
C20 C 0.7057(7) 0.4323(3) 0.9874(4)
H8 H 0.7824 0.4344 0.9979
C21 C 0.8167(5) 0.4538(3) 0.8535(4)
H9 H 0.8422 0.4854 0.8891
H10 H 0.8392 0.4608 0.8052
H11 H 0.8478 0.4175 0.8758
C22 C 0.3488(5) 0.4391(3) 0.7956(4)
H12 H 0.3275 0.4008 0.8098
H13 H 0.3189 0.4457 0.7411
H14 H 0.3209 0.4682 0.8259
C23 C 0.7765(5) 0.6549(3) 0.7279(5)
H15 H 0.7926 0.6214 0.6981
H16 H 0.8193 0.6509 0.7809
C24 C 0.8091(7) 0.7093(4) 0.6932(6)
H17 H 0.7788 0.7425 0.7162
H18 H 0.8889 0.7126 0.7068
C25 C 0.8289(8) 0.7640(5) 0.5919(6)
H19 H 0.9084 0.7609 0.6092
H20 H 0.8045 0.7988 0.6152
C26 C 0.7988(9) 0.7682(4) 0.5066(6)
H21 H 0.8454 0.7972 0.4890
H22 H 0.8116 0.7307 0.4840
C27 C 0.6571(10) 0.7977(5) 0.4072(5)
H23 H 0.7198 0.8131 0.3887
H24 H 0.6042 0.8294 0.4042
C28 C 0.3929(7) 0.2471(4) 0.6462(4)
H25 H 0.4191 0.2295 0.6971
H26 H 0.3367 0.2757 0.6511
C29 C 0.3768(11) 0.6721(5) 0.7451(5)
H27 H 0.4214 0.6886 0.7925
H28 H 0.3363 0.6396 0.7613
C30 C 0.2971(6) 0.7150(4) 0.7156(4)
H29 H 0.2282 0.7031 0.7288
H30 H 0.3198 0.7512 0.7435
C31 C 0.1660(6) 0.7431(4) 0.6083(4)
H31 H 0.1426 0.7704 0.6440
H32 H 0.1198 0.7085 0.6051
C32 C 0.1501(6) 0.7703(4) 0.5307(4)
H33 H 0.0725 0.7796 0.5119
H34 H 0.1917 0.8066 0.5345
C33 C 0.1514(5) 0.7520(3) 0.3997(4)
H35 H 0.1852 0.7896 0.3933
H36 H 0.0718 0.7567 0.3860
C34 C 0.8129(5) 0.2928(3) 0.6519(4)
H37 H 0.8356 0.3316 0.6388
H38 H 0.8467 0.2849 0.7060
O1B O 0.3387(3) 0.34468(16) 0.2712(2)
O2B O 0.2243(4) 0.2876(3) 0.3848(4)
O3B O 0.3083(5) 0.2164(3) 0.5183(3)
O4B O 0.5182(3) 0.72329(16) 0.3754(2)
O5B O 0.5563(3) 0.35056(18) 0.2906(3)
O6B O 0.7247(3) 0.27260(18) 0.3621(2)
O7B O 0.8152(3) 0.26739(19) 0.5222(3)
O8B O 0.3053(3) 0.70977(16) 0.3597(2)
C1B C 0.3087(5) 0.5496(2) 0.1618(3)
C2B C 0.3687(5) 0.4939(2) 0.1968(3)
C3B C 0.3176(5) 0.4441(2) 0.2161(3)
H1B H 0.2410 0.4426 0.2080
C4B C 0.3814(5) 0.3958(2) 0.2479(3)
C5B C 0.4953(5) 0.3992(2) 0.2591(3)
C6B C 0.5462(5) 0.4494(2) 0.2409(3)
H2B H 0.6228 0.4511 0.2492
C7B C 0.4824(5) 0.4974(2) 0.2101(3)
C8B C 0.5267(5) 0.5570(2) 0.1887(3)
C9B C 0.4725(5) 0.6018(2) 0.2331(3)
C10B C 0.5274(5) 0.6439(2) 0.2838(3)
H3B H 0.6036 0.6479 0.2910
C11B C 0.4690(5) 0.6801(2) 0.3238(3)
C12B C 0.3548(4) 0.6733(2) 0.3147(3)
C13B C 0.2999(5) 0.6322(2) 0.2625(3)
H4B H 0.2237 0.6280 0.2554
C14B C 0.3582(5) 0.5974(2) 0.2210(3)
C15B C 0.3564(6) 0.5620(2) 0.0892(3)
C16B C 0.4701(6) 0.5658(2) 0.1030(3)
C17B C 0.5236(7) 0.5761(3) 0.0421(4)
H5B H 0.6001 0.5797 0.0520
C18B C 0.4623(10) 0.5809(3) -0.0326(4)
H6B H 0.4976 0.5873 -0.0735
C19B C 0.3499(10) 0.5765(3) -0.0474(4)
H7B H 0.3098 0.5794 -0.0986
C20B C 0.2943(7) 0.5677(3) 0.0126(4)
H8B H 0.2176 0.5656 0.0021
C21B C 0.1833(5) 0.5462(3) 0.1465(4)
H9B H 0.1578 0.5146 0.1109
H10B H 0.1608 0.5392 0.1948
H11B H 0.1522 0.5825 0.1242
C22B C 0.6512(5) 0.5609(3) 0.2044(4)
H12B H 0.6725 0.5992 0.1902
H13B H 0.6811 0.5543 0.2589
H14B H 0.6791 0.5318 0.1741
C23B C 0.2235(5) 0.3451(3) 0.2721(5)
H15B H 0.2074 0.3786 0.3019
H16B H 0.1807 0.3491 0.2191
C24B C 0.1909(7) 0.2907(4) 0.3068(6)
H17B H 0.2212 0.2575 0.2838
H18B H 0.1111 0.2874 0.2932
C25B C 0.1711(8) 0.2360(5) 0.4081(6)
H19B H 0.0916 0.2391 0.3908
H20B H 0.1955 0.2012 0.3848
C26B C 0.2012(9) 0.2318(4) 0.4934(6)
H21B H 0.1546 0.2028 0.5110
H22B H 0.1884 0.2693 0.5160
C27B C 0.3429(10) 0.2023(5) 0.5928(5)
H23B H 0.2802 0.1869 0.6113
H24B H 0.3958 0.1706 0.5958
C28B C 0.6071(7) 0.7529(4) 0.3538(4)
H25B H 0.5809 0.7705 0.3029
H26B H 0.6633 0.7243 0.3489
C29B C 0.6232(11) 0.3279(5) 0.2549(5)
H27B H 0.5786 0.3114 0.2075
H28B H 0.6637 0.3604 0.2387
C30B C 0.7029(6) 0.2850(4) 0.2844(4)
H29B H 0.7718 0.2969 0.2712
H30B H 0.6802 0.2488 0.2565
C31B C 0.8340(6) 0.2569(4) 0.3917(4)
H31B H 0.8574 0.2296 0.3560
H32B H 0.8802 0.2915 0.3949
C32B C 0.8499(6) 0.2297(4) 0.4693(4)
H33B H 0.9275 0.2204 0.4881
H34B H 0.8083 0.1934 0.4655
C33B C 0.8486(5) 0.2480(3) 0.6003(4)
H35B H 0.8148 0.2104 0.6067
H36B H 0.9282 0.2433 0.6140
C34B C 0.1871(5) 0.7072(3) 0.3481(4)
H37B H 0.1644 0.6684 0.3612
H38B H 0.1533 0.7151 0.2940
C35 C 0.5063(5) 0.7477(3) 0.5704(4)
H39 H 0.5691 0.7486 0.5456
H40 H 0.5334 0.7379 0.6250
C36 C 0.4547(5) 0.8073(3) 0.5648(4)
C37 C 0.4127(7) 0.8335(3) 0.4937(5)
H41 H 0.4162 0.8134 0.4482
C38 C 0.3663(9) 0.8881(4) 0.4885(7)
H42 H 0.3369 0.9045 0.4399
C39 C 0.3634(8) 0.9188(4) 0.5557(8)
H43 H 0.3335 0.9564 0.5523
C40 C 0.4043(7) 0.8944(4) 0.6272(6)
H44 H 0.4021 0.9150 0.6726
C41 C 0.4490(5) 0.8384(3) 0.6309(4)
H45 H 0.4759 0.8214 0.6795
C42 C 0.4835(5) 0.6425(3) 0.5347(4)
H46 H 0.5432 0.6454 0.5070
H47 H 0.5156 0.6321 0.5884
C43 C 0.4067(6) 0.5948(3) 0.4987(4)
C44 C 0.4352(9) 0.5602(3) 0.4410(4)
H48 H 0.5001 0.5677 0.4241
C45 C 0.3675(15) 0.5149(5) 0.4087(6)
H49 H 0.3862 0.4917 0.3699
C46 C 0.2741(14) 0.5042(7) 0.4337(12)
H50 H 0.2269 0.4746 0.4103
C47 C 0.2468(11) 0.5371(6) 0.4944(12)
H51 H 0.1836 0.5286 0.5128
C48 C 0.3150(8) 0.5815(4) 0.5256(7)
H52 H 0.2985 0.6033 0.5663
N1 N 0.4283(4) 0.7012(2) 0.5331(3)
H56 H 0.3996 0.7112 0.4833
H57 H 0.3723 0.6985 0.5582
C49 C 0.0866(16) 0.3670(9) 0.6067(10)
C50 C 0.069(3) 0.4059(7) 0.5410(13)
H53 H -0.0077 0.4043 0.5145
H54 H 0.1142 0.3942 0.5058
H55 H 0.0871 0.4452 0.5586
N2 N 0.1048(10) 0.3419(5) 0.6570(7)
P1 P 0.05998(18) 0.56058(10) 0.72055(17)
F1 F 0.0656(8) 0.4938(3) 0.7185(7)
F2 F -0.0237(7) 0.5604(4) 0.7692(7)
F3 F 0.1587(7) 0.5605(6) 0.7845(5)
F4 F 0.1393(8) 0.5593(4) 0.6654(6)
F5 F -0.0358(8) 0.5629(5) 0.6520(6)
F6 F 0.0595(8) 0.6263(3) 0.7239(6)
loop_
_geom_bond_atom_site_label_1
_geom_bond_atom_site_label_2
_geom_bond_site_symmetry_1
_geom_bond_site_symmetry_2
O1 C4 1_555 1_555
O2 C24 1_555 1_555
O3 C26 1_555 1_555
O4 C11 1_555 1_555
O5 C5 1_555 1_555
O6 C30 1_555 1_555
O7 C32 1_555 1_555
O8 C12 1_555 1_555
C1 C2 1_555 1_555
C2 C3 1_555 1_555
C3 H1 1_555 1_555
C4 C3 1_555 1_555
C5 C4 1_555 1_555
C6 C5 1_555 1_555
H2 C6 1_555 1_555
C7 C2 1_555 1_555
C8 C7 1_555 1_555
C9 C8 1_555 1_555
C10 C9 1_555 1_555
H3 C10 1_555 1_555
C11 C10 1_555 1_555
C12 C11 1_555 1_555
C13 C12 1_555 1_555
H4 C13 1_555 1_555
C14 C1 1_555 1_555
C15 C1 1_555 1_555
C16 C8 1_555 1_555
C17 C16 1_555 1_555
H5 C17 1_555 1_555
C18 C17 1_555 1_555
H6 C18 1_555 1_555
C19 C18 1_555 1_555
H7 C19 1_555 1_555
C20 C15 1_555 1_555
H8 C20 1_555 1_555
C21 C1 1_555 1_555
H9 C21 1_555 1_555
H10 C21 1_555 1_555
H11 C21 1_555 1_555
C22 C8 1_555 1_555
H12 C22 1_555 1_555
H13 C22 1_555 1_555
H14 C22 1_555 1_555
C23 O1 1_555 1_555
H15 C23 1_555 1_555
H16 C23 1_555 1_555
C24 C23 1_555 1_555
H17 C24 1_555 1_555
H18 C24 1_555 1_555
C25 O2 1_555 1_555
H19 C25 1_555 1_555
H20 C25 1_555 1_555
C26 C25 1_555 1_555
H21 C26 1_555 1_555
H22 C26 1_555 1_555
C27 O3 1_555 1_555
H23 C27 1_555 1_555
H24 C27 1_555 1_555
C28 O4 1_555 1_555
H25 C28 1_555 1_555
H26 C28 1_555 1_555
C29 O5 1_555 1_555
H27 C29 1_555 1_555
H28 C29 1_555 1_555
C30 C29 1_555 1_555
H29 C30 1_555 1_555
H30 C30 1_555 1_555
C31 O6 1_555 1_555
H31 C31 1_555 1_555
H32 C31 1_555 1_555
C32 C31 1_555 1_555
H33 C32 1_555 1_555
H34 C32 1_555 1_555
C33 O7 1_555 1_555
H35 C33 1_555 1_555
H36 C33 1_555 1_555
C34 O8 1_555 1_555
H37 C34 1_555 1_555
H38 C34 1_555 1_555
C35 H39 1_555 1_555
H40 C35 1_555 1_555
C36 C35 1_555 1_555
C37 C36 1_555 1_555
H41 C37 1_555 1_555
C38 C37 1_555 1_555
H42 C38 1_555 1_555
C39 C38 1_555 1_555
H43 C39 1_555 1_555
C40 C39 1_555 1_555
H44 C40 1_555 1_555
C41 C36 1_555 1_555
H45 C41 1_555 1_555
C42 H46 1_555 1_555
H47 C42 1_555 1_555
C43 C42 1_555 1_555
C44 C43 1_555 1_555
H48 C44 1_555 1_555
C45 C44 1_555 1_555
H49 C45 1_555 1_555
C46 C45 1_555 1_555
H50 C46 1_555 1_555
C47 C46 1_555 1_555
H51 C47 1_555 1_555
C48 C43 1_555 1_555
H52 C48 1_555 1_555
C49 C50 1_555 1_555
C50 H53 1_555 1_555
H54 C50 1_555 1_555
H55 C50 1_555 1_555
N1 C35 1_555 1_555
H56 N1 1_555 1_555
H57 N1 1_555 1_555
N2 C49 1_555 1_555
P1 F1 1_555 1_555
F2 P1 1_555 1_555
F3 P1 1_555 1_555
F4 P1 1_555 1_555
F5 P1 1_555 1_555
F6 P1 1_555 1_555
O1B C4B 1_555 1_555
O2B C24B 1_555 1_555
O3B C26B 1_555 1_555
O4B C11B 1_555 1_555
O5B C5B 1_555 1_555
O6B C30B 1_555 1_555
O7B C32B 1_555 1_555
O8B C12B 1_555 1_555
C1B C2B 1_555 1_555
C2B C3B 1_555 1_555
C3B H1B 1_555 1_555
C4B C3B 1_555 1_555
C5B C4B 1_555 1_555
C6B C5B 1_555 1_555
H2B C6B 1_555 1_555
C7B C2B 1_555 1_555
C8B C7B 1_555 1_555
C9B C8B 1_555 1_555
C10B C9B 1_555 1_555
H3B C10B 1_555 1_555
C11B C10B 1_555 1_555
C12B C11B 1_555 1_555
C13B C12B 1_555 1_555
H4B C13B 1_555 1_555
C14B C1B 1_555 1_555
C15B C1B 1_555 1_555
C16B C8B 1_555 1_555
C17B C16B 1_555 1_555
H5B C17B 1_555 1_555
C18B C17B 1_555 1_555
H6B C18B 1_555 1_555
C19B C18B 1_555 1_555
H7B C19B 1_555 1_555
C20B C15B 1_555 1_555
H8B C20B 1_555 1_555
C21B C1B 1_555 1_555
H9B C21B 1_555 1_555
H10B C21B 1_555 1_555
H11B C21B 1_555 1_555
C22B C8B 1_555 1_555
H12B C22B 1_555 1_555
H13B C22B 1_555 1_555
H14B C22B 1_555 1_555
C23B O1B 1_555 1_555
H15B C23B 1_555 1_555
H16B C23B 1_555 1_555
C24B C23B 1_555 1_555
H17B C24B 1_555 1_555
H18B C24B 1_555 1_555
C25B O2B 1_555 1_555
H19B C25B 1_555 1_555
H20B C25B 1_555 1_555
C26B C25B 1_555 1_555
H21B C26B 1_555 1_555
H22B C26B 1_555 1_555
C27B C28 1_555 1_555
H23B C27B 1_555 1_555
H24B C27B 1_555 1_555
C28B C27 1_555 1_555
H25B C28B 1_555 1_555
H26B C28B 1_555 1_555
C29B O5B 1_555 1_555
H27B C29B 1_555 1_555
H28B C29B 1_555 1_555
C30B C29B 1_555 1_555
H29B C30B 1_555 1_555
H30B C30B 1_555 1_555
C31B O6B 1_555 1_555
H31B C31B 1_555 1_555
H32B C31B 1_555 1_555
C32B C31B 1_555 1_555
H33B C32B 1_555 1_555
H34B C32B 1_555 1_555
C33B C34 1_555 1_555
H35B C33B 1_555 1_555
H36B C33B 1_555 1_555
C34B C33 1_555 1_555
H37B C34B 1_555 1_555
H38B C34B 1_555 1_555
C6 C7 1_555 1_555
C9 C14 1_555 1_555
C13 C14 1_555 1_555
C15 C16 1_555 1_555
C19 C20 1_555 1_555
C40 C41 1_555 1_555
C42 N1 1_555 1_555
C47 C48 1_555 1_555
O3B C27B 1_555 1_555
O4B C28B 1_555 1_555
O7B C33B 1_555 1_555
O8B C34B 1_555 1_555
C6B C7B 1_555 1_555
C9B C14B 1_555 1_555
C13B C14B 1_555 1_555
C15B C16B 1_555 1_555
C19B C20B 1_555 1_555

#END
