
#######################################################################
#
#                 Cambridge Crystallographic Data Centre
#                                CCDC 
#
#######################################################################
#
# If this CIF has been generated from an entry in the Cambridge 
# Structural Database, then it will include bibliographic, chemical, 
# crystal, experimental, refinement or atomic coordinate data resulting 
# from the CCDC's data processing and validation procedures.
#
#######################################################################

data_YEKYIY
_chemical_formula_moiety         'C24 H21 N1 O2'
_chemical_name_systematic        
(6-Hydroxy-1,4-diphenyl-1,4,5,6-tetrahydropyridin-3-yl)(phenyl)methanone
_symmetry_cell_setting           orthorhombic
_symmetry_space_group_name_H-M   'P 21 21 21'
_symmetry_Int_Tables_number      19
_space_group_name_Hall           'P 2ac 2ab'
loop_
_symmetry_equiv_pos_site_id
_symmetry_equiv_pos_as_xyz
1 x,y,z
2 1/2-x,-y,1/2+z
3 -x,1/2+y,1/2-z
4 1/2+x,1/2-y,-z
_cell_length_a                   9.6447(7)
_cell_length_b                   10.8414(8)
_cell_length_c                   18.1742(14)
_cell_angle_alpha                90
_cell_angle_beta                 90
_cell_angle_gamma                90
_cell_volume                     1900.33
_exptl_crystal_colour            colorless
_exptl_crystal_description       bulk
_cell_formula_units_Z            4
loop_
_atom_site_label
_atom_site_type_symbol
_atom_site_fract_x
_atom_site_fract_y
_atom_site_fract_z
O1 O 0.40638(11) 0.95323(10) -0.06632(6)
H1 H 0.477(2) 0.9101(17) -0.0827(10)
O2 O 0.12647(10) 0.69850(9) 0.10589(5)
N1 N 0.33017(12) 1.06802(10) 0.03343(6)
C1 C 0.44877(15) 1.00320(13) 0.00205(7)
H2 H 0.5255 1.0635 -0.0066
C2 C 0.49808(14) 0.90502(13) 0.05549(8)
H3 H 0.5307 0.9453 0.1012
H4 H 0.5775 0.8604 0.0336
C3 C 0.38335(14) 0.81196(13) 0.07466(7)
H5 H 0.3667 0.7581 0.0309
C4 C 0.25100(14) 0.88163(13) 0.09176(7)
C5 C 0.23554(15) 1.00224(13) 0.07233(7)
H6 H 0.1529 1.0431 0.0870
C6 C 0.13280(14) 0.81132(13) 0.11824(7)
C7 C 0.02024(14) 0.87159(13) 0.16196(7)
C8 C -0.11562(15) 0.82546(14) 0.15782(8)
H7 H -0.1363 0.7589 0.1257
C9 C -0.21944(16) 0.87690(15) 0.20054(8)
H8 H -0.3112 0.8454 0.1976
C10 C -0.19035(16) 0.97394(15) 0.24758(8)
H9 H -0.2625 1.0097 0.2761
C11 C -0.05627(16) 1.01916(15) 0.25320(8)
H10 H -0.0363 1.0849 0.2861
C12 C 0.04852(15) 0.96817(13) 0.21077(7)
H11 H 0.1404 0.9991 0.2149
C13 C 0.31678(14) 1.19667(12) 0.01962(8)
C14 C 0.27558(15) 1.27676(13) 0.07518(8)
H12 H 0.2492 1.2456 0.1220
C15 C 0.27335(16) 1.40326(13) 0.06156(8)
H13 H 0.2453 1.4585 0.0993
C16 C 0.31164(15) 1.44885(13) -0.00636(8)
H14 H 0.3116 1.5353 -0.0149
C17 C 0.34992(15) 1.36884(14) -0.06187(9)
H15 H 0.3747 1.4004 -0.1088
C18 C 0.35239(15) 1.24246(13) -0.04940(8)
H16 H 0.3782 1.1876 -0.0878
C19 C 0.43636(14) 0.73199(12) 0.13763(8)
C20 C 0.40547(14) 0.75807(13) 0.21104(8)
H17 H 0.3414 0.8219 0.2224
C21 C 0.46733(15) 0.69177(14) 0.26760(8)
H18 H 0.4462 0.7110 0.3173
C22 C 0.55981(16) 0.59769(14) 0.25170(8)
H19 H 0.6015 0.5521 0.2905
C23 C 0.59124(16) 0.57033(14) 0.17916(9)
H20 H 0.6548 0.5060 0.1680
C24 C 0.52950(16) 0.63725(14) 0.12274(8)
H21 H 0.5513 0.6179 0.0731
loop_
_geom_bond_atom_site_label_1
_geom_bond_atom_site_label_2
_geom_bond_site_symmetry_1
_geom_bond_site_symmetry_2
O1 H1 1_555 1_555
O2 C6 1_555 1_555
N1 C1 1_555 1_555
C1 O1 1_555 1_555
H2 C1 1_555 1_555
C2 C1 1_555 1_555
H3 C2 1_555 1_555
H4 C2 1_555 1_555
C3 C2 1_555 1_555
H5 C3 1_555 1_555
C4 C3 1_555 1_555
C5 N1 1_555 1_555
H6 C5 1_555 1_555
C6 C4 1_555 1_555
C7 C6 1_555 1_555
C8 C7 1_555 1_555
H7 C8 1_555 1_555
C9 C8 1_555 1_555
H8 C9 1_555 1_555
C10 C9 1_555 1_555
H9 C10 1_555 1_555
C11 C10 1_555 1_555
H10 C11 1_555 1_555
C12 C7 1_555 1_555
H11 C12 1_555 1_555
C13 N1 1_555 1_555
C14 C13 1_555 1_555
H12 C14 1_555 1_555
C15 C14 1_555 1_555
H13 C15 1_555 1_555
C16 C15 1_555 1_555
H14 C16 1_555 1_555
C17 C16 1_555 1_555
H15 C17 1_555 1_555
C18 C13 1_555 1_555
H16 C18 1_555 1_555
C19 C3 1_555 1_555
C20 C19 1_555 1_555
H17 C20 1_555 1_555
C21 C20 1_555 1_555
H18 C21 1_555 1_555
C22 C21 1_555 1_555
H19 C22 1_555 1_555
C23 C22 1_555 1_555
H20 C23 1_555 1_555
C24 C19 1_555 1_555
H21 C24 1_555 1_555
C4 C5 1_555 1_555
C11 C12 1_555 1_555
C17 C18 1_555 1_555
C23 C24 1_555 1_555

#END
