
#######################################################################
#
#                 Cambridge Crystallographic Data Centre
#                                CCDC 
#
#######################################################################
#
# If this CIF has been generated from an entry in the Cambridge 
# Structural Database, then it will include bibliographic, chemical, 
# crystal, experimental, refinement or atomic coordinate data resulting 
# from the CCDC's data processing and validation procedures.
#
#######################################################################

data_YEKYOD
_chemical_formula_moiety         'C15 H30 B9 N1'
_chemical_name_systematic        
7-(2,6-Diisopropyliminiomethyl)-10,11-\mH-7,8-dicarba-nido-undecaborate
_symmetry_cell_setting           monoclinic
_symmetry_space_group_name_H-M   'P 21/c'
_symmetry_Int_Tables_number      14
_space_group_name_Hall           '-P 2ybc'
loop_
_symmetry_equiv_pos_site_id
_symmetry_equiv_pos_as_xyz
1 x,y,z
2 -x,1/2+y,1/2-z
3 -x,-y,-z
4 x,1/2-y,1/2+z
_cell_length_a                   7.0813(12)
_cell_length_b                   10.5025(17)
_cell_length_c                   27.287(5)
_cell_angle_alpha                90
_cell_angle_beta                 96.513(3)
_cell_angle_gamma                90
_cell_volume                     2016.27
_exptl_crystal_colour            colorless
_exptl_crystal_description       prism
_cell_formula_units_Z            4
_chemical_properties_physical    moisture-sensitive
_exptl_crystal_recrystallization_method 'dry dichloromethane'
loop_
_atom_site_label
_atom_site_type_symbol
_atom_site_fract_x
_atom_site_fract_y
_atom_site_fract_z
N1 N 0.6594(9) 0.3854(4) 0.35929(18)
H1 H 0.7584 0.3646 0.3455
B1 B 1.0703(9) 0.6544(7) 0.4707(2)
B2 B 1.2273(8) 0.5608(6) 0.4378(2)
B3 B 1.0757(8) 0.4871(5) 0.3930(2)
B4 B 0.8251(9) 0.6977(7) 0.3829(3)
H2 H 0.6924 0.7405 0.3654
B5 B 0.9681(10) 0.7720(7) 0.4294(3)
H3 H 0.9314 0.8672 0.4422
B6 B 1.2015(9) 0.7249(6) 0.4265(3)
H4 H 1.3203 0.7901 0.4377
B7 B 1.2055(8) 0.6171(6) 0.3764(2)
H5 H 1.3245 0.6091 0.3540
B8 B 0.9699(9) 0.6012(6) 0.3495(3)
H6 H 0.9321 0.5814 0.3100
B9 B 1.0474(9) 0.7500(6) 0.3711(3)
H7 H 1.0651 0.8294 0.3457
C1 C 0.8663(7) 0.5404(5) 0.3978(2)
C2 C 0.8579(8) 0.6360(5) 0.4422(2)
C3 C 0.6785(11) 0.4738(5) 0.3900(2)
H8 H 0.5790 0.4976 0.4075
C4 C 0.4779(7) 0.3105(4) 0.3437(2)
C5 C 0.4168(7) 0.2200(4) 0.37570(19)
C6 C 0.2594(8) 0.1492(5) 0.3570(2)
H9 H 0.2109 0.0874 0.3765
C7 C 0.1747(8) 0.1695(6) 0.3099(2)
H10 H 0.0696 0.1209 0.2980
C8 C 0.2421(8) 0.2608(5) 0.2795(2)
H11 H 0.1818 0.2729 0.2478
C9 C 0.3973(7) 0.3332(4) 0.29605(19)
C10 C 0.5135(8) 0.1950(5) 0.4276(2)
H12 H 0.5750 0.2743 0.4397
C11 C 0.6661(11) 0.0962(7) 0.4262(3)
H13 H 0.6100 0.0174 0.4142
H14 H 0.7298 0.0839 0.4589
H15 H 0.7561 0.1242 0.4047
C12 C 0.3744(12) 0.1568(7) 0.4635(3)
H16 H 0.3252 0.0734 0.4552
H17 H 0.2716 0.2168 0.4616
H18 H 0.4386 0.1559 0.4965
C13 C 0.4786(8) 0.4290(5) 0.26231(19)
H19 H 0.5482 0.4932 0.2832
C14 C 0.3264(9) 0.4984(6) 0.2278(2)
H20 H 0.2696 0.4401 0.2034
H21 H 0.3838 0.5676 0.2119
H22 H 0.2304 0.5311 0.2466
C15 C 0.6213(9) 0.3631(6) 0.2323(2)
H23 H 0.7298 0.3358 0.2541
H24 H 0.6613 0.4217 0.2085
H25 H 0.5622 0.2905 0.2156
H26 H 1.0981 0.6725 0.5114
H27 H 1.3706 0.5156 0.4569
H28 H 1.0911 0.4018 0.3792
H29 H 0.7124 0.6292 0.4550
loop_
_geom_bond_atom_site_label_1
_geom_bond_atom_site_label_2
_geom_bond_site_symmetry_1
_geom_bond_site_symmetry_2
N1 H1 1_555 1_555
B1 B2 1_555 1_555
B2 B3 1_555 1_555
B3 B7 1_555 1_555
B4 H2 1_555 1_555
B5 B1 1_555 1_555
H3 B5 1_555 1_555
B6 B1 1_555 1_555
H4 B6 1_555 1_555
B7 B2 1_555 1_555
H5 B7 1_555 1_555
B8 B3 1_555 1_555
H6 B8 1_555 1_555
B9 B4 1_555 1_555
H7 B9 1_555 1_555
C1 B3 1_555 1_555
C2 B1 1_555 1_555
C3 N1 1_555 1_555
H8 C3 1_555 1_555
C4 N1 1_555 1_555
C5 C4 1_555 1_555
C6 C5 1_555 1_555
H9 C6 1_555 1_555
C7 C6 1_555 1_555
H10 C7 1_555 1_555
C8 C7 1_555 1_555
H11 C8 1_555 1_555
C9 C4 1_555 1_555
C10 C5 1_555 1_555
H12 C10 1_555 1_555
C11 C10 1_555 1_555
H13 C11 1_555 1_555
H14 C11 1_555 1_555
H15 C11 1_555 1_555
C12 C10 1_555 1_555
H16 C12 1_555 1_555
H17 C12 1_555 1_555
H18 C12 1_555 1_555
C13 C9 1_555 1_555
H19 C13 1_555 1_555
C14 C13 1_555 1_555
H20 C14 1_555 1_555
H21 C14 1_555 1_555
H22 C14 1_555 1_555
C15 C13 1_555 1_555
H23 C15 1_555 1_555
H24 C15 1_555 1_555
H25 C15 1_555 1_555
H26 B1 1_555 1_555
H27 B2 1_555 1_555
H28 B3 1_555 1_555
H29 C2 1_555 1_555
B2 B6 1_555 1_555
B4 B5 1_555 1_555
B4 B8 1_555 1_555
B4 C1 1_555 1_555
B4 C2 1_555 1_555
B5 B6 1_555 1_555
B5 B9 1_555 1_555
B5 C2 1_555 1_555
B6 B7 1_555 1_555
B6 B9 1_555 1_555
B7 B8 1_555 1_555
B7 B9 1_555 1_555
B8 B9 1_555 1_555
B8 C1 1_555 1_555
C1 C2 1_555 1_555
C1 C3 1_555 1_555
C8 C9 1_555 1_555

#END
