
#######################################################################
#
#                 Cambridge Crystallographic Data Centre
#                                CCDC 
#
#######################################################################
#
# If this CIF has been generated from an entry in the Cambridge 
# Structural Database, then it will include bibliographic, chemical, 
# crystal, experimental, refinement or atomic coordinate data resulting 
# from the CCDC's data processing and validation procedures.
#
#######################################################################

data_YEKYOE
_chemical_name_common            'disodium diatrizoate ethanol solvate hydrate'
_chemical_formula_moiety         
'C11 H7 I3 N2 O4 2-,C2 H6 O1,8.5(H2 O1),2(Na1 1+)'
_chemical_name_systematic        
'di-sodium 3,5-diacetamido-2,4,6-triiodobenzoate ethanol solvate hydrate'
_symmetry_cell_setting           tetragonal
_symmetry_space_group_name_H-M   'I -4'
_symmetry_Int_Tables_number      82
_space_group_name_Hall           'I -4'
loop_
_symmetry_equiv_pos_site_id
_symmetry_equiv_pos_as_xyz
1 x,y,z
2 y,-x,-z
3 -x,-y,z
4 -y,x,-z
5 1/2+x,1/2+y,1/2+z
6 1/2+y,1/2-x,1/2-z
7 1/2-x,1/2-y,1/2+z
8 1/2-y,1/2+x,1/2-z
_cell_length_a                   30.2764(12)
_cell_length_b                   30.2764(12)
_cell_length_c                   12.3234(5)
_cell_angle_alpha                90
_cell_angle_beta                 90
_cell_angle_gamma                90
_cell_volume                     11296.4
_exptl_crystal_colour            colorless
_exptl_crystal_description       prism
_cell_formula_units_Z            16
loop_
_atom_site_label
_atom_site_type_symbol
_atom_site_fract_x
_atom_site_fract_y
_atom_site_fract_z
I1 I 0.544928(10) 0.185511(10) 0.85688(3)
I2 I 0.586578(11) 0.380827(10) 0.86375(3)
O1 O 0.63193(10) 0.27257(11) 0.9108(3)
O2 O 0.57492(11) 0.27994(11) 1.0260(3)
C1 C 0.51229(14) 0.25523(15) 0.6975(4)
N1 N 0.48723(13) 0.21945(13) 0.6551(3)
H1 H 0.46099(13) 0.21360(13) 0.6822(3)
C2 C 0.53888(14) 0.24928(15) 0.7888(4)
C3 C 0.59202(15) 0.27836(16) 0.9325(4)
I3 I 0.474749(11) 0.305705(11) 0.50506(3)
C4 C 0.51074(14) 0.29664(16) 0.6491(4)
C5 C 0.56147(15) 0.28421(15) 0.8350(4)
O3 O 0.59152(11) 0.36220(11) 0.5457(3)
N2 N 0.52890(13) 0.37532(13) 0.6470(4)
C6 C 0.53303(15) 0.33325(15) 0.6931(4)
C7 C 0.55670(15) 0.32607(15) 0.7883(4)
C8 C 0.55887(16) 0.38726(16) 0.5780(4)
O4 O 0.54113(12) 0.20020(12) 0.5383(3)
C9 C 0.50337(17) 0.19432(17) 0.5733(4)
C10 C 0.55612(18) 0.43317(17) 0.5321(5)
H2 H 0.5331(9) 0.4498(4) 0.570(2)
H3 H 0.5846(4) 0.4481(5) 0.541(3)
H4 H 0.5488(12) 0.43160(17) 0.4547(8)
C11 C 0.47310(19) 0.15955(19) 0.5287(5)
H5 H 0.4888(5) 0.1313(4) 0.525(3)
H6 H 0.4473(7) 0.1566(10) 0.5761(19)
H7 H 0.4635(11) 0.1681(7) 0.4557(14)
I4 I 0.423765(10) 0.311776(10) 0.87138(3)
I5 I 0.512204(10) 0.194548(10) 1.20169(2)
I6 I 0.380767(11) 0.116207(10) 0.88900(3)
C12 C 0.46686(15) 0.30765(15) 1.1493(4)
O5 O 0.39837(11) 0.13200(11) 1.2093(3)
O6 O 0.33658(11) 0.22003(11) 0.8217(3)
O7 O 0.39566(11) 0.21712(11) 0.7127(3)
C13 C 0.37756(15) 0.21709(15) 0.8051(4)
C14 C 0.40769(15) 0.21265(15) 0.9021(4)
O8 O 0.42926(11) 0.30243(11) 1.1863(3)
N3 N 0.48350(13) 0.28131(13) 1.0714(3)
H8 H 0.50996(13) 0.28678(13) 1.0451(3)
C15 C 0.43067(16) 0.24892(16) 0.9439(4)
C16 C 0.45897(15) 0.24468(15) 1.0309(4)
N4 N 0.45292(13) 0.12329(13) 1.0802(3)
C17 C 0.42977(15) 0.11040(15) 1.1635(4)
C18 C 0.49743(18) 0.34364(18) 1.1875(5)
H9 H 0.5101(10) 0.3354(6) 1.2579(16)
H10 H 0.5212(8) 0.3477(9) 1.1345(16)
H11 H 0.4809(3) 0.3713(4) 1.195(3)
C19 C 0.46550(15) 0.20339(16) 1.0773(4)
C20 C 0.44297(15) 0.16579(15) 1.0385(4)
C21 C 0.41409(15) 0.17146(15) 0.9510(4)
C22 C 0.44100(18) 0.06526(17) 1.2098(5)
H12 H 0.4667(8) 0.0532(6) 1.172(2)
H13 H 0.4478(12) 0.0681(2) 1.2872(8)
H14 H 0.4157(5) 0.0454(4) 1.201(3)
Na1 Na 0.63433(6) 0.23815(6) 1.31784(16)
Na2 Na 0.68225(6) 0.22613(6) 0.99774(17)
Na3 Na 0.68181(7) 0.29317(7) 0.76331(17)
O9 O 0.58492(11) 0.18080(11) 1.3520(3)
H15 H 0.5747(11) 0.1831(8) 1.4188(12)
H16 H 0.5983(4) 0.15510(11) 1.345(3)
O10 O 0.71927(12) 0.33914(12) 0.8936(3)
H17 H 0.74823(13) 0.3360(11) 0.888(2)
H18 H 0.7125(12) 0.36720(18) 0.882(2)
O11 O 0.66827(13) 0.24407(12) 0.6156(3)
H19 H 0.6711(14) 0.21390(13) 0.6334(9)
H20 H 0.6395(5) 0.2472(10) 0.589(2)
O12 O 0.68880(11) 0.14799(11) 0.9738(3)
H21 H 0.6900(14) 0.14193(16) 0.9049(3)
H22 H 0.6658(7) 0.13511(15) 1.002(3)
O13 O 0.61429(11) 0.12416(12) 1.0838(3)
H23 H 0.5877(7) 0.1201(17) 1.059(4)
H24 H 0.6172(15) 0.1104(17) 1.146(2)
O14 O 0.72076(12) 0.23217(12) 0.8330(3)
H25 H 0.739(4) 0.248(3) 0.798(9)
H26 H 0.723(2) 0.2069(11) 0.802(5)
O15 O 0.59814(11) 0.26957(12) 1.4913(3)
H27 H 0.5737(8) 0.2550(10) 1.505(2)
H28 H 0.5917(14) 0.2977(4) 1.4815(13)
O16 O 0.67250(11) 0.36178(11) 0.6579(3)
H29 H 0.6458(5) 0.3625(7) 0.632(3)
H30 H 0.6765(14) 0.38437(11) 0.7004(8)
O17 O 0.62922(11) 0.30423(11) 1.2073(3)
H31 H 0.6242(14) 0.3280(2) 1.2485(4)
H32 H 0.6071(9) 0.3018(6) 1.160(2)
O18 O 0.70878(12) 0.29234(12) 1.0953(3)
H33 H 0.6893(7) 0.3000(9) 1.144(3)
H34 H 0.7125(15) 0.3141(5) 1.0495(6)
O19 O 0.68831(12) 0.17545(12) 1.3428(3)
H35 H 0.6705(3) 0.15211(15) 1.340(4)
H36 H 0.6854(5) 0.2054(3) 1.356(3)
O20 O 0.69508(12) 0.27199(12) 1.4077(3)
H37 H 0.7119(8) 0.2856(13) 1.3591(6)
H38 H 0.7112(9) 0.2517(2) 1.441(3)
O21 O 0.53362(12) 0.09678(12) 1.0068(4)
H39 H 0.5094(3) 0.1071(10) 1.028(5)
C23 C 0.5264(3) 0.0560(2) 0.9546(7)
H40 H 0.5377(3) 0.0319(2) 1.0012(7)
H41 H 0.4943(3) 0.0515(2) 0.9449(7)
C24 C 0.5481(3) 0.0539(3) 0.8492(7)
H42 H 0.5770(8) 0.0683(16) 0.8535(13)
H43 H 0.5520(17) 0.0229(3) 0.828(2)
H44 H 0.5298(9) 0.0689(16) 0.7949(11)
O22 O 0.73771(12) 0.20335(12) 1.1577(3)
H45 H 0.74809(12) 0.22984(12) 1.1488(3)
H46 H 0.71289(12) 0.20093(12) 1.1942(3)
O23 O 0.72356(13) 0.09672(13) 1.1971(3)
H47 H 0.7434(2) 0.0811(13) 1.231(3)
H48 H 0.7045(12) 0.0791(12) 1.1666(6)
O24 O 0.59449(15) 0.45286(12) 1.2672(4)
H49 H 0.6048(10) 0.4759(5) 1.296(5)
C25 C 0.5541(4) 0.4538(4) 1.1074(8)
H50 H 0.576(2) 0.473(2) 1.0731(14)
H51 H 0.562(3) 0.4228(8) 1.0956(9)
H52 H 0.5251(9) 0.460(3) 1.0754(15)
C26 C 0.5527(3) 0.4625(3) 1.2190(8)
H53 H 0.5295(3) 0.4442(3) 1.2534(8)
H54 H 0.5452(3) 0.4939(3) 1.2312(8)
Na4 Na 0.75685(6) 0.13856(6) 1.06858(16)
O25 O 0.62308(12) 0.37527(12) 1.3437(3)
H55 H 0.6132(18) 0.3677(15) 1.407(2)
H56 H 0.6142(18) 0.4019(8) 1.329(4)
O26 O 0.79085(12) 0.13954(12) 0.8998(3)
H57 H 0.8168(7) 0.1261(13) 0.9036(9)
H58 H 0.7952(13) 0.16708(12) 0.8778(16)
O27 O 0.62766(11) 0.21279(11) 1.1283(3)
H59 H 0.60845(11) 0.23021(11) 1.1047(3)
H60 H 0.61374(11) 0.18441(11) 1.1281(3)
loop_
_geom_bond_atom_site_label_1
_geom_bond_atom_site_label_2
_geom_bond_site_symmetry_1
_geom_bond_site_symmetry_2
I1 C2 1_555 1_555
I2 C7 1_555 1_555
O1 C3 1_555 1_555
O2 C3 1_555 1_555
C1 N1 1_555 1_555
N1 H1 1_555 1_555
C2 C1 1_555 1_555
C3 C5 1_555 1_555
I3 C4 1_555 1_555
C4 C1 1_555 1_555
C5 C2 1_555 1_555
O3 C8 1_555 1_555
N2 C6 1_555 1_555
C6 C4 1_555 1_555
C7 C5 1_555 1_555
C8 N2 1_555 1_555
O4 C9 1_555 1_555
C9 N1 1_555 1_555
C10 C8 1_555 1_555
H2 C10 1_555 1_555
H3 C10 1_555 1_555
H4 C10 1_555 1_555
C11 C9 1_555 1_555
H5 C11 1_555 1_555
H6 C11 1_555 1_555
H7 C11 1_555 1_555
I4 C15 1_555 1_555
I5 C19 1_555 1_555
I6 C21 1_555 1_555
C12 O8 1_555 1_555
O5 C17 1_555 1_555
O6 C13 1_555 1_555
O7 C13 1_555 1_555
C13 C14 1_555 1_555
C14 C15 1_555 1_555
N3 C12 1_555 1_555
H8 N3 1_555 1_555
C15 C16 1_555 1_555
C16 N3 1_555 1_555
N4 C17 1_555 1_555
C17 C22 1_555 1_555
C18 C12 1_555 1_555
H9 C18 1_555 1_555
H10 C18 1_555 1_555
H11 C18 1_555 1_555
C19 C16 1_555 1_555
C20 N4 1_555 1_555
C21 C14 1_555 1_555
C22 H12 1_555 1_555
H13 C22 1_555 1_555
H14 C22 1_555 1_555
O9 H15 1_555 1_555
H16 O9 1_555 1_555
O10 H17 1_555 1_555
H18 O10 1_555 1_555
O11 H19 1_555 1_555
H20 O11 1_555 1_555
O12 H21 1_555 1_555
H22 O12 1_555 1_555
O13 H23 1_555 1_555
H24 O13 1_555 1_555
O14 H25 1_555 1_555
H26 O14 1_555 1_555
O15 H27 1_555 1_555
H28 O15 1_555 1_555
O16 H29 1_555 1_555
H30 O16 1_555 1_555
O17 H31 1_555 1_555
H32 O17 1_555 1_555
O18 H33 1_555 1_555
H34 O18 1_555 1_555
O19 H35 1_555 1_555
H36 O19 1_555 1_555
O20 H37 1_555 1_555
H38 O20 1_555 1_555
O21 H39 1_555 1_555
C23 O21 1_555 1_555
H40 C23 1_555 1_555
H41 C23 1_555 1_555
C24 C23 1_555 1_555
H42 C24 1_555 1_555
H43 C24 1_555 1_555
H44 C24 1_555 1_555
O22 H45 1_555 1_555
H46 O22 1_555 1_555
O23 H47 1_555 1_555
H48 O23 1_555 1_555
O24 H49 1_555 1_555
C25 H50 1_555 1_555
H51 C25 1_555 1_555
H52 C25 1_555 1_555
C26 O24 1_555 1_555
H53 C26 1_555 1_555
H54 C26 1_555 1_555
O25 H55 1_555 1_555
H56 O25 1_555 1_555
O26 H57 1_555 1_555
H58 O26 1_555 1_555
O27 H59 1_555 1_555
H60 O27 1_555 1_555
C6 C7 1_555 1_555
C19 C20 1_555 1_555
C20 C21 1_555 1_555
C25 C26 1_555 1_555

#END
