
#######################################################################
#
#                 Cambridge Crystallographic Data Centre
#                                CCDC 
#
#######################################################################
#
# If this CIF has been generated from an entry in the Cambridge 
# Structural Database, then it will include bibliographic, chemical, 
# crystal, experimental, refinement or atomic coordinate data resulting 
# from the CCDC's data processing and validation procedures.
#
#######################################################################

data_YEKZEW
_chemical_formula_moiety         'C52 H40 N2 O2,C1 H2 Cl2'
_chemical_name_systematic        
"2,7-di-t-butyl-9,20-diphenyldibenzo[10',11':6',7']tetraceno[2',3':5,6][1,4]dioxino[2,3-b]quinoxaline dichloromethane solvate"
_symmetry_cell_setting           monoclinic
_symmetry_space_group_name_H-M   'P 21/c'
_symmetry_Int_Tables_number      14
_space_group_name_Hall           '-P 2ybc'
loop_
_symmetry_equiv_pos_site_id
_symmetry_equiv_pos_as_xyz
1 x,y,z
2 -x,1/2+y,1/2-z
3 -x,-y,-z
4 x,1/2-y,1/2+z
_cell_length_a                   15.0344(14)
_cell_length_b                   30.274(3)
_cell_length_c                   9.7905(9)
_cell_angle_alpha                90
_cell_angle_beta                 106.672(2)
_cell_angle_gamma                90
_cell_volume                     4268.84
_cell_formula_units_Z            4
loop_
_atom_site_label
_atom_site_type_symbol
_atom_site_fract_x
_atom_site_fract_y
_atom_site_fract_z
Cl1 Cl 0.839(2) 0.4702(8) 0.7786(17)
Cl2 Cl 0.896(2) 0.5142(8) 0.557(4)
C1 C 0.8031(9) 0.4996(5) 0.6163(16)
H1 H 0.7607 0.4814 0.5449
H2 H 0.7700 0.5260 0.6296
N1 N 0.3945(6) 0.5661(3) -0.4814(8)
N2 N 0.5885(6) 0.5625(3) -0.4219(8)
O1 O 0.3948(4) 0.5103(2) -0.3298(6)
O2 O 0.5934(4) 0.5069(2) -0.2676(6)
C2 C 0.4390(9) 0.5955(3) -0.5476(10)
C3 C 0.5370(9) 0.5940(3) -0.5160(10)
C4 C 0.5860(8) 0.6242(3) -0.5784(10)
H5 H 0.6502 0.6228 -0.5581
C5 C 0.5359(9) 0.6556(3) -0.6697(10)
H6 H 0.5664 0.6757 -0.7122
C6 C 0.4376(10) 0.6576(3) -0.6999(10)
H7 H 0.4047 0.6793 -0.7610
C7 C 0.3900(8) 0.6276(3) -0.6394(10)
H8 H 0.3257 0.6291 -0.6604
C8 C 0.4452(8) 0.5385(3) -0.3902(10)
C9 C 0.5416(8) 0.5368(3) -0.3634(10)
C10 C 0.4495(7) 0.4818(3) -0.2233(10)
C11 C 0.5470(7) 0.4807(3) -0.1911(9)
C12 C 0.5981(6) 0.4536(3) -0.0879(9)
H9 H 0.6623 0.4531 -0.0689
C13 C 0.5543(7) 0.4257(3) -0.0075(9)
C14 C 0.6082(7) 0.3977(3) 0.1029(9)
C15 C 0.5623(7) 0.3711(3) 0.1793(9)
C16 C 0.6145(7) 0.3392(3) 0.2962(10)
C17 C 0.5677(8) 0.3048(3) 0.3408(10)
C18 C 0.4688(9) 0.3051(3) 0.3020(10)
C19 C 0.4134(8) 0.3387(3) 0.2186(10)
C20 C 0.4609(7) 0.3703(3) 0.1431(9)
C21 C 0.4082(7) 0.3976(3) 0.0313(10)
C22 C 0.4544(7) 0.4266(3) -0.0399(9)
C23 C 0.4062(7) 0.4560(3) -0.1520(10)
H10 H 0.3417 0.4571 -0.1761
C24 C 0.7101(8) 0.3440(3) 0.3593(10)
H11 H 0.7401 0.3684 0.3351
C25 C 0.7633(8) 0.3126(4) 0.4602(11)
C26 C 0.7164(9) 0.2785(4) 0.4957(11)
H12 H 0.7496 0.2574 0.5591
C27 C 0.6204(10) 0.2735(4) 0.4416(11)
C28 C 0.5697(10) 0.2400(3) 0.4927(11)
H13 H 0.6028 0.2183 0.5535
C29 C 0.4782(10) 0.2391(3) 0.4566(11)
H14 H 0.4491 0.2163 0.4912
C30 C 0.4205(10) 0.2728(3) 0.3631(11)
C31 C 0.3278(10) 0.2746(4) 0.3451(11)
H15 H 0.2990 0.2522 0.3818
C32 C 0.2748(9) 0.3101(4) 0.2709(11)
C33 C 0.3194(8) 0.3401(3) 0.2111(10)
H16 H 0.2846 0.3634 0.1613
C34 C 0.7097(7) 0.3980(3) 0.1164(10)
C35 C 0.7484(8) 0.3655(4) 0.0494(10)
H17 H 0.7137 0.3412 0.0067
C36 C 0.8408(9) 0.3706(4) 0.0481(11)
H18 H 0.8675 0.3493 0.0038
C37 C 0.8931(8) 0.4066(5) 0.1113(12)
H19 H 0.9535 0.4092 0.1053
C38 C 0.8588(9) 0.4391(4) 0.1837(13)
H20 H 0.8945 0.4628 0.2290
C39 C 0.7678(8) 0.4331(3) 0.1828(10)
H21 H 0.7424 0.4541 0.2300
C40 C 0.3036(8) 0.3985(3) -0.0306(11)
C41 C 0.2611(8) 0.3693(3) -0.1399(11)
H22 H 0.2957 0.3467 -0.1644
C42 C 0.1683(9) 0.3736(4) -0.2120(12)
H23 H 0.1417 0.3544 -0.2864
C43 C 0.1142(9) 0.4057(4) -0.1767(14)
H24 H 0.0512 0.4076 -0.2249
C44 C 0.1547(9) 0.4352(4) -0.0681(13)
H25 H 0.1196 0.4572 -0.0422
C45 C 0.2505(8) 0.4310(3) 0.0022(11)
H26 H 0.2782 0.4511 0.0734
C46 C 0.8658(9) 0.3202(4) 0.5292(13)
C47 C 0.9078(9) 0.3607(5) 0.4867(14)
H27 H 0.9738 0.3568 0.5078
H28 H 0.8951 0.3856 0.5387
H29 H 0.8817 0.3657 0.3863
C48 C 0.8865(8) 0.3215(4) 0.6871(13)
H30 H 0.9524 0.3201 0.7298
H31 H 0.8575 0.2967 0.7184
H32 H 0.8628 0.3484 0.7149
C49 C 0.9151(10) 0.2807(5) 0.4944(16)
H33 H 0.9796 0.2820 0.5474
H34 H 0.9094 0.2804 0.3942
H35 H 0.8880 0.2543 0.5194
C50 C 0.1695(10) 0.3154(5) 0.2579(15)
C51 C 0.1299(10) 0.2774(5) 0.3260(16)
H36 H 0.1499 0.2805 0.4279
H37 H 0.1518 0.2497 0.2999
H38 H 0.0633 0.2781 0.2929
C52 C 0.1132(9) 0.3170(4) 0.1034(15)
H39 H 0.0483 0.3170 0.0970
H40 H 0.1272 0.2915 0.0547
H41 H 0.1283 0.3433 0.0601
C53 C 0.1512(9) 0.3578(5) 0.3200(15)
H42 H 0.0854 0.3622 0.2991
H43 H 0.1777 0.3816 0.2796
H44 H 0.1787 0.3573 0.4214
Cl3? Cl 0.891(3) 0.4888(12) 0.767(3)
Cl4? Cl 0.844(3) 0.5272(9) 0.487(3)
H3? H 0.7550 0.5169 0.6393
H4? H 0.7761 0.4716 0.5773
loop_
_geom_bond_atom_site_label_1
_geom_bond_atom_site_label_2
_geom_bond_site_symmetry_1
_geom_bond_site_symmetry_2
Cl1 C1 1_555 1_555
Cl2 C1 1_555 1_555
C1 H1 1_555 1_555
H2 C1 1_555 1_555
N1 C2 1_555 1_555
N2 C3 1_555 1_555
O1 C8 1_555 1_555
O2 C9 1_555 1_555
C2 C3 1_555 1_555
C3 C4 1_555 1_555
C4 H5 1_555 1_555
C5 C4 1_555 1_555
H6 C5 1_555 1_555
C6 C5 1_555 1_555
H7 C6 1_555 1_555
C7 C2 1_555 1_555
H8 C7 1_555 1_555
C8 N1 1_555 1_555
C9 N2 1_555 1_555
C10 O1 1_555 1_555
C11 O2 1_555 1_555
C12 C11 1_555 1_555
H9 C12 1_555 1_555
C13 C12 1_555 1_555
C14 C13 1_555 1_555
C15 C14 1_555 1_555
C16 C15 1_555 1_555
C17 C16 1_555 1_555
C18 C17 1_555 1_555
C19 C18 1_555 1_555
C20 C15 1_555 1_555
C21 C20 1_555 1_555
C22 C13 1_555 1_555
C23 C10 1_555 1_555
H10 C23 1_555 1_555
C24 C16 1_555 1_555
H11 C24 1_555 1_555
C25 C24 1_555 1_555
C26 C25 1_555 1_555
H12 C26 1_555 1_555
C27 C17 1_555 1_555
C28 C27 1_555 1_555
H13 C28 1_555 1_555
C29 C28 1_555 1_555
H14 C29 1_555 1_555
C30 C18 1_555 1_555
C31 C30 1_555 1_555
H15 C31 1_555 1_555
C32 C31 1_555 1_555
C33 C19 1_555 1_555
H16 C33 1_555 1_555
C34 C14 1_555 1_555
C35 C34 1_555 1_555
H17 C35 1_555 1_555
C36 C35 1_555 1_555
H18 C36 1_555 1_555
C37 C36 1_555 1_555
H19 C37 1_555 1_555
C38 C37 1_555 1_555
H20 C38 1_555 1_555
C39 C34 1_555 1_555
H21 C39 1_555 1_555
C40 C21 1_555 1_555
C41 C40 1_555 1_555
H22 C41 1_555 1_555
C42 C41 1_555 1_555
H23 C42 1_555 1_555
C43 C42 1_555 1_555
H24 C43 1_555 1_555
C44 C43 1_555 1_555
H25 C44 1_555 1_555
C45 C40 1_555 1_555
H26 C45 1_555 1_555
C46 C25 1_555 1_555
C47 C46 1_555 1_555
H27 C47 1_555 1_555
H28 C47 1_555 1_555
H29 C47 1_555 1_555
C48 C46 1_555 1_555
H30 C48 1_555 1_555
H31 C48 1_555 1_555
H32 C48 1_555 1_555
C49 C46 1_555 1_555
H33 C49 1_555 1_555
H34 C49 1_555 1_555
H35 C49 1_555 1_555
C50 C32 1_555 1_555
C51 C50 1_555 1_555
H36 C51 1_555 1_555
H37 C51 1_555 1_555
H38 C51 1_555 1_555
C52 C50 1_555 1_555
H39 C52 1_555 1_555
H40 C52 1_555 1_555
H41 C52 1_555 1_555
C53 C50 1_555 1_555
H42 C53 1_555 1_555
H43 C53 1_555 1_555
H44 C53 1_555 1_555
C6 C7 1_555 1_555
C8 C9 1_555 1_555
C10 C11 1_555 1_555
C19 C20 1_555 1_555
C21 C22 1_555 1_555
C22 C23 1_555 1_555
C26 C27 1_555 1_555
C29 C30 1_555 1_555
C32 C33 1_555 1_555
C38 C39 1_555 1_555
C44 C45 1_555 1_555

#END
