
#######################################################################
#
#                 Cambridge Crystallographic Data Centre
#                                CCDC 
#
#######################################################################
#
# If this CIF has been generated from an entry in the Cambridge 
# Structural Database, then it will include bibliographic, chemical, 
# crystal, experimental, refinement or atomic coordinate data resulting 
# from the CCDC's data processing and validation procedures.
#
#######################################################################

data_YELBID
_chemical_formula_moiety         'C19 H17 F1 N2 O4'
_chemical_name_systematic        
2-(1,3-dioxo-1,3-dihydro-2H-isoindol-2-yl)-3-(4-fluorophenyl)-N-methoxy-2-methylpropanamide
_symmetry_cell_setting           monoclinic
_symmetry_space_group_name_H-M   'P 21'
_symmetry_Int_Tables_number      4
_space_group_name_Hall           'P 2yb'
loop_
_symmetry_equiv_pos_site_id
_symmetry_equiv_pos_as_xyz
1 x,y,z
2 -x,1/2+y,-z
_cell_length_a                   10.2299(6)
_cell_length_b                   16.3587(9)
_cell_length_c                   20.6163(11)
_cell_angle_alpha                90
_cell_angle_beta                 91.975(3)
_cell_angle_gamma                90
_cell_volume                     3448.04
_exptl_crystal_colour            colorless
_exptl_crystal_description       block
_cell_formula_units_Z            8
loop_
_atom_site_label
_atom_site_type_symbol
_atom_site_fract_x
_atom_site_fract_y
_atom_site_fract_z
F1 F 0.59414(16) 0.61787(11) 0.87622(7)
O1 O 0.89923(18) 0.58758(11) 0.68586(9)
O2 O 1.07184(16) 0.84637(10) 0.68490(8)
O3 O 0.87631(16) 0.88152(10) 0.56288(8)
O4 O 1.09287(17) 0.82614(11) 0.50373(8)
N1 N 0.96337(18) 0.72344(11) 0.67037(9)
N2 N 1.0231(2) 0.77955(13) 0.54730(9)
H1 H 1.0448 0.7284 0.5554
C1 C 0.9690(2) 0.64496(14) 0.69904(11)
C2 C 1.0784(2) 0.64833(15) 0.74871(11)
C3 C 1.1213(2) 0.58894(16) 0.79186(12)
H2 H 1.0832 0.5360 0.7922
C4 C 1.2236(3) 0.61061(17) 0.83517(12)
H3 H 1.2555 0.5717 0.8661
C5 C 1.2792(2) 0.68743(17) 0.83384(12)
H4 H 1.3489 0.7002 0.8638
C6 C 1.2359(2) 0.74639(16) 0.78990(12)
H5 H 1.2753 0.7989 0.7887
C7 C 1.1328(2) 0.72563(14) 0.74788(10)
C8 C 1.0587(2) 0.77472(14) 0.69878(10)
C9 C 0.8597(2) 0.75707(14) 0.62639(11)
C10 C 0.7624(2) 0.80723(15) 0.66657(11)
H6 H 0.8065 0.8574 0.6829
H7 H 0.6874 0.8240 0.6380
C11 C 0.7125(2) 0.75966(15) 0.72327(11)
C12 C 0.6071(2) 0.70632(16) 0.71597(12)
H8 H 0.5611 0.7032 0.6752
C13 C 0.5675(2) 0.65735(17) 0.76688(12)
H9 H 0.4969 0.6200 0.7611
C14 C 0.6337(3) 0.66470(17) 0.82594(12)
C15 C 0.7365(2) 0.71805(17) 0.83618(12)
H10 H 0.7796 0.7224 0.8776
C16 C 0.7755(2) 0.76526(16) 0.78449(11)
H11 H 0.8464 0.8022 0.7907
C17 C 0.7908(2) 0.68965(15) 0.58649(11)
H12 H 0.8563 0.6551 0.5663
H13 H 0.7341 0.7145 0.5526
H14 H 0.7378 0.6562 0.6150
C18 C 0.9233(2) 0.81383(14) 0.57633(10)
C19 C 1.1247(3) 0.7770(2) 0.45028(13)
H15 H 1.1735 0.7288 0.4657
H16 H 1.1786 0.8085 0.4209
H17 H 1.0442 0.7595 0.4271
F2 F 0.38375(17) 0.16021(11) 0.63391(7)
O5 O 0.22892(17) 0.41211(11) 0.80782(8)
O6 O 0.18719(17) 0.22846(10) 0.97363(8)
O7 O -0.12890(15) 0.23588(10) 0.93475(8)
O8 O -0.10118(15) 0.35436(10) 1.02611(7)
N3 N 0.17105(17) 0.31855(11) 0.88722(9)
N4 N -0.03079(18) 0.35247(12) 0.96956(9)
H18 H 0.0241 0.3921 0.9610
C20 C 0.2558(2) 0.37111(14) 0.85500(11)
C21 C 0.3846(2) 0.36438(15) 0.89103(12)
C22 C 0.5013(3) 0.40465(18) 0.88141(14)
H19 H 0.5098 0.4445 0.8483
C23 C 0.6070(2) 0.3830(2) 0.92389(16)
H20 H 0.6896 0.4080 0.9183
C24 C 0.5948(3) 0.32712(18) 0.97286(16)
H21 H 0.6683 0.3148 1.0005
C25 C 0.4766(2) 0.28833(17) 0.98256(14)
H22 H 0.4670 0.2498 1.0165
C26 C 0.3732(2) 0.30836(15) 0.94034(12)
C27 C 0.2371(2) 0.27789(14) 0.93864(11)
C28 C 0.0356(2) 0.29567(14) 0.86739(10)
C29 C 0.0353(2) 0.21071(15) 0.83481(12)
H23 H 0.0570 0.1691 0.8684
H24 H -0.0542 0.1990 0.8175
C30 C 0.1288(2) 0.20159(14) 0.78067(11)
C31 C 0.0891(2) 0.21182(17) 0.71607(12)
H25 H 0.0015 0.2277 0.7058
C32 C 0.1744(3) 0.19942(17) 0.66634(12)
H26 H 0.1463 0.2069 0.6223
C33 C 0.3005(3) 0.17610(16) 0.68203(12)
C34 C 0.3453(2) 0.16686(16) 0.74512(12)
H27 H 0.4337 0.1523 0.7548
C35 C 0.2589(2) 0.17928(15) 0.79411(12)
H28 H 0.2885 0.1725 0.8380
C36 C -0.0312(2) 0.35982(16) 0.82346(11)
H29 H -0.0195 0.4141 0.8429
H30 H -0.1248 0.3475 0.8186
H31 H 0.0080 0.3589 0.7808
C37 C -0.0471(2) 0.29042(13) 0.92862(10)
C38 C -0.0361(3) 0.30550(16) 1.07538(11)
H32 H -0.0802 0.3122 1.1165
H33 H 0.0552 0.3231 1.0808
H34 H -0.0390 0.2479 1.0624
F3 F 0.76826(17) 0.47733(12) 0.25424(9)
O9 O 0.40639(16) 0.66145(11) 0.15208(8)
O10 O 0.08845(16) 0.46629(11) 0.12024(8)
O11 O 0.17196(15) 0.46629(10) -0.03073(7)
O12 O -0.00796(16) 0.58561(11) -0.04471(8)
N5 N 0.25108(17) 0.56410(11) 0.11701(8)
N6 N 0.08993(18) 0.58593(12) 0.00414(9)
H35 H 0.0936 0.6251 0.0334
C39 C 0.1557(2) 0.51768(14) 0.14744(11)
C40 C 0.1582(2) 0.54177(14) 0.21641(11)
C41 C 0.0872(3) 0.51189(16) 0.26697(12)
H36 H 0.0197 0.4727 0.2600
C42 C 0.1193(3) 0.54206(19) 0.32859(12)
H37 H 0.0731 0.5226 0.3647
C43 C 0.2173(3) 0.60004(18) 0.33862(12)
H38 H 0.2375 0.6188 0.3814
C44 C 0.2864(3) 0.63119(17) 0.28713(12)
H39 H 0.3518 0.6719 0.2936
C45 C 0.2556(2) 0.60012(14) 0.22592(11)
C46 C 0.3175(2) 0.61563(14) 0.16293(10)
C47 C 0.2966(2) 0.53914(14) 0.05285(10)
C48 C 0.3723(2) 0.45730(14) 0.05895(11)
H40 H 0.3099 0.4132 0.0692
H41 H 0.4099 0.4442 0.0166
C49 C 0.4809(2) 0.45832(14) 0.11033(12)
C50 C 0.4556(2) 0.43935(15) 0.17412(13)
H42 H 0.3703 0.4220 0.1846
C51 C 0.5517(3) 0.44509(17) 0.22309(14)
H43 H 0.5331 0.4325 0.2668
C52 C 0.6744(3) 0.46959(17) 0.20641(14)
C53 C 0.7072(2) 0.48472(16) 0.14355(15)
H44 H 0.7944 0.4981 0.1332
C54 C 0.6085(2) 0.47984(16) 0.09531(13)
H45 H 0.6284 0.4913 0.0516
C55 C 0.3804(2) 0.60534(15) 0.02188(11)
H46 H 0.3332 0.6575 0.0217
H47 H 0.3986 0.5897 -0.0228
H48 H 0.4630 0.6112 0.0470
C56 C 0.1773(2) 0.52593(14) 0.00565(10)
C57 C -0.1269(2) 0.55382(16) -0.01986(14)
H49 H -0.1945 0.5523 -0.0547
H50 H -0.1560 0.5891 0.0153
H51 H -0.1116 0.4984 -0.0032
F4 F 0.78128(15) 0.33818(11) 0.69691(7)
O13 O 0.38407(17) 0.57116(11) 0.49020(9)
O14 O 0.3052(2) 0.31261(12) 0.56486(9)
O15 O 0.13868(16) 0.62557(10) 0.58075(8)
O16 O -0.00765(15) 0.57838(10) 0.47417(7)
N7 N 0.31843(18) 0.45137(12) 0.53873(9)
N8 N 0.08198(19) 0.52746(13) 0.50693(9)
H52 H 0.0924 0.4765 0.4944
C58 C 0.3906(2) 0.49762(15) 0.49557(11)
C59 C 0.4753(2) 0.43883(16) 0.46125(11)
C60 C 0.5665(2) 0.45239(19) 0.41415(12)
H53 H 0.5793 0.5051 0.3961
C61 C 0.6388(2) 0.3846(2) 0.39457(13)
H54 H 0.7027 0.3915 0.3627
C62 C 0.6192(2) 0.30774(19) 0.42068(13)
H55 H 0.6700 0.2630 0.4064
C63 C 0.5264(2) 0.29467(18) 0.46751(13)
H56 H 0.5128 0.2421 0.4856
C64 C 0.4551(2) 0.36198(16) 0.48637(11)
C65 C 0.3519(2) 0.36748(15) 0.53526(11)
C66 C 0.2435(2) 0.49247(15) 0.58972(11)
C67 C 0.3409(3) 0.53542(17) 0.63804(12)
H57 H 0.3706 0.5872 0.6185
H58 H 0.2950 0.5492 0.6781
C68 C 0.4588(2) 0.48361(16) 0.65576(11)
C69 C 0.5774(3) 0.49759(16) 0.62619(13)
H59 H 0.5836 0.5409 0.5958
C70 C 0.6863(2) 0.44944(17) 0.64029(12)
H60 H 0.7670 0.4597 0.6203
C71 C 0.6750(2) 0.38708(17) 0.68353(12)
C72 C 0.5620(3) 0.3708(2) 0.71461(12)
H61 H 0.5573 0.3271 0.7448
C73 C 0.4541(3) 0.4204(2) 0.70060(12)
H62 H 0.3751 0.4107 0.7223
C74 C 0.1533(3) 0.43323(17) 0.62479(12)
H63 H 0.0997 0.4029 0.5927
H64 H 0.0964 0.4642 0.6531
H65 H 0.2064 0.3948 0.6509
C75 C 0.1515(2) 0.55714(15) 0.55742(11)
C76 C -0.1304(2) 0.53633(17) 0.46720(12)
H66 H -0.1192 0.4866 0.4415
H67 H -0.1949 0.5720 0.4451
H68 H -0.1612 0.5217 0.5102
loop_
_geom_bond_atom_site_label_1
_geom_bond_atom_site_label_2
_geom_bond_site_symmetry_1
_geom_bond_site_symmetry_2
F1 C14 1_555 1_555
O1 C1 1_555 1_555
O2 C8 1_555 1_555
O3 C18 1_555 1_555
O4 N2 1_555 1_555
N1 C1 1_555 1_555
N2 H1 1_555 1_555
C1 C2 1_555 1_555
C2 C3 1_555 1_555
C3 H2 1_555 1_555
C4 C3 1_555 1_555
H3 C4 1_555 1_555
C5 C4 1_555 1_555
H4 C5 1_555 1_555
C6 C5 1_555 1_555
H5 C6 1_555 1_555
C7 C2 1_555 1_555
C8 N1 1_555 1_555
C9 N1 1_555 1_555
C10 C9 1_555 1_555
H6 C10 1_555 1_555
H7 C10 1_555 1_555
C11 C10 1_555 1_555
C12 C11 1_555 1_555
H8 C12 1_555 1_555
C13 C12 1_555 1_555
H9 C13 1_555 1_555
C14 C13 1_555 1_555
C15 C14 1_555 1_555
H10 C15 1_555 1_555
C16 C11 1_555 1_555
H11 C16 1_555 1_555
C17 C9 1_555 1_555
H12 C17 1_555 1_555
H13 C17 1_555 1_555
H14 C17 1_555 1_555
C18 N2 1_555 1_555
C19 O4 1_555 1_555
H15 C19 1_555 1_555
H16 C19 1_555 1_555
H17 C19 1_555 1_555
F2 C33 1_555 1_555
O5 C20 1_555 1_555
O6 C27 1_555 1_555
O7 C37 1_555 1_555
O8 N4 1_555 1_555
N3 C20 1_555 1_555
N4 H18 1_555 1_555
C20 C21 1_555 1_555
C21 C22 1_555 1_555
C22 H19 1_555 1_555
C23 C22 1_555 1_555
H20 C23 1_555 1_555
C24 C23 1_555 1_555
H21 C24 1_555 1_555
C25 C24 1_555 1_555
H22 C25 1_555 1_555
C26 C21 1_555 1_555
C27 N3 1_555 1_555
C28 N3 1_555 1_555
C29 C28 1_555 1_555
H23 C29 1_555 1_555
H24 C29 1_555 1_555
C30 C29 1_555 1_555
C31 C30 1_555 1_555
H25 C31 1_555 1_555
C32 C31 1_555 1_555
H26 C32 1_555 1_555
C33 C32 1_555 1_555
C34 C33 1_555 1_555
H27 C34 1_555 1_555
C35 C30 1_555 1_555
H28 C35 1_555 1_555
C36 C28 1_555 1_555
H29 C36 1_555 1_555
H30 C36 1_555 1_555
H31 C36 1_555 1_555
C37 N4 1_555 1_555
C38 O8 1_555 1_555
H32 C38 1_555 1_555
H33 C38 1_555 1_555
H34 C38 1_555 1_555
F3 C52 1_555 1_555
O9 C46 1_555 1_555
O10 C39 1_555 1_555
O11 C56 1_555 1_555
O12 N6 1_555 1_555
N5 C39 1_555 1_555
N6 H35 1_555 1_555
C39 C40 1_555 1_555
C40 C41 1_555 1_555
C41 H36 1_555 1_555
C42 C41 1_555 1_555
H37 C42 1_555 1_555
C43 C42 1_555 1_555
H38 C43 1_555 1_555
C44 C43 1_555 1_555
H39 C44 1_555 1_555
C45 C40 1_555 1_555
C46 N5 1_555 1_555
C47 N5 1_555 1_555
C48 C47 1_555 1_555
H40 C48 1_555 1_555
H41 C48 1_555 1_555
C49 C48 1_555 1_555
C50 C49 1_555 1_555
H42 C50 1_555 1_555
C51 C50 1_555 1_555
H43 C51 1_555 1_555
C52 C51 1_555 1_555
C53 C52 1_555 1_555
H44 C53 1_555 1_555
C54 C49 1_555 1_555
H45 C54 1_555 1_555
C55 C47 1_555 1_555
H46 C55 1_555 1_555
H47 C55 1_555 1_555
H48 C55 1_555 1_555
C56 N6 1_555 1_555
C57 O12 1_555 1_555
H49 C57 1_555 1_555
H50 C57 1_555 1_555
H51 C57 1_555 1_555
F4 C71 1_555 1_555
O13 C58 1_555 1_555
O14 C65 1_555 1_555
O15 C75 1_555 1_555
O16 N8 1_555 1_555
N7 C58 1_555 1_555
N8 H52 1_555 1_555
C58 C59 1_555 1_555
C59 C60 1_555 1_555
C60 H53 1_555 1_555
C61 C60 1_555 1_555
H54 C61 1_555 1_555
C62 C61 1_555 1_555
H55 C62 1_555 1_555
C63 C62 1_555 1_555
H56 C63 1_555 1_555
C64 C59 1_555 1_555
C65 N7 1_555 1_555
C66 N7 1_555 1_555
C67 C66 1_555 1_555
H57 C67 1_555 1_555
H58 C67 1_555 1_555
C68 C67 1_555 1_555
C69 C68 1_555 1_555
H59 C69 1_555 1_555
C70 C69 1_555 1_555
H60 C70 1_555 1_555
C71 C70 1_555 1_555
C72 C71 1_555 1_555
H61 C72 1_555 1_555
C73 C68 1_555 1_555
H62 C73 1_555 1_555
C74 C66 1_555 1_555
H63 C74 1_555 1_555
H64 C74 1_555 1_555
H65 C74 1_555 1_555
C75 N8 1_555 1_555
C76 O16 1_555 1_555
H66 C76 1_555 1_555
H67 C76 1_555 1_555
H68 C76 1_555 1_555
C6 C7 1_555 1_555
C7 C8 1_555 1_555
C9 C18 1_555 1_555
C15 C16 1_555 1_555
C25 C26 1_555 1_555
C26 C27 1_555 1_555
C28 C37 1_555 1_555
C34 C35 1_555 1_555
C44 C45 1_555 1_555
C45 C46 1_555 1_555
C47 C56 1_555 1_555
C53 C54 1_555 1_555
C63 C64 1_555 1_555
C64 C65 1_555 1_555
C66 C75 1_555 1_555
C72 C73 1_555 1_555

#END
