
#######################################################################
#
#                 Cambridge Crystallographic Data Centre
#                                CCDC 
#
#######################################################################
#
# If this CIF has been generated from an entry in the Cambridge 
# Structural Database, then it will include bibliographic, chemical, 
# crystal, experimental, refinement or atomic coordinate data resulting 
# from the CCDC's data processing and validation procedures.
#
#######################################################################

data_YELBEZ
_chemical_formula_moiety         'C17 H24 N2 O2'
_chemical_name_systematic        
N-(1-(4-benzyl-4,5-dihydro-1,3-oxazol-2-yl)-2,2-dimethylpropyl)acetamide
_symmetry_cell_setting           monoclinic
_symmetry_space_group_name_H-M   'P 21'
_symmetry_Int_Tables_number      4
_space_group_name_Hall           'P 2yb'
loop_
_symmetry_equiv_pos_site_id
_symmetry_equiv_pos_as_xyz
1 x,y,z
2 -x,1/2+y,-z
_cell_length_a                   8.7359(6)
_cell_length_b                   9.4208(6)
_cell_length_c                   9.7068(6)
_cell_angle_alpha                90
_cell_angle_beta                 94.576(3)
_cell_angle_gamma                90
_cell_volume                     796.315
_exptl_crystal_colour            colorless
_exptl_crystal_description       block
_cell_formula_units_Z            2
loop_
_atom_site_label
_atom_site_type_symbol
_atom_site_fract_x
_atom_site_fract_y
_atom_site_fract_z
O1 O 1.05939(14) 0.54003(14) 0.51462(13)
O2 O 0.63360(13) 0.78613(13) 0.63351(13)
N1 N 0.96824(15) 0.75020(16) 0.58577(14)
H1 H 0.9655 0.8429 0.5746
N2 N 0.65524(16) 0.54626(17) 0.64053(15)
C1 C 1.1153(2) 0.7471(2) 0.38442(18)
H2 H 1.2048 0.6946 0.3572
H3 H 1.1471 0.8422 0.4160
H4 H 1.0391 0.7551 0.3050
C2 C 1.04587(18) 0.6696(2) 0.49954(17)
C3 C 0.88886(19) 0.68627(19) 0.69723(17)
H5 H 0.9328 0.5888 0.7110
C4 C 0.9223(2) 0.7651(2) 0.83736(18)
C5 C 1.0926(2) 0.7454(2) 0.88369(19)
H6 H 1.1165 0.6438 0.8897
H7 H 1.1151 0.7895 0.9745
H8 H 1.1553 0.7903 0.8165
C6 C 0.8873(2) 0.9239(2) 0.8273(2)
H9 H 0.9535 0.9683 0.7627
H10 H 0.9064 0.9675 0.9187
H11 H 0.7794 0.9377 0.7939
C7 C 0.8254(2) 0.6958(2) 0.94374(19)
H12 H 0.7163 0.7136 0.9179
H13 H 0.8534 0.7363 1.0353
H14 H 0.8443 0.5933 0.9460
C8 C 0.71992(19) 0.6662(2) 0.65494(17)
C9 C 0.4808(2) 0.7351(2) 0.58615(19)
H15 H 0.4570 0.7559 0.4868
H16 H 0.4014 0.7795 0.6395
C10 C 0.4888(2) 0.57441(19) 0.61183(18)
H17 H 0.4480 0.5219 0.5272
C11 C 0.4039(2) 0.5282(2) 0.73699(18)
H18 H 0.4460 0.5814 0.8195
H19 H 0.2940 0.5534 0.7201
C12 C 0.4170(2) 0.3712(2) 0.76658(18)
C13 C 0.5361(2) 0.3164(2) 0.85551(19)
H20 H 0.6080 0.3791 0.9022
C14 C 0.5500(2) 0.1712(2) 0.87614(19)
H21 H 0.6315 0.1349 0.9366
C15 C 0.4453(2) 0.0786(2) 0.80892(19)
H22 H 0.4554 -0.0209 0.8229
C16 C 0.3263(2) 0.1318(2) 0.7215(2)
H23 H 0.2542 0.0690 0.6754
C17 C 0.3125(2) 0.2769(2) 0.70132(18)
H24 H 0.2299 0.3127 0.6417
loop_
_geom_bond_atom_site_label_1
_geom_bond_atom_site_label_2
_geom_bond_site_symmetry_1
_geom_bond_site_symmetry_2
O1 C2 1_555 1_555
O2 C8 1_555 1_555
N1 H1 1_555 1_555
N2 C8 1_555 1_555
C1 H2 1_555 1_555
H3 C1 1_555 1_555
H4 C1 1_555 1_555
C2 N1 1_555 1_555
C3 N1 1_555 1_555
H5 C3 1_555 1_555
C4 C3 1_555 1_555
C5 C4 1_555 1_555
H6 C5 1_555 1_555
H7 C5 1_555 1_555
H8 C5 1_555 1_555
C6 C4 1_555 1_555
H9 C6 1_555 1_555
H10 C6 1_555 1_555
H11 C6 1_555 1_555
C7 C4 1_555 1_555
H12 C7 1_555 1_555
H13 C7 1_555 1_555
H14 C7 1_555 1_555
C8 C3 1_555 1_555
C9 O2 1_555 1_555
H15 C9 1_555 1_555
H16 C9 1_555 1_555
C10 N2 1_555 1_555
H17 C10 1_555 1_555
C11 C10 1_555 1_555
H18 C11 1_555 1_555
H19 C11 1_555 1_555
C12 C11 1_555 1_555
C13 C12 1_555 1_555
H20 C13 1_555 1_555
C14 C13 1_555 1_555
H21 C14 1_555 1_555
C15 C14 1_555 1_555
H22 C15 1_555 1_555
C16 C15 1_555 1_555
H23 C16 1_555 1_555
C17 C12 1_555 1_555
H24 C17 1_555 1_555
C1 C2 1_555 1_555
C9 C10 1_555 1_555
C16 C17 1_555 1_555

#END
