
#######################################################################
#
#                 Cambridge Crystallographic Data Centre
#                                CCDC 
#
#######################################################################
#
# If this CIF has been generated from an entry in the Cambridge 
# Structural Database, then it will include bibliographic, chemical, 
# crystal, experimental, refinement or atomic coordinate data resulting 
# from the CCDC's data processing and validation procedures.
#
#######################################################################

data_YELHUV
_chemical_formula_moiety         'C16 H12 N2 O2'
_chemical_name_systematic        6-methoxy-2H-dibenzo[e,g]indazol-11-ol
_symmetry_cell_setting           monoclinic
_symmetry_space_group_name_H-M   'P 21/c'
_symmetry_Int_Tables_number      14
_space_group_name_Hall           '-P 2ybc'
loop_
_symmetry_equiv_pos_site_id
_symmetry_equiv_pos_as_xyz
1 x,y,z
2 -x,1/2+y,1/2-z
3 -x,-y,-z
4 x,1/2-y,1/2+z
_cell_length_a                   8.8388(17)
_cell_length_b                   11.109(2)
_cell_length_c                   12.732(2)
_cell_angle_alpha                90
_cell_angle_beta                 97.012(3)
_cell_angle_gamma                90
_cell_volume                     1240.81
_exptl_crystal_colour            black
_exptl_crystal_description       prism
_cell_formula_units_Z            4
loop_
_atom_site_label
_atom_site_type_symbol
_atom_site_fract_x
_atom_site_fract_y
_atom_site_fract_z
N1 N 0.4334(2) 0.35290(17) 0.12077(17)
H1 H 0.5154 0.3953 0.1293
N2 N 0.4049(2) 0.25107(16) 0.17284(16)
O1 O -0.40647(17) 0.22580(16) -0.12104(13)
O2 O 0.40129(18) 0.04422(14) 0.28813(14)
H2 H 0.4114 0.1151 0.3055
C1 C -0.5026(3) 0.1387(3) -0.0825(2)
H3 H -0.4667 0.0596 -0.0970
H4 H -0.6047 0.1488 -0.1168
H5 H -0.5016 0.1487 -0.0075
C2 C -0.2595(2) 0.2360(2) -0.07166(17)
C3 C -0.1752(3) 0.3312(2) -0.10630(19)
H6 H -0.2197 0.3830 -0.1586
C4 C -0.0281(3) 0.34837(19) -0.06374(18)
H7 H 0.0273 0.4121 -0.0870
C5 C 0.0414(2) 0.27059(18) 0.01530(16)
C6 C 0.1973(2) 0.28644(18) 0.06281(16)
C7 C 0.3096(3) 0.3741(2) 0.05395(19)
H8 H 0.2983 0.4387 0.0072
C8 C 0.2619(2) 0.20932(17) 0.14012(16)
C9 C 0.1829(2) 0.10613(18) 0.17621(16)
C10 C 0.2527(2) 0.02247(18) 0.25067(17)
C11 C 0.1725(3) -0.0741(2) 0.28083(18)
H9 H 0.2187 -0.1283 0.3305
C12 C 0.0222(3) -0.0914(2) 0.23746(18)
H10 H -0.0318 -0.1576 0.2579
C13 C -0.0475(3) -0.01104(19) 0.16416(17)
H11 H -0.1484 -0.0238 0.1362
C14 C 0.0300(2) 0.08918(19) 0.13101(16)
C15 C -0.0425(2) 0.17382(18) 0.05024(16)
C16 C -0.1952(2) 0.15925(19) 0.00610(17)
H12 H -0.2532 0.0972 0.0297
loop_
_geom_bond_atom_site_label_1
_geom_bond_atom_site_label_2
_geom_bond_site_symmetry_1
_geom_bond_site_symmetry_2
N1 H1 1_555 1_555
N2 N1 1_555 1_555
O1 C1 1_555 1_555
O2 H2 1_555 1_555
C1 H3 1_555 1_555
H4 C1 1_555 1_555
H5 C1 1_555 1_555
C2 O1 1_555 1_555
C3 C2 1_555 1_555
H6 C3 1_555 1_555
C4 C3 1_555 1_555
H7 C4 1_555 1_555
C5 C4 1_555 1_555
C6 C5 1_555 1_555
C7 N1 1_555 1_555
H8 C7 1_555 1_555
C8 N2 1_555 1_555
C9 C8 1_555 1_555
C10 O2 1_555 1_555
C11 C10 1_555 1_555
H9 C11 1_555 1_555
C12 C11 1_555 1_555
H10 C12 1_555 1_555
C13 C12 1_555 1_555
H11 C13 1_555 1_555
C14 C9 1_555 1_555
C15 C5 1_555 1_555
C16 C2 1_555 1_555
H12 C16 1_555 1_555
C6 C7 1_555 1_555
C6 C8 1_555 1_555
C9 C10 1_555 1_555
C13 C14 1_555 1_555
C14 C15 1_555 1_555
C15 C16 1_555 1_555

#END
