
#######################################################################
#
#                 Cambridge Crystallographic Data Centre
#                                CCDC 
#
#######################################################################
#
# If this CIF has been generated from an entry in the Cambridge 
# Structural Database, then it will include bibliographic, chemical, 
# crystal, experimental, refinement or atomic coordinate data resulting 
# from the CCDC's data processing and validation procedures.
#
#######################################################################

data_YELJAD
_chemical_name_common            '(S)-2-benzylsuccinic acid'
_chemical_formula_moiety         'C11 H12 O4'
_chemical_name_systematic        '2-benzylbutanedioic acid'
_symmetry_cell_setting           orthorhombic
_symmetry_space_group_name_H-M   'P 21 21 21'
_symmetry_Int_Tables_number      19
_space_group_name_Hall           'P 2ac 2ab'
loop_
_symmetry_equiv_pos_site_id
_symmetry_equiv_pos_as_xyz
1 x,y,z
2 1/2-x,-y,1/2+z
3 -x,1/2+y,1/2-z
4 1/2+x,1/2-y,-z
_cell_length_a                   9.922(2)
_cell_length_b                   9.960(2)
_cell_length_c                   10.967(2)
_cell_angle_alpha                90
_cell_angle_beta                 90
_cell_angle_gamma                90
_cell_volume                     1083.79
_exptl_crystal_colour            colorless
_exptl_crystal_description       platelet
_cell_formula_units_Z            4
loop_
_atom_site_label
_atom_site_type_symbol
_atom_site_fract_x
_atom_site_fract_y
_atom_site_fract_z
O1 O 0.7878(2) 0.3354(2) 0.4531(2)
H1 H 0.8434 0.2755 0.4631
O2 O 0.8093(3) 0.3531(3) 0.6540(2)
O3 O 0.4629(3) 0.3607(2) 0.5359(2)
O4 O 0.4610(3) 0.3699(3) 0.3337(2)
H2 H 0.4154 0.3020 0.3425
C1 C 0.7670(3) 0.3959(3) 0.5545(3)
C2 C 0.7307(3) 0.7790(3) 0.5490(3)
C3 C 0.5946(3) 0.5294(3) 0.4387(4)
H3 H 0.5426 0.6118 0.4409
H4 H 0.6467 0.5292 0.3638
C4 C 0.4999(3) 0.4121(3) 0.4377(3)
C5 C 0.6909(3) 0.5270(3) 0.5471(3)
H5 H 0.6381 0.5377 0.6220
C6 C 0.7159(4) 0.8596(3) 0.4482(4)
H6 H 0.7449 0.8289 0.3725
C7 C 0.6860(4) 0.8261(4) 0.6591(3)
H7 H 0.6956 0.7731 0.7283
C8 C 0.7958(3) 0.6421(3) 0.5406(4)
H8 H 0.8599 0.6320 0.6068
H9 H 0.8451 0.6355 0.4644
C9 C 0.6587(4) 0.9857(4) 0.4576(5)
H10 H 0.6504 1.0393 0.3886
C10 C 0.6263(5) 0.9523(4) 0.6689(4)
H11 H 0.5948 0.9826 0.7438
C11 C 0.6144(4) 1.0317(3) 0.5671(5)
H12 H 0.5762 1.1167 0.5731
loop_
_geom_bond_atom_site_label_1
_geom_bond_atom_site_label_2
_geom_bond_site_symmetry_1
_geom_bond_site_symmetry_2
O1 H1 1_555 1_555
O2 C1 1_555 1_555
O3 C4 1_555 1_555
O4 H2 1_555 1_555
C1 O1 1_555 1_555
C2 C6 1_555 1_555
C3 H3 1_555 1_555
H4 C3 1_555 1_555
C4 O4 1_555 1_555
C5 C1 1_555 1_555
H5 C5 1_555 1_555
C6 H6 1_555 1_555
C7 C2 1_555 1_555
H7 C7 1_555 1_555
C8 C2 1_555 1_555
H8 C8 1_555 1_555
H9 C8 1_555 1_555
C9 C6 1_555 1_555
H10 C9 1_555 1_555
C10 C7 1_555 1_555
H11 C10 1_555 1_555
C11 C9 1_555 1_555
H12 C11 1_555 1_555
C3 C4 1_555 1_555
C3 C5 1_555 1_555
C5 C8 1_555 1_555
C10 C11 1_555 1_555

#END
