
#######################################################################
#
#                 Cambridge Crystallographic Data Centre
#                                CCDC 
#
#######################################################################
#
# If this CIF has been generated from an entry in the Cambridge 
# Structural Database, then it will include bibliographic, chemical, 
# crystal, experimental, refinement or atomic coordinate data resulting 
# from the CCDC's data processing and validation procedures.
#
#######################################################################

data_YELVAP
_chemical_formula_moiety         'C18 H21 N1 O2 S1'
_chemical_name_systematic        
'3-butyl-4-phenyl-3,4-dihydro-2H-1,2-benzothiazine 1,1-dioxide'
_symmetry_cell_setting           orthorhombic
_symmetry_space_group_name_H-M   'P 21 21 21'
_symmetry_Int_Tables_number      19
_space_group_name_Hall           'P 2ac 2ab'
loop_
_symmetry_equiv_pos_site_id
_symmetry_equiv_pos_as_xyz
1 x,y,z
2 1/2+x,1/2-y,-z
3 -x,1/2+y,1/2-z
4 1/2-x,-y,1/2+z
_cell_length_a                   9.4077(15)
_cell_length_b                   9.9254(16)
_cell_length_c                   17.562(3)
_cell_angle_alpha                90
_cell_angle_beta                 90
_cell_angle_gamma                90
_cell_volume                     1639.86
_exptl_crystal_colour            colorless
_exptl_crystal_description       block
_cell_formula_units_Z            4
loop_
_atom_site_label
_atom_site_type_symbol
_atom_site_fract_x
_atom_site_fract_y
_atom_site_fract_z
S1 S 0.42639(8) 0.00417(9) 0.78820(4)
O1 O 0.4823(3) -0.1295(2) 0.78127(15)
O2 O 0.3290(3) 0.0496(3) 0.73249(15)
N1 N 0.5573(3) 0.1062(2) 0.79100(14)
H1 H 0.5671 0.1706 0.7587
C1 C 0.3529(3) 0.0162(3) 0.87913(16)
C2 C 0.2097(3) -0.0121(4) 0.8891(2)
H2 H 0.1531 -0.0322 0.8472
C3 C 0.1517(4) -0.0105(4) 0.9605(2)
H3 H 0.0553 -0.0274 0.9672
C4 C 0.2364(4) 0.0161(4) 1.0220(2)
H4 H 0.1982 0.0128 1.0708
C5 C 0.3774(4) 0.0476(3) 1.01238(19)
H5 H 0.4324 0.0675 1.0549
C6 C 0.4401(3) 0.0503(3) 0.94044(17)
C7 C 0.5932(3) 0.0987(3) 0.93241(15)
H6 H 0.5922 0.1956 0.9433
C8 C 0.6601(3) 0.0827(3) 0.85261(16)
H7 H 0.6947 -0.0101 0.8480
C9 C 0.7858(4) 0.1765(4) 0.84161(19)
H8 H 0.7522 0.2687 0.8441
H9 H 0.8518 0.1633 0.8834
C10 C 0.8649(4) 0.1572(4) 0.7676(2)
H10 H 0.8983 0.0649 0.7650
H11 H 0.7992 0.1710 0.7258
C11 C 0.9898(5) 0.2502(5) 0.7575(3)
H12 H 1.0591 0.2324 0.7971
H13 H 0.9581 0.3427 0.7630
C12 C 1.0597(5) 0.2329(6) 0.6802(3)
H14 H 1.0849 0.1401 0.6730
H15 H 1.1437 0.2876 0.6777
H16 H 0.9946 0.2601 0.6410
C13 C 0.6898(3) 0.0346(3) 0.99156(16)
C14 C 0.7211(4) -0.1013(4) 0.9881(2)
H17 H 0.6788 -0.1548 0.9510
C15 C 0.8146(4) -0.1580(4) 1.0393(2)
H18 H 0.8375 -0.2489 1.0352
C16 C 0.8742(4) -0.0829(5) 1.0960(2)
H19 H 0.9366 -0.1222 1.1306
C17 C 0.8414(5) 0.0509(5) 1.1015(2)
H20 H 0.8803 0.1025 1.1405
C18 C 0.7497(4) 0.1106(4) 1.0488(2)
H21 H 0.7291 0.2021 1.0524
loop_
_geom_bond_atom_site_label_1
_geom_bond_atom_site_label_2
_geom_bond_site_symmetry_1
_geom_bond_site_symmetry_2
S1 O1 1_555 1_555
O2 S1 1_555 1_555
N1 S1 1_555 1_555
H1 N1 1_555 1_555
C1 S1 1_555 1_555
C2 C1 1_555 1_555
H2 C2 1_555 1_555
C3 C2 1_555 1_555
H3 C3 1_555 1_555
C4 C3 1_555 1_555
H4 C4 1_555 1_555
C5 C4 1_555 1_555
H5 C5 1_555 1_555
C6 C1 1_555 1_555
C7 C6 1_555 1_555
H6 C7 1_555 1_555
C8 N1 1_555 1_555
H7 C8 1_555 1_555
C9 C8 1_555 1_555
H8 C9 1_555 1_555
H9 C9 1_555 1_555
C10 C9 1_555 1_555
H10 C10 1_555 1_555
H11 C10 1_555 1_555
C11 C10 1_555 1_555
H12 C11 1_555 1_555
H13 C11 1_555 1_555
C12 C11 1_555 1_555
H14 C12 1_555 1_555
H15 C12 1_555 1_555
H16 C12 1_555 1_555
C13 C7 1_555 1_555
C14 C13 1_555 1_555
H17 C14 1_555 1_555
C15 C14 1_555 1_555
H18 C15 1_555 1_555
C16 C15 1_555 1_555
H19 C16 1_555 1_555
C17 C16 1_555 1_555
H20 C17 1_555 1_555
C18 C13 1_555 1_555
H21 C18 1_555 1_555
C5 C6 1_555 1_555
C7 C8 1_555 1_555
C17 C18 1_555 1_555

#END
