
#######################################################################
#
#                 Cambridge Crystallographic Data Centre
#                                CCDC 
#
#######################################################################
#
# If this CIF has been generated from an entry in the Cambridge 
# Structural Database, then it will include bibliographic, chemical, 
# crystal, experimental, refinement or atomic coordinate data resulting 
# from the CCDC's data processing and validation procedures.
#
#######################################################################

data_YEMBEA
_chemical_formula_moiety         'C17 H16 O2'
_chemical_name_systematic        
2-([1,1'-biphenyl]-4-yl)-3-oxabicyclo[3.1.0]hexan-1-ol
_symmetry_cell_setting           orthorhombic
_symmetry_space_group_name_H-M   'P 21 21 21'
_symmetry_Int_Tables_number      19
_space_group_name_Hall           'P 2ac 2ab'
loop_
_symmetry_equiv_pos_site_id
_symmetry_equiv_pos_as_xyz
1 x,y,z
2 1/2-x,-y,1/2+z
3 -x,1/2+y,1/2-z
4 1/2+x,1/2-y,-z
_cell_length_a                   5.6302(2)
_cell_length_b                   9.8924(4)
_cell_length_c                   24.2051(9)
_cell_angle_alpha                90
_cell_angle_beta                 90
_cell_angle_gamma                90
_cell_volume                     1348.13
_exptl_crystal_colour            colorless
_exptl_crystal_description       block
_cell_formula_units_Z            4
loop_
_atom_site_label
_atom_site_type_symbol
_atom_site_fract_x
_atom_site_fract_y
_atom_site_fract_z
C1 C 0.6457(3) 0.07889(17) 0.11299(7)
H1 H 0.7705 0.0284 0.0986
C2 C 0.6612(3) 0.12742(17) 0.16658(7)
H2 H 0.7962 0.1097 0.1875
C3 C 0.4462(3) 0.10430(16) 0.08007(6)
C4 C 0.4763(3) 0.20256(14) 0.18946(6)
C5 C 0.2666(3) 0.18357(16) 0.10292(7)
H3 H 0.1346 0.2051 0.0816
C6 C 0.2802(3) 0.23103(16) 0.15671(7)
H4 H 0.1565 0.2826 0.1710
C7 C 0.4209(3) 0.04510(18) 0.02373(7)
C8 C 0.2849(4) 0.1093(2) -0.01644(8)
H5 H 0.2128 0.1915 -0.0083
C9 C 0.5232(5) -0.0774(2) 0.01005(9)
H6 H 0.6148 -0.1228 0.0361
C10 C 0.2551(5) 0.0530(3) -0.06832(9)
H7 H 0.1655 0.0981 -0.0948
C11 C 0.4916(6) -0.1338(3) -0.04197(10)
H8 H 0.5623 -0.2162 -0.0505
C12 C 0.3568(5) -0.0687(3) -0.08077(10)
H9 H 0.3344 -0.1071 -0.1155
O1 O 0.4551(2) 0.13430(11) 0.28665(5)
O2 O 0.8245(2) 0.39965(11) 0.23025(5)
H10 H 0.741(4) 0.4722(19) 0.2283(9)
C13 C 0.6875(3) 0.09318(16) 0.30571(8)
H11 H 0.7515 0.0225 0.2823
H12 H 0.6793 0.0598 0.3433
C14 C 0.8380(3) 0.21709(16) 0.30271(7)
H13 H 1.0109 0.2089 0.2993
C15 C 0.7057(3) 0.31696(13) 0.26765(6)
C16 C 0.4789(3) 0.24798(14) 0.24921(6)
H14 H 0.3455 0.3099 0.2553
C17 C 0.7310(4) 0.34168(16) 0.32842(7)
H15 H 0.5911 0.3303 0.3514
H16 H 0.8382 0.4128 0.3402
loop_
_geom_bond_atom_site_label_1
_geom_bond_atom_site_label_2
_geom_bond_site_symmetry_1
_geom_bond_site_symmetry_2
C1 H1 1_555 1_555
C2 C1 1_555 1_555
H2 C2 1_555 1_555
C3 C1 1_555 1_555
C4 C2 1_555 1_555
C5 C3 1_555 1_555
H3 C5 1_555 1_555
C6 C4 1_555 1_555
H4 C6 1_555 1_555
C7 C3 1_555 1_555
C8 C7 1_555 1_555
H5 C8 1_555 1_555
C9 C7 1_555 1_555
H6 C9 1_555 1_555
C10 C8 1_555 1_555
H7 C10 1_555 1_555
C11 C9 1_555 1_555
H8 C11 1_555 1_555
C12 C10 1_555 1_555
H9 C12 1_555 1_555
O1 C13 1_555 1_555
O2 H10 1_555 1_555
C13 H11 1_555 1_555
H12 C13 1_555 1_555
C14 C13 1_555 1_555
H13 C14 1_555 1_555
C15 O2 1_555 1_555
C16 C4 1_555 1_555
H14 C16 1_555 1_555
C17 C14 1_555 1_555
H15 C17 1_555 1_555
H16 C17 1_555 1_555
C5 C6 1_555 1_555
C11 C12 1_555 1_555
O1 C16 1_555 1_555
C14 C15 1_555 1_555
C15 C16 1_555 1_555
C15 C17 1_555 1_555

#END
