
#######################################################################
#
#                 Cambridge Crystallographic Data Centre
#                                CCDC 
#
#######################################################################
#
# If this CIF has been generated from an entry in the Cambridge 
# Structural Database, then it will include bibliographic, chemical, 
# crystal, experimental, refinement or atomic coordinate data resulting 
# from the CCDC's data processing and validation procedures.
#
#######################################################################

data_YEMJIK
_chemical_name_common            
"N,N',N''-tris(1-(Methoxycarbonyl)-2-methylpropyl) benzene-1,3,5-tricarboxamide"
_chemical_formula_moiety         'C27 H39 N3 O9'
_chemical_name_systematic        
"tris(L-Valine methyl ester)-N,N',N''-benzene-1,3,5-tricarboxamide"
_symmetry_cell_setting           hexagonal
_symmetry_space_group_name_H-M   'P 63'
_symmetry_Int_Tables_number      173
_space_group_name_Hall           'P 6c'
loop_
_symmetry_equiv_pos_site_id
_symmetry_equiv_pos_as_xyz
1 x,y,z
2 -y,x-y,z
3 -x+y,-x,z
4 x-y,x,1/2+z
5 -x,-y,1/2+z
6 y,-x+y,1/2+z
_cell_length_a                   15.769(3)
_cell_length_b                   15.769(3)
_cell_length_c                   7.0910(11)
_cell_angle_alpha                90
_cell_angle_beta                 90
_cell_angle_gamma                120
_cell_volume                     1527.03
_exptl_crystal_colour            white
_exptl_crystal_description       needle
_cell_formula_units_Z            2
_exptl_crystal_recrystallization_method methanol/water
loop_
_atom_site_label
_atom_site_type_symbol
_atom_site_fract_x
_atom_site_fract_y
_atom_site_fract_z
C1 C 0.9159(3) 0.9085(3) 0.0651(8)
C2 C 1.0068(4) 0.9154(3) 0.0653(8)
H1 H 1.0115 0.8589 0.0654
C3 C 0.8226(3) 0.8111(3) 0.0511(8)
O1 O 0.7556(2) 0.8008(3) -0.0541(6)
N1 N 0.8177(3) 0.7364(3) 0.1534(7)
H2 H 0.8665 0.7461 0.2228
C4 C 0.7310(4) 0.6400(3) 0.1470(9)
H3 H 0.6843 0.6437 0.0610
C5 C 0.7511(4) 0.5600(4) 0.0711(9)
H4 H 0.6878 0.4998 0.0571
C6 C 0.8136(5) 0.5380(4) 0.2033(11)
H5 H 0.7833 0.5208 0.3254
H6 H 0.8775 0.5948 0.2141
H7 H 0.8194 0.4844 0.1538
C7 C 0.7990(5) 0.5895(5) -0.1283(10)
H8 H 0.8040 0.5361 -0.1812
H9 H 0.8633 0.6459 -0.1175
H10 H 0.7594 0.6046 -0.2087
C8 C 0.6828(3) 0.6118(3) 0.3415(8)
O2 O 0.7123(3) 0.6633(3) 0.4820(6)
O3 O 0.6035(3) 0.5242(3) 0.3389(7)
C9 C 0.5514(5) 0.4895(5) 0.5155(10)
H11 H 0.5257 0.5308 0.5526
H12 H 0.5955 0.4912 0.6108
H13 H 0.4986 0.4235 0.5002
C1A C 1.0915(3) 1.0074(4) 0.0651(8)
C1B C 0.9926(4) 1.0841(3) 0.0651(8)
C2A C 1.0846(3) 1.0914(5) 0.0653(8)
C2B C 0.9086(5) 0.9932(4) 0.0653(8)
H1B H 0.8474 0.9885 0.0654
H1A H 1.1411 1.1526 0.0654
C3B C 0.9885(4) 1.1774(3) 0.0511(8)
C3A C 1.1889(3) 1.0115(4) 0.0511(8)
O1B O 1.0452(4) 1.2444(2) -0.0541(6)
O1A O 1.1992(3) 0.9548(4) -0.0541(6)
N1B N 0.9187(4) 1.1823(3) 0.1534(7)
N1A N 1.2636(3) 1.0813(4) 0.1534(7)
H2B H 0.8796 1.1335 0.2228
H2A H 1.2539 1.1204 0.2228
C4B C 0.9090(5) 1.2690(4) 0.1470(9)
C4A C 1.3600(3) 1.0910(5) 0.1470(9)
H3B H 0.9594 1.3157 0.0610
H3A H 1.3563 1.0406 0.0610
C5B C 0.8089(6) 1.2489(4) 0.0711(9)
C5A C 1.4400(4) 1.1911(6) 0.0711(9)
H4B H 0.8120 1.3122 0.0571
H4A H 1.5002 1.1880 0.0571
C6B C 0.7244(6) 1.1864(5) 0.2033(11)
C6A C 1.4620(4) 1.2756(6) 0.2033(11)
H5B H 0.7375 1.2167 0.3254
H5A H 1.4792 1.2625 0.3254
H6B H 0.7173 1.1225 0.2141
H6A H 1.4052 1.2827 0.2141
H7B H 0.6650 1.1806 0.1538
H7A H 1.5156 1.3350 0.1538
C7B C 0.7905(7) 1.2010(5) -0.1283(10)
C7A C 1.4105(5) 1.2095(7) -0.1283(10)
H8B H 0.7321 1.1960 -0.1812
H8A H 1.4639 1.2679 -0.1812
H9B H 0.7826 1.1367 -0.1175
H9A H 1.3541 1.2174 -0.1175
H10B H 0.8452 1.2406 -0.2087
H10A H 1.3954 1.1548 -0.2087
C8B C 0.9290(4) 1.3172(3) 0.3415(8)
C8A C 1.3882(3) 1.0710(4) 0.3415(8)
O2B O 0.9510(4) 1.2877(3) 0.4820(6)
O2A O 1.3367(3) 1.0490(4) 0.4820(6)
O3B O 0.9207(4) 1.3965(3) 0.3389(7)
O3A O 1.4758(3) 1.0793(4) 0.3389(7)
C9B C 0.9381(7) 1.4486(5) 0.5155(10)
C9A C 1.5105(5) 1.0619(7) 0.5155(10)
H11B H 1.0051 1.4743 0.5526
H11A H 1.4692 0.9949 0.5526
H12B H 0.8957 1.4045 0.6108
H12A H 1.5088 1.1043 0.6108
H13B H 0.9249 1.5014 0.5002
H13A H 1.5765 1.0751 0.5002
loop_
_geom_bond_atom_site_label_1
_geom_bond_atom_site_label_2
_geom_bond_site_symmetry_1
_geom_bond_site_symmetry_2
C1 C2 1_555 1_555
C2 H1 1_555 1_555
C3 C1 1_555 1_555
O1 C3 1_555 1_555
N1 C3 1_555 1_555
H2 N1 1_555 1_555
C4 N1 1_555 1_555
H3 C4 1_555 1_555
C5 C4 1_555 1_555
H4 C5 1_555 1_555
C6 C5 1_555 1_555
H5 C6 1_555 1_555
H6 C6 1_555 1_555
H7 C6 1_555 1_555
C7 C5 1_555 1_555
H8 C7 1_555 1_555
H9 C7 1_555 1_555
H10 C7 1_555 1_555
C8 C4 1_555 1_555
O2 C8 1_555 1_555
O3 C8 1_555 1_555
C9 O3 1_555 1_555
H11 C9 1_555 1_555
H12 C9 1_555 1_555
H13 C9 1_555 1_555
C1A C2 1_555 1_555
C1B C2A 1_555 1_555
C2A C1A 1_555 1_555
C2B C1 1_555 1_555
H1B C2B 1_555 1_555
H1A C2A 1_555 1_555
C3B C1B 1_555 1_555
C3A C1A 1_555 1_555
O1B C3B 1_555 1_555
O1A C3A 1_555 1_555
N1B C3B 1_555 1_555
N1A C3A 1_555 1_555
H2B N1B 1_555 1_555
H2A N1A 1_555 1_555
C4B N1B 1_555 1_555
C4A N1A 1_555 1_555
H3B C4B 1_555 1_555
H3A C4A 1_555 1_555
C5B C4B 1_555 1_555
C5A C4A 1_555 1_555
H4B C5B 1_555 1_555
H4A C5A 1_555 1_555
C6B C5B 1_555 1_555
C6A C5A 1_555 1_555
H5B C6B 1_555 1_555
H5A C6A 1_555 1_555
H6B C6B 1_555 1_555
H6A C6A 1_555 1_555
H7B C6B 1_555 1_555
H7A C6A 1_555 1_555
C7B C5B 1_555 1_555
C7A C5A 1_555 1_555
H8B C7B 1_555 1_555
H8A C7A 1_555 1_555
H9B C7B 1_555 1_555
H9A C7A 1_555 1_555
H10B C7B 1_555 1_555
H10A C7A 1_555 1_555
C8B C4B 1_555 1_555
C8A C4A 1_555 1_555
O2B C8B 1_555 1_555
O2A C8A 1_555 1_555
O3B C8B 1_555 1_555
O3A C8A 1_555 1_555
C9B O3B 1_555 1_555
C9A O3A 1_555 1_555
H11B C9B 1_555 1_555
H11A C9A 1_555 1_555
H12B C9B 1_555 1_555
H12A C9A 1_555 1_555
H13B C9B 1_555 1_555
H13A C9A 1_555 1_555
C1B C2B 1_555 1_555

#END
