
#######################################################################
#
#                 Cambridge Crystallographic Data Centre
#                                CCDC 
#
#######################################################################
#
# If this CIF has been generated from an entry in the Cambridge 
# Structural Database, then it will include bibliographic, chemical, 
# crystal, experimental, refinement or atomic coordinate data resulting 
# from the CCDC's data processing and validation procedures.
#
#######################################################################

data_YEMKIN
_chemical_formula_moiety         'C20 H17 N2 O4 1+,Cl1 O4 1-'
_chemical_name_systematic        
"4-ethyl-4-hydroxy-3,14-dioxo-3,4,12,14-tetrahydro-1H-pyrano[3',4':6,7]indolizino[1,2-b]quinolin-6-ium perchlorate"
_symmetry_cell_setting           monoclinic
_symmetry_space_group_name_H-M   'P 21'
_symmetry_Int_Tables_number      4
_space_group_name_Hall           'P 2yb'
loop_
_symmetry_equiv_pos_site_id
_symmetry_equiv_pos_as_xyz
1 x,y,z
2 -x,1/2+y,-z
_cell_length_a                   7.1070(14)
_cell_length_b                   16.386(3)
_cell_length_c                   8.2850(17)
_cell_angle_alpha                90
_cell_angle_beta                 94.31(3)
_cell_angle_gamma                90
_cell_volume                     962.104
_cell_formula_units_Z            2
loop_
_atom_site_label
_atom_site_type_symbol
_atom_site_fract_x
_atom_site_fract_y
_atom_site_fract_z
N1 N 0.3736(6) 0.8574(3) 0.7696(4)
O1 O -0.1887(5) 0.7787(3) 0.4632(4)
C1 C 0.1944(7) 0.8265(3) 0.4733(5)
C2 C 0.1178(7) 0.8006(3) 0.6104(5)
N2 N 0.7516(6) 0.9606(3) 0.5970(5)
H1 H 0.7289 0.9633 0.4937
O2 O -0.2274(6) 0.8278(4) 0.2185(6)
O3 O 0.1432(5) 0.8623(2) 0.1992(4)
H2 H 0.1397 0.8413 0.1092
C3 C -0.0633(7) 0.7535(3) 0.6006(6)
H3 H -0.0359 0.6957 0.5912
H4 H -0.1258 0.7615 0.6995
O4 O 0.1358(5) 0.7988(3) 0.8974(4)
C4 C -0.1186(7) 0.8055(3) 0.3261(6)
C5 C 0.0937(7) 0.8040(3) 0.3131(5)
C6 C 0.3667(7) 0.8704(3) 0.4816(5)
H5 H 0.4191 0.8887 0.3887
C7 C 0.4515(7) 0.8842(3) 0.6308(6)
C8 C 0.2043(7) 0.8176(3) 0.7693(5)
C9 C 0.6262(7) 0.9240(3) 0.6849(6)
C10 C 0.6537(7) 0.9204(3) 0.8543(6)
C11 C 0.4933(8) 0.8755(4) 0.9186(6)
H6 H 0.5357 0.8258 0.9737
H7 H 0.4271 0.9091 0.9923
C12 C 0.9135(7) 0.9936(3) 0.6648(6)
C13 C 0.9451(8) 0.9930(3) 0.8380(7)
C14 C 0.8135(7) 0.9544(3) 0.9290(6)
H8 H 0.8345 0.9518 1.0410
C15 C 1.0488(8) 1.0277(3) 0.5704(7)
H9 H 1.0302 1.0272 0.4580
C16 C 1.2082(8) 1.0618(4) 0.6443(9)
H10 H 1.2991 1.0837 0.5819
C17 C 1.2359(9) 1.0638(4) 0.8138(8)
H11 H 1.3417 1.0899 0.8625
C18 C 1.1114(8) 1.0286(4) 0.9069(8)
H12 H 1.1362 1.0280 1.0188
C19 C 0.1451(8) 0.7164(3) 0.2625(7)
H13 H 0.1020 0.6786 0.3418
H14 H 0.0769 0.7042 0.1595
C20 C 0.3519(9) 0.7017(4) 0.2466(8)
H15 H 0.3708 0.6461 0.2153
H16 H 0.4211 0.7121 0.3486
H17 H 0.3958 0.7375 0.1658
Cl1 Cl 0.4234(3) 0.58691(12) 0.74469(19)
O5 O 0.615(2) 0.5905(16) 0.7304(19)
O6 O 0.407(2) 0.6080(7) 0.8937(10)
O7 O 0.3538(18) 0.6266(6) 0.6132(13)
O8 O 0.3653(13) 0.5006(4) 0.7213(7)
loop_
_geom_bond_atom_site_label_1
_geom_bond_atom_site_label_2
_geom_bond_site_symmetry_1
_geom_bond_site_symmetry_2
N1 C7 1_555 1_555
O1 C3 1_555 1_555
C1 C2 1_555 1_555
C2 C3 1_555 1_555
N2 H1 1_555 1_555
O2 C4 1_555 1_555
O3 H2 1_555 1_555
C3 H3 1_555 1_555
H4 C3 1_555 1_555
O4 C8 1_555 1_555
C4 O1 1_555 1_555
C5 C1 1_555 1_555
C6 C1 1_555 1_555
H5 C6 1_555 1_555
C7 C6 1_555 1_555
C8 N1 1_555 1_555
C9 N2 1_555 1_555
C10 C9 1_555 1_555
C11 N1 1_555 1_555
H6 C11 1_555 1_555
H7 C11 1_555 1_555
C12 N2 1_555 1_555
C13 C12 1_555 1_555
C14 C10 1_555 1_555
H8 C14 1_555 1_555
C15 C12 1_555 1_555
H9 C15 1_555 1_555
C16 C15 1_555 1_555
H10 C16 1_555 1_555
C17 C16 1_555 1_555
H11 C17 1_555 1_555
C18 C13 1_555 1_555
H12 C18 1_555 1_555
C19 C5 1_555 1_555
H13 C19 1_555 1_555
H14 C19 1_555 1_555
C20 C19 1_555 1_555
H15 C20 1_555 1_555
H16 C20 1_555 1_555
H17 C20 1_555 1_555
Cl1 O5 1_555 1_555
O6 Cl1 1_555 1_555
O7 Cl1 1_555 1_555
O8 Cl1 1_555 1_555
C2 C8 1_555 1_555
O3 C5 1_555 1_555
C4 C5 1_555 1_555
C7 C9 1_555 1_555
C10 C11 1_555 1_555
C13 C14 1_555 1_555
C17 C18 1_555 1_555

#END
