
#######################################################################
#
#                 Cambridge Crystallographic Data Centre
#                                CCDC 
#
#######################################################################
#
# If this CIF has been generated from an entry in the Cambridge 
# Structural Database, then it will include bibliographic, chemical, 
# crystal, experimental, refinement or atomic coordinate data resulting 
# from the CCDC's data processing and validation procedures.
#
#######################################################################

data_YENBEB
_chemical_formula_moiety         'C31 H36 N1 O2 1+,1.5(H2 O1),Br1 1-'
_chemical_name_systematic        
'1-{11-[(anthracen-9-yl)methoxy]-11-oxoundecyl}pyridin-1-ium bromide sesquihydrate'
_symmetry_cell_setting           triclinic
_symmetry_space_group_name_H-M   'P -1'
_symmetry_Int_Tables_number      2
_space_group_name_Hall           '-P 1'
loop_
_symmetry_equiv_pos_site_id
_symmetry_equiv_pos_as_xyz
1 x,y,z
2 -x,-y,-z
_cell_length_a                   8.5877(12)
_cell_length_b                   9.7442(13)
_cell_length_c                   35.530(5)
_cell_angle_alpha                88.071(3)
_cell_angle_beta                 88.597(3)
_cell_angle_gamma                69.596(3)
_cell_volume                     2784.78
_cell_formula_units_Z            4
loop_
_atom_site_label
_atom_site_type_symbol
_atom_site_fract_x
_atom_site_fract_y
_atom_site_fract_z
Br1 Br 0.74080(4) 0.41153(3) 0.40500(2)
Br2 Br 0.23692(4) 0.91396(3) 0.40265(2)
O1 O 0.9058(3) 0.4679(2) 0.05273(6)
O2 O 1.0726(2) 0.2314(2) 0.05829(6)
N1 N 0.6318(3) 1.0790(2) 0.41280(6)
C1 C 0.9841(4) 0.3640(4) 0.07246(9)
C2 C 0.9934(4) 0.3620(3) 0.11434(8)
C3 C 0.8891(4) 0.5060(3) 0.13162(8)
C4 C 0.9036(4) 0.5020(3) 0.17425(8)
C5 C 0.7974(4) 0.6432(3) 0.19250(8)
C6 C 0.8327(3) 0.6461(3) 0.23403(8)
C7 C 0.7136(3) 0.7781(3) 0.25419(8)
C8 C 0.7622(3) 0.7881(3) 0.29434(8)
C9 C 0.6485(3) 0.9234(3) 0.31410(8)
C10 C 0.6987(4) 0.9281(3) 0.35466(8)
C11 C 0.5988(3) 1.0735(3) 0.37210(8)
C12 C 0.7885(3) 1.0321(3) 0.42524(8)
C13 C 0.8195(4) 1.0381(3) 0.46277(8)
C14 C 0.6899(4) 1.0950(3) 0.48798(9)
C15 C 0.5296(4) 1.1461(3) 0.47428(9)
C16 C 0.5033(4) 1.1361(3) 0.43679(8)
C17 C 1.0417(4) 0.2115(4) 0.01893(8)
C18 C 0.8713(4) 0.2048(3) 0.01439(8)
C19 C 0.7566(4) 0.2988(3) -0.01146(9)
C20 C 0.7954(4) 0.4029(3) -0.03553(9)
C21 C 0.6774(4) 0.4933(4) -0.05976(9)
C22 C 0.5184(4) 0.4875(4) -0.06154(9)
C23 C 0.4766(4) 0.3873(4) -0.03931(9)
C24 C 0.5940(4) 0.2918(3) -0.01398(8)
C25 C 0.5492(4) 0.1929(4) 0.00921(9)
C26 C 0.6617(4) 0.0978(3) 0.03417(8)
C27 C 0.6166(4) -0.0084(4) 0.05693(9)
C28 C 0.7287(4) -0.1065(4) 0.07974(10)
C29 C 0.8918(4) -0.1033(4) 0.08144(9)
C30 C 0.9386(4) -0.0028(3) 0.06135(8)
C31 C 0.8243(4) 0.1017(3) 0.03660(8)
H1 H 1.1107 0.3384 0.1215
H2 H 0.9558 0.2833 0.1249
H3 H 0.7712 0.5288 0.1250
H4 H 0.9250 0.5853 0.1208
H5 H 0.8707 0.4207 0.1849
H6 H 1.0212 0.4812 0.1807
H7 H 0.8176 0.7266 0.1793
H8 H 0.6787 0.6562 0.1895
H9 H 0.9474 0.6455 0.2367
H10 H 0.8268 0.5557 0.2466
H11 H 0.7096 0.8684 0.2400
H12 H 0.6006 0.7725 0.2542
H13 H 0.8772 0.7887 0.2944
H14 H 0.7611 0.6998 0.3088
H15 H 0.6517 1.0122 0.3002
H16 H 0.5329 0.9243 0.3138
H17 H 0.6804 0.8472 0.3696
H18 H 0.8185 0.9138 0.3554
H19 H 0.6251 1.1530 0.3584
H20 H 0.4790 1.0917 0.3689
H21 H 0.8785 0.9945 0.4080
H22 H 0.9307 1.0030 0.4714
H23 H 0.7100 1.0990 0.5140
H24 H 0.4381 1.1880 0.4909
H25 H 0.3930 1.1698 0.4276
H26 H 1.1258 0.1197 0.0100
H27 H 1.0525 0.2938 0.0033
H28 H 0.9028 0.4102 -0.0349
H29 H 0.7059 0.5615 -0.0757
H30 H 0.4390 0.5525 -0.0780
H31 H 0.3688 0.3816 -0.0408
H32 H 0.4398 0.1904 0.0080
H33 H 0.5067 -0.0097 0.0559
H34 H 0.6979 -0.1766 0.0944
H35 H 0.9706 -0.1733 0.0971
H36 H 1.0481 -0.0017 0.0637
O3 O 0.1538(3) 0.7308(2) 0.15296(6)
O4 O 0.4248(2) 0.5900(2) 0.15613(6)
N2 N 0.1338(3) 1.5793(2) 0.41195(6)
C32 C 0.2974(4) 0.7110(3) 0.14500(8)
C33 C 0.3584(4) 0.8149(3) 0.12220(8)
C34 C 0.2893(4) 0.9689(3) 0.13763(8)
C35 C 0.3493(4) 0.9768(3) 0.17718(8)
C36 C 0.2659(4) 1.1253(3) 0.19500(8)
C37 C 0.3061(4) 1.1259(3) 0.23640(8)
C38 C 0.2018(3) 1.2662(3) 0.25562(8)
C39 C 0.2458(4) 1.2714(3) 0.29661(8)
C40 C 0.1402(4) 1.4129(3) 0.31543(8)
C41 C 0.1907(4) 1.4203(3) 0.35565(8)
C42 C 0.0979(3) 1.5691(3) 0.37151(8)
C43 C 0.2925(3) 1.5400(3) 0.42319(8)
C44 C 0.3272(4) 1.5471(3) 0.46027(8)
C45 C 0.1983(4) 1.5990(3) 0.48637(9)
C46 C 0.0366(4) 1.6424(3) 0.47401(8)
C47 C 0.0071(4) 1.6307(3) 0.43683(8)
C48 C 0.3806(4) 0.4782(4) 0.17764(9)
C49 C 0.4911(4) 0.4263(3) 0.21098(8)
C50 C 0.4536(4) 0.5113(3) 0.24347(9)
C51 C 0.3197(4) 0.6454(4) 0.24600(9)
C52 C 0.2858(4) 0.7263(4) 0.27736(10)
C53 C 0.3888(5) 0.6763(4) 0.31006(10)
C54 C 0.5176(4) 0.5482(4) 0.30911(9)
C55 C 0.5553(4) 0.4612(4) 0.27625(9)
C56 C 0.6888(4) 0.3274(4) 0.27505(9)
C57 C 0.7274(4) 0.2434(4) 0.24338(10)
C58 C 0.8636(4) 0.1087(4) 0.24306(11)
C59 C 0.9046(5) 0.0257(4) 0.21232(13)
C60 C 0.8116(5) 0.0744(4) 0.17914(12)
C61 C 0.6773(4) 0.2030(4) 0.17739(10)
C62 C 0.6276(4) 0.2937(3) 0.20990(9)
H37 H 0.3240 0.8173 0.0957
H38 H 0.4813 0.7797 0.1226
H39 H 0.3230 1.0364 0.1206
H40 H 0.1664 1.0022 0.1380
H41 H 0.4708 0.9550 0.1762
H42 H 0.3280 0.9005 0.1934
H43 H 0.3016 1.1992 0.1811
H44 H 0.1441 1.1544 0.1924
H45 H 0.4251 1.1131 0.2387
H46 H 0.2877 1.0417 0.2496
H47 H 0.2162 1.3507 0.2416
H48 H 0.0832 1.2767 0.2543
H49 H 0.3643 1.2612 0.2980
H50 H 0.2311 1.1873 0.3107
H51 H 0.1504 1.4974 0.3007
H52 H 0.0222 1.4207 0.3152
H53 H 0.1668 1.3439 0.3713
H54 H 0.3117 1.4009 0.3564
H55 H 0.1282 1.6441 0.3567
H56 H -0.0229 1.5911 0.3687
H57 H 0.3807 1.5073 0.4053
H58 H 0.4393 1.5165 0.4682
H59 H 0.2209 1.6045 0.5122
H60 H -0.0535 1.6801 0.4912
H61 H -0.1041 1.6591 0.4284
H62 H 0.3922 0.3945 0.1614
H63 H 0.2633 0.5193 0.1862
H64 H 0.2504 0.6803 0.2248
H65 H 0.1943 0.8159 0.2779
H66 H 0.3662 0.7331 0.3321
H67 H 0.5846 0.5150 0.3308
H68 H 0.7548 0.2936 0.2968
H69 H 0.9276 0.0762 0.2652
H70 H 0.9951 -0.0646 0.2129
H71 H 0.8427 0.0165 0.1574
H72 H 0.6171 0.2320 0.1547
O5 O 0.6069(3) 0.7422(3) 0.44181(7)
H73 H 0.5180(20) 0.7880(30) 0.4303(8)
H74 H 0.6240(50) 0.6600(20) 0.4318(10)
O6 O 1.1084(3) 0.2349(3) 0.44486(7)
H75 H 1.0180(20) 0.2790(30) 0.4340(8)
H76 H 1.1320(40) 0.1540(20) 0.4346(9)
O7 O 0.9488(4) 0.1384(3) 0.34496(8)
H77 H 0.8970(40) 0.2110(30) 0.3605(9)
H78 H 1.0290(40) 0.0860(40) 0.3595(9)
loop_
_geom_bond_atom_site_label_1
_geom_bond_atom_site_label_2
_geom_bond_site_symmetry_1
_geom_bond_site_symmetry_2
O1 C1 1_555 1_555
O2 C1 1_555 1_555
N1 C11 1_555 1_555
C1 C2 1_555 1_555
C2 C3 1_555 1_555
C3 C4 1_555 1_555
C4 C5 1_555 1_555
C5 C6 1_555 1_555
C6 C7 1_555 1_555
C7 C8 1_555 1_555
C8 C9 1_555 1_555
C9 C10 1_555 1_555
C10 C11 1_555 1_555
C11 H19 1_555 1_555
C12 N1 1_555 1_555
C13 C12 1_555 1_555
C14 C13 1_555 1_555
C15 C14 1_555 1_555
C16 N1 1_555 1_555
C17 O2 1_555 1_555
C18 C17 1_555 1_555
C19 C18 1_555 1_555
C20 C19 1_555 1_555
C21 C20 1_555 1_555
C22 C21 1_555 1_555
C23 C22 1_555 1_555
C24 C19 1_555 1_555
C25 C24 1_555 1_555
C26 C25 1_555 1_555
C27 C26 1_555 1_555
C28 C27 1_555 1_555
C29 C28 1_555 1_555
C30 C29 1_555 1_555
C31 C18 1_555 1_555
H1 C2 1_555 1_555
H2 C2 1_555 1_555
H3 C3 1_555 1_555
H4 C3 1_555 1_555
H5 C4 1_555 1_555
H6 C4 1_555 1_555
H7 C5 1_555 1_555
H8 C5 1_555 1_555
H9 C6 1_555 1_555
H10 C6 1_555 1_555
H11 C7 1_555 1_555
H12 C7 1_555 1_555
H13 C8 1_555 1_555
H14 C8 1_555 1_555
H15 C9 1_555 1_555
H16 C9 1_555 1_555
H17 C10 1_555 1_555
H18 C10 1_555 1_555
H20 C11 1_555 1_555
H21 C12 1_555 1_555
H22 C13 1_555 1_555
H23 C14 1_555 1_555
H24 C15 1_555 1_555
H25 C16 1_555 1_555
H26 C17 1_555 1_555
H27 C17 1_555 1_555
H28 C20 1_555 1_555
H29 C21 1_555 1_555
H30 C22 1_555 1_555
H31 C23 1_555 1_555
H32 C25 1_555 1_555
H33 C27 1_555 1_555
H34 C28 1_555 1_555
H35 C29 1_555 1_555
H36 C30 1_555 1_555
O3 C32 1_555 1_555
O4 C32 1_555 1_555
N2 C42 1_555 1_555
C32 C33 1_555 1_555
C33 C34 1_555 1_555
C34 C35 1_555 1_555
C35 C36 1_555 1_555
C36 C37 1_555 1_555
C37 C38 1_555 1_555
C38 C39 1_555 1_555
C39 C40 1_555 1_555
C40 C41 1_555 1_555
C41 C42 1_555 1_555
C42 H55 1_555 1_555
C43 N2 1_555 1_555
C44 C43 1_555 1_555
C45 C44 1_555 1_555
C46 C45 1_555 1_555
C47 N2 1_555 1_555
C48 O4 1_555 1_555
C49 C48 1_555 1_555
C50 C49 1_555 1_555
C51 C50 1_555 1_555
C52 C51 1_555 1_555
C53 C52 1_555 1_555
C54 C53 1_555 1_555
C55 C50 1_555 1_555
C56 C55 1_555 1_555
C57 C56 1_555 1_555
C58 C57 1_555 1_555
C59 C58 1_555 1_555
C60 C59 1_555 1_555
C61 C60 1_555 1_555
C62 C49 1_555 1_555
H37 C33 1_555 1_555
H38 C33 1_555 1_555
H39 C34 1_555 1_555
H40 C34 1_555 1_555
H41 C35 1_555 1_555
H42 C35 1_555 1_555
H43 C36 1_555 1_555
H44 C36 1_555 1_555
H45 C37 1_555 1_555
H46 C37 1_555 1_555
H47 C38 1_555 1_555
H48 C38 1_555 1_555
H49 C39 1_555 1_555
H50 C39 1_555 1_555
H51 C40 1_555 1_555
H52 C40 1_555 1_555
H53 C41 1_555 1_555
H54 C41 1_555 1_555
H56 C42 1_555 1_555
H57 C43 1_555 1_555
H58 C44 1_555 1_555
H59 C45 1_555 1_555
H60 C46 1_555 1_555
H61 C47 1_555 1_555
H62 C48 1_555 1_555
H63 C48 1_555 1_555
H64 C51 1_555 1_555
H65 C52 1_555 1_555
H66 C53 1_555 1_555
H67 C54 1_555 1_555
H68 C56 1_555 1_555
H69 C58 1_555 1_555
H70 C59 1_555 1_555
H71 C60 1_555 1_555
H72 C61 1_555 1_555
O5 H73 1_555 1_555
H74 O5 1_555 1_555
O6 H75 1_555 1_555
H76 O6 1_555 1_555
O7 H77 1_555 1_555
H78 O7 1_555 1_555
C15 C16 1_555 1_555
C23 C24 1_555 1_555
C26 C31 1_555 1_555
C30 C31 1_555 1_555
C46 C47 1_555 1_555
C54 C55 1_555 1_555
C57 C62 1_555 1_555
C61 C62 1_555 1_555

#END
