
#######################################################################
#
#                 Cambridge Crystallographic Data Centre
#                                CCDC 
#
#######################################################################
#
# If this CIF has been generated from an entry in the Cambridge 
# Structural Database, then it will include bibliographic, chemical, 
# crystal, experimental, refinement or atomic coordinate data resulting 
# from the CCDC's data processing and validation procedures.
#
#######################################################################

data_YENDEC
_chemical_formula_moiety         'C4 H8 N2 O4'
_chemical_name_systematic        (R,S)-Tartaramide
_symmetry_cell_setting           monoclinic
_symmetry_space_group_name_H-M   'P 21/n'
_symmetry_Int_Tables_number      14
_space_group_name_Hall           '-P 2yn'
loop_
_symmetry_equiv_pos_site_id
_symmetry_equiv_pos_as_xyz
1 x,y,z
2 1/2-x,1/2+y,1/2-z
3 -x,-y,-z
4 1/2+x,1/2-y,1/2+z
_cell_length_a                   5.08650(10)
_cell_length_b                   9.8622(2)
_cell_length_c                   12.3611(2)
_cell_angle_alpha                90
_cell_angle_beta                 100.368(2)
_cell_angle_gamma                90
_cell_volume                     609.959
_exptl_crystal_colour            colorless
_exptl_crystal_description       plate
_cell_formula_units_Z            4
loop_
_atom_site_label
_atom_site_type_symbol
_atom_site_fract_x
_atom_site_fract_y
_atom_site_fract_z
C1 C 0.0764(2) 0.25574(11) 0.01837(8)
N1 N 0.0348(2) 0.15560(11) -0.05353(9)
O1 O 0.24743(18) 0.34458(9) 0.01765(7)
C2 C -0.1045(2) 0.26094(11) 0.10372(9)
O2 O -0.26744(18) 0.14411(9) 0.09452(8)
C3 C 0.0598(2) 0.27863(11) 0.22001(8)
O3 O -0.09653(19) 0.34158(8) 0.28973(7)
C4 C 0.1684(2) 0.14234(11) 0.26402(9)
N2 N 0.0867(2) 0.09285(10) 0.35132(8)
O4 O 0.32883(19) 0.08515(9) 0.21447(7)
H1 H 0.159(3) 0.0162(17) 0.3809(12)
H2 H 0.137(3) 0.1484(16) -0.1036(14)
H3 H -0.028(3) 0.1379(16) 0.3833(13)
H4 H -0.094(3) 0.0985(17) -0.0500(13)
H5 H 0.214(3) 0.3336(14) 0.2157(11)
H6 H -0.208(3) 0.3417(15) 0.0876(12)
H7 H -0.397(4) 0.158(2) 0.1272(16)
H8 H -0.036(4) 0.427(2) 0.2949(17)
loop_
_geom_bond_atom_site_label_1
_geom_bond_atom_site_label_2
_geom_bond_site_symmetry_1
_geom_bond_site_symmetry_2
C1 N1 1_555 1_555
N1 H2 1_555 1_555
O1 C1 1_555 1_555
C2 C1 1_555 1_555
O2 C2 1_555 1_555
C3 C2 1_555 1_555
O3 C3 1_555 1_555
C4 C3 1_555 1_555
N2 C4 1_555 1_555
O4 C4 1_555 1_555
H1 N2 1_555 1_555
H3 N2 1_555 1_555
H4 N1 1_555 1_555
H5 C3 1_555 1_555
H6 C2 1_555 1_555
H7 O2 1_555 1_555
H8 O3 1_555 1_555

#END
