
#######################################################################
#
#                 Cambridge Crystallographic Data Centre
#                                CCDC 
#
#######################################################################
#
# If this CIF has been generated from an entry in the Cambridge 
# Structural Database, then it will include bibliographic, chemical, 
# crystal, experimental, refinement or atomic coordinate data resulting 
# from the CCDC's data processing and validation procedures.
#
#######################################################################

data_YENSAO
_chemical_formula_moiety         'C23 H20 N4 S1'
_chemical_name_systematic        
(E)-N-benzylidene-3-(benzylthio)-5-p-tolyl-4H-1,2,4-triazol-4-amine
_symmetry_cell_setting           monoclinic
_symmetry_space_group_name_H-M   'P 21/n'
_symmetry_Int_Tables_number      14
_space_group_name_Hall           '-P 2yn'
loop_
_symmetry_equiv_pos_site_id
_symmetry_equiv_pos_as_xyz
1 x,y,z
2 1/2-x,1/2+y,1/2-z
3 -x,-y,-z
4 1/2+x,1/2-y,1/2+z
_cell_length_a                   11.439(3)
_cell_length_b                   8.868(2)
_cell_length_c                   20.557(5)
_cell_angle_alpha                90
_cell_angle_beta                 104.542(4)
_cell_angle_gamma                90
_cell_volume                     2018.52
_exptl_crystal_colour            colorless
_exptl_crystal_description       block
_cell_formula_units_Z            4
loop_
_atom_site_label
_atom_site_type_symbol
_atom_site_fract_x
_atom_site_fract_y
_atom_site_fract_z
S1 S 0.39452(6) 0.19481(7) 1.06911(3)
N1 N 0.25824(15) 0.0537(2) 0.92820(8)
N2 N 0.36849(15) 0.12915(18) 0.93655(8)
N3 N 0.52124(16) 0.2780(2) 0.97885(9)
N4 N 0.51494(16) 0.2532(2) 0.91147(9)
C1 C 0.2988(2) -0.0072(3) 0.60699(12)
H1 H 0.3574 0.0344 0.5858
H2 H 0.2203 0.0316 0.5855
H3 H 0.2984 -0.1150 0.6030
C2 C 0.3308(2) 0.0362(3) 0.68024(11)
C3 C 0.2611(2) -0.0092(3) 0.72176(12)
H4 H 0.1928 -0.0674 0.7043
C4 C 0.2892(2) 0.0290(3) 0.78859(12)
H5 H 0.2401 -0.0046 0.8154
C5 C 0.38836(18) 0.1159(2) 0.81662(10)
C6 C 0.4582(2) 0.1619(3) 0.77435(13)
H6 H 0.5260 0.2214 0.7913
C7 C 0.4294(2) 0.1216(3) 0.70820(13)
H7 H 0.4789 0.1536 0.6813
C8 C 0.42279(18) 0.1655(2) 0.88644(10)
C9 C 0.43295(19) 0.2019(2) 0.99276(11)
C10 C 0.4673(3) 0.3600(3) 1.11014(13)
H8 H 0.5544 0.3476 1.1216
H9 H 0.4464 0.4473 1.0811
C11 C 0.4237(2) 0.3792(3) 1.17174(12)
C12 C 0.4786(3) 0.3052(3) 1.22924(14)
H10 H 0.5454 0.2450 1.2299
C13 C 0.4384(4) 0.3169(4) 1.28539(16)
H11 H 0.4783 0.2654 1.3240
C14 C 0.3431(4) 0.4004(4) 1.28632(17)
H12 H 0.3162 0.4062 1.3253
C15 C 0.2842(3) 0.4778(4) 1.2307(2)
H13 H 0.2173 0.5369 1.2312
C16 C 0.3261(3) 0.4670(3) 1.17264(16)
H14 H 0.2872 0.5200 1.1343
C17 C 0.25665(19) -0.0428(2) 0.97358(11)
H15 H 0.3272 -0.0611 1.0067
C18 C 0.14831(19) -0.1250(2) 0.97532(10)
C19 C 0.1537(2) -0.2272(2) 1.02667(11)
H16 H 0.2262 -0.2427 1.0586
C20 C 0.0524(2) -0.3060(3) 1.03067(12)
H17 H 0.0562 -0.3740 1.0656
C21 C -0.0535(2) -0.2844(3) 0.98356(12)
H18 H -0.1220 -0.3380 0.9863
C22 C -0.0595(2) -0.1838(3) 0.93209(12)
H19 H -0.1320 -0.1696 0.9000
C23 C 0.0407(2) -0.1045(2) 0.92790(11)
H20 H 0.0362 -0.0365 0.8929
loop_
_geom_bond_atom_site_label_1
_geom_bond_atom_site_label_2
_geom_bond_site_symmetry_1
_geom_bond_site_symmetry_2
S1 C9 1_555 1_555
N1 N2 1_555 1_555
N2 C8 1_555 1_555
N3 N4 1_555 1_555
N4 C8 1_555 1_555
C1 H1 1_555 1_555
H2 C1 1_555 1_555
H3 C1 1_555 1_555
C2 C1 1_555 1_555
C3 C2 1_555 1_555
H4 C3 1_555 1_555
C4 C3 1_555 1_555
H5 C4 1_555 1_555
C5 C4 1_555 1_555
C6 C5 1_555 1_555
H6 C6 1_555 1_555
C7 C2 1_555 1_555
H7 C7 1_555 1_555
C8 C5 1_555 1_555
C9 N2 1_555 1_555
C10 S1 1_555 1_555
H8 C10 1_555 1_555
H9 C10 1_555 1_555
C11 C10 1_555 1_555
C12 C11 1_555 1_555
H10 C12 1_555 1_555
C13 C12 1_555 1_555
H11 C13 1_555 1_555
C14 C13 1_555 1_555
H12 C14 1_555 1_555
C15 C14 1_555 1_555
H13 C15 1_555 1_555
C16 C11 1_555 1_555
H14 C16 1_555 1_555
C17 N1 1_555 1_555
H15 C17 1_555 1_555
C18 C17 1_555 1_555
C19 C18 1_555 1_555
H16 C19 1_555 1_555
C20 C19 1_555 1_555
H17 C20 1_555 1_555
C21 C20 1_555 1_555
H18 C21 1_555 1_555
C22 C21 1_555 1_555
H19 C22 1_555 1_555
C23 C18 1_555 1_555
H20 C23 1_555 1_555
N3 C9 1_555 1_555
C6 C7 1_555 1_555
C15 C16 1_555 1_555
C22 C23 1_555 1_555

#END
