
#######################################################################
#
#                 Cambridge Crystallographic Data Centre
#                                CCDC 
#
#######################################################################
#
# If this CIF has been generated from an entry in the Cambridge 
# Structural Database, then it will include bibliographic, chemical, 
# crystal, experimental, refinement or atomic coordinate data resulting 
# from the CCDC's data processing and validation procedures.
#
#######################################################################

data_YENTIU
_chemical_formula_moiety         'C32 H54 N4 O12 S1'
_chemical_name_systematic        
2,2'-Sulfonyl-bis(3-(t-butoxycarbonylmethylamino)-(E,E)-N-(2-(tetrahydropyranyloxy)ethyl)propenamide)
_symmetry_cell_setting           triclinic
_symmetry_space_group_name_H-M   'P -1'
_symmetry_Int_Tables_number      2
_space_group_name_Hall           '-P 1'
loop_
_symmetry_equiv_pos_site_id
_symmetry_equiv_pos_as_xyz
1 x,y,z
2 -x,-y,-z
_cell_length_a                   12.258(4)
_cell_length_b                   12.553(4)
_cell_length_c                   13.541(4)
_cell_angle_alpha                81.79(2)
_cell_angle_beta                 76.02(2)
_cell_angle_gamma                68.62(2)
_cell_volume                     1879.3
_exptl_crystal_colour            white
_chemical_melting_point          127-127.5deg.C
_cell_formula_units_Z            2
loop_
_atom_site_label
_atom_site_type_symbol
_atom_site_fract_x
_atom_site_fract_y
_atom_site_fract_z
S1 S 0.0966(2) 0.1336(1) 0.5927(1)
O1 O 0.1504(4) 0.0115(3) 0.5815(3)
O2 O 0.0121(4) 0.1717(3) 0.6863(3)
C1 C 0.0265(5) 0.1935(5) 0.4911(4)
C2 C 0.0566(5) 0.1249(5) 0.4110(4)
N1 N 0.0224(4) 0.1568(4) 0.3223(3)
C3 C 0.0568(6) 0.0788(5) 0.2430(4)
C4 C 0.0761(6) 0.1364(6) 0.1405(5)
O3 O 0.0420(6) 0.2385(5) 0.1251(3)
O4 O 0.1288(4) 0.0611(3) 0.0687(3)
C5 C 0.1538(8) 0.0966(7) -0.0398(5)
C6 C 0.0363(11) 0.1607(9) -0.0715(6)
C7 C 0.2320(11) 0.1664(10) -0.0613(7)
C8 C 0.2084(11) -0.0114(8) -0.0915(6)
C9 C 0.2096(6) 0.1902(5) 0.5815(4)
C10 C 0.1872(6) 0.2738(5) 0.6470(4)
N2 N 0.2620(5) 0.3300(4) 0.6457(4)
C11 C 0.2374(6) 0.4192(5) 0.7124(4)
C12 C 0.3164(6) 0.4893(5) 0.6648(5)
O5 O 0.3910(4) 0.4640(4) 0.5882(4)
O6 O 0.2930(4) 0.5770(3) 0.7200(3)
C13 C 0.3598(6) 0.6587(5) 0.6871(5)
C14 C 0.3042(7) 0.7430(7) 0.7687(6)
C15 C 0.4908(6) 0.5964(6) 0.6841(6)
C16 C 0.3407(7) 0.7153(6) 0.5825(6)
C17 C -0.0532(5) 0.3125(5) 0.4860(5)
O7 O -0.0854(4) 0.3584(4) 0.4054(3)
N3 N -0.0910(4) 0.3736(4) 0.5709(4)
C18 C -0.1757(7) 0.4889(6) 0.5717(6)
C19 C -0.1636(7) 0.5586(6) 0.6448(5)
O8 O -0.1761(8) 0.5053(5) 0.7405(4)
C20 C -0.1663(12) 0.5632(11) 0.8179(8)
O9 O -0.2635(10) 0.6515(7) 0.8421(6)
C21 C -0.3440(13) 0.5778(16) 0.9078(10)
C22 C -0.2999(13) 0.5351(12) 0.9990(9)
C23 C -0.1844(15) 0.4574(11) 0.9749(12)
C24 C -0.0991(9) 0.4915(9) 0.8881(11)
C25 C 0.3173(6) 0.1573(6) 0.5012(5)
O10 O 0.3863(4) 0.2139(4) 0.4827(4)
N4 N 0.3414(5) 0.0674(5) 0.4471(4)
C26 C 0.4421(7) 0.0322(8) 0.3623(7)
C27 C 0.3988(8) 0.0233(8) 0.2631(7)
O11 O 0.3372(5) -0.0627(5) 0.2868(4)
C28 C 0.4068(9) -0.1743(9) 0.2916(7)
O12 O 0.5013(6) -0.2026(6) 0.2031(6)
C29 C 0.4505(10) -0.1862(10) 0.1114(7)
C30 C 0.3892(8) -0.2708(8) 0.1224(7)
C31 C 0.2862(7) -0.2471(7) 0.2118(6)
C32 C 0.3256(8) -0.2445(7) 0.3068(7)
loop_
_geom_bond_atom_site_label_1
_geom_bond_atom_site_label_2
_geom_bond_site_symmetry_1
_geom_bond_site_symmetry_2
S1 O1 1_555 1_555
O2 S1 1_555 1_555
C1 S1 1_555 1_555
C2 C1 1_555 1_555
N1 C2 1_555 1_555
C3 N1 1_555 1_555
C4 C3 1_555 1_555
O3 C4 1_555 1_555
O4 C4 1_555 1_555
C5 O4 1_555 1_555
C6 C5 1_555 1_555
C7 C5 1_555 1_555
C8 C5 1_555 1_555
C9 S1 1_555 1_555
C10 C9 1_555 1_555
N2 C10 1_555 1_555
C11 N2 1_555 1_555
C12 C11 1_555 1_555
O5 C12 1_555 1_555
O6 C12 1_555 1_555
C13 O6 1_555 1_555
C14 C13 1_555 1_555
C15 C13 1_555 1_555
C16 C13 1_555 1_555
C17 C1 1_555 1_555
O7 C17 1_555 1_555
N3 C17 1_555 1_555
C18 N3 1_555 1_555
C19 C18 1_555 1_555
O8 C19 1_555 1_555
C20 O8 1_555 1_555
O9 C20 1_555 1_555
C21 O9 1_555 1_555
C22 C21 1_555 1_555
C23 C22 1_555 1_555
C24 C20 1_555 1_555
C25 C9 1_555 1_555
O10 C25 1_555 1_555
N4 C25 1_555 1_555
C26 N4 1_555 1_555
C27 C26 1_555 1_555
O11 C27 1_555 1_555
C28 O11 1_555 1_555
O12 C28 1_555 1_555
C29 O12 1_555 1_555
C30 C29 1_555 1_555
C31 C30 1_555 1_555
C32 C28 1_555 1_555
C23 C24 1_555 1_555
C31 C32 1_555 1_555

#END
