
#######################################################################
#
#                 Cambridge Crystallographic Data Centre
#                                CCDC 
#
#######################################################################
#
# If this CIF has been generated from an entry in the Cambridge 
# Structural Database, then it will include bibliographic, chemical, 
# crystal, experimental, refinement or atomic coordinate data resulting 
# from the CCDC's data processing and validation procedures.
#
#######################################################################

data_YENXAT
_chemical_formula_moiety         'C20 H21 N3'
_chemical_name_systematic        
N,N-dimethyl-2,6-bis(4-methylphenyl)pyrimidin-4-amine
_symmetry_cell_setting           orthorhombic
_symmetry_space_group_name_H-M   'P b c a'
_symmetry_Int_Tables_number      61
_space_group_name_Hall           '-P 2ac 2ab'
loop_
_symmetry_equiv_pos_site_id
_symmetry_equiv_pos_as_xyz
1 x,y,z
2 1/2-x,-y,1/2+z
3 -x,1/2+y,1/2-z
4 1/2+x,1/2-y,-z
5 -x,-y,-z
6 1/2+x,y,1/2-z
7 x,1/2-y,1/2+z
8 1/2-x,1/2+y,z
_cell_length_a                   12.2422(16)
_cell_length_b                   7.1996(10)
_cell_length_c                   39.037(5)
_cell_angle_alpha                90
_cell_angle_beta                 90
_cell_angle_gamma                90
_cell_volume                     3440.68
_exptl_crystal_colour            colorless
_exptl_crystal_description       prismatic
_cell_formula_units_Z            8
loop_
_atom_site_label
_atom_site_type_symbol
_atom_site_fract_x
_atom_site_fract_y
_atom_site_fract_z
N1 N 0.68796(14) 0.0993(3) 0.09334(4)
N2 N 0.57627(15) 0.0463(3) 0.14241(4)
N3 N 0.87524(15) 0.0998(3) 0.09666(5)
C1 C 0.77849(17) 0.0797(3) 0.11265(5)
C2 C 0.76975(17) 0.0410(3) 0.14778(5)
H1 H 0.8317 0.0254 0.1613
C3 C 0.66729(17) 0.0267(3) 0.16157(5)
C4 C 0.59221(17) 0.0811(3) 0.10917(5)
C5 C 0.49294(18) 0.1011(3) 0.08759(6)
C6 C 0.5009(2) 0.1356(4) 0.05278(6)
H2 H 0.5694 0.1464 0.0427
C7 C 0.4081(2) 0.1541(4) 0.03299(7)
H3 H 0.4156 0.1769 0.0097
C8 C 0.3051(2) 0.1399(4) 0.04665(7)
C9 C 0.2981(2) 0.1057(4) 0.08149(8)
H4 H 0.2295 0.0952 0.0916
C10 C 0.38968(19) 0.0867(4) 0.10160(6)
H5 H 0.3820 0.0639 0.1249
C11 C 0.2041(2) 0.1577(5) 0.02488(8)
H6 H 0.2246 0.1905 0.0019
H7 H 0.1576 0.2525 0.0342
H8 H 0.1657 0.0415 0.0246
C12 C 0.65013(17) -0.0134(3) 0.19860(5)
C13 C 0.55324(19) -0.0930(3) 0.20983(6)
H9 H 0.4988 -0.1209 0.1940
C14 C 0.5363(2) -0.1316(4) 0.24406(6)
H10 H 0.4710 -0.1863 0.2509
C15 C 0.6147(2) -0.0905(4) 0.26836(6)
C16 C 0.7109(2) -0.0103(4) 0.25720(6)
H11 H 0.7647 0.0193 0.2731
C17 C 0.7287(2) 0.0268(3) 0.22295(6)
H12 H 0.7945 0.0797 0.2161
C18 C 0.5960(3) -0.1290(5) 0.30602(7)
H13 H 0.5935 -0.0138 0.3183
H14 H 0.6546 -0.2041 0.3147
H15 H 0.5280 -0.1937 0.3089
C19 C 0.8801(2) 0.1354(4) 0.06020(6)
H16 H 0.8715 0.0207 0.0480
H17 H 0.9494 0.1898 0.0546
H18 H 0.8226 0.2193 0.0539
C20 C 0.97742(19) 0.0842(4) 0.11494(7)
H19 H 0.9755 0.1625 0.1348
H20 H 1.0363 0.1222 0.1003
H21 H 0.9884 -0.0424 0.1219
loop_
_geom_bond_atom_site_label_1
_geom_bond_atom_site_label_2
_geom_bond_site_symmetry_1
_geom_bond_site_symmetry_2
N1 C1 1_555 1_555
N2 C3 1_555 1_555
N3 C1 1_555 1_555
C1 C2 1_555 1_555
C2 H1 1_555 1_555
C3 C2 1_555 1_555
C4 N1 1_555 1_555
C5 C4 1_555 1_555
C6 C5 1_555 1_555
H2 C6 1_555 1_555
C7 C6 1_555 1_555
H3 C7 1_555 1_555
C8 C7 1_555 1_555
C9 C8 1_555 1_555
H4 C9 1_555 1_555
C10 C5 1_555 1_555
H5 C10 1_555 1_555
C11 C8 1_555 1_555
H6 C11 1_555 1_555
H7 C11 1_555 1_555
H8 C11 1_555 1_555
C12 C3 1_555 1_555
C13 C12 1_555 1_555
H9 C13 1_555 1_555
C14 C13 1_555 1_555
H10 C14 1_555 1_555
C15 C14 1_555 1_555
C16 C15 1_555 1_555
H11 C16 1_555 1_555
C17 C12 1_555 1_555
H12 C17 1_555 1_555
C18 C15 1_555 1_555
H13 C18 1_555 1_555
H14 C18 1_555 1_555
H15 C18 1_555 1_555
C19 N3 1_555 1_555
H16 C19 1_555 1_555
H17 C19 1_555 1_555
H18 C19 1_555 1_555
C20 N3 1_555 1_555
H19 C20 1_555 1_555
H20 C20 1_555 1_555
H21 C20 1_555 1_555
N2 C4 1_555 1_555
C9 C10 1_555 1_555
C16 C17 1_555 1_555

#END
