
#######################################################################
#
#                 Cambridge Crystallographic Data Centre
#                                CCDC 
#
#######################################################################
#
# If this CIF has been generated from an entry in the Cambridge 
# Structural Database, then it will include bibliographic, chemical, 
# crystal, experimental, refinement or atomic coordinate data resulting 
# from the CCDC's data processing and validation procedures.
#
#######################################################################

data_YENYOI
_chemical_formula_moiety         'C18 H17 N1 O3'
_chemical_name_systematic        
2,8-diphenyl-3,7,9-trioxa-1-azaspiro[4.5]dec-1-ene
_symmetry_cell_setting           monoclinic
_symmetry_space_group_name_H-M   'P 21/c'
_symmetry_Int_Tables_number      14
_space_group_name_Hall           '-P 2ybc'
loop_
_symmetry_equiv_pos_site_id
_symmetry_equiv_pos_as_xyz
1 x,y,z
2 -x,1/2+y,1/2-z
3 -x,-y,-z
4 x,1/2-y,1/2+z
_cell_length_a                   14.9752(8)
_cell_length_b                   9.0793(5)
_cell_length_c                   11.1030(6)
_cell_angle_alpha                90
_cell_angle_beta                 106.4310(10)
_cell_angle_gamma                90
_cell_volume                     1447.96
_exptl_crystal_description       block
_cell_formula_units_Z            4
loop_
_atom_site_label
_atom_site_type_symbol
_atom_site_fract_x
_atom_site_fract_y
_atom_site_fract_z
O1 O 0.06061(6) 0.17715(10) 0.24804(7)
O2 O 0.07766(6) 0.35823(9) 0.10810(7)
O3 O -0.21461(6) 0.32501(10) 0.03002(9)
N1 N -0.13695(7) 0.14691(11) -0.04115(9)
C1 C -0.06661(8) 0.21939(13) 0.06214(11)
C2 C 0.12246(8) 0.24476(13) 0.19006(11)
H1 H 0.1456 0.1706 0.1421
C3 C -0.30284(8) 0.18096(13) -0.14404(11)
C4 C -0.21330(9) 0.21354(14) -0.05101(11)
C5 C -0.01397(8) 0.10583(14) 0.15649(11)
H2 H -0.0559 0.0597 0.1976
H3 H 0.0109 0.0299 0.1136
C6 C 0.23114(9) 0.24366(15) 0.40891(12)
H4 H 0.1974 0.1653 0.4277
C7 C 0.20345(8) 0.30765(13) 0.29031(11)
C8 C -0.30567(9) 0.07887(14) -0.23862(11)
H5 H -0.2510 0.0349 -0.2445
C9 C -0.38491(9) 0.24658(15) -0.13635(13)
H6 H -0.3835 0.3151 -0.0736
C10 C 0.00384(9) 0.29752(14) 0.00848(11)
H7 H 0.0293 0.2282 -0.0395
H8 H -0.0269 0.3757 -0.0476
C11 C 0.30866(9) 0.29594(16) 0.49914(12)
H9 H 0.3265 0.2526 0.5782
C12 C 0.25427(9) 0.42562(15) 0.26460(12)
H10 H 0.2363 0.4702 0.1860
C13 C -0.46869(9) 0.20986(16) -0.22206(14)
H11 H -0.5236 0.2539 -0.2169
C14 C -0.12262(9) 0.32762(17) 0.11823(13)
H12 H -0.1245 0.2957 0.2008
H13 H -0.0960 0.4257 0.1248
C15 C -0.38951(9) 0.04279(16) -0.32366(13)
H14 H -0.3912 -0.0255 -0.3867
C16 C 0.33164(10) 0.47703(17) 0.35560(14)
H15 H 0.3651 0.5563 0.3378
C17 C 0.35948(9) 0.41159(16) 0.47264(13)
H16 H 0.4121 0.4454 0.5330
C18 C -0.47099(9) 0.10798(17) -0.31533(14)
H17 H -0.5274 0.0832 -0.3726
loop_
_geom_bond_atom_site_label_1
_geom_bond_atom_site_label_2
_geom_bond_site_symmetry_1
_geom_bond_site_symmetry_2
O1 C2 1_555 1_555
O2 C2 1_555 1_555
O3 C4 1_555 1_555
N1 C1 1_555 1_555
C1 C5 1_555 1_555
C2 H1 1_555 1_555
C3 C4 1_555 1_555
C4 N1 1_555 1_555
C5 O1 1_555 1_555
H2 C5 1_555 1_555
H3 C5 1_555 1_555
C6 H4 1_555 1_555
C7 C2 1_555 1_555
C8 C3 1_555 1_555
H5 C8 1_555 1_555
C9 C3 1_555 1_555
H6 C9 1_555 1_555
C10 O2 1_555 1_555
H7 C10 1_555 1_555
H8 C10 1_555 1_555
C11 C6 1_555 1_555
H9 C11 1_555 1_555
C12 C7 1_555 1_555
H10 C12 1_555 1_555
C13 C9 1_555 1_555
H11 C13 1_555 1_555
C14 O3 1_555 1_555
H12 C14 1_555 1_555
H13 C14 1_555 1_555
C15 C8 1_555 1_555
H14 C15 1_555 1_555
C16 C12 1_555 1_555
H15 C16 1_555 1_555
C17 C11 1_555 1_555
H16 C17 1_555 1_555
C18 C13 1_555 1_555
H17 C18 1_555 1_555
C1 C10 1_555 1_555
C1 C14 1_555 1_555
C6 C7 1_555 1_555
C15 C18 1_555 1_555
C16 C17 1_555 1_555

#END
