
#######################################################################
#
#                 Cambridge Crystallographic Data Centre
#                                CCDC 
#
#######################################################################
#
# If this CIF has been generated from an entry in the Cambridge 
# Structural Database, then it will include bibliographic, chemical, 
# crystal, experimental, refinement or atomic coordinate data resulting 
# from the CCDC's data processing and validation procedures.
#
#######################################################################

data_YEPBUR
_chemical_formula_moiety         'C12 H10 N4 O2,2(H2 O1)'
_chemical_name_systematic        "N,N'-bis(4-Picolinoyl)hydrazine dihydrate"
_symmetry_cell_setting           orthorhombic
_symmetry_space_group_name_H-M   'F d d 2'
_symmetry_Int_Tables_number      43
_space_group_name_Hall           'F 2 -2d'
loop_
_symmetry_equiv_pos_site_id
_symmetry_equiv_pos_as_xyz
1 x,y,z
2 -x,-y,z
3 1/4+x,1/4-y,1/4+z
4 1/4-x,1/4+y,1/4+z
5 x,1/2+y,1/2+z
6 -x,1/2-y,1/2+z
7 1/4+x,3/4-y,3/4+z
8 1/4-x,3/4+y,3/4+z
9 1/2+x,y,1/2+z
10 1/2-x,-y,1/2+z
11 3/4+x,1/4-y,3/4+z
12 3/4-x,1/4+y,3/4+z
13 1/2+x,1/2+y,z
14 1/2-x,1/2-y,z
15 3/4+x,3/4-y,1/4+z
16 3/4-x,3/4+y,1/4+z
_cell_length_a                   24.277(4)
_cell_length_b                   28.146(5)
_cell_length_c                   3.8111(7)
_cell_angle_alpha                90
_cell_angle_beta                 90
_cell_angle_gamma                90
_cell_volume                     2604.13
_exptl_crystal_colour            colorless
_exptl_crystal_description       Block
_cell_formula_units_Z            8
loop_
_atom_site_label
_atom_site_type_symbol
_atom_site_fract_x
_atom_site_fract_y
_atom_site_fract_z
N1 N 0.01201(5) 0.02240(4) 0.4142(5)
H1 H 0.0444 0.0266 0.3283
N2 N 0.05437(7) 0.19815(5) 0.4893(5)
O1 O -0.06148(5) 0.05392(4) 0.6837(5)
C1 C -0.01610(7) 0.05867(6) 0.5499(6)
C2 C 0.00190(9) 0.19070(6) 0.5682(8)
H2 H -0.0202 0.2170 0.6117
C3 C -0.02173(8) 0.14646(6) 0.5897(7)
H3 H -0.0588 0.1432 0.6467
C4 C 0.01045(7) 0.10674(6) 0.5252(5)
C5 C 0.06511(7) 0.11380(6) 0.4450(7)
H4 H 0.0882 0.0881 0.4016
C6 C 0.08502(8) 0.15973(6) 0.4303(7)
H5 H 0.1220 0.1641 0.3759
N1A N -0.01201(5) -0.02240(4) 0.4142(5)
H1A H -0.0444 -0.0266 0.3283
N2A N -0.05437(7) -0.19815(5) 0.4893(5)
O1A O 0.06148(5) -0.05392(4) 0.6837(5)
C1A C 0.01610(7) -0.05867(6) 0.5499(6)
C2A C -0.00190(9) -0.19070(6) 0.5682(8)
H2A H 0.0202 -0.2170 0.6117
C3A C 0.02173(8) -0.14646(6) 0.5897(7)
H3A H 0.0588 -0.1432 0.6467
C4A C -0.01045(7) -0.10674(6) 0.5252(5)
C5A C -0.06511(7) -0.11380(6) 0.4450(7)
H4A H -0.0882 -0.0881 0.4016
C6A C -0.08502(8) -0.15973(6) 0.4303(7)
H5A H -0.1220 -0.1641 0.3759
O2 O 0.11525(5) 0.01982(5) 0.0405(5)
H6 H 0.1440 0.0057 0.1075
H7 H 0.1007 0.0001 -0.1052
loop_
_geom_bond_atom_site_label_1
_geom_bond_atom_site_label_2
_geom_bond_site_symmetry_1
_geom_bond_site_symmetry_2
N1 H1 1_555 1_555
N2 C2 1_555 1_555
O1 C1 1_555 1_555
C1 N1 1_555 1_555
C2 H2 1_555 1_555
C3 C2 1_555 1_555
H3 C3 1_555 1_555
C4 C1 1_555 1_555
C5 C4 1_555 1_555
H4 C5 1_555 1_555
C6 N2 1_555 1_555
H5 C6 1_555 1_555
O2 H6 1_555 1_555
H7 O2 1_555 1_555
N1A N1 1_555 1_555
H1A N1A 1_555 1_555
N2A C2A 1_555 1_555
O1A C1A 1_555 1_555
C1A N1A 1_555 1_555
C2A H2A 1_555 1_555
C3A C2A 1_555 1_555
H3A C3A 1_555 1_555
C4A C1A 1_555 1_555
C5A C4A 1_555 1_555
H4A C5A 1_555 1_555
C6A N2A 1_555 1_555
H5A C6A 1_555 1_555
C3 C4 1_555 1_555
C5 C6 1_555 1_555
C3A C4A 1_555 1_555
C5A C6A 1_555 1_555

#END
