
#######################################################################
#
#                 Cambridge Crystallographic Data Centre
#                                CCDC 
#
#######################################################################
#
# If this CIF has been generated from an entry in the Cambridge 
# Structural Database, then it will include bibliographic, chemical, 
# crystal, experimental, refinement or atomic coordinate data resulting 
# from the CCDC's data processing and validation procedures.
#
#######################################################################

data_YEPCIG
_chemical_formula_moiety         'C12 H12 N4 O2 2+,2(C10 H5 O8 1-),4(H2 O1)'
_chemical_name_systematic        
"N,N'-bis(3-Picoliniocarbonyl)hydrazine bis(trihydrogen benzene-1,2,4,5-tetracarboxylate) tetrahydrate"
_symmetry_cell_setting           triclinic
_symmetry_space_group_name_H-M   'P -1'
_symmetry_Int_Tables_number      2
_space_group_name_Hall           '-P 1'
loop_
_symmetry_equiv_pos_site_id
_symmetry_equiv_pos_as_xyz
1 x,y,z
2 -x,-y,-z
_cell_length_a                   9.3344(15)
_cell_length_b                   9.6403(15)
_cell_length_c                   10.4500(17)
_cell_angle_alpha                85.573(2)
_cell_angle_beta                 75.191(2)
_cell_angle_gamma                74.687(2)
_cell_volume                     876.799
_exptl_crystal_colour            'pale yellow'
_exptl_crystal_description       lamellar
_cell_formula_units_Z            1
loop_
_atom_site_label
_atom_site_type_symbol
_atom_site_fract_x
_atom_site_fract_y
_atom_site_fract_z
O1 O 0.31330(17) -0.12441(17) 0.50905(18)
N1 N -0.08987(18) 0.08736(18) 0.75419(17)
H8 H -0.1649 0.0472 0.7748
N2 N 0.43175(19) 0.0399(2) 0.53724(16)
H9 H 0.4253 0.1221 0.5681
C1 C 0.1467(2) 0.2102(2) 0.6928(2)
H10 H 0.2286 0.2525 0.6731
C2 C 0.0065(3) 0.2835(2) 0.7677(2)
H11 H -0.0072 0.3756 0.7977
C3 C -0.1125(2) 0.2192(2) 0.7973(2)
H12 H -0.2082 0.2673 0.8471
C4 C 0.0439(2) 0.0145(2) 0.6804(2)
H13 H 0.0543 -0.0773 0.6515
C5 C 0.1663(2) 0.0746(2) 0.64702(18)
C6 C 0.3091(2) -0.0139(2) 0.56035(19)
O1A O 0.68670(17) 0.12441(17) 0.49095(18)
N1A N 1.08987(18) -0.08736(18) 0.24581(17)
H8A H 1.1649 -0.0472 0.2252
N2A N 0.56825(19) -0.0399(2) 0.46276(16)
H9A H 0.5747 -0.1221 0.4319
C1A C 0.8533(2) -0.2102(2) 0.3072(2)
H10A H 0.7714 -0.2525 0.3269
C2A C 0.9935(3) -0.2835(2) 0.2323(2)
H11A H 1.0072 -0.3756 0.2023
C3A C 1.1125(2) -0.2192(2) 0.2027(2)
H12A H 1.2082 -0.2673 0.1529
C4A C 0.9561(2) -0.0145(2) 0.3196(2)
H13A H 0.9457 0.0773 0.3485
C5A C 0.8337(2) -0.0746(2) 0.35298(18)
C6A C 0.6909(2) 0.0139(2) 0.43965(19)
O2 O 0.07348(15) 0.39206(14) 0.34192(19)
H1 H -0.0096 0.3757 0.3773
O3 O 0.15542(14) 0.15685(12) 0.36379(12)
O4 O 0.33148(13) 0.02856(11) 0.11738(12)
O5 O 0.51812(15) -0.07697(11) 0.21455(13)
O6 O 0.89811(14) 0.22904(13) 0.10798(15)
H2 H 0.9813 0.2473 0.0775
O7 O 0.81232(17) 0.46134(14) 0.0770(2)
O8 O 0.60753(16) 0.59827(13) 0.33181(15)
O9 O 0.47565(16) 0.68558(12) 0.18141(15)
H3 H 0.4930 0.7611 0.1961
C7 C 0.33684(18) 0.28971(16) 0.26363(16)
C8 C 0.45552(18) 0.17557(15) 0.20062(15)
C9 C 0.60158(18) 0.19468(16) 0.15638(16)
H14 H 0.6811 0.1182 0.1171
C10 C 0.63288(18) 0.32582(16) 0.16920(16)
C11 C 0.51371(19) 0.44014(16) 0.22987(17)
C12 C 0.36813(19) 0.42073(16) 0.27660(17)
H15 H 0.2892 0.4967 0.3176
C13 C 0.18043(18) 0.27123(16) 0.32671(16)
C14 C 0.43042(18) 0.03208(16) 0.17601(15)
C15 C 0.7891(2) 0.34697(17) 0.11425(18)
C16 C 0.53953(19) 0.58337(16) 0.25154(18)
O10 O 0.20639(15) 0.62707(14) 0.55211(15)
H4 H 0.2371 0.7037 0.5373
H5 H 0.2662 0.5560 0.5808
O11 O 0.16514(15) 0.25986(15) 0.00830(16)
H6 H 0.2366 0.1901 0.0235
H7 H 0.1840 0.3421 -0.0032
loop_
_geom_bond_atom_site_label_1
_geom_bond_atom_site_label_2
_geom_bond_site_symmetry_1
_geom_bond_site_symmetry_2
O1 C6 1_555 1_555
O2 H1 1_555 1_555
O3 C13 1_555 1_555
O4 C14 1_555 1_555
O5 C14 1_555 1_555
O6 H2 1_555 1_555
O7 C15 1_555 1_555
O8 C16 1_555 1_555
O9 H3 1_555 1_555
O10 H4 1_555 1_555
H5 O10 1_555 1_555
O11 H6 1_555 1_555
H7 O11 1_555 1_555
N1 H8 1_555 1_555
N2 H9 1_555 1_555
C1 H10 1_555 1_555
C2 C1 1_555 1_555
H11 C2 1_555 1_555
C3 N1 1_555 1_555
H12 C3 1_555 1_555
C4 N1 1_555 1_555
H13 C4 1_555 1_555
C5 C1 1_555 1_555
C6 N2 1_555 1_555
C7 C8 1_555 1_555
C8 C9 1_555 1_555
C9 H14 1_555 1_555
C10 C9 1_555 1_555
C11 C10 1_555 1_555
C12 C7 1_555 1_555
H15 C12 1_555 1_555
C13 O2 1_555 1_555
C14 C8 1_555 1_555
C15 O6 1_555 1_555
C16 O9 1_555 1_555
O1A C6A 1_555 1_555
N1A H8A 1_555 1_555
N2A N2 1_555 1_555
H9A N2A 1_555 1_555
C1A H10A 1_555 1_555
C2A C1A 1_555 1_555
H11A C2A 1_555 1_555
C3A N1A 1_555 1_555
H12A C3A 1_555 1_555
C4A N1A 1_555 1_555
H13A C4A 1_555 1_555
C5A C1A 1_555 1_555
C6A N2A 1_555 1_555
C2 C3 1_555 1_555
C4 C5 1_555 1_555
C5 C6 1_555 1_555
C7 C13 1_555 1_555
C10 C15 1_555 1_555
C11 C12 1_555 1_555
C11 C16 1_555 1_555
C2A C3A 1_555 1_555
C4A C5A 1_555 1_555
C5A C6A 1_555 1_555

#END
