
#######################################################################
#
#                 Cambridge Crystallographic Data Centre
#                                CCDC 
#
#######################################################################
#
# If this CIF has been generated from an entry in the Cambridge 
# Structural Database, then it will include bibliographic, chemical, 
# crystal, experimental, refinement or atomic coordinate data resulting 
# from the CCDC's data processing and validation procedures.
#
#######################################################################

data_YEPCAY
_chemical_formula_moiety         'C12 H12 N4 O2 2+,C10 H4 O8 2-'
_chemical_name_systematic        
"N,N'-bis(4-Picoliniocarbonyl)hydrazine dihydrogen benzene-1,2,4,5-tetracarboxylate"
_symmetry_cell_setting           triclinic
_symmetry_space_group_name_H-M   'P -1'
_symmetry_Int_Tables_number      2
_space_group_name_Hall           '-P 1'
loop_
_symmetry_equiv_pos_site_id
_symmetry_equiv_pos_as_xyz
1 x,y,z
2 -x,-y,-z
_cell_length_a                   7.5159(10)
_cell_length_b                   7.6637(10)
_cell_length_c                   9.7568(13)
_cell_angle_alpha                75.068(2)
_cell_angle_beta                 86.857(2)
_cell_angle_gamma                65.823(2)
_cell_volume                     494.56
_exptl_crystal_colour            yellow
_exptl_crystal_description       Block
_cell_formula_units_Z            1
loop_
_atom_site_label
_atom_site_type_symbol
_atom_site_fract_x
_atom_site_fract_y
_atom_site_fract_z
O1 O 1.14800(17) 0.4624(2) 0.27973(13)
N1 N 0.5236(2) 0.7374(2) 0.00846(18)
H2 H 0.4329 0.7738 -0.0561
N2 N 0.9259(2) 0.5390(3) 0.44773(16)
H3 H 0.8052 0.5899 0.4669
C1 C 0.8426(3) 0.6775(3) 0.06959(19)
H4 H 0.9637 0.6767 0.0431
C2 C 0.6953(3) 0.7395(3) -0.0310(2)
H5 H 0.7147 0.7829 -0.1265
C3 C 0.4866(3) 0.6806(3) 0.1447(2)
H6 H 0.3646 0.6816 0.1682
C4 C 0.6282(2) 0.6216(3) 0.2487(2)
H7 H 0.6029 0.5856 0.3437
C5 C 0.8105(2) 0.6159(2) 0.21090(17)
C6 C 0.9766(2) 0.5324(3) 0.31902(18)
O1A O 0.85200(17) 0.5376(2) 0.72027(13)
N1A N 1.4764(2) 0.2626(2) 0.99154(18)
H2A H 1.5671 0.2262 1.0561
N2A N 1.0741(2) 0.4610(3) 0.55227(16)
H3A H 1.1948 0.4101 0.5331
C1A C 1.1574(3) 0.3225(3) 0.93041(19)
H4A H 1.0363 0.3233 0.9569
C2A C 1.3047(3) 0.2605(3) 1.0310(2)
H5A H 1.2853 0.2171 1.1265
C3A C 1.5134(3) 0.3194(3) 0.8553(2)
H6A H 1.6354 0.3184 0.8318
C4A C 1.3718(2) 0.3784(3) 0.7513(2)
H7A H 1.3971 0.4144 0.6563
C5A C 1.1895(2) 0.3841(2) 0.78910(17)
C6A C 1.0234(2) 0.4676(3) 0.68098(18)
O2 O 1.04301(17) -0.04533(18) 0.13177(12)
O3 O 0.78961(16) 0.23321(17) 0.13647(12)
O4 O 0.47858(15) 0.29824(18) 0.42719(13)
H1 H 0.3715 0.3376 0.3862
O5 O 0.55826(18) 0.0587(2) 0.31644(14)
C7 C 0.9254(2) 0.0785(2) 0.19630(16)
C8 C 0.9640(2) 0.0301(2) 0.35436(16)
C9 C 0.8081(2) 0.0759(2) 0.44405(16)
C10 C 1.1534(2) -0.0466(2) 0.41184(16)
H8 H 1.2571 -0.0791 0.3529
C11 C 0.6014(2) 0.1441(2) 0.38828(16)
O2A O 0.95699(17) 0.04533(18) 0.86823(12)
O3A O 1.21039(16) -0.23321(17) 0.86353(12)
O4A O 1.52142(15) -0.29824(18) 0.57281(13)
H1A H 1.6285 -0.3376 0.6138
O5A O 1.44174(18) -0.0587(2) 0.68356(14)
C7A C 1.0746(2) -0.0785(2) 0.80370(16)
C8A C 1.0360(2) -0.0301(2) 0.64564(16)
C9A C 1.1919(2) -0.0759(2) 0.55595(16)
C10A C 0.8466(2) 0.0466(2) 0.58816(16)
H8A H 0.7429 0.0791 0.6471
C11A C 1.3986(2) -0.1441(2) 0.61172(16)
loop_
_geom_bond_atom_site_label_1
_geom_bond_atom_site_label_2
_geom_bond_site_symmetry_1
_geom_bond_site_symmetry_2
O1 C6 1_555 1_555
O2 C7 1_555 1_555
O3 C7 1_555 1_555
O4 H1 1_555 1_555
O5 C11 1_555 1_555
N1 H2 1_555 1_555
N2 H3 1_555 1_555
C1 H4 1_555 1_555
C2 N1 1_555 1_555
H5 C2 1_555 1_555
C3 N1 1_555 1_555
H6 C3 1_555 1_555
C4 C3 1_555 1_555
H7 C4 1_555 1_555
C5 C1 1_555 1_555
C6 N2 1_555 1_555
C7 C8 1_555 1_555
C8 C9 1_555 1_555
C9 C11 1_555 1_555
C10 C8 1_555 1_555
H8 C10 1_555 1_555
C11 O4 1_555 1_555
O1A C6A 1_555 1_555
O2A C7A 1_555 1_555
O3A C7A 1_555 1_555
O4A H1A 1_555 1_555
O5A C11A 1_555 1_555
N1A H2A 1_555 1_555
N2A N2 1_555 1_555
H3A N2A 1_555 1_555
C1A H4A 1_555 1_555
C2A N1A 1_555 1_555
H5A C2A 1_555 1_555
C3A N1A 1_555 1_555
H6A C3A 1_555 1_555
C4A C3A 1_555 1_555
H7A C4A 1_555 1_555
C5A C1A 1_555 1_555
C6A N2A 1_555 1_555
C7A C8A 1_555 1_555
C8A C9A 1_555 1_555
C9A C10 1_555 1_555
C10A C9 1_555 1_555
H8A C10A 1_555 1_555
C11A O4A 1_555 1_555
C1 C2 1_555 1_555
C4 C5 1_555 1_555
C5 C6 1_555 1_555
C1A C2A 1_555 1_555
C4A C5A 1_555 1_555
C5A C6A 1_555 1_555
C8A C10A 1_555 1_555
C9A C11A 1_555 1_555

#END
