
#######################################################################
#
#                 Cambridge Crystallographic Data Centre
#                                CCDC 
#
#######################################################################
#
# If this CIF has been generated from an entry in the Cambridge 
# Structural Database, then it will include bibliographic, chemical, 
# crystal, experimental, refinement or atomic coordinate data resulting 
# from the CCDC's data processing and validation procedures.
#
#######################################################################

data_YEPDOP
_chemical_formula_moiety         'C19 H26 N2 O6'
_chemical_name_systematic        
'diethyl {2-[(4-methylphenyl)amino]-2-(2-oxo-1,3-oxazolidin-3-yl)ethyl}propanedioate'
_symmetry_cell_setting           monoclinic
_symmetry_space_group_name_H-M   'P 21/n'
_symmetry_Int_Tables_number      14
_space_group_name_Hall           '-P 2yn'
loop_
_symmetry_equiv_pos_site_id
_symmetry_equiv_pos_as_xyz
1 x,y,z
2 1/2-x,1/2+y,1/2-z
3 -x,-y,-z
4 1/2+x,1/2-y,1/2+z
_cell_length_a                   14.6436(9)
_cell_length_b                   8.0712(5)
_cell_length_c                   16.3226(10)
_cell_angle_alpha                90
_cell_angle_beta                 99.0859(10)
_cell_angle_gamma                90
_cell_volume                     1904.99
_exptl_crystal_colour            colorless
_exptl_crystal_description       block
_cell_formula_units_Z            4
_exptl_crystal_recrystallization_method 
'Re-crystallisation from solvent: dichlormethane/petroleum ether'
loop_
_atom_site_label
_atom_site_type_symbol
_atom_site_fract_x
_atom_site_fract_y
_atom_site_fract_z
N1 N 0.40279(6) 0.33038(11) 0.28734(6)
H1 H 0.3606(10) 0.3432(17) 0.2437(9)
C1 C 0.49093(7) 0.29631(12) 0.26649(6)
C2 C 0.50289(8) 0.28280(14) 0.18351(7)
H2 H 0.4523 0.3040 0.1407
C3 C 0.58836(8) 0.23859(14) 0.16294(7)
H3 H 0.5949 0.2294 0.1061
C4 C 0.66420(8) 0.20764(14) 0.22353(8)
C5 C 0.65176(8) 0.22380(15) 0.30620(7)
H4 H 0.7027 0.2044 0.3489
C6 C 0.56712(8) 0.26736(14) 0.32784(7)
H5 H 0.5610 0.2776 0.3847
C7 C 0.75717(10) 0.1601(2) 0.20130(10)
H6 H 0.7492 0.1240 0.1433
H7 H 0.7838 0.0695 0.2373
H8 H 0.7987 0.2560 0.2089
C8 C 0.39535(7) 0.45192(12) 0.35135(6)
H9 H 0.4319 0.4114 0.4045
N2 N 0.43120(6) 0.61580(11) 0.33271(5)
C9 C 0.50971(7) 0.68119(13) 0.37651(7)
O1 O 0.55439(6) 0.63117(11) 0.44021(5)
O2 O 0.53239(6) 0.82215(10) 0.33853(6)
C10 C 0.46175(8) 0.85824(14) 0.26839(7)
H10 H 0.4899 0.8888 0.2192
H11 H 0.4218 0.9504 0.2814
C11 C 0.40609(8) 0.69757(14) 0.25270(6)
H12 H 0.3388 0.7195 0.2401
H13 H 0.4255 0.6321 0.2071
C12 C 0.29419(7) 0.46551(13) 0.36294(6)
H14 H 0.2701 0.3536 0.3722
H15 H 0.2575 0.5109 0.3117
C13 C 0.28219(7) 0.57681(12) 0.43618(6)
H16 H 0.3302 0.5458 0.4843
C14 C 0.29313(7) 0.76023(13) 0.41804(6)
O3 O 0.25184(5) 0.82985(10) 0.35754(5)
O4 O 0.35096(5) 0.83465(9) 0.47764(5)
C15 C 0.35660(8) 1.01561(14) 0.47367(8)
H17 H 0.3581 1.0505 0.4157
H18 H 0.4144 1.0539 0.5083
C16 C 0.27470(9) 1.09318(15) 0.50404(8)
H19 H 0.2183 1.0679 0.4651
H20 H 0.2832 1.2135 0.5079
H21 H 0.2692 1.0487 0.5589
C17 C 0.18707(7) 0.55298(13) 0.46167(7)
O5 O 0.13482(6) 0.44094(11) 0.43979(6)
O6 O 0.17027(5) 0.67428(11) 0.51309(5)
C18 C 0.08146(8) 0.66860(16) 0.54280(8)
H22 H 0.0829 0.5841 0.5870
H23 H 0.0315 0.6395 0.4968
C19 C 0.06467(10) 0.83608(18) 0.57594(10)
H24 H 0.1113 0.8592 0.6246
H25 H 0.0029 0.8394 0.5919
H26 H 0.0688 0.9197 0.5331
loop_
_geom_bond_atom_site_label_1
_geom_bond_atom_site_label_2
_geom_bond_site_symmetry_1
_geom_bond_site_symmetry_2
N1 H1 1_555 1_555
C1 N1 1_555 1_555
C2 C1 1_555 1_555
H2 C2 1_555 1_555
C3 C2 1_555 1_555
H3 C3 1_555 1_555
C4 C3 1_555 1_555
C5 C4 1_555 1_555
H4 C5 1_555 1_555
C6 C1 1_555 1_555
H5 C6 1_555 1_555
C7 C4 1_555 1_555
H6 C7 1_555 1_555
H7 C7 1_555 1_555
H8 C7 1_555 1_555
C8 N1 1_555 1_555
H9 C8 1_555 1_555
N2 C8 1_555 1_555
C9 N2 1_555 1_555
O1 C9 1_555 1_555
O2 C9 1_555 1_555
C10 O2 1_555 1_555
H10 C10 1_555 1_555
H11 C10 1_555 1_555
C11 N2 1_555 1_555
H12 C11 1_555 1_555
H13 C11 1_555 1_555
C12 C8 1_555 1_555
H14 C12 1_555 1_555
H15 C12 1_555 1_555
C13 C12 1_555 1_555
H16 C13 1_555 1_555
C14 C13 1_555 1_555
O3 C14 1_555 1_555
O4 C14 1_555 1_555
C15 O4 1_555 1_555
H17 C15 1_555 1_555
H18 C15 1_555 1_555
C16 C15 1_555 1_555
H19 C16 1_555 1_555
H20 C16 1_555 1_555
H21 C16 1_555 1_555
C17 C13 1_555 1_555
O5 C17 1_555 1_555
O6 C17 1_555 1_555
C18 O6 1_555 1_555
H22 C18 1_555 1_555
H23 C18 1_555 1_555
C19 C18 1_555 1_555
H24 C19 1_555 1_555
H25 C19 1_555 1_555
H26 C19 1_555 1_555
C5 C6 1_555 1_555
C10 C11 1_555 1_555

#END
