
#######################################################################
#
#                 Cambridge Crystallographic Data Centre
#                                CCDC 
#
#######################################################################
#
# If this CIF has been generated from an entry in the Cambridge 
# Structural Database, then it will include bibliographic, chemical, 
# crystal, experimental, refinement or atomic coordinate data resulting 
# from the CCDC's data processing and validation procedures.
#
#######################################################################

data_YEPFEH
_chemical_formula_moiety         'C18 H23 F1 N2 O6'
_chemical_name_systematic        
'diethyl {2-[(2-fluorophenyl)amino]-2-(2-oxo-1,3-oxazolidin-3-yl)ethyl}propanedioate'
_symmetry_cell_setting           monoclinic
_symmetry_space_group_name_H-M   'P 21/c'
_symmetry_Int_Tables_number      14
_space_group_name_Hall           '-P 2ybc'
loop_
_symmetry_equiv_pos_site_id
_symmetry_equiv_pos_as_xyz
1 x,y,z
2 -x,1/2+y,1/2-z
3 -x,-y,-z
4 x,1/2-y,1/2+z
_cell_length_a                   11.930(7)
_cell_length_b                   8.179(5)
_cell_length_c                   20.221(12)
_cell_angle_alpha                90
_cell_angle_beta                 105.286(10)
_cell_angle_gamma                90
_cell_volume                     1903.27
_exptl_crystal_colour            colorless
_exptl_crystal_description       tablet
_cell_formula_units_Z            4
_chemical_properties_physical    ', catestrophic phase change below 250K'
_exptl_crystal_recrystallization_method 
'Re-crystallisation from solvent: dichloromethane/hexane'
loop_
_atom_site_label
_atom_site_type_symbol
_atom_site_fract_x
_atom_site_fract_y
_atom_site_fract_z
N1 N 0.6409(3) 0.6581(4) 0.67945(18)
H1 H 0.649(4) 0.645(5) 0.721(2)
C1 C 0.7466(3) 0.6955(4) 0.6659(2)
C2 C 0.8471(4) 0.7136(6) 0.7193(2)
C3 C 0.9510(4) 0.7677(7) 0.7102(3)
H2 H 1.0155 0.7829 0.7481
C4 C 0.9592(4) 0.7991(7) 0.6452(3)
H3 H 1.0299 0.8340 0.6377
C5 C 0.8621(4) 0.7788(6) 0.5907(3)
H4 H 0.8679 0.7987 0.5459
C6 C 0.7567(4) 0.7300(6) 0.6004(2)
H5 H 0.6915 0.7200 0.5625
C7 C 0.5621(3) 0.5412(4) 0.63710(18)
H6 H 0.5419 0.5815 0.5892
N2 N 0.6143(3) 0.3774(4) 0.63825(15)
C8 C 0.6389(4) 0.3111(5) 0.5827(2)
O1 O 0.6138(3) 0.3592(4) 0.52443(15)
O2 O 0.6991(3) 0.1682(4) 0.60128(16)
C9 C 0.7081(4) 0.1352(5) 0.6725(2)
H7 H 0.7877 0.1041 0.6966
H8 H 0.6554 0.0465 0.6771
C10 C 0.6740(4) 0.2939(5) 0.7013(2)
H9 H 0.6222 0.2743 0.7308
H10 H 0.7423 0.3551 0.7268
C11 C 0.4510(3) 0.5355(5) 0.66089(19)
H11 H 0.4217 0.6470 0.6623
H12 H 0.4690 0.4911 0.7075
C12 C 0.3561(3) 0.4311(4) 0.61418(18)
H13 H 0.3519 0.4593 0.5660
C13 C 0.3795(3) 0.2494(4) 0.62385(18)
O3 O 0.4052(2) 0.1824(3) 0.67931(13)
O4 O 0.3683(3) 0.1723(3) 0.56496(14)
C14 C 0.3779(5) -0.0069(5) 0.5672(3)
H14 H 0.4420 -0.0393 0.6063
H15 H 0.3954 -0.0462 0.5253
C15 C 0.2690(5) -0.0828(6) 0.5738(3)
H16 H 0.2570 -0.0556 0.6181
H17 H 0.2742 -0.2006 0.5698
H18 H 0.2043 -0.0422 0.5378
C16 C 0.2386(3) 0.4660(5) 0.6270(2)
O5 O 0.2222(3) 0.5630(4) 0.66815(19)
O6 O 0.1552(2) 0.3781(4) 0.58593(15)
C17 C 0.0379(4) 0.4011(7) 0.5929(3)
H19 H 0.0050 0.5033 0.5707
H20 H 0.0388 0.4064 0.6415
C18 C -0.0319(5) 0.2611(9) 0.5599(3)
H21 H -0.0314 0.2564 0.5120
H22 H -0.1111 0.2735 0.5631
H23 H 0.0009 0.1610 0.5827
F1 F 0.8375(3) 0.6778(5) 0.78377(14)
loop_
_geom_bond_atom_site_label_1
_geom_bond_atom_site_label_2
_geom_bond_site_symmetry_1
_geom_bond_site_symmetry_2
N1 H1 1_555 1_555
C1 N1 1_555 1_555
C2 C1 1_555 1_555
C3 C2 1_555 1_555
H2 C3 1_555 1_555
C4 C3 1_555 1_555
H3 C4 1_555 1_555
C5 C4 1_555 1_555
H4 C5 1_555 1_555
C6 C1 1_555 1_555
H5 C6 1_555 1_555
C7 N1 1_555 1_555
H6 C7 1_555 1_555
N2 C7 1_555 1_555
C8 N2 1_555 1_555
O1 C8 1_555 1_555
O2 C8 1_555 1_555
C9 O2 1_555 1_555
H7 C9 1_555 1_555
H8 C9 1_555 1_555
C10 N2 1_555 1_555
H9 C10 1_555 1_555
H10 C10 1_555 1_555
C11 C7 1_555 1_555
H11 C11 1_555 1_555
H12 C11 1_555 1_555
C12 C11 1_555 1_555
H13 C12 1_555 1_555
C13 C12 1_555 1_555
O3 C13 1_555 1_555
O4 C13 1_555 1_555
C14 O4 1_555 1_555
H14 C14 1_555 1_555
H15 C14 1_555 1_555
C15 C14 1_555 1_555
H16 C15 1_555 1_555
H17 C15 1_555 1_555
H18 C15 1_555 1_555
C16 C12 1_555 1_555
O5 C16 1_555 1_555
O6 C16 1_555 1_555
C17 O6 1_555 1_555
H19 C17 1_555 1_555
H20 C17 1_555 1_555
C18 C17 1_555 1_555
H21 C18 1_555 1_555
H22 C18 1_555 1_555
H23 C18 1_555 1_555
F1 C2 1_555 1_555
C5 C6 1_555 1_555
C9 C10 1_555 1_555

#END
