
#######################################################################
#
#                 Cambridge Crystallographic Data Centre
#                                CCDC 
#
#######################################################################
#
# If this CIF has been generated from an entry in the Cambridge 
# Structural Database, then it will include bibliographic, chemical, 
# crystal, experimental, refinement or atomic coordinate data resulting 
# from the CCDC's data processing and validation procedures.
#
#######################################################################

data_YEPFOR
_chemical_formula_moiety         'C16 H16 Br1 F1 N2 O5'
_chemical_name_systematic        
'ethyl 1-(4-bromo-2-fluorophenyl)-2-oxo-5-(2-oxo-1,3-oxazolidin-3-yl)pyrrolidine-3-carboxylate'
_symmetry_cell_setting           monoclinic
_symmetry_space_group_name_H-M   'P 21/c'
_symmetry_Int_Tables_number      14
_space_group_name_Hall           '-P 2ybc'
loop_
_symmetry_equiv_pos_site_id
_symmetry_equiv_pos_as_xyz
1 x,y,z
2 -x,1/2+y,1/2-z
3 -x,-y,-z
4 x,1/2-y,1/2+z
_cell_length_a                   6.7329(4)
_cell_length_b                   13.0936(8)
_cell_length_c                   18.8038(11)
_cell_angle_alpha                90
_cell_angle_beta                 91.924(2)
_cell_angle_gamma                90
_cell_volume                     1656.77
_exptl_crystal_colour            colorless
_exptl_crystal_description       block
_cell_formula_units_Z            4
_exptl_crystal_recrystallization_method 
'Re-crystallisation from solvent: deuterochloroform'
loop_
_atom_site_label
_atom_site_type_symbol
_atom_site_fract_x
_atom_site_fract_y
_atom_site_fract_z
O1 O 0.6535(3) 0.49147(15) 0.23915(11)
C1 C 0.5740(4) 0.5749(2) 0.23786(14)
N1 N 0.3973(4) 0.59794(16) 0.26679(12)
C2 C 0.3265(4) 0.7026(2) 0.25346(15)
H1 H 0.189911 0.699954 0.230918
C3 C 0.4723(5) 0.7436(2) 0.19896(14)
H2 H 0.410388 0.742860 0.150461
H3 H 0.512299 0.814537 0.210861
C4 C 0.6517(4) 0.6725(2) 0.20331(15)
H4 H 0.758678 0.703466 0.234593
C5 C 0.2996(4) 0.5316(2) 0.31468(14)
C6 C 0.3961(5) 0.5022(2) 0.37794(15)
C7 C 0.3051(6) 0.4410(2) 0.42752(16)
H5 H 0.373878 0.420031 0.469959
C8 C 0.1114(5) 0.4119(2) 0.41303(17)
C9 C 0.0112(5) 0.4387(2) 0.35050(18)
H6 H -0.121213 0.416110 0.341225
C10 C 0.1060(5) 0.4992(2) 0.30133(16)
H7 H 0.037874 0.518427 0.258344
F1 F 0.5826(3) 0.53501(16) 0.39208(9)
Br1 Br -0.02039(8) 0.33485(3) 0.48261(2)
N2 N 0.3204(4) 0.75965(18) 0.31865(13)
C11 C 0.1454(5) 0.7861(2) 0.34756(16)
O2 O 0.1852(3) 0.83250(17) 0.41124(11)
C12 C 0.3957(5) 0.8397(3) 0.42374(19)
H8 H 0.435420 0.803696 0.468290
H9 H 0.436286 0.912106 0.428232
C13 C 0.4936(5) 0.7907(2) 0.36094(16)
H10 H 0.575851 0.840247 0.335199
H11 H 0.576307 0.731369 0.375706
O3 O -0.0211(3) 0.77221(19) 0.32441(12)
C14 C 0.7350(5) 0.6442(2) 0.13250(15)
O4 O 0.6396(4) 0.64342(19) 0.07666(11)
O5 O 0.9221(3) 0.61382(16) 0.13896(10)
C15 C 1.0014(5) 0.5651(2) 0.07580(15)
H12 H 1.025171 0.616849 0.038675
H13 H 0.905655 0.514150 0.056182
C16 C 1.1920(5) 0.5141(3) 0.09799(18)
H14 H 1.288587 0.565709 0.114250
H15 H 1.244385 0.476842 0.057472
H16 H 1.168103 0.466137 0.136820
loop_
_geom_bond_atom_site_label_1
_geom_bond_atom_site_label_2
_geom_bond_site_symmetry_1
_geom_bond_site_symmetry_2
O1 C1 1_555 1_555
C1 N1 1_555 1_555
N1 C2 1_555 1_555
C2 H1 1_555 1_555
C3 C2 1_555 1_555
H2 C3 1_555 1_555
H3 C3 1_555 1_555
C4 C1 1_555 1_555
H4 C4 1_555 1_555
C5 N1 1_555 1_555
C6 C5 1_555 1_555
C7 C6 1_555 1_555
H5 C7 1_555 1_555
C8 C7 1_555 1_555
C9 C8 1_555 1_555
H6 C9 1_555 1_555
C10 C5 1_555 1_555
H7 C10 1_555 1_555
F1 C6 1_555 1_555
Br1 C8 1_555 1_555
N2 C2 1_555 1_555
C11 N2 1_555 1_555
O2 C11 1_555 1_555
C12 O2 1_555 1_555
H8 C12 1_555 1_555
H9 C12 1_555 1_555
C13 N2 1_555 1_555
H10 C13 1_555 1_555
H11 C13 1_555 1_555
O3 C11 1_555 1_555
C14 C4 1_555 1_555
O4 C14 1_555 1_555
O5 C14 1_555 1_555
C15 O5 1_555 1_555
H12 C15 1_555 1_555
H13 C15 1_555 1_555
C16 C15 1_555 1_555
H14 C16 1_555 1_555
H15 C16 1_555 1_555
H16 C16 1_555 1_555
C3 C4 1_555 1_555
C9 C10 1_555 1_555
C12 C13 1_555 1_555

#END
