
#######################################################################
#
#                 Cambridge Crystallographic Data Centre
#                                CCDC 
#
#######################################################################
#
# If this CIF has been generated from an entry in the Cambridge 
# Structural Database, then it will include bibliographic, chemical, 
# crystal, experimental, refinement or atomic coordinate data resulting 
# from the CCDC's data processing and validation procedures.
#
#######################################################################

data_YEPGAE
_chemical_formula_moiety         'C20 H19 N1 O3'
_chemical_name_systematic        
4-[6-oxo-2,3,6,7-tetrahydro-1H-3a,7a-(epoxyethano)inden-8-yl]isoquinolin-1(2H)-one
_symmetry_cell_setting           triclinic
_symmetry_space_group_name_H-M   'P -1'
_symmetry_Int_Tables_number      2
_space_group_name_Hall           '-P 1'
loop_
_symmetry_equiv_pos_site_id
_symmetry_equiv_pos_as_xyz
1 x,y,z
2 -x,-y,-z
_cell_length_a                   7.9556(16)
_cell_length_b                   8.5746(17)
_cell_length_c                   12.553(3)
_cell_angle_alpha                93.153(4)
_cell_angle_beta                 104.965(4)
_cell_angle_gamma                104.838(4)
_cell_volume                     792.931
_exptl_crystal_colour            colorless
_exptl_crystal_description       prismatic
_cell_formula_units_Z            2
loop_
_atom_site_label
_atom_site_type_symbol
_atom_site_fract_x
_atom_site_fract_y
_atom_site_fract_z
N1 N 1.2976(2) 0.3515(2) 0.90556(16)
O1 O 1.5001(2) 0.56420(19) 0.86796(13)
O2 O 0.7993(2) -0.02100(19) 0.90541(12)
O3 O 0.8796(3) 0.5206(2) 0.75455(19)
C1 C 1.1109(3) 0.2581(2) 0.68256(16)
C2 C 1.0265(3) 0.2162(3) 0.56700(17)
H1 H 0.9217 0.1298 0.5420
C3 C 1.0965(3) 0.3008(3) 0.49108(19)
H2 H 1.0378 0.2712 0.4156
C4 C 1.2535(4) 0.4297(3) 0.5253(2)
H3 H 1.3007 0.4851 0.4731
C5 C 1.3380(3) 0.4745(3) 0.63660(19)
H4 H 1.4429 0.5610 0.6599
C6 C 1.2686(3) 0.3917(2) 0.71570(17)
C7 C 1.3652(3) 0.4446(3) 0.83374(17)
C8 C 1.1445(3) 0.2217(3) 0.87413(17)
H5 H 1.1073 0.1653 0.9290
C9 C 1.0456(3) 0.1722(2) 0.76703(16)
C10 C 0.8732(3) 0.0312(2) 0.73772(17)
H6 H 0.8598 -0.0284 0.6658
C11 C 0.8674(3) -0.0877(3) 0.8240(2)
H7 H 0.7882 -0.1944 0.7896
H8 H 0.9877 -0.0979 0.8579
C12 C 0.6779(3) 0.0714(3) 0.85338(17)
C13 C 0.6957(3) 0.0808(2) 0.73299(16)
C14 C 0.6944(3) 0.2482(3) 0.69540(18)
H9 H 0.7405 0.2576 0.6309
H10 H 0.5696 0.2523 0.6719
C15 C 0.8017(3) 0.3926(3) 0.7803(2)
C16 C 0.7976(4) 0.3744(3) 0.8942(2)
H11 H 0.8373 0.4669 0.9463
C17 C 0.7390(3) 0.2302(3) 0.92645(19)
H12 H 0.7359 0.2281 0.9999
C18 C 0.4801(3) -0.0244(4) 0.8415(2)
H13 H 0.4763 -0.1245 0.8745
H14 H 0.4229 0.0399 0.8789
C19 C 0.3843(4) -0.0611(4) 0.7209(3)
H15 H 0.3169 0.0169 0.6983
H16 H 0.3001 -0.1693 0.7043
C20 C 0.5260(3) -0.0506(3) 0.6614(2)
H17 H 0.4857 -0.0202 0.5878
H18 H 0.5521 -0.1545 0.6539
H19 H 1.355(3) 0.377(3) 0.975(2)
loop_
_geom_bond_atom_site_label_1
_geom_bond_atom_site_label_2
_geom_bond_site_symmetry_1
_geom_bond_site_symmetry_2
N1 C7 1_555 1_555
O1 C7 1_555 1_555
O2 C11 1_555 1_555
O3 C15 1_555 1_555
C1 C2 1_555 1_555
C2 H1 1_555 1_555
C3 C2 1_555 1_555
H2 C3 1_555 1_555
C4 C3 1_555 1_555
H3 C4 1_555 1_555
C5 C4 1_555 1_555
H4 C5 1_555 1_555
C6 C1 1_555 1_555
C7 C6 1_555 1_555
C8 N1 1_555 1_555
H5 C8 1_555 1_555
C9 C1 1_555 1_555
C10 C9 1_555 1_555
H6 C10 1_555 1_555
C11 C10 1_555 1_555
H7 C11 1_555 1_555
H8 C11 1_555 1_555
C12 O2 1_555 1_555
C13 C10 1_555 1_555
C14 C13 1_555 1_555
H9 C14 1_555 1_555
H10 C14 1_555 1_555
C15 C14 1_555 1_555
C16 C15 1_555 1_555
H11 C16 1_555 1_555
C17 C12 1_555 1_555
H12 C17 1_555 1_555
C18 C12 1_555 1_555
H13 C18 1_555 1_555
H14 C18 1_555 1_555
C19 C18 1_555 1_555
H15 C19 1_555 1_555
H16 C19 1_555 1_555
C20 C13 1_555 1_555
H17 C20 1_555 1_555
H18 C20 1_555 1_555
H19 N1 1_555 1_555
C5 C6 1_555 1_555
C8 C9 1_555 1_555
C12 C13 1_555 1_555
C16 C17 1_555 1_555
C19 C20 1_555 1_555

#END
