
#######################################################################
#
#                 Cambridge Crystallographic Data Centre
#                                CCDC 
#
#######################################################################
#
# If this CIF has been generated from an entry in the Cambridge 
# Structural Database, then it will include bibliographic, chemical, 
# crystal, experimental, refinement or atomic coordinate data resulting 
# from the CCDC's data processing and validation procedures.
#
#######################################################################

data_YEPGEI
_chemical_formula_moiety         'C29 H31 N1 O4,0.25(H2 O1)'
_chemical_name_systematic        
'3a-methyl-8-(1-oxo-1,2-dihydroisoquinolin-4-yl)-1,2,3a,4,5,5a,7,8,8a,9,12,13,13a,13b-tetradecahydrocyclopenta[1,2]phenanthro[4b,5-b]furan-3,10-dione hydrate'
_symmetry_cell_setting           tetragonal
_symmetry_space_group_name_H-M   'P 41 21 2'
_symmetry_Int_Tables_number      92
_space_group_name_Hall           'P 4abw 2nw'
loop_
_symmetry_equiv_pos_site_id
_symmetry_equiv_pos_as_xyz
1 x,y,z
2 1/2-y,1/2+x,1/4+z
3 -x,-y,1/2+z
4 1/2+y,1/2-x,3/4+z
5 1/2+x,1/2-y,3/4-z
6 1/2-x,1/2+y,1/4-z
7 y,x,-z
8 -y,-x,1/2-z
_cell_length_a                   12.3116(6)
_cell_length_b                   12.3116(6)
_cell_length_c                   60.611(5)
_cell_angle_alpha                90
_cell_angle_beta                 90
_cell_angle_gamma                90
_cell_volume                     9187.14
_exptl_crystal_colour            colorless
_exptl_crystal_description       plate
_cell_formula_units_Z            16
loop_
_atom_site_label
_atom_site_type_symbol
_atom_site_fract_x
_atom_site_fract_y
_atom_site_fract_z
O5 O 0.7023(5) 0.9374(6) 0.00066(9)
O6 O 0.6206(4) 0.8980(4) -0.07730(9)
O7 O 1.1523(5) 0.9462(6) -0.01111(10)
O8 O 0.2974(8) 1.2696(6) -0.13531(12)
N2 N 0.9923(6) 0.8843(5) -0.02335(10)
H32 H 0.999034 0.828428 -0.014404
C30 C 0.6830(6) 1.0439(7) -0.05437(12)
H33 H 0.684036 1.116528 -0.061754
C31 C 0.6877(7) 1.0625(7) -0.02946(13)
H34 H 0.762135 1.085202 -0.025369
H35 H 0.637686 1.122423 -0.025556
C32 C 0.6580(7) 0.9647(7) -0.01644(12)
C33 C 0.5626(6) 0.9069(7) -0.02396(12)
H36 H 0.527473 0.858316 -0.014094
C34 C 0.5215(6) 0.9195(6) -0.04453(12)
C35 C 0.4171(7) 0.8622(7) -0.05083(13)
H37 H 0.381442 0.833162 -0.037433
H38 H 0.433563 0.800443 -0.060757
C36 C 0.3405(6) 0.9424(7) -0.06255(13)
H39 H 0.273786 0.903971 -0.067261
H40 H 0.319151 1.000708 -0.052155
C37 C 0.3949(6) 0.9915(6) -0.08224(11)
H41 H 0.414812 0.931719 -0.092659
C38 C 0.5016(6) 1.0537(6) -0.07548(12)
H42 H 0.479398 1.114599 -0.065554
C39 C 0.5794(6) 0.9819(6) -0.06235(12)
C40 C 0.5573(8) 1.1052(8) -0.09578(14)
H43 H 0.620527 1.148291 -0.090784
H44 H 0.584597 1.046589 -0.105495
C41 C 0.4816(8) 1.1784(8) -0.10904(15)
H45 H 0.463108 1.243324 -0.100165
H46 H 0.519279 1.203131 -0.122560
C42 C 0.3793(7) 1.1201(6) -0.11531(13)
C43 C 0.3247(6) 1.0722(6) -0.09438(12)
H47 H 0.314727 1.134704 -0.084048
C44 C 0.2083(7) 1.0411(7) -0.10246(14)
H48 H 0.208633 0.971753 -0.110715
H49 H 0.156698 1.035694 -0.089982
C45 C 0.1812(9) 1.1355(9) -0.11727(15)
H50 H 0.134891 1.188143 -0.109269
H51 H 0.140779 1.109584 -0.130369
C46 C 0.2856(9) 1.1897(7) -0.12439(15)
C47 C 0.7779(6) 0.9746(7) -0.06420(13)
H52 H 0.797305 1.007630 -0.078745
C48 C 0.7238(6) 0.8666(6) -0.06901(15)
H53 H 0.765215 0.824667 -0.080125
H54 H 0.716412 0.822466 -0.055428
C49 C 0.9014(7) 0.8888(7) -0.03624(12)
H55 H 0.849359 0.832124 -0.035031
C50 C 0.8823(6) 0.9699(7) -0.05055(12)
C51 C 0.9630(6) 1.0547(6) -0.05173(12)
C52 C 0.9515(7) 1.1465(6) -0.06608(12)
H56 H 0.890686 1.151724 -0.075683
C53 C 1.0298(7) 1.2280(7) -0.06588(14)
H57 H 1.022606 1.288878 -0.075384
C54 C 1.1182(9) 1.2205(8) -0.05187(16)
H58 H 1.170691 1.277065 -0.051842
C55 C 1.1319(7) 1.1343(8) -0.03817(14)
H59 H 1.193315 1.131074 -0.028708
C56 C 1.0555(6) 1.0506(6) -0.03801(12)
C57 C 1.0725(8) 0.9590(7) -0.02330(13)
C58 C 0.4018(8) 1.0322(7) -0.13296(12)
H60 H 0.453909 0.979257 -0.127136
H61 H 0.431984 1.066449 -0.146205
H62 H 0.333841 0.995137 -0.136723
O1 O 0.6779(5) 0.4601(6) 0.00719(9)
O2 O 0.6378(5) 0.3944(4) -0.07522(9)
O3 O 0.3120(11) 0.7714(6) -0.1318(2)
O4 O 1.1235(7) 0.3945(7) 0.00503(12)
N1 N 0.9682(6) 0.3455(6) -0.01130(11)
H1 H 0.963632 0.289966 -0.002215
C1 C 0.6987(6) 0.5348(7) -0.05075(12)
H2 H 0.708039 0.603657 -0.059297
C2 C 0.6910(7) 0.5650(7) -0.02660(12)
H3 H 0.642981 0.629124 -0.025092
H4 H 0.764009 0.585996 -0.021262
C3 C 0.6471(6) 0.4735(7) -0.01199(13)
C4 C 0.5618(9) 0.4099(8) -0.02123(14)
H5 H 0.522748 0.362279 -0.011786
C5 C 0.5344(7) 0.4138(7) -0.04217(12)
C6 C 0.4372(9) 0.3502(9) -0.05080(15)
H6 H 0.399073 0.314251 -0.038411
H7 H 0.461860 0.293445 -0.061239
C7 C 0.3602(8) 0.4294(10) -0.06252(15)
H8 H 0.296932 0.388889 -0.068379
H9 H 0.333005 0.483529 -0.051785
C8 C 0.4175(6) 0.4877(6) -0.08140(12)
H10 H 0.441495 0.432516 -0.092471
C9 C 0.5182(6) 0.5502(6) -0.07307(12)
H11 H 0.491881 0.608029 -0.062798
C10 C 0.5955(7) 0.4765(6) -0.05990(12)
C11 C 0.5743(7) 0.6069(7) -0.09231(13)
H12 H 0.635353 0.650793 -0.086496
H13 H 0.605273 0.551109 -0.102244
C12 C 0.4999(10) 0.6805(8) -0.10567(16)
H14 H 0.538766 0.706036 -0.119001
H15 H 0.480416 0.744981 -0.096739
C13 C 0.3959(8) 0.6205(7) -0.11259(13)
C14 C 0.3434(7) 0.5684(7) -0.09272(15)
H16 H 0.330528 0.628191 -0.081863
C15 C 0.2325(7) 0.5343(10) -0.10103(17)
H17 H 0.180977 0.524063 -0.088669
H18 H 0.236923 0.466215 -0.109673
C16 C 0.1989(9) 0.6302(10) -0.1156(2)
H19 H 0.161206 0.604135 -0.129052
H20 H 0.149558 0.679552 -0.107500
C17 C 0.3013(13) 0.6872(9) -0.1216(2)
C18 C 0.7939(6) 0.4560(6) -0.05762(13)
H21 H 0.828031 0.487451 -0.071166
C19 C 0.7347(7) 0.3532(7) -0.06475(16)
H22 H 0.778978 0.310378 -0.075240
H23 H 0.716416 0.307204 -0.051873
C20 C 0.8857(8) 0.3597(7) -0.02644(12)
H24 H 0.827700 0.308814 -0.026607
C21 C 0.8835(7) 0.4418(6) -0.04088(12)
C22 C 0.9745(7) 0.5172(7) -0.04066(14)
C23 C 0.9822(8) 0.6082(7) -0.05530(15)
H25 H 0.925952 0.621595 -0.065682
C24 C 1.0696(10) 0.6753(9) -0.05440(19)
H26 H 1.073460 0.735176 -0.064252
C25 C 1.1565(9) 0.6582(11) -0.0389(2)
H27 H 1.217391 0.705530 -0.038568
C26 C 1.1495(7) 0.5721(11) -0.0247(2)
H28 H 1.206028 0.560429 -0.014320
C27 C 1.0600(7) 0.5003(7) -0.02514(15)
C28 C 1.0570(8) 0.4126(8) -0.00950(16)
C29 C 0.4229(7) 0.5381(7) -0.13137(13)
H29 H 0.476627 0.485518 -0.126060
H30 H 0.452429 0.577284 -0.144102
H31 H 0.356556 0.499727 -0.135753
O9? O 0.3342(17) 0.312(2) 0.0077(3)
loop_
_geom_bond_atom_site_label_1
_geom_bond_atom_site_label_2
_geom_bond_site_symmetry_1
_geom_bond_site_symmetry_2
O1 C3 1_555 1_555
O2 C10 1_555 1_555
O3 C17 1_555 1_555
O4 C28 1_555 1_555
N1 H1 1_555 1_555
C1 H2 1_555 1_555
C2 C1 1_555 1_555
H3 C2 1_555 1_555
H4 C2 1_555 1_555
C3 C2 1_555 1_555
C4 C3 1_555 1_555
H5 C4 1_555 1_555
C5 C4 1_555 1_555
C6 C5 1_555 1_555
H6 C6 1_555 1_555
H7 C6 1_555 1_555
C7 C6 1_555 1_555
H8 C7 1_555 1_555
H9 C7 1_555 1_555
C8 C7 1_555 1_555
H10 C8 1_555 1_555
C9 C8 1_555 1_555
H11 C9 1_555 1_555
C10 C1 1_555 1_555
C11 C9 1_555 1_555
H12 C11 1_555 1_555
H13 C11 1_555 1_555
C12 C11 1_555 1_555
H14 C12 1_555 1_555
H15 C12 1_555 1_555
C13 C12 1_555 1_555
C14 C8 1_555 1_555
H16 C14 1_555 1_555
C15 C14 1_555 1_555
H17 C15 1_555 1_555
H18 C15 1_555 1_555
C16 C15 1_555 1_555
H19 C16 1_555 1_555
H20 C16 1_555 1_555
C17 C13 1_555 1_555
C18 C1 1_555 1_555
H21 C18 1_555 1_555
C19 O2 1_555 1_555
H22 C19 1_555 1_555
H23 C19 1_555 1_555
C20 N1 1_555 1_555
H24 C20 1_555 1_555
C21 C18 1_555 1_555
C22 C21 1_555 1_555
C23 C22 1_555 1_555
H25 C23 1_555 1_555
C24 C23 1_555 1_555
H26 C24 1_555 1_555
C25 C24 1_555 1_555
H27 C25 1_555 1_555
C26 C25 1_555 1_555
H28 C26 1_555 1_555
C27 C22 1_555 1_555
C28 N1 1_555 1_555
C29 C13 1_555 1_555
H29 C29 1_555 1_555
H30 C29 1_555 1_555
H31 C29 1_555 1_555
O5 C32 1_555 1_555
O6 C39 1_555 1_555
O7 C57 1_555 1_555
O8 C46 1_555 1_555
N2 H32 1_555 1_555
C30 H33 1_555 1_555
C31 C30 1_555 1_555
H34 C31 1_555 1_555
H35 C31 1_555 1_555
C32 C31 1_555 1_555
C33 C32 1_555 1_555
H36 C33 1_555 1_555
C34 C33 1_555 1_555
C35 C34 1_555 1_555
H37 C35 1_555 1_555
H38 C35 1_555 1_555
C36 C35 1_555 1_555
H39 C36 1_555 1_555
H40 C36 1_555 1_555
C37 C36 1_555 1_555
H41 C37 1_555 1_555
C38 C37 1_555 1_555
H42 C38 1_555 1_555
C39 C30 1_555 1_555
C40 C38 1_555 1_555
H43 C40 1_555 1_555
H44 C40 1_555 1_555
C41 C40 1_555 1_555
H45 C41 1_555 1_555
H46 C41 1_555 1_555
C42 C41 1_555 1_555
C43 C37 1_555 1_555
H47 C43 1_555 1_555
C44 C43 1_555 1_555
H48 C44 1_555 1_555
H49 C44 1_555 1_555
C45 C44 1_555 1_555
H50 C45 1_555 1_555
H51 C45 1_555 1_555
C46 C42 1_555 1_555
C47 C30 1_555 1_555
H52 C47 1_555 1_555
C48 O6 1_555 1_555
H53 C48 1_555 1_555
H54 C48 1_555 1_555
C49 N2 1_555 1_555
H55 C49 1_555 1_555
C50 C47 1_555 1_555
C51 C50 1_555 1_555
C52 C51 1_555 1_555
H56 C52 1_555 1_555
C53 C52 1_555 1_555
H57 C53 1_555 1_555
C54 C53 1_555 1_555
H58 C54 1_555 1_555
C55 C54 1_555 1_555
H59 C55 1_555 1_555
C56 C51 1_555 1_555
C57 N2 1_555 1_555
C58 C42 1_555 1_555
H60 C58 1_555 1_555
H61 C58 1_555 1_555
H62 C58 1_555 1_555
C5 C10 1_555 1_555
C9 C10 1_555 1_555
C13 C14 1_555 1_555
C16 C17 1_555 1_555
C18 C19 1_555 1_555
C20 C21 1_555 1_555
C26 C27 1_555 1_555
C27 C28 1_555 1_555
C34 C39 1_555 1_555
C38 C39 1_555 1_555
C42 C43 1_555 1_555
C45 C46 1_555 1_555
C47 C48 1_555 1_555
C49 C50 1_555 1_555
C55 C56 1_555 1_555
C56 C57 1_555 1_555

#END
