
#######################################################################
#
#                 Cambridge Crystallographic Data Centre
#                                CCDC 
#
#######################################################################
#
# If this CIF has been generated from an entry in the Cambridge 
# Structural Database, then it will include bibliographic, chemical, 
# crystal, experimental, refinement or atomic coordinate data resulting 
# from the CCDC's data processing and validation procedures.
#
#######################################################################

data_YEPQES
_chemical_formula_moiety         'C19 H24 O7'
_chemical_name_systematic        
4-hydroxy-3,9,13-trimethyl-10,11,16,16a-tetrahydro-1H,3H-2,8-benzodioxacyclotetradecine-1,7,12,15(4H,9H,12aH)-tetrone
_symmetry_cell_setting           orthorhombic
_symmetry_space_group_name_H-M   'P 21 21 21'
_symmetry_Int_Tables_number      19
_space_group_name_Hall           'P 2ac 2ab'
loop_
_symmetry_equiv_pos_site_id
_symmetry_equiv_pos_as_xyz
1 x,y,z
2 1/2-x,-y,1/2+z
3 -x,1/2+y,1/2-z
4 1/2+x,1/2-y,-z
_cell_length_a                   5.2433(2)
_cell_length_b                   9.9712(3)
_cell_length_c                   35.5988(11)
_cell_angle_alpha                90
_cell_angle_beta                 90
_cell_angle_gamma                90
_cell_volume                     1861.18
_exptl_crystal_colour            colorless
_exptl_crystal_description       block
_cell_formula_units_Z            4
loop_
_atom_site_label
_atom_site_type_symbol
_atom_site_fract_x
_atom_site_fract_y
_atom_site_fract_z
O1 O 0.9039(4) 0.4971(3) 0.62248(6)
O2 O 0.5675(4) 0.4695(2) 0.58391(5)
O3 O 0.0493(5) 0.2972(3) 0.69877(7)
O4 O 0.4445(5) 0.7930(2) 0.64450(7)
O5 O 0.9429(5) 0.8906(2) 0.60145(6)
O6 O 1.2866(5) 0.9511(3) 0.56772(6)
O7 O 0.9896(5) 0.5343(3) 0.50439(6)
H1 H 0.940063 0.540625 0.482016
C1 C 0.6795(5) 0.4942(3) 0.61728(7)
C2 C 0.4782(5) 0.5124(3) 0.64742(7)
H2 H 0.325209 0.556166 0.635979
C3 C 0.4014(6) 0.3737(3) 0.66210(9)
H3 H 0.329341 0.319982 0.641249
H4 H 0.554437 0.326508 0.671627
C4 C 0.2072(6) 0.3850(3) 0.69312(9)
C5 C 0.2282(6) 0.5020(4) 0.71725(8)
H5 H 0.112334 0.509566 0.737650
C6 C 0.3998(6) 0.5997(3) 0.71264(8)
C7 C 0.5791(6) 0.6017(3) 0.67901(7)
H6 H 0.749829 0.567571 0.687080
C8 C 0.4283(8) 0.7093(5) 0.74114(10)
H7 H 0.599599 0.705627 0.752092
H8 H 0.300835 0.697561 0.761004
H9 H 0.403016 0.796458 0.728956
C9 C 0.6098(6) 0.7468(3) 0.66425(8)
C10 C 0.8445(7) 0.8233(3) 0.67511(9)
H10 H 0.994914 0.779247 0.663705
H11 H 0.864626 0.819135 0.702733
C11 C 0.8403(8) 0.9703(3) 0.66302(10)
H12 H 0.912377 1.024983 0.683656
H13 H 0.660342 0.997875 0.659699
C12 C 0.9853(7) 1.0033(3) 0.62699(9)
H14 H 1.171535 1.011564 0.632603
C13 C 0.8909(9) 1.1308(4) 0.60937(12)
H15 H 0.991423 1.150321 0.586818
H16 H 0.908629 1.204711 0.627317
H17 H 0.711016 1.120467 0.602478
C14 C 1.1102(6) 0.8746(3) 0.57364(8)
C15 C 1.0598(6) 0.7535(3) 0.55077(8)
H18 H 1.188410 0.723348 0.533980
C16 C 0.8449(6) 0.6858(3) 0.55267(8)
H19 H 0.719984 0.714987 0.570178
C17 C 0.7840(6) 0.5653(3) 0.52900(8)
H20 H 0.629362 0.585531 0.513562
C18 C 0.7329(6) 0.4379(3) 0.55206(8)
H21 H 0.897429 0.398902 0.561161
C19 C 0.5884(8) 0.3354(4) 0.52923(9)
H22 H 0.570181 0.252666 0.543827
H23 H 0.682178 0.316421 0.506013
H24 H 0.419153 0.370692 0.523013
loop_
_geom_bond_atom_site_label_1
_geom_bond_atom_site_label_2
_geom_bond_site_symmetry_1
_geom_bond_site_symmetry_2
O1 C1 1_555 1_555
O2 C1 1_555 1_555
O3 C4 1_555 1_555
O4 C9 1_555 1_555
O5 C12 1_555 1_555
O6 C14 1_555 1_555
O7 H1 1_555 1_555
C1 C2 1_555 1_555
C2 H2 1_555 1_555
C3 C2 1_555 1_555
H3 C3 1_555 1_555
H4 C3 1_555 1_555
C4 C3 1_555 1_555
C5 C4 1_555 1_555
H5 C5 1_555 1_555
C6 C5 1_555 1_555
C7 C2 1_555 1_555
H6 C7 1_555 1_555
C8 C6 1_555 1_555
H7 C8 1_555 1_555
H8 C8 1_555 1_555
H9 C8 1_555 1_555
C9 C7 1_555 1_555
C10 C9 1_555 1_555
H10 C10 1_555 1_555
H11 C10 1_555 1_555
C11 C10 1_555 1_555
H12 C11 1_555 1_555
H13 C11 1_555 1_555
C12 C11 1_555 1_555
H14 C12 1_555 1_555
C13 C12 1_555 1_555
H15 C13 1_555 1_555
H16 C13 1_555 1_555
H17 C13 1_555 1_555
C14 O5 1_555 1_555
C15 C14 1_555 1_555
H18 C15 1_555 1_555
C16 C15 1_555 1_555
H19 C16 1_555 1_555
C17 O7 1_555 1_555
H20 C17 1_555 1_555
C18 O2 1_555 1_555
H21 C18 1_555 1_555
C19 C18 1_555 1_555
H22 C19 1_555 1_555
H23 C19 1_555 1_555
H24 C19 1_555 1_555
C6 C7 1_555 1_555
C16 C17 1_555 1_555
C17 C18 1_555 1_555

#END
