
#######################################################################
#
#                 Cambridge Crystallographic Data Centre
#                                CCDC 
#
#######################################################################
#
# If this CIF has been generated from an entry in the Cambridge 
# Structural Database, then it will include bibliographic, chemical, 
# crystal, experimental, refinement or atomic coordinate data resulting 
# from the CCDC's data processing and validation procedures.
#
#######################################################################

data_YEPSAQ
_chemical_formula_moiety         'C21 H22 N2 O2 S1'
_chemical_name_systematic        
5-isopropyl-2-((2-(4-methylphenyl)-2-oxoethyl)sulfanyl)-3-phenyl-3,5-dihydro-4H-imidazol-4-one
_symmetry_cell_setting           orthorhombic
_symmetry_space_group_name_H-M   'P b c a'
_symmetry_Int_Tables_number      61
_space_group_name_Hall           '-P 2ac 2ab'
loop_
_symmetry_equiv_pos_site_id
_symmetry_equiv_pos_as_xyz
1 x,y,z
2 1/2+x,1/2-y,-z
3 -x,1/2+y,1/2-z
4 1/2-x,-y,1/2+z
5 -x,-y,-z
6 1/2-x,1/2+y,z
7 x,1/2-y,1/2+z
8 1/2+x,y,1/2-z
_cell_length_a                   12.6875(16)
_cell_length_b                   11.3244(14)
_cell_length_c                   26.090(3)
_cell_angle_alpha                90
_cell_angle_beta                 90
_cell_angle_gamma                90
_cell_volume                     3748.57
_exptl_crystal_colour            colorless
_cell_formula_units_Z            8
loop_
_atom_site_label
_atom_site_type_symbol
_atom_site_fract_x
_atom_site_fract_y
_atom_site_fract_z
S1 S 1.09737(4) 0.23807(4) 0.53827(2)
O1 O 1.03490(10) 0.24601(11) 0.65293(5)
O2 O 0.78068(10) 0.42940(11) 0.46047(5)
N1 N 0.92591(12) 0.32340(12) 0.48872(6)
N2 N 0.96690(11) 0.41853(12) 0.56325(6)
C1 C 1.20198(18) 0.72255(18) 0.76998(8)
H1 H 1.1945 0.7936 0.7489
H2 H 1.2743 0.7174 0.7830
H3 H 1.1527 0.7265 0.7989
C2 C 1.17787(16) 0.61482(17) 0.73799(7)
C3 C 1.08279(16) 0.55426(16) 0.74329(7)
H4 H 1.0333 0.5798 0.7683
C4 C 1.05903(15) 0.45740(17) 0.71285(7)
H5 H 0.9948 0.4159 0.7180
C5 C 1.12908(15) 0.42043(16) 0.67466(7)
C6 C 1.10096(14) 0.31895(16) 0.64068(7)
C7 C 1.16362(14) 0.30969(16) 0.59092(7)
H6 H 1.2296 0.2661 0.5981
H7 H 1.1835 0.3904 0.5800
C8 C 0.99179(14) 0.33615(15) 0.53211(7)
C9 C 0.94530(13) 0.24996(15) 0.44481(7)
C10 C 0.94646(15) 0.12738(16) 0.45024(7)
H8 H 0.9316 0.0919 0.4824
C11 C 0.96962(16) 0.05815(16) 0.40786(8)
H9 H 0.9723 -0.0253 0.4112
C12 C 0.98885(15) 0.11005(17) 0.36080(8)
H10 H 1.0050 0.0620 0.3320
C13 C 1.22405(15) 0.48121(17) 0.66921(7)
H11 H 1.2725 0.4578 0.6434
C14 C 1.24876(16) 0.57522(18) 0.70094(7)
H12 H 1.3151 0.6133 0.6974
C15 C 0.96312(14) 0.30270(16) 0.39779(7)
H13 H 0.9607 0.3862 0.3944
C16 C 0.98466(15) 0.23177(17) 0.35536(7)
H14 H 0.9965 0.2668 0.3228
C17 C 0.84888(14) 0.41041(15) 0.49207(7)
C18 C 0.86720(14) 0.46875(15) 0.54370(7)
H15 H 0.8750 0.5560 0.5391
C19 C 0.77480(14) 0.44296(15) 0.58037(7)
H16 H 0.7093 0.4768 0.5649
C20 C 0.79260(17) 0.50249(17) 0.63218(8)
H17 H 0.7307 0.4903 0.6540
H18 H 0.8038 0.5873 0.6271
H19 H 0.8548 0.4681 0.6487
C21 C 0.75814(16) 0.31020(16) 0.58731(7)
H20 H 0.8226 0.2745 0.6010
H21 H 0.7414 0.2743 0.5541
H22 H 0.6998 0.2967 0.6112
loop_
_geom_bond_atom_site_label_1
_geom_bond_atom_site_label_2
_geom_bond_site_symmetry_1
_geom_bond_site_symmetry_2
S1 C7 1_555 1_555
O1 C6 1_555 1_555
O2 C17 1_555 1_555
N1 C8 1_555 1_555
N2 C8 1_555 1_555
C1 H1 1_555 1_555
H2 C1 1_555 1_555
H3 C1 1_555 1_555
C2 C1 1_555 1_555
C3 C2 1_555 1_555
H4 C3 1_555 1_555
C4 C3 1_555 1_555
H5 C4 1_555 1_555
C5 C4 1_555 1_555
C6 C5 1_555 1_555
C7 C6 1_555 1_555
H6 C7 1_555 1_555
H7 C7 1_555 1_555
C8 S1 1_555 1_555
C9 N1 1_555 1_555
C10 C9 1_555 1_555
H8 C10 1_555 1_555
C11 C10 1_555 1_555
H9 C11 1_555 1_555
C12 C11 1_555 1_555
H10 C12 1_555 1_555
C13 C5 1_555 1_555
H11 C13 1_555 1_555
C14 C2 1_555 1_555
H12 C14 1_555 1_555
C15 C9 1_555 1_555
H13 C15 1_555 1_555
C16 C12 1_555 1_555
H14 C16 1_555 1_555
C17 N1 1_555 1_555
C18 N2 1_555 1_555
H15 C18 1_555 1_555
C19 C18 1_555 1_555
H16 C19 1_555 1_555
C20 C19 1_555 1_555
H17 C20 1_555 1_555
H18 C20 1_555 1_555
H19 C20 1_555 1_555
C21 C19 1_555 1_555
H20 C21 1_555 1_555
H21 C21 1_555 1_555
H22 C21 1_555 1_555
C13 C14 1_555 1_555
C15 C16 1_555 1_555
C17 C18 1_555 1_555

#END
