
#######################################################################
#
#                 Cambridge Crystallographic Data Centre
#                                CCDC 
#
#######################################################################
#
# If this CIF has been generated from an entry in the Cambridge 
# Structural Database, then it will include bibliographic, chemical, 
# crystal, experimental, refinement or atomic coordinate data resulting 
# from the CCDC's data processing and validation procedures.
#
#######################################################################

data_YEPVEU
_chemical_formula_moiety         'C29 H53 B2 N2'
_chemical_name_systematic        
2,6-Dicyclohexyl-3,3:5,5-bis(1,5-cyclo-octandiyl)-2,5-azazonia-4-hydronia-3,5-diboratin
_symmetry_cell_setting           monoclinic
_symmetry_space_group_name_H-M   'C 2/c'
_symmetry_Int_Tables_number      15
_space_group_name_Hall           '-C 2yn'
loop_
_symmetry_equiv_pos_site_id
_symmetry_equiv_pos_as_xyz
1 x,y,z
2 1/2+x,1/2+y,z
3 -x,y,1/2-z
4 1/2-x,1/2+y,1/2-z
5 -x,-y,-z
6 1/2-x,1/2-y,-z
7 x,-y,1/2+z
8 1/2+x,1/2-y,1/2+z
_cell_length_a                   27.776(3)
_cell_length_b                   17.140(2)
_cell_length_c                   12.302(2)
_cell_angle_alpha                90
_cell_angle_beta                 113.31(1)
_cell_angle_gamma                90
_cell_volume                     5378.7
_exptl_crystal_colour            colorless
_cell_formula_units_Z            8
loop_
_atom_site_label
_atom_site_type_symbol
_atom_site_fract_x
_atom_site_fract_y
_atom_site_fract_z
N1 N 0.87264(5) 0.71542(7) 0.79503(11)
N2 N 0.79973(5) 0.79200(7) 0.75860(11)
H1 H 0.88039(61) 0.84540(91) 0.8260(14)
B1 B 0.90963(7) 0.78176(10) 0.87017(16)
B2 B 0.83188(7) 0.86720(11) 0.75774(17)
C1 C 0.82162(6) 0.72394(9) 0.76088(13)
H2 H 0.79966(6) 0.67853(9) 0.73684(13)
C2 C 0.91881(6) 0.77860(9) 1.00677(14)
H3 H 0.88534(6) 0.77141(9) 1.01116(14)
C3 C 0.95354(7) 0.70706(10) 1.06098(16)
H4 H 0.93483(7) 0.66045(10) 1.02492(16)
H5 H 0.96052(7) 0.70502(10) 1.14379(16)
C4 C 1.00653(7) 0.70726(12) 1.04720(20)
H6 H 1.02190(7) 0.65618(12) 1.06497(20)
H7 H 1.02966(7) 0.74249(12) 1.10504(20)
C5 C 1.00512(7) 0.73344(11) 0.92658(19)
H8 H 0.99698(7) 0.68807(11) 0.87673(19)
H9 H 1.03940(7) 0.75084(11) 0.93594(19)
C6 C 0.96530(6) 0.79730(10) 0.86254(16)
H10 H 0.95986(6) 0.79796(10) 0.78053(16)
C7 C 0.98600(7) 0.87726(10) 0.91932(16)
H11 H 0.96258(7) 0.91691(10) 0.87228(16)
H12 H 1.01971(7) 0.88626(10) 0.91704(16)
C8 C 0.99041(7) 0.88602(11) 1.04717(16)
H13 H 0.99598(7) 0.94002(11) 1.06960(16)
H14 H 1.02094(7) 0.85770(11) 1.09742(16)
C9 C 0.94283(7) 0.85588(10) 1.06848(15)
H15 H 0.95356(7) 0.84832(10) 1.15206(15)
H16 H 0.91634(7) 0.89571(10) 1.04448(15)
C10 C 0.83098(6) 0.88510(10) 0.62966(14)
H17 H 0.83713(6) 0.83695(10) 0.59733(14)
C11 C 0.87460(7) 0.94359(11) 0.63929(15)
H18 H 0.86968(7) 0.95929(11) 0.56074(15)
H19 H 0.90796(7) 0.91786(11) 0.67390(15)
C12 C 0.87645(8) 1.01755(11) 0.71132(16)
H20 H 0.85048(8) 1.05336(11) 0.66165(16)
H21 H 0.91014(8) 1.04159(11) 0.73206(16)
C13 C 0.86713(7) 1.00438(10) 0.82484(15)
H22 H 0.85984(7) 1.05382(10) 0.85182(15)
H23 H 0.89910(7) 0.98481(10) 0.88426(15)
C14 C 0.82210(6) 0.94800(9) 0.81267(15)
H24 H 0.82244(6) 0.93719(9) 0.88948(15)
C15 C 0.76880(7) 0.98447(10) 0.73296(16)
H25 H 0.76750(7) 1.03704(10) 0.75871(16)
H26 H 0.74151(7) 0.95557(10) 0.74420(16)
C16 C 0.75633(8) 0.98519(11) 0.59936(17)
H27 H 0.77220(8) 1.03117(11) 0.58340(17)
H28 H 0.71912(8) 0.99010(11) 0.55657(17)
C17 C 0.77534(7) 0.91411(11) 0.55101(15)
H29 H 0.75074(7) 0.87231(11) 0.53910(15)
H30 H 0.77493(7) 0.92785(11) 0.47505(15)
C18 C 0.74407(6) 0.79532(9) 0.74378(14)
H31 H 0.72973(6) 0.84321(9) 0.70340(14)
C19 C 0.74094(7) 0.80003(11) 0.86439(15)
H32 H 0.76234(7) 0.84245(11) 0.90871(15)
H33 H 0.75443(7) 0.75252(11) 0.90691(15)
C20 C 0.68416(7) 0.81146(12) 0.85044(17)
H34 H 0.67172(7) 0.86138(12) 0.81499(17)
H35 H 0.68256(7) 0.81048(12) 0.92691(17)
C21 C 0.64869(7) 0.74802(13) 0.77476(18)
H36 H 0.61292(7) 0.75699(13) 0.76364(18)
H37 H 0.65938(7) 0.69878(13) 0.81427(18)
C22 C 0.65276(7) 0.74325(12) 0.65560(17)
H38 H 0.64045(7) 0.79150(12) 0.61420(17)
H39 H 0.63072(7) 0.70198(12) 0.60948(17)
C23 C 0.70947(6) 0.72991(10) 0.67022(17)
H40 H 0.72172(6) 0.68075(10) 0.70873(17)
H41 H 0.71147(6) 0.72873(10) 0.59415(17)
C24 C 0.89263(6) 0.64004(9) 0.77331(15)
H42 H 0.92950(6) 0.63920(9) 0.82190(15)
C25 C 0.88782(8) 0.63298(10) 0.64678(17)
H43 H 0.90272(8) 0.67869(10) 0.62716(17)
H44 H 0.85146(8) 0.63027(10) 0.59445(17)
C26 C 0.91618(9) 0.56020(11) 0.63124(21)
H45 H 0.95309(9) 0.56588(11) 0.67730(21)
H46 H 0.91104(9) 0.55475(11) 0.54978(21)
C27 C 0.89684(8) 0.48703(10) 0.67127(18)
H47 H 0.91755(8) 0.44295(10) 0.66786(18)
H48 H 0.86119(8) 0.47734(10) 0.61831(18)
C28 C 0.89960(8) 0.49604(11) 0.79625(17)
H49 H 0.93563(8) 0.50109(11) 0.84989(17)
H50 H 0.88579(8) 0.44983(11) 0.81752(17)
C29 C 0.86949(7) 0.56798(10) 0.80691(16)
H51 H 0.83297(7) 0.56297(10) 0.75672(16)
H52 H 0.87295(7) 0.57334(10) 0.88729(16)
loop_
_geom_bond_atom_site_label_1
_geom_bond_atom_site_label_2
_geom_bond_site_symmetry_1
_geom_bond_site_symmetry_2
N1 B1 1_555 1_555
N2 B2 1_555 1_555
H1 B1 1_555 1_555
B1 C2 1_555 1_555
B2 H1 1_555 1_555
C1 N1 1_555 1_555
H2 C1 1_555 1_555
C2 H3 1_555 1_555
C3 C2 1_555 1_555
H4 C3 1_555 1_555
H5 C3 1_555 1_555
C4 C3 1_555 1_555
H6 C4 1_555 1_555
H7 C4 1_555 1_555
C5 C4 1_555 1_555
H8 C5 1_555 1_555
H9 C5 1_555 1_555
C6 B1 1_555 1_555
H10 C6 1_555 1_555
C7 C6 1_555 1_555
H11 C7 1_555 1_555
H12 C7 1_555 1_555
C8 C7 1_555 1_555
H13 C8 1_555 1_555
H14 C8 1_555 1_555
C9 C2 1_555 1_555
H15 C9 1_555 1_555
H16 C9 1_555 1_555
C10 B2 1_555 1_555
H17 C10 1_555 1_555
C11 C10 1_555 1_555
H18 C11 1_555 1_555
H19 C11 1_555 1_555
C12 C11 1_555 1_555
H20 C12 1_555 1_555
H21 C12 1_555 1_555
C13 C12 1_555 1_555
H22 C13 1_555 1_555
H23 C13 1_555 1_555
C14 B2 1_555 1_555
H24 C14 1_555 1_555
C15 C14 1_555 1_555
H25 C15 1_555 1_555
H26 C15 1_555 1_555
C16 C15 1_555 1_555
H27 C16 1_555 1_555
H28 C16 1_555 1_555
C17 C10 1_555 1_555
H29 C17 1_555 1_555
H30 C17 1_555 1_555
C18 N2 1_555 1_555
H31 C18 1_555 1_555
C19 C18 1_555 1_555
H32 C19 1_555 1_555
H33 C19 1_555 1_555
C20 C19 1_555 1_555
H34 C20 1_555 1_555
H35 C20 1_555 1_555
C21 C20 1_555 1_555
H36 C21 1_555 1_555
H37 C21 1_555 1_555
C22 C21 1_555 1_555
H38 C22 1_555 1_555
H39 C22 1_555 1_555
C23 C18 1_555 1_555
H40 C23 1_555 1_555
H41 C23 1_555 1_555
C24 N1 1_555 1_555
H42 C24 1_555 1_555
C25 C24 1_555 1_555
H43 C25 1_555 1_555
H44 C25 1_555 1_555
C26 C25 1_555 1_555
H45 C26 1_555 1_555
H46 C26 1_555 1_555
C27 C26 1_555 1_555
H47 C27 1_555 1_555
H48 C27 1_555 1_555
C28 C27 1_555 1_555
H49 C28 1_555 1_555
H50 C28 1_555 1_555
C29 C24 1_555 1_555
H51 C29 1_555 1_555
H52 C29 1_555 1_555
N2 C1 1_555 1_555
C5 C6 1_555 1_555
C8 C9 1_555 1_555
C13 C14 1_555 1_555
C16 C17 1_555 1_555
C22 C23 1_555 1_555
C28 C29 1_555 1_555

#END
