
#######################################################################
#
#                 Cambridge Crystallographic Data Centre
#                                CCDC 
#
#######################################################################
#
# If this CIF has been generated from an entry in the Cambridge 
# Structural Database, then it will include bibliographic, chemical, 
# crystal, experimental, refinement or atomic coordinate data resulting 
# from the CCDC's data processing and validation procedures.
#
#######################################################################

data_YEQBAY
_chemical_formula_moiety         'C50 H58 N6'
_chemical_name_systematic        
3,6,14,17-tetrakis(1-Phenylethyl)-3,6,14,17,23,24-hexaazatricyclo(17.3.1.1^8,12^)tetracosa-1(23),8(24),9,11,19,21-hexaene
_symmetry_cell_setting           monoclinic
_symmetry_space_group_name_H-M   'C 2'
_symmetry_Int_Tables_number      5
_space_group_name_Hall           'C 2y'
loop_
_symmetry_equiv_pos_site_id
_symmetry_equiv_pos_as_xyz
1 x,y,z
2 -x,y,-z
3 1/2+x,1/2+y,z
4 1/2-x,1/2+y,-z
_cell_length_a                   33.889(5)
_cell_length_b                   6.0661(10)
_cell_length_c                   10.6701(18)
_cell_angle_alpha                90
_cell_angle_beta                 95.974(2)
_cell_angle_gamma                90
_cell_volume                     2181.58
_exptl_crystal_colour            colorless
_chemical_melting_point          '146-147 deg.C'
_cell_formula_units_Z            2
_exptl_crystal_recrystallization_method acetone
loop_
_atom_site_label
_atom_site_type_symbol
_atom_site_fract_x
_atom_site_fract_y
_atom_site_fract_z
N1 N 0.53990(6) 0.1558(4) -0.17189(17)
N2 N 0.62076(5) -0.0606(4) -0.01699(17)
N3 N 0.56944(5) 0.1977(4) 0.24658(17)
C1 C 0.50299(7) 0.0998(5) -0.2215(2)
C2 C 0.49583(8) -0.0900(5) -0.2912(3)
H1 H 0.4702 -0.1260 -0.3246
C3 C 0.52725(9) -0.2256(7) -0.3105(3)
H2 H 0.5231 -0.3540 -0.3576
C4 C 0.56474(8) -0.1696(6) -0.2598(3)
H3 H 0.5863 -0.2593 -0.2718
C5 C 0.56994(7) 0.0220(4) -0.1907(2)
C6 C 0.61032(7) 0.0821(5) -0.1272(2)
H4 H 0.6300 0.0656 -0.1864
H5 H 0.6103 0.2350 -0.1006
C7 C 0.66366(7) -0.0513(5) 0.0254(2)
H6 H 0.6717 0.1030 0.0381
C8 C 0.67365(8) -0.1787(6) 0.1491(2)
H7 H 0.6627 -0.3247 0.1405
H8 H 0.6625 -0.1034 0.2163
H9 H 0.7019 -0.1877 0.1678
C9 C 0.68725(7) -0.1537(5) -0.0731(2)
C10 C 0.72245(7) -0.0621(5) -0.1021(2)
H10 H 0.7311 0.0708 -0.0654
C11 C 0.74498(8) -0.1666(6) -0.1854(3)
H11 H 0.7688 -0.1040 -0.2038
C12 C 0.73259(9) -0.3603(7) -0.2407(3)
H12 H 0.7476 -0.4283 -0.2977
C13 C 0.69791(10) -0.4548(6) -0.2121(3)
H13 H 0.6896 -0.5883 -0.2487
C14 C 0.67535(8) -0.3512(5) -0.1288(3)
H14 H 0.6518 -0.4157 -0.1100
C15 C 0.59430(7) -0.0283(5) 0.0817(2)
H15 H 0.5994 -0.1447 0.1436
H16 H 0.5672 -0.0456 0.0440
C16 C 0.59754(7) 0.1912(5) 0.1501(2)
H17 H 0.6244 0.2112 0.1898
H18 H 0.5917 0.3102 0.0903
C17 C 0.58366(8) 0.3435(5) 0.3518(2)
H19 H 0.5866 0.4926 0.3186
C18 C 0.55464(10) 0.3525(8) 0.4521(3)
H20 H 0.5511 0.2070 0.4845
H21 H 0.5296 0.4083 0.4154
H22 H 0.5650 0.4477 0.5195
C19 C 0.62372(7) 0.2664(5) 0.4127(2)
C20 C 0.62801(9) 0.0624(6) 0.4699(3)
H23 H 0.6062 -0.0310 0.4692
C21 C 0.66431(13) -0.0042(8) 0.5279(3)
H24 H 0.6668 -0.1414 0.5668
C22 C 0.69640(12) 0.1303(13) 0.5283(4)
H25 H 0.7208 0.0853 0.5681
C23 C 0.69306(11) 0.3277(12) 0.4716(3)
H26 H 0.7153 0.4173 0.4702
C24 C 0.65658(9) 0.3984(7) 0.4149(3)
H27 H 0.6544 0.5373 0.3780
C25 C 0.47058(7) 0.2520(5) -0.1885(2)
H28 H 0.4703 0.2517 -0.0977
H29 H 0.4770 0.4005 -0.2133
N1A N 0.46010(6) 0.1558(4) 0.17189(17)
N2A N 0.37924(5) -0.0606(4) 0.01699(17)
N3A N 0.43056(5) 0.1977(4) -0.24658(17)
C1A C 0.49701(7) 0.0998(5) 0.2215(2)
C2A C 0.50417(8) -0.0900(5) 0.2912(3)
H1A H 0.5298 -0.1260 0.3246
C3A C 0.47275(9) -0.2256(7) 0.3105(3)
H2A H 0.4769 -0.3540 0.3576
C4A C 0.43526(8) -0.1696(6) 0.2598(3)
H3A H 0.4137 -0.2593 0.2718
C5A C 0.43006(7) 0.0220(4) 0.1907(2)
C6A C 0.38968(7) 0.0821(5) 0.1272(2)
H4A H 0.3700 0.0656 0.1864
H5A H 0.3897 0.2350 0.1006
C7A C 0.33634(7) -0.0513(5) -0.0254(2)
H6A H 0.3283 0.1030 -0.0381
C8A C 0.32635(8) -0.1787(6) -0.1491(2)
H7A H 0.3373 -0.3247 -0.1405
H8A H 0.3375 -0.1034 -0.2163
H9A H 0.2981 -0.1877 -0.1678
C9A C 0.31275(7) -0.1537(5) 0.0731(2)
C10A C 0.27755(7) -0.0621(5) 0.1021(2)
H10A H 0.2689 0.0708 0.0654
C11A C 0.25502(8) -0.1666(6) 0.1854(3)
H11A H 0.2312 -0.1040 0.2038
C12A C 0.26741(9) -0.3603(7) 0.2407(3)
H12A H 0.2524 -0.4283 0.2977
C13A C 0.30209(10) -0.4548(6) 0.2121(3)
H13A H 0.3104 -0.5883 0.2487
C14A C 0.32465(8) -0.3512(5) 0.1288(3)
H14A H 0.3482 -0.4157 0.1100
C15A C 0.40570(7) -0.0283(5) -0.0817(2)
H15A H 0.4006 -0.1447 -0.1436
H16A H 0.4328 -0.0456 -0.0440
C16A C 0.40246(7) 0.1912(5) -0.1501(2)
H17A H 0.3756 0.2112 -0.1898
H18A H 0.4083 0.3102 -0.0903
C17A C 0.41634(8) 0.3435(5) -0.3518(2)
H19A H 0.4134 0.4926 -0.3186
C18A C 0.44536(10) 0.3525(8) -0.4521(3)
H20A H 0.4489 0.2070 -0.4845
H21A H 0.4704 0.4083 -0.4154
H22A H 0.4350 0.4477 -0.5195
C19A C 0.37628(7) 0.2664(5) -0.4127(2)
C20A C 0.37199(9) 0.0624(6) -0.4699(3)
H23A H 0.3938 -0.0310 -0.4692
C21A C 0.33569(13) -0.0042(8) -0.5279(3)
H24A H 0.3332 -0.1414 -0.5668
C22A C 0.30360(12) 0.1303(13) -0.5283(4)
H25A H 0.2792 0.0853 -0.5681
C23A C 0.30694(11) 0.3277(12) -0.4716(3)
H26A H 0.2847 0.4173 -0.4702
C24A C 0.34342(9) 0.3984(7) -0.4149(3)
H27A H 0.3456 0.5373 -0.3780
C25A C 0.52942(7) 0.2520(5) 0.1885(2)
H28A H 0.5297 0.2517 0.0977
H29A H 0.5230 0.4005 0.2133
loop_
_geom_bond_atom_site_label_1
_geom_bond_atom_site_label_2
_geom_bond_site_symmetry_1
_geom_bond_site_symmetry_2
N1 C1 1_555 1_555
N2 C6 1_555 1_555
N3 C16 1_555 1_555
C1 C2 1_555 1_555
C2 H1 1_555 1_555
C3 C2 1_555 1_555
H2 C3 1_555 1_555
C4 C3 1_555 1_555
H3 C4 1_555 1_555
C5 N1 1_555 1_555
C6 C5 1_555 1_555
H4 C6 1_555 1_555
H5 C6 1_555 1_555
C7 N2 1_555 1_555
H6 C7 1_555 1_555
C8 C7 1_555 1_555
H7 C8 1_555 1_555
H8 C8 1_555 1_555
H9 C8 1_555 1_555
C9 C7 1_555 1_555
C10 C9 1_555 1_555
H10 C10 1_555 1_555
C11 C10 1_555 1_555
H11 C11 1_555 1_555
C12 C11 1_555 1_555
H12 C12 1_555 1_555
C13 C12 1_555 1_555
H13 C13 1_555 1_555
C14 C9 1_555 1_555
H14 C14 1_555 1_555
C15 N2 1_555 1_555
H15 C15 1_555 1_555
H16 C15 1_555 1_555
C16 C15 1_555 1_555
H17 C16 1_555 1_555
H18 C16 1_555 1_555
C17 N3 1_555 1_555
H19 C17 1_555 1_555
C18 C17 1_555 1_555
H20 C18 1_555 1_555
H21 C18 1_555 1_555
H22 C18 1_555 1_555
C19 C17 1_555 1_555
C20 C19 1_555 1_555
H23 C20 1_555 1_555
C21 C20 1_555 1_555
H24 C21 1_555 1_555
C22 C21 1_555 1_555
H25 C22 1_555 1_555
C23 C22 1_555 1_555
H26 C23 1_555 1_555
C24 C19 1_555 1_555
H27 C24 1_555 1_555
C25 C1 1_555 1_555
H28 C25 1_555 1_555
H29 C25 1_555 1_555
N1A C1A 1_555 1_555
N2A C6A 1_555 1_555
N3A C25 1_555 1_555
C1A C2A 1_555 1_555
C2A H1A 1_555 1_555
C3A C2A 1_555 1_555
H2A C3A 1_555 1_555
C4A C3A 1_555 1_555
H3A C4A 1_555 1_555
C5A N1A 1_555 1_555
C6A C5A 1_555 1_555
H4A C6A 1_555 1_555
H5A C6A 1_555 1_555
C7A N2A 1_555 1_555
H6A C7A 1_555 1_555
C8A C7A 1_555 1_555
H7A C8A 1_555 1_555
H8A C8A 1_555 1_555
H9A C8A 1_555 1_555
C9A C7A 1_555 1_555
C10A C9A 1_555 1_555
H10A C10A 1_555 1_555
C11A C10A 1_555 1_555
H11A C11A 1_555 1_555
C12A C11A 1_555 1_555
H12A C12A 1_555 1_555
C13A C12A 1_555 1_555
H13A C13A 1_555 1_555
C14A C9A 1_555 1_555
H14A C14A 1_555 1_555
C15A N2A 1_555 1_555
H15A C15A 1_555 1_555
H16A C15A 1_555 1_555
C16A N3A 1_555 1_555
H17A C16A 1_555 1_555
H18A C16A 1_555 1_555
C17A N3A 1_555 1_555
H19A C17A 1_555 1_555
C18A C17A 1_555 1_555
H20A C18A 1_555 1_555
H21A C18A 1_555 1_555
H22A C18A 1_555 1_555
C19A C17A 1_555 1_555
C20A C19A 1_555 1_555
H23A C20A 1_555 1_555
C21A C20A 1_555 1_555
H24A C21A 1_555 1_555
C22A C21A 1_555 1_555
H25A C22A 1_555 1_555
C23A C22A 1_555 1_555
H26A C23A 1_555 1_555
C24A C19A 1_555 1_555
H27A C24A 1_555 1_555
C25A N3 1_555 1_555
H28A C25A 1_555 1_555
H29A C25A 1_555 1_555
C4 C5 1_555 1_555
C13 C14 1_555 1_555
C23 C24 1_555 1_555
C1A C25A 1_555 1_555
C4A C5A 1_555 1_555
C13A C14A 1_555 1_555
C15A C16A 1_555 1_555
C23A C24A 1_555 1_555

#END
