
#######################################################################
#
#                 Cambridge Crystallographic Data Centre
#                                CCDC 
#
#######################################################################
#
# If this CIF has been generated from an entry in the Cambridge 
# Structural Database, then it will include bibliographic, chemical, 
# crystal, experimental, refinement or atomic coordinate data resulting 
# from the CCDC's data processing and validation procedures.
#
#######################################################################

data_YEQBUU
_chemical_formula_moiety         'C22 H21 N1 O2 S1'
_chemical_name_systematic        
5-(4-methylphenyl)-2-[(4-methylphenyl)sulfonyl]-2,3-dihydro-1H-isoindole
_symmetry_cell_setting           monoclinic
_symmetry_space_group_name_H-M   'P 21'
_symmetry_Int_Tables_number      4
_space_group_name_Hall           'P 2yb'
loop_
_symmetry_equiv_pos_site_id
_symmetry_equiv_pos_as_xyz
1 x,y,z
2 -x,1/2+y,-z
_cell_length_a                   7.9693(2)
_cell_length_b                   6.1218(2)
_cell_length_c                   19.3280(5)
_cell_angle_alpha                90
_cell_angle_beta                 101.204(2)
_cell_angle_gamma                90
_cell_volume                     924.974
_exptl_crystal_colour            colorless
_exptl_crystal_description       prism
_cell_formula_units_Z            2
loop_
_atom_site_label
_atom_site_type_symbol
_atom_site_fract_x
_atom_site_fract_y
_atom_site_fract_z
C1 C 0.0737(3) 0.5101(4) 0.30138(10)
H1 H 0.1679 0.5178 0.2764
H2 H 0.0538 0.3589 0.3124
C2 C 0.1065(2) 0.6502(3) 0.36694(9)
C3 C 0.0124(2) 0.8405(3) 0.35514(9)
C4 C -0.0972(3) 0.8409(4) 0.28272(10)
H3 H -0.2148 0.8783 0.2841
H4 H -0.0537 0.9416 0.2517
C5 C 0.2152(2) 0.6113(3) 0.43083(9)
H5 H 0.2780 0.4824 0.4377
C6 C 0.2309(2) 0.7662(3) 0.48533(9)
C7 C 0.1351(3) 0.9568(4) 0.47160(10)
H6 H 0.1439 1.0620 0.5069
C8 C 0.0276(3) 0.9961(4) 0.40782(10)
H7 H -0.0340 1.1259 0.4003
C9 C 0.3385(2) 0.7239(3) 0.55600(10)
C10 C 0.4227(3) 0.5273(5) 0.57240(10)
H8 H 0.4204 0.4236 0.5371
C11 C 0.5101(3) 0.4807(4) 0.63991(12)
H9 H 0.5646 0.3464 0.6487
C12 C 0.5186(2) 0.6274(4) 0.69437(10)
C13 C 0.4380(3) 0.8244(4) 0.67838(12)
H10 H 0.4424 0.9283 0.7138
C14 C 0.3508(3) 0.8727(4) 0.61130(12)
H11 H 0.2987 1.0086 0.6027
C15 C 0.6055(3) 0.5686(5) 0.76834(12)
H12 H 0.7272 0.5793 0.7725
H13 H 0.5757 0.4217 0.7786
H14 H 0.5690 0.6671 0.8011
C16 C -0.0098(2) 0.6568(3) 0.12930(9)
C17 C 0.1378(2) 0.5432(4) 0.12374(9)
H15 H 0.1565 0.4039 0.1429
C18 C 0.2563(3) 0.6372(4) 0.08982(10)
H16 H 0.3553 0.5608 0.0865
C19 C 0.2303(3) 0.8439(4) 0.06058(10)
C20 C 0.0800(3) 0.9526(4) 0.06521(10)
H17 H 0.0591 1.0893 0.0443
C21 C -0.0392(2) 0.8630(3) 0.10005(9)
H18 H -0.1377 0.9398 0.1038
C22 C 0.3624(3) 0.9465(6) 0.02515(14)
H19 H 0.4746 0.9108 0.0509
H20 H 0.3479 1.1022 0.0241
H21 H 0.3492 0.8922 -0.0222
N1 N -0.0822(2) 0.6127(3) 0.26069(8)
O1 O -0.1380(3) 0.3111(3) 0.17618(9)
O2 O -0.31447(18) 0.6476(3) 0.15774(8)
S1 S -0.15209(6) 0.54349(9) 0.17887(2)
loop_
_geom_bond_atom_site_label_1
_geom_bond_atom_site_label_2
_geom_bond_site_symmetry_1
_geom_bond_site_symmetry_2
C1 H1 1_555 1_555
H2 C1 1_555 1_555
C2 C1 1_555 1_555
C3 C2 1_555 1_555
C4 C3 1_555 1_555
H3 C4 1_555 1_555
H4 C4 1_555 1_555
C5 C2 1_555 1_555
H5 C5 1_555 1_555
C6 C5 1_555 1_555
C7 C6 1_555 1_555
H6 C7 1_555 1_555
C8 C3 1_555 1_555
H7 C8 1_555 1_555
C9 C6 1_555 1_555
C10 C9 1_555 1_555
H8 C10 1_555 1_555
C11 C10 1_555 1_555
H9 C11 1_555 1_555
C12 C11 1_555 1_555
C13 C12 1_555 1_555
H10 C13 1_555 1_555
C14 C9 1_555 1_555
H11 C14 1_555 1_555
C15 C12 1_555 1_555
H12 C15 1_555 1_555
H13 C15 1_555 1_555
H14 C15 1_555 1_555
C16 C17 1_555 1_555
C17 H15 1_555 1_555
C18 C17 1_555 1_555
H16 C18 1_555 1_555
C19 C18 1_555 1_555
C20 C19 1_555 1_555
H17 C20 1_555 1_555
C21 C16 1_555 1_555
H18 C21 1_555 1_555
C22 C19 1_555 1_555
H19 C22 1_555 1_555
H20 C22 1_555 1_555
H21 C22 1_555 1_555
N1 C1 1_555 1_555
O1 S1 1_555 1_555
O2 S1 1_555 1_555
S1 C16 1_555 1_555
C4 N1 1_555 1_555
C7 C8 1_555 1_555
C13 C14 1_555 1_555
C20 C21 1_555 1_555
N1 S1 1_555 1_555

#END
