
#######################################################################
#
#                 Cambridge Crystallographic Data Centre
#                                CCDC 
#
#######################################################################
#
# If this CIF has been generated from an entry in the Cambridge 
# Structural Database, then it will include bibliographic, chemical, 
# crystal, experimental, refinement or atomic coordinate data resulting 
# from the CCDC's data processing and validation procedures.
#
#######################################################################

data_YEQBII
_chemical_formula_moiety         'C22 H21 N1 O3 S1'
_chemical_name_systematic        
5-(4-methoxyphenyl)-2-[(4-methylphenyl)sulfonyl]-2,3-dihydro-1H-isoindole
_symmetry_cell_setting           monoclinic
_symmetry_space_group_name_H-M   'P 21'
_symmetry_Int_Tables_number      4
_space_group_name_Hall           'P 2yb'
loop_
_symmetry_equiv_pos_site_id
_symmetry_equiv_pos_as_xyz
1 x,y,z
2 -x,1/2+y,-z
_cell_length_a                   7.9842(9)
_cell_length_b                   6.081(2)
_cell_length_c                   20.127(2)
_cell_angle_alpha                90
_cell_angle_beta                 100.170(11)
_cell_angle_gamma                90
_cell_volume                     961.851
_exptl_crystal_colour            colorless
_exptl_crystal_description       prism
_cell_formula_units_Z            2
loop_
_atom_site_label
_atom_site_type_symbol
_atom_site_fract_x
_atom_site_fract_y
_atom_site_fract_z
C1 C 0.1138(8) 0.3500(14) 0.7325(3)
H1 H -0.0055 0.3279 0.7345
H2 H 0.1815 0.2451 0.7622
C2 C 0.1465(7) 0.3305(10) 0.6609(3)
C3 C 0.2405(8) 0.5066(11) 0.6463(3)
C4 C 0.2828(9) 0.6593(12) 0.7061(3)
H3 H 0.4010 0.6461 0.7276
H4 H 0.2583 0.8112 0.6933
C5 C 0.0967(8) 0.1721(14) 0.6141(3)
H5 H 0.0343 0.0518 0.6245
C6 C 0.1402(8) 0.1913(12) 0.5498(3)
H6 H 0.1055 0.0837 0.5175
C7 C 0.2336(6) 0.3677(9) 0.5342(3)
C8 C 0.2839(7) 0.5279(9) 0.5828(3)
H7 H 0.3464 0.6488 0.5728
C9 C 0.2738(6) 0.3899(9) 0.4640(3)
C10 C 0.2277(9) 0.2330(10) 0.4148(4)
H8 H 0.1791 0.1027 0.4264
C11 C 0.2510(10) 0.2618(11) 0.3489(4)
H9 H 0.2137 0.1540 0.3169
C12 C 0.3277(8) 0.4461(10) 0.3303(3)
C13 C 0.3810(9) 0.6057(13) 0.3782(3)
H10 H 0.4349 0.7323 0.3669
C14 C 0.3521(9) 0.5730(12) 0.4443(3)
H11 H 0.3879 0.6812 0.4763
C15 C 0.3993(13) 0.6683(16) 0.2420(4)
H12 H 0.3292 0.7833 0.2549
H13 H 0.3897 0.6669 0.1938
H14 H 0.5157 0.6938 0.2625
C16 C 0.3753(8) 0.5340(11) 0.8734(3)
C17 C 0.3678(8) 0.3377(11) 0.9051(3)
H15 H 0.2638 0.2686 0.9048
C18 C 0.5172(9) 0.2422(11) 0.9378(3)
H16 H 0.5124 0.1090 0.9601
C19 C 0.6734(9) 0.3406(12) 0.9380(3)
C20 C 0.6757(9) 0.5396(13) 0.9062(4)
H17 H 0.7797 0.6089 0.9065
C21 C 0.5284(9) 0.6413(13) 0.8735(3)
H18 H 0.5323 0.7767 0.8523
C22 C 0.8355(10) 0.2273(19) 0.9709(4)
H19 H 0.8079 0.0931 0.9916
H20 H 0.8980 0.3221 1.0046
H21 H 0.9036 0.1946 0.9373
N1 N 0.1664(7) 0.5757(10) 0.7503(3)
O1 O 0.3459(7) 0.4648(9) 0.2638(3)
O2 O 0.0476(6) 0.5672(13) 0.8540(3)
O3 O 0.2137(8) 0.8878(9) 0.8273(3)
S1 S 0.1886(3) 0.6570(3) 0.82817(9)
loop_
_geom_bond_atom_site_label_1
_geom_bond_atom_site_label_2
_geom_bond_site_symmetry_1
_geom_bond_site_symmetry_2
C1 H1 1_555 1_555
H2 C1 1_555 1_555
C2 C1 1_555 1_555
C3 C2 1_555 1_555
C4 C3 1_555 1_555
H3 C4 1_555 1_555
H4 C4 1_555 1_555
C5 C2 1_555 1_555
H5 C5 1_555 1_555
C6 C5 1_555 1_555
H6 C6 1_555 1_555
C7 C6 1_555 1_555
C8 C3 1_555 1_555
H7 C8 1_555 1_555
C9 C7 1_555 1_555
C10 C9 1_555 1_555
H8 C10 1_555 1_555
C11 C10 1_555 1_555
H9 C11 1_555 1_555
C12 C11 1_555 1_555
C13 C12 1_555 1_555
H10 C13 1_555 1_555
C14 C9 1_555 1_555
H11 C14 1_555 1_555
C15 H12 1_555 1_555
H13 C15 1_555 1_555
H14 C15 1_555 1_555
C16 C17 1_555 1_555
C17 H15 1_555 1_555
C18 C17 1_555 1_555
H16 C18 1_555 1_555
C19 C18 1_555 1_555
C20 C19 1_555 1_555
H17 C20 1_555 1_555
C21 C16 1_555 1_555
H18 C21 1_555 1_555
C22 C19 1_555 1_555
H19 C22 1_555 1_555
H20 C22 1_555 1_555
H21 C22 1_555 1_555
N1 C1 1_555 1_555
O1 C12 1_555 1_555
O2 S1 1_555 1_555
O3 S1 1_555 1_555
S1 C16 1_555 1_555
C4 N1 1_555 1_555
C7 C8 1_555 1_555
C13 C14 1_555 1_555
C15 O1 1_555 1_555
C20 C21 1_555 1_555
N1 S1 1_555 1_555

#END
