
#######################################################################
#
#                 Cambridge Crystallographic Data Centre
#                                CCDC 
#
#######################################################################
#
# If this CIF has been generated from an entry in the Cambridge 
# Structural Database, then it will include bibliographic, chemical, 
# crystal, experimental, refinement or atomic coordinate data resulting 
# from the CCDC's data processing and validation procedures.
#
#######################################################################

data_YEQCAB
_chemical_formula_moiety         'C20 H16 Cl1 N1 O2 S1'
_chemical_name_systematic        
2-[(2-chlorophenyl)sulfonyl]-5-phenyl-2,3-dihydro-1H-isoindole
_symmetry_cell_setting           triclinic
_symmetry_space_group_name_H-M   'P -1'
_symmetry_Int_Tables_number      2
_space_group_name_Hall           '-P 1'
loop_
_symmetry_equiv_pos_site_id
_symmetry_equiv_pos_as_xyz
1 x,y,z
2 -x,-y,-z
_cell_length_a                   7.5142(2)
_cell_length_b                   12.7251(4)
_cell_length_c                   18.0220(5)
_cell_angle_alpha                88.481(2)
_cell_angle_beta                 84.657(2)
_cell_angle_gamma                89.958(2)
_cell_volume                     1715.15
_exptl_crystal_colour            colorless
_exptl_crystal_description       prism
_cell_formula_units_Z            4
loop_
_atom_site_label
_atom_site_type_symbol
_atom_site_fract_x
_atom_site_fract_y
_atom_site_fract_z
C1 C 0.6648(3) 0.29632(15) 0.30697(10)
H1 H 0.7626 0.2486 0.2936
H2 H 0.5541 0.2567 0.3152
C2 C 0.6985(2) 0.35864(15) 0.37418(10)
C3 C 0.7394(3) 0.46172(16) 0.35313(11)
C4 C 0.7368(3) 0.47894(17) 0.27087(12)
H3 H 0.6657 0.5399 0.2593
H4 H 0.8566 0.4873 0.2463
C5 C 0.6984(3) 0.32422(15) 0.44780(10)
H5 H 0.6702 0.2548 0.4614
C6 C 0.7413(3) 0.39533(16) 0.50145(11)
C7 C 0.7815(4) 0.49891(18) 0.47912(13)
H6 H 0.8081 0.5466 0.5147
C8 C 0.7828(4) 0.53303(17) 0.40512(13)
H7 H 0.8122 0.6021 0.3910
C9 C 0.7546(3) 0.36130(17) 0.58063(11)
C10 C 0.8263(3) 0.26440(18) 0.59843(12)
H8 H 0.8581 0.2175 0.5608
C11 C 0.8512(3) 0.2366(2) 0.67201(14)
H9 H 0.8998 0.1714 0.6830
C12 C 0.8045(3) 0.3049(2) 0.72874(13)
H10 H 0.8226 0.2863 0.7777
C13 C 0.7310(4) 0.4008(2) 0.71211(13)
H11 H 0.6981 0.4470 0.7501
C14 C 0.7056(3) 0.4291(2) 0.63875(13)
H12 H 0.6554 0.4940 0.6282
C15 C 0.8586(2) 0.31111(14) 0.12560(9)
C16 C 0.8863(3) 0.20349(15) 0.11868(10)
H13 H 0.7937 0.1571 0.1339
C17 C 1.0492(3) 0.16442(16) 0.08953(11)
H14 H 1.0657 0.0923 0.0851
C18 C 1.1870(3) 0.23299(17) 0.06704(11)
H15 H 1.2971 0.2069 0.0481
C19 C 1.1622(3) 0.34019(17) 0.07255(11)
H16 H 1.2556 0.3859 0.0570
C20 C 0.9987(3) 0.37996(15) 0.10111(10)
Cl1 Cl 0.97818(8) 0.51569(4) 0.10385(3)
N1 N 0.6532(2) 0.38079(13) 0.24965(9)
O1 O 0.5326(2) 0.25825(12) 0.16475(8)
O2 O 0.5912(2) 0.44381(12) 0.12460(8)
S1 S 0.64178(6) 0.35067(4) 0.16317(2)
C21 C 0.6619(3) 0.80677(17) 0.29568(11)
H17 H 0.7355 0.7442 0.2916
H18 H 0.5370 0.7867 0.2975
C22 C 0.6983(2) 0.86856(15) 0.36254(10)
C23 C 0.7555(3) 0.96916(15) 0.34105(11)
C24 C 0.7629(3) 0.98670(15) 0.25844(11)
H19 H 0.6794 1.0407 0.2452
H20 H 0.8823 1.0059 0.2374
C25 C 0.6890(3) 0.83456(15) 0.43646(11)
H21 H 0.6496 0.7669 0.4501
C26 C 0.7392(3) 0.90283(16) 0.49025(11)
C27 C 0.7933(3) 1.00501(16) 0.46796(12)
H22 H 0.8237 1.0515 0.5037
C28 C 0.8026(3) 1.03874(15) 0.39384(12)
H23 H 0.8396 1.1067 0.3799
C29 C 0.7513(3) 0.86604(18) 0.56874(11)
C30 C 0.8167(3) 0.76640(19) 0.58425(12)
H24 H 0.8453 0.7210 0.5453
C31 C 0.8404(4) 0.7331(3) 0.65708(15)
H25 H 0.8830 0.6659 0.6664
C32 C 0.8004(4) 0.8000(3) 0.71502(14)
H26 H 0.8170 0.7785 0.7636
C33 C 0.7360(4) 0.8988(3) 0.70073(14)
H27 H 0.7092 0.9440 0.7399
C34 C 0.7102(3) 0.9321(2) 0.62832(13)
H28 H 0.6652 0.9990 0.6197
C35 C 0.5748(2) 0.80430(14) 0.11423(9)
C36 C 0.5487(3) 0.69849(15) 0.10179(10)
H29 H 0.6337 0.6493 0.1138
C37 C 0.3950(3) 0.66617(17) 0.07127(11)
H30 H 0.3777 0.5954 0.0625
C38 C 0.2687(3) 0.73872(18) 0.05405(11)
H31 H 0.1657 0.7165 0.0341
C39 C 0.2932(3) 0.84451(18) 0.06605(11)
H32 H 0.2074 0.8931 0.0539
C40 C 0.4463(3) 0.87783(15) 0.09625(10)
Cl2 Cl 0.46957(8) 1.01089(4) 0.11102(3)
N2 N 0.7105(3) 0.88243(13) 0.23389(9)
O3 O 0.8732(2) 0.74469(13) 0.15849(10)
O4 O 0.8576(2) 0.92683(12) 0.10938(9)
S2 S 0.77497(6) 0.84016(4) 0.15174(2)
loop_
_geom_bond_atom_site_label_1
_geom_bond_atom_site_label_2
_geom_bond_site_symmetry_1
_geom_bond_site_symmetry_2
C1 H1 1_555 1_555
H2 C1 1_555 1_555
C2 C1 1_555 1_555
C3 C2 1_555 1_555
C4 C3 1_555 1_555
H3 C4 1_555 1_555
H4 C4 1_555 1_555
C5 C2 1_555 1_555
H5 C5 1_555 1_555
C6 C5 1_555 1_555
C7 C6 1_555 1_555
H6 C7 1_555 1_555
C8 C3 1_555 1_555
H7 C8 1_555 1_555
C9 C6 1_555 1_555
C10 C9 1_555 1_555
H8 C10 1_555 1_555
C11 C10 1_555 1_555
H9 C11 1_555 1_555
C12 C11 1_555 1_555
H10 C12 1_555 1_555
C13 C12 1_555 1_555
H11 C13 1_555 1_555
C14 C9 1_555 1_555
H12 C14 1_555 1_555
C15 C16 1_555 1_555
C16 H13 1_555 1_555
C17 C16 1_555 1_555
H14 C17 1_555 1_555
C18 C17 1_555 1_555
H15 C18 1_555 1_555
C19 C18 1_555 1_555
H16 C19 1_555 1_555
C20 C15 1_555 1_555
Cl1 C20 1_555 1_555
N1 C1 1_555 1_555
O1 S1 1_555 1_555
O2 S1 1_555 1_555
S1 C15 1_555 1_555
C21 H17 1_555 1_555
H18 C21 1_555 1_555
C22 C21 1_555 1_555
C23 C22 1_555 1_555
C24 C23 1_555 1_555
H19 C24 1_555 1_555
H20 C24 1_555 1_555
C25 C22 1_555 1_555
H21 C25 1_555 1_555
C26 C25 1_555 1_555
C27 C26 1_555 1_555
H22 C27 1_555 1_555
C28 C23 1_555 1_555
H23 C28 1_555 1_555
C29 C26 1_555 1_555
C30 C29 1_555 1_555
H24 C30 1_555 1_555
C31 C30 1_555 1_555
H25 C31 1_555 1_555
C32 C31 1_555 1_555
H26 C32 1_555 1_555
C33 C32 1_555 1_555
H27 C33 1_555 1_555
C34 C29 1_555 1_555
H28 C34 1_555 1_555
C35 C36 1_555 1_555
C36 H29 1_555 1_555
C37 C36 1_555 1_555
H30 C37 1_555 1_555
C38 C37 1_555 1_555
H31 C38 1_555 1_555
C39 C38 1_555 1_555
H32 C39 1_555 1_555
C40 C35 1_555 1_555
Cl2 C40 1_555 1_555
N2 C21 1_555 1_555
O3 S2 1_555 1_555
O4 S2 1_555 1_555
S2 C35 1_555 1_555
C4 N1 1_555 1_555
C7 C8 1_555 1_555
C13 C14 1_555 1_555
C19 C20 1_555 1_555
N1 S1 1_555 1_555
C24 N2 1_555 1_555
C27 C28 1_555 1_555
C33 C34 1_555 1_555
C39 C40 1_555 1_555
N2 S2 1_555 1_555

#END
