
#######################################################################
#
#                 Cambridge Crystallographic Data Centre
#                                CCDC 
#
#######################################################################
#
# If this CIF has been generated from an entry in the Cambridge 
# Structural Database, then it will include bibliographic, chemical, 
# crystal, experimental, refinement or atomic coordinate data resulting 
# from the CCDC's data processing and validation procedures.
#
#######################################################################

data_YEQCEF
_chemical_formula_moiety         'C21 H17 N1 O1'
_chemical_name_systematic        
phenyl(5-phenyl-1,3-dihydro-2H-isoindol-2-yl)methanone
_symmetry_cell_setting           monoclinic
_symmetry_space_group_name_H-M   'P c'
_symmetry_Int_Tables_number      7
_space_group_name_Hall           'P -2yc'
loop_
_symmetry_equiv_pos_site_id
_symmetry_equiv_pos_as_xyz
1 x,y,z
2 x,-y,1/2+z
_cell_length_a                   15.5556(11)
_cell_length_b                   7.0185(5)
_cell_length_c                   7.3310(5)
_cell_angle_alpha                90
_cell_angle_beta                 94.221(6)
_cell_angle_gamma                90
_cell_volume                     798.205
_exptl_crystal_colour            colorless
_exptl_crystal_description       prism
_cell_formula_units_Z            2
loop_
_atom_site_label
_atom_site_type_symbol
_atom_site_fract_x
_atom_site_fract_y
_atom_site_fract_z
C1 C 0.4874(3) 0.2691(5) 0.3023(7)
H1 H 0.5004 0.3846 0.2370
H2 H 0.4998 0.1596 0.2279
C2 C 0.5368(4) 0.2608(4) 0.4846(6)
C3 C 0.4810(3) 0.2412(5) 0.6244(7)
C4 C 0.3890(4) 0.2443(6) 0.5482(7)
H3 H 0.3599 0.1261 0.5741
H4 H 0.3578 0.3499 0.5976
C5 C 0.6257(3) 0.2662(5) 0.5251(7)
H5 H 0.6628 0.2797 0.4320
C6 C 0.6587(3) 0.2510(4) 0.7075(7)
C7 C 0.6014(4) 0.2319(5) 0.8438(7)
H6 H 0.6232 0.2212 0.9648
C8 C 0.5131(4) 0.2282(6) 0.8050(7)
H7 H 0.4761 0.2173 0.8984
C9 C 0.7540(3) 0.2524(5) 0.7557(7)
C10 C 0.8082(3) 0.3712(6) 0.6672(7)
H8 H 0.7855 0.4514 0.5749
C11 C 0.8970(3) 0.3721(8) 0.7150(8)
H9 H 0.9333 0.4506 0.6534
C12 C 0.9300(4) 0.2553(7) 0.8545(11)
H10 H 0.9887 0.2584 0.8899
C13 C 0.8778(4) 0.1366(8) 0.9399(8)
H11 H 0.9011 0.0554 1.0309
C14 C 0.7898(4) 0.1343(7) 0.8935(7)
H12 H 0.7545 0.0532 0.9548
C15 C 0.2420(4) 0.2543(5) 0.2715(8)
C16 C 0.1866(3) 0.1132(6) 0.1973(7)
H13 H 0.2070 0.0211 0.1202
C17 C 0.1008(3) 0.1112(7) 0.2391(7)
H14 H 0.0644 0.0152 0.1920
C18 C 0.0692(4) 0.2494(8) 0.3494(9)
H15 H 0.0116 0.2478 0.3754
C19 C 0.1235(3) 0.3899(8) 0.4207(7)
H16 H 0.1027 0.4834 0.4958
C20 C 0.2098(3) 0.3920(6) 0.3804(7)
H17 H 0.2460 0.4881 0.4280
C21 C 0.3336(3) 0.2554(5) 0.2165(7)
N1 N 0.3966(3) 0.2676(4) 0.3506(5)
O1 O 0.3474(3) 0.2481(4) 0.0561(6)
loop_
_geom_bond_atom_site_label_1
_geom_bond_atom_site_label_2
_geom_bond_site_symmetry_1
_geom_bond_site_symmetry_2
C1 H1 1_555 1_555
H2 C1 1_555 1_555
C2 C1 1_555 1_555
C3 C2 1_555 1_555
C4 C3 1_555 1_555
H3 C4 1_555 1_555
H4 C4 1_555 1_555
C5 C2 1_555 1_555
H5 C5 1_555 1_555
C6 C5 1_555 1_555
C7 C6 1_555 1_555
H6 C7 1_555 1_555
C8 C3 1_555 1_555
H7 C8 1_555 1_555
C9 C6 1_555 1_555
C10 C9 1_555 1_555
H8 C10 1_555 1_555
C11 C10 1_555 1_555
H9 C11 1_555 1_555
C12 C11 1_555 1_555
H10 C12 1_555 1_555
C13 C12 1_555 1_555
H11 C13 1_555 1_555
C14 C9 1_555 1_555
H12 C14 1_555 1_555
C15 C16 1_555 1_555
C16 H13 1_555 1_555
C17 C16 1_555 1_555
H14 C17 1_555 1_555
C18 C17 1_555 1_555
H15 C18 1_555 1_555
C19 C18 1_555 1_555
H16 C19 1_555 1_555
C20 C15 1_555 1_555
H17 C20 1_555 1_555
C21 C15 1_555 1_555
N1 C1 1_555 1_555
O1 C21 1_555 1_555
C4 N1 1_555 1_555
C7 C8 1_555 1_555
C13 C14 1_555 1_555
C19 C20 1_555 1_555
C21 N1 1_555 1_555

#END
