
#######################################################################
#
#                 Cambridge Crystallographic Data Centre
#                                CCDC 
#
#######################################################################
#
# If this CIF has been generated from an entry in the Cambridge 
# Structural Database, then it will include bibliographic, chemical, 
# crystal, experimental, refinement or atomic coordinate data resulting 
# from the CCDC's data processing and validation procedures.
#
#######################################################################

data_YEQCOP
_chemical_formula_moiety         'C21 H18 Cl1 N1 O2 S1'
_chemical_name_systematic        
5-(4-chlorophenyl)-2-[(4-methylphenyl)sulfonyl]-2,3-dihydro-1H-isoindole
_symmetry_cell_setting           orthorhombic
_symmetry_space_group_name_H-M   'P 21 21 21'
_symmetry_Int_Tables_number      19
_space_group_name_Hall           'P 2ac 2ab'
loop_
_symmetry_equiv_pos_site_id
_symmetry_equiv_pos_as_xyz
1 x,y,z
2 1/2-x,-y,1/2+z
3 -x,1/2+y,1/2-z
4 1/2+x,1/2-y,-z
_cell_length_a                   7.08143(9)
_cell_length_b                   9.08409(11)
_cell_length_c                   29.0369(3)
_cell_angle_alpha                90
_cell_angle_beta                 90
_cell_angle_gamma                90
_cell_volume                     1867.9
_exptl_crystal_colour            colorless
_exptl_crystal_description       prism
_cell_formula_units_Z            4
loop_
_atom_site_label
_atom_site_type_symbol
_atom_site_fract_x
_atom_site_fract_y
_atom_site_fract_z
C1 C 0.2633(3) 0.7806(2) 0.32233(7)
H1 H 0.1457 0.8072 0.3074
H2 H 0.2505 0.6841 0.3363
C2 C 0.4258(3) 0.78581(19) 0.28948(6)
C3 C 0.5780(3) 0.86058(18) 0.30854(6)
C4 C 0.5299(3) 0.9084(2) 0.35688(6)
H3 H 0.5878 0.8447 0.3797
H4 H 0.5676 1.0094 0.3626
C5 C 0.4372(3) 0.7295(2) 0.24529(7)
H5 H 0.3358 0.6789 0.2325
C6 C 0.6008(3) 0.7496(2) 0.22049(7)
H6 H 0.6085 0.7114 0.1908
C7 C 0.7561(3) 0.82582(18) 0.23860(6)
C8 C 0.7433(2) 0.88048(18) 0.28394(6)
H7 H 0.8451 0.9294 0.2972
C9 C 0.9258(3) 0.84983(18) 0.20977(6)
C10 C 0.9721(3) 0.7522(2) 0.17423(7)
H8 H 0.8986 0.6684 0.1699
C11 C 1.1244(3) 0.7768(2) 0.14531(7)
H9 H 1.1533 0.7102 0.1220
C12 C 1.2322(3) 0.9011(2) 0.15148(7)
C13 C 1.1929(3) 0.9979(2) 0.18686(8)
H10 H 1.2691 1.0801 0.1914
C14 C 1.0410(3) 0.9728(2) 0.21541(7)
H11 H 1.0148 1.0393 0.2389
C15 C 0.2090(3) 0.7445(2) 0.43384(6)
C16 C 0.0730(3) 0.6377(3) 0.42745(8)
H12 H -0.0252 0.6535 0.4068
C17 C 0.0830(4) 0.5077(3) 0.45169(8)
H13 H -0.0093 0.4363 0.4472
C18 C 0.2274(4) 0.4811(2) 0.48266(7)
C19 C 0.3642(4) 0.5869(3) 0.48777(8)
H14 H 0.4646 0.5697 0.5077
C20 C 0.3561(4) 0.7192(3) 0.46381(8)
H15 H 0.4492 0.7901 0.4680
C21 C 0.2328(6) 0.3402(3) 0.51024(10)
H16 H 0.1204 0.3327 0.5286
H17 H 0.3415 0.3406 0.5300
H18 H 0.2399 0.2577 0.4897
Cl1 Cl 1.42119(11) 0.93557(9) 0.11493(2)
N1 N 0.3214(2) 0.89235(18) 0.35640(5)
O1 O 0.0051(2) 0.92894(19) 0.38830(6)
O2 O 0.2854(3) 1.02390(17) 0.42954(6)
S1 S 0.19644(7) 0.91133(5) 0.403115(17)
loop_
_geom_bond_atom_site_label_1
_geom_bond_atom_site_label_2
_geom_bond_site_symmetry_1
_geom_bond_site_symmetry_2
C1 H1 1_555 1_555
H2 C1 1_555 1_555
C2 C1 1_555 1_555
C3 C2 1_555 1_555
C4 C3 1_555 1_555
H3 C4 1_555 1_555
H4 C4 1_555 1_555
C5 C2 1_555 1_555
H5 C5 1_555 1_555
C6 C5 1_555 1_555
H6 C6 1_555 1_555
C7 C6 1_555 1_555
C8 C3 1_555 1_555
H7 C8 1_555 1_555
C9 C7 1_555 1_555
C10 C9 1_555 1_555
H8 C10 1_555 1_555
C11 C10 1_555 1_555
H9 C11 1_555 1_555
C12 C11 1_555 1_555
C13 C12 1_555 1_555
H10 C13 1_555 1_555
C14 C9 1_555 1_555
H11 C14 1_555 1_555
C15 C16 1_555 1_555
C16 H12 1_555 1_555
C17 C16 1_555 1_555
H13 C17 1_555 1_555
C18 C17 1_555 1_555
C19 C18 1_555 1_555
H14 C19 1_555 1_555
C20 C15 1_555 1_555
H15 C20 1_555 1_555
C21 C18 1_555 1_555
H16 C21 1_555 1_555
H17 C21 1_555 1_555
H18 C21 1_555 1_555
Cl1 C12 1_555 1_555
N1 C1 1_555 1_555
O1 S1 1_555 1_555
O2 S1 1_555 1_555
S1 C15 1_555 1_555
C4 N1 1_555 1_555
C7 C8 1_555 1_555
C13 C14 1_555 1_555
C19 C20 1_555 1_555
N1 S1 1_555 1_555

#END
