
#######################################################################
#
#                 Cambridge Crystallographic Data Centre
#                                CCDC 
#
#######################################################################
#
# If this CIF has been generated from an entry in the Cambridge 
# Structural Database, then it will include bibliographic, chemical, 
# crystal, experimental, refinement or atomic coordinate data resulting 
# from the CCDC's data processing and validation procedures.
#
#######################################################################

data_YEQHAG
_chemical_formula_moiety         'C42 H28 O2,C1 H1 Cl3'
_chemical_name_systematic        
'5,6,11,12-tetraphenyl-5,12-dihydro-5,12-epidioxytetracene chloroform solvate'
_symmetry_cell_setting           monoclinic
_symmetry_space_group_name_H-M   'P 21/c'
_symmetry_Int_Tables_number      14
_space_group_name_Hall           '-P 2ybc'
loop_
_symmetry_equiv_pos_site_id
_symmetry_equiv_pos_as_xyz
1 x,y,z
2 -x,1/2+y,1/2-z
3 -x,-y,-z
4 x,1/2-y,1/2+z
_cell_length_a                   11.1664(11)
_cell_length_b                   21.792(2)
_cell_length_c                   13.6426(11)
_cell_angle_alpha                90
_cell_angle_beta                 102.995(7)
_cell_angle_gamma                90
_cell_volume                     3234.75
_exptl_crystal_colour            colorless
_exptl_crystal_description       'irregular striated flake'
_cell_formula_units_Z            4
loop_
_atom_site_label
_atom_site_type_symbol
_atom_site_fract_x
_atom_site_fract_y
_atom_site_fract_z
O1 O 0.3062(2) 0.61041(10) 0.33300(15)
O2 O 0.40102(19) 0.61481(10) 0.27459(15)
C1 C 0.3443(3) 0.63961(14) 0.4337(2)
C2 C 0.4614(3) 0.60736(13) 0.4852(2)
C3 C 0.4809(3) 0.57126(13) 0.5713(2)
H1 H 0.4177 0.5672 0.6073
C4 C 0.5913(3) 0.54126(15) 0.6049(2)
H2 H 0.6055 0.5187 0.6660
C5 C 0.6807(3) 0.54382(14) 0.5506(2)
H3 H 0.7564 0.5229 0.5741
C6 C 0.6613(3) 0.57686(14) 0.4613(2)
H4 H 0.7219 0.5770 0.4223
C7 C 0.5526(3) 0.60973(13) 0.4293(2)
C8 C 0.5128(3) 0.64577(14) 0.3323(2)
C9 C 0.4685(3) 0.71048(14) 0.3552(2)
C10 C 0.5057(3) 0.76677(14) 0.3264(2)
C11 C 0.4471(3) 0.82187(14) 0.3502(2)
C12 C 0.4785(3) 0.88058(15) 0.3178(2)
H5 H 0.5408 0.8837 0.2808
C13 C 0.4210(3) 0.93242(16) 0.3388(3)
H6 H 0.4449 0.9712 0.3178
C14 C 0.3265(3) 0.92883(16) 0.3915(3)
H7 H 0.2859 0.9651 0.4053
C15 C 0.2934(3) 0.87326(15) 0.4228(3)
H8 H 0.2294 0.8713 0.4583
C16 C 0.3526(3) 0.81784(14) 0.4035(2)
C17 C 0.3156(3) 0.75900(14) 0.4351(2)
C18 C 0.3729(3) 0.70658(14) 0.4112(2)
C19 C 0.2364(3) 0.62493(14) 0.4805(2)
C20 C 0.1277(3) 0.59922(15) 0.4227(3)
H9 H 0.1193 0.5933 0.3525
C21 C 0.0327(3) 0.58236(16) 0.4675(3)
H10 H -0.0395 0.5643 0.4279
C22 C 0.0422(4) 0.59155(17) 0.5680(3)
H11 H -0.0230 0.5796 0.5982
C23 C 0.1463(4) 0.61807(17) 0.6250(3)
H12 H 0.1527 0.6248 0.6948
C24 C 0.2418(3) 0.63497(15) 0.5815(2)
H13 H 0.3126 0.6539 0.6218
C25 C 0.6003(3) 0.64018(14) 0.2616(2)
C26 C 0.7248(3) 0.65424(14) 0.2957(2)
H14 H 0.7537 0.6690 0.3623
C27 C 0.8071(3) 0.64693(16) 0.2337(3)
H15 H 0.8914 0.6569 0.2574
C28 C 0.7639(4) 0.62473(17) 0.1363(3)
H16 H 0.8195 0.6191 0.0935
C29 C 0.6418(4) 0.61093(17) 0.1018(3)
H17 H 0.6130 0.5965 0.0349
C30 C 0.5599(3) 0.61799(15) 0.1644(2)
H18 H 0.4758 0.6075 0.1405
C31 C 0.6092(3) 0.77803(14) 0.2745(2)
C32 C 0.7197(3) 0.80042(15) 0.3300(3)
H19 H 0.7322 0.8041 0.4009
C33 C 0.8128(3) 0.81753(17) 0.2824(3)
H20 H 0.8879 0.8333 0.3211
C34 C 0.7965(4) 0.81170(17) 0.1801(3)
H21 H 0.8602 0.8233 0.1480
C35 C 0.6872(4) 0.78894(17) 0.1242(3)
H22 H 0.6761 0.7842 0.0535
C36 C 0.5935(3) 0.77299(14) 0.1708(2)
H23 H 0.5176 0.7584 0.1314
C37 C 0.2188(3) 0.76113(14) 0.4954(2)
C38 C 0.0969(3) 0.74885(15) 0.4519(2)
H24 H 0.0738 0.7378 0.3829
C39 C 0.0078(3) 0.75251(16) 0.5085(3)
H25 H -0.0754 0.7431 0.4783
C40 C 0.0397(3) 0.76965(16) 0.6083(3)
H26 H -0.0212 0.7720 0.6469
C41 C 0.1605(3) 0.78341(16) 0.6518(3)
H27 H 0.1831 0.7953 0.7205
C42 C 0.2488(3) 0.77990(15) 0.5951(2)
H28 H 0.3314 0.7905 0.6250
C43 C 0.1432(9) 0.5253(4) 0.1534(9)
H29 H 0.1917 0.5539 0.2047
Cl1 Cl 0.0416(5) 0.4830(3) 0.2137(3)
Cl2 Cl 0.2465(7) 0.4755(4) 0.1170(5)
Cl3 Cl 0.0601(4) 0.57006(14) 0.0552(4)
C44? C 0.1498(17) 0.5080(8) 0.1689(18)
H30? H 0.2056 0.5184 0.2350
Cl4? Cl 0.0204(11) 0.4683(6) 0.1892(7)
Cl5? Cl 0.2304(15) 0.4678(9) 0.0956(11)
Cl6? Cl 0.0916(7) 0.5754(3) 0.1065(7)
loop_
_geom_bond_atom_site_label_1
_geom_bond_atom_site_label_2
_geom_bond_site_symmetry_1
_geom_bond_site_symmetry_2
O1 O2 1_555 1_555
O2 C8 1_555 1_555
C1 O1 1_555 1_555
C2 C1 1_555 1_555
C3 C2 1_555 1_555
H1 C3 1_555 1_555
C4 C3 1_555 1_555
H2 C4 1_555 1_555
C5 C4 1_555 1_555
H3 C5 1_555 1_555
C6 C5 1_555 1_555
H4 C6 1_555 1_555
C7 C2 1_555 1_555
C8 C7 1_555 1_555
C9 C8 1_555 1_555
C10 C9 1_555 1_555
C11 C10 1_555 1_555
C12 C11 1_555 1_555
H5 C12 1_555 1_555
C13 C12 1_555 1_555
H6 C13 1_555 1_555
C14 C13 1_555 1_555
H7 C14 1_555 1_555
C15 C14 1_555 1_555
H8 C15 1_555 1_555
C16 C11 1_555 1_555
C17 C16 1_555 1_555
C18 C1 1_555 1_555
C19 C1 1_555 1_555
C20 C19 1_555 1_555
H9 C20 1_555 1_555
C21 C20 1_555 1_555
H10 C21 1_555 1_555
C22 C21 1_555 1_555
H11 C22 1_555 1_555
C23 C22 1_555 1_555
H12 C23 1_555 1_555
C24 C19 1_555 1_555
H13 C24 1_555 1_555
C25 C8 1_555 1_555
C26 C25 1_555 1_555
H14 C26 1_555 1_555
C27 C26 1_555 1_555
H15 C27 1_555 1_555
C28 C27 1_555 1_555
H16 C28 1_555 1_555
C29 C28 1_555 1_555
H17 C29 1_555 1_555
C30 C25 1_555 1_555
H18 C30 1_555 1_555
C31 C10 1_555 1_555
C32 C31 1_555 1_555
H19 C32 1_555 1_555
C33 C32 1_555 1_555
H20 C33 1_555 1_555
C34 C33 1_555 1_555
H21 C34 1_555 1_555
C35 C34 1_555 1_555
H22 C35 1_555 1_555
C36 C31 1_555 1_555
H23 C36 1_555 1_555
C37 C17 1_555 1_555
C38 C37 1_555 1_555
H24 C38 1_555 1_555
C39 C38 1_555 1_555
H25 C39 1_555 1_555
C40 C39 1_555 1_555
H26 C40 1_555 1_555
C41 C40 1_555 1_555
H27 C41 1_555 1_555
C42 C37 1_555 1_555
H28 C42 1_555 1_555
C43 H29 1_555 1_555
Cl1 C43 1_555 1_555
Cl2 C43 1_555 1_555
Cl3 C43 1_555 1_555
C6 C7 1_555 1_555
C9 C18 1_555 1_555
C15 C16 1_555 1_555
C17 C18 1_555 1_555
C23 C24 1_555 1_555
C29 C30 1_555 1_555
C35 C36 1_555 1_555
C41 C42 1_555 1_555

#END
