
#######################################################################
#
#                 Cambridge Crystallographic Data Centre
#                                CCDC 
#
#######################################################################
#
# If this CIF has been generated from an entry in the Cambridge 
# Structural Database, then it will include bibliographic, chemical, 
# crystal, experimental, refinement or atomic coordinate data resulting 
# from the CCDC's data processing and validation procedures.
#
#######################################################################

data_YEQNAM
_chemical_formula_moiety         'C4 H5 F1 N6 O4'
_chemical_name_systematic        
N-(2-fluoro-2,2-dinitroethyl)-1H-1,2,3-triazol-1-amine
_symmetry_cell_setting           orthorhombic
_symmetry_space_group_name_H-M   'P 21 21 21'
_symmetry_Int_Tables_number      19
_space_group_name_Hall           'P 2ac 2ab'
loop_
_symmetry_equiv_pos_site_id
_symmetry_equiv_pos_as_xyz
1 x,y,z
2 1/2-x,-y,1/2+z
3 -x,1/2+y,1/2-z
4 1/2+x,1/2-y,-z
_cell_length_a                   6.3720(6)
_cell_length_b                   9.3611(9)
_cell_length_c                   14.5803(11)
_cell_angle_alpha                90
_cell_angle_beta                 90
_cell_angle_gamma                90
_cell_volume                     869.699
_exptl_crystal_description       plate
_cell_formula_units_Z            4
loop_
_atom_site_label
_atom_site_type_symbol
_atom_site_fract_x
_atom_site_fract_y
_atom_site_fract_z
C1 C 0.7309(7) 0.0601(4) 0.2901(3)
H1 H 0.7805 -0.0351 0.2839
C2 C 0.8533(6) 0.1770(4) 0.3043(2)
H2 H 1.0017 0.1813 0.3097
N1 N 0.7145(5) 0.2850(3) 0.30874(18)
N2 N 0.5161(5) 0.2401(3) 0.29744(19)
N3 N 0.5276(5) 0.1006(3) 0.28615(19)
N4 N 0.7628(5) 0.4296(3) 0.32187(19)
H3 H 0.708(5) 0.476(3) 0.2763(19)
C3 C 0.6814(5) 0.4828(3) 0.4094(2)
H4 H 0.6300 0.4021 0.4471
H5 H 0.5629 0.5489 0.3984
C4 C 0.856(2) 0.5598(16) 0.4591(11)
F1 F 0.911(3) 0.6805(18) 0.4150(14)
N5 N 0.792(3) 0.601(2) 0.5562(10)
O1 O 0.650(4) 0.533(3) 0.5910(16)
O2 O 0.889(3) 0.700(2) 0.5901(15)
N6 N 1.0493(19) 0.466(2) 0.4678(12)
O3 O 1.020(4) 0.346(2) 0.496(2)
O4 O 1.214(2) 0.512(3) 0.4430(18)
H6? H 0.6232 0.4034 0.4464
H7? H 0.5696 0.5544 0.3990
C5? C 0.863(2) 0.5485(19) 0.4566(12)
F2? F 0.955(3) 0.656(2) 0.4117(16)
N7? N 0.816(3) 0.607(2) 0.5536(11)
O5? O 0.662(4) 0.561(4) 0.5917(18)
O6? O 0.947(4) 0.689(3) 0.5835(18)
N8? N 1.039(2) 0.435(2) 0.4765(13)
O7? O 0.970(4) 0.322(2) 0.499(3)
O8? O 1.215(2) 0.483(2) 0.4724(17)
loop_
_geom_bond_atom_site_label_1
_geom_bond_atom_site_label_2
_geom_bond_site_symmetry_1
_geom_bond_site_symmetry_2
C1 H1 1_555 1_555
C2 C1 1_555 1_555
H2 C2 1_555 1_555
N1 C2 1_555 1_555
N2 N1 1_555 1_555
N3 C1 1_555 1_555
N4 N1 1_555 1_555
H3 N4 1_555 1_555
C3 N4 1_555 1_555
H4 C3 1_555 1_555
H5 C3 1_555 1_555
C4 C3 1_555 1_555
F1 C4 1_555 1_555
N5 C4 1_555 1_555
O1 N5 1_555 1_555
O2 N5 1_555 1_555
N6 C4 1_555 1_555
O3 N6 1_555 1_555
O4 N6 1_555 1_555
N2 N3 1_555 1_555

#END
