
#######################################################################
#
#                 Cambridge Crystallographic Data Centre
#                                CCDC 
#
#######################################################################
#
# If this CIF has been generated from an entry in the Cambridge 
# Structural Database, then it will include bibliographic, chemical, 
# crystal, experimental, refinement or atomic coordinate data resulting 
# from the CCDC's data processing and validation procedures.
#
#######################################################################

data_YEQNEQ
_chemical_formula_moiety         'C4 H5 F1 N6 O4'
_chemical_name_systematic        
N-(2-fluoro-2,2-dinitroethyl)-4H-1,2,4-triazol-4-amine
_symmetry_cell_setting           monoclinic
_symmetry_space_group_name_H-M   'P 21/n'
_symmetry_Int_Tables_number      14
_space_group_name_Hall           '-P 2yn'
loop_
_symmetry_equiv_pos_site_id
_symmetry_equiv_pos_as_xyz
1 x,y,z
2 1/2-x,1/2+y,1/2-z
3 -x,-y,-z
4 1/2+x,1/2-y,1/2+z
_cell_length_a                   9.4897(15)
_cell_length_b                   7.5220(11)
_cell_length_c                   11.9071(18)
_cell_angle_alpha                90
_cell_angle_beta                 105.455(5)
_cell_angle_gamma                90
_cell_volume                     819.213
_exptl_crystal_description       needle
_cell_formula_units_Z            4
loop_
_atom_site_label
_atom_site_type_symbol
_atom_site_fract_x
_atom_site_fract_y
_atom_site_fract_z
C1 C 0.3516(3) 0.0340(4) 0.3307(2)
H1 H 0.3889 0.1194 0.2874
C2 C 0.2403(3) -0.0857(4) 0.4475(2)
H2 H 0.1840 -0.1009 0.5019
C3 C 0.3251(3) 0.3532(4) 0.5022(2)
H3 H 0.3146 0.4766 0.4722
H4 H 0.4243 0.3103 0.5038
C4 C 0.3033(3) 0.3475(4) 0.6224(2)
F1 F 0.30514(19) 0.1829(2) 0.66503(13)
N1 N 0.2995(3) -0.2144(3) 0.4035(2)
N2 N 0.3716(3) -0.1364(3) 0.3271(2)
N3 N 0.2696(3) 0.0729(3) 0.40526(19)
N4 N 0.2151(3) 0.2394(3) 0.4278(2)
H5 H 0.180(3) 0.284(4) 0.362(3)
N5 N 0.4174(3) 0.4545(3) 0.7119(2)
N6 N 0.1571(3) 0.4309(4) 0.6262(2)
O1 O 0.4211(2) 0.4303(3) 0.81346(16)
O2 O 0.4951(3) 0.5541(3) 0.67393(18)
O3 O 0.0767(3) 0.3456(3) 0.6690(2)
O4 O 0.1353(2) 0.5792(3) 0.58460(18)
loop_
_geom_bond_atom_site_label_1
_geom_bond_atom_site_label_2
_geom_bond_site_symmetry_1
_geom_bond_site_symmetry_2
C1 H1 1_555 1_555
C2 H2 1_555 1_555
C3 H3 1_555 1_555
H4 C3 1_555 1_555
C4 C3 1_555 1_555
F1 C4 1_555 1_555
N1 C2 1_555 1_555
N2 C1 1_555 1_555
N3 C1 1_555 1_555
N4 C3 1_555 1_555
H5 N4 1_555 1_555
N5 C4 1_555 1_555
N6 C4 1_555 1_555
O1 N5 1_555 1_555
O2 N5 1_555 1_555
O3 N6 1_555 1_555
O4 N6 1_555 1_555
C2 N3 1_555 1_555
N1 N2 1_555 1_555
N3 N4 1_555 1_555

#END
