
#######################################################################
#
#                 Cambridge Crystallographic Data Centre
#                                CCDC 
#
#######################################################################
#
# If this CIF has been generated from an entry in the Cambridge 
# Structural Database, then it will include bibliographic, chemical, 
# crystal, experimental, refinement or atomic coordinate data resulting 
# from the CCDC's data processing and validation procedures.
#
#######################################################################

data_YEQPES
_chemical_formula_moiety         'C4 H4 F1 N7 O6'
_chemical_name_systematic        
N-(2-fluoro-2,2-dinitroethyl)-N-nitro-1H-1,2,4-triazol-3-amine
_symmetry_cell_setting           monoclinic
_symmetry_space_group_name_H-M   'P 21/n'
_symmetry_Int_Tables_number      14
_space_group_name_Hall           '-P 2yn'
loop_
_symmetry_equiv_pos_site_id
_symmetry_equiv_pos_as_xyz
1 x,y,z
2 1/2-x,1/2+y,1/2-z
3 -x,-y,-z
4 1/2+x,1/2-y,1/2+z
_cell_length_a                   5.0674(7)
_cell_length_b                   22.537(3)
_cell_length_c                   8.3180(10)
_cell_angle_alpha                90
_cell_angle_beta                 102.747(4)
_cell_angle_gamma                90
_cell_volume                     926.536
_exptl_crystal_description       needle
_cell_formula_units_Z            4
loop_
_atom_site_label
_atom_site_type_symbol
_atom_site_fract_x
_atom_site_fract_y
_atom_site_fract_z
C1 C 0.7517(9) 0.08309(19) 0.1286(5)
C2 C 0.5697(9) 0.0666(2) -0.1160(6)
H1 H 0.5364 0.0594 -0.2313
N1 N 0.3798(8) 0.06989(17) -0.0286(5)
H2 H 0.211(11) 0.066(2) -0.054(6)
N2 N 0.4927(7) 0.08097(17) 0.1325(5)
N3 N 0.8116(7) 0.07468(18) -0.0193(5)
N4 N 0.9470(8) 0.09627(17) 0.2736(5)
N5 N 1.0970(8) 0.04931(19) 0.3548(5)
O1 O 1.2842(7) 0.06159(16) 0.4675(4)
O2 O 1.0230(7) -0.00068(15) 0.3073(4)
C3 C 1.0766(9) 0.1545(2) 0.2937(6)
H3 H 1.0421 0.1753 0.1863
H4 H 1.2746 0.1496 0.3327
C4 C 0.966(2) 0.1910(4) 0.4175(11)
F1 F 0.7012(14) 0.1889(4) 0.4002(11)
N6 N 1.061(2) 0.2555(4) 0.4161(14)
O3 O 1.216(2) 0.2666(5) 0.3259(15)
O4 O 0.976(3) 0.2911(5) 0.5016(19)
N7 N 1.093(2) 0.1701(5) 0.5936(11)
O5 O 1.3253(19) 0.1850(4) 0.6457(11)
O6 O 0.954(3) 0.1372(5) 0.6571(13)
C5? C 1.0766(9) 0.1545(2) 0.2937(6)
H5? H 1.0472 0.1748 0.1857
H6? H 1.2739 0.1497 0.3364
C6? C 0.960(3) 0.1910(5) 0.4115(14)
F2? F 0.695(2) 0.1999(7) 0.362(2)
N8? N 1.086(3) 0.2531(5) 0.444(2)
O7? O 1.263(3) 0.2661(6) 0.375(3)
O8? O 0.996(4) 0.2828(7) 0.542(2)
N9? N 1.012(3) 0.1638(7) 0.5844(13)
O9? O 1.235(3) 0.1747(7) 0.6712(16)
O10? O 0.838(4) 0.1319(6) 0.6160(18)
C7? C 1.0766(9) 0.1545(2) 0.2937(6)
H7? H 1.0550 0.1742 0.1853
H8? H 1.2724 0.1501 0.3422
C8? C 0.946(3) 0.1908(5) 0.4049(14)
F3? F 0.6879(19) 0.2017(6) 0.3254(16)
N10? N 1.061(3) 0.2526(5) 0.4514(18)
O11? O 1.283(3) 0.2633(6) 0.426(2)
O12? O 0.906(3) 0.2860(6) 0.506(2)
N11? N 0.940(3) 0.1618(7) 0.5691(13)
O13? O 1.150(3) 0.1631(7) 0.6760(17)
O14? O 0.728(3) 0.1397(7) 0.5817(17)
loop_
_geom_bond_atom_site_label_1
_geom_bond_atom_site_label_2
_geom_bond_site_symmetry_1
_geom_bond_site_symmetry_2
C1 N2 1_555 1_555
C2 H1 1_555 1_555
N1 C2 1_555 1_555
H2 N1 1_555 1_555
N2 N1 1_555 1_555
N3 C1 1_555 1_555
N4 C1 1_555 1_555
N5 N4 1_555 1_555
O1 N5 1_555 1_555
O2 N5 1_555 1_555
C3 N4 1_555 1_555
H3 C3 1_555 1_555
H4 C3 1_555 1_555
C4 C3 1_555 1_555
F1 C4 1_555 1_555
N6 C4 1_555 1_555
O3 N6 1_555 1_555
O4 N6 1_555 1_555
N7 C4 1_555 1_555
O5 N7 1_555 1_555
O6 N7 1_555 1_555
C2 N3 1_555 1_555

#END
