
#######################################################################
#
#                 Cambridge Crystallographic Data Centre
#                                CCDC 
#
#######################################################################
#
# If this CIF has been generated from an entry in the Cambridge 
# Structural Database, then it will include bibliographic, chemical, 
# crystal, experimental, refinement or atomic coordinate data resulting 
# from the CCDC's data processing and validation procedures.
#
#######################################################################

data_YERCAC
_chemical_formula_moiety         'C32 H24 O1'
_chemical_name_systematic        
1-(4-methylphenyl)-2,3-diphenyl-1H-benzo[f]chromene
_symmetry_cell_setting           triclinic
_symmetry_space_group_name_H-M   'P -1'
_symmetry_Int_Tables_number      2
_space_group_name_Hall           '-P 1'
loop_
_symmetry_equiv_pos_site_id
_symmetry_equiv_pos_as_xyz
1 x,y,z
2 -x,-y,-z
_cell_length_a                   10.1576(4)
_cell_length_b                   11.4492(5)
_cell_length_c                   11.5037(5)
_cell_angle_alpha                78.689(4)
_cell_angle_beta                 64.832(4)
_cell_angle_gamma                75.978(4)
_cell_volume                     1168.13
_exptl_crystal_colour            colorless
_exptl_crystal_description       block
_cell_formula_units_Z            2
loop_
_atom_site_label
_atom_site_type_symbol
_atom_site_fract_x
_atom_site_fract_y
_atom_site_fract_z
O1 O 0.15785(11) 0.51890(8) 0.53436(10)
C1 C 0.35790(14) 0.30811(11) 0.41721(13)
H1 H 0.4461 0.2565 0.4261
C2 C 0.53081(14) 0.45188(12) 0.26395(13)
C3 C 0.33430(14) 0.26230(11) 0.31258(13)
C4 C 0.23130(14) 0.30137(12) 0.54832(13)
C5 C 0.38914(14) 0.43672(12) 0.37538(13)
C6 C 0.13971(15) 0.40474(12) 0.59743(14)
C7 C 0.08291(17) 0.18622(14) 0.74697(14)
C8 C 0.29174(14) 0.53152(12) 0.43162(13)
C9 C 0.20235(15) 0.18779(12) 0.62369(13)
C10 C 0.01920(17) 0.40374(14) 0.71828(15)
H2 H -0.0419 0.4759 0.7479
C11 C 0.30415(15) 0.66110(12) 0.39836(13)
C12 C 0.66459(16) 0.40243(14) 0.27477(15)
H3 H 0.6655 0.3586 0.3517
C13 C 0.53299(17) 0.51381(14) 0.14705(14)
H4 H 0.4443 0.5465 0.1378
C14 C 0.28697(17) 0.07568(13) 0.57938(15)
H5 H 0.3649 0.0745 0.4986
C15 C 0.45364(17) 0.21397(14) 0.20690(15)
H6 H 0.5493 0.2074 0.2010
C16 C 0.19450(16) 0.27023(14) 0.31685(15)
H7 H 0.1125 0.3036 0.3852
C17 C 0.17440(19) 0.22930(16) 0.22105(17)
H8 H 0.0788 0.2337 0.2279
C18 C 0.43519(17) 0.70071(14) 0.36806(15)
H9 H 0.5185 0.6451 0.3689
C19 C -0.00702(18) 0.29662(15) 0.79117(15)
H10 H -0.0856 0.2961 0.8716
C20 C 0.4417(2) 0.82247(16) 0.33679(17)
H11 H 0.5299 0.8483 0.3160
C21 C 0.4322(2) 0.17568(15) 0.11064(17)
H12 H 0.5140 0.1447 0.0406
C22 C 0.2562(2) -0.03096(15) 0.65325(18)
H13 H 0.3130 -0.1037 0.6218
C23 C 0.18107(18) 0.74665(14) 0.39865(17)
H14 H 0.0922 0.7216 0.4204
C24 C 0.79656(17) 0.41792(18) 0.17177(18)
H15 H 0.8857 0.3857 0.1803
C25 C 0.0560(2) 0.07360(15) 0.82110(16)
H16 H -0.0209 0.0722 0.9025
C26 C 0.6653(2) 0.52769(16) 0.04399(15)
H17 H 0.6652 0.5689 -0.0341
C27 C 0.2923(2) 0.18223(15) 0.11577(17)
C28 C 0.79669(19) 0.48068(18) 0.05688(17)
H18 H 0.8856 0.4913 -0.0119
C29 C 0.1403(2) -0.03239(15) 0.77567(18)
H19 H 0.1212 -0.1056 0.8256
C30 C 0.3190(2) 0.90625(15) 0.33606(19)
H20 H 0.3246 0.9881 0.3146
C31 C 0.1884(2) 0.86842(15) 0.3672(2)
H21 H 0.1052 0.9246 0.3671
C32 C 0.2686(3) 0.1411(3) 0.0106(2)
H22 H 0.2405 0.0628 0.0387
H23 H 0.3586 0.1363 -0.0657
H24 H 0.1918 0.1979 -0.0081
loop_
_geom_bond_atom_site_label_1
_geom_bond_atom_site_label_2
_geom_bond_site_symmetry_1
_geom_bond_site_symmetry_2
O1 C6 1_555 1_555
C1 H1 1_555 1_555
C2 C5 1_555 1_555
C3 C1 1_555 1_555
C4 C1 1_555 1_555
C5 C1 1_555 1_555
C6 C4 1_555 1_555
C7 C9 1_555 1_555
C8 O1 1_555 1_555
C9 C4 1_555 1_555
C10 C6 1_555 1_555
H2 C10 1_555 1_555
C11 C8 1_555 1_555
C12 C2 1_555 1_555
H3 C12 1_555 1_555
C13 C2 1_555 1_555
H4 C13 1_555 1_555
C14 C9 1_555 1_555
H5 C14 1_555 1_555
C15 C3 1_555 1_555
H6 C15 1_555 1_555
C16 C3 1_555 1_555
H7 C16 1_555 1_555
C17 C16 1_555 1_555
H8 C17 1_555 1_555
C18 C11 1_555 1_555
H9 C18 1_555 1_555
C19 C7 1_555 1_555
H10 C19 1_555 1_555
C20 C18 1_555 1_555
H11 C20 1_555 1_555
C21 C15 1_555 1_555
H12 C21 1_555 1_555
C22 C14 1_555 1_555
H13 C22 1_555 1_555
C23 C11 1_555 1_555
H14 C23 1_555 1_555
C24 C12 1_555 1_555
H15 C24 1_555 1_555
C25 C7 1_555 1_555
H16 C25 1_555 1_555
C26 C13 1_555 1_555
H17 C26 1_555 1_555
C27 C17 1_555 1_555
C28 C24 1_555 1_555
H18 C28 1_555 1_555
C29 C22 1_555 1_555
H19 C29 1_555 1_555
C30 C20 1_555 1_555
H20 C30 1_555 1_555
C31 C23 1_555 1_555
H21 C31 1_555 1_555
C32 C27 1_555 1_555
H22 C32 1_555 1_555
H23 C32 1_555 1_555
H24 C32 1_555 1_555
C5 C8 1_555 1_555
C10 C19 1_555 1_555
C21 C27 1_555 1_555
C25 C29 1_555 1_555
C26 C28 1_555 1_555
C30 C31 1_555 1_555

#END
