
#######################################################################
#
#                 Cambridge Crystallographic Data Centre
#                                CCDC 
#
#######################################################################
#
# If this CIF has been generated from an entry in the Cambridge 
# Structural Database, then it will include bibliographic, chemical, 
# crystal, experimental, refinement or atomic coordinate data resulting 
# from the CCDC's data processing and validation procedures.
#
#######################################################################

data_YERCIK
_chemical_formula_moiety         'C24 H18 O1 S1'
_chemical_name_systematic        
2-methyl-3-phenyl-1-(thiophen-3-yl)-1H-naphtho[2,1-b]pyran
_symmetry_cell_setting           monoclinic
_symmetry_space_group_name_H-M   'P 21/c'
_symmetry_Int_Tables_number      14
_space_group_name_Hall           '-P 2ybc'
loop_
_symmetry_equiv_pos_site_id
_symmetry_equiv_pos_as_xyz
1 x,y,z
2 -x,1/2+y,1/2-z
3 -x,-y,-z
4 x,1/2-y,1/2+z
_cell_length_a                   9.4249(3)
_cell_length_b                   25.6154(7)
_cell_length_c                   7.9192(2)
_cell_angle_alpha                90
_cell_angle_beta                 107.662(3)
_cell_angle_gamma                90
_cell_volume                     1821.75
_exptl_crystal_colour            colorless
_exptl_crystal_description       needle
_cell_formula_units_Z            4
loop_
_atom_site_label
_atom_site_type_symbol
_atom_site_fract_x
_atom_site_fract_y
_atom_site_fract_z
O1 O 0.52038(13) 0.64497(5) 0.38068(15)
C1 C 0.27959(18) 0.64559(6) 0.42717(19)
C2 C 0.1891(2) 0.66513(6) 0.5286(2)
C3 C 0.19801(19) 0.55396(6) 0.3370(2)
C4 C 0.21829(17) 0.60866(6) 0.27335(19)
H1 H 0.1203 0.6216 0.2033
C5 C 0.42540(19) 0.66009(6) 0.47336(19)
C6 C 0.31783(18) 0.60761(6) 0.15433(19)
C7 C 0.45876(19) 0.62336(6) 0.21244(19)
C8 C 0.57231(19) 0.62208(7) 0.1184(2)
C9 C 0.0355(2) 0.65404(7) 0.4870(2)
H2 H -0.0091 0.6319 0.3926
C10 C 0.2544(2) 0.69830(6) 0.6765(2)
C11 C 0.6685(2) 0.66402(8) 0.1307(2)
H3 H 0.6617 0.6928 0.1993
C12 C 0.4923(2) 0.69208(7) 0.6214(2)
H4 H 0.5928 0.7005 0.6508
C13 C 0.4079(3) 0.71035(7) 0.7202(2)
H5 H 0.4517 0.7312 0.8184
C14 C 0.2436(2) 0.58775(8) -0.0303(2)
H6 H 0.2303 0.5507 -0.0269
H7 H 0.3048 0.5956 -0.1043
H8 H 0.1484 0.6043 -0.0776
C15 C 0.5881(2) 0.57926(8) 0.0181(3)
H9 H 0.5267 0.5504 0.0105
C16 C 0.1640(3) 0.71868(8) 0.7735(3)
H10 H 0.2065 0.7399 0.8711
C17 C 0.0741(2) 0.52316(8) 0.2656(3)
H11 H -0.0070 0.5344 0.1730
C18 C 0.7745(2) 0.66339(9) 0.0416(3)
H12 H 0.8379 0.6918 0.0504
C19 C -0.0490(3) 0.67521(8) 0.5832(3)
H13 H -0.1502 0.6677 0.5522
C20 C 0.6939(3) 0.57898(9) -0.0707(3)
H14 H 0.7026 0.5502 -0.1384
C21 C 0.7864(2) 0.62125(10) -0.0590(3)
H15 H 0.8569 0.6211 -0.1195
C22 C 0.0155(3) 0.70793(8) 0.7273(3)
H16 H -0.0428 0.7223 0.7915
C23 C 0.3024(3) 0.52854(8) 0.4724(3)
H17 H 0.3924 0.5438 0.5358
S1 S 0.0805(3) 0.46629(5) 0.3545(3)
C24 C 0.261(2) 0.4768(4) 0.5073(19)
H18 H 0.3168 0.4536 0.5918
H19? H -0.0127 0.5291 0.1732
H20? H 0.3946 0.5427 0.5335
S2? S 0.2458(3) 0.46984(12) 0.5144(4)
C25? C 0.1402(18) 0.4630(3) 0.421(2)
H21? H 0.0859 0.4323 0.4141
loop_
_geom_bond_atom_site_label_1
_geom_bond_atom_site_label_2
_geom_bond_site_symmetry_1
_geom_bond_site_symmetry_2
O1 C5 1_555 1_555
C1 C2 1_555 1_555
C2 C9 1_555 1_555
C3 C4 1_555 1_555
C4 C1 1_555 1_555
H1 C4 1_555 1_555
C5 C1 1_555 1_555
C6 C4 1_555 1_555
C7 O1 1_555 1_555
C8 C7 1_555 1_555
C9 H2 1_555 1_555
C10 C2 1_555 1_555
C11 C8 1_555 1_555
H3 C11 1_555 1_555
C12 C5 1_555 1_555
H4 C12 1_555 1_555
C13 C10 1_555 1_555
H5 C13 1_555 1_555
C14 C6 1_555 1_555
H6 C14 1_555 1_555
H7 C14 1_555 1_555
H8 C14 1_555 1_555
C15 C8 1_555 1_555
H9 C15 1_555 1_555
C16 C10 1_555 1_555
H10 C16 1_555 1_555
C17 C3 1_555 1_555
H11 C17 1_555 1_555
C18 C11 1_555 1_555
H12 C18 1_555 1_555
C19 C9 1_555 1_555
H13 C19 1_555 1_555
C20 C15 1_555 1_555
H14 C20 1_555 1_555
C21 C18 1_555 1_555
H15 C21 1_555 1_555
C22 C16 1_555 1_555
H16 C22 1_555 1_555
C23 C3 1_555 1_555
H17 C23 1_555 1_555
S1 C17 1_555 1_555
C24 C23 1_555 1_555
H18 C24 1_555 1_555
C6 C7 1_555 1_555
C12 C13 1_555 1_555
C19 C22 1_555 1_555
C20 C21 1_555 1_555
S1 C24 1_555 1_555

#END
