
#######################################################################
#
#                 Cambridge Crystallographic Data Centre
#                                CCDC 
#
#######################################################################
#
# If this CIF has been generated from an entry in the Cambridge 
# Structural Database, then it will include bibliographic, chemical, 
# crystal, experimental, refinement or atomic coordinate data resulting 
# from the CCDC's data processing and validation procedures.
#
#######################################################################

data_YERGUA
_chemical_formula_moiety         'C18 H17 N1 O3 S1'
_chemical_name_systematic        
4-((4-methylphenyl)sulfonyl)-2a,3,4,8b-tetrahydrocyclobuta[c]quinolin-1(2H)-one
_symmetry_cell_setting           orthorhombic
_symmetry_space_group_name_H-M   'P 21 21 21'
_symmetry_Int_Tables_number      19
_space_group_name_Hall           'P 2ac 2ab'
loop_
_symmetry_equiv_pos_site_id
_symmetry_equiv_pos_as_xyz
1 x,y,z
2 1/2-x,-y,1/2+z
3 -x,1/2+y,1/2-z
4 1/2+x,1/2-y,-z
_cell_length_a                   5.93100(10)
_cell_length_b                   16.1804(2)
_cell_length_c                   16.9622(3)
_cell_angle_alpha                90
_cell_angle_beta                 90
_cell_angle_gamma                90
_cell_volume                     1627.79
_exptl_crystal_colour            colorless
_exptl_crystal_description       block
_cell_formula_units_Z            4
loop_
_atom_site_label
_atom_site_type_symbol
_atom_site_fract_x
_atom_site_fract_y
_atom_site_fract_z
S1 S 0.30716(7) 0.58100(2) 0.27198(2)
O1 O 0.0428(3) 0.80720(12) 0.09678(10)
O2 O 0.0682(2) 0.57252(7) 0.26919(8)
O3 O 0.4401(3) 0.54737(8) 0.20991(8)
N1 N 0.3645(2) 0.67913(8) 0.27606(9)
C1 C 0.5366(3) 0.77713(13) 0.18464(13)
H1 H 0.6707 0.8104 0.1731
C2 C 0.4235(4) 0.74532(15) 0.10948(12)
H2 H 0.5004 0.7616 0.0614
H3 H 0.3941 0.6863 0.1100
C3 C 0.2210(3) 0.79697(11) 0.12808(11)
C4 C 0.3258(3) 0.83225(10) 0.20319(11)
H4 H 0.3604 0.8912 0.1975
C5 C 0.2021(3) 0.81502(9) 0.27878(10)
C6 C 0.0642(4) 0.87392(12) 0.31392(14)
H5 H 0.0514 0.9261 0.2913
C7 C -0.0530(5) 0.85611(15) 0.38134(16)
H6 H -0.1466 0.8959 0.4035
C8 C -0.0335(4) 0.77938(15) 0.41683(13)
H7 H -0.1119 0.7680 0.4630
C9 C 0.1032(3) 0.71984(12) 0.38319(11)
H8 H 0.1176 0.6683 0.4069
C10 C 0.2189(3) 0.73720(10) 0.31403(9)
C11 C 0.5814(3) 0.71311(11) 0.24762(12)
H9 H 0.6736 0.6690 0.2262
H10 H 0.6625 0.7382 0.2911
C12 C 0.4010(3) 0.53717(9) 0.36132(10)
C13 C 0.2676(3) 0.47970(11) 0.39894(11)
H11 H 0.1265 0.4663 0.3787
C14 C 0.3451(3) 0.44197(12) 0.46705(11)
H12 H 0.2550 0.4029 0.4921
C15 C 0.5529(3) 0.46102(11) 0.49857(10)
C16 C 0.6832(4) 0.51878(12) 0.46003(11)
H13 H 0.8235 0.5326 0.4807
C17 C 0.6104(3) 0.55691(12) 0.39108(12)
H14 H 0.7017 0.5952 0.3654
C18 C 0.6362(4) 0.41870(15) 0.57209(13)
H15 H 0.6675 0.3617 0.5607
H16 H 0.5228 0.4221 0.6124
H17 H 0.7714 0.4453 0.5901
loop_
_geom_bond_atom_site_label_1
_geom_bond_atom_site_label_2
_geom_bond_site_symmetry_1
_geom_bond_site_symmetry_2
S1 O2 1_555 1_555
O1 C3 1_555 1_555
O3 S1 1_555 1_555
N1 S1 1_555 1_555
C1 H1 1_555 1_555
C2 C1 1_555 1_555
H2 C2 1_555 1_555
H3 C2 1_555 1_555
C3 C2 1_555 1_555
C4 C1 1_555 1_555
H4 C4 1_555 1_555
C5 C4 1_555 1_555
C6 C5 1_555 1_555
H5 C6 1_555 1_555
C7 C6 1_555 1_555
H6 C7 1_555 1_555
C8 C7 1_555 1_555
H7 C8 1_555 1_555
C9 C8 1_555 1_555
H8 C9 1_555 1_555
C10 N1 1_555 1_555
C11 N1 1_555 1_555
H9 C11 1_555 1_555
H10 C11 1_555 1_555
C12 S1 1_555 1_555
C13 C12 1_555 1_555
H11 C13 1_555 1_555
C14 C13 1_555 1_555
H12 C14 1_555 1_555
C15 C14 1_555 1_555
C16 C15 1_555 1_555
H13 C16 1_555 1_555
C17 C12 1_555 1_555
H14 C17 1_555 1_555
C18 C15 1_555 1_555
H15 C18 1_555 1_555
H16 C18 1_555 1_555
H17 C18 1_555 1_555
C1 C11 1_555 1_555
C3 C4 1_555 1_555
C5 C10 1_555 1_555
C9 C10 1_555 1_555
C16 C17 1_555 1_555

#END
