
#######################################################################
#
#                 Cambridge Crystallographic Data Centre
#                                CCDC 
#
#######################################################################
#
# If this CIF has been generated from an entry in the Cambridge 
# Structural Database, then it will include bibliographic, chemical, 
# crystal, experimental, refinement or atomic coordinate data resulting 
# from the CCDC's data processing and validation procedures.
#
#######################################################################

data_YERGOU
_chemical_formula_moiety         'C13 H14 O2'
_chemical_name_systematic        
6,7-dimethyl-2a,8b-dihydro-2H-cyclobuta[c][1]benzopyran-1(3H)-one
_symmetry_cell_setting           orthorhombic
_symmetry_space_group_name_H-M   'P 21 21 21'
_symmetry_Int_Tables_number      19
_space_group_name_Hall           'P 2ac 2ab'
loop_
_symmetry_equiv_pos_site_id
_symmetry_equiv_pos_as_xyz
1 x,y,z
2 1/2-x,-y,1/2+z
3 -x,1/2+y,1/2-z
4 1/2+x,1/2-y,-z
_cell_length_a                   6.29650(10)
_cell_length_b                   7.7270(2)
_cell_length_c                   22.2858(5)
_cell_angle_alpha                90
_cell_angle_beta                 90
_cell_angle_gamma                90
_cell_volume                     1084.27
_exptl_crystal_colour            colorless
_exptl_crystal_description       block
_cell_formula_units_Z            4
loop_
_atom_site_label
_atom_site_type_symbol
_atom_site_fract_x
_atom_site_fract_y
_atom_site_fract_z
O1 O 0.8866(6) 0.6323(5) 0.77672(15)
O2 O 0.4079(4) 0.5085(4) 0.62479(15)
C1 C 0.4904(9) 0.3514(7) 0.6404(3)
H1 H 0.546368 0.297674 0.604405
H2 H 0.374643 0.279319 0.654554
C2 C 0.6584(7) 0.3489(5) 0.68624(18)
H3 H 0.727491 0.235224 0.687089
C3 C 0.6196(10) 0.4120(7) 0.7492(2)
H4 H 0.483152 0.468279 0.754481
H5 H 0.642105 0.324269 0.779675
C4 C 0.8002(7) 0.5349(6) 0.74269(18)
C5 C 0.8264(6) 0.4933(5) 0.67643(16)
H6 H 0.967467 0.447510 0.666751
C6 C 0.7578(5) 0.6348(5) 0.63476(13)
C7 C 0.8896(5) 0.7732(5) 0.62059(15)
H7 H 1.023820 0.778269 0.637904
C8 C 0.8283(6) 0.9043(5) 0.58148(16)
C9 C 0.6269(6) 0.8951(5) 0.55478(17)
C10 C 0.4917(6) 0.7619(5) 0.57036(18)
H8 H 0.356342 0.757668 0.553740
C11 C 0.5542(5) 0.6342(5) 0.61039(16)
C12 C 0.9818(8) 1.0504(6) 0.5673(2)
H9 H 1.107987 1.037252 0.591052
H10 H 0.916064 1.159377 0.576389
H11 H 1.018412 1.046836 0.525502
C13 C 0.5561(8) 1.0258(6) 0.5081(2)
H12 H 0.563103 1.140120 0.524873
H13 H 0.412733 1.001094 0.496241
H14 H 0.647658 1.018890 0.473777
loop_
_geom_bond_atom_site_label_1
_geom_bond_atom_site_label_2
_geom_bond_site_symmetry_1
_geom_bond_site_symmetry_2
O1 C4 1_555 1_555
O2 C1 1_555 1_555
C1 H1 1_555 1_555
H2 C1 1_555 1_555
C2 C1 1_555 1_555
H3 C2 1_555 1_555
C3 C2 1_555 1_555
H4 C3 1_555 1_555
H5 C3 1_555 1_555
C4 C3 1_555 1_555
C5 C2 1_555 1_555
H6 C5 1_555 1_555
C6 C5 1_555 1_555
C7 C6 1_555 1_555
H7 C7 1_555 1_555
C8 C7 1_555 1_555
C9 C8 1_555 1_555
C10 C9 1_555 1_555
H8 C10 1_555 1_555
C11 O2 1_555 1_555
C12 C8 1_555 1_555
H9 C12 1_555 1_555
H10 C12 1_555 1_555
H11 C12 1_555 1_555
C13 C9 1_555 1_555
H12 C13 1_555 1_555
H13 C13 1_555 1_555
H14 C13 1_555 1_555
C4 C5 1_555 1_555
C6 C11 1_555 1_555
C10 C11 1_555 1_555

#END
