
#######################################################################
#
#                 Cambridge Crystallographic Data Centre
#                                CCDC 
#
#######################################################################
#
# If this CIF has been generated from an entry in the Cambridge 
# Structural Database, then it will include bibliographic, chemical, 
# crystal, experimental, refinement or atomic coordinate data resulting 
# from the CCDC's data processing and validation procedures.
#
#######################################################################

data_YERKEL01
_chemical_formula_moiety         'C15 H24 O3'
_chemical_name_systematic        
(3R*,4S*,5R*,5aR*,8aR*,8bR*)-3,6,6,8b-Tetramethyl-4,5,5a,6,7,8,8a,8b-octahydronaphtho(1,8-bc)furan-4,5-diol
_symmetry_cell_setting           monoclinic
_symmetry_space_group_name_H-M   'P 21/n'
_symmetry_Int_Tables_number      14
_space_group_name_Hall           '-P 2yn'
loop_
_symmetry_equiv_pos_site_id
_symmetry_equiv_pos_as_xyz
1 x,y,z
2 1/2-x,1/2+y,1/2-z
3 -x,-y,-z
4 1/2+x,1/2-y,1/2+z
_cell_length_a                   20.578(5)
_cell_length_b                   8.009(3)
_cell_length_c                   8.247(3)
_cell_angle_alpha                90
_cell_angle_beta                 99.9(1)
_cell_angle_gamma                90
_cell_volume                     1338.94
_cell_formula_units_Z            4
loop_
_atom_site_label
_atom_site_type_symbol
_atom_site_fract_x
_atom_site_fract_y
_atom_site_fract_z
C1 C 0.8794(3) 0.0465(7) 0.0599(7)
C2 C 0.9226(3) 0.0536(8) 0.2285(8)
C3 C 0.9704(3) -0.0928(9) 0.2440(8)
C4 C 0.9351(3) -0.2612(7) 0.2581(6)
C5 C 0.9762(3) -0.4004(10) 0.1980(10)
C6 C 0.9324(3) -0.2919(10) 0.4406(7)
C7 C 0.8641(3) -0.2481(7) 0.1615(6)
C8 C 0.8238(3) -0.4102(7) 0.1251(6)
C9 C 0.7505(3) -0.3725(7) 0.0708(7)
C10 C 0.7365(3) -0.2513(8) -0.0742(6)
C11 C 0.6628(3) -0.2028(10) -0.1119(8)
C12 C 0.7810(3) -0.1026(7) -0.0365(6)
C13 C 0.8543(3) -0.1310(7) 0.0091(6)
C14 C 0.7674(3) 0.0519(8) -0.0059(7)
C15 C 0.8849(3) -0.1939(8) -0.1378(7)
O1 O 0.8214(2) 0.1511(5) 0.0550(5)
O2 O 0.8470(2) -0.5100(5) 0.0030(5)
O3 O 0.7150(2) -0.5246(6) 0.0324(6)
H1 H 0.909 0.089 -0.024
H2 H 0.950 0.158 0.241
H3 H 0.892 0.057 0.316
H4 H 0.992 -0.088 0.144
H5 H 1.007 -0.081 0.348
H6 H 0.973 -0.385 0.075
H7 H 0.958 -0.519 0.218
H8 H 1.021 -0.391 0.262
H9 H 0.902 -0.201 0.471
H10 H 0.975 -0.307 0.516
H11 H 0.907 -0.407 0.440
H12 H 0.840 -0.184 0.238
H13 H 0.833 -0.470 0.238
H14 H 0.735 -0.315 0.166
H15 H 0.747 -0.319 -0.173
H16 H 0.655 -0.120 -0.206
H17 H 0.652 -0.146 -0.009
H18 H 0.640 -0.313 -0.134
H19 H 0.729 0.120 -0.014
H20 H 0.935 -0.210 -0.103
H21 H 0.870 -0.117 -0.230
H22 H 0.869 -0.313 -0.175
H23 H 0.744 -0.582 -0.035
H24 H 0.842 -0.647 0.035
loop_
_geom_bond_atom_site_label_1
_geom_bond_atom_site_label_2
_geom_bond_site_symmetry_1
_geom_bond_site_symmetry_2
C1 C2 1_555 1_555
C2 C3 1_555 1_555
C3 C4 1_555 1_555
C4 C5 1_555 1_555
C5 H6 1_555 1_555
C6 C4 1_555 1_555
C7 C4 1_555 1_555
C8 C7 1_555 1_555
C9 C8 1_555 1_555
C10 C9 1_555 1_555
C11 C10 1_555 1_555
C12 C10 1_555 1_555
C13 C1 1_555 1_555
C14 C12 1_555 1_555
C15 C13 1_555 1_555
O1 C1 1_555 1_555
O2 C8 1_555 1_555
O3 C9 1_555 1_555
H1 C1 1_555 1_555
H2 C2 1_555 1_555
H3 C2 1_555 1_555
H4 C3 1_555 1_555
H5 C3 1_555 1_555
H7 C5 1_555 1_555
H8 C5 1_555 1_555
H9 C6 1_555 1_555
H10 C6 1_555 1_555
H11 C6 1_555 1_555
H12 C7 1_555 1_555
H13 C8 1_555 1_555
H14 C9 1_555 1_555
H15 C10 1_555 1_555
H16 C11 1_555 1_555
H17 C11 1_555 1_555
H18 C11 1_555 1_555
H19 C14 1_555 1_555
H20 C15 1_555 1_555
H21 C15 1_555 1_555
H22 C15 1_555 1_555
H23 O3 1_555 1_555
H24 O2 1_555 1_555
C7 C13 1_555 1_555
C12 C13 1_555 1_555
C14 O1 1_555 1_555

#END
