
#######################################################################
#
#                 Cambridge Crystallographic Data Centre
#                                CCDC 
#
#######################################################################
#
# If this CIF has been generated from an entry in the Cambridge 
# Structural Database, then it will include bibliographic, chemical, 
# crystal, experimental, refinement or atomic coordinate data resulting 
# from the CCDC's data processing and validation procedures.
#
#######################################################################

data_YERNER
_chemical_formula_moiety         'C55 H65 Br5 O10,2(C2 H3 N1)'
_chemical_name_systematic        
'1-(3-bromopropoxy)-4-methoxypillar(5)arene acetonitrile solvate'
_symmetry_cell_setting           triclinic
_symmetry_space_group_name_H-M   'P -1'
_symmetry_Int_Tables_number      2
_space_group_name_Hall           '-P 1'
loop_
_symmetry_equiv_pos_site_id
_symmetry_equiv_pos_as_xyz
1 x,y,z
2 -x,-y,-z
_cell_length_a                   11.9944(10)
_cell_length_b                   12.9310(13)
_cell_length_c                   21.517(2)
_cell_angle_alpha                87.544(8)
_cell_angle_beta                 76.492(6)
_cell_angle_gamma                71.424(6)
_cell_volume                     3074.1
_exptl_crystal_colour            colorless
_exptl_crystal_description       Prism
_cell_formula_units_Z            2
loop_
_atom_site_label
_atom_site_type_symbol
_atom_site_fract_x
_atom_site_fract_y
_atom_site_fract_z
Br1 Br 0.4104(3) -0.27099(17) 0.23777(10)
C1 C 0.4563(7) -0.1392(6) 0.1897(4)
Br2 Br 1.12170(6) -0.43562(5) 0.05598(3)
Br3 Br 0.2173(2) -0.30382(15) 0.45803(9)
Br4 Br 0.75165(7) -0.34105(6) 0.07611(4)
C2 C 1.1032(6) -0.3341(5) 0.1746(3)
H1 H 1.1839 -0.3289 0.1595
H2 H 1.1106 -0.4065 0.1909
C3 C 0.8225(5) 0.2473(4) 0.0750(2)
H3 H 0.7882 0.3220 0.0714
C4 C 0.8381(5) 0.0637(4) 0.0516(3)
C5 C 0.6852(5) 0.2195(4) 0.0099(3)
H4 H 0.6900 0.2875 -0.0095
H5 H 0.6958 0.1677 -0.0240
C6 C 1.0547(5) 0.0523(4) 0.1563(2)
H6 H 1.1100 -0.0183 0.1389
H7 H 1.1014 0.1016 0.1551
C7 C 0.9242(4) 0.0252(4) 0.0865(2)
H8 H 0.9571 -0.0496 0.0903
C8 C 0.4951(5) 0.3413(4) 0.0821(3)
C9 C 0.8399(5) -0.1179(4) 0.0296(3)
H9 H 0.8181 -0.1342 0.0744
H10 H 0.9272 -0.1450 0.0149
C10 C 0.2255(5) 0.1632(5) 0.2827(3)
H11 H 0.2147 0.1121 0.2576
C11 C 0.4785(5) 0.0346(5) 0.4214(3)
H12 H 0.4369 -0.0110 0.4131
C12 C 0.9114(5) 0.2083(4) 0.1104(2)
C13 C 0.9626(5) 0.0958(4) 0.1159(2)
C14 C 0.3849(5) 0.3559(4) 0.1249(3)
H13 H 0.3405 0.4254 0.1426
C15 C 0.2445(5) 0.3381(4) 0.2957(3)
C16 C 0.4772(6) 0.2076(5) 0.4550(3)
C17 C 0.7811(5) -0.1692(4) -0.0098(3)
H14 H 0.8015 -0.1489 -0.0539
H15 H 0.6940 -0.1399 0.0055
C18 C 0.2180(5) 0.2882(5) 0.1886(3)
H16 H 0.1772 0.2422 0.1752
H17 H 0.1685 0.3636 0.1872
C19 C 0.9925(5) 0.0410(4) 0.2246(3)
C20 C 0.2374(5) 0.1384(5) 0.3438(3)
C21 C 0.6661(5) 0.0599(5) 0.4278(3)
C22 C 0.5641(5) 0.2385(4) 0.0541(2)
C23 C 0.9793(5) -0.0572(4) 0.2464(3)
C24 C 0.9171(5) -0.0641(4) 0.3090(3)
H18 H 0.9076 -0.1306 0.3228
C25 C 0.7858(4) 0.1755(4) 0.0455(2)
C26 C 0.4147(5) 0.1412(5) 0.4422(3)
C27 C 0.3383(5) 0.2702(4) 0.1424(3)
C28 C 0.8696(5) 0.0247(5) 0.3509(3)
C29 C 0.6035(5) -0.0062(5) 0.4126(2)
C30 C 0.6019(6) 0.1666(5) 0.4484(3)
H19 H 0.6426 0.2118 0.4580
C31 C 0.4088(5) 0.1662(4) 0.1159(3)
C32 C 0.8865(5) 0.1236(5) 0.3289(3)
C33 C 0.2788(5) 0.1845(5) 0.4476(3)
H20 H 0.2424 0.1294 0.4653
H21 H 0.2431 0.2486 0.4761
C34 C 0.8187(6) -0.2923(5) -0.0074(3)
H22 H 0.9063 -0.3215 -0.0167
H23 H 0.7915 -0.3206 -0.0401
C35 C 0.2549(5) 0.2134(5) 0.3823(3)
C36 C 0.8966(6) 0.3881(5) 0.1396(3)
H24 H 0.9126 0.4125 0.0967
H25 H 0.9276 0.4247 0.1661
H26 H 0.8110 0.4045 0.1558
C37 C 0.9465(5) 0.1308(5) 0.2668(3)
H27 H 0.9565 0.1971 0.2528
C38 C 0.5181(5) 0.1521(4) 0.0723(3)
H28 H 0.5625 0.0827 0.0545
C39 C 0.8030(5) 0.0171(5) 0.4182(3)
H29 H 0.8269 0.0583 0.4464
H30 H 0.8266 -0.0585 0.4302
C40 C 1.0411(6) -0.3173(5) 0.1200(3)
H31 H 1.0419 -0.2484 0.1006
H32 H 0.9574 -0.3141 0.1361
C41 C 0.2292(5) 0.2627(5) 0.2576(3)
C42 C 0.2556(5) 0.3142(5) 0.3575(3)
H33 H 0.2638 0.3664 0.3829
C43 C 0.8704(7) 0.3047(6) 0.3565(4)
H34 H 0.8346 0.3379 0.3220
H35 H 0.9568 0.2863 0.3430
H36 H 0.8411 0.3550 0.3926
C44 C 0.4751(6) 0.5307(5) 0.0892(3)
H37 H 0.3998 0.5515 0.0762
H38 H 0.5183 0.5808 0.0728
H39 H 0.4594 0.5321 0.1351
C45 C 0.6122(6) -0.1782(5) 0.3710(3)
H40 H 0.5600 -0.1398 0.3434
H41 H 0.5633 -0.2002 0.4084
C46 C 0.7948(8) -0.3359(6) 0.3759(4)
H42 H 0.7518 -0.3665 0.4120
H43 H 0.8257 -0.2847 0.3925
C47 C 0.1592(8) -0.1098(7) 0.3920(4)
H44 H 0.0943 -0.0711 0.4273
H45 H 0.1289 -0.1567 0.3711
C48 C 0.7095(7) -0.2771(6) 0.3357(4)
H46 H 0.6719 -0.3265 0.3231
H47 H 0.7545 -0.2540 0.2971
C49 C 0.2606(8) 0.5161(6) 0.3064(4)
H48 H 0.2540 0.5821 0.2833
H49 H 0.3387 0.4894 0.3161
H50 H 0.1989 0.5307 0.3454
C50 C 0.4123(9) -0.0173(6) 0.0990(4)
H51 H 0.4055 -0.0170 0.0545
C51 C 0.1888(7) -0.0278(6) 0.3452(4)
H52 H 0.1785 -0.0236 0.3035
C52 C 1.0323(6) -0.2493(5) 0.2278(3)
H53 H 0.9507 -0.2527 0.2424
H54 H 1.0706 -0.2630 0.2637
C53 C 0.4698(8) 0.3845(6) 0.4843(6)
H55 H 0.5231 0.3922 0.4448
H56 H 0.5160 0.3556 0.5157
H57 H 0.4124 0.4545 0.4992
C54 C 0.2557(9) -0.1763(7) 0.4171(5)
H58 H 0.2855 -0.1364 0.4437
O1 O 0.8394(4) 0.2096(4) 0.3736(2)
O2 O 0.4094(4) 0.3144(4) 0.4747(2)
O3 O 0.2457(4) 0.4360(3) 0.2682(2)
O4 O 0.5461(4) 0.4230(3) 0.0648(2)
O5 O 0.9531(4) 0.2754(3) 0.14002(19)
O6 O 0.6727(4) -0.1094(3) 0.3894(2)
O7 O 0.2334(5) 0.0408(4) 0.3723(2)
O8 O 0.3612(4) 0.0832(3) 0.13547(19)
O9 O 0.7955(3) -0.0030(3) 0.02094(18)
Br5 Br 0.92960(8) -0.45281(6) 0.32627(6)
O10 O 1.0292(4) -0.1441(3) 0.20339(18)
C55 C 0.3995(15) -0.1170(13) 0.1393(8)
C56 C 0.6849(9) -0.0175(8) 0.2174(5)
C57 C 0.6514(12) 0.0952(10) 0.2323(7)
H59 H 0.6880 0.1305 0.1969
H60 H 0.6785 0.1053 0.2695
H61 H 0.5651 0.1265 0.2406
N1 N 0.7246(9) -0.1174(8) 0.2030(5)
Br6? Br 0.37524(16) -0.28545(15) 0.36566(8)
C58? C 0.4950(10) -0.0983(9) 0.1166(5)
Br7? Br 0.33027(12) -0.20438(10) 0.18880(6)
N2? N 0.1751(8) 0.5277(7) 0.4919(4)
C59? C 0.0525(8) 0.4922(8) 0.5085(5)
C60? C 0.0097(10) -0.2961(10) 0.4593(6)
loop_
_geom_bond_atom_site_label_1
_geom_bond_atom_site_label_2
_geom_bond_site_symmetry_1
_geom_bond_site_symmetry_2
Br1 C1 1_555 1_555
C1 C55 1_555 1_555
Br2 C40 1_555 1_555
Br3 C54 1_555 1_555
Br4 C34 1_555 1_555
C2 H1 1_555 1_555
H2 C2 1_555 1_555
C3 H3 1_555 1_555
C4 C7 1_555 1_555
C5 H4 1_555 1_555
H5 C5 1_555 1_555
C6 H6 1_555 1_555
H7 C6 1_555 1_555
C7 H8 1_555 1_555
C8 C14 1_555 1_555
C9 H9 1_555 1_555
H10 C9 1_555 1_555
C10 H11 1_555 1_555
C11 H12 1_555 1_555
C12 C3 1_555 1_555
C13 C6 1_555 1_555
C14 H13 1_555 1_555
C15 C41 1_555 1_555
C16 C26 1_555 1_555
C17 C9 1_555 1_555
H14 C17 1_555 1_555
H15 C17 1_555 1_555
C18 H16 1_555 1_555
H17 C18 1_555 1_555
C19 C6 1_555 1_555
C20 C10 1_555 1_555
C21 C29 1_555 1_555
C22 C5 1_555 1_555
C23 C19 1_555 1_555
C24 C23 1_555 1_555
H18 C24 1_555 1_555
C25 C3 1_555 1_555
C26 C11 1_555 1_555
C27 C14 1_555 1_555
C28 C24 1_555 1_555
C29 C11 1_555 1_555
C30 C16 1_555 1_555
H19 C30 1_555 1_555
C31 C27 1_555 1_555
C32 C28 1_555 1_555
C33 C26 1_555 1_555
H20 C33 1_555 1_555
H21 C33 1_555 1_555
C34 C17 1_555 1_555
H22 C34 1_555 1_555
H23 C34 1_555 1_555
C35 C20 1_555 1_555
C36 H24 1_555 1_555
H25 C36 1_555 1_555
H26 C36 1_555 1_555
C37 C19 1_555 1_555
H27 C37 1_555 1_555
C38 C22 1_555 1_555
H28 C38 1_555 1_555
C39 C21 1_555 1_555
H29 C39 1_555 1_555
H30 C39 1_555 1_555
C40 C2 1_555 1_555
H31 C40 1_555 1_555
H32 C40 1_555 1_555
C41 C10 1_555 1_555
C42 C15 1_555 1_555
H33 C42 1_555 1_555
C43 H34 1_555 1_555
H35 C43 1_555 1_555
H36 C43 1_555 1_555
C44 H37 1_555 1_555
H38 C44 1_555 1_555
H39 C44 1_555 1_555
C45 H40 1_555 1_555
H41 C45 1_555 1_555
C46 H42 1_555 1_555
H43 C46 1_555 1_555
C47 H44 1_555 1_555
H45 C47 1_555 1_555
C48 C45 1_555 1_555
H46 C48 1_555 1_555
H47 C48 1_555 1_555
C49 H48 1_555 1_555
H49 C49 1_555 1_555
H50 C49 1_555 1_555
C50 H51 1_555 1_555
C51 C47 1_555 1_555
H52 C51 1_555 1_555
C52 C2 1_555 1_555
H53 C52 1_555 1_555
H54 C52 1_555 1_555
C53 H55 1_555 1_555
H56 C53 1_555 1_555
H57 C53 1_555 1_555
C54 C47 1_555 1_555
H58 C54 1_555 1_555
O1 C32 1_555 1_555
O2 C16 1_555 1_555
O3 C15 1_555 1_555
O4 C8 1_555 1_555
O5 C12 1_555 1_555
O6 C29 1_555 1_555
O7 C20 1_555 1_555
O8 C31 1_555 1_555
O9 C4 1_555 1_555
Br5 C46 1_555 1_555
O10 C23 1_555 1_555
C55 C50 1_555 1_555
C56 C57 1_555 1_555
C57 H59 1_555 1_555
H60 C57 1_555 1_555
H61 C57 1_555 1_555
N1 C56 1_555 1_555
C4 C25 1_555 1_555
C5 C25 1_555 1_555
C7 C13 1_555 1_555
C8 C22 1_555 1_555
C9 O9 1_555 1_555
C12 C13 1_555 1_555
C18 C27 1_555 1_555
C18 C41 1_555 1_555
C21 C30 1_555 1_555
C28 C39 1_555 1_555
C31 C38 1_555 1_555
C32 C37 1_555 1_555
C33 C35 1_555 1_555
C35 C42 1_555 1_555
C36 O5 1_555 1_555
C43 O1 1_555 1_555
C44 O4 1_555 1_555
C45 O6 1_555 1_555
C46 C48 1_555 1_555
C49 O3 1_555 1_555
C50 O8 1_555 1_555
C51 O7 1_555 1_555
C52 O10 1_555 1_555
C53 O2 1_555 1_555

#END
