
#######################################################################
#
#                 Cambridge Crystallographic Data Centre
#                                CCDC 
#
#######################################################################
#
# If this CIF has been generated from an entry in the Cambridge 
# Structural Database, then it will include bibliographic, chemical, 
# crystal, experimental, refinement or atomic coordinate data resulting 
# from the CCDC's data processing and validation procedures.
#
#######################################################################

data_YERNAN
_chemical_name_common            
'4,9,14,19,24-pentakis[(prop-2-en-1-yl)oxy]-26,28,30,32,34-pentakis[(prop-2-yn-1-yl)oxy]hexacyclo[21.2.2.2$3,6!.2$8,11!.2$13,16!.2$18,21!]pentatriaconta-1(25),3,5,8,10,13,15,18,20,23,26,28,30,32,34-pentadecaene hexane solvate'
_chemical_formula_moiety         'C65 H60 O10,C6 H14'
_chemical_name_systematic        
'1-((prop-2-en-1-yl)oxy)-4-((prop-2-yn-1-yl)oxy)pillar(5)arene n-hexane solvate'
_symmetry_cell_setting           triclinic
_symmetry_space_group_name_H-M   'P -1'
_symmetry_Int_Tables_number      2
_space_group_name_Hall           '-P 1'
loop_
_symmetry_equiv_pos_site_id
_symmetry_equiv_pos_as_xyz
1 x,y,z
2 -x,-y,-z
_cell_length_a                   12.0426(17)
_cell_length_b                   13.8291(17)
_cell_length_c                   19.662(2)
_cell_angle_alpha                78.720(8)
_cell_angle_beta                 83.606(9)
_cell_angle_gamma                78.588(7)
_cell_volume                     3138.73
_exptl_crystal_colour            colorless
_exptl_crystal_description       Prism
_cell_formula_units_Z            2
loop_
_atom_site_label
_atom_site_type_symbol
_atom_site_fract_x
_atom_site_fract_y
_atom_site_fract_z
O1 O -0.31430(16) -0.58969(14) -1.00643(10)
O2 O 0.11003(17) -0.93416(13) -0.71571(10)
O3 O 0.05889(15) -0.62630(14) -0.90419(10)
O4 O -0.31454(15) -0.36208(15) -0.81800(11)
O5 O -0.48975(18) -0.88844(16) -0.88405(11)
O6 O -0.21742(17) -1.09647(16) -0.70775(11)
O7 O -0.2035(2) -0.86924(17) -0.50840(11)
O8 O -0.02783(19) -0.55896(14) -0.64405(11)
O9 O -0.63274(17) -0.55614(17) -0.78304(13)
O10 O -0.5817(2) -0.8652(2) -0.60621(12)
C1 C -0.2218(2) -0.45811(19) -0.90123(14)
C2 C -0.2197(2) -0.42751(18) -0.83853(15)
C3 C -0.1291(2) -0.52458(19) -0.92410(14)
C4 C -0.5503(2) -0.6400(2) -0.87540(16)
C5 C 0.0940(2) -0.75236(18) -0.74540(14)
C6 C 0.0057(2) -0.65431(19) -0.66012(14)
C7 C -0.0320(2) -0.52744(18) -0.82231(14)
C8 C 0.0574(2) -0.65828(19) -0.72668(13)
C9 C 0.0246(2) -0.8346(2) -0.63300(14)
C10 C -0.2105(2) -1.0404(2) -0.65791(14)
C11 C -0.3246(2) -0.3438(2) -0.74906(17)
C12 C -0.3261(2) -0.4256(2) -0.94289(15)
C13 C -0.2997(2) -0.6739(2) -1.03888(16)
C14 C -0.5084(2) -0.8860(2) -0.81367(15)
C15 C 0.1720(3) -0.9436(2) -0.78006(17)
C16 C -0.4614(2) -0.9616(2) -0.76237(16)
C17 C -0.1078(2) -0.9585(2) -0.59451(14)
C18 C -0.4061(2) -0.5000(2) -0.92005(15)
C19 C 0.0776(2) -0.83942(19) -0.69931(14)
C20 C -0.1104(2) -1.0164(2) -0.64407(14)
C21 C -0.5554(2) -0.5600(2) -0.84067(16)
C22 C -0.1182(3) -1.1165(2) -0.75305(16)
C23 C -0.4839(2) -0.9538(2) -0.69209(16)
C24 C -0.0354(2) -0.55984(18) -0.88434(14)
C25 C -0.3978(2) -0.5815(2) -0.95260(15)
C26 C 0.1487(3) -0.7546(2) -0.96271(15)
C27 C 0.0473(2) -0.6767(2) -0.95863(15)
C28 C 0.1801(3) -1.0454(2) -0.79122(17)
C29 C -0.4710(2) -0.6497(2) -0.93133(15)
C30 C -0.2093(3) -0.9263(2) -0.55720(15)
C31 C -0.1492(3) -1.1537(2) -0.81134(17)
C32 C -0.5590(3) -0.8696(2) -0.67551(17)
C33 C -0.5812(2) -0.8004(2) -0.79715(16)
C34 C -0.3095(3) -0.9523(2) -0.57022(16)
C35 C -0.1250(2) -0.46135(19) -0.79989(15)
C36 C -0.1716(3) -1.1833(3) -0.85921(19)
C37 C 0.0689(2) -0.56396(18) -0.77884(14)
C38 C -0.6055(2) -0.7946(2) -0.72736(18)
C39 C -0.4850(2) -0.4902(2) -0.86373(16)
C40 C -0.4081(3) -0.9684(2) -0.90429(16)
C41 C -0.3132(3) -1.0082(2) -0.62123(15)
C42 C -0.0777(4) -0.3674(3) -0.6175(2)
C43 C -0.0101(2) -0.7416(2) -0.61392(14)
C44 C -0.1960(3) -0.6739(2) -1.08563(17)
C45 C 0.2286(3) -0.8176(3) -0.96610(18)
C46 C -0.6282(2) -0.7153(2) -0.85247(18)
C47 C -0.1106(3) -0.6738(3) -1.1211(2)
C48 C -0.4241(2) -1.0326(2) -0.63649(16)
C49 C -0.7222(3) -0.4923(4) -0.6845(2)
C50 C -0.3875(3) -0.9439(3) -0.98019(19)
C51 C 0.0029(2) -0.9286(2) -0.58321(14)
C52 C 0.1840(3) -1.1267(3) -0.8026(2)
C53 C -0.2916(3) -0.8636(3) -0.4544(2)
C54 C -0.1077(4) -0.4417(3) -0.5726(2)
C55 C -0.3664(4) -0.9259(3) -1.0408(2)
C56 C -0.5062(3) -0.2318(3) -0.7837(3)
C57 C -0.1620(5) -0.7879(4) -0.3997(2)
C58 C -0.6427(3) -0.4738(3) -0.74849(18)
C59 C -0.4347(3) -0.2759(3) -0.7369(2)
C60 C -0.6614(5) -0.7800(3) -0.5877(2)
C61 C -0.2575(4) -0.8178(4) -0.4000(3)
C62 C -0.0791(3) -0.5500(2) -0.57782(18)
C63 C -0.6892(6) -0.7898(4) -0.5174(3)
C64 C -0.6556(6) -0.7320(5) -0.4793(3)
C65 C -0.7202(7) -0.4616(5) -0.6298(4)
H1 H -0.4666(2) -0.7025(2) -0.95502(15)
H2 H -0.4908(2) -0.4361(2) -0.84110(16)
H3 H -0.1296(2) -0.54569(19) -0.96615(14)
H4 H -0.1240(2) -0.43922(19) -0.75827(15)
H5 H -0.6544(2) -0.7387(2) -0.71503(18)
H6 H -0.4143(2) -1.0184(2) -0.77473(16)
H7 H -0.0445(2) -0.7373(2) -0.56960(14)
H8 H 0.1299(2) -0.75696(18) -0.78934(14)
H9 H -0.3762(3) -0.9318(2) -0.54403(16)
H10 H -0.0431(2) -1.0396(2) -0.66865(14)
H11 H -0.3217(2) -0.4066(2) -0.71647(17)
H12 H -0.2621(2) -0.3130(2) -0.74191(17)
H13 H -0.3647(2) -0.3595(2) -0.93568(15)
H14 H -0.3033(2) -0.4222(2) -0.99207(15)
H15 H -0.3472(2) -0.7210(2) -1.03194(16)
H16 H 0.1339(3) -0.8967(2) -0.81733(17)
H17 H 0.2474(3) -0.9290(2) -0.77958(17)
H18 H -0.0874(3) -1.0557(2) -0.76976(16)
H19 H -0.0608(3) -1.1661(2) -0.72838(16)
H20 H -0.0204(2) -0.7066(2) -0.94891(15)
H21 H 0.0411(2) -0.6299(2) -1.00236(15)
H22 H -0.1895(3) -1.2068(3) -0.89714(19)
H23 H 0.1372(2) -0.57700(18) -0.80927(14)
H24 H 0.0771(2) -0.51171(18) -0.75425(14)
H25 H -0.3383(3) -0.9753(2) -0.88203(16)
H26 H -0.4365(3) -1.0309(2) -0.89111(16)
H27 H 0.2922(3) -0.8677(3) -0.96880(18)
H28 H -0.7010(2) -0.6815(2) -0.83480(18)
H29 H -0.6409(2) -0.7421(2) -0.89241(18)
H30 H -0.0432(3) -0.6736(3) -1.1492(2)
H31 H -0.4738(2) -1.0382(2) -0.59411(16)
H32 H -0.4091(2) -1.0970(2) -0.65158(16)
H33 H -0.7774(3) -0.5300(4) -0.6863(2)
H34 H 0.0654(2) -0.9831(2) -0.58936(14)
H35 H 0.0002(2) -0.9174(2) -0.53582(14)
H36 H 0.1871(3) -1.1908(3) -0.8116(2)
H37 H -0.3608(3) -0.8235(3) -0.4729(2)
H38 H -0.3062(3) -0.9302(3) -0.4346(2)
H39 H -0.1516(4) -0.4256(3) -0.5330(2)
H40 H -0.3497(4) -0.9117(3) -1.0886(2)
H41 H -0.5690(3) -0.4685(3) -0.73565(18)
H42 H -0.6729(3) -0.4119(3) -0.77858(18)
H43 H -0.4544(3) -0.2638(3) -0.6918(2)
H44 H -0.6289(5) -0.7200(3) -0.6036(2)
H45 H -0.7301(5) -0.7721(3) -0.6114(2)
H46 H -0.3098(4) -0.8095(4) -0.3621(3)
H47 H -0.7322(6) -0.8377(4) -0.4957(3)
H48 H -0.4900(3) -0.2417(3) -0.8295(3)
H49 H -0.5731(3) -0.1905(3) -0.7713(3)
H50 H -0.0337(4) -0.3794(3) -0.6580(2)
H51 H -0.1002(4) -0.3022(3) -0.6092(2)
H52 H -0.6126(6) -0.6839(5) -0.5004(3)
H53 H -0.6754(6) -0.7400(5) -0.4317(3)
H54 H -0.1068(5) -0.7945(4) -0.4364(2)
H55 H -0.1487(5) -0.7598(4) -0.3627(2)
H56 H -0.6664(7) -0.4236(5) -0.6258(4)
H57 H -0.7726(7) -0.4765(5) -0.5926(4)
H58 H -0.1476(3) -0.5788(2) -0.56996(18)
H59 H -0.0278(3) -0.5857(2) -0.54282(18)
C66? C -0.1852(9) -0.8118(8) -0.8202(5)
C67? C -0.3476(9) -0.6492(8) -0.6858(6)
C68? C -0.2791(9) -0.7272(8) -0.7157(5)
C69? C -0.2534(10) -0.7326(9) -0.7872(6)
C70? C -0.059(2) -0.928(2) -0.9423(13)
C71? C -0.1359(16) -0.8646(15) -0.8878(9)
C72? C 0.000 -1.0 -1.0
C73? C -0.3653(12) -0.6416(11) -0.6157(8)
loop_
_geom_bond_atom_site_label_1
_geom_bond_atom_site_label_2
_geom_bond_site_symmetry_1
_geom_bond_site_symmetry_2
O1 C13 1_555 1_555
O2 C15 1_555 1_555
O3 C24 1_555 1_555
O4 C2 1_555 1_555
O5 C14 1_555 1_555
O6 C10 1_555 1_555
O7 C30 1_555 1_555
O8 C6 1_555 1_555
O9 C21 1_555 1_555
O10 C32 1_555 1_555
C1 C2 1_555 1_555
C2 C35 1_555 1_555
C3 C1 1_555 1_555
C4 C21 1_555 1_555
C5 C8 1_555 1_555
C6 C8 1_555 1_555
C7 C24 1_555 1_555
C8 C37 1_555 1_555
C9 C19 1_555 1_555
C10 C20 1_555 1_555
C11 O4 1_555 1_555
C12 C1 1_555 1_555
C13 C44 1_555 1_555
C14 C16 1_555 1_555
C15 C28 1_555 1_555
C16 C23 1_555 1_555
C17 C20 1_555 1_555
C18 C12 1_555 1_555
C19 O2 1_555 1_555
C20 H10 1_555 1_555
C21 C39 1_555 1_555
C22 O6 1_555 1_555
C23 C32 1_555 1_555
C24 C3 1_555 1_555
C25 O1 1_555 1_555
C26 C27 1_555 1_555
C27 O3 1_555 1_555
C28 C52 1_555 1_555
C29 C4 1_555 1_555
C30 C17 1_555 1_555
C31 C22 1_555 1_555
C32 C38 1_555 1_555
C33 C14 1_555 1_555
C34 C30 1_555 1_555
C35 C7 1_555 1_555
C36 C31 1_555 1_555
C37 C7 1_555 1_555
C38 C33 1_555 1_555
C39 C18 1_555 1_555
C40 O5 1_555 1_555
C41 C10 1_555 1_555
C42 C54 1_555 1_555
C43 C6 1_555 1_555
C44 C47 1_555 1_555
C45 C26 1_555 1_555
C46 C4 1_555 1_555
C47 H30 1_555 1_555
C48 C23 1_555 1_555
C49 C58 1_555 1_555
C50 C40 1_555 1_555
C51 C9 1_555 1_555
C52 H36 1_555 1_555
C53 O7 1_555 1_555
C54 C62 1_555 1_555
C55 C50 1_555 1_555
C56 C59 1_555 1_555
C57 C61 1_555 1_555
C58 O9 1_555 1_555
C59 C11 1_555 1_555
C60 O10 1_555 1_555
C61 C53 1_555 1_555
C62 O8 1_555 1_555
C63 C60 1_555 1_555
C64 C63 1_555 1_555
C65 C49 1_555 1_555
H1 C29 1_555 1_555
H2 C39 1_555 1_555
H3 C3 1_555 1_555
H4 C35 1_555 1_555
H5 C38 1_555 1_555
H6 C16 1_555 1_555
H7 C43 1_555 1_555
H8 C5 1_555 1_555
H9 C34 1_555 1_555
H11 C11 1_555 1_555
H12 C11 1_555 1_555
H13 C12 1_555 1_555
H14 C12 1_555 1_555
H15 C13 1_555 1_555
H16 C15 1_555 1_555
H17 C15 1_555 1_555
H18 C22 1_555 1_555
H19 C22 1_555 1_555
H20 C27 1_555 1_555
H21 C27 1_555 1_555
H22 C36 1_555 1_555
H23 C37 1_555 1_555
H24 C37 1_555 1_555
H25 C40 1_555 1_555
H26 C40 1_555 1_555
H27 C45 1_555 1_555
H28 C46 1_555 1_555
H29 C46 1_555 1_555
H31 C48 1_555 1_555
H32 C48 1_555 1_555
H33 C49 1_555 1_555
H34 C51 1_555 1_555
H35 C51 1_555 1_555
H37 C53 1_555 1_555
H38 C53 1_555 1_555
H39 C54 1_555 1_555
H40 C55 1_555 1_555
H41 C58 1_555 1_555
H42 C58 1_555 1_555
H43 C59 1_555 1_555
H44 C60 1_555 1_555
H45 C60 1_555 1_555
H46 C61 1_555 1_555
H47 C63 1_555 1_555
H48 C56 1_555 1_555
H49 C56 1_555 1_555
H50 C42 1_555 1_555
H51 C42 1_555 1_555
H52 C64 1_555 1_555
H53 C64 1_555 1_555
H54 C57 1_555 1_555
H55 C57 1_555 1_555
H56 C65 1_555 1_555
H57 C65 1_555 1_555
H58 C62 1_555 1_555
H59 C62 1_555 1_555
C5 C19 1_555 1_555
C9 C43 1_555 1_555
C17 C51 1_555 1_555
C18 C25 1_555 1_555
C25 C29 1_555 1_555
C33 C46 1_555 1_555
C34 C41 1_555 1_555
C41 C48 1_555 1_555

#END
