
#######################################################################
#
#                 Cambridge Crystallographic Data Centre
#                                CCDC 
#
#######################################################################
#
# If this CIF has been generated from an entry in the Cambridge 
# Structural Database, then it will include bibliographic, chemical, 
# crystal, experimental, refinement or atomic coordinate data resulting 
# from the CCDC's data processing and validation procedures.
#
#######################################################################

data_YERRAP
_chemical_formula_moiety         'C18 H17 Br2 N2 1+,F6 P1 1-'
_chemical_name_systematic        
'1-Benzyl-3-(4-(dibromomethyl)benzyl)imidazolium hexafluorophosphate'
_symmetry_cell_setting           monoclinic
_symmetry_space_group_name_H-M   'P 21/c'
_symmetry_Int_Tables_number      14
_space_group_name_Hall           '-P 2ybc'
loop_
_symmetry_equiv_pos_site_id
_symmetry_equiv_pos_as_xyz
1 x,y,z
2 -x,1/2+y,1/2-z
3 -x,-y,-z
4 x,1/2-y,1/2+z
_cell_length_a                   9.9544(2)
_cell_length_b                   14.2182(3)
_cell_length_c                   14.2552(3)
_cell_angle_alpha                90
_cell_angle_beta                 91.9630(10)
_cell_angle_gamma                90
_cell_volume                     2016.41
_exptl_crystal_colour            white
_exptl_crystal_description       block
_cell_formula_units_Z            4
_exptl_crystal_recrystallization_method 'absolute acetonitrile/diethyl ether'
loop_
_atom_site_label
_atom_site_type_symbol
_atom_site_fract_x
_atom_site_fract_y
_atom_site_fract_z
P1 P 0.17264(7) 0.48423(5) 0.86395(5)
F1 F 0.1285(4) 0.4117(2) 0.7843(3)
F2 F 0.2150(4) 0.5529(3) 0.9454(2)
F3 F 0.2401(4) 0.5502(3) 0.7909(3)
F4 F 0.1066(3) 0.4123(3) 0.9334(3)
F5 F 0.0349(2) 0.53684(17) 0.8453(2)
F6 F 0.30983(18) 0.42964(17) 0.8802(2)
Br1 Br 0.29721(3) 0.33642(2) 0.59898(2)
Br2 Br 0.54390(3) 0.21306(2) 0.53314(2)
N1 N 0.2095(2) 0.71473(16) 0.17151(15)
N2 N 0.3376(2) 0.59222(15) 0.17244(15)
C1 C 0.0616(3) 0.7751(2) -0.0251(2)
H1 H 0.0289 0.7126 -0.0202
C2 C 0.0672(3) 0.8178(3) -0.1120(2)
H2 H 0.0376 0.7844 -0.1666
C3 C 0.1153(3) 0.9081(2) -0.1203(2)
H3 H 0.1181 0.9369 -0.1803
C4 C 0.1593(3) 0.9567(2) -0.0413(2)
H4 H 0.1939 1.0186 -0.0468
C5 C 0.1526(3) 0.9141(2) 0.0470(2)
H5 H 0.1819 0.9476 0.1016
C6 C 0.1037(3) 0.82372(19) 0.05510(19)
C7 C 0.0948(3) 0.7779(2) 0.1502(2)
H6 H 0.0920 0.8274 0.1989
H7 H 0.0102 0.7415 0.1522
C8 C 0.2181(3) 0.62548(19) 0.14427(18)
H8 H 0.1503 0.5913 0.1104
C9 C 0.3279(3) 0.7393(2) 0.2178(2)
H9 H 0.3496 0.7990 0.2442
C10 C 0.4068(3) 0.6627(2) 0.2183(2)
H10 H 0.4950 0.6582 0.2456
C11 C 0.3846(3) 0.49480(19) 0.15784(19)
H11 H 0.4779 0.4962 0.1359
H12 H 0.3273 0.4645 0.1084
C12 C 0.3805(3) 0.43704(18) 0.24708(18)
C13 C 0.4738(3) 0.45216(19) 0.3206(2)
H13 H 0.5398 0.4999 0.3151
C14 C 0.4717(3) 0.39860(19) 0.4016(2)
H14 H 0.5345 0.4107 0.4518
C15 C 0.3775(3) 0.32713(18) 0.40936(18)
C16 C 0.2849(3) 0.3114(2) 0.3358(2)
H15 H 0.2207 0.2623 0.3403
C17 C 0.2858(3) 0.3671(2) 0.25587(19)
H16 H 0.2205 0.3569 0.2067
C18 C 0.3711(3) 0.2663(2) 0.49434(19)
H17 H 0.3086 0.2130 0.4790
F7? F 0.199(2) 0.4534(16) 0.7598(6)
F8? F 0.136(2) 0.5243(17) 0.9632(8)
F9? F 0.2501(14) 0.5801(7) 0.8503(15)
F10? F 0.0899(19) 0.3900(9) 0.8686(18)
loop_
_geom_bond_atom_site_label_1
_geom_bond_atom_site_label_2
_geom_bond_site_symmetry_1
_geom_bond_site_symmetry_2
P1 F1 1_555 1_555
F2 P1 1_555 1_555
F3 P1 1_555 1_555
F4 P1 1_555 1_555
F5 P1 1_555 1_555
F6 P1 1_555 1_555
Br1 C18 1_555 1_555
Br2 C18 1_555 1_555
N1 C7 1_555 1_555
N2 C8 1_555 1_555
C1 H1 1_555 1_555
C2 C1 1_555 1_555
H2 C2 1_555 1_555
C3 C2 1_555 1_555
H3 C3 1_555 1_555
C4 C3 1_555 1_555
H4 C4 1_555 1_555
C5 C4 1_555 1_555
H5 C5 1_555 1_555
C6 C1 1_555 1_555
C7 C6 1_555 1_555
H6 C7 1_555 1_555
H7 C7 1_555 1_555
C8 N1 1_555 1_555
H8 C8 1_555 1_555
C9 N1 1_555 1_555
H9 C9 1_555 1_555
C10 N2 1_555 1_555
H10 C10 1_555 1_555
C11 N2 1_555 1_555
H11 C11 1_555 1_555
H12 C11 1_555 1_555
C12 C11 1_555 1_555
C13 C12 1_555 1_555
H13 C13 1_555 1_555
C14 C13 1_555 1_555
H14 C14 1_555 1_555
C15 C14 1_555 1_555
C16 C15 1_555 1_555
H15 C16 1_555 1_555
C17 C12 1_555 1_555
H16 C17 1_555 1_555
C18 C15 1_555 1_555
H17 C18 1_555 1_555
C5 C6 1_555 1_555
C9 C10 1_555 1_555
C16 C17 1_555 1_555

#END
