
#######################################################################
#
#                 Cambridge Crystallographic Data Centre
#                                CCDC 
#
#######################################################################
#
# If this CIF has been generated from an entry in the Cambridge 
# Structural Database, then it will include bibliographic, chemical, 
# crystal, experimental, refinement or atomic coordinate data resulting 
# from the CCDC's data processing and validation procedures.
#
#######################################################################

data_YERXOJ
_chemical_formula_moiety         'C18 H14 F4 N2 O2 S1'
_chemical_name_systematic        
N-(4-Cyano-3-(trifluoromethyl)phenyl)-3-(4-fluorophenylsulfanyl)-2-hydroxy-2-methylpropionamide
_symmetry_cell_setting           triclinic
_symmetry_space_group_name_H-M   'P -1'
_symmetry_Int_Tables_number      2
_space_group_name_Hall           '-P 1'
loop_
_symmetry_equiv_pos_site_id
_symmetry_equiv_pos_as_xyz
1 x,y,z
2 -x,-y,-z
_cell_length_a                   10.136(5)
_cell_length_b                   10.343(6)
_cell_length_c                   10.524(4)
_cell_angle_alpha                106.82(2)
_cell_angle_beta                 116.97(2)
_cell_angle_gamma                95.19(2)
_cell_volume                     908.907
_exptl_crystal_colour            colorless
_exptl_crystal_description       block
_cell_formula_units_Z            2
_exptl_crystal_recrystallization_method acetone
loop_
_atom_site_label
_atom_site_type_symbol
_atom_site_fract_x
_atom_site_fract_y
_atom_site_fract_z
S1 S 1.05362(9) 0.66265(11) 0.81085(8)
F1 F 0.3255(2) 0.0045(2) 0.7624(3)
F2 F 0.5424(3) 0.0978(2) 0.9456(2)
F3 F 0.5039(4) -0.0695(2) 0.7535(4)
F5 F 0.6827(11) 0.5636(12) 0.1553(5)
O1 O 0.9926(2) 0.66885(18) 1.07295(18)
O2 O 0.6598(2) 0.6361(2) 0.73183(19)
N1 N 0.7433(2) 0.4881(2) 0.8566(2)
N2 N 0.1879(3) -0.1128(2) 0.3768(2)
C1 C 0.9806(3) 0.7893(2) 0.9050(2)
C2 C 0.8971(2) 0.7284(2) 0.9706(2)
C3 C 0.8414(3) 0.8390(3) 1.0513(3)
C4 C 0.7544(2) 0.6118(2) 0.8398(2)
C5 C 0.6233(2) 0.3660(2) 0.7574(2)
C6 C 0.5300(2) 0.3381(2) 0.6010(2)
C7 C 0.4200(2) 0.2130(2) 0.5089(2)
C8 C 0.3984(2) 0.1153(2) 0.5687(2)
C9 C 0.4899(2) 0.1449(2) 0.7264(2)
C10 C 0.6005(2) 0.2696(2) 0.8181(2)
C11 C 0.9317(3) 0.6279(3) 0.6132(2)
C12 C 0.8210(3) 0.5040(4) 0.5210(3)
C13 C 0.7309(4) 0.4758(5) 0.3624(4)
C14 C 0.7559(5) 0.5720(7) 0.3070(3)
C15 C 0.8668(6) 0.6932(6) 0.3956(5)
C16 C 0.9555(4) 0.7216(4) 0.5500(4)
C17 C 0.2817(3) -0.0134(2) 0.4641(2)
C18 C 0.4695(3) 0.0451(2) 0.7974(2)
H1 H 0.9107 0.8231 0.8302
H2 H 1.0664 0.8668 0.9878
H3 H 0.5435 0.4071 0.5578
H4 H 0.3553 0.1923 0.3988
H5 H 0.6641 0.2907 0.9284
H6 H 0.8069 0.4371 0.5662
H7 H 0.6518 0.3875 0.2938
H8 H 0.8811 0.7587 0.3490
H9 H 1.0361 0.8093 0.6171
H10 H 0.7912 0.7982 1.0942
H11 H 0.9276 0.9153 1.1319
H12 H 0.7708 0.8728 0.9787
H13 H 1.0521 0.7372 1.1696
H14 H 0.8171 0.4834 0.9375
F4? F 0.6412(12) 0.5005(16) 0.1544(5)
loop_
_geom_bond_atom_site_label_1
_geom_bond_atom_site_label_2
_geom_bond_site_symmetry_1
_geom_bond_site_symmetry_2
S1 C1 1_555 1_555
F1 C18 1_555 1_555
F2 C18 1_555 1_555
F3 C18 1_555 1_555
F5 C14 1_555 1_555
O1 C2 1_555 1_555
O2 C4 1_555 1_555
N1 C4 1_555 1_555
N2 C17 1_555 1_555
C1 C2 1_555 1_555
C2 C3 1_555 1_555
C3 H10 1_555 1_555
C4 C2 1_555 1_555
C5 N1 1_555 1_555
C6 C5 1_555 1_555
C7 C6 1_555 1_555
C8 C7 1_555 1_555
C9 C8 1_555 1_555
C10 C5 1_555 1_555
C11 S1 1_555 1_555
C12 C11 1_555 1_555
C13 C12 1_555 1_555
C14 C13 1_555 1_555
C15 C14 1_555 1_555
C16 C11 1_555 1_555
C17 C8 1_555 1_555
C18 C9 1_555 1_555
H1 C1 1_555 1_555
H2 C1 1_555 1_555
H3 C6 1_555 1_555
H4 C7 1_555 1_555
H5 C10 1_555 1_555
H6 C12 1_555 1_555
H7 C13 1_555 1_555
H8 C15 1_555 1_555
H9 C16 1_555 1_555
H11 C3 1_555 1_555
H12 C3 1_555 1_555
H13 O1 1_555 1_555
H14 N1 1_555 1_555
C9 C10 1_555 1_555
C15 C16 1_555 1_555

#END
