
#######################################################################
#
#                 Cambridge Crystallographic Data Centre
#                                CCDC 
#
#######################################################################
#
# If this CIF has been generated from an entry in the Cambridge 
# Structural Database, then it will include bibliographic, chemical, 
# crystal, experimental, refinement or atomic coordinate data resulting 
# from the CCDC's data processing and validation procedures.
#
#######################################################################

data_YERZOL
_chemical_formula_moiety         'C18 H14 N4 O2,C2 H6 O1 S1'
_chemical_name_systematic        
"N,N'-Di-2-pyridylbenzene-1,3-dicarboxamide dimethyl sulfoxide solvate"
_symmetry_cell_setting           monoclinic
_symmetry_space_group_name_H-M   'P 21/n'
_symmetry_Int_Tables_number      14
_space_group_name_Hall           '-P 2yn'
loop_
_symmetry_equiv_pos_site_id
_symmetry_equiv_pos_as_xyz
1 x,y,z
2 1/2-x,1/2+y,1/2-z
3 -x,-y,-z
4 1/2+x,1/2-y,1/2+z
_cell_length_a                   10.4852(17)
_cell_length_b                   16.274(3)
_cell_length_c                   12.101(2)
_cell_angle_alpha                90
_cell_angle_beta                 104.921(3)
_cell_angle_gamma                90
_cell_volume                     1995.24
_exptl_crystal_colour            colorless
_exptl_crystal_description       block
_cell_formula_units_Z            4
loop_
_atom_site_label
_atom_site_type_symbol
_atom_site_fract_x
_atom_site_fract_y
_atom_site_fract_z
O1 O 1.26052(18) -0.09689(10) 0.69710(16)
O2 O 0.70398(18) -0.07877(11) 0.92410(17)
N1 N 1.13368(18) 0.01768(11) 0.65177(16)
H1 H 1.0677 0.0431 0.6659
N2 N 1.1305(2) 0.12392(12) 0.52971(18)
N3 N 0.73018(18) 0.02666(11) 0.80966(15)
H2 H 0.7819 0.0447 0.7703
N4 N 0.6081(2) 0.13795(13) 0.73469(18)
C1 C 1.1007(2) -0.07314(12) 0.80021(19)
C2 C 1.1674(2) -0.11796(14) 0.8962(2)
H3 H 1.2541 -0.1344 0.9033
C3 C 1.1060(3) -0.13794(14) 0.9802(2)
H4 H 1.1512 -0.1681 1.0435
C4 C 0.9780(3) -0.11354(13) 0.9711(2)
H5 H 0.9371 -0.1270 1.0285
C5 C 0.9094(2) -0.06874(12) 0.87611(19)
C6 C 0.9715(2) -0.04967(12) 0.7914(2)
H6 H 0.9256 -0.0205 0.7274
C7 C 1.1724(2) -0.05267(14) 0.7121(2)
C8 C 1.1891(2) 0.05334(14) 0.5694(2)
C9 C 1.2931(2) 0.02114(17) 0.5335(2)
H7 H 1.3305 -0.0290 0.5615
C10 C 1.3400(3) 0.0649(2) 0.4555(2)
H8 H 1.4102 0.0444 0.4300
C11 C 1.2841(3) 0.1382(2) 0.4151(2)
H9 H 1.3158 0.1691 0.3632
C12 C 1.1798(3) 0.16454(17) 0.4537(2)
H10 H 1.1402 0.2140 0.4254
C13 C 0.7718(2) -0.04168(14) 0.8729(2)
C14 C 0.6139(2) 0.07180(14) 0.80006(19)
C15 C 0.5168(3) 0.05268(16) 0.8547(2)
H11 H 0.5220 0.0052 0.8984
C16 C 0.4120(3) 0.1064(2) 0.8425(3)
H12 H 0.3459 0.0958 0.8792
C17 C 0.4057(3) 0.17505(19) 0.7764(3)
H13 H 0.3362 0.2120 0.7674
C18 C 0.5045(3) 0.18772(17) 0.7242(3)
H14 H 0.4995 0.2341 0.6783
S1 S 0.88030(6) 0.21222(4) 0.69602(6)
O3 O 0.92858(16) 0.12631(9) 0.72870(15)
C19 C 0.8019(3) 0.20987(17) 0.5494(2)
H15 H 0.8590 0.1842 0.5090
H16 H 0.7826 0.2650 0.5218
H17 H 0.7213 0.1791 0.5370
C20 C 1.0216(3) 0.27017(16) 0.6902(3)
H18 H 1.0782 0.2762 0.7659
H19 H 0.9947 0.3235 0.6587
H20 H 1.0684 0.2423 0.6428
loop_
_geom_bond_atom_site_label_1
_geom_bond_atom_site_label_2
_geom_bond_site_symmetry_1
_geom_bond_site_symmetry_2
O1 C7 1_555 1_555
O2 C13 1_555 1_555
N1 H1 1_555 1_555
N2 C8 1_555 1_555
N3 H2 1_555 1_555
N4 C14 1_555 1_555
C1 C2 1_555 1_555
C2 H3 1_555 1_555
C3 C2 1_555 1_555
H4 C3 1_555 1_555
C4 C3 1_555 1_555
H5 C4 1_555 1_555
C5 C4 1_555 1_555
C6 C1 1_555 1_555
H6 C6 1_555 1_555
C7 N1 1_555 1_555
C8 N1 1_555 1_555
C9 C8 1_555 1_555
H7 C9 1_555 1_555
C10 C9 1_555 1_555
H8 C10 1_555 1_555
C11 C10 1_555 1_555
H9 C11 1_555 1_555
C12 N2 1_555 1_555
H10 C12 1_555 1_555
C13 N3 1_555 1_555
C14 N3 1_555 1_555
C15 C14 1_555 1_555
H11 C15 1_555 1_555
C16 C15 1_555 1_555
H12 C16 1_555 1_555
C17 C16 1_555 1_555
H13 C17 1_555 1_555
C18 N4 1_555 1_555
H14 C18 1_555 1_555
S1 O3 1_555 1_555
C19 S1 1_555 1_555
H15 C19 1_555 1_555
H16 C19 1_555 1_555
H17 C19 1_555 1_555
C20 S1 1_555 1_555
H18 C20 1_555 1_555
H19 C20 1_555 1_555
H20 C20 1_555 1_555
C1 C7 1_555 1_555
C5 C6 1_555 1_555
C5 C13 1_555 1_555
C11 C12 1_555 1_555
C17 C18 1_555 1_555

#END
