
#######################################################################
#
#                 Cambridge Crystallographic Data Centre
#                                CCDC 
#
#######################################################################
#
# If this CIF has been generated from an entry in the Cambridge 
# Structural Database, then it will include bibliographic, chemical, 
# crystal, experimental, refinement or atomic coordinate data resulting 
# from the CCDC's data processing and validation procedures.
#
#######################################################################

data_YESBAA
_chemical_formula_moiety         'C18 H16 N4 O2 S1'
_chemical_name_systematic        
3-(2-Ethoxyphenyl)-6-(phenoxymethyl)-1,2,4-triazolo(3,4-b)(1,3,4)thiadiazole
_symmetry_cell_setting           monoclinic
_symmetry_space_group_name_H-M   'P 21/n'
_symmetry_Int_Tables_number      14
_space_group_name_Hall           '-P 2yn'
loop_
_symmetry_equiv_pos_site_id
_symmetry_equiv_pos_as_xyz
1 x,y,z
2 1/2-x,1/2+y,1/2-z
3 -x,-y,-z
4 1/2+x,1/2-y,1/2+z
_cell_length_a                   10.2328(9)
_cell_length_b                   8.4172(7)
_cell_length_c                   20.2015(18)
_cell_angle_alpha                90
_cell_angle_beta                 98.983(2)
_cell_angle_gamma                90
_cell_volume                     1718.64
_exptl_crystal_colour            colorless
_exptl_crystal_description       rod
_cell_formula_units_Z            4
_exptl_crystal_recrystallization_method ethanol
loop_
_atom_site_label
_atom_site_type_symbol
_atom_site_fract_x
_atom_site_fract_y
_atom_site_fract_z
S1 S 0.28418(6) 0.86320(8) 0.96466(3)
O1 O 0.01941(15) 0.7153(2) 0.93207(9)
O2 O 0.31279(17) 0.8281(2) 0.72068(8)
N1 N 0.29692(17) 0.7117(2) 0.85283(9)
N2 N 0.39933(16) 0.8193(2) 0.86444(9)
N3 N 0.51086(19) 1.0074(2) 0.92411(9)
N4 N 0.56927(18) 0.9748(2) 0.86721(9)
C1 C -0.1834(2) 0.7371(3) 0.97014(13)
H1 H -0.1553 0.8352 0.9882
C2 C -0.3073(3) 0.6809(4) 0.97608(14)
H2 H -0.3631 0.7411 0.9983
C3 C -0.3488(3) 0.5357(4) 0.94931(14)
H3 H -0.4330 0.4986 0.9529
C4 C -0.2658(2) 0.4458(4) 0.91719(13)
H4 H -0.2937 0.3472 0.8996
C5 C -0.1411(2) 0.5008(3) 0.91093(12)
H5 H -0.0850 0.4398 0.8892
C6 C -0.1007(2) 0.6468(3) 0.93715(11)
C7 C 0.1116(2) 0.6226(3) 0.90385(13)
H6 H 0.0737 0.5875 0.8592
H7 H 0.1366 0.5297 0.9314
C8 C 0.2294(2) 0.7254(3) 0.90088(11)
C9 C 0.4099(2) 0.9104(3) 0.92018(11)
C10 C 0.5014(2) 0.8629(3) 0.83197(11)
C11 C 0.5317(2) 0.7847(3) 0.77144(12)
C12 C 0.4314(3) 0.7590(3) 0.71684(12)
C13 C 0.4594(4) 0.6700(3) 0.66297(14)
H8 H 0.3932 0.6489 0.6270
C14 C 0.5865(4) 0.6125(4) 0.66298(18)
H9 H 0.6046 0.5513 0.6272
C15 C 0.6852(4) 0.6445(4) 0.71470(18)
H10 H 0.7708 0.6089 0.7133
C16 C 0.6579(3) 0.7295(3) 0.76898(14)
H11 H 0.7252 0.7502 0.8045
C17 C 0.1957(3) 0.7580(4) 0.68424(15)
H12 H 0.1960 0.6443 0.6921
H13 H 0.1926 0.7759 0.6366
C18 C 0.0788(3) 0.8315(4) 0.70721(18)
H14 H 0.0837 0.8152 0.7546
H15 H -0.0005 0.7835 0.6841
H16 H 0.0777 0.9434 0.6979
loop_
_geom_bond_atom_site_label_1
_geom_bond_atom_site_label_2
_geom_bond_site_symmetry_1
_geom_bond_site_symmetry_2
S1 C8 1_555 1_555
O1 C6 1_555 1_555
O2 C12 1_555 1_555
N1 N2 1_555 1_555
N2 C9 1_555 1_555
N3 N4 1_555 1_555
N4 C10 1_555 1_555
C1 H1 1_555 1_555
C2 C1 1_555 1_555
H2 C2 1_555 1_555
C3 C2 1_555 1_555
H3 C3 1_555 1_555
C4 C3 1_555 1_555
H4 C4 1_555 1_555
C5 C4 1_555 1_555
H5 C5 1_555 1_555
C6 C1 1_555 1_555
C7 O1 1_555 1_555
H6 C7 1_555 1_555
H7 C7 1_555 1_555
C8 N1 1_555 1_555
C9 S1 1_555 1_555
C10 N2 1_555 1_555
C11 C10 1_555 1_555
C12 C11 1_555 1_555
C13 C12 1_555 1_555
H8 C13 1_555 1_555
C14 C13 1_555 1_555
H9 C14 1_555 1_555
C15 C14 1_555 1_555
H10 C15 1_555 1_555
C16 C11 1_555 1_555
H11 C16 1_555 1_555
C17 O2 1_555 1_555
H12 C17 1_555 1_555
H13 C17 1_555 1_555
C18 C17 1_555 1_555
H14 C18 1_555 1_555
H15 C18 1_555 1_555
H16 C18 1_555 1_555
N3 C9 1_555 1_555
C5 C6 1_555 1_555
C7 C8 1_555 1_555
C15 C16 1_555 1_555

#END
