
#######################################################################
#
#                 Cambridge Crystallographic Data Centre
#                                CCDC 
#
#######################################################################
#
# If this CIF has been generated from an entry in the Cambridge 
# Structural Database, then it will include bibliographic, chemical, 
# crystal, experimental, refinement or atomic coordinate data resulting 
# from the CCDC's data processing and validation procedures.
#
#######################################################################

data_YESCEE
_chemical_formula_moiety         'C14 H10 N4 O2'
_chemical_name_systematic        6,9-Dicyano-1,8-dimethoxypyrido(3,2-c)azocine
_symmetry_cell_setting           monoclinic
_symmetry_space_group_name_H-M   'P 21/n'
_symmetry_Int_Tables_number      14
_space_group_name_Hall           '-P 2yn'
loop_
_symmetry_equiv_pos_site_id
_symmetry_equiv_pos_as_xyz
1 x,y,z
2 1/2-x,1/2+y,1/2-z
3 -x,-y,-z
4 1/2+x,1/2-y,1/2+z
_cell_length_a                   10.997(3)
_cell_length_b                   15.382(2)
_cell_length_c                   8.356(2)
_cell_angle_alpha                90
_cell_angle_beta                 103.80(1)
_cell_angle_gamma                90
_cell_volume                     1372.67
_exptl_crystal_colour            yellow
_cell_formula_units_Z            4
loop_
_atom_site_label
_atom_site_type_symbol
_atom_site_fract_x
_atom_site_fract_y
_atom_site_fract_z
O1 O 0.4982(2) 0.3979(2) -0.1941(3)
O2 O 0.3497(2) 0.1331(2) 0.2616(3)
N1 N 0.5231(2) 0.1859(2) 0.1829(3)
N2 N 0.6567(3) 0.4438(2) 0.0177(3)
N3 N 0.0992(3) 0.2733(3) 0.1308(6)
N4 N 0.7422(4) 0.0863(3) -0.0215(5)
C1 C 0.4056(3) 0.1948(2) 0.1918(4)
C2 C 0.3315(3) 0.2670(2) 0.1279(4)
C3 C 0.3846(3) 0.3330(2) 0.0552(4)
C4 C 0.5104(3) 0.3258(2) 0.0500(4)
C5 C 0.5744(3) 0.2515(2) 0.1136(4)
C6 C 0.7067(3) 0.2345(2) 0.1040(4)
C7 C 0.7985(3) 0.3702(3) 0.2459(5)
C8 C 0.7288(3) 0.4377(3) 0.1795(5)
C9 C 0.8048(3) 0.2862(3) 0.1690(5)
C10 C 0.5655(3) 0.3937(2) -0.0381(4)
C11 C 0.2015(3) 0.2702(3) 0.1315(5)
C12 C 0.4236(4) 0.0593(3) 0.3317(6)
C13 C 0.5423(4) 0.4570(3) -0.3037(4)
C14 C 0.7271(3) 0.1508(3) 0.0348(5)
H1 H 0.332(4) 0.388(3) 0.001(5)
H2 H 0.859(4) 0.380(3) 0.345(5)
H3 H 0.734(4) 0.495(3) 0.243(5)
H4 H 0.885(4) 0.267(3) 0.178(5)
H5 H 0.456(4) 0.029(3) 0.253(5)
H6 H 0.366(4) 0.026(3) 0.373(5)
H7 H 0.501(4) 0.075(3) 0.401(5)
H8 H 0.485(4) 0.452(3) -0.415(5)
H9 H 0.625(4) 0.450(3) -0.306(5)
H10 H 0.523(4) 0.517(3) -0.282(5)
loop_
_geom_bond_atom_site_label_1
_geom_bond_atom_site_label_2
_geom_bond_site_symmetry_1
_geom_bond_site_symmetry_2
O1 C10 1_555 1_555
O2 C1 1_555 1_555
N1 C1 1_555 1_555
N2 C8 1_555 1_555
N3 C11 1_555 1_555
N4 C14 1_555 1_555
C1 C2 1_555 1_555
C2 C3 1_555 1_555
C3 C4 1_555 1_555
C4 C5 1_555 1_555
C5 N1 1_555 1_555
C6 C5 1_555 1_555
C7 C8 1_555 1_555
C8 H3 1_555 1_555
C9 C6 1_555 1_555
C10 N2 1_555 1_555
C11 C2 1_555 1_555
C12 O2 1_555 1_555
C13 O1 1_555 1_555
C14 C6 1_555 1_555
H1 C3 1_555 1_555
H2 C7 1_555 1_555
H4 C9 1_555 1_555
H5 C12 1_555 1_555
H6 C12 1_555 1_555
H7 C12 1_555 1_555
H8 C13 1_555 1_555
H9 C13 1_555 1_555
H10 C13 1_555 1_555
C4 C10 1_555 1_555
C7 C9 1_555 1_555

#END
