
#######################################################################
#
#                 Cambridge Crystallographic Data Centre
#                                CCDC 
#
#######################################################################
#
# If this CIF has been generated from an entry in the Cambridge 
# Structural Database, then it will include bibliographic, chemical, 
# crystal, experimental, refinement or atomic coordinate data resulting 
# from the CCDC's data processing and validation procedures.
#
#######################################################################

data_YESDAB
_chemical_compound_source        'Lecanora pachysoma'
_chemical_formula_moiety         'C21 H15 Cl3 O9'
_chemical_name_systematic        'Demethylchodatin tri-O-acetate'
_symmetry_cell_setting           monoclinic
_symmetry_space_group_name_H-M   'P 21/a'
_symmetry_Int_Tables_number      14
_space_group_name_Hall           '-P 2yab'
loop_
_symmetry_equiv_pos_site_id
_symmetry_equiv_pos_as_xyz
1 x,y,z
2 1/2-x,1/2+y,-z
3 -x,-y,-z
4 1/2+x,1/2-y,z
_cell_length_a                   10.120(3)
_cell_length_b                   11.278(3)
_cell_length_c                   19.173(4)
_cell_angle_alpha                90
_cell_angle_beta                 94.68(3)
_cell_angle_gamma                90
_cell_volume                     2180.98
_exptl_crystal_colour            colorless
_chemical_melting_point          '235-240 deg.C'
_cell_formula_units_Z            4
loop_
_atom_site_label
_atom_site_type_symbol
_atom_site_fract_x
_atom_site_fract_y
_atom_site_fract_z
Cl1 Cl -0.4076(2) 0.0050(2) 0.5912(1)
Cl2 Cl 0.2395(2) 0.1036(2) 0.90653(9)
Cl3 Cl 0.2202(2) 0.5763(2) 0.8920(1)
O1 O 0.0181(4) 0.1107(4) 0.8055(2)
O2 O -0.3521(4) 0.2403(4) 0.6488(2)
O3 O -0.2201(6) 0.2865(5) 0.5648(3)
O4 O -0.2349(5) -0.1675(4) 0.6671(2)
O5 O -0.0694(5) -0.1661(5) 0.5965(3)
O6 O -0.0353(5) -0.1188(4) 0.7691(2)
O7 O 0.3316(4) 0.3479(4) 0.9343(2)
O8 O 0.2192(5) 0.3380(5) 1.0300(3)
O9 O -0.1894(5) 0.3918(4) 0.7199(3)
C1 C -0.2628(7) 0.1549(6) 0.6750(3)
C2 C -0.1570(7) 0.1851(5) 0.7241(3)
C3 C -0.2827(7) 0.0379(7) 0.6548(3)
C4 C -0.2044(7) -0.0518(6) 0.6856(4)
C5 C -0.1053(7) -0.0260(6) 0.7360(3)
C6 C -0.0827(7) 0.0921(6) 0.7541(3)
C7 C 0.1643(7) 0.2299(6) 0.8717(3)
C8 C 0.0562(7) 0.2247(6) 0.8229(3)
C9 C 0.2145(7) 0.3401(6) 0.8910(3)
C10 C 0.1517(7) 0.4411(6) 0.8635(3)
C11 C 0.0414(7) 0.4381(6) 0.8157(3)
C12 C -0.0081(6) 0.3248(6) 0.7947(3)
C13 C -0.1251(7) 0.3086(6) 0.7439(3)
C14 C -0.3183(9) 0.3039(7) 0.5921(4)
C15 C -0.4236(7) 0.3916(7) 0.5725(4)
C16 C -0.1610(8) -0.2170(7) 0.6166(4)
C17 C -0.2149(7) -0.3356(7) 0.5957(4)
C18 C 0.0948(9) -0.1255(6) 0.7587(4)
C19 C 0.3219(8) 0.3421(7) 1.0053(4)
C20 C 0.4577(7) 0.3420(7) 1.0421(3)
C21 C -0.0203(7) 0.5520(6) 0.7887(4)
H1 H -0.4332 0.4437 0.6107
H2 H -0.4003 0.4360 0.5332
H3 H -0.5050 0.3515 0.5609
H4 H -0.3042 -0.3276 0.5770
H5 H -0.1635 -0.3690 0.5614
H6 H -0.2114 -0.3861 0.6355
H7 H 0.1330 -0.1918 0.7833
H8 H 0.1047 -0.1343 0.7101
H9 H 0.1382 -0.0551 0.7753
H10 H 0.4512 0.3379 1.0912
H11 H 0.5056 0.2754 1.0274
H12 H 0.5026 0.4127 1.0311
H13 H 0.0429 0.5961 0.7654
H14 H -0.0947 0.5348 0.7568
H15 H -0.0481 0.5970 0.8267
loop_
_geom_bond_atom_site_label_1
_geom_bond_atom_site_label_2
_geom_bond_site_symmetry_1
_geom_bond_site_symmetry_2
Cl1 C3 1_555 1_555
Cl2 C7 1_555 1_555
Cl3 C10 1_555 1_555
O1 C6 1_555 1_555
O2 C1 1_555 1_555
O3 C14 1_555 1_555
O4 C4 1_555 1_555
O5 C16 1_555 1_555
O6 C5 1_555 1_555
O7 C9 1_555 1_555
O8 C19 1_555 1_555
O9 C13 1_555 1_555
C1 C2 1_555 1_555
C2 C6 1_555 1_555
C3 C1 1_555 1_555
C4 C3 1_555 1_555
C5 C4 1_555 1_555
C6 C5 1_555 1_555
C7 C8 1_555 1_555
C8 O1 1_555 1_555
C9 C7 1_555 1_555
C10 C9 1_555 1_555
C11 C10 1_555 1_555
C12 C8 1_555 1_555
C13 C2 1_555 1_555
C14 O2 1_555 1_555
C15 C14 1_555 1_555
C16 O4 1_555 1_555
C17 C16 1_555 1_555
C18 O6 1_555 1_555
C19 O7 1_555 1_555
C20 C19 1_555 1_555
C21 C11 1_555 1_555
H1 C15 1_555 1_555
H2 C15 1_555 1_555
H3 C15 1_555 1_555
H4 C17 1_555 1_555
H5 C17 1_555 1_555
H6 C17 1_555 1_555
H7 C18 1_555 1_555
H8 C18 1_555 1_555
H9 C18 1_555 1_555
H10 C20 1_555 1_555
H11 C20 1_555 1_555
H12 C20 1_555 1_555
H13 C21 1_555 1_555
H14 C21 1_555 1_555
H15 C21 1_555 1_555
C11 C12 1_555 1_555
C12 C13 1_555 1_555

#END
