
#######################################################################
#
#                 Cambridge Crystallographic Data Centre
#                                CCDC 
#
#######################################################################
#
# If this CIF has been generated from an entry in the Cambridge 
# Structural Database, then it will include bibliographic, chemical, 
# crystal, experimental, refinement or atomic coordinate data resulting 
# from the CCDC's data processing and validation procedures.
#
#######################################################################

data_YESFAD
_chemical_formula_moiety         'C5 H9 Cl2 O3 P1'
_chemical_name_systematic        
trans-2-Chloro-5-methyl-1,3,2-dioxaphosphorinane-r-5-methyl-chloride-2-oxide
_symmetry_cell_setting           orthorhombic
_symmetry_space_group_name_H-M   'P 21 21 21'
_symmetry_Int_Tables_number      19
_space_group_name_Hall           'P 2ac 2ab'
loop_
_symmetry_equiv_pos_site_id
_symmetry_equiv_pos_as_xyz
1 x,y,z
2 1/2+x,1/2-y,-z
3 -x,1/2+y,1/2-z
4 1/2-x,-y,1/2+z
_cell_length_a                   6.129(1)
_cell_length_b                   11.205(1)
_cell_length_c                   13.192(2)
_cell_angle_alpha                90
_cell_angle_beta                 90
_cell_angle_gamma                90
_cell_volume                     905.966
_exptl_crystal_colour            colorless
_cell_formula_units_Z            4
loop_
_atom_site_label
_atom_site_type_symbol
_atom_site_fract_x
_atom_site_fract_y
_atom_site_fract_z
Cl1 Cl 0.2083(3) 0.1840(1) 0.2017(1)
Cl2 Cl 0.0231(3) 0.6288(1) -0.0702(1)
P1 P -0.0047(2) 0.3180(1) 0.1814(1)
O1 O 0.1051(6) 0.4288(3) 0.2304(2)
O2 O -0.0059(6) 0.3416(3) 0.0656(2)
O3 O -0.2172(6) 0.2883(4) 0.2207(4)
C1 C 0.3010(8) 0.4806(4) 0.1828(4)
C2 C 0.2685(8) 0.5004(4) 0.0694(3)
C3 C 0.1935(9) 0.3887(4) 0.0192(3)
C4 C 0.4887(9) 0.5382(6) 0.0217(5)
C5 C 0.1007(9) 0.6024(4) 0.0588(4)
H1 H 0.3381 0.5582 0.2171
H2 H 0.4271 0.4239 0.1924
H3 H 0.3107 0.3287 0.0238
H4 H 0.1612 0.4059 -0.0550
H5 H 0.5931 0.4680 0.0289
H6 H 0.5507 0.6076 0.0583
H7 H 0.4717 0.5565 -0.0516
H8 H -0.0318 0.5810 0.1000
H9 H 0.1653 0.6780 0.0881
loop_
_geom_bond_atom_site_label_1
_geom_bond_atom_site_label_2
_geom_bond_site_symmetry_1
_geom_bond_site_symmetry_2
Cl1 P1 1_555 1_555
Cl2 C5 1_555 1_555
P1 O1 1_555 1_555
O1 C1 1_555 1_555
O2 P1 1_555 1_555
O3 P1 1_555 1_555
C1 C2 1_555 1_555
C2 C3 1_555 1_555
C3 O2 1_555 1_555
C4 C2 1_555 1_555
C5 C2 1_555 1_555
H1 C1 1_555 1_555
H2 C1 1_555 1_555
H3 C3 1_555 1_555
H4 C3 1_555 1_555
H5 C4 1_555 1_555
H6 C4 1_555 1_555
H7 C4 1_555 1_555
H8 C5 1_555 1_555
H9 C5 1_555 1_555

#END
