
#######################################################################
#
#                 Cambridge Crystallographic Data Centre
#                                CCDC 
#
#######################################################################
#
# If this CIF has been generated from an entry in the Cambridge 
# Structural Database, then it will include bibliographic, chemical, 
# crystal, experimental, refinement or atomic coordinate data resulting 
# from the CCDC's data processing and validation procedures.
#
#######################################################################

data_YESGAF
_chemical_formula_moiety         'C11 H18 N2 O2 S1'
_chemical_name_systematic        
4,4,5,5-Tetramethyl-2-(2-thienyl)imidazolidine-1,3-diol
_symmetry_cell_setting           monoclinic
_symmetry_space_group_name_H-M   'P 21/c'
_symmetry_Int_Tables_number      14
_space_group_name_Hall           '-P 2ybc'
loop_
_symmetry_equiv_pos_site_id
_symmetry_equiv_pos_as_xyz
1 x,y,z
2 -x,1/2+y,1/2-z
3 -x,-y,-z
4 x,1/2-y,1/2+z
_cell_length_a                   10.6715(9)
_cell_length_b                   13.7064(11)
_cell_length_c                   9.2785(8)
_cell_angle_alpha                90
_cell_angle_beta                 110.1760(10)
_cell_angle_gamma                90
_cell_volume                     1273.87
_exptl_crystal_colour            yellow
_exptl_crystal_description       slab
_cell_formula_units_Z            4
loop_
_atom_site_label
_atom_site_type_symbol
_atom_site_fract_x
_atom_site_fract_y
_atom_site_fract_z
S1 S 0.79592(10) 1.15443(6) 0.64106(12)
O1 O 0.5575(2) 0.89016(18) 0.5282(4)
H1 H 0.4916 0.9170 0.5367
O2 O 0.9693(2) 0.89813(18) 0.5590(4)
H2 H 1.0358 0.9288 0.5609
N1 N 0.6306(2) 0.9589(2) 0.4719(3)
N2 N 0.8514(2) 0.95361(19) 0.4780(3)
C1 C 0.8487(4) 1.1912(3) 0.8282(5)
H3 H 0.8614 1.2561 0.8587
C2 C 0.8696(4) 1.1167(4) 0.9256(5)
H4 H 0.8971 1.1243 1.0316
C3 C 0.8456(3) 1.0246(3) 0.8514(4)
H5 H 0.8559 0.9651 0.9024
C4 C 0.8051(3) 1.0345(2) 0.6939(3)
C5 C 0.7701(3) 0.9534(2) 0.5792(3)
H6 H 0.7830 0.8910 0.6341
C6 C 0.6351(4) 0.9355(4) 0.3147(4)
C7 C 0.7685(4) 0.8975(4) 0.3398(5)
C8 C 0.6409(7) 1.0443(4) 0.2388(5)
H7 H 0.7208 1.0776 0.2996
H8 H 0.5644 1.0819 0.2369
H9 H 0.6409 1.0365 0.1360
C9 C 0.5119(4) 0.8850(4) 0.2139(4)
H10 H 0.5172 0.8759 0.1136
H11 H 0.4351 0.9241 0.2060
H12 H 0.5042 0.8227 0.2574
C10 C 0.7575(7) 0.7819(3) 0.3834(6)
H13 H 0.6829 0.7736 0.4177
H14 H 0.8380 0.7627 0.4637
H15 H 0.7450 0.7422 0.2943
C11 C 0.8278(4) 0.8994(4) 0.2164(5)
H16 H 0.7653 0.8728 0.1238
H17 H 0.9081 0.8612 0.2473
H18 H 0.8484 0.9655 0.1985
loop_
_geom_bond_atom_site_label_1
_geom_bond_atom_site_label_2
_geom_bond_site_symmetry_1
_geom_bond_site_symmetry_2
S1 C1 1_555 1_555
O1 H1 1_555 1_555
O2 H2 1_555 1_555
N1 O1 1_555 1_555
N2 O2 1_555 1_555
C1 H3 1_555 1_555
C2 C1 1_555 1_555
H4 C2 1_555 1_555
C3 C2 1_555 1_555
H5 C3 1_555 1_555
C4 S1 1_555 1_555
C5 N1 1_555 1_555
H6 C5 1_555 1_555
C6 N1 1_555 1_555
C7 N2 1_555 1_555
C8 C6 1_555 1_555
H7 C8 1_555 1_555
H8 C8 1_555 1_555
H9 C8 1_555 1_555
C9 C6 1_555 1_555
H10 C9 1_555 1_555
H11 C9 1_555 1_555
H12 C9 1_555 1_555
C10 C7 1_555 1_555
H13 C10 1_555 1_555
H14 C10 1_555 1_555
H15 C10 1_555 1_555
C11 C7 1_555 1_555
H16 C11 1_555 1_555
H17 C11 1_555 1_555
H18 C11 1_555 1_555
N2 C5 1_555 1_555
C3 C4 1_555 1_555
C4 C5 1_555 1_555
C6 C7 1_555 1_555

#END
