
#######################################################################
#
#                 Cambridge Crystallographic Data Centre
#                                CCDC 
#
#######################################################################
#
# If this CIF has been generated from an entry in the Cambridge 
# Structural Database, then it will include bibliographic, chemical, 
# crystal, experimental, refinement or atomic coordinate data resulting 
# from the CCDC's data processing and validation procedures.
#
#######################################################################

data_YESJEM
_chemical_formula_moiety         'C24 H21 N3 O3'
_chemical_name_systematic        
N-(2,6-Dimethylphenyl)-2-(2-(3-phenyl-1,2,4-oxadiazol-5-yl)phenoxy)acetamide
_symmetry_cell_setting           monoclinic
_symmetry_space_group_name_H-M   'P 21/c'
_symmetry_Int_Tables_number      14
_space_group_name_Hall           '-P 2ybc'
loop_
_symmetry_equiv_pos_site_id
_symmetry_equiv_pos_as_xyz
1 x,y,z
2 -x,1/2+y,1/2-z
3 -x,-y,-z
4 x,1/2-y,1/2+z
_cell_length_a                   12.685(3)
_cell_length_b                   20.073(4)
_cell_length_c                   8.3090(17)
_cell_angle_alpha                90
_cell_angle_beta                 102.87(3)
_cell_angle_gamma                90
_cell_volume                     2062.54
_exptl_crystal_colour            colorless
_exptl_crystal_description       block
_cell_formula_units_Z            4
_exptl_crystal_recrystallization_method ethanol
loop_
_atom_site_label
_atom_site_type_symbol
_atom_site_fract_x
_atom_site_fract_y
_atom_site_fract_z
O1 O 0.4458(3) -0.02171(15) 0.1781(5)
O2 O 0.4765(2) 0.15165(14) 0.2083(4)
N1 N 0.2603(4) 0.32816(19) 0.3534(5)
N2 N 0.3344(3) 0.06194(16) 0.2132(4)
H1 H 0.3254 0.1044 0.2123
N3 N 0.3137(3) 0.22876(16) 0.2763(4)
O3 O 0.3643(3) 0.33285(14) 0.3182(4)
C1 C 0.3037(5) 0.0520(3) 0.5412(6)
H2 H 0.2812 0.0423 0.6416
H3 H 0.2973 0.0990 0.5197
H4 H 0.3776 0.0386 0.5521
C2 C 0.2021(4) -0.0064(2) -0.0643(6)
H5 H 0.1496 -0.0330 -0.1380
H6 H 0.2735 -0.0214 -0.0671
H7 H 0.1940 0.0394 -0.0980
C3 C 0.1849(4) -0.0129(2) 0.1089(6)
C4 C 0.2483(3) 0.02079(19) 0.2395(5)
C5 C 0.2330(4) 0.0147(2) 0.4002(6)
C6 C 0.1476(4) -0.0246(2) 0.4231(6)
H8 H 0.1339 -0.0281 0.5281
C7 C 0.0832(4) -0.0583(2) 0.2957(7)
H9 H 0.0275 -0.0852 0.3145
C8 C 0.1014(4) -0.0522(2) 0.1384(6)
H10 H 0.0570 -0.0748 0.0513
C9 C 0.4281(4) 0.0383(2) 0.1901(6)
C10 C 0.5120(4) 0.0880(2) 0.1717(7)
H11 H 0.5802 0.0773 0.2465
H12 H 0.5227 0.0871 0.0597
C11 C 0.5356(4) 0.2063(2) 0.1897(5)
C12 C 0.6332(4) 0.2042(2) 0.1433(6)
H13 H 0.6626 0.1635 0.1223
C13 C 0.6872(4) 0.2627(3) 0.1281(6)
H14 H 0.7524 0.2613 0.0948
C14 C 0.6459(5) 0.3229(3) 0.1613(6)
H15 H 0.6838 0.3620 0.1537
C15 C 0.5492(4) 0.3249(2) 0.2054(6)
H16 H 0.5205 0.3660 0.2249
C16 C 0.4921(3) 0.2675(2) 0.2223(5)
C17 C 0.3887(4) 0.27175(19) 0.2707(5)
C18 C 0.2356(4) 0.2655(2) 0.3269(5)
C19 C 0.1334(4) 0.2393(2) 0.3497(5)
C20 C 0.1080(4) 0.1724(2) 0.3200(6)
H17 H 0.1572 0.1442 0.2866
C21 C 0.0104(4) 0.1478(3) 0.3397(7)
H18 H -0.0059 0.1030 0.3203
C22 C -0.0619(5) 0.1887(3) 0.3873(7)
H19 H -0.1280 0.1718 0.3995
C23 C -0.0384(5) 0.2539(3) 0.4171(7)
H20 H -0.0881 0.2816 0.4509
C24 C 0.0581(4) 0.2791(2) 0.3975(6)
H21 H 0.0730 0.3241 0.4171
loop_
_geom_bond_atom_site_label_1
_geom_bond_atom_site_label_2
_geom_bond_site_symmetry_1
_geom_bond_site_symmetry_2
O1 C9 1_555 1_555
O2 C10 1_555 1_555
N1 O3 1_555 1_555
N2 H1 1_555 1_555
N3 C17 1_555 1_555
O3 C17 1_555 1_555
C1 H2 1_555 1_555
H3 C1 1_555 1_555
H4 C1 1_555 1_555
C2 H5 1_555 1_555
H6 C2 1_555 1_555
H7 C2 1_555 1_555
C3 C2 1_555 1_555
C4 N2 1_555 1_555
C5 C1 1_555 1_555
C6 C5 1_555 1_555
H8 C6 1_555 1_555
C7 C6 1_555 1_555
H9 C7 1_555 1_555
C8 C3 1_555 1_555
H10 C8 1_555 1_555
C9 N2 1_555 1_555
C10 C9 1_555 1_555
H11 C10 1_555 1_555
H12 C10 1_555 1_555
C11 O2 1_555 1_555
C12 C11 1_555 1_555
H13 C12 1_555 1_555
C13 C12 1_555 1_555
H14 C13 1_555 1_555
C14 C13 1_555 1_555
H15 C14 1_555 1_555
C15 C14 1_555 1_555
H16 C15 1_555 1_555
C16 C11 1_555 1_555
C17 C16 1_555 1_555
C18 N1 1_555 1_555
C19 C18 1_555 1_555
C20 C19 1_555 1_555
H17 C20 1_555 1_555
C21 C20 1_555 1_555
H18 C21 1_555 1_555
C22 C21 1_555 1_555
H19 C22 1_555 1_555
C23 C22 1_555 1_555
H20 C23 1_555 1_555
C24 C19 1_555 1_555
H21 C24 1_555 1_555
N3 C18 1_555 1_555
C3 C4 1_555 1_555
C4 C5 1_555 1_555
C7 C8 1_555 1_555
C15 C16 1_555 1_555
C23 C24 1_555 1_555

#END
