
#######################################################################
#
#                 Cambridge Crystallographic Data Centre
#                                CCDC 
#
#######################################################################
#
# If this CIF has been generated from an entry in the Cambridge 
# Structural Database, then it will include bibliographic, chemical, 
# crystal, experimental, refinement or atomic coordinate data resulting 
# from the CCDC's data processing and validation procedures.
#
#######################################################################

data_YESMAL
_chemical_compound_source        
'rhizomes of Actaea asiatica Hara (Ranunculaceae)'
_chemical_name_common            
'(23R,24S)-16(b),23:16(a),24-Diepoxy-15(a),25-dihydroxy-9,19-cyclolanostane-3-O-beta-D-xylopyranoside methanol solvate'
_chemical_formula_moiety         'C35 H56 O9,C1 H4 O1'
_chemical_name_systematic        
'Cimigenol-3-O-\b-D-xylopyranoside methanol solvate'
_chemical_properties_biological  
'rhizomes of source plant used in Chinese folk medicine to treat headache, sore throat, measles, pertussis and prolapse of uterus'
_symmetry_cell_setting           monoclinic
_symmetry_space_group_name_H-M   'P 21'
_symmetry_Int_Tables_number      4
_space_group_name_Hall           'P 2yb'
loop_
_symmetry_equiv_pos_site_id
_symmetry_equiv_pos_as_xyz
1 x,y,z
2 -x,1/2+y,-z
_cell_length_a                   14.500(3)
_cell_length_b                   6.9301(14)
_cell_length_c                   17.267(4)
_cell_angle_alpha                90
_cell_angle_beta                 93.352(4)
_cell_angle_gamma                90
_cell_volume                     1732.13
_exptl_crystal_colour            colorless
_exptl_crystal_description       block
_chemical_melting_point          268deg.C
_cell_formula_units_Z            2
loop_
_atom_site_label
_atom_site_type_symbol
_atom_site_fract_x
_atom_site_fract_y
_atom_site_fract_z
O1 O 0.0685(2) 0.6504(5) 0.77002(19)
O2 O 0.2307(3) 1.2168(6) 0.2991(2)
H1 H 0.2125 1.1787 0.2559
O3 O 0.4451(2) 1.2107(5) 0.2602(2)
O4 O 0.3335(2) 1.0563(5) 0.18862(18)
O5 O 0.2841(3) 1.2263(6) 0.0432(2)
H2 H 0.2644 1.3112 0.0136
O6 O -0.1036(3) 0.7206(6) 0.8355(2)
H3 H -0.1040 0.8097 0.8667
O7 O -0.1433(3) 0.4648(7) 0.9613(2)
H4 H -0.1943 0.5077 0.9473
O8 O -0.0860(3) 0.0677(6) 0.9306(2)
H5 H -0.1194 0.0849 0.9667
O9 O 0.0770(2) 0.3564(6) 0.8289(2)
C1 C 0.2000(4) 0.5072(8) 0.5946(3)
H6 H 0.2568 0.4350 0.5903
H7 H 0.1510 0.4409 0.5645
C2 C 0.1760(5) 0.5181(8) 0.6801(3)
H8 H 0.1672 0.3887 0.6998
H9 H 0.2270 0.5767 0.7106
C3 C 0.0888(4) 0.6356(7) 0.6891(3)
H10 H 0.0372 0.5691 0.6612
C4 C 0.0950(3) 0.8417(7) 0.6561(3)
C5 C 0.1231(3) 0.8227(7) 0.5704(3)
H11 H 0.0746 0.7436 0.5445
C6 C 0.1207(4) 1.0126(8) 0.5261(3)
H12 H 0.1626 1.1040 0.5522
H13 H 0.0589 1.0663 0.5250
C7 C 0.1492(3) 0.9800(9) 0.4428(3)
H14 H 0.1123 0.8772 0.4187
H15 H 0.1384 1.0966 0.4125
C8 C 0.2510(3) 0.9263(7) 0.4443(3)
H16 H 0.2841 1.0338 0.4702
C9 C 0.2731(3) 0.7465(7) 0.4956(3)
C10 C 0.2114(3) 0.7093(7) 0.5631(3)
C11 C 0.3121(3) 0.5708(8) 0.4537(3)
H17 H 0.2607 0.5017 0.4281
H18 H 0.3404 0.4852 0.4927
C12 C 0.3836(4) 0.6122(8) 0.3930(3)
H19 H 0.4439 0.5692 0.4134
H20 H 0.3675 0.5376 0.3466
C13 C 0.3897(3) 0.8272(7) 0.3707(3)
C14 C 0.2901(3) 0.9103(7) 0.3637(3)
C15 C 0.3080(3) 1.1068(7) 0.3262(3)
H21 H 0.3409 1.1850 0.3662
C16 C 0.3780(3) 1.0627(7) 0.2652(3)
C17 C 0.4242(3) 0.8698(8) 0.2888(3)
H22 H 0.3990 0.7700 0.2533
C18 C 0.4522(3) 0.9282(9) 0.4338(3)
H23 H 0.4251 0.9172 0.4830
H24 H 0.4585 1.0620 0.4208
H25 H 0.5120 0.8682 0.4368
C19 C 0.3063(3) 0.7942(8) 0.5770(3)
H26 H 0.3106 0.9294 0.5913
H27 H 0.3539 0.7127 0.6016
C20 C 0.5298(3) 0.8809(9) 0.2797(3)
H28 H 0.5565 0.9625 0.3217
C21 C 0.5783(4) 0.6852(10) 0.2857(4)
H29 H 0.5457 0.5943 0.2523
H30 H 0.5792 0.6401 0.3383
H31 H 0.6406 0.6984 0.2702
C22 C 0.5470(4) 0.9815(10) 0.2023(3)
H32 H 0.6115 1.0190 0.2021
H33 H 0.5344 0.8915 0.1600
C23 C 0.4865(3) 1.1594(9) 0.1895(3)
H34 H 0.5223 1.2674 0.1703
C24 C 0.4000(3) 1.1200(8) 0.1351(3)
H35 H 0.4131 1.0142 0.0998
C25 C 0.3637(3) 1.2957(8) 0.0876(3)
C26 C 0.4351(4) 1.3507(11) 0.0298(4)
H36 H 0.4551 1.2368 0.0039
H37 H 0.4873 1.4106 0.0570
H38 H 0.4080 1.4392 -0.0077
C27 C 0.3366(4) 1.4641(9) 0.1355(4)
H39 H 0.3161 1.5679 0.1020
H40 H 0.3889 1.5057 0.1680
H41 H 0.2875 1.4268 0.1673
C28 C 0.2263(3) 0.7921(8) 0.3082(3)
H42 H 0.2151 0.6684 0.3309
H43 H 0.2551 0.7745 0.2600
H44 H 0.1688 0.8591 0.2989
C29 C 0.1653(4) 0.9595(8) 0.7060(3)
H45 H 0.1733 1.0835 0.6827
H46 H 0.2234 0.8926 0.7098
H47 H 0.1432 0.9760 0.7570
C30 C -0.0014(4) 0.9357(9) 0.6572(3)
H48 H -0.0252 0.9186 0.7075
H49 H -0.0424 0.8758 0.6187
H50 H 0.0033 1.0709 0.6462
C31 C 0.0157(3) 0.5048(7) 0.7985(3)
H51 H -0.0253 0.4519 0.7567
C32 C -0.0412(3) 0.5761(7) 0.8640(3)
H52 H -0.0001 0.6297 0.9056
C33 C -0.0960(3) 0.4079(8) 0.8955(3)
H53 H -0.1417 0.3655 0.8550
C34 C -0.0343(3) 0.2387(8) 0.9182(3)
H54 H 0.0033 0.2705 0.9655
C35 C 0.0280(4) 0.1894(8) 0.8546(4)
H55 H 0.0722 0.0924 0.8731
H56 H -0.0086 0.1352 0.8111
O10 O 0.7960(3) 0.0174(9) 0.0551(3)
H57 H 0.8335 -0.0306 0.0896
C36 C 0.7549(9) 0.1927(18) 0.0845(8)
H58 H 0.7459 0.1779 0.1389
H59 H 0.6964 0.2157 0.0571
H60 H 0.7953 0.3000 0.0770
O11? O 0.6922(8) 0.335(2) 0.0543(8)
H61? H 0.7417 0.3130 0.0354
C37? C 0.7061(14) 0.464(3) 0.1179(10)
H62? H 0.7699 0.5021 0.1227
H63? H 0.6900 0.4010 0.1647
H64? H 0.6680 0.5760 0.1091
loop_
_geom_bond_atom_site_label_1
_geom_bond_atom_site_label_2
_geom_bond_site_symmetry_1
_geom_bond_site_symmetry_2
O1 C3 1_555 1_555
O2 H1 1_555 1_555
O3 C16 1_555 1_555
O4 C16 1_555 1_555
O5 H2 1_555 1_555
O6 H3 1_555 1_555
O7 H4 1_555 1_555
O8 H5 1_555 1_555
O9 C31 1_555 1_555
C1 H6 1_555 1_555
H7 C1 1_555 1_555
C2 C1 1_555 1_555
H8 C2 1_555 1_555
H9 C2 1_555 1_555
C3 C2 1_555 1_555
H10 C3 1_555 1_555
C4 C3 1_555 1_555
C5 C4 1_555 1_555
H11 C5 1_555 1_555
C6 C5 1_555 1_555
H12 C6 1_555 1_555
H13 C6 1_555 1_555
C7 C6 1_555 1_555
H14 C7 1_555 1_555
H15 C7 1_555 1_555
C8 C7 1_555 1_555
H16 C8 1_555 1_555
C9 C8 1_555 1_555
C10 C1 1_555 1_555
C11 C9 1_555 1_555
H17 C11 1_555 1_555
H18 C11 1_555 1_555
C12 C11 1_555 1_555
H19 C12 1_555 1_555
H20 C12 1_555 1_555
C13 C12 1_555 1_555
C14 C8 1_555 1_555
C15 O2 1_555 1_555
H21 C15 1_555 1_555
C16 C15 1_555 1_555
C17 C13 1_555 1_555
H22 C17 1_555 1_555
C18 C13 1_555 1_555
H23 C18 1_555 1_555
H24 C18 1_555 1_555
H25 C18 1_555 1_555
C19 C9 1_555 1_555
H26 C19 1_555 1_555
H27 C19 1_555 1_555
C20 C17 1_555 1_555
H28 C20 1_555 1_555
C21 C20 1_555 1_555
H29 C21 1_555 1_555
H30 C21 1_555 1_555
H31 C21 1_555 1_555
C22 C20 1_555 1_555
H32 C22 1_555 1_555
H33 C22 1_555 1_555
C23 O3 1_555 1_555
H34 C23 1_555 1_555
C24 O4 1_555 1_555
H35 C24 1_555 1_555
C25 O5 1_555 1_555
C26 C25 1_555 1_555
H36 C26 1_555 1_555
H37 C26 1_555 1_555
H38 C26 1_555 1_555
C27 C25 1_555 1_555
H39 C27 1_555 1_555
H40 C27 1_555 1_555
H41 C27 1_555 1_555
C28 C14 1_555 1_555
H42 C28 1_555 1_555
H43 C28 1_555 1_555
H44 C28 1_555 1_555
C29 C4 1_555 1_555
H45 C29 1_555 1_555
H46 C29 1_555 1_555
H47 C29 1_555 1_555
C30 C4 1_555 1_555
H48 C30 1_555 1_555
H49 C30 1_555 1_555
H50 C30 1_555 1_555
C31 O1 1_555 1_555
H51 C31 1_555 1_555
C32 O6 1_555 1_555
H52 C32 1_555 1_555
C33 O7 1_555 1_555
H53 C33 1_555 1_555
C34 O8 1_555 1_555
H54 C34 1_555 1_555
C35 O9 1_555 1_555
H55 C35 1_555 1_555
H56 C35 1_555 1_555
O10 H57 1_555 1_555
C36 O10 1_555 1_555
H58 C36 1_555 1_555
H59 C36 1_555 1_555
H60 C36 1_555 1_555
C5 C10 1_555 1_555
C9 C10 1_555 1_555
C10 C19 1_555 1_555
C13 C14 1_555 1_555
C14 C15 1_555 1_555
C16 C17 1_555 1_555
C22 C23 1_555 1_555
C23 C24 1_555 1_555
C24 C25 1_555 1_555
C31 C32 1_555 1_555
C32 C33 1_555 1_555
C33 C34 1_555 1_555
C34 C35 1_555 1_555

#END
