
#######################################################################
#
#                 Cambridge Crystallographic Data Centre
#                                CCDC 
#
#######################################################################
#
# If this CIF has been generated from an entry in the Cambridge 
# Structural Database, then it will include bibliographic, chemical, 
# crystal, experimental, refinement or atomic coordinate data resulting 
# from the CCDC's data processing and validation procedures.
#
#######################################################################

data_YESNUI
_chemical_formula_moiety         'C21 H30 O5 Si1'
_chemical_name_systematic        
'(3aR,4S,5R,6aS)-4-({[t-butyl(dimethyl)silyl]oxy}methyl)-2-oxohexahydro-2H-cyclopenta[b]furan-5-yl benzoate'
_symmetry_cell_setting           orthorhombic
_symmetry_space_group_name_H-M   'P 21 21 21'
_symmetry_Int_Tables_number      19
_space_group_name_Hall           'P 2ac 2ab'
loop_
_symmetry_equiv_pos_site_id
_symmetry_equiv_pos_as_xyz
1 x,y,z
2 1/2-x,-y,1/2+z
3 -x,1/2+y,1/2-z
4 1/2+x,1/2-y,-z
_cell_length_a                   8.5017(6)
_cell_length_b                   11.4370(7)
_cell_length_c                   22.2285(12)
_cell_angle_alpha                90
_cell_angle_beta                 90
_cell_angle_gamma                90
_cell_volume                     2161.36
_exptl_crystal_colour            colorless
_exptl_crystal_description       block
_cell_formula_units_Z            4
loop_
_atom_site_label
_atom_site_type_symbol
_atom_site_fract_x
_atom_site_fract_y
_atom_site_fract_z
C1 C 0.0122(6) 1.1086(3) 0.72001(18)
C2 C 0.1357(6) 1.0178(4) 0.72813(16)
H1 H 0.2261 1.0347 0.7029
H2 H 0.0952 0.9413 0.7175
C3 C 0.1819(4) 1.0215(3) 0.79473(15)
H3 H 0.2963 1.0274 0.7992
C4 C 0.1008(5) 1.1332(3) 0.81780(17)
H4 H 0.1779 1.1914 0.8311
C5 C -0.0063(5) 1.0966(3) 0.86881(16)
H5 H 0.0437 1.1109 0.9074
H6 H -0.1045 1.1396 0.8673
C6 C -0.0349(4) 0.9678(3) 0.85986(15)
H7 H -0.0605 0.9288 0.8979
C7 C 0.1169(4) 0.9202(3) 0.83271(15)
H8 H 0.0906 0.8552 0.8058
C8 C -0.2490(5) 0.8581(3) 0.81921(18)
C9 C -0.3591(5) 0.8449(3) 0.76816(17)
C10 C -0.4689(5) 0.7557(4) 0.7699(2)
H9 H -0.4730 0.7065 0.8032
C11 C -0.5725(5) 0.7387(4) 0.7228(3)
H10 H -0.6471 0.6794 0.7246
C12 C -0.5645(6) 0.8099(5) 0.6735(2)
H11 H -0.6335 0.7985 0.6415
C13 C -0.4552(6) 0.8981(5) 0.6708(2)
H12 H -0.4500 0.9458 0.6370
C14 C -0.3527(5) 0.9163(4) 0.71816(17)
H13 H -0.2794 0.9766 0.7163
C15 C 0.2303(5) 0.8763(3) 0.88019(16)
H14 H 0.1801 0.8152 0.9036
H15 H 0.3220 0.8429 0.8607
C16 C 0.4945(5) 1.0699(3) 0.99722(16)
C17 C 0.5536(8) 1.0765(6) 1.0623(2)
H16 H 0.6088 1.0058 1.0722
H17 H 0.4657 1.0859 1.0890
H18 H 0.6233 1.1420 1.0666
C18 C 0.4219(7) 1.1878(4) 0.9822(2)
H19 H 0.4993 1.2481 0.9872
H20 H 0.3347 1.2024 1.0087
H21 H 0.3857 1.1873 0.9413
C19 C 0.6300(6) 1.0494(5) 0.9540(3)
H22 H 0.5899 1.0412 0.9139
H23 H 0.6850 0.9794 0.9653
H24 H 0.7010 1.1146 0.9556
C20 C 0.1779(6) 0.9726(4) 1.0409(2)
H25 H 0.1418 1.0520 1.0386
H26 H 0.2122 0.9560 1.0811
H27 H 0.0936 0.9207 1.0302
C21 C 0.4303(6) 0.8051(4) 0.9990(2)
H28 H 0.3511 0.7467 0.9926
H29 H 0.4703 0.7987 1.0393
H30 H 0.5146 0.7939 0.9708
O1 O 0.0048(4) 1.1778(2) 0.76851(12)
O2 O -0.0718(4) 1.1252(3) 0.67801(14)
O3 O -0.1612(3) 0.9548(2) 0.81594(10)
O4 O -0.2388(4) 0.7890(3) 0.85975(14)
O5 O 0.2783(3) 0.9675(2) 0.91904(11)
Si1 Si 0.34377(13) 0.95170(9) 0.98809(4)
loop_
_geom_bond_atom_site_label_1
_geom_bond_atom_site_label_2
_geom_bond_site_symmetry_1
_geom_bond_site_symmetry_2
C1 C2 1_555 1_555
C2 H1 1_555 1_555
H2 C2 1_555 1_555
C3 C2 1_555 1_555
H3 C3 1_555 1_555
C4 C3 1_555 1_555
H4 C4 1_555 1_555
C5 C4 1_555 1_555
H5 C5 1_555 1_555
H6 C5 1_555 1_555
C6 C5 1_555 1_555
H7 C6 1_555 1_555
C7 C3 1_555 1_555
H8 C7 1_555 1_555
C8 C9 1_555 1_555
C9 C10 1_555 1_555
C10 H9 1_555 1_555
C11 C10 1_555 1_555
H10 C11 1_555 1_555
C12 C11 1_555 1_555
H11 C12 1_555 1_555
C13 C12 1_555 1_555
H12 C13 1_555 1_555
C14 C9 1_555 1_555
H13 C14 1_555 1_555
C15 C7 1_555 1_555
H14 C15 1_555 1_555
H15 C15 1_555 1_555
C16 C17 1_555 1_555
C17 H16 1_555 1_555
H17 C17 1_555 1_555
H18 C17 1_555 1_555
C18 C16 1_555 1_555
H19 C18 1_555 1_555
H20 C18 1_555 1_555
H21 C18 1_555 1_555
C19 C16 1_555 1_555
H22 C19 1_555 1_555
H23 C19 1_555 1_555
H24 C19 1_555 1_555
C20 H25 1_555 1_555
H26 C20 1_555 1_555
H27 C20 1_555 1_555
C21 H28 1_555 1_555
H29 C21 1_555 1_555
H30 C21 1_555 1_555
O1 C1 1_555 1_555
O2 C1 1_555 1_555
O3 C6 1_555 1_555
O4 C8 1_555 1_555
O5 C15 1_555 1_555
Si1 C16 1_555 1_555
C4 O1 1_555 1_555
C6 C7 1_555 1_555
C8 O3 1_555 1_555
C13 C14 1_555 1_555
C20 Si1 1_555 1_555
C21 Si1 1_555 1_555
O5 Si1 1_555 1_555

#END
