
#######################################################################
#
#                 Cambridge Crystallographic Data Centre
#                                CCDC 
#
#######################################################################
#
# If this CIF has been generated from an entry in the Cambridge 
# Structural Database, then it will include bibliographic, chemical, 
# crystal, experimental, refinement or atomic coordinate data resulting 
# from the CCDC's data processing and validation procedures.
#
#######################################################################

data_YESNOC
_chemical_name_common            
(3aR,4R,5R,6aS)-5-benzoyloxy-4-(hydroxymethyl)hexahydro-2H-cyclopenta[b]furan-2-one
_chemical_formula_moiety         'C15 H16 O5'
_chemical_name_systematic        
'4-(hydroxymethyl)-2-oxohexahydro-2H-cyclopenta[b]furan-5-yl benzoate'
_symmetry_cell_setting           monoclinic
_symmetry_space_group_name_H-M   'P 21'
_symmetry_Int_Tables_number      4
_space_group_name_Hall           'P 2yb'
loop_
_symmetry_equiv_pos_site_id
_symmetry_equiv_pos_as_xyz
1 x,y,z
2 -x,1/2+y,-z
_cell_length_a                   7.9178(8)
_cell_length_b                   10.8496(12)
_cell_length_c                   7.9804(8)
_cell_angle_alpha                90
_cell_angle_beta                 95.491(3)
_cell_angle_gamma                90
_cell_volume                     682.41
_exptl_crystal_colour            colorless
_exptl_crystal_description       column
_cell_formula_units_Z            2
loop_
_atom_site_label
_atom_site_type_symbol
_atom_site_fract_x
_atom_site_fract_y
_atom_site_fract_z
C1 C 0.5095(8) 0.6043(7) 1.0439(7)
C2 C 0.4464(7) 0.6652(6) 1.1919(8)
H1 H 0.4500 0.7541 1.1804
H2 H 0.5144 0.6417 1.2945
C3 C 0.2643(6) 0.6209(6) 1.1951(7)
H3 H 0.2479 0.5872 1.3064
C4 C 0.2439(7) 0.5186(6) 1.0629(8)
H4 H 0.2291 0.4381 1.1151
C5 C 0.0916(7) 0.5519(6) 0.9422(8)
H5 H -0.0092 0.5097 0.9722
H6 H 0.1107 0.5299 0.8277
C6 C 0.0728(7) 0.6900(5) 0.9594(7)
H7 H -0.0433 0.7175 0.9253
C7 C 0.1250(7) 0.7166(5) 1.1432(7)
H8 H 0.1719 0.8000 1.1558
C8 C 0.1402(8) 0.8206(6) 0.7337(7)
C9 C 0.2763(8) 0.8635(5) 0.6314(7)
C10 C 0.4409(8) 0.8218(6) 0.6569(7)
H9 H 0.4715 0.7656 0.7425
C11 C 0.5605(9) 0.8635(6) 0.5553(9)
H10 H 0.6718 0.8354 0.5729
C12 C 0.5163(11) 0.9458(7) 0.4291(9)
H11 H 0.5973 0.9728 0.3603
C13 C 0.3527(11) 0.9885(7) 0.4035(8)
H12 H 0.3235 1.0453 0.3183
C14 C 0.2318(9) 0.9479(6) 0.5033(8)
H13 H 0.1209 0.9766 0.4853
C15 C -0.0224(7) 0.7020(6) 1.2511(8)
H14 H -0.0653 0.6183 1.2395
H15 H 0.0189 0.7144 1.3682
O1 O 0.3985(5) 0.5218(5) 0.9757(5)
O2 O 0.6436(5) 0.6212(6) 0.9878(6)
O3 O 0.1954(5) 0.7476(4) 0.8590(5)
O4 O -0.0046(6) 0.8488(6) 0.7054(7)
O5 O -0.1562(6) 0.7842(5) 1.2084(8)
H16 H -0.221(8) 0.746(7) 1.135(8)
loop_
_geom_bond_atom_site_label_1
_geom_bond_atom_site_label_2
_geom_bond_site_symmetry_1
_geom_bond_site_symmetry_2
C1 C2 1_555 1_555
C2 H1 1_555 1_555
H2 C2 1_555 1_555
C3 C2 1_555 1_555
H3 C3 1_555 1_555
C4 C3 1_555 1_555
H4 C4 1_555 1_555
C5 C4 1_555 1_555
H5 C5 1_555 1_555
H6 C5 1_555 1_555
C6 C5 1_555 1_555
H7 C6 1_555 1_555
C7 C3 1_555 1_555
H8 C7 1_555 1_555
C8 C9 1_555 1_555
C9 C10 1_555 1_555
C10 H9 1_555 1_555
C11 C10 1_555 1_555
H10 C11 1_555 1_555
C12 C11 1_555 1_555
H11 C12 1_555 1_555
C13 C12 1_555 1_555
H12 C13 1_555 1_555
C14 C9 1_555 1_555
H13 C14 1_555 1_555
C15 C7 1_555 1_555
H14 C15 1_555 1_555
H15 C15 1_555 1_555
O1 C1 1_555 1_555
O2 C1 1_555 1_555
O3 C6 1_555 1_555
O4 C8 1_555 1_555
O5 C15 1_555 1_555
H16 O5 1_555 1_555
C4 O1 1_555 1_555
C6 C7 1_555 1_555
C8 O3 1_555 1_555
C13 C14 1_555 1_555

#END
