
#######################################################################
#
#                 Cambridge Crystallographic Data Centre
#                                CCDC 
#
#######################################################################
#
# If this CIF has been generated from an entry in the Cambridge 
# Structural Database, then it will include bibliographic, chemical, 
# crystal, experimental, refinement or atomic coordinate data resulting 
# from the CCDC's data processing and validation procedures.
#
#######################################################################

data_YESPER
_chemical_formula_moiety         'C12 H15 N1 O2 S1'
_chemical_name_systematic        
'5,5-Dimethyl-2-phenylthiazolidine-4-carboxylic acid'
_symmetry_cell_setting           monoclinic
_symmetry_space_group_name_H-M   'P 21'
_symmetry_Int_Tables_number      4
_space_group_name_Hall           'P 2yb'
loop_
_symmetry_equiv_pos_site_id
_symmetry_equiv_pos_as_xyz
1 x,y,z
2 -x,1/2+y,-z
_cell_length_a                   9.785(2)
_cell_length_b                   6.941(1)
_cell_length_c                   10.399(2)
_cell_angle_alpha                90
_cell_angle_beta                 114.06(3)
_cell_angle_gamma                90
_cell_volume                     644.914
_exptl_crystal_colour            colorless
_chemical_melting_point          145-146deg.C
_cell_formula_units_Z            2
loop_
_atom_site_label
_atom_site_type_symbol
_atom_site_fract_x
_atom_site_fract_y
_atom_site_fract_z
S1 S 0.9403(1) 0.0000 0.8649(1)
C1 C 0.7751(4) -0.1396(7) 0.8502(4)
N1 N 0.6455(4) -0.0606(6) 0.7298(3)
C2 C 0.6963(4) 0.0237(7) 0.6279(4)
C3 C 0.8433(5) 0.1378(8) 0.7031(5)
C4 C 0.5685(5) 0.1420(7) 0.5272(4)
O1 O 0.5817(3) 0.1948(5) 0.4122(3)
O2 O 0.4631(4) 0.1836(7) 0.5530(4)
C5 C 0.9341(5) 0.1451(10) 0.6171(6)
C6 C 0.8103(7) 0.3418(8) 0.7402(6)
C7 C 0.7409(5) -0.1408(8) 0.9794(4)
C8 C 0.6835(5) -0.3047(10) 1.0101(5)
C9 C 0.6434(6) -0.3028(13) 1.1257(7)
C10 C 0.6611(7) -0.1472(13) 1.2067(6)
C11 C 0.7199(6) 0.0111(13) 1.1752(5)
C12 C 0.7623(5) 0.0208(9) 1.0642(5)
H1 H 0.500 0.302 0.360
H2 H 0.789 -0.271 0.828
H3 H 0.625 0.054 0.783
H4 H 0.715 -0.080 0.577
H5 H 0.670 -0.419 0.954
H6 H 0.602 -0.417 1.148
H7 H 0.632 -0.148 1.284
H8 H 0.734 0.123 1.233
H9 H 0.805 0.136 1.045
H10 H 0.881 0.218 0.533
H11 H 1.029 0.205 0.670
H12 H 0.950 0.016 0.592
H13 H 0.760 0.414 0.655
H14 H 0.748 0.333 0.791
H15 H 0.902 0.405 0.798
loop_
_geom_bond_atom_site_label_1
_geom_bond_atom_site_label_2
_geom_bond_site_symmetry_1
_geom_bond_site_symmetry_2
S1 C1 1_555 1_555
C1 N1 1_555 1_555
N1 C2 1_555 1_555
C2 C3 1_555 1_555
C3 S1 1_555 1_555
C4 C2 1_555 1_555
O1 C4 1_555 1_555
O2 C4 1_555 1_555
C5 C3 1_555 1_555
C6 C3 1_555 1_555
C7 C1 1_555 1_555
C8 C7 1_555 1_555
C9 C8 1_555 1_555
C10 C9 1_555 1_555
C11 C10 1_555 1_555
C12 C7 1_555 1_555
H1 O1 1_555 1_555
H2 C1 1_555 1_555
H3 N1 1_555 1_555
H4 C2 1_555 1_555
H5 C8 1_555 1_555
H6 C9 1_555 1_555
H7 C10 1_555 1_555
H8 C11 1_555 1_555
H9 C12 1_555 1_555
H10 C5 1_555 1_555
H11 C5 1_555 1_555
H12 C5 1_555 1_555
H13 C6 1_555 1_555
H14 C6 1_555 1_555
H15 C6 1_555 1_555
C11 C12 1_555 1_555

#END
