
#######################################################################
#
#                 Cambridge Crystallographic Data Centre
#                                CCDC 
#
#######################################################################
#
# If this CIF has been generated from an entry in the Cambridge 
# Structural Database, then it will include bibliographic, chemical, 
# crystal, experimental, refinement or atomic coordinate data resulting 
# from the CCDC's data processing and validation procedures.
#
#######################################################################

data_YESRUM
_chemical_compound_source        
'isolated from the leaves of Rhododendron molle'
_chemical_name_common            'mollfoliagein F monohydrate'
_chemical_formula_moiety         'C23 H36 O7,H2 O1'
_chemical_name_systematic        
'3,5,14,16-tetrahydroxy-2-methoxygrayanotox-9-en-6-yl acetate monohydrate'
_symmetry_cell_setting           orthorhombic
_symmetry_space_group_name_H-M   'P 21 21 21'
_symmetry_Int_Tables_number      19
_space_group_name_Hall           'P 2ac 2ab'
loop_
_symmetry_equiv_pos_site_id
_symmetry_equiv_pos_as_xyz
1 x,y,z
2 1/2-x,-y,1/2+z
3 1/2+x,1/2-y,-z
4 -x,1/2+y,1/2-z
_cell_length_a                   8.6611(9)
_cell_length_b                   13.5236(13)
_cell_length_c                   18.6939(12)
_cell_angle_alpha                90
_cell_angle_beta                 90
_cell_angle_gamma                90
_cell_volume                     2189.6
_exptl_crystal_colour            colorless
_exptl_crystal_description       block
_cell_formula_units_Z            4
loop_
_atom_site_label
_atom_site_type_symbol
_atom_site_fract_x
_atom_site_fract_y
_atom_site_fract_z
C1 C 0.4370(2) -0.02174(14) 0.10712(10)
H1 H 0.4821 -0.0271 0.0580
C2 C 0.5647(2) -0.04791(15) 0.16054(11)
H2 H 0.5180 -0.0608 0.2086
C3 C 0.6693(2) 0.04363(16) 0.16467(11)
H3 H 0.7608 0.0303 0.1335
C4 C 0.5782(2) 0.13098(15) 0.12978(10)
C5 C 0.4109(2) 0.08877(15) 0.12252(10)
C6 C 0.3139(2) 0.14176(15) 0.06371(10)
H4 H 0.3684 0.2046 0.0511
C7 C 0.2930(2) 0.08259(14) -0.00515(10)
H5 H 0.3958 0.0575 -0.0194
H6 H 0.2593 0.1293 -0.0428
C8 C 0.1805(2) -0.00571(13) -0.00622(10)
C9 C 0.1828(2) -0.07849(14) 0.05740(10)
C10 C 0.2913(2) -0.08461(15) 0.10848(10)
C11 C 0.0495(3) -0.15136(15) 0.05267(11)
H7 H -0.0484 -0.1166 0.0632
H8 H 0.0635 -0.2038 0.0890
C12 C 0.0396(3) -0.19885(15) -0.02212(12)
H9 H 0.1219 -0.2492 -0.0267
H10 H -0.0610 -0.2329 -0.0270
C13 C 0.0564(2) -0.12323(15) -0.08289(11)
H11 H 0.0496 -0.1563 -0.1307
C14 C 0.2112(2) -0.07047(15) -0.07397(10)
H12 H 0.2939 -0.1200 -0.0634
C15 C 0.0103(2) 0.03026(14) -0.01914(10)
H13 H -0.0500 0.0263 0.0258
H14 H 0.0097 0.0997 -0.0360
C16 C -0.0609(2) -0.03907(15) -0.07700(10)
C17 C -0.2268(2) -0.07097(17) -0.06419(12)
H15 H -0.2951 -0.0135 -0.0683
H16 H -0.2361 -0.0993 -0.0161
H17 H -0.2562 -0.1207 -0.0998
C18 C 0.5829(2) 0.22644(18) 0.17372(13)
H18 H 0.6898 0.2497 0.1773
H19 H 0.5422 0.2137 0.2217
H20 H 0.5198 0.2770 0.1502
C19 C 0.6514(2) 0.15163(16) 0.05615(11)
H21 H 0.5963 0.2061 0.0328
H22 H 0.6442 0.0922 0.0263
H23 H 0.7601 0.1697 0.0624
C20 C 0.2783(3) -0.15455(17) 0.17146(11)
H24 H 0.1789 -0.1890 0.1695
H25 H 0.2854 -0.1169 0.2161
H26 H 0.3623 -0.2030 0.1695
C21 C 0.1534(2) 0.25836(15) 0.12288(11)
C22 C 0.0036(3) 0.2730(2) 0.16012(14)
H27 H -0.0051 0.2257 0.1996
H28 H -0.0813 0.2624 0.1263
H29 H -0.0016 0.3405 0.1790
C23 C 0.7460(3) -0.17417(18) 0.18793(13)
H30 H 0.8282 -0.1262 0.1975
H31 H 0.7913 -0.2356 0.1697
H32 H 0.6897 -0.1879 0.2323
O1 O 0.16395(16) 0.16783(11) 0.09217(8)
O2 O 0.25227(19) 0.32068(11) 0.11912(9)
O3 O 0.34348(16) 0.10046(11) 0.19124(7)
H33 H 0.2507 0.0831 0.1876
O4 O 0.72682(18) 0.06327(13) 0.23494(8)
H34 H 0.6537 0.0538 0.2637
O5 O 0.64271(19) -0.13473(11) 0.13628(8)
O6 O 0.25395(17) -0.01251(12) -0.13529(7)
H35 H 0.1719 0.0021 -0.1568
O7 O -0.05687(17) 0.01127(11) -0.14643(7)
H36 H -0.1116 0.0624 -0.1436
O8 O 0.0538(2) 0.0466(2) 0.24651(11)
H37 H -0.0440 0.0463 0.2503
H38 H 0.0906 0.0565 0.2883
loop_
_geom_bond_atom_site_label_1
_geom_bond_atom_site_label_2
_geom_bond_site_symmetry_1
_geom_bond_site_symmetry_2
C1 H1 1_555 1_555
C2 C1 1_555 1_555
H2 C2 1_555 1_555
C3 C2 1_555 1_555
H3 C3 1_555 1_555
C4 C3 1_555 1_555
C5 C1 1_555 1_555
C6 C5 1_555 1_555
H4 C6 1_555 1_555
C7 C6 1_555 1_555
H5 C7 1_555 1_555
H6 C7 1_555 1_555
C8 C7 1_555 1_555
C9 C8 1_555 1_555
C10 C1 1_555 1_555
C11 C9 1_555 1_555
H7 C11 1_555 1_555
H8 C11 1_555 1_555
C12 C11 1_555 1_555
H9 C12 1_555 1_555
H10 C12 1_555 1_555
C13 C12 1_555 1_555
H11 C13 1_555 1_555
C14 C8 1_555 1_555
H12 C14 1_555 1_555
C15 C8 1_555 1_555
H13 C15 1_555 1_555
H14 C15 1_555 1_555
C16 C13 1_555 1_555
C17 C16 1_555 1_555
H15 C17 1_555 1_555
H16 C17 1_555 1_555
H17 C17 1_555 1_555
C18 C4 1_555 1_555
H18 C18 1_555 1_555
H19 C18 1_555 1_555
H20 C18 1_555 1_555
C19 C4 1_555 1_555
H21 C19 1_555 1_555
H22 C19 1_555 1_555
H23 C19 1_555 1_555
C20 C10 1_555 1_555
H24 C20 1_555 1_555
H25 C20 1_555 1_555
H26 C20 1_555 1_555
C21 C22 1_555 1_555
C22 H27 1_555 1_555
H28 C22 1_555 1_555
H29 C22 1_555 1_555
C23 H30 1_555 1_555
H31 C23 1_555 1_555
H32 C23 1_555 1_555
O1 C6 1_555 1_555
O2 C21 1_555 1_555
O3 C5 1_555 1_555
H33 O3 1_555 1_555
O4 C3 1_555 1_555
H34 O4 1_555 1_555
O5 C2 1_555 1_555
O6 C14 1_555 1_555
H35 O6 1_555 1_555
O7 C16 1_555 1_555
H36 O7 1_555 1_555
O8 H37 1_555 1_555
H38 O8 1_555 1_555
C4 C5 1_555 1_555
C9 C10 1_555 1_555
C13 C14 1_555 1_555
C15 C16 1_555 1_555
C21 O1 1_555 1_555
C23 O5 1_555 1_555

#END
