
#######################################################################
#
#                 Cambridge Crystallographic Data Centre
#                                CCDC 
#
#######################################################################
#
# If this CIF has been generated from an entry in the Cambridge 
# Structural Database, then it will include bibliographic, chemical, 
# crystal, experimental, refinement or atomic coordinate data resulting 
# from the CCDC's data processing and validation procedures.
#
#######################################################################

data_YESROE
_chemical_formula_moiety         'C32 H24 Cl2 N10'
_chemical_name_systematic        
8,14-Dibenzyl-5,17-dichloro-2,4,6,8,14,16,18,20,26,28-decaazapentacyclo(19.3.1.1^3,7^.1^9,13^.1^15,19^)octacosa-1(25),3(28),4,6,9(27),10,12,15(26),16,18,21,23-dodecaene
_symmetry_cell_setting           orthorhombic
_symmetry_space_group_name_H-M   'P n a 21'
_symmetry_Int_Tables_number      33
_space_group_name_Hall           'P 2c -2n'
loop_
_symmetry_equiv_pos_site_id
_symmetry_equiv_pos_as_xyz
1 x,y,z
2 -x,-y,1/2+z
3 1/2+x,1/2-y,z
4 1/2-x,1/2+y,1/2+z
_cell_length_a                   13.007(3)
_cell_length_b                   14.042(3)
_cell_length_c                   16.794(3)
_cell_angle_alpha                90
_cell_angle_beta                 90
_cell_angle_gamma                90
_cell_volume                     3067.33
_exptl_crystal_colour            colorless
_chemical_melting_point          'above 300 deg.C'
_cell_formula_units_Z            4
_exptl_crystal_recrystallization_method n-hexane/acetone
loop_
_atom_site_label
_atom_site_type_symbol
_atom_site_fract_x
_atom_site_fract_y
_atom_site_fract_z
Cl1 Cl 0.03076(8) 0.73668(6) 1.16248(4)
Cl2 Cl 0.10404(7) 0.68986(6) 0.41105(4)
N1 N 0.16740(19) 0.64770(17) 0.93639(11)
N2 N 0.1514(2) 0.76114(18) 1.04285(12)
N3 N 0.05062(19) 0.61984(17) 1.04433(12)
N4 N 0.0695(2) 0.51079(19) 0.94344(12)
H1 H 0.0238 0.4784 0.9687
N5 N 0.0913(2) 0.49989(17) 0.65286(11)
H2 H 0.0448 0.4688 0.6275
N6 N 0.19877(18) 0.62998(17) 0.65639(11)
N7 N 0.09640(17) 0.59340(17) 0.54113(11)
N8 N 0.20900(19) 0.72690(18) 0.53857(11)
N9 N 0.30873(19) 0.75738(19) 0.64966(11)
N10 N 0.2604(2) 0.78805(18) 0.93783(12)
C1 C 0.1902(2) 0.7303(2) 0.97243(14)
C2 C 0.0837(3) 0.7018(2) 1.07121(16)
C3 C 0.0972(2) 0.5959(2) 0.97411(14)
C4 C 0.0874(2) 0.5104(2) 0.79860(15)
H3 H 0.0495 0.5664 0.7955
C5 C 0.1107(2) 0.4705(2) 0.87201(14)
C6 C 0.1672(3) 0.3882(3) 0.87583(17)
H4 H 0.1823 0.3614 0.9251
C7 C 0.2017(3) 0.3450(3) 0.80763(16)
H5 H 0.2405 0.2895 0.8108
C8 C 0.1789(3) 0.3841(2) 0.73386(17)
H6 H 0.2026 0.3552 0.6875
C9 C 0.1213(2) 0.4655(2) 0.72990(15)
C10 C 0.1310(2) 0.57703(19) 0.61798(13)
C11 C 0.1418(2) 0.6672(2) 0.50964(14)
C12 C 0.2368(2) 0.7029(2) 0.61562(15)
C13 C 0.2827(2) 0.7665(2) 0.79371(15)
H7 H 0.2178 0.7922 0.7850
C14 C 0.3430(2) 0.7395(2) 0.73022(15)
C15 C 0.4389(3) 0.7017(3) 0.74273(19)
H8 H 0.4800 0.6847 0.6997
C16 C 0.4741(3) 0.6889(3) 0.81970(19)
H9 H 0.5384 0.6618 0.8284
C17 C 0.4148(3) 0.7159(3) 0.88324(18)
H10 H 0.4389 0.7077 0.9349
C18 C 0.3193(2) 0.7553(2) 0.87041(15)
C19 C 0.3525(3) 0.8421(2) 0.61001(16)
H11 H 0.3512 0.8322 0.5529
H12 H 0.4238 0.8489 0.6260
C20 C 0.2967(3) 0.9322(2) 0.62877(16)
C21 C 0.2166(4) 0.9651(3) 0.5818(2)
H13 H 0.1949 0.9296 0.5382
C22 C 0.1683(4) 1.0511(4) 0.5995(3)
H14 H 0.1162 1.0740 0.5668
C23 C 0.1980(4) 1.1015(3) 0.6650(3)
H15 H 0.1638 1.1575 0.6780
C24 C 0.2765(4) 1.0712(3) 0.7114(2)
H16 H 0.2967 1.1069 0.7554
C25 C 0.3259(3) 0.9881(3) 0.69358(19)
H17 H 0.3804 0.9683 0.7254
C26 C 0.2863(3) 0.8806(2) 0.97542(18)
H18 H 0.3482 0.9054 0.9508
H19 H 0.3012 0.8699 1.0313
C27 C 0.2032(3) 0.9540(2) 0.9690(2)
C28 C 0.1503(4) 0.9842(3) 1.0353(3)
H20 H 0.1655 0.9580 1.0848
C29 C 0.0757(4) 1.0524(4) 1.0291(4)
H21 H 0.0420 1.0737 1.0746
C30 C 0.0502(5) 1.0898(4) 0.9555(6)
H22 H -0.0015 1.1353 0.9510
C31 C 0.1015(6) 1.0591(4) 0.8899(5)
H23 H 0.0846 1.0836 0.8402
C32 C 0.1780(4) 0.9923(4) 0.8963(3)
H24 H 0.2133 0.9728 0.8510
loop_
_geom_bond_atom_site_label_1
_geom_bond_atom_site_label_2
_geom_bond_site_symmetry_1
_geom_bond_site_symmetry_2
Cl1 C2 1_555 1_555
Cl2 C11 1_555 1_555
N1 C1 1_555 1_555
N2 C1 1_555 1_555
N3 C2 1_555 1_555
N4 H1 1_555 1_555
N5 H2 1_555 1_555
N6 C10 1_555 1_555
N7 C10 1_555 1_555
N8 C11 1_555 1_555
N9 C12 1_555 1_555
N10 C1 1_555 1_555
C2 N2 1_555 1_555
C3 N1 1_555 1_555
C4 H3 1_555 1_555
C5 N4 1_555 1_555
C6 C5 1_555 1_555
H4 C6 1_555 1_555
C7 C6 1_555 1_555
H5 C7 1_555 1_555
C8 C7 1_555 1_555
H6 C8 1_555 1_555
C9 N5 1_555 1_555
C10 N5 1_555 1_555
C11 N7 1_555 1_555
C12 N6 1_555 1_555
C13 H7 1_555 1_555
C14 N9 1_555 1_555
C15 C14 1_555 1_555
H8 C15 1_555 1_555
C16 C15 1_555 1_555
H9 C16 1_555 1_555
C17 C16 1_555 1_555
H10 C17 1_555 1_555
C18 N10 1_555 1_555
C19 N9 1_555 1_555
H11 C19 1_555 1_555
H12 C19 1_555 1_555
C20 C19 1_555 1_555
C21 C20 1_555 1_555
H13 C21 1_555 1_555
C22 C21 1_555 1_555
H14 C22 1_555 1_555
C23 C22 1_555 1_555
H15 C23 1_555 1_555
C24 C23 1_555 1_555
H16 C24 1_555 1_555
C25 C20 1_555 1_555
H17 C25 1_555 1_555
C26 N10 1_555 1_555
H18 C26 1_555 1_555
H19 C26 1_555 1_555
C27 C26 1_555 1_555
C28 C27 1_555 1_555
H20 C28 1_555 1_555
C29 C28 1_555 1_555
H21 C29 1_555 1_555
C30 C29 1_555 1_555
H22 C30 1_555 1_555
C31 C30 1_555 1_555
H23 C31 1_555 1_555
C32 C27 1_555 1_555
H24 C32 1_555 1_555
N3 C3 1_555 1_555
N4 C3 1_555 1_555
N8 C12 1_555 1_555
C4 C5 1_555 1_555
C4 C9 1_555 1_555
C8 C9 1_555 1_555
C13 C14 1_555 1_555
C13 C18 1_555 1_555
C17 C18 1_555 1_555
C24 C25 1_555 1_555
C31 C32 1_555 1_555

#END
