
#######################################################################
#
#                 Cambridge Crystallographic Data Centre
#                                CCDC 
#
#######################################################################
#
# If this CIF has been generated from an entry in the Cambridge 
# Structural Database, then it will include bibliographic, chemical, 
# crystal, experimental, refinement or atomic coordinate data resulting 
# from the CCDC's data processing and validation procedures.
#
#######################################################################

data_YESTOG
_chemical_formula_moiety         'C14 H13 N3 O2,H2 O1'
_chemical_name_systematic        
"2'-Hydroxyacetophenone nicotinoylhydrazone monohydrate"
_symmetry_cell_setting           triclinic
_symmetry_space_group_name_H-M   'P -1'
_symmetry_Int_Tables_number      2
_space_group_name_Hall           '-P 1'
loop_
_symmetry_equiv_pos_site_id
_symmetry_equiv_pos_as_xyz
1 x,y,z
2 -x,-y,-z
_cell_length_a                   8.6795(17)
_cell_length_b                   8.8771(18)
_cell_length_c                   9.2728(19)
_cell_angle_alpha                81.28(3)
_cell_angle_beta                 86.26(3)
_cell_angle_gamma                70.48(3)
_cell_volume                     665.529
_exptl_crystal_colour            colorless
_exptl_crystal_description       prismatic
_cell_formula_units_Z            2
_exptl_crystal_recrystallization_method ethanol/methanol
loop_
_atom_site_label
_atom_site_type_symbol
_atom_site_fract_x
_atom_site_fract_y
_atom_site_fract_z
N1 N 0.5665(3) 0.7665(3) 0.5528(3)
N2 N 0.5104(3) 0.7310(3) 0.4293(3)
H1 H 0.582(4) 0.687(4) 0.359(3)
N3 N 0.1055(3) 0.5624(3) 0.2302(3)
O1 O 0.5124(3) 0.8071(4) 0.8202(3)
O2 O 0.2787(3) 0.7294(3) 0.5547(2)
C1 C 0.6527(4) 0.8427(4) 0.8082(3)
C2 C 0.7122(5) 0.8682(5) 0.9352(4)
H2 H 0.6527 0.8647 1.0220
C3 C 0.8565(5) 0.8985(5) 0.9341(4)
H3 H 0.8943 0.9153 1.0198
C4 C 0.9457(5) 0.9040(5) 0.8071(4)
H4 H 1.0451 0.9225 0.8071
C5 C 0.8885(4) 0.8823(4) 0.6799(4)
H5 H 0.9496 0.8875 0.5942
C6 C 0.7401(4) 0.8527(3) 0.6763(3)
C7 C 0.6832(3) 0.8257(3) 0.5385(3)
C8 C 0.7591(4) 0.8705(4) 0.3961(3)
H6 H 0.7081 0.8459 0.3180
H7 H 0.8739 0.8103 0.3962
H8 H 0.7440 0.9838 0.3827
C9 C 0.3643(4) 0.7061(3) 0.4437(3)
C10 C 0.1737(4) 0.6034(4) 0.3358(3)
H9 H 0.1292 0.5952 0.4295
C11 C 0.3078(3) 0.6578(3) 0.3148(3)
C12 C 0.3732(4) 0.6682(4) 0.1751(4)
H10 H 0.4624 0.7043 0.1553
C13 C 0.3045(4) 0.6245(5) 0.0664(4)
H11 H 0.3470 0.6302 -0.0281
C14 C 0.1732(4) 0.5724(4) 0.0976(4)
H12 H 0.1288 0.5425 0.0224
H13 H 0.501(5) 0.782(5) 0.729(5)
O3 O 0.2203(3) 0.4627(3) -0.2600(3)
H14 H 0.088(8) 0.472(8) -0.257(6)
H15 H 0.200(5) 0.555(5) -0.306(4)
loop_
_geom_bond_atom_site_label_1
_geom_bond_atom_site_label_2
_geom_bond_site_symmetry_1
_geom_bond_site_symmetry_2
N1 N2 1_555 1_555
N2 H1 1_555 1_555
N3 C10 1_555 1_555
O1 C1 1_555 1_555
O2 C9 1_555 1_555
C1 C2 1_555 1_555
C2 H2 1_555 1_555
C3 C2 1_555 1_555
H3 C3 1_555 1_555
C4 C3 1_555 1_555
H4 C4 1_555 1_555
C5 C4 1_555 1_555
H5 C5 1_555 1_555
C6 C1 1_555 1_555
C7 N1 1_555 1_555
C8 C7 1_555 1_555
H6 C8 1_555 1_555
H7 C8 1_555 1_555
H8 C8 1_555 1_555
C9 N2 1_555 1_555
C10 H9 1_555 1_555
C11 C9 1_555 1_555
C12 C11 1_555 1_555
H10 C12 1_555 1_555
C13 C12 1_555 1_555
H11 C13 1_555 1_555
C14 N3 1_555 1_555
H12 C14 1_555 1_555
H13 O1 1_555 1_555
O3 H14 1_555 1_555
H15 O3 1_555 1_555
C5 C6 1_555 1_555
C6 C7 1_555 1_555
C10 C11 1_555 1_555
C13 C14 1_555 1_555

#END
