
#######################################################################
#
#                 Cambridge Crystallographic Data Centre
#                                CCDC 
#
#######################################################################
#
# If this CIF has been generated from an entry in the Cambridge 
# Structural Database, then it will include bibliographic, chemical, 
# crystal, experimental, refinement or atomic coordinate data resulting 
# from the CCDC's data processing and validation procedures.
#
#######################################################################

data_YETFIP
_chemical_formula_moiety         'C18 H24 B1 N1 O2'
_chemical_name_systematic        
2-(4-methylphenyl)-1-(4,4,5,5-tetramethyl-1,3,2-dioxaborolan-2-yl)-1,4-dihydropyridine
_symmetry_cell_setting           triclinic
_symmetry_space_group_name_H-M   'P -1'
_symmetry_Int_Tables_number      2
_space_group_name_Hall           '-P 1'
loop_
_symmetry_equiv_pos_site_id
_symmetry_equiv_pos_as_xyz
1 x,y,z
2 -x,-y,-z
_cell_length_a                   9.4418(3)
_cell_length_b                   9.9431(2)
_cell_length_c                   10.0828(2)
_cell_angle_alpha                86.5863(8)
_cell_angle_beta                 63.7872(8)
_cell_angle_gamma                75.1739(9)
_cell_volume                     819.398
_exptl_crystal_colour            colorless
_exptl_crystal_description       block
_cell_formula_units_Z            2
loop_
_atom_site_label
_atom_site_type_symbol
_atom_site_fract_x
_atom_site_fract_y
_atom_site_fract_z
B1 B 0.21460(13) 0.39389(11) 0.22024(12)
C1 C 0.25670(12) 0.60380(10) 0.24421(11)
C2 C 0.08885(13) 0.70010(11) 0.33529(13)
H1 H 0.0471 0.7521 0.2688
H2 H 0.0972 0.7656 0.3988
H3 H 0.014 0.6447 0.397
C3 C 0.37519(14) 0.68729(11) 0.14788(12)
H4 H 0.4776 0.6236 0.0796
H5 H 0.3971 0.7424 0.2107
H6 H 0.3274 0.7498 0.091
C4 C 0.31864(12) 0.49683(10) 0.33874(11)
C5 C 0.26040(16) 0.55007(12) 0.49713(12)
H7 H 0.1407 0.5754 0.5475
H8 H 0.3 0.6322 0.4966
H9 H 0.3029 0.4769 0.5495
C6 C 0.50279(14) 0.43590(13) 0.26553(14)
H10 H 0.5312 0.356 0.3189
H11 H 0.5569 0.5071 0.2681
H12 H 0.5389 0.4054 0.1624
C7 C 0.07997(15) 0.33944(12) 0.07857(14)
H13 H 0.11 0.4119 0.0147
C8 C -0.03321(14) 0.28363(12) 0.07664(13)
H14 H -0.0825 0.3183 0.013
C9 C -0.08406(14) 0.16840(13) 0.17172(14)
H15 H -0.0968 0.0986 0.1145
H16 H -0.1909 0.2056 0.2576
C10 C 0.04049(13) 0.09996(11) 0.22557(12)
H17 H 0.0414 0.0089 0.2601
C11 C 0.15034(12) 0.16138(10) 0.22722(11)
C12 C 0.28337(12) 0.08500(10) 0.26531(11)
C13 C 0.25161(13) 0.00990(11) 0.39201(12)
H18 H 0.1419 0.0151 0.4617
C14 C 0.37983(14) -0.07286(11) 0.41708(12)
H19 H 0.356 -0.1223 0.5047
C15 C 0.54145(14) -0.08461(11) 0.31679(13)
C16 C 0.68051(17) -0.18069(13) 0.33869(16)
H20 H 0.7152 -0.2696 0.2821
H21 H 0.6444 -0.1972 0.4441
H22 H 0.7723 -0.1377 0.3041
C17 C 0.57237(13) -0.00698(12) 0.19159(13)
H23 H 0.6821 -0.0123 0.122
C18 C 0.44567(13) 0.07775(11) 0.16704(12)
H24 H 0.4697 0.1315 0.0823
N1 N 0.15771(11) 0.29534(9) 0.17198(10)
O1 O 0.23725(9) 0.51371(7) 0.14736(8)
O2 O 0.24476(9) 0.38326(7) 0.34183(8)
loop_
_geom_bond_atom_site_label_1
_geom_bond_atom_site_label_2
_geom_bond_site_symmetry_1
_geom_bond_site_symmetry_2
B1 N1 1_555 1_555
C1 C2 1_555 1_555
C2 H1 1_555 1_555
H2 C2 1_555 1_555
H3 C2 1_555 1_555
C3 C1 1_555 1_555
H4 C3 1_555 1_555
H5 C3 1_555 1_555
H6 C3 1_555 1_555
C4 C1 1_555 1_555
C5 C4 1_555 1_555
H7 C5 1_555 1_555
H8 C5 1_555 1_555
H9 C5 1_555 1_555
C6 C4 1_555 1_555
H10 C6 1_555 1_555
H11 C6 1_555 1_555
H12 C6 1_555 1_555
C7 H13 1_555 1_555
C8 C7 1_555 1_555
H14 C8 1_555 1_555
C9 C8 1_555 1_555
H15 C9 1_555 1_555
H16 C9 1_555 1_555
C10 C9 1_555 1_555
H17 C10 1_555 1_555
C11 C10 1_555 1_555
C12 C11 1_555 1_555
C13 C12 1_555 1_555
H18 C13 1_555 1_555
C14 C13 1_555 1_555
H19 C14 1_555 1_555
C15 C14 1_555 1_555
C16 C15 1_555 1_555
H20 C16 1_555 1_555
H21 C16 1_555 1_555
H22 C16 1_555 1_555
C17 C15 1_555 1_555
H23 C17 1_555 1_555
C18 C12 1_555 1_555
H24 C18 1_555 1_555
N1 C7 1_555 1_555
O1 B1 1_555 1_555
O2 B1 1_555 1_555
C1 O1 1_555 1_555
C4 O2 1_555 1_555
C11 N1 1_555 1_555
C17 C18 1_555 1_555

#END
