
#######################################################################
#
#                 Cambridge Crystallographic Data Centre
#                                CCDC 
#
#######################################################################
#
# If this CIF has been generated from an entry in the Cambridge 
# Structural Database, then it will include bibliographic, chemical, 
# crystal, experimental, refinement or atomic coordinate data resulting 
# from the CCDC's data processing and validation procedures.
#
#######################################################################

data_YETFOV
_chemical_formula_moiety         'C14 H22 N2 P1 1+,C1 F3 O3 S1 1-'
_chemical_name_systematic        
'1,3-di-t-butyl-2,3-dihydro-1H-1,3,2-benzodiazaphosphol-2-ium trifluoromethanesulfonate'
_symmetry_cell_setting           monoclinic
_symmetry_space_group_name_H-M   'P c'
_symmetry_Int_Tables_number      7
_space_group_name_Hall           'P -2yc'
loop_
_symmetry_equiv_pos_site_id
_symmetry_equiv_pos_as_xyz
1 x,y,z
2 x,-y,1/2+z
_cell_length_a                   14.3752(9)
_cell_length_b                   8.7993(6)
_cell_length_c                   15.8616(12)
_cell_angle_alpha                90
_cell_angle_beta                 111.282(2)
_cell_angle_gamma                90
_cell_volume                     1869.54
_exptl_crystal_colour            colorless
_exptl_crystal_description       plate
_cell_formula_units_Z            4
loop_
_atom_site_label
_atom_site_type_symbol
_atom_site_fract_x
_atom_site_fract_y
_atom_site_fract_z
C1 C 0.5614(5) 0.3254(7) 0.3634(4)
C2 C 0.5439(5) 0.4141(8) 0.2763(4)
H1 H 0.4978 0.3573 0.2249
H2 H 0.6075 0.4283 0.2679
H3 H 0.5149 0.5134 0.2802
C3 C 0.6162(5) 0.1797(7) 0.3619(4)
H4 H 0.6302 0.1252 0.4191
H5 H 0.6792 0.2033 0.354
H6 H 0.5748 0.1159 0.3116
C4 C 0.4622(5) 0.2995(8) 0.3742(4)
H7 H 0.4731 0.2444 0.4306
H8 H 0.4186 0.2396 0.323
H9 H 0.4307 0.3977 0.3758
C5 C 0.6564(4) 0.3836(7) 0.5335(4)
C6 C 0.6354(5) 0.2545(7) 0.5733(4)
H10 H 0.5943 0.1761 0.5375
C7 C 0.6759(5) 0.2431(8) 0.6665(4)
H11 H 0.6624 0.1552 0.695
C8 C 0.7359(5) 0.3572(8) 0.7197(4)
H12 H 0.7627 0.3455 0.7836
C9 C 0.7572(5) 0.4869(7) 0.6814(4)
H13 H 0.7975 0.5652 0.7179
C10 C 0.7173(4) 0.4993(7) 0.5870(4)
C11 C 0.7904(5) 0.7601(7) 0.5679(4)
C12 C 0.8986(4) 0.7132(8) 0.6137(5)
H14 H 0.9064 0.6552 0.6686
H15 H 0.9409 0.8041 0.6298
H16 H 0.9186 0.65 0.5723
C13 C 0.7801(6) 0.8564(8) 0.4845(5)
H17 H 0.8054 0.7991 0.4444
H18 H 0.8186 0.9504 0.5035
H19 H 0.7096 0.8814 0.4521
C14 C 0.7499(5) 0.8490(8) 0.6293(5)
H20 H 0.6794 0.8731 0.5964
H21 H 0.7878 0.9435 0.6482
H22 H 0.7563 0.7879 0.6827
N1 N 0.6267(3) 0.4230(5) 0.4416(3)
N2 N 0.7285(3) 0.6195(6) 0.5334(3)
P1 P 0.66911(12) 0.58884(19) 0.42458(11)
C15 C 0.9432(5) 0.2605(7) 0.5249(4)
F1 F 0.9881(3) 0.1263(4) 0.5362(2)
F2 F 0.9915(3) 0.3457(4) 0.5971(2)
F3 F 0.8514(3) 0.2385(4) 0.5249(3)
O1 O 0.8876(4) 0.2478(6) 0.3523(3)
O2 O 0.8905(4) 0.4951(5) 0.4218(3)
O3 O 1.0453(4) 0.3686(6) 0.4368(3)
S1 S 0.94114(13) 0.35392(18) 0.42146(11)
C16 C 0.4111(5) 0.7053(7) 0.4953(5)
F4 F 0.4915(3) 0.6236(4) 0.5409(2)
F5 F 0.3734(3) 0.7565(5) 0.5546(3)
F6 F 0.3437(3) 0.6103(4) 0.4404(3)
O4 O 0.4827(4) 0.7776(6) 0.3767(3)
O5 O 0.3440(3) 0.9275(5) 0.3851(3)
O6 O 0.5074(4) 0.9497(5) 0.5020(3)
S2 S 0.43989(12) 0.85776(18) 0.43179(11)
C17 C 0.0609(5) 0.8606(7) 0.3494(4)
C18 C 0.1016(5) 0.7095(7) 0.3316(4)
H23 H 0.1696 0.7239 0.3325
H24 H 0.0589 0.6707 0.2723
H25 H 0.1027 0.6365 0.3786
C19 C 0.0578(5) 0.9737(7) 0.2762(4)
H26 H 0.0341 1.0721 0.2893
H27 H 0.0123 0.9366 0.2174
H28 H 0.1249 0.9855 0.2745
C20 C -0.0444(4) 0.8468(7) 0.3517(4)
H29 H -0.0443 0.7713 0.3971
H30 H -0.0909 0.8149 0.2921
H31 H -0.0654 0.9455 0.3673
C21 C 0.1496(4) 0.8540(7) 0.5231(4)
C22 C 0.1157(4) 0.7149(7) 0.5434(4)
H32 H 0.0719 0.6531 0.4967
C23 C 0.1469(4) 0.6693(7) 0.6322(4)
H33 H 0.1251 0.5745 0.647
C24 C 0.2107(4) 0.7615(7) 0.7012(4)
H34 H 0.2307 0.7282 0.7622
C25 C 0.2447(4) 0.8977(7) 0.6830(4)
H35 H 0.2875 0.9595 0.7304
C26 C 0.2148(4) 0.9442(6) 0.5923(4)
C27 C 0.3090(4) 1.1990(7) 0.6118(4)
C28 C 0.3158(5) 1.3233(7) 0.5468(4)
H36 H 0.3455 1.2812 0.5052
H37 H 0.3575 1.4067 0.5814
H38 H 0.2487 1.3616 0.5122
C29 C 0.2646(5) 1.2693(7) 0.6764(4)
H39 H 0.1969 1.3054 0.6422
H40 H 0.3062 1.355 0.7082
H41 H 0.2623 1.1929 0.7206
C30 C 0.4123(5) 1.1305(8) 0.6590(4)
H42 H 0.4087 1.0514 0.7012
H43 H 0.4587 1.2102 0.6924
H44 H 0.4359 1.086 0.6138
N3 N 0.1295(3) 0.9234(5) 0.4388(3)
N4 N 0.2407(3) 1.0773(5) 0.5571(3)
P2 P 0.18732(12) 1.08698(19) 0.44562(11)
loop_
_geom_bond_atom_site_label_1
_geom_bond_atom_site_label_2
_geom_bond_site_symmetry_1
_geom_bond_site_symmetry_2
C1 C2 1_555 1_555
C2 H1 1_555 1_555
H2 C2 1_555 1_555
H3 C2 1_555 1_555
C3 C1 1_555 1_555
H4 C3 1_555 1_555
H5 C3 1_555 1_555
H6 C3 1_555 1_555
C4 C1 1_555 1_555
H7 C4 1_555 1_555
H8 C4 1_555 1_555
H9 C4 1_555 1_555
C5 C6 1_555 1_555
C6 H10 1_555 1_555
C7 C6 1_555 1_555
H11 C7 1_555 1_555
C8 C7 1_555 1_555
H12 C8 1_555 1_555
C9 C8 1_555 1_555
H13 C9 1_555 1_555
C10 C5 1_555 1_555
C11 C12 1_555 1_555
C12 H14 1_555 1_555
H15 C12 1_555 1_555
H16 C12 1_555 1_555
C13 C11 1_555 1_555
H17 C13 1_555 1_555
H18 C13 1_555 1_555
H19 C13 1_555 1_555
C14 C11 1_555 1_555
H20 C14 1_555 1_555
H21 C14 1_555 1_555
H22 C14 1_555 1_555
N1 C1 1_555 1_555
N2 C10 1_555 1_555
P1 N1 1_555 1_555
C15 F1 1_555 1_555
F2 C15 1_555 1_555
F3 C15 1_555 1_555
O1 S1 1_555 1_555
O2 S1 1_555 1_555
O3 S1 1_555 1_555
S1 C15 1_555 1_555
C16 F4 1_555 1_555
F5 C16 1_555 1_555
F6 C16 1_555 1_555
O4 S2 1_555 1_555
O5 S2 1_555 1_555
O6 S2 1_555 1_555
S2 C16 1_555 1_555
C17 C18 1_555 1_555
C18 H23 1_555 1_555
H24 C18 1_555 1_555
H25 C18 1_555 1_555
C19 C17 1_555 1_555
H26 C19 1_555 1_555
H27 C19 1_555 1_555
H28 C19 1_555 1_555
C20 C17 1_555 1_555
H29 C20 1_555 1_555
H30 C20 1_555 1_555
H31 C20 1_555 1_555
C21 C22 1_555 1_555
C22 H32 1_555 1_555
C23 C22 1_555 1_555
H33 C23 1_555 1_555
C24 C23 1_555 1_555
H34 C24 1_555 1_555
C25 C24 1_555 1_555
H35 C25 1_555 1_555
C26 C21 1_555 1_555
C27 C28 1_555 1_555
C28 H36 1_555 1_555
H37 C28 1_555 1_555
H38 C28 1_555 1_555
C29 C27 1_555 1_555
H39 C29 1_555 1_555
H40 C29 1_555 1_555
H41 C29 1_555 1_555
C30 C27 1_555 1_555
H42 C30 1_555 1_555
H43 C30 1_555 1_555
H44 C30 1_555 1_555
N3 C17 1_555 1_555
N4 C26 1_555 1_555
P2 N3 1_555 1_555
C5 N1 1_555 1_555
C9 C10 1_555 1_555
C11 N2 1_555 1_555
N2 P1 1_555 1_555
C21 N3 1_555 1_555
C25 C26 1_555 1_555
C27 N4 1_555 1_555
N4 P2 1_555 1_555

#END
