
#######################################################################
#
#                 Cambridge Crystallographic Data Centre
#                                CCDC 
#
#######################################################################
#
# If this CIF has been generated from an entry in the Cambridge 
# Structural Database, then it will include bibliographic, chemical, 
# crystal, experimental, refinement or atomic coordinate data resulting 
# from the CCDC's data processing and validation procedures.
#
#######################################################################

data_YETGEM
_chemical_formula_moiety         'C19 H24 I1 N2 O6 1+,C1 F3 O3 S1 1-'
_chemical_name_systematic        
'(2-t-butoxy-1-diazo-2-oxoethyl){2-[(2-t-butoxy-2-oxoethoxy)carbonyl]phenyl}iodonium trifluoromethanesulfonate'
_symmetry_cell_setting           monoclinic
_symmetry_space_group_name_H-M   'P 21/c'
_symmetry_Int_Tables_number      14
_space_group_name_Hall           '-P 2ybc'
loop_
_symmetry_equiv_pos_site_id
_symmetry_equiv_pos_as_xyz
1 x,y,z
2 -x,1/2+y,1/2-z
3 -x,-y,-z
4 x,1/2-y,1/2+z
_cell_length_a                   14.2384(4)
_cell_length_b                   8.1408(2)
_cell_length_c                   22.0014(6)
_cell_angle_alpha                90
_cell_angle_beta                 93.813(2)
_cell_angle_gamma                90
_cell_volume                     2544.58
_exptl_crystal_colour            colorless
_exptl_crystal_description       plate
_cell_formula_units_Z            4
loop_
_atom_site_label
_atom_site_type_symbol
_atom_site_fract_x
_atom_site_fract_y
_atom_site_fract_z
I1 I 0.01189(2) 0.18497(2) 0.14169(2)
N1 N 0.12149(12) 0.3131(2) 0.24812(8)
N2 N 0.11869(14) 0.3376(2) 0.29768(9)
O1 O -0.11802(11) 0.1105(2) 0.05695(8)
O2 O -0.20217(11) 0.2438(2) -0.01798(7)
O3 O -0.33080(15) 0.1358(3) 0.05711(10)
O4 O -0.33130(12) -0.1176(2) 0.01312(8)
O5 O 0.21617(12) 0.2851(2) 0.10464(7)
O6 O 0.28387(10) 0.34582(19) 0.19881(7)
C1 C -0.03131(14) 0.4068(3) 0.09677(9)
C2 C 0.00990(15) 0.5513(3) 0.11585(10)
H1 H 0.0551 0.5534 0.1483
C3 C -0.01759(17) 0.6951(3) 0.08542(11)
H2 H 0.0095 0.7947 0.0977
C4 C -0.08523(17) 0.6909(3) 0.03683(11)
H3 H -0.1030 0.7875 0.0167
C5 C -0.12606(14) 0.5438(3) 0.01835(10)
H4 H -0.1715 0.5419 -0.0140
C6 C -0.09954(14) 0.3982(3) 0.04803(9)
C7 C -0.14026(15) 0.2373(3) 0.03015(10)
C8 C -0.24911(16) 0.0895(3) -0.03339(11)
H5 H -0.2028 0.0049 -0.0397
H6 H -0.2888 0.1018 -0.0707
C9 C -0.30848(16) 0.0413(3) 0.01855(12)
C10 C -0.3807(2) -0.2012(4) 0.06185(13)
C11 C -0.4762(2) -0.1260(5) 0.06829(19)
H7 H -0.5069 -0.1817 0.0999
H8 H -0.5135 -0.1364 0.0305
H9 H -0.4690 -0.0118 0.0786
C12 C -0.3885(3) -0.3760(4) 0.03841(18)
H10 H -0.4163 -0.4439 0.0680
H11 H -0.3269 -0.4168 0.0313
H12 H -0.4272 -0.3781 0.0010
C13 C -0.3181(3) -0.1916(5) 0.11988(16)
H13 H -0.3444 -0.2574 0.1507
H14 H -0.3136 -0.0796 0.1333
H15 H -0.2565 -0.2318 0.1125
C14 C 0.12581(14) 0.2853(3) 0.18902(10)
C15 C 0.21327(15) 0.3045(3) 0.15898(10)
C16 C 0.37780(16) 0.3849(3) 0.17722(12)
C17 C 0.3690(2) 0.5349(4) 0.13646(15)
H16 H 0.4306 0.5702 0.1267
H17 H 0.3386 0.6216 0.1572
H18 H 0.3324 0.5078 0.0996
C18 C 0.41736(18) 0.2355(4) 0.14617(14)
H19 H 0.4820 0.2551 0.1386
H20 H 0.3818 0.2158 0.1083
H21 H 0.4133 0.1412 0.1721
C19 C 0.43442(18) 0.4225(4) 0.23648(14)
H22 H 0.4961 0.4597 0.2278
H23 H 0.4398 0.3249 0.2610
H24 H 0.4032 0.5066 0.2581
S1 S 0.15161(4) -0.16105(7) 0.22450(3)
O7 O 0.07595(11) -0.0611(2) 0.24466(9)
O8 O 0.18235(16) -0.1131(3) 0.16639(9)
O9 O 0.14003(15) -0.3347(2) 0.23404(9)
C20 C 0.24965(16) -0.1110(3) 0.27839(12)
F1 F 0.32599(12) -0.1972(2) 0.26882(11)
F2 F 0.22957(13) -0.1392(3) 0.33499(8)
F3 F 0.27367(12) 0.0469(2) 0.27303(9)
loop_
_geom_bond_atom_site_label_1
_geom_bond_atom_site_label_2
_geom_bond_site_symmetry_1
_geom_bond_site_symmetry_2
I1 C1 1_555 1_555
N1 N2 1_555 1_555
O1 C7 1_555 1_555
O2 C7 1_555 1_555
O3 C9 1_555 1_555
O4 C9 1_555 1_555
O5 C15 1_555 1_555
O6 C15 1_555 1_555
C1 C2 1_555 1_555
C2 H1 1_555 1_555
C3 C2 1_555 1_555
H2 C3 1_555 1_555
C4 C3 1_555 1_555
H3 C4 1_555 1_555
C5 C4 1_555 1_555
H4 C5 1_555 1_555
C6 C1 1_555 1_555
C7 C6 1_555 1_555
C8 O2 1_555 1_555
H5 C8 1_555 1_555
H6 C8 1_555 1_555
C9 C8 1_555 1_555
C10 O4 1_555 1_555
C11 C10 1_555 1_555
H7 C11 1_555 1_555
H8 C11 1_555 1_555
H9 C11 1_555 1_555
C12 C10 1_555 1_555
H10 C12 1_555 1_555
H11 C12 1_555 1_555
H12 C12 1_555 1_555
C13 C10 1_555 1_555
H13 C13 1_555 1_555
H14 C13 1_555 1_555
H15 C13 1_555 1_555
C14 I1 1_555 1_555
C15 C14 1_555 1_555
C16 O6 1_555 1_555
C17 C16 1_555 1_555
H16 C17 1_555 1_555
H17 C17 1_555 1_555
H18 C17 1_555 1_555
C18 C16 1_555 1_555
H19 C18 1_555 1_555
H20 C18 1_555 1_555
H21 C18 1_555 1_555
C19 C16 1_555 1_555
H22 C19 1_555 1_555
H23 C19 1_555 1_555
H24 C19 1_555 1_555
S1 O7 1_555 1_555
O8 S1 1_555 1_555
O9 S1 1_555 1_555
C20 S1 1_555 1_555
F1 C20 1_555 1_555
F2 C20 1_555 1_555
F3 C20 1_555 1_555
N1 C14 1_555 1_555
C5 C6 1_555 1_555

#END
