
#######################################################################
#
#                 Cambridge Crystallographic Data Centre
#                                CCDC 
#
#######################################################################
#
# If this CIF has been generated from an entry in the Cambridge 
# Structural Database, then it will include bibliographic, chemical, 
# crystal, experimental, refinement or atomic coordinate data resulting 
# from the CCDC's data processing and validation procedures.
#
#######################################################################

data_YETKEN
_chemical_name_common            
"5,5':11,11':17,17':23,23'-tetrakis(but-2-ene-1,4-dioxy)-bis(2,8,14,20-tetrakis(phenylethyl)-6,10:12,16:18,20:22,24-O,O'-tetrakis(methylene)calix[4]resorcinarene) toluene clathrate nitrobenzene solvate"
_chemical_formula_moiety         'C144 H128 O24,C7 H8,6(C6 H5 N1 O2)'
_chemical_name_systematic        
"34,47-(Epoxy(2)butenoxy)-20,24:57,61-dimethano-2,52:17,29-dimetheno-3,51,16,30-(methynoxy(2)butynoxymethyno)-8,9,10,11,39,40,41,42-octahydro-1,18,26,28,53,55,63,80-octakis(2-phenylethyl)-1H,18H,26H,53H,55H-bis(1,3)benzodioxocino(9,8-d:9',8'-d')bis(1,3) benzodioxocino(9',10':17,18;10'',9'':25,26)(1,3,6,11,14,16,19,24)octaoxacyclohexacosino(4,5-j:13,12-j')bis(1,3)benzodioxocin toluene clathrate nitrobenzene solvate"
_symmetry_cell_setting           triclinic
_symmetry_space_group_name_H-M   'P -1'
_symmetry_Int_Tables_number      2
_space_group_name_Hall           '-P 1'
loop_
_symmetry_equiv_pos_site_id
_symmetry_equiv_pos_as_xyz
1 x,y,z
2 -x,-y,-z
_cell_length_a                   11.871(1)
_cell_length_b                   17.419(2)
_cell_length_c                   20.145(2)
_cell_angle_alpha                87.263(3)
_cell_angle_beta                 80.698(3)
_cell_angle_gamma                74.951(3)
_cell_volume                     3969.77
_cell_formula_units_Z            1
loop_
_atom_site_label
_atom_site_type_symbol
_atom_site_fract_x
_atom_site_fract_y
_atom_site_fract_z
O13 O 0.1260(11) 0.1258(8) -0.1616(7)
O14 O 0.1383(13) 0.0028(9) -0.1527(7)
N1 N 0.1356(14) 0.0669(11) -0.1261(9)
C73 C 0.1550(10) -0.0022(6) -0.0193(7)
C74 C 0.1555(10) 0.0010(6) 0.0497(7)
C75 C 0.1369(10) 0.0742(6) 0.0806(7)
C76 C 0.1177(10) 0.1441(6) 0.0426(7)
C77 C 0.1172(10) 0.1409(6) -0.0264(7)
C78 C 0.1358(10) 0.0678(6) -0.0574(7)
H65 H 0.1694(10) -0.0588(6) -0.0433(7)
H66 H 0.1704(10) -0.0531(6) 0.0791(7)
H67 H 0.1374(10) 0.0766(6) 0.1341(7)
H68 H 0.1033(10) 0.2007(6) 0.0666(7)
H69 H 0.1023(10) 0.1951(6) -0.0558(7)
C79 C 0.6618(13) 0.9092(6) 0.3084(5)
C80 C 0.7422(13) 0.9513(6) 0.3193(5)
C81 C 0.7135(13) 1.0059(6) 0.3717(5)
C82 C 0.6044(13) 1.0183(6) 0.4132(5)
C83 C 0.5239(13) 0.9762(6) 0.4023(5)
C84 C 0.5526(13) 0.9217(6) 0.3499(5)
H70 H 0.6840(13) 0.8670(6) 0.2678(5)
H71 H 0.8267(13) 0.9417(6) 0.2872(5)
H72 H 0.7758(13) 1.0385(6) 0.3802(5)
H73 H 0.5822(13) 1.0606(6) 0.4538(5)
H74 H 0.4394(13) 0.9859(6) 0.4345(5)
O15 O 0.3850(21) 0.8867(12) 0.3834(11)
O16 O 0.5037(12) 0.8253(9) 0.2983(7)
N2 N 0.4699(20) 0.8729(12) 0.3446(12)
C85 C 0.8002(13) 0.5015(10) 0.4492(6)
C86 C 0.7636(13) 0.5499(10) 0.5059(6)
C87 C 0.8142(13) 0.5273(10) 0.5640(6)
C88 C 0.9014(13) 0.4562(10) 0.5654(6)
C89 C 0.9380(13) 0.4078(10) 0.5087(6)
C90 C 0.8874(13) 0.4304(10) 0.4507(6)
H75 H 0.7610(13) 0.5190(10) 0.4042(6)
H76 H 0.6961(13) 0.6050(10) 0.5048(6)
H77 H 0.7859(13) 0.5648(10) 0.6079(6)
H78 H 0.9406(13) 0.4387(10) 0.6104(6)
H79 H 1.0055(13) 0.3527(10) 0.5099(6)
O17 O 1.004(24) 0.3261(16) 0.4015(13)
O18 O 0.8677(21) 0.4173(15) 0.3524(12)
N3 N 0.9275(31) 0.3656(21) 0.3787(16)
C95 C 0.5230(30) 0.5485(21) 0.0653(13)
C96 C 0.4553(30) 0.5848(21) 0.0165(13)
C97 C 0.5586(30) 0.4602(21) 0.0356(13)
H80 H 0.4141 0.6466 0.0122
H81 H 0.6025 0.4370 0.0748
H82 H 0.5264 0.5912 0.0996
C97A C 0.4414(30) 0.5398(21) -0.0356(13)
C96A C 0.5447(30) 0.4152(21) -0.0165(13)
C95A C 0.4770(30) 0.4515(21) -0.0653(13)
H81A H 0.3975 0.5630 -0.0748
H80A H 0.5859 0.3534 -0.0122
H82A H 0.4736 0.4088 -0.0996
O1 O 0.5471(10) 0.1659(6) 0.0391(6)
C1 C 0.4428(15) 0.2233(10) 0.0647(8)
H1 H 0.4529(15) 0.2812(10) 0.0476(8)
H2 H 0.4325(15) 0.2207(10) 0.1190(8)
O2 O 0.3401(9) 0.2135(6) 0.0454(5)
C2 C 0.3190(13) 0.2497(9) -0.1341(8)
H3 H 0.3636(13) 0.2240(9) -0.1821(8)
C3 C 0.2243(13) 0.3192(9) -0.1317(8)
C4 C 0.1793(14) 0.3505(9) -0.0681(8)
C5 C 0.2137(15) 0.3167(10) -0.0101(8)
C6 C 0.3094(14) 0.2490(9) -0.0141(8)
C7 C 0.3556(13) 0.2149(9) -0.0761(8)
O3 O 0.1443(9) 0.3436(6) 0.0499(6)
C8 C 0.1975(14) 0.3800(9) 0.0959(7)
H4 H 0.2895(14) 0.3747(9) 0.0765(7)
H5 H 0.1517(14) 0.4420(9) 0.1028(7)
C9 C 0.1860(13) 0.3381(10) 0.1625(8)
H6 H 0.2060(13) 0.2741(10) 0.1598(8)
C10 C 0.1543(14) 0.3696(10) 0.2234(9)
H7 H 0.1551(14) 0.3298(10) 0.2662(9)
C11 C 0.1165(15) 0.4584(10) 0.2381(8)
H8 H 0.1279(15) 0.4689(10) 0.2887(8)
H9 H 0.0247(15) 0.4807(10) 0.2327(8)
O4 O 0.1861(10) 0.4997(7) 0.1913(6)
O5 O 0.0793(9) 0.4196(6) -0.0619(5)
C12 C 0.1120(14) 0.4935(9) -0.0752(8)
H10 H 0.1999(14) 0.4862(9) -0.0637(8)
H11 H 0.0505(14) 0.5387(9) -0.0432(8)
O6 O 0.1104(9) 0.5187(6) -0.1422(5)
C13 C 0.3563(14) 0.4052(9) -0.2611(7)
H12 H 0.3870(14) 0.3472(9) -0.2841(7)
C14 C 0.4239(14) 0.4599(10) -0.2790(8)
C15 C 0.3844(16) 0.5347(11) -0.2473(9)
C16 C 0.2819(16) 0.5513(11) -0.2022(9)
C17 C 0.2140(15) 0.4979(10) -0.1859(8)
C18 C 0.2523(14) 0.4202(10) -0.2151(8)
O7 O 0.2517(10) 0.6237(7) -0.1680(5)
C19 C 0.1538(19) 0.6803(13) -0.1845(11)
H13 H 0.1354(19) 0.6659(13) -0.2325(11)
H14 H 0.0787(19) 0.6801(13) -0.1462(11)
C20 C 0.1748(15) 0.7616(11) -0.1867(10)
H15 H 0.1787(15) 0.7914(11) -0.2350(10)
C21 C 0.1890(15) 0.7979(11) -0.1341(10)
H16 H 0.2109(15) 0.8540(11) -0.1459(10)
C22 C 0.1816(22) 0.7780(14) -0.0611(12)
H17 H 0.1565(22) 0.7225(14) -0.0540(12)
H18 H 0.1154(22) 0.8239(14) -0.0322(12)
O8 O 0.2805(14) 0.7702(8) -0.0419(8)
O9 O 0.4439(11) 0.5929(7) -0.2654(6)
C23 C 0.5430(15) 0.5913(10) -0.2359(9)
H19 H 0.5492(15) 0.6514(10) -0.2304(9)
H20 H 0.5350(15) 0.5632(10) -0.1869(9)
O10 O 0.6490(10) 0.5467(7) -0.2776(5)
C24 C 0.3151(14) 0.6686(10) 0.2700(8)
H21 H 0.3518(14) 0.7130(10) 0.2876(8)
C25 C 0.2278(15) 0.6935(10) 0.2306(8)
C26 C 0.1816(16) 0.6358(11) 0.2043(9)
C27 C 0.2269(16) 0.5589(12) 0.2183(9)
C28 C 0.6898(16) 0.4661(11) -0.2581(9)
C29 C 0.3601(15) 0.5886(10) 0.2885(8)
O11 O 0.0978(10) 0.6568(6) 0.1630(6)
C30 C 0.1327(14) 0.6678(10) 0.0953(8)
H22 H 0.0756(14) 0.6482(10) 0.0669(8)
H23 H 0.2225(14) 0.6333(10) 0.0810(8)
O12 O 0.1258(10) 0.7506(7) 0.0807(6)
C31 C 0.6439(13) 0.1770(8) -0.1407(8)
H24 H 0.6183(13) 0.1652(8) -0.1875(8)
C32 C 0.5777(13) 0.1652(8) -0.0828(8)
C33 C 0.6079(14) 0.1798(9) -0.0221(8)
C34 C 0.2895(16) 0.7912(10) 0.0238(10)
C35 C 0.2277(16) 0.7779(9) 0.0829(9)
C36 C 0.7453(15) 0.2046(9) -0.1426(9)
C37 C 0.1842(15) 0.7790(9) 0.2071(8)
H25 H 0.0960(15) 0.7885(9) 0.1953(8)
C38 C 0.1717(15) 0.8380(10) 0.2663(8)
H26 H 0.1247(15) 0.8185(10) 0.3117(8)
H27 H 0.2587(15) 0.8395(10) 0.2747(8)
C39 C 0.1057(17) 0.9206(11) 0.2466(9)
H28 H 0.0242(17) 0.9163(11) 0.2317(9)
H29 H 0.1589(17) 0.9417(11) 0.2046(9)
C40 C 0.0123(11) 1.0586(9) 0.2893(5)
C41 C -0.0132(11) 1.1187(9) 0.3369(5)
C42 C 0.0240(11) 1.1022(9) 0.3995(5)
C43 C 0.0866(11) 1.0255(9) 0.4145(5)
C44 C 0.1121(11) 0.9654(9) 0.3669(5)
C45 C 0.0750(11) 0.9819(9) 0.3043(5)
H30 H -0.0165(11) 1.0713(9) 0.2409(5)
H31 H -0.0617(11) 1.1780(9) 0.3253(5)
H32 H 0.0042(11) 1.1487(9) 0.4364(5)
H33 H 0.1154(11) 1.0127(9) 0.4629(5)
H34 H 0.1607(11) 0.9060(9) 0.3785(5)
C46 C 0.5392(14) 0.4396(10) -0.3274(8)
H35 H 0.5538(14) 0.4921(10) -0.3543(8)
C47 C 0.5349(14) 0.3829(9) -0.3834(8)
H36 H 0.4555(14) 0.4059(9) -0.4054(8)
H37 H 0.5355(14) 0.3247(9) -0.3623(8)
C48 C 0.6399(17) 0.3779(11) -0.4359(9)
H38 H 0.6414(17) 0.4371(11) -0.4539(9)
H39 H 0.7183(17) 0.3518(11) -0.4138(9)
C49 C 0.7014(12) 0.2474(11) -0.4931(7)
C50 C 0.7025(12) 0.1959(11) -0.5443(7)
C51 C 0.6408(12) 0.2239(11) -0.5976(7)
C52 C 0.5780(12) 0.3035(11) -0.5997(7)
C53 C 0.5769(12) 0.3550(11) -0.5486(7)
C54 C 0.6386(12) 0.3270(11) -0.4953(7)
H40 H 0.7492(12) 0.2257(11) -0.4519(7)
H41 H 0.7512(12) 0.1343(11) -0.5427(7)
H42 H 0.6417(12) 0.1840(11) -0.6372(7)
H43 H 0.5302(12) 0.3252(11) -0.6410(7)
H44 H 0.5282(12) 0.4166(11) -0.5502(7)
C55 C 0.1830(14) 0.3596(9) -0.1929(7)
H45 H 0.0905(14) 0.3897(9) -0.1809(7)
C56 C 0.1864(14) 0.3023(9) -0.2491(7)
H46 H 0.1407(14) 0.2584(9) -0.2283(7)
H47 H 0.2776(14) 0.2733(9) -0.2672(7)
C57 C 0.1298(14) 0.3432(9) -0.3093(7)
H48 H 0.1642(14) 0.3941(9) -0.3245(7)
H49 H 0.0355(14) 0.3628(9) -0.2936(7)
C58 C 0.0695(9) 0.2499(8) -0.3792(6)
C59 C 0.0931(9) 0.1976(8) -0.4330(6)
C60 C 0.2009(9) 0.1843(8) -0.4759(6)
C61 C 0.2850(9) 0.2234(8) -0.4651(6)
C62 C 0.2614(9) 0.2757(8) -0.4112(6)
C63 C 0.1537(9) 0.2889(8) -0.3683(6)
H50 H -0.0139(9) 0.2601(8) -0.3459(6)
H51 H 0.0280(9) 0.1673(8) -0.4414(6)
H52 H 0.2192(9) 0.1439(8) -0.5176(6)
H53 H 0.3685(9) 0.2131(8) -0.4983(6)
H54 H 0.3266(9) 0.3059(8) -0.4028(6)
C64 C 0.4615(13) 0.1399(9) -0.0790(8)
H55 H 0.4510(13) 0.1059(9) -0.0332(8)
C65 C 0.4638(13) 0.0826(8) -0.1359(7)
H56 H 0.4933(13) 0.1076(8) -0.1837(7)
H57 H 0.3756(13) 0.0760(8) -0.1353(7)
C66 C 0.5470(14) 0.0001(9) -0.1267(8)
H58 H 0.5132(14) -0.0268(9) -0.0809(8)
H59 H 0.6334(14) 0.0074(9) -0.1231(8)
C67 C 0.4671(9) -0.0891(7) -0.1916(6)
C68 C 0.4786(9) -0.1405(7) -0.2449(6)
C69 C 0.5810(9) -0.1565(7) -0.2924(6)
C70 C 0.6721(9) -0.1214(7) -0.2865(6)
C71 C 0.6607(9) -0.0703(7) -0.2332(6)
C72 C 0.5582(9) -0.0543(7) -0.1857(6)
H60 H 0.3878(9) -0.0770(7) -0.1548(6)
H61 H 0.4081(9) -0.1676(7) -0.2494(6)
H62 H 0.5899(9) -0.1961(7) -0.3337(6)
H63 H 0.7514(9) -0.1338(7) -0.3233(6)
H64 H 0.7311(9) -0.0432(7) -0.2287(6)
C28A C 0.3102(16) 0.5339(11) 0.2581(9)
C27A C 0.7731(16) 0.4411(12) -0.2183(9)
C29A C 0.6399(15) 0.4114(10) -0.2885(8)
C46A C 0.4608(14) 0.5604(10) 0.3274(8)
C34A C 0.7105(16) 0.2088(10) -0.0238(10)
C33A C 0.3921(14) 0.8202(9) 0.0221(8)
C36A C 0.2547(15) 0.7954(9) 0.1426(9)
C35A C 0.7723(16) 0.2221(9) -0.0829(9)
C37A C 0.8158(15) 0.2210(9) -0.2071(8)
O10A O 0.3510(10) 0.4533(7) 0.2776(5)
O4A O 0.8139(10) 0.5003(7) -0.1913(6)
C26A C 0.8184(16) 0.3642(11) -0.2043(9)
C24A C 0.6849(14) 0.3314(10) -0.2700(8)
C14A C 0.5761(14) 0.5401(10) 0.2790(8)
H35A H 0.4462(14) 0.5079(10) 0.3543(8)
C47A C 0.4651(14) 0.6171(9) 0.3834(8)
O8A O 0.7195(14) 0.2298(8) 0.0419(8)
O1A O 0.4529(10) 0.8341(6) -0.0391(6)
C32A C 0.4223(13) 0.8348(8) 0.0828(8)
C31A C 0.3561(13) 0.8230(8) 0.1407(8)
O12A O 0.8742(10) 0.2494(7) -0.0807(6)
C25A C 0.7722(15) 0.3065(10) -0.2306(8)
H25A H 0.9040(15) 0.2115(9) -0.1953(8)
C38A C 0.8283(15) 0.1620(10) -0.2663(8)
C23A C 0.4570(15) 0.4087(10) 0.2359(9)
C11A C 0.8835(15) 0.5416(10) -0.2381(8)
O11A O 0.9022(10) 0.3432(6) -0.1630(6)
H21A H 0.6482(14) 0.2870(10) -0.2876(8)
C13A C 0.6437(14) 0.5948(9) 0.2611(7)
C15A C 0.6156(16) 0.4653(11) 0.2473(9)
H36A H 0.5445(14) 0.5941(9) 0.4054(8)
H37A H 0.4645(14) 0.6753(9) 0.3623(8)
C48A C 0.3601(17) 0.6221(11) 0.4359(9)
C22A C 0.8184(22) 0.2220(14) 0.0611(12)
C1A C 0.5572(15) 0.7767(10) -0.0647(8)
C64A C 0.5385(13) 0.8601(9) 0.0790(8)
H24A H 0.3817(13) 0.8348(8) 0.1875(8)
C30A C 0.8673(14) 0.3322(10) -0.0953(8)
H26A H 0.8753(15) 0.1815(10) -0.3117(8)
H27A H 0.7413(15) 0.1605(10) -0.2747(8)
C39A C 0.8943(17) 0.0794(11) -0.2466(9)
O9A O 0.5561(11) 0.4071(7) 0.2654(6)
H19A H 0.4508(15) 0.3486(10) 0.2304(9)
H20A H 0.4650(15) 0.4368(10) 0.1869(9)
C10A C 0.8457(14) 0.6304(10) -0.2234(9)
H8A H 0.8721(15) 0.5311(10) -0.2887(8)
H9A H 0.9753(15) 0.5193(10) -0.2327(8)
H12A H 0.6130(14) 0.6528(9) 0.2841(7)
C18A C 0.7477(14) 0.5798(10) 0.2151(8)
C16A C 0.7181(16) 0.4487(11) 0.2022(9)
H38A H 0.3586(17) 0.5629(11) 0.4539(9)
H39A H 0.2817(17) 0.6482(11) 0.4138(9)
C54A C 0.3614(12) 0.6730(11) 0.4953(7)
C21A C 0.8110(15) 0.2021(11) 0.1341(10)
H17A H 0.8435(22) 0.2775(14) 0.0540(12)
H18A H 0.8846(22) 0.1761(14) 0.0322(12)
H1A H 0.5471(15) 0.7188(10) -0.0476(8)
H2A H 0.5675(15) 0.7793(10) -0.1190(8)
O2A O 0.6599(9) 0.7865(6) -0.0454(5)
C7A C 0.6444(13) 0.7851(9) 0.0761(8)
H55A H 0.5490(13) 0.8941(9) 0.0332(8)
C65A C 0.5362(13) 0.9174(8) 0.1359(7)
H22A H 0.9244(14) 0.3518(10) -0.0669(8)
H23A H 0.7775(14) 0.3667(10) -0.0810(8)
H28A H 0.9758(17) 0.0837(11) -0.2317(9)
H29A H 0.8411(17) 0.0583(11) -0.2046(9)
C45A C 0.9250(11) 0.0181(9) -0.3043(5)
C9A C 0.8140(13) 0.6619(10) -0.1625(8)
H7A H 0.8449(14) 0.6702(10) -0.2662(9)
C17A C 0.7860(15) 0.5021(10) 0.1859(8)
C55A C 0.8170(14) 0.6404(9) 0.1929(7)
O7A O 0.7483(10) 0.3763(7) 0.1680(5)
C49A C 0.2986(12) 0.7526(11) 0.4931(7)
C53A C 0.4231(12) 0.6450(11) 0.5486(7)
C20A C 0.8252(15) 0.2384(11) 0.1867(10)
H16A H 0.7891(15) 0.1460(11) 0.1459(10)
C6A C 0.6906(14) 0.7510(9) 0.0141(8)
C2A C 0.6810(13) 0.7503(9) 0.1341(8)
H56A H 0.5067(13) 0.8924(8) 0.1837(7)
H57A H 0.6244(13) 0.9240(8) 0.1353(7)
C66A C 0.4530(14) 0.9999(9) 0.1267(8)
C40A C 0.9877(11) -0.0586(9) -0.2893(5)
C44A C 0.8879(11) 0.0346(9) -0.3669(5)
C8A C 0.8025(14) 0.6200(9) -0.0959(7)
H6A H 0.7940(13) 0.7259(10) -0.1598(8)
O6A O 0.8896(9) 0.4813(6) 0.1422(5)
C3A C 0.7757(13) 0.6808(9) 0.1317(8)
H45A H 0.9095(14) 0.6103(9) 0.1809(7)
C56A C 0.8136(14) 0.6977(9) 0.2491(7)
C19A C 0.8462(19) 0.3197(13) 0.1845(11)
C50A C 0.2975(12) 0.8041(11) 0.5443(7)
H40A H 0.2508(12) 0.7743(11) 0.4519(7)
C52A C 0.4220(12) 0.6965(11) 0.5997(7)
H44A H 0.4718(12) 0.5834(11) 0.5502(7)
H15A H 0.8213(15) 0.2086(11) 0.2350(10)
C5A C 0.7863(15) 0.6833(10) 0.0101(8)
H3A H 0.6364(13) 0.7760(9) 0.1821(8)
H58A H 0.4868(14) 1.0268(9) 0.0809(8)
H59A H 0.3666(14) 0.9926(9) 0.1231(8)
C72A C 0.4418(9) 1.0543(7) 0.1857(6)
C41A C 1.0132(11) -0.1187(9) -0.3369(5)
H30A H 1.0165(11) -0.0713(9) -0.2409(5)
C43A C 0.9134(11) -0.0255(9) -0.4145(5)
H34A H 0.8393(11) 0.0940(9) -0.3785(5)
O3A O 0.8557(9) 0.6564(6) -0.0499(6)
H4A H 0.7105(14) 0.6253(9) -0.0765(7)
H5A H 0.8483(14) 0.5580(9) -0.1028(7)
C12A C 0.8880(14) 0.5065(9) 0.0752(8)
C4A C 0.8207(14) 0.6495(9) 0.0681(8)
H46A H 0.8593(14) 0.7416(9) 0.2283(7)
H47A H 0.7224(14) 0.7267(9) 0.2672(7)
C57A C 0.8702(14) 0.6568(9) 0.3093(7)
H13A H 0.8646(19) 0.3341(13) 0.2325(11)
H14A H 0.9213(19) 0.3199(13) 0.1462(11)
C51A C 0.3592(12) 0.7761(11) 0.5976(7)
H41A H 0.2488(12) 0.8657(11) 0.5427(7)
H43A H 0.4698(12) 0.6748(11) 0.6410(7)
C67A C 0.5329(9) 1.0891(7) 0.1916(6)
C71A C 0.3393(9) 1.0703(7) 0.2332(6)
C42A C 0.9760(11) -0.1022(9) -0.3995(5)
H31A H 1.0617(11) -0.1780(9) -0.3253(5)
H33A H 0.8846(11) -0.0127(9) -0.4629(5)
O5A O 0.9207(9) 0.5804(6) 0.0619(5)
H10A H 0.8001(14) 0.5138(9) 0.0637(8)
H11A H 0.9495(14) 0.4613(9) 0.0432(8)
H48A H 0.8358(14) 0.6059(9) 0.3245(7)
H49A H 0.9645(14) 0.6372(9) 0.2936(7)
C63A C 0.8463(9) 0.7111(8) 0.3683(6)
H42A H 0.3583(12) 0.8160(11) 0.6372(7)
C68A C 0.5214(9) 1.1405(7) 0.2449(6)
H60A H 0.6122(9) 1.0770(7) 0.1548(6)
C70A C 0.3279(9) 1.1214(7) 0.2865(6)
H64A H 0.2689(9) 1.0432(7) 0.2287(6)
H32A H 0.9958(11) -0.1487(9) -0.4364(5)
C58A C 0.9305(9) 0.7501(8) 0.3792(6)
C62A C 0.7386(9) 0.7243(8) 0.4112(6)
C69A C 0.4190(9) 1.1565(7) 0.2924(6)
H61A H 0.5919(9) 1.1676(7) 0.2494(6)
H63A H 0.2486(9) 1.1338(7) 0.3233(6)
C59A C 0.9069(9) 0.8024(8) 0.4330(6)
H50A H 1.0139(9) 0.7399(8) 0.3459(6)
C61A C 0.7150(9) 0.7766(8) 0.4651(6)
H54A H 0.6734(9) 0.6941(8) 0.4028(6)
H62A H 0.4101(9) 1.1961(7) 0.3337(6)
C60A C 0.7991(9) 0.8157(8) 0.4759(6)
H51A H 0.9720(9) 0.8327(8) 0.4414(6)
H53A H 0.6315(9) 0.7869(8) 0.4983(6)
H52A H 0.7808(9) 0.8561(8) 0.5176(6)
C91? C 0.5079(29) 0.5970(21) 0.0893(17)
C92? C 0.5047(30) 0.5416(21) 0.0389(13)
C93? C 0.4369(30) 0.5779(21) -0.0099(13)
C94? C 0.5769(30) 0.4671(21) 0.0620(13)
H83? H 0.3946 0.6316 -0.0131
H84? H 0.6220 0.4520 0.1000
H85? H 0.4925 0.5796 0.1320
H86? H 0.4517 0.6515 0.0913
H87? H 0.5906 0.6052 0.0899
loop_
_geom_bond_atom_site_label_1
_geom_bond_atom_site_label_2
_geom_bond_site_symmetry_1
_geom_bond_site_symmetry_2
O1 C1 1_555 1_555
C1 H1 1_555 1_555
H2 C1 1_555 1_555
O2 C1 1_555 1_555
C2 H3 1_555 1_555
C3 C2 1_555 1_555
C4 C3 1_555 1_555
C5 C4 1_555 1_555
C6 O2 1_555 1_555
C7 C2 1_555 1_555
O3 C5 1_555 1_555
C8 O3 1_555 1_555
H4 C8 1_555 1_555
H5 C8 1_555 1_555
C9 C8 1_555 1_555
H6 C9 1_555 1_555
C10 C9 1_555 1_555
H7 C10 1_555 1_555
C11 C10 1_555 1_555
H8 C11 1_555 1_555
H9 C11 1_555 1_555
O4 C11 1_555 1_555
O5 C4 1_555 1_555
C12 O5 1_555 1_555
H10 C12 1_555 1_555
H11 C12 1_555 1_555
O6 C12 1_555 1_555
C13 H12 1_555 1_555
C14 C13 1_555 1_555
C15 C14 1_555 1_555
C16 C15 1_555 1_555
C17 O6 1_555 1_555
C18 C13 1_555 1_555
O7 C16 1_555 1_555
C19 O7 1_555 1_555
H13 C19 1_555 1_555
H14 C19 1_555 1_555
C20 C19 1_555 1_555
H15 C20 1_555 1_555
C21 C20 1_555 1_555
H16 C21 1_555 1_555
C22 C21 1_555 1_555
H17 C22 1_555 1_555
H18 C22 1_555 1_555
O8 C22 1_555 1_555
O9 C15 1_555 1_555
C23 O9 1_555 1_555
H19 C23 1_555 1_555
H20 C23 1_555 1_555
O10 C23 1_555 1_555
C24 H21 1_555 1_555
C25 C24 1_555 1_555
C26 C25 1_555 1_555
C27 O4 1_555 1_555
C28 O10 1_555 1_555
C29 C24 1_555 1_555
O11 C26 1_555 1_555
C30 O11 1_555 1_555
H22 C30 1_555 1_555
H23 C30 1_555 1_555
O12 C30 1_555 1_555
C31 H24 1_555 1_555
C32 C31 1_555 1_555
C33 O1 1_555 1_555
C34 O8 1_555 1_555
C35 O12 1_555 1_555
C36 C31 1_555 1_555
C37 C25 1_555 1_555
H25 C37 1_555 1_555
C38 C37 1_555 1_555
H26 C38 1_555 1_555
H27 C38 1_555 1_555
C39 C38 1_555 1_555
H28 C39 1_555 1_555
H29 C39 1_555 1_555
C40 C41 1_555 1_555
C41 C42 1_555 1_555
C42 C43 1_555 1_555
C43 C44 1_555 1_555
C44 C45 1_555 1_555
C45 C39 1_555 1_555
H30 C40 1_555 1_555
H31 C41 1_555 1_555
H32 C42 1_555 1_555
H33 C43 1_555 1_555
H34 C44 1_555 1_555
C46 C14 1_555 1_555
H35 C46 1_555 1_555
C47 C46 1_555 1_555
H36 C47 1_555 1_555
H37 C47 1_555 1_555
C48 C47 1_555 1_555
H38 C48 1_555 1_555
H39 C48 1_555 1_555
C49 C50 1_555 1_555
C50 C51 1_555 1_555
C51 C52 1_555 1_555
C52 C53 1_555 1_555
C53 C54 1_555 1_555
C54 C48 1_555 1_555
H40 C49 1_555 1_555
H41 C50 1_555 1_555
H42 C51 1_555 1_555
H43 C52 1_555 1_555
H44 C53 1_555 1_555
C55 C3 1_555 1_555
H45 C55 1_555 1_555
C56 C55 1_555 1_555
H46 C56 1_555 1_555
H47 C56 1_555 1_555
C57 C56 1_555 1_555
H48 C57 1_555 1_555
H49 C57 1_555 1_555
C58 C59 1_555 1_555
C59 C60 1_555 1_555
C60 C61 1_555 1_555
C61 C62 1_555 1_555
C62 C63 1_555 1_555
C63 C57 1_555 1_555
H50 C58 1_555 1_555
H51 C59 1_555 1_555
H52 C60 1_555 1_555
H53 C61 1_555 1_555
H54 C62 1_555 1_555
C64 C7 1_555 1_555
H55 C64 1_555 1_555
C65 C64 1_555 1_555
H56 C65 1_555 1_555
H57 C65 1_555 1_555
C66 C65 1_555 1_555
H58 C66 1_555 1_555
H59 C66 1_555 1_555
C67 C68 1_555 1_555
C68 C69 1_555 1_555
C69 C70 1_555 1_555
C70 C71 1_555 1_555
C71 C72 1_555 1_555
C72 C66 1_555 1_555
H60 C67 1_555 1_555
H61 C68 1_555 1_555
H62 C69 1_555 1_555
H63 C70 1_555 1_555
H64 C71 1_555 1_555
O13 N1 1_555 1_555
O14 N1 1_555 1_555
N1 C78 1_555 1_555
C73 C74 1_555 1_555
C74 C75 1_555 1_555
C75 C76 1_555 1_555
C76 C77 1_555 1_555
C77 C78 1_555 1_555
C78 C73 1_555 1_555
H65 C73 1_555 1_555
H66 C74 1_555 1_555
H67 C75 1_555 1_555
H68 C76 1_555 1_555
H69 C77 1_555 1_555
C79 C80 1_555 1_555
C80 C81 1_555 1_555
C81 C82 1_555 1_555
C82 C83 1_555 1_555
C83 C84 1_555 1_555
C84 C79 1_555 1_555
H70 C79 1_555 1_555
H71 C80 1_555 1_555
H72 C81 1_555 1_555
H73 C82 1_555 1_555
H74 C83 1_555 1_555
O15 N2 1_555 1_555
O16 N2 1_555 1_555
N2 C84 1_555 1_555
C85 C86 1_555 1_555
C86 C87 1_555 1_555
C87 C88 1_555 1_555
C88 C89 1_555 1_555
C89 C90 1_555 1_555
C90 C85 1_555 1_555
H75 C85 1_555 1_555
H76 C86 1_555 1_555
H77 C87 1_555 1_555
H78 C88 1_555 1_555
H79 C89 1_555 1_555
O17 N3 1_555 1_555
O18 N3 1_555 1_555
N3 C90 1_555 1_555
C95 C96 1_555 1_555
C96 H80 1_555 1_555
C97 C95 1_555 1_555
H81 C97 1_555 1_555
H82 C95 1_555 1_555
C28A C27 1_555 1_555
C27A C28 1_555 1_555
C29A C28 1_555 1_555
C46A C29 1_555 1_555
C34A C33 1_555 1_555
C33A C34 1_555 1_555
C36A C35 1_555 1_555
C35A C36 1_555 1_555
C37A C36 1_555 1_555
O10A C28A 1_555 1_555
O4A C27A 1_555 1_555
C26A C27A 1_555 1_555
C24A C29A 1_555 1_555
C14A C46A 1_555 1_555
H35A C46A 1_555 1_555
C47A C46A 1_555 1_555
O8A C34A 1_555 1_555
O1A C33A 1_555 1_555
C32A C33A 1_555 1_555
C31A C36A 1_555 1_555
O12A C35A 1_555 1_555
C25A C37A 1_555 1_555
H25A C37A 1_555 1_555
C38A C37A 1_555 1_555
C23A O10A 1_555 1_555
C11A O4A 1_555 1_555
O11A C26A 1_555 1_555
H21A C24A 1_555 1_555
C13A C14A 1_555 1_555
C15A C14A 1_555 1_555
H36A C47A 1_555 1_555
H37A C47A 1_555 1_555
C48A C47A 1_555 1_555
C22A O8A 1_555 1_555
C1A O1A 1_555 1_555
C64A C32A 1_555 1_555
H24A C31A 1_555 1_555
C30A O12A 1_555 1_555
H26A C38A 1_555 1_555
H27A C38A 1_555 1_555
C39A C38A 1_555 1_555
O9A C23A 1_555 1_555
H19A C23A 1_555 1_555
H20A C23A 1_555 1_555
C10A C11A 1_555 1_555
H8A C11A 1_555 1_555
H9A C11A 1_555 1_555
H12A C13A 1_555 1_555
C18A C13A 1_555 1_555
C16A C15A 1_555 1_555
H38A C48A 1_555 1_555
H39A C48A 1_555 1_555
C54A C48A 1_555 1_555
C21A C22A 1_555 1_555
H17A C22A 1_555 1_555
H18A C22A 1_555 1_555
H1A C1A 1_555 1_555
H2A C1A 1_555 1_555
O2A C1A 1_555 1_555
C7A C64A 1_555 1_555
H55A C64A 1_555 1_555
C65A C64A 1_555 1_555
H22A C30A 1_555 1_555
H23A C30A 1_555 1_555
H28A C39A 1_555 1_555
H29A C39A 1_555 1_555
C45A C39A 1_555 1_555
C9A C10A 1_555 1_555
H7A C10A 1_555 1_555
C17A C18A 1_555 1_555
C55A C18A 1_555 1_555
O7A C16A 1_555 1_555
C49A C54A 1_555 1_555
C53A C54A 1_555 1_555
C20A C21A 1_555 1_555
H16A C21A 1_555 1_555
C6A O2A 1_555 1_555
C2A C7A 1_555 1_555
H56A C65A 1_555 1_555
H57A C65A 1_555 1_555
C66A C65A 1_555 1_555
C40A C45A 1_555 1_555
C44A C45A 1_555 1_555
C8A C9A 1_555 1_555
H6A C9A 1_555 1_555
O6A C17A 1_555 1_555
C3A C55A 1_555 1_555
H45A C55A 1_555 1_555
C56A C55A 1_555 1_555
C19A O7A 1_555 1_555
C50A C49A 1_555 1_555
H40A C49A 1_555 1_555
C52A C53A 1_555 1_555
H44A C53A 1_555 1_555
H15A C20A 1_555 1_555
C5A C6A 1_555 1_555
H3A C2A 1_555 1_555
H58A C66A 1_555 1_555
H59A C66A 1_555 1_555
C72A C66A 1_555 1_555
C41A C40A 1_555 1_555
H30A C40A 1_555 1_555
C43A C44A 1_555 1_555
H34A C44A 1_555 1_555
O3A C8A 1_555 1_555
H4A C8A 1_555 1_555
H5A C8A 1_555 1_555
C12A O6A 1_555 1_555
C4A C3A 1_555 1_555
H46A C56A 1_555 1_555
H47A C56A 1_555 1_555
C57A C56A 1_555 1_555
H13A C19A 1_555 1_555
H14A C19A 1_555 1_555
C51A C50A 1_555 1_555
H41A C50A 1_555 1_555
H43A C52A 1_555 1_555
C67A C72A 1_555 1_555
C71A C72A 1_555 1_555
C42A C41A 1_555 1_555
H31A C41A 1_555 1_555
H33A C43A 1_555 1_555
O5A C12A 1_555 1_555
H10A C12A 1_555 1_555
H11A C12A 1_555 1_555
H48A C57A 1_555 1_555
H49A C57A 1_555 1_555
C63A C57A 1_555 1_555
H42A C51A 1_555 1_555
C68A C67A 1_555 1_555
H60A C67A 1_555 1_555
C70A C71A 1_555 1_555
H64A C71A 1_555 1_555
H32A C42A 1_555 1_555
C58A C63A 1_555 1_555
C62A C63A 1_555 1_555
C69A C68A 1_555 1_555
H61A C68A 1_555 1_555
H63A C70A 1_555 1_555
C59A C58A 1_555 1_555
H50A C58A 1_555 1_555
C61A C62A 1_555 1_555
H54A C62A 1_555 1_555
H62A C69A 1_555 1_555
C60A C59A 1_555 1_555
H51A C59A 1_555 1_555
H53A C61A 1_555 1_555
H52A C60A 1_555 1_555
C97A C96 1_555 1_555
C96A C97 1_555 1_555
C95A C97A 1_555 1_555
H81A C97A 1_555 1_555
H80A C96A 1_555 1_555
H82A C95A 1_555 1_555
C5 C6 1_555 1_555
C6 C7 1_555 1_555
C16 C17 1_555 1_555
C17 C18 1_555 1_555
C18 C55 1_555 1_555
C26 C27 1_555 1_555
C29 C28A 1_555 1_555
C32 C33 1_555 1_555
C32 C64 1_555 1_555
C34 C35 1_555 1_555
C37 C36A 1_555 1_555
C40 C45 1_555 1_555
C46 C29A 1_555 1_555
C49 C54 1_555 1_555
C58 C63 1_555 1_555
C67 C72 1_555 1_555
C34A C35A 1_555 1_555
C26A C25A 1_555 1_555
C24A C25A 1_555 1_555
C32A C31A 1_555 1_555
O11A C30A 1_555 1_555
C15A O9A 1_555 1_555
C16A C17A 1_555 1_555
C7A C6A 1_555 1_555
C20A C19A 1_555 1_555
C2A C3A 1_555 1_555
C52A C51A 1_555 1_555
C5A C4A 1_555 1_555
C5A O3A 1_555 1_555
C43A C42A 1_555 1_555
C4A O5A 1_555 1_555
C70A C69A 1_555 1_555
C61A C60A 1_555 1_555
C96A C95A 1_555 1_555

#END
