
#######################################################################
#
#                 Cambridge Crystallographic Data Centre
#                                CCDC 
#
#######################################################################
#
# If this CIF has been generated from an entry in the Cambridge 
# Structural Database, then it will include bibliographic, chemical, 
# crystal, experimental, refinement or atomic coordinate data resulting 
# from the CCDC's data processing and validation procedures.
#
#######################################################################

data_YETKAJ
_chemical_name_common            
"5,5':11,11':17,17':23,23'-tetrakis(but-2-yne-1,4-dioxy)-bis(2,8,14,20-tetrakis(phenylethyl)-6,10:12,16:18,20:22,24-O,O'-tetrakis(methylene)calix[4]resorcinarene) tetrachloroethane clathrate nitrobenzene solvate"
_chemical_formula_moiety         'C144 H120 O24,C2 H2 Cl4,4(C6 H5 N1 O2)'
_chemical_name_systematic        
"34,47-(Epoxy(2)butynoxy)-20,24:57,61-dimethano-2,52:17,29-dimetheno-3,51,16,30-(methynoxy(2)butynoxymethyno)-8,9,10,11,39,40,41,42-octahydro-1,18,26,28,53,55,63,80-octakis(2-phenylethyl)-1H,18H,26H,28H,53H,55H-bis(1,3)benzodioxocino(9,8-d:9',8'-d')bis(1,3)benzodioxocino(9',10':17,18;10'',9'':25,26)(1,3,6,11,14,16,19,24)octaoxacyclohexacosino(4,5-j:13,12-j')bis(1,3)benzodioxocin tetrachloroethane clathrate nitrobenzene solvate"
_symmetry_cell_setting           monoclinic
_symmetry_space_group_name_H-M   'C 2/c'
_symmetry_Int_Tables_number      15
_space_group_name_Hall           '-C 2yn'
loop_
_symmetry_equiv_pos_site_id
_symmetry_equiv_pos_as_xyz
1 x,y,z
2 -x,y,1/2-z
3 1/2+x,1/2+y,z
4 1/2-x,1/2+y,1/2-z
5 -x,-y,-z
6 x,-y,1/2+z
7 1/2-x,1/2-y,-z
8 1/2+x,1/2-y,1/2+z
_cell_length_a                   25.786(2)
_cell_length_b                   19.862(2)
_cell_length_c                   29.240(3)
_cell_angle_alpha                90
_cell_angle_beta                 94.956(3)
_cell_angle_gamma                90
_cell_volume                     14919.6
_exptl_crystal_colour            colorless
_cell_formula_units_Z            4
loop_
_atom_site_label
_atom_site_type_symbol
_atom_site_fract_x
_atom_site_fract_y
_atom_site_fract_z
C3 C 1.3418(8) -0.1318(13) 0.7626(7)
C4 C 1.3773(8) -0.1631(13) 0.7945(7)
C5 C 1.4127(8) -0.1244(13) 0.8221(7)
C6 C 1.4126(8) -0.0545(13) 0.8177(7)
C7 C 1.3772(8) -0.0232(13) 0.7857(7)
C8 C 1.3418(8) -0.0619(13) 0.7582(7)
H1 H 1.3144(8) -0.1618(13) 0.7412(7)
H2 H 1.3773(8) -0.2172(13) 0.7979(7)
H3 H 1.4401(8) -0.1486(13) 0.8468(7)
H4 H 1.4401(8) -0.0245(13) 0.8390(7)
H5 H 1.3772(8) 0.0310(13) 0.7823(7)
N1 N 1.2897(13) -0.0465(20) 0.7124(11)
O1 O 1.3141(12) 0.0147(16) 0.7171(10)
O2 O 1.2784(16) -0.0904(22) 0.7127(14)
C9 C 1.4199(10) 0.0247(11) 0.5166(8)
C10 C 1.3750(10) 0.0265(11) 0.4863(8)
C11 C 1.3510(10) -0.0334(11) 0.4713(8)
C12 C 1.3718(10) -0.0951(11) 0.4866(8)
C13 C 1.4166(10) -0.0969(11) 0.5168(8)
C14 C 1.4407(10) -0.0370(11) 0.5319(8)
H6 H 1.4385(10) 0.0711(11) 0.5283(8)
H7 H 1.3589(10) 0.0742(11) 0.4745(8)
H8 H 1.3163(10) -0.0321(11) 0.4478(8)
H9 H 1.3532(10) -0.1415(11) 0.4749(8)
H10 H 1.4327(10) -0.1446(11) 0.5287(8)
N2 N 1.4987(13) -0.0552(22) 0.5698(12)
O3 O 1.4881(17) -0.1167(24) 0.5638(15)
O4 O 1.5012(14) 0.0191(20) 0.5716(12)
C15 C 1.2297(9) -0.0759(8) 0.8298(6)
C16 C 1.2751(9) -0.0831(8) 0.8590(6)
C17 C 1.2843(9) -0.1428(8) 0.8836(6)
C18 C 1.2482(9) -0.1951(8) 0.8789(6)
C19 C 1.2028(9) -0.1879(8) 0.8497(6)
C20 C 1.1936(9) -0.1283(8) 0.8251(6)
H11 H 1.2226(9) -0.0297(8) 0.8107(6)
H12 H 1.3030(9) -0.0426(8) 0.8626(6)
H13 H 1.3194(9) -0.1484(8) 0.9062(6)
H14 H 1.2554(9) -0.2413(8) 0.8979(6)
H15 H 1.1749(9) -0.2285(8) 0.8461(6)
C21 C 1.1431(8) -0.1218(12) 0.7926(7)
H16 H 1.1287(8) -0.0708(12) 0.7940(7)
H17 H 1.1140(8) -0.1562(12) 0.8033(7)
C22 C 1.1551(7) -0.1382(10) 0.7435(6)
H18 H 1.1861(7) -0.1059(10) 0.7339(6)
H19 H 1.1673(7) -0.1901(10) 0.7419(6)
C23 C 1.1058(8) -0.1270(11) 0.7100(7)
H20 H 1.0750(8) -0.1519(11) 0.7263(7)
C24 C 1.1626(5) -0.1577(7) 0.6440(5)
C25 C 1.1143(5) -0.1563(7) 0.6620(5)
C26 C 1.0704(5) -0.1811(7) 0.6362(5)
C27 C 1.0748(5) -0.2074(7) 0.5925(5)
C28 C 1.1232(5) -0.2088(7) 0.5745(5)
C29 C 1.1671(5) -0.1840(7) 0.6003(5)
H21 H 1.1966(5) -0.1385(7) 0.6640(5)
C30 C 1.2192(8) -0.1805(12) 0.5778(7)
H22 H 1.2203(8) -0.2224(12) 0.5543(7)
C31 C 1.2675(9) -0.1890(12) 0.6149(8)
H23 H 1.2618(9) -0.2339(12) 0.6346(8)
H24 H 1.2701(9) -0.1458(12) 0.6374(8)
C32 C 1.3188(9) -0.1951(13) 0.5921(9)
H25 H 1.3227(9) -0.1527(13) 0.5696(9)
H26 H 1.3180(9) -0.2411(13) 0.5723(9)
C33 C 1.3911(10) -0.1365(10) 0.6381(7)
C34 C 1.4334(10) -0.1371(10) 0.6712(7)
C35 C 1.4490(10) -0.1973(10) 0.6928(7)
C36 C 1.4224(10) -0.2569(10) 0.6812(7)
C37 C 1.3801(10) -0.2562(10) 0.6481(7)
C38 C 1.3644(10) -0.1960(10) 0.6265(7)
H27 H 1.3790(10) -0.0899(10) 0.6214(7)
H28 H 1.4540(10) -0.0910(10) 0.6802(7)
H29 H 1.4818(10) -0.1978(10) 0.7185(7)
H30 H 1.4345(10) -0.3035(10) 0.6979(7)
H31 H 1.3595(10) -0.3024(10) 0.6391(7)
O5 O 1.1266(6) -0.2385(8) 0.5311(5)
C39 C 1.1257(9) -0.1918(12) 0.4956(8)
H32 H 1.1050(9) -0.2133(12) 0.4654(8)
H33 H 1.1059(9) -0.1469(12) 0.5055(8)
O6 O 1.1766(6) -0.1740(8) 0.4845(5)
C40 C 1.2443(5) -0.0579(8) 0.5697(4)
C41 C 1.2421(5) 0.0013(8) 0.5440(4)
C42 C 1.2172(5) 0.0017(8) 0.4997(4)
C43 C 1.1946(5) -0.0571(8) 0.4811(4)
C44 C 1.1968(5) -0.1163(8) 0.5068(4)
C45 C 1.2217(5) -0.1168(8) 0.5511(4)
H34 H 1.2636(5) -0.0583(8) 0.6040(4)
O7 O 1.1637(6) -0.0530(8) 0.4402(5)
C46 C 1.1900(10) -0.0613(14) 0.4006(8)
H35 H 1.21874(10) -0.0221(14) 0.3972(8)
H36 H 1.2091(10) -0.1098(14) 0.4016(8)
C47 C 1.1491(9) -0.0598(12) 0.3618(8)
C48 C 1.1121(10) -0.0570(12) 0.3343(8)
C49 C 1.0643(8) -0.0524(11) 0.3056(7)
H37 H 1.0650(8) -0.0121(11) 0.2809(7)
H38 H 1.0567(8) -0.0995(11) 0.2878(7)
O8 O 1.0265(6) -0.0410(7) 0.3379(5)
O9 O 1.2186(6) 0.0575(9) 0.4714(5)
C50 C 1.1819(9) 0.1053(13) 0.4769(8)
H39 H 1.1715(9) 0.1284(13) 0.4439(8)
H40 H 1.1482(9) 0.0806(13) 0.4886(8)
O10 O 1.1972(6) 0.1564(8) 0.5086(6)
C51 C 1.2643(8) 0.0684(11) 0.5635(7)
H41 H 1.2777(8) 0.0991(11) 0.5364(7)
C52 C 1.3124(8) 0.0557(12) 0.5959(7)
H42 H 1.3394(8) 0.0233(12) 0.5802(7)
H43 H 1.3008(8) 0.0321(12) 0.6267(7)
C53 C 1.3380(10) 0.1230(14) 0.6080(10)
H44 H 1.3455(10) 0.1485(14) 0.5766(10)
H45 H 1.3120(10) 0.1530(14) 0.6266(10)
C54 C 1.4161(11) 0.1721(12) 0.6515(8)
C55 C 1.4637(11) 0.1695(12) 0.6780(8)
C56 C 1.4852(11) 0.1074(12) 0.6915(8)
C57 C 1.4590(11) 0.0480(12) 0.6786(8)
C58 C 1.4114(11) 0.0506(12) 0.6521(8)
C59 C 1.389(11) 0.1127(12) 0.6386(8)
H46 H 1.3994(11) 0.2202(12) 0.6410(8)
H47 H 1.4839(11) 0.2155(12) 0.6880(8)
H48 H 1.5221(11) 0.1053(12) 0.7120(8)
H49 H 1.4756(11) -0.0001(12) 0.6891(8)
H50 H 1.3911(11) 0.0046(12) 0.6421(8)
O11 O 1.0324(6) -0.2238(8) 0.5634(5)
C60 C 1.0147(10) -0.2903(13) 0.5675(9)
H51 H 1.0435(10) -0.3264(13) 0.5586(9)
H52 H 1.0043(10) -0.3002(13) 0.6019(9)
C61 C 0.9672(10) -0.2925(13) 0.5332(9)
C62 C 0.9301(11) -0.2870(14) 0.5064(9)
C63 C 0.8860(10) -0.2759(13) 0.4709(9)
H53 H 0.8485(10) -0.2840(13) 0.4838(9)
H54 H 0.8895(10) -0.3074(13) 0.4412(9)
O12 O 0.8949(6) -0.2052(8) 0.4608(5)
C64 C 0.7901(5) -0.1002(6) 0.3699(4)
C65 C 0.8333(5) -0.1321(6) 0.3541(4)
C66 C 0.8660(5) -0.1708(6) 0.3842(4)
C67 C 0.8556(5) -0.1775(6) 0.4299(4)
C68 C 1.1876(5) 0.1456(6) 0.5543(4)
C69 C 1.2204(5) 0.1069(6) 0.5843(4)
H55 H 0.7647(5) -0.0702(6) 0.3467(4)
C70 C 0.8483(7) -0.1211(11) 0.3041(6)
H56 H 0.8659(7) -0.1659(11) 0.2915(6)
C71 C 0.8006(8) -0.1102(11) 0.2688(7)
H57 H 0.8137(8) -0.0937(11) 0.2365(7)
H58 H 0.7757(8) -0.0722(11) 0.2817(7)
C72 C 0.7689(9) -0.1771(12) 0.2615(8)
H59 H 0.7933(9) -0.2146(12) 0.2475(8)
H60 H 0.7569(9) -0.1946(12) 0.2940(8)
C73 C 0.6704(8) -0.1716(8) 0.2421(4)
C74 C 0.6273(8) -0.1641(8) 0.2103(4)
C75 C 0.6344(8) -0.1512(8) 0.1643(4)
C76 C 0.6845(8) -0.1457(8) 0.1502(4)
C77 C 0.7276(8) -0.1532(8) 0.1821(4)
C78 C 0.7205(8) -0.1661(8) 0.2281(4)
H61 H 0.6649(8) -0.1816(8) 0.2777(4)
H62 H 0.5885(8) -0.1683(8) 0.2212(4)
H63 H 0.6010(8) -0.1454(8) 0.1396(4)
H64 H 0.6900(8) -0.1357(8) 0.1147(4)
H65 H 0.7664(8) -0.1490(8) 0.1712(4)
O13 O 0.9065(6) -0.2078(8) 0.3696(5)
C79 C 0.9525(9) -0.1719(12) 0.3677(8)
H66 H 0.9849(9) -0.2053(12) 0.3764(8)
H67 H 0.9535(9) -0.1311(12) 0.3922(8)
O14 O 0.9577(6) -0.1440(7) 0.3230(5)
C80 C 0.8716(4) 0.0026(8) 0.2965(4)
C81 C 0.8872(4) -0.0636(8) 0.3058(4)
C82 C 0.9397(4) -0.0784(8) 0.3168(4)
C83 C 0.9766(4) -0.0269(8) 0.3185(4)
C84 C 0.9610(4) 0.0394(8) 0.3093(4)
C85 C 1.0914(4) -0.0541(8) 0.7017(4)
H68 H 0.8310(4) 0.0140(8) 0.2880(4)
O15 O 0.9997(6) 0.0865(7) 0.3098(5)
C86 C 1.0074(9) 0.1266(11) 0.3503(7)
H69 H 0.9965(9) 0.0967(11) 0.3788(7)
H70 H 1.0481(9) 0.1397(11) 0.3557(7)
O16 O 1.0215(6) -0.1845(8) 0.6514(5)
C86D C 0.9926(9) -0.1266(11) 0.6497(7)
O15D O 1.0003(6) -0.0865(7) 0.6902(5)
C84D C 1.0390(4) -0.0394(8) 0.6907(4)
C83D C 1.0234(4) 0.0269(8) 0.6815(4)
O8D O 0.9735(6) 0.0410(7) 0.6621(5)
C49D C 0.9357(8) 0.0524(11) 0.6944(7)
C48D C 0.8879(10) 0.0570(12) 0.6657(8)
C47D C 0.8509(9) 0.0598(12) 0.6382(8)
C46D C 0.8100(10) 0.0613(14) 0.5994(8)
O7D O 0.8363(6) 0.0530(8) 0.5598(5)
C43D C 0.8054(5) 0.0571(8) 0.5189(4)
C42D C 0.7828(5) -0.0017(8) 0.5003(4)
C41D C 0.7579(5) -0.0013(8) 0.4560(4)
C40D C 0.7557(5) 0.0579(8) 0.4303(4)
C45D C 0.7783(5) 0.1168(8) 0.4489(4)
C30D C 0.7808(8) 0.1805(12) 0.4222(7)
C29D C 0.8329(5) 0.1840(7) 0.3997(5)
C24D C 0.8374(5) 0.1577(7) 0.3560(5)
C25D C 0.8857(5) 0.1563(7) 0.3380(5)
C23D C 0.8942(8) 0.1270(11) 0.2900(7)
C22D C 0.8449(7) 0.1382(10) 0.2565(6)
C21D C 0.8569(8) 0.1218(12) 0.2074(7)
C20D C 0.8064(9) 0.1283(8) 0.1749(6)
C15D C 0.7703(9) 0.0759(8) 0.1702(6)
C16D C 0.7249(9) 0.0831(8) 0.1410(6)
C17D C 0.7157(9) 0.1428(8) 0.1164(6)
C18D C 0.7518(9) 0.1951(8) 0.1211(6)
C19D C 0.7972(9) 0.1879(8) 0.1503(6)
H15D H 0.8251(9) 0.2285(8) 0.1539(6)
H14D H 0.7446(9) 0.2413(8) 0.1021(6)
H13D H 0.6806(9) 0.1484(8) 0.0938(6)
H12D H 0.6970(9) 0.0426(8) 0.1374(6)
H11D H 0.7774(9) 0.0297(8) 0.1893(6)
H16D H 0.8713(8) 0.0708(12) 0.2060(7)
H17D H 0.8860(8) 0.1562(12) 0.1967(7)
H18D H 0.8139(7) 0.1059(10) 0.2661(6)
H19D H 0.8327(7) 0.1901(10) 0.2581(6)
H20D H 0.9250(8) 0.1519(11) 0.2737(7)
C85D C 0.9086(4) 0.0541(8) 0.2983(4)
C69D C 0.7796(5) -0.1069(6) 0.4157(4)
C51D C 0.7357(8) -0.0684(11) 0.4365(7)
H41D H 0.7223(8) -0.0991(11) 0.4636(7)
C52D C 0.6876(8) -0.0557(12) 0.4041(7)
H42D H 0.6606(8) -0.0233(12) 0.4198(7)
H43D H 0.6992(8) -0.0321(12) 0.3733(7)
C53D C 0.6620(10) -0.1230(14) 0.3920(10)
H44D H 0.6545(10) -0.1485(14) 0.4234(10)
H45D H 0.6880(10) -0.1530(14) 0.3734(10)
C59D C 0.611(11) -0.1127(12) 0.3614(8)
C54D C 0.5839(11) -0.1721(12) 0.3485(8)
C55D C 0.5363(11) -0.1695(12) 0.3220(8)
C56D C 0.5148(11) -0.1074(12) 0.3085(8)
C57D C 0.5410(11) -0.0480(12) 0.3214(8)
C58D C 0.5886(11) -0.0506(12) 0.3479(8)
H50D H 0.6089(11) -0.0046(12) 0.3579(8)
H49D H 0.5244(11) 0.0001(12) 0.3109(8)
H48D H 0.4779(11) -0.1053(12) 0.2880(8)
H47D H 0.5161(11) -0.2155(12) 0.3120(8)
H46D H 0.6006(11) -0.2202(12) 0.3590(8)
C68D C 0.8124(5) -0.1456(6) 0.4457(4)
O10D O 0.8028(6) -0.1564(8) 0.4914(6)
C50D C 0.8181(9) -0.1053(13) 0.5231(8)
O9D O 0.7814(6) -0.0575(9) 0.5286(5)
H39D H 0.8285(9) -0.1284(13) 0.5561(8)
H40D H 0.8518(9) -0.0806(13) 0.5114(8)
C64D C 1.2099(5) 0.1002(6) 0.6301(4)
C65D C 1.1667(5) 0.1321(6) 0.6459(4)
C66D C 1.1340(5) 0.1708(6) 0.6158(4)
C67D C 1.1444(5) 0.1775(6) 0.5701(4)
O12D O 1.1051(6) 0.2052(8) 0.5392(5)
C63D C 1.1140(10) 0.2759(13) 0.5291(9)
C62D C 1.0699(11) 0.2870(14) 0.4936(9)
C61D C 1.0328(10) 0.2925(13) 0.4668(9)
C60D C 0.9853(10) 0.2903(13) 0.4325(9)
O11D O 0.9676(6) 0.2238(8) 0.4366(5)
C27D C 0.9252(5) 0.2074(7) 0.4075(5)
C26D C 0.9296(5) 0.1811(7) 0.3638(5)
O16D O 0.9785(6) 0.1845(8) 0.3486(5)
C28D C 0.8768(5) 0.2088(7) 0.4255(5)
O5D O 0.8734(6) 0.2385(8) 0.4689(5)
C39D C 0.8743(9) 0.1918(12) 0.5044(8)
H32D H 0.8950(9) 0.2133(12) 0.5346(8)
H33D H 0.8941(9) 0.1469(12) 0.4945(8)
O6D O 0.8234(6) 0.1740(8) 0.5155(5)
C44D C 0.8032(5) 0.1163(8) 0.4932(4)
H51D H 0.9565(10) 0.3264(13) 0.4414(9)
H52D H 0.9957(10) 0.3002(13) 0.3981(9)
H53D H 1.1515(10) 0.2840(13) 0.5162(9)
H54D H 1.1105(10) 0.3074(13) 0.5588(9)
O13D O 1.0935(6) 0.2078(8) 0.6304(5)
C79D C 1.0475(9) 0.1719(12) 0.6323(8)
H66D H 1.0151(9) 0.2053(12) 0.6236(8)
H67D H 1.0465(9) 0.1311(12) 0.6078(8)
O14D O 1.0423(6) 0.1440(7) 0.6770(5)
C82D C 1.0603(4) 0.0784(8) 0.6832(4)
C81D C 1.1128(4) 0.0636(8) 0.6942(4)
C70D C 1.1517(7) 0.1211(11) 0.6959(6)
H56D H 1.1341(7) 0.1659(11) 0.7085(6)
C71D C 1.1994(8) 0.1102(11) 0.7312(7)
H57D H 1.1863(8) 0.0937(11) 0.7635(7)
H58D H 1.2243(8) 0.0722(11) 0.7183(7)
C72D C 1.2311(9) 0.1771(12) 0.7385(8)
H59D H 1.2067(9) 0.2146(12) 0.7525(8)
H60D H 1.2431(9) 0.1946(12) 0.7060(8)
C78D C 1.2795(8) 0.1661(8) 0.7719(4)
C73D C 1.3296(8) 0.1716(8) 0.7579(4)
C74D C 1.3727(8) 0.1641(8) 0.7897(4)
C75D C 1.3656(8) 0.1512(8) 0.8357(4)
C76D C 1.3155(8) 0.1457(8) 0.8498(4)
C77D C 1.2724(8) 0.1532(8) 0.8179(4)
H65D H 1.2336(8) 0.1490(8) 0.8288(4)
H64D H 1.3100(8) 0.1357(8) 0.8853(4)
H63D H 1.3990(8) 0.1454(8) 0.8604(4)
H62D H 1.4115(8) 0.1683(8) 0.7788(4)
H61D H 1.3351(8) 0.1816(8) 0.7223(4)
C80D C 1.1284(4) -0.0026(8) 0.7035(4)
H68D H 1.1690(4) -0.0140(8) 0.7120(4)
H55D H 1.2353(5) 0.0702(6) 0.6533(4)
H21D H 0.8034(5) 0.1385(7) 0.3360(5)
H22D H 0.7797(8) 0.2224(12) 0.4457(7)
C31D C 0.7325(9) 0.1890(12) 0.3851(8)
H23D H 0.7382(9) 0.2339(12) 0.3654(8)
H24D H 0.7299(9) 0.1458(12) 0.3626(8)
C32D C 0.6812(9) 0.1951(13) 0.4079(9)
H25D H 0.6773(9) 0.1527(13) 0.4304(9)
H26D H 0.6820(9) 0.2411(13) 0.4277(9)
C38D C 0.6356(10) 0.1960(10) 0.3735(7)
C33D C 0.6089(10) 0.1365(10) 0.3619(7)
C34D C 0.5666(10) 0.1371(10) 0.3288(7)
C35D C 0.5510(10) 0.1973(10) 0.3072(7)
C36D C 0.5776(10) 0.2569(10) 0.3188(7)
C37D C 0.6199(10) 0.2562(10) 0.3519(7)
H31D H 0.6405(10) 0.3024(10) 0.3609(7)
H30D H 0.5655(10) 0.3035(10) 0.3021(7)
H29D H 0.5182(10) 0.1978(10) 0.2815(7)
H28D H 0.5460(10) 0.0910(10) 0.3198(7)
H27D H 0.6210(10) 0.0899(10) 0.3786(7)
H34D H 0.7364(5) 0.0583(8) 0.3960(4)
H35D H 0.78126(10) 0.0221(14) 0.6028(8)
H36D H 0.7909(10) 0.1098(14) 0.5984(8)
H37D H 0.9350(8) 0.0121(11) 0.7191(7)
H38D H 0.9433(8) 0.0995(11) 0.7122(7)
H69D H 1.0035(9) -0.0967(11) 0.6212(7)
H70D H 0.9519(9) -0.1397(11) 0.6443(7)
Cl1 Cl 1.0697(10) -0.0262(13) 0.5464(10)
Cl2 Cl 1.0511(13) -0.0426(17) 0.4495(9)
Cl3 Cl 0.9927(10) -0.1190(10) 0.5097(15)
C1 C 1.0225(9) -0.0418(11) 0.5013(9)
Cl4? Cl 0.9369(10) 0.0000(13) 0.4530(10)
Cl5? Cl 0.9509(13) 0.0108(16) 0.5505(9)
Cl6? Cl 1.0124(10) 0.0907(10) 0.4949(15)
C2? C 0.9821(9) 0.0130(10) 0.5000(9)
loop_
_geom_bond_atom_site_label_1
_geom_bond_atom_site_label_2
_geom_bond_site_symmetry_1
_geom_bond_site_symmetry_2
Cl1 C1 1_555 1_555
Cl2 C1 1_555 1_555
Cl3 C1 1_555 1_555
C3 C4 1_555 1_555
C4 C5 1_555 1_555
C5 C6 1_555 1_555
C6 C7 1_555 1_555
C7 C8 1_555 1_555
C8 C3 1_555 1_555
H1 C3 1_555 1_555
H2 C4 1_555 1_555
H3 C5 1_555 1_555
H4 C6 1_555 1_555
H5 C7 1_555 1_555
N1 C8 1_555 1_555
O1 N1 1_555 1_555
O2 N1 1_555 1_555
C9 C10 1_555 1_555
C10 C11 1_555 1_555
C11 C12 1_555 1_555
C12 C13 1_555 1_555
C13 C14 1_555 1_555
C14 C9 1_555 1_555
H6 C9 1_555 1_555
H7 C10 1_555 1_555
H8 C11 1_555 1_555
H9 C12 1_555 1_555
H10 C13 1_555 1_555
N2 C14 1_555 1_555
O3 N2 1_555 1_555
O4 N2 1_555 1_555
C15 C16 1_555 1_555
C16 C17 1_555 1_555
C17 C18 1_555 1_555
C18 C19 1_555 1_555
C19 C20 1_555 1_555
C20 C15 1_555 1_555
H11 C15 1_555 1_555
H12 C16 1_555 1_555
H13 C17 1_555 1_555
H14 C18 1_555 1_555
H15 C19 1_555 1_555
C21 C20 1_555 1_555
H16 C21 1_555 1_555
H17 C21 1_555 1_555
C22 C21 1_555 1_555
H18 C22 1_555 1_555
H19 C22 1_555 1_555
C23 C22 1_555 1_555
H20 C23 1_555 1_555
C24 C25 1_555 1_555
C25 C23 1_555 1_555
C26 C25 1_555 1_555
C27 C26 1_555 1_555
C28 C27 1_555 1_555
C29 C24 1_555 1_555
H21 C24 1_555 1_555
C30 C29 1_555 1_555
H22 C30 1_555 1_555
C31 C30 1_555 1_555
H23 C31 1_555 1_555
H24 C31 1_555 1_555
C32 C31 1_555 1_555
H25 C32 1_555 1_555
H26 C32 1_555 1_555
C33 C34 1_555 1_555
C34 C35 1_555 1_555
C35 C36 1_555 1_555
C36 C37 1_555 1_555
C37 C38 1_555 1_555
C38 C32 1_555 1_555
H27 C33 1_555 1_555
H28 C34 1_555 1_555
H29 C35 1_555 1_555
H30 C36 1_555 1_555
H31 C37 1_555 1_555
O5 C28 1_555 1_555
C39 O5 1_555 1_555
H32 C39 1_555 1_555
H33 C39 1_555 1_555
O6 C39 1_555 1_555
C40 C41 1_555 1_555
C41 C42 1_555 1_555
C42 C43 1_555 1_555
C43 C44 1_555 1_555
C44 O6 1_555 1_555
C45 C30 1_555 1_555
H34 C40 1_555 1_555
O7 C43 1_555 1_555
C46 O7 1_555 1_555
H35 C46 1_555 1_555
H36 C46 1_555 1_555
C47 C46 1_555 1_555
C48 C47 1_555 1_555
C49 C48 1_555 1_555
H37 C49 1_555 1_555
H38 C49 1_555 1_555
O8 C49 1_555 1_555
O9 C42 1_555 1_555
C50 O9 1_555 1_555
H39 C50 1_555 1_555
H40 C50 1_555 1_555
O10 C50 1_555 1_555
C51 C41 1_555 1_555
H41 C51 1_555 1_555
C52 C51 1_555 1_555
H42 C52 1_555 1_555
H43 C52 1_555 1_555
C53 C52 1_555 1_555
H44 C53 1_555 1_555
H45 C53 1_555 1_555
C54 C55 1_555 1_555
C55 C56 1_555 1_555
C56 C57 1_555 1_555
C57 C58 1_555 1_555
C58 C59 1_555 1_555
C59 C53 1_555 1_555
H46 C54 1_555 1_555
H47 C55 1_555 1_555
H48 C56 1_555 1_555
H49 C57 1_555 1_555
H50 C58 1_555 1_555
O11 C27 1_555 1_555
C60 O11 1_555 1_555
H51 C60 1_555 1_555
H52 C60 1_555 1_555
C61 C60 1_555 1_555
C62 C61 1_555 1_555
C63 C62 1_555 1_555
H53 C63 1_555 1_555
H54 C63 1_555 1_555
O12 C63 1_555 1_555
C64 C65 1_555 1_555
C65 C66 1_555 1_555
C66 C67 1_555 1_555
C67 O12 1_555 1_555
C68 O10 1_555 1_555
C69 C51 1_555 1_555
H55 C64 1_555 1_555
C70 C65 1_555 1_555
H56 C70 1_555 1_555
C71 C70 1_555 1_555
H57 C71 1_555 1_555
H58 C71 1_555 1_555
C72 C71 1_555 1_555
H59 C72 1_555 1_555
H60 C72 1_555 1_555
C73 C74 1_555 1_555
C74 C75 1_555 1_555
C75 C76 1_555 1_555
C76 C77 1_555 1_555
C77 C78 1_555 1_555
C78 C72 1_555 1_555
H61 C73 1_555 1_555
H62 C74 1_555 1_555
H63 C75 1_555 1_555
H64 C76 1_555 1_555
H65 C77 1_555 1_555
O13 C66 1_555 1_555
C79 O13 1_555 1_555
H66 C79 1_555 1_555
H67 C79 1_555 1_555
O14 C79 1_555 1_555
C80 C81 1_555 1_555
C81 C70 1_555 1_555
C82 O14 1_555 1_555
C83 O8 1_555 1_555
C84 C83 1_555 1_555
C85 C23 1_555 1_555
H68 C80 1_555 1_555
O15 C84 1_555 1_555
C86 O15 1_555 1_555
H69 C86 1_555 1_555
H70 C86 1_555 1_555
O16 C26 1_555 1_555
C86D O16 1_555 1_555
O15D C86D 1_555 1_555
C84D C85 1_555 1_555
C83D C84D 1_555 1_555
O8D C83D 1_555 1_555
C49D O8D 1_555 1_555
C48D C49D 1_555 1_555
C47D C48D 1_555 1_555
C46D C47D 1_555 1_555
O7D C46D 1_555 1_555
C43D O7D 1_555 1_555
C42D C43D 1_555 1_555
C41D C42D 1_555 1_555
C40D C41D 1_555 1_555
C45D C40D 1_555 1_555
C30D C45D 1_555 1_555
C29D C30D 1_555 1_555
C24D C29D 1_555 1_555
C25D C24D 1_555 1_555
C23D C25D 1_555 1_555
C22D C23D 1_555 1_555
C21D C22D 1_555 1_555
C20D C21D 1_555 1_555
C15D C20D 1_555 1_555
C16D C15D 1_555 1_555
C17D C16D 1_555 1_555
C18D C17D 1_555 1_555
C19D C20D 1_555 1_555
H15D C19D 1_555 1_555
H14D C18D 1_555 1_555
H13D C17D 1_555 1_555
H12D C16D 1_555 1_555
H11D C15D 1_555 1_555
H16D C21D 1_555 1_555
H17D C21D 1_555 1_555
H18D C22D 1_555 1_555
H19D C22D 1_555 1_555
H20D C23D 1_555 1_555
C85D C80 1_555 1_555
C69D C64 1_555 1_555
C51D C41D 1_555 1_555
H41D C51D 1_555 1_555
C52D C51D 1_555 1_555
H42D C52D 1_555 1_555
H43D C52D 1_555 1_555
C53D C52D 1_555 1_555
H44D C53D 1_555 1_555
H45D C53D 1_555 1_555
C59D C53D 1_555 1_555
C54D C59D 1_555 1_555
C55D C54D 1_555 1_555
C56D C55D 1_555 1_555
C57D C56D 1_555 1_555
C58D C59D 1_555 1_555
H50D C58D 1_555 1_555
H49D C57D 1_555 1_555
H48D C56D 1_555 1_555
H47D C55D 1_555 1_555
H46D C54D 1_555 1_555
C68D C67 1_555 1_555
O10D C68D 1_555 1_555
C50D O10D 1_555 1_555
O9D C42D 1_555 1_555
H39D C50D 1_555 1_555
H40D C50D 1_555 1_555
C64D C69 1_555 1_555
C65D C64D 1_555 1_555
C66D C65D 1_555 1_555
C67D C68 1_555 1_555
O12D C67D 1_555 1_555
C63D O12D 1_555 1_555
C62D C63D 1_555 1_555
C61D C62D 1_555 1_555
C60D C61D 1_555 1_555
O11D C60D 1_555 1_555
C27D O11D 1_555 1_555
C26D C25D 1_555 1_555
O16D C86 1_555 1_555
C28D C29D 1_555 1_555
O5D C28D 1_555 1_555
C39D O5D 1_555 1_555
H32D C39D 1_555 1_555
H33D C39D 1_555 1_555
O6D C39D 1_555 1_555
C44D C43D 1_555 1_555
H51D C60D 1_555 1_555
H52D C60D 1_555 1_555
H53D C63D 1_555 1_555
H54D C63D 1_555 1_555
O13D C66D 1_555 1_555
C79D O13D 1_555 1_555
H66D C79D 1_555 1_555
H67D C79D 1_555 1_555
O14D C79D 1_555 1_555
C82D C83D 1_555 1_555
C81D C82D 1_555 1_555
C70D C65D 1_555 1_555
H56D C70D 1_555 1_555
C71D C70D 1_555 1_555
H57D C71D 1_555 1_555
H58D C71D 1_555 1_555
C72D C71D 1_555 1_555
H59D C72D 1_555 1_555
H60D C72D 1_555 1_555
C78D C72D 1_555 1_555
C73D C78D 1_555 1_555
C74D C73D 1_555 1_555
C75D C74D 1_555 1_555
C76D C75D 1_555 1_555
C77D C78D 1_555 1_555
H65D C77D 1_555 1_555
H64D C76D 1_555 1_555
H63D C75D 1_555 1_555
H62D C74D 1_555 1_555
H61D C73D 1_555 1_555
C80D C85 1_555 1_555
H68D C80D 1_555 1_555
H55D C64D 1_555 1_555
H21D C24D 1_555 1_555
H22D C30D 1_555 1_555
C31D C30D 1_555 1_555
H23D C31D 1_555 1_555
H24D C31D 1_555 1_555
C32D C31D 1_555 1_555
H25D C32D 1_555 1_555
H26D C32D 1_555 1_555
C38D C32D 1_555 1_555
C33D C38D 1_555 1_555
C34D C33D 1_555 1_555
C35D C34D 1_555 1_555
C36D C35D 1_555 1_555
C37D C38D 1_555 1_555
H31D C37D 1_555 1_555
H30D C36D 1_555 1_555
H29D C35D 1_555 1_555
H28D C34D 1_555 1_555
H27D C33D 1_555 1_555
H34D C40D 1_555 1_555
H35D C46D 1_555 1_555
H36D C46D 1_555 1_555
H37D C49D 1_555 1_555
H38D C49D 1_555 1_555
H69D C86D 1_555 1_555
H70D C86D 1_555 1_555
C28 C29 1_555 1_555
C33 C38 1_555 1_555
C40 C45 1_555 1_555
C44 C45 1_555 1_555
C54 C59 1_555 1_555
C68 C69 1_555 1_555
C73 C78 1_555 1_555
C81 C82 1_555 1_555
C82 C83 1_555 1_555
C84 C85D 1_555 1_555
O15D C84D 1_555 1_555
C45D C44D 1_555 1_555
C23D C85D 1_555 1_555
C18D C19D 1_555 1_555
C69D C51D 1_555 1_555
C69D C68D 1_555 1_555
C57D C58D 1_555 1_555
C50D O9D 1_555 1_555
C66D C67D 1_555 1_555
C27D C26D 1_555 1_555
C27D C28D 1_555 1_555
C26D O16D 1_555 1_555
O6D C44D 1_555 1_555
O14D C82D 1_555 1_555
C81D C70D 1_555 1_555
C81D C80D 1_555 1_555
C76D C77D 1_555 1_555
C36D C37D 1_555 1_555

#END
