
#######################################################################
#
#                 Cambridge Crystallographic Data Centre
#                                CCDC 
#
#######################################################################
#
# If this CIF has been generated from an entry in the Cambridge 
# Structural Database, then it will include bibliographic, chemical, 
# crystal, experimental, refinement or atomic coordinate data resulting 
# from the CCDC's data processing and validation procedures.
#
#######################################################################

data_YETNET
_chemical_compound_source        'isolated from Callistemon rigidus'
_chemical_name_common            'viminalin H'
_chemical_formula_moiety         'C22 H30 O4'
_chemical_name_systematic        
1-[3-hydroxy-1-methoxy-5a-methyl-8-(propan-2-yl)-5a,8,9,9a-tetrahydrodibenzo[b,d]furan-4-yl]-3-methylbutan-1-one
_symmetry_cell_setting           monoclinic
_symmetry_space_group_name_H-M   'P 21'
_symmetry_Int_Tables_number      4
_space_group_name_Hall           'P 2yb'
loop_
_symmetry_equiv_pos_site_id
_symmetry_equiv_pos_as_xyz
1 x,y,z
2 -x,1/2+y,-z
_cell_length_a                   5.34770(10)
_cell_length_b                   14.5931(2)
_cell_length_c                   12.6564(2)
_cell_angle_alpha                90
_cell_angle_beta                 93.9120(10)
_cell_angle_gamma                90
_cell_volume                     985.398
_exptl_crystal_colour            colorless
_exptl_crystal_description       blocks
_cell_formula_units_Z            2
loop_
_atom_site_label
_atom_site_type_symbol
_atom_site_fract_x
_atom_site_fract_y
_atom_site_fract_z
O1 O 0.6326(2) 0.36283(9) -0.02871(10)
H1 H 0.521321 0.329445 -0.009191
O2 O 0.3078(2) 0.30340(9) 0.08888(10)
O3 O 1.0779(2) 0.63483(9) 0.07020(9)
O4 O 0.4933(2) 0.53097(8) 0.29301(9)
C1 C 0.9103(3) 0.56780(12) 0.08674(13)
C2 C 0.8598(3) 0.49373(12) 0.01946(13)
H2 H 0.947916 0.486662 -0.040871
C3 C 0.6776(3) 0.43034(12) 0.04251(13)
C4 C 0.5416(3) 0.43542(12) 0.13589(13)
C5 C 0.4635(3) 0.66830(13) 0.39977(13)
H3 H 0.371806 0.642884 0.452310
C6 C 0.4299(3) 0.75633(13) 0.37714(14)
H4 H 0.328171 0.790239 0.419300
C7 C 0.5459(3) 0.80508(12) 0.28737(13)
H5 H 0.414998 0.843655 0.252436
C8 C 0.6173(3) 0.73327(12) 0.20611(13)
H6 H 0.465469 0.708591 0.170634
H7 H 0.712004 0.762907 0.153046
C9 C 0.3550(3) 0.36467(12) 0.15520(13)
C10 C 0.2165(3) 0.36641(12) 0.25505(13)
H8 H 0.107988 0.419726 0.253088
H9 H 0.337611 0.373408 0.315139
C11 C 0.0573(3) 0.28084(12) 0.27262(14)
H10 H -0.056099 0.271239 0.209445
C12 C 0.2177(4) 0.19482(13) 0.29104(17)
H11 H 0.327673 0.202678 0.353543
H12 H 0.315182 0.184842 0.231152
H13 H 0.110798 0.142928 0.299985
C13 C -0.1003(4) 0.29682(15) 0.36698(16)
H14 H -0.202327 0.243872 0.377338
H15 H -0.205913 0.349311 0.353576
H16 H 0.008210 0.307314 0.429392
C14 C 0.8282(3) 0.56329(13) 0.42637(14)
H17 H 0.740095 0.526080 0.474161
H18 H 0.919410 0.610333 0.465497
H19 H 0.943018 0.525777 0.390428
C15 C 0.7617(3) 0.86946(13) 0.32724(13)
H20 H 0.892308 0.832480 0.364875
C16 C 0.6682(4) 0.94064(14) 0.40455(16)
H21 H 0.802039 0.981995 0.425607
H22 H 0.612720 0.910060 0.465907
H23 H 0.531253 0.974413 0.370515
C17 C 0.8773(4) 0.91872(14) 0.23584(16)
H24 H 0.748406 0.950508 0.193941
H25 H 0.955844 0.874699 0.192486
H26 H 1.000228 0.961889 0.263662
C18 C 1.2081(3) 0.62968(14) -0.02503(14)
H27 H 1.301689 0.573570 -0.025516
H28 H 1.320543 0.680742 -0.027977
H29 H 1.089064 0.631277 -0.085323
C19 C 0.6044(3) 0.51156(12) 0.20135(13)
C20 C 0.6413(3) 0.60715(11) 0.34553(13)
C21 C 0.7728(3) 0.65436(12) 0.25573(13)
H30 H 0.941889 0.674661 0.279806
C22 C 0.7810(3) 0.57616(12) 0.17855(13)
loop_
_geom_bond_atom_site_label_1
_geom_bond_atom_site_label_2
_geom_bond_site_symmetry_1
_geom_bond_site_symmetry_2
O1 H1 1_555 1_555
O2 C9 1_555 1_555
O3 C1 1_555 1_555
O4 C19 1_555 1_555
C1 C2 1_555 1_555
C2 H2 1_555 1_555
C3 O1 1_555 1_555
C4 C3 1_555 1_555
C5 H3 1_555 1_555
C6 C5 1_555 1_555
H4 C6 1_555 1_555
C7 C6 1_555 1_555
H5 C7 1_555 1_555
C8 C7 1_555 1_555
H6 C8 1_555 1_555
H7 C8 1_555 1_555
C9 C4 1_555 1_555
C10 C9 1_555 1_555
H8 C10 1_555 1_555
H9 C10 1_555 1_555
C11 C10 1_555 1_555
H10 C11 1_555 1_555
C12 C11 1_555 1_555
H11 C12 1_555 1_555
H12 C12 1_555 1_555
H13 C12 1_555 1_555
C13 C11 1_555 1_555
H14 C13 1_555 1_555
H15 C13 1_555 1_555
H16 C13 1_555 1_555
C14 H17 1_555 1_555
H18 C14 1_555 1_555
H19 C14 1_555 1_555
C15 C7 1_555 1_555
H20 C15 1_555 1_555
C16 C15 1_555 1_555
H21 C16 1_555 1_555
H22 C16 1_555 1_555
H23 C16 1_555 1_555
C17 C15 1_555 1_555
H24 C17 1_555 1_555
H25 C17 1_555 1_555
H26 C17 1_555 1_555
C18 O3 1_555 1_555
H27 C18 1_555 1_555
H28 C18 1_555 1_555
H29 C18 1_555 1_555
C19 C4 1_555 1_555
C20 O4 1_555 1_555
C21 C8 1_555 1_555
H30 C21 1_555 1_555
C22 C1 1_555 1_555
C2 C3 1_555 1_555
C5 C20 1_555 1_555
C14 C20 1_555 1_555
C19 C22 1_555 1_555
C20 C21 1_555 1_555
C21 C22 1_555 1_555

#END
