
#######################################################################
#
#                 Cambridge Crystallographic Data Centre
#                                CCDC 
#
#######################################################################
#
# If this CIF has been generated from an entry in the Cambridge 
# Structural Database, then it will include bibliographic, chemical, 
# crystal, experimental, refinement or atomic coordinate data resulting 
# from the CCDC's data processing and validation procedures.
#
#######################################################################

data_YETTAV01
_chemical_formula_moiety         'C11 H13 N2 1+,2(H2 O1),Cl1 1-'
_chemical_name_systematic        
'2,3,4,9-tetrahydro-1H-pyrrolo[2,1-b]quinazolin-10-ium chloride dihydrate'
_symmetry_cell_setting           orthorhombic
_symmetry_space_group_name_H-M   'P 21 21 21'
_symmetry_Int_Tables_number      19
_space_group_name_Hall           'P 2ac 2ab'
loop_
_symmetry_equiv_pos_site_id
_symmetry_equiv_pos_as_xyz
1 x,y,z
2 1/2-x,-y,1/2+z
3 1/2+x,1/2-y,-z
4 -x,1/2+y,1/2-z
_cell_length_a                   6.9445(6)
_cell_length_b                   9.6917(8)
_cell_length_c                   17.9575(15)
_cell_angle_alpha                90
_cell_angle_beta                 90
_cell_angle_gamma                90
_cell_volume                     1208.61
_exptl_crystal_colour            colorless
_exptl_crystal_description       plate
_cell_formula_units_Z            4
loop_
_atom_site_label
_atom_site_type_symbol
_atom_site_fract_x
_atom_site_fract_y
_atom_site_fract_z
N1 N 0.80721(14) 0.68022(7) 0.90682(4)
H1 H 0.792(3) 0.5946(18) 0.8892(10)
N2 N 0.80623(13) 0.91492(7) 0.88372(4)
C1 C 0.80497(15) 0.78675(8) 0.86080(4)
C2 C 0.81325(16) 0.95861(8) 0.96123(5)
H2 H 0.710(3) 1.0184(19) 0.9675(10)
H3 H 0.913(3) 1.006(2) 0.9667(11)
C3 C 0.81332(14) 0.83515(8) 1.01226(4)
C4 C 0.81802(19) 0.85429(11) 1.08896(5)
H4 H 0.809(3) 0.948(2) 1.1080(10)
C5 C 0.8162(2) 0.74197(13) 1.13725(6)
H5 H 0.818(3) 0.752(2) 1.1916(12)
C6 C 0.81212(18) 0.60853(12) 1.10870(6)
H6 H 0.819(3) 0.533(2) 1.1410(11)
C7 C 0.81028(16) 0.58744(10) 1.03199(5)
H7 H 0.803(3) 0.490(2) 1.0117(10)
C8 C 0.81003(14) 0.70076(8) 0.98458(4)
C9 C 0.8070(2) 0.77762(10) 0.77793(5)
H8 H 0.939(3) 0.747(2) 0.7668(10)
H9 H 0.718(3) 0.706(2) 0.7639(10)
C10 C 0.7593(2) 0.92664(11) 0.75425(5)
H10 H 0.828(3) 0.959(2) 0.7125(10)
H11 H 0.620(3) 0.932(2) 0.7462(11)
C11 C 0.8126(2) 1.01431(9) 0.82196(6)
H12 H 0.936(3) 1.055(2) 0.8190(11)
H13 H 0.723(3) 1.090(2) 0.8327(10)
O1 O 1.0681(2) 0.26874(16) 0.93038(9)
H14 H 0.988(3) 0.305(3) 0.9029(14)
H15 H 1.063(5) 0.304(3) 0.9704(9)
O2 O 1.4559(2) 0.24214(15) 0.91998(10)
H16 H 1.527(4) 0.293(3) 0.8956(14)
H17 H 1.3406(18) 0.263(3) 0.9196(17)
Cl1 Cl 0.75735(4) 0.40317(2) 0.823092(12)
loop_
_geom_bond_atom_site_label_1
_geom_bond_atom_site_label_2
_geom_bond_site_symmetry_1
_geom_bond_site_symmetry_2
N1 H1 1_555 1_555
N2 C1 1_555 1_555
C1 N1 1_555 1_555
C2 N2 1_555 1_555
H2 C2 1_555 1_555
H3 C2 1_555 1_555
C3 C2 1_555 1_555
C4 C3 1_555 1_555
H4 C4 1_555 1_555
C5 C4 1_555 1_555
H5 C5 1_555 1_555
C6 C5 1_555 1_555
H6 C6 1_555 1_555
C7 C6 1_555 1_555
H7 C7 1_555 1_555
C8 N1 1_555 1_555
C9 C1 1_555 1_555
H8 C9 1_555 1_555
H9 C9 1_555 1_555
C10 C9 1_555 1_555
H10 C10 1_555 1_555
H11 C10 1_555 1_555
C11 N2 1_555 1_555
H12 C11 1_555 1_555
H13 C11 1_555 1_555
O1 H14 1_555 1_555
H15 O1 1_555 1_555
O2 H16 1_555 1_555
H17 O2 1_555 1_555
C3 C8 1_555 1_555
C7 C8 1_555 1_555
C10 C11 1_555 1_555

#END
