
#######################################################################
#
#                 Cambridge Crystallographic Data Centre
#                                CCDC 
#
#######################################################################
#
# If this CIF has been generated from an entry in the Cambridge 
# Structural Database, then it will include bibliographic, chemical, 
# crystal, experimental, refinement or atomic coordinate data resulting 
# from the CCDC's data processing and validation procedures.
#
#######################################################################

data_YETVUR
_chemical_compound_source        'isolated from the roots of Murraya exotica'
_chemical_name_common            'exotimarin C hydrate'
_chemical_formula_moiety         'C30 H30 O8,3.85(H2 O1)'
_chemical_name_systematic        
'8-(3,6-dihydroxy-5-(7-methoxy-2-oxo-2H-chromen-8-yl)-3,7-dimethylocta-1,7-dien-1-yl)-7-methoxy-2H-chromen-2-one hydrate'
_symmetry_cell_setting           triclinic
_symmetry_space_group_name_H-M   'P -1'
_symmetry_Int_Tables_number      2
_space_group_name_Hall           '-P 1'
loop_
_symmetry_equiv_pos_site_id
_symmetry_equiv_pos_as_xyz
1 x,y,z
2 -x,-y,-z
_cell_length_a                   7.8641(4)
_cell_length_b                   10.7640(6)
_cell_length_c                   17.9117(11)
_cell_angle_alpha                95.773(5)
_cell_angle_beta                 95.130(5)
_cell_angle_gamma                96.473(4)
_cell_volume                     1491.1
_cell_formula_units_Z            2
loop_
_atom_site_label
_atom_site_type_symbol
_atom_site_fract_x
_atom_site_fract_y
_atom_site_fract_z
O1 O 0.2634(3) 0.1090(3) 0.17828(13)
O2 O 0.5901(3) 0.0589(2) 0.40357(12)
O3 O 0.0577(3) 0.2904(2) 0.31662(14)
H1 H 0.0444 0.3592 0.3379
O4 O 0.7075(3) 0.2729(3) 0.28138(17)
H2 H 0.6579 0.2797 0.2400
C1 C 0.4277(4) 0.0868(3) 0.29150(17)
O5 O 0.0815(3) -0.1896(3) 0.35000(17)
C2 C 0.3471(4) 0.0318(3) 0.22178(18)
C3 C 0.5118(4) 0.0064(3) 0.33484(18)
O6 O 0.1015(4) 0.1419(4) 0.07762(17)
C4 C 0.3419(4) -0.0959(4) 0.19611(19)
O7 O -0.2378(3) -0.0277(3) 0.15418(16)
C5 C 0.5118(4) -0.1218(3) 0.3100(2)
H3 H 0.5694 -0.1728 0.3399
C6 C -0.0765(4) -0.1068(4) 0.2520(2)
C7 C 0.1711(5) 0.0646(5) 0.1100(2)
C8 C 0.4195(4) 0.2254(3) 0.31854(18)
H4 H 0.3622 0.2621 0.2767
C9 C 0.4270(5) -0.1709(3) 0.2418(2)
H5 H 0.4262 -0.2559 0.2257
C10 C 0.1188(4) 0.2124(3) 0.37154(18)
C11 C -0.2206(6) -0.2528(5) 0.1454(3)
C12 C 0.0384(4) 0.2454(4) 0.4443(2)
H6 H 0.0670 0.3336 0.4606
H7 H 0.0820 0.1977 0.4827
H8 H -0.0843 0.2256 0.4355
C13 C 0.3146(4) 0.2452(3) 0.38630(18)
H9 H 0.3560 0.1954 0.4247
H10 H 0.3389 0.3329 0.4070
C14 C 0.6789(5) -0.0187(4) 0.4498(2)
H11 H 0.7720 -0.0480 0.4245
H12 H 0.6008 -0.0894 0.4589
H13 H 0.7237 0.0292 0.4969
C15 C 0.1646(5) -0.0659(5) 0.0840(2)
H14 H 0.1034 -0.0976 0.0379
C16 C 0.0712(4) 0.0741(4) 0.3452(2)
H15 H 0.1190 0.0177 0.3744
C17 C 0.2450(5) -0.1432(4) 0.1247(2)
H16 H 0.2384 -0.2280 0.1070
C18 C -0.0181(5) -0.2113(4) 0.2830(2)
C19 C -0.0315(4) 0.0259(4) 0.2847(2)
H17 H -0.0838 0.0841 0.2585
C20 C -0.1786(5) -0.1305(4) 0.1839(2)
C21 C -0.0557(6) -0.3352(4) 0.2466(3)
C22 C 0.5935(5) 0.4414(4) 0.3517(3)
C23 C 0.5993(4) 0.3011(3) 0.3384(2)
H18 H 0.6499 0.2743 0.3852
C24 C -0.1562(6) -0.3524(5) 0.1782(3)
H19 H -0.1819 -0.4332 0.1532
C25 C 0.5166(6) 0.5039(4) 0.2879(4)
H20 H 0.5656 0.4782 0.2425
H21 H 0.5404 0.5936 0.2994
H22 H 0.3944 0.4800 0.2810
C26 C 0.6565(7) 0.5039(5) 0.4180(4)
H23 H 0.6540 0.5903 0.4263
H24 H 0.7030 0.4612 0.4560
O8 O 0.2645(8) -0.2418(6) 0.4383(3)
C27 C 0.1176(14) -0.4025(9) 0.3494(7)
H25 H 0.1633 -0.4686 0.3705
C28 C 0.0073(14) -0.4245(9) 0.2813(6)
H26 H -0.0226 -0.5073 0.2598
C29 C 0.1539(6) -0.2865(5) 0.3820(3)
C30 C -0.3340(6) -0.0427(7) 0.0846(3)
H27 H -0.2612 -0.0607 0.0457
H28 H -0.3831 0.0332 0.0770
H29 H -0.4244 -0.1111 0.0830
O10 O 0.6851(7) 0.2994(5) 0.1311(3)
O11 O 0.0636(6) 0.3503(4) 0.1660(3)
O12 O 0.2605(19) -0.4694(8) 0.0953(6)
O13 O 0.482(3) 0.4569(15) 0.0632(15)
O9? O -0.3878(9) 0.0579(8) 0.0695(4)
C31? C -0.3182(12) -0.2661(10) 0.0768(6)
H30? H -0.3435 -0.3453 0.0496
C32? C -0.3795(13) -0.1636(13) 0.0476(6)
H31? H -0.4518 -0.1756 0.0028
H32? H 0.2297 -0.2521 0.4261
H33? H 0.2177 -0.3287 0.3461
H34? H 0.0643 -0.3452 0.3960
O14? O 0.085(5) -0.460(2) 0.0160(16)
loop_
_geom_bond_atom_site_label_1
_geom_bond_atom_site_label_2
_geom_bond_site_symmetry_1
_geom_bond_site_symmetry_2
O1 C2 1_555 1_555
O2 C3 1_555 1_555
O3 H1 1_555 1_555
O4 H2 1_555 1_555
C1 C2 1_555 1_555
O5 C18 1_555 1_555
C2 C4 1_555 1_555
C3 C1 1_555 1_555
O6 C7 1_555 1_555
C4 C9 1_555 1_555
O7 C20 1_555 1_555
C5 C3 1_555 1_555
H3 C5 1_555 1_555
C6 C18 1_555 1_555
C7 O1 1_555 1_555
C8 C1 1_555 1_555
H4 C8 1_555 1_555
C9 C5 1_555 1_555
H5 C9 1_555 1_555
C10 O3 1_555 1_555
C11 C20 1_555 1_555
C12 C10 1_555 1_555
H6 C12 1_555 1_555
H7 C12 1_555 1_555
H8 C12 1_555 1_555
C13 C8 1_555 1_555
H9 C13 1_555 1_555
H10 C13 1_555 1_555
C14 O2 1_555 1_555
H11 C14 1_555 1_555
H12 C14 1_555 1_555
H13 C14 1_555 1_555
C15 C7 1_555 1_555
H14 C15 1_555 1_555
C16 C10 1_555 1_555
H15 C16 1_555 1_555
C17 C4 1_555 1_555
H16 C17 1_555 1_555
C18 C21 1_555 1_555
C19 C6 1_555 1_555
H17 C19 1_555 1_555
C20 C6 1_555 1_555
C21 C24 1_555 1_555
C22 C23 1_555 1_555
C23 O4 1_555 1_555
H18 C23 1_555 1_555
C24 C11 1_555 1_555
H19 C24 1_555 1_555
C25 C22 1_555 1_555
H20 C25 1_555 1_555
H21 C25 1_555 1_555
H22 C25 1_555 1_555
C26 C22 1_555 1_555
H23 C26 1_555 1_555
H24 C26 1_555 1_555
O8 C29 1_555 1_555
C27 H25 1_555 1_555
C28 C21 1_555 1_555
H26 C28 1_555 1_555
C29 O5 1_555 1_555
C30 O7 1_555 1_555
H27 C30 1_555 1_555
H28 C30 1_555 1_555
H29 C30 1_555 1_555
C8 C23 1_555 1_555
C10 C13 1_555 1_555
C15 C17 1_555 1_555
C16 C19 1_555 1_555
C27 C28 1_555 1_555
C27 C29 1_555 1_555

#END
