
#######################################################################
#
#                 Cambridge Crystallographic Data Centre
#                                CCDC 
#
#######################################################################
#
# If this CIF has been generated from an entry in the Cambridge 
# Structural Database, then it will include bibliographic, chemical, 
# crystal, experimental, refinement or atomic coordinate data resulting 
# from the CCDC's data processing and validation procedures.
#
#######################################################################

data_YETWIG
_chemical_formula_moiety         'C55 H50 O10,C6 H14'
_chemical_name_systematic        
'4,9,14,19,26-pentamethoxy-24,28,30,32,34-pentakis(prop-2-yn-1-yloxy)hexacyclo[21.2.2.2^3,6^.2^8,11^.2^13,16^.2^18,21^]pentatriaconta-1(25),3,5,8,10,13,15,18,20,23,26,28,30,32,34-pentadecaene hexane solvate'
_symmetry_cell_setting           monoclinic
_symmetry_space_group_name_H-M   'P 21/n'
_symmetry_Int_Tables_number      14
_space_group_name_Hall           '-P 2yn'
loop_
_symmetry_equiv_pos_site_id
_symmetry_equiv_pos_as_xyz
1 x,y,z
2 1/2-x,1/2+y,1/2-z
3 -x,-y,-z
4 1/2+x,1/2-y,1/2+z
_cell_length_a                   18.9755(18)
_cell_length_b                   12.7943(12)
_cell_length_c                   21.464(2)
_cell_angle_alpha                90
_cell_angle_beta                 98.717(2)
_cell_angle_gamma                90
_cell_volume                     5150.8
_cell_formula_units_Z            4
loop_
_atom_site_label
_atom_site_type_symbol
_atom_site_fract_x
_atom_site_fract_y
_atom_site_fract_z
O1 O -0.02375(9) 0.48172(14) 0.08773(9)
O2 O -0.18580(10) 0.79841(16) 0.08695(9)
O3 O 0.07427(10) 0.87538(16) 0.03842(10)
O4 O 0.07732(11) 1.00961(16) 0.42695(9)
C1 C -0.00151(14) 0.5808(2) 0.07426(11)
O5 O 0.23192(11) 0.62421(18) 0.17784(10)
C2 C -0.02197(14) 0.7604(2) 0.04184(11)
O6 O -0.00615(12) 1.11514(16) 0.19036(11)
C3 C -0.02249(15) 0.8983(2) 0.41922(12)
O7 O -0.18913(11) 0.89830(18) 0.30397(10)
C4 C -0.14440(14) 0.8807(2) 0.11306(12)
C5 C 0.05714(16) 0.7457(2) 0.45372(11)
C6 C 0.13873(14) 0.5030(2) 0.17817(13)
O8 O 0.23519(11) 0.6931(2) 0.40887(11)
C7 C -0.02153(16) 1.0344(2) 0.34148(13)
H1 H 0.0021 1.0897 0.3256
C8 C 0.09752(14) 0.6953(2) 0.07161(12)
H2 H 0.1464 0.7070 0.0772
C9 C 0.09795(14) 0.4398(2) 0.21071(13)
H3 H 0.0619 0.3991 0.1886
C10 C -0.09815(15) 0.4609(2) 0.07471(14)
C11 C -0.08761(14) 0.9083(2) 0.08215(11)
C12 C 0.07264(14) 0.5973(2) 0.08404(11)
C13 C 0.13548(15) 0.5836(2) 0.40926(12)
C14 C -0.08827(15) 1.0064(2) 0.31148(12)
C15 C -0.04757(14) 0.6619(2) 0.05302(11)
H4 H -0.0965 0.6498 0.0462
C16 C 0.16446(15) 0.4937(2) 0.31095(13)
C17 C 0.01129(15) 0.9821(2) 0.39480(13)
C18 C 0.06605(15) 0.5671(2) 0.41973(12)
H5 H 0.0455 0.5014 0.4124
C19 C 0.19380(15) 0.5614(2) 0.21257(13)
O9 O 0.07058(11) 0.3756(2) 0.31182(11)
C20 C 0.05188(15) 0.7765(2) 0.05118(12)
C21 C 0.02638(15) 0.6483(2) 0.44121(12)
C22 C 0.12729(15) 0.7608(2) 0.44356(12)
H6 H 0.1487 0.8257 0.4521
C23 C -0.11016(15) 1.0125(2) 0.19290(13)
C24 C -0.08994(15) 0.8701(2) 0.38929(13)
H7 H -0.1137 0.8149 0.4052
C25 C 0.12333(15) 0.5096(2) 0.10703(12)
H8 H 0.1678 0.5199 0.0907
H9 H 0.1030 0.4438 0.0905
C26 C -0.15596(15) 0.9336(2) 0.16671(13)
H10 H -0.1952 0.9161 0.1858
C27 C -0.04216(15) 0.9872(2) 0.10784(13)
H11 H -0.0043 1.0068 0.0875
C28 C 0.01400(16) 0.8359(2) 0.47513(12)
H12 H -0.0216 0.8085 0.4987
H13 H 0.0454 0.8816 0.5028
C29 C 0.16577(15) 0.6809(3) 0.42100(13)
C30 C -0.12269(15) 0.9230(2) 0.33587(13)
C31 C -0.07266(14) 0.8505(2) 0.02407(12)
H14 H -0.1170 0.8241 0.0011
H15 H -0.0520 0.8982 -0.0033
C32 C 0.20645(15) 0.5562(2) 0.27827(13)
H16 H 0.2434 0.5951 0.3005
C33 C 0.11045(15) 0.4365(2) 0.27735(14)
C34 C -0.05168(16) 1.0374(2) 0.16283(13)
C35 C -0.03808(16) 0.3170(2) 0.33427(14)
C36 C -0.27097(16) 0.6694(3) 0.09351(15)
C37 C -0.12268(17) 1.0653(2) 0.25337(13)
H17 H -0.1736 1.0705 0.2540
H18 H -0.1035 1.1357 0.2545
C38 C 0.17606(16) 0.4949(3) 0.38294(13)
H19 H 0.1605 0.4286 0.3982
H20 H 0.2266 0.5024 0.3983
C39 C 0.00041(18) 0.3500(3) 0.28482(15)
C40 C -0.10895(16) 0.3539(3) 0.09290(14)
C41 C 0.11057(18) 1.1006(3) 0.40440(14)
H21 H 0.1241 1.0862 0.3635
H22 H 0.0773 1.1587 0.4000
C42 C -0.06821(17) 0.2880(2) 0.37599(16)
H23 H -0.0917 0.2653 0.4085
C43 C 0.17205(18) 1.1267(3) 0.44828(15)
C44 C -0.24302(18) 0.7679(3) 0.11931(18)
C45 C 0.14798(16) 0.8972(3) 0.05181(19)
H24 H 0.1640 0.8884 0.0961
H25 H 0.1565 0.9679 0.0399
H26 H 0.1736 0.8502 0.0285
C46 C -0.11913(18) 0.2668(3) 0.10741(18)
H27 H -0.1271 0.1982 0.1188
C47 C 0.05029(18) 1.1504(3) 0.15513(18)
H28 H 0.0811 1.0927 0.1495
H29 H 0.0775 1.2049 0.1782
H30 H 0.0291 1.1765 0.1147
C48 C 0.2243(2) 1.1513(3) 0.48485(17)
H31 H 0.2645 1.1703 0.5130
C49 C -0.2276(2) 0.8185(4) 0.32980(17)
H32 H -0.2020 0.7538 0.3301
H33 H -0.2737 0.8108 0.3047
H34 H -0.2333 0.8368 0.3721
C50 C 0.28030(19) 0.6970(3) 0.21074(17)
H35 H 0.2552 0.7419 0.2357
H36 H 0.3013 0.7383 0.1810
H37 H 0.3171 0.6601 0.2377
C51 C 0.26440(18) 0.7947(3) 0.41405(18)
H38 H 0.2355 0.8405 0.3854
H39 H 0.3120 0.7930 0.4039
H40 H 0.2656 0.8196 0.4564
C52 C -0.07900(16) 0.5448(2) 0.42888(13)
H41 H -0.0583 0.4852 0.4530
H42 H -0.0737 0.5340 0.3851
C53 C -0.15273(17) 0.5534(2) 0.43440(13)
C54 C -0.29682(19) 0.5892(3) 0.07377(16)
H43 H -0.3171 0.5264 0.0583
O10 O -0.04317(11) 0.63751(15) 0.45168(9)
C55 C -0.2149(2) 0.5570(3) 0.43766(17)
H44 H -0.2633 0.5598 0.4402
H45 H -0.1258(16) 0.504(2) 0.0990(15)
H46 H -0.1153(15) 0.467(2) 0.0292(15)
H47 H -0.2808(19) 0.819(3) 0.1132(16)
H48 H -0.027(2) 0.405(3) 0.2573(19)
H49 H 0.002(2) 0.296(4) 0.256(2)
H50 H -0.224(2) 0.756(3) 0.168(2)
C56 C 1.1175(3) 0.8808(4) 0.2484(2)
H51 H 1.1235 0.8738 0.2050
H52 H 1.1635 0.8826 0.2742
H53 H 1.0924 0.9444 0.2539
C57 C 0.9660(3) 0.6758(3) 0.2522(2)
H54 H 0.9821 0.6417 0.2900
C58 C 1.0772(4) 0.7928(5) 0.2666(3)
H55 H 1.0974 0.7553 0.3019
C59 C 0.8537(2) 0.5643(3) 0.2406(2)
H56 H 0.8798 0.5045 0.2585
H57 H 0.8197 0.5428 0.2051
H58 H 0.8291 0.5960 0.2717
C60 C 0.9033(4) 0.6402(8) 0.2198(3)
C61 C 1.0105(3) 0.7586(5) 0.2358(3)
H59 H 0.9926 0.7952 0.1994
H60 H 0.886(3) 0.684(5) 0.169(3)
loop_
_geom_bond_atom_site_label_1
_geom_bond_atom_site_label_2
_geom_bond_site_symmetry_1
_geom_bond_site_symmetry_2
O1 C1 1_555 1_555
O2 C4 1_555 1_555
O3 C20 1_555 1_555
O4 C17 1_555 1_555
C1 C12 1_555 1_555
O5 C19 1_555 1_555
C2 C15 1_555 1_555
O6 C34 1_555 1_555
C3 C17 1_555 1_555
O7 C30 1_555 1_555
C4 C11 1_555 1_555
C5 C21 1_555 1_555
C6 C9 1_555 1_555
O8 C29 1_555 1_555
C7 H1 1_555 1_555
C8 H2 1_555 1_555
C9 H3 1_555 1_555
C10 O1 1_555 1_555
C11 C27 1_555 1_555
C12 C8 1_555 1_555
C13 C18 1_555 1_555
C14 C7 1_555 1_555
C15 C1 1_555 1_555
H4 C15 1_555 1_555
C16 C32 1_555 1_555
C17 C7 1_555 1_555
C18 H5 1_555 1_555
C19 C6 1_555 1_555
O9 C33 1_555 1_555
C20 C2 1_555 1_555
C21 C18 1_555 1_555
C22 C5 1_555 1_555
H6 C22 1_555 1_555
C23 C26 1_555 1_555
C24 C3 1_555 1_555
H7 C24 1_555 1_555
C25 C6 1_555 1_555
H8 C25 1_555 1_555
H9 C25 1_555 1_555
C26 C4 1_555 1_555
H10 C26 1_555 1_555
C27 H11 1_555 1_555
C28 C3 1_555 1_555
H12 C28 1_555 1_555
H13 C28 1_555 1_555
C29 C13 1_555 1_555
C30 C14 1_555 1_555
C31 C2 1_555 1_555
H14 C31 1_555 1_555
H15 C31 1_555 1_555
C32 C19 1_555 1_555
H16 C32 1_555 1_555
C33 C9 1_555 1_555
C34 C23 1_555 1_555
C35 C39 1_555 1_555
C36 C44 1_555 1_555
C37 C14 1_555 1_555
H17 C37 1_555 1_555
H18 C37 1_555 1_555
C38 C13 1_555 1_555
H19 C38 1_555 1_555
H20 C38 1_555 1_555
C39 O9 1_555 1_555
C40 C10 1_555 1_555
C41 O4 1_555 1_555
H21 C41 1_555 1_555
H22 C41 1_555 1_555
C42 C35 1_555 1_555
H23 C42 1_555 1_555
C43 C41 1_555 1_555
C44 O2 1_555 1_555
C45 O3 1_555 1_555
H24 C45 1_555 1_555
H25 C45 1_555 1_555
H26 C45 1_555 1_555
C46 C40 1_555 1_555
H27 C46 1_555 1_555
C47 O6 1_555 1_555
H28 C47 1_555 1_555
H29 C47 1_555 1_555
H30 C47 1_555 1_555
C48 C43 1_555 1_555
H31 C48 1_555 1_555
C49 O7 1_555 1_555
H32 C49 1_555 1_555
H33 C49 1_555 1_555
H34 C49 1_555 1_555
C50 O5 1_555 1_555
H35 C50 1_555 1_555
H36 C50 1_555 1_555
H37 C50 1_555 1_555
C51 O8 1_555 1_555
H38 C51 1_555 1_555
H39 C51 1_555 1_555
H40 C51 1_555 1_555
C52 H41 1_555 1_555
H42 C52 1_555 1_555
C53 C52 1_555 1_555
C54 C36 1_555 1_555
H43 C54 1_555 1_555
O10 C21 1_555 1_555
C55 C53 1_555 1_555
H44 C55 1_555 1_555
H45 C10 1_555 1_555
H46 C10 1_555 1_555
H47 C44 1_555 1_555
H48 C39 1_555 1_555
H49 C39 1_555 1_555
H50 C44 1_555 1_555
C56 H51 1_555 1_555
H52 C56 1_555 1_555
H53 C56 1_555 1_555
C57 H54 1_555 1_555
C58 C56 1_555 1_555
H55 C58 1_555 1_555
C59 H56 1_555 1_555
H57 C59 1_555 1_555
H58 C59 1_555 1_555
C60 C57 1_555 1_555
C61 C57 1_555 1_555
H59 C61 1_555 1_555
H60 C60 1_555 1_555
C5 C28 1_555 1_555
C8 C20 1_555 1_555
C11 C31 1_555 1_555
C12 C25 1_555 1_555
C16 C33 1_555 1_555
C16 C38 1_555 1_555
C22 C29 1_555 1_555
C23 C37 1_555 1_555
C24 C30 1_555 1_555
C27 C34 1_555 1_555
C52 O10 1_555 1_555
C58 C61 1_555 1_555
C59 C60 1_555 1_555

#END
