
#######################################################################
#
#                 Cambridge Crystallographic Data Centre
#                                CCDC 
#
#######################################################################
#
# If this CIF has been generated from an entry in the Cambridge 
# Structural Database, then it will include bibliographic, chemical, 
# crystal, experimental, refinement or atomic coordinate data resulting 
# from the CCDC's data processing and validation procedures.
#
#######################################################################

data_YETWEC
_chemical_compound_source        
'ethyl acetate extract of the aerial parts of Isodon pharicus'
_chemical_name_common            'pharicin R'
_chemical_formula_moiety         'C23 H34 O7'
_chemical_name_systematic        
'6,7-dihydroxy-17-methoxy-15-oxo-7,20-epoxyk-auran-1-yl acetate'
_chemical_properties_biological  
'cytotoxic activity against a panel of tumor cell lines, including HL-60, SMMC-7721, A-549, MCF-7, and SW-480'
_symmetry_cell_setting           orthorhombic
_symmetry_space_group_name_H-M   'P 21 21 21'
_symmetry_Int_Tables_number      19
_space_group_name_Hall           'P 2ac 2ab'
loop_
_symmetry_equiv_pos_site_id
_symmetry_equiv_pos_as_xyz
1 x,y,z
2 1/2+x,1/2-y,-z
3 -x,1/2+y,1/2-z
4 1/2-x,-y,1/2+z
_cell_length_a                   6.0940(9)
_cell_length_b                   14.234(2)
_cell_length_c                   24.331(4)
_cell_angle_alpha                90
_cell_angle_beta                 90
_cell_angle_gamma                90
_cell_volume                     2110.52
_exptl_crystal_colour            colorless
_exptl_crystal_description       needle
_cell_formula_units_Z            4
loop_
_atom_site_label
_atom_site_type_symbol
_atom_site_fract_x
_atom_site_fract_y
_atom_site_fract_z
O1 O 1.0873(11) 0.6804(8) 0.6970(3)
O2 O 0.7490(9) 0.7024(5) 0.7290(2)
O3 O 0.5479(15) 0.2557(5) 0.9398(3)
O4 O 0.6624(10) 0.7262(5) 0.9758(2)
H1 H 0.7969 0.7161 0.9711
O5 O 0.2943(9) 0.7158(4) 0.85738(19)
O6 O 0.7237(10) 0.5395(4) 0.9665(2)
O7 O 0.2372(10) 0.6487(5) 0.9410(2)
H2 H 0.2351 0.6867 0.9674
C1 C 0.9012(15) 0.6775(7) 0.6904(3)
C2 C 0.8330(13) 0.7403(8) 0.7804(3)
H3 H 0.9796 0.7116 0.7881
C3 C 0.6746(13) 0.7147(7) 0.8270(3)
C4 C 0.7021(13) 0.6068(7) 0.8435(3)
H4 H 0.8421 0.6016 0.8647
C5 C 0.5116(13) 0.5808(7) 0.8840(3)
C6 C 0.6025(14) 0.5184(7) 0.9293(3)
C7 C 0.5266(17) 0.4178(8) 0.9176(4)
H5 H 0.3832 0.4104 0.9371
C8 C 0.6739(18) 0.3433(7) 0.9404(4)
H6 H 0.8075 0.3369 0.9175
H7 H 0.7187 0.3592 0.9784
C9 C 0.668(3) 0.1770(10) 0.9593(7)
H8 H 0.7127 0.1879 0.9974
H9 H 0.7989 0.1680 0.9364
H10 H 0.5759 0.1207 0.9574
C10 C 0.782(2) 0.6477(8) 0.6382(3)
H11 H 0.8184 0.5824 0.6296
H12 H 0.8268 0.6884 0.6077
H13 H 0.6230 0.6534 0.6438
C11 C 0.8617(15) 0.8469(8) 0.7722(3)
H14 H 0.9718 0.8583 0.7430
H15 H 0.7207 0.8745 0.7600
C12 C 0.9355(13) 0.8946(8) 0.8250(3)
H16 H 1.0790 0.8684 0.8364
H17 H 0.9556 0.9626 0.8180
C13 C 0.7715(13) 0.8817(6) 0.8715(3)
C14 C 0.8725(16) 0.9166(8) 0.9251(3)
H18 H 0.8922 0.9848 0.9233
H19 H 1.0152 0.8863 0.9307
H20 H 0.7750 0.9010 0.9558
C15 C 0.7279(13) 0.7714(7) 0.8786(3)
H21 H 0.8708 0.7453 0.8919
C16 C 0.5638(13) 0.7487(6) 0.9247(3)
H22 H 0.4764 0.8072 0.9308
C17 C 0.4009(13) 0.6738(7) 0.9046(3)
C18 C 0.4314(12) 0.7248(7) 0.8097(3)
H23 H 0.4077 0.7869 0.7924
H24 H 0.3934 0.6756 0.7826
C19 C 0.7130(13) 0.5336(7) 0.7975(3)
H25 H 0.8577 0.5376 0.7792
H26 H 0.5989 0.5478 0.7698
C20 C 0.6781(15) 0.4311(8) 0.8195(4)
H27 H 0.6632 0.3877 0.7879
H28 H 0.8091 0.4117 0.8407
C21 C 0.4713(15) 0.4225(8) 0.8566(3)
H29 H 0.3771 0.3684 0.8452
C22 C 0.3448(13) 0.5139(6) 0.8554(3)
H30 H 0.2060 0.5093 0.8763
H31 H 0.3128 0.5341 0.8173
C23 C 0.5601(15) 0.9400(7) 0.8600(3)
H32 H 0.5955 1.0071 0.8608
H33 H 0.4500 0.9261 0.8883
H34 H 0.5017 0.9233 0.8238
loop_
_geom_bond_atom_site_label_1
_geom_bond_atom_site_label_2
_geom_bond_site_symmetry_1
_geom_bond_site_symmetry_2
O1 C1 1_555 1_555
O2 C1 1_555 1_555
O3 C8 1_555 1_555
O4 H1 1_555 1_555
O5 C17 1_555 1_555
O6 C6 1_555 1_555
O7 H2 1_555 1_555
C1 C10 1_555 1_555
C2 O2 1_555 1_555
H3 C2 1_555 1_555
C3 C2 1_555 1_555
C4 C3 1_555 1_555
H4 C4 1_555 1_555
C5 C4 1_555 1_555
C6 C5 1_555 1_555
C7 C6 1_555 1_555
H5 C7 1_555 1_555
C8 C7 1_555 1_555
H6 C8 1_555 1_555
H7 C8 1_555 1_555
C9 O3 1_555 1_555
H8 C9 1_555 1_555
H9 C9 1_555 1_555
H10 C9 1_555 1_555
C10 H11 1_555 1_555
H12 C10 1_555 1_555
H13 C10 1_555 1_555
C11 C2 1_555 1_555
H14 C11 1_555 1_555
H15 C11 1_555 1_555
C12 C11 1_555 1_555
H16 C12 1_555 1_555
H17 C12 1_555 1_555
C13 C12 1_555 1_555
C14 C13 1_555 1_555
H18 C14 1_555 1_555
H19 C14 1_555 1_555
H20 C14 1_555 1_555
C15 C3 1_555 1_555
H21 C15 1_555 1_555
C16 O4 1_555 1_555
H22 C16 1_555 1_555
C17 O7 1_555 1_555
C18 O5 1_555 1_555
H23 C18 1_555 1_555
H24 C18 1_555 1_555
C19 C4 1_555 1_555
H25 C19 1_555 1_555
H26 C19 1_555 1_555
C20 C19 1_555 1_555
H27 C20 1_555 1_555
H28 C20 1_555 1_555
C21 C7 1_555 1_555
H29 C21 1_555 1_555
C22 C5 1_555 1_555
H30 C22 1_555 1_555
H31 C22 1_555 1_555
C23 C13 1_555 1_555
H32 C23 1_555 1_555
H33 C23 1_555 1_555
H34 C23 1_555 1_555
C3 C18 1_555 1_555
C5 C17 1_555 1_555
C13 C15 1_555 1_555
C15 C16 1_555 1_555
C16 C17 1_555 1_555
C20 C21 1_555 1_555
C21 C22 1_555 1_555

#END
