
#######################################################################
#
#                 Cambridge Crystallographic Data Centre
#                                CCDC 
#
#######################################################################
#
# If this CIF has been generated from an entry in the Cambridge 
# Structural Database, then it will include bibliographic, chemical, 
# crystal, experimental, refinement or atomic coordinate data resulting 
# from the CCDC's data processing and validation procedures.
#
#######################################################################

data_YETWAY
_chemical_compound_source        
'ethyl acetate extract of the aerial parts of Isodon pharicus'
_chemical_name_common            'pharicin C'
_chemical_formula_moiety         'C22 H32 O7'
_chemical_name_systematic        
'6,7,12,15-tetrahydroxy-7,20-epoxykaur-16-en-18-yl acetate'
_symmetry_cell_setting           monoclinic
_symmetry_space_group_name_H-M   'P 21'
_symmetry_Int_Tables_number      4
_space_group_name_Hall           'P 2yb'
loop_
_symmetry_equiv_pos_site_id
_symmetry_equiv_pos_as_xyz
1 x,y,z
2 -x,1/2+y,-z
_cell_length_a                   11.7461(5)
_cell_length_b                   6.1602(2)
_cell_length_c                   13.8313(5)
_cell_angle_alpha                90
_cell_angle_beta                 99.472(2)
_cell_angle_gamma                90
_cell_volume                     987.165
_exptl_crystal_colour            colorless
_exptl_crystal_description       needle
_cell_formula_units_Z            2
loop_
_atom_site_label
_atom_site_type_symbol
_atom_site_fract_x
_atom_site_fract_y
_atom_site_fract_z
O1 O -0.3157(4) 0.4122(9) 0.5455(3)
O2 O -0.3416(3) 0.4907(8) 0.6989(3)
O3 O 0.0693(3) 0.4082(7) 0.7665(3)
O4 O 0.1493(4) 0.3953(7) 0.9268(3)
H1 H 0.1544 0.2709 0.9030
O5 O 0.1993(3) 0.9761(7) 0.9696(3)
H2 H 0.2124 1.0981 0.9466
O6 O 0.4236(4) 0.8595(8) 0.6458(3)
H3 H 0.3926 0.9064 0.5907
O7 O 0.0061(3) 0.7595(7) 0.9635(3)
H4 H 0.0419 0.8765 0.9597
C1 C -0.3782(5) 0.4294(11) 0.6085(4)
C2 C -0.2174(5) 0.5215(11) 0.7282(4)
H5 H -0.1767 0.4670 0.6758
H6 H -0.1902 0.4366 0.7884
C3 C -0.1880(5) 0.7633(10) 0.7474(4)
C4 C -0.0547(4) 0.7922(9) 0.7832(4)
H7 H -0.0456 0.9450 0.8078
C5 C -0.0058(4) 0.6492(10) 0.8726(4)
H8 H -0.0633 0.5307 0.8755
C6 C 0.1050(5) 0.5388(10) 0.8527(4)
C7 C 0.1998(4) 0.6985(9) 0.8338(4)
C8 C 0.2623(5) 0.8134(10) 0.9272(4)
H9 H 0.2835 0.6986 0.9781
C9 C 0.3732(5) 0.8953(11) 0.8990(4)
C10 C 0.4358(5) 1.0530(12) 0.9433(5)
H10 H 0.5015 1.1036 0.9181
H11 H 0.4157 1.1168 1.0007
C11 C -0.5041(5) 0.3760(13) 0.5894(5)
H12 H -0.5340 0.3940 0.5194
H13 H -0.5455 0.4736 0.6276
H14 H -0.5153 0.2255 0.6087
C12 C -0.2221(5) 0.8979(11) 0.6546(4)
H15 H -0.3038 0.8662 0.6277
H16 H -0.2173 1.0533 0.6731
C13 C -0.1509(5) 0.8626(11) 0.5739(4)
H17 H -0.1782 0.9612 0.5185
H18 H -0.1609 0.7113 0.5498
C14 C -0.0231(5) 0.9057(11) 0.6118(4)
H19 H -0.0124 1.0624 0.6263
H20 H 0.0220 0.8691 0.5596
C15 C 0.0246(5) 0.7755(10) 0.7044(4)
C16 C 0.0436(5) 0.5376(10) 0.6798(4)
H21 H -0.0267 0.4806 0.6381
H22 H 0.1082 0.5273 0.6422
C17 C 0.3909(5) 0.7743(10) 0.8081(4)
H23 H 0.4724 0.7229 0.8128
C18 C 0.3559(5) 0.9225(10) 0.7181(4)
H24 H 0.3739 1.0767 0.7375
C19 C 0.2259(5) 0.9024(10) 0.6766(4)
H25 H 0.2007 1.0374 0.6405
H26 H 0.2155 0.7816 0.6287
C20 C 0.1465(5) 0.8626(10) 0.7528(4)
H27 H 0.1351 1.0041 0.7853
C21 C 0.3061(5) 0.5822(10) 0.8040(4)
H28 H 0.3360 0.4668 0.8513
H29 H 0.2882 0.5195 0.7373
C22 C -0.2514(5) 0.8454(11) 0.8266(4)
H30 H -0.2184 0.9848 0.8513
H31 H -0.2436 0.7400 0.8804
H32 H -0.3332 0.8646 0.7995
loop_
_geom_bond_atom_site_label_1
_geom_bond_atom_site_label_2
_geom_bond_site_symmetry_1
_geom_bond_site_symmetry_2
O1 C1 1_555 1_555
O2 C1 1_555 1_555
O3 C6 1_555 1_555
O4 H1 1_555 1_555
O5 H2 1_555 1_555
O6 H3 1_555 1_555
O7 H4 1_555 1_555
C1 C11 1_555 1_555
C2 O2 1_555 1_555
H5 C2 1_555 1_555
H6 C2 1_555 1_555
C3 C2 1_555 1_555
C4 C3 1_555 1_555
H7 C4 1_555 1_555
C5 O7 1_555 1_555
H8 C5 1_555 1_555
C6 O4 1_555 1_555
C7 C6 1_555 1_555
C8 O5 1_555 1_555
H9 C8 1_555 1_555
C9 C8 1_555 1_555
C10 C9 1_555 1_555
H10 C10 1_555 1_555
H11 C10 1_555 1_555
C11 H12 1_555 1_555
H13 C11 1_555 1_555
H14 C11 1_555 1_555
C12 C3 1_555 1_555
H15 C12 1_555 1_555
H16 C12 1_555 1_555
C13 C12 1_555 1_555
H17 C13 1_555 1_555
H18 C13 1_555 1_555
C14 C13 1_555 1_555
H19 C14 1_555 1_555
H20 C14 1_555 1_555
C15 C4 1_555 1_555
C16 O3 1_555 1_555
H21 C16 1_555 1_555
H22 C16 1_555 1_555
C17 C9 1_555 1_555
H23 C17 1_555 1_555
C18 O6 1_555 1_555
H24 C18 1_555 1_555
C19 C18 1_555 1_555
H25 C19 1_555 1_555
H26 C19 1_555 1_555
C20 C7 1_555 1_555
H27 C20 1_555 1_555
C21 C7 1_555 1_555
H28 C21 1_555 1_555
H29 C21 1_555 1_555
C22 C3 1_555 1_555
H30 C22 1_555 1_555
H31 C22 1_555 1_555
H32 C22 1_555 1_555
C4 C5 1_555 1_555
C5 C6 1_555 1_555
C7 C8 1_555 1_555
C14 C15 1_555 1_555
C15 C16 1_555 1_555
C15 C20 1_555 1_555
C17 C18 1_555 1_555
C17 C21 1_555 1_555
C19 C20 1_555 1_555

#END
