
#######################################################################
#
#                 Cambridge Crystallographic Data Centre
#                                CCDC 
#
#######################################################################
#
# If this CIF has been generated from an entry in the Cambridge 
# Structural Database, then it will include bibliographic, chemical, 
# crystal, experimental, refinement or atomic coordinate data resulting 
# from the CCDC's data processing and validation procedures.
#
#######################################################################

data_YETXUT
_chemical_compound_source        
'isolated from a whole plant extract of Eupatorium chinense'
_chemical_name_common            'eupachinsin A'
_chemical_formula_moiety         'C22 H28 O8'
_chemical_name_systematic        
'9-(acetyloxy)-8-hydroxy-6,10-dimethyl-3-methylidene-2-oxo-2,3,3a,4,5,8,9,11a-octahydrocyclodeca[b]furan-4-yl 2-(hydroxymethyl)but-2-enoate'
_symmetry_cell_setting           orthorhombic
_symmetry_space_group_name_H-M   'P 21 21 21'
_symmetry_Int_Tables_number      19
_space_group_name_Hall           'P 2ac 2ab'
loop_
_symmetry_equiv_pos_site_id
_symmetry_equiv_pos_as_xyz
1 x,y,z
2 1/2-x,-y,1/2+z
3 -x,1/2+y,1/2-z
4 1/2+x,1/2-y,-z
_cell_length_a                   10.6433(2)
_cell_length_b                   13.6676(3)
_cell_length_c                   14.8419(3)
_cell_angle_alpha                90
_cell_angle_beta                 90
_cell_angle_gamma                90
_cell_volume                     2159.03
_exptl_crystal_colour            colorless
_exptl_crystal_description       block
_cell_formula_units_Z            4
loop_
_atom_site_label
_atom_site_type_symbol
_atom_site_fract_x
_atom_site_fract_y
_atom_site_fract_z
O1 O 0.26572(11) 0.62101(9) 0.15614(8)
O2 O 0.45700(12) 0.55391(10) 0.42637(8)
O3 O 0.42141(12) 0.77070(10) 0.33962(9)
O4 O 0.27059(14) 0.74353(10) 0.05643(9)
O5 O 0.70426(15) 0.39444(10) 0.56588(9)
H1 H 0.697806 0.344382 0.535788
O6 O 0.55157(14) 0.57776(11) 0.56005(9)
O7 O -0.05818(13) 0.56947(11) 0.22197(9)
H2 H -0.087800 0.569009 0.170972
O8 O 0.52571(15) 0.86514(12) 0.43762(13)
C1 C 0.55690(17) 0.55161(12) 0.48230(12)
C2 C 0.32465(18) 0.68030(13) 0.09759(11)
C3 C 0.13503(16) 0.64630(13) 0.17523(12)
H3 H 0.092900 0.659493 0.117791
C4 C 0.20266(17) 0.76060(12) 0.30066(12)
H4 H 0.186002 0.820200 0.328433
C5 C 0.31178(16) 0.70452(12) 0.33882(11)
H5 H 0.329123 0.646088 0.302631
C6 C 0.11762(17) 0.53743(13) 0.31181(12)
H6 H 0.070242 0.567793 0.356419
C7 C 0.21452(18) 0.48482(13) 0.34061(12)
C8 C 0.07460(17) 0.55433(13) 0.21723(12)
H7 H 0.093110 0.496816 0.180110
C9 C 0.67231(16) 0.50898(13) 0.44210(13)
C10 C 0.28958(17) 0.67677(13) 0.43908(11)
H8 H 0.199829 0.682905 0.452703
C11 C 0.12613(17) 0.73735(13) 0.23266(12)
C12 C 0.35999(18) 0.75574(15) 0.48812(14)
C13 C 0.33412(17) 0.57399(14) 0.46622(11)
H9 H 0.343708 0.572908 0.531886
C14 C 0.24706(18) 0.49030(14) 0.43996(13)
H10 H 0.286227 0.429128 0.457536
H11 H 0.169684 0.496558 0.474008
C15 C 0.76057(18) 0.46974(14) 0.51245(13)
H12 H 0.834883 0.443830 0.483095
H13 H 0.786813 0.522862 0.551491
C16 C 0.44569(19) 0.80457(14) 0.42367(15)
C17 C 0.4617(2) 0.65828(18) 0.09217(15)
H14 H 0.504368 0.688855 0.141726
H15 H 0.494738 0.683036 0.036463
H16 H 0.474259 0.588785 0.094839
C18 C 0.70207(19) 0.50575(16) 0.35469(13)
H17 H 0.777070 0.473827 0.341659
C19 C 0.2984(2) 0.42274(15) 0.28234(14)
H18 H 0.269921 0.425788 0.221025
H19 H 0.295641 0.356193 0.302934
H20 H 0.383038 0.446645 0.285891
C20 C 0.0175(2) 0.80266(15) 0.20922(14)
H21 H 0.028854 0.828208 0.149523
H22 H 0.013402 0.855767 0.251453
H23 H -0.059159 0.765766 0.211705
C21 C 0.3505(3) 0.78084(18) 0.57447(16)
C22 C 0.6342(2) 0.5451(2) 0.27490(14)
H24 H 0.601571 0.491902 0.239787
H25 H 0.691069 0.582993 0.238772
H26 H 0.566142 0.585945 0.294660
H27 H 0.292(3) 0.744(2) 0.6177(19)
H28 H 0.406(3) 0.833(2) 0.5954(18)
loop_
_geom_bond_atom_site_label_1
_geom_bond_atom_site_label_2
_geom_bond_site_symmetry_1
_geom_bond_site_symmetry_2
O1 C2 1_555 1_555
O2 C1 1_555 1_555
O3 C5 1_555 1_555
O4 C2 1_555 1_555
O5 H1 1_555 1_555
O6 C1 1_555 1_555
O7 H2 1_555 1_555
O8 C16 1_555 1_555
C1 C9 1_555 1_555
C2 C17 1_555 1_555
C3 O1 1_555 1_555
H3 C3 1_555 1_555
C4 H4 1_555 1_555
C5 C4 1_555 1_555
H5 C5 1_555 1_555
C6 H6 1_555 1_555
C7 C6 1_555 1_555
C8 O7 1_555 1_555
H7 C8 1_555 1_555
C9 C15 1_555 1_555
C10 C5 1_555 1_555
H8 C10 1_555 1_555
C11 C3 1_555 1_555
C12 C10 1_555 1_555
C13 O2 1_555 1_555
H9 C13 1_555 1_555
C14 C7 1_555 1_555
H10 C14 1_555 1_555
H11 C14 1_555 1_555
C15 O5 1_555 1_555
H12 C15 1_555 1_555
H13 C15 1_555 1_555
C16 O3 1_555 1_555
C17 H14 1_555 1_555
H15 C17 1_555 1_555
H16 C17 1_555 1_555
C18 C9 1_555 1_555
H17 C18 1_555 1_555
C19 C7 1_555 1_555
H18 C19 1_555 1_555
H19 C19 1_555 1_555
H20 C19 1_555 1_555
C20 C11 1_555 1_555
H21 C20 1_555 1_555
H22 C20 1_555 1_555
H23 C20 1_555 1_555
C21 C12 1_555 1_555
C22 C18 1_555 1_555
H24 C22 1_555 1_555
H25 C22 1_555 1_555
H26 C22 1_555 1_555
H27 C21 1_555 1_555
H28 C21 1_555 1_555
C3 C8 1_555 1_555
C4 C11 1_555 1_555
C6 C8 1_555 1_555
C10 C13 1_555 1_555
C12 C16 1_555 1_555
C13 C14 1_555 1_555

#END
