
#######################################################################
#
#                 Cambridge Crystallographic Data Centre
#                                CCDC 
#
#######################################################################
#
# If this CIF has been generated from an entry in the Cambridge 
# Structural Database, then it will include bibliographic, chemical, 
# crystal, experimental, refinement or atomic coordinate data resulting 
# from the CCDC's data processing and validation procedures.
#
#######################################################################

data_YETZIJ
_chemical_formula_moiety         'C11 H9 I1 N2 O4'
_chemical_name_systematic        
'ethyl diazo(3-oxo-1,2-benziodoxol-1(3H)-yl)acetate'
_symmetry_cell_setting           monoclinic
_symmetry_space_group_name_H-M   'P 21/c'
_symmetry_Int_Tables_number      14
_space_group_name_Hall           '-P 2ybc'
loop_
_symmetry_equiv_pos_site_id
_symmetry_equiv_pos_as_xyz
1 x,y,z
2 -x,1/2+y,1/2-z
3 -x,-y,-z
4 x,1/2-y,1/2+z
_cell_length_a                   13.0041(6)
_cell_length_b                   9.9924(5)
_cell_length_c                   9.8557(5)
_cell_angle_alpha                90
_cell_angle_beta                 109.9173(12)
_cell_angle_gamma                90
_cell_volume                     1204.07
_exptl_crystal_colour            yellow
_exptl_crystal_description       block
_cell_formula_units_Z            4
loop_
_atom_site_label
_atom_site_type_symbol
_atom_site_fract_x
_atom_site_fract_y
_atom_site_fract_z
I1 I 0.61524(2) 0.92192(2) 0.27374(2)
N1 N 0.71779(11) 0.66399(16) 0.25047(18)
N2 N 0.69552(14) 0.56658(16) 0.1913(2)
O1 O 0.48948(10) 1.10107(14) 0.19392(16)
O2 O 0.44996(11) 1.27126(15) 0.03705(15)
O3 O 0.91243(10) 0.69938(14) 0.47289(16)
O4 O 0.85497(10) 0.90801(13) 0.50234(16)
C1 C 0.67502(13) 1.03617(18) 0.1344(2)
C2 C 0.77010(14) 1.00257(19) 0.1085(2)
H1 H 0.8106 0.9250 0.1507
C3 C 0.80468(16) 1.0857(2) 0.0189(2)
H2 H 0.8702 1.0655 0.0007
C4 C 0.74398(16) 1.1979(2) -0.0441(2)
H3 H 0.7680 1.2539 -0.1053
C5 C 0.64810(15) 1.2283(2) -0.0177(2)
H4 H 0.6065 1.3048 -0.0614
C6 C 0.61298(13) 1.14723(18) 0.0724(2)
C7 C 0.50914(14) 1.17764(19) 0.1014(2)
C8 C 0.74154(13) 0.78115(18) 0.3179(2)
C9 C 0.84483(14) 0.78822(19) 0.4376(2)
C10 C 0.94678(15) 0.92413(19) 0.6364(2)
H5 H 1.0169 0.9119 0.6191
H6 H 0.9426 0.8575 0.7086
C11 C 0.93880(16) 1.0641(2) 0.6891(2)
H7 H 0.9536 1.1289 0.6234
H8 H 0.9925 1.0754 0.7861
H9 H 0.8651 1.0789 0.6920
loop_
_geom_bond_atom_site_label_1
_geom_bond_atom_site_label_2
_geom_bond_site_symmetry_1
_geom_bond_site_symmetry_2
I1 O1 1_555 1_555
N1 N2 1_555 1_555
O1 C7 1_555 1_555
O2 C7 1_555 1_555
O3 C9 1_555 1_555
O4 C9 1_555 1_555
C1 I1 1_555 1_555
C2 C1 1_555 1_555
H1 C2 1_555 1_555
C3 C2 1_555 1_555
H2 C3 1_555 1_555
C4 C3 1_555 1_555
H3 C4 1_555 1_555
C5 C4 1_555 1_555
H4 C5 1_555 1_555
C6 C1 1_555 1_555
C7 C6 1_555 1_555
C8 I1 1_555 1_555
C9 C8 1_555 1_555
C10 O4 1_555 1_555
H5 C10 1_555 1_555
H6 C10 1_555 1_555
C11 C10 1_555 1_555
H7 C11 1_555 1_555
H8 C11 1_555 1_555
H9 C11 1_555 1_555
N1 C8 1_555 1_555
C5 C6 1_555 1_555

#END
