
#######################################################################
#
#                 Cambridge Crystallographic Data Centre
#                                CCDC 
#
#######################################################################
#
# If this CIF has been generated from an entry in the Cambridge 
# Structural Database, then it will include bibliographic, chemical, 
# crystal, experimental, refinement or atomic coordinate data resulting 
# from the CCDC's data processing and validation procedures.
#
#######################################################################

data_YEVVON
_chemical_formula_moiety         'C21 H30 O4'
_chemical_name_systematic        
2-ethoxy-10,10-dimethyl-2,3,9,9a,10,11,12,13,14,14a-decahydrobenzo[c']indeno[1,7a-b:3a,3-b']difuran-7(6H)-one
_symmetry_cell_setting           triclinic
_symmetry_space_group_name_H-M   'P -1'
_symmetry_Int_Tables_number      2
_space_group_name_Hall           '-P 1'
loop_
_symmetry_equiv_pos_site_id
_symmetry_equiv_pos_as_xyz
1 x,y,z
2 -x,-y,-z
_cell_length_a                   11.0674(15)
_cell_length_b                   11.6587(15)
_cell_length_c                   15.553(2)
_cell_angle_alpha                90.822(2)
_cell_angle_beta                 108.793(2)
_cell_angle_gamma                103.768(2)
_cell_volume                     1836.19
_exptl_crystal_colour            colorless
_exptl_crystal_description       Prism
_cell_formula_units_Z            4
loop_
_atom_site_label
_atom_site_type_symbol
_atom_site_fract_x
_atom_site_fract_y
_atom_site_fract_z
O1 O 0.45187(7) 0.68833(6) 0.50205(5)
O2 O 0.51733(8) 0.89143(7) 0.43820(6)
O3 O 0.20645(7) 0.46775(6) 0.45000(5)
O4 O 0.22782(7) 0.31639(6) 0.35936(5)
C1 C 0.45586(9) 0.74010(10) 0.58780(7)
H1 H 0.4935 0.8271 0.5954
H2 H 0.5083 0.7048 0.6397
C2 C 0.31053(9) 0.70916(9) 0.57988(6)
H3 H 0.2829 0.6211 0.5803
C3 C 0.27401(10) 0.76380(9) 0.65680(7)
C4 C 0.25958(11) 0.89048(9) 0.64181(7)
H4 H 0.2250 0.9175 0.6877
H5 H 0.3476 0.9444 0.6511
C5 C 0.16704(10) 0.89810(9) 0.54633(7)
H6 H 0.1570 0.9800 0.5400
H7 H 0.0788 0.8440 0.5361
C6 C 0.22479(10) 0.86308(8) 0.47605(7)
H8 H 0.3113 0.9199 0.4857
H9 H 0.1656 0.8698 0.4143
C7 C 0.24391(9) 0.73635(8) 0.48012(6)
C8 C 0.34674(9) 0.71742(8) 0.43238(7)
C9 C 0.40846(10) 0.82985(9) 0.39479(7)
C10 C 0.33325(12) 0.86148(10) 0.30248(8)
H10 H 0.2774 0.9128 0.3107
H11 H 0.3971 0.9077 0.2756
C11 C 0.24751(11) 0.75572(11) 0.23731(8)
H12 H 0.2073 0.7673 0.1753
C12 C 0.22508(10) 0.64649(10) 0.26224(7)
H13 H 0.1728 0.5847 0.2152
C13 C 0.27392(9) 0.61034(8) 0.35732(7)
C14 C 0.15515(9) 0.54536(8) 0.38528(7)
H14 H 0.0804 0.5000 0.3314
C15 C 0.11542(9) 0.64040(8) 0.42943(7)
H15 H 0.0713 0.6064 0.4729
H16 H 0.0538 0.6751 0.3825
C16 C 0.14388(10) 0.68498(10) 0.66182(8)
H17 H 0.1531 0.6042 0.6718
H18 H 0.0724 0.6832 0.6044
H19 H 0.1233 0.7173 0.7124
C17 C 0.38102(11) 0.76555(11) 0.74884(7)
H20 H 0.4651 0.8171 0.7489
H21 H 0.3906 0.6849 0.7586
H22 H 0.3558 0.7958 0.7979
C18 C 0.35001(10) 0.51412(9) 0.36263(7)
H23 H 0.3349 0.4781 0.3008
H24 H 0.4460 0.5482 0.3932
C19 C 0.29448(10) 0.42162(9) 0.41858(7)
H25 H 0.3676 0.4071 0.4714
C20 C 0.18893(11) 0.21648(9) 0.40606(8)
H26 H 0.1330 0.2341 0.4404
H27 H 0.2678 0.1982 0.4498
C21 C 0.11272(13) 0.11245(10) 0.33534(9)
H28 H 0.0356 0.1319 0.2920
H29 H 0.0835 0.0431 0.3654
H30 H 0.1695 0.0947 0.3026
O5 O 0.54839(7) 0.81152(7) 0.02498(5)
O6 O 0.48239(8) 0.60780(7) -0.07246(6)
O7 O 0.79310(7) 1.02866(6) 0.09110(5)
O8 O 0.78177(8) 1.18128(6) -0.00507(5)
C22 C 0.54397(10) 0.76005(10) 0.10747(7)
H31 H 0.5053 0.6732 0.0958
H32 H 0.4921 0.7960 0.1362
C23 C 0.68934(9) 0.78962(9) 0.16707(7)
H33 H 0.7179 0.8777 0.1819
C24 C 0.72466(10) 0.73555(9) 0.25958(7)
C25 C 0.73950(11) 0.60878(9) 0.24919(7)
H34 H 0.7749 0.5827 0.3105
H35 H 0.6514 0.5545 0.2177
C26 C 0.83087(11) 0.59991(9) 0.19544(7)
H36 H 0.8404 0.5178 0.1924
H37 H 0.9194 0.6537 0.2264
C27 C 0.77317(10) 0.63405(9) 0.09922(7)
H38 H 0.6863 0.5777 0.0684
H39 H 0.8319 0.6263 0.0643
C28 C 0.75559(9) 0.76126(8) 0.09718(7)
C29 C 0.65327(9) 0.78150(9) 0.00291(7)
C30 C 0.59094(10) 0.66927(9) -0.06525(7)
C31 C 0.66596(12) 0.63703(10) -0.12367(8)
H40 H 0.7204 0.5845 -0.0913
H41 H 0.6019 0.5918 -0.1812
C32 C 0.75377(12) 0.74223(11) -0.14631(8)
H42 H 0.7948 0.7301 -0.1895
C33 C 0.77690(11) 0.85148(10) -0.10896(7)
H43 H 0.8302 0.9129 -0.1303
C34 C 0.72741(10) 0.88834(9) -0.03612(7)
C35 C 0.84552(9) 0.95218(9) 0.04824(7)
H44 H 0.9205 0.9984 0.0302
C36 C 0.88496(9) 0.85615(9) 0.10746(7)
H45 H 0.9301 0.8893 0.1720
H46 H 0.9454 0.8210 0.0870
C37 C 0.85450(10) 0.81444(9) 0.32587(7)
H47 H 0.8454 0.8953 0.3329
H48 H 0.9262 0.8158 0.3016
H49 H 0.8747 0.7826 0.3854
C38 C 0.61749(11) 0.73453(11) 0.30237(8)
H50 H 0.5333 0.6832 0.2628
H51 H 0.6083 0.8154 0.3093
H52 H 0.6424 0.7044 0.3624
C39 C 0.65265(10) 0.98548(9) -0.06359(7)
H53 H 0.6681 1.0213 -0.1177
H54 H 0.5566 0.9523 -0.0777
C40 C 0.70934(10) 1.07771(9) 0.01992(7)
H55 H 0.6367 1.0954 0.0385
C41 C 0.82843(13) 1.27857(10) 0.06457(9)
H56 H 0.8824 1.2559 0.1228
H57 H 0.7530 1.3016 0.0744
C42 C 0.91050(15) 1.38027(11) 0.03299(10)
H58 H 0.9842 1.3561 0.0228
H59 H 0.9451 1.4481 0.0797
H60 H 0.8557 1.4028 -0.0241
loop_
_geom_bond_atom_site_label_1
_geom_bond_atom_site_label_2
_geom_bond_site_symmetry_1
_geom_bond_site_symmetry_2
O1 C1 1_555 1_555
O2 C9 1_555 1_555
O3 C14 1_555 1_555
O4 C19 1_555 1_555
C1 H1 1_555 1_555
H2 C1 1_555 1_555
C2 C1 1_555 1_555
H3 C2 1_555 1_555
C3 C2 1_555 1_555
C4 C3 1_555 1_555
H4 C4 1_555 1_555
H5 C4 1_555 1_555
C5 C4 1_555 1_555
H6 C5 1_555 1_555
H7 C5 1_555 1_555
C6 C5 1_555 1_555
H8 C6 1_555 1_555
H9 C6 1_555 1_555
C7 C2 1_555 1_555
C8 O1 1_555 1_555
C9 C8 1_555 1_555
C10 C9 1_555 1_555
H10 C10 1_555 1_555
H11 C10 1_555 1_555
C11 C10 1_555 1_555
H12 C11 1_555 1_555
C12 C11 1_555 1_555
H13 C12 1_555 1_555
C13 C8 1_555 1_555
C14 C13 1_555 1_555
H14 C14 1_555 1_555
C15 C7 1_555 1_555
H15 C15 1_555 1_555
H16 C15 1_555 1_555
C16 C3 1_555 1_555
H17 C16 1_555 1_555
H18 C16 1_555 1_555
H19 C16 1_555 1_555
C17 C3 1_555 1_555
H20 C17 1_555 1_555
H21 C17 1_555 1_555
H22 C17 1_555 1_555
C18 C13 1_555 1_555
H23 C18 1_555 1_555
H24 C18 1_555 1_555
C19 O3 1_555 1_555
H25 C19 1_555 1_555
C20 O4 1_555 1_555
H26 C20 1_555 1_555
H27 C20 1_555 1_555
C21 C20 1_555 1_555
H28 C21 1_555 1_555
H29 C21 1_555 1_555
H30 C21 1_555 1_555
O5 C22 1_555 1_555
O6 C30 1_555 1_555
O7 C35 1_555 1_555
O8 C40 1_555 1_555
C22 H31 1_555 1_555
H32 C22 1_555 1_555
C23 C22 1_555 1_555
H33 C23 1_555 1_555
C24 C23 1_555 1_555
C25 C24 1_555 1_555
H34 C25 1_555 1_555
H35 C25 1_555 1_555
C26 C25 1_555 1_555
H36 C26 1_555 1_555
H37 C26 1_555 1_555
C27 C26 1_555 1_555
H38 C27 1_555 1_555
H39 C27 1_555 1_555
C28 C23 1_555 1_555
C29 O5 1_555 1_555
C30 C29 1_555 1_555
C31 C30 1_555 1_555
H40 C31 1_555 1_555
H41 C31 1_555 1_555
C32 C31 1_555 1_555
H42 C32 1_555 1_555
C33 C32 1_555 1_555
H43 C33 1_555 1_555
C34 C29 1_555 1_555
C35 C34 1_555 1_555
H44 C35 1_555 1_555
C36 C28 1_555 1_555
H45 C36 1_555 1_555
H46 C36 1_555 1_555
C37 C24 1_555 1_555
H47 C37 1_555 1_555
H48 C37 1_555 1_555
H49 C37 1_555 1_555
C38 C24 1_555 1_555
H50 C38 1_555 1_555
H51 C38 1_555 1_555
H52 C38 1_555 1_555
C39 C34 1_555 1_555
H53 C39 1_555 1_555
H54 C39 1_555 1_555
C40 O7 1_555 1_555
H55 C40 1_555 1_555
C41 O8 1_555 1_555
H56 C41 1_555 1_555
H57 C41 1_555 1_555
C42 C41 1_555 1_555
H58 C42 1_555 1_555
H59 C42 1_555 1_555
H60 C42 1_555 1_555
C6 C7 1_555 1_555
C7 C8 1_555 1_555
C12 C13 1_555 1_555
C14 C15 1_555 1_555
C18 C19 1_555 1_555
C27 C28 1_555 1_555
C28 C29 1_555 1_555
C33 C34 1_555 1_555
C35 C36 1_555 1_555
C39 C40 1_555 1_555

#END
