
#######################################################################
#
#                 Cambridge Crystallographic Data Centre
#                                CCDC 
#
#######################################################################
#
# If this CIF has been generated from an entry in the Cambridge 
# Structural Database, then it will include bibliographic, chemical, 
# crystal, experimental, refinement or atomic coordinate data resulting 
# from the CCDC's data processing and validation procedures.
#
#######################################################################

data_YEVXIH
_chemical_formula_moiety         'C30 H30 N6 2+,2(C1 F3 O3 S1 1-)'
_chemical_name_systematic        
"N,N'-bis(2-Pyridylmethyl)-N,N'-bis(2-pyridinomethyl)benzene-1,3-diamine bis(trifluoromethanesulfonate)"
_symmetry_cell_setting           triclinic
_symmetry_space_group_name_H-M   'P -1'
_symmetry_Int_Tables_number      2
_space_group_name_Hall           '-P 1'
loop_
_symmetry_equiv_pos_site_id
_symmetry_equiv_pos_as_xyz
1 x,y,z
2 -x,-y,-z
_cell_length_a                   11.1154(8)
_cell_length_b                   16.7120(13)
_cell_length_c                   19.0376(14)
_cell_angle_alpha                86.5730(10)
_cell_angle_beta                 77.5800(10)
_cell_angle_gamma                78.9970(10)
_cell_volume                     3389.54
_cell_formula_units_Z            4
loop_
_atom_site_label
_atom_site_type_symbol
_atom_site_fract_x
_atom_site_fract_y
_atom_site_fract_z
S1 S 0.90054(7) 0.32763(4) 0.04555(4)
O1 O 1.03364(18) 0.31816(15) 0.03724(11)
O2 O 0.8277(2) 0.40307(11) 0.07568(11)
O3 O 0.85923(17) 0.30129(11) -0.01423(9)
F1 F 0.89638(15) 0.26740(12) 0.17594(8)
F2 F 0.91201(19) 0.17771(11) 0.09715(9)
F3 F 0.73587(15) 0.25686(11) 0.13371(9)
C61 C 0.8595(3) 0.25364(19) 0.11599(15)
S2 S 0.68477(7) 0.11174(5) 0.36928(4)
O4 O 0.6353(2) 0.05597(16) 0.42142(12)
O5 O 0.59178(18) 0.15857(11) 0.33444(11)
O6 O 0.7687(2) 0.15782(15) 0.38746(14)
F4 F 0.83559(19) 0.08967(12) 0.24405(10)
F5 F 0.87524(18) -0.00269(12) 0.32264(11)
F6 F 0.72016(18) -0.00002(10) 0.27273(10)
C62 C 0.7835(3) 0.04701(18) 0.29909(16)
S3 S 0.11423(6) 0.65501(5) 0.43246(4)
O7 O 0.22863(18) 0.60036(12) 0.43898(11)
O8 O 0.07853(19) 0.65301(12) 0.36514(10)
O9 O 0.0151(2) 0.65731(18) 0.49392(12)
F7 F 0.2539(2) 0.76109(12) 0.37529(12)
F8 F 0.1911(2) 0.76875(14) 0.48958(12)
F9 F 0.0637(2) 0.81429(11) 0.42113(12)
C63 C 0.1574(3) 0.7550(2) 0.42948(18)
S4 S 0.31195(7) 0.90124(5) 0.13499(4)
O10 O 0.3587(2) 0.97260(16) 0.10589(14)
O11 O 0.40444(19) 0.84126(13) 0.15956(12)
O12 O 0.2361(2) 0.87151(18) 0.09536(12)
F10 F 0.1089(2) 0.98988(15) 0.20348(15)
F11 F 0.2585(2) 0.96988(15) 0.25901(12)
F12 F 0.1564(2) 0.87642(15) 0.25362(10)
C64 C 0.2052(3) 0.9355(2) 0.21650(18)
N1 N 0.20546(18) 0.49317(12) 0.14967(10)
N2 N 0.43415(18) 0.53565(12) 0.15852(11)
N3 N 0.43359(19) 0.42213(12) 0.06231(11)
N4 N 0.12965(19) 0.22831(13) 0.24734(11)
N5 N 0.3784(2) 0.15489(14) 0.20565(13)
N6 N 0.2550(2) 0.12973(13) 0.34119(12)
C1 C 0.2111(2) 0.57763(15) 0.16042(14)
H1 H 0.1388 0.6004 0.1966
H2 H 0.2057 0.6081 0.1159
C2 C 0.3283(2) 0.58880(15) 0.18360(13)
C3 C 0.3315(2) 0.65146(16) 0.22587(14)
H3 H 0.2586 0.6880 0.2439
C4 C 0.4438(3) 0.65990(17) 0.24137(14)
H4 H 0.4467 0.7025 0.2698
C5 C 0.5514(2) 0.60584(16) 0.21507(13)
H5 H 0.6275 0.6113 0.2253
C6 C 0.5441(2) 0.54375(15) 0.17340(13)
H6 H 0.6163 0.5066 0.1551
C7 C 0.2067(2) 0.46737(15) 0.07783(13)
H7 H 0.1909 0.5155 0.0477
H8 H 0.1386 0.4378 0.0807
C8 C 0.3282(2) 0.41380(15) 0.04194(12)
C9 C 0.3308(3) 0.36065(16) -0.01148(13)
H9 H 0.2573 0.3561 -0.0255
C10 C 0.4438(3) 0.31444(16) -0.04377(14)
H10 H 0.4470 0.2781 -0.0796
C11 C 0.5522(3) 0.32254(16) -0.02247(14)
H11 H 0.6292 0.2918 -0.0434
C12 C 0.5432(2) 0.37709(16) 0.03028(14)
H12 H 0.6158 0.3832 0.0445
C13 C 0.1755(2) 0.44250(15) 0.20920(13)
C14 C 0.1460(2) 0.47227(16) 0.27943(13)
H13 H 0.1479 0.5264 0.2873
C15 C 0.1141(2) 0.42041(17) 0.33668(14)
H14 H 0.0944 0.4406 0.3830
C16 C 0.1102(2) 0.33962(16) 0.32766(13)
H15 H 0.0896 0.3059 0.3674
C17 C 0.1375(2) 0.30934(16) 0.25853(13)
C18 C 0.1730(2) 0.36062(15) 0.20010(13)
H16 H 0.1956 0.3397 0.1540
C19 C 0.1725(2) 0.19356(16) 0.17639(14)
H17 H 0.1401 0.2319 0.1417
H18 H 0.1384 0.1444 0.1758
C20 C 0.3129(3) 0.17303(15) 0.15350(14)
C21 C 0.3733(3) 0.16917(17) 0.08264(15)
H19 H 0.3283 0.1825 0.0464
C22 C 0.5019(4) 0.14518(19) 0.06591(18)
H20 H 0.5439 0.1415 0.0180
C23 C 0.5675(3) 0.12682(18) 0.11944(19)
H21 H 0.6542 0.1109 0.1086
C24 C 0.5035(3) 0.13229(18) 0.18911(17)
H22 H 0.5474 0.1201 0.2260
C25 C 0.0582(2) 0.18398(17) 0.30388(14)
H23 H 0.0238 0.1451 0.2818
H24 H -0.0117 0.2222 0.3300
C26 C 0.1307(2) 0.13871(15) 0.35710(13)
C27 C 0.0704(3) 0.10608(17) 0.42020(14)
H25 H -0.0165 0.1125 0.4314
C28 C 0.1409(3) 0.06391(18) 0.46629(15)
H26 H 0.1015 0.0414 0.5089
C29 C 0.2694(3) 0.05484(17) 0.44966(15)
H27 H 0.3177 0.0267 0.4807
C30 C 0.3241(3) 0.08829(16) 0.38635(15)
H28 H 0.4109 0.0823 0.3742
H57 H 0.430(3) 0.481(2) 0.1184(18)
H58 H 0.289(7) 0.151(4) 0.299(4)
N7 N 0.80833(18) 0.50391(12) 0.35353(10)
N8 N 0.56902(18) 0.46904(12) 0.35695(10)
N9 N 0.59463(19) 0.58852(13) 0.44138(11)
N10 N 0.89958(18) 0.75136(12) 0.22482(10)
N11 N 0.6556(2) 0.82597(12) 0.27933(11)
N12 N 0.7617(2) 0.85379(12) 0.13986(11)
C31 C 0.7904(2) 0.41979(14) 0.35428(14)
H29 H 0.7922 0.3963 0.4020
H30 H 0.8599 0.3890 0.3209
C32 C 0.6698(2) 0.41075(14) 0.33456(12)
C33 C 0.6614(2) 0.34508(15) 0.29658(13)
H31 H 0.7313 0.3047 0.2822
C34 C 0.5484(2) 0.33983(16) 0.28008(13)
H32 H 0.5417 0.2964 0.2537
C35 C 0.4458(2) 0.39926(16) 0.30284(13)
H33 H 0.3688 0.3967 0.2923
C36 C 0.4591(2) 0.46267(15) 0.34155(13)
H34 H 0.3893 0.5026 0.3576
C37 C 0.8201(2) 0.53736(15) 0.41967(13)
H35 H 0.8900 0.5662 0.4092
H36 H 0.8397 0.4927 0.4527
C38 C 0.7047(2) 0.59477(15) 0.45646(12)
C39 C 0.7091(3) 0.65063(16) 0.50601(13)
H37 H 0.7851 0.6550 0.5169
C40 C 0.5994(3) 0.70002(16) 0.53928(14)
H38 H 0.6014 0.7379 0.5726
C41 C 0.4875(3) 0.69282(16) 0.52287(13)
H39 H 0.4131 0.7257 0.5448
C42 C 0.4874(2) 0.63660(15) 0.47386(13)
H40 H 0.4120 0.6312 0.4626
C43 C 0.8355(2) 0.54640(14) 0.28788(12)
C44 C 0.8525(2) 0.50814(15) 0.22203(13)
H41 H 0.8450 0.4538 0.2209
C45 C 0.8804(2) 0.55231(16) 0.15895(13)
H42 H 0.8908 0.5268 0.1154
C46 C 0.8937(2) 0.63284(15) 0.15799(13)
H43 H 0.9116 0.6612 0.1146
C47 C 0.8795(2) 0.67106(14) 0.22357(12)
C48 C 0.8469(2) 0.62816(14) 0.28744(12)
H44 H 0.8323 0.6545 0.3309
C49 C 0.8721(2) 0.79350(15) 0.29258(13)
H45 H 0.9092 0.8422 0.2851
H46 H 0.9116 0.7585 0.3269
C50 C 0.7340(2) 0.81776(14) 0.32472(13)
C51 C 0.6918(3) 0.83471(16) 0.39643(14)
H47 H 0.7477 0.8282 0.4272
C52 C 0.5650(3) 0.86163(17) 0.42237(16)
H48 H 0.5350 0.8745 0.4706
C53 C 0.4841(3) 0.86908(17) 0.37605(17)
H49 H 0.3984 0.8858 0.3925
C54 C 0.5324(3) 0.85137(16) 0.30533(16)
H50 H 0.4779 0.8571 0.2738
C55 C 0.9670(2) 0.78826(15) 0.16196(13)
H51 H 1.0203 0.7452 0.1317
H52 H 1.0210 0.8200 0.1771
C56 C 0.8863(2) 0.84282(14) 0.11734(13)
C57 C 0.9369(3) 0.88175(16) 0.05490(14)
H53 H 1.0234 0.8753 0.0393
C58 C 0.8590(3) 0.92989(17) 0.01616(15)
H54 H 0.8923 0.9561 -0.0260
C59 C 0.7305(3) 0.93935(18) 0.04019(16)
H55 H 0.6764 0.9712 0.0142
C60 C 0.6849(3) 0.90123(17) 0.10248(15)
H56 H 0.5987 0.9082 0.1196
H60 H 0.593(3) 0.539(2) 0.4023(16)
H61 H 0.720(3) 0.8319(18) 0.1962(17)
H59? H 0.336(7) 0.145(4) 0.252(4)
loop_
_geom_bond_atom_site_label_1
_geom_bond_atom_site_label_2
_geom_bond_site_symmetry_1
_geom_bond_site_symmetry_2
S1 O1 1_555 1_555
S2 O4 1_555 1_555
S3 O7 1_555 1_555
S4 O10 1_555 1_555
O2 S1 1_555 1_555
O3 S1 1_555 1_555
O5 S2 1_555 1_555
O6 S2 1_555 1_555
O8 S3 1_555 1_555
O9 S3 1_555 1_555
O11 S4 1_555 1_555
O12 S4 1_555 1_555
N1 C1 1_555 1_555
N2 C2 1_555 1_555
N3 C8 1_555 1_555
N4 C17 1_555 1_555
N5 C20 1_555 1_555
N6 C26 1_555 1_555
N7 C31 1_555 1_555
N8 C32 1_555 1_555
N9 C38 1_555 1_555
N10 C47 1_555 1_555
N11 C50 1_555 1_555
N12 C56 1_555 1_555
F1 C61 1_555 1_555
F2 C61 1_555 1_555
F3 C61 1_555 1_555
F4 C62 1_555 1_555
F5 C62 1_555 1_555
F6 C62 1_555 1_555
F7 C63 1_555 1_555
F8 C63 1_555 1_555
F9 C63 1_555 1_555
F10 C64 1_555 1_555
F11 C64 1_555 1_555
F12 C64 1_555 1_555
C1 H1 1_555 1_555
H2 C1 1_555 1_555
C2 C1 1_555 1_555
C3 C2 1_555 1_555
H3 C3 1_555 1_555
C4 C3 1_555 1_555
H4 C4 1_555 1_555
C5 C4 1_555 1_555
H5 C5 1_555 1_555
C6 N2 1_555 1_555
H6 C6 1_555 1_555
C7 N1 1_555 1_555
H7 C7 1_555 1_555
H8 C7 1_555 1_555
C8 C7 1_555 1_555
C9 C8 1_555 1_555
H9 C9 1_555 1_555
C10 C9 1_555 1_555
H10 C10 1_555 1_555
C11 C10 1_555 1_555
H11 C11 1_555 1_555
C12 N3 1_555 1_555
H12 C12 1_555 1_555
C13 N1 1_555 1_555
C14 C13 1_555 1_555
H13 C14 1_555 1_555
C15 C14 1_555 1_555
H14 C15 1_555 1_555
C16 C15 1_555 1_555
H15 C16 1_555 1_555
C17 C16 1_555 1_555
C18 C13 1_555 1_555
H16 C18 1_555 1_555
C19 N4 1_555 1_555
H17 C19 1_555 1_555
H18 C19 1_555 1_555
C20 C19 1_555 1_555
C21 C20 1_555 1_555
H19 C21 1_555 1_555
C22 C21 1_555 1_555
H20 C22 1_555 1_555
C23 C22 1_555 1_555
H21 C23 1_555 1_555
C24 N5 1_555 1_555
H22 C24 1_555 1_555
C25 N4 1_555 1_555
H23 C25 1_555 1_555
H24 C25 1_555 1_555
C26 C25 1_555 1_555
C27 C26 1_555 1_555
H25 C27 1_555 1_555
C28 C27 1_555 1_555
H26 C28 1_555 1_555
C29 C28 1_555 1_555
H27 C29 1_555 1_555
C30 N6 1_555 1_555
H28 C30 1_555 1_555
C31 H29 1_555 1_555
H30 C31 1_555 1_555
C32 C31 1_555 1_555
C33 C32 1_555 1_555
H31 C33 1_555 1_555
C34 C33 1_555 1_555
H32 C34 1_555 1_555
C35 C34 1_555 1_555
H33 C35 1_555 1_555
C36 N8 1_555 1_555
H34 C36 1_555 1_555
C37 N7 1_555 1_555
H35 C37 1_555 1_555
H36 C37 1_555 1_555
C38 C37 1_555 1_555
C39 C38 1_555 1_555
H37 C39 1_555 1_555
C40 C39 1_555 1_555
H38 C40 1_555 1_555
C41 C40 1_555 1_555
H39 C41 1_555 1_555
C42 N9 1_555 1_555
H40 C42 1_555 1_555
C43 N7 1_555 1_555
C44 C43 1_555 1_555
H41 C44 1_555 1_555
C45 C44 1_555 1_555
H42 C45 1_555 1_555
C46 C45 1_555 1_555
H43 C46 1_555 1_555
C47 C46 1_555 1_555
C48 C43 1_555 1_555
H44 C48 1_555 1_555
C49 N10 1_555 1_555
H45 C49 1_555 1_555
H46 C49 1_555 1_555
C50 C49 1_555 1_555
C51 C50 1_555 1_555
H47 C51 1_555 1_555
C52 C51 1_555 1_555
H48 C52 1_555 1_555
C53 C52 1_555 1_555
H49 C53 1_555 1_555
C54 N11 1_555 1_555
H50 C54 1_555 1_555
C55 N10 1_555 1_555
H51 C55 1_555 1_555
H52 C55 1_555 1_555
C56 C55 1_555 1_555
C57 C56 1_555 1_555
H53 C57 1_555 1_555
C58 C57 1_555 1_555
H54 C58 1_555 1_555
C59 C58 1_555 1_555
H55 C59 1_555 1_555
C60 N12 1_555 1_555
H56 C60 1_555 1_555
C61 S1 1_555 1_555
C62 S2 1_555 1_555
C63 S3 1_555 1_555
C64 S4 1_555 1_555
H57 N2 1_555 1_555
H58 N6 1_555 1_555
H60 N9 1_555 1_555
H61 N12 1_555 1_555
C5 C6 1_555 1_555
C11 C12 1_555 1_555
C17 C18 1_555 1_555
C23 C24 1_555 1_555
C29 C30 1_555 1_555
C35 C36 1_555 1_555
C41 C42 1_555 1_555
C47 C48 1_555 1_555
C53 C54 1_555 1_555
C59 C60 1_555 1_555

#END
