
#######################################################################
#
#                 Cambridge Crystallographic Data Centre
#                                CCDC 
#
#######################################################################
#
# If this CIF has been generated from an entry in the Cambridge 
# Structural Database, then it will include bibliographic, chemical, 
# crystal, experimental, refinement or atomic coordinate data resulting 
# from the CCDC's data processing and validation procedures.
#
#######################################################################

data_YEWCEL
_chemical_formula_moiety         'C18 H24 N1 O1 S1 1+,H2 O1,Cl1 1-'
_chemical_name_systematic        
'N-benzyl-1-hydroxy-2-methyl-1-[4-(methylsulfanyl)phenyl]propan-2-aminium chloride monohydrate'
_symmetry_cell_setting           monoclinic
_symmetry_space_group_name_H-M   'P 21'
_symmetry_Int_Tables_number      4
_space_group_name_Hall           'P 2yb'
loop_
_symmetry_equiv_pos_site_id
_symmetry_equiv_pos_as_xyz
1 x,y,z
2 -x,1/2+y,-z
_cell_length_a                   9.9390(3)
_cell_length_b                   15.6514(3)
_cell_length_c                   12.5115(2)
_cell_angle_alpha                90
_cell_angle_beta                 96.850(2)
_cell_angle_gamma                90
_cell_volume                     1932.39
_exptl_crystal_colour            colorless
_exptl_crystal_description       plate
_cell_formula_units_Z            4
loop_
_atom_site_label
_atom_site_type_symbol
_atom_site_fract_x
_atom_site_fract_y
_atom_site_fract_z
Cl1 Cl 0.55993(17) 0.90938(9) 0.55884(11)
Cl2 Cl 1.00301(18) 0.09040(8) 0.55337(11)
S1 S 0.95685(19) 0.10072(11) -0.10311(12)
O1 O 0.8706(5) 0.2283(3) 0.3974(3)
H1 H 0.9014 0.1965 0.4463
C1 C 1.0624(7) 0.3754(4) 0.6544(5)
N1 N 0.9735(5) 0.3847(3) 0.4618(3)
H2 H 0.9725 0.4415 0.4645
H3 H 0.8971 0.3665 0.4849
C2 C 0.9786(6) 0.2599(3) 0.3426(4)
H4 H 1.0647 0.2428 0.3835
C3 C 0.9728(6) 0.2231(3) 0.2299(4)
C4 C 0.9708(7) 0.1509(4) 0.0244(5)
C5 C 0.9690(6) 0.3591(3) 0.3444(4)
C6 C 0.8514(6) 0.2069(4) 0.1656(5)
H5 H 0.7699 0.2203 0.1911
C7 C 1.0886(7) 0.3546(4) 0.5405(5)
H6 H 1.1718 0.3820 0.5253
H7 H 1.0995 0.2933 0.5332
C8 C 1.0892(7) 0.3994(4) 0.2980(4)
H8 H 1.0884 0.4601 0.3092
H9 H 1.0829 0.3876 0.2223
H10 H 1.1720 0.3759 0.3335
C9 C 1.0923(7) 0.1680(4) 0.0865(5)
H11 H 1.1737 0.1556 0.0600
C10 C 1.0937(6) 0.2038(4) 0.1886(5)
H12 H 1.1760 0.2150 0.2297
C11 C 1.0142(7) 0.3125(4) 0.7181(5)
H13 H 0.9954 0.2582 0.6901
C12 C 1.0871(9) 0.4560(4) 0.6964(6)
H14 H 1.1188 0.4984 0.6538
C13 C 0.8500(7) 0.1716(4) 0.0653(5)
H15 H 0.7676 0.1613 0.0239
C14 C 0.9941(8) 0.3308(5) 0.8240(6)
H16 H 0.9636 0.2882 0.8670
C15 C 1.1254(8) 0.1017(6) -0.1378(5)
H17 H 1.1247 0.0855 -0.2118
H18 H 1.1799 0.0621 -0.0928
H19 H 1.1626 0.1581 -0.1273
C16 C 0.8344(6) 0.3906(4) 0.2899(4)
H20 H 0.7623 0.3615 0.3195
H21 H 0.8285 0.3793 0.2141
H22 H 0.8269 0.4509 0.3016
C17 C 1.0192(10) 0.4116(6) 0.8655(6)
H23 H 1.0053 0.4242 0.9360
C18 C 1.0660(11) 0.4745(5) 0.7990(6)
H24 H 1.0827 0.5294 0.8255
S2 S 0.4799(2) 0.89717(11) -0.09644(12)
O2 O 0.6236(4) 0.7553(3) 0.4157(3)
H25 H 0.6153 0.7985 0.4514
N2 N 0.4940(5) 0.6122(3) 0.4667(3)
H26 H 0.4865 0.5556 0.4679
H27 H 0.5775 0.6253 0.4960
C19 C 0.3754(7) 0.8365(4) 0.0773(5)
H28 H 0.2934 0.8530 0.0394
C20 C 0.4952(7) 0.8468(4) 0.0310(4)
C21 C 0.6176(6) 0.7849(4) 0.1898(5)
H29 H 0.6994 0.7675 0.2273
C22 C 0.4976(6) 0.7752(3) 0.2364(5)
C23 C 0.4789(6) 0.6408(3) 0.3493(4)
C24 C 0.3384(7) 0.6154(4) 0.2967(4)
H30 H 0.3224 0.5563 0.3115
H31 H 0.3330 0.6238 0.2204
H32 H 0.2714 0.6500 0.3253
C25 C 0.5898(6) 0.5930(4) 0.2997(4)
H33 H 0.6769 0.6136 0.3303
H34 H 0.5792 0.6021 0.2233
H35 H 0.5831 0.5330 0.3142
C26 C 0.6156(7) 0.8200(4) 0.0881(5)
H36 H 0.6961 0.8257 0.0578
C27 C 0.4999(6) 0.7385(4) 0.3495(4)
H37 H 0.4261 0.7649 0.3832
C28 C 0.3776(7) 0.8016(4) 0.1804(5)
H38 H 0.2974 0.7962 0.2111
C29 C 0.4925(7) 0.6888(4) 0.7244(5)
H39 H 0.5066 0.7440 0.7005
C30 C 0.4379(7) 0.6280(4) 0.6530(4)
C31 C 0.5268(8) 0.6682(5) 0.8327(5)
H40 H 0.5618 0.7100 0.8810
C32 C 0.4185(10) 0.5453(4) 0.6904(6)
H41 H 0.3819 0.5032 0.6431
C33 C 0.3955(7) 0.6490(5) 0.5373(5)
H42 H 0.3912 0.7105 0.5283
H43 H 0.3058 0.6260 0.5156
C34 C 0.5093(9) 0.5876(6) 0.8678(5)
H44 H 0.5349 0.5735 0.9396
C35 C 0.4534(12) 0.5264(6) 0.7965(7)
H45 H 0.4393 0.4715 0.8211
C36 C 0.6485(10) 0.9052(7) -0.1255(7)
H46 H 0.6500 0.9318 -0.1945
H47 H 0.6875 0.8491 -0.1267
H48 H 0.7000 0.9390 -0.0712
O3 O 0.7315(5) 0.3830(3) 0.5563(4)
H49 H 0.7424 0.4239 0.6012
H50 H 0.6556 0.3885 0.5178
O4 O 0.7576(7) 0.5866(9) 0.5856(6)
H51 H 0.7757 0.5802 0.6532
H52 H 0.8308 0.5868 0.5567
loop_
_geom_bond_atom_site_label_1
_geom_bond_atom_site_label_2
_geom_bond_site_symmetry_1
_geom_bond_site_symmetry_2
S1 C4 1_555 1_555
O1 H1 1_555 1_555
C1 C7 1_555 1_555
N1 H2 1_555 1_555
H3 N1 1_555 1_555
C2 O1 1_555 1_555
H4 C2 1_555 1_555
C3 C2 1_555 1_555
C4 C9 1_555 1_555
C5 N1 1_555 1_555
C6 C3 1_555 1_555
H5 C6 1_555 1_555
C7 N1 1_555 1_555
H6 C7 1_555 1_555
H7 C7 1_555 1_555
C8 C5 1_555 1_555
H8 C8 1_555 1_555
H9 C8 1_555 1_555
H10 C8 1_555 1_555
C9 H11 1_555 1_555
C10 C3 1_555 1_555
H12 C10 1_555 1_555
C11 C1 1_555 1_555
H13 C11 1_555 1_555
C12 C1 1_555 1_555
H14 C12 1_555 1_555
C13 C4 1_555 1_555
H15 C13 1_555 1_555
C14 C11 1_555 1_555
H16 C14 1_555 1_555
C15 S1 1_555 1_555
H17 C15 1_555 1_555
H18 C15 1_555 1_555
H19 C15 1_555 1_555
C16 C5 1_555 1_555
H20 C16 1_555 1_555
H21 C16 1_555 1_555
H22 C16 1_555 1_555
C17 C14 1_555 1_555
H23 C17 1_555 1_555
C18 C12 1_555 1_555
H24 C18 1_555 1_555
S2 C20 1_555 1_555
O2 H25 1_555 1_555
N2 H26 1_555 1_555
H27 N2 1_555 1_555
C19 H28 1_555 1_555
C20 C19 1_555 1_555
C21 H29 1_555 1_555
C22 C21 1_555 1_555
C23 N2 1_555 1_555
C24 C23 1_555 1_555
H30 C24 1_555 1_555
H31 C24 1_555 1_555
H32 C24 1_555 1_555
C25 C23 1_555 1_555
H33 C25 1_555 1_555
H34 C25 1_555 1_555
H35 C25 1_555 1_555
C26 C20 1_555 1_555
H36 C26 1_555 1_555
C27 O2 1_555 1_555
H37 C27 1_555 1_555
C28 C19 1_555 1_555
H38 C28 1_555 1_555
C29 H39 1_555 1_555
C30 C29 1_555 1_555
C31 C29 1_555 1_555
H40 C31 1_555 1_555
C32 C30 1_555 1_555
H41 C32 1_555 1_555
C33 N2 1_555 1_555
H42 C33 1_555 1_555
H43 C33 1_555 1_555
C34 C31 1_555 1_555
H44 C34 1_555 1_555
C35 C32 1_555 1_555
H45 C35 1_555 1_555
C36 S2 1_555 1_555
H46 C36 1_555 1_555
H47 C36 1_555 1_555
H48 C36 1_555 1_555
O3 H49 1_555 1_555
H50 O3 1_555 1_555
O4 H51 1_555 1_555
H52 O4 1_555 1_555
C2 C5 1_555 1_555
C6 C13 1_555 1_555
C9 C10 1_555 1_555
C17 C18 1_555 1_555
C21 C26 1_555 1_555
C22 C27 1_555 1_555
C22 C28 1_555 1_555
C23 C27 1_555 1_555
C30 C33 1_555 1_555
C34 C35 1_555 1_555

#END
