
#######################################################################
#
#                 Cambridge Crystallographic Data Centre
#                                CCDC 
#
#######################################################################
#
# If this CIF has been generated from an entry in the Cambridge 
# Structural Database, then it will include bibliographic, chemical, 
# crystal, experimental, refinement or atomic coordinate data resulting 
# from the CCDC's data processing and validation procedures.
#
#######################################################################

data_YEWHIU
_chemical_formula_moiety         'C38 H44 N2 Si2'
_chemical_name_systematic        
1,1,4,4-tetramethyl-3,6-diphenyl-2,5-bis(2,4,6-trimethylphenyl)-1,2,4,5-tetrahydro[1,2]azasilolo[4,3-c][1,2]azasilole
_symmetry_cell_setting           monoclinic
_symmetry_space_group_name_H-M   'P 21/c'
_symmetry_Int_Tables_number      14
_space_group_name_Hall           '-P 2ybc'
loop_
_symmetry_equiv_pos_site_id
_symmetry_equiv_pos_as_xyz
1 x,y,z
2 -x,1/2+y,1/2-z
3 -x,-y,-z
4 x,1/2-y,1/2+z
_cell_length_a                   10.7045(12)
_cell_length_b                   12.8727(15)
_cell_length_c                   11.9991(14)
_cell_angle_alpha                90
_cell_angle_beta                 92.607(2)
_cell_angle_gamma                90
_cell_volume                     1651.71
_exptl_crystal_colour            yellow
_exptl_crystal_description       prism
_cell_formula_units_Z            2
loop_
_atom_site_label
_atom_site_type_symbol
_atom_site_fract_x
_atom_site_fract_y
_atom_site_fract_z
N1 N 0.67512(12) 0.06129(11) 0.40880(11)
Si1 Si 0.70063(4) 0.00184(3) 0.54125(4)
C1 C 0.77298(14) 0.08338(13) 0.33432(13)
C2 C 0.80669(16) 0.00981(15) 0.25511(14)
C3 C 0.90667(18) 0.03245(18) 0.18860(16)
H1 H 0.9296 -0.0170 0.1345
C4 C 0.97336(17) 0.12362(19) 0.19833(17)
C5 C 0.93724(17) 0.19538(17) 0.27571(17)
H2 H 0.9817 0.2591 0.2825
C6 C 0.83791(16) 0.17784(14) 0.34442(15)
C7 C 0.8012(2) 0.26154(16) 0.42426(17)
H3 H 0.8548 0.2574 0.4925
H4 H 0.7137 0.2520 0.4427
H5 H 0.8113 0.3297 0.3895
C8 C 1.0825(2) 0.1442(3) 0.1264(2)
H6 H 1.0966 0.0836 0.0793
H7 H 1.1576 0.1576 0.1741
H8 H 1.0644 0.2050 0.0792
C9 C 0.7378(2) -0.09125(16) 0.23916(17)
H9 H 0.6593 -0.0791 0.1959
H10 H 0.7196 -0.1203 0.3121
H11 H 0.7896 -0.1402 0.1990
C10 C 0.54825(14) 0.05610(12) 0.37187(12)
C11 C 0.50829(14) 0.09468(13) 0.25931(13)
C12 C 0.53717(17) 0.19470(14) 0.22416(15)
H12 H 0.5840 0.2398 0.2728
C13 C 0.49801(18) 0.22864(16) 0.11875(16)
H13 H 0.5176 0.2972 0.0959
C14 C 0.43119(18) 0.16428(17) 0.04691(15)
H14 H 0.4057 0.1878 -0.0256
C15 C 0.40136(17) 0.06556(16) 0.08043(15)
H15 H 0.3546 0.0210 0.0312
C16 C 0.43941(16) 0.03103(14) 0.18590(14)
H16 H 0.4181 -0.0372 0.2084
C17 C 0.79413(18) -0.11928(16) 0.53412(17)
H17 H 0.7522 -0.1679 0.4819
H18 H 0.8021 -0.1510 0.6083
H19 H 0.8774 -0.1028 0.5083
C18 C 0.78913(17) 0.08640(16) 0.64202(15)
H20 H 0.8703 0.1040 0.6124
H21 H 0.8022 0.0497 0.7131
H22 H 0.7416 0.1502 0.6538
C19 C 0.53089(14) -0.01629(12) 0.55368(12)
N1B N 0.32488(12) -0.06129(11) 0.59120(11)
Si1B Si 0.29937(4) -0.00184(3) 0.45875(4)
C1B C 0.22702(14) -0.08338(13) 0.66568(13)
C2B C 0.19331(16) -0.00981(15) 0.74489(14)
C3B C 0.09333(18) -0.03245(18) 0.81140(16)
H1B H 0.0704 0.0170 0.8655
C4B C 0.02664(17) -0.12362(19) 0.80167(17)
C5B C 0.06276(17) -0.19538(17) 0.72429(17)
H2B H 0.0183 -0.2591 0.7175
C6B C 0.16209(16) -0.17784(14) 0.65558(15)
C7B C 0.1988(2) -0.26154(16) 0.57574(17)
H3B H 0.1452 -0.2574 0.5075
H4B H 0.2863 -0.2520 0.5573
H5B H 0.1887 -0.3297 0.6105
C8B C -0.0825(2) -0.1442(3) 0.8736(2)
H6B H -0.0966 -0.0836 0.9207
H7B H -0.1576 -0.1576 0.8259
H8B H -0.0644 -0.2050 0.9208
C9B C 0.2622(2) 0.09125(16) 0.76084(17)
H9B H 0.3407 0.0791 0.8041
H10B H 0.2804 0.1203 0.6879
H11B H 0.2104 0.1402 0.8010
C10B C 0.45175(14) -0.05610(12) 0.62813(12)
C11B C 0.49171(14) -0.09468(13) 0.74069(13)
C12B C 0.46283(17) -0.19470(14) 0.77584(15)
H12B H 0.4160 -0.2398 0.7272
C13B C 0.50199(18) -0.22864(16) 0.88125(16)
H13B H 0.4824 -0.2972 0.9041
C14B C 0.56881(18) -0.16428(17) 0.95309(15)
H14B H 0.5943 -0.1878 1.0256
C15B C 0.59864(17) -0.06556(16) 0.91957(15)
H15B H 0.6454 -0.0210 0.9688
C16B C 0.56059(16) -0.03103(14) 0.81410(14)
H16B H 0.5819 0.0372 0.7916
C17B C 0.20587(18) 0.11928(16) 0.46588(17)
H17B H 0.2478 0.1679 0.5181
H18B H 0.1979 0.1510 0.3917
H19B H 0.1226 0.1028 0.4917
C18B C 0.21087(17) -0.08640(16) 0.35798(15)
H20B H 0.1297 -0.1040 0.3876
H21B H 0.1978 -0.0497 0.2869
H22B H 0.2584 -0.1502 0.3462
C19B C 0.46911(14) 0.01629(12) 0.44632(12)
loop_
_geom_bond_atom_site_label_1
_geom_bond_atom_site_label_2
_geom_bond_site_symmetry_1
_geom_bond_site_symmetry_2
N1 Si1 1_555 1_555
Si1 C17 1_555 1_555
C1 N1 1_555 1_555
C2 C1 1_555 1_555
C3 C2 1_555 1_555
H1 C3 1_555 1_555
C4 C3 1_555 1_555
C5 C4 1_555 1_555
H2 C5 1_555 1_555
C6 C1 1_555 1_555
C7 C6 1_555 1_555
H3 C7 1_555 1_555
H4 C7 1_555 1_555
H5 C7 1_555 1_555
C8 C4 1_555 1_555
H6 C8 1_555 1_555
H7 C8 1_555 1_555
H8 C8 1_555 1_555
C9 C2 1_555 1_555
H9 C9 1_555 1_555
H10 C9 1_555 1_555
H11 C9 1_555 1_555
C10 N1 1_555 1_555
C11 C10 1_555 1_555
C12 C11 1_555 1_555
H12 C12 1_555 1_555
C13 C12 1_555 1_555
H13 C13 1_555 1_555
C14 C13 1_555 1_555
H14 C14 1_555 1_555
C15 C14 1_555 1_555
H15 C15 1_555 1_555
C16 C11 1_555 1_555
H16 C16 1_555 1_555
C17 H17 1_555 1_555
H18 C17 1_555 1_555
H19 C17 1_555 1_555
C18 Si1 1_555 1_555
H20 C18 1_555 1_555
H21 C18 1_555 1_555
H22 C18 1_555 1_555
C19 Si1 1_555 1_555
N1B Si1B 1_555 1_555
Si1B C17B 1_555 1_555
C1B N1B 1_555 1_555
C2B C1B 1_555 1_555
C3B C2B 1_555 1_555
H1B C3B 1_555 1_555
C4B C3B 1_555 1_555
C5B C4B 1_555 1_555
H2B C5B 1_555 1_555
C6B C1B 1_555 1_555
C7B C6B 1_555 1_555
H3B C7B 1_555 1_555
H4B C7B 1_555 1_555
H5B C7B 1_555 1_555
C8B C4B 1_555 1_555
H6B C8B 1_555 1_555
H7B C8B 1_555 1_555
H8B C8B 1_555 1_555
C9B C2B 1_555 1_555
H9B C9B 1_555 1_555
H10B C9B 1_555 1_555
H11B C9B 1_555 1_555
C10B C19 1_555 1_555
C11B C10B 1_555 1_555
C12B C11B 1_555 1_555
H12B C12B 1_555 1_555
C13B C12B 1_555 1_555
H13B C13B 1_555 1_555
C14B C13B 1_555 1_555
H14B C14B 1_555 1_555
C15B C14B 1_555 1_555
H15B C15B 1_555 1_555
C16B C11B 1_555 1_555
H16B C16B 1_555 1_555
C17B H17B 1_555 1_555
H18B C17B 1_555 1_555
H19B C17B 1_555 1_555
C18B Si1B 1_555 1_555
H20B C18B 1_555 1_555
H21B C18B 1_555 1_555
H22B C18B 1_555 1_555
C19B C10 1_555 1_555
C5 C6 1_555 1_555
C15 C16 1_555 1_555
C19 C19B 1_555 1_555
N1B C10B 1_555 1_555
Si1B C19B 1_555 1_555
C5B C6B 1_555 1_555
C15B C16B 1_555 1_555

#END
