
#######################################################################
#
#                 Cambridge Crystallographic Data Centre
#                                CCDC 
#
#######################################################################
#
# If this CIF has been generated from an entry in the Cambridge 
# Structural Database, then it will include bibliographic, chemical, 
# crystal, experimental, refinement or atomic coordinate data resulting 
# from the CCDC's data processing and validation procedures.
#
#######################################################################

data_YEWHOA
_chemical_formula_moiety         'C42 H52 N2 Si2'
_chemical_name_systematic        
2,5-bis(2-ethyl-6-ethylidene-4-methylcyclohexa-2,4-dien-1-ylidene)-1,1,4,4-tetramethyl-3,6-diphenyl-1,2,4,5-tetrahydro-2\l^5^,5\l^5^-[1,2]azasilolo[4,3-c][1,2]azasilole
_symmetry_cell_setting           monoclinic
_symmetry_space_group_name_H-M   'P 21/c'
_symmetry_Int_Tables_number      14
_space_group_name_Hall           '-P 2ybc'
loop_
_symmetry_equiv_pos_site_id
_symmetry_equiv_pos_as_xyz
1 x,y,z
2 -x,1/2+y,1/2-z
3 -x,-y,-z
4 x,1/2-y,1/2+z
_cell_length_a                   10.558(3)
_cell_length_b                   13.688(5)
_cell_length_c                   12.845(4)
_cell_angle_alpha                90
_cell_angle_beta                 90.115(6)
_cell_angle_gamma                90
_cell_volume                     1856.33
_exptl_crystal_colour            yellow
_exptl_crystal_description       block
_cell_formula_units_Z            2
loop_
_atom_site_label
_atom_site_type_symbol
_atom_site_fract_x
_atom_site_fract_y
_atom_site_fract_z
N1 N 0.8185(2) 0.06423(19) 0.4200(2)
Si1 Si 0.79874(8) -0.00075(7) 0.53795(7)
C1 C 0.9453(3) 0.0619(2) 0.3855(2)
C2 C 0.9800(3) 0.1052(2) 0.2837(2)
C3 C 0.9586(4) 0.2026(3) 0.2605(3)
H1 H 0.9196 0.2436 0.3108
C4 C 0.9930(4) 0.2408(3) 0.1656(4)
H2 H 0.9786 0.3080 0.1515
C5 C 1.0480(4) 0.1828(4) 0.0914(3)
H3 H 1.0702 0.2092 0.0255
C6 C 1.0705(4) 0.0866(4) 0.1130(3)
H4 H 1.1083 0.0459 0.0619
C7 C 1.0381(4) 0.0481(3) 0.2098(3)
H5 H 1.0565 -0.0183 0.2249
C8 C 0.9712(3) -0.0189(2) 0.5480(2)
C9 C 0.7171(3) 0.0917(2) 0.3512(2)
C10 C 0.65778(2) 0.18173(2) 0.36612(2)
C11 C 0.5568(4) 0.2065(3) 0.3008(3)
H6 H 0.5169 0.2683 0.3089
C12 C 0.5135(4) 0.1437(3) 0.2250(3)
C13 C 0.5742(4) 0.0566(3) 0.2116(3)
H7 H 0.5459 0.0139 0.1581
C14 C 0.6756(3) 0.0282(2) 0.2734(3)
C15 C 0.70275(2) 0.25051(2) 0.45250(2)
H8 H 0.7382 0.2281 0.5162
C16 C 0.68521(2) 0.35880(2) 0.42671(2)
H9 H 0.7158 0.3986 0.4850
H10 H 0.7334 0.3749 0.3639
H11 H 0.5952 0.3723 0.4147
C17 C 0.4013(5) 0.1697(4) 0.1562(4)
H12 H 0.3689 0.2342 0.1758
H13 H 0.4281 0.1708 0.0833
H14 H 0.3344 0.1208 0.1653
C18 C 0.7351(4) -0.0704(3) 0.2571(3)
H15 H 0.8174 -0.0716 0.2942
H16 H 0.6801 -0.1203 0.2898
C19 C 0.7571(5) -0.0990(4) 0.1466(3)
H17 H 0.7959 -0.1640 0.1443
H18 H 0.6761 -0.1003 0.1093
H19 H 0.8138 -0.0515 0.1137
C20 C 0.7056(4) -0.1146(3) 0.5221(3)
H20 H 0.6978 -0.1474 0.5896
H21 H 0.6211 -0.0986 0.4954
H22 H 0.7488 -0.1580 0.4729
C21 C 0.7129(4) 0.0702(3) 0.6388(3)
H23 H 0.7048 0.0307 0.7021
H24 H 0.7601 0.1300 0.6547
H25 H 0.6284 0.0873 0.6129
N1B N 1.1815(2) -0.06423(19) 0.5800(2)
Si1B Si 1.20126(8) 0.00075(7) 0.46205(7)
C1B C 1.0547(3) -0.0619(2) 0.6145(2)
C2B C 1.0200(3) -0.1052(2) 0.7163(2)
C3B C 1.0414(4) -0.2026(3) 0.7395(3)
H1B H 1.0804 -0.2436 0.6892
C4B C 1.0070(4) -0.2408(3) 0.8344(4)
H2B H 1.0214 -0.3080 0.8485
C5B C 0.9520(4) -0.1828(4) 0.9086(3)
H3B H 0.9298 -0.2092 0.9745
C6B C 0.9295(4) -0.0866(4) 0.8870(3)
H4B H 0.8917 -0.0459 0.9381
C7B C 0.9619(4) -0.0481(3) 0.7902(3)
H5B H 0.9435 0.0183 0.7751
C8B C 1.0288(3) 0.0189(2) 0.4520(2)
C9B C 1.2829(3) -0.0917(2) 0.6488(2)
C10B C 1.34222(2) -0.18173(2) 0.63388(2)
C11B C 1.4432(4) -0.2065(3) 0.6992(3)
H6B H 1.4831 -0.2683 0.6911
C12B C 1.4865(4) -0.1437(3) 0.7750(3)
C13B C 1.4258(4) -0.0566(3) 0.7884(3)
H7B H 1.4541 -0.0139 0.8419
C14B C 1.3244(3) -0.0282(2) 0.7266(3)
C15B C 1.29725(2) -0.25051(2) 0.54750(2)
H8B H 1.2618 -0.2281 0.4838
C16B C 1.31479(2) -0.35880(2) 0.57329(2)
H9B H 1.2842 -0.3986 0.5150
H10B H 1.2666 -0.3749 0.6361
H11B H 1.4048 -0.3723 0.5853
C17B C 1.5987(5) -0.1697(4) 0.8438(4)
H12B H 1.6311 -0.2342 0.8242
H13B H 1.5719 -0.1708 0.9167
H14B H 1.6656 -0.1208 0.8347
C18B C 1.2649(4) 0.0704(3) 0.7429(3)
H15B H 1.1826 0.0716 0.7058
H16B H 1.3199 0.1203 0.7102
C19B C 1.2429(5) 0.0990(4) 0.8534(3)
H17B H 1.2041 0.1640 0.8557
H18B H 1.3239 0.1003 0.8907
H19B H 1.1862 0.0515 0.8863
C20B C 1.2944(4) 0.1146(3) 0.4779(3)
H20B H 1.3022 0.1474 0.4104
H21B H 1.3789 0.0986 0.5046
H22B H 1.2512 0.1580 0.5271
C21B C 1.2871(4) -0.0702(3) 0.3612(3)
H23B H 1.2952 -0.0307 0.2979
H24B H 1.2399 -0.1300 0.3453
H25B H 1.3716 -0.0873 0.3871
C22? C 0.69536(2) 0.25206(2) 0.45345(2)
H26? H 0.7876 0.2462 0.4661
H27? H 0.6513 0.2325 0.5181
C23? C 0.66387(2) 0.35889(2) 0.42976(2)
H28? H 0.6902 0.3999 0.4885
H29? H 0.7088 0.3795 0.3668
H30? H 0.5724 0.3657 0.4188
loop_
_geom_bond_atom_site_label_1
_geom_bond_atom_site_label_2
_geom_bond_site_symmetry_1
_geom_bond_site_symmetry_2
N1 Si1 1_555 1_555
Si1 C8 1_555 1_555
C1 N1 1_555 1_555
C2 C1 1_555 1_555
C3 C2 1_555 1_555
H1 C3 1_555 1_555
C4 C3 1_555 1_555
H2 C4 1_555 1_555
C5 C4 1_555 1_555
H3 C5 1_555 1_555
C6 C5 1_555 1_555
H4 C6 1_555 1_555
C7 C2 1_555 1_555
H5 C7 1_555 1_555
C8 C1B 1_555 1_555
C9 N1 1_555 1_555
C10 C9 1_555 1_555
C11 C10 1_555 1_555
H6 C11 1_555 1_555
C12 C11 1_555 1_555
C13 C12 1_555 1_555
H7 C13 1_555 1_555
C14 C9 1_555 1_555
C15 C10 1_555 1_555
H8 C15 1_555 1_555
C16 C15 1_555 1_555
H9 C16 1_555 1_555
H10 C16 1_555 1_555
H11 C16 1_555 1_555
C17 C12 1_555 1_555
H12 C17 1_555 1_555
H13 C17 1_555 1_555
H14 C17 1_555 1_555
C18 C14 1_555 1_555
H15 C18 1_555 1_555
H16 C18 1_555 1_555
C19 C18 1_555 1_555
H17 C19 1_555 1_555
H18 C19 1_555 1_555
H19 C19 1_555 1_555
C20 Si1 1_555 1_555
H20 C20 1_555 1_555
H21 C20 1_555 1_555
H22 C20 1_555 1_555
C21 Si1 1_555 1_555
H23 C21 1_555 1_555
H24 C21 1_555 1_555
H25 C21 1_555 1_555
N1B Si1B 1_555 1_555
Si1B C8B 1_555 1_555
C1B N1B 1_555 1_555
C2B C1B 1_555 1_555
C3B C2B 1_555 1_555
H1B C3B 1_555 1_555
C4B C3B 1_555 1_555
H2B C4B 1_555 1_555
C5B C4B 1_555 1_555
H3B C5B 1_555 1_555
C6B C5B 1_555 1_555
H4B C6B 1_555 1_555
C7B C2B 1_555 1_555
H5B C7B 1_555 1_555
C8B C1 1_555 1_555
C9B N1B 1_555 1_555
C10B C9B 1_555 1_555
C11B C10B 1_555 1_555
H6B C11B 1_555 1_555
C12B C11B 1_555 1_555
C13B C12B 1_555 1_555
H7B C13B 1_555 1_555
C14B C9B 1_555 1_555
C15B C10B 1_555 1_555
H8B C15B 1_555 1_555
C16B C15B 1_555 1_555
H9B C16B 1_555 1_555
H10B C16B 1_555 1_555
H11B C16B 1_555 1_555
C17B C12B 1_555 1_555
H12B C17B 1_555 1_555
H13B C17B 1_555 1_555
H14B C17B 1_555 1_555
C18B C14B 1_555 1_555
H15B C18B 1_555 1_555
H16B C18B 1_555 1_555
C19B C18B 1_555 1_555
H17B C19B 1_555 1_555
H18B C19B 1_555 1_555
H19B C19B 1_555 1_555
C20B Si1B 1_555 1_555
H20B C20B 1_555 1_555
H21B C20B 1_555 1_555
H22B C20B 1_555 1_555
C21B Si1B 1_555 1_555
H23B C21B 1_555 1_555
H24B C21B 1_555 1_555
H25B C21B 1_555 1_555
C6 C7 1_555 1_555
C8 C8B 1_555 1_555
C13 C14 1_555 1_555
C6B C7B 1_555 1_555
C13B C14B 1_555 1_555

#END
