
#######################################################################
#
#                 Cambridge Crystallographic Data Centre
#                                CCDC 
#
#######################################################################
#
# If this CIF has been generated from an entry in the Cambridge 
# Structural Database, then it will include bibliographic, chemical, 
# crystal, experimental, refinement or atomic coordinate data resulting 
# from the CCDC's data processing and validation procedures.
#
#######################################################################

data_YEWJUG
_chemical_formula_moiety         'C26 H30 N2 O4'
_chemical_name_systematic        
cis-(1R,3R)-(+)-2-Benzyl-3-ethoxycarbonyl-1-methoxycarbonylethyl-9-methyl-1,2,3,4-tetrahydro-9H-pyrido(3,4-b)indole
_symmetry_cell_setting           orthorhombic
_symmetry_space_group_name_H-M   'P 21 21 21'
_symmetry_Int_Tables_number      19
_space_group_name_Hall           'P 2ac 2ab'
loop_
_symmetry_equiv_pos_site_id
_symmetry_equiv_pos_as_xyz
1 x,y,z
2 1/2-x,-y,1/2+z
3 -x,1/2+y,1/2-z
4 1/2+x,1/2-y,-z
_cell_length_a                   7.5730(7)
_cell_length_b                   10.1642(8)
_cell_length_c                   30.449(3)
_cell_angle_alpha                90
_cell_angle_beta                 90
_cell_angle_gamma                90
_cell_volume                     2343.77
_exptl_crystal_colour            colorless
_exptl_crystal_description       prism
_chemical_melting_point          '142-143 deg.C'
_cell_formula_units_Z            4
loop_
_atom_site_label
_atom_site_type_symbol
_atom_site_fract_x
_atom_site_fract_y
_atom_site_fract_z
C1 C -0.4942(3) -0.01035(17) -0.13277(6)
H1 H -0.6181 -0.0300 -0.1262
N1 N -0.3894(2) -0.12934(15) -0.12221(5)
C2 C -0.1983(3) -0.1049(2) -0.11679(7)
H2 H -0.1502 -0.1879 -0.1056
C3 C -0.2827(3) 0.10829(19) -0.08165(6)
C4 C -0.2810(3) 0.23155(18) -0.05869(6)
C5 C -0.1517(3) -0.0021(2) -0.08159(7)
H3 H -0.1507 -0.0437 -0.0529
H4 H -0.0346 0.0326 -0.0872
C6 C -0.1630(3) 0.2920(2) -0.02952(6)
H5 H -0.0563 0.2520 -0.0224
C7 C -0.2082(4) 0.4116(2) -0.01165(7)
H6 H -0.1316 0.4521 0.0080
C8 C -0.3681(4) 0.4738(2) -0.02257(7)
H7 H -0.3943 0.5551 -0.0101
C9 C -0.4420(3) 0.29445(17) -0.06855(6)
C10 C -0.4871(4) 0.41746(19) -0.05122(7)
H8 H -0.5922 0.4592 -0.0587
N2 N -0.5371(2) 0.21477(15) -0.09633(5)
C11 C -0.4384(3) 0.10145(17) -0.10371(6)
O1 O 0.0095(3) -0.0006(2) -0.16560(7)
C12 C -0.1040(3) -0.0821(2) -0.15990(8)
O2 O -0.1504(2) -0.17069(19) -0.19009(6)
C13 C -0.0631(4) -0.1617(5) -0.23209(10)
H9 H -0.0913 -0.0782 -0.2458
H10 H 0.0638 -0.1659 -0.2280
C14 C -0.1174(8) -0.2645(6) -0.25915(15)
H11 H -0.0591 -0.2576 -0.2871
H12 H -0.2428 -0.2598 -0.2633
H13 H -0.0875 -0.3470 -0.2457
C15 C -0.4831(3) 0.0284(2) -0.18158(6)
H14 H -0.5465 0.1102 -0.1860
H15 H -0.3605 0.0433 -0.1893
C16 C -0.5590(3) -0.0754(2) -0.21160(6)
H16 H -0.4926 -0.1563 -0.2079
H17 H -0.6802 -0.0928 -0.2031
O3 O -0.4554(4) 0.0422(3) -0.27480(6)
C17 C -0.5551(3) -0.0364(3) -0.25907(7)
O4 O -0.6726(3) -0.1005(2) -0.28231(5)
C18 C -0.6826(5) -0.0737(4) -0.32870(8)
H18 H -0.7764 -0.1245 -0.3414
H19 H -0.5728 -0.0969 -0.3424
H20 H -0.7055 0.0182 -0.3332
C19 C -0.4583(3) -0.1943(2) -0.08282(7)
H21 H -0.4715 -0.1291 -0.0598
H22 H -0.3722 -0.2584 -0.0728
C20 C -0.6327(3) -0.26289(18) -0.08927(6)
C21 C -0.7480(3) -0.2748(2) -0.05384(8)
H23 H -0.7220 -0.2322 -0.0276
C22 C -0.9001(3) -0.3488(2) -0.05704(9)
H24 H -0.9747 -0.3564 -0.0329
C23 C -0.9421(3) -0.4108(2) -0.09542(9)
H25 H -1.0442 -0.4612 -0.0974
C24 C -0.8317(4) -0.3980(2) -0.13110(8)
H26 H -0.8608 -0.4388 -0.1575
C25 C -0.6785(3) -0.3253(2) -0.12813(7)
H27 H -0.6049 -0.3180 -0.1525
C26 C -0.7165(3) 0.2393(2) -0.11008(9)
H28 H -0.7525 0.3249 -0.1002
H29 H -0.7930 0.1739 -0.0976
H30 H -0.7234 0.2355 -0.1415
loop_
_geom_bond_atom_site_label_1
_geom_bond_atom_site_label_2
_geom_bond_site_symmetry_1
_geom_bond_site_symmetry_2
C1 H1 1_555 1_555
N1 C1 1_555 1_555
C2 N1 1_555 1_555
H2 C2 1_555 1_555
C3 C4 1_555 1_555
C4 C6 1_555 1_555
C5 C2 1_555 1_555
H3 C5 1_555 1_555
H4 C5 1_555 1_555
C6 H5 1_555 1_555
C7 C6 1_555 1_555
H6 C7 1_555 1_555
C8 C7 1_555 1_555
H7 C8 1_555 1_555
C9 C4 1_555 1_555
C10 C8 1_555 1_555
H8 C10 1_555 1_555
N2 C9 1_555 1_555
C11 C1 1_555 1_555
O1 C12 1_555 1_555
C12 C2 1_555 1_555
O2 C12 1_555 1_555
C13 O2 1_555 1_555
H9 C13 1_555 1_555
H10 C13 1_555 1_555
C14 C13 1_555 1_555
H11 C14 1_555 1_555
H12 C14 1_555 1_555
H13 C14 1_555 1_555
C15 C1 1_555 1_555
H14 C15 1_555 1_555
H15 C15 1_555 1_555
C16 C15 1_555 1_555
H16 C16 1_555 1_555
H17 C16 1_555 1_555
O3 C17 1_555 1_555
C17 C16 1_555 1_555
O4 C17 1_555 1_555
C18 O4 1_555 1_555
H18 C18 1_555 1_555
H19 C18 1_555 1_555
H20 C18 1_555 1_555
C19 N1 1_555 1_555
H21 C19 1_555 1_555
H22 C19 1_555 1_555
C20 C19 1_555 1_555
C21 C20 1_555 1_555
H23 C21 1_555 1_555
C22 C21 1_555 1_555
H24 C22 1_555 1_555
C23 C22 1_555 1_555
H25 C23 1_555 1_555
C24 C23 1_555 1_555
H26 C24 1_555 1_555
C25 C20 1_555 1_555
H27 C25 1_555 1_555
C26 N2 1_555 1_555
H28 C26 1_555 1_555
H29 C26 1_555 1_555
H30 C26 1_555 1_555
C3 C5 1_555 1_555
C3 C11 1_555 1_555
C9 C10 1_555 1_555
N2 C11 1_555 1_555
C24 C25 1_555 1_555

#END
