
#######################################################################
#
#                 Cambridge Crystallographic Data Centre
#                                CCDC 
#
#######################################################################
#
# If this CIF has been generated from an entry in the Cambridge 
# Structural Database, then it will include bibliographic, chemical, 
# crystal, experimental, refinement or atomic coordinate data resulting 
# from the CCDC's data processing and validation procedures.
#
#######################################################################

data_YEWJOC
_chemical_formula_moiety         'C44 H56 N2 Si2'
_chemical_name_systematic        
2,5-bis[2,6-bis(propan-2-yl)phenyl]-1,1,4,4-tetramethyl-3,6-diphenyl-1,2,4,5-tetrahydro[1,2]azasilolo[4,3-c][1,2]azasilole
_symmetry_cell_setting           triclinic
_symmetry_space_group_name_H-M   'P -1'
_symmetry_Int_Tables_number      2
_space_group_name_Hall           '-P 1'
loop_
_symmetry_equiv_pos_site_id
_symmetry_equiv_pos_as_xyz
1 x,y,z
2 -x,-y,-z
_cell_length_a                   8.234(7)
_cell_length_b                   9.416(6)
_cell_length_c                   13.972(11)
_cell_angle_alpha                82.68(5)
_cell_angle_beta                 76.62(7)
_cell_angle_gamma                69.13(7)
_cell_volume                     983.516
_exptl_crystal_colour            yellow
_exptl_crystal_description       block
_cell_formula_units_Z            1
loop_
_atom_site_label
_atom_site_type_symbol
_atom_site_fract_x
_atom_site_fract_y
_atom_site_fract_z
Si1 Si 0.60369(10) 0.78059(8) 0.57410(6)
N1 N 0.5167(3) 0.9150(3) 0.66675(17)
C1 C 0.4258(3) 1.0600(3) 0.6255(2)
C2 C 0.3068(4) 1.1818(3) 0.6930(2)
C3 C 0.2813(4) 1.3353(4) 0.6674(2)
H1 H 0.3463 1.3625 0.6077
C4 C 0.1614(5) 1.4487(4) 0.7284(3)
H2 H 0.1469 1.5515 0.7104
C5 C 0.0636(5) 1.4100(4) 0.8155(3)
H3 H -0.0191 1.4863 0.8565
C6 C 0.0879(5) 1.2592(5) 0.8421(3)
H4 H 0.0221 1.2326 0.9017
C7 C 0.2091(4) 1.1457(4) 0.7815(2)
H5 H 0.2249 1.0431 0.8008
C8 C 0.4436(3) 1.0709(3) 0.5251(2)
C9 C 0.5873(4) 0.9043(3) 0.7541(2)
C10 C 0.5334(5) 0.8188(4) 0.8378(2)
C11 C 0.6033(6) 0.8121(5) 0.9214(3)
H6 H 0.5700 0.7549 0.9778
C12 C 0.7165(6) 0.8850(6) 0.9238(3)
H7 H 0.7567 0.8818 0.9821
C13 C 0.7742(6) 0.9651(6) 0.8396(3)
H8 H 0.8552 1.0139 0.8411
C14 C 0.7129(4) 0.9736(4) 0.7533(2)
C15 C 0.4093(5) 0.7321(4) 0.8401(2)
H9 H 0.3597 0.7623 0.7795
C16 C 0.2530(6) 0.7648(5) 0.9292(3)
H10 H 0.2980 0.7305 0.9895
H11 H 0.1745 0.7113 0.9240
H12 H 0.1881 0.8733 0.9303
C17 C 0.5106(7) 0.5602(5) 0.8398(3)
H13 H 0.6058 0.5376 0.7821
H14 H 0.4301 0.5067 0.8382
H15 H 0.5600 0.5276 0.8988
C18 C 0.7933(5) 1.0510(4) 0.6625(3)
H16 H 0.7420 1.0426 0.6069
C19 C 0.7512(7) 1.2202(5) 0.6759(4)
H17 H 0.6255 1.2666 0.7026
H18 H 0.7819 1.2701 0.6127
H19 H 0.8193 1.2310 0.7209
C20 C 0.9941(5) 0.9722(6) 0.6360(3)
H20 H 1.0460 0.9711 0.6918
H21 H 1.0438 1.0269 0.5802
H22 H 1.0201 0.8685 0.6191
C21 C 0.8344(5) 0.6566(4) 0.5781(3)
H23 H 0.9136 0.7147 0.5546
H24 H 0.8680 0.5718 0.5364
H25 H 0.8424 0.6185 0.6453
C22 C 0.4610(6) 0.6606(4) 0.5870(3)
H26 H 0.4912 0.5803 0.6374
H27 H 0.4802 0.6159 0.5247
H28 H 0.3373 0.7232 0.6055
Si1A Si 0.39631(10) 1.21941(8) 0.42590(6)
N1A N 0.4833(3) 1.0850(3) 0.33325(17)
C1A C 0.5742(3) 0.9400(3) 0.3745(2)
C2A C 0.6932(4) 0.8182(3) 0.3070(2)
C3A C 0.7187(4) 0.6647(4) 0.3326(2)
H1A H 0.6537 0.6375 0.3923
C4A C 0.8386(5) 0.5513(4) 0.2716(3)
H2A H 0.8531 0.4485 0.2896
C5A C 0.9364(5) 0.5900(4) 0.1845(3)
H3A H 1.0191 0.5137 0.1435
C6A C 0.9121(5) 0.7408(5) 0.1579(3)
H4A H 0.9779 0.7674 0.0983
C7A C 0.7909(4) 0.8543(4) 0.2185(2)
H5A H 0.7751 0.9569 0.1992
C8A C 0.5564(3) 0.9291(3) 0.4749(2)
C9A C 0.4127(4) 1.0957(3) 0.2459(2)
C10A C 0.4666(5) 1.1812(4) 0.1622(2)
C11A C 0.3967(6) 1.1879(5) 0.0786(3)
H6A H 0.4300 1.2451 0.0222
C12A C 0.2835(6) 1.1150(6) 0.0762(3)
H7A H 0.2433 1.1182 0.0179
C13A C 0.2258(6) 1.0349(6) 0.1604(3)
H8A H 0.1448 0.9861 0.1589
C14A C 0.2871(4) 1.0264(4) 0.2467(2)
C15A C 0.5907(5) 1.2679(4) 0.1599(2)
H9A H 0.6403 1.2377 0.2205
C16A C 0.7470(6) 1.2352(5) 0.0708(3)
H10A H 0.7020 1.2695 0.0105
H11A H 0.8255 1.2887 0.0760
H12A H 0.8119 1.1267 0.0697
C17A C 0.4894(7) 1.4398(5) 0.1602(3)
H13A H 0.3942 1.4624 0.2179
H14A H 0.5699 1.4933 0.1618
H15A H 0.4400 1.4724 0.1012
C18A C 0.2067(5) 0.9490(4) 0.3375(3)
H16A H 0.2580 0.9574 0.3931
C19A C 0.2488(7) 0.7798(5) 0.3241(4)
H17A H 0.3745 0.7334 0.2974
H18A H 0.2181 0.7299 0.3873
H19A H 0.1807 0.7690 0.2791
C20A C 0.0059(5) 1.0278(6) 0.3640(3)
H20A H -0.0460 1.0289 0.3082
H21A H -0.0438 0.9731 0.4198
H22A H -0.0201 1.1315 0.3809
C21A C 0.1656(5) 1.3434(4) 0.4219(3)
H23A H 0.0864 1.2853 0.4454
H24A H 0.1320 1.4282 0.4636
H25A H 0.1576 1.3815 0.3547
C22A C 0.5390(6) 1.3394(4) 0.4130(3)
H26A H 0.5088 1.4197 0.3626
H27A H 0.5198 1.3841 0.4753
H28A H 0.6627 1.2768 0.3945
loop_
_geom_bond_atom_site_label_1
_geom_bond_atom_site_label_2
_geom_bond_site_symmetry_1
_geom_bond_site_symmetry_2
Si1 N1 1_555 1_555
N1 C1 1_555 1_555
C1 C2 1_555 1_555
C2 C3 1_555 1_555
C3 H1 1_555 1_555
C4 C3 1_555 1_555
H2 C4 1_555 1_555
C5 C4 1_555 1_555
H3 C5 1_555 1_555
C6 C5 1_555 1_555
H4 C6 1_555 1_555
C7 C2 1_555 1_555
H5 C7 1_555 1_555
C8 C1 1_555 1_555
C9 N1 1_555 1_555
C10 C9 1_555 1_555
C11 C10 1_555 1_555
H6 C11 1_555 1_555
C12 C11 1_555 1_555
H7 C12 1_555 1_555
C13 C12 1_555 1_555
H8 C13 1_555 1_555
C14 C9 1_555 1_555
C15 C10 1_555 1_555
H9 C15 1_555 1_555
C16 C15 1_555 1_555
H10 C16 1_555 1_555
H11 C16 1_555 1_555
H12 C16 1_555 1_555
C17 C15 1_555 1_555
H13 C17 1_555 1_555
H14 C17 1_555 1_555
H15 C17 1_555 1_555
C18 C14 1_555 1_555
H16 C18 1_555 1_555
C19 C18 1_555 1_555
H17 C19 1_555 1_555
H18 C19 1_555 1_555
H19 C19 1_555 1_555
C20 C18 1_555 1_555
H20 C20 1_555 1_555
H21 C20 1_555 1_555
H22 C20 1_555 1_555
C21 Si1 1_555 1_555
H23 C21 1_555 1_555
H24 C21 1_555 1_555
H25 C21 1_555 1_555
C22 Si1 1_555 1_555
H26 C22 1_555 1_555
H27 C22 1_555 1_555
H28 C22 1_555 1_555
Si1A C8 1_555 1_555
N1A Si1A 1_555 1_555
C1A N1A 1_555 1_555
C2A C1A 1_555 1_555
C3A C2A 1_555 1_555
H1A C3A 1_555 1_555
C4A C3A 1_555 1_555
H2A C4A 1_555 1_555
C5A C4A 1_555 1_555
H3A C5A 1_555 1_555
C6A C5A 1_555 1_555
H4A C6A 1_555 1_555
C7A C2A 1_555 1_555
H5A C7A 1_555 1_555
C8A Si1 1_555 1_555
C9A N1A 1_555 1_555
C10A C9A 1_555 1_555
C11A C10A 1_555 1_555
H6A C11A 1_555 1_555
C12A C11A 1_555 1_555
H7A C12A 1_555 1_555
C13A C12A 1_555 1_555
H8A C13A 1_555 1_555
C14A C9A 1_555 1_555
C15A C10A 1_555 1_555
H9A C15A 1_555 1_555
C16A C15A 1_555 1_555
H10A C16A 1_555 1_555
H11A C16A 1_555 1_555
H12A C16A 1_555 1_555
C17A C15A 1_555 1_555
H13A C17A 1_555 1_555
H14A C17A 1_555 1_555
H15A C17A 1_555 1_555
C18A C14A 1_555 1_555
H16A C18A 1_555 1_555
C19A C18A 1_555 1_555
H17A C19A 1_555 1_555
H18A C19A 1_555 1_555
H19A C19A 1_555 1_555
C20A C18A 1_555 1_555
H20A C20A 1_555 1_555
H21A C20A 1_555 1_555
H22A C20A 1_555 1_555
C21A Si1A 1_555 1_555
H23A C21A 1_555 1_555
H24A C21A 1_555 1_555
H25A C21A 1_555 1_555
C22A Si1A 1_555 1_555
H26A C22A 1_555 1_555
H27A C22A 1_555 1_555
H28A C22A 1_555 1_555
C6 C7 1_555 1_555
C8 C8A 1_555 1_555
C13 C14 1_555 1_555
C1A C8A 1_555 1_555
C6A C7A 1_555 1_555
C13A C14A 1_555 1_555

#END
