
#######################################################################
#
#                 Cambridge Crystallographic Data Centre
#                                CCDC 
#
#######################################################################
#
# If this CIF has been generated from an entry in the Cambridge 
# Structural Database, then it will include bibliographic, chemical, 
# crystal, experimental, refinement or atomic coordinate data resulting 
# from the CCDC's data processing and validation procedures.
#
#######################################################################

data_YEWJIW
_chemical_formula_moiety         'C36 H38 N2'
_chemical_name_systematic        
N^1^,N^4^-bis(2,6-diethylphenyl)-1,4-diphenylbut-2-ene-1,4-diimine
_symmetry_cell_setting           monoclinic
_symmetry_space_group_name_H-M   'P 21/n'
_symmetry_Int_Tables_number      14
_space_group_name_Hall           '-P 2yn'
loop_
_symmetry_equiv_pos_site_id
_symmetry_equiv_pos_as_xyz
1 x,y,z
2 1/2-x,1/2+y,1/2-z
3 -x,-y,-z
4 1/2+x,1/2-y,1/2+z
_cell_length_a                   9.937(3)
_cell_length_b                   13.257(4)
_cell_length_c                   22.000(7)
_cell_angle_alpha                90
_cell_angle_beta                 96.887(7)
_cell_angle_gamma                90
_cell_volume                     2877.25
_exptl_crystal_colour            colorless
_exptl_crystal_description       block
_cell_formula_units_Z            4
loop_
_atom_site_label
_atom_site_type_symbol
_atom_site_fract_x
_atom_site_fract_y
_atom_site_fract_z
N1 N 0.2705(4) 0.8568(3) 0.22466(18)
N2 N -0.2718(4) 0.8461(3) 0.27040(18)
C1 C 0.2611(5) 0.8639(4) 0.3317(2)
C2 C 0.1816(5) 0.8813(4) 0.3790(2)
H1 H 0.0857 0.8832 0.3704
C3 C 0.1978(5) 0.8504(4) 0.2679(2)
C4 C 0.4000(5) 0.8634(4) 0.3456(2)
H2 H 0.4558 0.8525 0.3140
C5 C -0.1969(5) 0.7827(4) 0.3723(2)
C6 C -0.1979(5) 0.8518(4) 0.2273(2)
C7 C -0.2039(5) 0.9637(4) 0.3526(2)
C8 C 0.2156(5) 0.8372(4) 0.1632(2)
C9 C -0.2598(5) 0.8386(4) 0.1629(2)
C10 C -0.1369(6) 0.8994(5) 0.4541(3)
H3 H -0.1058 0.9114 0.4960
C11 C -0.1822(6) 0.8208(4) 0.1165(2)
H4 H -0.0864 0.8173 0.1256
C12 C -0.4005(5) 0.8433(4) 0.1490(2)
H5 H -0.4559 0.8551 0.1806
C13 C 0.3786(6) 0.8960(4) 0.4505(3)
H6 H 0.4194 0.9080 0.4912
C14 C 0.2028(5) 0.7368(4) 0.1427(2)
C15 C 0.1899(6) 0.9180(4) 0.1232(2)
C16 C -0.1609(6) 0.9786(5) 0.4148(2)
H7 H -0.1482 1.0455 0.4300
C17 C -0.2191(5) 0.8639(4) 0.3326(2)
C18 C 0.4584(6) 0.8787(4) 0.4046(2)
H8 H 0.5543 0.8773 0.4137
C19 C -0.1569(5) 0.8041(4) 0.4337(2)
H9 H -0.1434 0.7499 0.4620
C20 C -0.2396(6) 0.8079(5) 0.0575(3)
H10 H -0.1846 0.7950 0.0259
C21 C 0.1457(6) 0.8974(5) 0.0619(3)
H11 H 0.1267 0.9516 0.0340
C22 C 0.1586(6) 0.7213(5) 0.0811(3)
H12 H 0.1485 0.6542 0.0661
C23 C -0.4590(6) 0.8310(5) 0.0896(3)
H13 H -0.5547 0.8345 0.0802
C24 C 0.2410(6) 0.8957(4) 0.4376(2)
H14 H 0.1861 0.9057 0.4696
C25 C 0.2398(6) 0.6493(4) 0.1837(3)
H15 H 0.1949 0.5879 0.1655
H16 H 0.2062 0.6613 0.2237
C26 C 0.1291(6) 0.7996(5) 0.0414(3)
H17 H 0.0973 0.7866 -0.0004
C27 C -0.2394(6) 1.0524(4) 0.3120(2)
H18 H -0.2063 1.0406 0.2719
H19 H -0.1930 1.1131 0.3305
C28 C 0.207(3) 1.0263(10) 0.1422(8)
H20 H 0.1383 1.0671 0.1169
H21 H 0.1893 1.0326 0.1853
C29 C -0.0494(6) 0.8762(5) 0.2347(3)
H22 H -0.0253 0.9380 0.2171
C30 C 0.0499(6) 0.8240(5) 0.2619(3)
H23 H 0.0269 0.7624 0.2801
C31 C -0.3799(6) 0.8139(6) 0.0443(3)
H24 H -0.4208 0.8059 0.0032
C32 C 0.3917(6) 0.6323(5) 0.1938(3)
H25 H 0.4258 0.6227 0.1543
H26 H 0.4114 0.5721 0.2192
H27 H 0.4359 0.6910 0.2146
C33 C -0.3914(6) 1.0716(5) 0.3021(3)
H28 H -0.4096 1.1341 0.2788
H29 H -0.4258 1.0778 0.3419
H30 H -0.4367 1.0151 0.2793
C34 C -0.3469(13) 0.6311(10) 0.3610(7)
H31 H -0.3517 0.5602 0.3483
H32 H -0.3620 0.6361 0.4041
H33 H -0.4166 0.6698 0.3357
C35 C 0.3434(12) 1.0690(9) 0.1364(6)
H34 H 0.4123 1.0311 0.1628
H35 H 0.3458 1.1399 0.1490
H36 H 0.3620 1.0639 0.0938
C36 C -0.2063(17) 0.6737(8) 0.3529(7)
H37 H -0.1356 0.6341 0.3780
H38 H -0.1903 0.6678 0.3095
C37? C -0.243(3) 0.6819(12) 0.3434(11)
H39? H -0.1824 0.6629 0.3126
H40? H -0.3359 0.6888 0.3221
C38? C 0.240(4) 1.0981(18) 0.1028(11)
H41? H 0.2603 1.1634 0.1227
H42? H 0.3154 1.0783 0.0804
H43? H 0.1569 1.1036 0.0742
C39? C -0.240(3) 0.5978(16) 0.3921(10)
H44? H -0.2703 0.5341 0.3722
H45? H -0.1480 0.5900 0.4127
H46? H -0.3014 0.6158 0.4222
C40? C 0.221(7) 1.0207(19) 0.1500(17)
H47? H 0.1466 1.0420 0.1731
H48? H 0.3050 1.0167 0.1793
C41? C 0.057(2) 0.868(3) 0.2412(18)
H49? H 0.0495 0.9184 0.2102
C42? C -0.0550(19) 0.832(3) 0.250(2)
H50? H -0.0457 0.7780 0.2787
loop_
_geom_bond_atom_site_label_1
_geom_bond_atom_site_label_2
_geom_bond_site_symmetry_1
_geom_bond_site_symmetry_2
N1 C3 1_555 1_555
N2 C6 1_555 1_555
C1 C2 1_555 1_555
C2 H1 1_555 1_555
C3 C1 1_555 1_555
C4 C1 1_555 1_555
H2 C4 1_555 1_555
C5 C17 1_555 1_555
C6 C9 1_555 1_555
C7 C16 1_555 1_555
C8 N1 1_555 1_555
C9 C11 1_555 1_555
C10 H3 1_555 1_555
C11 H4 1_555 1_555
C12 C9 1_555 1_555
H5 C12 1_555 1_555
C13 H6 1_555 1_555
C14 C8 1_555 1_555
C15 C8 1_555 1_555
C16 C10 1_555 1_555
H7 C16 1_555 1_555
C17 N2 1_555 1_555
C18 C4 1_555 1_555
H8 C18 1_555 1_555
C19 C5 1_555 1_555
H9 C19 1_555 1_555
C20 C11 1_555 1_555
H10 C20 1_555 1_555
C21 C15 1_555 1_555
H11 C21 1_555 1_555
C22 C14 1_555 1_555
H12 C22 1_555 1_555
C23 C12 1_555 1_555
H13 C23 1_555 1_555
C24 C2 1_555 1_555
H14 C24 1_555 1_555
C25 C14 1_555 1_555
H15 C25 1_555 1_555
H16 C25 1_555 1_555
C26 C21 1_555 1_555
H17 C26 1_555 1_555
C27 C7 1_555 1_555
H18 C27 1_555 1_555
H19 C27 1_555 1_555
C28 C15 1_555 1_555
H20 C28 1_555 1_555
H21 C28 1_555 1_555
C29 C6 1_555 1_555
H22 C29 1_555 1_555
C30 C3 1_555 1_555
H23 C30 1_555 1_555
C31 C20 1_555 1_555
H24 C31 1_555 1_555
C32 C25 1_555 1_555
H25 C32 1_555 1_555
H26 C32 1_555 1_555
H27 C32 1_555 1_555
C33 C27 1_555 1_555
H28 C33 1_555 1_555
H29 C33 1_555 1_555
H30 C33 1_555 1_555
C34 H31 1_555 1_555
H32 C34 1_555 1_555
H33 C34 1_555 1_555
C35 C28 1_555 1_555
H34 C35 1_555 1_555
H35 C35 1_555 1_555
H36 C35 1_555 1_555
C36 C5 1_555 1_555
H37 C36 1_555 1_555
H38 C36 1_555 1_555
C7 C17 1_555 1_555
C10 C19 1_555 1_555
C13 C18 1_555 1_555
C13 C24 1_555 1_555
C22 C26 1_555 1_555
C23 C31 1_555 1_555
C29 C30 1_555 1_555
C34 C36 1_555 1_555

#END
