
#######################################################################
#
#                 Cambridge Crystallographic Data Centre
#                                CCDC 
#
#######################################################################
#
# If this CIF has been generated from an entry in the Cambridge 
# Structural Database, then it will include bibliographic, chemical, 
# crystal, experimental, refinement or atomic coordinate data resulting 
# from the CCDC's data processing and validation procedures.
#
#######################################################################

data_YEWKET
_chemical_formula_moiety         'C25 H31 B1 F2 N2 O8'
_chemical_name_systematic        
'[ethyl 5-{[5-(ethoxycarbonyl)-3-(3-methoxy-3-oxopropyl)-4-methyl-2H-pyrrol-2-ylidene]methyl}-4-(3-methoxy-3-oxopropyl)-3-methyl-1H-pyrrole-2-carboxylatato](difluoro)boron'
_symmetry_cell_setting           triclinic
_symmetry_space_group_name_H-M   'P -1'
_symmetry_Int_Tables_number      2
_space_group_name_Hall           '-P 1'
loop_
_symmetry_equiv_pos_site_id
_symmetry_equiv_pos_as_xyz
1 x,y,z
2 -x,-y,-z
_cell_length_a                   11.5534(11)
_cell_length_b                   14.8616(14)
_cell_length_c                   16.7207(16)
_cell_angle_alpha                102.449(6)
_cell_angle_beta                 98.382(7)
_cell_angle_gamma                107.616(6)
_cell_volume                     2602.43
_exptl_crystal_colour            red
_exptl_crystal_description       block
_cell_formula_units_Z            4
_chemical_properties_physical    ', Heat-sensitive,Photo-sensitive'
_exptl_crystal_preparation       ', Luminescent'
loop_
_atom_site_label
_atom_site_type_symbol
_atom_site_fract_x
_atom_site_fract_y
_atom_site_fract_z
F1 F 0.53428(12) 0.20023(10) 0.10053(8)
F2 F 0.74507(12) 0.27409(9) 0.14628(8)
O1 O 0.77862(18) 0.38829(13) -0.03889(13)
O2 O 0.60997(16) 0.34054(12) 0.01516(11)
O3 O 0.5917(2) 0.22241(16) 0.28459(12)
O4 O 0.76998(17) 0.20718(13) 0.34156(11)
O5 O 0.71041(19) -0.32377(14) 0.04535(15)
O6 O 0.91629(18) -0.24613(14) 0.08632(13)
O7 O 0.73956(18) -0.15568(15) -0.29680(13)
O8 O 0.93987(19) -0.06502(15) -0.27208(15)
N1 N 0.65465(17) 0.10161(14) 0.13452(12)
N2 N 0.66516(17) 0.16278(13) 0.00680(12)
C1 C 0.6948(3) 0.4825(2) 0.13652(17)
H1 H 0.7793 0.4816 0.1367
H2 H 0.6573 0.4424 0.1718
H3 H 0.6984 0.5502 0.1587
C2 C 0.6172(3) 0.44161(18) 0.04829(17)
H4 H 0.5323 0.4438 0.0477
H5 H 0.6548 0.4819 0.0124
C3 C 0.6985(2) 0.32590(18) -0.02297(15)
C4 C 0.6856(2) 0.22055(18) -0.04612(15)
C5 C 0.6964(2) 0.16836(18) -0.12366(15)
C6 C 0.7152(3) 0.2066(2) -0.19818(17)
H6 H 0.6678 0.2506 -0.2028
H7 H 0.6862 0.1515 -0.2492
H8 H 0.8040 0.2428 -0.1914
C7 C 0.6809(2) 0.07310(17) -0.11835(14)
C8 C 0.6638(2) 0.07130(16) -0.03661(14)
C9 C 0.6565(2) -0.00271(17) 0.00317(14)
H9 H 0.6544 -0.0649 -0.0282
C10 C 0.6521(2) 0.01153(16) 0.08679(15)
C11 C 0.6538(2) -0.05141(17) 0.13999(15)
C12 C 0.6583(2) 0.00214(18) 0.22004(16)
C13 C 0.6591(3) -0.0312(2) 0.29855(18)
H10 H 0.7406 0.0036 0.3375
H11 H 0.6432 -0.1020 0.2843
H12 H 0.5940 -0.0170 0.3251
C14 C 0.6591(2) 0.09614(18) 0.21416(15)
C15 C 0.6675(2) 0.18192(18) 0.28261(15)
C16 C 0.7972(3) 0.2954(2) 0.41033(17)
H13 H 0.7205 0.2959 0.4300
H14 H 0.8289 0.3549 0.3910
C17 C 0.8922(3) 0.2947(2) 0.47936(19)
H15 H 0.9660 0.2907 0.4585
H16 H 0.8581 0.2378 0.5004
H17 H 0.9157 0.3551 0.5251
C18 C 0.6849(2) -0.00997(18) -0.18516(15)
H18 H 0.6318 -0.0147 -0.2391
H19 H 0.6505 -0.0722 -0.1703
C19 C 0.8170(2) 0.00330(19) -0.19606(17)
H20 H 0.8499 0.0643 -0.2130
H21 H 0.8707 0.0110 -0.1414
C20 C 0.8242(2) -0.0812(2) -0.26037(17)
C21 C 0.9581(3) -0.1450(3) -0.3304(3)
H22 H 0.9081 -0.1568 -0.3867
H23 H 0.9322 -0.2047 -0.3116
H24 H 1.0465 -0.1274 -0.3320
C22 C 0.6569(2) -0.15323(17) 0.11230(17)
H25 H 0.6127 -0.1833 0.0525
H26 H 0.6129 -0.1937 0.1459
C23 C 0.7899(2) -0.15273(19) 0.12275(17)
H27 H 0.8382 -0.1021 0.0987
H28 H 0.8287 -0.1344 0.1835
C24 C 0.7977(3) -0.2506(2) 0.08076(17)
C25 C 0.9341(3) -0.3358(2) 0.0447(2)
H29 H 0.8919 -0.3565 -0.0149
H30 H 0.8989 -0.3875 0.0711
H31 H 1.0234 -0.3239 0.0498
B1 B 0.6482(2) 0.19015(19) 0.09910(17)
F3 F 0.74584(13) 0.64493(10) 0.49819(9)
F4 F 0.82239(12) 0.53604(10) 0.42398(9)
O9 O 0.6762(2) 0.73850(16) 0.28973(17)
O10 O 0.81154(18) 0.68157(15) 0.34717(16)
O11 O 0.9080(18) 0.6027(17) 0.6096(15)
O12 O 0.18898(17) 0.13712(14) 0.06602(13)
O13 O 0.09667(16) 0.23302(15) 0.13114(13)
O14 O 0.3552(3) -0.02454(18) 0.39837(18)
O15 O 0.2751(2) 0.06026(17) 0.48690(17)
N3 N 0.66863(17) 0.47249(13) 0.49782(11)
N4 N 0.61260(17) 0.53051(14) 0.36987(12)
C26 C 0.9983(4) 0.7403(3) 0.3016(2)
H32 H 0.9540 0.7159 0.2423
H33 H 1.0226 0.6884 0.3189
H34 H 1.0730 0.7973 0.3090
C27 C 0.9151(3) 0.7694(2) 0.3542(2)
H35 H 0.9613 0.7996 0.4136
H36 H 0.8843 0.8178 0.3342
C28 C 0.6995(2) 0.67684(19) 0.31655(15)
C29 C 0.6030(2) 0.58415(17) 0.31481(15)
C30 C 0.4899(2) 0.53892(18) 0.25356(15)
C31 C 0.4478(3) 0.5749(2) 0.18106(16)
H37 H 0.3710 0.5250 0.1443
H38 H 0.5129 0.5872 0.1491
H39 H 0.4321 0.6358 0.2024
C32 C 0.4269(2) 0.45304(18) 0.27189(15)
C33 C 0.5030(2) 0.44979(17) 0.34525(15)
C34 C 0.4777(2) 0.38306(17) 0.39195(15)
H40 H 0.4027 0.3279 0.3724
C35 C 0.5577(2) 0.39370(16) 0.46612(15)
C36 C 0.5472(2) 0.33034(17) 0.51863(15)
C37 C 0.6538(2) 0.36976(18) 0.58239(15)
C38 C 0.6821(3) 0.3246(2) 0.65136(16)
H41 H 0.6055 0.2751 0.6543
H42 H 0.7156 0.3757 0.7051
H43 H 0.7437 0.2934 0.6399
C39 C 0.7270(2) 0.45754(17) 0.56825(14)
C40 C 0.8473(2) 0.52891(19) 0.62157(15)
O16 O 0.8804(6) 0.4971(4) 0.6877(4)
C41 C 0.9915(7) 0.5628(5) 0.7511(5)
H44 H 0.9943 0.6316 0.7615
H45 H 1.0678 0.5584 0.7328
C42 C 0.9809(13) 0.5284(9) 0.8294(7)
H46 H 0.9779 0.4601 0.8178
H47 H 0.9046 0.5328 0.8462
H48 H 1.0534 0.5699 0.8749
C43 C 0.3041(2) 0.37675(19) 0.22562(16)
H49 H 0.2523 0.4078 0.1970
H50 H 0.2605 0.3496 0.2665
C44 C 0.3168(2) 0.29334(19) 0.16078(16)
H51 H 0.3585 0.3210 0.1194
H52 H 0.3718 0.2646 0.1895
C45 C 0.1967(2) 0.2126(2) 0.11425(17)
C46 C -0.0239(3) 0.1585(2) 0.0881(2)
H53 H -0.0329 0.1467 0.0272
H54 H -0.0903 0.1812 0.1049
H55 H -0.0296 0.0975 0.1033
C47 C 0.4409(2) 0.23690(17) 0.50519(16)
H56 H 0.3656 0.2399 0.4707
H57 H 0.4231 0.2306 0.5603
C48 C 0.4675(3) 0.14642(19) 0.46170(19)
H58 H 0.4887 0.1546 0.4078
H59 H 0.5415 0.1430 0.4973
C49 C 0.3623(4) 0.0510(2) 0.4441(2)
C50 C 0.1674(5) -0.0267(3) 0.4717(3)
H60 H 0.1209 -0.0450 0.4133
H61 H 0.1137 -0.0137 0.5097
H62 H 0.1943 -0.0806 0.4818
B2 B 0.7200(2) 0.55093(19) 0.44944(17)
O17? O 0.881(2) 0.6167(7) 0.6334(17)
O18? O 0.9135(6) 0.4833(5) 0.6584(5)
C51? C 1.0253(8) 0.5436(7) 0.7237(6)
H63? H 1.0573 0.6099 0.7155
H64? H 1.0908 0.5137 0.7199
C52? C 0.9947(12) 0.5513(9) 0.8092(8)
H65? H 0.9321 0.5832 0.8135
H66? H 1.0705 0.5904 0.8530
H67? H 0.9618 0.4854 0.8167
loop_
_geom_bond_atom_site_label_1
_geom_bond_atom_site_label_2
_geom_bond_site_symmetry_1
_geom_bond_site_symmetry_2
F1 B1 1_555 1_555
F2 B1 1_555 1_555
O1 C3 1_555 1_555
O2 C2 1_555 1_555
O3 C15 1_555 1_555
O4 C15 1_555 1_555
O5 C24 1_555 1_555
O6 C24 1_555 1_555
O7 C20 1_555 1_555
O8 C20 1_555 1_555
N1 C10 1_555 1_555
N2 C4 1_555 1_555
C1 H1 1_555 1_555
H2 C1 1_555 1_555
H3 C1 1_555 1_555
C2 C1 1_555 1_555
H4 C2 1_555 1_555
H5 C2 1_555 1_555
C3 O2 1_555 1_555
C4 C3 1_555 1_555
C5 C4 1_555 1_555
C6 C5 1_555 1_555
H6 C6 1_555 1_555
H7 C6 1_555 1_555
H8 C6 1_555 1_555
C7 C5 1_555 1_555
C8 N2 1_555 1_555
C9 C8 1_555 1_555
H9 C9 1_555 1_555
C10 C9 1_555 1_555
C11 C10 1_555 1_555
C12 C11 1_555 1_555
C13 C12 1_555 1_555
H10 C13 1_555 1_555
H11 C13 1_555 1_555
H12 C13 1_555 1_555
C14 N1 1_555 1_555
C15 C14 1_555 1_555
C16 O4 1_555 1_555
H13 C16 1_555 1_555
H14 C16 1_555 1_555
C17 C16 1_555 1_555
H15 C17 1_555 1_555
H16 C17 1_555 1_555
H17 C17 1_555 1_555
C18 C7 1_555 1_555
H18 C18 1_555 1_555
H19 C18 1_555 1_555
C19 C18 1_555 1_555
H20 C19 1_555 1_555
H21 C19 1_555 1_555
C20 C19 1_555 1_555
C21 O8 1_555 1_555
H22 C21 1_555 1_555
H23 C21 1_555 1_555
H24 C21 1_555 1_555
C22 C11 1_555 1_555
H25 C22 1_555 1_555
H26 C22 1_555 1_555
C23 C22 1_555 1_555
H27 C23 1_555 1_555
H28 C23 1_555 1_555
C24 C23 1_555 1_555
C25 O6 1_555 1_555
H29 C25 1_555 1_555
H30 C25 1_555 1_555
H31 C25 1_555 1_555
B1 N1 1_555 1_555
F3 B2 1_555 1_555
F4 B2 1_555 1_555
O9 C28 1_555 1_555
O10 C27 1_555 1_555
O11 C40 1_555 1_555
O12 C45 1_555 1_555
O13 C45 1_555 1_555
O14 C49 1_555 1_555
O15 C49 1_555 1_555
N3 C35 1_555 1_555
N4 C29 1_555 1_555
C26 H32 1_555 1_555
H33 C26 1_555 1_555
H34 C26 1_555 1_555
C27 C26 1_555 1_555
H35 C27 1_555 1_555
H36 C27 1_555 1_555
C28 O10 1_555 1_555
C29 C28 1_555 1_555
C30 C29 1_555 1_555
C31 C30 1_555 1_555
H37 C31 1_555 1_555
H38 C31 1_555 1_555
H39 C31 1_555 1_555
C32 C30 1_555 1_555
C33 N4 1_555 1_555
C34 C33 1_555 1_555
H40 C34 1_555 1_555
C35 C34 1_555 1_555
C36 C35 1_555 1_555
C37 C36 1_555 1_555
C38 C37 1_555 1_555
H41 C38 1_555 1_555
H42 C38 1_555 1_555
H43 C38 1_555 1_555
C39 N3 1_555 1_555
C40 C39 1_555 1_555
O16 C40 1_555 1_555
C41 O16 1_555 1_555
H44 C41 1_555 1_555
H45 C41 1_555 1_555
C42 C41 1_555 1_555
H46 C42 1_555 1_555
H47 C42 1_555 1_555
H48 C42 1_555 1_555
C43 C32 1_555 1_555
H49 C43 1_555 1_555
H50 C43 1_555 1_555
C44 C43 1_555 1_555
H51 C44 1_555 1_555
H52 C44 1_555 1_555
C45 C44 1_555 1_555
C46 O13 1_555 1_555
H53 C46 1_555 1_555
H54 C46 1_555 1_555
H55 C46 1_555 1_555
C47 C36 1_555 1_555
H56 C47 1_555 1_555
H57 C47 1_555 1_555
C48 C47 1_555 1_555
H58 C48 1_555 1_555
H59 C48 1_555 1_555
C49 C48 1_555 1_555
C50 O15 1_555 1_555
H60 C50 1_555 1_555
H61 C50 1_555 1_555
H62 C50 1_555 1_555
B2 N3 1_555 1_555
N2 B1 1_555 1_555
C7 C8 1_555 1_555
C12 C14 1_555 1_555
N4 B2 1_555 1_555
C32 C33 1_555 1_555
C37 C39 1_555 1_555

#END
