
#######################################################################
#
#                 Cambridge Crystallographic Data Centre
#                                CCDC 
#
#######################################################################
#
# If this CIF has been generated from an entry in the Cambridge 
# Structural Database, then it will include bibliographic, chemical, 
# crystal, experimental, refinement or atomic coordinate data resulting 
# from the CCDC's data processing and validation procedures.
#
#######################################################################

data_YEWKOD
_chemical_formula_moiety         'C17 H22 O4'
_chemical_name_systematic        
'5,8a-dimethyl-3-methylene-2-oxo-2,3,3a,5,6,7,8,8a,9,9a-decahydronaphtho[2,3-b]furan-8-yl acetate'
_symmetry_cell_setting           orthorhombic
_symmetry_space_group_name_H-M   'P 21 21 21'
_symmetry_Int_Tables_number      19
_space_group_name_Hall           'P 2ac 2ab'
loop_
_symmetry_equiv_pos_site_id
_symmetry_equiv_pos_as_xyz
1 x,y,z
2 1/2-x,-y,1/2+z
3 1/2+x,1/2-y,-z
4 -x,1/2+y,1/2-z
_cell_length_a                   7.4266(7)
_cell_length_b                   12.6128(12)
_cell_length_c                   16.8409(16)
_cell_angle_alpha                90
_cell_angle_beta                 90
_cell_angle_gamma                90
_cell_volume                     1577.49
_exptl_crystal_colour            colorless
_exptl_crystal_description       block
_cell_formula_units_Z            4
loop_
_atom_site_label
_atom_site_type_symbol
_atom_site_fract_x
_atom_site_fract_y
_atom_site_fract_z
O1 O 0.3176(2) 0.03265(18) 0.70775(11)
O2 O 0.2550(4) 0.0582(2) 0.83610(13)
O3 O -0.0133(3) 0.19078(16) 0.49022(13)
O4 O -0.0523(5) 0.1772(3) 0.35975(16)
C1 C 0.1497(3) -0.0247(2) 0.69540(13)
H1 H 0.0651 -0.0050 0.7375
C2 C 0.1857(5) -0.1426(2) 0.70090(18)
H2 H 0.2352 -0.1595 0.7527
H3 H 0.2730 -0.1631 0.6609
C3 C 0.0116(5) -0.2037(2) 0.68829(18)
H4 H -0.0717 -0.1869 0.7308
H5 H 0.0367 -0.2791 0.6905
C4 C -0.0764(4) -0.17729(18) 0.60846(14)
H6 H -0.2001 -0.2043 0.6106
C5 C -0.0887(3) -0.05842(17) 0.59511(11)
C6 C -0.2375(3) -0.01811(18) 0.56449(14)
H7 H -0.3334 -0.0647 0.5577
C7 C -0.2688(3) 0.09514(18) 0.53943(15)
H8 H -0.3829 0.1210 0.5613
C8 C -0.1147(4) 0.17015(18) 0.56260(16)
H9 H -0.1666 0.2371 0.5814
C9 C 0.0077(3) 0.12695(18) 0.62623(14)
H10 H -0.0549 0.1315 0.6767
H11 H 0.1127 0.1725 0.6296
C10 C 0.0724(3) 0.01243(18) 0.61513(11)
C11 C -0.2707(4) 0.1032(2) 0.45091(16)
C12 C -0.1063(5) 0.1592(2) 0.42577(18)
C13 C -0.3909(5) 0.0681(3) 0.4000(2)
H12 H -0.3736 0.0783 0.3458
H13 H -0.4931 0.0331 0.4181
C14 C 0.2171(3) 0.0063(2) 0.54945(14)
H14 H 0.1608 0.0137 0.4984
H15 H 0.2774 -0.0610 0.5523
H16 H 0.3030 0.0623 0.5568
C15 C 0.0183(5) -0.2351(2) 0.54008(19)
H17 H 0.1445 -0.2188 0.5410
H18 H -0.0323 -0.2125 0.4904
H19 H 0.0019 -0.3102 0.5460
C16 C 0.3539(4) 0.0671(2) 0.78087(16)
C17 C 0.5349(6) 0.1190(4) 0.7832(2)
H20 H 0.5300 0.1851 0.7551
H21 H 0.6222 0.0734 0.7587
H22 H 0.5686 0.1318 0.8374
loop_
_geom_bond_atom_site_label_1
_geom_bond_atom_site_label_2
_geom_bond_site_symmetry_1
_geom_bond_site_symmetry_2
O1 C1 1_555 1_555
O2 C16 1_555 1_555
O3 C8 1_555 1_555
O4 C12 1_555 1_555
C1 H1 1_555 1_555
C2 C1 1_555 1_555
H2 C2 1_555 1_555
H3 C2 1_555 1_555
C3 C2 1_555 1_555
H4 C3 1_555 1_555
H5 C3 1_555 1_555
C4 C3 1_555 1_555
H6 C4 1_555 1_555
C5 C4 1_555 1_555
C6 C5 1_555 1_555
H7 C6 1_555 1_555
C7 C6 1_555 1_555
H8 C7 1_555 1_555
C8 C7 1_555 1_555
H9 C8 1_555 1_555
C9 C8 1_555 1_555
H10 C9 1_555 1_555
H11 C9 1_555 1_555
C10 C1 1_555 1_555
C11 C7 1_555 1_555
C12 O3 1_555 1_555
C13 C11 1_555 1_555
H12 C13 1_555 1_555
H13 C13 1_555 1_555
C14 C10 1_555 1_555
H14 C14 1_555 1_555
H15 C14 1_555 1_555
H16 C14 1_555 1_555
C15 C4 1_555 1_555
H17 C15 1_555 1_555
H18 C15 1_555 1_555
H19 C15 1_555 1_555
C16 O1 1_555 1_555
C17 C16 1_555 1_555
H20 C17 1_555 1_555
H21 C17 1_555 1_555
H22 C17 1_555 1_555
C5 C10 1_555 1_555
C9 C10 1_555 1_555
C11 C12 1_555 1_555

#END
