
#######################################################################
#
#                 Cambridge Crystallographic Data Centre
#                                CCDC 
#
#######################################################################
#
# If this CIF has been generated from an entry in the Cambridge 
# Structural Database, then it will include bibliographic, chemical, 
# crystal, experimental, refinement or atomic coordinate data resulting 
# from the CCDC's data processing and validation procedures.
#
#######################################################################

data_YEWNEW
_chemical_formula_moiety         'C23 H28 N1 O3 P1'
_chemical_name_systematic        
'(S)-allyl 3-(((2S,5S)-1-oxido-2,5-diphenylphospholan-1-yl)amino)butanoate'
_symmetry_cell_setting           monoclinic
_symmetry_space_group_name_H-M   'P 21'
_symmetry_Int_Tables_number      4
_space_group_name_Hall           'P 2yb'
loop_
_symmetry_equiv_pos_site_id
_symmetry_equiv_pos_as_xyz
1 x,y,z
2 -x,1/2+y,-z
_cell_length_a                   11.4166(13)
_cell_length_b                   5.3380(6)
_cell_length_c                   17.671(2)
_cell_angle_alpha                90
_cell_angle_beta                 98.684(2)
_cell_angle_gamma                90
_cell_volume                     1064.56
_exptl_crystal_colour            colorless
_exptl_crystal_description       blade
_cell_formula_units_Z            2
loop_
_atom_site_label
_atom_site_type_symbol
_atom_site_fract_x
_atom_site_fract_y
_atom_site_fract_z
P1 P 0.58256(5) 0.54967(12) 0.21728(3)
O1 O 0.58695(16) 0.8082(3) 0.24835(10)
O2 O 0.37726(17) 0.3818(4) 0.50810(10)
O3 O 0.3076(2) 0.6698(5) 0.42172(12)
N1 N 0.51944(18) 0.3507(4) 0.26826(11)
H1 H 0.5459 0.1996 0.2715
C1 C 0.5150(2) 0.5391(6) 0.11602(12)
H2 H 0.5414 0.6902 0.092
C2 C 0.3725(3) 0.4994(6) 0.44109(14)
C3 C 0.3818(2) 0.5419(7) 0.10100(13)
C4 C 0.7212(2) 0.3936(5) 0.20283(14)
H3 H 0.7217 0.2282 0.2269
C5 C 0.4201(2) 0.4130(5) 0.30913(13)
H4 H 0.3983 0.5883 0.2981
C6 C 0.5786(3) 0.3187(6) 0.08498(16)
H5 H 0.5495 0.1612 0.1022
H6 H 0.5661 0.3203 0.0295
C7 C 0.4592(2) 0.3880(6) 0.39457(14)
H7 H 0.4697 0.2119 0.4074
H8 H 0.5353 0.4701 0.4082
C8 C 0.8326(2) 0.5267(6) 0.23804(15)
C9 C 0.3166(3) 0.3579(7) 0.05870(16)
H9 H 0.3552 0.2259 0.0385
C10 C 0.2964(3) 0.4645(6) 0.55830(15)
H10 H 0.2765 0.6389 0.5478
H11 H 0.3349 0.452 0.611
C11 C 0.1872(3) 0.3143(7) 0.5484(2)
H12 H 0.1327 0.3534 0.5807
C12 C 0.3211(3) 0.7377(6) 0.12959(18)
H13 H 0.3633 0.866 0.157
C13 C 0.3133(3) 0.2532(6) 0.28222(17)
H14 H 0.2911 0.2726 0.2279
H15 H 0.2487 0.3042 0.3077
H16 H 0.3319 0.0807 0.2938
C14 C 0.9036(3) 0.4346(7) 0.30156(18)
H17 H 0.8809 0.2897 0.3247
C15 C 0.7091(3) 0.3515(7) 0.11596(15)
H18 H 0.7408 0.4941 0.0917
H19 H 0.7529 0.2033 0.1052
C16 C 0.8683(3) 0.7457(6) 0.2064(2)
H20 H 0.8214 0.814 0.1638
C17 C 0.1943(3) 0.3695(9) 0.0463(2)
H21 H 0.1513 0.2461 0.017
C18 C 0.1997(3) 0.7430(8) 0.1177(2)
H22 H 0.1601 0.8733 0.1379
C19 C 1.0413(4) 0.7660(10) 0.2992(3)
H23 H 1.1117 0.8451 0.3194
C20 C 0.9726(3) 0.8659(9) 0.2368(3)
H24 H 0.9953 1.0131 0.2149
C21 C 0.1579(3) 0.1361(8) 0.5007(2)
H25 H 0.2089 0.0884 0.4669
H26 H 0.0858 0.0545 0.4999
C22 C 1.0087(3) 0.5524(12) 0.3323(2)
H27 H 1.0561 0.4858 0.375
C23 C 0.1358(3) 0.5572(11) 0.0760(2)
H28 H 0.0535 0.5607 0.0683
loop_
_geom_bond_atom_site_label_1
_geom_bond_atom_site_label_2
_geom_bond_site_symmetry_1
_geom_bond_site_symmetry_2
P1 O1 1_555 1_555
O2 C2 1_555 1_555
O3 C2 1_555 1_555
N1 P1 1_555 1_555
H1 N1 1_555 1_555
C1 P1 1_555 1_555
H2 C1 1_555 1_555
C2 C7 1_555 1_555
C3 C1 1_555 1_555
C4 P1 1_555 1_555
H3 C4 1_555 1_555
C5 N1 1_555 1_555
H4 C5 1_555 1_555
C6 C1 1_555 1_555
H5 C6 1_555 1_555
H6 C6 1_555 1_555
C7 C5 1_555 1_555
H7 C7 1_555 1_555
H8 C7 1_555 1_555
C8 C4 1_555 1_555
C9 C3 1_555 1_555
H9 C9 1_555 1_555
C10 O2 1_555 1_555
H10 C10 1_555 1_555
H11 C10 1_555 1_555
C11 C10 1_555 1_555
H12 C11 1_555 1_555
C12 C3 1_555 1_555
H13 C12 1_555 1_555
C13 C5 1_555 1_555
H14 C13 1_555 1_555
H15 C13 1_555 1_555
H16 C13 1_555 1_555
C14 C8 1_555 1_555
H17 C14 1_555 1_555
C15 C4 1_555 1_555
H18 C15 1_555 1_555
H19 C15 1_555 1_555
C16 C8 1_555 1_555
H20 C16 1_555 1_555
C17 C9 1_555 1_555
H21 C17 1_555 1_555
C18 C12 1_555 1_555
H22 C18 1_555 1_555
C19 H23 1_555 1_555
C20 C16 1_555 1_555
H24 C20 1_555 1_555
C21 C11 1_555 1_555
H25 C21 1_555 1_555
H26 C21 1_555 1_555
C22 C14 1_555 1_555
H27 C22 1_555 1_555
C23 C17 1_555 1_555
H28 C23 1_555 1_555
C6 C15 1_555 1_555
C18 C23 1_555 1_555
C19 C20 1_555 1_555
C19 C22 1_555 1_555

#END
