
#######################################################################
#
#                 Cambridge Crystallographic Data Centre
#                                CCDC 
#
#######################################################################
#
# If this CIF has been generated from an entry in the Cambridge 
# Structural Database, then it will include bibliographic, chemical, 
# crystal, experimental, refinement or atomic coordinate data resulting 
# from the CCDC's data processing and validation procedures.
#
#######################################################################

data_YEWNIA
_chemical_formula_moiety         'C16 H16 O2'
_chemical_name_systematic        
5-methoxy-2-methyl-2-phenyl-2,3-dihydro-1-benzofuran
_symmetry_cell_setting           monoclinic
_symmetry_space_group_name_H-M   'P 21/n'
_symmetry_Int_Tables_number      14
_space_group_name_Hall           '-P 2yn'
loop_
_symmetry_equiv_pos_site_id
_symmetry_equiv_pos_as_xyz
1 x,y,z
2 1/2-x,1/2+y,1/2-z
3 -x,-y,-z
4 1/2+x,1/2-y,1/2+z
_cell_length_a                   15.027(3)
_cell_length_b                   5.7997(12)
_cell_length_c                   15.870(3)
_cell_angle_alpha                90
_cell_angle_beta                 108.412(3)
_cell_angle_gamma                90
_cell_volume                     1312.3
_exptl_crystal_colour            colorless
_exptl_crystal_description       block
_cell_formula_units_Z            4
loop_
_atom_site_label
_atom_site_type_symbol
_atom_site_fract_x
_atom_site_fract_y
_atom_site_fract_z
O1 O 0.16678(7) 0.3034(2) 0.91207(7)
O2 O 0.50435(7) 0.15367(17) 0.85413(7)
C1 C 0.11751(12) 0.5125(3) 0.88522(14)
H1 H 0.1572 0.6398 0.9120
H2 H 0.0625 0.5137 0.9037
H3 H 0.0994 0.5258 0.8217
C2 C 0.25060(9) 0.2749(3) 0.89488(9)
C3 C 0.29990(10) 0.0757(3) 0.93039(10)
H4 H 0.2748 -0.0254 0.9624
C4 C 0.38538(10) 0.0246(2) 0.91922(9)
H5 H 0.4180 -0.1089 0.9429
C5 C 0.42047(9) 0.1797(2) 0.87149(9)
C6 C 0.37287(10) 0.3784(2) 0.83578(9)
C7 C 0.28662(10) 0.4284(3) 0.84631(9)
H6 H 0.2538 0.5609 0.8216
C8 C 0.42934(10) 0.5027(3) 0.78662(10)
H7 H 0.4355 0.6652 0.8017
H8 H 0.4012 0.4865 0.7229
C9 C 0.52529(10) 0.3782(2) 0.81986(9)
C10 C 0.59277(12) 0.5045(3) 0.89865(11)
H9 H 0.5635 0.5270 0.9437
H10 H 0.6086 0.6515 0.8795
H11 H 0.6487 0.4145 0.9224
C11 C 0.57080(9) 0.3284(3) 0.74914(9)
C12 C 0.56050(12) 0.4791(3) 0.67894(12)
H12 H 0.5242 0.6113 0.6745
C13 C 0.60379(13) 0.4350(4) 0.61513(13)
H13 H 0.5957 0.5366 0.5680
C14 C 0.65847(12) 0.2424(4) 0.62129(13)
H14 H 0.6874 0.2133 0.5785
C15 C 0.67019(13) 0.0931(3) 0.69089(14)
H15 H 0.7073 -0.0376 0.6954
C16 C 0.62701(11) 0.1361(3) 0.75462(12)
H16 H 0.6359 0.0341 0.8018
loop_
_geom_bond_atom_site_label_1
_geom_bond_atom_site_label_2
_geom_bond_site_symmetry_1
_geom_bond_site_symmetry_2
O1 C1 1_555 1_555
O2 C5 1_555 1_555
C1 H1 1_555 1_555
H2 C1 1_555 1_555
H3 C1 1_555 1_555
C2 O1 1_555 1_555
C3 C2 1_555 1_555
H4 C3 1_555 1_555
C4 C3 1_555 1_555
H5 C4 1_555 1_555
C5 C4 1_555 1_555
C6 C5 1_555 1_555
C7 C2 1_555 1_555
H6 C7 1_555 1_555
C8 C6 1_555 1_555
H7 C8 1_555 1_555
H8 C8 1_555 1_555
C9 O2 1_555 1_555
C10 C9 1_555 1_555
H9 C10 1_555 1_555
H10 C10 1_555 1_555
H11 C10 1_555 1_555
C11 C9 1_555 1_555
C12 C11 1_555 1_555
H12 C12 1_555 1_555
C13 C12 1_555 1_555
H13 C13 1_555 1_555
C14 C13 1_555 1_555
H14 C14 1_555 1_555
C15 C14 1_555 1_555
H15 C15 1_555 1_555
C16 C11 1_555 1_555
H16 C16 1_555 1_555
C6 C7 1_555 1_555
C8 C9 1_555 1_555
C15 C16 1_555 1_555

#END
