
#######################################################################
#
#                 Cambridge Crystallographic Data Centre
#                                CCDC 
#
#######################################################################
#
# If this CIF has been generated from an entry in the Cambridge 
# Structural Database, then it will include bibliographic, chemical, 
# crystal, experimental, refinement or atomic coordinate data resulting 
# from the CCDC's data processing and validation procedures.
#
#######################################################################

data_YEWNOE01
_chemical_formula_moiety         'C13 H5 F7'
_chemical_name_systematic        
2,3,5,6-tetrafluoro-4-(trifluoromethyl)biphenyl
_symmetry_cell_setting           orthorhombic
_symmetry_space_group_name_H-M   'P 21 21 21'
_symmetry_Int_Tables_number      19
_space_group_name_Hall           'P 2ac 2ab'
loop_
_symmetry_equiv_pos_site_id
_symmetry_equiv_pos_as_xyz
1 x,y,z
2 1/2-x,-y,1/2+z
3 1/2+x,1/2-y,-z
4 -x,1/2+y,1/2-z
_cell_length_a                   5.92801(16)
_cell_length_b                   7.5738(2)
_cell_length_c                   23.6364(5)
_cell_angle_alpha                90
_cell_angle_beta                 90
_cell_angle_gamma                90
_cell_volume                     1061.22
_exptl_crystal_colour            colorless
_exptl_crystal_description       block
_cell_formula_units_Z            4
loop_
_atom_site_label
_atom_site_type_symbol
_atom_site_fract_x
_atom_site_fract_y
_atom_site_fract_z
F1 F 0.64360(18) 0.18149(15) 0.20656(4)
F2 F 0.60876(19) 0.17281(15) 0.09573(4)
F3 F 1.34765(19) -0.11146(15) 0.19439(4)
F4 F 1.3117(2) -0.12280(16) 0.08424(5)
C1 C 0.8106(3) 0.1031(2) 0.17754(7)
C2 C 1.1626(3) -0.0385(2) 0.17135(8)
C3 C 0.9958(3) 0.0336(2) 0.20579(8)
C4 C 1.2177(3) 0.0930(3) 0.35470(8)
H1 H 1.3471 0.1338 0.3727
C5 C 0.8437(3) -0.0284(2) 0.35968(8)
H2 H 0.7229 -0.0696 0.3810
F5 F 1.0988(3) -0.0390(2) -0.00583(5)
F6 F 0.8769(3) 0.18019(19) 0.00163(5)
C6 C 0.7923(3) 0.1007(2) 0.11927(8)
C7 C 1.2050(3) 0.0938(2) 0.29568(8)
H3 H 1.3263 0.1346 0.2744
C8 C 1.0375(4) 0.0314(3) 0.38646(8)
H4 H 1.0465 0.0302 0.4257
F7 F 0.7472(3) -0.0816(2) 0.00938(6)
C9 C 0.8296(3) -0.0268(2) 0.30075(8)
H5 H 0.6991 -0.0660 0.2829
C10 C 0.9582(3) 0.0263(3) 0.08557(8)
C11 C 1.0112(3) 0.0337(2) 0.26866(7)
C12 C 0.9228(4) 0.0209(3) 0.02227(8)
C13 C 1.1449(3) -0.0438(2) 0.11282(8)
loop_
_geom_bond_atom_site_label_1
_geom_bond_atom_site_label_2
_geom_bond_site_symmetry_1
_geom_bond_site_symmetry_2
F1 C1 1_555 1_555
F2 C6 1_555 1_555
F3 C2 1_555 1_555
F4 C13 1_555 1_555
C1 C3 1_555 1_555
C2 C3 1_555 1_555
C3 C11 1_555 1_555
C4 H1 1_555 1_555
C5 H2 1_555 1_555
F5 C12 1_555 1_555
F6 C12 1_555 1_555
C6 C1 1_555 1_555
C7 C4 1_555 1_555
H3 C7 1_555 1_555
C8 C4 1_555 1_555
H4 C8 1_555 1_555
F7 C12 1_555 1_555
C9 C5 1_555 1_555
H5 C9 1_555 1_555
C10 C6 1_555 1_555
C11 C7 1_555 1_555
C12 C10 1_555 1_555
C13 C2 1_555 1_555
C5 C8 1_555 1_555
C9 C11 1_555 1_555
C10 C13 1_555 1_555

#END
