
#######################################################################
#
#                 Cambridge Crystallographic Data Centre
#                                CCDC 
#
#######################################################################
#
# If this CIF has been generated from an entry in the Cambridge 
# Structural Database, then it will include bibliographic, chemical, 
# crystal, experimental, refinement or atomic coordinate data resulting 
# from the CCDC's data processing and validation procedures.
#
#######################################################################

data_YEWXUW
_chemical_formula_moiety         'C32 H25 N1 O5'
_chemical_name_systematic        
'dimethyl 3,5-bis(biphenyl-4-yl)-2-oxo-2,3-dihydro-1H-pyrrole-3,4-dicarboxylate'
_symmetry_cell_setting           orthorhombic
_symmetry_space_group_name_H-M   'P n a 21'
_symmetry_Int_Tables_number      33
_space_group_name_Hall           'P 2c -2n'
loop_
_symmetry_equiv_pos_site_id
_symmetry_equiv_pos_as_xyz
1 x,y,z
2 -x,-y,1/2+z
3 1/2+x,1/2-y,z
4 1/2-x,1/2+y,1/2+z
_cell_length_a                   27.316(4)
_cell_length_b                   9.1652(12)
_cell_length_c                   10.3964(14)
_cell_angle_alpha                90
_cell_angle_beta                 90
_cell_angle_gamma                90
_cell_volume                     2602.81
_exptl_crystal_colour            yellow
_exptl_crystal_description       block
_chemical_melting_point          '169-171 deg.C'
_cell_formula_units_Z            4
loop_
_atom_site_label
_atom_site_type_symbol
_atom_site_fract_x
_atom_site_fract_y
_atom_site_fract_z
N1 N 0.21725(5) 0.58583(17) 0.23613(15)
H1 H 0.2155 0.6265 0.3106
O1 O 0.12826(6) 0.5515(2) -0.10897(18)
O2 O 0.19607(5) 0.43766(18) -0.17277(14)
O3 O 0.20553(5) 0.24684(14) 0.08288(14)
O4 O 0.27739(5) 0.23058(15) -0.01868(15)
O5 O 0.28528(5) 0.44194(16) 0.26960(13)
C1 C -0.03372(7) 0.8024(3) 0.3394(2)
H2 H -0.0240 0.7136 0.3742
C2 C -0.08078(8) 0.8524(3) 0.3611(3)
H3 H -0.1025 0.7969 0.4094
C3 C -0.09526(8) 0.9840(3) 0.3112(3)
H4 H -0.1270 1.0171 0.3248
C4 C -0.06309(8) 1.0666(3) 0.2414(3)
H5 H -0.0729 1.1566 0.2092
C5 C -0.01575(7) 1.0166(2) 0.2185(2)
H6 H 0.0059 1.0733 0.1708
C6 C -0.00075(7) 0.8830(2) 0.2663(2)
C7 C 0.04861(7) 0.8227(2) 0.23717(19)
C8 C 0.07389(7) 0.7374(2) 0.3262(2)
H7 H 0.0607 0.7237 0.4079
C9 C 0.11804(7) 0.6730(2) 0.2955(2)
H8 H 0.1347 0.6188 0.3572
C10 C 0.13787(6) 0.68883(19) 0.17238(18)
C11 C 0.11390(7) 0.7781(2) 0.0853(2)
H9 H 0.1274 0.7936 0.0043
C12 C 0.07009(7) 0.8446(2) 0.1177(2)
H10 H 0.0548 0.9052 0.0583
C13 C 0.18284(6) 0.60856(19) 0.13825(18)
C14 C 0.19782(6) 0.5396(2) 0.02993(18)
C15 C 0.16948(7) 0.5153(2) -0.0883(2)
C16 C 0.17296(10) 0.4040(3) -0.2953(2)
H11 H 0.1438 0.3480 -0.2805
H12 H 0.1952 0.3486 -0.3476
H13 H 0.1646 0.4931 -0.3386
C17 C 0.24746(6) 0.46740(19) 0.05387(17)
C18 C 0.25362(6) 0.49293(19) 0.20123(18)
C19 C 0.24607(6) 0.3023(2) 0.03246(18)
C20 C 0.20038(9) 0.0885(2) 0.0812(3)
H14 H 0.2035 0.0538 -0.0055
H15 H 0.1688 0.0621 0.1144
H16 H 0.2255 0.0455 0.1336
C21 C 0.29153(6) 0.54405(19) -0.00937(17)
C22 C 0.28566(6) 0.6746(2) -0.07623(17)
H17 H 0.2545 0.7124 -0.0894
C23 C 0.32610(6) 0.7485(2) -0.12314(19)
H18 H 0.3214 0.8357 -0.1672
C24 C 0.37335(6) 0.69654(19) -0.10652(18)
C25 C 0.37871(7) 0.5670(2) -0.0383(2)
H19 H 0.4099 0.5295 -0.0251
C26 C 0.33868(6) 0.4925(2) 0.0103(2)
H20 H 0.3435 0.4069 0.0567
C27 C 0.41645(6) 0.77488(19) -0.15987(19)
C28 C 0.41524(8) 0.8303(2) -0.2845(2)
H21 H 0.3871 0.8191 -0.3339
C29 C 0.45528(9) 0.9019(2) -0.3360(3)
H22 H 0.4538 0.9384 -0.4194
C30 C 0.49720(9) 0.9195(2) -0.2651(3)
H23 H 0.5241 0.9676 -0.3000
C31 C 0.49918(8) 0.8651(2) -0.1411(3)
H24 H 0.5276 0.8765 -0.0927
C32 C 0.45919(7) 0.7938(2) -0.0886(2)
H25 H 0.4609 0.7582 -0.0050
loop_
_geom_bond_atom_site_label_1
_geom_bond_atom_site_label_2
_geom_bond_site_symmetry_1
_geom_bond_site_symmetry_2
N1 H1 1_555 1_555
O1 C15 1_555 1_555
O2 C15 1_555 1_555
O3 C19 1_555 1_555
O4 C19 1_555 1_555
O5 C18 1_555 1_555
C1 H2 1_555 1_555
C2 C1 1_555 1_555
H3 C2 1_555 1_555
C3 C2 1_555 1_555
H4 C3 1_555 1_555
C4 C3 1_555 1_555
H5 C4 1_555 1_555
C5 C4 1_555 1_555
H6 C5 1_555 1_555
C6 C1 1_555 1_555
C7 C6 1_555 1_555
C8 C7 1_555 1_555
H7 C8 1_555 1_555
C9 C8 1_555 1_555
H8 C9 1_555 1_555
C10 C9 1_555 1_555
C11 C10 1_555 1_555
H9 C11 1_555 1_555
C12 C7 1_555 1_555
H10 C12 1_555 1_555
C13 N1 1_555 1_555
C14 C13 1_555 1_555
C15 C14 1_555 1_555
C16 O2 1_555 1_555
H11 C16 1_555 1_555
H12 C16 1_555 1_555
H13 C16 1_555 1_555
C17 C14 1_555 1_555
C18 N1 1_555 1_555
C19 C17 1_555 1_555
C20 O3 1_555 1_555
H14 C20 1_555 1_555
H15 C20 1_555 1_555
H16 C20 1_555 1_555
C21 C17 1_555 1_555
C22 C21 1_555 1_555
H17 C22 1_555 1_555
C23 C22 1_555 1_555
H18 C23 1_555 1_555
C24 C23 1_555 1_555
C25 C24 1_555 1_555
H19 C25 1_555 1_555
C26 C21 1_555 1_555
H20 C26 1_555 1_555
C27 C24 1_555 1_555
C28 C27 1_555 1_555
H21 C28 1_555 1_555
C29 C28 1_555 1_555
H22 C29 1_555 1_555
C30 C29 1_555 1_555
H23 C30 1_555 1_555
C31 C30 1_555 1_555
H24 C31 1_555 1_555
C32 C27 1_555 1_555
H25 C32 1_555 1_555
C5 C6 1_555 1_555
C10 C13 1_555 1_555
C11 C12 1_555 1_555
C17 C18 1_555 1_555
C25 C26 1_555 1_555
C31 C32 1_555 1_555

#END
