
#######################################################################
#
#                 Cambridge Crystallographic Data Centre
#                                CCDC 
#
#######################################################################
#
# If this CIF has been generated from an entry in the Cambridge 
# Structural Database, then it will include bibliographic, chemical, 
# crystal, experimental, refinement or atomic coordinate data resulting 
# from the CCDC's data processing and validation procedures.
#
#######################################################################

data_YEXBOT
_chemical_formula_moiety         'C35 H22 O6 P2 S2'
_chemical_name_systematic        
"10,10'-Methanediylbis(2-phenyl-4H-naphtho(2,3-d)(1,3,2)dioxaphosphinin-4-one) 2,2'-disulfide"
_symmetry_cell_setting           monoclinic
_symmetry_space_group_name_H-M   'P 21/n'
_symmetry_Int_Tables_number      14
_space_group_name_Hall           '-P 2yn'
loop_
_symmetry_equiv_pos_site_id
_symmetry_equiv_pos_as_xyz
1 x,y,z
2 1/2-x,1/2+y,1/2-z
3 -x,-y,-z
4 1/2+x,1/2-y,1/2+z
_cell_length_a                   14.2887(3)
_cell_length_b                   11.2206(3)
_cell_length_c                   20.2850(3)
_cell_angle_alpha                90
_cell_angle_beta                 106.077(2)
_cell_angle_gamma                90
_cell_volume                     3125.05
_exptl_crystal_colour            colorless
_exptl_crystal_description       prism
_cell_formula_units_Z            4
_exptl_crystal_recrystallization_method '40-60 petroleum ether/diethyl ether'
loop_
_atom_site_label
_atom_site_type_symbol
_atom_site_fract_x
_atom_site_fract_y
_atom_site_fract_z
C1 C 0.6699(3) 0.0509(3) -0.15813(19)
C2 C 0.6930(3) 0.0819(3) -0.2168(2)
O1 O 0.79088(17) 0.0763(2) -0.21522(11)
P1 P 0.82074(8) 0.05356(11) -0.28474(6)
S1 S 0.80828(9) -0.10573(12) -0.31758(7)
C3 C 0.6249(3) 0.1246(3) -0.2758(2)
C4 C 0.5300(3) 0.1351(4) -0.2762(2)
H1 H 0.4847 0.1644 -0.3150
C5 C 0.5001(3) 0.1021(4) -0.2186(2)
C6 C 0.4001(3) 0.1108(4) -0.2196(3)
H2 H 0.3547 0.1394 -0.2586
C7 C 0.3710(3) 0.0782(5) -0.1647(3)
H3 H 0.3056 0.0831 -0.1660
C8 C 0.4395(3) 0.0366(4) -0.1054(2)
H4 H 0.4188 0.0156 -0.0673
C9 C 0.5358(3) 0.0264(4) -0.1024(2)
H5 H 0.5795 -0.0026 -0.0627
C10 C 0.5698(3) 0.0593(3) -0.1588(2)
C11 C 0.6544(3) 0.1671(4) -0.3359(2)
O2 O 0.6043(2) 0.2194(3) -0.38411(15)
O3 O 0.7509(2) 0.1481(2) -0.33525(12)
C12 C 0.7505(2) 0.0106(3) -0.09651(17)
H6 H 0.7836 -0.0572 -0.1095
H7 H 0.7220 -0.0154 -0.0608
C13 C 0.8246(2) 0.1080(3) -0.06812(16)
C14 C 0.7970(2) 0.2056(4) -0.03862(18)
O4 O 0.70150(15) 0.2074(2) -0.03321(11)
P2 P 0.68453(7) 0.27651(10) 0.03191(6)
S2 S 0.73910(8) 0.20395(12) 0.11870(6)
C15 C 0.8572(3) 0.3049(4) -0.01584(18)
C16 C 0.9506(3) 0.3016(3) -0.02151(17)
H8 H 0.9909 0.3675 -0.0079
C17 C 0.9868(3) 0.2014(4) -0.04737(17)
C18 C 1.0848(3) 0.1952(4) -0.04928(18)
H9 H 1.1262 0.2593 -0.0335
C19 C 1.1191(3) 0.0974(5) -0.0738(2)
H10 H 1.1835 0.0949 -0.0752
C20 C 1.0579(3) 0.0000(4) -0.09689(19)
H11 H 1.0824 -0.0673 -0.1130
C21 C 0.9636(3) 0.0023(4) -0.09615(17)
H12 H 0.9243 -0.0636 -0.1122
C22 C 0.9231(3) 0.1027(4) -0.07148(17)
C23 C 0.8244(3) 0.4125(4) 0.0119(2)
O5 O 0.8652(2) 0.5038(3) 0.02513(19)
O6 O 0.73293(18) 0.4041(2) 0.02390(15)
C24 C 0.9350(3) 0.1229(5) -0.2675(2)
C25 C 1.0137(4) 0.0666(5) -0.2804(2)
H13 H 1.0069 -0.0106 -0.2977
C26 C 1.1020(5) 0.1231(9) -0.2681(3)
H14 H 1.1538 0.0842 -0.2783
C27 C 1.1153(5) 0.2348(8) -0.2413(3)
H15 H 1.1756 0.2718 -0.2331
C28 C 1.0386(5) 0.2928(5) -0.2265(3)
H16 H 1.0473 0.3687 -0.2074
C29 C 0.9477(4) 0.2373(5) -0.2403(3)
H17 H 0.8955 0.2771 -0.2313
C30 C 0.5581(3) 0.3029(4) 0.0068(2)
C31 C 0.5011(3) 0.2766(4) 0.0497(2)
H18 H 0.5299 0.2460 0.0932
C32 C 0.4015(4) 0.2949(5) 0.0288(3)
H19 H 0.3637 0.2758 0.0580
C33 C 0.3594(3) 0.3407(4) -0.0339(4)
H20 H 0.2925 0.3536 -0.0475
C34 C 0.4129(4) 0.3683(4) -0.0775(3)
H21 H 0.3831 0.3992 -0.1208
C35 C 0.5135(3) 0.3497(4) -0.0565(3)
H22 H 0.5508 0.3693 -0.0859
loop_
_geom_bond_atom_site_label_1
_geom_bond_atom_site_label_2
_geom_bond_site_symmetry_1
_geom_bond_site_symmetry_2
C1 C2 1_555 1_555
C2 O1 1_555 1_555
O1 P1 1_555 1_555
P1 S1 1_555 1_555
C3 C2 1_555 1_555
C4 C3 1_555 1_555
H1 C4 1_555 1_555
C5 C4 1_555 1_555
C6 C5 1_555 1_555
H2 C6 1_555 1_555
C7 C6 1_555 1_555
H3 C7 1_555 1_555
C8 C7 1_555 1_555
H4 C8 1_555 1_555
C9 C8 1_555 1_555
H5 C9 1_555 1_555
C10 C1 1_555 1_555
C11 C3 1_555 1_555
O2 C11 1_555 1_555
O3 P1 1_555 1_555
C12 C1 1_555 1_555
H6 C12 1_555 1_555
H7 C12 1_555 1_555
C13 C12 1_555 1_555
C14 C13 1_555 1_555
O4 C14 1_555 1_555
P2 O4 1_555 1_555
S2 P2 1_555 1_555
C15 C14 1_555 1_555
C16 C15 1_555 1_555
H8 C16 1_555 1_555
C17 C16 1_555 1_555
C18 C17 1_555 1_555
H9 C18 1_555 1_555
C19 C18 1_555 1_555
H10 C19 1_555 1_555
C20 C19 1_555 1_555
H11 C20 1_555 1_555
C21 C20 1_555 1_555
H12 C21 1_555 1_555
C22 C13 1_555 1_555
C23 C15 1_555 1_555
O5 C23 1_555 1_555
O6 P2 1_555 1_555
C24 P1 1_555 1_555
C25 C24 1_555 1_555
H13 C25 1_555 1_555
C26 C25 1_555 1_555
H14 C26 1_555 1_555
C27 C26 1_555 1_555
H15 C27 1_555 1_555
C28 C27 1_555 1_555
H16 C28 1_555 1_555
C29 C24 1_555 1_555
H17 C29 1_555 1_555
C30 P2 1_555 1_555
C31 C30 1_555 1_555
H18 C31 1_555 1_555
C32 C31 1_555 1_555
H19 C32 1_555 1_555
C33 C32 1_555 1_555
H20 C33 1_555 1_555
C34 C33 1_555 1_555
H21 C34 1_555 1_555
C35 C30 1_555 1_555
H22 C35 1_555 1_555
C5 C10 1_555 1_555
C9 C10 1_555 1_555
C11 O3 1_555 1_555
C17 C22 1_555 1_555
C21 C22 1_555 1_555
C23 O6 1_555 1_555
C28 C29 1_555 1_555
C34 C35 1_555 1_555

#END
