
#######################################################################
#
#                 Cambridge Crystallographic Data Centre
#                                CCDC 
#
#######################################################################
#
# If this CIF has been generated from an entry in the Cambridge 
# Structural Database, then it will include bibliographic, chemical, 
# crystal, experimental, refinement or atomic coordinate data resulting 
# from the CCDC's data processing and validation procedures.
#
#######################################################################

data_YEXBIN
_chemical_formula_moiety         'C35 H22 O8 P2'
_chemical_name_systematic        
"10,10'-Methanediylbis(2-phenyl-4H-naphtho(2,3-d)(1,3,2)dioxaphosphinin-4-one) 2,2'-dioxide"
_symmetry_cell_setting           triclinic
_symmetry_space_group_name_H-M   'P -1'
_symmetry_Int_Tables_number      2
_space_group_name_Hall           '-P 1'
loop_
_symmetry_equiv_pos_site_id
_symmetry_equiv_pos_as_xyz
1 x,y,z
2 -x,-y,-z
_cell_length_a                   10.323(4)
_cell_length_b                   10.976(6)
_cell_length_c                   13.533(6)
_cell_angle_alpha                81.02(4)
_cell_angle_beta                 72.98(5)
_cell_angle_gamma                88.12(4)
_cell_volume                     1448.1
_exptl_crystal_colour            colorless
_exptl_crystal_description       Prism
_cell_formula_units_Z            2
_exptl_crystal_recrystallization_method 'deuterochloroform/petroleum ether'
loop_
_atom_site_label
_atom_site_type_symbol
_atom_site_fract_x
_atom_site_fract_y
_atom_site_fract_z
C1 C 0.7474(4) 0.1249(4) 1.0605(3)
O1 O 0.6656(3) 0.1999(3) 1.2216(2)
C2 C 0.7683(4) 0.1965(4) 1.1277(3)
C3 C 0.8857(5) 0.2728(4) 1.1062(4)
C4 C 0.9875(5) 0.2678(5) 1.0152(4)
H1 H 1.0642 0.3178 0.9987
C5 C 0.9764(5) 0.1869(5) 0.9465(4)
C6 C 1.0864(6) 0.1739(6) 0.8560(4)
H2 H 1.1657 0.2194 0.8424
C7 C 1.0770(6) 0.0967(6) 0.7901(4)
H3 H 1.1495 0.0884 0.7317
C8 C 0.9568(6) 0.0290(6) 0.8104(4)
H4 H 0.9504 -0.0236 0.7644
C9 C 0.8493(5) 0.0379(5) 0.8957(4)
H5 H 0.7711 -0.0083 0.9064
C10 C 0.8544(5) 0.1163(4) 0.9684(3)
C11 C 0.8973(5) 0.3603(5) 1.1761(4)
O2 O 0.9779(4) 0.4418(4) 1.1547(4)
O3 O 0.8041(4) 0.3419(4) 1.2744(3)
P1 P 0.70840(14) 0.22118(14) 1.32115(9)
O4 O 0.7756(5) 0.1202(5) 1.3665(3)
C12 C 0.6109(4) 0.0576(4) 1.0881(3)
H6 H 0.6106 0.0115 1.0326
H7 H 0.5994 -0.0007 1.1518
C13 C 0.4933(4) 0.1465(4) 1.1031(3)
O5 O 0.5884(3) 0.2312(3) 0.9266(2)
C14 C 0.4886(5) 0.2344(5) 1.0206(4)
C15 C 0.3897(5) 0.3290(5) 1.0290(4)
C16 C 0.2897(5) 0.3289(5) 1.1213(5)
H8 H 0.2246 0.3901 1.1271
C17 C 0.2844(5) 0.2370(5) 1.2075(4)
C18 C 0.1795(6) 0.2337(6) 1.3028(4)
H9 H 0.1127 0.2933 1.3079
C19 C 0.1739(6) 0.1470(6) 1.3861(4)
H10 H 0.1047 0.1472 1.4481
C20 C 0.2735(6) 0.0561(6) 1.3783(4)
H11 H 0.2690 -0.0042 1.4357
C21 C 0.3763(5) 0.0538(5) 1.2893(4)
H12 H 0.4404 -0.0081 1.2867
C22 C 0.3875(5) 0.1447(5) 1.1996(3)
C23 C 0.3986(6) 0.4310(5) 0.9423(5)
O6 O 0.3295(5) 0.5220(5) 0.9473(4)
O7 O 0.4958(4) 0.4213(4) 0.8489(3)
P2 P 0.55559(14) 0.28967(13) 0.82132(10)
O8 O 0.4616(4) 0.2196(4) 0.7894(3)
C24 C 0.5581(6) 0.2718(6) 1.4055(4)
C25 C 0.4979(10) 0.3794(9) 1.3785(6)
H13 H 0.5342 0.4283 1.3140
C26 C 0.3804(13) 0.4143(14) 1.4501(9)
H14 H 0.3345 0.4845 1.4317
C27 C 0.3339(10) 0.3481(16) 1.5442(8)
H15 H 0.2611 0.3774 1.5931
C28 C 0.3900(8) 0.2373(12) 1.5715(5)
H16 H 0.3522 0.1889 1.6359
C29 C 0.5039(7) 0.2000(8) 1.5006(5)
H17 H 0.5442 0.1257 1.5174
C30 C 0.7174(6) 0.3188(5) 0.7300(4)
C31 C 0.8219(6) 0.3733(5) 0.7529(4)
H18 H 0.8088 0.3954 0.8187
C32 C 0.9449(6) 0.3948(6) 0.6781(5)
H19 H 1.0148 0.4336 0.6921
C33 C 0.9639(7) 0.3582(6) 0.5817(5)
H20 H 1.0474 0.3732 0.5313
C34 C 0.8649(8) 0.3011(7) 0.5583(5)
H21 H 0.8806 0.2750 0.4936
C35 C 0.7397(7) 0.2824(6) 0.6325(4)
H22 H 0.6699 0.2451 0.6170
loop_
_geom_bond_atom_site_label_1
_geom_bond_atom_site_label_2
_geom_bond_site_symmetry_1
_geom_bond_site_symmetry_2
C1 C2 1_555 1_555
O1 C2 1_555 1_555
C2 C3 1_555 1_555
C3 C4 1_555 1_555
C4 H1 1_555 1_555
C5 C4 1_555 1_555
C6 C5 1_555 1_555
H2 C6 1_555 1_555
C7 C6 1_555 1_555
H3 C7 1_555 1_555
C8 C7 1_555 1_555
H4 C8 1_555 1_555
C9 C8 1_555 1_555
H5 C9 1_555 1_555
C10 C1 1_555 1_555
C11 C3 1_555 1_555
O2 C11 1_555 1_555
O3 C11 1_555 1_555
P1 O1 1_555 1_555
O4 P1 1_555 1_555
C12 C1 1_555 1_555
H6 C12 1_555 1_555
H7 C12 1_555 1_555
C13 C12 1_555 1_555
O5 C14 1_555 1_555
C14 C13 1_555 1_555
C15 C14 1_555 1_555
C16 C15 1_555 1_555
H8 C16 1_555 1_555
C17 C16 1_555 1_555
C18 C17 1_555 1_555
H9 C18 1_555 1_555
C19 C18 1_555 1_555
H10 C19 1_555 1_555
C20 C19 1_555 1_555
H11 C20 1_555 1_555
C21 C20 1_555 1_555
H12 C21 1_555 1_555
C22 C13 1_555 1_555
C23 C15 1_555 1_555
O6 C23 1_555 1_555
O7 C23 1_555 1_555
P2 O5 1_555 1_555
O8 P2 1_555 1_555
C24 P1 1_555 1_555
C25 C24 1_555 1_555
H13 C25 1_555 1_555
C26 C25 1_555 1_555
H14 C26 1_555 1_555
C27 C26 1_555 1_555
H15 C27 1_555 1_555
C28 C27 1_555 1_555
H16 C28 1_555 1_555
C29 C24 1_555 1_555
H17 C29 1_555 1_555
C30 P2 1_555 1_555
C31 C30 1_555 1_555
H18 C31 1_555 1_555
C32 C31 1_555 1_555
H19 C32 1_555 1_555
C33 C32 1_555 1_555
H20 C33 1_555 1_555
C34 C33 1_555 1_555
H21 C34 1_555 1_555
C35 C30 1_555 1_555
H22 C35 1_555 1_555
C5 C10 1_555 1_555
C9 C10 1_555 1_555
O3 P1 1_555 1_555
C17 C22 1_555 1_555
C21 C22 1_555 1_555
O7 P2 1_555 1_555
C28 C29 1_555 1_555
C34 C35 1_555 1_555

#END
