
#######################################################################
#
#                 Cambridge Crystallographic Data Centre
#                                CCDC 
#
#######################################################################
#
# If this CIF has been generated from an entry in the Cambridge 
# Structural Database, then it will include bibliographic, chemical, 
# crystal, experimental, refinement or atomic coordinate data resulting 
# from the CCDC's data processing and validation procedures.
#
#######################################################################

data_YEXGUG
_chemical_formula_moiety         'C23 H18 N2 O3'
_chemical_name_systematic        
"ethyl 5-amino-4-(benzenecarbonyl)-6-cyano[1,1'-biphenyl]-2-carboxylate"
_symmetry_cell_setting           monoclinic
_symmetry_space_group_name_H-M   'P 21/c'
_symmetry_Int_Tables_number      14
_space_group_name_Hall           '-P 2ybc'
loop_
_symmetry_equiv_pos_site_id
_symmetry_equiv_pos_as_xyz
1 x,y,z
2 -x,1/2+y,1/2-z
3 -x,-y,-z
4 x,1/2-y,1/2+z
_cell_length_a                   18.6762(5)
_cell_length_b                   6.98377(19)
_cell_length_c                   14.4865(4)
_cell_angle_alpha                90
_cell_angle_beta                 98.651(2)
_cell_angle_gamma                90
_cell_volume                     1867.98
_exptl_crystal_colour            colorless
_exptl_crystal_description       plate
_cell_formula_units_Z            4
loop_
_atom_site_label
_atom_site_type_symbol
_atom_site_fract_x
_atom_site_fract_y
_atom_site_fract_z
O1 O 0.72235(7) 0.6326(2) 0.33420(9)
O2 O 0.81436(8) 0.7061(2) 0.44415(10)
O3 O 0.58650(9) -0.1000(3) 0.48517(11)
N1 N 0.68771(9) -0.0218(3) 0.62873(11)
H1 H 0.6515(14) -0.091(4) 0.6065(17)
N2 N 0.83004(10) 0.1831(3) 0.77573(11)
C1 C 0.78757(8) 0.3938(2) 0.55593(11)
C2 C 0.76585(8) 0.2420(3) 0.60766(11)
C3 C 0.58226(9) 0.0400(2) 0.33726(12)
C4 C 0.85310(8) 0.5040(2) 0.59833(10)
C5 C 0.74748(9) 0.4320(3) 0.46746(11)
C6 C 0.69142(9) 0.3073(3) 0.43329(11)
H2 H 0.6656 0.3319 0.3744
C7 C 0.70716(8) 0.1177(2) 0.57459(11)
C8 C 0.67167(8) 0.1494(3) 0.48127(11)
C9 C 0.80278(9) 0.2108(3) 0.70121(11)
C10 C 0.92111(10) 0.4436(3) 0.58440(13)
H3 H 0.9259 0.3362 0.5479
C11 C 0.61244(10) 0.0204(3) 0.43830(13)
C12 C 0.50764(10) 0.0534(3) 0.31355(15)
H4 H 0.4785 0.0540 0.3603
C13 C 0.75922(9) 0.5985(3) 0.40791(11)
C14 C 0.82881(11) 0.8826(3) 0.39873(14)
H5 H 0.7934 0.9789 0.4090
H6 H 0.8259 0.8624 0.3320
C15 C 0.84692(10) 0.6635(3) 0.65272(13)
H7 H 0.8014 0.7058 0.6625
C16 C 0.62526(11) 0.0343(3) 0.26714(13)
H8 H 0.6754 0.0263 0.2822
C17 C 0.97597(11) 0.7001(3) 0.67875(13)
H9 H 1.0171 0.7660 0.7059
C18 C 0.98235(10) 0.5431(3) 0.62486(14)
H10 H 1.0280 0.5021 0.6151
C19 C 0.47641(12) 0.0659(3) 0.22156(17)
H11 H 0.4265 0.0790 0.2063
C20 C 0.59323(14) 0.0404(3) 0.17450(15)
H12 H 0.6217 0.0322 0.1272
C21 C 0.90839(12) 0.7607(3) 0.69270(15)
H13 H 0.9039 0.8681 0.7294
C22 C 0.51889(14) 0.0589(3) 0.15251(15)
H14 H 0.4976 0.0666 0.0903
C23 C 0.90201(15) 0.9469(4) 0.4384(2)
H15 H 0.9113 1.0696 0.4129
H16 H 0.9370 0.8560 0.4232
H17 H 0.9055 0.9570 0.5050
H18 H 0.7065(12) -0.032(3) 0.6878(17)
loop_
_geom_bond_atom_site_label_1
_geom_bond_atom_site_label_2
_geom_bond_site_symmetry_1
_geom_bond_site_symmetry_2
O1 C13 1_555 1_555
O2 C13 1_555 1_555
O3 C11 1_555 1_555
N1 H1 1_555 1_555
N2 C9 1_555 1_555
C1 C2 1_555 1_555
C2 C7 1_555 1_555
C3 C11 1_555 1_555
C4 C1 1_555 1_555
C5 C1 1_555 1_555
C6 C5 1_555 1_555
H2 C6 1_555 1_555
C7 N1 1_555 1_555
C8 C6 1_555 1_555
C9 C2 1_555 1_555
C10 C4 1_555 1_555
H3 C10 1_555 1_555
C11 C8 1_555 1_555
C12 C3 1_555 1_555
H4 C12 1_555 1_555
C13 C5 1_555 1_555
C14 O2 1_555 1_555
H5 C14 1_555 1_555
H6 C14 1_555 1_555
C15 C4 1_555 1_555
H7 C15 1_555 1_555
C16 C3 1_555 1_555
H8 C16 1_555 1_555
C17 H9 1_555 1_555
C18 C10 1_555 1_555
H10 C18 1_555 1_555
C19 C12 1_555 1_555
H11 C19 1_555 1_555
C20 C16 1_555 1_555
H12 C20 1_555 1_555
C21 C15 1_555 1_555
H13 C21 1_555 1_555
C22 C19 1_555 1_555
H14 C22 1_555 1_555
C23 C14 1_555 1_555
H15 C23 1_555 1_555
H16 C23 1_555 1_555
H17 C23 1_555 1_555
H18 N1 1_555 1_555
C7 C8 1_555 1_555
C17 C18 1_555 1_555
C17 C21 1_555 1_555
C20 C22 1_555 1_555

#END
