
#######################################################################
#
#                 Cambridge Crystallographic Data Centre
#                                CCDC 
#
#######################################################################
#
# If this CIF has been generated from an entry in the Cambridge 
# Structural Database, then it will include bibliographic, chemical, 
# crystal, experimental, refinement or atomic coordinate data resulting 
# from the CCDC's data processing and validation procedures.
#
#######################################################################

data_YEYDIR
_chemical_formula_moiety         'C46 H47 B1 F6 N2'
_chemical_name_systematic        
'1,3-bis(2,6-diisopropylphenyl)-2-phenyl-4,5-bis(4-(trifluoromethyl)phenyl)-2,3-dihydro-1H-1,3,2-diazaborole unknown solvate'
_symmetry_cell_setting           monoclinic
_symmetry_space_group_name_H-M   'C 2/c'
_symmetry_Int_Tables_number      15
_space_group_name_Hall           '-C 2yn'
loop_
_symmetry_equiv_pos_site_id
_symmetry_equiv_pos_as_xyz
1 x,y,z
2 -x,y,1/2-z
3 1/2+x,1/2+y,z
4 1/2-x,1/2+y,1/2-z
5 -x,-y,-z
6 x,-y,1/2+z
7 1/2-x,1/2-y,-z
8 1/2+x,1/2-y,1/2+z
_cell_length_a                   40.650(11)
_cell_length_b                   10.558(3)
_cell_length_c                   22.039(6)
_cell_angle_alpha                90
_cell_angle_beta                 111.716(5)
_cell_angle_gamma                90
_cell_volume                     8787.46
_exptl_crystal_colour            colorless
_exptl_crystal_description       Prism
_cell_formula_units_Z            8
loop_
_atom_site_label
_atom_site_type_symbol
_atom_site_fract_x
_atom_site_fract_y
_atom_site_fract_z
B1 B 0.39227(4) 0.66564(15) 0.33414(8)
N1 N 0.37828(3) 0.62465(11) 0.26720(6)
N2 N 0.36176(3) 0.67797(10) 0.35175(5)
F1 F 0.25512(3) 0.37445(10) -0.03611(5)
F2 F 0.23525(3) 0.56392(10) -0.05291(5)
F3 F 0.21328(3) 0.43038(12) -0.00515(5)
F4 F 0.16924(3) 0.70428(14) 0.24620(5)
F5 F 0.17314(3) 0.50703(12) 0.27154(7)
F6 F 0.18427(2) 0.64919(10) 0.34600(5)
C1 C 0.34112(3) 0.61387(12) 0.24657(7)
C2 C 0.33147(3) 0.64380(12) 0.29776(7)
C3 C 0.39814(3) 0.59880(13) 0.22630(7)
C4 C 0.41821(3) 0.48666(13) 0.23691(7)
C5 C 0.43972(4) 0.46961(14) 0.20087(8)
H1 H 0.4537 0.3952 0.2074
C6 C 0.44115(4) 0.55849(15) 0.15574(9)
H2 H 0.4562 0.5453 0.1320
C7 C 0.42056(4) 0.66687(15) 0.14540(8)
H3 H 0.4216 0.7274 0.1142
C8 C 0.39845(4) 0.68889(13) 0.17973(7)
C9 C 0.41753(4) 0.38564(14) 0.28536(8)
H4 H 0.3989 0.4094 0.3029
C10 C 0.45300(5) 0.37621(17) 0.34314(9)
H5 H 0.4717 0.3536 0.3271
H6 H 0.4514 0.3110 0.3736
H7 H 0.4586 0.4580 0.3657
C11 C 0.40794(4) 0.25547(15) 0.25264(8)
H8 H 0.3853 0.2612 0.2155
H9 H 0.4058 0.1939 0.2843
H10 H 0.4265 0.2281 0.2372
C12 C 0.37649(4) 0.81013(13) 0.16741(8)
H11 H 0.3604 0.8039 0.1924
C13 C 0.39977(6) 0.92624(18) 0.19195(15)
H12 H 0.4115 0.9217 0.2396
H13 H 0.3851 1.0028 0.1800
H14 H 0.4177 0.9291 0.1721
C14 C 0.35340(6) 0.8258(2) 0.09522(9)
H15 H 0.3380 0.8998 0.0897
H16 H 0.3389 0.7498 0.0797
H17 H 0.3686 0.8379 0.0699
C15 C 0.31767(3) 0.57949(13) 0.17968(7)
C16 C 0.32360(3) 0.47187(13) 0.14828(7)
H18 H 0.3442 0.4222 0.1693
C17 C 0.29999(4) 0.43616(14) 0.08700(7)
H19 H 0.3043 0.3622 0.0665
C18 C 0.27006(4) 0.50918(14) 0.05590(7)
C19 C 0.26399(4) 0.61808(14) 0.08554(7)
H20 H 0.2436 0.6684 0.0639
C20 C 0.28771(4) 0.65326(14) 0.14675(7)
H21 H 0.2836 0.7283 0.1666
C21 C 0.24364(4) 0.46919(15) -0.00918(8)
C22 C 0.29563(3) 0.63528(12) 0.29960(6)
C23 C 0.27435(4) 0.53107(13) 0.27223(7)
H22 H 0.2836 0.4638 0.2547
C24 C 0.23988(4) 0.52354(14) 0.27000(8)
H23 H 0.2255 0.4525 0.2504
C25 C 0.22652(4) 0.62075(14) 0.29662(7)
C26 C 0.24768(4) 0.72316(13) 0.32644(7)
H24 H 0.2387 0.7882 0.3457
C27 C 0.28197(3) 0.73032(12) 0.32804(7)
H25 H 0.2964 0.8005 0.3487
C28 C 0.18872(4) 0.61818(17) 0.29074(8)
C29 C 0.36219(3) 0.69763(12) 0.41686(7)
C30 C 0.36074(4) 0.59193(13) 0.45440(7)
C31 C 0.36586(4) 0.61214(15) 0.51978(7)
H26 H 0.3655 0.5420 0.5466
C32 C 0.37143(4) 0.73255(16) 0.54626(8)
H27 H 0.3755 0.7442 0.5912
C33 C 0.37117(4) 0.83578(15) 0.50785(8)
H28 H 0.3743 0.9183 0.5263
C34 C 0.36644(4) 0.82110(13) 0.44218(7)
C35 C 0.35458(4) 0.45886(13) 0.42632(8)
H29 H 0.3493 0.4657 0.3784
C36 C 0.38770(4) 0.37592(15) 0.45597(9)
H30 H 0.4073 0.4132 0.4462
H31 H 0.3827 0.2906 0.4372
H32 H 0.3942 0.3710 0.5034
C37 C 0.32235(5) 0.39731(16) 0.43508(10)
H33 H 0.3273 0.3849 0.4817
H34 H 0.3175 0.3152 0.4127
H35 H 0.3017 0.4526 0.4164
C38 C 0.36561(5) 0.93654(14) 0.40026(8)
H36 H 0.3580 0.9077 0.3539
C39 C 0.33876(5) 1.03568(15) 0.40409(9)
H37 H 0.3155 0.9959 0.3928
H38 H 0.3372 1.1046 0.3734
H39 H 0.3465 1.0697 0.4486
C40 C 0.40233(6) 0.99688(17) 0.41899(12)
H40 H 0.4106 1.0254 0.4645
H41 H 0.4009 1.0695 0.3905
H42 H 0.4190 0.9343 0.4140
C41 C 0.43226(4) 0.68579(13) 0.37847(7)
C42 C 0.45704(4) 0.72506(16) 0.35210(8)
H43 H 0.4493 0.7451 0.3069
C43 C 0.49281(4) 0.73545(19) 0.39060(10)
H44 H 0.5092 0.7626 0.3717
C44 C 0.50465(4) 0.7063(2) 0.45646(10)
H45 H 0.5291 0.7127 0.4827
C45 C 0.48081(4) 0.66806(19) 0.48375(9)
H46 H 0.4889 0.6477 0.5289
C46 C 0.44508(4) 0.65922(15) 0.44552(8)
H47 H 0.4289 0.6345 0.4653
loop_
_geom_bond_atom_site_label_1
_geom_bond_atom_site_label_2
_geom_bond_site_symmetry_1
_geom_bond_site_symmetry_2
B1 N1 1_555 1_555
N1 C1 1_555 1_555
N2 B1 1_555 1_555
F1 C21 1_555 1_555
F2 C21 1_555 1_555
F3 C21 1_555 1_555
F4 C28 1_555 1_555
F5 C28 1_555 1_555
F6 C28 1_555 1_555
C1 C2 1_555 1_555
C2 N2 1_555 1_555
C3 N1 1_555 1_555
C4 C3 1_555 1_555
C5 C4 1_555 1_555
H1 C5 1_555 1_555
C6 C5 1_555 1_555
H2 C6 1_555 1_555
C7 C6 1_555 1_555
H3 C7 1_555 1_555
C8 C3 1_555 1_555
C9 C4 1_555 1_555
H4 C9 1_555 1_555
C10 C9 1_555 1_555
H5 C10 1_555 1_555
H6 C10 1_555 1_555
H7 C10 1_555 1_555
C11 C9 1_555 1_555
H8 C11 1_555 1_555
H9 C11 1_555 1_555
H10 C11 1_555 1_555
C12 C8 1_555 1_555
H11 C12 1_555 1_555
C13 C12 1_555 1_555
H12 C13 1_555 1_555
H13 C13 1_555 1_555
H14 C13 1_555 1_555
C14 C12 1_555 1_555
H15 C14 1_555 1_555
H16 C14 1_555 1_555
H17 C14 1_555 1_555
C15 C1 1_555 1_555
C16 C15 1_555 1_555
H18 C16 1_555 1_555
C17 C16 1_555 1_555
H19 C17 1_555 1_555
C18 C17 1_555 1_555
C19 C18 1_555 1_555
H20 C19 1_555 1_555
C20 C15 1_555 1_555
H21 C20 1_555 1_555
C21 C18 1_555 1_555
C22 C2 1_555 1_555
C23 C22 1_555 1_555
H22 C23 1_555 1_555
C24 C23 1_555 1_555
H23 C24 1_555 1_555
C25 C24 1_555 1_555
C26 C25 1_555 1_555
H24 C26 1_555 1_555
C27 C22 1_555 1_555
H25 C27 1_555 1_555
C28 C25 1_555 1_555
C29 N2 1_555 1_555
C30 C29 1_555 1_555
C31 C30 1_555 1_555
H26 C31 1_555 1_555
C32 C31 1_555 1_555
H27 C32 1_555 1_555
C33 C32 1_555 1_555
H28 C33 1_555 1_555
C34 C29 1_555 1_555
C35 C30 1_555 1_555
H29 C35 1_555 1_555
C36 C35 1_555 1_555
H30 C36 1_555 1_555
H31 C36 1_555 1_555
H32 C36 1_555 1_555
C37 C35 1_555 1_555
H33 C37 1_555 1_555
H34 C37 1_555 1_555
H35 C37 1_555 1_555
C38 C34 1_555 1_555
H36 C38 1_555 1_555
C39 C38 1_555 1_555
H37 C39 1_555 1_555
H38 C39 1_555 1_555
H39 C39 1_555 1_555
C40 C38 1_555 1_555
H40 C40 1_555 1_555
H41 C40 1_555 1_555
H42 C40 1_555 1_555
C41 B1 1_555 1_555
C42 C41 1_555 1_555
H43 C42 1_555 1_555
C43 C42 1_555 1_555
H44 C43 1_555 1_555
C44 C43 1_555 1_555
H45 C44 1_555 1_555
C45 C44 1_555 1_555
H46 C45 1_555 1_555
C46 C41 1_555 1_555
H47 C46 1_555 1_555
C7 C8 1_555 1_555
C19 C20 1_555 1_555
C26 C27 1_555 1_555
C33 C34 1_555 1_555
C45 C46 1_555 1_555

#END
