
#######################################################################
#
#                 Cambridge Crystallographic Data Centre
#                                CCDC 
#
#######################################################################
#
# If this CIF has been generated from an entry in the Cambridge 
# Structural Database, then it will include bibliographic, chemical, 
# crystal, experimental, refinement or atomic coordinate data resulting 
# from the CCDC's data processing and validation procedures.
#
#######################################################################

data_YEYDEN
_chemical_formula_moiety         'C52 H53 B1 N2'
_chemical_name_systematic        
1,3-bis(2,6-diisopropylphenyl)-4,5-bis(1-naphthyl)-2-phenyl-2,3-dihydro-1H-1,3,2-diazaborole
_symmetry_cell_setting           triclinic
_symmetry_space_group_name_H-M   'P -1'
_symmetry_Int_Tables_number      2
_space_group_name_Hall           '-P 1'
loop_
_symmetry_equiv_pos_site_id
_symmetry_equiv_pos_as_xyz
1 x,y,z
2 -x,-y,-z
_cell_length_a                   12.696(4)
_cell_length_b                   16.770(5)
_cell_length_c                   20.084(6)
_cell_angle_alpha                83.628(10)
_cell_angle_beta                 86.485(10)
_cell_angle_gamma                82.299(9)
_cell_volume                     4206.69
_exptl_crystal_colour            colorless
_exptl_crystal_description       prism
_cell_formula_units_Z            4
loop_
_atom_site_label
_atom_site_type_symbol
_atom_site_fract_x
_atom_site_fract_y
_atom_site_fract_z
B1 B 0.78354(14) 1.02938(12) 0.29719(9)
N1 N 0.68675(10) 0.99532(8) 0.29165(6)
N2 N 0.84161(10) 1.01948(8) 0.23438(6)
C1 C 0.68786(12) 0.96777(10) 0.22711(7)
C2 C 0.78058(12) 0.98099(10) 0.19364(7)
C3 C 0.81934(13) 1.06837(10) 0.35784(7)
C4 C 0.74579(14) 1.10817(11) 0.40143(8)
H1 H 0.6720 1.1108 0.3945
C5 C 0.77771(17) 1.14412(13) 0.45492(9)
H2 H 0.7259 1.1718 0.4832
C6 C 0.88440(17) 1.13961(14) 0.46686(9)
H3 H 0.9062 1.1636 0.5036
C7 C 0.95913(16) 1.10003(13) 0.42509(8)
H4 H 1.0327 1.0961 0.4332
C8 C 0.92679(14) 1.06589(12) 0.37111(8)
H5 H 0.9793 1.0400 0.3422
C9 C 0.60814(12) 0.97677(10) 0.34405(7)
C10 C 0.63587(13) 0.91259(10) 0.39370(8)
C11 C 0.56144(14) 0.89801(11) 0.44618(8)
H6 H 0.5790 0.8559 0.4809
C12 C 0.46259(15) 0.94374(11) 0.44846(8)
H7 H 0.4131 0.9332 0.4848
C13 C 0.43556(13) 1.00459(11) 0.39815(8)
H8 H 0.3667 1.0348 0.3996
C14 C 0.50739(12) 1.02254(10) 0.34519(7)
C15 C 0.74156(14) 0.85848(11) 0.39309(9)
H9 H 0.7800 0.8716 0.3491
C16 C 0.72605(17) 0.76896(12) 0.39870(10)
H10 H 0.6905 0.7539 0.4421
H11 H 0.7955 0.7359 0.3951
H12 H 0.6822 0.7597 0.3625
C17 C 0.81132(16) 0.87451(13) 0.44875(10)
H13 H 0.8238 0.9313 0.4428
H14 H 0.8796 0.8396 0.4464
H15 H 0.7751 0.8628 0.4926
C18 C 0.47343(13) 1.08952(10) 0.29103(8)
H16 H 0.5298 1.0880 0.2540
C19 C 0.36885(13) 1.07606(12) 0.26178(9)
H17 H 0.3741 1.0202 0.2507
H18 H 0.3559 1.1134 0.2211
H19 H 0.3099 1.0861 0.2949
C20 C 0.46285(16) 1.17314(11) 0.31683(10)
H20 H 0.4331 1.2144 0.2822
H21 H 0.5331 1.1848 0.3275
H22 H 0.4156 1.1736 0.3573
C21 C 0.93789(12) 1.05335(10) 0.21066(7)
C22 C 0.92936(12) 1.13643(10) 0.18841(7)
C23 C 1.02305(12) 1.16965(10) 0.17038(7)
H23 H 1.0195 1.2258 0.1560
C24 C 1.12131(13) 1.12254(10) 0.17300(7)
H24 H 1.1844 1.1465 0.1611
C25 C 1.12718(12) 1.04087(10) 0.19292(7)
H25 H 1.1947 1.0087 0.1936
C26 C 1.03619(12) 1.00437(10) 0.21216(7)
C27 C 0.82350(13) 1.19018(10) 0.18341(8)
H26 H 0.7658 1.1545 0.1897
C28 C 0.80602(14) 1.24799(11) 0.23777(8)
H27 H 0.8124 1.2170 0.2820
H28 H 0.7348 1.2787 0.2348
H29 H 0.8596 1.2854 0.2314
C29 C 0.81244(14) 1.23948(11) 0.11426(8)
H30 H 0.8646 1.2781 0.1084
H31 H 0.7405 1.2689 0.1114
H32 H 0.8253 1.2028 0.0790
C30 C 1.04719(13) 0.91375(10) 0.23334(8)
H33 H 0.9753 0.8990 0.2489
C31 C 1.08736(14) 0.86631(11) 0.17412(9)
H34 H 1.0388 0.8814 0.1374
H35 H 1.0903 0.8082 0.1881
H36 H 1.1586 0.8789 0.1589
C32 C 1.12207(17) 0.88979(12) 0.29148(10)
H37 H 1.1924 0.9056 0.2778
H38 H 1.1284 0.8311 0.3033
H39 H 1.0932 0.9174 0.3304
C33 C 0.59452(12) 0.93930(10) 0.20040(8)
C34 C 0.55878(13) 0.86822(11) 0.22667(8)
H40 H 0.5935 0.8370 0.2633
C35 C 0.47116(15) 0.84059(13) 0.20023(10)
H41 H 0.4483 0.7907 0.2186
C36 C 0.41962(15) 0.88530(13) 0.14861(10)
H42 H 0.3614 0.8658 0.1309
C37 C 0.45043(14) 0.95990(12) 0.12074(9)
C38 C 0.54000(13) 0.98736(11) 0.14609(8)
C39 C 0.56784(14) 1.06353(11) 0.11761(8)
H43 H 0.6270 1.0835 0.1336
C40 C 0.51115(15) 1.10880(13) 0.06752(9)
H44 H 0.5319 1.1594 0.0492
C41 C 0.42271(16) 1.08119(15) 0.04295(10)
H45 H 0.3835 1.1132 0.0086
C42 C 0.39377(15) 1.00893(15) 0.06842(10)
H46 H 0.3345 0.9903 0.0512
C43 C 0.81571(12) 0.96049(10) 0.12510(7)
C44 C 0.83944(12) 1.02042(11) 0.07612(7)
H47 H 0.8352 1.0744 0.0872
C45 C 0.86971(13) 1.00367(12) 0.01023(8)
H48 H 0.8864 1.0460 -0.0226
C46 C 0.87511(13) 0.92700(12) -0.00670(8)
H49 H 0.8953 0.9164 -0.0515
C47 C 0.85132(13) 0.86273(11) 0.04107(8)
C48 C 0.82340(12) 0.87883(10) 0.10880(7)
C49 C 0.80790(13) 0.81193(10) 0.15640(8)
H50 H 0.7927 0.8205 0.2022
C50 C 0.81433(14) 0.73545(11) 0.13796(9)
H51 H 0.8036 0.6917 0.1709
C51 C 0.83658(14) 0.72064(12) 0.07066(10)
H52 H 0.8382 0.6676 0.0580
C52 C 0.85581(14) 0.78262(12) 0.02386(9)
H53 H 0.8726 0.7720 -0.0213
B2 B 0.17275(14) 0.48386(11) 0.21431(8)
N3 N 0.27708(10) 0.50015(8) 0.18962(6)
N4 N 0.17513(10) 0.48578(8) 0.28583(6)
C53 C 0.33826(12) 0.50943(10) 0.24418(7)
C54 C 0.27676(12) 0.50209(9) 0.30145(7)
C55 C 0.07859(12) 0.46833(10) 0.17263(7)
C56 C 0.09545(13) 0.44153(10) 0.10850(7)
H54 H 0.1663 0.4307 0.0906
C57 C 0.01225(13) 0.43032(10) 0.07051(8)
H55 H 0.0267 0.4115 0.0276
C58 C -0.09149(13) 0.44638(11) 0.09470(8)
H56 H -0.1487 0.4401 0.0682
C59 C -0.11150(13) 0.47169(11) 0.15807(8)
H57 H -0.1827 0.4819 0.1755
C60 C -0.02767(12) 0.48212(10) 0.19611(8)
H58 H -0.0430 0.4992 0.2396
C61 C 0.31828(12) 0.49998(10) 0.12093(7)
C62 C 0.37190(12) 0.42826(10) 0.09932(7)
C63 C 0.39724(12) 0.42575(10) 0.03107(8)
H59 H 0.4321 0.3771 0.0154
C64 C 0.37233(12) 0.49322(11) -0.01437(8)
H60 H 0.3889 0.4904 -0.0609
C65 C 0.32349(12) 0.56426(11) 0.00815(7)
H61 H 0.3086 0.6106 -0.0232
C66 C 0.29516(12) 0.57010(10) 0.07601(7)
C67 C 0.39858(13) 0.35217(10) 0.14716(8)
H62 H 0.3782 0.3661 0.1938
C68 C 0.51756(13) 0.32279(11) 0.14400(9)
H63 H 0.5392 0.3071 0.0991
H64 H 0.5330 0.2761 0.1774
H65 H 0.5569 0.3664 0.1535
C69 C 0.33403(15) 0.28505(11) 0.13312(10)
H66 H 0.2581 0.3025 0.1417
H67 H 0.3560 0.2357 0.1625
H68 H 0.3469 0.2741 0.0862
C70 C 0.23737(12) 0.64893(10) 0.09760(8)
H69 H 0.2364 0.6451 0.1477
C71 C 0.29382(14) 0.72247(10) 0.06980(8)
H70 H 0.3676 0.7137 0.0835
H71 H 0.2567 0.7713 0.0875
H72 H 0.2930 0.7291 0.0207
C72 C 0.12140(13) 0.66323(10) 0.07664(8)
H73 H 0.1201 0.6681 0.0276
H74 H 0.0856 0.7131 0.0932
H75 H 0.0846 0.6175 0.0957
C73 C 0.09144(12) 0.47399(10) 0.33689(7)
C74 C 0.03087(12) 0.54157(10) 0.36118(7)
C75 C -0.05379(13) 0.52870(11) 0.40709(8)
H76 H -0.0965 0.5737 0.4239
C76 C -0.07638(13) 0.45115(12) 0.42843(8)
H77 H -0.1352 0.4433 0.4590
C77 C -0.01374(13) 0.38549(11) 0.40543(8)
H78 H -0.0298 0.3326 0.4207
C78 C 0.07279(12) 0.39446(10) 0.36020(7)
C79 C 0.05320(14) 0.62801(10) 0.33867(8)
H79 H 0.1246 0.6246 0.3145
C80 C -0.02856(15) 0.67129(11) 0.28910(9)
H80 H -0.0226 0.6434 0.2484
H81 H -0.0148 0.7274 0.2775
H82 H -0.1004 0.6707 0.3098
C81 C 0.05850(15) 0.67629(11) 0.39857(8)
H83 H -0.0111 0.6820 0.4227
H84 H 0.0778 0.7300 0.3825
H85 H 0.1121 0.6477 0.4288
C82 C 0.14229(14) 0.32072(10) 0.33819(8)
H86 H 0.2091 0.3388 0.3161
C83 C 0.08914(16) 0.27983(11) 0.28736(9)
H87 H 0.0238 0.2609 0.3080
H88 H 0.1378 0.2337 0.2733
H89 H 0.0717 0.3187 0.2482
C84 C 0.17354(14) 0.25802(11) 0.39768(8)
H90 H 0.2070 0.2838 0.4309
H91 H 0.2238 0.2137 0.3818
H92 H 0.1098 0.2365 0.4183
C85 C 0.45035(12) 0.52689(10) 0.23800(7)
C86 C 0.47618(13) 0.59551(10) 0.19956(8)
H93 H 0.4240 0.6272 0.1725
C87 C 0.57819(13) 0.61971(11) 0.19951(8)
H94 H 0.5945 0.6667 0.1720
C88 C 0.65342(13) 0.57589(11) 0.23881(8)
H95 H 0.7205 0.5946 0.2407
C89 C 0.63321(12) 0.50282(10) 0.27690(7)
C90 C 0.53078(12) 0.47675(10) 0.27559(7)
C91 C 0.51576(13) 0.40064(10) 0.31101(7)
H96 H 0.4488 0.3814 0.3106
C92 C 0.59572(13) 0.35465(11) 0.34559(8)
H97 H 0.5840 0.3034 0.3679
C93 C 0.69527(13) 0.38195(11) 0.34864(8)
H98 H 0.7495 0.3502 0.3741
C94 C 0.71323(13) 0.45446(11) 0.31468(8)
H99 H 0.7806 0.4727 0.3165
C95 C 0.30494(12) 0.51085(10) 0.37062(7)
C96 C 0.30308(12) 0.44640(10) 0.41951(7)
H100 H 0.2803 0.3979 0.4087
C97 C 0.33417(12) 0.45070(11) 0.48529(8)
H101 H 0.3304 0.4060 0.5184
C98 C 0.36952(13) 0.51921(11) 0.50095(8)
H102 H 0.3928 0.5212 0.5447
C99 C 0.37207(12) 0.58739(11) 0.45301(8)
C100 C 0.33798(12) 0.58426(10) 0.38690(7)
C101 C 0.33619(13) 0.65557(10) 0.34158(8)
H103 H 0.3122 0.6554 0.2977
C102 C 0.36808(14) 0.72438(11) 0.35947(9)
H104 H 0.3645 0.7717 0.3285
C103 C 0.40634(15) 0.72577(12) 0.42372(9)
H105 H 0.4310 0.7732 0.4353
C104 C 0.40790(14) 0.65917(12) 0.46906(9)
H106 H 0.4335 0.6607 0.5123
loop_
_geom_bond_atom_site_label_1
_geom_bond_atom_site_label_2
_geom_bond_site_symmetry_1
_geom_bond_site_symmetry_2
B1 N1 1_555 1_555
N1 C1 1_555 1_555
N2 B1 1_555 1_555
C1 C2 1_555 1_555
C2 N2 1_555 1_555
C3 B1 1_555 1_555
C4 C3 1_555 1_555
H1 C4 1_555 1_555
C5 C4 1_555 1_555
H2 C5 1_555 1_555
C6 C5 1_555 1_555
H3 C6 1_555 1_555
C7 C6 1_555 1_555
H4 C7 1_555 1_555
C8 C3 1_555 1_555
H5 C8 1_555 1_555
C9 N1 1_555 1_555
C10 C9 1_555 1_555
C11 C10 1_555 1_555
H6 C11 1_555 1_555
C12 C11 1_555 1_555
H7 C12 1_555 1_555
C13 C12 1_555 1_555
H8 C13 1_555 1_555
C14 C9 1_555 1_555
C15 C10 1_555 1_555
H9 C15 1_555 1_555
C16 C15 1_555 1_555
H10 C16 1_555 1_555
H11 C16 1_555 1_555
H12 C16 1_555 1_555
C17 C15 1_555 1_555
H13 C17 1_555 1_555
H14 C17 1_555 1_555
H15 C17 1_555 1_555
C18 C14 1_555 1_555
H16 C18 1_555 1_555
C19 C18 1_555 1_555
H17 C19 1_555 1_555
H18 C19 1_555 1_555
H19 C19 1_555 1_555
C20 C18 1_555 1_555
H20 C20 1_555 1_555
H21 C20 1_555 1_555
H22 C20 1_555 1_555
C21 N2 1_555 1_555
C22 C21 1_555 1_555
C23 C22 1_555 1_555
H23 C23 1_555 1_555
C24 C23 1_555 1_555
H24 C24 1_555 1_555
C25 C24 1_555 1_555
H25 C25 1_555 1_555
C26 C21 1_555 1_555
C27 C22 1_555 1_555
H26 C27 1_555 1_555
C28 C27 1_555 1_555
H27 C28 1_555 1_555
H28 C28 1_555 1_555
H29 C28 1_555 1_555
C29 C27 1_555 1_555
H30 C29 1_555 1_555
H31 C29 1_555 1_555
H32 C29 1_555 1_555
C30 C26 1_555 1_555
H33 C30 1_555 1_555
C31 C30 1_555 1_555
H34 C31 1_555 1_555
H35 C31 1_555 1_555
H36 C31 1_555 1_555
C32 C30 1_555 1_555
H37 C32 1_555 1_555
H38 C32 1_555 1_555
H39 C32 1_555 1_555
C33 C1 1_555 1_555
C34 C33 1_555 1_555
H40 C34 1_555 1_555
C35 C34 1_555 1_555
H41 C35 1_555 1_555
C36 C35 1_555 1_555
H42 C36 1_555 1_555
C37 C36 1_555 1_555
C38 C33 1_555 1_555
C39 C38 1_555 1_555
H43 C39 1_555 1_555
C40 C39 1_555 1_555
H44 C40 1_555 1_555
C41 C40 1_555 1_555
H45 C41 1_555 1_555
C42 C37 1_555 1_555
H46 C42 1_555 1_555
C43 C2 1_555 1_555
C44 C43 1_555 1_555
H47 C44 1_555 1_555
C45 C44 1_555 1_555
H48 C45 1_555 1_555
C46 C45 1_555 1_555
H49 C46 1_555 1_555
C47 C46 1_555 1_555
C48 C43 1_555 1_555
C49 C48 1_555 1_555
H50 C49 1_555 1_555
C50 C49 1_555 1_555
H51 C50 1_555 1_555
C51 C50 1_555 1_555
H52 C51 1_555 1_555
C52 C47 1_555 1_555
H53 C52 1_555 1_555
B2 N3 1_555 1_555
N3 C53 1_555 1_555
N4 B2 1_555 1_555
C53 C54 1_555 1_555
C54 N4 1_555 1_555
C55 B2 1_555 1_555
C56 C55 1_555 1_555
H54 C56 1_555 1_555
C57 C56 1_555 1_555
H55 C57 1_555 1_555
C58 C57 1_555 1_555
H56 C58 1_555 1_555
C59 C58 1_555 1_555
H57 C59 1_555 1_555
C60 C55 1_555 1_555
H58 C60 1_555 1_555
C61 N3 1_555 1_555
C62 C61 1_555 1_555
C63 C62 1_555 1_555
H59 C63 1_555 1_555
C64 C63 1_555 1_555
H60 C64 1_555 1_555
C65 C64 1_555 1_555
H61 C65 1_555 1_555
C66 C61 1_555 1_555
C67 C62 1_555 1_555
H62 C67 1_555 1_555
C68 C67 1_555 1_555
H63 C68 1_555 1_555
H64 C68 1_555 1_555
H65 C68 1_555 1_555
C69 C67 1_555 1_555
H66 C69 1_555 1_555
H67 C69 1_555 1_555
H68 C69 1_555 1_555
C70 C66 1_555 1_555
H69 C70 1_555 1_555
C71 C70 1_555 1_555
H70 C71 1_555 1_555
H71 C71 1_555 1_555
H72 C71 1_555 1_555
C72 C70 1_555 1_555
H73 C72 1_555 1_555
H74 C72 1_555 1_555
H75 C72 1_555 1_555
C73 N4 1_555 1_555
C74 C73 1_555 1_555
C75 C74 1_555 1_555
H76 C75 1_555 1_555
C76 C75 1_555 1_555
H77 C76 1_555 1_555
C77 C76 1_555 1_555
H78 C77 1_555 1_555
C78 C73 1_555 1_555
C79 C74 1_555 1_555
H79 C79 1_555 1_555
C80 C79 1_555 1_555
H80 C80 1_555 1_555
H81 C80 1_555 1_555
H82 C80 1_555 1_555
C81 C79 1_555 1_555
H83 C81 1_555 1_555
H84 C81 1_555 1_555
H85 C81 1_555 1_555
C82 C78 1_555 1_555
H86 C82 1_555 1_555
C83 C82 1_555 1_555
H87 C83 1_555 1_555
H88 C83 1_555 1_555
H89 C83 1_555 1_555
C84 C82 1_555 1_555
H90 C84 1_555 1_555
H91 C84 1_555 1_555
H92 C84 1_555 1_555
C85 C53 1_555 1_555
C86 C85 1_555 1_555
H93 C86 1_555 1_555
C87 C86 1_555 1_555
H94 C87 1_555 1_555
C88 C87 1_555 1_555
H95 C88 1_555 1_555
C89 C88 1_555 1_555
C90 C85 1_555 1_555
C91 C90 1_555 1_555
H96 C91 1_555 1_555
C92 C91 1_555 1_555
H97 C92 1_555 1_555
C93 C92 1_555 1_555
H98 C93 1_555 1_555
C94 C89 1_555 1_555
H99 C94 1_555 1_555
C95 C54 1_555 1_555
C96 C95 1_555 1_555
H100 C96 1_555 1_555
C97 C96 1_555 1_555
H101 C97 1_555 1_555
C98 C97 1_555 1_555
H102 C98 1_555 1_555
C99 C98 1_555 1_555
C100 C95 1_555 1_555
C101 C100 1_555 1_555
H103 C101 1_555 1_555
C102 C101 1_555 1_555
H104 C102 1_555 1_555
C103 C102 1_555 1_555
H105 C103 1_555 1_555
C104 C99 1_555 1_555
H106 C104 1_555 1_555
C7 C8 1_555 1_555
C13 C14 1_555 1_555
C25 C26 1_555 1_555
C37 C38 1_555 1_555
C41 C42 1_555 1_555
C47 C48 1_555 1_555
C51 C52 1_555 1_555
C59 C60 1_555 1_555
C65 C66 1_555 1_555
C77 C78 1_555 1_555
C89 C90 1_555 1_555
C93 C94 1_555 1_555
C99 C100 1_555 1_555
C103 C104 1_555 1_555

#END
