
#######################################################################
#
#                 Cambridge Crystallographic Data Centre
#                                CCDC 
#
#######################################################################
#
# If this CIF has been generated from an entry in the Cambridge 
# Structural Database, then it will include bibliographic, chemical, 
# crystal, experimental, refinement or atomic coordinate data resulting 
# from the CCDC's data processing and validation procedures.
#
#######################################################################

data_YEYDUC
_chemical_formula_moiety         'C11 H10 O4'
_chemical_name_systematic        '2-(1,3-Benzodioxol-5-ylmethyl)acrylic acid'
_symmetry_cell_setting           triclinic
_symmetry_space_group_name_H-M   'P -1'
_symmetry_Int_Tables_number      2
_space_group_name_Hall           '-P 1'
loop_
_symmetry_equiv_pos_site_id
_symmetry_equiv_pos_as_xyz
1 x,y,z
2 -x,-y,-z
_cell_length_a                   4.9483(8)
_cell_length_b                   9.0841(12)
_cell_length_c                   11.7256(16)
_cell_angle_alpha                111.881(8)
_cell_angle_beta                 91.747(7)
_cell_angle_gamma                95.604(8)
_cell_volume                     485.489
_exptl_crystal_colour            colorless
_exptl_crystal_description       block
_chemical_melting_point          '394 K'
_cell_formula_units_Z            2
_exptl_crystal_recrystallization_method chloroform
loop_
_atom_site_label
_atom_site_type_symbol
_atom_site_fract_x
_atom_site_fract_y
_atom_site_fract_z
O1 O 0.1088(3) 0.34822(15) 0.02334(12)
O2 O 0.2821(3) 0.60735(16) 0.11559(14)
H1 H 0.132(5) 0.616(3) 0.063(2)
O3 O -0.3012(3) 0.03792(18) 0.42121(13)
O4 O -0.0767(4) 0.2963(2) 0.51156(14)
C1 C 0.2780(4) 0.4531(2) 0.09638(18)
C2 C 0.4946(4) 0.4136(2) 0.16786(18)
C3 C 0.6810(4) 0.5279(3) 0.2418(2)
H2 H 0.6766 0.6355 0.2493
H3 H 0.8184 0.5019 0.2871
C4 C 0.4868(4) 0.2396(2) 0.1507(2)
H4 H 0.6661 0.2220 0.1799
H5 H 0.4571 0.1731 0.0617
C5 C 0.2647(4) 0.1830(2) 0.21907(19)
C6 C 0.2081(4) 0.2830(2) 0.33805(19)
H6 H 0.2994 0.3882 0.3768
C7 C 0.0140(4) 0.2220(3) 0.39642(19)
C8 C -0.1219(4) 0.0688(2) 0.34181(19)
C9 C -0.0754(4) -0.0300(2) 0.22559(18)
H7 H -0.1711 -0.1341 0.1875
C10 C 0.1229(4) 0.0307(2) 0.16454(19)
H8 H 0.1604 -0.0350 0.0835
C11 C -0.2792(5) 0.1832(2) 0.52831(19)
H9 H -0.2266 0.1622 0.6025
H10 H -0.4567 0.2266 0.5399
loop_
_geom_bond_atom_site_label_1
_geom_bond_atom_site_label_2
_geom_bond_site_symmetry_1
_geom_bond_site_symmetry_2
O1 C1 1_555 1_555
O2 H1 1_555 1_555
O3 C8 1_555 1_555
O4 C7 1_555 1_555
C1 O2 1_555 1_555
C2 C1 1_555 1_555
C3 C2 1_555 1_555
H2 C3 1_555 1_555
H3 C3 1_555 1_555
C4 C2 1_555 1_555
H4 C4 1_555 1_555
H5 C4 1_555 1_555
C5 C4 1_555 1_555
C6 C5 1_555 1_555
H6 C6 1_555 1_555
C7 C6 1_555 1_555
C8 C7 1_555 1_555
C9 C8 1_555 1_555
H7 C9 1_555 1_555
C10 C5 1_555 1_555
H8 C10 1_555 1_555
C11 O3 1_555 1_555
H9 C11 1_555 1_555
H10 C11 1_555 1_555
O4 C11 1_555 1_555
C9 C10 1_555 1_555

#END
