
#######################################################################
#
#                 Cambridge Crystallographic Data Centre
#                                CCDC 
#
#######################################################################
#
# If this CIF has been generated from an entry in the Cambridge 
# Structural Database, then it will include bibliographic, chemical, 
# crystal, experimental, refinement or atomic coordinate data resulting 
# from the CCDC's data processing and validation procedures.
#
#######################################################################

data_YEYHOC
_chemical_formula_moiety         
'2(C17 H15 N1 O4),C14 H12 O6 S2 2-,2(C1 H6 N3 1+)'
_chemical_name_systematic        
"bis(guanidinium) 4,4'-(ethane-1,2-diyl)di(benzene-1-sulfonate) bis(3-nitro-4-(2-phenylethyl)-3,4-dihydro-1H-2-benzopyran-1-one)"
_symmetry_cell_setting           orthorhombic
_symmetry_space_group_name_H-M   'P b c a'
_symmetry_Int_Tables_number      61
_space_group_name_Hall           '-P 2ac 2ab'
loop_
_symmetry_equiv_pos_site_id
_symmetry_equiv_pos_as_xyz
1 x,y,z
2 1/2-x,-y,1/2+z
3 -x,1/2+y,1/2-z
4 1/2+x,1/2-y,-z
5 -x,-y,-z
6 1/2+x,y,1/2-z
7 x,1/2-y,1/2+z
8 1/2-x,1/2+y,z
_cell_length_a                   15.005(8)
_cell_length_b                   12.771(7)
_cell_length_c                   26.519(14)
_cell_angle_alpha                90
_cell_angle_beta                 90
_cell_angle_gamma                90
_cell_volume                     5081.81
_exptl_crystal_colour            colorless
_exptl_crystal_description       plate
_cell_formula_units_Z            4
loop_
_atom_site_label
_atom_site_type_symbol
_atom_site_fract_x
_atom_site_fract_y
_atom_site_fract_z
S1 S 0.38672(13) 0.08278(14) 0.27146(7)
O1 O 0.3864(3) 0.1950(3) 0.26044(16)
O2 O 0.3021(3) 0.0306(3) 0.25847(17)
O3 O 0.4636(3) 0.0293(3) 0.24824(17)
C1 C 0.4005(5) 0.0705(6) 0.3369(3)
C2 C 0.3640(5) -0.0132(6) 0.3635(3)
H1 H 0.327573 -0.062141 0.346058
C3 C 0.3793(5) -0.0270(5) 0.4141(4)
H2 H 0.352431 -0.084318 0.431146
C4 C 0.4346(5) 0.0431(6) 0.4411(3)
C5 C 0.4705(4) 0.1271(6) 0.4153(3)
H3 H 0.505713 0.176827 0.433008
C6 C 0.4560(5) 0.1400(6) 0.3636(3)
H4 H 0.483886 0.196263 0.346334
C7 C 0.4546(5) 0.0268(6) 0.4967(3)
H5 H 0.407407 -0.016964 0.512036
H6 H 0.455002 0.095328 0.514168
S1D S 0.61328(13) -0.08278(14) 0.72854(7)
O1D O 0.6136(3) -0.1950(3) 0.73956(16)
O2D O 0.6979(3) -0.0306(3) 0.74153(17)
O3D O 0.5364(3) -0.0293(3) 0.75176(17)
C1D C 0.5995(5) -0.0705(6) 0.6631(3)
C2D C 0.6360(5) 0.0132(6) 0.6365(3)
H1D H 0.672427 0.062141 0.653942
C3D C 0.6207(5) 0.0270(5) 0.5859(4)
H2D H 0.647569 0.084318 0.568854
C4D C 0.5654(5) -0.0431(6) 0.5589(3)
C5D C 0.5295(4) -0.1271(6) 0.5847(3)
H3D H 0.494287 -0.176827 0.566992
C6D C 0.5440(5) -0.1400(6) 0.6364(3)
H4D H 0.516114 -0.196263 0.653666
C7D C 0.5454(5) -0.0268(6) 0.5033(3)
H5D H 0.592593 0.016964 0.487964
H6D H 0.544998 -0.095328 0.485832
N1 N 0.7085(4) 0.2995(4) 0.24674(19)
H7 H 0.759356 0.265321 0.245183
H8 H 0.708073 0.368343 0.244972
N2 N 0.6340(4) 0.1439(5) 0.2544(2)
H9 H 0.684883 0.109707 0.252830
H10 H 0.583676 0.109191 0.257725
N3 N 0.5560(4) 0.2993(4) 0.2546(2)
H11 H 0.555233 0.368139 0.253217
H12 H 0.505740 0.264381 0.257960
C8 C 0.6332(5) 0.2478(6) 0.2517(3)
O4 O 0.4814(3) 0.3980(3) 0.4104(2)
O5 O 0.4493(3) 0.3641(4) 0.4905(2)
O6 O 0.3262(3) 0.3469(4) 0.3706(2)
O7 O 0.3588(3) 0.4207(4) 0.2983(2)
N4 N 0.3732(4) 0.4006(5) 0.3427(3)
C9 C 0.4584(5) 0.4500(5) 0.3649(3)
H13 H 0.507932 0.439434 0.340203
C10 C 0.4432(5) 0.5676(5) 0.3709(3)
H14 H 0.416265 0.594955 0.339063
C11 C 0.3778(5) 0.5861(6) 0.4137(3)
C12 C 0.3784(5) 0.5153(6) 0.4540(3)
C13 C 0.4372(5) 0.4195(7) 0.4554(4)
C14 C 0.3226(6) 0.5307(6) 0.4953(3)
H15 H 0.323473 0.482519 0.522550
C15 C 0.2653(5) 0.6170(7) 0.4966(3)
H16 H 0.227153 0.627880 0.524690
C16 C 0.2647(5) 0.6863(6) 0.4566(4)
H17 H 0.226353 0.745443 0.457558
C17 C 0.3194(5) 0.6705(6) 0.4151(3)
H18 H 0.316814 0.717658 0.387436
C18 C 0.5357(5) 0.6199(5) 0.3782(3)
H19 H 0.563540 0.591917 0.409238
H20 H 0.574510 0.600873 0.349412
C19 C 0.5310(5) 0.7401(5) 0.3821(3)
H21 H 0.489981 0.766252 0.355701
H22 H 0.505079 0.758761 0.415208
C20 C 0.6189(5) 0.7953(6) 0.3766(3)
C21 C 0.7006(6) 0.7449(6) 0.3844(3)
H23 H 0.700972 0.673109 0.393653
C22 C 0.7811(5) 0.7974(7) 0.3789(3)
H24 H 0.835746 0.761037 0.383647
C23 C 0.7816(6) 0.9013(8) 0.3666(3)
H25 H 0.836506 0.937783 0.363433
C24 C 0.7019(6) 0.9530(6) 0.3588(3)
H26 H 0.702411 1.025038 0.349748
C25 C 0.6212(5) 0.9013(6) 0.3639(3)
H27 H 0.567002 0.938275 0.358738
loop_
_geom_bond_atom_site_label_1
_geom_bond_atom_site_label_2
_geom_bond_site_symmetry_1
_geom_bond_site_symmetry_2
S1 O1 1_555 1_555
O2 S1 1_555 1_555
O3 S1 1_555 1_555
C1 S1 1_555 1_555
C2 C1 1_555 1_555
H1 C2 1_555 1_555
C3 C2 1_555 1_555
H2 C3 1_555 1_555
C4 C3 1_555 1_555
C5 C4 1_555 1_555
H3 C5 1_555 1_555
C6 C1 1_555 1_555
H4 C6 1_555 1_555
C7 C4 1_555 1_555
H5 C7 1_555 1_555
H6 C7 1_555 1_555
N1 H7 1_555 1_555
H8 N1 1_555 1_555
N2 H9 1_555 1_555
H10 N2 1_555 1_555
N3 H11 1_555 1_555
H12 N3 1_555 1_555
C8 N1 1_555 1_555
O4 C9 1_555 1_555
O5 C13 1_555 1_555
O6 N4 1_555 1_555
O7 N4 1_555 1_555
N4 C9 1_555 1_555
C9 H13 1_555 1_555
C10 C9 1_555 1_555
H14 C10 1_555 1_555
C11 C10 1_555 1_555
C12 C11 1_555 1_555
C13 O4 1_555 1_555
C14 C12 1_555 1_555
H15 C14 1_555 1_555
C15 C14 1_555 1_555
H16 C15 1_555 1_555
C16 C15 1_555 1_555
H17 C16 1_555 1_555
C17 C11 1_555 1_555
H18 C17 1_555 1_555
C18 C10 1_555 1_555
H19 C18 1_555 1_555
H20 C18 1_555 1_555
C19 C18 1_555 1_555
H21 C19 1_555 1_555
H22 C19 1_555 1_555
C20 C19 1_555 1_555
C21 C20 1_555 1_555
H23 C21 1_555 1_555
C22 C21 1_555 1_555
H24 C22 1_555 1_555
C23 C22 1_555 1_555
H25 C23 1_555 1_555
C24 C23 1_555 1_555
H26 C24 1_555 1_555
C25 C20 1_555 1_555
H27 C25 1_555 1_555
S1D O1D 1_555 1_555
O2D S1D 1_555 1_555
O3D S1D 1_555 1_555
C1D S1D 1_555 1_555
C2D C1D 1_555 1_555
H1D C2D 1_555 1_555
C3D C2D 1_555 1_555
H2D C3D 1_555 1_555
C4D C3D 1_555 1_555
C5D C4D 1_555 1_555
H3D C5D 1_555 1_555
C6D C1D 1_555 1_555
H4D C6D 1_555 1_555
C7D C7 1_555 1_555
H5D C7D 1_555 1_555
H6D C7D 1_555 1_555
C5 C6 1_555 1_555
N2 C8 1_555 1_555
N3 C8 1_555 1_555
C12 C13 1_555 1_555
C16 C17 1_555 1_555
C24 C25 1_555 1_555
C4D C7D 1_555 1_555
C5D C6D 1_555 1_555

#END
