
#######################################################################
#
#                 Cambridge Crystallographic Data Centre
#                                CCDC 
#
#######################################################################
#
# If this CIF has been generated from an entry in the Cambridge 
# Structural Database, then it will include bibliographic, chemical, 
# crystal, experimental, refinement or atomic coordinate data resulting 
# from the CCDC's data processing and validation procedures.
#
#######################################################################

data_YEYJUI
_chemical_formula_moiety         'C22 H15 Cl1 F6 S2'
_chemical_name_systematic        
1-(5-(2-Chlorophenyl)-2-methyl-3-thienyl)-2-(2,5-dimethyl-3-thienyl)-3,3,4,4,5,5-hexafluorocyclopent-1-ene
_symmetry_cell_setting           monoclinic
_symmetry_space_group_name_H-M   'P 21/n'
_symmetry_Int_Tables_number      14
_space_group_name_Hall           '-P 2yn'
loop_
_symmetry_equiv_pos_site_id
_symmetry_equiv_pos_as_xyz
1 x,y,z
2 1/2-x,1/2+y,1/2-z
3 -x,-y,-z
4 1/2+x,1/2-y,1/2+z
_cell_length_a                   6.9539(12)
_cell_length_b                   21.661(4)
_cell_length_c                   14.543(2)
_cell_angle_alpha                90
_cell_angle_beta                 94.278(3)
_cell_angle_gamma                90
_cell_volume                     2184.49
_exptl_crystal_colour            colorless
_exptl_crystal_description       block
_chemical_melting_point          '354 K'
_cell_formula_units_Z            4
_chemical_properties_physical    light-sensitive
_exptl_crystal_recrystallization_method hexane
_exptl_crystal_preparation       photochromic
loop_
_atom_site_label
_atom_site_type_symbol
_atom_site_fract_x
_atom_site_fract_y
_atom_site_fract_z
C1 C 0.1151(2) 0.83335(7) 0.91066(10)
F1 F 0.24123(16) 0.79949(4) 0.96606(6)
F2 F -0.04565(14) 0.79788(5) 0.90063(7)
C2 C 0.0726(2) 0.89515(7) 0.95687(10)
F3 F 0.11533(17) 0.89499(5) 1.04803(6)
F4 F -0.11775(15) 0.90753(5) 0.94060(8)
C3 C 0.1880(2) 0.94173(7) 0.90493(10)
F5 F 0.35556(16) 0.95452(5) 0.95492(6)
F6 F 0.09423(18) 0.99596(4) 0.89349(7)
S1 S 0.40682(6) 0.734694(18) 0.64092(3)
S2 S 0.30771(5) 0.996484(16) 0.57918(2)
Cl1 Cl 0.39033(6) 1.139927(18) 0.53925(3)
C7 C 0.0904(3) 0.65315(7) 0.62802(13)
H1 H -0.0348 0.6480 0.6506
H2 H 0.1694 0.6181 0.6453
H3 H 0.0776 0.6567 0.5620
C8 C 0.1831(2) 0.71093(6) 0.66896(10)
C9 C 0.1131(2) 0.75016(6) 0.73036(9)
H4 H -0.0059 0.7448 0.7545
C10 C 0.23860(19) 0.80078(6) 0.75487(9)
C11 C 0.40745(19) 0.79790(6) 0.71212(9)
C12 C 0.5825(2) 0.83842(8) 0.72273(12)
H5 H 0.5702 0.8712 0.6783
H6 H 0.6952 0.8144 0.7129
H7 H 0.5942 0.8555 0.7838
C13 C 0.19373(18) 0.84961(6) 0.82046(8)
C14 C 0.22222(18) 0.91096(6) 0.81520(8)
C15 C 0.28329(18) 0.94848(5) 0.73772(8)
C16 C 0.20118(18) 0.94493(6) 0.64967(9)
C17 C 0.0348(2) 0.90649(7) 0.61052(10)
H8 H 0.0804 0.8663 0.5950
H9 H -0.0235 0.9261 0.5561
H10 H -0.0589 0.9026 0.6554
C18 C 0.43252(19) 0.99374(6) 0.74792(9)
H11 H 0.5009 1.0021 0.8039
C19 C 0.46566(18) 1.02350(6) 0.66816(9)
C20 C 0.62270(17) 1.06838(6) 0.65590(9)
C21 C 0.8019(2) 1.05817(7) 0.70357(10)
H12 H 0.8196 1.0228 0.7395
C22 C 0.9530(2) 1.09885(7) 0.69890(12)
H13 H 1.0705 1.0908 0.7315
C23 C 0.9303(2) 1.15120(7) 0.64615(11)
H14 H 1.0318 1.1789 0.6435
C24 C 0.7578(2) 1.16253(6) 0.59739(10)
H15 H 0.7427 1.1978 0.5611
C25 C 0.60573(19) 1.12160(6) 0.60199(9)
C4? C 0.1212(6) 0.8297(2) 0.9104(3)
F7? F 0.2813(9) 0.8034(4) 0.9535(6)
F8? F -0.0503(8) 0.7993(4) 0.9073(7)
C5? C 0.0962(7) 0.8911(2) 0.9611(3)
F9? F 0.2315(10) 0.8966(4) 1.0329(4)
F10? F -0.0714(8) 0.8986(5) 1.0023(6)
C6? C 0.1390(7) 0.9430(2) 0.8948(3)
F11? F 0.2530(11) 0.9888(3) 0.9325(6)
F12? F -0.0294(9) 0.9738(4) 0.8753(6)
loop_
_geom_bond_atom_site_label_1
_geom_bond_atom_site_label_2
_geom_bond_site_symmetry_1
_geom_bond_site_symmetry_2
C1 F1 1_555 1_555
F2 C1 1_555 1_555
C2 C1 1_555 1_555
F3 C2 1_555 1_555
F4 C2 1_555 1_555
C3 C2 1_555 1_555
F5 C3 1_555 1_555
F6 C3 1_555 1_555
S1 C8 1_555 1_555
S2 C16 1_555 1_555
Cl1 C25 1_555 1_555
C7 H1 1_555 1_555
H2 C7 1_555 1_555
H3 C7 1_555 1_555
C8 C7 1_555 1_555
C9 C8 1_555 1_555
H4 C9 1_555 1_555
C10 C9 1_555 1_555
C11 S1 1_555 1_555
C12 C11 1_555 1_555
H5 C12 1_555 1_555
H6 C12 1_555 1_555
H7 C12 1_555 1_555
C13 C1 1_555 1_555
C14 C3 1_555 1_555
C15 C14 1_555 1_555
C16 C15 1_555 1_555
C17 C16 1_555 1_555
H8 C17 1_555 1_555
H9 C17 1_555 1_555
H10 C17 1_555 1_555
C18 C15 1_555 1_555
H11 C18 1_555 1_555
C19 S2 1_555 1_555
C20 C19 1_555 1_555
C21 C20 1_555 1_555
H12 C21 1_555 1_555
C22 C21 1_555 1_555
H13 C22 1_555 1_555
C23 C22 1_555 1_555
H14 C23 1_555 1_555
C24 C23 1_555 1_555
H15 C24 1_555 1_555
C25 C20 1_555 1_555
C10 C11 1_555 1_555
C10 C13 1_555 1_555
C13 C14 1_555 1_555
C18 C19 1_555 1_555
C24 C25 1_555 1_555

#END
