
#######################################################################
#
#                 Cambridge Crystallographic Data Centre
#                                CCDC 
#
#######################################################################
#
# If this CIF has been generated from an entry in the Cambridge 
# Structural Database, then it will include bibliographic, chemical, 
# crystal, experimental, refinement or atomic coordinate data resulting 
# from the CCDC's data processing and validation procedures.
#
#######################################################################

data_YEYJES
_chemical_formula_moiety         'H4 B5 O10 1-,C4 H12 N1 1+'
_chemical_name_systematic        
'n-butylammonium 1,3,5,7,9,11-hexaoxa-2,4,8,10-tetrabora-6-boroniaspiro(5.5)undecane-2,4,8,10-tetraol'
_symmetry_cell_setting           monoclinic
_symmetry_space_group_name_H-M   'P 21/c'
_symmetry_Int_Tables_number      14
_space_group_name_Hall           '-P 2ybc'
loop_
_symmetry_equiv_pos_site_id
_symmetry_equiv_pos_as_xyz
1 x,y,z
2 -x,1/2+y,1/2-z
3 -x,-y,-z
4 x,1/2-y,1/2+z
_cell_length_a                   9.4025(3)
_cell_length_b                   13.6395(5)
_cell_length_c                   10.5395(4)
_cell_angle_alpha                90
_cell_angle_beta                 91.956(2)
_cell_angle_gamma                90
_cell_volume                     1350.85
_exptl_crystal_colour            colorless
_exptl_crystal_description       prism
_cell_formula_units_Z            4
loop_
_atom_site_label
_atom_site_type_symbol
_atom_site_fract_x
_atom_site_fract_y
_atom_site_fract_z
B1 B 0.0323(2) 0.58159(17) 0.6157(2)
B2 B 0.1088(2) 0.69954(18) 0.4665(2)
B3 B 0.2839(2) 0.63088(17) 0.6218(2)
B4 B 0.4477(2) 0.72477(19) 0.7629(2)
B5 B 0.5445(2) 0.60862(18) 0.6211(2)
O1 O -0.06989(16) 0.52391(13) 0.66212(17)
H1 H -0.153(3) 0.539(2) 0.638(3)
O2 O -0.00107(14) 0.65537(11) 0.52945(14)
O3 O 0.07000(17) 0.75306(15) 0.36319(17)
H2 H 0.144(3) 0.773(3) 0.331(3)
O4 O 0.16983(14) 0.56360(10) 0.65255(13)
O5 O 0.24580(14) 0.68808(11) 0.50745(13)
O6 O 0.41180(13) 0.57348(11) 0.59378(13)
O7 O 0.31394(14) 0.69643(11) 0.73020(13)
O8 O 0.47914(18) 0.79119(15) 0.85489(18)
H3 H 0.403(3) 0.806(3) 0.889(3)
O9 O 0.56443(15) 0.68716(12) 0.70213(16)
O10 O 0.66077(15) 0.56716(13) 0.57112(16)
H4 H 0.640(3) 0.5212(19) 0.521(3)
N1 N 0.7878(2) 0.85780(18) 0.7948(2)
H5 H 0.8493 0.8237 0.8433
H6 H 0.7015 0.8316 0.7996
H7 H 0.7858 0.9196 0.8216
C1 C 0.8319(4) 0.8553(3) 0.6627(3)
H8 H 0.8344 0.7879 0.6334
H9 H 0.9269 0.8824 0.6575
C2 C 0.7314(6) 0.9127(6) 0.5807(5)
H10 H 0.6632 0.8667 0.5435
H11 H 0.6789 0.9554 0.6360
C3 C 0.7784(8) 0.9687(7) 0.4856(10)
H12 H 0.8207 0.9240 0.4259
H13 H 0.8559 1.0077 0.5218
C4 C 0.6922(7) 1.0340(4) 0.4118(5)
H14 H 0.7468 1.0610 0.3450
H15 H 0.6595 1.0860 0.4649
H16 H 0.6118 0.9991 0.3758
loop_
_geom_bond_atom_site_label_1
_geom_bond_atom_site_label_2
_geom_bond_site_symmetry_1
_geom_bond_site_symmetry_2
B1 O1 1_555 1_555
B2 O2 1_555 1_555
B3 O4 1_555 1_555
B4 O7 1_555 1_555
B5 O6 1_555 1_555
O1 H1 1_555 1_555
O2 B1 1_555 1_555
O3 B2 1_555 1_555
H2 O3 1_555 1_555
O4 B1 1_555 1_555
O5 B2 1_555 1_555
O6 B3 1_555 1_555
O7 B3 1_555 1_555
O8 B4 1_555 1_555
H3 O8 1_555 1_555
O9 B4 1_555 1_555
O10 B5 1_555 1_555
H4 O10 1_555 1_555
N1 H5 1_555 1_555
H6 N1 1_555 1_555
H7 N1 1_555 1_555
C1 N1 1_555 1_555
H8 C1 1_555 1_555
H9 C1 1_555 1_555
C2 C1 1_555 1_555
H10 C2 1_555 1_555
H11 C2 1_555 1_555
C3 C2 1_555 1_555
H12 C3 1_555 1_555
H13 C3 1_555 1_555
C4 C3 1_555 1_555
H14 C4 1_555 1_555
H15 C4 1_555 1_555
H16 C4 1_555 1_555
B3 O5 1_555 1_555
B5 O9 1_555 1_555

#END
