
#######################################################################
#
#                 Cambridge Crystallographic Data Centre
#                                CCDC 
#
#######################################################################
#
# If this CIF has been generated from an entry in the Cambridge 
# Structural Database, then it will include bibliographic, chemical, 
# crystal, experimental, refinement or atomic coordinate data resulting 
# from the CCDC's data processing and validation procedures.
#
#######################################################################

data_YEYLOE
_chemical_formula_moiety         'C16 H24 O8 P2'
_chemical_name_systematic        
1,3-Bis(5,5-dimethyl-2-oxo-1,3,2-dioxaphosphinan-2-yloxy)benzene
_symmetry_cell_setting           monoclinic
_symmetry_space_group_name_H-M   'C 2'
_symmetry_Int_Tables_number      5
_space_group_name_Hall           'C 2y'
loop_
_symmetry_equiv_pos_site_id
_symmetry_equiv_pos_as_xyz
1 x,y,z
2 -x,y,-z
3 1/2+x,1/2+y,z
4 1/2-x,1/2+y,-z
_cell_length_a                   22.646(7)
_cell_length_b                   6.3642(19)
_cell_length_c                   13.795(4)
_cell_angle_alpha                90
_cell_angle_beta                 97.960(5)
_cell_angle_gamma                90
_cell_volume                     1969.03
_exptl_crystal_colour            colorless
_exptl_crystal_description       block
_chemical_melting_point          '440-441 K'
_cell_formula_units_Z            4
_exptl_crystal_recrystallization_method methanol
loop_
_atom_site_label
_atom_site_type_symbol
_atom_site_fract_x
_atom_site_fract_y
_atom_site_fract_z
P1 P 0.15579(4) 0.49939(14) 0.77068(6)
P2 P 0.35661(4) 1.07726(15) 0.73116(7)
O1 O 0.35727(10) 1.3176(4) 0.71174(19)
O2 O 0.42261(10) 1.0054(4) 0.75199(18)
O3 O 0.32272(13) 0.9572(5) 0.65332(18)
O4 O 0.33239(9) 1.0669(4) 0.83365(16)
O5 O 0.21873(9) 0.4247(3) 0.82426(15)
O6 O 0.12545(11) 0.6548(4) 0.82339(19)
O7 O 0.16639(9) 0.5780(4) 0.66651(15)
O8 O 0.12251(9) 0.2856(4) 0.75398(16)
C1 C 0.31938(14) 0.8732(5) 0.8745(2)
C2 C 0.35035(14) 0.8160(6) 0.9643(2)
H1 H 0.3795 0.9036 0.9966
C3 C 0.33704(14) 0.6258(6) 1.0049(2)
H2 H 0.3583 0.5845 1.0644
C4 C 0.29298(13) 0.4962(6) 0.9590(2)
H3 H 0.2840 0.3694 0.9872
C5 C 0.26243(12) 0.5595(5) 0.8701(2)
C6 C 0.27515(13) 0.7473(5) 0.8265(2)
H4 H 0.2544 0.7873 0.7664
C7 C 0.46504(16) 1.1373(6) 0.8122(3)
H5 H 0.5048 1.0792 0.8139
H6 H 0.4555 1.1390 0.8786
C8 C 0.46417(16) 1.3613(6) 0.7730(3)
C9 C 0.40189(15) 1.4495(5) 0.7693(3)
H7 H 0.3923 1.4617 0.8354
H8 H 0.4006 1.5892 0.7410
C10 C 0.48418(18) 1.3620(7) 0.6718(3)
H9 H 0.4584 1.2726 0.6287
H10 H 0.5244 1.3112 0.6768
H11 H 0.4823 1.5026 0.6464
C11 C 0.50673(19) 1.4964(8) 0.8431(3)
H12 H 0.5041 1.6401 0.8218
H13 H 0.5468 1.4471 0.8437
H14 H 0.4960 1.4867 0.9079
C12 C 0.14493(16) 0.1357(5) 0.6874(2)
H15 H 0.1193 0.0131 0.6805
H16 H 0.1846 0.0903 0.7151
C13 C 0.14728(14) 0.2326(5) 0.5865(2)
C14 C 0.18739(16) 0.4259(5) 0.5995(2)
H17 H 0.2277 0.3830 0.6248
H18 H 0.1883 0.4919 0.5364
C15 C 0.17527(19) 0.0693(7) 0.5247(3)
H19 H 0.2148 0.0360 0.5556
H20 H 0.1772 0.1256 0.4606
H21 H 0.1513 -0.0557 0.5192
C16 C 0.08498(16) 0.2922(7) 0.5378(3)
H22 H 0.0601 0.1695 0.5314
H23 H 0.0873 0.3501 0.4742
H24 H 0.0682 0.3948 0.5772
loop_
_geom_bond_atom_site_label_1
_geom_bond_atom_site_label_2
_geom_bond_site_symmetry_1
_geom_bond_site_symmetry_2
P1 O5 1_555 1_555
P2 O1 1_555 1_555
O1 C9 1_555 1_555
O2 P2 1_555 1_555
O3 P2 1_555 1_555
O4 P2 1_555 1_555
O5 C5 1_555 1_555
O6 P1 1_555 1_555
O7 P1 1_555 1_555
O8 P1 1_555 1_555
C1 O4 1_555 1_555
C2 C1 1_555 1_555
H1 C2 1_555 1_555
C3 C2 1_555 1_555
H2 C3 1_555 1_555
C4 C3 1_555 1_555
H3 C4 1_555 1_555
C5 C4 1_555 1_555
C6 C1 1_555 1_555
H4 C6 1_555 1_555
C7 O2 1_555 1_555
H5 C7 1_555 1_555
H6 C7 1_555 1_555
C8 C7 1_555 1_555
C9 C8 1_555 1_555
H7 C9 1_555 1_555
H8 C9 1_555 1_555
C10 C8 1_555 1_555
H9 C10 1_555 1_555
H10 C10 1_555 1_555
H11 C10 1_555 1_555
C11 C8 1_555 1_555
H12 C11 1_555 1_555
H13 C11 1_555 1_555
H14 C11 1_555 1_555
C12 O8 1_555 1_555
H15 C12 1_555 1_555
H16 C12 1_555 1_555
C13 C12 1_555 1_555
C14 O7 1_555 1_555
H17 C14 1_555 1_555
H18 C14 1_555 1_555
C15 C13 1_555 1_555
H19 C15 1_555 1_555
H20 C15 1_555 1_555
H21 C15 1_555 1_555
C16 C13 1_555 1_555
H22 C16 1_555 1_555
H23 C16 1_555 1_555
H24 C16 1_555 1_555
C5 C6 1_555 1_555
C13 C14 1_555 1_555

#END
