
#######################################################################
#
#                 Cambridge Crystallographic Data Centre
#                                CCDC 
#
#######################################################################
#
# If this CIF has been generated from an entry in the Cambridge 
# Structural Database, then it will include bibliographic, chemical, 
# crystal, experimental, refinement or atomic coordinate data resulting 
# from the CCDC's data processing and validation procedures.
#
#######################################################################

data_YEYMOF
_chemical_formula_moiety         'C7 H7 Cl1 N2 O1,H2 O1'
_chemical_name_systematic        '2-Chlorobenzamide oxime monohydrate'
_symmetry_cell_setting           triclinic
_symmetry_space_group_name_H-M   'P -1'
_symmetry_Int_Tables_number      2
_space_group_name_Hall           '-P 1'
loop_
_symmetry_equiv_pos_site_id
_symmetry_equiv_pos_as_xyz
1 x,y,z
2 -x,-y,-z
_cell_length_a                   4.5550(9)
_cell_length_b                   6.8790(14)
_cell_length_c                   28.715(6)
_cell_angle_alpha                91.37(3)
_cell_angle_beta                 90.58(3)
_cell_angle_gamma                101.21(3)
_cell_volume                     882.233
_exptl_crystal_colour            colorless
_exptl_crystal_description       Block
_cell_formula_units_Z            4
_exptl_crystal_recrystallization_method ethanol/water
loop_
_atom_site_label
_atom_site_type_symbol
_atom_site_fract_x
_atom_site_fract_y
_atom_site_fract_z
Cl1 Cl 0.9380(3) 0.7952(2) 0.18711(5)
O1 O 0.8447(7) 0.8236(5) 0.02415(12)
H1 H 0.9386 0.7844 0.0028
N1 N 0.7731(9) 0.6717(6) 0.05754(14)
N2 N 0.5639(10) 0.9155(6) 0.09474(15)
H2 H 0.6237 1.0013 0.0739
H3 H 0.4640 0.9466 0.1181
C1 C 0.3035(14) 0.3098(9) 0.1938(2)
H4 H 0.2292 0.2182 0.2162
C2 C 0.5406(13) 0.4666(8) 0.20535(19)
H7 H 0.6283 0.4785 0.2349
C3 C 0.6401(10) 0.6019(7) 0.17201(18)
C4 C 0.5208(10) 0.5874(7) 0.12706(16)
C5 C 0.2849(11) 0.4281(7) 0.11657(19)
H10 H 0.1980 0.4148 0.0869
C6 C 0.1803(13) 0.2906(8) 0.1499(2)
H11 H 0.0256 0.1846 0.1423
C7 C 0.6262(10) 0.7332(7) 0.09087(15)
O2 O 1.7002(8) 0.7600(5) 0.47294(13)
H5 H 1.738(12) 0.879(4) 0.4640(19)
H6 H 1.553(9) 0.738(8) 0.4912(16)
O3 O 1.2912(8) 0.7326(5) -0.02720(14)
H8 H 1.455(8) 0.774(8) -0.0124(18)
H9 H 1.258(13) 0.611(4) -0.0360(19)
Cl2 Cl 1.8870(3) 1.2496(2) 0.31202(5)
O4 O 1.8408(7) 1.3190(5) 0.47555(12)
H12 H 1.9395 1.2853 0.4969
N3 N 1.5401(10) 1.3930(6) 0.40517(15)
H13 H 1.6025 1.4844 0.4259
H14 H 1.4350 1.4173 0.3817
N4 N 1.7610(8) 1.1585(5) 0.44259(14)
C8 C 1.1429(12) 0.7540(8) 0.3520(2)
H15 H 0.9905 0.6499 0.3600
C9 C 1.2526(13) 0.7611(8) 0.3080(2)
H16 H 1.1744 0.6616 0.2863
C10 C 1.4775(13) 0.9137(8) 0.29526(19)
H17 H 1.5489 0.9190 0.2650
C11 C 1.5971(10) 1.0606(7) 0.32842(17)
C12 C 1.4879(9) 1.0573(6) 0.37344(16)
C13 C 1.2557(11) 0.8991(7) 0.38454(19)
H18 H 1.1776 0.8929 0.4144
C14 C 1.6068(10) 1.2124(7) 0.40939(16)
loop_
_geom_bond_atom_site_label_1
_geom_bond_atom_site_label_2
_geom_bond_site_symmetry_1
_geom_bond_site_symmetry_2
Cl1 C3 1_555 1_555
O1 H1 1_555 1_555
N1 O1 1_555 1_555
N2 H2 1_555 1_555
H3 N2 1_555 1_555
C1 H4 1_555 1_555
O2 H5 1_555 1_555
H6 O2 1_555 1_555
C2 C1 1_555 1_555
H7 C2 1_555 1_555
O3 H8 1_555 1_555
H9 O3 1_555 1_555
C3 C2 1_555 1_555
C4 C3 1_555 1_555
C5 C4 1_555 1_555
H10 C5 1_555 1_555
C6 C1 1_555 1_555
H11 C6 1_555 1_555
C7 N1 1_555 1_555
Cl2 C11 1_555 1_555
O4 H12 1_555 1_555
N3 H13 1_555 1_555
H14 N3 1_555 1_555
N4 O4 1_555 1_555
C8 H15 1_555 1_555
C9 C8 1_555 1_555
H16 C9 1_555 1_555
C10 C9 1_555 1_555
H17 C10 1_555 1_555
C11 C10 1_555 1_555
C12 C11 1_555 1_555
C13 C8 1_555 1_555
H18 C13 1_555 1_555
C14 N3 1_555 1_555
N2 C7 1_555 1_555
C4 C7 1_555 1_555
C5 C6 1_555 1_555
N4 C14 1_555 1_555
C12 C13 1_555 1_555
C12 C14 1_555 1_555

#END
