
#######################################################################
#
#                 Cambridge Crystallographic Data Centre
#                                CCDC 
#
#######################################################################
#
# If this CIF has been generated from an entry in the Cambridge 
# Structural Database, then it will include bibliographic, chemical, 
# crystal, experimental, refinement or atomic coordinate data resulting 
# from the CCDC's data processing and validation procedures.
#
#######################################################################

data_YEYMAR
_chemical_formula_moiety         'C7 H7 N3 O3'
_chemical_name_systematic        4-Nitrobenzamidoxime
_symmetry_cell_setting           orthorhombic
_symmetry_space_group_name_H-M   'P b c a'
_symmetry_Int_Tables_number      61
_space_group_name_Hall           '-P 2ac 2ab'
loop_
_symmetry_equiv_pos_site_id
_symmetry_equiv_pos_as_xyz
1 x,y,z
2 1/2-x,-y,1/2+z
3 -x,1/2+y,1/2-z
4 1/2+x,1/2-y,-z
5 -x,-y,-z
6 1/2+x,y,1/2-z
7 x,1/2-y,1/2+z
8 1/2-x,1/2+y,z
_cell_length_a                   11.320(2)
_cell_length_b                   7.7760(16)
_cell_length_c                   18.802(4)
_cell_angle_alpha                90
_cell_angle_beta                 90
_cell_angle_gamma                90
_cell_volume                     1655.03
_exptl_crystal_colour            yellow
_exptl_crystal_description       needle
_cell_formula_units_Z            8
_exptl_crystal_recrystallization_method ethanol
loop_
_atom_site_label
_atom_site_type_symbol
_atom_site_fract_x
_atom_site_fract_y
_atom_site_fract_z
O1 O 0.9024(5) 0.6715(7) 0.7919(2)
O2 O 0.7158(4) 0.6684(7) 0.7834(2)
O3 O 0.9286(3) 0.0706(4) 0.42984(17)
H1 H 0.9804 -0.0031 0.4288
N1 N 0.8142(5) 0.6312(6) 0.7614(3)
N2 N 0.7734(4) 0.3039(6) 0.4462(2)
H2 H 0.7757 0.2425 0.4082
H3 H 0.7207 0.3827 0.4508
N3 N 0.9341(3) 0.1610(5) 0.4959(2)
C1 C 0.9424(4) 0.4292(6) 0.6009(3)
H4 H 1.0162 0.4080 0.5810
C2 C 0.9355(5) 0.5134(7) 0.6647(3)
H5 H 1.0030 0.5503 0.6884
C3 C 0.8240(5) 0.5413(6) 0.6923(3)
C4 C 0.7217(4) 0.4899(7) 0.6584(3)
H6 H 0.6479 0.5118 0.6782
C5 C 0.7323(4) 0.4057(6) 0.5947(2)
H7 H 0.6647 0.3691 0.5710
C6 C 0.8417(4) 0.3747(6) 0.5654(2)
C7 C 0.8521(4) 0.2766(6) 0.4983(3)
loop_
_geom_bond_atom_site_label_1
_geom_bond_atom_site_label_2
_geom_bond_site_symmetry_1
_geom_bond_site_symmetry_2
O1 N1 1_555 1_555
O2 N1 1_555 1_555
O3 H1 1_555 1_555
N1 C3 1_555 1_555
N2 H2 1_555 1_555
H3 N2 1_555 1_555
N3 O3 1_555 1_555
C1 H4 1_555 1_555
C2 C1 1_555 1_555
H5 C2 1_555 1_555
C3 C2 1_555 1_555
C4 C3 1_555 1_555
H6 C4 1_555 1_555
C5 C4 1_555 1_555
H7 C5 1_555 1_555
C6 C1 1_555 1_555
C7 N2 1_555 1_555
N3 C7 1_555 1_555
C5 C6 1_555 1_555
C6 C7 1_555 1_555

#END
