
#######################################################################
#
#                 Cambridge Crystallographic Data Centre
#                                CCDC 
#
#######################################################################
#
# If this CIF has been generated from an entry in the Cambridge 
# Structural Database, then it will include bibliographic, chemical, 
# crystal, experimental, refinement or atomic coordinate data resulting 
# from the CCDC's data processing and validation procedures.
#
#######################################################################

data_YEYPOJ
_chemical_formula_moiety         'C75 H100 O20'
_chemical_name_systematic        
"Pentamethyl 2,2',2'',2''',2''''-((26,28,30,32,34-pentakis(pentoxy)hexacyclo[21.2.2.2^3,6^.2^8,11^.2^13,16^.2^18,21^]pentatriaconta-1(25),3,5,8,10,13,15,18,20,23,26,28,30,32,34-pentadecaene-4,9,14,19,24-pentayl)pentakis(oxy))pentaacetate unknown solvate"
_symmetry_cell_setting           monoclinic
_symmetry_space_group_name_H-M   'P 21/n'
_symmetry_Int_Tables_number      14
_space_group_name_Hall           '-P 2yn'
loop_
_symmetry_equiv_pos_site_id
_symmetry_equiv_pos_as_xyz
1 x,y,z
2 1/2-x,1/2+y,1/2-z
3 -x,-y,-z
4 1/2+x,1/2-y,1/2+z
_cell_length_a                   21.5208(8)
_cell_length_b                   19.0796(5)
_cell_length_c                   22.3223(8)
_cell_angle_alpha                90
_cell_angle_beta                 114.517(4)
_cell_angle_gamma                90
_cell_volume                     8339.32
_exptl_crystal_colour            colorless
_exptl_crystal_description       block
_cell_formula_units_Z            4
loop_
_atom_site_label
_atom_site_type_symbol
_atom_site_fract_x
_atom_site_fract_y
_atom_site_fract_z
O1 O 0.48776(8) 0.01424(8) 0.35023(7)
O2 O 0.72347(8) 0.11429(9) 0.33767(8)
O3 O 0.36286(9) -0.01705(10) 0.33734(8)
O4 O 0.38546(8) 0.02408(9) 0.43864(8)
O5 O 0.61507(8) 0.21127(8) 0.49734(8)
O6 O 0.70580(8) 0.38155(8) 0.34955(8)
O7 O 0.55237(10) 0.12266(9) 0.54662(9)
O8 O 0.53360(14) 0.20969(10) 0.60413(13)
O9 O 0.48984(8) 0.43656(9) 0.39843(7)
O10 O 0.50401(8) 0.47255(9) 0.15801(7)
O11 O 0.38447(11) 0.41684(16) 0.48321(11)
O12 O 0.49641(9) 0.40601(9) 0.51282(8)
O13 O 0.28588(8) 0.37491(9) 0.18560(8)
O14 O 0.39168(9) 0.25838(9) 0.02104(9)
O15 O 0.27090(9) 0.41533(11) 0.29306(9)
O16 O 0.18044(12) 0.34480(11) 0.26823(11)
O17 O 0.28901(8) 0.11686(9) 0.15991(8)
O18 O 0.52027(8) 0.03469(9) 0.12868(7)
O19 O 0.18027(10) 0.16759(12) 0.17255(10)
O20 O 0.20038(13) 0.10087(12) 0.26142(13)
C1 C 0.50534(11) -0.01852(11) 0.23776(10)
H1 H 0.4827 -0.0512 0.2554
H2 H 0.5278 -0.0454 0.2156
C2 C 0.55828(10) 0.02251(10) 0.29363(10)
C3 C 0.54811(10) 0.03880(11) 0.34968(10)
C4 C 0.59572(11) 0.07810(11) 0.40038(10)
H3 H 0.5883 0.0877 0.4377
C5 C 0.65422(10) 0.10321(10) 0.39602(10)
C6 C 0.66441(10) 0.08746(11) 0.33972(10)
C7 C 0.61726(11) 0.04716(11) 0.28957(10)
H4 H 0.6253 0.0365 0.2527
C8 C 0.47314(11) 0.03271(13) 0.40407(11)
H5 H 0.4771 0.0830 0.4109
H6 H 0.5049 0.0099 0.4438
C9 C 0.40145(11) 0.00924(13) 0.38816(11)
C10 C 0.31817(14) 0.00264(19) 0.43038(16)
H7 H 0.2845 0.0282 0.3946
H8 H 0.3126 0.0120 0.4701
H9 H 0.3126 -0.0466 0.4210
C11 C 0.73421(12) 0.10254(13) 0.27977(12)
H10 H 0.6976 0.1238 0.2422
H11 H 0.7345 0.0526 0.2717
C12 C 0.80146(13) 0.13428(14) 0.28891(14)
H12 H 0.8376 0.1130 0.3269
H13 H 0.8008 0.1840 0.2977
C13 C 0.81711(15) 0.12433(15) 0.22919(15)
H14 H 0.8117 0.0752 0.2171
H15 H 0.7840 0.1505 0.1927
C14 C 0.88797(18) 0.14737(16) 0.2395(2)
H16 H 0.9210 0.1174 0.2724
H17 H 0.8953 0.1948 0.2566
C15 C 0.9011(2) 0.14548(17) 0.1778(2)
H18 H 0.8689 0.1752 0.1448
H19 H 0.8962 0.0983 0.1615
H20 H 0.9466 0.1617 0.1880
C16 C 0.70331(10) 0.14988(11) 0.44937(10)
H21 H 0.7487 0.1449 0.4507
H22 H 0.7051 0.1354 0.4917
C17 C 0.68155(10) 0.22583(11) 0.43716(10)
C18 C 0.63822(10) 0.25547(11) 0.46188(10)
C19 C 0.61968(10) 0.32611(11) 0.45083(10)
H23 H 0.5916 0.3453 0.4689
C20 C 0.64253(10) 0.36791(11) 0.41333(9)
C21 C 0.68480(10) 0.33788(11) 0.38680(10)
C22 C 0.70452(11) 0.26799(11) 0.39919(10)
H24 H 0.7334 0.2490 0.3820
C23 C 0.57838(12) 0.24171(12) 0.53020(12)
H25 H 0.5400 0.2683 0.4995
H26 H 0.6076 0.2732 0.5644
C24 C 0.55362(12) 0.18347(13) 0.55979(12)
C25 C 0.5101(2) 0.15949(19) 0.6387(2)
H27 H 0.4704 0.1358 0.6079
H28 H 0.4989 0.1835 0.6707
H29 H 0.5456 0.1259 0.6606
C26 C 0.74639(14) 0.35242(13) 0.31931(13)
H30 H 0.7229 0.3133 0.2913
H31 H 0.7896 0.3358 0.3525
C27 C 0.75831(15) 0.40999(15) 0.27889(14)
H32 H 0.7894 0.4440 0.3085
H33 H 0.7153 0.4336 0.2542
C28 C 0.7875(2) 0.38485(19) 0.2310(2)
H34 H 0.7562 0.3508 0.2015
H35 H 0.7893 0.4244 0.2045
C29 C 0.8533(2) 0.3543(2) 0.2603(2)
H36 H 0.8514 0.3115 0.2830
H37 H 0.8846 0.3864 0.2924
C30 C 0.8795(2) 0.3374(2) 0.2055(3)
H38 H 0.8454 0.3108 0.1709
H39 H 0.9209 0.3106 0.2244
H40 H 0.8881 0.3804 0.1879
C31 C 0.62006(11) 0.44390(11) 0.40011(10)
H41 H 0.6121 0.4622 0.4369
H42 H 0.6561 0.4714 0.3962
C32 C 0.55540(11) 0.45073(11) 0.33753(10)
C33 C 0.49092(11) 0.44619(11) 0.33721(10)
C34 C 0.43233(11) 0.45057(11) 0.27868(10)
H43 H 0.3896 0.4480 0.2796
C35 C 0.43716(11) 0.45879(11) 0.21859(11)
C36 C 0.50182(11) 0.46336(11) 0.21881(10)
C37 C 0.55962(11) 0.45993(11) 0.27740(11)
H44 H 0.6024 0.4639 0.2767
C38 C 0.42577(13) 0.43577(15) 0.40136(12)
H45 H 0.3968 0.4008 0.3710
H46 H 0.4040 0.4811 0.3880
C39 C 0.43329(14) 0.41929(15) 0.47017(13)
C40 C 0.50251(17) 0.38811(16) 0.57796(14)
H47 H 0.4777 0.3457 0.5759
H48 H 0.4841 0.4254 0.5945
H49 H 0.5498 0.3814 0.6067
C41 C 0.56923(12) 0.46502(14) 0.15656(11)
H50 H 0.5877 0.4190 0.1729
H51 H 0.6003 0.4999 0.1849
C42 C 0.56315(12) 0.47383(14) 0.08743(11)
H52 H 0.5455 0.5202 0.0714
H53 H 0.5312 0.4396 0.0589
C43 C 0.63191(13) 0.46444(16) 0.08498(12)
H54 H 0.6627 0.4998 0.1130
H55 H 0.6500 0.4191 0.1039
C44 C 0.63323(14) 0.46872(19) 0.01903(13)
H56 H 0.6142 0.5135 -0.0007
H57 H 0.6040 0.4322 -0.0087
C45 C 0.70325(15) 0.46124(19) 0.01974(14)
H58 H 0.7001 0.4666 -0.0242
H59 H 0.7213 0.4157 0.0362
H60 H 0.7329 0.4967 0.0476
C46 C 0.37347(11) 0.45918(11) 0.15481(10)
H61 H 0.3811 0.4884 0.1230
H62 H 0.3361 0.4794 0.1625
C47 C 0.35377(10) 0.38611(11) 0.12670(10)
C48 C 0.30957(10) 0.34487(12) 0.14312(10)
C49 C 0.29304(11) 0.27696(12) 0.11807(10)
H63 H 0.2626 0.2506 0.1285
C50 C 0.32123(11) 0.24806(11) 0.07777(10)
C51 C 0.36529(11) 0.28939(12) 0.06157(10)
C52 C 0.38077(11) 0.35760(12) 0.08556(10)
H64 H 0.4099 0.3846 0.0737
C53 C 0.23727(14) 0.33803(14) 0.19992(13)
H65 H 0.2509 0.2894 0.2095
H66 H 0.1932 0.3395 0.1625
C54 C 0.23258(13) 0.37199(13) 0.25878(13)
C55 C 0.1735(2) 0.36919(18) 0.3267(2)
H67 H 0.1346 0.3472 0.3294
H68 H 0.1673 0.4191 0.3244
H69 H 0.2139 0.3574 0.3651
C56 C 0.43213(16) 0.29975(15) -0.00164(14)
H70 H 0.4721 0.3170 0.0354
H71 H 0.4060 0.3397 -0.0262
C57 C 0.45357(17) 0.25494(16) -0.04508(15)
H72 H 0.4132 0.2386 -0.0822
H73 H 0.4778 0.2142 -0.0205
C58 C 0.4990(2) 0.29406(19) -0.0703(2)
H74 H 0.4736 0.3332 -0.0969
H75 H 0.5376 0.3131 -0.0330
C59 C 0.5257(2) 0.2503(2) -0.1108(2)
H76 H 0.4874 0.2303 -0.1478
H77 H 0.5525 0.2119 -0.0840
C60 C 0.5696(3) 0.2925(3) -0.1367(3)
H78 H 0.5439 0.3317 -0.1618
H79 H 0.5830 0.2632 -0.1643
H80 H 0.6096 0.3092 -0.1003
C61 C 0.30548(11) 0.17321(11) 0.05349(10)
H81 H 0.3062 0.1695 0.0105
H82 H 0.2600 0.1610 0.0489
C62 C 0.35667(11) 0.12213(11) 0.10046(10)
C63 C 0.34725(11) 0.09493(11) 0.15416(10)
C64 C 0.39461(11) 0.04902(11) 0.19744(10)
H83 H 0.3876 0.0311 0.2329
C65 C 0.45267(10) 0.02926(11) 0.18858(10)
C66 C 0.46208(11) 0.05643(11) 0.13497(10)
C67 C 0.41428(11) 0.10208(11) 0.09148(10)
H84 H 0.4210 0.1195 0.0557
C68 C 0.27583(14) 0.08919(14) 0.21190(14)
H85 H 0.3142 0.0981 0.2537
H86 H 0.2688 0.0389 0.2066
C69 C 0.21327(13) 0.12401(13) 0.21035(14)
C70 C 0.1438(2) 0.1339(2) 0.2686(2)
H87 H 0.1024 0.1238 0.2306
H88 H 0.1509 0.1836 0.2726
H89 H 0.1402 0.1162 0.3073
C71 C 0.53523(12) 0.06488(13) 0.07781(11)
H90 H 0.5390 0.1154 0.0828
H91 H 0.4991 0.0542 0.0351
C72 C 0.60190(12) 0.03425(14) 0.08317(12)
H92 H 0.5984 -0.0165 0.0820
H93 H 0.6377 0.0474 0.1253
C73 C 0.62186(13) 0.05821(14) 0.02874(12)
H94 H 0.6222 0.1090 0.0280
H95 H 0.5875 0.0423 -0.0132
C74 C 0.69128(13) 0.03140(17) 0.03631(13)
H96 H 0.7259 0.0479 0.0779
H97 H 0.6912 -0.0194 0.0376
C75 C 0.70992(16) 0.0549(2) -0.01895(16)
H98 H 0.6753 0.0399 -0.0604
H99 H 0.7530 0.0348 -0.0129
H100 H 0.7133 0.1051 -0.0186
loop_
_geom_bond_atom_site_label_1
_geom_bond_atom_site_label_2
_geom_bond_site_symmetry_1
_geom_bond_site_symmetry_2
O1 C3 1_555 1_555
O2 C6 1_555 1_555
O3 C9 1_555 1_555
O4 C9 1_555 1_555
O5 C18 1_555 1_555
O6 C21 1_555 1_555
O7 C24 1_555 1_555
O8 C24 1_555 1_555
O9 C33 1_555 1_555
O10 C36 1_555 1_555
O11 C39 1_555 1_555
O12 C39 1_555 1_555
O13 C48 1_555 1_555
O14 C51 1_555 1_555
O15 C54 1_555 1_555
O16 C54 1_555 1_555
O17 C63 1_555 1_555
O18 C66 1_555 1_555
O19 C69 1_555 1_555
O20 C69 1_555 1_555
C1 H1 1_555 1_555
H2 C1 1_555 1_555
C2 C1 1_555 1_555
C3 C2 1_555 1_555
C4 C3 1_555 1_555
H3 C4 1_555 1_555
C5 C4 1_555 1_555
C6 C5 1_555 1_555
C7 C2 1_555 1_555
H4 C7 1_555 1_555
C8 O1 1_555 1_555
H5 C8 1_555 1_555
H6 C8 1_555 1_555
C9 C8 1_555 1_555
C10 O4 1_555 1_555
H7 C10 1_555 1_555
H8 C10 1_555 1_555
H9 C10 1_555 1_555
C11 O2 1_555 1_555
H10 C11 1_555 1_555
H11 C11 1_555 1_555
C12 C11 1_555 1_555
H12 C12 1_555 1_555
H13 C12 1_555 1_555
C13 C12 1_555 1_555
H14 C13 1_555 1_555
H15 C13 1_555 1_555
C14 C13 1_555 1_555
H16 C14 1_555 1_555
H17 C14 1_555 1_555
C15 C14 1_555 1_555
H18 C15 1_555 1_555
H19 C15 1_555 1_555
H20 C15 1_555 1_555
C16 C5 1_555 1_555
H21 C16 1_555 1_555
H22 C16 1_555 1_555
C17 C16 1_555 1_555
C18 C17 1_555 1_555
C19 C18 1_555 1_555
H23 C19 1_555 1_555
C20 C19 1_555 1_555
C21 C20 1_555 1_555
C22 C17 1_555 1_555
H24 C22 1_555 1_555
C23 O5 1_555 1_555
H25 C23 1_555 1_555
H26 C23 1_555 1_555
C24 C23 1_555 1_555
C25 O8 1_555 1_555
H27 C25 1_555 1_555
H28 C25 1_555 1_555
H29 C25 1_555 1_555
C26 O6 1_555 1_555
H30 C26 1_555 1_555
H31 C26 1_555 1_555
C27 C26 1_555 1_555
H32 C27 1_555 1_555
H33 C27 1_555 1_555
C28 C27 1_555 1_555
H34 C28 1_555 1_555
H35 C28 1_555 1_555
C29 C28 1_555 1_555
H36 C29 1_555 1_555
H37 C29 1_555 1_555
C30 C29 1_555 1_555
H38 C30 1_555 1_555
H39 C30 1_555 1_555
H40 C30 1_555 1_555
C31 C20 1_555 1_555
H41 C31 1_555 1_555
H42 C31 1_555 1_555
C32 C31 1_555 1_555
C33 C32 1_555 1_555
C34 C33 1_555 1_555
H43 C34 1_555 1_555
C35 C34 1_555 1_555
C36 C35 1_555 1_555
C37 C32 1_555 1_555
H44 C37 1_555 1_555
C38 O9 1_555 1_555
H45 C38 1_555 1_555
H46 C38 1_555 1_555
C39 C38 1_555 1_555
C40 O12 1_555 1_555
H47 C40 1_555 1_555
H48 C40 1_555 1_555
H49 C40 1_555 1_555
C41 O10 1_555 1_555
H50 C41 1_555 1_555
H51 C41 1_555 1_555
C42 C41 1_555 1_555
H52 C42 1_555 1_555
H53 C42 1_555 1_555
C43 C42 1_555 1_555
H54 C43 1_555 1_555
H55 C43 1_555 1_555
C44 C43 1_555 1_555
H56 C44 1_555 1_555
H57 C44 1_555 1_555
C45 C44 1_555 1_555
H58 C45 1_555 1_555
H59 C45 1_555 1_555
H60 C45 1_555 1_555
C46 C35 1_555 1_555
H61 C46 1_555 1_555
H62 C46 1_555 1_555
C47 C46 1_555 1_555
C48 C47 1_555 1_555
C49 C48 1_555 1_555
H63 C49 1_555 1_555
C50 C49 1_555 1_555
C51 C50 1_555 1_555
C52 C47 1_555 1_555
H64 C52 1_555 1_555
C53 O13 1_555 1_555
H65 C53 1_555 1_555
H66 C53 1_555 1_555
C54 C53 1_555 1_555
C55 O16 1_555 1_555
H67 C55 1_555 1_555
H68 C55 1_555 1_555
H69 C55 1_555 1_555
C56 O14 1_555 1_555
H70 C56 1_555 1_555
H71 C56 1_555 1_555
C57 C56 1_555 1_555
H72 C57 1_555 1_555
H73 C57 1_555 1_555
C58 C57 1_555 1_555
H74 C58 1_555 1_555
H75 C58 1_555 1_555
C59 C58 1_555 1_555
H76 C59 1_555 1_555
H77 C59 1_555 1_555
C60 C59 1_555 1_555
H78 C60 1_555 1_555
H79 C60 1_555 1_555
H80 C60 1_555 1_555
C61 C50 1_555 1_555
H81 C61 1_555 1_555
H82 C61 1_555 1_555
C62 C61 1_555 1_555
C63 C62 1_555 1_555
C64 C63 1_555 1_555
H83 C64 1_555 1_555
C65 C1 1_555 1_555
C66 C65 1_555 1_555
C67 C62 1_555 1_555
H84 C67 1_555 1_555
C68 O17 1_555 1_555
H85 C68 1_555 1_555
H86 C68 1_555 1_555
C69 C68 1_555 1_555
C70 O20 1_555 1_555
H87 C70 1_555 1_555
H88 C70 1_555 1_555
H89 C70 1_555 1_555
C71 O18 1_555 1_555
H90 C71 1_555 1_555
H91 C71 1_555 1_555
C72 C71 1_555 1_555
H92 C72 1_555 1_555
H93 C72 1_555 1_555
C73 C72 1_555 1_555
H94 C73 1_555 1_555
H95 C73 1_555 1_555
C74 C73 1_555 1_555
H96 C74 1_555 1_555
H97 C74 1_555 1_555
C75 C74 1_555 1_555
H98 C75 1_555 1_555
H99 C75 1_555 1_555
H100 C75 1_555 1_555
C6 C7 1_555 1_555
C21 C22 1_555 1_555
C36 C37 1_555 1_555
C51 C52 1_555 1_555
C64 C65 1_555 1_555
C66 C67 1_555 1_555

#END
