
#######################################################################
#
#                 Cambridge Crystallographic Data Centre
#                                CCDC 
#
#######################################################################
#
# If this CIF has been generated from an entry in the Cambridge 
# Structural Database, then it will include bibliographic, chemical, 
# crystal, experimental, refinement or atomic coordinate data resulting 
# from the CCDC's data processing and validation procedures.
#
#######################################################################

data_YEYQEY
_chemical_formula_moiety         'C26 H21 N3 O1'
_chemical_name_systematic        
(+-)-1-((2-Hydroxy-5-methylphenyl)(phenyl)methyl)-2-(2-pyridyl)benzimidazole
_symmetry_cell_setting           monoclinic
_symmetry_space_group_name_H-M   'P 21/c'
_symmetry_Int_Tables_number      14
_space_group_name_Hall           '-P 2ybc'
loop_
_symmetry_equiv_pos_site_id
_symmetry_equiv_pos_as_xyz
1 x,y,z
2 -x,1/2+y,1/2-z
3 -x,-y,-z
4 x,1/2-y,1/2+z
_cell_length_a                   13.514(5)
_cell_length_b                   9.659(6)
_cell_length_c                   16.740(3)
_cell_angle_alpha                90
_cell_angle_beta                 110.27(2)
_cell_angle_gamma                90
_cell_volume                     2049.78
_chemical_melting_point          '244-245 deg.C'
_cell_formula_units_Z            4
loop_
_atom_site_label
_atom_site_type_symbol
_atom_site_fract_x
_atom_site_fract_y
_atom_site_fract_z
O1 O 0.0875(2) 0.34688(3) 0.21872(2)
N1 N 0.10771(3) -0.03033(4) 0.31692(3)
N2 N 0.22615(3) 0.13037(3) 0.31492(2)
N3 N 0.22767(3) -0.00142(4) 0.15771(3)
C1 C 0.41871(5) 0.68003(6) 0.42997(4)
C2 C 0.32990(4) 0.59414(5) 0.37324(3)
C3 C 0.34739(4) 0.45958(5) 0.35334(3)
C4 C 0.26702(3) 0.37623(4) 0.30217(3)
C5 C 0.16533(4) 0.43035(5) 0.26871(3)
C6 C 0.14781(4) 0.56611(5) 0.28668(4)
C7 C 0.22909(5) 0.64604(5) 0.33861(4)
C8 C 0.28587(3) 0.22861(4) 0.28032(3)
C9 C 0.40096(3) 0.18805(5) 0.30582(3)
C10 C 0.46136(4) 0.25504(6) 0.26541(3)
C11 C 0.56697(4) 0.22487(7) 0.28606(4)
C12 C 0.61422(4) 0.12958(7) 0.34725(4)
C13 C 0.55464(4) 0.06145(6) 0.38680(4)
C14 C 0.44859(4) 0.09184(5) 0.36614(3)
C15 C 0.15992(3) 0.02728(4) 0.27164(3)
C16 C 0.14891(4) -0.02409(4) 0.18659(3)
C17 C 0.21890(5) -0.05443(6) 0.08246(4)
C18 C 0.13522(6) -0.12912(6) 0.03288(4)
C19 C 0.05426(6) -0.15148(7) 0.06228(4)
C20 C 0.06049(5) -0.10003(6) 0.13988(4)
C21 C 0.14248(3) 0.03742(5) 0.39436(3)
C22 C 0.11561(4) 0.01622(5) 0.46654(3)
C23 C 0.16328(4) 0.09599(6) 0.53635(3)
C24 C 0.23735(4) 0.19764(6) 0.53556(3)
C25 C 0.26430(4) 0.21976(5) 0.46461(2)
C26 C 0.21545(3) 0.13857(5) 0.39424(3)
loop_
_geom_bond_atom_site_label_1
_geom_bond_atom_site_label_2
_geom_bond_site_symmetry_1
_geom_bond_site_symmetry_2
O1 C5 1_555 1_555
N1 C15 1_555 1_555
N2 C8 1_555 1_555
N3 C16 1_555 1_555
C1 C2 1_555 1_555
C2 C3 1_555 1_555
C3 C4 1_555 1_555
C4 C5 1_555 1_555
C5 C6 1_555 1_555
C6 C7 1_555 1_555
C7 C2 1_555 1_555
C8 C4 1_555 1_555
C9 C8 1_555 1_555
C10 C9 1_555 1_555
C11 C10 1_555 1_555
C12 C11 1_555 1_555
C13 C12 1_555 1_555
C14 C9 1_555 1_555
C15 N2 1_555 1_555
C16 C15 1_555 1_555
C17 N3 1_555 1_555
C18 C17 1_555 1_555
C19 C18 1_555 1_555
C20 C16 1_555 1_555
C21 N1 1_555 1_555
C22 C21 1_555 1_555
C23 C22 1_555 1_555
C24 C23 1_555 1_555
C25 C24 1_555 1_555
C26 N2 1_555 1_555
C13 C14 1_555 1_555
C19 C20 1_555 1_555
C21 C26 1_555 1_555
C25 C26 1_555 1_555

#END
