
#######################################################################
#
#                 Cambridge Crystallographic Data Centre
#                                CCDC 
#
#######################################################################
#
# If this CIF has been generated from an entry in the Cambridge 
# Structural Database, then it will include bibliographic, chemical, 
# crystal, experimental, refinement or atomic coordinate data resulting 
# from the CCDC's data processing and validation procedures.
#
#######################################################################

data_YEYREB
_chemical_formula_moiety         'C13 H20 O7'
_chemical_name_systematic        
'Methyl 4,5-dihydroxy-6-isopropyl-3-methoxy-1-oxohexahydro-1H-cyclopenta[c]furan-4-carboxylate'
_symmetry_cell_setting           rhombohedral
_symmetry_space_group_name_H-M   'R -3'
_symmetry_Int_Tables_number      148
_space_group_name_Hall           '-R 3'
loop_
_symmetry_equiv_pos_site_id
_symmetry_equiv_pos_as_xyz
1 x,y,z
2 -y,x-y,z
3 -x+y,-x,z
4 2/3+x,1/3+y,1/3+z
5 2/3-y,1/3+x-y,1/3+z
6 2/3-x+y,1/3-x,1/3+z
7 1/3+x,2/3+y,2/3+z
8 1/3-y,2/3+x-y,2/3+z
9 1/3-x+y,2/3-x,2/3+z
10 -x,-y,-z
11 y,-x+y,-z
12 x-y,x,-z
13 1/3-x,2/3-y,2/3-z
14 1/3+y,2/3-x+y,2/3-z
15 1/3+x-y,2/3+x,2/3-z
16 2/3-x,1/3-y,1/3-z
17 2/3+y,1/3-x+y,1/3-z
18 2/3+x-y,1/3+x,1/3-z
_cell_length_a                   33.1098(13)
_cell_length_b                   33.1098(13)
_cell_length_c                   6.3799(3)
_cell_angle_alpha                90
_cell_angle_beta                 90
_cell_angle_gamma                120
_cell_volume                     6057
_exptl_crystal_colour            colorless
_exptl_crystal_description       hexagon
_cell_formula_units_Z            18
loop_
_atom_site_label
_atom_site_type_symbol
_atom_site_fract_x
_atom_site_fract_y
_atom_site_fract_z
O1 O 0.72892(3) 0.20173(3) 0.00030(14)
O2 O 0.67850(3) 0.21858(3) 0.15065(14)
O3 O 0.60303(3) 0.19859(3) 0.05709(14)
O4 O 0.62956(3) 0.16441(3) 0.62523(13)
O5 O 0.70636(3) 0.16792(3) 0.48895(14)
O6 O 0.55399(3) 0.05396(3) 0.40473(15)
O7 O 0.57534(3) 0.07761(3) 0.73755(14)
C1 C 0.69127(4) 0.18787(4) 0.08094(18)
C2 C 0.65235(4) 0.13801(4) 0.11156(18)
C3 C 0.62979(4) 0.19429(4) 0.21489(19)
C4 C 0.62140(4) 0.13022(4) 0.47180(18)
C5 C 0.66494(4) 0.12414(4) 0.46640(19)
C6 C 0.66510(4) 0.10692(4) 0.24441(18)
C7 C 0.61613(4) 0.14346(4) 0.24151(19)
C8 C 0.61075(5) 0.24504(5) 0.0429(2)
C9 C 0.57911(4) 0.08299(4) 0.52997(19)
C10 C 0.53417(5) 0.03655(5) 0.8144(2)
C11 C 0.70883(4) 0.10452(4) 0.18676(19)
C12 C 0.70795(5) 0.09149(5) -0.0443(2)
C13 C 0.71218(5) 0.06866(5) 0.3263(2)
H1 H 0.6034(7) 0.1602(7) 0.663(3)
H2 H 0.7023(6) 0.1827(7) 0.582(3)
H3 H 0.6408(5) 0.1248(5) -0.024(2)
H4 H 0.6286(5) 0.2095(5) 0.345(2)
H5 H 0.6622(5) 0.1018(5) 0.572(2)
H6 H 0.6375(5) 0.0752(5) 0.233(2)
H7 H 0.5846(5) 0.1246(5) 0.195(2)
H8 H 0.5858(7) 0.2442(7) -0.039(3)
H9 H 0.6413(6) 0.2664(6) -0.021(3)
H10 H 0.6083(7) 0.2559(7) 0.182(3)
H11 H 0.5391(7) 0.0368(7) 0.957(4)
H12 H 0.5318(7) 0.0093(7) 0.761(3)
H13 H 0.5079(7) 0.0384(7) 0.784(3)
H14 H 0.7363(5) 0.1354(5) 0.210(2)
H15 H 0.7343(6) 0.0861(6) -0.072(3)
H16 H 0.7096(6) 0.1154(6) -0.135(3)
H17 H 0.6788(6) 0.0619(6) -0.076(3)
H18 H 0.7386(6) 0.0648(6) 0.288(3)
H19 H 0.6841(6) 0.0387(6) 0.312(3)
H20 H 0.7161(6) 0.0782(6) 0.477(3)
loop_
_geom_bond_atom_site_label_1
_geom_bond_atom_site_label_2
_geom_bond_site_symmetry_1
_geom_bond_site_symmetry_2
O1 C1 1_555 1_555
O2 C1 1_555 1_555
O3 C3 1_555 1_555
O4 C4 1_555 1_555
O5 C5 1_555 1_555
O6 C9 1_555 1_555
O7 C9 1_555 1_555
C1 C2 1_555 1_555
C2 C6 1_555 1_555
C3 O2 1_555 1_555
C4 C5 1_555 1_555
C5 C6 1_555 1_555
C6 C11 1_555 1_555
C7 C2 1_555 1_555
C8 O3 1_555 1_555
C9 C4 1_555 1_555
C10 O7 1_555 1_555
C11 C12 1_555 1_555
C12 H15 1_555 1_555
C13 C11 1_555 1_555
H1 O4 1_555 1_555
H2 O5 1_555 1_555
H3 C2 1_555 1_555
H4 C3 1_555 1_555
H5 C5 1_555 1_555
H6 C6 1_555 1_555
H7 C7 1_555 1_555
H8 C8 1_555 1_555
H9 C8 1_555 1_555
H10 C8 1_555 1_555
H11 C10 1_555 1_555
H12 C10 1_555 1_555
H13 C10 1_555 1_555
H14 C11 1_555 1_555
H16 C12 1_555 1_555
H17 C12 1_555 1_555
H18 C13 1_555 1_555
H19 C13 1_555 1_555
H20 C13 1_555 1_555
C3 C7 1_555 1_555
C4 C7 1_555 1_555

#END
