
#######################################################################
#
#                 Cambridge Crystallographic Data Centre
#                                CCDC 
#
#######################################################################
#
# If this CIF has been generated from an entry in the Cambridge 
# Structural Database, then it will include bibliographic, chemical, 
# crystal, experimental, refinement or atomic coordinate data resulting 
# from the CCDC's data processing and validation procedures.
#
#######################################################################

data_YEYSAX
_chemical_formula_moiety         'C18 H22 N4 O2 S2'
_chemical_name_systematic        
1-Acetyl-3,3a,4,6a-tetramethyl-6-phenylacetyl-3a,4,6,6a-tetrahydroimidazo(4,5-d)imidazole-2,5(1H,3H)-dithione
_symmetry_cell_setting           monoclinic
_symmetry_space_group_name_H-M   'C 2/c'
_symmetry_Int_Tables_number      15
_space_group_name_Hall           '-C 2yn'
loop_
_symmetry_equiv_pos_site_id
_symmetry_equiv_pos_as_xyz
1 x,y,z
2 1/2+x,1/2+y,z
3 -x,y,1/2-z
4 1/2-x,1/2+y,1/2-z
5 -x,-y,-z
6 1/2-x,1/2-y,-z
7 x,-y,1/2+z
8 1/2+x,1/2-y,1/2+z
_cell_length_a                   25.161(4)
_cell_length_b                   9.3806(15)
_cell_length_c                   16.702(3)
_cell_angle_alpha                90
_cell_angle_beta                 109.370(3)
_cell_angle_gamma                90
_cell_volume                     3718.96
_exptl_crystal_colour            colorless
_exptl_crystal_description       block
_cell_formula_units_Z            8
_exptl_crystal_recrystallization_method chloroform
loop_
_atom_site_label
_atom_site_type_symbol
_atom_site_fract_x
_atom_site_fract_y
_atom_site_fract_z
S1 S 0.31206(3) 0.31649(7) 0.31407(4)
S2 S 0.51642(3) 0.75203(8) 0.54890(4)
O1 O 0.29697(6) 0.36991(17) 0.55759(10)
N1 N 0.40947(7) 0.76038(19) 0.45005(12)
C1 C 0.34130(10) 0.1905(2) 0.49911(15)
H1 H 0.3095 0.1437 0.4554
H2 H 0.3732 0.1955 0.4770
N2 N 0.34071(7) 0.45290(18) 0.46657(10)
C2 C 0.45000(9) 0.6986(2) 0.51441(13)
C3 C 0.32394(9) 0.3409(2) 0.51267(13)
N3 N 0.42529(7) 0.58788(18) 0.54489(10)
C4 C 0.36219(8) 0.5910(2) 0.50467(12)
C5 C 0.33575(8) 0.4498(2) 0.38181(13)
N4 N 0.35062(7) 0.57824(19) 0.35995(11)
C6 C 0.35586(9) 0.6853(2) 0.42594(13)
C7 C 0.44973(9) 0.4887(2) 0.60906(13)
C8 C 0.34219(11) 0.6172(3) 0.27165(14)
H3 H 0.3584 0.5433 0.2453
H4 H 0.3608 0.7085 0.2701
H5 H 0.3018 0.6259 0.2405
C9 C 0.51232(10) 0.4816(3) 0.65091(16)
H6 H 0.5253 0.5666 0.6861
H7 H 0.5305 0.4774 0.6074
H8 H 0.5221 0.3963 0.6866
O2 O 0.41886(7) 0.40806(17) 0.62919(10)
C10 C 0.33530(10) 0.6524(2) 0.56566(14)
H9 H 0.2942 0.6485 0.5399
H10 H 0.3472 0.7517 0.5783
H11 H 0.3470 0.5968 0.6183
C11 C 0.30528(10) 0.7852(3) 0.39986(16)
H12 H 0.3094 0.8561 0.4446
H13 H 0.2708 0.7301 0.3913
H14 H 0.3032 0.8337 0.3469
C12 C 0.42077(12) 0.8819(3) 0.40347(17)
H15 H 0.4476 0.9462 0.4431
H16 H 0.3856 0.9330 0.3753
H17 H 0.4368 0.8480 0.3608
C13 C 0.35847(9) 0.0995(2) 0.57836(14)
C14 C 0.32187(10) 0.0679(2) 0.62269(15)
H18 H 0.2851 0.1080 0.6048
C15 C 0.33853(12) -0.0212(2) 0.69270(15)
H19 H 0.3133 -0.0419 0.7228
C16 C 0.39206(13) -0.0801(3) 0.71874(16)
H20 H 0.4039 -0.1402 0.7672
C17 C 0.41164(10) 0.0386(3) 0.60546(17)
H21 H 0.4372 0.0592 0.5761
C18 C 0.42785(12) -0.0512(3) 0.67423(18)
H22 H 0.4642 -0.0938 0.6911
loop_
_geom_bond_atom_site_label_1
_geom_bond_atom_site_label_2
_geom_bond_site_symmetry_1
_geom_bond_site_symmetry_2
S1 C5 1_555 1_555
S2 C2 1_555 1_555
O1 C3 1_555 1_555
N1 C2 1_555 1_555
C1 H1 1_555 1_555
H2 C1 1_555 1_555
N2 C3 1_555 1_555
C2 N3 1_555 1_555
C3 C1 1_555 1_555
N3 C4 1_555 1_555
C4 N2 1_555 1_555
C5 N2 1_555 1_555
N4 C5 1_555 1_555
C6 N1 1_555 1_555
C7 N3 1_555 1_555
C8 N4 1_555 1_555
H3 C8 1_555 1_555
H4 C8 1_555 1_555
H5 C8 1_555 1_555
C9 C7 1_555 1_555
H6 C9 1_555 1_555
H7 C9 1_555 1_555
H8 C9 1_555 1_555
O2 C7 1_555 1_555
C10 C4 1_555 1_555
H9 C10 1_555 1_555
H10 C10 1_555 1_555
H11 C10 1_555 1_555
C11 C6 1_555 1_555
H12 C11 1_555 1_555
H13 C11 1_555 1_555
H14 C11 1_555 1_555
C12 N1 1_555 1_555
H15 C12 1_555 1_555
H16 C12 1_555 1_555
H17 C12 1_555 1_555
C13 C1 1_555 1_555
C14 C13 1_555 1_555
H18 C14 1_555 1_555
C15 C14 1_555 1_555
H19 C15 1_555 1_555
C16 C15 1_555 1_555
H20 C16 1_555 1_555
C17 C13 1_555 1_555
H21 C17 1_555 1_555
C18 C16 1_555 1_555
H22 C18 1_555 1_555
C4 C6 1_555 1_555
N4 C6 1_555 1_555
C17 C18 1_555 1_555

#END
