
#######################################################################
#
#                 Cambridge Crystallographic Data Centre
#                                CCDC 
#
#######################################################################
#
# If this CIF has been generated from an entry in the Cambridge 
# Structural Database, then it will include bibliographic, chemical, 
# crystal, experimental, refinement or atomic coordinate data resulting 
# from the CCDC's data processing and validation procedures.
#
#######################################################################

data_YEYVIH
_chemical_name_common            
4,5-bis(Benzoylthio)-2-(5-nitro-2-furanyl)methylidene-1,3-dithiole
_chemical_formula_moiety         'C22 H13 N1 O5 S4'
_chemical_name_systematic        
2,3-bis(Benzoyllthio)-6-(5-nitro-2-furanyl)-1,4-dithiafulvene
_symmetry_cell_setting           monoclinic
_symmetry_space_group_name_H-M   'P 21/n'
_symmetry_Int_Tables_number      14
_space_group_name_Hall           '-P 2yn'
loop_
_symmetry_equiv_pos_site_id
_symmetry_equiv_pos_as_xyz
1 x,y,z
2 1/2-x,1/2+y,1/2-z
3 -x,-y,-z
4 1/2+x,1/2-y,1/2+z
_cell_length_a                   8.144(2)
_cell_length_b                   12.299(2)
_cell_length_c                   21.312(4)
_cell_angle_alpha                90
_cell_angle_beta                 98.10(3)
_cell_angle_gamma                90
_cell_volume                     2113.38
_exptl_crystal_colour            purple-red
_chemical_melting_point          215-216deg.C
_cell_formula_units_Z            4
loop_
_atom_site_label
_atom_site_type_symbol
_atom_site_fract_x
_atom_site_fract_y
_atom_site_fract_z
S1 S 0.2954(14) -0.0365(6) 0.5336(5)
S2 S 0.1896(15) 0.1407(7) 0.4435(4)
S3 S 0.3634(14) 0.3145(6) 0.5279(5)
S4 S 0.4888(14) 0.1237(7) 0.6278(5)
O1 O -0.0003(33) 0.0425(16) 0.3376(10)
O2 O 0.4359(42) -0.0869(20) 0.6449(14)
O3 O 0.0396(42) 0.3069(19) 0.5576(13)
O4 O -0.2330(43) 0.1250(20) 0.1944(11)
O5 O -0.0648(36) 0.2162(17) 0.2648(10)
N1 N -0.1395(44) 0.1318(22) 0.2443(13)
C1 C -0.1161(57) 0.0339(25) 0.2824(15)
C2 C -0.1723(50) -0.0686(25) 0.2697(16)
C3 C -0.0981(48) -0.1293(28) 0.3235(13)
C4 C 0.0090(59) -0.0582(26) 0.3652(17)
C5 C 0.1032(44) -0.0723(26) 0.4241(15)
C6 C 0.1898(52) 0.0024(22) 0.4584(17)
C7 C 0.3053(42) 0.1701(25) 0.5136(19)
C8 C 0.3668(45) 0.0952(22) 0.5601(15)
C9 C 0.5112(56) -0.0082(36) 0.6666(20)
C10 C 0.6220(49) -0.0025(33) 0.7264(21)
C11 C 0.7108(55) 0.0914(36) 0.7582(30)
C12 C 0.8145(51) 0.0838(48) 0.8192(22)
C13 C 0.8450(57) -0.0117(43) 0.8524(29)
C14 C 0.7695(55) -0.1016(50) 0.8236(24)
C15 C 0.6667(58) -0.1006(28) 0.7659(24)
C16 C 0.1557(49) 0.3599(31) 0.5512(16)
C17 C 0.1644(56) 0.4870(25) 0.5633(18)
C18 C 0.2911(54) 0.5525(24) 0.5443(18)
C19 C 0.2998(55) 0.6659(25) 0.5636(19)
C20 C 0.1609(63) 0.6960(34) 0.5988(16)
C21 C 0.0342(72) 0.6344(27) 0.6155(16)
C22 C 0.0334(62) 0.5271(29) 0.5987(15)
H1 H -0.2474 -0.0942 0.2340
H2 H -0.1144 -0.2051 0.3314
H3 H 0.1024 -0.1438 0.4421
H4 H 0.6998 0.1603 0.7369
H5 H 0.8640 0.1486 0.8386
H6 H 0.9185 -0.0149 0.8917
H7 H 0.7829 -0.1690 0.8464
H8 H 0.6259 -0.1685 0.7476
H9 H 0.3682 0.5215 0.5192
H10 H 0.3841 0.7155 0.5543
H11 H 0.1626 0.7699 0.6133
H12 H -0.0518 0.6658 0.6362
H13 H -0.0486 0.4776 0.6101
loop_
_geom_bond_atom_site_label_1
_geom_bond_atom_site_label_2
_geom_bond_site_symmetry_1
_geom_bond_site_symmetry_2
S1 C6 1_555 1_555
S2 C6 1_555 1_555
S3 C7 1_555 1_555
S4 C8 1_555 1_555
O1 C1 1_555 1_555
O2 C9 1_555 1_555
O3 C16 1_555 1_555
O4 N1 1_555 1_555
O5 N1 1_555 1_555
N1 C1 1_555 1_555
C1 C2 1_555 1_555
C2 C3 1_555 1_555
C3 C4 1_555 1_555
C4 O1 1_555 1_555
C5 C4 1_555 1_555
C6 C5 1_555 1_555
C7 S2 1_555 1_555
C8 S1 1_555 1_555
C9 S4 1_555 1_555
C10 C9 1_555 1_555
C11 C10 1_555 1_555
C12 C11 1_555 1_555
C13 C12 1_555 1_555
C14 C13 1_555 1_555
C15 C10 1_555 1_555
C16 S3 1_555 1_555
C17 C16 1_555 1_555
C18 C17 1_555 1_555
C19 C18 1_555 1_555
C20 C19 1_555 1_555
C21 C20 1_555 1_555
C22 C17 1_555 1_555
H1 C2 1_555 1_555
H2 C3 1_555 1_555
H3 C5 1_555 1_555
H4 C11 1_555 1_555
H5 C12 1_555 1_555
H6 C13 1_555 1_555
H7 C14 1_555 1_555
H8 C15 1_555 1_555
H9 C18 1_555 1_555
H10 C19 1_555 1_555
H11 C20 1_555 1_555
H12 C21 1_555 1_555
H13 C22 1_555 1_555
C7 C8 1_555 1_555
C14 C15 1_555 1_555
C21 C22 1_555 1_555

#END
