
#######################################################################
#
#                 Cambridge Crystallographic Data Centre
#                                CCDC 
#
#######################################################################
#
# If this CIF has been generated from an entry in the Cambridge 
# Structural Database, then it will include bibliographic, chemical, 
# crystal, experimental, refinement or atomic coordinate data resulting 
# from the CCDC's data processing and validation procedures.
#
#######################################################################

data_YEYXUY
_chemical_formula_moiety         'C39 H35 B1 N2 P2'
_chemical_name_systematic        
1,3-bis[(diphenylphosphanyl)methyl]-2-(4-methylphenyl)-2,3-dihydro-1H-1,3,2-benzodiazaborole
_symmetry_cell_setting           triclinic
_symmetry_space_group_name_H-M   'P -1'
_symmetry_Int_Tables_number      2
_space_group_name_Hall           '-P 1'
loop_
_symmetry_equiv_pos_site_id
_symmetry_equiv_pos_as_xyz
1 x,y,z
2 -x,-y,-z
_cell_length_a                   10.1555(4)
_cell_length_b                   11.0619(4)
_cell_length_c                   14.6535(5)
_cell_angle_alpha                87.8530(10)
_cell_angle_beta                 85.5160(10)
_cell_angle_gamma                81.3430(10)
_cell_volume                     1621.87
_exptl_crystal_colour            colorless
_exptl_crystal_description       Rod
_cell_formula_units_Z            2
loop_
_atom_site_label
_atom_site_type_symbol
_atom_site_fract_x
_atom_site_fract_y
_atom_site_fract_z
P1 P 0.76358(3) 0.61327(3) 0.74040(2)
P2 P 0.73875(3) 0.38876(3) 0.27384(2)
B1 B 0.73539(16) 0.45457(15) 0.51377(11)
N1 N 0.72476(12) 0.56783(11) 0.56104(8)
N2 N 0.82507(12) 0.46704(11) 0.43405(8)
C1 C 0.82211(15) 0.76318(14) 0.52742(10)
H1 H 0.7813 0.8043 0.5805
C2 C 0.90263(16) 0.82035(14) 0.46320(11)
H2 H 0.9164 0.9020 0.4724
C3 C 0.96322(15) 0.75963(14) 0.38582(11)
H3 H 1.0179 0.8005 0.3432
C4 C 0.94513(15) 0.63997(14) 0.36969(10)
H4 H 0.9868 0.5987 0.3169
C5 C 0.86424(14) 0.58298(13) 0.43315(10)
C6 C 0.80344(14) 0.64435(13) 0.51143(10)
C7 C 0.65013(14) 0.60977(13) 0.64526(10)
H5 H 0.5838 0.5547 0.6635
H6 H 0.6010 0.6928 0.6348
C8 C 0.86677(14) 0.38287(13) 0.35989(10)
H7 H 0.8847 0.2986 0.3858
H8 H 0.9511 0.4028 0.3286
C9 C 0.52943(14) 0.35629(14) 0.57861(10)
H9 H 0.4804 0.4363 0.5834
C10 C 0.46687(15) 0.25675(14) 0.60740(10)
H10 H 0.3764 0.2699 0.6315
C11 C 0.53472(16) 0.13804(14) 0.60153(11)
C12 C 0.66719(17) 0.12237(14) 0.56609(11)
H11 H 0.7158 0.0422 0.5617
C13 C 0.72974(15) 0.22206(14) 0.53697(10)
H12 H 0.8201 0.2083 0.5126
C14 C 0.66287(14) 0.34225(13) 0.54262(9)
C15 C 0.4667(2) 0.02997(17) 0.63253(13)
H13 H 0.4573 0.0255 0.6996
H14 H 0.5205 -0.0453 0.6095
H15 H 0.3782 0.0394 0.6086
C16 C 0.80824(14) 0.24517(13) 0.21700(10)
C17 C 0.80538(16) 0.13671(14) 0.26934(11)
H16 H 0.7718 0.1409 0.3317
C18 C 0.85068(17) 0.02362(15) 0.23172(12)
H17 H 0.8494 -0.0488 0.2685
C19 C 0.89786(17) 0.01616(15) 0.14053(12)
H18 H 0.9297 -0.0612 0.1147
C20 C 0.89833(16) 0.12193(15) 0.08734(12)
H19 H 0.9287 0.1168 0.0244
C21 C 0.85476(15) 0.23611(14) 0.12502(10)
H20 H 0.8567 0.3082 0.0879
C22 C 0.78163(15) 0.50801(13) 0.19133(10)
C23 C 0.91130(15) 0.51518(14) 0.15349(10)
H21 H 0.9829 0.4547 0.1698
C24 C 0.93666(17) 0.60945(15) 0.09239(11)
H22 H 1.0251 0.6132 0.0672
C25 C 0.83261(18) 0.69806(15) 0.06819(11)
H23 H 0.8496 0.7625 0.0263
C26 C 0.70393(18) 0.69232(15) 0.10513(12)
H24 H 0.6328 0.7531 0.0886
C27 C 0.67822(16) 0.59808(14) 0.16631(11)
H25 H 0.5896 0.5950 0.1913
C28 C 0.71561(14) 0.48754(13) 0.81434(10)
C29 C 0.67730(15) 0.49835(14) 0.90766(10)
H26 H 0.6690 0.5759 0.9351
C30 C 0.65121(16) 0.39683(15) 0.96073(11)
H27 H 0.6250 0.4055 1.0241
C31 C 0.66313(16) 0.28309(15) 0.92197(11)
H28 H 0.6454 0.2138 0.9586
C32 C 0.70106(17) 0.27086(14) 0.82940(11)
H29 H 0.7084 0.1932 0.8023
C33 C 0.72828(15) 0.37175(14) 0.77624(10)
H30 H 0.7559 0.3622 0.7131
C34 C 0.68374(15) 0.74886(13) 0.80160(10)
C35 C 0.76544(15) 0.83126(14) 0.82623(11)
H31 H 0.8592 0.8142 0.8124
C36 C 0.71090(17) 0.93773(14) 0.87068(11)
H32 H 0.7674 0.9927 0.8880
C37 C 0.57416(17) 0.96401(14) 0.88982(11)
H33 H 0.5369 1.0376 0.9194
C38 C 0.49108(16) 0.88300(14) 0.86591(11)
H34 H 0.3973 0.9012 0.8793
C39 C 0.54552(15) 0.77571(14) 0.82257(10)
H35 H 0.4888 0.7200 0.8070
loop_
_geom_bond_atom_site_label_1
_geom_bond_atom_site_label_2
_geom_bond_site_symmetry_1
_geom_bond_site_symmetry_2
P1 C7 1_555 1_555
P2 C8 1_555 1_555
B1 N1 1_555 1_555
N1 C6 1_555 1_555
N2 B1 1_555 1_555
C1 H1 1_555 1_555
C2 C1 1_555 1_555
H2 C2 1_555 1_555
C3 C2 1_555 1_555
H3 C3 1_555 1_555
C4 C3 1_555 1_555
H4 C4 1_555 1_555
C5 N2 1_555 1_555
C6 C1 1_555 1_555
C7 N1 1_555 1_555
H5 C7 1_555 1_555
H6 C7 1_555 1_555
C8 N2 1_555 1_555
H7 C8 1_555 1_555
H8 C8 1_555 1_555
C9 H9 1_555 1_555
C10 C9 1_555 1_555
H10 C10 1_555 1_555
C11 C10 1_555 1_555
C12 C11 1_555 1_555
H11 C12 1_555 1_555
C13 C12 1_555 1_555
H12 C13 1_555 1_555
C14 B1 1_555 1_555
C15 C11 1_555 1_555
H13 C15 1_555 1_555
H14 C15 1_555 1_555
H15 C15 1_555 1_555
C16 P2 1_555 1_555
C17 C16 1_555 1_555
H16 C17 1_555 1_555
C18 C17 1_555 1_555
H17 C18 1_555 1_555
C19 C18 1_555 1_555
H18 C19 1_555 1_555
C20 C19 1_555 1_555
H19 C20 1_555 1_555
C21 C16 1_555 1_555
H20 C21 1_555 1_555
C22 P2 1_555 1_555
C23 C22 1_555 1_555
H21 C23 1_555 1_555
C24 C23 1_555 1_555
H22 C24 1_555 1_555
C25 C24 1_555 1_555
H23 C25 1_555 1_555
C26 C25 1_555 1_555
H24 C26 1_555 1_555
C27 C22 1_555 1_555
H25 C27 1_555 1_555
C28 P1 1_555 1_555
C29 C28 1_555 1_555
H26 C29 1_555 1_555
C30 C29 1_555 1_555
H27 C30 1_555 1_555
C31 C30 1_555 1_555
H28 C31 1_555 1_555
C32 C31 1_555 1_555
H29 C32 1_555 1_555
C33 C28 1_555 1_555
H30 C33 1_555 1_555
C34 P1 1_555 1_555
C35 C34 1_555 1_555
H31 C35 1_555 1_555
C36 C35 1_555 1_555
H32 C36 1_555 1_555
C37 C36 1_555 1_555
H33 C37 1_555 1_555
C38 C37 1_555 1_555
H34 C38 1_555 1_555
C39 C34 1_555 1_555
H35 C39 1_555 1_555
C4 C5 1_555 1_555
C5 C6 1_555 1_555
C9 C14 1_555 1_555
C13 C14 1_555 1_555
C20 C21 1_555 1_555
C26 C27 1_555 1_555
C32 C33 1_555 1_555
C38 C39 1_555 1_555

#END
