
#######################################################################
#
#                 Cambridge Crystallographic Data Centre
#                                CCDC 
#
#######################################################################
#
# If this CIF has been generated from an entry in the Cambridge 
# Structural Database, then it will include bibliographic, chemical, 
# crystal, experimental, refinement or atomic coordinate data resulting 
# from the CCDC's data processing and validation procedures.
#
#######################################################################

data_YEYYOT
_chemical_formula_moiety         'C46 H36 N6 S2 4+,4(F6 P1 1-),3(C2 H3 N1)'
_chemical_name_systematic        
'3,6-dithia-53,54-diaza-11,18,29,36-tetraazoniadecacyclo[34.2.2.2^8,11^.2^13,16^.2^18,21^.2^22,25^.2^26,29^.2^31,34^.1^2,5^.1^4,7^]tetrapentaconta-1(38),2(54),4,7(53),8,10,13,15,18,20,22,24,26,28,31,33,36,39,41,43,45,47,49,51-tetracosaene tetrakis(hexafluorophosphate) acetonitrile solvate'
_symmetry_cell_setting           monoclinic
_symmetry_space_group_name_H-M   'P 21'
_symmetry_Int_Tables_number      4
_space_group_name_Hall           'P 2yb'
loop_
_symmetry_equiv_pos_site_id
_symmetry_equiv_pos_as_xyz
1 x,y,z
2 -x,1/2+y,-z
_cell_length_a                   10.8385(14)
_cell_length_b                   18.879(3)
_cell_length_c                   13.905(2)
_cell_angle_alpha                90
_cell_angle_beta                 91.968(3)
_cell_angle_gamma                90
_cell_volume                     2843.56
_exptl_crystal_colour            'pale yellow'
_exptl_crystal_description       block
_cell_formula_units_Z            2
loop_
_atom_site_label
_atom_site_type_symbol
_atom_site_fract_x
_atom_site_fract_y
_atom_site_fract_z
P1 P 0.7618(5) 0.1280(3) 0.8688(3)
F1 F 0.6494(13) 0.0813(7) 0.8270(7)
F2 F 0.6653(13) 0.1916(6) 0.8882(8)
F3 F 0.7369(10) 0.0995(5) 0.9727(6)
F4 F 0.8587(15) 0.0687(8) 0.8484(8)
F5 F 0.8675(12) 0.1799(7) 0.9087(7)
F6 F 0.7790(11) 0.1608(5) 0.7621(6)
S1 S 1.1249(4) 0.4653(2) 0.6170(3)
S2 S 1.0439(5) 0.5256(2) 0.8906(3)
N1 N 1.0541(13) 0.5800(7) 0.7040(9)
N2 N 0.4497(16) 0.3345(8) 1.0673(11)
N3 N 1.1175(13) 0.4108(7) 0.8057(10)
N4 N 1.0118(14) 0.6769(7) 0.3731(10)
N5 N 1.0416(14) 0.3087(8) 1.1291(10)
C1 C 0.6692(18) 0.3116(9) 1.2509(10)
H1 H 0.6236 0.3404 1.2930
C2 C 0.6058(18) 0.2750(8) 1.1759(11)
C3 C 0.6718(18) 0.2274(8) 1.1195(11)
H2 H 0.6290 0.1992 1.0727
C4 C 0.7966(18) 0.2213(8) 1.1313(11)
H3 H 0.8405 0.1900 1.0913
C5 C 0.8620(19) 0.2619(9) 1.2040(11)
C6 C 0.7906(18) 0.3070(9) 1.2644(11)
H4 H 0.8308 0.3336 1.3143
C7 C 0.3720(14) 0.5781(9) 0.7436(12)
H5 H 0.3403 0.6250 0.7455
N6 N 0.4307(14) 0.6883(7) 0.4155(9)
C8 C 0.4182(16) 0.5972(9) 0.5751(12)
C9 C 1.0790(15) 0.5549(8) 0.6154(12)
C10 C 0.9944(18) 0.2632(9) 1.2063(11)
H6 H 1.0260 0.2144 1.1985
H7 H 1.0251 0.2811 1.2696
C11 C 0.4680(17) 0.4453(8) 0.7384(12)
H8 H 0.5047 0.3997 0.7367
C12 C 1.0631(16) 0.5930(8) 0.5351(12)
C13 C 1.1072(14) 0.4621(9) 0.7378(12)
C14 C 0.3722(14) 0.5355(8) 0.8310(13)
H9 H 0.3398 0.5531 0.8889
C15 C 1.0818(15) 0.3948(9) 0.9760(13)
C16 C 0.9700(18) 0.7220(10) 0.2865(11)
H10 H 1.0121 0.7685 0.2887
H11 H 0.9905 0.6979 0.2259
C17 C 0.4368(17) 0.7150(9) 0.5026(12)
H12 H 0.4464 0.7647 0.5105
C18 C 0.4157(15) 0.5532(8) 0.6592(12)
C19 C 1.0959(14) 0.3206(9) 0.9689(13)
H13 H 1.1209 0.2994 0.9107
C20 C 0.4225(15) 0.4671(9) 0.8253(12)
C21 C 1.0511(17) 0.4227(9) 1.0627(12)
H14 H 1.0428 0.4726 1.0691
C22 C 0.4293(15) 0.6719(8) 0.5844(11)
H15 H 0.4318 0.6929 0.6466
C23 C 1.0448(18) 0.5640(9) 0.4397(12)
H16 H 1.0512 0.5142 0.4307
C24 C 0.4077(18) 0.5720(9) 0.4822(12)
H17 H 0.3949 0.5227 0.4728
C25 C 0.4356(19) 0.3506(10) 0.9008(13)
H18 H 0.4328 0.3302 0.8384
C26 C 1.0314(17) 0.3787(9) 1.1427(12)
H19 H 1.0118 0.3978 1.2035
C27 C 0.4302(16) 0.4225(9) 0.9083(12)
C28 C 1.0334(16) 0.7086(8) 0.4582(12)
H20 H 1.0302 0.7587 0.4627
C29 C 0.445(2) 0.3065(10) 0.9785(13)
H21 H 0.4478 0.2566 0.9698
C30 C 0.4454(16) 0.4066(9) 1.0775(12)
H22 H 0.4504 0.4261 1.1404
C31 C 0.473(2) 0.2878(9) 1.1549(12)
H23 H 0.4371 0.3105 1.2115
H24 H 0.4314 0.2417 1.1443
C32 C 0.4651(17) 0.4846(9) 0.6516(13)
H25 H 0.4941 0.4661 0.5930
C33 C 0.4347(18) 0.4489(9) 1.0048(12)
H26 H 0.4298 0.4985 1.0156
C34 C 0.4146(18) 0.6132(10) 0.4050(12)
H27 H 0.4088 0.5928 0.3425
C35 C 1.0593(18) 0.6700(9) 0.5366(12)
H28 H 1.0759 0.6938 0.5958
C36 C 1.0881(15) 0.4372(8) 0.8883(13)
C37 C 1.0652(16) 0.5289(9) 0.7676(12)
C38 C 1.0194(16) 0.6051(9) 0.3643(12)
H29 H 1.0060 0.5840 0.3028
C39 C 1.0729(18) 0.2805(10) 1.0466(13)
H30 H 1.0794 0.2304 1.0417
C40 C 0.7824(19) 0.7766(8) 0.3574(10)
H31 H 0.8332 0.8053 0.3985
C41 C 0.8352(19) 0.7316(8) 0.2910(11)
C42 C 0.7551(18) 0.6899(8) 0.2308(11)
H32 H 0.7882 0.6611 0.1819
C43 C 0.6315(19) 0.6911(8) 0.2431(10)
H33 H 0.5795 0.6614 0.2043
C44 C 0.5772(19) 0.7364(8) 0.3141(11)
C45 C 0.6634(19) 0.7790(8) 0.3627(11)
H34 H 0.6315 0.8138 0.4045
C46 C 0.4449(19) 0.7322(9) 0.3315(12)
H35 H 0.4111 0.7801 0.3427
H36 H 0.4002 0.7112 0.2751
P2 P 0.7879(4) 0.3910(2) 0.5489(3)
F7 F 0.8867(12) 0.3634(6) 0.6269(10)
F8 F 0.6786(12) 0.3813(7) 0.6175(11)
F9 F 0.8107(14) 0.4683(7) 0.5886(11)
F10 F 0.7637(12) 0.3158(7) 0.5038(12)
F11 F 0.8951(14) 0.3986(10) 0.4780(10)
F12 F 0.6923(18) 0.4180(11) 0.4701(13)
P3 P 0.7169(5) 0.6054(2) 0.9518(3)
F13 F 0.8255(15) 0.5792(9) 1.0257(8)
F14 F 0.7191(13) 0.6819(6) 1.0050(9)
F15 F 0.7142(16) 0.5322(6) 0.9016(11)
F16 F 0.8142(14) 0.6316(7) 0.8779(7)
F17 F 0.6327(19) 0.5748(8) 1.0321(12)
F18 F 0.6161(16) 0.6273(8) 0.8783(12)
P4 P 0.7210(5) 0.8735(2) 0.6319(3)
F19 F 0.6245(13) 0.8107(6) 0.6155(8)
F20 F 0.7592(12) 0.8428(8) 0.7368(7)
F21 F 0.6171(14) 0.9189(6) 0.6782(7)
F22 F 0.8221(13) 0.8251(8) 0.5886(10)
F23 F 0.6844(15) 0.9015(6) 0.5282(7)
F24 F 0.8196(17) 0.9316(9) 0.6492(8)
N7 N 0.7264(19) 0.6219(7) 0.4701(10)
C47 C 0.7412(16) 0.6291(12) 0.6541(12)
H37 H 0.7051 0.6736 0.6763
H38 H 0.8275 0.6262 0.6770
H39 H 0.6949 0.5891 0.6796
C48 C 0.7350(19) 0.6270(9) 0.5495(12)
N8 N 0.752(2) 0.3838(11) 1.0303(13)
C49 C 0.7605(18) 0.3790(10) 0.9477(13)
C50 C 0.772(2) 0.3650(11) 0.8467(14)
H40 H 0.7756 0.4100 0.8117
H41 H 0.7000 0.3378 0.8229
H42 H 0.8472 0.3378 0.8368
C51 C 0.645(3) 0.5099(12) 0.282(3)
H43 H 0.6145 0.4649 0.3074
H44 H 0.5930 0.5239 0.2258
H45 H 0.6406 0.5465 0.3316
C52 C 0.774(3) 0.5013(12) 0.253(2)
N9 N 0.873(2) 0.4955(14) 0.242(2)
loop_
_geom_bond_atom_site_label_1
_geom_bond_atom_site_label_2
_geom_bond_site_symmetry_1
_geom_bond_site_symmetry_2
P1 F1 1_555 1_555
F2 P1 1_555 1_555
F3 P1 1_555 1_555
F4 P1 1_555 1_555
F5 P1 1_555 1_555
F6 P1 1_555 1_555
S1 C9 1_555 1_555
S2 C36 1_555 1_555
N1 C9 1_555 1_555
N2 C29 1_555 1_555
N3 C13 1_555 1_555
N4 C16 1_555 1_555
N5 C10 1_555 1_555
C1 H1 1_555 1_555
C2 C1 1_555 1_555
C3 C2 1_555 1_555
H2 C3 1_555 1_555
C4 C3 1_555 1_555
H3 C4 1_555 1_555
C5 C4 1_555 1_555
C6 C1 1_555 1_555
H4 C6 1_555 1_555
C7 H5 1_555 1_555
N6 C17 1_555 1_555
C8 C18 1_555 1_555
C9 C12 1_555 1_555
C10 C5 1_555 1_555
H6 C10 1_555 1_555
H7 C10 1_555 1_555
C11 H8 1_555 1_555
C12 C23 1_555 1_555
C13 S1 1_555 1_555
C14 C7 1_555 1_555
H9 C14 1_555 1_555
C15 C19 1_555 1_555
C16 H10 1_555 1_555
H11 C16 1_555 1_555
C17 H12 1_555 1_555
C18 C7 1_555 1_555
C19 H13 1_555 1_555
C20 C11 1_555 1_555
C21 C15 1_555 1_555
H14 C21 1_555 1_555
C22 C8 1_555 1_555
H15 C22 1_555 1_555
C23 H16 1_555 1_555
C24 C8 1_555 1_555
H17 C24 1_555 1_555
C25 H18 1_555 1_555
C26 N5 1_555 1_555
H19 C26 1_555 1_555
C27 C20 1_555 1_555
C28 N4 1_555 1_555
H20 C28 1_555 1_555
C29 C25 1_555 1_555
H21 C29 1_555 1_555
C30 N2 1_555 1_555
H22 C30 1_555 1_555
C31 N2 1_555 1_555
H23 C31 1_555 1_555
H24 C31 1_555 1_555
C32 C11 1_555 1_555
H25 C32 1_555 1_555
C33 C27 1_555 1_555
H26 C33 1_555 1_555
C34 N6 1_555 1_555
H27 C34 1_555 1_555
C35 C12 1_555 1_555
H28 C35 1_555 1_555
C36 N3 1_555 1_555
C37 S2 1_555 1_555
C38 N4 1_555 1_555
H29 C38 1_555 1_555
C39 N5 1_555 1_555
H30 C39 1_555 1_555
C40 H31 1_555 1_555
C41 C16 1_555 1_555
C42 C41 1_555 1_555
H32 C42 1_555 1_555
C43 C42 1_555 1_555
H33 C43 1_555 1_555
C44 C43 1_555 1_555
C45 C40 1_555 1_555
H34 C45 1_555 1_555
C46 N6 1_555 1_555
H35 C46 1_555 1_555
H36 C46 1_555 1_555
P2 F7 1_555 1_555
F8 P2 1_555 1_555
F9 P2 1_555 1_555
F10 P2 1_555 1_555
F11 P2 1_555 1_555
F12 P2 1_555 1_555
P3 F13 1_555 1_555
F14 P3 1_555 1_555
F15 P3 1_555 1_555
F16 P3 1_555 1_555
F17 P3 1_555 1_555
F18 P3 1_555 1_555
P4 F19 1_555 1_555
F20 P4 1_555 1_555
F21 P4 1_555 1_555
F22 P4 1_555 1_555
F23 P4 1_555 1_555
F24 P4 1_555 1_555
N7 C48 1_555 1_555
C47 H37 1_555 1_555
H38 C47 1_555 1_555
H39 C47 1_555 1_555
C48 C47 1_555 1_555
N8 C49 1_555 1_555
C49 C50 1_555 1_555
C50 H40 1_555 1_555
H41 C50 1_555 1_555
H42 C50 1_555 1_555
C51 H43 1_555 1_555
H44 C51 1_555 1_555
H45 C51 1_555 1_555
C52 C51 1_555 1_555
N9 C52 1_555 1_555
N1 C37 1_555 1_555
C2 C31 1_555 1_555
C5 C6 1_555 1_555
C13 C37 1_555 1_555
C14 C20 1_555 1_555
C15 C36 1_555 1_555
C17 C22 1_555 1_555
C18 C32 1_555 1_555
C19 C39 1_555 1_555
C21 C26 1_555 1_555
C23 C38 1_555 1_555
C24 C34 1_555 1_555
C25 C27 1_555 1_555
C28 C35 1_555 1_555
C30 C33 1_555 1_555
C40 C41 1_555 1_555
C44 C45 1_555 1_555
C44 C46 1_555 1_555

#END
