
#######################################################################
#
#                 Cambridge Crystallographic Data Centre
#                                CCDC 
#
#######################################################################
#
# If this CIF has been generated from an entry in the Cambridge 
# Structural Database, then it will include bibliographic, chemical, 
# crystal, experimental, refinement or atomic coordinate data resulting 
# from the CCDC's data processing and validation procedures.
#
#######################################################################

data_YEZCOY
_chemical_formula_moiety         'C22 H29 N1 O2'
_chemical_name_systematic        
17-hydroxy-3-oxopregna-4,20-diene-20-carbonitrile
_symmetry_cell_setting           orthorhombic
_symmetry_space_group_name_H-M   'P 21 21 21'
_symmetry_Int_Tables_number      19
_space_group_name_Hall           'P 2ac 2ab'
loop_
_symmetry_equiv_pos_site_id
_symmetry_equiv_pos_as_xyz
1 x,y,z
2 1/2-x,-y,1/2+z
3 -x,1/2+y,1/2-z
4 1/2+x,1/2-y,-z
_cell_length_a                   7.7684(2)
_cell_length_b                   10.9017(3)
_cell_length_c                   21.8627(6)
_cell_angle_alpha                90
_cell_angle_beta                 90
_cell_angle_gamma                90
_cell_volume                     1851.53
_exptl_crystal_colour            colorless
_exptl_crystal_description       prismatic
_cell_formula_units_Z            4
loop_
_atom_site_label
_atom_site_type_symbol
_atom_site_fract_x
_atom_site_fract_y
_atom_site_fract_z
N1 N 0.9876(3) 0.6921(2) 0.38056(11)
O1 O 0.1739(3) 0.5179(2) 0.05384(8)
O2 O 0.6804(3) 0.4389(2) 0.52106(7)
H1 H 0.5769 0.4502 0.5258
C1 C 0.1860(3) 0.5209(2) 0.21940(9)
H2 H 0.1020 0.5162 0.2521
H3 H 0.2354 0.6026 0.2201
C2 C 0.0947(3) 0.5016(2) 0.15843(9)
H4 H 0.0294 0.4258 0.1601
H5 H 0.0144 0.5683 0.1516
C3 C 0.2188(3) 0.4957(2) 0.10615(9)
C4 C 0.3930(3) 0.4551(2) 0.11992(10)
H6 H 0.4737 0.4558 0.0885
C5 C 0.4436(3) 0.4168(2) 0.17528(9)
C6 C 0.6158(3) 0.3551(2) 0.18309(9)
H7 H 0.6853 0.3710 0.1471
H8 H 0.5982 0.2672 0.1857
C7 C 0.7144(3) 0.3973(2) 0.23936(9)
H9 H 0.7536 0.4809 0.2332
H10 H 0.8150 0.3458 0.2449
C8 C 0.6033(2) 0.39144(18) 0.29662(8)
H11 H 0.5674 0.3063 0.3032
C9 C 0.4412(2) 0.47118(17) 0.28695(8)
H12 H 0.4835 0.5528 0.2756
C10 C 0.3300(2) 0.42639(18) 0.23167(8)
C11 C 0.3348(2) 0.4897(2) 0.34533(9)
H13 H 0.2759 0.4136 0.3550
H14 H 0.2477 0.5516 0.3376
C12 C 0.4428(3) 0.5290(2) 0.40097(9)
H15 H 0.4895 0.6104 0.3941
H16 H 0.3703 0.5320 0.4371
C13 C 0.5898(3) 0.4380(2) 0.41119(8)
C14 C 0.7000(2) 0.43554(18) 0.35296(8)
H17 H 0.7344 0.5205 0.3448
C15 C 0.8634(3) 0.3666(2) 0.37226(10)
H18 H 0.9620 0.3950 0.3490
H19 H 0.8501 0.2791 0.3658
C16 C 0.8862(3) 0.3955(2) 0.44087(10)
H20 H 0.9914 0.4416 0.4475
H21 H 0.8922 0.3202 0.4644
C17 C 0.7279(3) 0.4722(2) 0.46067(9)
C18 C 0.5170(4) 0.3111(2) 0.42742(12)
H22 H 0.4334 0.3193 0.4595
H23 H 0.6087 0.2587 0.4409
H24 H 0.4632 0.2759 0.3920
C19 C 0.2508(3) 0.29871(19) 0.24465(10)
H25 H 0.1830 0.2734 0.2102
H26 H 0.1791 0.3032 0.2803
H27 H 0.3414 0.2404 0.2515
C20 C 0.7722(3) 0.6094(2) 0.46120(10)
C21 C 0.7173(5) 0.6881(3) 0.50268(15)
H28 H 0.7548 0.7691 0.5017
H29 H 0.6410 0.6627 0.5329
C22 C 0.8902(3) 0.6554(2) 0.41576(11)
loop_
_geom_bond_atom_site_label_1
_geom_bond_atom_site_label_2
_geom_bond_site_symmetry_1
_geom_bond_site_symmetry_2
N1 C22 1_555 1_555
O1 C3 1_555 1_555
O2 H1 1_555 1_555
C1 H2 1_555 1_555
H3 C1 1_555 1_555
C2 C1 1_555 1_555
H4 C2 1_555 1_555
H5 C2 1_555 1_555
C3 C2 1_555 1_555
C4 C3 1_555 1_555
H6 C4 1_555 1_555
C5 C4 1_555 1_555
C6 C5 1_555 1_555
H7 C6 1_555 1_555
H8 C6 1_555 1_555
C7 C6 1_555 1_555
H9 C7 1_555 1_555
H10 C7 1_555 1_555
C8 C7 1_555 1_555
H11 C8 1_555 1_555
C9 C8 1_555 1_555
H12 C9 1_555 1_555
C10 C1 1_555 1_555
C11 C9 1_555 1_555
H13 C11 1_555 1_555
H14 C11 1_555 1_555
C12 C11 1_555 1_555
H15 C12 1_555 1_555
H16 C12 1_555 1_555
C13 C12 1_555 1_555
C14 C8 1_555 1_555
H17 C14 1_555 1_555
C15 C14 1_555 1_555
H18 C15 1_555 1_555
H19 C15 1_555 1_555
C16 C15 1_555 1_555
H20 C16 1_555 1_555
H21 C16 1_555 1_555
C17 O2 1_555 1_555
C18 C13 1_555 1_555
H22 C18 1_555 1_555
H23 C18 1_555 1_555
H24 C18 1_555 1_555
C19 C10 1_555 1_555
H25 C19 1_555 1_555
H26 C19 1_555 1_555
H27 C19 1_555 1_555
C20 C17 1_555 1_555
C21 C20 1_555 1_555
H28 C21 1_555 1_555
H29 C21 1_555 1_555
C22 C20 1_555 1_555
C5 C10 1_555 1_555
C9 C10 1_555 1_555
C13 C14 1_555 1_555
C13 C17 1_555 1_555
C16 C17 1_555 1_555

#END
