
#######################################################################
#
#                 Cambridge Crystallographic Data Centre
#                                CCDC 
#
#######################################################################
#
# If this CIF has been generated from an entry in the Cambridge 
# Structural Database, then it will include bibliographic, chemical, 
# crystal, experimental, refinement or atomic coordinate data resulting 
# from the CCDC's data processing and validation procedures.
#
#######################################################################

data_YEZFEQ
_chemical_formula_moiety         'C42 H36 N3 O5 P1'
_chemical_name_systematic        
1'-((Benzyloxy)methyl)-6a-methyl-4-phenyl-2'-((triphenylphosphoranylidene)amino)-3a,6a-dihydro-1H,3H-spiro[cyclopenta[c]furan-5,4'-imidazole]-1,5',6(1'H,4H)-trione
_symmetry_cell_setting           monoclinic
_symmetry_space_group_name_H-M   'P 21'
_symmetry_Int_Tables_number      4
_space_group_name_Hall           'P 2yb'
loop_
_symmetry_equiv_pos_site_id
_symmetry_equiv_pos_as_xyz
1 x,y,z
2 -x,1/2+y,-z
_cell_length_a                   11.163(6)
_cell_length_b                   12.201(6)
_cell_length_c                   13.562(7)
_cell_angle_alpha                90
_cell_angle_beta                 94.723(6)
_cell_angle_gamma                90
_cell_volume                     1840.87
_exptl_crystal_colour            colorless
_exptl_crystal_description       prism
_cell_formula_units_Z            2
loop_
_atom_site_label
_atom_site_type_symbol
_atom_site_fract_x
_atom_site_fract_y
_atom_site_fract_z
P1 P 0.39632(4) 0.19378(4) 0.19942(3)
O1 O -0.03378(12) -0.09961(12) 0.23061(11)
O2 O 0.08270(18) -0.05058(13) -0.01419(11)
O3 O 0.20084(18) -0.38408(15) 0.00384(12)
O4 O 0.1571(2) -0.2705(2) -0.12114(13)
O5 O 0.07889(18) 0.11892(14) 0.40195(11)
N1 N 0.26458(14) 0.16157(13) 0.22762(12)
N2 N 0.09914(13) 0.04602(13) 0.24123(11)
N3 N 0.25236(13) -0.01801(13) 0.15633(11)
C1 C 0.4275(2) 0.32335(16) 0.25977(14)
C2 C 0.3355(2) 0.3854(2) 0.29185(19)
H1 H 0.2566 0.3608 0.2820
C3 C 0.3607(3) 0.4854(2) 0.3393(2)
H2 H 0.2987 0.5282 0.3604
C4 C 0.4778(4) 0.5201(2) 0.3544(2)
H3 H 0.4948 0.5864 0.3864
C5 C 0.5697(3) 0.4584(2) 0.32312(19)
H4 H 0.6487 0.4825 0.3342
C6 C 0.5451(2) 0.36094(19) 0.27534(16)
H5 H 0.6076 0.3197 0.2532
C7 C 0.51350(16) 0.10213(15) 0.24688(14)
C8 C 0.61234(19) 0.0787(2) 0.19483(19)
H6 H 0.6174 0.1082 0.1321
C9 C 0.7027(2) 0.0122(3) 0.2354(2)
H7 H 0.7690 -0.0021 0.2001
C10 C 0.6965(2) -0.0326(2) 0.3262(2)
H8 H 0.7580 -0.0779 0.3526
C11 C 0.6000(2) -0.0114(3) 0.3791(2)
H9 H 0.5959 -0.0421 0.4415
C12 C 0.5072(2) 0.0568(2) 0.33922(17)
H10 H 0.4415 0.0713 0.3751
C13 C 0.41634(17) 0.21157(17) 0.06934(14)
C14 C 0.4523(3) 0.3086(2) 0.03024(19)
H11 H 0.4627 0.3701 0.0704
C15 C 0.4731(4) 0.3154(3) -0.0695(2)
H12 H 0.4992 0.3812 -0.0950
C16 C 0.4559(3) 0.2276(3) -0.12925(18)
H13 H 0.4691 0.2331 -0.1959
C17 C 0.4192(2) 0.1315(3) -0.09205(17)
H14 H 0.4069 0.0712 -0.1336
C18 C 0.4000(2) 0.1220(2) 0.00694(16)
H15 H 0.3760 0.0551 0.0318
C19 C 0.21379(15) 0.06440(15) 0.20561(12)
C20 C 0.15874(16) -0.10060(15) 0.15245(13)
C21 C 0.05983(16) -0.05565(15) 0.21286(13)
C22 C 0.10074(17) -0.12001(17) 0.04647(14)
C23 C 0.06705(18) -0.24054(17) 0.03455(14)
C24 C 0.1447(2) -0.2961(2) -0.03817(16)
C25 C 0.1625(3) -0.40281(19) 0.10193(17)
H16 H 0.2305 -0.4228 0.1476
H17 H 0.1035 -0.4612 0.1007
C26 C 0.10778(18) -0.29491(17) 0.13296(14)
H18 H 0.0400 -0.3073 0.1731
C27 C 0.20123(16) -0.21727(15) 0.18519(13)
H19 H 0.2774 -0.2306 0.1561
C28 C -0.0663(2) -0.2524(2) -0.0028(2)
H20 H -0.0868 -0.3287 -0.0078
H21 H -0.0799 -0.2186 -0.0667
H22 H -0.1153 -0.2173 0.0428
C29 C 0.22535(17) -0.23101(15) 0.29611(14)
C30 C 0.1451(2) -0.27747(18) 0.35451(15)
H23 H 0.0718 -0.3029 0.3257
C31 C 0.1708(2) -0.2875(2) 0.45608(15)
H24 H 0.1151 -0.3202 0.4942
C32 C 0.2762(2) -0.2501(2) 0.50009(17)
H25 H 0.2932 -0.2568 0.5681
C33 C 0.3581(2) -0.2019(2) 0.44294(17)
H26 H 0.4305 -0.1753 0.4725
C34 C 0.3327(2) -0.19291(19) 0.34162(16)
H27 H 0.3887 -0.1607 0.3036
C35 C 0.03593(18) 0.12057(17) 0.30200(14)
H28 H 0.0432 0.1944 0.2767
H29 H -0.0487 0.1016 0.2966
C36 C 0.0717(4) 0.0202(3) 0.45109(19)
H30 H 0.1273 -0.0317 0.4257
H31 H -0.0089 -0.0093 0.4392
C37 C 0.1014(3) 0.0352(3) 0.56103(17)
C38 C 0.0703(3) -0.0478(3) 0.6236(2)
H32 H 0.0337 -0.1111 0.5976
C39 C 0.0933(3) -0.0369(3) 0.7239(2)
H33 H 0.0741 -0.0940 0.7653
C40 C 0.1429(3) 0.0546(3) 0.7631(2)
H34 H 0.1559 0.0608 0.8315
C41 C 0.1744(2) 0.1382(3) 0.70540(19)
H35 H 0.2098 0.2009 0.7338
C42 C 0.1534(2) 0.1298(3) 0.6035(2)
H36 H 0.1740 0.1874 0.5633
loop_
_geom_bond_atom_site_label_1
_geom_bond_atom_site_label_2
_geom_bond_site_symmetry_1
_geom_bond_site_symmetry_2
P1 N1 1_555 1_555
O1 C21 1_555 1_555
O2 C22 1_555 1_555
O3 C24 1_555 1_555
O4 C24 1_555 1_555
O5 C35 1_555 1_555
N1 C19 1_555 1_555
N2 C19 1_555 1_555
N3 C19 1_555 1_555
C1 P1 1_555 1_555
C2 C1 1_555 1_555
H1 C2 1_555 1_555
C3 C2 1_555 1_555
H2 C3 1_555 1_555
C4 C3 1_555 1_555
H3 C4 1_555 1_555
C5 C4 1_555 1_555
H4 C5 1_555 1_555
C6 C1 1_555 1_555
H5 C6 1_555 1_555
C7 P1 1_555 1_555
C8 C7 1_555 1_555
H6 C8 1_555 1_555
C9 C8 1_555 1_555
H7 C9 1_555 1_555
C10 C9 1_555 1_555
H8 C10 1_555 1_555
C11 C10 1_555 1_555
H9 C11 1_555 1_555
C12 C7 1_555 1_555
H10 C12 1_555 1_555
C13 P1 1_555 1_555
C14 C13 1_555 1_555
H11 C14 1_555 1_555
C15 C14 1_555 1_555
H12 C15 1_555 1_555
C16 C15 1_555 1_555
H13 C16 1_555 1_555
C17 C16 1_555 1_555
H14 C17 1_555 1_555
C18 C13 1_555 1_555
H15 C18 1_555 1_555
C20 N3 1_555 1_555
C21 N2 1_555 1_555
C22 C20 1_555 1_555
C23 C22 1_555 1_555
C24 C23 1_555 1_555
C25 O3 1_555 1_555
H16 C25 1_555 1_555
H17 C25 1_555 1_555
C26 C23 1_555 1_555
H18 C26 1_555 1_555
C27 C20 1_555 1_555
H19 C27 1_555 1_555
C28 C23 1_555 1_555
H20 C28 1_555 1_555
H21 C28 1_555 1_555
H22 C28 1_555 1_555
C29 C27 1_555 1_555
C30 C29 1_555 1_555
H23 C30 1_555 1_555
C31 C30 1_555 1_555
H24 C31 1_555 1_555
C32 C31 1_555 1_555
H25 C32 1_555 1_555
C33 C32 1_555 1_555
H26 C33 1_555 1_555
C34 C29 1_555 1_555
H27 C34 1_555 1_555
C35 N2 1_555 1_555
H28 C35 1_555 1_555
H29 C35 1_555 1_555
C36 O5 1_555 1_555
H30 C36 1_555 1_555
H31 C36 1_555 1_555
C37 C36 1_555 1_555
C38 C37 1_555 1_555
H32 C38 1_555 1_555
C39 C38 1_555 1_555
H33 C39 1_555 1_555
C40 C39 1_555 1_555
H34 C40 1_555 1_555
C41 C40 1_555 1_555
H35 C41 1_555 1_555
C42 C37 1_555 1_555
H36 C42 1_555 1_555
C5 C6 1_555 1_555
C11 C12 1_555 1_555
C17 C18 1_555 1_555
C20 C21 1_555 1_555
C25 C26 1_555 1_555
C26 C27 1_555 1_555
C33 C34 1_555 1_555
C41 C42 1_555 1_555

#END
