
#######################################################################
#
#                 Cambridge Crystallographic Data Centre
#                                CCDC 
#
#######################################################################
#
# If this CIF has been generated from an entry in the Cambridge 
# Structural Database, then it will include bibliographic, chemical, 
# crystal, experimental, refinement or atomic coordinate data resulting 
# from the CCDC's data processing and validation procedures.
#
#######################################################################

data_YEZFIV
_chemical_name_common            
'4-(4-Carboxy-3-(6-hydroxy-3-oxo-3H-xanthen-9-yl)phenyl)-3-(4-methoxyphenyl)sydnone methanol solvate'
_chemical_formula_moiety         'C29 H18 N2 O8,C1 H4 O1'
_chemical_name_systematic        
"4-(3',6'-dihydroxy-3-oxo-3H-spiro[2-benzofuran-1,9'-xanthen]-6-yl)-3-(4-methoxyphenyl)-5-oxo-5H-1,2,3-oxadiazol-3-ium-2-ide methanol solvate"
_symmetry_cell_setting           monoclinic
_symmetry_space_group_name_H-M   'P 21/c'
_symmetry_Int_Tables_number      14
_space_group_name_Hall           '-P 2ybc'
loop_
_symmetry_equiv_pos_site_id
_symmetry_equiv_pos_as_xyz
1 x,y,z
2 -x,1/2+y,1/2-z
3 -x,-y,-z
4 x,1/2-y,1/2+z
_cell_length_a                   10.0804(4)
_cell_length_b                   20.9776(8)
_cell_length_c                   12.4916(4)
_cell_angle_alpha                90
_cell_angle_beta                 98.816(3)
_cell_angle_gamma                90
_cell_volume                     2610.3
_exptl_crystal_colour            'bright yellow'
_exptl_crystal_description       block
_cell_formula_units_Z            4
_chemical_properties_physical    Light-sensitive
_exptl_crystal_recrystallization_method methanol
loop_
_atom_site_label
_atom_site_type_symbol
_atom_site_fract_x
_atom_site_fract_y
_atom_site_fract_z
O1 O 0.27731(12) 0.68645(6) 0.67466(10)
O2 O 0.46700(12) 0.70541(7) 0.60735(11)
O3 O -0.32174(14) 0.77070(9) 0.53133(13)
H1 H -0.3803 0.7474 0.5526
O4 O -0.04072(13) 0.64226(7) 0.78125(11)
O5 O 0.16907(15) 0.52745(8) 1.07767(12)
H2 H 0.2435 0.5216 1.1169
O6 O 0.38211(19) 0.97019(8) 1.12902(12)
O7 O 0.57540(17) 0.93500(8) 1.07820(12)
O8 O -0.25748(15) 0.90679(9) 0.74637(14)
N1 N 0.23591(18) 0.93498(8) 1.00402(13)
N2 N 0.2464(2) 0.96967(10) 1.09204(15)
C1 C 0.38941(17) 0.72078(9) 0.66780(14)
C2 C 0.39597(17) 0.77466(9) 0.74230(14)
C3 C 0.49452(18) 0.82072(9) 0.76654(15)
H3 H 0.5718 0.8210 0.7315
C4 C 0.47726(19) 0.86604(10) 0.84285(15)
H4 H 0.5434 0.8982 0.8606
C5 C 0.36332(18) 0.86546(9) 0.89485(14)
C6 C 0.26637(17) 0.81794(9) 0.87070(14)
H5 H 0.1899 0.8166 0.9067
C7 C 0.28391(17) 0.77319(9) 0.79381(14)
C8 C 0.19808(17) 0.71568(9) 0.75672(14)
C9 C 0.06005(17) 0.73085(9) 0.69830(14)
C10 C 0.03560(19) 0.78062(11) 0.62424(16)
H6 H 0.1084 0.8069 0.6116
C11 C -0.0903(2) 0.79299(12) 0.56889(18)
H7 H -0.1034 0.8272 0.5185
C12 C -0.19864(18) 0.75551(11) 0.58656(16)
C13 C -0.17822(18) 0.70542(10) 0.65779(15)
H8 H -0.2511 0.6789 0.6693
C14 C -0.04992(17) 0.69386(9) 0.71301(14)
C15 C 0.07701(17) 0.63278(9) 0.85095(14)
C16 C 0.07077(18) 0.58610(9) 0.92831(15)
H9 H -0.0098 0.5627 0.9290
C17 C 0.18151(19) 0.57381(10) 1.00394(15)
C18 C 0.2992(2) 0.60887(10) 1.00327(16)
H10 H 0.3757 0.6011 1.0562
C19 C 0.30321(19) 0.65480(10) 0.92506(16)
H11 H 0.3836 0.6784 0.9251
C20 C 0.19310(17) 0.66788(9) 0.84568(14)
C21 C 0.35251(19) 0.91228(9) 0.97852(14)
C22 C 0.4534(3) 0.93687(10) 1.05924(16)
C23 C 0.1053(2) 0.92969(10) 0.93895(16)
C24 C 0.0885(2) 0.95531(11) 0.83657(17)
H12 H 0.1598 0.9781 0.8124
C25 C -0.0317(2) 0.94784(11) 0.76933(17)
H13 H -0.0437 0.9650 0.6981
C26 C -0.1346(2) 0.91531(11) 0.80578(18)
C27 C -0.1161(2) 0.88960(13) 0.9091(2)
H14 H -0.1870 0.8666 0.9335
C28 C 0.0035(2) 0.89706(12) 0.97629(19)
H15 H 0.0159 0.8799 1.0475
C29 C -0.2898(3) 0.94224(16) 0.6497(2)
H16 H -0.2374 0.9263 0.5955
H17 H -0.2688 0.9873 0.6644
H18 H -0.3858 0.9377 0.6223
O9 O 0.3676(2) 1.02691(13) 0.70040(19)
H19 H 0.398(4) 1.031(2) 0.773(3)
C30 C 0.3965(4) 1.0846(2) 0.6567(2)
H20 H 0.4261 1.0776 0.5865
H21 H 0.4680 1.1060 0.7058
H22 H 0.3159 1.1114 0.6468
loop_
_geom_bond_atom_site_label_1
_geom_bond_atom_site_label_2
_geom_bond_site_symmetry_1
_geom_bond_site_symmetry_2
O1 C1 1_555 1_555
O2 C1 1_555 1_555
O3 H1 1_555 1_555
O4 C14 1_555 1_555
O5 H2 1_555 1_555
O6 N2 1_555 1_555
O7 C22 1_555 1_555
O8 C26 1_555 1_555
N1 N2 1_555 1_555
C1 C2 1_555 1_555
C2 C3 1_555 1_555
C3 H3 1_555 1_555
C4 C3 1_555 1_555
H4 C4 1_555 1_555
C5 C4 1_555 1_555
C6 C5 1_555 1_555
H5 C6 1_555 1_555
C7 C2 1_555 1_555
C8 O1 1_555 1_555
C9 C8 1_555 1_555
C10 C9 1_555 1_555
H6 C10 1_555 1_555
C11 C10 1_555 1_555
H7 C11 1_555 1_555
C12 O3 1_555 1_555
C13 C12 1_555 1_555
H8 C13 1_555 1_555
C14 C9 1_555 1_555
C15 O4 1_555 1_555
C16 C15 1_555 1_555
H9 C16 1_555 1_555
C17 O5 1_555 1_555
C18 C17 1_555 1_555
H10 C18 1_555 1_555
C19 C18 1_555 1_555
H11 C19 1_555 1_555
C20 C8 1_555 1_555
C21 N1 1_555 1_555
C22 O6 1_555 1_555
C23 N1 1_555 1_555
C24 C23 1_555 1_555
H12 C24 1_555 1_555
C25 C24 1_555 1_555
H13 C25 1_555 1_555
C26 C25 1_555 1_555
C27 C26 1_555 1_555
H14 C27 1_555 1_555
C28 C23 1_555 1_555
H15 C28 1_555 1_555
C29 O8 1_555 1_555
H16 C29 1_555 1_555
H17 C29 1_555 1_555
H18 C29 1_555 1_555
O9 H19 1_555 1_555
C30 O9 1_555 1_555
H20 C30 1_555 1_555
H21 C30 1_555 1_555
H22 C30 1_555 1_555
C5 C21 1_555 1_555
C6 C7 1_555 1_555
C7 C8 1_555 1_555
C11 C12 1_555 1_555
C13 C14 1_555 1_555
C15 C20 1_555 1_555
C16 C17 1_555 1_555
C19 C20 1_555 1_555
C21 C22 1_555 1_555
C27 C28 1_555 1_555

#END
