
#######################################################################
#
#                 Cambridge Crystallographic Data Centre
#                                CCDC 
#
#######################################################################
#
# If this CIF has been generated from an entry in the Cambridge 
# Structural Database, then it will include bibliographic, chemical, 
# crystal, experimental, refinement or atomic coordinate data resulting 
# from the CCDC's data processing and validation procedures.
#
#######################################################################

data_YEZGOB
_chemical_formula_moiety         'C36 H26 O2 P2 S1'
_chemical_name_systematic        
'Dibenzo[b,d]thiene-4,6-diylbis(diphenylphosphine) dioxide'
_symmetry_cell_setting           monoclinic
_symmetry_space_group_name_H-M   'P 21/c'
_symmetry_Int_Tables_number      14
_space_group_name_Hall           '-P 2ybc'
loop_
_symmetry_equiv_pos_site_id
_symmetry_equiv_pos_as_xyz
1 x,y,z
2 -x,1/2+y,1/2-z
3 -x,-y,-z
4 x,1/2-y,1/2+z
_cell_length_a                   14.7080(5)
_cell_length_b                   12.1509(5)
_cell_length_c                   16.1933(5)
_cell_angle_alpha                90
_cell_angle_beta                 91.299(3)
_cell_angle_gamma                90
_cell_volume                     2893.25
_cell_formula_units_Z            4
loop_
_atom_site_label
_atom_site_type_symbol
_atom_site_fract_x
_atom_site_fract_y
_atom_site_fract_z
S1 S 0.67410(3) 0.26752(5) 0.09906(3)
P1 P 0.90029(4) 0.26215(5) 0.08870(3)
P2 P 0.46462(4) 0.23018(5) 0.18218(3)
O1 O 0.86908(11) 0.15818(14) 0.12592(11)
O2 O 0.55091(10) 0.21103(14) 0.22861(9)
C1 C 0.90610(15) 0.3759(2) 0.16002(13)
C2 C 0.8902(2) 0.4826(2) 0.13670(16)
H1 H 0.8726 0.4972 0.0823
C3 C 0.8995(3) 0.5692(3) 0.1914(2)
H2 H 0.8874 0.6408 0.1741
C4 C 0.9262(3) 0.5490(4) 0.2695(3)
H3 H 0.9331 0.6069 0.3067
C5 C 0.9434(3) 0.4438(5) 0.2947(2)
H4 H 0.9626 0.4310 0.3490
C6 C 0.9330(2) 0.3557(3) 0.24114(17)
H5 H 0.9439 0.2841 0.2593
C7 C 1.01306(14) 0.25004(18) 0.04845(13)
C8 C 1.03606(17) 0.1508(2) 0.01286(15)
H6 H 0.9935 0.0942 0.0103
C9 C 1.12118(19) 0.1346(3) -0.01892(18)
H7 H 1.1358 0.0675 -0.0428
C10 C 1.18407(19) 0.2176(3) -0.01513(18)
H8 H 1.2415 0.2069 -0.0366
C11 C 1.16261(16) 0.3165(3) 0.02014(17)
H9 H 1.2055 0.3727 0.0225
C12 C 1.07777(15) 0.3330(2) 0.05211(15)
H10 H 1.0638 0.4001 0.0763
C13 C 0.82864(14) 0.30859(17) 0.00396(12)
C14 C 0.86346(15) 0.34393(19) -0.07105(13)
H11 H 0.9260 0.3428 -0.0785
C15 C 0.80641(16) 0.3808(2) -0.13476(13)
H12 H 0.8311 0.4022 -0.1846
C16 C 0.71439(15) 0.3859(2) -0.12502(13)
H13 H 0.6770 0.4119 -0.1678
C17 C 0.67643(14) 0.35206(17) -0.05085(12)
C18 C 0.73402(13) 0.31221(16) 0.01286(11)
C19 C 0.57079(13) 0.30612(16) 0.05150(11)
C20 C 0.58236(13) 0.34920(17) -0.02827(11)
C21 C 0.50705(15) 0.3847(2) -0.07475(13)
H14 H 0.5141 0.4111 -0.1281
C22 C 0.42234(15) 0.3802(2) -0.04115(13)
H15 H 0.3721 0.4061 -0.0711
C23 C 0.41146(14) 0.3371(2) 0.03745(13)
H16 H 0.3534 0.3350 0.0591
C24 C 0.48378(14) 0.29717(17) 0.08485(12)
C25 C 0.40156(14) 0.10674(18) 0.15753(12)
C26 C 0.3930(2) 0.0638(2) 0.07901(15)
H17 H 0.4199 0.0993 0.0349
C27 C 0.3441(3) -0.0326(2) 0.06582(18)
H18 H 0.3395 -0.0620 0.0128
C28 C 0.3033(2) -0.0843(2) 0.12847(19)
H19 H 0.2686 -0.1469 0.1181
C29 C 0.3128(2) -0.0452(2) 0.20730(17)
H20 H 0.2868 -0.0829 0.2508
C30 C 0.36108(17) 0.0505(2) 0.22197(14)
H21 H 0.3667 0.0777 0.2755
C31 C 0.38587(15) 0.31550(18) 0.23688(13)
C32 C 0.29232(16) 0.3099(2) 0.22464(15)
H22 H 0.2671 0.2578 0.1888
C33 C 0.23659(18) 0.3827(2) 0.26619(16)
H23 H 0.1738 0.3790 0.2587
C34 C 0.2748(2) 0.4604(2) 0.31861(17)
H24 H 0.2378 0.5107 0.3451
C35 C 0.3657(2) 0.4637(2) 0.33159(17)
H25 H 0.3905 0.5152 0.3682
C36 C 0.42232(18) 0.3920(2) 0.29155(15)
H26 H 0.4848 0.3951 0.3012
loop_
_geom_bond_atom_site_label_1
_geom_bond_atom_site_label_2
_geom_bond_site_symmetry_1
_geom_bond_site_symmetry_2
S1 C18 1_555 1_555
P1 O1 1_555 1_555
P2 O2 1_555 1_555
C1 P1 1_555 1_555
C2 C1 1_555 1_555
H1 C2 1_555 1_555
C3 C2 1_555 1_555
H2 C3 1_555 1_555
C4 C3 1_555 1_555
H3 C4 1_555 1_555
C5 C4 1_555 1_555
H4 C5 1_555 1_555
C6 C1 1_555 1_555
H5 C6 1_555 1_555
C7 P1 1_555 1_555
C8 C7 1_555 1_555
H6 C8 1_555 1_555
C9 C8 1_555 1_555
H7 C9 1_555 1_555
C10 C9 1_555 1_555
H8 C10 1_555 1_555
C11 C10 1_555 1_555
H9 C11 1_555 1_555
C12 C7 1_555 1_555
H10 C12 1_555 1_555
C13 P1 1_555 1_555
C14 C13 1_555 1_555
H11 C14 1_555 1_555
C15 C14 1_555 1_555
H12 C15 1_555 1_555
C16 C15 1_555 1_555
H13 C16 1_555 1_555
C17 C16 1_555 1_555
C18 C13 1_555 1_555
C19 S1 1_555 1_555
C20 C17 1_555 1_555
C21 C20 1_555 1_555
H14 C21 1_555 1_555
C22 C21 1_555 1_555
H15 C22 1_555 1_555
C23 C22 1_555 1_555
H16 C23 1_555 1_555
C24 P2 1_555 1_555
C25 P2 1_555 1_555
C26 C25 1_555 1_555
H17 C26 1_555 1_555
C27 C26 1_555 1_555
H18 C27 1_555 1_555
C28 C27 1_555 1_555
H19 C28 1_555 1_555
C29 C28 1_555 1_555
H20 C29 1_555 1_555
C30 C25 1_555 1_555
H21 C30 1_555 1_555
C31 P2 1_555 1_555
C32 C31 1_555 1_555
H22 C32 1_555 1_555
C33 C32 1_555 1_555
H23 C33 1_555 1_555
C34 C33 1_555 1_555
H24 C34 1_555 1_555
C35 C34 1_555 1_555
H25 C35 1_555 1_555
C36 C31 1_555 1_555
H26 C36 1_555 1_555
C5 C6 1_555 1_555
C11 C12 1_555 1_555
C17 C18 1_555 1_555
C19 C20 1_555 1_555
C19 C24 1_555 1_555
C23 C24 1_555 1_555
C29 C30 1_555 1_555
C35 C36 1_555 1_555

#END
