
#######################################################################
#
#                 Cambridge Crystallographic Data Centre
#                                CCDC 
#
#######################################################################
#
# If this CIF has been generated from an entry in the Cambridge 
# Structural Database, then it will include bibliographic, chemical, 
# crystal, experimental, refinement or atomic coordinate data resulting 
# from the CCDC's data processing and validation procedures.
#
#######################################################################

data_YEZKIY
_chemical_formula_moiety         'C89 H69 N3 O9'
_chemical_name_systematic        
25,26,27-tris(2-Oxo-2-(pyren-1-ylmethylamino)ethoxy)-28-((ethoxycarbonyl)methoxy)calix(4)arene
_symmetry_cell_setting           triclinic
_symmetry_space_group_name_H-M   'P -1'
_symmetry_Int_Tables_number      2
_space_group_name_Hall           '-P 1'
loop_
_symmetry_equiv_pos_site_id
_symmetry_equiv_pos_as_xyz
1 x,y,z
2 -x,-y,-z
_cell_length_a                   16.390(5)
_cell_length_b                   16.692(5)
_cell_length_c                   17.133(5)
_cell_angle_alpha                114.490(6)
_cell_angle_beta                 101.828(7)
_cell_angle_gamma                110.302(6)
_cell_volume                     3651.26
_exptl_crystal_colour            colorless
_exptl_crystal_description       block
_cell_formula_units_Z            2
_exptl_crystal_recrystallization_method methanol
_exptl_crystal_preparation       luminescent
loop_
_atom_site_label
_atom_site_type_symbol
_atom_site_fract_x
_atom_site_fract_y
_atom_site_fract_z
O1 O 0.0506(3) 0.3481(3) 0.3518(3)
O2 O 0.0666(3) 0.4182(3) 0.1819(3)
O3 O 0.2469(4) 0.4546(3) 0.1218(3)
O4 O 0.2306(3) 0.3587(3) 0.2595(3)
O5 O 0.0245(3) 0.4437(4) 0.5662(3)
O6 O 0.1436(4) 0.6284(4) 0.2366(4)
O7 O 0.4044(4) 0.6576(4) 0.1125(4)
O8 O 0.2935(4) 0.4822(5) 0.4513(4)
O9 O 0.4204(5) 0.5903(5) 0.4556(4)
N1 N 0.1536(4) 0.4663(4) 0.5324(4)
H1 H 0.1725 0.4462 0.4875
N2 N 0.0754(4) 0.6404(4) 0.3398(4)
H2 H 0.0539 0.6143 0.3708
N3 N 0.3252(4) 0.6546(4) 0.2055(4)
H3 H 0.2878 0.6168 0.2198
C1 C 0.0071(5) 0.2623(5) 0.2596(5)
C2 C 0.0475(5) 0.2000(5) 0.2396(5)
C3 C 0.0042(5) 0.1168(5) 0.1508(5)
H4 H 0.0288 0.0719 0.1350
C4 C -0.0768(5) 0.0973(5) 0.0824(5)
H5 H -0.1068 0.0391 0.0220
C5 C -0.1111(5) 0.1628(5) 0.1042(5)
H6 H -0.1641 0.1501 0.0577
C6 C -0.0701(5) 0.2487(5) 0.1936(5)
C7 C -0.1051(5) 0.3248(5) 0.2094(5)
H7 H -0.1694 0.2966 0.2074
H8 H -0.0632 0.3856 0.2719
C8 C -0.0248(6) 0.3893(5) 0.1216(5)
C9 C -0.1069(6) 0.3521(5) 0.1370(5)
C10 C -0.1892(6) 0.3242(6) 0.0721(6)
H9 H -0.2454 0.3001 0.0810
C11 C -0.1951(8) 0.3290(6) -0.0058(7)
H10 H -0.2543 0.3123 -0.0469
C12 C -0.1161(8) 0.3581(6) -0.0266(6)
H11 H -0.1213 0.3565 -0.0830
C13 C -0.0292(7) 0.3896(5) 0.0398(6)
C14 C 0.0588(7) 0.4153(6) 0.0202(6)
H12 H 0.1111 0.4804 0.0736
H13 H 0.0463 0.4206 -0.0355
C15 C 0.1778(6) 0.3543(5) 0.0573(5)
C16 C 0.0873(7) 0.3339(6) 0.0035(5)
C17 C 0.0221(7) 0.2341(6) -0.0628(6)
H14 H -0.0375 0.2184 -0.1022
C18 C 0.0405(7) 0.1571(6) -0.0739(6)
H15 H -0.0068 0.0899 -0.1182
C19 C 0.1301(7) 0.1792(6) -0.0189(6)
H16 H 0.1432 0.1263 -0.0271
C20 C 0.2004(6) 0.2782(6) 0.0480(5)
C21 C 0.2937(6) 0.2988(6) 0.1094(5)
H17 H 0.3345 0.3715 0.1534
H18 H 0.3261 0.2744 0.0705
C22 C 0.2420(5) 0.2711(5) 0.2285(5)
C23 C 0.2785(5) 0.2474(5) 0.1634(5)
C24 C 0.2922(6) 0.1636(6) 0.1405(6)
H19 H 0.3204 0.1463 0.0980
C25 C 0.2653(6) 0.1058(6) 0.1785(6)
H20 H 0.2786 0.0523 0.1649
C26 C 0.2190(5) 0.1266(6) 0.2363(6)
H21 H 0.1976 0.0846 0.2593
C27 C 0.2037(5) 0.2076(5) 0.2610(5)
C28 C 0.1383(5) 0.2230(6) 0.3087(5)
H22 H 0.1697 0.2928 0.3616
H23 H 0.1237 0.1787 0.3333
C29 C -0.0022(5) 0.3417(6) 0.4080(5)
H24 H -0.0246 0.2758 0.4016
H25 H -0.0581 0.3486 0.3861
C30 C 0.0598(5) 0.4238(5) 0.5097(5)
C31 C 0.2257(5) 0.5432(5) 0.6264(5)
H26 H 0.2795 0.5299 0.6362
H27 H 0.1992 0.5383 0.6716
C32 C 0.2624(5) 0.6488(5) 0.6467(5)
C33 C 0.2171(5) 0.6707(6) 0.5869(6)
H28 H 0.1633 0.6177 0.5313
C34 C 0.2485(6) 0.7674(7) 0.6062(6)
H29 H 0.2156 0.7786 0.5635
C35 C 0.3281(6) 0.8494(6) 0.6877(6)
C36 C 0.3621(7) 0.9518(6) 0.7101(7)
H30 H 0.3289 0.9654 0.6699
C37 C 0.4394(7) 1.0267(7) 0.7866(7)
H31 H 0.4595 1.0928 0.8000
C38 C 0.4929(6) 1.0103(6) 0.8489(6)
C39 C 0.5777(7) 1.0898(7) 0.9325(8)
H32 H 0.6013 1.1564 0.9468
C40 C 0.6250(7) 1.0685(8) 0.9923(7)
H33 H 0.6808 1.1212 1.0461
C41 C 0.5920(6) 0.9726(7) 0.9746(6)
H34 H 0.6246 0.9613 1.0174
C42 C 0.5107(5) 0.8909(6) 0.8939(6)
C43 C 0.4744(6) 0.7917(7) 0.8749(6)
H35 H 0.5059 0.7792 0.9172
C44 C 0.3933(5) 0.7123(6) 0.7950(5)
H36 H 0.3711 0.6470 0.7842
C45 C 0.3426(5) 0.7280(5) 0.7287(5)
C46 C 0.3767(5) 0.8288(6) 0.7487(5)
C47 C 0.4601(5) 0.9099(6) 0.8297(5)
C48 C 0.1042(5) 0.5005(5) 0.2779(5)
H37 H 0.1682 0.5149 0.3124
H38 H 0.0635 0.4805 0.3084
C49 C 0.1092(5) 0.5956(5) 0.2828(5)
C50 C 0.0718(6) 0.7307(6) 0.3540(6)
H39 H 0.0643 0.7321 0.2965
H40 H 0.1317 0.7901 0.4045
C51 C -0.0119(6) 0.7341(6) 0.3800(6)
C52 C 0.0055(7) 0.8028(6) 0.4691(6)
H41 H 0.0690 0.8488 0.5129
C53 C -0.0667(6) 0.8073(6) 0.4973(6)
H42 H -0.0522 0.8562 0.5588
C54 C -0.1611(7) 0.7389(7) 0.4339(6)
C55 C -0.2401(7) 0.7379(7) 0.4575(6)
H43 H -0.2280 0.7847 0.5189
C56 C -0.3314(7) 0.6723(7) 0.3948(7)
H44 H -0.3813 0.6740 0.4134
C57 C -0.3530(7) 0.6003(7) 0.3004(7)
C58 C -0.4460(8) 0.5282(9) 0.2323(9)
H45 H -0.4971 0.5271 0.2495
C59 C -0.4661(8) 0.4598(8) 0.1428(7)
H46 H -0.5298 0.4136 0.0998
C60 C -0.3948(8) 0.4577(7) 0.1152(7)
H47 H -0.4090 0.4103 0.0532
C61 C -0.2982(8) 0.5277(7) 0.1805(6)
C62 C -0.2187(8) 0.5296(7) 0.1562(6)
H48 H -0.2309 0.4843 0.0941
C63 C -0.1285(8) 0.5930(7) 0.2184(6)
H49 H -0.0791 0.5893 0.2000
C64 C -0.1053(7) 0.6669(6) 0.3133(6)
C65 C -0.1794(6) 0.6676(6) 0.3399(6)
C66 C -0.2779(7) 0.5991(6) 0.2741(6)
C67 C 0.3019(6) 0.4986(6) 0.0810(6)
H50 H 0.2600 0.4732 0.0169
H51 H 0.3505 0.4775 0.0771
C68 C 0.3498(6) 0.6111(6) 0.1360(5)
C69 C 0.3581(6) 0.7625(5) 0.2583(5)
H52 H 0.3025 0.7731 0.2537
H53 H 0.3930 0.7935 0.2295
C70 C 0.4224(6) 0.8155(5) 0.3619(5)
C71 C 0.3816(7) 0.8326(6) 0.4243(6)
H54 H 0.3154 0.8084 0.4021
C72 C 0.4349(9) 0.8843(7) 0.5188(8)
H55 H 0.4047 0.8942 0.5603
C73 C 0.5341(8) 0.9228(6) 0.5547(6)
C74 C 0.5918(10) 0.9803(8) 0.6550(7)
H56 H 0.5625 0.9904 0.6974
C75 C 0.6890(10) 1.0201(7) 0.6880(7)
H57 H 0.7259 1.0582 0.7532
C76 C 0.7354(9) 1.0040(7) 0.6240(7)
C77 C 0.8384(9) 1.0419(7) 0.6536(9)
H58 H 0.8782 1.0804 0.7180
C78 C 0.8769(8) 1.0230(8) 0.5912(9)
H59 H 0.9431 1.0470 0.6130
C79 C 0.8238(7) 0.9700(7) 0.4970(8)
H60 H 0.8537 0.9598 0.4552
C80 C 0.7246(7) 0.9306(6) 0.4622(6)
C81 C 0.6659(6) 0.8727(6) 0.3662(6)
H61 H 0.6944 0.8603 0.3233
C82 C 0.5707(6) 0.8340(6) 0.3322(5)
H62 H 0.5352 0.7951 0.2668
C83 C 0.5209(6) 0.8505(5) 0.3942(5)
C84 C 0.5777(7) 0.9059(6) 0.4915(5)
C85 C 0.6793(7) 0.9469(6) 0.5262(6)
C86 C 0.3191(5) 0.4506(5) 0.3102(5)
H63 H 0.3163 0.4928 0.2846
H64 H 0.3708 0.4358 0.3025
C87 C 0.3394(6) 0.5067(6) 0.4127(6)
C88 C 0.4559(9) 0.6622(10) 0.5563(8)
H65 H 0.4805 0.7305 0.5679
H66 H 0.4030 0.6488 0.5757
C89 C 0.5209(16) 0.658(2) 0.6051(13)
H67 H 0.5425 0.7071 0.6710
H68 H 0.5737 0.6715 0.5865
H69 H 0.4963 0.5909 0.5954
loop_
_geom_bond_atom_site_label_1
_geom_bond_atom_site_label_2
_geom_bond_site_symmetry_1
_geom_bond_site_symmetry_2
O1 C1 1_555 1_555
O2 C8 1_555 1_555
O3 C15 1_555 1_555
O4 C22 1_555 1_555
O5 C30 1_555 1_555
O6 C49 1_555 1_555
O7 C68 1_555 1_555
O8 C87 1_555 1_555
O9 C87 1_555 1_555
N1 H1 1_555 1_555
N2 H2 1_555 1_555
N3 H3 1_555 1_555
C1 C2 1_555 1_555
C2 C3 1_555 1_555
C3 H4 1_555 1_555
C4 C3 1_555 1_555
H5 C4 1_555 1_555
C5 C4 1_555 1_555
H6 C5 1_555 1_555
C6 C1 1_555 1_555
C7 C6 1_555 1_555
H7 C7 1_555 1_555
H8 C7 1_555 1_555
C8 C9 1_555 1_555
C9 C7 1_555 1_555
C10 C9 1_555 1_555
H9 C10 1_555 1_555
C11 C10 1_555 1_555
H10 C11 1_555 1_555
C12 C11 1_555 1_555
H11 C12 1_555 1_555
C13 C8 1_555 1_555
C14 C13 1_555 1_555
H12 C14 1_555 1_555
H13 C14 1_555 1_555
C15 C16 1_555 1_555
C16 C14 1_555 1_555
C17 C16 1_555 1_555
H14 C17 1_555 1_555
C18 C17 1_555 1_555
H15 C18 1_555 1_555
C19 C18 1_555 1_555
H16 C19 1_555 1_555
C20 C15 1_555 1_555
C21 C20 1_555 1_555
H17 C21 1_555 1_555
H18 C21 1_555 1_555
C22 C23 1_555 1_555
C23 C21 1_555 1_555
C24 C23 1_555 1_555
H19 C24 1_555 1_555
C25 C24 1_555 1_555
H20 C25 1_555 1_555
C26 C25 1_555 1_555
H21 C26 1_555 1_555
C27 C22 1_555 1_555
C28 C2 1_555 1_555
H22 C28 1_555 1_555
H23 C28 1_555 1_555
C29 O1 1_555 1_555
H24 C29 1_555 1_555
H25 C29 1_555 1_555
C30 N1 1_555 1_555
C31 N1 1_555 1_555
H26 C31 1_555 1_555
H27 C31 1_555 1_555
C32 C31 1_555 1_555
C33 C32 1_555 1_555
H28 C33 1_555 1_555
C34 C33 1_555 1_555
H29 C34 1_555 1_555
C35 C34 1_555 1_555
C36 C35 1_555 1_555
H30 C36 1_555 1_555
C37 C36 1_555 1_555
H31 C37 1_555 1_555
C38 C37 1_555 1_555
C39 C38 1_555 1_555
H32 C39 1_555 1_555
C40 C39 1_555 1_555
H33 C40 1_555 1_555
C41 C40 1_555 1_555
H34 C41 1_555 1_555
C42 C41 1_555 1_555
C43 C42 1_555 1_555
H35 C43 1_555 1_555
C44 C43 1_555 1_555
H36 C44 1_555 1_555
C45 C32 1_555 1_555
C46 C35 1_555 1_555
C47 C38 1_555 1_555
C48 O2 1_555 1_555
H37 C48 1_555 1_555
H38 C48 1_555 1_555
C49 N2 1_555 1_555
C50 N2 1_555 1_555
H39 C50 1_555 1_555
H40 C50 1_555 1_555
C51 C50 1_555 1_555
C52 C51 1_555 1_555
H41 C52 1_555 1_555
C53 C52 1_555 1_555
H42 C53 1_555 1_555
C54 C53 1_555 1_555
C55 C54 1_555 1_555
H43 C55 1_555 1_555
C56 C55 1_555 1_555
H44 C56 1_555 1_555
C57 C56 1_555 1_555
C58 C57 1_555 1_555
H45 C58 1_555 1_555
C59 C58 1_555 1_555
H46 C59 1_555 1_555
C60 C59 1_555 1_555
H47 C60 1_555 1_555
C61 C60 1_555 1_555
C62 C61 1_555 1_555
H48 C62 1_555 1_555
C63 C62 1_555 1_555
H49 C63 1_555 1_555
C64 C51 1_555 1_555
C65 C54 1_555 1_555
C66 C57 1_555 1_555
C67 O3 1_555 1_555
H50 C67 1_555 1_555
H51 C67 1_555 1_555
C68 N3 1_555 1_555
C69 N3 1_555 1_555
H52 C69 1_555 1_555
H53 C69 1_555 1_555
C70 C69 1_555 1_555
C71 C70 1_555 1_555
H54 C71 1_555 1_555
C72 C71 1_555 1_555
H55 C72 1_555 1_555
C73 C72 1_555 1_555
C74 C73 1_555 1_555
H56 C74 1_555 1_555
C75 C74 1_555 1_555
H57 C75 1_555 1_555
C76 C75 1_555 1_555
C77 C76 1_555 1_555
H58 C77 1_555 1_555
C78 C77 1_555 1_555
H59 C78 1_555 1_555
C79 C78 1_555 1_555
H60 C79 1_555 1_555
C80 C79 1_555 1_555
C81 C80 1_555 1_555
H61 C81 1_555 1_555
C82 C81 1_555 1_555
H62 C82 1_555 1_555
C83 C70 1_555 1_555
C84 C73 1_555 1_555
C85 C76 1_555 1_555
C86 O4 1_555 1_555
H63 C86 1_555 1_555
H64 C86 1_555 1_555
C87 C86 1_555 1_555
C88 O9 1_555 1_555
H65 C88 1_555 1_555
H66 C88 1_555 1_555
C89 C88 1_555 1_555
H67 C89 1_555 1_555
H68 C89 1_555 1_555
H69 C89 1_555 1_555
C5 C6 1_555 1_555
C12 C13 1_555 1_555
C19 C20 1_555 1_555
C26 C27 1_555 1_555
C27 C28 1_555 1_555
C29 C30 1_555 1_555
C42 C47 1_555 1_555
C44 C45 1_555 1_555
C45 C46 1_555 1_555
C46 C47 1_555 1_555
C48 C49 1_555 1_555
C61 C66 1_555 1_555
C63 C64 1_555 1_555
C64 C65 1_555 1_555
C65 C66 1_555 1_555
C67 C68 1_555 1_555
C80 C85 1_555 1_555
C82 C83 1_555 1_555
C83 C84 1_555 1_555
C84 C85 1_555 1_555

#END
