
#######################################################################
#
#                 Cambridge Crystallographic Data Centre
#                                CCDC 
#
#######################################################################
#
# If this CIF has been generated from an entry in the Cambridge 
# Structural Database, then it will include bibliographic, chemical, 
# crystal, experimental, refinement or atomic coordinate data resulting 
# from the CCDC's data processing and validation procedures.
#
#######################################################################

data_YEZKUK
_chemical_compound_source        'bark of Aglaia edulis (Roxb.) Wall'
_chemical_name_common            'Edulisone A hemihydrate'
_chemical_formula_moiety         'C37 H40 N2 O10,0.5(H2 O1)'
_chemical_name_systematic        
'(2R*)-1-(((2R*,3S*,4R*)-2,3,4,5-Tetrahydro-2-(methoxycarbonyl)-2-(4-methoxyphenyl)-6-methoxy-7,8-(methylenedioxy)-5-oxo-3-phenyl-1-benzoxepin-4-yl)carbonyl)-2-(3-methylbutanoylamino)pyrrolidine hemihydrate'
_chemical_properties_biological  'no cytotoxic activity'
_symmetry_cell_setting           monoclinic
_symmetry_space_group_name_H-M   'P 21'
_symmetry_Int_Tables_number      4
_space_group_name_Hall           'P 2yb'
loop_
_symmetry_equiv_pos_site_id
_symmetry_equiv_pos_as_xyz
1 x,y,z
2 -x,1/2+y,-z
_cell_length_a                   10.692(2)
_cell_length_b                   13.987(2)
_cell_length_c                   23.208(4)
_cell_angle_alpha                90
_cell_angle_beta                 97.450(6)
_cell_angle_gamma                90
_cell_volume                     3441.43
_exptl_crystal_colour            colorless
_exptl_crystal_description       plate
_chemical_melting_point          '215-218 deg.C'
_cell_formula_units_Z            4
_exptl_crystal_recrystallization_method methanol/water
loop_
_atom_site_label
_atom_site_type_symbol
_atom_site_fract_x
_atom_site_fract_y
_atom_site_fract_z
O1 O 0.68412(15) 0.17884(12) 0.18234(7)
O2 O 0.30092(17) 0.04384(14) 0.22970(7)
O3 O 0.24218(18) -0.02246(15) 0.13914(8)
O4 O 0.40165(17) 0.00193(13) 0.04139(7)
O5 O 0.63204(17) 0.05749(13) 0.02186(7)
O6 O 0.8890(2) 0.22747(16) 0.25111(9)
O7 O 1.00965(18) 0.21048(14) 0.17957(9)
O8 O 0.95960(18) -0.22058(13) 0.15510(9)
O9 O 0.77645(19) 0.24982(14) -0.02037(8)
O10 O 0.2663(2) 0.24822(17) 0.05958(11)
N1 N 0.5646(2) 0.26608(15) -0.03385(9)
N2 N 0.4015(2) 0.33586(15) 0.01476(9)
H1 H 0.4252 0.4023 0.0004
C1 C 0.7980(2) 0.16713(18) 0.15620(11)
C2 C 0.5764(2) 0.12525(17) 0.16520(10)
C3 C 0.5011(2) 0.11373(19) 0.20929(10)
H2 H 0.5248 0.1378 0.2474
C4 C 0.3908(2) 0.06545(19) 0.19404(10)
C5 C 0.1989(3) 0.0014(3) 0.19277(12)
H3 H 0.1695 -0.0568 0.2112
H4 H 0.1275 0.0469 0.186
C6 C 0.3549(2) 0.02728(19) 0.13948(11)
C7 C 0.4294(2) 0.03683(18) 0.09623(11)
C8 C 0.5442(2) 0.08869(17) 0.10937(10)
C9 C 0.6174(2) 0.11223(18) 0.06134(10)
C10 C 0.6649(2) 0.21518(18) 0.06145(10)
H5 H 0.6009 0.2571 0.0767
C11 C 0.7935(2) 0.22915(18) 0.10067(10)
H6 H 0.8621 0.2069 0.0784
C12 C 0.2705(3) 0.0023(2) 0.01682(12)
H7 H 0.2268 -0.051 0.033
H8 H 0.2641 -0.0046 -0.0255
H9 H 0.2316 0.0627 0.0263
C13 C 0.8145(2) 0.33478(19) 0.11424(11)
C14 C 0.9184(3) 0.3814(2) 0.09787(13)
H10 H 0.9761 0.3472 0.0777
C15 C 0.9395(3) 0.4768(2) 0.11033(15)
H11 H 1.0114 0.5073 0.0986
C16 C 0.8580(3) 0.5288(2) 0.13951(13)
H12 H 0.8736 0.5944 0.1482
C17 C 0.7529(3) 0.4834(2) 0.15587(12)
H13 H 0.6951 0.5181 0.1757
C18 C 0.7321(3) 0.3878(2) 0.14342(11)
H14 H 0.6599 0.3575 0.155
C19 C 0.9012(3) 0.20605(19) 0.20227(13)
C20 C 1.1149(3) 0.2556(3) 0.21461(17)
H15 H 1.0929 0.3218 0.2228
H16 H 1.1886 0.255 0.1935
H17 H 1.1344 0.2206 0.2512
C21 C 0.8310(2) 0.06112(19) 0.14953(11)
C22 C 0.8942(2) 0.02615(19) 0.10503(12)
H18 H 0.9086 0.0675 0.0741
C23 C 0.9364(3) -0.06703(19) 0.10477(12)
H19 H 0.9782 -0.0895 0.0737
C24 C 0.9177(3) -0.12748(19) 0.14980(13)
C25 C 0.8523(3) -0.0959(2) 0.19410(12)
H20 H 0.8364 -0.1383 0.2243
C26 C 0.8105(2) -0.00221(19) 0.19403(11)
H21 H 0.7672 0.0195 0.2248
C27 C 1.0454(3) -0.2509(2) 0.11596(17)
H22 H 0.9997 -0.2577 0.0768
H23 H 1.0827 -0.3125 0.1289
H24 H 1.1123 -0.2032 0.1155
C28 C 0.6756(3) 0.24557(18) -0.00078(11)
C29 C 0.5610(3) 0.2894(2) -0.09632(11)
H25 H 0.5921 0.2353 -0.118
H26 H 0.6121 0.347 -0.1019
C30 C 0.4223(3) 0.3076(2) -0.11524(12)
H27 H 0.3987 0.2916 -0.1568
H28 H 0.4001 0.3752 -0.1088
C31 C 0.3582(3) 0.2409(2) -0.07640(12)
H29 H 0.3593 0.174 -0.0902
H30 H 0.2698 0.2605 -0.0745
C32 C 0.4392(3) 0.25266(19) -0.01737(11)
H31 H 0.4362 0.1932 0.0064
C33 C 0.3111(3) 0.3268(2) 0.04985(13)
C34 C 0.2734(3) 0.4168(2) 0.07760(13)
H32 H 0.1958 0.4043 0.0955
H33 H 0.2528 0.4657 0.047
C35 C 0.3720(3) 0.4567(2) 0.12314(14)
H34 H 0.4503 0.4692 0.105
C36 C 0.4044(3) 0.3871(2) 0.17405(14)
H35 H 0.3315 0.3805 0.1954
H36 H 0.4765 0.4118 0.2002
H37 H 0.4258 0.3245 0.1591
C37 C 0.3255(4) 0.5513(3) 0.14567(16)
H38 H 0.3036 0.5952 0.113
H39 H 0.3923 0.5797 0.1733
H40 H 0.2509 0.5396 0.1651
O11 O 0.81639(15) -0.25558(12) 0.32063(7)
O12 O 1.19759(18) -0.38950(14) 0.27004(8)
O13 O 1.25954(18) -0.45591(15) 0.36053(8)
O14 O 1.10097(17) -0.43717(13) 0.45856(7)
O15 O 0.87225(17) -0.38223(13) 0.47978(7)
O16 O 0.61534(19) -0.19439(17) 0.25654(9)
O17 O 0.48939(17) -0.23277(13) 0.32275(8)
O18 O 0.54291(19) -0.65739(14) 0.34336(10)
O19 O 0.71770(18) -0.19195(13) 0.52298(7)
O20 O 1.2380(2) -0.19763(17) 0.45530(13)
N3 N 0.9282(2) -0.17514(15) 0.54114(8)
N4 N 1.0994(2) -0.10768(15) 0.49682(9)
H41 H 1.077 -0.0388 0.5067
C38 C 0.7035(2) -0.26963(18) 0.34749(10)
C39 C 0.9247(2) -0.30910(17) 0.33669(10)
C40 C 0.9988(2) -0.32077(18) 0.29231(10)
H42 H 0.9742 -0.2964 0.2543
C41 C 1.1088(2) -0.36932(18) 0.30648(10)
C42 C 1.2960(3) -0.4401(2) 0.30463(12)
H43 H 1.3112 -0.5021 0.2861
H44 H 1.375 -0.4025 0.3081
C43 C 1.1458(2) -0.40814(18) 0.36046(11)
C44 C 1.0724(3) -0.39983(18) 0.40435(11)
C45 C 0.9581(2) -0.34684(17) 0.39237(10)
C46 C 0.8858(2) -0.32551(19) 0.44115(11)
C47 C 0.8362(2) -0.22342(18) 0.44324(10)
H45 H 0.9 -0.1796 0.4295
C48 C 0.7090(2) -0.20869(18) 0.40348(10)
H46 H 0.6401 -0.2314 0.4254
C49 C 1.2325(3) -0.4386(2) 0.48311(12)
H47 H 1.2761 -0.4902 0.4652
H48 H 1.239 -0.4493 0.5251
H49 H 1.2716 -0.3772 0.4757
C50 C 0.6861(2) -0.10325(18) 0.39019(10)
C51 C 0.7697(3) -0.04906(19) 0.36189(11)
H50 H 0.8431 -0.0785 0.3509
C52 C 0.7472(3) 0.0467(2) 0.34958(11)
H51 H 0.8046 0.0823 0.3301
C53 C 0.6411(3) 0.0905(2) 0.36570(11)
H52 H 0.6255 0.1563 0.3575
C54 C 0.5582(3) 0.0380(2) 0.39375(13)
H53 H 0.4854 0.0679 0.4051
C55 C 0.5803(2) -0.0584(2) 0.40564(11)
H54 H 0.5218 -0.0939 0.4246
C56 C 0.6002(3) -0.22737(19) 0.30237(12)
C57 C 0.3843(3) -0.1879(2) 0.28696(17)
H55 H 0.4021 -0.1198 0.2826
H56 H 0.3075 -0.1953 0.3055
H57 H 0.3721 -0.2184 0.2486
C58 C 0.6711(2) -0.37568(18) 0.35271(11)
C59 C 0.6937(2) -0.43754(19) 0.30799(11)
H58 H 0.7378 -0.4147 0.2777
C60 C 0.6530(3) -0.5318(2) 0.30700(13)
H59 H 0.6712 -0.5735 0.2768
C61 C 0.5858(3) -0.56503(19) 0.35004(13)
C62 C 0.5646(3) -0.5053(2) 0.39523(14)
H60 H 0.5207 -0.5284 0.4255
C63 C 0.6073(2) -0.41193(19) 0.39642(12)
H61 H 0.5926 -0.3717 0.4278
C64 C 0.4583(3) -0.6897(3) 0.3827(2)
H62 H 0.5046 -0.6964 0.4218
H63 H 0.4226 -0.7517 0.3696
H64 H 0.3901 -0.6431 0.3835
C65 C 0.8214(3) -0.19602(18) 0.50580(11)
C66 C 0.9239(3) -0.1499(2) 0.60258(11)
H65 H 0.8888 -0.2031 0.6236
H66 H 0.8723 -0.0919 0.6059
C67 C 1.0609(3) -0.1319(2) 0.62593(12)
H67 H 1.0781 -0.1475 0.6678
H68 H 1.0847 -0.0646 0.62
C68 C 1.1301(3) -0.1994(2) 0.58983(12)
H69 H 1.1269 -0.266 0.6041
H70 H 1.2193 -0.1801 0.5904
C69 C 1.0572(2) -0.18922(19) 0.52887(11)
H71 H 1.0633 -0.2496 0.5063
C70 C 1.1914(3) -0.1188(2) 0.46283(14)
C71 C 1.2310(3) -0.0303(2) 0.43354(13)
H72 H 1.3068 -0.0452 0.4148
H73 H 1.2549 0.0191 0.4635
C72 C 1.1316(3) 0.0101(2) 0.38856(12)
H74 H 1.0542 0.0225 0.4074
C73 C 1.1746(3) 0.1040(2) 0.36521(14)
H75 H 1.2002 0.1477 0.3976
H76 H 1.1051 0.1326 0.3392
H77 H 1.2463 0.0926 0.3437
C74 C 1.0968(3) -0.0599(2) 0.33805(14)
H78 H 1.1705 -0.0707 0.3178
H79 H 1.0281 -0.0329 0.3108
H80 H 1.0695 -0.1208 0.3532
O21 O 0.0227(7) 0.1595(5) 0.0099(3)
O22 O 0.4824(7) 0.7101(5) 0.4945(3)
loop_
_geom_bond_atom_site_label_1
_geom_bond_atom_site_label_2
_geom_bond_site_symmetry_1
_geom_bond_site_symmetry_2
O1 C1 1_555 1_555
O2 C4 1_555 1_555
O3 C5 1_555 1_555
O4 C7 1_555 1_555
O5 C9 1_555 1_555
O6 C19 1_555 1_555
O7 C19 1_555 1_555
O8 C24 1_555 1_555
O9 C28 1_555 1_555
O10 C33 1_555 1_555
N1 C28 1_555 1_555
N2 H1 1_555 1_555
C1 C11 1_555 1_555
C2 O1 1_555 1_555
C3 C2 1_555 1_555
H2 C3 1_555 1_555
C4 C3 1_555 1_555
C5 O2 1_555 1_555
H3 C5 1_555 1_555
H4 C5 1_555 1_555
C6 O3 1_555 1_555
C7 C6 1_555 1_555
C8 C2 1_555 1_555
C9 C8 1_555 1_555
C10 C9 1_555 1_555
H5 C10 1_555 1_555
C11 C10 1_555 1_555
H6 C11 1_555 1_555
C12 O4 1_555 1_555
H7 C12 1_555 1_555
H8 C12 1_555 1_555
H9 C12 1_555 1_555
C13 C11 1_555 1_555
C14 C13 1_555 1_555
H10 C14 1_555 1_555
C15 C14 1_555 1_555
H11 C15 1_555 1_555
C16 C15 1_555 1_555
H12 C16 1_555 1_555
C17 C16 1_555 1_555
H13 C17 1_555 1_555
C18 C13 1_555 1_555
H14 C18 1_555 1_555
C19 C1 1_555 1_555
C20 O7 1_555 1_555
H15 C20 1_555 1_555
H16 C20 1_555 1_555
H17 C20 1_555 1_555
C21 C1 1_555 1_555
C22 C21 1_555 1_555
H18 C22 1_555 1_555
C23 C22 1_555 1_555
H19 C23 1_555 1_555
C24 C23 1_555 1_555
C25 C24 1_555 1_555
H20 C25 1_555 1_555
C26 C21 1_555 1_555
H21 C26 1_555 1_555
C27 O8 1_555 1_555
H22 C27 1_555 1_555
H23 C27 1_555 1_555
H24 C27 1_555 1_555
C28 C10 1_555 1_555
C29 N1 1_555 1_555
H25 C29 1_555 1_555
H26 C29 1_555 1_555
C30 C29 1_555 1_555
H27 C30 1_555 1_555
H28 C30 1_555 1_555
C31 C30 1_555 1_555
H29 C31 1_555 1_555
H30 C31 1_555 1_555
C32 N1 1_555 1_555
H31 C32 1_555 1_555
C33 N2 1_555 1_555
C34 C33 1_555 1_555
H32 C34 1_555 1_555
H33 C34 1_555 1_555
C35 C34 1_555 1_555
H34 C35 1_555 1_555
C36 C35 1_555 1_555
H35 C36 1_555 1_555
H36 C36 1_555 1_555
H37 C36 1_555 1_555
C37 C35 1_555 1_555
H38 C37 1_555 1_555
H39 C37 1_555 1_555
H40 C37 1_555 1_555
O11 C38 1_555 1_555
O12 C41 1_555 1_555
O13 C42 1_555 1_555
O14 C44 1_555 1_555
O15 C46 1_555 1_555
O16 C56 1_555 1_555
O17 C56 1_555 1_555
O18 C61 1_555 1_555
O19 C65 1_555 1_555
O20 C70 1_555 1_555
N3 C65 1_555 1_555
N4 H41 1_555 1_555
C38 C48 1_555 1_555
C39 O11 1_555 1_555
C40 C39 1_555 1_555
H42 C40 1_555 1_555
C41 C40 1_555 1_555
C42 O12 1_555 1_555
H43 C42 1_555 1_555
H44 C42 1_555 1_555
C43 O13 1_555 1_555
C44 C43 1_555 1_555
C45 C39 1_555 1_555
C46 C45 1_555 1_555
C47 C46 1_555 1_555
H45 C47 1_555 1_555
C48 C47 1_555 1_555
H46 C48 1_555 1_555
C49 O14 1_555 1_555
H47 C49 1_555 1_555
H48 C49 1_555 1_555
H49 C49 1_555 1_555
C50 C48 1_555 1_555
C51 C50 1_555 1_555
H50 C51 1_555 1_555
C52 C51 1_555 1_555
H51 C52 1_555 1_555
C53 C52 1_555 1_555
H52 C53 1_555 1_555
C54 C53 1_555 1_555
H53 C54 1_555 1_555
C55 C50 1_555 1_555
H54 C55 1_555 1_555
C56 C38 1_555 1_555
C57 O17 1_555 1_555
H55 C57 1_555 1_555
H56 C57 1_555 1_555
H57 C57 1_555 1_555
C58 C38 1_555 1_555
C59 C58 1_555 1_555
H58 C59 1_555 1_555
C60 C59 1_555 1_555
H59 C60 1_555 1_555
C61 C60 1_555 1_555
C62 C61 1_555 1_555
H60 C62 1_555 1_555
C63 C58 1_555 1_555
H61 C63 1_555 1_555
C64 O18 1_555 1_555
H62 C64 1_555 1_555
H63 C64 1_555 1_555
H64 C64 1_555 1_555
C65 C47 1_555 1_555
C66 N3 1_555 1_555
H65 C66 1_555 1_555
H66 C66 1_555 1_555
C67 C66 1_555 1_555
H67 C67 1_555 1_555
H68 C67 1_555 1_555
C68 C67 1_555 1_555
H69 C68 1_555 1_555
H70 C68 1_555 1_555
C69 N3 1_555 1_555
H71 C69 1_555 1_555
C70 N4 1_555 1_555
C71 C70 1_555 1_555
H72 C71 1_555 1_555
H73 C71 1_555 1_555
C72 C71 1_555 1_555
H74 C72 1_555 1_555
C73 C72 1_555 1_555
H75 C73 1_555 1_555
H76 C73 1_555 1_555
H77 C73 1_555 1_555
C74 C72 1_555 1_555
H78 C74 1_555 1_555
H79 C74 1_555 1_555
H80 C74 1_555 1_555
N2 C32 1_555 1_555
C4 C6 1_555 1_555
C7 C8 1_555 1_555
C17 C18 1_555 1_555
C25 C26 1_555 1_555
C31 C32 1_555 1_555
N4 C69 1_555 1_555
C41 C43 1_555 1_555
C44 C45 1_555 1_555
C54 C55 1_555 1_555
C62 C63 1_555 1_555
C68 C69 1_555 1_555

#END
