
#######################################################################
#
#                 Cambridge Crystallographic Data Centre
#                                CCDC 
#
#######################################################################
#
# If this CIF has been generated from an entry in the Cambridge 
# Structural Database, then it will include bibliographic, chemical, 
# crystal, experimental, refinement or atomic coordinate data resulting 
# from the CCDC's data processing and validation procedures.
#
#######################################################################

data_YEZLOH
_chemical_name_common            
'4,9,14,19,24,29,31,33,35,37,39,41-dodecaethoxypillar[6]arene bis(1,3-dimethylbenzene) clathrate'
_chemical_formula_moiety         'C66 H84 O12,2(C8 H10)'
_chemical_name_systematic        
'4,9,14,19,24,29,31,33,35,37,39,41-dodecaethoxyheptacyclo[26.2.2.2^3,6^.2^8,11^.2^13,16^.2^18,21^.2^23,26^]dotetraconta-1(30),3,5,8,10,13,15,18,20,23,25,28,31,33,35,37,39,41-octadecaene bis(1,3-dimethylbenzene) clathrate'
_symmetry_cell_setting           triclinic
_symmetry_space_group_name_H-M   'P -1'
_symmetry_Int_Tables_number      2
_space_group_name_Hall           '-P 1'
loop_
_symmetry_equiv_pos_site_id
_symmetry_equiv_pos_as_xyz
1 x,y,z
2 -x,-y,-z
_cell_length_a                   12.867(6)
_cell_length_b                   13.018(6)
_cell_length_c                   13.291(6)
_cell_angle_alpha                95.741(11)
_cell_angle_beta                 116.713(11)
_cell_angle_gamma                104.680(11)
_cell_volume                     1863.85
_exptl_crystal_colour            colorless
_exptl_crystal_description       block
_cell_formula_units_Z            1
loop_
_atom_site_label
_atom_site_type_symbol
_atom_site_fract_x
_atom_site_fract_y
_atom_site_fract_z
O1 O -0.0956(3) 0.1645(3) 0.1750(3)
O2 O 0.3695(3) 0.1599(3) 0.4801(3)
O3 O 0.2084(3) 0.4609(3) 0.3924(3)
O4 O 0.1300(3) 0.5394(3) 0.7659(3)
O5 O 0.2907(3) 0.8401(3) 0.6132(3)
O6 O 0.7617(3) 0.8356(3) 0.9018(3)
C1 C 0.2535(4) 0.1626(4) 0.4078(4)
C2 C 0.1952(4) 0.2263(4) 0.4400(4)
H1 H 0.2364 0.2704 0.5172
C3 C 0.0794(5) 0.2265(4) 0.3619(4)
C4 C 0.0184(4) 0.1597(4) 0.2475(4)
C5 C 0.0769(4) 0.0959(4) 0.2170(5)
H2 H 0.0344 0.0490 0.1410
C6 C 0.1936(5) 0.0986(4) 0.2930(4)
C7 C 0.2577(4) 0.0325(4) 0.2559(5)
H3 H 0.1968 -0.0178 0.1786
H4 H 0.2850 -0.0131 0.3114
C8 C 0.0163(5) 0.2995(4) 0.3900(5)
H5 H -0.0457 0.2546 0.4069
H6 H -0.0290 0.3238 0.3195
C9 C 0.0982(4) 0.4003(4) 0.4904(4)
C10 C 0.0767(4) 0.4202(4) 0.5832(4)
H7 H 0.0130 0.3670 0.5864
C11 C 0.1463(4) 0.5161(4) 0.6709(4)
C12 C 0.2407(4) 0.5958(4) 0.6689(4)
C13 C 0.2627(4) 0.5754(4) 0.5768(4)
H8 H 0.3265 0.6286 0.5739
C14 C 0.1941(4) 0.4794(4) 0.4890(4)
C15 C 0.3125(4) 0.7022(4) 0.7652(5)
H9 H 0.2562 0.7440 0.7582
H10 H 0.3413 0.6839 0.8416
C16 C 0.4231(5) 0.7741(4) 0.7611(4)
C17 C 0.5397(5) 0.7729(4) 0.8338(4)
H11 H 0.5496 0.7294 0.8886
C18 C 0.6437(5) 0.8330(4) 0.8301(4)
C19 C 0.6304(4) 0.9000(4) 0.7511(4)
C20 C 0.5143(5) 0.9021(4) 0.6799(4)
H12 H 0.5047 0.9462 0.6256
C21 C 0.4087(4) 0.8420(4) 0.6833(4)
C22 C 0.4379(5) 0.2329(4) 0.5944(4)
H13 H 0.3949 0.2135 0.6391
H14 H 0.4453 0.3094 0.5886
C23 C 0.5638(5) 0.2221(5) 0.6541(5)
H15 H 0.6018 0.2331 0.6048
H16 H 0.5562 0.1487 0.6681
H17 H 0.6156 0.2773 0.7285
C24 C -0.1578(5) 0.1067(5) 0.0540(4)
H18 H -0.1895 0.0267 0.0450
H19 H -0.1003 0.1212 0.0226
C25 C -0.2627(5) 0.1482(5) -0.0091(5)
H20 H -0.3088 0.1100 -0.0917
H21 H -0.2298 0.2271 -0.0007
H22 H -0.3179 0.1346 0.0239
C26 C 0.0316(5) 0.4618(4) 0.7706(5)
H23 H 0.0466 0.3911 0.7761
H24 H -0.0481 0.4488 0.6997
C27 C 0.0288(6) 0.5101(5) 0.8766(5)
H25 H 0.0153 0.5805 0.8706
H26 H 0.1077 0.5213 0.9462
H27 H -0.0384 0.4598 0.8821
C28 C 0.3324(5) 0.4851(5) 0.4145(5)
H28 H 0.3796 0.4554 0.4796
H29 H 0.3741 0.5653 0.4352
C29 C 0.3250(5) 0.4314(5) 0.3030(5)
H30 H 0.2763 0.4603 0.2391
H31 H 0.2853 0.3519 0.2846
H32 H 0.4084 0.4475 0.3137
C30 C 0.7749(5) 0.7586(4) 0.9750(5)
H33 H 0.7214 0.6832 0.9272
H34 H 0.7507 0.7774 1.0335
C31 C 0.9079(5) 0.7659(5) 1.0340(6)
H35 H 0.9323 0.7519 0.9754
H36 H 0.9189 0.7112 1.0801
H37 H 0.9594 0.8393 1.0853
C32 C 0.2770(5) 0.9212(5) 0.5463(5)
H38 H 0.3072 0.9106 0.4908
H39 H 0.3253 0.9957 0.5984
C33 C 0.1419(5) 0.9077(5) 0.4818(6)
H40 H 0.0959 0.8360 0.4259
H41 H 0.1303 0.9656 0.4404
H42 H 0.1115 0.9127 0.5372
O1A O 1.0956(3) 0.8355(3) 0.8250(3)
O2A O 0.6305(3) 0.8401(3) 0.5199(3)
O3A O 0.7916(3) 0.5391(3) 0.6076(3)
O4A O 0.8700(3) 0.4606(3) 0.2341(3)
O5A O 0.7093(3) 0.1599(3) 0.3868(3)
O6A O 0.2383(3) 0.1644(3) 0.0982(3)
C1A C 0.7465(4) 0.8374(4) 0.5922(4)
C2A C 0.8048(4) 0.7737(4) 0.5600(4)
H1A H 0.7636 0.7296 0.4828
C3A C 0.9206(5) 0.7735(4) 0.6381(4)
C4A C 0.9816(4) 0.8403(4) 0.7525(4)
C5A C 0.9231(4) 0.9041(4) 0.7830(5)
H2A H 0.9656 0.9510 0.8590
C6A C 0.8064(5) 0.9014(4) 0.7070(4)
C7A C 0.7423(4) 0.9675(4) 0.7441(5)
H3A H 0.8032 1.0178 0.8214
H4A H 0.7150 1.0131 0.6886
C8A C 0.9837(5) 0.7005(4) 0.6100(5)
H5A H 1.0457 0.7454 0.5931
H6A H 1.0290 0.6762 0.6805
C9A C 0.9018(4) 0.5997(4) 0.5096(4)
C10A C 0.9233(4) 0.5798(4) 0.4168(4)
H7A H 0.9870 0.6330 0.4136
C11A C 0.8537(4) 0.4839(4) 0.3291(4)
C12A C 0.7593(4) 0.4042(4) 0.3311(4)
C13A C 0.7373(4) 0.4246(4) 0.4232(4)
H8A H 0.6735 0.3714 0.4261
C14A C 0.8059(4) 0.5206(4) 0.5110(4)
C15A C 0.6875(4) 0.2978(4) 0.2348(5)
H9A H 0.7438 0.2560 0.2418
H10A H 0.6587 0.3161 0.1584
C16A C 0.5769(5) 0.2259(4) 0.2389(4)
C17A C 0.4603(5) 0.2271(4) 0.1662(4)
H11A H 0.4504 0.2706 0.1114
C18A C 0.3563(5) 0.1670(4) 0.1699(4)
C19A C 0.3696(4) 0.1000(4) 0.2489(4)
C20A C 0.4857(5) 0.0979(4) 0.3201(4)
H12A H 0.4953 0.0538 0.3744
C21A C 0.5913(4) 0.1580(4) 0.3167(4)
C22A C 0.5621(5) 0.7671(4) 0.4056(4)
H13A H 0.6051 0.7865 0.3609
H14A H 0.5547 0.6906 0.4114
C23A C 0.4362(5) 0.7779(5) 0.3459(5)
H15A H 0.3982 0.7669 0.3952
H16A H 0.4438 0.8513 0.3319
H17A H 0.3844 0.7227 0.2715
C24A C 1.1578(5) 0.8933(5) 0.9460(4)
H18A H 1.1895 0.9733 0.9550
H19A H 1.1003 0.8788 0.9774
C25A C 1.2627(5) 0.8518(5) 1.0091(5)
H20A H 1.3088 0.8900 1.0917
H21A H 1.2298 0.7729 1.0007
H22A H 1.3179 0.8654 0.9761
C26A C 0.9684(5) 0.5382(4) 0.2294(5)
H23A H 0.9534 0.6089 0.2239
H24A H 1.0481 0.5512 0.3003
C27A C 0.9712(6) 0.4899(5) 0.1234(5)
H25A H 0.9847 0.4195 0.1294
H26A H 0.8923 0.4787 0.0538
H27A H 1.0384 0.5402 0.1179
C28A C 0.6676(5) 0.5149(5) 0.5855(5)
H28A H 0.6204 0.5446 0.5204
H29A H 0.6259 0.4347 0.5648
C29A C 0.6750(5) 0.5686(5) 0.6970(5)
H30A H 0.7237 0.5397 0.7609
H31A H 0.7147 0.6481 0.7154
H32A H 0.5916 0.5525 0.6863
C30A C 0.2251(5) 0.2414(4) 0.0250(5)
H33A H 0.2786 0.3168 0.0728
H34A H 0.2493 0.2226 -0.0335
C31A C 0.0921(5) 0.2341(5) -0.0340(6)
H35A H 0.0677 0.2481 0.0246
H36A H 0.0811 0.2888 -0.0801
H37A H 0.0406 0.1607 -0.0853
C32A C 0.7230(5) 0.0788(5) 0.4537(5)
H38A H 0.6928 0.0894 0.5092
H39A H 0.6747 0.0043 0.4016
C33A C 0.8581(5) 0.0923(5) 0.5182(6)
H40A H 0.9041 0.1640 0.5741
H41A H 0.8697 0.0344 0.5596
H42A H 0.8885 0.0873 0.4628
C34 C 0.5595(5) 0.4463(5) 0.9123(6)
H43 H 0.6135 0.4495 0.9939
H44 H 0.5325 0.5105 0.9075
H45 H 0.6047 0.4457 0.8696
C35 C 0.4471(5) 0.3425(4) 0.8593(5)
C36 C 0.4617(5) 0.2440(4) 0.8849(5)
H46 H 0.5415 0.2430 0.9369
C37 C 0.3597(5) 0.1459(4) 0.8346(4)
C38 C 0.2435(5) 0.1489(5) 0.7600(5)
H47 H 0.1737 0.0837 0.7258
C39 C 0.2294(5) 0.2473(5) 0.7354(5)
H48 H 0.1499 0.2488 0.6832
C40 C 0.3299(5) 0.3430(5) 0.7861(5)
H49 H 0.3182 0.4100 0.7704
C41 C 0.3795(6) 0.0413(5) 0.8666(5)
H50 H 0.4428 0.0278 0.8505
H51 H 0.3019 -0.0203 0.8205
H52 H 0.4067 0.0486 0.9495
loop_
_geom_bond_atom_site_label_1
_geom_bond_atom_site_label_2
_geom_bond_site_symmetry_1
_geom_bond_site_symmetry_2
O1 C4 1_555 1_555
O2 C1 1_555 1_555
O3 C14 1_555 1_555
O4 C11 1_555 1_555
O5 C21 1_555 1_555
O6 C18 1_555 1_555
C1 C2 1_555 1_555
C2 H1 1_555 1_555
C3 C2 1_555 1_555
C4 C3 1_555 1_555
C5 C4 1_555 1_555
H2 C5 1_555 1_555
C6 C1 1_555 1_555
C7 C6 1_555 1_555
H3 C7 1_555 1_555
H4 C7 1_555 1_555
C8 C3 1_555 1_555
H5 C8 1_555 1_555
H6 C8 1_555 1_555
C9 C8 1_555 1_555
C10 C9 1_555 1_555
H7 C10 1_555 1_555
C11 C10 1_555 1_555
C12 C11 1_555 1_555
C13 C12 1_555 1_555
H8 C13 1_555 1_555
C14 C9 1_555 1_555
C15 C12 1_555 1_555
H9 C15 1_555 1_555
H10 C15 1_555 1_555
C16 C15 1_555 1_555
C17 C16 1_555 1_555
H11 C17 1_555 1_555
C18 C17 1_555 1_555
C19 C18 1_555 1_555
C20 C19 1_555 1_555
H12 C20 1_555 1_555
C21 C16 1_555 1_555
C22 O2 1_555 1_555
H13 C22 1_555 1_555
H14 C22 1_555 1_555
C23 C22 1_555 1_555
H15 C23 1_555 1_555
H16 C23 1_555 1_555
H17 C23 1_555 1_555
C24 O1 1_555 1_555
H18 C24 1_555 1_555
H19 C24 1_555 1_555
C25 C24 1_555 1_555
H20 C25 1_555 1_555
H21 C25 1_555 1_555
H22 C25 1_555 1_555
C26 O4 1_555 1_555
H23 C26 1_555 1_555
H24 C26 1_555 1_555
C27 C26 1_555 1_555
H25 C27 1_555 1_555
H26 C27 1_555 1_555
H27 C27 1_555 1_555
C28 O3 1_555 1_555
H28 C28 1_555 1_555
H29 C28 1_555 1_555
C29 C28 1_555 1_555
H30 C29 1_555 1_555
H31 C29 1_555 1_555
H32 C29 1_555 1_555
C30 O6 1_555 1_555
H33 C30 1_555 1_555
H34 C30 1_555 1_555
C31 C30 1_555 1_555
H35 C31 1_555 1_555
H36 C31 1_555 1_555
H37 C31 1_555 1_555
C32 O5 1_555 1_555
H38 C32 1_555 1_555
H39 C32 1_555 1_555
C33 C32 1_555 1_555
H40 C33 1_555 1_555
H41 C33 1_555 1_555
H42 C33 1_555 1_555
C34 H43 1_555 1_555
H44 C34 1_555 1_555
H45 C34 1_555 1_555
C35 C34 1_555 1_555
C36 C35 1_555 1_555
H46 C36 1_555 1_555
C37 C36 1_555 1_555
C38 C37 1_555 1_555
H47 C38 1_555 1_555
C39 C38 1_555 1_555
H48 C39 1_555 1_555
C40 C35 1_555 1_555
H49 C40 1_555 1_555
C41 C37 1_555 1_555
H50 C41 1_555 1_555
H51 C41 1_555 1_555
H52 C41 1_555 1_555
O1A C4A 1_555 1_555
O2A C1A 1_555 1_555
O3A C14A 1_555 1_555
O4A C11A 1_555 1_555
O5A C21A 1_555 1_555
O6A C18A 1_555 1_555
C1A C2A 1_555 1_555
C2A H1A 1_555 1_555
C3A C2A 1_555 1_555
C4A C3A 1_555 1_555
C5A C4A 1_555 1_555
H2A C5A 1_555 1_555
C6A C1A 1_555 1_555
C7A C19 1_555 1_555
H3A C7A 1_555 1_555
H4A C7A 1_555 1_555
C8A C3A 1_555 1_555
H5A C8A 1_555 1_555
H6A C8A 1_555 1_555
C9A C8A 1_555 1_555
C10A C9A 1_555 1_555
H7A C10A 1_555 1_555
C11A C10A 1_555 1_555
C12A C11A 1_555 1_555
C13A C12A 1_555 1_555
H8A C13A 1_555 1_555
C14A C9A 1_555 1_555
C15A C12A 1_555 1_555
H9A C15A 1_555 1_555
H10A C15A 1_555 1_555
C16A C15A 1_555 1_555
C17A C16A 1_555 1_555
H11A C17A 1_555 1_555
C18A C17A 1_555 1_555
C19A C7 1_555 1_555
C20A C19A 1_555 1_555
H12A C20A 1_555 1_555
C21A C16A 1_555 1_555
C22A O2A 1_555 1_555
H13A C22A 1_555 1_555
H14A C22A 1_555 1_555
C23A C22A 1_555 1_555
H15A C23A 1_555 1_555
H16A C23A 1_555 1_555
H17A C23A 1_555 1_555
C24A O1A 1_555 1_555
H18A C24A 1_555 1_555
H19A C24A 1_555 1_555
C25A C24A 1_555 1_555
H20A C25A 1_555 1_555
H21A C25A 1_555 1_555
H22A C25A 1_555 1_555
C26A O4A 1_555 1_555
H23A C26A 1_555 1_555
H24A C26A 1_555 1_555
C27A C26A 1_555 1_555
H25A C27A 1_555 1_555
H26A C27A 1_555 1_555
H27A C27A 1_555 1_555
C28A O3A 1_555 1_555
H28A C28A 1_555 1_555
H29A C28A 1_555 1_555
C29A C28A 1_555 1_555
H30A C29A 1_555 1_555
H31A C29A 1_555 1_555
H32A C29A 1_555 1_555
C30A O6A 1_555 1_555
H33A C30A 1_555 1_555
H34A C30A 1_555 1_555
C31A C30A 1_555 1_555
H35A C31A 1_555 1_555
H36A C31A 1_555 1_555
H37A C31A 1_555 1_555
C32A O5A 1_555 1_555
H38A C32A 1_555 1_555
H39A C32A 1_555 1_555
C33A C32A 1_555 1_555
H40A C33A 1_555 1_555
H41A C33A 1_555 1_555
H42A C33A 1_555 1_555
C5 C6 1_555 1_555
C13 C14 1_555 1_555
C20 C21 1_555 1_555
C39 C40 1_555 1_555
C5A C6A 1_555 1_555
C6A C7A 1_555 1_555
C13A C14A 1_555 1_555
C18A C19A 1_555 1_555
C20A C21A 1_555 1_555

#END
