
#######################################################################
#
#                 Cambridge Crystallographic Data Centre
#                                CCDC 
#
#######################################################################
#
# If this CIF has been generated from an entry in the Cambridge 
# Structural Database, then it will include bibliographic, chemical, 
# crystal, experimental, refinement or atomic coordinate data resulting 
# from the CCDC's data processing and validation procedures.
#
#######################################################################

data_YEZQOL
_chemical_formula_moiety         'C23 H34 N2 O4'
_chemical_name_systematic        
1-Methoxy-14-methyl-16-(4-nitrophenyl)azacyclohexadec-13-en-2-one
_symmetry_cell_setting           monoclinic
_symmetry_space_group_name_H-M   'P 21/n'
_symmetry_Int_Tables_number      14
_space_group_name_Hall           '-P 2yn'
loop_
_symmetry_equiv_pos_site_id
_symmetry_equiv_pos_as_xyz
1 x,y,z
2 1/2-x,1/2+y,1/2-z
3 -x,-y,-z
4 1/2+x,1/2-y,1/2+z
_cell_length_a                   9.849(4)
_cell_length_b                   11.546(5)
_cell_length_c                   19.915(8)
_cell_angle_alpha                90
_cell_angle_beta                 95.101(5)
_cell_angle_gamma                90
_cell_volume                     2255.7
_exptl_crystal_colour            colorless
_exptl_crystal_description       block
_cell_formula_units_Z            4
loop_
_atom_site_label
_atom_site_type_symbol
_atom_site_fract_x
_atom_site_fract_y
_atom_site_fract_z
N1 N 0.6480(2) 0.4959(2) 0.07148(14)
N2 N 0.09052(17) 0.28031(15) 0.16011(8)
O1 O 0.6924(2) 0.4637(2) 0.02029(13)
O2 O 0.6895(3) 0.5788(3) 0.10117(16)
O3 O 0.05879(15) 0.27787(14) 0.08967(7)
O4 O 0.01239(16) 0.22399(16) 0.25731(8)
C1 C 0.5369(2) 0.4294(2) 0.09804(12)
C2 C 0.4852(2) 0.4656(2) 0.15607(12)
H1 H 0.5165 0.5331 0.1778
C3 C 0.3853(2) 0.3990(2) 0.18140(11)
H2 H 0.3501 0.4216 0.2212
C4 C 0.3364(2) 0.29997(18) 0.14934(10)
C5 C 0.3898(2) 0.26787(19) 0.09014(11)
H3 H 0.3570 0.2018 0.0675
C6 C 0.4905(2) 0.3322(2) 0.06430(12)
H4 H 0.5262 0.3099 0.0246
C7 C 0.2262(2) 0.23034(18) 0.17934(10)
H5 H 0.2425 0.2367 0.2285
C8 C 0.2243(2) 0.10106(19) 0.16220(12)
H6 H 0.1514 0.0649 0.1844
H7 H 0.2020 0.0929 0.1140
C9 C 0.3531(2) 0.0355(2) 0.18118(12)
C10 C 0.4025(2) -0.0433(2) 0.14196(13)
H8 H 0.4807 -0.0813 0.1599
C11 C 0.3493(3) -0.0798(2) 0.07248(13)
H9 H 0.4231 -0.0767 0.0433
H10 H 0.2798 -0.0254 0.0551
C12 C 0.2890(3) -0.2014(2) 0.06986(15)
H11 H 0.2655 -0.2220 0.0230
H12 H 0.3585 -0.2552 0.0880
C13 C 0.1635(3) -0.2171(2) 0.10795(15)
H13 H 0.1422 -0.2991 0.1088
H14 H 0.1860 -0.1926 0.1542
C14 C 0.0370(3) -0.1530(2) 0.08050(14)
H15 H 0.0161 -0.1736 0.0335
H16 H 0.0548 -0.0703 0.0827
C15 C -0.0858(3) -0.1798(3) 0.11903(17)
H17 H -0.1029 -0.2625 0.1162
H18 H -0.0625 -0.1613 0.1662
C16 C -0.2160(4) -0.1175(3) 0.0958(2)
H19 H -0.2896 -0.1535 0.1176
H20 H -0.2342 -0.1302 0.0477
C17 C -0.2216(3) 0.0126(3) 0.10860(16)
H21 H -0.1481 0.0495 0.0872
H22 H -0.3068 0.0425 0.0873
C18 C -0.2105(3) 0.0452(3) 0.18052(15)
H23 H -0.1172 0.0325 0.1990
H24 H -0.2680 -0.0064 0.2040
C19 C -0.2502(3) 0.1714(3) 0.19596(15)
H25 H -0.3434 0.1847 0.1775
H26 H -0.2471 0.1812 0.2444
C20 C -0.1589(2) 0.2623(2) 0.16764(14)
H27 H -0.1604 0.2526 0.1192
H28 H -0.1936 0.3389 0.1764
C21 C -0.0142(2) 0.25206(19) 0.19893(12)
C22 C 0.0526(3) 0.3934(2) 0.06325(14)
H29 H -0.0206 0.4347 0.0813
H30 H 0.0370 0.3906 0.0150
H31 H 0.1372 0.4324 0.0758
C23 C 0.4205(3) 0.0601(2) 0.25032(12)
H32 H 0.4942 0.0067 0.2603
H33 H 0.3551 0.0515 0.2830
H34 H 0.4551 0.1379 0.2519
loop_
_geom_bond_atom_site_label_1
_geom_bond_atom_site_label_2
_geom_bond_site_symmetry_1
_geom_bond_site_symmetry_2
N1 O1 1_555 1_555
N2 O3 1_555 1_555
O2 N1 1_555 1_555
O3 C22 1_555 1_555
O4 C21 1_555 1_555
C1 N1 1_555 1_555
C2 C1 1_555 1_555
H1 C2 1_555 1_555
C3 C2 1_555 1_555
H2 C3 1_555 1_555
C4 C3 1_555 1_555
C5 C4 1_555 1_555
H3 C5 1_555 1_555
C6 C1 1_555 1_555
H4 C6 1_555 1_555
C7 N2 1_555 1_555
H5 C7 1_555 1_555
C8 C7 1_555 1_555
H6 C8 1_555 1_555
H7 C8 1_555 1_555
C9 C8 1_555 1_555
C10 C9 1_555 1_555
H8 C10 1_555 1_555
C11 C10 1_555 1_555
H9 C11 1_555 1_555
H10 C11 1_555 1_555
C12 C11 1_555 1_555
H11 C12 1_555 1_555
H12 C12 1_555 1_555
C13 C12 1_555 1_555
H13 C13 1_555 1_555
H14 C13 1_555 1_555
C14 C13 1_555 1_555
H15 C14 1_555 1_555
H16 C14 1_555 1_555
C15 C14 1_555 1_555
H17 C15 1_555 1_555
H18 C15 1_555 1_555
C16 C15 1_555 1_555
H19 C16 1_555 1_555
H20 C16 1_555 1_555
C17 C16 1_555 1_555
H21 C17 1_555 1_555
H22 C17 1_555 1_555
C18 C17 1_555 1_555
H23 C18 1_555 1_555
H24 C18 1_555 1_555
C19 C18 1_555 1_555
H25 C19 1_555 1_555
H26 C19 1_555 1_555
C20 C19 1_555 1_555
H27 C20 1_555 1_555
H28 C20 1_555 1_555
C21 N2 1_555 1_555
C22 H29 1_555 1_555
H30 C22 1_555 1_555
H31 C22 1_555 1_555
C23 C9 1_555 1_555
H32 C23 1_555 1_555
H33 C23 1_555 1_555
H34 C23 1_555 1_555
C4 C7 1_555 1_555
C5 C6 1_555 1_555
C20 C21 1_555 1_555

#END
