
#######################################################################
#
#                 Cambridge Crystallographic Data Centre
#                                CCDC 
#
#######################################################################
#
# If this CIF has been generated from an entry in the Cambridge 
# Structural Database, then it will include bibliographic, chemical, 
# crystal, experimental, refinement or atomic coordinate data resulting 
# from the CCDC's data processing and validation procedures.
#
#######################################################################

data_YEZQUR
_chemical_formula_moiety         'C19 H26 N2 O5 S1'
_chemical_name_systematic        
N-Methoxy-4-nitro-N-(1-(3,7,7-trimethylbicyclo[4.1.0]hept-3-en-2-yl)ethyl)benzenesulfonamide
_symmetry_cell_setting           monoclinic
_symmetry_space_group_name_H-M   'P 21'
_symmetry_Int_Tables_number      4
_space_group_name_Hall           'P 2yb'
loop_
_symmetry_equiv_pos_site_id
_symmetry_equiv_pos_as_xyz
1 x,y,z
2 -x,1/2+y,-z
_cell_length_a                   6.751(2)
_cell_length_b                   10.752(3)
_cell_length_c                   14.225(5)
_cell_angle_alpha                90
_cell_angle_beta                 101.543(5)
_cell_angle_gamma                90
_cell_volume                     1011.66
_exptl_crystal_colour            colorless
_exptl_crystal_description       block
_cell_formula_units_Z            2
loop_
_atom_site_label
_atom_site_type_symbol
_atom_site_fract_x
_atom_site_fract_y
_atom_site_fract_z
S1 S 0.46044(11) 0.17592(8) 0.10141(5)
O1 O 0.3646(4) 0.0575(2) 0.09201(19)
O2 O 0.3407(4) 0.2853(2) 0.08543(19)
N1 N 0.5892(4) 0.1832(3) 0.21452(15)
N2 N 1.0904(5) 0.1921(4) -0.1371(2)
O3 O 1.1588(7) 0.0958(4) -0.1581(3)
O4 O 1.1491(7) 0.2925(4) -0.1574(3)
O5 O 0.6858(4) 0.3022(2) 0.22740(17)
C1 C 0.6374(4) 0.1817(4) 0.02572(18)
C2 C 0.7201(6) 0.2942(3) 0.0070(3)
H1 H 0.6766 0.3675 0.0312
C3 C 0.8668(6) 0.2978(3) -0.0475(3)
H2 H 0.9232 0.3730 -0.0611
C4 C 0.9272(5) 0.1889(4) -0.08088(19)
C5 C 0.8450(7) 0.0753(3) -0.0654(3)
H3 H 0.8876 0.0031 -0.0914
C6 C 0.6984(6) 0.0711(3) -0.0106(3)
H4 H 0.6412 -0.0043 0.0019
C7 C 0.5692(8) 0.3852(4) 0.2758(3)
H5 H 0.4279 0.3754 0.2487
H6 H 0.6089 0.4696 0.2676
H7 H 0.5937 0.3653 0.3429
C8 C 0.7398(5) 0.0816(3) 0.2452(2)
H8 H 0.6968 0.0112 0.2022
C9 C 0.9528(6) 0.1143(4) 0.2344(2)
H9 H 0.9510 0.1402 0.1697
H10 H 1.0383 0.0426 0.2491
H11 H 1.0039 0.1806 0.2777
C10 C 0.7274(5) 0.0372(3) 0.3479(2)
H12 H 0.8304 -0.0277 0.3645
C11 C 0.5282(6) -0.0246(3) 0.3492(2)
C12 C 0.4800(8) -0.1403(3) 0.2895(3)
H13 H 0.3602 -0.1783 0.3031
H14 H 0.5909 -0.1976 0.3045
H15 H 0.4581 -0.1188 0.2227
C13 C 0.4040(6) 0.0156(4) 0.4031(3)
H16 H 0.2845 -0.0287 0.3997
C14 C 0.4348(6) 0.1233(4) 0.4680(3)
H17 H 0.4110 0.0974 0.5301
H18 H 0.3345 0.1859 0.4432
C15 C 0.6383(5) 0.1811(4) 0.4818(2)
H19 H 0.6396 0.2709 0.4938
C16 C 0.8267(6) 0.1156(4) 0.5287(2)
C17 C 0.8162(7) -0.0157(4) 0.5677(3)
H20 H 0.7902 -0.0117 0.6315
H21 H 0.9425 -0.0574 0.5690
H22 H 0.7094 -0.0608 0.5271
C18 C 0.9887(6) 0.1938(5) 0.5888(3)
H23 H 0.9937 0.2735 0.5590
H24 H 1.1171 0.1530 0.5944
H25 H 0.9589 0.2047 0.6515
C19 C 0.7854(6) 0.1392(3) 0.4216(2)
H26 H 0.8662 0.2063 0.4016
loop_
_geom_bond_atom_site_label_1
_geom_bond_atom_site_label_2
_geom_bond_site_symmetry_1
_geom_bond_site_symmetry_2
S1 O1 1_555 1_555
O2 S1 1_555 1_555
N1 S1 1_555 1_555
N2 O3 1_555 1_555
O4 N2 1_555 1_555
O5 N1 1_555 1_555
C1 S1 1_555 1_555
C2 C1 1_555 1_555
H1 C2 1_555 1_555
C3 C2 1_555 1_555
H2 C3 1_555 1_555
C4 N2 1_555 1_555
C5 C4 1_555 1_555
H3 C5 1_555 1_555
C6 C1 1_555 1_555
H4 C6 1_555 1_555
C7 O5 1_555 1_555
H5 C7 1_555 1_555
H6 C7 1_555 1_555
H7 C7 1_555 1_555
C8 N1 1_555 1_555
H8 C8 1_555 1_555
C9 C8 1_555 1_555
H9 C9 1_555 1_555
H10 C9 1_555 1_555
H11 C9 1_555 1_555
C10 C8 1_555 1_555
H12 C10 1_555 1_555
C11 C10 1_555 1_555
C12 C11 1_555 1_555
H13 C12 1_555 1_555
H14 C12 1_555 1_555
H15 C12 1_555 1_555
C13 C11 1_555 1_555
H16 C13 1_555 1_555
C14 C13 1_555 1_555
H17 C14 1_555 1_555
H18 C14 1_555 1_555
C15 C14 1_555 1_555
H19 C15 1_555 1_555
C16 C15 1_555 1_555
C17 C16 1_555 1_555
H20 C17 1_555 1_555
H21 C17 1_555 1_555
H22 C17 1_555 1_555
C18 C16 1_555 1_555
H23 C18 1_555 1_555
H24 C18 1_555 1_555
H25 C18 1_555 1_555
C19 C10 1_555 1_555
H26 C19 1_555 1_555
C3 C4 1_555 1_555
C5 C6 1_555 1_555
C15 C19 1_555 1_555
C16 C19 1_555 1_555

#END
