
#######################################################################
#
#                 Cambridge Crystallographic Data Centre
#                                CCDC 
#
#######################################################################
#
# If this CIF has been generated from an entry in the Cambridge 
# Structural Database, then it will include bibliographic, chemical, 
# crystal, experimental, refinement or atomic coordinate data resulting 
# from the CCDC's data processing and validation procedures.
#
#######################################################################

data_YEZZOU
_chemical_formula_moiety         'C27 H26 N1 1+,C27 H24 N1 1-'
_chemical_name_systematic        
'N,N-Dibenzyl-3-(2-naphthyl)prop-2-en-1-aminium N-benzyl-N-benzylido-3-(2-naphthyl)prop-2-en-1-amine'
_symmetry_cell_setting           monoclinic
_symmetry_space_group_name_H-M   'P 21'
_symmetry_Int_Tables_number      4
_space_group_name_Hall           'P 2yb'
loop_
_symmetry_equiv_pos_site_id
_symmetry_equiv_pos_as_xyz
1 x,y,z
2 -x,1/2+y,-z
_cell_length_a                   6.1308(5)
_cell_length_b                   33.463(4)
_cell_length_c                   10.2958(7)
_cell_angle_alpha                90
_cell_angle_beta                 90.668(7)
_cell_angle_gamma                90
_cell_volume                     2112.09
_exptl_crystal_colour            'light colorless'
_exptl_crystal_description       block
_cell_formula_units_Z            2
loop_
_atom_site_label
_atom_site_type_symbol
_atom_site_fract_x
_atom_site_fract_y
_atom_site_fract_z
N2 N -0.0545(15) 0.2682(3) 0.3356(10)
H25 H 0.0544 0.2554 0.3798
C28 C 0.4091(17) 0.3756(4) 0.5861(12)
H26 H 0.4807 0.3540 0.5491
C29 C 0.5043(16) 0.3962(4) 0.6857(13)
H27 H 0.6433 0.3888 0.7138
C30 C 0.3975(17) 0.4287(4) 0.7485(12)
C31 C 0.492(2) 0.4492(4) 0.8566(14)
H28 H 0.6300 0.4421 0.8874
C32 C 0.382(3) 0.4788(5) 0.9134(15)
H29 H 0.4445 0.4918 0.9844
C33 C 0.174(3) 0.4909(4) 0.8691(15)
H30 H 0.1001 0.5114 0.9106
C34 C 0.082(2) 0.4719(5) 0.7635(15)
H31 H -0.0543 0.4799 0.7323
C35 C 0.1920(17) 0.4404(3) 0.7029(12)
C36 C 0.0983(17) 0.4189(4) 0.5953(12)
H32 H -0.0371 0.4268 0.5629
C37 C 0.2003(16) 0.3872(4) 0.5388(11)
C38 C 0.0936(19) 0.3643(4) 0.4352(12)
H33 H -0.0278 0.3759 0.3956
C39 C 0.152(2) 0.3289(4) 0.3925(14)
H34 H 0.2731 0.3170 0.4312
C40 C 0.036(2) 0.3061(4) 0.2849(13)
H35 H -0.0806 0.3223 0.2488
H36 H 0.1384 0.3003 0.2161
C41 C -0.130(2) 0.2412(5) 0.2304(16)
H37 H -0.2297 0.2555 0.1732
H38 H -0.2083 0.2188 0.2676
C42 C 0.0606(19) 0.2256(4) 0.1524(13)
C43 C 0.208(2) 0.1996(4) 0.2062(16)
H39 H 0.1906 0.1912 0.2915
C44 C 0.382(3) 0.1858(6) 0.136(2)
H40 H 0.4846 0.1690 0.1748
C45 C 0.401(3) 0.1970(6) 0.009(2)
H41 H 0.5150 0.1868 -0.0402
C46 C 0.259(3) 0.2224(5) -0.0464(17)
H42 H 0.2787 0.2306 -0.1318
C47 C 0.089(3) 0.2362(5) 0.0205(14)
H43 H -0.0119 0.2529 -0.0201
C48 C -0.233(2) 0.2757(4) 0.4282(14)
H44 H -0.3630 0.2836 0.3804
H45 H -0.1915 0.2977 0.4850
C49 C -0.2827(19) 0.2387(4) 0.5105(13)
C50 C -0.485(2) 0.2229(5) 0.5127(17)
H46 H -0.5956 0.2338 0.4617
C51 C -0.527(3) 0.1900(6) 0.592(2)
H47 H -0.6660 0.1791 0.5939
C52 C -0.366(3) 0.1739(5) 0.6664(18)
H48 H -0.3964 0.1523 0.7202
C53 C -0.159(3) 0.1894(5) 0.6627(15)
H49 H -0.0473 0.1781 0.7123
C54 C -0.119(2) 0.2217(4) 0.5853(14)
H50 H 0.0205 0.2324 0.5829
N1 N 0.4466(15) 0.5221(3) 0.3671(10)
C1 C 0.9048(18) 0.4149(4) 0.1204(12)
H1 H 0.9774 0.4363 0.1593
C2 C 1.0023(19) 0.3950(4) 0.0198(14)
H2 H 1.1395 0.4028 -0.0081
C3 C 0.8957(16) 0.3628(4) -0.0410(11)
C4 C 0.990(2) 0.3425(4) -0.1503(13)
H3 H 1.1254 0.3503 -0.1808
C5 C 0.880(3) 0.3116(5) -0.2095(15)
H4 H 0.9400 0.2983 -0.2799
C6 C 0.680(3) 0.3006(5) -0.1637(14)
H5 H 0.6058 0.2799 -0.2057
C7 C 0.585(2) 0.3181(4) -0.0605(16)
H6 H 0.4524 0.3088 -0.0294
C8 C 0.6936(18) 0.3513(4) -0.0001(11)
C9 C 0.5968(17) 0.3716(3) 0.1100(12)
H7 H 0.4648 0.3628 0.1431
C10 C 0.7019(17) 0.4040(3) 0.1651(11)
C11 C 0.5920(19) 0.4263(4) 0.2701(12)
H8 H 0.4723 0.4143 0.3088
C12 C 0.651(2) 0.4616(4) 0.3125(12)
H9 H 0.7724 0.4735 0.2751
C13 C 0.535(2) 0.4845(5) 0.4190(13)
H10 H 0.4168 0.4683 0.4528
H11 H 0.6359 0.4901 0.4897
C14 C 0.262(2) 0.5151(4) 0.2849(13)
H12 H 0.1854 0.4912 0.2829
C15 C 0.2021(18) 0.5519(4) 0.1984(12)
C16 C 0.360(2) 0.5670(5) 0.1219(16)
H13 H 0.5002 0.5562 0.1222
C17 C 0.305(3) 0.6001(5) 0.0411(15)
H14 H 0.4102 0.6109 -0.0126
C18 C 0.106(3) 0.6160(5) 0.0401(16)
H15 H 0.0739 0.6375 -0.0138
C19 C -0.049(3) 0.6009(6) 0.1168(18)
H16 H -0.1867 0.6124 0.1177
C20 C -0.001(2) 0.5679(5) 0.1956(14)
H17 H -0.1102 0.5568 0.2464
C21 C 0.380(2) 0.5487(5) 0.4757(13)
H18 H 0.2850 0.5338 0.5330
H19 H 0.2963 0.5708 0.4401
C22 C 0.567(2) 0.5650(4) 0.5536(13)
C23 C 0.590(3) 0.5559(5) 0.6850(16)
H20 H 0.4857 0.5397 0.7237
C24 C 0.757(3) 0.5697(7) 0.7584(17)
H21 H 0.7675 0.5627 0.8457
C25 C 0.910(4) 0.5941(7) 0.704(2)
H22 H 1.0259 0.6039 0.7538
C26 C 0.890(3) 0.6039(6) 0.573(2)
H23 H 0.9952 0.6200 0.5351
C27 C 0.719(2) 0.5901(5) 0.4996(16)
H24 H 0.7046 0.5977 0.4130
loop_
_geom_bond_atom_site_label_1
_geom_bond_atom_site_label_2
_geom_bond_site_symmetry_1
_geom_bond_site_symmetry_2
N1 C13 1_555 1_555
C1 H1 1_555 1_555
C2 C1 1_555 1_555
H2 C2 1_555 1_555
C3 C2 1_555 1_555
C4 C3 1_555 1_555
H3 C4 1_555 1_555
C5 C4 1_555 1_555
H4 C5 1_555 1_555
C6 C5 1_555 1_555
H5 C6 1_555 1_555
C7 C6 1_555 1_555
H6 C7 1_555 1_555
C8 C3 1_555 1_555
C9 C8 1_555 1_555
H7 C9 1_555 1_555
C10 C1 1_555 1_555
C11 C10 1_555 1_555
H8 C11 1_555 1_555
C12 C11 1_555 1_555
H9 C12 1_555 1_555
C13 C12 1_555 1_555
H10 C13 1_555 1_555
H11 C13 1_555 1_555
C14 N1 1_555 1_555
H12 C14 1_555 1_555
C15 C14 1_555 1_555
C16 C15 1_555 1_555
H13 C16 1_555 1_555
C17 C16 1_555 1_555
H14 C17 1_555 1_555
C18 C17 1_555 1_555
H15 C18 1_555 1_555
C19 C18 1_555 1_555
H16 C19 1_555 1_555
C20 C15 1_555 1_555
H17 C20 1_555 1_555
C21 N1 1_555 1_555
H18 C21 1_555 1_555
H19 C21 1_555 1_555
C22 C21 1_555 1_555
C23 C22 1_555 1_555
H20 C23 1_555 1_555
C24 C23 1_555 1_555
H21 C24 1_555 1_555
C25 C24 1_555 1_555
H22 C25 1_555 1_555
C26 C25 1_555 1_555
H23 C26 1_555 1_555
C27 C22 1_555 1_555
H24 C27 1_555 1_555
N2 H25 1_555 1_555
C28 H26 1_555 1_555
C29 C28 1_555 1_555
H27 C29 1_555 1_555
C30 C29 1_555 1_555
C31 C30 1_555 1_555
H28 C31 1_555 1_555
C32 C31 1_555 1_555
H29 C32 1_555 1_555
C33 C32 1_555 1_555
H30 C33 1_555 1_555
C34 C33 1_555 1_555
H31 C34 1_555 1_555
C35 C30 1_555 1_555
C36 C35 1_555 1_555
H32 C36 1_555 1_555
C37 C28 1_555 1_555
C38 C37 1_555 1_555
H33 C38 1_555 1_555
C39 C38 1_555 1_555
H34 C39 1_555 1_555
C40 N2 1_555 1_555
H35 C40 1_555 1_555
H36 C40 1_555 1_555
C41 N2 1_555 1_555
H37 C41 1_555 1_555
H38 C41 1_555 1_555
C42 C41 1_555 1_555
C43 C42 1_555 1_555
H39 C43 1_555 1_555
C44 C43 1_555 1_555
H40 C44 1_555 1_555
C45 C44 1_555 1_555
H41 C45 1_555 1_555
C46 C45 1_555 1_555
H42 C46 1_555 1_555
C47 C42 1_555 1_555
H43 C47 1_555 1_555
C48 N2 1_555 1_555
H44 C48 1_555 1_555
H45 C48 1_555 1_555
C49 C48 1_555 1_555
C50 C49 1_555 1_555
H46 C50 1_555 1_555
C51 C50 1_555 1_555
H47 C51 1_555 1_555
C52 C51 1_555 1_555
H48 C52 1_555 1_555
C53 C52 1_555 1_555
H49 C53 1_555 1_555
C54 C49 1_555 1_555
H50 C54 1_555 1_555
C7 C8 1_555 1_555
C9 C10 1_555 1_555
C19 C20 1_555 1_555
C26 C27 1_555 1_555
C34 C35 1_555 1_555
C36 C37 1_555 1_555
C39 C40 1_555 1_555
C46 C47 1_555 1_555
C53 C54 1_555 1_555

#END
