
#######################################################################
#
#                 Cambridge Crystallographic Data Centre
#                                CCDC 
#
#######################################################################
#
# If this CIF has been generated from an entry in the Cambridge 
# Structural Database, then it will include bibliographic, chemical, 
# crystal, experimental, refinement or atomic coordinate data resulting 
# from the CCDC's data processing and validation procedures.
#
#######################################################################

data_YIBGEY
_chemical_formula_moiety         'C17 H14 F3 N3 O2'
_chemical_name_systematic        
3-[4-(dimethylamino)phenyl]-4-[4-(trifluoromethyl)phenyl]-1,2,3-oxadiazol-3-ium-5-olate
_symmetry_cell_setting           monoclinic
_symmetry_space_group_name_H-M   'P 21/c'
_symmetry_Int_Tables_number      14
_space_group_name_Hall           '-P 2ybc'
loop_
_symmetry_equiv_pos_site_id
_symmetry_equiv_pos_as_xyz
1 x,y,z
2 -x,1/2+y,1/2-z
3 -x,-y,-z
4 x,1/2-y,1/2+z
_cell_length_a                   8.6341(4)
_cell_length_b                   15.3202(5)
_cell_length_c                   12.6571(6)
_cell_angle_alpha                90
_cell_angle_beta                 104.380(4)
_cell_angle_gamma                90
_cell_volume                     1621.78
_cell_formula_units_Z            4
loop_
_atom_site_label
_atom_site_type_symbol
_atom_site_fract_x
_atom_site_fract_y
_atom_site_fract_z
O1 O 0.5846(2) 0.62446(11) 0.45522(17)
O2 O 0.6785(2) 0.56798(13) 0.62428(16)
N1 N 0.6592(2) 0.52902(12) 0.35674(16)
N2 N 0.5795(3) 0.60257(14) 0.34933(19)
N3 N 0.6715(3) 0.37705(15) -0.04231(17)
C1 C 0.6661(3) 0.56072(17) 0.5278(2)
C2 C 0.7175(3) 0.49937(15) 0.45932(18)
C3 C 0.8187(2) 0.42376(14) 0.49499(18)
C4 C 0.9181(3) 0.38680(16) 0.4356(2)
H1 H 0.9198 0.4097 0.3679
C5 C 1.0139(3) 0.31658(16) 0.4765(2)
H2 H 1.0796 0.2924 0.4361
C6 C 1.0132(3) 0.28163(17) 0.5772(2)
C7 C 0.9164(3) 0.3187(2) 0.6366(2)
H3 H 0.9159 0.2958 0.7046
C8 C 0.8215(3) 0.38840(19) 0.5971(2)
H4 H 0.7576 0.4127 0.6388
C9 C 1.1159(4) 0.2076(2) 0.6244(3)
C10 C 0.6650(3) 0.48884(14) 0.25487(18)
C11 C 0.5915(3) 0.40955(15) 0.22638(19)
H5 H 0.5402 0.3816 0.2733
C12 C 0.5943(3) 0.37203(15) 0.12870(19)
H6 H 0.5456 0.3181 0.1103
C13 C 0.6696(3) 0.41373(16) 0.05567(18)
C14 C 0.7424(3) 0.49417(16) 0.0873(2)
H7 H 0.7934 0.5231 0.0409
C15 C 0.7401(3) 0.53138(16) 0.1855(2)
H8 H 0.7890 0.5851 0.2052
C16 C 0.5846(4) 0.29821(19) -0.0798(2)
H9 H 0.6244 0.2517 -0.0296
H10 H 0.5983 0.2832 -0.1506
H11 H 0.4731 0.3071 -0.0843
C17 C 0.7519(4) 0.4195(2) -0.1156(2)
H12 H 0.7025 0.4750 -0.1374
H13 H 0.7444 0.3836 -0.1788
H14 H 0.8624 0.4282 -0.0792
F1 F 1.2473(5) 0.2294(3) 0.6974(5)
F2 F 1.0435(4) 0.1445(2) 0.6667(6)
F3 F 1.1888(8) 0.1688(4) 0.5480(5)
F4? F 1.1857(14) 0.2230(10) 0.7264(16)
F5? F 1.0621(15) 0.1386(8) 0.5877(17)
F6? F 1.228(3) 0.2024(11) 0.5888(17)
loop_
_geom_bond_atom_site_label_1
_geom_bond_atom_site_label_2
_geom_bond_site_symmetry_1
_geom_bond_site_symmetry_2
O1 N2 1_555 1_555
O2 C1 1_555 1_555
N1 N2 1_555 1_555
N3 C13 1_555 1_555
C1 O1 1_555 1_555
C2 N1 1_555 1_555
C3 C2 1_555 1_555
C4 C3 1_555 1_555
H1 C4 1_555 1_555
C5 C4 1_555 1_555
H2 C5 1_555 1_555
C6 C5 1_555 1_555
C7 C6 1_555 1_555
H3 C7 1_555 1_555
C8 C3 1_555 1_555
H4 C8 1_555 1_555
C9 C6 1_555 1_555
C10 N1 1_555 1_555
C11 C10 1_555 1_555
H5 C11 1_555 1_555
C12 C11 1_555 1_555
H6 C12 1_555 1_555
C13 C12 1_555 1_555
C14 C13 1_555 1_555
H7 C14 1_555 1_555
C15 C10 1_555 1_555
H8 C15 1_555 1_555
C16 N3 1_555 1_555
H9 C16 1_555 1_555
H10 C16 1_555 1_555
H11 C16 1_555 1_555
C17 N3 1_555 1_555
H12 C17 1_555 1_555
H13 C17 1_555 1_555
H14 C17 1_555 1_555
F1 C9 1_555 1_555
F2 C9 1_555 1_555
F3 C9 1_555 1_555
C1 C2 1_555 1_555
C7 C8 1_555 1_555
C14 C15 1_555 1_555

#END
