
#######################################################################
#
#                 Cambridge Crystallographic Data Centre
#                                CCDC 
#
#######################################################################
#
# If this CIF has been generated from an entry in the Cambridge 
# Structural Database, then it will include bibliographic, chemical, 
# crystal, experimental, refinement or atomic coordinate data resulting 
# from the CCDC's data processing and validation procedures.
#
#######################################################################

data_YIBHIC
_chemical_formula_moiety         'C31 H32,C6 F6'
_chemical_name_systematic        
'2,7-Di-t-butyl-4-(4-methylphenyl)pyrene hexafluorobenzene solvate'
_symmetry_cell_setting           monoclinic
_symmetry_space_group_name_H-M   'P 21/c'
_symmetry_Int_Tables_number      14
_space_group_name_Hall           '-P 2ybc'
loop_
_symmetry_equiv_pos_site_id
_symmetry_equiv_pos_as_xyz
1 x,y,z
2 -x,1/2+y,1/2-z
3 -x,-y,-z
4 x,1/2-y,1/2+z
_cell_length_a                   6.9096(5)
_cell_length_b                   28.792(2)
_cell_length_c                   16.0491(12)
_cell_angle_alpha                90
_cell_angle_beta                 99.820(4)
_cell_angle_gamma                90
_cell_volume                     3146.05
_exptl_crystal_colour            brown
_exptl_crystal_description       plate
_cell_formula_units_Z            4
loop_
_atom_site_label
_atom_site_type_symbol
_atom_site_fract_x
_atom_site_fract_y
_atom_site_fract_z
C1 C 0.3926(4) 0.13563(14) 0.3646(2)
H1 H 0.4394 0.1299 0.4215
C2 C 0.3726(4) 0.09870(13) 0.3083(2)
C3 C 0.3061(4) 0.10816(12) 0.2235(2)
H2 H 0.2911 0.0836 0.1853
C4 C 0.2609(4) 0.15279(11) 0.19318(18)
C5 C 0.1938(4) 0.16238(11) 0.10390(18)
C6 C 0.1470(4) 0.20677(12) 0.07983(18)
H3 H 0.1017 0.2126 0.0228
C7 C 0.1637(4) 0.24506(11) 0.13731(18)
C8 C 0.1191(4) 0.29062(12) 0.1119(2)
H4 H 0.0749 0.2965 0.0548
C9 C 0.1379(4) 0.32755(12) 0.1679(2)
C10 C 0.2034(4) 0.31760(13) 0.2531(2)
H5 H 0.2160 0.3419 0.2918
C11 C 0.2505(4) 0.27315(12) 0.2827(2)
C12 C 0.3193(4) 0.26253(14) 0.3704(2)
H6 H 0.3339 0.2865 0.4099
C13 C 0.3626(4) 0.21917(15) 0.3964(2)
H7 H 0.4054 0.2137 0.4537
C14 C 0.3453(4) 0.18073(13) 0.33879(19)
C15 C 0.2787(3) 0.18986(11) 0.25187(18)
C16 C 0.2312(3) 0.23578(11) 0.22411(18)
C17 C 0.0949(7) 0.37716(13) 0.1379(3)
C18 C 0.2931(19) 0.4019(4) 0.1503(12)
H8 H 0.3834 0.3843 0.1235
H9 H 0.3435 0.4046 0.2096
H10 H 0.2770 0.4323 0.1255
C19 C 0.079(3) 0.4114(4) 0.2071(8)
H11 H 0.2001 0.4120 0.2466
H12 H -0.0261 0.4024 0.2358
H13 H 0.0527 0.4418 0.1831
C20 C 0.007(2) 0.3804(3) 0.0442(7)
H14 H 0.1042 0.3712 0.0111
H15 H -0.0327 0.4118 0.0306
H16 H -0.1044 0.3602 0.0321
C21 C 0.629(2) 0.0440(5) 0.3871(12)
H17 H 0.6485 0.0652 0.4340
H18 H 0.7203 0.0509 0.3500
H19 H 0.6490 0.0127 0.4076
C22 C 0.394(2) 0.0104(3) 0.2661(6)
H20 H 0.2627 0.0116 0.2352
H21 H 0.4193 -0.0198 0.2911
H22 H 0.4855 0.0163 0.2284
C23 C 0.4209(7) 0.04899(16) 0.3391(3)
C24 C 0.2486(10) 0.03109(18) 0.3783(4)
H23 H 0.2783 0.0006 0.4010
H24 H 0.1328 0.0298 0.3358
H25 H 0.2265 0.0516 0.4229
C25 C 0.1768(5) 0.12392(12) 0.04139(19)
C26 C -0.0008(6) 0.11145(15) -0.0038(3)
H26 H -0.1128 0.1281 0.0023
C27 C -0.0151(8) 0.0735(2) -0.0596(3)
H27 H -0.1374 0.0654 -0.0900
C28 C 0.1468(10) 0.04823(16) -0.0704(3)
C29 C 0.3208(8) 0.06279(16) -0.0297(3)
H28 H 0.4343 0.0477 -0.0389
C30 C 0.3357(6) 0.09963(14) 0.0257(3)
H29 H 0.4596 0.1083 0.0535
C31 C 0.1302(10) 0.0050(2) -0.1265(3)
H30 H 0.2585 -0.0080 -0.1257
H31 H 0.0740 0.0133 -0.1834
H32 H 0.0478 -0.0175 -0.1056
C37 C 0.8010(7) 0.2271(4) 0.3217(4)
C38 C 0.7390(7) 0.2644(3) 0.2679(6)
C39 C 0.6908(6) 0.2550(3) 0.1831(5)
C40 C 0.7005(6) 0.2120(3) 0.1533(3)
C41 C 0.7597(6) 0.1770(3) 0.2059(5)
C42 C 0.8097(6) 0.1846(3) 0.2869(5)
F1 F 0.8486(4) 0.23475(18) 0.40367(19)
F2 F 0.7289(4) 0.30623(16) 0.2971(3)
F3 F 0.6288(4) 0.28921(13) 0.1283(3)
F4 F 0.6524(3) 0.20393(12) 0.07020(18)
F5 F 0.7712(4) 0.13394(14) 0.1750(2)
F6 F 0.8711(4) 0.14883(15) 0.3407(2)
C32? C 0.243(4) 0.3921(7) 0.0838(16)
H33? H 0.3076 0.3652 0.0663
H34? H 0.3385 0.4122 0.1160
H35? H 0.1769 0.4083 0.0349
C33? C -0.080(3) 0.3947(5) 0.1831(13)
H36? H -0.0383 0.3939 0.2433
H37? H -0.1915 0.3748 0.1677
H38? H -0.1144 0.4259 0.1655
C34? C -0.116(3) 0.3819(5) 0.0909(19)
H39? H -0.1334 0.4119 0.0647
H40? H -0.2055 0.3785 0.1302
H41? H -0.1418 0.3582 0.0483
C35? C 0.552(3) 0.0522(7) 0.4303(11)
H42? H 0.4809 0.0686 0.4676
H43? H 0.6713 0.0685 0.4267
H44? H 0.5822 0.0215 0.4518
C36? C 0.541(4) 0.0293(7) 0.2811(12)
H45? H 0.5763 -0.0020 0.2977
H46? H 0.6574 0.0476 0.2828
H47? H 0.4671 0.0294 0.2247
loop_
_geom_bond_atom_site_label_1
_geom_bond_atom_site_label_2
_geom_bond_site_symmetry_1
_geom_bond_site_symmetry_2
C1 H1 1_555 1_555
C2 C1 1_555 1_555
C3 C2 1_555 1_555
H2 C3 1_555 1_555
C4 C3 1_555 1_555
C5 C4 1_555 1_555
C6 C5 1_555 1_555
H3 C6 1_555 1_555
C7 C6 1_555 1_555
C8 C7 1_555 1_555
H4 C8 1_555 1_555
C9 C8 1_555 1_555
C10 C9 1_555 1_555
H5 C10 1_555 1_555
C11 C10 1_555 1_555
C12 C11 1_555 1_555
H6 C12 1_555 1_555
C13 C12 1_555 1_555
H7 C13 1_555 1_555
C14 C1 1_555 1_555
C15 C4 1_555 1_555
C16 C7 1_555 1_555
C17 C9 1_555 1_555
C18 C17 1_555 1_555
H8 C18 1_555 1_555
H9 C18 1_555 1_555
H10 C18 1_555 1_555
C19 C17 1_555 1_555
H11 C19 1_555 1_555
H12 C19 1_555 1_555
H13 C19 1_555 1_555
C20 C17 1_555 1_555
H14 C20 1_555 1_555
H15 C20 1_555 1_555
H16 C20 1_555 1_555
C21 H17 1_555 1_555
H18 C21 1_555 1_555
H19 C21 1_555 1_555
C22 H20 1_555 1_555
H21 C22 1_555 1_555
H22 C22 1_555 1_555
C23 C2 1_555 1_555
C24 C23 1_555 1_555
H23 C24 1_555 1_555
H24 C24 1_555 1_555
H25 C24 1_555 1_555
C25 C5 1_555 1_555
C26 C25 1_555 1_555
H26 C26 1_555 1_555
C27 C26 1_555 1_555
H27 C27 1_555 1_555
C28 C27 1_555 1_555
C29 C28 1_555 1_555
H28 C29 1_555 1_555
C30 C25 1_555 1_555
H29 C30 1_555 1_555
C31 C28 1_555 1_555
H30 C31 1_555 1_555
H31 C31 1_555 1_555
H32 C31 1_555 1_555
C37 C38 1_555 1_555
C38 C39 1_555 1_555
C39 C40 1_555 1_555
C40 C41 1_555 1_555
C41 C42 1_555 1_555
C42 C37 1_555 1_555
F1 C37 1_555 1_555
F2 C38 1_555 1_555
F3 C39 1_555 1_555
F4 C40 1_555 1_555
F5 C41 1_555 1_555
F6 C42 1_555 1_555
C11 C16 1_555 1_555
C13 C14 1_555 1_555
C14 C15 1_555 1_555
C15 C16 1_555 1_555
C21 C23 1_555 1_555
C22 C23 1_555 1_555
C29 C30 1_555 1_555

#END
