
#######################################################################
#
#                 Cambridge Crystallographic Data Centre
#                                CCDC 
#
#######################################################################
#
# If this CIF has been generated from an entry in the Cambridge 
# Structural Database, then it will include bibliographic, chemical, 
# crystal, experimental, refinement or atomic coordinate data resulting 
# from the CCDC's data processing and validation procedures.
#
#######################################################################

data_YIBHOI
_chemical_formula_moiety         'C34 H43 B3 O6'
_chemical_name_systematic        
2,2',2''-(Pyrene-2,4,7-triyl)tris(4,4,5,5-tetramethyl-1,3,2-dioxaborolane)
_symmetry_cell_setting           monoclinic
_symmetry_space_group_name_H-M   'P 21'
_symmetry_Int_Tables_number      4
_space_group_name_Hall           'P 2yb'
loop_
_symmetry_equiv_pos_site_id
_symmetry_equiv_pos_as_xyz
1 x,y,z
2 -x,1/2+y,-z
_cell_length_a                   10.2047(2)
_cell_length_b                   12.2407(2)
_cell_length_c                   13.1535(3)
_cell_angle_alpha                90
_cell_angle_beta                 101.2530(10)
_cell_angle_gamma                90
_cell_volume                     1611.45
_exptl_crystal_colour            colorless
_exptl_crystal_description       rod
_cell_formula_units_Z            2
loop_
_atom_site_label
_atom_site_type_symbol
_atom_site_fract_x
_atom_site_fract_y
_atom_site_fract_z
C1 C 0.7473(5) 0.2412(6) 0.2720(4)
H1 H 0.8095 0.2715 0.2347
C2 C 0.7594(5) 0.2643(5) 0.3788(4)
C3 C 0.6678(5) 0.2207(5) 0.4324(4)
H2 H 0.6739 0.2391 0.5033
C4 C 0.5651(5) 0.1494(5) 0.3839(4)
C5 C 0.4704(5) 0.1009(7) 0.4378(4)
C6 C 0.3729(5) 0.0371(6) 0.3887(4)
H3 H 0.3132 0.0049 0.4271
C7 C 0.3544(5) 0.0149(5) 0.2791(4)
C8 C 0.2518(5) -0.0524(4) 0.2260(4)
H4 H 0.1900 -0.0833 0.2632
C9 C 0.2378(5) -0.0751(5) 0.1208(4)
C10 C 0.3343(5) -0.0326(5) 0.0685(4)
H5 H 0.3274 -0.0491 -0.0029
C11 C 0.4388(5) 0.0325(5) 0.1170(4)
C12 C 0.5343(5) 0.0822(5) 0.0622(4)
H6 H 0.5280 0.0681 -0.0096
C13 C 0.6336(5) 0.1494(6) 0.1129(4)
H7 H 0.6959 0.1798 0.0759
C14 C 0.6450(5) 0.1746(5) 0.2214(4)
C15 C 0.5533(5) 0.1258(5) 0.2753(4)
C16 C 0.4491(5) 0.0560(4) 0.2223(4)
C17 C -0.0315(5) -0.2267(6) -0.0625(5)
C18 C -0.0764(5) -0.2382(6) 0.0398(4)
C19 C -0.1017(7) -0.1369(9) -0.1355(6)
H8 H -0.0421 -0.1119 -0.1809
H9 H -0.1237 -0.0753 -0.0943
H10 H -0.1839 -0.1663 -0.1778
C20 C -0.0295(10) -0.3263(9) -0.1232(7)
H11 H 0.0000 -0.3090 -0.1879
H12 H -0.1195 -0.3578 -0.1391
H13 H 0.0323 -0.3791 -0.0833
C21 C -0.2218(6) -0.2032(10) 0.0365(6)
H14 H -0.2404 -0.2043 0.1069
H15 H -0.2823 -0.2538 -0.0075
H16 H -0.2354 -0.1291 0.0081
C22 C -0.0514(8) -0.3481(7) 0.0873(6)
H17 H 0.0441 -0.3650 0.0973
H18 H -0.1024 -0.4028 0.0414
H19 H -0.0793 -0.3490 0.1544
B1 B 0.1139(6) -0.1414(6) 0.0640(5)
O1 O 0.1081(4) -0.1870(4) -0.0317(3)
O2 O 0.0116(4) -0.1632(5) 0.1063(4)
B2 B 0.8785(5) 0.3365(5) 0.4337(4)
O3 O 0.9938(13) 0.3495(10) 0.3914(9)
O4 O 0.8898(12) 0.3790(12) 0.5298(11)
C23 C 1.0752(13) 0.4329(11) 0.4583(9)
C24 C 1.0266(13) 0.4145(11) 0.5651(8)
C25 C 1.0361(15) 0.5434(13) 0.4041(10)
H20 H 1.0335 0.5359 0.3295
H21 H 1.1022 0.5990 0.4328
H22 H 0.9478 0.5656 0.4155
C26 C 1.2190(9) 0.4033(14) 0.4619(9)
H23 H 1.2440 0.4232 0.3960
H24 H 1.2310 0.3246 0.4733
H25 H 1.2758 0.4430 0.5186
C27 C 1.0326(10) 0.5231(10) 0.6320(9)
H26 H 0.9650 0.5197 0.6756
H27 H 1.0149 0.5864 0.5856
H28 H 1.1214 0.5303 0.6761
C28 C 1.0986(11) 0.3264(12) 0.6279(9)
H29 H 1.0689 0.3221 0.6943
H30 H 1.1948 0.3412 0.6405
H31 H 1.0802 0.2568 0.5910
B3 B 0.4832(9) 0.0988(9) 0.5569(7)
O5 O 0.3919(6) 0.0475(7) 0.6042(5)
O6 O 0.5788(6) 0.1563(7) 0.6264(5)
C29 C 0.4462(9) 0.0523(9) 0.7138(8)
C30 C 0.5400(8) 0.1557(9) 0.7290(8)
C31 C 0.3283(9) 0.0636(9) 0.7667(7)
H32 H 0.3578 0.0964 0.8353
H33 H 0.2901 -0.0087 0.7743
C32 C 0.5224(16) -0.0556(12) 0.7519(9)
H34 H 0.4619 -0.1180 0.7351
H35 H 0.5545 -0.0520 0.8271
H36 H 0.5987 -0.0642 0.7174
C33 C 0.4619(17) 0.2578(15) 0.7412(16)
H37 H 0.5162 0.3221 0.7332
H38 H 0.4390 0.2586 0.8101
H39 H 0.3798 0.2591 0.6881
C34 C 0.6662(8) 0.1429(10) 0.8072(6)
H40 H 0.6989 0.0678 0.8053
H41 H 0.6491 0.1589 0.8764
H42 H 0.7336 0.1937 0.7912
H43? H 0.4775 0.1145 0.5098
O7? O 0.969(2) 0.3807(16) 0.3763(14)
O8? O 0.915(2) 0.355(2) 0.537(2)
C35? C 1.0865(19) 0.4170(17) 0.4554(14)
C36? C 1.021(2) 0.4355(16) 0.5544(13)
C37? C 1.137(2) 0.5210(18) 0.4080(14)
H44? H 1.1764 0.5007 0.3486
H45? H 1.2043 0.5574 0.4603
H46? H 1.0616 0.5708 0.3852
C38? C 1.1877(17) 0.3267(16) 0.4690(13)
H47? H 1.1454 0.2584 0.4843
H48? H 1.2612 0.3446 0.5265
H49? H 1.2227 0.3182 0.4052
C39? C 0.9626(16) 0.5556(13) 0.5557(15)
H50? H 0.9087 0.5608 0.6095
H51? H 0.9066 0.5720 0.4880
H52? H 1.0364 0.6081 0.5703
C40? C 1.1076(16) 0.4166(17) 0.6558(12)
H53? H 1.1928 0.4547 0.6588
H54? H 1.1242 0.3381 0.6657
H55? H 1.0638 0.4443 0.7106
B4? B 0.5187(15) 0.0775(14) -0.0603(11)
O9? O 0.6057(10) 0.1359(12) -0.1059(8)
O10? O 0.4218(10) 0.0289(12) -0.1281(7)
C41? C 0.5640(15) 0.1309(15) -0.2161(12)
C42? C 0.4623(14) 0.0350(13) -0.2314(13)
C43? C 0.6781(13) 0.1259(14) -0.2703(10)
H56? H 0.6457 0.1066 -0.3432
H57? H 0.7419 0.0705 -0.2374
H58? H 0.7224 0.1973 -0.2661
C44? C 0.4749(13) 0.2440(14) -0.2505(10)
H59? H 0.5347 0.3066 -0.2348
H60? H 0.4052 0.2478 -0.2089
H61? H 0.4333 0.2448 -0.3246
C45? C 0.525(4) -0.076(3) -0.242(3)
H62? H 0.6101 -0.0814 -0.1929
H63? H 0.5393 -0.0855 -0.3126
H64? H 0.4643 -0.1336 -0.2263
C46? C 0.3321(12) 0.0422(17) -0.3067(10)
H65? H 0.3488 0.0608 -0.3755
H66? H 0.2763 0.0988 -0.2840
H67? H 0.2860 -0.0283 -0.3100
H68? H 0.2606 0.1104 0.7249
loop_
_geom_bond_atom_site_label_1
_geom_bond_atom_site_label_2
_geom_bond_site_symmetry_1
_geom_bond_site_symmetry_2
C1 H1 1_555 1_555
C2 C1 1_555 1_555
C3 C2 1_555 1_555
H2 C3 1_555 1_555
C4 C3 1_555 1_555
C5 C4 1_555 1_555
C6 C5 1_555 1_555
H3 C6 1_555 1_555
C7 C6 1_555 1_555
C8 C7 1_555 1_555
H4 C8 1_555 1_555
C9 C8 1_555 1_555
C10 C9 1_555 1_555
H5 C10 1_555 1_555
C11 C10 1_555 1_555
C12 C11 1_555 1_555
H6 C12 1_555 1_555
C13 C12 1_555 1_555
H7 C13 1_555 1_555
C14 C1 1_555 1_555
C15 C4 1_555 1_555
C16 C7 1_555 1_555
C17 C18 1_555 1_555
C18 C21 1_555 1_555
C19 C17 1_555 1_555
H8 C19 1_555 1_555
H9 C19 1_555 1_555
H10 C19 1_555 1_555
C20 C17 1_555 1_555
H11 C20 1_555 1_555
H12 C20 1_555 1_555
H13 C20 1_555 1_555
C21 H14 1_555 1_555
H15 C21 1_555 1_555
H16 C21 1_555 1_555
C22 C18 1_555 1_555
H17 C22 1_555 1_555
H18 C22 1_555 1_555
H19 C22 1_555 1_555
B1 C9 1_555 1_555
O1 C17 1_555 1_555
O2 C18 1_555 1_555
B2 C2 1_555 1_555
O3 B2 1_555 1_555
O4 B2 1_555 1_555
C23 O3 1_555 1_555
C24 O4 1_555 1_555
C25 C23 1_555 1_555
H20 C25 1_555 1_555
H21 C25 1_555 1_555
H22 C25 1_555 1_555
C26 C23 1_555 1_555
H23 C26 1_555 1_555
H24 C26 1_555 1_555
H25 C26 1_555 1_555
C27 C24 1_555 1_555
H26 C27 1_555 1_555
H27 C27 1_555 1_555
H28 C27 1_555 1_555
C28 C24 1_555 1_555
H29 C28 1_555 1_555
H30 C28 1_555 1_555
H31 C28 1_555 1_555
B3 C5 1_555 1_555
O5 B3 1_555 1_555
O6 B3 1_555 1_555
C29 O5 1_555 1_555
C30 O6 1_555 1_555
C31 C29 1_555 1_555
H32 C31 1_555 1_555
H33 C31 1_555 1_555
C32 C29 1_555 1_555
H34 C32 1_555 1_555
H35 C32 1_555 1_555
H36 C32 1_555 1_555
C33 C30 1_555 1_555
H37 C33 1_555 1_555
H38 C33 1_555 1_555
H39 C33 1_555 1_555
C34 C30 1_555 1_555
H40 C34 1_555 1_555
H41 C34 1_555 1_555
H42 C34 1_555 1_555
C11 C16 1_555 1_555
C13 C14 1_555 1_555
C14 C15 1_555 1_555
C15 C16 1_555 1_555
B1 O1 1_555 1_555
B1 O2 1_555 1_555
C23 C24 1_555 1_555
C29 C30 1_555 1_555

#END
