
#######################################################################
#
#                 Cambridge Crystallographic Data Centre
#                                CCDC 
#
#######################################################################
#
# If this CIF has been generated from an entry in the Cambridge 
# Structural Database, then it will include bibliographic, chemical, 
# crystal, experimental, refinement or atomic coordinate data resulting 
# from the CCDC's data processing and validation procedures.
#
#######################################################################

data_YIBHEY
_chemical_formula_moiety         'C30 H37 B1 O2'
_chemical_name_systematic        
2-(2,7-Di-t-butylpyren-4-yl)-4,4,5,5-tetramethyl-1,3,2-dioxaborolane
_symmetry_cell_setting           monoclinic
_symmetry_space_group_name_H-M   'C c'
_symmetry_Int_Tables_number      9
_space_group_name_Hall           'C -2yc'
loop_
_symmetry_equiv_pos_site_id
_symmetry_equiv_pos_as_xyz
1 x,y,z
2 x,-y,1/2+z
3 1/2+x,1/2+y,z
4 1/2+x,1/2-y,1/2+z
_cell_length_a                   14.4974(6)
_cell_length_b                   15.9362(7)
_cell_length_c                   12.8494(5)
_cell_angle_alpha                90
_cell_angle_beta                 111.300(3)
_cell_angle_gamma                90
_cell_volume                     2765.86
_exptl_crystal_colour            colorless
_exptl_crystal_description       prism
_cell_formula_units_Z            4
loop_
_atom_site_label
_atom_site_type_symbol
_atom_site_fract_x
_atom_site_fract_y
_atom_site_fract_z
B1 B 0.9796(4) 0.3246(3) 0.4066(4)
C1 C 0.8853(3) 0.3703(3) 0.5408(3)
C2 C 0.7919(3) 0.3658(3) 0.4581(3)
H1 H 0.7869 0.3508 0.3863
C3 C 0.7045(3) 0.3830(3) 0.4775(3)
C4 C 0.7146(3) 0.4073(3) 0.5842(4)
H2 H 0.6579 0.4197 0.5989
C5 C 0.8069(3) 0.4140(3) 0.6715(3)
C6 C 0.8928(3) 0.3957(2) 0.6507(3)
C7 C 0.9879(3) 0.4043(3) 0.7369(3)
C8 C 0.9954(3) 0.4311(2) 0.8442(3)
C9 C 0.9064(3) 0.4483(3) 0.8640(3)
H3 H 0.9103 0.4658 0.9345
C10 C 0.8188(4) 0.4397(3) 0.7839(3)
H4 H 0.7625 0.4506 0.8001
C11 C 0.9750(3) 0.3520(3) 0.5195(3)
C12 C 1.0640(3) 0.3603(3) 0.6054(3)
H5 H 1.1212 0.3476 0.5917
C13 C 1.0741(3) 0.3873(2) 0.7151(3)
C14 C 1.1662(3) 0.3973(3) 0.8012(3)
H6 H 1.2232 0.3865 0.7864
C15 C 1.1754(3) 0.4223(3) 0.9066(4)
C16 C 1.0894(4) 0.4409(3) 0.9272(4)
H7 H 1.0947 0.4602 0.9974
C17 C 0.6032(3) 0.3779(3) 0.3853(4)
C18 C 0.5417(4) 0.3135(5) 0.4139(6)
H8 H 0.5734 0.2598 0.4218
H9 H 0.4776 0.3108 0.3555
H10 H 0.5344 0.3284 0.4829
C19 C 0.5566(5) 0.4634(5) 0.3689(6)
H11 H 0.5493 0.4813 0.4369
H12 H 0.4926 0.4612 0.3101
H13 H 0.5979 0.5025 0.3491
C20 C 0.6096(4) 0.3528(5) 0.2733(4)
H14 H 0.6385 0.2980 0.2796
H15 H 0.6499 0.3926 0.2531
H16 H 0.5443 0.3521 0.2170
C21 C 0.9340(6) 0.2847(4) 0.2225(5)
C22 C 0.8861(7) 0.2136(6) 0.1624(7)
H17 H 0.9066 0.1648 0.2089
H18 H 0.9031 0.2071 0.0973
H19 H 0.8157 0.2204 0.1401
C23 C 0.8951(9) 0.3590(7) 0.1443(7)
H20 H 0.8243 0.3553 0.1102
H21 H 0.9234 0.3582 0.0875
H22 H 0.9129 0.4102 0.1861
O1 O 0.9011(3) 0.3006(3) 0.3145(3)
O2 O 1.0638(3) 0.3192(3) 0.3879(3)
C24 C 1.2779(4) 0.4311(3) 0.9996(4)
C25 C 1.2980(11) 0.5194(7) 1.0426(13)
H23 H 1.2864 0.5573 0.9811
H24 H 1.3656 0.5241 1.0927
H25 H 1.2548 0.5334 1.0817
C26 C 1.2882(9) 0.3621(7) 1.0890(8)
H26 H 1.2396 0.3713 1.1225
H27 H 1.3533 0.3646 1.1456
H28 H 1.2779 0.3079 1.0541
C27 C 1.3626(6) 0.3997(7) 0.9634(8)
H29 H 1.3689 0.4363 0.9070
H30 H 1.3480 0.3439 0.9338
H31 H 1.4236 0.3993 1.0268
C28 C 1.0455(5) 0.2880(4) 0.2777(5)
C29 C 1.1228(15) 0.2330(14) 0.2752(15)
H32 H 1.1232 0.1834 0.3178
H33 H 1.1855 0.2610 0.3068
H34 H 1.1116 0.2176 0.1993
C30 C 1.0688(12) 0.3594(8) 0.2074(11)
H35 H 1.0204 0.4031 0.1943
H36 H 1.0668 0.3370 0.1373
H37 H 1.1335 0.3818 0.2476
C31? C 1.2779(4) 0.4311(3) 0.9996(4)
C32? C 1.2712(9) 0.4750(8) 1.1056(8)
H38? H 1.2439 0.4366 1.1443
H39? H 1.2294 0.5236 1.0834
H40? H 1.3362 0.4918 1.1542
C33? C 1.3343(15) 0.3503(9) 1.0270(18)
H41? H 1.3381 0.3265 0.9600
H42? H 1.3011 0.3118 1.0590
H43? H 1.4000 0.3607 1.0794
C34? C 1.3292(12) 0.5060(9) 0.9644(15)
H44? H 1.3404 0.4918 0.8974
H45? H 1.3913 0.5179 1.0230
H46? H 1.2873 0.5546 0.9511
C35? C 1.0455(5) 0.2880(4) 0.2777(5)
C36? C 1.0719(13) 0.1939(11) 0.3056(13)
H47? H 1.1424 0.1880 0.3411
H48? H 1.0492 0.1616 0.2379
H49? H 1.0404 0.1740 0.3550
C37? C 1.1234(14) 0.3119(14) 0.2368(15)
H50? H 1.1868 0.3063 0.2959
H51? H 1.1139 0.3692 0.2117
H52? H 1.1208 0.2761 0.1757
loop_
_geom_bond_atom_site_label_1
_geom_bond_atom_site_label_2
_geom_bond_site_symmetry_1
_geom_bond_site_symmetry_2
B1 C11 1_555 1_555
C1 C2 1_555 1_555
C2 H1 1_555 1_555
C3 C2 1_555 1_555
C4 C3 1_555 1_555
H2 C4 1_555 1_555
C5 C4 1_555 1_555
C6 C1 1_555 1_555
C7 C6 1_555 1_555
C8 C7 1_555 1_555
C9 C8 1_555 1_555
H3 C9 1_555 1_555
C10 C5 1_555 1_555
H4 C10 1_555 1_555
C11 C1 1_555 1_555
C12 C11 1_555 1_555
H5 C12 1_555 1_555
C13 C7 1_555 1_555
C14 C13 1_555 1_555
H6 C14 1_555 1_555
C15 C14 1_555 1_555
C16 C8 1_555 1_555
H7 C16 1_555 1_555
C17 C3 1_555 1_555
C18 C17 1_555 1_555
H8 C18 1_555 1_555
H9 C18 1_555 1_555
H10 C18 1_555 1_555
C19 C17 1_555 1_555
H11 C19 1_555 1_555
H12 C19 1_555 1_555
H13 C19 1_555 1_555
C20 C17 1_555 1_555
H14 C20 1_555 1_555
H15 C20 1_555 1_555
H16 C20 1_555 1_555
C21 C22 1_555 1_555
C22 H17 1_555 1_555
H18 C22 1_555 1_555
H19 C22 1_555 1_555
C23 C21 1_555 1_555
H20 C23 1_555 1_555
H21 C23 1_555 1_555
H22 C23 1_555 1_555
O1 B1 1_555 1_555
O2 B1 1_555 1_555
C24 C15 1_555 1_555
C25 C24 1_555 1_555
H23 C25 1_555 1_555
H24 C25 1_555 1_555
H25 C25 1_555 1_555
C26 C24 1_555 1_555
H26 C26 1_555 1_555
H27 C26 1_555 1_555
H28 C26 1_555 1_555
C27 C24 1_555 1_555
H29 C27 1_555 1_555
H30 C27 1_555 1_555
H31 C27 1_555 1_555
C28 C21 1_555 1_555
C29 C28 1_555 1_555
H32 C29 1_555 1_555
H33 C29 1_555 1_555
H34 C29 1_555 1_555
C30 C28 1_555 1_555
H35 C30 1_555 1_555
H36 C30 1_555 1_555
H37 C30 1_555 1_555
C5 C6 1_555 1_555
C9 C10 1_555 1_555
C12 C13 1_555 1_555
C15 C16 1_555 1_555
C21 O1 1_555 1_555
O2 C28 1_555 1_555

#END
