
#######################################################################
#
#                 Cambridge Crystallographic Data Centre
#                                CCDC 
#
#######################################################################
#
# If this CIF has been generated from an entry in the Cambridge 
# Structural Database, then it will include bibliographic, chemical, 
# crystal, experimental, refinement or atomic coordinate data resulting 
# from the CCDC's data processing and validation procedures.
#
#######################################################################

data_YIBJOL
_chemical_name_common            
'Benzo-TTF-calix[4]pyrrole bis(7,7,8,8-tetracyanoquinodimethane) chloroform solvate'
_chemical_formula_moiety         'C60 H44 N4 S16,2(C12 H4 N4),2.47(C1 H1 Cl3)'
_chemical_name_systematic        
"22,30-bis(1,3-benzodithiol-2-ylidene)-6,14-bis(1,3-benzodithiol-2-ylidene)-2,2,10,10,18,18,26,26-octamethyl-5,7,13,15,21,23,29,31-octathia-33,34,35,36-tetraazanonacyclo[25.5.1.1^3,9^.1^11,17^.1^19,25^.0^4,8^.0^12,16^.0^20,24^.0^28,32^]hexatriaconta-1(32),3,8,11,16,19,24,27-octaene bis(2,2'-(cyclohexa-2,5-diene-1,4-diylidene)dipropanedinitrile) chloroform solvate"
_symmetry_cell_setting           triclinic
_symmetry_space_group_name_H-M   'P -1'
_symmetry_Int_Tables_number      2
_space_group_name_Hall           '-P 1'
loop_
_symmetry_equiv_pos_site_id
_symmetry_equiv_pos_as_xyz
1 x,y,z
2 -x,-y,-z
_cell_length_a                   10.427(2)
_cell_length_b                   18.683(4)
_cell_length_c                   25.279(5)
_cell_angle_alpha                108.28(3)
_cell_angle_beta                 97.96(3)
_cell_angle_gamma                91.64(3)
_cell_volume                     4617.36
_exptl_crystal_colour            brown
_exptl_crystal_description       Plate
_cell_formula_units_Z            2
loop_
_atom_site_label
_atom_site_type_symbol
_atom_site_fract_x
_atom_site_fract_y
_atom_site_fract_z
C1 C -0.2008(6) 0.8097(4) 0.5430(3)
C2 C -0.2270(6) 0.7783(4) 0.4863(3)
C3 C -0.2067(6) 0.6998(4) 0.4716(3)
C4 C -0.1719(6) 0.6832(4) 0.5217(3)
C5 C -0.2515(6) 0.7270(4) 0.3783(3)
C6 C -0.2529(6) 0.7222(4) 0.3243(3)
C7 C -0.2548(7) 0.7553(4) 0.2314(3)
C8 C -0.2413(7) 0.6780(5) 0.2168(3)
C9 C -0.2287(6) 0.6377(5) 0.1619(3)
H1 H -0.2201 0.5848 0.1516
C10 C -0.2287(7) 0.6741(5) 0.1217(3)
H2 H -0.2229 0.6457 0.0838
C11 C -0.2369(7) 0.7498(5) 0.1363(3)
H3 H -0.2311 0.7746 0.1091
C12 C -0.2539(6) 0.7915(4) 0.1907(3)
H4 H -0.2647 0.8441 0.2002
C13 C -0.2068(6) 0.8890(4) 0.5827(3)
C14 C -0.2377(6) 0.9428(4) 0.5485(3)
H5 H -0.2394 0.9942 0.5743
H6 H -0.3226 0.9266 0.5247
H7 H -0.1708 0.9419 0.5247
C15 C -0.3152(7) 0.8884(4) 0.6197(3)
H8 H -0.2960 0.8530 0.6408
H9 H -0.3995 0.8725 0.5953
H10 H -0.3181 0.9393 0.6461
C16 C -0.0764(6) 0.9143(4) 0.6193(3)
C17 C -0.0346(6) 0.9374(4) 0.6769(3)
C18 C 0.0996(6) 0.9551(4) 0.6871(3)
C19 C 0.1434(7) 0.9432(4) 0.6364(3)
C20 C 0.0344(6) 0.9569(4) 0.7819(3)
C21 C 0.0422(6) 0.9451(4) 0.8324(3)
C22 C -0.0084(8) 0.9165(4) 0.9212(3)
C23 C 0.1230(9) 0.9316(5) 0.9295(3)
C24 C 0.1988(9) 0.9309(5) 0.9802(3)
H11 H 0.2906 0.9402 0.9865
C25 C 0.1334(11) 0.9159(5) 1.0207(4)
H12 H 0.1814 0.9154 1.0553
C26 C 0.0020(9) 0.9019(5) 1.0111(4)
H13 H -0.0402 0.8924 1.0395
C27 C -0.0688(9) 0.9014(5) 0.9626(4)
H14 H -0.1603 0.8906 0.9565
C28 C 0.2748(6) 0.9502(4) 0.6203(3)
C29 C 0.2727(7) 1.0079(4) 0.5872(3)
H15 H 0.2154 0.9869 0.5510
H16 H 0.3608 1.0181 0.5806
H17 H 0.2406 1.0551 0.6093
C30 C 0.3779(6) 0.9808(4) 0.6736(3)
H18 H 0.3520 1.0282 0.6983
H19 H 0.4620 0.9900 0.6627
H20 H 0.3854 0.9436 0.6937
C31 C 0.3078(6) 0.8748(4) 0.5823(3)
C32 C 0.3486(6) 0.8509(4) 0.5306(3)
C33 C 0.3665(6) 0.7746(4) 0.5181(3)
C34 C 0.3398(6) 0.7492(4) 0.5609(3)
C35 C 0.3967(6) 0.8092(4) 0.4298(3)
C36 C 0.3949(6) 0.8042(4) 0.3770(3)
C37 C 0.3815(7) 0.8331(5) 0.2821(3)
C38 C 0.4002(6) 0.7555(5) 0.2683(3)
C39 C 0.4073(6) 0.7112(5) 0.2125(3)
H21 H 0.4174 0.6585 0.2030
C40 C 0.3992(7) 0.7464(6) 0.1727(4)
H22 H 0.4079 0.7177 0.1352
C41 C 0.3788(8) 0.8226(6) 0.1845(4)
H23 H 0.3691 0.8442 0.1549
C42 C 0.3725(6) 0.8672(5) 0.2393(3)
H24 H 0.3623 0.9198 0.2479
C43 C 0.3473(6) 0.6750(4) 0.5723(3)
C44 C 0.4539(6) 0.6830(4) 0.6228(3)
H25 H 0.4323 0.7212 0.6564
H26 H 0.5373 0.6987 0.6146
H27 H 0.4599 0.6344 0.6298
C45 C 0.3790(6) 0.6135(4) 0.5193(3)
H28 H 0.3869 0.5655 0.5270
H29 H 0.4610 0.6289 0.5097
H30 H 0.3091 0.6073 0.4876
C46 C 0.2176(6) 0.6511(4) 0.5846(3)
C47 C 0.1831(7) 0.6220(4) 0.6251(3)
C48 C 0.0477(7) 0.6062(4) 0.6143(3)
C49 C -0.0042(6) 0.6233(4) 0.5677(3)
C50 C 0.1302(7) 0.5718(4) 0.7037(3)
C51 C 0.1345(7) 0.5576(4) 0.7526(3)
C52 C 0.0650(10) 0.5416(5) 0.8420(3)
C53 C 0.1955(9) 0.5619(5) 0.8557(3)
C54 C 0.2610(10) 0.5744(5) 0.9111(3)
H31 H 0.3515 0.5889 0.9212
C55 C 0.1847(14) 0.5643(6) 0.9505(4)
H32 H 0.2257 0.5727 0.9881
C56 C 0.0601(13) 0.5437(6) 0.9377(4)
H33 H 0.0141 0.5369 0.9659
C57 C -0.0060(10) 0.5317(5) 0.8835(4)
H34 H -0.0965 0.5173 0.8745
C58 C -0.1383(6) 0.6124(4) 0.5335(3)
C59 C -0.1422(6) 0.5483(4) 0.4788(3)
H35 H -0.2277 0.5431 0.4557
H36 H -0.1264 0.5011 0.4870
H37 H -0.0750 0.5592 0.4583
C60 C -0.2390(6) 0.5905(4) 0.5665(3)
H38 H -0.2290 0.6272 0.6045
H39 H -0.2249 0.5400 0.5690
H40 H -0.3268 0.5905 0.5468
N1 N -0.1688(5) 0.7511(3) 0.5638(2)
H41 H -0.1487 0.7568 0.6000
N2 N 0.3053(5) 0.8116(3) 0.6003(2)
H42 H 0.2843 0.8117 0.6329
N3 N 0.1021(5) 0.6506(3) 0.5502(2)
H43 H 0.0965 0.6659 0.5205
N4 N 0.0328(5) 0.9197(3) 0.5961(2)
H44 H 0.0330 0.9095 0.5597
S1 S 0.17396(18) 0.98503(11) 0.75829(8)
S2 S -0.11264(17) 0.95062(11) 0.73690(8)
S3 S -0.09328(19) 0.92013(12) 0.85740(8)
S4 S 0.19117(19) 0.95245(12) 0.87582(9)
S5 S -0.01806(17) 0.55999(12) 0.65698(8)
S6 S 0.26983(18) 0.59856(12) 0.68085(8)
S7 S 0.2779(2) 0.56678(13) 0.80049(9)
S8 S -0.0058(2) 0.52493(13) 0.77225(9)
S9 S 0.42356(17) 0.73113(11) 0.45376(8)
S10 S 0.38330(17) 0.89543(11) 0.48254(8)
S11 S 0.37894(18) 0.88244(12) 0.35225(8)
S12 S 0.41285(18) 0.71952(12) 0.32457(9)
S13 S -0.24632(19) 0.63706(12) 0.27022(8)
S14 S -0.27018(18) 0.80155(11) 0.30138(8)
S15 S -0.27334(17) 0.81171(11) 0.42964(8)
S16 S -0.23981(16) 0.64612(11) 0.40004(8)
C61 C 0.0854(7) 0.7089(5) 0.4077(3)
C62 C 0.0700(6) 0.7733(5) 0.3865(3)
C63 C 0.0530(7) 0.8414(6) 0.4308(4)
C64 C 0.0681(6) 0.7676(5) 0.3313(3)
C65 C 0.0837(7) 0.6974(5) 0.2903(3)
H45 H 0.0932 0.6534 0.3013
C66 C 0.0851(6) 0.6928(4) 0.2367(3)
H46 H 0.0959 0.6454 0.2101
C67 C 0.0708(7) 0.7574(5) 0.2182(3)
C68 C 0.0555(6) 0.8268(4) 0.2604(3)
H47 H 0.0455 0.8705 0.2491
C69 C 0.0542(6) 0.8345(5) 0.3147(3)
H48 H 0.0446 0.8821 0.3413
C70 C 0.0769(7) 0.7526(5) 0.1619(3)
C71 C 0.0956(7) 0.6846(5) 0.1202(3)
C72 C 0.0633(7) 0.8192(5) 0.1441(3)
N5 N 0.0975(6) 0.6606(4) 0.4259(3)
N6 N 0.0408(6) 0.8957(4) 0.4671(3)
N7 N 0.1151(6) 0.6275(4) 0.0881(3)
N8 N 0.0525(7) 0.8719(4) 0.1319(3)
C73 C 0.1614(8) 0.7869(4) 0.7332(3)
C74 C 0.0536(7) 0.7641(4) 0.7538(3)
C75 C -0.0700(9) 0.7584(4) 0.7181(3)
C76 C 0.0602(7) 0.7508(4) 0.8057(3)
C77 C 0.1867(7) 0.7588(4) 0.8406(3)
H49 H 0.2636 0.7691 0.8272
C78 C 0.1930(7) 0.7516(4) 0.8919(3)
H50 H 0.2761 0.7569 0.9142
C79 C 0.0818(8) 0.7363(5) 0.9149(3)
C80 C -0.0431(9) 0.7235(4) 0.8781(3)
H51 H -0.1195 0.7100 0.8904
C81 C -0.0496(8) 0.7309(4) 0.8262(3)
H52 H -0.1317 0.7224 0.8027
C82 C 0.0885(8) 0.7340(5) 0.9691(3)
C83 C 0.2115(10) 0.7466(5) 1.0079(3)
C84 C -0.0226(10) 0.7214(5) 0.9924(4)
N9 N 0.2483(7) 0.8064(4) 0.7164(3)
N10 N -0.1683(7) 0.7553(4) 0.6908(3)
N11 N 0.3090(8) 0.7576(4) 1.0363(3)
N12 N -0.1156(8) 0.7126(5) 1.0111(3)
C85 C 0.4828(17) 0.0978(6) 0.1884(6)
H53 H 0.5775 0.1065 0.2040
Cl1 Cl 0.4714(5) 0.1181(4) 0.1297(3)
Cl2 Cl 0.4459(6) 0.0056(4) 0.1788(3)
Cl3 Cl 0.4105(5) 0.1603(4) 0.2373(3)
C86 C 0.6190(15) 0.4850(9) 0.9185(6)
H54 H 0.6906 0.4521 0.9064
Cl4 Cl 0.6957(6) 0.5627(4) 0.9579(3)
Cl5 Cl 0.5284(7) 0.4330(5) 0.9414(5)
Cl6 Cl 0.5400(14) 0.4842(6) 0.8614(4)
loop_
_geom_bond_atom_site_label_1
_geom_bond_atom_site_label_2
_geom_bond_site_symmetry_1
_geom_bond_site_symmetry_2
C1 C2 1_555 1_555
C2 C3 1_555 1_555
C3 C4 1_555 1_555
C4 C58 1_555 1_555
C5 C6 1_555 1_555
C6 S13 1_555 1_555
C7 C8 1_555 1_555
C8 C9 1_555 1_555
C9 H1 1_555 1_555
C10 C9 1_555 1_555
H2 C10 1_555 1_555
C11 C10 1_555 1_555
H3 C11 1_555 1_555
C12 C7 1_555 1_555
H4 C12 1_555 1_555
C13 C1 1_555 1_555
C14 C13 1_555 1_555
H5 C14 1_555 1_555
H6 C14 1_555 1_555
H7 C14 1_555 1_555
C15 C13 1_555 1_555
H8 C15 1_555 1_555
H9 C15 1_555 1_555
H10 C15 1_555 1_555
C16 C13 1_555 1_555
C17 C16 1_555 1_555
C18 C17 1_555 1_555
C19 C18 1_555 1_555
C20 C21 1_555 1_555
C21 S3 1_555 1_555
C22 C23 1_555 1_555
C23 C24 1_555 1_555
C24 H11 1_555 1_555
C25 C24 1_555 1_555
H12 C25 1_555 1_555
C26 C25 1_555 1_555
H13 C26 1_555 1_555
C27 C22 1_555 1_555
H14 C27 1_555 1_555
C28 C19 1_555 1_555
C29 C28 1_555 1_555
H15 C29 1_555 1_555
H16 C29 1_555 1_555
H17 C29 1_555 1_555
C30 C28 1_555 1_555
H18 C30 1_555 1_555
H19 C30 1_555 1_555
H20 C30 1_555 1_555
C31 C28 1_555 1_555
C32 C31 1_555 1_555
C33 C32 1_555 1_555
C34 C33 1_555 1_555
C35 C36 1_555 1_555
C36 S11 1_555 1_555
C37 C38 1_555 1_555
C38 C39 1_555 1_555
C39 H21 1_555 1_555
C40 C39 1_555 1_555
H22 C40 1_555 1_555
C41 C40 1_555 1_555
H23 C41 1_555 1_555
C42 C37 1_555 1_555
H24 C42 1_555 1_555
C43 C34 1_555 1_555
C44 C43 1_555 1_555
H25 C44 1_555 1_555
H26 C44 1_555 1_555
H27 C44 1_555 1_555
C45 C43 1_555 1_555
H28 C45 1_555 1_555
H29 C45 1_555 1_555
H30 C45 1_555 1_555
C46 C43 1_555 1_555
C47 C46 1_555 1_555
C48 C47 1_555 1_555
C49 C48 1_555 1_555
C50 C51 1_555 1_555
C51 S7 1_555 1_555
C52 C53 1_555 1_555
C53 C54 1_555 1_555
C54 H31 1_555 1_555
C55 C54 1_555 1_555
H32 C55 1_555 1_555
C56 C55 1_555 1_555
H33 C56 1_555 1_555
C57 C52 1_555 1_555
H34 C57 1_555 1_555
C58 C49 1_555 1_555
C59 C58 1_555 1_555
H35 C59 1_555 1_555
H36 C59 1_555 1_555
H37 C59 1_555 1_555
C60 C58 1_555 1_555
H38 C60 1_555 1_555
H39 C60 1_555 1_555
H40 C60 1_555 1_555
N1 C1 1_555 1_555
H41 N1 1_555 1_555
N2 C31 1_555 1_555
H42 N2 1_555 1_555
N3 C46 1_555 1_555
H43 N3 1_555 1_555
N4 C16 1_555 1_555
H44 N4 1_555 1_555
S1 C18 1_555 1_555
S2 C17 1_555 1_555
S3 C22 1_555 1_555
S4 C21 1_555 1_555
S5 C48 1_555 1_555
S6 C47 1_555 1_555
S7 C53 1_555 1_555
S8 C51 1_555 1_555
S9 C33 1_555 1_555
S10 C32 1_555 1_555
S11 C37 1_555 1_555
S12 C36 1_555 1_555
S13 C8 1_555 1_555
S14 C6 1_555 1_555
S15 C2 1_555 1_555
S16 C3 1_555 1_555
C61 C62 1_555 1_555
C62 C63 1_555 1_555
C63 N6 1_555 1_555
C64 C62 1_555 1_555
C65 C64 1_555 1_555
H45 C65 1_555 1_555
C66 C65 1_555 1_555
H46 C66 1_555 1_555
C67 C66 1_555 1_555
C68 C67 1_555 1_555
H47 C68 1_555 1_555
C69 C64 1_555 1_555
H48 C69 1_555 1_555
C70 C67 1_555 1_555
C71 C70 1_555 1_555
C72 C70 1_555 1_555
N5 C61 1_555 1_555
N7 C71 1_555 1_555
N8 C72 1_555 1_555
C73 C74 1_555 1_555
C74 C75 1_555 1_555
C75 N10 1_555 1_555
C76 C74 1_555 1_555
C77 C76 1_555 1_555
H49 C77 1_555 1_555
C78 C77 1_555 1_555
H50 C78 1_555 1_555
C79 C78 1_555 1_555
C80 C79 1_555 1_555
H51 C80 1_555 1_555
C81 C76 1_555 1_555
H52 C81 1_555 1_555
C82 C79 1_555 1_555
C83 C82 1_555 1_555
C84 C82 1_555 1_555
N9 C73 1_555 1_555
N11 C83 1_555 1_555
N12 C84 1_555 1_555
C85 H53 1_555 1_555
Cl1 C85 1_555 1_555
Cl2 C85 1_555 1_555
Cl3 C85 1_555 1_555
C86 H54 1_555 1_555
Cl4 C86 1_555 1_555
Cl5 C86 1_555 1_555
Cl6 C86 1_555 1_555
C4 N1 1_555 1_555
C5 S15 1_555 1_555
C5 S16 1_555 1_555
C7 S14 1_555 1_555
C11 C12 1_555 1_555
C19 N4 1_555 1_555
C20 S1 1_555 1_555
C20 S2 1_555 1_555
C23 S4 1_555 1_555
C26 C27 1_555 1_555
C34 N2 1_555 1_555
C35 S9 1_555 1_555
C35 S10 1_555 1_555
C38 S12 1_555 1_555
C41 C42 1_555 1_555
C49 N3 1_555 1_555
C50 S5 1_555 1_555
C50 S6 1_555 1_555
C52 S8 1_555 1_555
C56 C57 1_555 1_555
C68 C69 1_555 1_555
C80 C81 1_555 1_555

#END
