
#######################################################################
#
#                 Cambridge Crystallographic Data Centre
#                                CCDC 
#
#######################################################################
#
# If this CIF has been generated from an entry in the Cambridge 
# Structural Database, then it will include bibliographic, chemical, 
# crystal, experimental, refinement or atomic coordinate data resulting 
# from the CCDC's data processing and validation procedures.
#
#######################################################################

data_YIBRUX
_chemical_name_common            
'5,17-bis(4-Nitrophenylazo)-26,28-dihydroxy-25,27-(3,6,9,12-tetraoxatetradecane-1,14-dioxy)calix(4)arene acetonitrile solvate'
_chemical_formula_moiety         'C50 H48 N6 O12,C2 H3 N1'
_chemical_name_systematic        
'5,17-bis(4-Nitrophenylazo)-26,28-dihydroxy-25,27-(3,6,9,12-tetraoxatetradecane-1,14-dioxy)pentacyclo(19.3.1.1^3,7^.1^9,13^.1^15,19^)octacosa-1(25),3,5,7(28),9,11,13(27),15,17,19(26),21,23-dodecaene acetonitrile solvate'
_symmetry_cell_setting           monoclinic
_symmetry_space_group_name_H-M   'C 2/c'
_symmetry_Int_Tables_number      15
_space_group_name_Hall           '-C 2yn'
loop_
_symmetry_equiv_pos_site_id
_symmetry_equiv_pos_as_xyz
1 x,y,z
2 1/2+x,1/2+y,z
3 -x,y,1/2-z
4 1/2-x,1/2+y,1/2-z
5 -x,-y,-z
6 1/2-x,1/2-y,-z
7 x,-y,1/2+z
8 1/2+x,1/2-y,1/2+z
_cell_length_a                   20.868(4)
_cell_length_b                   10.233(2)
_cell_length_c                   23.010(5)
_cell_angle_alpha                90
_cell_angle_beta                 92.956(5)
_cell_angle_gamma                90
_cell_volume                     4907.07
_exptl_crystal_colour            orange-red
_exptl_crystal_description       plate
_cell_formula_units_Z            4
_exptl_crystal_recrystallization_method acetonitrile/dichloromethane
loop_
_atom_site_label
_atom_site_type_symbol
_atom_site_fract_x
_atom_site_fract_y
_atom_site_fract_z
N1 N 0.83579(15) -0.2700(3) 0.06007(13)
N2 N 0.78844(16) -0.3219(3) 0.07665(13)
N3 N 0.68924(19) -0.7154(3) -0.07723(16)
O1 O 0.91274(10) 0.1683(2) 0.30916(9)
O2 O 0.94121(11) 0.1349(2) 0.19474(10)
H1 H 0.9262 0.1431 0.2268
O3 O 0.64352(18) -0.7754(3) -0.06226(15)
O4 O 0.71518(16) -0.7335(3) -0.12329(14)
O5 O 0.84350(12) 0.3689(2) 0.24884(12)
O6 O 0.9240(3) 0.6246(6) 0.2412(2)
C1 C 0.90258(15) 0.0394(3) 0.32487(14)
C2 C 0.93976(15) -0.0158(3) 0.36945(14)
C3 C 0.92719(18) -0.1451(4) 0.38430(16)
H2 H 0.9515 -0.1845 0.4145
C4 C 0.8794(2) -0.2154(4) 0.35506(19)
H3 H 0.8705 -0.3003 0.3665
C5 C 0.84495(17) -0.1596(4) 0.30888(17)
H4 H 0.8135 -0.2082 0.2886
C6 C 0.85643(15) -0.0325(4) 0.29237(15)
C7 C 0.82275(15) 0.0226(3) 0.23705(15)
H5 H 0.7783 -0.0054 0.2349
H6 H 0.8234 0.1173 0.2387
C8 C 0.91144(15) 0.0354(3) 0.16579(14)
C9 C 0.85498(15) -0.0226(3) 0.18315(15)
C10 C 0.82954(16) -0.1247(3) 0.14951(15)
H7 H 0.7924 -0.1664 0.1604
C11 C 0.85873(18) -0.1651(3) 0.09995(15)
C12 C 0.91351(17) -0.1042(3) 0.08334(14)
H8 H 0.9321 -0.1312 0.0495
C13 C 0.94145(16) -0.0044(3) 0.11541(14)
C14 C 0.99538(16) 0.0561(3) 0.40017(14)
H9 H 0.9944 0.1474 0.3887
H10 H 0.9914 0.0517 0.4419
C15 C 0.76715(18) -0.4242(3) 0.03354(15)
C16 C 0.71537(18) -0.4945(4) 0.04888(16)
H11 H 0.6969 -0.4779 0.0841
C17 C 0.69045(17) -0.5892(3) 0.01286(16)
H12 H 0.6553 -0.6377 0.0237
C18 C 0.71661(17) -0.6129(3) -0.03857(14)
C19 C 0.76880(18) -0.5440(4) -0.05546(15)
H13 H 0.7866 -0.5614 -0.0909
C20 C 0.79447(17) -0.4487(4) -0.01903(17)
H14 H 0.8299 -0.4009 -0.0296
C21 C 0.87094(18) 0.2599(3) 0.33690(15)
H15 H 0.8851 0.2720 0.3773
H16 H 0.8273 0.2268 0.3355
C22 C 0.87347(19) 0.3864(3) 0.30503(15)
H17 H 0.8513 0.4537 0.3259
H18 H 0.9177 0.4134 0.3018
C23 C 0.8460(2) 0.4760(4) 0.20903(18)
H19 H 0.8204 0.4526 0.1742
H20 H 0.8252 0.5501 0.2264
C24 C 0.9063(3) 0.5184(6) 0.1916(2)
H21 H 0.9033 0.5576 0.1532
H22 H 0.9372 0.4475 0.1921
C25 C 0.9749(2) 0.6847(5) 0.2266(2)
H23 H 0.9640 0.7742 0.2164
H24 H 0.9912 0.6429 0.1925
N1B N 1.16421(15) -0.2700(3) 0.43993(13)
N2B N 1.21156(16) -0.3219(3) 0.42335(13)
N3B N 1.31076(19) -0.7154(3) 0.57723(16)
O1B O 1.08726(10) 0.1683(2) 0.19084(9)
O2B O 1.05879(11) 0.1349(2) 0.30526(10)
H1B H 1.0738 0.1431 0.2732
O3B O 1.35648(18) -0.7754(3) 0.56226(15)
O4B O 1.28482(16) -0.7335(3) 0.62329(14)
O5B O 1.15650(12) 0.3689(2) 0.25116(12)
O6B O 1.0760(3) 0.6246(6) 0.2588(2)
C1B C 1.09742(15) 0.0394(3) 0.17513(14)
C2B C 1.06024(15) -0.0158(3) 0.13055(14)
C3B C 1.07281(18) -0.1451(4) 0.11570(16)
H2B H 1.0485 -0.1845 0.0855
C4B C 1.1206(2) -0.2154(4) 0.14494(19)
H3B H 1.1295 -0.3003 0.1335
C5B C 1.15505(17) -0.1596(4) 0.19112(17)
H4B H 1.1865 -0.2082 0.2114
C6B C 1.14357(15) -0.0325(4) 0.20763(15)
C7B C 1.17725(15) 0.0226(3) 0.26295(15)
H5B H 1.2217 -0.0054 0.2651
H6B H 1.1766 0.1173 0.2613
C8B C 1.08856(15) 0.0354(3) 0.33421(14)
C9B C 1.14502(15) -0.0226(3) 0.31685(15)
C10B C 1.17046(16) -0.1247(3) 0.35049(15)
H7B H 1.2076 -0.1664 0.3396
C11B C 1.14127(18) -0.1651(3) 0.40005(15)
C12B C 1.08649(17) -0.1042(3) 0.41666(14)
H8B H 1.0679 -0.1312 0.4505
C13B C 1.05855(16) -0.0044(3) 0.38459(14)
C14B C 1.00462(16) 0.0561(3) 0.09983(14)
H9B H 1.0056 0.1474 0.1113
H10B H 1.0086 0.0517 0.0581
C15B C 1.23285(18) -0.4242(3) 0.46646(15)
C16B C 1.28463(18) -0.4945(4) 0.45112(16)
H11B H 1.3031 -0.4779 0.4159
C17B C 1.30955(17) -0.5892(3) 0.48714(16)
H12B H 1.3447 -0.6377 0.4763
C18B C 1.28339(17) -0.6129(3) 0.53857(14)
C19B C 1.23120(18) -0.5440(4) 0.55546(15)
H13B H 1.2134 -0.5614 0.5909
C20B C 1.20553(17) -0.4487(4) 0.51903(17)
H14B H 1.1701 -0.4009 0.5296
C21B C 1.12906(18) 0.2599(3) 0.16310(15)
H15B H 1.1149 0.2720 0.1227
H16B H 1.1727 0.2268 0.1645
C22B C 1.12653(19) 0.3864(3) 0.19497(15)
H17B H 1.1487 0.4537 0.1741
H18B H 1.0823 0.4134 0.1982
C23B C 1.1540(2) 0.4760(4) 0.29097(18)
H19B H 1.1796 0.4526 0.3258
H20B H 1.1748 0.5501 0.2736
C24B C 1.0937(3) 0.5184(6) 0.3084(2)
H21B H 1.0967 0.5576 0.3468
H22B H 1.0628 0.4475 0.3079
C25B C 1.0251(2) 0.6847(5) 0.2734(2)
H23B H 1.0360 0.7742 0.2836
H24B H 1.0088 0.6429 0.3075
O7? O 1.0411(3) 0.5271(6) 0.2786(3)
N4? N 0.0267(10) 0.5344(10) 0.0604(9)
C26? C 0.0141(6) 0.3937(10) 0.0328(6)
C27? C 0.0248(5) 0.4747(8) 0.0622(5)
C28? C -0.0275(7) 0.4971(16) 0.0309(7)
loop_
_geom_bond_atom_site_label_1
_geom_bond_atom_site_label_2
_geom_bond_site_symmetry_1
_geom_bond_site_symmetry_2
N1 N2 1_555 1_555
N2 C15 1_555 1_555
N3 O3 1_555 1_555
O1 C1 1_555 1_555
O2 H1 1_555 1_555
O4 N3 1_555 1_555
O5 C22 1_555 1_555
O6 C24 1_555 1_555
C1 C2 1_555 1_555
C2 C3 1_555 1_555
C3 H2 1_555 1_555
C4 C3 1_555 1_555
H3 C4 1_555 1_555
C5 C4 1_555 1_555
H4 C5 1_555 1_555
C6 C1 1_555 1_555
C7 C6 1_555 1_555
H5 C7 1_555 1_555
H6 C7 1_555 1_555
C8 O2 1_555 1_555
C9 C7 1_555 1_555
C10 C9 1_555 1_555
H7 C10 1_555 1_555
C11 N1 1_555 1_555
C12 C11 1_555 1_555
H8 C12 1_555 1_555
C13 C8 1_555 1_555
C14 C2 1_555 1_555
H9 C14 1_555 1_555
H10 C14 1_555 1_555
C15 C16 1_555 1_555
C16 H11 1_555 1_555
C17 C16 1_555 1_555
H12 C17 1_555 1_555
C18 N3 1_555 1_555
C19 C18 1_555 1_555
H13 C19 1_555 1_555
C20 C15 1_555 1_555
H14 C20 1_555 1_555
C21 O1 1_555 1_555
H15 C21 1_555 1_555
H16 C21 1_555 1_555
C22 C21 1_555 1_555
H17 C22 1_555 1_555
H18 C22 1_555 1_555
C23 O5 1_555 1_555
H19 C23 1_555 1_555
H20 C23 1_555 1_555
C24 C23 1_555 1_555
H21 C24 1_555 1_555
H22 C24 1_555 1_555
C25 O6 1_555 1_555
H23 C25 1_555 1_555
H24 C25 1_555 1_555
N1B N2B 1_555 1_555
N2B C15B 1_555 1_555
N3B O3B 1_555 1_555
O1B C1B 1_555 1_555
O2B H1B 1_555 1_555
O4B N3B 1_555 1_555
O5B C22B 1_555 1_555
O6B C24B 1_555 1_555
C1B C2B 1_555 1_555
C2B C3B 1_555 1_555
C3B H2B 1_555 1_555
C4B C3B 1_555 1_555
H3B C4B 1_555 1_555
C5B C4B 1_555 1_555
H4B C5B 1_555 1_555
C6B C1B 1_555 1_555
C7B C6B 1_555 1_555
H5B C7B 1_555 1_555
H6B C7B 1_555 1_555
C8B O2B 1_555 1_555
C9B C7B 1_555 1_555
C10B C9B 1_555 1_555
H7B C10B 1_555 1_555
C11B N1B 1_555 1_555
C12B C11B 1_555 1_555
H8B C12B 1_555 1_555
C13B C14 1_555 1_555
C14B C13 1_555 1_555
H9B C14B 1_555 1_555
H10B C14B 1_555 1_555
C15B C16B 1_555 1_555
C16B H11B 1_555 1_555
C17B C16B 1_555 1_555
H12B C17B 1_555 1_555
C18B N3B 1_555 1_555
C19B C18B 1_555 1_555
H13B C19B 1_555 1_555
C20B C15B 1_555 1_555
H14B C20B 1_555 1_555
C21B O1B 1_555 1_555
H15B C21B 1_555 1_555
H16B C21B 1_555 1_555
C22B C21B 1_555 1_555
H17B C22B 1_555 1_555
H18B C22B 1_555 1_555
C23B O5B 1_555 1_555
H19B C23B 1_555 1_555
H20B C23B 1_555 1_555
C24B C23B 1_555 1_555
H21B C24B 1_555 1_555
H22B C24B 1_555 1_555
C25B C25 1_555 1_555
H23B C25B 1_555 1_555
H24B C25B 1_555 1_555
C5 C6 1_555 1_555
C8 C9 1_555 1_555
C10 C11 1_555 1_555
C12 C13 1_555 1_555
C17 C18 1_555 1_555
C19 C20 1_555 1_555
O6B C25B 1_555 1_555
C2B C14B 1_555 1_555
C5B C6B 1_555 1_555
C8B C9B 1_555 1_555
C8B C13B 1_555 1_555
C10B C11B 1_555 1_555
C12B C13B 1_555 1_555
C17B C18B 1_555 1_555
C19B C20B 1_555 1_555

#END
