
#######################################################################
#
#                 Cambridge Crystallographic Data Centre
#                                CCDC 
#
#######################################################################
#
# If this CIF has been generated from an entry in the Cambridge 
# Structural Database, then it will include bibliographic, chemical, 
# crystal, experimental, refinement or atomic coordinate data resulting 
# from the CCDC's data processing and validation procedures.
#
#######################################################################

data_YICBAO
_chemical_formula_moiety         'C14 H16 N2 S4'
_chemical_name_systematic        
2,2'-(m-Phenylenedimethylenedithio)bis(1,3-thiazoline)
_symmetry_cell_setting           monoclinic
_symmetry_space_group_name_H-M   'C 2/c'
_symmetry_Int_Tables_number      15
_space_group_name_Hall           '-C 2yn'
loop_
_symmetry_equiv_pos_site_id
_symmetry_equiv_pos_as_xyz
1 x,y,z
2 1/2+x,1/2+y,z
3 -x,y,1/2-z
4 1/2-x,1/2+y,1/2-z
5 -x,-y,-z
6 1/2-x,1/2-y,-z
7 x,-y,1/2+z
8 1/2+x,1/2-y,1/2+z
_cell_length_a                   24.47(2)
_cell_length_b                   7.195(6)
_cell_length_c                   9.097(8)
_cell_angle_alpha                90
_cell_angle_beta                 91.61(3)
_cell_angle_gamma                90
_cell_volume                     1601
_exptl_crystal_colour            colorless
_exptl_crystal_description       block
_chemical_melting_point          '335-336 K'
_cell_formula_units_Z            4
_exptl_crystal_recrystallization_method acetone-water
loop_
_atom_site_label
_atom_site_type_symbol
_atom_site_fract_x
_atom_site_fract_y
_atom_site_fract_z
S1 S 0.28316(3) 0.28032(14) 0.82060(11)
S2 S 0.35173(3) 0.05214(12) 0.62772(9)
N1 N 0.38555(10) 0.3579(4) 0.7746(3)
C1 C 0.31168(17) 0.4628(6) 0.9315(5)
H1 H 0.2879 0.5706 0.9287
H2 H 0.3163 0.4223 1.0328
C2 C 0.36616(15) 0.5096(5) 0.8683(4)
H3 H 0.3628 0.6227 0.8107
H4 H 0.3926 0.5316 0.9477
C3 C 0.34814(11) 0.2437(4) 0.7452(3)
C4 C 0.42161(12) 0.0664(5) 0.5653(3)
H5 H 0.4228 0.0167 0.4663
H6 H 0.4323 0.1961 0.5611
C5 C 0.46223(10) -0.0362(4) 0.6613(3)
C6 C 0.46310(14) -0.2285(4) 0.6614(4)
H7 H 0.4386 -0.2940 0.6011
C7 C 0.5000 -0.3232(7) 0.7500
H8 H 0.5000 -0.4524 0.7500
C8 C 0.5000 0.0582(5) 0.7500
H9 H 0.5000 0.1874 0.7500
S1B S 0.71684(3) 0.28032(14) 0.67940(11)
S2B S 0.64827(3) 0.05214(12) 0.87228(9)
N1B N 0.61445(10) 0.3579(4) 0.7254(3)
C1B C 0.68832(17) 0.4628(6) 0.5685(5)
H1B H 0.7121 0.5706 0.5713
H2B H 0.6837 0.4223 0.4672
C2B C 0.63384(15) 0.5096(5) 0.6317(4)
H3B H 0.6372 0.6227 0.6893
H4B H 0.6074 0.5316 0.5523
C3B C 0.65186(11) 0.2437(4) 0.7548(3)
C4B C 0.57839(12) 0.0664(5) 0.9347(3)
H5B H 0.5772 0.0167 1.0337
H6B H 0.5677 0.1961 0.9389
C5B C 0.53777(10) -0.0362(4) 0.8387(3)
C6B C 0.53690(14) -0.2285(4) 0.8386(4)
H7B H 0.5614 -0.2940 0.8989
loop_
_geom_bond_atom_site_label_1
_geom_bond_atom_site_label_2
_geom_bond_site_symmetry_1
_geom_bond_site_symmetry_2
S1 C1 1_555 1_555
S2 C3 1_555 1_555
N1 C2 1_555 1_555
C1 H1 1_555 1_555
H2 C1 1_555 1_555
C2 C1 1_555 1_555
H3 C2 1_555 1_555
H4 C2 1_555 1_555
C3 S1 1_555 1_555
C4 S2 1_555 1_555
H5 C4 1_555 1_555
H6 C4 1_555 1_555
C5 C4 1_555 1_555
C6 C5 1_555 1_555
H7 C6 1_555 1_555
C7 C6 1_555 1_555
H8 C7 1_555 1_555
C8 C5 1_555 1_555
H9 C8 1_555 1_555
S1B C1B 1_555 1_555
S2B C3B 1_555 1_555
N1B C2B 1_555 1_555
C1B H1B 1_555 1_555
H2B C1B 1_555 1_555
C2B C1B 1_555 1_555
H3B C2B 1_555 1_555
H4B C2B 1_555 1_555
C3B S1B 1_555 1_555
C4B S2B 1_555 1_555
H5B C4B 1_555 1_555
H6B C4B 1_555 1_555
C5B C8 1_555 1_555
C6B C7 1_555 1_555
H7B C6B 1_555 1_555
N1 C3 1_555 1_555
N1B C3B 1_555 1_555
C4B C5B 1_555 1_555
C5B C6B 1_555 1_555

#END
