
#######################################################################
#
#                 Cambridge Crystallographic Data Centre
#                                CCDC 
#
#######################################################################
#
# If this CIF has been generated from an entry in the Cambridge 
# Structural Database, then it will include bibliographic, chemical, 
# crystal, experimental, refinement or atomic coordinate data resulting 
# from the CCDC's data processing and validation procedures.
#
#######################################################################

data_YICLEC
_chemical_formula_moiety         'C31 H19 N1 O3'
_chemical_name_systematic        
3-Benzoyl-1,2-diphenyl-1H-benzo(f)indole-4,9-dione
_symmetry_cell_setting           triclinic
_symmetry_space_group_name_H-M   'P -1'
_symmetry_Int_Tables_number      2
_space_group_name_Hall           '-P 1'
loop_
_symmetry_equiv_pos_site_id
_symmetry_equiv_pos_as_xyz
1 x,y,z
2 -x,-y,-z
_cell_length_a                   10.481(2)
_cell_length_b                   10.916(2)
_cell_length_c                   11.948(3)
_cell_angle_alpha                63.29(2)
_cell_angle_beta                 68.99(3)
_cell_angle_gamma                73.49(3)
_cell_volume                     1127.45
_exptl_crystal_colour            yellow
_exptl_crystal_description       block
_chemical_melting_point          '466.2 K'
_cell_formula_units_Z            2
_exptl_crystal_recrystallization_method 'petroleum ether-ethyl acetate'
loop_
_atom_site_label
_atom_site_type_symbol
_atom_site_fract_x
_atom_site_fract_y
_atom_site_fract_z
O1 O 0.7106(3) 1.1233(2) -0.2472(2)
O2 O 0.9849(2) 0.6779(2) 0.06276(19)
O3 O 0.9441(2) 0.8457(2) 0.2954(2)
N1 N 0.7002(2) 1.0905(2) 0.01710(19)
C1 C 0.9872(3) 0.6859(4) -0.2932(3)
H1 H 1.0305 0.6113 -0.3177
C2 C 0.9282(4) 0.8042(4) -0.3760(3)
H2 H 0.9337 0.8109 -0.4579
C3 C 0.8604(3) 0.9138(3) -0.3387(3)
H3 H 0.8194 0.9935 -0.3953
C4 C 0.8528(3) 0.9060(3) -0.2166(2)
C5 C 0.9174(3) 0.7864(3) -0.1339(2)
C6 C 0.9827(3) 0.6773(3) -0.1730(3)
H4 H 1.0241 0.5970 -0.1175
C7 C 0.7721(3) 1.0238(3) -0.1774(2)
C8 C 0.7706(3) 1.0044(2) -0.0479(2)
C9 C 0.8390(3) 0.8903(2) 0.0327(2)
C10 C 0.9203(3) 0.7764(3) -0.0057(2)
C11 C 0.7253(3) 1.0326(2) 0.1383(2)
C12 C 0.8129(2) 0.9093(2) 0.1490(2)
C13 C 0.8619(3) 0.8132(3) 0.2666(2)
C14 C 0.8045(3) 0.6811(2) 0.3498(2)
C15 C 0.8451(3) 0.5932(3) 0.4619(3)
H5 H 0.9082 0.6172 0.4843
C16 C 0.7922(3) 0.4697(3) 0.5409(3)
H6 H 0.8188 0.4116 0.6167
C17 C 0.7012(3) 0.4334(3) 0.5075(3)
H7 H 0.6666 0.3501 0.5602
C18 C 0.6604(3) 0.5188(3) 0.3969(3)
H8 H 0.5992 0.4923 0.3745
C19 C 0.7085(3) 0.6428(3) 0.3190(2)
H9 H 0.6776 0.7016 0.2456
C20 C 0.6572(3) 1.0935(2) 0.2370(2)
C21 C 0.5139(3) 1.1143(3) 0.2835(3)
H10 H 0.4595 1.0930 0.2498
C22 C 0.4526(3) 1.1664(3) 0.3795(3)
H11 H 0.3568 1.1798 0.4104
C23 C 0.5318(3) 1.1988(3) 0.4299(3)
H12 H 0.4900 1.2355 0.4935
C24 C 0.6719(3) 1.1766(3) 0.3858(3)
H13 H 0.7257 1.1970 0.4208
C25 C 0.7350(3) 1.1247(3) 0.2905(3)
H14 H 0.8309 1.1103 0.2616
C26 C 0.6260(3) 1.2267(3) -0.0363(2)
C27 C 0.4876(3) 1.2416(3) -0.0301(3)
H15 H 0.4428 1.1645 0.0074
C28 C 0.4186(3) 1.3731(3) -0.0807(3)
H16 H 0.3257 1.3852 -0.0762
C29 C 0.4860(4) 1.4874(3) -0.1383(3)
H17 H 0.4386 1.5759 -0.1725
C30 C 0.6206(4) 1.4700(3) -0.1446(3)
H18 H 0.6659 1.5471 -0.1843
C31 C 0.6921(3) 1.3399(3) -0.0931(3)
H19 H 0.7847 1.3293 -0.0971
loop_
_geom_bond_atom_site_label_1
_geom_bond_atom_site_label_2
_geom_bond_site_symmetry_1
_geom_bond_site_symmetry_2
O1 C7 1_555 1_555
O2 C10 1_555 1_555
O3 C13 1_555 1_555
N1 C8 1_555 1_555
C1 H1 1_555 1_555
C2 C1 1_555 1_555
H2 C2 1_555 1_555
C3 C2 1_555 1_555
H3 C3 1_555 1_555
C4 C3 1_555 1_555
C5 C4 1_555 1_555
C6 C1 1_555 1_555
H4 C6 1_555 1_555
C7 C4 1_555 1_555
C8 C7 1_555 1_555
C9 C8 1_555 1_555
C10 C5 1_555 1_555
C11 N1 1_555 1_555
C12 C9 1_555 1_555
C13 C12 1_555 1_555
C14 C13 1_555 1_555
C15 C14 1_555 1_555
H5 C15 1_555 1_555
C16 C15 1_555 1_555
H6 C16 1_555 1_555
C17 C16 1_555 1_555
H7 C17 1_555 1_555
C18 C17 1_555 1_555
H8 C18 1_555 1_555
C19 C14 1_555 1_555
H9 C19 1_555 1_555
C20 C11 1_555 1_555
C21 C20 1_555 1_555
H10 C21 1_555 1_555
C22 C21 1_555 1_555
H11 C22 1_555 1_555
C23 C22 1_555 1_555
H12 C23 1_555 1_555
C24 C23 1_555 1_555
H13 C24 1_555 1_555
C25 C20 1_555 1_555
H14 C25 1_555 1_555
C26 N1 1_555 1_555
C27 C26 1_555 1_555
H15 C27 1_555 1_555
C28 C27 1_555 1_555
H16 C28 1_555 1_555
C29 C28 1_555 1_555
H17 C29 1_555 1_555
C30 C29 1_555 1_555
H18 C30 1_555 1_555
C31 C26 1_555 1_555
H19 C31 1_555 1_555
C5 C6 1_555 1_555
C9 C10 1_555 1_555
C11 C12 1_555 1_555
C18 C19 1_555 1_555
C24 C25 1_555 1_555
C30 C31 1_555 1_555

#END
