
#######################################################################
#
#                 Cambridge Crystallographic Data Centre
#                                CCDC 
#
#######################################################################
#
# If this CIF has been generated from an entry in the Cambridge 
# Structural Database, then it will include bibliographic, chemical, 
# crystal, experimental, refinement or atomic coordinate data resulting 
# from the CCDC's data processing and validation procedures.
#
#######################################################################

data_YICNOO
_chemical_formula_moiety         'C11 H10 N2 O2'
_chemical_name_systematic        '4-Pyridylmethyl 1H-pyrrole-2-carboxylate'
_symmetry_cell_setting           monoclinic
_symmetry_space_group_name_H-M   'P 21/c'
_symmetry_Int_Tables_number      14
_space_group_name_Hall           '-P 2ybc'
loop_
_symmetry_equiv_pos_site_id
_symmetry_equiv_pos_as_xyz
1 x,y,z
2 -x,1/2+y,1/2-z
3 -x,-y,-z
4 x,1/2-y,1/2+z
_cell_length_a                   7.698(3)
_cell_length_b                   15.796(6)
_cell_length_c                   8.789(3)
_cell_angle_alpha                90
_cell_angle_beta                 99.771(7)
_cell_angle_gamma                90
_cell_volume                     1053.22
_exptl_crystal_colour            colorless
_chemical_melting_point          '411 K'
_cell_formula_units_Z            4
loop_
_atom_site_label
_atom_site_type_symbol
_atom_site_fract_x
_atom_site_fract_y
_atom_site_fract_z
O1 O 0.13863(18) 0.62036(10) 0.70839(19)
O2 O 0.2723(2) 0.68122(11) 0.52945(19)
N1 N 0.2301(3) 0.45899(19) 1.1917(3)
N2 N -0.1841(3) 0.63798(13) 0.5375(2)
C1 C 0.2951(3) 0.59320(18) 1.0912(4)
H1 H 0.3227 0.6500 1.1103
C2 C 0.2703(4) 0.5397(3) 1.2102(3)
H2 H 0.2828 0.5621 1.3093
C3 C 0.2122(3) 0.43009(18) 1.0493(4)
H3 H 0.1827 0.3734 1.0325
C4 C 0.2341(3) 0.47806(17) 0.9251(3)
H4 H 0.2191 0.4541 0.8271
C5 C 0.2782(3) 0.56110(17) 0.9451(3)
C6 C 0.3060(3) 0.61480(18) 0.8113(3)
H5 H 0.3463 0.6708 0.8465
H6 H 0.3940 0.5894 0.7585
C7 C 0.1383(3) 0.65758(14) 0.5707(3)
C8 C -0.0373(3) 0.66576(14) 0.4843(2)
C9 C -0.0932(3) 0.70623(15) 0.3474(3)
H7 H -0.0212 0.7314 0.2855
C10 C -0.2766(3) 0.70330(16) 0.3164(3)
H8 H -0.3494 0.7258 0.2307
C11 C -0.3282(3) 0.66119(17) 0.4357(3)
H9 H -0.4443 0.6500 0.4458
H10 H -0.183(4) 0.6091(16) 0.626(2)
loop_
_geom_bond_atom_site_label_1
_geom_bond_atom_site_label_2
_geom_bond_site_symmetry_1
_geom_bond_site_symmetry_2
O1 C6 1_555 1_555
O2 C7 1_555 1_555
N1 C2 1_555 1_555
N2 C8 1_555 1_555
C1 H1 1_555 1_555
C2 C1 1_555 1_555
H2 C2 1_555 1_555
C3 N1 1_555 1_555
H3 C3 1_555 1_555
C4 C3 1_555 1_555
H4 C4 1_555 1_555
C5 C1 1_555 1_555
C6 C5 1_555 1_555
H5 C6 1_555 1_555
H6 C6 1_555 1_555
C7 O1 1_555 1_555
C8 C7 1_555 1_555
C9 C8 1_555 1_555
H7 C9 1_555 1_555
C10 C9 1_555 1_555
H8 C10 1_555 1_555
C11 N2 1_555 1_555
H9 C11 1_555 1_555
H10 N2 1_555 1_555
C4 C5 1_555 1_555
C10 C11 1_555 1_555

#END
