
#######################################################################
#
#                 Cambridge Crystallographic Data Centre
#                                CCDC 
#
#######################################################################
#
# If this CIF has been generated from an entry in the Cambridge 
# Structural Database, then it will include bibliographic, chemical, 
# crystal, experimental, refinement or atomic coordinate data resulting 
# from the CCDC's data processing and validation procedures.
#
#######################################################################

data_YICPOQ
_chemical_formula_moiety         'C24 H6 Cl6 N6'
_chemical_name_systematic        
2,3,8,9,14,15-Hexachloro-5,6,11,12,17,18-hexa-azatrinaphthylene
_symmetry_cell_setting           monoclinic
_symmetry_space_group_name_H-M   'P 21/c'
_symmetry_Int_Tables_number      14
_space_group_name_Hall           '-P 2ybc'
loop_
_symmetry_equiv_pos_site_id
_symmetry_equiv_pos_as_xyz
1 x,y,z
2 -x,1/2+y,1/2-z
3 -x,-y,-z
4 x,1/2-y,1/2+z
_cell_length_a                   10.9644(11)
_cell_length_b                   26.634(3)
_cell_length_c                   8.0161(8)
_cell_angle_alpha                90
_cell_angle_beta                 108.908(2)
_cell_angle_gamma                90
_cell_volume                     2214.59
_exptl_crystal_colour            colorless
_exptl_crystal_description       plate
_cell_formula_units_Z            4
_exptl_crystal_recrystallization_method sublimation
loop_
_atom_site_label
_atom_site_type_symbol
_atom_site_fract_x
_atom_site_fract_y
_atom_site_fract_z
Cl1 Cl -1.05376(6) 0.10036(2) 0.97302(9)
Cl2 Cl -0.89039(6) 0.01221(2) 0.88833(9)
Cl3 Cl -0.77046(6) 0.49851(2) 0.89383(9)
Cl4 Cl -0.54597(6) 0.52793(2) 0.74932(9)
Cl5 Cl 0.02972(6) 0.20513(2) 0.38823(8)
Cl6 Cl -0.05601(6) 0.09432(2) 0.42696(9)
N1 N -0.75959(18) 0.22197(7) 0.8096(3)
N2 N -0.61463(18) 0.14294(7) 0.7294(3)
N3 N -0.69162(18) 0.31762(7) 0.7857(3)
N4 N -0.48047(18) 0.34164(7) 0.6702(3)
N5 N -0.33897(18) 0.26451(7) 0.5916(3)
N6 N -0.40895(18) 0.16384(7) 0.6308(3)
C1 C -0.6600(2) 0.23026(8) 0.7553(3)
C2 C -0.5863(2) 0.19082(9) 0.7176(3)
C3 C -0.4742(2) 0.20207(8) 0.6627(3)
C4 C -0.4385(2) 0.25315(8) 0.6433(3)
C5 C -0.5152(2) 0.29442(8) 0.6842(3)
C6 C -0.6222(2) 0.28276(8) 0.7416(3)
C7 C -0.7898(2) 0.17341(9) 0.8231(3)
C8 C -0.7168(2) 0.13376(8) 0.7839(3)
C9 C -0.7510(2) 0.08338(8) 0.8034(3)
H1 H -0.7043 0.0572 0.7769
C10 C -0.8527(2) 0.07337(8) 0.8615(3)
C11 C -0.9259(2) 0.11317(9) 0.9003(3)
C12 C -0.8944(2) 0.16187(9) 0.8830(3)
H2 H -0.9418 0.1876 0.9108
C13 C -0.6554(2) 0.36574(8) 0.7760(3)
C14 C -0.5502(2) 0.37809(9) 0.7153(3)
C15 C -0.5172(2) 0.42903(9) 0.7086(3)
H3 H -0.4490 0.4377 0.6695
C16 C -0.5850(2) 0.46563(8) 0.7592(3)
C17 C -0.6885(2) 0.45286(9) 0.8228(3)
C18 C -0.7237(2) 0.40405(9) 0.8282(3)
H4 H -0.7929 0.3960 0.8662
C19 C -0.2715(2) 0.22522(9) 0.5594(3)
C20 C -0.3066(2) 0.17481(9) 0.5790(3)
C21 C -0.2377(2) 0.13441(9) 0.5387(3)
H5 H -0.2611 0.1015 0.5522
C22 C -0.1366(2) 0.14401(9) 0.4797(3)
C23 C -0.0992(2) 0.19449(9) 0.4614(3)
C24 C -0.1647(2) 0.23376(9) 0.5009(3)
H6 H -0.1389 0.2665 0.4894
loop_
_geom_bond_atom_site_label_1
_geom_bond_atom_site_label_2
_geom_bond_site_symmetry_1
_geom_bond_site_symmetry_2
Cl1 C11 1_555 1_555
Cl2 C10 1_555 1_555
Cl3 C17 1_555 1_555
Cl4 C16 1_555 1_555
Cl5 C23 1_555 1_555
Cl6 C22 1_555 1_555
N1 C1 1_555 1_555
N2 C2 1_555 1_555
N3 C6 1_555 1_555
N4 C5 1_555 1_555
N5 C4 1_555 1_555
N6 C3 1_555 1_555
C1 C2 1_555 1_555
C2 C3 1_555 1_555
C3 C4 1_555 1_555
C4 C5 1_555 1_555
C5 C6 1_555 1_555
C6 C1 1_555 1_555
C7 N1 1_555 1_555
C8 N2 1_555 1_555
C9 C8 1_555 1_555
H1 C9 1_555 1_555
C10 C9 1_555 1_555
C11 C10 1_555 1_555
C12 C7 1_555 1_555
H2 C12 1_555 1_555
C13 N3 1_555 1_555
C14 N4 1_555 1_555
C15 C14 1_555 1_555
H3 C15 1_555 1_555
C16 C15 1_555 1_555
C17 C16 1_555 1_555
C18 C13 1_555 1_555
H4 C18 1_555 1_555
C19 N5 1_555 1_555
C20 N6 1_555 1_555
C21 C20 1_555 1_555
H5 C21 1_555 1_555
C22 C21 1_555 1_555
C23 C22 1_555 1_555
C24 C19 1_555 1_555
H6 C24 1_555 1_555
C7 C8 1_555 1_555
C11 C12 1_555 1_555
C13 C14 1_555 1_555
C17 C18 1_555 1_555
C19 C20 1_555 1_555
C23 C24 1_555 1_555

#END
