
#######################################################################
#
#                 Cambridge Crystallographic Data Centre
#                                CCDC 
#
#######################################################################
#
# If this CIF has been generated from an entry in the Cambridge 
# Structural Database, then it will include bibliographic, chemical, 
# crystal, experimental, refinement or atomic coordinate data resulting 
# from the CCDC's data processing and validation procedures.
#
#######################################################################

data_YICRUA
_chemical_formula_moiety         'C31 H35 N3 O7'
_chemical_name_systematic        
'benzyl 2-{4-[bis(t-butoxycarbonyl)amino]-2-oxopyrimidin-1(2H)-yl}-1-phenylcyclopropane-1-carboxylate'
_symmetry_cell_setting           triclinic
_symmetry_space_group_name_H-M   'P 1'
_symmetry_Int_Tables_number      1
_space_group_name_Hall           'P 1'
loop_
_symmetry_equiv_pos_site_id
_symmetry_equiv_pos_as_xyz
1 x,y,z
_cell_length_a                   5.9855(4)
_cell_length_b                   8.0159(4)
_cell_length_c                   15.4624(11)
_cell_angle_alpha                93.361(5)
_cell_angle_beta                 92.810(6)
_cell_angle_gamma                97.394(5)
_cell_volume                     733.239
_exptl_crystal_colour            colorless
_exptl_crystal_description       block
_cell_formula_units_Z            1
loop_
_atom_site_label
_atom_site_type_symbol
_atom_site_fract_x
_atom_site_fract_y
_atom_site_fract_z
O1 O 0.6057(4) 0.3592(3) 0.20693(17)
O2 O 0.3898(4) 0.3779(3) 0.63238(17)
O3 O 0.5513(4) 0.7665(3) 0.82609(17)
O4 O 0.4120(4) 0.1005(3) 0.33512(17)
O5 O 0.8267(4) 0.5665(3) 0.28996(17)
O6 O 0.1917(5) 0.3027(3) 0.30473(18)
O7 O 0.7240(5) 0.5617(3) 0.88240(17)
N1 N 0.4806(5) 0.3735(4) 0.4904(2)
N2 N 0.7609(5) 0.4407(4) 0.60627(19)
N3 N 0.5717(5) 0.3720(4) 0.34851(19)
C1 C 0.5322(6) 0.3943(4) 0.5776(2)
C2 C 0.6950(6) 0.6509(5) 0.8239(2)
C3 C 0.6418(6) 0.4034(4) 0.4365(2)
C4 C 0.6842(6) 0.4461(5) 0.2806(2)
C5 C 1.0173(6) 0.5591(5) 0.7388(2)
H1 H 1.132828 0.598917 0.700282
H2 H 1.074492 0.522827 0.793439
C6 C 0.9243(6) 0.4648(4) 0.5485(2)
H3 H 1.074214 0.491996 0.568693
C7 C 0.8723(6) 0.4498(5) 0.4624(2)
H4 H 0.981964 0.468841 0.422259
C8 C 0.7867(6) 0.7843(4) 0.6798(2)
C9 C 0.8067(6) 0.6463(4) 0.7399(2)
C10 C 0.3018(6) 0.9320(5) 0.8961(2)
C11 C 0.3633(6) 0.2561(4) 0.3271(2)
C12 C 0.8042(6) 0.4650(4) 0.6988(2)
H5 H 0.733055 0.374832 0.732352
C13 C 0.1076(7) 0.9346(5) 0.9420(3)
H6 H 0.062550 0.847121 0.976857
C14 C 0.5664(7) 0.9190(5) 0.5757(3)
H7 H 0.429878 0.925205 0.545452
C15 C 0.7550(7) 1.0339(5) 0.5632(3)
H8 H 0.745487 1.114411 0.522705
C16 C 0.3654(6) 1.0643(5) 0.8435(3)
H9 H 0.495311 1.064149 0.812888
C17 C 0.5838(6) 0.7948(5) 0.6339(2)
H10 H 0.457903 0.717759 0.642334
C18 C 0.9546(7) 1.0298(5) 0.6098(3)
H11 H 1.077850 1.110168 0.602794
C19 C 0.4386(7) 0.7894(5) 0.9055(2)
H12 H 0.548653 0.815368 0.954098
H13 H 0.341151 0.687090 0.915901
C20 C -0.0191(7) 1.0676(5) 0.9359(3)
H14 H -0.147239 1.069829 0.967376
C21 C 0.2326(6) -0.0468(5) 0.3133(3)
C22 C 0.9722(6) 0.9038(5) 0.6681(3)
H15 H 1.108284 0.899970 0.699194
C23 C 0.0458(7) 1.1979(5) 0.8825(3)
H16 H -0.039697 1.286284 0.877840
C24 C 0.2382(7) 1.1946(5) 0.8364(3)
H17 H 0.281579 1.280805 0.800614
C25 C 0.6747(7) 0.4196(5) 0.1220(2)
C26 C 0.3603(8) -0.1948(5) 0.3297(3)
H18 H 0.490220 -0.188503 0.295468
H19 H 0.263625 -0.298369 0.314011
H20 H 0.407712 -0.191194 0.390108
C27 C 0.0435(8) -0.0381(5) 0.3743(3)
H21 H 0.104377 -0.029486 0.433229
H22 H -0.063704 -0.138169 0.364631
H23 H -0.030152 0.058914 0.363701
C28 C 0.9260(7) 0.4165(6) 0.1142(3)
H24 H 1.008509 0.497199 0.156282
H25 H 0.966146 0.444472 0.057003
H26 H 0.962382 0.305904 0.124568
C29 C 0.6051(8) 0.5926(6) 0.1115(3)
H27 H 0.446216 0.588460 0.118975
H28 H 0.637579 0.627216 0.054543
H29 H 0.687230 0.671836 0.154280
C30 C 0.5375(7) 0.2889(6) 0.0582(3)
H30 H 0.572909 0.178649 0.069827
H31 H 0.573543 0.312912 0.000058
H32 H 0.379503 0.292901 0.064677
C31 C 0.1556(8) -0.0482(6) 0.2184(3)
H33 H 0.069944 0.043521 0.209992
H34 H 0.063220 -0.152918 0.201229
H35 H 0.284987 -0.035937 0.183852
loop_
_geom_bond_atom_site_label_1
_geom_bond_atom_site_label_2
_geom_bond_site_symmetry_1
_geom_bond_site_symmetry_2
O1 C4 1_555 1_555
O2 C1 1_555 1_555
O3 C2 1_555 1_555
O4 C11 1_555 1_555
O5 C4 1_555 1_555
O6 C11 1_555 1_555
O7 C2 1_555 1_555
N1 C1 1_555 1_555
N2 C1 1_555 1_555
N3 C3 1_555 1_555
C2 C9 1_555 1_555
C3 N1 1_555 1_555
C4 N3 1_555 1_555
C5 H1 1_555 1_555
H2 C5 1_555 1_555
C6 N2 1_555 1_555
H3 C6 1_555 1_555
C7 C3 1_555 1_555
H4 C7 1_555 1_555
C8 C9 1_555 1_555
C9 C5 1_555 1_555
C10 C13 1_555 1_555
C11 N3 1_555 1_555
C12 N2 1_555 1_555
H5 C12 1_555 1_555
C13 H6 1_555 1_555
C14 H7 1_555 1_555
C15 C14 1_555 1_555
H8 C15 1_555 1_555
C16 C10 1_555 1_555
H9 C16 1_555 1_555
C17 C8 1_555 1_555
H10 C17 1_555 1_555
C18 C15 1_555 1_555
H11 C18 1_555 1_555
C19 O3 1_555 1_555
H12 C19 1_555 1_555
H13 C19 1_555 1_555
C20 C13 1_555 1_555
H14 C20 1_555 1_555
C21 O4 1_555 1_555
C22 C8 1_555 1_555
H15 C22 1_555 1_555
C23 C20 1_555 1_555
H16 C23 1_555 1_555
C24 C16 1_555 1_555
H17 C24 1_555 1_555
C25 O1 1_555 1_555
C26 C21 1_555 1_555
H18 C26 1_555 1_555
H19 C26 1_555 1_555
H20 C26 1_555 1_555
C27 C21 1_555 1_555
H21 C27 1_555 1_555
H22 C27 1_555 1_555
H23 C27 1_555 1_555
C28 C25 1_555 1_555
H24 C28 1_555 1_555
H25 C28 1_555 1_555
H26 C28 1_555 1_555
C29 C25 1_555 1_555
H27 C29 1_555 1_555
H28 C29 1_555 1_555
H29 C29 1_555 1_555
C30 C25 1_555 1_555
H30 C30 1_555 1_555
H31 C30 1_555 1_555
H32 C30 1_555 1_555
C31 C21 1_555 1_555
H33 C31 1_555 1_555
H34 C31 1_555 1_555
H35 C31 1_555 1_555
C5 C12 1_555 1_555
C6 C7 1_555 1_555
C9 C12 1_555 1_555
C10 C19 1_555 1_555
C14 C17 1_555 1_555
C18 C22 1_555 1_555
C23 C24 1_555 1_555

#END
