
#######################################################################
#
#                 Cambridge Crystallographic Data Centre
#                                CCDC 
#
#######################################################################
#
# If this CIF has been generated from an entry in the Cambridge 
# Structural Database, then it will include bibliographic, chemical, 
# crystal, experimental, refinement or atomic coordinate data resulting 
# from the CCDC's data processing and validation procedures.
#
#######################################################################

data_YICSUB
_chemical_formula_moiety         'C26 H33 N3 O4 Si1'
_chemical_name_systematic        
N'-{1-(4-methoxyphenyl)-3-[tri-isopropylsilyl]prop-2-yn-1-ylidene}-4-nitrobenzohydrazide
_symmetry_cell_setting           triclinic
_symmetry_space_group_name_H-M   'P -1'
_symmetry_Int_Tables_number      2
_space_group_name_Hall           '-P 1'
loop_
_symmetry_equiv_pos_site_id
_symmetry_equiv_pos_as_xyz
1 x,y,z
2 -x,-y,-z
_cell_length_a                   7.5905(3)
_cell_length_b                   13.2349(5)
_cell_length_c                   13.9588(6)
_cell_angle_alpha                104.723(2)
_cell_angle_beta                 98.004(2)
_cell_angle_gamma                98.931(2)
_cell_volume                     1316.17
_exptl_crystal_colour            colorless
_exptl_crystal_description       block
_cell_formula_units_Z            2
loop_
_atom_site_label
_atom_site_type_symbol
_atom_site_fract_x
_atom_site_fract_y
_atom_site_fract_z
Si1 Si 0.60290(8) 0.14957(4) 0.29983(4)
C1 C 0.8998(3) 0.63477(16) 0.14032(14)
N1 N 0.7859(2) 0.56726(12) 0.46774(11)
O1 O 0.9452(2) 0.66764(13) 0.06005(11)
O2 O 0.8233(2) 0.66274(11) 0.67265(11)
C2 C 0.8711(3) 0.70143(15) 0.22826(15)
H1 H 0.8806 0.7740 0.2355
N2 N 0.7394(2) 0.51617(13) 0.53741(11)
H2 H 0.6929 0.4491 0.5172
O3 O 0.5312(3) 0.34927(14) 0.97102(12)
C3 C 0.8283(3) 0.65934(14) 0.30546(14)
H3 H 0.8090 0.7042 0.3645
N3 N 0.5690(2) 0.30678(15) 0.89057(12)
O4 O 0.5636(3) 0.21168(14) 0.86066(14)
C4 C 0.8136(2) 0.55125(13) 0.29594(13)
C5 C 0.7130(3) 0.39144(15) 0.35347(13)
C6 C 0.7702(2) 0.50532(14) 0.37745(13)
C7 C 0.8841(3) 0.52695(16) 0.12927(14)
H4 H 0.9027 0.4822 0.0700
C8 C 0.8411(2) 0.48583(15) 0.20613(14)
H5 H 0.8301 0.4130 0.1980
C9 C 0.6668(3) 0.29680(15) 0.33562(14)
C10 C 0.7962(3) 0.10243(19) 0.36394(19)
H6 H 0.9011 0.1246 0.3350
C11 C 0.8521(4) 0.1543(3) 0.4756(2)
H7 H 0.8864 0.2301 0.4880
H8 H 0.9533 0.1275 0.5017
H9 H 0.7523 0.1385 0.5083
C12 C 0.7685(5) -0.0183(2) 0.3382(3)
H10 H 0.7464 -0.0480 0.2663
H11 H 0.6664 -0.0453 0.3644
H12 H 0.8754 -0.0380 0.3677
C13 C 0.3789(3) 0.11800(19) 0.3390(2)
H13 H 0.2963 0.1509 0.3019
C14 C 0.3783(4) 0.1682(3) 0.4498(2)
H14 H 0.4217 0.2438 0.4665
H15 H 0.4558 0.1382 0.4906
H16 H 0.2568 0.1542 0.4622
C15 C 0.2955(5) 0.0005(3) 0.3060(4)
H17 H 0.2822 -0.0262 0.2341
H18 H 0.1785 -0.0100 0.3247
H19 H 0.3728 -0.0370 0.3380
C16 C 0.5804(5) 0.1011(2) 0.15966(18)
H20 H 0.5433 0.0233 0.1401
C17 C 0.7628(7) 0.1277(3) 0.1259(3)
H21 H 0.7456 0.1033 0.0537
H22 H 0.8493 0.0929 0.1549
H23 H 0.8072 0.2034 0.1481
C18 C 0.4335(7) 0.1439(3) 0.1051(2)
H24 H 0.4224 0.1153 0.0336
H25 H 0.4656 0.2202 0.1230
H26 H 0.3198 0.1230 0.1244
C19 C 0.7644(3) 0.56814(15) 0.63750(14)
C20 C 0.7111(2) 0.49653(14) 0.70104(12)
C21 C 0.6710(3) 0.54247(16) 0.79437(14)
H27 H 0.6754 0.6155 0.8150
C22 C 0.6248(3) 0.48109(16) 0.85698(14)
H28 H 0.5979 0.5120 0.9195
C23 C 0.6193(2) 0.37368(15) 0.82507(13)
C24 C 0.6604(3) 0.32552(16) 0.73357(14)
H29 H 0.6570 0.2525 0.7138
C25 C 0.9471(4) 0.7755(2) 0.0619(2)
H30 H 0.9748 0.7863 -0.0002
H31 H 1.0376 0.8213 0.1172
H32 H 0.8301 0.7917 0.0699
C26 C 0.7064(3) 0.38751(16) 0.67193(14)
H33 H 0.7347 0.3561 0.6099
loop_
_geom_bond_atom_site_label_1
_geom_bond_atom_site_label_2
_geom_bond_site_symmetry_1
_geom_bond_site_symmetry_2
Si1 C9 1_555 1_555
C1 O1 1_555 1_555
N1 N2 1_555 1_555
O1 C25 1_555 1_555
O2 C19 1_555 1_555
C2 C1 1_555 1_555
H1 C2 1_555 1_555
N2 H2 1_555 1_555
O3 N3 1_555 1_555
C3 C2 1_555 1_555
H3 C3 1_555 1_555
N3 O4 1_555 1_555
C4 C3 1_555 1_555
C5 C6 1_555 1_555
C6 N1 1_555 1_555
C7 C1 1_555 1_555
H4 C7 1_555 1_555
C8 C4 1_555 1_555
H5 C8 1_555 1_555
C9 C5 1_555 1_555
C10 Si1 1_555 1_555
H6 C10 1_555 1_555
C11 C10 1_555 1_555
H7 C11 1_555 1_555
H8 C11 1_555 1_555
H9 C11 1_555 1_555
C12 C10 1_555 1_555
H10 C12 1_555 1_555
H11 C12 1_555 1_555
H12 C12 1_555 1_555
C13 Si1 1_555 1_555
H13 C13 1_555 1_555
C14 C13 1_555 1_555
H14 C14 1_555 1_555
H15 C14 1_555 1_555
H16 C14 1_555 1_555
C15 C13 1_555 1_555
H17 C15 1_555 1_555
H18 C15 1_555 1_555
H19 C15 1_555 1_555
C16 Si1 1_555 1_555
H20 C16 1_555 1_555
C17 C16 1_555 1_555
H21 C17 1_555 1_555
H22 C17 1_555 1_555
H23 C17 1_555 1_555
C18 C16 1_555 1_555
H24 C18 1_555 1_555
H25 C18 1_555 1_555
H26 C18 1_555 1_555
C19 N2 1_555 1_555
C20 C19 1_555 1_555
C21 C20 1_555 1_555
H27 C21 1_555 1_555
C22 C21 1_555 1_555
H28 C22 1_555 1_555
C23 N3 1_555 1_555
C24 C23 1_555 1_555
H29 C24 1_555 1_555
C25 H30 1_555 1_555
H31 C25 1_555 1_555
H32 C25 1_555 1_555
C26 C20 1_555 1_555
H33 C26 1_555 1_555
C4 C6 1_555 1_555
C7 C8 1_555 1_555
C22 C23 1_555 1_555
C24 C26 1_555 1_555

#END
