
#######################################################################
#
#                 Cambridge Crystallographic Data Centre
#                                CCDC 
#
#######################################################################
#
# If this CIF has been generated from an entry in the Cambridge 
# Structural Database, then it will include bibliographic, chemical, 
# crystal, experimental, refinement or atomic coordinate data resulting 
# from the CCDC's data processing and validation procedures.
#
#######################################################################

data_YICSOV
_chemical_formula_moiety         'C13 H8 Cl1 F6 N1 O2'
_chemical_name_systematic        
(E)-3-(1-chloro-2,2,2-trifluoroethylidene)-1-[4-(trifluoromethoxy)phenyl]pyrrolidin-2-one
_symmetry_cell_setting           orthorhombic
_symmetry_space_group_name_H-M   'P b c a'
_symmetry_Int_Tables_number      61
_space_group_name_Hall           '-P 2ac 2ab'
loop_
_symmetry_equiv_pos_site_id
_symmetry_equiv_pos_as_xyz
1 x,y,z
2 1/2-x,-y,1/2+z
3 1/2+x,1/2-y,-z
4 -x,1/2+y,1/2-z
5 -x,-y,-z
6 1/2+x,y,1/2-z
7 1/2-x,1/2+y,z
8 x,1/2-y,1/2+z
_cell_length_a                   7.8926(6)
_cell_length_b                   11.8001(9)
_cell_length_c                   28.966(2)
_cell_angle_alpha                90
_cell_angle_beta                 90
_cell_angle_gamma                90
_cell_volume                     2697.7
_exptl_crystal_colour            colorless
_exptl_crystal_description       Needle
_cell_formula_units_Z            8
loop_
_atom_site_label
_atom_site_type_symbol
_atom_site_fract_x
_atom_site_fract_y
_atom_site_fract_z
Cl1 Cl 0.56172(6) 0.33944(4) 0.002995(15)
F1 F 0.58397(13) 0.39699(10) 0.37896(4)
F2 F 0.39694(14) 0.34829(10) 0.42869(3)
F3 F 0.40770(14) 0.08679(9) 0.05848(4)
F4 F 0.61876(18) 0.11014(10) 0.01324(4)
F5 F 0.65766(14) 0.11000(9) 0.08619(4)
F6 F 0.48862(18) 0.22844(10) 0.37887(4)
O1 O 0.31652(14) 0.36835(10) 0.35814(4)
O2 O 0.42507(16) 0.18650(10) 0.14995(4)
N1 N 0.42082(17) 0.37775(11) 0.16702(5)
C1 C 0.4381(2) 0.28554(14) 0.13855(6)
C2 C 0.3220(2) 0.27827(14) 0.23652(6)
H1 H 0.2895 0.2162 0.2188
C3 C 0.4479(2) 0.48690(14) 0.14368(6)
H2 H 0.5521 0.5221 0.1541
H3 H 0.3543 0.5382 0.1496
C4 C 0.4376(2) 0.46670(14) 0.24240(6)
H4 H 0.4823 0.5310 0.2284
C5 C 0.5225(2) 0.27065(15) 0.05448(6)
C6 C 0.4759(2) 0.33096(14) 0.09116(6)
C7 C 0.4157(2) 0.46460(15) 0.28987(6)
H5 H 0.4460 0.5267 0.3079
C8 C 0.3933(2) 0.37344(14) 0.21527(6)
C9 C 0.4449(2) 0.33609(15) 0.38540(6)
C10 C 0.2997(2) 0.27655(14) 0.28398(6)
H6 H 0.2523 0.2134 0.2982
C11 C 0.5510(2) 0.14371(16) 0.05309(6)
C12 C 0.3482(2) 0.36875(14) 0.30994(6)
C13 C 0.4586(2) 0.45727(15) 0.09230(6)
H7 H 0.3570 0.4813 0.0762
H8 H 0.5560 0.4933 0.0781
loop_
_geom_bond_atom_site_label_1
_geom_bond_atom_site_label_2
_geom_bond_site_symmetry_1
_geom_bond_site_symmetry_2
Cl1 C5 1_555 1_555
F1 C9 1_555 1_555
F2 C9 1_555 1_555
F3 C11 1_555 1_555
F4 C11 1_555 1_555
F5 C11 1_555 1_555
F6 C9 1_555 1_555
O1 C9 1_555 1_555
O2 C1 1_555 1_555
N1 C1 1_555 1_555
C1 C6 1_555 1_555
C2 H1 1_555 1_555
C3 N1 1_555 1_555
H2 C3 1_555 1_555
H3 C3 1_555 1_555
C4 H4 1_555 1_555
C5 C6 1_555 1_555
C6 C13 1_555 1_555
C7 C4 1_555 1_555
H5 C7 1_555 1_555
C8 N1 1_555 1_555
C10 C2 1_555 1_555
H6 C10 1_555 1_555
C11 C5 1_555 1_555
C12 O1 1_555 1_555
C13 C3 1_555 1_555
H7 C13 1_555 1_555
H8 C13 1_555 1_555
C2 C8 1_555 1_555
C4 C8 1_555 1_555
C7 C12 1_555 1_555
C10 C12 1_555 1_555

#END
