
#######################################################################
#
#                 Cambridge Crystallographic Data Centre
#                                CCDC 
#
#######################################################################
#
# If this CIF has been generated from an entry in the Cambridge 
# Structural Database, then it will include bibliographic, chemical, 
# crystal, experimental, refinement or atomic coordinate data resulting 
# from the CCDC's data processing and validation procedures.
#
#######################################################################

data_YICSOU
_chemical_formula_moiety         'C10 H16 N4 O2'
_chemical_name_systematic        (bis(morpholin-4-yl)methylene)cyanamide
_symmetry_cell_setting           triclinic
_symmetry_space_group_name_H-M   'P -1'
_symmetry_Int_Tables_number      2
_space_group_name_Hall           '-P 1'
loop_
_symmetry_equiv_pos_site_id
_symmetry_equiv_pos_as_xyz
1 x,y,z
2 -x,-y,-z
_cell_length_a                   7.7110(2)
_cell_length_b                   8.5539(3)
_cell_length_c                   9.1454(3)
_cell_angle_alpha                65.0590(10)
_cell_angle_beta                 81.4510(10)
_cell_angle_gamma                83.616(3)
_cell_volume                     540.098
_exptl_crystal_colour            colorless
_exptl_crystal_description       needle
_cell_formula_units_Z            2
loop_
_atom_site_label
_atom_site_type_symbol
_atom_site_fract_x
_atom_site_fract_y
_atom_site_fract_z
C1 C 0.2711(3) 0.4072(3) 0.5200(3)
N1 N 0.2202(3) 0.5308(2) 0.5722(2)
C2 C 0.2376(3) 0.6957(3) 0.4778(3)
N2 N 0.2477(3) 0.8432(3) 0.4101(3)
N3 N 0.2968(3) 0.2466(2) 0.6346(2)
C3 C 0.3405(3) 0.2149(3) 0.7958(3)
H1 H 0.3278 0.3236 0.8092
H2 H 0.4629 0.1706 0.8060
C4 C 0.2217(3) 0.0863(3) 0.9262(3)
H3 H 0.2581 0.0608 1.0326
H4 H 0.1011 0.1366 0.9239
O1 O 0.2265(2) -0.0697(2) 0.90496(19)
C5 C 0.1695(3) -0.0344(3) 0.7532(3)
H5 H 0.0490 0.0164 0.7504
H6 H 0.1688 -0.1429 0.7411
C6 C 0.2863(3) 0.0875(3) 0.6134(3)
H7 H 0.4040 0.0323 0.6083
H8 H 0.2387 0.1150 0.5112
N4 N 0.2882(2) 0.4325(2) 0.3617(2)
C7 C 0.4316(3) 0.3525(3) 0.2866(3)
H9 H 0.4854 0.2527 0.3713
H10 H 0.5220 0.4358 0.2269
C8 C 0.3622(3) 0.2953(3) 0.1719(3)
H11 H 0.4601 0.2496 0.1171
H12 H 0.2819 0.2024 0.2339
O2 O 0.2716(2) 0.4356(2) 0.05331(19)
C9 C 0.1306(3) 0.5058(3) 0.1302(3)
H13 H 0.0473 0.4163 0.1939
H14 H 0.0688 0.6000 0.0471
C10 C 0.1936(3) 0.5733(3) 0.2403(3)
H15 H 0.2714 0.6680 0.1766
H16 H 0.0932 0.6176 0.2938
loop_
_geom_bond_atom_site_label_1
_geom_bond_atom_site_label_2
_geom_bond_site_symmetry_1
_geom_bond_site_symmetry_2
C1 N1 1_555 1_555
N1 C2 1_555 1_555
C2 N2 1_555 1_555
N3 C1 1_555 1_555
C3 N3 1_555 1_555
H1 C3 1_555 1_555
H2 C3 1_555 1_555
C4 C3 1_555 1_555
H3 C4 1_555 1_555
H4 C4 1_555 1_555
O1 C4 1_555 1_555
C5 O1 1_555 1_555
H5 C5 1_555 1_555
H6 C5 1_555 1_555
C6 N3 1_555 1_555
H7 C6 1_555 1_555
H8 C6 1_555 1_555
N4 C1 1_555 1_555
C7 N4 1_555 1_555
H9 C7 1_555 1_555
H10 C7 1_555 1_555
C8 C7 1_555 1_555
H11 C8 1_555 1_555
H12 C8 1_555 1_555
O2 C8 1_555 1_555
C9 O2 1_555 1_555
H13 C9 1_555 1_555
H14 C9 1_555 1_555
C10 N4 1_555 1_555
H15 C10 1_555 1_555
H16 C10 1_555 1_555
C5 C6 1_555 1_555
C9 C10 1_555 1_555

#END
