
#######################################################################
#
#                 Cambridge Crystallographic Data Centre
#                                CCDC 
#
#######################################################################
#
# If this CIF has been generated from an entry in the Cambridge 
# Structural Database, then it will include bibliographic, chemical, 
# crystal, experimental, refinement or atomic coordinate data resulting 
# from the CCDC's data processing and validation procedures.
#
#######################################################################

data_YICTEM
_chemical_formula_moiety         'C27 H23 N1 O2'
_chemical_name_systematic        
1-{[7-phenyl-4-(prop-1-en-2-yl)-1,3-dihydro-2-benzofuran-5-yl]methyl}-1H-indole-3-carbaldehyde
_symmetry_cell_setting           orthorhombic
_symmetry_space_group_name_H-M   'P b c a'
_symmetry_Int_Tables_number      61
_space_group_name_Hall           '-P 2ac 2ab'
loop_
_symmetry_equiv_pos_site_id
_symmetry_equiv_pos_as_xyz
1 x,y,z
2 1/2-x,-y,1/2+z
3 -x,1/2+y,1/2-z
4 1/2+x,1/2-y,-z
5 -x,-y,-z
6 1/2+x,y,1/2-z
7 x,1/2-y,1/2+z
8 1/2-x,1/2+y,z
_cell_length_a                   37.682(4)
_cell_length_b                   6.9971(4)
_cell_length_c                   15.2009(9)
_cell_angle_alpha                90
_cell_angle_beta                 90
_cell_angle_gamma                90
_cell_volume                     4007.94
_exptl_crystal_colour            yellow
_exptl_crystal_description       plate
_cell_formula_units_Z            8
loop_
_atom_site_label
_atom_site_type_symbol
_atom_site_fract_x
_atom_site_fract_y
_atom_site_fract_z
O1 O 0.26394(5) 0.2399(3) 0.59575(14)
O2 O 0.50473(7) -0.3810(4) 0.64906(15)
N1 N 0.44063(6) 0.1591(3) 0.57785(15)
C1 C 0.46519(8) -0.2641(5) 0.46075(19)
H1 H 0.479120 -0.374368 0.472435
C2 C 0.44883(8) -0.2391(5) 0.3792(2)
H2 H 0.450898 -0.335863 0.335686
C3 C 0.42963(9) -0.0751(5) 0.3609(2)
H3 H 0.419183 -0.060815 0.304370
C4 C 0.42520(8) 0.0694(5) 0.42282(19)
H4 H 0.412094 0.181878 0.409874
C5 C 0.44082(7) 0.0412(4) 0.50430(18)
C6 C 0.46059(7) -0.1234(4) 0.52468(18)
C7 C 0.47270(8) -0.1008(4) 0.61418(18)
C8 C 0.45985(8) 0.0722(4) 0.64248(19)
H5 H 0.463815 0.124245 0.699359
C9 C 0.42419(8) 0.3472(4) 0.5844(2)
H6 H 0.436134 0.434642 0.542614
H7 H 0.428101 0.397627 0.644433
C10 C 0.38471(8) 0.3480(4) 0.56529(17)
C11 C 0.36098(7) 0.2231(4) 0.60860(17)
C12 C 0.32538(7) 0.2368(4) 0.58546(17)
C13 C 0.31304(7) 0.3657(4) 0.52368(17)
C14 C 0.33589(7) 0.4930(4) 0.48177(17)
C15 C 0.37190(7) 0.4798(4) 0.50409(17)
H8 H 0.388244 0.563918 0.476450
C16 C 0.29424(8) 0.1313(4) 0.6233(2)
H9 H 0.293103 -0.000749 0.600024
H10 H 0.295726 0.126002 0.688258
C17 C 0.27342(7) 0.3454(4) 0.5176(2)
H11 H 0.261751 0.472134 0.516949
H12 H 0.266562 0.274383 0.463941
C18 C 0.37215(8) 0.0878(4) 0.67991(18)
C19 C 0.38080(9) 0.1550(5) 0.75842(19)
H13 H 0.386892 0.069323 0.804489
H14 H 0.380927 0.288925 0.768705
C20 C 0.37156(9) -0.1214(4) 0.6605(2)
H15 H 0.348071 -0.157373 0.638336
H16 H 0.376682 -0.193043 0.714386
H17 H 0.389552 -0.150929 0.615947
C21 C 0.32308(8) 0.6400(4) 0.41861(18)
C22 C 0.33606(8) 0.8268(4) 0.4220(2)
H18 H 0.353356 0.859171 0.464967
C23 C 0.32433(9) 0.9654(5) 0.3644(2)
H19 H 0.333279 1.091981 0.368499
C24 C 0.29938(9) 0.9197(5) 0.3002(2)
H20 H 0.291544 1.014163 0.259778
C25 C 0.28610(8) 0.7361(5) 0.2958(2)
H21 H 0.268960 0.704241 0.252356
C26 C 0.29773(8) 0.5975(4) 0.35475(19)
H22 H 0.288244 0.471899 0.351432
C27 C 0.49389(8) -0.2213(5) 0.6686(2)
H23 H 0.500173 -0.173620 0.724992
loop_
_geom_bond_atom_site_label_1
_geom_bond_atom_site_label_2
_geom_bond_site_symmetry_1
_geom_bond_site_symmetry_2
O1 C16 1_555 1_555
O2 C27 1_555 1_555
N1 C5 1_555 1_555
C1 H1 1_555 1_555
C2 C1 1_555 1_555
H2 C2 1_555 1_555
C3 C2 1_555 1_555
H3 C3 1_555 1_555
C4 C3 1_555 1_555
H4 C4 1_555 1_555
C5 C4 1_555 1_555
C6 C1 1_555 1_555
C7 C6 1_555 1_555
C8 N1 1_555 1_555
H5 C8 1_555 1_555
C9 N1 1_555 1_555
H6 C9 1_555 1_555
H7 C9 1_555 1_555
C10 C9 1_555 1_555
C11 C10 1_555 1_555
C12 C11 1_555 1_555
C13 C12 1_555 1_555
C14 C13 1_555 1_555
C15 C10 1_555 1_555
H8 C15 1_555 1_555
C16 C12 1_555 1_555
H9 C16 1_555 1_555
H10 C16 1_555 1_555
C17 O1 1_555 1_555
H11 C17 1_555 1_555
H12 C17 1_555 1_555
C18 C11 1_555 1_555
C19 C18 1_555 1_555
H13 C19 1_555 1_555
H14 C19 1_555 1_555
C20 C18 1_555 1_555
H15 C20 1_555 1_555
H16 C20 1_555 1_555
H17 C20 1_555 1_555
C21 C14 1_555 1_555
C22 C21 1_555 1_555
H18 C22 1_555 1_555
C23 C22 1_555 1_555
H19 C23 1_555 1_555
C24 C23 1_555 1_555
H20 C24 1_555 1_555
C25 C24 1_555 1_555
H21 C25 1_555 1_555
C26 C21 1_555 1_555
H22 C26 1_555 1_555
C27 C7 1_555 1_555
H23 C27 1_555 1_555
C5 C6 1_555 1_555
C7 C8 1_555 1_555
C13 C17 1_555 1_555
C14 C15 1_555 1_555
C25 C26 1_555 1_555

#END
