
#######################################################################
#
#                 Cambridge Crystallographic Data Centre
#                                CCDC 
#
#######################################################################
#
# If this CIF has been generated from an entry in the Cambridge 
# Structural Database, then it will include bibliographic, chemical, 
# crystal, experimental, refinement or atomic coordinate data resulting 
# from the CCDC's data processing and validation procedures.
#
#######################################################################

data_YICXOA
_chemical_formula_moiety         'C34 H28 F4 N4 S3'
_chemical_name_systematic        
2,2'-[(5,6-dihexyl-2-benzothiene-1,3-diylidene)bis(3,4-difluorothiene-5,2-diylidene)]dipropanedinitrile
_symmetry_cell_setting           triclinic
_symmetry_space_group_name_H-M   'P -1'
_symmetry_Int_Tables_number      2
_space_group_name_Hall           '-P 1'
loop_
_symmetry_equiv_pos_site_id
_symmetry_equiv_pos_as_xyz
1 x,y,z
2 -x,-y,-z
_cell_length_a                   8.19600(10)
_cell_length_b                   17.4528(3)
_cell_length_c                   22.7194(4)
_cell_angle_alpha                85.2769(7)
_cell_angle_beta                 88.8887(9)
_cell_angle_gamma                79.7843(11)
_cell_volume                     3187.44
_cell_formula_units_Z            4
loop_
_atom_site_label
_atom_site_type_symbol
_atom_site_fract_x
_atom_site_fract_y
_atom_site_fract_z
S1 S -0.06165(11) 0.38212(4) 1.20675(3)
S2 S 0.18208(10) 0.54587(4) 1.09373(3)
S3 S 0.36085(10) 0.53327(4) 0.91032(3)
F1 F -0.0454(3) 0.54001(14) 1.31572(9)
F2 F 0.1028(3) 0.57686(11) 1.20810(9)
F3 F 0.3156(3) 0.66736(12) 1.03919(9)
F4 F 0.4623(3) 0.73481(12) 0.94055(10)
N1 N -0.2173(8) 0.4547(4) 1.4194(2)
N2 N -0.3118(5) 0.2708(2) 1.31418(18)
N3 N 0.5402(5) 0.5371(2) 0.75958(16)
N4 N 0.6428(5) 0.7585(2) 0.81651(16)
C1 C -0.2513(5) 0.3250(2) 1.31570(16)
C2 C -0.1816(5) 0.3927(2) 1.32041(15)
C3 C -0.2003(6) 0.4272(3) 1.37561(18)
C4 C -0.0991(4) 0.4242(2) 1.27353(14)
C5 C -0.0332(4) 0.4946(2) 1.27103(14)
C6 C 0.0367(4) 0.51284(18) 1.21866(14)
C7 C 0.0351(4) 0.45818(16) 1.17573(13)
C8 C 0.0987(4) 0.46383(16) 1.11882(13)
C9 C 0.1129(4) 0.40890(16) 1.07370(12)
C10 C 0.1918(4) 0.43476(16) 1.02121(12)
C11 C 0.2339(4) 0.51205(16) 1.02426(12)
C12 C 0.0650(4) 0.33623(17) 1.07637(13)
H1 H 0.0090 0.3199 1.1098
C13 C 0.0977(4) 0.28746(17) 1.03117(14)
C14 C 0.1853(4) 0.31125(17) 0.98042(14)
C15 C 0.2273(4) 0.38475(17) 0.97616(13)
H2 H 0.2809 0.4013 0.9422
C16 C 0.0478(5) 0.20836(19) 1.03748(17)
H3 H 0.0232 0.1940 0.9987
H4 H -0.0528 0.2113 1.0611
C17 C 0.1800(6) 0.1455(2) 1.0660(2)
H5 H 0.1982 0.1576 1.1060
H6 H 0.2831 0.1451 1.0442
C18 C 0.1322(7) 0.0651(2) 1.0675(3)
H7 H 0.0315 0.0662 1.0908
H8 H 0.1057 0.0560 1.0275
C19 C 0.2505(8) 0.0000(3) 1.0903(3)
H9 H 0.2752 0.0079 1.1307
H10 H 0.3522 -0.0011 1.0676
C20 C 0.1970(10) -0.0794(3) 1.0895(5)
H11 H 0.1215 -0.0846 1.1224
H12 H 0.1344 -0.0788 1.0537
C21 C 0.3111(14) -0.1418(5) 1.0923(7)
H13 H 0.3892 -0.1385 1.1226
H14 H 0.3675 -0.1459 1.0550
H15 H 0.2608 -0.1871 1.1015
C22 C 0.2359(5) 0.2582(2) 0.93126(15)
H16 H 0.2515 0.2043 0.9477
H17 H 0.3414 0.2678 0.9151
C23 C 0.1102(5) 0.2692(2) 0.88134(16)
H18 H 0.0019 0.2644 0.8977
H19 H 0.1026 0.3214 0.8620
C24 C 0.1574(5) 0.2096(2) 0.83596(17)
H20 H 0.1607 0.1577 0.8553
H21 H 0.2680 0.2130 0.8213
C25 C 0.0392(5) 0.2205(3) 0.78364(18)
H22 H -0.0715 0.2171 0.7983
H23 H 0.0359 0.2724 0.7643
C26 C 0.0867(6) 0.1611(3) 0.73862(19)
H24 H 0.0908 0.1091 0.7579
H25 H 0.1968 0.1648 0.7235
C27 C -0.0329(7) 0.1723(3) 0.6874(2)
H26 H -0.0428 0.2247 0.6695
H27 H -0.1396 0.1633 0.7015
H28 H 0.0077 0.1361 0.6587
C28 C 0.3043(4) 0.55789(17) 0.98245(13)
C29 C 0.3444(4) 0.63260(18) 0.98903(14)
C30 C 0.4150(4) 0.66594(18) 0.94122(15)
C31 C 0.4406(4) 0.61945(19) 0.89263(14)
C32 C 0.5153(4) 0.6347(2) 0.83896(14)
C33 C 0.5294(5) 0.5808(2) 0.79519(15)
C34 C 0.5853(5) 0.7041(2) 0.82680(15)
S4 S 1.13805(10) 0.97607(5) 0.59072(3)
S5 S 1.32476(10) 0.94940(4) 0.40938(3)
S6 S 1.56312(11) 1.10766(5) 0.28925(3)
F5 F 1.0411(3) 0.77103(12) 0.56966(10)
F6 F 1.1915(3) 0.83086(12) 0.46900(9)
F7 F 1.4087(3) 0.90965(11) 0.29738(9)
F8 F 1.5550(3) 0.93974(14) 0.18847(10)
N5 N 0.8569(5) 0.7566(2) 0.69398(15)
N6 N 0.9546(5) 0.9811(2) 0.74215(17)
N7 N 1.8088(5) 1.2136(2) 0.17588(18)
N8 N 1.7168(7) 1.0202(4) 0.0799(2)
C35 C 0.9144(5) 0.8106(2) 0.68144(15)
C36 C 0.9838(4) 0.8794(2) 0.66601(15)
C37 C 0.9690(5) 0.9357(2) 0.70780(16)
C38 C 1.0594(4) 0.89087(18) 0.61210(14)
C39 C 1.0865(4) 0.84069(19) 0.56602(15)
C40 C 1.1589(4) 0.87004(18) 0.51722(14)
C41 C 1.1978(4) 0.94577(17) 0.52035(13)
C42 C 1.2691(4) 0.98897(17) 0.47683(13)
C43 C 1.3081(4) 1.06694(17) 0.47627(13)
C44 C 1.3879(4) 1.08987(17) 0.42332(13)
C45 C 1.4053(4) 1.03094(16) 0.38070(13)
C46 C 1.2703(4) 1.12039(18) 0.51907(14)
H29 H 1.2183 1.1057 0.5539
C47 C 1.3085(4) 1.19475(18) 0.51099(14)
C48 C 1.3946(4) 1.21593(18) 0.45910(14)
C49 C 1.4323(4) 1.16315(18) 0.41644(14)
H30 H 1.4887 1.1772 0.3824
C50 C 1.2564(5) 1.2517(2) 0.55777(16)
H31 H 1.2386 1.3045 0.5391
H32 H 1.1519 1.2423 0.5750
C51 C 1.3827(5) 1.2453(2) 0.60646(17)
H33 H 1.4890 1.2516 0.5891
H34 H 1.3955 1.1936 0.6269
C52 C 1.3333(5) 1.3061(2) 0.65091(17)
H35 H 1.2226 1.3027 0.6655
H36 H 1.3294 1.3577 0.6309
C53 C 1.4514(6) 1.2968(3) 0.70366(19)
H37 H 1.4562 1.2450 0.7234
H38 H 1.5619 1.3008 0.6890
C54 C 1.4018(6) 1.3566(2) 0.74825(19)
H39 H 1.2907 1.3535 0.7625
H40 H 1.3999 1.4085 0.7290
C55 C 1.5192(7) 1.3447(3) 0.8005(2)
H41 H 1.6292 1.3483 0.7868
H42 H 1.5192 1.2940 0.8205
H43 H 1.4833 1.3841 0.8273
C56 C 1.4344(5) 1.2969(2) 0.44717(18)
H44 H 1.5375 1.2939 0.4251
H45 H 1.4498 1.3180 0.4844
C57 C 1.2980(8) 1.3512(3) 0.4125(3)
H46 H 1.2848 1.3299 0.3752
H47 H 1.1947 1.3523 0.4343
C58 C 1.3274(11) 1.4345(3) 0.4002(4)
H48 H 1.4461 1.4306 0.3946
H49 H 1.2776 1.4527 0.3621
C59 C 1.2860(13) 1.4872(4) 0.4316(5)
H50 H 1.3335 1.4688 0.4700
H51 H 1.1668 1.4922 0.4363
C60 C 1.3207(13) 1.5702(4) 0.4186(6)
H52 H 1.4092 1.5767 0.4445
H53 H 1.3622 1.5749 0.3784
C61 C 1.2050(14) 1.6249(5) 0.4240(6)
H54 H 1.1224 1.6077 0.4499
H55 H 1.1570 1.6426 0.3860
H56 H 1.2453 1.6670 0.4403
C62 C 1.4702(4) 1.03273(17) 0.32398(13)
C63 C 1.4714(4) 0.97402(18) 0.28356(14)
C64 C 1.5404(4) 0.9887(2) 0.23027(15)
C65 C 1.6017(4) 1.0600(2) 0.22438(14)
C66 C 1.6826(5) 1.0891(3) 0.17591(16)
C67 C 1.7020(6) 1.0497(3) 0.12247(19)
C68 C 1.7500(5) 1.1584(3) 0.17690(17)
loop_
_geom_bond_atom_site_label_1
_geom_bond_atom_site_label_2
_geom_bond_site_symmetry_1
_geom_bond_site_symmetry_2
S1 C4 1_555 1_555
S2 C8 1_555 1_555
S3 C28 1_555 1_555
F1 C5 1_555 1_555
F2 C6 1_555 1_555
F3 C29 1_555 1_555
F4 C30 1_555 1_555
N1 C3 1_555 1_555
N2 C1 1_555 1_555
N3 C33 1_555 1_555
N4 C34 1_555 1_555
C1 C2 1_555 1_555
C2 C3 1_555 1_555
C4 C2 1_555 1_555
C5 C4 1_555 1_555
C6 C5 1_555 1_555
C7 S1 1_555 1_555
C8 C7 1_555 1_555
C9 C8 1_555 1_555
C10 C9 1_555 1_555
C11 S2 1_555 1_555
C12 C9 1_555 1_555
H1 C12 1_555 1_555
C13 C12 1_555 1_555
C14 C13 1_555 1_555
C15 C10 1_555 1_555
H2 C15 1_555 1_555
C16 C13 1_555 1_555
H3 C16 1_555 1_555
H4 C16 1_555 1_555
C17 C16 1_555 1_555
H5 C17 1_555 1_555
H6 C17 1_555 1_555
C18 C17 1_555 1_555
H7 C18 1_555 1_555
H8 C18 1_555 1_555
C19 C18 1_555 1_555
H9 C19 1_555 1_555
H10 C19 1_555 1_555
C20 C19 1_555 1_555
H11 C20 1_555 1_555
H12 C20 1_555 1_555
C21 C20 1_555 1_555
H13 C21 1_555 1_555
H14 C21 1_555 1_555
H15 C21 1_555 1_555
C22 C14 1_555 1_555
H16 C22 1_555 1_555
H17 C22 1_555 1_555
C23 C22 1_555 1_555
H18 C23 1_555 1_555
H19 C23 1_555 1_555
C24 C23 1_555 1_555
H20 C24 1_555 1_555
H21 C24 1_555 1_555
C25 C24 1_555 1_555
H22 C25 1_555 1_555
H23 C25 1_555 1_555
C26 C25 1_555 1_555
H24 C26 1_555 1_555
H25 C26 1_555 1_555
C27 C26 1_555 1_555
H26 C27 1_555 1_555
H27 C27 1_555 1_555
H28 C27 1_555 1_555
C28 C11 1_555 1_555
C29 C28 1_555 1_555
C30 C29 1_555 1_555
C31 S3 1_555 1_555
C32 C31 1_555 1_555
C33 C32 1_555 1_555
C34 C32 1_555 1_555
S4 C38 1_555 1_555
S5 C42 1_555 1_555
S6 C62 1_555 1_555
F5 C39 1_555 1_555
F6 C40 1_555 1_555
F7 C63 1_555 1_555
F8 C64 1_555 1_555
N5 C35 1_555 1_555
N6 C37 1_555 1_555
N7 C68 1_555 1_555
N8 C67 1_555 1_555
C35 C36 1_555 1_555
C36 C37 1_555 1_555
C38 C36 1_555 1_555
C39 C38 1_555 1_555
C40 C39 1_555 1_555
C41 S4 1_555 1_555
C42 C41 1_555 1_555
C43 C42 1_555 1_555
C44 C43 1_555 1_555
C45 S5 1_555 1_555
C46 C43 1_555 1_555
H29 C46 1_555 1_555
C47 C46 1_555 1_555
C48 C47 1_555 1_555
C49 C44 1_555 1_555
H30 C49 1_555 1_555
C50 C47 1_555 1_555
H31 C50 1_555 1_555
H32 C50 1_555 1_555
C51 C50 1_555 1_555
H33 C51 1_555 1_555
H34 C51 1_555 1_555
C52 C51 1_555 1_555
H35 C52 1_555 1_555
H36 C52 1_555 1_555
C53 C52 1_555 1_555
H37 C53 1_555 1_555
H38 C53 1_555 1_555
C54 C53 1_555 1_555
H39 C54 1_555 1_555
H40 C54 1_555 1_555
C55 C54 1_555 1_555
H41 C55 1_555 1_555
H42 C55 1_555 1_555
H43 C55 1_555 1_555
C56 C48 1_555 1_555
H44 C56 1_555 1_555
H45 C56 1_555 1_555
C57 C56 1_555 1_555
H46 C57 1_555 1_555
H47 C57 1_555 1_555
C58 C57 1_555 1_555
H48 C58 1_555 1_555
H49 C58 1_555 1_555
C59 C58 1_555 1_555
H50 C59 1_555 1_555
H51 C59 1_555 1_555
C60 C59 1_555 1_555
H52 C60 1_555 1_555
H53 C60 1_555 1_555
C61 C60 1_555 1_555
H54 C61 1_555 1_555
H55 C61 1_555 1_555
H56 C61 1_555 1_555
C62 C45 1_555 1_555
C63 C62 1_555 1_555
C64 C63 1_555 1_555
C65 S6 1_555 1_555
C66 C65 1_555 1_555
C67 C66 1_555 1_555
C68 C66 1_555 1_555
C6 C7 1_555 1_555
C10 C11 1_555 1_555
C14 C15 1_555 1_555
C30 C31 1_555 1_555
C40 C41 1_555 1_555
C44 C45 1_555 1_555
C48 C49 1_555 1_555
C64 C65 1_555 1_555

#END
