
#######################################################################
#
#                 Cambridge Crystallographic Data Centre
#                                CCDC 
#
#######################################################################
#
# If this CIF has been generated from an entry in the Cambridge 
# Structural Database, then it will include bibliographic, chemical, 
# crystal, experimental, refinement or atomic coordinate data resulting 
# from the CCDC's data processing and validation procedures.
#
#######################################################################

data_YICXAK
_chemical_formula_moiety         'C22 H33 N3'
_chemical_name_systematic        
N,N'-Dicyclohexyl-3,4-dihydroisoquinoline-2(1H)-carboxamidine
_symmetry_cell_setting           monoclinic
_symmetry_space_group_name_H-M   'P c'
_symmetry_Int_Tables_number      7
_space_group_name_Hall           'P -2yc'
loop_
_symmetry_equiv_pos_site_id
_symmetry_equiv_pos_as_xyz
1 x,y,z
2 x,-y,1/2+z
_cell_length_a                   9.810(2)
_cell_length_b                   9.500(2)
_cell_length_c                   10.886(2)
_cell_angle_alpha                90
_cell_angle_beta                 101.755(3)
_cell_angle_gamma                90
_cell_volume                     993.244
_exptl_crystal_colour            colorless
_exptl_crystal_description       prism
_cell_formula_units_Z            2
_exptl_crystal_recrystallization_method ether/hexane
loop_
_atom_site_label
_atom_site_type_symbol
_atom_site_fract_x
_atom_site_fract_y
_atom_site_fract_z
N1 N 0.15484(17) 0.34427(18) 0.09989(15)
N2 N 0.02788(18) 0.36531(18) 0.25745(15)
N3 N -0.05068(18) 0.47165(18) 0.05455(17)
C1 C 0.0363(2) 0.3988(2) 0.13454(19)
C2 C 0.1658(2) 0.3603(2) -0.03119(19)
H1 H 0.1855 0.4578 -0.0472
H2 H 0.0777 0.3354 -0.0851
C3 C 0.2904(2) 0.3604(2) 0.1851(2)
H3 H 0.2781 0.3639 0.2713
H4 H 0.3338 0.4476 0.1670
C4 C 0.3823(2) 0.2365(3) 0.1678(2)
H5 H 0.4769 0.2553 0.2118
H6 H 0.3499 0.1531 0.2045
C5 C 0.2795(2) 0.2680(2) -0.0620(2)
C6 C 0.3819(2) 0.2088(2) 0.0312(2)
C7 C 0.4833(2) 0.1233(2) -0.0037(2)
H7 H 0.5514 0.0829 0.0583
C8 C 0.4850(3) 0.0976(3) -0.1277(3)
H8 H 0.5534 0.0404 -0.1491
C9 C 0.3836(3) 0.1575(3) -0.2204(2)
H9 H 0.3840 0.1408 -0.3045
C10 C 0.2825(3) 0.2416(3) -0.1876(2)
H10 H 0.2150 0.2817 -0.2503
C11 C 0.0368(2) 0.2178(2) 0.3006(2)
H11 H 0.1001 0.1675 0.2569
C12 C 0.0975(2) 0.2111(2) 0.44071(19)
H12 H 0.0405 0.2671 0.4853
H13 H 0.1904 0.2510 0.4573
C13 C 0.1041(3) 0.0595(3) 0.4892(3)
H14 H 0.1710 0.0069 0.4531
H15 H 0.1360 0.0597 0.5796
C14 C -0.0364(3) -0.0128(3) 0.4565(3)
H16 H -0.1008 0.0330 0.5004
H17 H -0.0268 -0.1102 0.4836
C15 C -0.0943(3) -0.0070(3) 0.3153(3)
H18 H -0.0340 -0.0596 0.2717
H19 H -0.1859 -0.0501 0.2967
C16 C -0.1047(3) 0.1452(2) 0.2695(2)
H20 H -0.1393 0.1470 0.1795
H21 H -0.1702 0.1960 0.3088
C17 C -0.1890(2) 0.5024(2) 0.07712(19)
H22 H -0.2114 0.4345 0.1378
C18 C -0.1978(2) 0.6507(2) 0.1281(2)
H23 H -0.1613 0.7168 0.0750
H24 H -0.1398 0.6563 0.2115
C19 C -0.3461(2) 0.6937(3) 0.1345(2)
H25 H -0.3788 0.6358 0.1961
H26 H -0.3466 0.7910 0.1613
C20 C -0.4436(3) 0.6770(3) 0.0081(2)
H27 H -0.5378 0.7006 0.0155
H28 H -0.4161 0.7409 -0.0520
C21 C -0.4393(3) 0.5271(3) -0.0378(3)
H29 H -0.5001 0.5181 -0.1197
H30 H -0.4730 0.4640 0.0195
C22 C -0.2921(2) 0.4851(2) -0.0467(2)
H31 H -0.2622 0.5425 -0.1101
H32 H -0.2921 0.3876 -0.0733
H33 H -0.0399 0.4082 0.2873
loop_
_geom_bond_atom_site_label_1
_geom_bond_atom_site_label_2
_geom_bond_site_symmetry_1
_geom_bond_site_symmetry_2
N1 C1 1_555 1_555
N2 C1 1_555 1_555
N3 C1 1_555 1_555
C2 N1 1_555 1_555
H1 C2 1_555 1_555
H2 C2 1_555 1_555
C3 N1 1_555 1_555
H3 C3 1_555 1_555
H4 C3 1_555 1_555
C4 C3 1_555 1_555
H5 C4 1_555 1_555
H6 C4 1_555 1_555
C5 C2 1_555 1_555
C6 C4 1_555 1_555
C7 C6 1_555 1_555
H7 C7 1_555 1_555
C8 C7 1_555 1_555
H8 C8 1_555 1_555
C9 C8 1_555 1_555
H9 C9 1_555 1_555
C10 C5 1_555 1_555
H10 C10 1_555 1_555
C11 N2 1_555 1_555
H11 C11 1_555 1_555
C12 C11 1_555 1_555
H12 C12 1_555 1_555
H13 C12 1_555 1_555
C13 C12 1_555 1_555
H14 C13 1_555 1_555
H15 C13 1_555 1_555
C14 C13 1_555 1_555
H16 C14 1_555 1_555
H17 C14 1_555 1_555
C15 C14 1_555 1_555
H18 C15 1_555 1_555
H19 C15 1_555 1_555
C16 C11 1_555 1_555
H20 C16 1_555 1_555
H21 C16 1_555 1_555
C17 N3 1_555 1_555
H22 C17 1_555 1_555
C18 C17 1_555 1_555
H23 C18 1_555 1_555
H24 C18 1_555 1_555
C19 C18 1_555 1_555
H25 C19 1_555 1_555
H26 C19 1_555 1_555
C20 C19 1_555 1_555
H27 C20 1_555 1_555
H28 C20 1_555 1_555
C21 C20 1_555 1_555
H29 C21 1_555 1_555
H30 C21 1_555 1_555
C22 C17 1_555 1_555
H31 C22 1_555 1_555
H32 C22 1_555 1_555
H33 N2 1_555 1_555
C5 C6 1_555 1_555
C9 C10 1_555 1_555
C15 C16 1_555 1_555
C21 C22 1_555 1_555

#END
