
#######################################################################
#
#                 Cambridge Crystallographic Data Centre
#                                CCDC 
#
#######################################################################
#
# If this CIF has been generated from an entry in the Cambridge 
# Structural Database, then it will include bibliographic, chemical, 
# crystal, experimental, refinement or atomic coordinate data resulting 
# from the CCDC's data processing and validation procedures.
#
#######################################################################

data_YICZOC
_chemical_formula_moiety         'C22 H18 N2 O3 S2'
_chemical_name_systematic        
2-[(4-methylphenyl)sulfonyl]-4,6-diphenyl-1,2,3-thiadiazin-1(2H)-one
_symmetry_cell_setting           monoclinic
_symmetry_space_group_name_H-M   'P 21/c'
_symmetry_Int_Tables_number      14
_space_group_name_Hall           '-P 2ybc'
loop_
_symmetry_equiv_pos_site_id
_symmetry_equiv_pos_as_xyz
1 x,y,z
2 -x,1/2+y,1/2-z
3 -x,-y,-z
4 x,1/2-y,1/2+z
_cell_length_a                   9.1965(9)
_cell_length_b                   10.8969(11)
_cell_length_c                   20.4802(19)
_cell_angle_alpha                90
_cell_angle_beta                 98.954(10)
_cell_angle_gamma                90
_cell_volume                     2027.38
_exptl_crystal_colour            colorless
_exptl_crystal_description       prism
_cell_formula_units_Z            4
loop_
_atom_site_label
_atom_site_type_symbol
_atom_site_fract_x
_atom_site_fract_y
_atom_site_fract_z
S1 S 0.47178(9) 0.51006(8) 0.29943(4)
S2 S 0.49429(10) 0.28155(8) 0.37439(4)
N1 N 0.5206(3) 0.4371(2) 0.37302(12)
O1 O 0.4272(3) 0.6301(2) 0.31544(12)
N2 N 0.6329(3) 0.5005(2) 0.41204(13)
C1 C 0.6727(3) 0.4597(3) 0.47187(15)
O2 O 0.3696(2) 0.4285(2) 0.26193(11)
C2 C 0.5073(3) 0.2781(3) 0.46267(16)
C3 C 0.7903(3) 0.5317(3) 0.51298(16)
C4 C 0.4233(3) 0.1821(3) 0.48913(16)
C5 C 0.6007(3) 0.3574(3) 0.49849(15)
H1 H 0.6203 0.3452 0.5439
C6 C 0.6342(4) 0.5167(3) 0.26532(15)
O3 O 0.6243(3) 0.2176(2) 0.35796(13)
C7 C 0.8666(4) 0.6210(3) 0.4846(2)
H2 H 0.8437 0.6359 0.4394
C8 C 0.4170(4) 0.1760(4) 0.55703(17)
H3 H 0.4691 0.2327 0.5855
C9 C 0.9404(5) 0.5802(5) 0.6174(2)
H4 H 0.9645 0.5665 0.6626
C10 C 0.6807(4) 0.4130(4) 0.23615(18)
H5 H 0.6261 0.3408 0.2340
C11 C 0.3346(5) 0.0870(4) 0.58213(19)
H6 H 0.3324 0.0838 0.6273
C12 C 0.2557(4) 0.0029(4) 0.5409(2)
H7 H 0.1992 -0.0563 0.5580
C13 C 0.8280(4) 0.5113(4) 0.58071(18)
H8 H 0.7784 0.4520 0.6014
C14 C 0.7127(4) 0.6254(4) 0.2677(2)
H9 H 0.6800 0.6953 0.2871
C15 C 0.3428(4) 0.0948(4) 0.44891(18)
H10 H 0.3447 0.0960 0.4037
C16 C 0.8930(4) 0.5253(5) 0.2119(2)
C17 C 1.0151(4) 0.6668(5) 0.5881(2)
H11 H 1.0915 0.7105 0.6127
C18 C 0.9761(4) 0.6885(4) 0.5219(2)
H12 H 1.0241 0.7497 0.5018
C19 C 0.2606(5) 0.0068(4) 0.4746(2)
H13 H 0.2081 -0.0505 0.4466
C20 C 1.0345(5) 0.5278(7) 0.1834(3)
H14 H 1.0881 0.4533 0.1947
H15 H 1.0928 0.5966 0.2012
H16 H 1.0126 0.5353 0.1362
C21 C 0.8111(5) 0.4187(5) 0.2101(2)
H17 H 0.8442 0.3488 0.1908
C22 C 0.8408(5) 0.6271(5) 0.2405(3)
H18 H 0.8938 0.6999 0.2415
loop_
_geom_bond_atom_site_label_1
_geom_bond_atom_site_label_2
_geom_bond_site_symmetry_1
_geom_bond_site_symmetry_2
S1 N1 1_555 1_555
S2 N1 1_555 1_555
N1 N2 1_555 1_555
O1 S1 1_555 1_555
N2 C1 1_555 1_555
C1 C3 1_555 1_555
O2 S1 1_555 1_555
C2 S2 1_555 1_555
C3 C7 1_555 1_555
C4 C2 1_555 1_555
C5 C1 1_555 1_555
H1 C5 1_555 1_555
C6 S1 1_555 1_555
O3 S2 1_555 1_555
C7 H2 1_555 1_555
C8 C4 1_555 1_555
H3 C8 1_555 1_555
C9 H4 1_555 1_555
C10 C6 1_555 1_555
H5 C10 1_555 1_555
C11 C8 1_555 1_555
H6 C11 1_555 1_555
C12 C11 1_555 1_555
H7 C12 1_555 1_555
C13 C3 1_555 1_555
H8 C13 1_555 1_555
C14 C6 1_555 1_555
H9 C14 1_555 1_555
C15 C4 1_555 1_555
H10 C15 1_555 1_555
C16 C20 1_555 1_555
C17 C9 1_555 1_555
H11 C17 1_555 1_555
C18 C7 1_555 1_555
H12 C18 1_555 1_555
C19 C12 1_555 1_555
H13 C19 1_555 1_555
C20 H14 1_555 1_555
H15 C20 1_555 1_555
H16 C20 1_555 1_555
C21 C10 1_555 1_555
H17 C21 1_555 1_555
C22 C14 1_555 1_555
H18 C22 1_555 1_555
C2 C5 1_555 1_555
C9 C13 1_555 1_555
C15 C19 1_555 1_555
C16 C21 1_555 1_555
C16 C22 1_555 1_555
C17 C18 1_555 1_555

#END
