
#######################################################################
#
#                 Cambridge Crystallographic Data Centre
#                                CCDC 
#
#######################################################################
#
# If this CIF has been generated from an entry in the Cambridge 
# Structural Database, then it will include bibliographic, chemical, 
# crystal, experimental, refinement or atomic coordinate data resulting 
# from the CCDC's data processing and validation procedures.
#
#######################################################################

data_YIDJOM
_chemical_formula_moiety         'C21 H18 N2 O4'
_chemical_name_systematic        
3-(1-Benzyl-3-hydroxy-5-methyl-2-oxo-2,3-dihydro-1H-indol-3-yl)-1-methyl-1H-pyrrole-2,5-dione
_symmetry_cell_setting           orthorhombic
_symmetry_space_group_name_H-M   'P 21 21 21'
_symmetry_Int_Tables_number      19
_space_group_name_Hall           'P 2ac 2ab'
loop_
_symmetry_equiv_pos_site_id
_symmetry_equiv_pos_as_xyz
1 x,y,z
2 1/2+x,1/2-y,-z
3 -x,1/2+y,1/2-z
4 1/2-x,-y,1/2+z
_cell_length_a                   9.4874(8)
_cell_length_b                   9.6023(8)
_cell_length_c                   19.9700(12)
_cell_angle_alpha                90
_cell_angle_beta                 90
_cell_angle_gamma                90
_cell_volume                     1819.28
_exptl_crystal_colour            white
_cell_formula_units_Z            4
loop_
_atom_site_label
_atom_site_type_symbol
_atom_site_fract_x
_atom_site_fract_y
_atom_site_fract_z
C1 C 1.2014(4) 1.1922(3) 0.88904(17)
C2 C 1.1189(4) 1.1296(3) 0.94425(17)
H1 H 1.1422 1.1332 0.9894
C3 C 1.0063(3) 1.0676(3) 0.91879(15)
C4 C 0.8885(3) 0.9967(3) 0.95439(14)
C5 C 0.7437(3) 1.0586(4) 0.93594(14)
C6 C 0.5035(3) 0.9714(4) 0.91164(17)
H2 H 0.4820 1.0699 0.9153
H3 H 0.4525 0.9237 0.9469
C7 C 0.4508(3) 0.9195(4) 0.84512(18)
C8 C 0.5170(4) 0.9541(4) 0.78698(19)
H4 H 0.5969 1.0101 0.7879
C9 C 0.4650(6) 0.9057(6) 0.7265(2)
H5 H 0.5099 0.9290 0.6866
C10 C 0.3453(8) 0.8221(6) 0.7255(3)
H6 H 0.3105 0.7873 0.6854
C11 C 1.0095(4) 1.0865(4) 0.84466(16)
C12 C 0.8681(3) 0.8443(3) 0.93608(15)
C13 C 0.7269(3) 0.8235(3) 0.92091(14)
C14 C 0.3324(4) 0.8383(5) 0.8427(3)
H7 H 0.2868 0.8142 0.8823
C15 C 0.2810(7) 0.7926(6) 0.7836(4)
H8 H 0.1990 0.7395 0.7832
C16 C 0.6760(4) 0.6923(3) 0.90745(16)
H9 H 0.5805 0.6766 0.9001
C17 C 0.7714(4) 0.5861(3) 0.90529(16)
H10 H 0.7383 0.4968 0.8966
C18 C 0.9148(4) 0.6036(3) 0.91535(15)
C19 C 1.0174(4) 0.4852(4) 0.9074(2)
H11 H 0.9787 0.4026 0.9273
H12 H 1.1045 0.5085 0.9292
H13 H 1.0344 0.4690 0.8607
C20 C 0.9619(3) 0.7373(3) 0.93198(14)
H14 H 1.0570 0.7530 0.9402
C21 C 1.1752(4) 1.2063(4) 0.76395(17)
H15 H 1.1366 1.2965 0.7543
H16 H 1.1419 1.1405 0.7314
H17 H 1.2762 1.2108 0.7622
N1 N 0.6539(3) 0.9521(3) 0.92270(12)
N2 N 1.1311(3) 1.1625(3) 0.83050(13)
O1 O 1.3090(3) 1.2611(2) 0.89286(12)
O2 O 0.9253(3) 1.0462(3) 0.80417(11)
O3 O 0.9055(2) 1.0087(2) 1.02518(9)
H18 H 0.8638 0.9448 1.0438
O4 O 0.7147(3) 1.1824(2) 0.93792(11)
loop_
_geom_bond_atom_site_label_1
_geom_bond_atom_site_label_2
_geom_bond_site_symmetry_1
_geom_bond_site_symmetry_2
C1 C2 1_555 1_555
C2 H1 1_555 1_555
C3 C2 1_555 1_555
C4 C3 1_555 1_555
C5 C4 1_555 1_555
C6 H2 1_555 1_555
H3 C6 1_555 1_555
C7 C6 1_555 1_555
C8 C7 1_555 1_555
H4 C8 1_555 1_555
C9 C8 1_555 1_555
H5 C9 1_555 1_555
C10 C9 1_555 1_555
H6 C10 1_555 1_555
C11 C3 1_555 1_555
C12 C4 1_555 1_555
C13 C12 1_555 1_555
C14 C7 1_555 1_555
H7 C14 1_555 1_555
C15 C10 1_555 1_555
H8 C15 1_555 1_555
C16 C13 1_555 1_555
H9 C16 1_555 1_555
C17 C16 1_555 1_555
H10 C17 1_555 1_555
C18 C17 1_555 1_555
C19 C18 1_555 1_555
H11 C19 1_555 1_555
H12 C19 1_555 1_555
H13 C19 1_555 1_555
C20 C12 1_555 1_555
H14 C20 1_555 1_555
C21 H15 1_555 1_555
H16 C21 1_555 1_555
H17 C21 1_555 1_555
N1 C5 1_555 1_555
N2 C1 1_555 1_555
O1 C1 1_555 1_555
O2 C11 1_555 1_555
O3 C4 1_555 1_555
H18 O3 1_555 1_555
O4 C5 1_555 1_555
C6 N1 1_555 1_555
C11 N2 1_555 1_555
C13 N1 1_555 1_555
C14 C15 1_555 1_555
C18 C20 1_555 1_555
C21 N2 1_555 1_555

#END
