
#######################################################################
#
#                 Cambridge Crystallographic Data Centre
#                                CCDC 
#
#######################################################################
#
# If this CIF has been generated from an entry in the Cambridge 
# Structural Database, then it will include bibliographic, chemical, 
# crystal, experimental, refinement or atomic coordinate data resulting 
# from the CCDC's data processing and validation procedures.
#
#######################################################################

data_YIDVOX
_chemical_formula_moiety         'C24 H22 Mg1 O6'
_chemical_name_systematic        
bis(1-Acetyl-2-naphtholato)-diaqua-magnesium(ii)
_symmetry_cell_setting           orthorhombic
_symmetry_space_group_name_H-M   'P b c a'
_symmetry_Int_Tables_number      61
_space_group_name_Hall           '-P 2ac 2ab'
loop_
_symmetry_equiv_pos_site_id
_symmetry_equiv_pos_as_xyz
1 x,y,z
2 1/2-x,-y,1/2+z
3 1/2+x,1/2-y,-z
4 -x,1/2+y,1/2-z
5 -x,-y,-z
6 1/2+x,y,1/2-z
7 1/2-x,1/2+y,z
8 x,1/2-y,1/2+z
_cell_length_a                   33.261(19)
_cell_length_b                   7.951(5)
_cell_length_c                   7.461(5)
_cell_angle_alpha                90
_cell_angle_beta                 90
_cell_angle_gamma                90
_cell_volume                     1973.12
_exptl_crystal_colour            colorless
_exptl_crystal_description       block
_cell_formula_units_Z            4
loop_
_atom_site_label
_atom_site_type_symbol
_atom_site_fract_x
_atom_site_fract_y
_atom_site_fract_z
C1 C 0.08501(6) 0.0828(3) -0.0880(3)
C2 C 0.11300(7) 0.2069(3) -0.1541(3)
H1 H 0.1033 0.2962 -0.2219
C3 C 0.15261(7) 0.1974(3) -0.1209(3)
H2 H 0.1694 0.2797 -0.1680
C4 C 0.16966(7) 0.0680(3) -0.0178(3)
C5 C 0.21048(7) 0.0694(3) 0.0294(3)
H3 H 0.2270 0.1553 -0.0124
C6 C 0.22596(8) -0.0506(4) 0.1333(4)
H4 H 0.2532 -0.0510 0.1612
C7 C 0.20078(8) -0.1747(3) 0.1989(3)
H5 H 0.2114 -0.2557 0.2753
C8 C 0.16091(7) -0.1827(3) 0.1556(3)
H6 H 0.1452 -0.2693 0.2013
C9 C 0.14354(6) -0.0621(3) 0.0433(3)
C10 C 0.10135(7) -0.0597(3) -0.0013(3)
C11 C 0.07582(7) -0.2100(2) 0.0240(3)
C12 C 0.09151(8) -0.3890(3) 0.0021(3)
H7 H 0.0898 -0.4469 0.1147
H8 H 0.1190 -0.3857 -0.0366
H9 H 0.0756 -0.4470 -0.0857
Mg1 Mg 0.0000 0.0000 0.0000
O1 O 0.04736(4) 0.10416(19) -0.1205(2)
O2 O 0.03866(4) -0.19729(18) 0.0438(2)
O3 O 0.01541(5) 0.1075(2) 0.2367(2)
H10 H -0.0085 0.1493 0.2911
H11 H 0.0338 0.2002 0.2188
C1D C -0.08501(6) -0.0828(3) 0.0880(3)
C2D C -0.11300(7) -0.2069(3) 0.1541(3)
H1D H -0.1033 -0.2962 0.2219
C3D C -0.15261(7) -0.1974(3) 0.1209(3)
H2D H -0.1694 -0.2797 0.1680
C4D C -0.16966(7) -0.0680(3) 0.0178(3)
C5D C -0.21048(7) -0.0694(3) -0.0294(3)
H3D H -0.2270 -0.1553 0.0124
C6D C -0.22596(8) 0.0506(4) -0.1333(4)
H4D H -0.2532 0.0510 -0.1612
C7D C -0.20078(8) 0.1747(3) -0.1989(3)
H5D H -0.2114 0.2557 -0.2753
C8D C -0.16091(7) 0.1827(3) -0.1556(3)
H6D H -0.1452 0.2693 -0.2013
C9D C -0.14354(6) 0.0621(3) -0.0433(3)
C10D C -0.10135(7) 0.0597(3) 0.0013(3)
C11D C -0.07582(7) 0.2100(2) -0.0240(3)
C12D C -0.09151(8) 0.3890(3) -0.0021(3)
H7D H -0.0898 0.4469 -0.1147
H8D H -0.1190 0.3857 0.0366
H9D H -0.0756 0.4470 0.0857
O1D O -0.04736(4) -0.10416(19) 0.1205(2)
O2D O -0.03866(4) 0.19729(18) -0.0438(2)
O3D O -0.01541(5) -0.1075(2) -0.2367(2)
H10D H 0.0085 -0.1493 -0.2911
H11D H -0.0338 -0.2002 -0.2188
loop_
_geom_bond_atom_site_label_1
_geom_bond_atom_site_label_2
_geom_bond_site_symmetry_1
_geom_bond_site_symmetry_2
C1 C2 1_555 1_555
C2 H1 1_555 1_555
C3 C2 1_555 1_555
H2 C3 1_555 1_555
C4 C3 1_555 1_555
C5 C4 1_555 1_555
H3 C5 1_555 1_555
C6 C5 1_555 1_555
H4 C6 1_555 1_555
C7 C6 1_555 1_555
H5 C7 1_555 1_555
C8 C7 1_555 1_555
H6 C8 1_555 1_555
C9 C4 1_555 1_555
C10 C1 1_555 1_555
C11 C10 1_555 1_555
C12 C11 1_555 1_555
H7 C12 1_555 1_555
H8 C12 1_555 1_555
H9 C12 1_555 1_555
Mg1 O1 1_555 1_555
O1 C1 1_555 1_555
O2 C11 1_555 1_555
O3 Mg1 1_555 1_555
H10 O3 1_555 1_555
H11 O3 1_555 1_555
C1D C2D 1_555 1_555
C2D H1D 1_555 1_555
C3D C2D 1_555 1_555
H2D C3D 1_555 1_555
C4D C3D 1_555 1_555
C5D C4D 1_555 1_555
H3D C5D 1_555 1_555
C6D C5D 1_555 1_555
H4D C6D 1_555 1_555
C7D C6D 1_555 1_555
H5D C7D 1_555 1_555
C8D C7D 1_555 1_555
H6D C8D 1_555 1_555
C9D C4D 1_555 1_555
C10D C1D 1_555 1_555
C11D C10D 1_555 1_555
C12D C11D 1_555 1_555
H7D C12D 1_555 1_555
H8D C12D 1_555 1_555
H9D C12D 1_555 1_555
O1D Mg1 1_555 1_555
O2D Mg1 1_555 1_555
O3D Mg1 1_555 1_555
H10D O3D 1_555 1_555
H11D O3D 1_555 1_555
C8 C9 1_555 1_555
C9 C10 1_555 1_555
Mg1 O2 1_555 1_555
C1D O1D 1_555 1_555
C8D C9D 1_555 1_555
C9D C10D 1_555 1_555
C11D O2D 1_555 1_555

#END
