
#######################################################################
#
#                 Cambridge Crystallographic Data Centre
#                                CCDC 
#
#######################################################################
#
# If this CIF has been generated from an entry in the Cambridge 
# Structural Database, then it will include bibliographic, chemical, 
# crystal, experimental, refinement or atomic coordinate data resulting 
# from the CCDC's data processing and validation procedures.
#
#######################################################################

data_YIDXOB
_chemical_formula_moiety         
'C40 H48 K2 O12 2+,2(C49 H50 B2 N1 1-),4(C1 H2 Cl2)'
_chemical_name_systematic        
'bis(\m-6,7,9,10,17,18,20,21-octahydrodibenzo[b,k][1,4,7,10,13,16]hexaoxacyclo-octadecine)-di-potassium (biphenylene-1,8-diyl)cyanotetrakis(mesityl)diborate dichloromethane solvate'
_symmetry_cell_setting           monoclinic
_symmetry_space_group_name_H-M   'P 21/c'
_symmetry_Int_Tables_number      14
_space_group_name_Hall           '-P 2ybc'
loop_
_symmetry_equiv_pos_site_id
_symmetry_equiv_pos_as_xyz
1 x,y,z
2 -x,1/2+y,1/2-z
3 -x,-y,-z
4 x,1/2-y,1/2+z
_cell_length_a                   15.4096(14)
_cell_length_b                   23.693(2)
_cell_length_c                   19.0628(17)
_cell_angle_alpha                90
_cell_angle_beta                 112.9484(11)
_cell_angle_gamma                90
_cell_volume                     6409
_exptl_crystal_colour            yellow
_exptl_crystal_description       block
_cell_formula_units_Z            2
loop_
_atom_site_label
_atom_site_type_symbol
_atom_site_fract_x
_atom_site_fract_y
_atom_site_fract_z
K1 K 0.14200(4) 0.39928(3) 0.05282(4)
O1 O 0.11412(13) 0.48107(8) 0.14499(11)
O2 O -0.02292(12) 0.41199(8) 0.07682(11)
O3 O 0.00111(13) 0.32206(8) -0.00995(11)
O4 O 0.17595(12) 0.30776(8) -0.02212(10)
O5 O 0.31700(12) 0.37225(8) 0.05651(10)
O6 O 0.29603(12) 0.46096(8) 0.14618(10)
C1 C 0.02515(18) 0.50274(12) 0.12769(15)
C2 C -0.04938(18) 0.46498(11) 0.09041(15)
C3 C -0.14151(19) 0.48222(12) 0.07216(15)
H1 H -0.1920 0.4571 0.0464
C4 C -0.1602(2) 0.53604(12) 0.09138(16)
H2 H -0.2234 0.5476 0.0794
C5 C -0.0872(2) 0.57272(12) 0.12782(17)
H3 H -0.1002 0.6095 0.1411
C6 C 0.0058(2) 0.55635(12) 0.14535(17)
H4 H 0.0557 0.5822 0.1695
C7 C -0.09775(18) 0.37307(12) 0.03825(16)
H5 H -0.1357 0.3869 -0.0138
H6 H -0.1397 0.3694 0.0663
C8 C -0.0546(2) 0.31709(12) 0.03439(18)
H7 H -0.105(2) 0.2896(14) 0.0132(18)
H8 H -0.020(2) 0.3025(14) 0.0818(19)
C9 C 0.03391(19) 0.26815(11) -0.02226(17)
H9 H -0.0205 0.2437 -0.0507
H10 H 0.0702 0.2500 0.0274
C10 C 0.09505(18) 0.27446(12) -0.06633(16)
H11 H 0.1154 0.2369 -0.0768
H12 H 0.0595 0.2933 -0.1156
C11 C 0.24699(18) 0.31209(11) -0.04893(15)
C12 C 0.32304(18) 0.34701(11) -0.00648(14)
C13 C 0.39773(18) 0.35406(12) -0.02900(15)
H13 H 0.4487 0.3782 -0.0010
C14 C 0.3976(2) 0.32566(13) -0.09267(16)
H14 H 0.4491 0.3301 -0.1078
C15 C 0.3239(2) 0.29119(14) -0.13394(17)
H15 H 0.3245 0.2719 -0.1775
C16 C 0.2481(2) 0.28434(13) -0.11218(16)
H16 H 0.1970 0.2605 -0.1410
C17 C 0.39499(18) 0.40696(12) 0.10224(15)
H17 H 0.4001 0.4402 0.0727
H18 H 0.4545 0.3853 0.1181
C18 C 0.37792(18) 0.42550(12) 0.17079(16)
H19 H 0.433(2) 0.4474(14) 0.2034(18)
H20 H 0.3667(19) 0.3924(13) 0.1997(16)
C19 C 0.28074(19) 0.48377(13) 0.20946(16)
H21 H 0.3351 0.5075 0.2404
H22 H 0.2744 0.4528 0.2420
C20 C 0.19270(19) 0.51861(12) 0.18077(18)
H23 H 0.1854 0.5389 0.2236
H24 H 0.1958 0.5468 0.1435
K1B K -0.14200(4) 0.60072(3) -0.05282(4)
O1B O -0.11412(13) 0.51893(8) -0.14499(11)
O2B O 0.02292(12) 0.58801(8) -0.07682(11)
O3B O -0.00111(13) 0.67794(8) 0.00995(11)
O4B O -0.17595(12) 0.69224(8) 0.02212(10)
O5B O -0.31700(12) 0.62775(8) -0.05651(10)
O6B O -0.29603(12) 0.53904(8) -0.14618(10)
C1B C -0.02515(18) 0.49726(12) -0.12769(15)
C2B C 0.04938(18) 0.53502(11) -0.09041(15)
C3B C 0.14151(19) 0.51778(12) -0.07216(15)
H1B H 0.1920 0.5429 -0.0464
C4B C 0.1602(2) 0.46396(12) -0.09138(16)
H2B H 0.2234 0.4524 -0.0794
C5B C 0.0872(2) 0.42728(12) -0.12782(17)
H3B H 0.1002 0.3905 -0.1411
C6B C -0.0058(2) 0.44365(12) -0.14535(17)
H4B H -0.0557 0.4178 -0.1695
C7B C 0.09775(18) 0.62693(12) -0.03825(16)
H5B H 0.1357 0.6131 0.0138
H6B H 0.1397 0.6306 -0.0663
C8B C 0.0546(2) 0.68291(12) -0.03439(18)
H7B H 0.105(2) 0.7104(14) -0.0132(18)
H8B H 0.020(2) 0.6975(14) -0.0818(19)
C9B C -0.03391(19) 0.73185(11) 0.02226(17)
H9B H 0.0205 0.7563 0.0507
H10B H -0.0702 0.7500 -0.0274
C10B C -0.09505(18) 0.72554(12) 0.06633(16)
H11B H -0.1154 0.7631 0.0768
H12B H -0.0595 0.7067 0.1156
C11B C -0.24699(18) 0.68791(11) 0.04893(15)
C12B C -0.32304(18) 0.65299(11) 0.00648(14)
C13B C -0.39773(18) 0.64594(12) 0.02900(15)
H13B H -0.4487 0.6218 0.0010
C14B C -0.3976(2) 0.67434(13) 0.09267(16)
H14B H -0.4491 0.6699 0.1078
C15B C -0.3239(2) 0.70881(14) 0.13394(17)
H15B H -0.3245 0.7281 0.1775
C16B C -0.2481(2) 0.71566(13) 0.11218(16)
H16B H -0.1970 0.7395 0.1410
C17B C -0.39499(18) 0.59304(12) -0.10224(15)
H17B H -0.4001 0.5598 -0.0727
H18B H -0.4545 0.6147 -0.1181
C18B C -0.37792(18) 0.57450(12) -0.17079(16)
H19B H -0.433(2) 0.5526(14) -0.2034(18)
H20B H -0.3667(19) 0.6076(13) -0.1997(16)
C19B C -0.28074(19) 0.51623(13) -0.20946(16)
H21B H -0.3351 0.4925 -0.2404
H22B H -0.2744 0.5472 -0.2420
C20B C -0.19270(19) 0.48139(12) -0.18077(18)
H23B H -0.1854 0.4611 -0.2236
H24B H -0.1958 0.4532 -0.1435
Cl1 Cl 0.24750(6) 0.27866(3) 0.17120(4)
Cl2 Cl 0.25204(5) 0.18372(3) 0.07508(5)
C21 C 0.3155(2) 0.24019(13) 0.13120(19)
H25 H 0.3359 0.2658 0.0995
H26 H 0.3727 0.2255 0.1727
Cl3 Cl 0.17824(6) 0.47411(4) 0.35050(5)
Cl4 Cl 0.18439(7) 0.36117(4) 0.29112(8)
C22 C 0.1123(2) 0.41460(14) 0.3039(2)
H27 H 0.0650 0.4261 0.2536
H28 H 0.0780 0.3995 0.3343
C23 C 0.29775(16) 0.79130(10) 0.40284(13)
C24 C 0.29937(17) 0.77354(11) 0.47520(14)
H29 H 0.2805 0.7360 0.4795
C25 C 0.32653(18) 0.80752(12) 0.53918(14)
H30 H 0.3267 0.7924 0.5854
C26 C 0.35393(17) 0.86403(12) 0.53737(14)
H31 H 0.3731 0.8878 0.5809
C27 C 0.35092(16) 0.88223(11) 0.46848(14)
C28 C 0.32247(16) 0.84711(10) 0.40265(13)
C29 C 0.34011(16) 0.89696(10) 0.35784(14)
C30 C 0.33562(16) 0.91788(10) 0.28896(13)
C31 C 0.37277(17) 0.97395(10) 0.29530(15)
H32 H 0.3782 0.9900 0.2515
C32 C 0.40114(17) 1.00606(11) 0.36051(15)
H33 H 0.4235 1.0433 0.3597
C33 C 0.39780(17) 0.98501(11) 0.42851(15)
H34 H 0.4141 1.0073 0.4732
C34 C 0.36928(16) 0.92995(11) 0.42545(14)
C35 C 0.33941(17) 0.70255(10) 0.31914(14)
C36 C 0.30774(18) 0.67088(10) 0.25075(14)
C37 C 0.36644(19) 0.63157(11) 0.23696(15)
H35 H 0.3431 0.6108 0.1907
C38 C 0.4574(2) 0.62182(11) 0.28818(16)
C39 C 0.48973(18) 0.65359(11) 0.35446(15)
H36 H 0.5522 0.6478 0.3905
C40 C 0.43357(18) 0.69385(11) 0.37005(14)
C41 C 0.20997(19) 0.67680(11) 0.18888(15)
H37 H 0.1631 0.6634 0.2080
H38 H 0.2057 0.6543 0.1445
H39 H 0.1979 0.7165 0.1740
C42 C 0.5190(2) 0.57802(14) 0.2735(2)
H40 H 0.5276 0.5462 0.3083
H41 H 0.5805 0.5946 0.2817
H42 H 0.4890 0.5647 0.2207
C43 C 0.47952(19) 0.72585(12) 0.44405(16)
H43 H 0.4697 0.7664 0.4343
H44 H 0.5472 0.7178 0.4660
H45 H 0.4514 0.7141 0.4798
C44 C 0.16466(17) 0.71854(10) 0.32380(13)
C45 C 0.15995(18) 0.66324(11) 0.35034(14)
C46 C 0.07345(18) 0.63927(11) 0.34119(15)
H46 H 0.0724 0.6017 0.3583
C47 C -0.01096(18) 0.66821(12) 0.30813(15)
C48 C -0.00633(18) 0.72333(12) 0.28575(15)
H47 H -0.0628 0.7447 0.2649
C49 C 0.07865(18) 0.74847(11) 0.29284(14)
C50 C 0.24595(19) 0.62664(11) 0.39089(15)
H48 H 0.2648 0.6080 0.3531
H49 H 0.2307 0.5980 0.4214
H50 H 0.2978 0.6503 0.4243
C51 C -0.10343(19) 0.64190(14) 0.30032(17)
H51 H -0.0945 0.6013 0.3107
H52 H -0.1500 0.6478 0.2484
H53 H -0.1258 0.6595 0.3367
C52 C 0.07325(19) 0.80931(12) 0.26694(17)
H54 H 0.1276 0.8302 0.3022
H55 H 0.0150 0.8265 0.2662
H56 H 0.0736 0.8106 0.2157
C53 C 0.36859(17) 0.89013(10) 0.16624(14)
C54 C 0.36656(18) 0.93486(11) 0.11585(14)
C55 C 0.43394(19) 0.93820(12) 0.08417(15)
H57 H 0.4314 0.9691 0.0516
C56 C 0.50429(19) 0.89850(13) 0.09808(15)
C57 C 0.50767(18) 0.85560(12) 0.14730(15)
H58 H 0.5558 0.8279 0.1584
C58 C 0.44291(17) 0.85108(11) 0.18167(14)
C59 C 0.29081(19) 0.97940(12) 0.09008(16)
H59 H 0.2349 0.9643 0.0487
H60 H 0.3140 1.0125 0.0719
H61 H 0.2742 0.9903 0.1329
C60 C 0.5744(2) 0.90326(16) 0.0609(2)
H62 H 0.5406 0.9062 0.0055
H63 H 0.6148 0.8697 0.0730
H64 H 0.6134 0.9370 0.0799
C61 C 0.4570(2) 0.80202(13) 0.23605(17)
H65 H 0.4513 0.8154 0.2827
H66 H 0.5198 0.7858 0.2487
H67 H 0.4090 0.7732 0.2119
C62 C 0.18125(16) 0.90233(10) 0.14861(13)
C63 C 0.12135(18) 0.94149(10) 0.16356(15)
C64 C 0.03083(18) 0.95132(11) 0.10929(16)
H68 H -0.0068 0.9791 0.1199
C65 C -0.00683(18) 0.92258(11) 0.04091(15)
C66 C 0.04965(18) 0.88234(11) 0.02775(15)
H69 H 0.0252 0.8610 -0.0180
C67 C 0.14123(17) 0.87189(10) 0.07924(14)
C68 C 0.1480(2) 0.97509(13) 0.23613(16)
H70 H 0.1704 0.9494 0.2799
H71 H 0.0928 0.9958 0.2358
H72 H 0.1981 1.0018 0.2399
C69 C -0.1045(2) 0.93515(14) -0.01573(18)
H73 H -0.1496 0.9303 0.0086
H74 H -0.1205 0.9092 -0.0590
H75 H -0.1073 0.9741 -0.0337
C70 C 0.19505(18) 0.82754(11) 0.05629(14)
H76 H 0.2514 0.8445 0.0530
H77 H 0.1550 0.8120 0.0065
H78 H 0.2139 0.7973 0.0943
B1 B 0.29104(19) 0.88666(11) 0.20561(15)
B2 B 0.26444(19) 0.74742(12) 0.33100(15)
N1 N 0.2529(13) 0.7889(8) 0.2633(10)
C71 C 0.2732(19) 0.8273(13) 0.2306(12)
N2? N 0.2753(17) 0.8238(11) 0.2317(13)
C72? C 0.257(2) 0.7917(14) 0.2641(13)
loop_
_geom_bond_atom_site_label_1
_geom_bond_atom_site_label_2
_geom_bond_site_symmetry_1
_geom_bond_site_symmetry_2
K1 O1 1_555 1_555
O1 C1 1_555 1_555
O2 K1 1_555 1_555
O3 K1 1_555 1_555
O4 K1 1_555 1_555
O5 K1 1_555 1_555
O6 K1 1_555 1_555
C1 C2 1_555 1_555
C2 O2 1_555 1_555
C3 C2 1_555 1_555
H1 C3 1_555 1_555
C4 C3 1_555 1_555
H2 C4 1_555 1_555
C5 C4 1_555 1_555
H3 C5 1_555 1_555
C6 C1 1_555 1_555
H4 C6 1_555 1_555
C7 O2 1_555 1_555
H5 C7 1_555 1_555
H6 C7 1_555 1_555
C8 O3 1_555 1_555
H7 C8 1_555 1_555
H8 C8 1_555 1_555
C9 O3 1_555 1_555
H9 C9 1_555 1_555
H10 C9 1_555 1_555
C10 O4 1_555 1_555
H11 C10 1_555 1_555
H12 C10 1_555 1_555
C11 O4 1_555 1_555
C12 O5 1_555 1_555
C13 C12 1_555 1_555
H13 C13 1_555 1_555
C14 C13 1_555 1_555
H14 C14 1_555 1_555
C15 C14 1_555 1_555
H15 C15 1_555 1_555
C16 C11 1_555 1_555
H16 C16 1_555 1_555
C17 O5 1_555 1_555
H17 C17 1_555 1_555
H18 C17 1_555 1_555
C18 O6 1_555 1_555
H19 C18 1_555 1_555
H20 C18 1_555 1_555
C19 O6 1_555 1_555
H21 C19 1_555 1_555
H22 C19 1_555 1_555
C20 O1 1_555 1_555
H23 C20 1_555 1_555
H24 C20 1_555 1_555
Cl1 C21 1_555 1_555
Cl2 C21 1_555 1_555
C21 H25 1_555 1_555
H26 C21 1_555 1_555
Cl3 C22 1_555 1_555
Cl4 C22 1_555 1_555
C22 H27 1_555 1_555
H28 C22 1_555 1_555
C23 C24 1_555 1_555
C24 H29 1_555 1_555
C25 C24 1_555 1_555
H30 C25 1_555 1_555
C26 C25 1_555 1_555
H31 C26 1_555 1_555
C27 C26 1_555 1_555
C28 C23 1_555 1_555
C29 C28 1_555 1_555
C30 C29 1_555 1_555
C31 C30 1_555 1_555
H32 C31 1_555 1_555
C32 C31 1_555 1_555
H33 C32 1_555 1_555
C33 C32 1_555 1_555
H34 C33 1_555 1_555
C34 C27 1_555 1_555
C35 C36 1_555 1_555
C36 C37 1_555 1_555
C37 H35 1_555 1_555
C38 C37 1_555 1_555
C39 C38 1_555 1_555
H36 C39 1_555 1_555
C40 C35 1_555 1_555
C41 C36 1_555 1_555
H37 C41 1_555 1_555
H38 C41 1_555 1_555
H39 C41 1_555 1_555
C42 C38 1_555 1_555
H40 C42 1_555 1_555
H41 C42 1_555 1_555
H42 C42 1_555 1_555
C43 C40 1_555 1_555
H43 C43 1_555 1_555
H44 C43 1_555 1_555
H45 C43 1_555 1_555
C44 C45 1_555 1_555
C45 C46 1_555 1_555
C46 H46 1_555 1_555
C47 C46 1_555 1_555
C48 C47 1_555 1_555
H47 C48 1_555 1_555
C49 C44 1_555 1_555
C50 C45 1_555 1_555
H48 C50 1_555 1_555
H49 C50 1_555 1_555
H50 C50 1_555 1_555
C51 C47 1_555 1_555
H51 C51 1_555 1_555
H52 C51 1_555 1_555
H53 C51 1_555 1_555
C52 C49 1_555 1_555
H54 C52 1_555 1_555
H55 C52 1_555 1_555
H56 C52 1_555 1_555
C53 C54 1_555 1_555
C54 C55 1_555 1_555
C55 H57 1_555 1_555
C56 C55 1_555 1_555
C57 C56 1_555 1_555
H58 C57 1_555 1_555
C58 C53 1_555 1_555
C59 C54 1_555 1_555
H59 C59 1_555 1_555
H60 C59 1_555 1_555
H61 C59 1_555 1_555
C60 C56 1_555 1_555
H62 C60 1_555 1_555
H63 C60 1_555 1_555
H64 C60 1_555 1_555
C61 C58 1_555 1_555
H65 C61 1_555 1_555
H66 C61 1_555 1_555
H67 C61 1_555 1_555
C62 C63 1_555 1_555
C63 C64 1_555 1_555
C64 H68 1_555 1_555
C65 C64 1_555 1_555
C66 C65 1_555 1_555
H69 C66 1_555 1_555
C67 C62 1_555 1_555
C68 C63 1_555 1_555
H70 C68 1_555 1_555
H71 C68 1_555 1_555
H72 C68 1_555 1_555
C69 C65 1_555 1_555
H73 C69 1_555 1_555
H74 C69 1_555 1_555
H75 C69 1_555 1_555
C70 C67 1_555 1_555
H76 C70 1_555 1_555
H77 C70 1_555 1_555
H78 C70 1_555 1_555
B1 C30 1_555 1_555
B2 C23 1_555 1_555
N1 B2 1_555 1_555
C71 B1 1_555 1_555
K1B C4 1_555 1_555
O1B K1B 1_555 1_555
O2B K1B 1_555 1_555
O3B K1B 1_555 1_555
O4B K1B 1_555 1_555
O5B K1B 1_555 1_555
O6B K1B 1_555 1_555
C1B O1B 1_555 1_555
C2B O2B 1_555 1_555
C3B C2B 1_555 1_555
H1B C3B 1_555 1_555
C4B K1 1_555 1_555
H2B C4B 1_555 1_555
C5B K1 1_555 1_555
H3B C5B 1_555 1_555
C6B C1B 1_555 1_555
H4B C6B 1_555 1_555
C7B O2B 1_555 1_555
H5B C7B 1_555 1_555
H6B C7B 1_555 1_555
C8B O3B 1_555 1_555
H7B C8B 1_555 1_555
H8B C8B 1_555 1_555
C9B O3B 1_555 1_555
H9B C9B 1_555 1_555
H10B C9B 1_555 1_555
C10B O4B 1_555 1_555
H11B C10B 1_555 1_555
H12B C10B 1_555 1_555
C11B O4B 1_555 1_555
C12B O5B 1_555 1_555
C13B C12B 1_555 1_555
H13B C13B 1_555 1_555
C14B C13B 1_555 1_555
H14B C14B 1_555 1_555
C15B C14B 1_555 1_555
H15B C15B 1_555 1_555
C16B C11B 1_555 1_555
H16B C16B 1_555 1_555
C17B O5B 1_555 1_555
H17B C17B 1_555 1_555
H18B C17B 1_555 1_555
C18B O6B 1_555 1_555
H19B C18B 1_555 1_555
H20B C18B 1_555 1_555
C19B O6B 1_555 1_555
H21B C19B 1_555 1_555
H22B C19B 1_555 1_555
C20B O1B 1_555 1_555
H23B C20B 1_555 1_555
H24B C20B 1_555 1_555
C5 C6 1_555 1_555
C5 K1B 1_555 1_555
C7 C8 1_555 1_555
C9 C10 1_555 1_555
C11 C12 1_555 1_555
C15 C16 1_555 1_555
C17 C18 1_555 1_555
C19 C20 1_555 1_555
C27 C28 1_555 1_555
C29 C34 1_555 1_555
C33 C34 1_555 1_555
C35 B2 1_555 1_555
C39 C40 1_555 1_555
C44 B2 1_555 1_555
C48 C49 1_555 1_555
C53 B1 1_555 1_555
C57 C58 1_555 1_555
C62 B1 1_555 1_555
C66 C67 1_555 1_555
N1 C71 1_555 1_555
C1B C2B 1_555 1_555
C3B C4B 1_555 1_555
C4B C5B 1_555 1_555
C5B C6B 1_555 1_555
C7B C8B 1_555 1_555
C9B C10B 1_555 1_555
C11B C12B 1_555 1_555
C15B C16B 1_555 1_555
C17B C18B 1_555 1_555
C19B C20B 1_555 1_555

#END
