
#######################################################################
#
#                 Cambridge Crystallographic Data Centre
#                                CCDC 
#
#######################################################################
#
# If this CIF has been generated from an entry in the Cambridge 
# Structural Database, then it will include bibliographic, chemical, 
# crystal, experimental, refinement or atomic coordinate data resulting 
# from the CCDC's data processing and validation procedures.
#
#######################################################################

data_YIDXUH
_chemical_formula_moiety         'C77 H80 B2 K1 N1 O6,2(C1 H2 Cl2)'
_chemical_name_systematic        
'(\m-cyano)-(\m-pentacyclo[6.6.6.0^2,7^.0^9,14^.0^15,20^]icosa-2,4,6,9,11,13,15,17,19-nonaene-3,13-diyl)-(\m-mesityl)-(6,7,9,10,17,18,20,21-octahydrodibenzo[b,k][1,4,7,10,13,16]hexaoxacyclooctadecine)-trimesityl-di-boron-potassium dichloromethane solvate'
_symmetry_cell_setting           monoclinic
_symmetry_space_group_name_H-M   'C c'
_symmetry_Int_Tables_number      9
_space_group_name_Hall           'C -2yc'
loop_
_symmetry_equiv_pos_site_id
_symmetry_equiv_pos_as_xyz
1 x,y,z
2 x,-y,1/2+z
3 1/2+x,1/2+y,z
4 1/2+x,1/2-y,1/2+z
_cell_length_a                   21.407(3)
_cell_length_b                   13.6932(18)
_cell_length_c                   23.988(3)
_cell_angle_alpha                90
_cell_angle_beta                 92.4764(14)
_cell_angle_gamma                90
_cell_volume                     7025.04
_exptl_crystal_colour            colorless
_exptl_crystal_description       block
_cell_formula_units_Z            4
loop_
_atom_site_label
_atom_site_type_symbol
_atom_site_fract_x
_atom_site_fract_y
_atom_site_fract_z
K1 K 0.10646(4) 0.18457(6) 0.24647(3)
O1 O -0.02507(12) 0.18997(18) 0.24967(11)
O2 O 0.02763(12) 0.25467(18) 0.16240(11)
O3 O 0.17718(12) 0.0499(2) 0.30774(11)
O4 O 0.22851(12) 0.1314(2) 0.22546(11)
O5 O 0.04933(12) 0.07655(18) 0.32276(11)
O6 O 0.15416(12) 0.21616(19) 0.14229(11)
C1 C 0.19095(16) 0.7448(2) 0.45140(14)
C2 C 0.20553(17) 0.8364(3) 0.47611(15)
H1 H 0.2468 0.8487 0.4878
C3 C 0.16122(18) 0.9089(3) 0.48374(15)
H2 H 0.1737 0.9691 0.4983
C4 C 0.09829(17) 0.8921(2) 0.46980(15)
H3 H 0.0681 0.9387 0.4769
C5 C 0.08204(17) 0.8039(2) 0.44501(15)
C6 C 0.12803(16) 0.7329(2) 0.43460(14)
C7 C 0.05094(15) 0.6049(2) 0.44407(14)
C8 C 0.05166(16) 0.5123(2) 0.46957(14)
C9 C 0.00069(16) 0.4933(3) 0.50299(15)
H4 H -0.0002 0.4338 0.5217
C10 C -0.04811(17) 0.5577(3) 0.50974(15)
H5 H -0.0821 0.5395 0.5303
C11 C -0.04602(17) 0.6499(3) 0.48559(15)
H6 H -0.0780 0.6947 0.4905
C12 C 0.00440(16) 0.6736(2) 0.45420(14)
C13 C 0.01701(16) 0.7525(2) 0.36502(15)
C14 C -0.01994(17) 0.7950(3) 0.32307(16)
H7 H -0.0506 0.8399 0.3316
C15 C -0.01071(18) 0.7696(3) 0.26769(16)
H8 H -0.0352 0.7982 0.2392
C16 C 0.03476(18) 0.7020(3) 0.25503(16)
H9 H 0.0408 0.6857 0.2180
C17 C 0.07147(17) 0.6584(3) 0.29750(15)
H10 H 0.1018 0.6128 0.2891
C18 C 0.06214(16) 0.6840(2) 0.35257(15)
C19 C 0.01537(16) 0.7732(2) 0.42704(15)
H11 H -0.0161 0.8219 0.4362
C20 C 0.09900(16) 0.6445(2) 0.40380(14)
H12 H 0.1302 0.5956 0.3942
C21 C 0.30256(16) 0.6860(2) 0.49505(15)
C22 C 0.35295(17) 0.7441(3) 0.47710(16)
C23 C 0.40216(18) 0.7700(3) 0.51426(16)
H13 H 0.4350 0.8064 0.5009
C24 C 0.40451(17) 0.7442(3) 0.56973(16)
C25 C 0.35481(17) 0.6899(3) 0.58813(16)
H14 H 0.3547 0.6720 0.6255
C26 C 0.30483(16) 0.6609(3) 0.55234(15)
C27 C 0.3549(2) 0.7847(3) 0.41870(17)
H15 H 0.3669 0.7340 0.3937
H16 H 0.3847 0.8370 0.4181
H17 H 0.3142 0.8089 0.4072
C28 C 0.45780(19) 0.7760(3) 0.60893(18)
H18 H 0.4959 0.7770 0.5893
H19 H 0.4619 0.7309 0.6395
H20 H 0.4494 0.8401 0.6229
C29 C 0.25366(18) 0.6040(3) 0.57846(15)
H21 H 0.2138 0.6298 0.5660
H22 H 0.2582 0.6092 0.6183
H23 H 0.2564 0.5366 0.5678
C30 C 0.26975(16) 0.6174(3) 0.38984(15)
C31 C 0.25445(17) 0.6558(3) 0.33617(15)
C32 C 0.27348(18) 0.6083(3) 0.28814(16)
H24 H 0.2621 0.6347 0.2535
C33 C 0.30866(18) 0.5233(3) 0.29018(17)
C34 C 0.32696(17) 0.4883(3) 0.34216(17)
H25 H 0.3518 0.4326 0.3446
C35 C 0.30943(16) 0.5337(3) 0.39145(16)
C36 C 0.22103(18) 0.7516(3) 0.32647(16)
H26 H 0.1802 0.7481 0.3414
H27 H 0.2171 0.7646 0.2871
H28 H 0.2445 0.8031 0.3447
C37 C 0.3285(2) 0.4724(4) 0.2375(2)
H29 H 0.3054 0.4987 0.2058
H30 H 0.3203 0.4037 0.2403
H31 H 0.3724 0.4825 0.2332
C38 C 0.33795(18) 0.4914(3) 0.44512(17)
H32 H 0.3695 0.5350 0.4602
H33 H 0.3564 0.4292 0.4376
H34 H 0.3060 0.4834 0.4716
C39 C 0.10651(15) 0.3441(2) 0.50983(15)
C40 C 0.12178(15) 0.3657(2) 0.56669(15)
C41 C 0.13079(16) 0.2921(3) 0.60644(16)
H35 H 0.1424 0.3093 0.6429
C42 C 0.12297(18) 0.1946(3) 0.59331(17)
C43 C 0.10229(19) 0.1726(3) 0.53919(18)
H36 H 0.0943 0.1078 0.5298
C44 C 0.09301(17) 0.2445(3) 0.49826(16)
C45 C 0.12441(17) 0.4685(3) 0.58971(15)
H37 H 0.1256 0.5142 0.5595
H38 H 0.1613 0.4759 0.6135
H39 H 0.0880 0.4805 0.6107
C46 C 0.1359(2) 0.1163(3) 0.6365(2)
H40 H 0.1803 0.1073 0.6418
H41 H 0.1170 0.0561 0.6241
H42 H 0.1188 0.1355 0.6712
C47 C 0.0662(2) 0.2096(3) 0.44242(18)
H43 H 0.0343 0.2540 0.4290
H44 H 0.0485 0.1457 0.4465
H45 H 0.0988 0.2069 0.4162
C48 C 0.11377(16) 0.3976(2) 0.39659(15)
C49 C 0.17180(17) 0.3608(2) 0.37860(15)
C50 C 0.18518(18) 0.3612(3) 0.32266(16)
H46 H 0.2241 0.3389 0.3124
C51 C 0.14285(19) 0.3934(3) 0.28143(16)
C52 C 0.08275(18) 0.4135(3) 0.29778(15)
H47 H 0.0517 0.4262 0.2704
C53 C 0.06716(16) 0.4155(2) 0.35363(15)
C54 C 0.21937(18) 0.3170(3) 0.41938(17)
H48 H 0.2268 0.3611 0.4501
H49 H 0.2577 0.3060 0.4011
H50 H 0.2039 0.2561 0.4330
C55 C 0.1611(2) 0.4111(3) 0.22276(17)
H51 H 0.1782 0.4755 0.2198
H52 H 0.1249 0.4052 0.1979
H53 H 0.1918 0.3638 0.2129
C56 C -0.00069(17) 0.4354(3) 0.36429(17)
H54 H -0.0115 0.4045 0.3985
H55 H -0.0266 0.4098 0.3340
H56 H -0.0072 0.5046 0.3671
C57 C 0.26784(17) 0.1153(3) 0.27162(17)
C58 C 0.33078(19) 0.1395(3) 0.2760(2)
H57 H 0.3496 0.1710 0.2468
C59 C 0.3652(2) 0.1163(3) 0.3241(2)
H58 H 0.4075 0.1319 0.3268
C60 C 0.3383(2) 0.0709(3) 0.3677(2)
H59 H 0.3624 0.0555 0.3997
C61 C 0.2749(2) 0.0475(3) 0.36446(19)
H60 H 0.2564 0.0172 0.3942
C62 C 0.23987(17) 0.0700(3) 0.31650(16)
C63 C 0.14647(18) 0.0047(3) 0.35329(16)
H61 H 0.1480 0.0474 0.3856
H62 H 0.1670 -0.0563 0.3635
C64 C 0.08008(18) -0.0138(3) 0.33406(17)
H63 H 0.0790 -0.0536 0.3006
H64 H 0.0586 -0.0489 0.3627
C65 C -0.01636(18) 0.0650(3) 0.31755(17)
H65 H -0.0318 0.0409 0.3524
H66 H -0.0269 0.0176 0.2886
C66 C -0.04658(17) 0.1605(3) 0.30319(16)
H67 H -0.0917 0.1536 0.3015
H68 H -0.0351 0.2090 0.3313
C67 C -0.05084(17) 0.2736(3) 0.22696(16)
C68 C -0.10150(18) 0.3227(3) 0.24730(17)
H69 H -0.1212 0.2987 0.2783
C69 C -0.1230(2) 0.4076(3) 0.22146(19)
H70 H -0.1569 0.4408 0.2354
C70 C -0.0943(2) 0.4430(3) 0.1751(2)
H71 H -0.1087 0.5001 0.1580
C71 C -0.0438(2) 0.3932(3) 0.15389(18)
H72 H -0.0247 0.4168 0.1225
C72 C -0.02187(17) 0.3088(3) 0.17948(16)
C73 C 0.05594(18) 0.2849(3) 0.11171(15)
H73 H 0.0735 0.3499 0.1163
H74 H 0.0247 0.2867 0.0812
C74 C 0.10624(18) 0.2138(3) 0.09897(16)
H75 H 0.0888 0.1485 0.0960
H76 H 0.1238 0.2303 0.0636
C75 C 0.20686(18) 0.1590(3) 0.12931(17)
H77 H 0.2238 0.1819 0.0948
H78 H 0.1946 0.0913 0.1244
C76 C 0.25542(19) 0.1674(3) 0.17583(17)
H79 H 0.2920 0.1292 0.1674
H80 H 0.2680 0.2350 0.1808
B1 B 0.24488(18) 0.6579(3) 0.45037(16)
B2 B 0.10618(18) 0.4306(3) 0.46210(17)
C77 C 0.2026(15) 0.561(2) 0.4689(16)
N1 N 0.170(3) 0.499(2) 0.4710(10)
Cl1 Cl 0.29994(8) 0.72968(15) 0.12454(8)
Cl2 Cl 0.28409(8) 0.88121(17) 0.03981(10)
C79 C 0.2775(3) 0.7571(5) 0.0547(3)
H81 H 0.3035 0.7203 0.0300
H82 H 0.2345 0.7368 0.0474
Cl3 Cl -0.05367(8) -0.10426(14) 0.55519(6)
Cl4 Cl -0.01281(8) 0.01054(10) 0.65207(7)
C80 C -0.0718(3) -0.0587(4) 0.6215(3)
H83 H -0.1094 -0.0192 0.6176
H84 H -0.0806 -0.1131 0.6458
N2? N 0.208(2) 0.562(3) 0.469(2)
C78? C 0.167(5) 0.500(5) 0.473(2)
loop_
_geom_bond_atom_site_label_1
_geom_bond_atom_site_label_2
_geom_bond_site_symmetry_1
_geom_bond_site_symmetry_2
K1 O1 1_555 1_555
O1 C66 1_555 1_555
O2 K1 1_555 1_555
O3 K1 1_555 1_555
O4 K1 1_555 1_555
O5 K1 1_555 1_555
O6 K1 1_555 1_555
C1 C2 1_555 1_555
C2 H1 1_555 1_555
C3 C2 1_555 1_555
H2 C3 1_555 1_555
C4 C3 1_555 1_555
H3 C4 1_555 1_555
C5 C4 1_555 1_555
C6 C1 1_555 1_555
C7 C8 1_555 1_555
C8 C9 1_555 1_555
C9 H4 1_555 1_555
C10 C9 1_555 1_555
H5 C10 1_555 1_555
C11 C10 1_555 1_555
H6 C11 1_555 1_555
C12 C7 1_555 1_555
C13 C14 1_555 1_555
C14 H7 1_555 1_555
C15 C14 1_555 1_555
H8 C15 1_555 1_555
C16 C15 1_555 1_555
H9 C16 1_555 1_555
C17 C16 1_555 1_555
H10 C17 1_555 1_555
C18 C13 1_555 1_555
C19 C5 1_555 1_555
H11 C19 1_555 1_555
C20 C6 1_555 1_555
H12 C20 1_555 1_555
C21 C22 1_555 1_555
C22 C23 1_555 1_555
C23 H13 1_555 1_555
C24 C23 1_555 1_555
C25 C24 1_555 1_555
H14 C25 1_555 1_555
C26 C21 1_555 1_555
C27 C22 1_555 1_555
H15 C27 1_555 1_555
H16 C27 1_555 1_555
H17 C27 1_555 1_555
C28 C24 1_555 1_555
H18 C28 1_555 1_555
H19 C28 1_555 1_555
H20 C28 1_555 1_555
C29 C26 1_555 1_555
H21 C29 1_555 1_555
H22 C29 1_555 1_555
H23 C29 1_555 1_555
C30 C31 1_555 1_555
C31 C32 1_555 1_555
C32 H24 1_555 1_555
C33 C32 1_555 1_555
C34 C33 1_555 1_555
H25 C34 1_555 1_555
C35 C30 1_555 1_555
C36 C31 1_555 1_555
H26 C36 1_555 1_555
H27 C36 1_555 1_555
H28 C36 1_555 1_555
C37 C33 1_555 1_555
H29 C37 1_555 1_555
H30 C37 1_555 1_555
H31 C37 1_555 1_555
C38 C35 1_555 1_555
H32 C38 1_555 1_555
H33 C38 1_555 1_555
H34 C38 1_555 1_555
C39 C40 1_555 1_555
C40 C41 1_555 1_555
C41 H35 1_555 1_555
C42 C41 1_555 1_555
C43 C42 1_555 1_555
H36 C43 1_555 1_555
C44 C39 1_555 1_555
C45 C40 1_555 1_555
H37 C45 1_555 1_555
H38 C45 1_555 1_555
H39 C45 1_555 1_555
C46 C42 1_555 1_555
H40 C46 1_555 1_555
H41 C46 1_555 1_555
H42 C46 1_555 1_555
C47 C44 1_555 1_555
H43 C47 1_555 1_555
H44 C47 1_555 1_555
H45 C47 1_555 1_555
C48 C49 1_555 1_555
C49 C50 1_555 1_555
C50 H46 1_555 1_555
C51 K1 1_555 1_555
C52 C51 1_555 1_555
H47 C52 1_555 1_555
C53 C48 1_555 1_555
C54 C49 1_555 1_555
H48 C54 1_555 1_555
H49 C54 1_555 1_555
H50 C54 1_555 1_555
C55 C51 1_555 1_555
H51 C55 1_555 1_555
H52 C55 1_555 1_555
H53 C55 1_555 1_555
C56 C53 1_555 1_555
H54 C56 1_555 1_555
H55 C56 1_555 1_555
H56 C56 1_555 1_555
C57 O4 1_555 1_555
C58 C57 1_555 1_555
H57 C58 1_555 1_555
C59 C58 1_555 1_555
H58 C59 1_555 1_555
C60 C59 1_555 1_555
H59 C60 1_555 1_555
C61 C60 1_555 1_555
H60 C61 1_555 1_555
C62 O3 1_555 1_555
C63 O3 1_555 1_555
H61 C63 1_555 1_555
H62 C63 1_555 1_555
C64 O5 1_555 1_555
H63 C64 1_555 1_555
H64 C64 1_555 1_555
C65 O5 1_555 1_555
H65 C65 1_555 1_555
H66 C65 1_555 1_555
C66 C65 1_555 1_555
H67 C66 1_555 1_555
H68 C66 1_555 1_555
C67 O1 1_555 1_555
C68 C67 1_555 1_555
H69 C68 1_555 1_555
C69 C68 1_555 1_555
H70 C69 1_555 1_555
C70 C69 1_555 1_555
H71 C70 1_555 1_555
C71 C70 1_555 1_555
H72 C71 1_555 1_555
C72 O2 1_555 1_555
C73 O2 1_555 1_555
H73 C73 1_555 1_555
H74 C73 1_555 1_555
C74 O6 1_555 1_555
H75 C74 1_555 1_555
H76 C74 1_555 1_555
C75 O6 1_555 1_555
H77 C75 1_555 1_555
H78 C75 1_555 1_555
C76 O4 1_555 1_555
H79 C76 1_555 1_555
H80 C76 1_555 1_555
B1 C1 1_555 1_555
B2 C8 1_555 1_555
C77 B1 1_555 1_555
N1 B2 1_555 1_555
Cl1 C79 1_555 1_555
Cl2 C79 1_555 1_555
C79 H81 1_555 1_555
H82 C79 1_555 1_555
Cl3 C80 1_555 1_555
Cl4 C80 1_555 1_555
C80 H83 1_555 1_555
H84 C80 1_555 1_555
C5 C6 1_555 1_555
C7 C20 1_555 1_555
C11 C12 1_555 1_555
C12 C19 1_555 1_555
C13 C19 1_555 1_555
C17 C18 1_555 1_555
C18 C20 1_555 1_555
C21 B1 1_555 1_555
C25 C26 1_555 1_555
C30 B1 1_555 1_555
C34 C35 1_555 1_555
C39 B2 1_555 1_555
C43 C44 1_555 1_555
C48 B2 1_555 1_555
C50 C51 1_555 1_555
C52 C53 1_555 1_555
C57 C62 1_555 1_555
C61 C62 1_555 1_555
C63 C64 1_555 1_555
C67 C72 1_555 1_555
C71 C72 1_555 1_555
C73 C74 1_555 1_555
C75 C76 1_555 1_555
C77 N1 1_555 1_555

#END
