
#######################################################################
#
#                 Cambridge Crystallographic Data Centre
#                                CCDC 
#
#######################################################################
#
# If this CIF has been generated from an entry in the Cambridge 
# Structural Database, then it will include bibliographic, chemical, 
# crystal, experimental, refinement or atomic coordinate data resulting 
# from the CCDC's data processing and validation procedures.
#
#######################################################################

data_YIDYIW
_chemical_formula_moiety         'C48 H54 B2 N2'
_chemical_name_systematic        
(\m-hydrazinedi-ium)-(\m-biphenylene-1,8-diyl)-tetramesityl-diborate
_symmetry_cell_setting           monoclinic
_symmetry_space_group_name_H-M   'C 2/c'
_symmetry_Int_Tables_number      15
_space_group_name_Hall           '-C 2yn'
loop_
_symmetry_equiv_pos_site_id
_symmetry_equiv_pos_as_xyz
1 x,y,z
2 -x,y,1/2-z
3 1/2+x,1/2+y,z
4 1/2-x,1/2+y,1/2-z
5 -x,-y,-z
6 x,-y,1/2+z
7 1/2-x,1/2-y,-z
8 1/2+x,1/2-y,1/2+z
_cell_length_a                   18.849(3)
_cell_length_b                   11.5959(16)
_cell_length_c                   20.422(3)
_cell_angle_alpha                90
_cell_angle_beta                 106.9137(18)
_cell_angle_gamma                90
_cell_volume                     4270.58
_exptl_crystal_colour            yellow
_exptl_crystal_description       block
_cell_formula_units_Z            4
loop_
_atom_site_label
_atom_site_type_symbol
_atom_site_fract_x
_atom_site_fract_y
_atom_site_fract_z
N1 N -0.00203(6) 0.81390(10) 0.28536(5)
H1 H 0.0313 0.8634 0.3099
H2 H 0.0100 0.7440 0.3032
C1 C -0.03244(7) 1.17716(11) 0.26413(7)
C2 C -0.08999(7) 0.82103(11) 0.37029(7)
C3 C -0.03370(7) 1.05393(11) 0.26418(6)
C4 C -0.18788(8) 0.81919(13) 0.16738(7)
C5 C -0.08400(7) 0.98933(12) 0.28610(6)
B1 B -0.08635(8) 0.84963(13) 0.29234(7)
C6 C -0.15753(7) 0.78527(12) 0.38185(7)
C7 C -0.13320(8) 1.05946(13) 0.31111(7)
H3 H -0.1679 1.0225 0.3281
C8 C -0.13212(8) 1.17843(13) 0.31148(8)
H4 H -0.1660 1.2181 0.3282
C9 C -0.13837(7) 0.77318(12) 0.22793(7)
C10 C -0.03773(8) 0.82787(13) 0.49539(7)
H5 H 0.0027 0.8432 0.5332
C11 C -0.03030(7) 0.84394(12) 0.42964(7)
C12 C -0.16230(8) 0.76894(13) 0.44832(7)
H6 H -0.2068 0.7430 0.4541
C13 C -0.08337(10) 0.58648(13) 0.29149(8)
H7 H -0.0390 0.5575 0.2834
H8 H -0.1120 0.5232 0.3005
H9 H -0.0705 0.6374 0.3302
C14 C 0.04455(8) 0.88929(14) 0.42754(8)
H10 H 0.0723 0.8279 0.4151
H11 H 0.0713 0.9185 0.4718
H12 H 0.0374 0.9501 0.3943
C15 C -0.20975(9) 0.94512(14) 0.15894(8)
H13 H -0.2279 0.9688 0.1962
H14 H -0.2479 0.9557 0.1165
H15 H -0.1673 0.9908 0.1588
C16 C -0.16311(9) 0.58308(14) 0.17216(8)
H16 H -0.1545 0.5040 0.1745
C17 C -0.12853(8) 0.65160(13) 0.22892(7)
C18 C -0.10317(8) 0.78995(14) 0.50595(7)
C19 C -0.22180(8) 0.74710(14) 0.11181(7)
H17 H -0.2538 0.7799 0.0728
C20 C -0.08081(8) 1.24173(13) 0.28705(8)
H18 H -0.0801 1.3219 0.2867
C21 C -0.20970(9) 0.62952(15) 0.11264(8)
C22 C -0.22860(8) 0.76615(15) 0.32480(7)
H19 H -0.2367 0.8299 0.2935
H20 H -0.2694 0.7602 0.3438
H21 H -0.2247 0.6962 0.3009
C23 C -0.11103(10) 0.7754(2) 0.57700(8)
H22 H -0.0627 0.7733 0.6097
H23 H -0.1367 0.7047 0.5793
H24 H -0.1386 0.8391 0.5872
C24 C -0.24706(12) 0.55372(18) 0.05214(9)
H25 H -0.2101 0.5181 0.0349
H26 H -0.2794 0.5998 0.0168
H27 H -0.2754 0.4951 0.0663
N1A N 0.00203(6) 0.81390(10) 0.21464(5)
H1A H -0.0313 0.8634 0.1901
H2A H -0.0100 0.7440 0.1968
C1A C 0.03244(7) 1.17716(11) 0.23587(7)
C2A C 0.08999(7) 0.82103(11) 0.12971(7)
C3A C 0.03370(7) 1.05393(11) 0.23582(6)
C4A C 0.18788(8) 0.81919(13) 0.33262(7)
C5A C 0.08400(7) 0.98933(12) 0.21390(6)
B1A B 0.08635(8) 0.84963(13) 0.20766(7)
C6A C 0.15753(7) 0.78527(12) 0.11815(7)
C7A C 0.13320(8) 1.05946(13) 0.18889(7)
H3A H 0.1679 1.0225 0.1719
C8A C 0.13212(8) 1.17843(13) 0.18852(8)
H4A H 0.1660 1.2181 0.1718
C9A C 0.13837(7) 0.77318(12) 0.27207(7)
C10A C 0.03773(8) 0.82787(13) 0.00461(7)
H5A H -0.0027 0.8432 -0.0332
C11A C 0.03030(7) 0.84394(12) 0.07036(7)
C12A C 0.16230(8) 0.76894(13) 0.05168(7)
H6A H 0.2068 0.7430 0.0459
C13A C 0.08337(10) 0.58648(13) 0.20851(8)
H7A H 0.0390 0.5575 0.2166
H8A H 0.1120 0.5232 0.1995
H9A H 0.0705 0.6374 0.1698
C14A C -0.04455(8) 0.88929(14) 0.07246(8)
H10A H -0.0723 0.8279 0.0849
H11A H -0.0713 0.9185 0.0282
H12A H -0.0374 0.9501 0.1057
C15A C 0.20975(9) 0.94512(14) 0.34106(8)
H13A H 0.2279 0.9688 0.3038
H14A H 0.2479 0.9557 0.3835
H15A H 0.1673 0.9908 0.3412
C16A C 0.16311(9) 0.58308(14) 0.32784(8)
H16A H 0.1545 0.5040 0.3255
C17A C 0.12853(8) 0.65160(13) 0.27108(7)
C18A C 0.10317(8) 0.78995(14) -0.00595(7)
C19A C 0.22180(8) 0.74710(14) 0.38819(7)
H17A H 0.2538 0.7799 0.4272
C20A C 0.08081(8) 1.24173(13) 0.21295(8)
H18A H 0.0801 1.3219 0.2133
C21A C 0.20970(9) 0.62952(15) 0.38736(8)
C22A C 0.22860(8) 0.76615(15) 0.17520(7)
H19A H 0.2367 0.8299 0.2065
H20A H 0.2694 0.7602 0.1562
H21A H 0.2247 0.6962 0.1991
C23A C 0.11103(10) 0.7754(2) -0.07700(8)
H22A H 0.0627 0.7733 -0.1097
H23A H 0.1367 0.7047 -0.0793
H24A H 0.1386 0.8391 -0.0872
C24A C 0.24706(12) 0.55372(18) 0.44786(9)
H25A H 0.2101 0.5181 0.4651
H26A H 0.2794 0.5998 0.4832
H27A H 0.2754 0.4951 0.4337
loop_
_geom_bond_atom_site_label_1
_geom_bond_atom_site_label_2
_geom_bond_site_symmetry_1
_geom_bond_site_symmetry_2
N1 H1 1_555 1_555
H2 N1 1_555 1_555
C1 C3 1_555 1_555
C2 B1 1_555 1_555
C3 C5 1_555 1_555
C4 C9 1_555 1_555
C5 B1 1_555 1_555
B1 N1 1_555 1_555
C6 C2 1_555 1_555
C7 C5 1_555 1_555
H3 C7 1_555 1_555
C8 C7 1_555 1_555
H4 C8 1_555 1_555
C9 B1 1_555 1_555
C10 H5 1_555 1_555
C11 C2 1_555 1_555
C12 C6 1_555 1_555
H6 C12 1_555 1_555
C13 H7 1_555 1_555
H8 C13 1_555 1_555
H9 C13 1_555 1_555
C14 C11 1_555 1_555
H10 C14 1_555 1_555
H11 C14 1_555 1_555
H12 C14 1_555 1_555
C15 C4 1_555 1_555
H13 C15 1_555 1_555
H14 C15 1_555 1_555
H15 C15 1_555 1_555
C16 H16 1_555 1_555
C17 C9 1_555 1_555
C18 C10 1_555 1_555
C19 C4 1_555 1_555
H17 C19 1_555 1_555
C20 C1 1_555 1_555
H18 C20 1_555 1_555
C21 C16 1_555 1_555
C22 C6 1_555 1_555
H19 C22 1_555 1_555
H20 C22 1_555 1_555
H21 C22 1_555 1_555
C23 C18 1_555 1_555
H22 C23 1_555 1_555
H23 C23 1_555 1_555
H24 C23 1_555 1_555
C24 C21 1_555 1_555
H25 C24 1_555 1_555
H26 C24 1_555 1_555
H27 C24 1_555 1_555
N1A N1 1_555 1_555
H1A N1A 1_555 1_555
H2A N1A 1_555 1_555
C1A C1 1_555 1_555
C2A B1A 1_555 1_555
C3A C3 1_555 1_555
C4A C9A 1_555 1_555
C5A C3A 1_555 1_555
B1A N1A 1_555 1_555
C6A C2A 1_555 1_555
C7A C5A 1_555 1_555
H3A C7A 1_555 1_555
C8A C7A 1_555 1_555
H4A C8A 1_555 1_555
C9A B1A 1_555 1_555
C10A H5A 1_555 1_555
C11A C2A 1_555 1_555
C12A C6A 1_555 1_555
H6A C12A 1_555 1_555
C13A H7A 1_555 1_555
H8A C13A 1_555 1_555
H9A C13A 1_555 1_555
C14A C11A 1_555 1_555
H10A C14A 1_555 1_555
H11A C14A 1_555 1_555
H12A C14A 1_555 1_555
C15A C4A 1_555 1_555
H13A C15A 1_555 1_555
H14A C15A 1_555 1_555
H15A C15A 1_555 1_555
C16A H16A 1_555 1_555
C17A C9A 1_555 1_555
C18A C10A 1_555 1_555
C19A C4A 1_555 1_555
H17A C19A 1_555 1_555
C20A C1A 1_555 1_555
H18A C20A 1_555 1_555
C21A C16A 1_555 1_555
C22A C6A 1_555 1_555
H19A C22A 1_555 1_555
H20A C22A 1_555 1_555
H21A C22A 1_555 1_555
C23A C18A 1_555 1_555
H22A C23A 1_555 1_555
H23A C23A 1_555 1_555
H24A C23A 1_555 1_555
C24A C21A 1_555 1_555
H25A C24A 1_555 1_555
H26A C24A 1_555 1_555
H27A C24A 1_555 1_555
C8 C20 1_555 1_555
C10 C11 1_555 1_555
C12 C18 1_555 1_555
C13 C17 1_555 1_555
C16 C17 1_555 1_555
C19 C21 1_555 1_555
C1A C3A 1_555 1_555
C5A B1A 1_555 1_555
C8A C20A 1_555 1_555
C10A C11A 1_555 1_555
C12A C18A 1_555 1_555
C13A C17A 1_555 1_555
C16A C17A 1_555 1_555
C19A C21A 1_555 1_555

#END
