
#######################################################################
#
#                 Cambridge Crystallographic Data Centre
#                                CCDC 
#
#######################################################################
#
# If this CIF has been generated from an entry in the Cambridge 
# Structural Database, then it will include bibliographic, chemical, 
# crystal, experimental, refinement or atomic coordinate data resulting 
# from the CCDC's data processing and validation procedures.
#
#######################################################################

data_YIFFOJ
_chemical_formula_moiety         'C12 H10 N2 O3 S1'
_chemical_name_systematic        'methyl 2-(thiazol-2-ylcarbamoyl)benzoate'
_symmetry_cell_setting           orthorhombic
_symmetry_space_group_name_H-M   'P b c a'
_symmetry_Int_Tables_number      61
_space_group_name_Hall           '-P 2ac 2ab'
loop_
_symmetry_equiv_pos_site_id
_symmetry_equiv_pos_as_xyz
1 x,y,z
2 1/2-x,-y,1/2+z
3 -x,1/2+y,1/2-z
4 1/2+x,1/2-y,-z
5 -x,-y,-z
6 1/2+x,y,1/2-z
7 x,1/2-y,1/2+z
8 1/2-x,1/2+y,z
_cell_length_a                   14.921(7)
_cell_length_b                   8.885(5)
_cell_length_c                   18.954(10)
_cell_angle_alpha                90
_cell_angle_beta                 90
_cell_angle_gamma                90
_cell_volume                     2512.79
_exptl_crystal_colour            'light yellow'
_exptl_crystal_description       block
_cell_formula_units_Z            8
loop_
_atom_site_label
_atom_site_type_symbol
_atom_site_fract_x
_atom_site_fract_y
_atom_site_fract_z
S1 S 0.73851(3) 0.02588(8) 0.42504(3)
N1 N 0.55727(10) 0.07951(18) 0.41824(8)
O1 O 0.63380(10) 0.1711(2) 0.32477(8)
O2 O 0.54989(12) 0.43035(19) 0.41001(10)
O3 O 0.44802(11) 0.59151(18) 0.37036(9)
N2 N 0.61790(10) -0.0419(2) 0.51622(9)
C1 C 0.77031(14) -0.0651(3) 0.50073(12)
H1 H 0.8289 -0.0922 0.5116
C2 C 0.69962(14) -0.0916(3) 0.54175(12)
H2 H 0.7048 -0.1405 0.5849
C3 C 0.62959(12) 0.0223(2) 0.45511(9)
C4 C 0.56328(12) 0.1532(2) 0.35544(10)
C5 C 0.47413(12) 0.1974(2) 0.32457(9)
C6 C 0.42858(14) 0.0902(2) 0.28470(10)
H3 H 0.4521 -0.0063 0.2801
C7 C 0.34829(16) 0.1262(3) 0.25173(11)
H4 H 0.3182 0.0538 0.2254
C8 C 0.31331(16) 0.2682(3) 0.25796(13)
H5 H 0.2598 0.2922 0.2355
C9 C 0.35732(15) 0.3755(3) 0.29740(12)
H6 H 0.3332 0.4716 0.3014
C10 C 0.43748(12) 0.3416(2) 0.33131(9)
C11 C 0.48523(14) 0.4555(2) 0.37476(11)
C12 C 0.4931(2) 0.7107(3) 0.40852(16)
H7 H 0.5015 0.6807 0.4567
H8 H 0.4573 0.8004 0.4069
H9 H 0.5503 0.7299 0.3872
H10 H 0.5057(14) 0.075(2) 0.4383(10)
loop_
_geom_bond_atom_site_label_1
_geom_bond_atom_site_label_2
_geom_bond_site_symmetry_1
_geom_bond_site_symmetry_2
S1 C1 1_555 1_555
N1 C3 1_555 1_555
O1 C4 1_555 1_555
O2 C11 1_555 1_555
O3 C11 1_555 1_555
N2 C2 1_555 1_555
C1 H1 1_555 1_555
C2 C1 1_555 1_555
H2 C2 1_555 1_555
C3 S1 1_555 1_555
C4 N1 1_555 1_555
C5 C4 1_555 1_555
C6 C5 1_555 1_555
H3 C6 1_555 1_555
C7 C6 1_555 1_555
H4 C7 1_555 1_555
C8 C7 1_555 1_555
H5 C8 1_555 1_555
C9 C8 1_555 1_555
H6 C9 1_555 1_555
C10 C5 1_555 1_555
C11 C10 1_555 1_555
C12 O3 1_555 1_555
H7 C12 1_555 1_555
H8 C12 1_555 1_555
H9 C12 1_555 1_555
H10 N1 1_555 1_555
N2 C3 1_555 1_555
C9 C10 1_555 1_555

#END
