
#######################################################################
#
#                 Cambridge Crystallographic Data Centre
#                                CCDC 
#
#######################################################################
#
# If this CIF has been generated from an entry in the Cambridge 
# Structural Database, then it will include bibliographic, chemical, 
# crystal, experimental, refinement or atomic coordinate data resulting 
# from the CCDC's data processing and validation procedures.
#
#######################################################################

data_YIFGIE01
_chemical_formula_moiety         'C15 H16 N2 S1'
_chemical_name_systematic        1-(3,5-dimethylphenyl)-3-phenylthiourea
_symmetry_cell_setting           triclinic
_symmetry_space_group_name_H-M   'P -1'
_symmetry_Int_Tables_number      2
_space_group_name_Hall           '-P 1'
loop_
_symmetry_equiv_pos_site_id
_symmetry_equiv_pos_as_xyz
1 x,y,z
2 -x,-y,-z
_cell_length_a                   8.3179(6)
_cell_length_b                   9.1485(7)
_cell_length_c                   9.8574(7)
_cell_angle_alpha                107.548(2)
_cell_angle_beta                 98.569(2)
_cell_angle_gamma                94.280(2)
_cell_volume                     701.512
_cell_formula_units_Z            2
loop_
_atom_site_label
_atom_site_type_symbol
_atom_site_fract_x
_atom_site_fract_y
_atom_site_fract_z
S1 S 0.11269(5) 0.38123(6) 1.14363(4)
N1 N 0.32379(18) 0.23628(16) 0.98849(15)
H1 H 0.3658 0.2167 0.9113
N2 N 0.18279(17) 0.40279(17) 0.89860(15)
H2 H 0.1146 0.4698 0.9115
C1 C 0.3788(2) 0.15886(18) 1.09038(17)
C2 C 0.2492(2) 0.37704(18) 0.76877(16)
C3 C 0.4722(2) 0.3798(2) 0.6423(2)
H3 H 0.5843 0.3938 0.6433
C4 C 0.21197(19) 0.33715(18) 1.00285(17)
C5 C 0.5423(2) 0.18365(18) 1.14991(18)
H4 H 0.6135 0.2517 1.1264
C6 C 0.3271(2) -0.02097(19) 1.2170(2)
C7 C 0.4149(2) 0.39844(18) 0.77096(18)
H5 H 0.4883 0.4252 0.8581
C8 C 0.4933(2) 0.0059(2) 1.2777(2)
H6 H 0.5320 -0.0457 1.3415
C9 C 0.2710(2) 0.05627(19) 1.12117(19)
H7 H 0.1610 0.0389 1.0779
C10 C 0.6018(2) 0.10662(19) 1.24587(19)
C11 C 0.3637(3) 0.3407(2) 0.51290(19)
H8 H 0.4024 0.3271 0.4267
C12 C 0.1403(2) 0.3400(3) 0.6401(2)
H9 H 0.0280 0.3271 0.6389
C13 C 0.1994(3) 0.3221(3) 0.5120(2)
H10 H 0.1261 0.2971 0.4250
C14 C 0.7817(3) 0.1351(3) 1.3134(3)
H11 H 0.8171 0.2442 1.3498
H12 H 0.8443 0.0868 1.2417
H13 H 0.7977 0.0922 1.3914
C15 C 0.2083(3) -0.1294(3) 1.2546(3)
H14 H 0.1050 -0.0894 1.2579
H15 H 0.2514 -0.1382 1.3474
H16 H 0.1931 -0.2294 1.1826
loop_
_geom_bond_atom_site_label_1
_geom_bond_atom_site_label_2
_geom_bond_site_symmetry_1
_geom_bond_site_symmetry_2
S1 C4 1_555 1_555
N1 H1 1_555 1_555
N2 H2 1_555 1_555
C1 N1 1_555 1_555
C2 N2 1_555 1_555
C3 H3 1_555 1_555
C4 N1 1_555 1_555
C5 C1 1_555 1_555
H4 C5 1_555 1_555
C6 C8 1_555 1_555
C7 C2 1_555 1_555
H5 C7 1_555 1_555
C8 H6 1_555 1_555
C9 C1 1_555 1_555
H7 C9 1_555 1_555
C10 C5 1_555 1_555
C11 C3 1_555 1_555
H8 C11 1_555 1_555
C12 C2 1_555 1_555
H9 C12 1_555 1_555
C13 C11 1_555 1_555
H10 C13 1_555 1_555
C14 C10 1_555 1_555
H11 C14 1_555 1_555
H12 C14 1_555 1_555
H13 C14 1_555 1_555
C15 C6 1_555 1_555
H14 C15 1_555 1_555
H15 C15 1_555 1_555
H16 C15 1_555 1_555
N2 C4 1_555 1_555
C3 C7 1_555 1_555
C6 C9 1_555 1_555
C8 C10 1_555 1_555
C12 C13 1_555 1_555

#END
