
#######################################################################
#
#                 Cambridge Crystallographic Data Centre
#                                CCDC 
#
#######################################################################
#
# If this CIF has been generated from an entry in the Cambridge 
# Structural Database, then it will include bibliographic, chemical, 
# crystal, experimental, refinement or atomic coordinate data resulting 
# from the CCDC's data processing and validation procedures.
#
#######################################################################

data_YIFGAW
_chemical_formula_moiety         'C3 H6 N2 O2 S1'
_chemical_name_systematic        trans-4,5-Dihydroxyimidazolidine-2-thione
_symmetry_cell_setting           triclinic
_symmetry_space_group_name_H-M   'P -1'
_symmetry_Int_Tables_number      2
_space_group_name_Hall           '-P 1'
loop_
_symmetry_equiv_pos_site_id
_symmetry_equiv_pos_as_xyz
1 x,y,z
2 -x,-y,-z
_cell_length_a                   5.8092(13)
_cell_length_b                   6.5152(13)
_cell_length_c                   7.9189(17)
_cell_angle_alpha                98.595(3)
_cell_angle_beta                 106.740(3)
_cell_angle_gamma                102.494(3)
_cell_volume                     272.935
_exptl_crystal_colour            colorless
_exptl_crystal_description       block
_cell_formula_units_Z            2
loop_
_atom_site_label
_atom_site_type_symbol
_atom_site_fract_x
_atom_site_fract_y
_atom_site_fract_z
S1 S 0.17083(9) 0.20558(7) 0.72371(6)
O1 O 0.9700(2) 0.7190(2) 0.90814(17)
H1 H 0.9312 0.7162 0.9996
O2 O 0.4707(3) 0.8652(2) 0.62620(19)
H2 H 0.3942 0.9534 0.6447
N1 N 0.6030(3) 0.4520(2) 0.7146(2)
H3 H 0.6452 0.3432 0.6696
N2 N 0.3806(3) 0.6342(2) 0.8159(2)
H4 H 0.2756 0.6610 0.8677
C1 C 0.3912(3) 0.4357(3) 0.7531(2)
C2 C 0.7535(3) 0.6738(3) 0.7572(2)
H5 H 0.7998 0.7047 0.6521
C3 C 0.5665(3) 0.7984(3) 0.7863(2)
H6 H 0.6443 0.9208 0.8912
loop_
_geom_bond_atom_site_label_1
_geom_bond_atom_site_label_2
_geom_bond_site_symmetry_1
_geom_bond_site_symmetry_2
S1 C1 1_555 1_555
O1 H1 1_555 1_555
O2 H2 1_555 1_555
N1 H3 1_555 1_555
N2 H4 1_555 1_555
C1 N1 1_555 1_555
C2 O1 1_555 1_555
H5 C2 1_555 1_555
C3 O2 1_555 1_555
H6 C3 1_555 1_555
N1 C2 1_555 1_555
N2 C1 1_555 1_555
N2 C3 1_555 1_555
C2 C3 1_555 1_555

#END
