
#######################################################################
#
#                 Cambridge Crystallographic Data Centre
#                                CCDC 
#
#######################################################################
#
# If this CIF has been generated from an entry in the Cambridge 
# Structural Database, then it will include bibliographic, chemical, 
# crystal, experimental, refinement or atomic coordinate data resulting 
# from the CCDC's data processing and validation procedures.
#
#######################################################################

data_YIFHEB
_chemical_formula_moiety         'C19 H18 O3'
_chemical_name_systematic        
1,6,6-Trimethyl-6,7,8,9-tetrahydrophenanthro(1,2-b)furan-10,11-dione
_symmetry_cell_setting           orthorhombic
_symmetry_space_group_name_H-M   'P m n a'
_symmetry_Int_Tables_number      53
_space_group_name_Hall           '-P 2ac 2'
loop_
_symmetry_equiv_pos_site_id
_symmetry_equiv_pos_as_xyz
1 x,y,z
2 x,-y,-z
3 1/2-x,y,1/2-z
4 1/2-x,-y,1/2+z
5 -x,-y,-z
6 -x,y,z
7 1/2+x,-y,1/2+z
8 1/2+x,y,1/2-z
_cell_length_a                   6.5579(11)
_cell_length_b                   9.1687(15)
_cell_length_c                   24.328(4)
_cell_angle_alpha                90
_cell_angle_beta                 90
_cell_angle_gamma                90
_cell_volume                     1462.78
_exptl_crystal_colour            colorless
_exptl_crystal_description       prism
_chemical_melting_point          '209.0-210.0 deg.C'
_cell_formula_units_Z            4
loop_
_atom_site_label
_atom_site_type_symbol
_atom_site_fract_x
_atom_site_fract_y
_atom_site_fract_z
C1 C 0.0000 0.8407(3) 0.29609(10)
H1 H 0.0000 0.9428 0.3029
C2 C 0.0000 0.7377(3) 0.33594(11)
C3 C 0.0000 0.7590(3) 0.39690(11)
C4 C 0.0000 0.6329(3) 0.25212(10)
C5 C 0.0000 0.6018(3) 0.30665(10)
C6 C 0.0000 0.4508(3) 0.32377(10)
C7 C 0.0000 0.3346(3) 0.27671(10)
C8 C 0.0000 0.3812(3) 0.21762(10)
C9 C 0.0000 0.5325(3) 0.20633(10)
C10 C 0.0000 0.5814(3) 0.15243(10)
H5 H 0.0000 0.6830 0.1448
C11 C 0.0000 0.4819(3) 0.10997(10)
H6 H 0.0000 0.5166 0.0732
C12 C 0.0000 0.3313(3) 0.11940(10)
C13 C 0.0000 0.2793(3) 0.17363(10)
C14 C 0.0000 0.1179(3) 0.18488(11)
C15 C 0.0843(7) 0.0305(4) 0.13403(15)
H9 H 0.0783 -0.0727 0.1404
C16 C -0.0492(11) 0.0744(4) 0.08622(15)
C17 C 0.0000 0.2317(3) 0.06866(11)
C18 C 0.1883(4) 0.2607(3) 0.03377(9)
H13 H 0.1895 0.1939 0.0023
H14 H 0.3110 0.2451 0.0560
H15 H 0.1856 0.3616 0.0205
O1 O 0.0000 0.77918(18) 0.24416(7)
O2 O 0.0000 0.4085(2) 0.37113(7)
O3 O 0.0000 0.2080(2) 0.29159(7)
C15E C -0.0843(7) 0.0305(4) 0.13403(15)
H9E H -0.0783 -0.0727 0.1404
C16E C 0.0492(11) 0.0744(4) 0.08622(15)
C18E C -0.1883(4) 0.2607(3) 0.03377(9)
H13E H -0.1895 0.1939 0.0023
H14E H -0.3110 0.2451 0.0560
H15E H -0.1856 0.3616 0.0205
H2? H 0.0243 0.8620 0.4053
H3? H 0.1081 0.6995 0.4134
H4? H -0.1323 0.7293 0.4119
H7? H -0.1365 0.0861 0.1926
H8? H 0.0825 0.0981 0.2166
H10? H 0.2232 0.0575 0.1268
H11? H -0.1896 0.0678 0.0971
H12? H -0.0278 0.0091 0.0559
loop_
_geom_bond_atom_site_label_1
_geom_bond_atom_site_label_2
_geom_bond_site_symmetry_1
_geom_bond_site_symmetry_2
C1 H1 1_555 1_555
C2 C1 1_555 1_555
C3 C2 1_555 1_555
C4 C5 1_555 1_555
C5 C2 1_555 1_555
C6 C5 1_555 1_555
C7 C6 1_555 1_555
C8 C7 1_555 1_555
C9 C4 1_555 1_555
C10 C9 1_555 1_555
H5 C10 1_555 1_555
C11 C10 1_555 1_555
H6 C11 1_555 1_555
C12 C11 1_555 1_555
C13 C8 1_555 1_555
C14 C13 1_555 1_555
C15 C14 1_555 1_555
H9 C15 1_555 1_555
C16 C15 1_555 1_555
C17 C12 1_555 1_555
C18 C17 1_555 1_555
H13 C18 1_555 1_555
H14 C18 1_555 1_555
H15 C18 1_555 1_555
O1 C1 1_555 1_555
O2 C6 1_555 1_555
O3 C7 1_555 1_555
C15E C14 1_555 1_555
H9E C15E 1_555 1_555
C16E C15 1_555 1_555
C18E C17 1_555 1_555
H13E C18E 1_555 1_555
H14E C18E 1_555 1_555
H15E C18E 1_555 1_555
C4 O1 1_555 1_555
C8 C9 1_555 1_555
C12 C13 1_555 1_555
C15 C15E 1_555 1_555
C16 C17 1_555 1_555
C16 C15E 1_555 1_555
C16 C16E 1_555 1_555
C17 C16E 1_555 1_555
C15E C16E 1_555 1_555

#END
