
#######################################################################
#
#                 Cambridge Crystallographic Data Centre
#                                CCDC 
#
#######################################################################
#
# If this CIF has been generated from an entry in the Cambridge 
# Structural Database, then it will include bibliographic, chemical, 
# crystal, experimental, refinement or atomic coordinate data resulting 
# from the CCDC's data processing and validation procedures.
#
#######################################################################

data_YIFMIK
_chemical_formula_moiety         'C11 H14 N2 O5'
_chemical_name_systematic        5-t-Butyl-2-methoxy-1,3-dinitrobenzene
_symmetry_cell_setting           monoclinic
_symmetry_space_group_name_H-M   'C 2/c'
_symmetry_Int_Tables_number      15
_space_group_name_Hall           '-C 2yn'
loop_
_symmetry_equiv_pos_site_id
_symmetry_equiv_pos_as_xyz
1 x,y,z
2 1/2+x,1/2+y,z
3 -x,y,1/2-z
4 1/2-x,1/2+y,1/2-z
5 -x,-y,-z
6 1/2-x,1/2-y,-z
7 x,-y,1/2+z
8 1/2+x,1/2-y,1/2+z
_cell_length_a                   21.7800(18)
_cell_length_b                   12.3756(10)
_cell_length_c                   10.0521(8)
_cell_angle_alpha                90
_cell_angle_beta                 110.686(3)
_cell_angle_gamma                90
_cell_volume                     2534.77
_exptl_crystal_colour            colorless
_exptl_crystal_description       prism
_cell_formula_units_Z            8
loop_
_atom_site_label
_atom_site_type_symbol
_atom_site_fract_x
_atom_site_fract_y
_atom_site_fract_z
C1 C 0.41557(11) 0.0960(2) 0.7960(2)
H1 H 0.4019 0.0243 0.8093
H2 H 0.4614 0.0955 0.8091
H3 H 0.3907 0.1204 0.7016
C2 C 0.42528(11) 0.2866(2) 0.8843(3)
H4 H 0.4001 0.3116 0.7904
H5 H 0.4710 0.2866 0.8967
H6 H 0.4181 0.3337 0.9533
O1 O 0.19977(9) 0.33505(15) 0.55134(17)
O2 O 0.12433(9) 0.3218(2) 0.6367(3)
C3 C 0.08562(11) 0.0967(2) 0.6871(3)
H7 H 0.0417 0.0987 0.6877
H8 H 0.0997 0.0230 0.6896
H9 H 0.0868 0.1308 0.6022
C4 C 0.19258(7) 0.15762(12) 0.82339(16)
O3 O 0.12844(6) 0.15281(11) 0.80883(14)
C5 C 0.33051(7) 0.16977(12) 0.88046(15)
C6 C 0.30526(8) 0.10427(12) 0.96067(15)
H10 H 0.3336 0.0645 1.0359
C7 C 0.23849(8) 0.09782(12) 0.92962(16)
C8 C 0.28576(8) 0.22938(12) 0.77189(16)
H11 H 0.3010 0.2733 0.7152
N1 N 0.21527(8) 0.02213(12) 1.01381(17)
C9 C 0.21916(8) 0.22504(12) 0.74620(15)
O4 O 0.24253(9) 0.02423(13) 1.14221(15)
N2 N 0.17748(8) 0.29694(13) 0.63483(17)
C10 C 0.40392(8) 0.17216(13) 0.90428(17)
O5 O 0.17149(9) -0.04078(14) 0.95125(19)
C11 C 0.44524(9) 0.1347(2) 1.0536(2)
H12 H 0.4333 0.0620 1.0677
H13 H 0.4376 0.1814 1.1224
H14 H 0.4909 0.1369 1.0648
loop_
_geom_bond_atom_site_label_1
_geom_bond_atom_site_label_2
_geom_bond_site_symmetry_1
_geom_bond_site_symmetry_2
C1 H1 1_555 1_555
H2 C1 1_555 1_555
H3 C1 1_555 1_555
C2 H4 1_555 1_555
H5 C2 1_555 1_555
H6 C2 1_555 1_555
O1 N2 1_555 1_555
O2 N2 1_555 1_555
C3 H7 1_555 1_555
H8 C3 1_555 1_555
H9 C3 1_555 1_555
C4 O3 1_555 1_555
O3 C3 1_555 1_555
C5 C6 1_555 1_555
C6 H10 1_555 1_555
C7 C4 1_555 1_555
C8 C5 1_555 1_555
H11 C8 1_555 1_555
N1 C7 1_555 1_555
C9 C4 1_555 1_555
O4 N1 1_555 1_555
N2 C9 1_555 1_555
C10 C1 1_555 1_555
O5 N1 1_555 1_555
C11 C10 1_555 1_555
H12 C11 1_555 1_555
H13 C11 1_555 1_555
H14 C11 1_555 1_555
C2 C10 1_555 1_555
C5 C10 1_555 1_555
C6 C7 1_555 1_555
C8 C9 1_555 1_555

#END
