
#######################################################################
#
#                 Cambridge Crystallographic Data Centre
#                                CCDC 
#
#######################################################################
#
# If this CIF has been generated from an entry in the Cambridge 
# Structural Database, then it will include bibliographic, chemical, 
# crystal, experimental, refinement or atomic coordinate data resulting 
# from the CCDC's data processing and validation procedures.
#
#######################################################################

data_YIFNOT01
_chemical_formula_moiety         'C28 H22 O2 S4'
_chemical_name_systematic        
5,5'-[(2,5-dimethoxy-1,4-phenylene)bis(ethene-2,1-diyl)]bis(2,2'-bithiophene)
_symmetry_cell_setting           monoclinic
_symmetry_space_group_name_H-M   'P 21/c'
_symmetry_Int_Tables_number      14
_space_group_name_Hall           '-P 2ybc'
loop_
_symmetry_equiv_pos_site_id
_symmetry_equiv_pos_as_xyz
1 x,y,z
2 -x,1/2+y,1/2-z
3 -x,-y,-z
4 x,1/2-y,1/2+z
_cell_length_a                   14.239(3)
_cell_length_b                   9.3938(19)
_cell_length_c                   9.0364(18)
_cell_angle_alpha                90
_cell_angle_beta                 102.22(3)
_cell_angle_gamma                90
_cell_volume                     1181.31
_exptl_crystal_colour            orange
_exptl_crystal_description       block
_cell_formula_units_Z            2
loop_
_atom_site_label
_atom_site_type_symbol
_atom_site_fract_x
_atom_site_fract_y
_atom_site_fract_z
S1 S 0.66864(9) 0.9570(2) 0.7026(2)
S2 S 0.39955(3) 0.72806(6) 0.54409(6)
O1 O -0.09388(10) 0.52617(18) 0.73675(17)
C1 C 0.75477(16) 0.8724(3) 0.6455(3)
H1 H 0.8181 0.9038 0.6717
C2 C 0.73099(16) 0.7562(3) 0.5595(3)
H2 H 0.7724 0.7004 0.5170
C3 C 0.6300(5) 0.7343(9) 0.5452(10)
H3 H 0.5976 0.6569 0.4940
C4 C 0.58383(14) 0.8391(2) 0.6150(2)
C5 C 0.48365(14) 0.8545(2) 0.6240(2)
C6 C 0.44136(15) 0.9598(2) 0.6924(2)
H4 H 0.4747 1.0376 0.7410
C7 C 0.34223(14) 0.9381(2) 0.6816(2)
H5 H 0.3037 1.0006 0.7222
C8 C 0.30795(13) 0.8167(2) 0.6062(2)
C9 C 0.21210(14) 0.7584(2) 0.5848(2)
H6 H 0.1691 0.8054 0.6322
C10 C 0.17947(13) 0.6427(2) 0.5027(2)
H7 H 0.2187 0.6037 0.4430
C11 C 0.08717(13) 0.5728(2) 0.4996(2)
C12 C 0.03924(14) 0.5891(2) 0.6193(2)
H8 H 0.0652 0.6487 0.6998
C13 C -0.04611(13) 0.5180(2) 0.6197(2)
C14 C -0.06113(16) 0.6294(3) 0.8524(3)
H9 H -0.0611 0.7219 0.8073
H10 H 0.0028 0.6058 0.9049
H11 H -0.1032 0.6299 0.9226
S1B S -0.66864(9) 0.0430(2) 0.2974(2)
S2B S -0.39955(3) 0.27194(6) 0.45591(6)
O1B O 0.09388(10) 0.47383(18) 0.26325(17)
C1B C -0.75477(16) 0.1276(3) 0.3545(3)
H1B H -0.8181 0.0962 0.3283
C2B C -0.73099(16) 0.2438(3) 0.4405(3)
H2B H -0.7724 0.2996 0.4830
C3B C -0.6300(5) 0.2657(9) 0.4548(10)
H3B H -0.5976 0.3431 0.5060
C4B C -0.58383(14) 0.1609(2) 0.3850(2)
C5B C -0.48365(14) 0.1455(2) 0.3760(2)
C6B C -0.44136(15) 0.0402(2) 0.3076(2)
H4B H -0.4747 -0.0376 0.2590
C7B C -0.34223(14) 0.0619(2) 0.3184(2)
H5B H -0.3037 -0.0006 0.2778
C8B C -0.30795(13) 0.1833(2) 0.3938(2)
C9B C -0.21210(14) 0.2416(2) 0.4152(2)
H6B H -0.1691 0.1946 0.3678
C10B C -0.17947(13) 0.3573(2) 0.4973(2)
H7B H -0.2187 0.3963 0.5570
C11B C -0.08717(13) 0.4272(2) 0.5004(2)
C12B C -0.03924(14) 0.4109(2) 0.3807(2)
H8B H -0.0652 0.3513 0.3002
C13B C 0.04611(13) 0.4820(2) 0.3803(2)
C14B C 0.06113(16) 0.3706(3) 0.1476(3)
H9B H 0.0611 0.2781 0.1927
H10B H -0.0028 0.3942 0.0951
H11B H 0.1032 0.3701 0.0774
H12? H 0.8154 0.9125 0.6774
H13? H 0.7781 0.7029 0.5276
S3? S 0.61801(18) 0.7097(4) 0.5116(4)
C15? C 0.6658(5) 0.9207(10) 0.6772(13)
H14? H 0.6622 1.0014 0.7354
loop_
_geom_bond_atom_site_label_1
_geom_bond_atom_site_label_2
_geom_bond_site_symmetry_1
_geom_bond_site_symmetry_2
S1 C1 1_555 1_555
S2 C5 1_555 1_555
O1 C13 1_555 1_555
C1 H1 1_555 1_555
C2 C1 1_555 1_555
H2 C2 1_555 1_555
C3 C2 1_555 1_555
H3 C3 1_555 1_555
C4 S1 1_555 1_555
C5 C4 1_555 1_555
C6 C5 1_555 1_555
H4 C6 1_555 1_555
C7 C6 1_555 1_555
H5 C7 1_555 1_555
C8 S2 1_555 1_555
C9 C8 1_555 1_555
H6 C9 1_555 1_555
C10 C9 1_555 1_555
H7 C10 1_555 1_555
C11 C10 1_555 1_555
C12 C11 1_555 1_555
H8 C12 1_555 1_555
C13 C12 1_555 1_555
C14 O1 1_555 1_555
H9 C14 1_555 1_555
H10 C14 1_555 1_555
H11 C14 1_555 1_555
S1B C1B 1_555 1_555
S2B C5B 1_555 1_555
O1B C13B 1_555 1_555
C1B H1B 1_555 1_555
C2B C1B 1_555 1_555
H2B C2B 1_555 1_555
C3B C2B 1_555 1_555
H3B C3B 1_555 1_555
C4B S1B 1_555 1_555
C5B C4B 1_555 1_555
C6B C5B 1_555 1_555
H4B C6B 1_555 1_555
C7B C6B 1_555 1_555
H5B C7B 1_555 1_555
C8B S2B 1_555 1_555
C9B C8B 1_555 1_555
H6B C9B 1_555 1_555
C10B C9B 1_555 1_555
H7B C10B 1_555 1_555
C11B C13 1_555 1_555
C12B C11B 1_555 1_555
H8B C12B 1_555 1_555
C13B C11 1_555 1_555
C14B O1B 1_555 1_555
H9B C14B 1_555 1_555
H10B C14B 1_555 1_555
H11B C14B 1_555 1_555
C3 C4 1_555 1_555
C7 C8 1_555 1_555
C3B C4B 1_555 1_555
C7B C8B 1_555 1_555
C10B C11B 1_555 1_555
C12B C13B 1_555 1_555

#END
