
#######################################################################
#
#                 Cambridge Crystallographic Data Centre
#                                CCDC 
#
#######################################################################
#
# If this CIF has been generated from an entry in the Cambridge 
# Structural Database, then it will include bibliographic, chemical, 
# crystal, experimental, refinement or atomic coordinate data resulting 
# from the CCDC's data processing and validation procedures.
#
#######################################################################

data_YIFNOT
_chemical_formula_moiety         'C28 H22 O2 S4'
_chemical_name_systematic        
5,5'-[(2,5-dimethoxy-1,4-phenylene)bis(ethene-2,1-diyl)]bis(2,2'-bithiophene)
_symmetry_cell_setting           monoclinic
_symmetry_space_group_name_H-M   'P 21/c'
_symmetry_Int_Tables_number      14
_space_group_name_Hall           '-P 2ybc'
loop_
_symmetry_equiv_pos_site_id
_symmetry_equiv_pos_as_xyz
1 x,y,z
2 -x,1/2+y,1/2-z
3 -x,-y,-z
4 x,1/2-y,1/2+z
_cell_length_a                   10.771(2)
_cell_length_b                   5.5138(11)
_cell_length_c                   20.877(4)
_cell_angle_alpha                90
_cell_angle_beta                 98.08(3)
_cell_angle_gamma                90
_cell_volume                     1227.56
_exptl_crystal_colour            orange
_exptl_crystal_description       needle
_cell_formula_units_Z            2
loop_
_atom_site_label
_atom_site_type_symbol
_atom_site_fract_x
_atom_site_fract_y
_atom_site_fract_z
S1 S 0.91902(8) 0.46605(16) 0.10120(4)
S2 S 0.77817(7) 0.12683(13) 0.26657(3)
O1 O 0.30685(18) 0.2956(4) 0.52705(10)
C1 C 1.0413(3) 0.3004(7) 0.08180(15)
H1 H 1.086397 0.339912 0.048401
C2 C 1.0655(3) 0.1053(7) 0.12028(15)
H2 H 1.128922 -0.004919 0.115625
C3 C 0.9844(2) 0.0821(6) 0.16936(13)
H3 H 0.989094 -0.040506 0.200201
C4 C 0.8971(2) 0.2734(5) 0.16342(12)
C5 C 0.8009(2) 0.3231(5) 0.20439(12)
C6 C 0.7245(3) 0.5209(6) 0.20365(14)
H4 H 0.723107 0.645727 0.173585
C7 C 0.6478(3) 0.5165(6) 0.25332(14)
H5 H 0.590845 0.638454 0.259157
C8 C 0.6654(2) 0.3162(5) 0.29186(13)
C9 C 0.6046(2) 0.2668(6) 0.34799(13)
H6 H 0.549008 0.384261 0.358642
C10 C 0.6192(2) 0.0714(6) 0.38638(13)
H7 H 0.673436 -0.049195 0.376053
C11 C 0.5566(2) 0.0330(5) 0.44321(13)
C12 C 0.4584(2) 0.1820(5) 0.45686(12)
H8 H 0.429401 0.304164 0.427856
C13 C 0.4032(2) 0.1522(5) 0.51243(13)
C14 C 0.2618(3) 0.4844(6) 0.48277(15)
H9 H 0.229404 0.414622 0.441675
H10 H 0.329303 0.592920 0.477508
H11 H 0.196328 0.572383 0.499419
S1B S 0.08098(8) -0.46605(16) 0.89880(4)
S2B S 0.22183(7) -0.12683(13) 0.73343(3)
O1B O 0.69315(18) -0.2956(4) 0.47295(10)
C1B C -0.0413(3) -0.3004(7) 0.91820(15)
H1B H -0.086397 -0.339912 0.951599
C2B C -0.0655(3) -0.1053(7) 0.87972(15)
H2B H -0.128922 0.004919 0.884375
C3B C 0.0156(2) -0.0821(6) 0.83064(13)
H3B H 0.010906 0.040506 0.799799
C4B C 0.1029(2) -0.2734(5) 0.83658(12)
C5B C 0.1991(2) -0.3231(5) 0.79561(12)
C6B C 0.2755(3) -0.5209(6) 0.79635(14)
H4B H 0.276893 -0.645727 0.826415
C7B C 0.3522(3) -0.5165(6) 0.74668(14)
H5B H 0.409155 -0.638454 0.740843
C8B C 0.3346(2) -0.3162(5) 0.70814(13)
C9B C 0.3954(2) -0.2668(6) 0.65201(13)
H6B H 0.450992 -0.384261 0.641358
C10B C 0.3808(2) -0.0714(6) 0.61362(13)
H7B H 0.326564 0.049195 0.623947
C11B C 0.4434(2) -0.0330(5) 0.55679(13)
C12B C 0.5416(2) -0.1820(5) 0.54314(12)
H8B H 0.570599 -0.304164 0.572144
C13B C 0.5968(2) -0.1522(5) 0.48757(13)
C14B C 0.7382(3) -0.4844(6) 0.51723(15)
H9B H 0.770596 -0.414622 0.558325
H10B H 0.670697 -0.592920 0.522492
H11B H 0.803672 -0.572383 0.500581
loop_
_geom_bond_atom_site_label_1
_geom_bond_atom_site_label_2
_geom_bond_site_symmetry_1
_geom_bond_site_symmetry_2
S1 C1 1_555 1_555
S2 C5 1_555 1_555
O1 C13 1_555 1_555
C1 H1 1_555 1_555
C2 C1 1_555 1_555
H2 C2 1_555 1_555
C3 C2 1_555 1_555
H3 C3 1_555 1_555
C4 S1 1_555 1_555
C5 C4 1_555 1_555
C6 C5 1_555 1_555
H4 C6 1_555 1_555
C7 C6 1_555 1_555
H5 C7 1_555 1_555
C8 S2 1_555 1_555
C9 C8 1_555 1_555
H6 C9 1_555 1_555
C10 C9 1_555 1_555
H7 C10 1_555 1_555
C11 C10 1_555 1_555
C12 C11 1_555 1_555
H8 C12 1_555 1_555
C13 C12 1_555 1_555
C14 O1 1_555 1_555
H9 C14 1_555 1_555
H10 C14 1_555 1_555
H11 C14 1_555 1_555
S1B C1B 1_555 1_555
S2B C5B 1_555 1_555
O1B C13B 1_555 1_555
C1B H1B 1_555 1_555
C2B C1B 1_555 1_555
H2B C2B 1_555 1_555
C3B C2B 1_555 1_555
H3B C3B 1_555 1_555
C4B S1B 1_555 1_555
C5B C4B 1_555 1_555
C6B C5B 1_555 1_555
H4B C6B 1_555 1_555
C7B C6B 1_555 1_555
H5B C7B 1_555 1_555
C8B S2B 1_555 1_555
C9B C8B 1_555 1_555
H6B C9B 1_555 1_555
C10B C9B 1_555 1_555
H7B C10B 1_555 1_555
C11B C13 1_555 1_555
C12B C11B 1_555 1_555
H8B C12B 1_555 1_555
C13B C11 1_555 1_555
C14B O1B 1_555 1_555
H9B C14B 1_555 1_555
H10B C14B 1_555 1_555
H11B C14B 1_555 1_555
C3 C4 1_555 1_555
C7 C8 1_555 1_555
C3B C4B 1_555 1_555
C7B C8B 1_555 1_555
C10B C11B 1_555 1_555
C12B C13B 1_555 1_555

#END
