
#######################################################################
#
#                 Cambridge Crystallographic Data Centre
#                                CCDC 
#
#######################################################################
#
# If this CIF has been generated from an entry in the Cambridge 
# Structural Database, then it will include bibliographic, chemical, 
# crystal, experimental, refinement or atomic coordinate data resulting 
# from the CCDC's data processing and validation procedures.
#
#######################################################################

data_YIFTOX
_chemical_formula_moiety         'C9 H11 N3 O2'
_chemical_name_systematic        (E)-1-(4-Methoxybenzylidene)semicarbazide
_symmetry_cell_setting           monoclinic
_symmetry_space_group_name_H-M   'P 21/c'
_symmetry_Int_Tables_number      14
_space_group_name_Hall           '-P 2ybc'
loop_
_symmetry_equiv_pos_site_id
_symmetry_equiv_pos_as_xyz
1 x,y,z
2 -x,1/2+y,1/2-z
3 -x,-y,-z
4 x,1/2-y,1/2+z
_cell_length_a                   13.811(11)
_cell_length_b                   5.443(4)
_cell_length_c                   12.912(10)
_cell_angle_alpha                90
_cell_angle_beta                 97.933(13)
_cell_angle_gamma                90
_cell_volume                     961.348
_exptl_crystal_colour            'light yellow'
_exptl_crystal_description       block
_cell_formula_units_Z            4
loop_
_atom_site_label
_atom_site_type_symbol
_atom_site_fract_x
_atom_site_fract_y
_atom_site_fract_z
O1 O 0.41747(12) 1.0943(3) 0.72911(13)
O2 O -0.00139(11) 0.1030(2) 1.13605(10)
N1 N 0.14797(13) 0.4422(3) 0.98921(12)
N2 N 0.08994(13) 0.2555(3) 1.01916(13)
N3 N 0.07790(15) 0.4668(3) 1.17129(13)
C1 C 0.26768(16) 0.8148(4) 0.90565(16)
H1 H 0.2498 0.8496 0.9709
C2 C 0.32882(17) 0.9721(4) 0.86267(17)
H2 H 0.3522 1.1117 0.8994
C3 C 0.35624(16) 0.9253(4) 0.76477(17)
C4 C 0.32198(15) 0.7166(4) 0.71071(16)
H3 H 0.3401 0.6826 0.6455
C5 C 0.26042(16) 0.5587(4) 0.75450(15)
H4 H 0.2373 0.4189 0.7177
C6 C 0.23206(16) 0.6034(3) 0.85243(15)
C7 C 0.16913(15) 0.4259(3) 0.89599(15)
H5 H 0.1434 0.2958 0.8542
C8 C 0.05186(15) 0.2709(3) 1.11155(14)
C9 C 0.4390(2) 1.0650(6) 0.62403(19)
H6 H 0.4745 0.9148 0.6189
H7 H 0.4779 1.2010 0.6064
H8 H 0.3790 1.0597 0.5766
H9 H 0.0485(14) 0.501(4) 1.2275(12)
H10 H 0.0686(14) 0.140(3) 0.9726(13)
H11 H 0.1138(15) 0.586(3) 1.1490(16)
loop_
_geom_bond_atom_site_label_1
_geom_bond_atom_site_label_2
_geom_bond_site_symmetry_1
_geom_bond_site_symmetry_2
O1 C3 1_555 1_555
O2 C8 1_555 1_555
N1 N2 1_555 1_555
N2 C8 1_555 1_555
N3 C8 1_555 1_555
C1 H1 1_555 1_555
C2 C1 1_555 1_555
H2 C2 1_555 1_555
C3 C2 1_555 1_555
C4 C3 1_555 1_555
H3 C4 1_555 1_555
C5 C4 1_555 1_555
H4 C5 1_555 1_555
C6 C1 1_555 1_555
C7 N1 1_555 1_555
H5 C7 1_555 1_555
C9 O1 1_555 1_555
H6 C9 1_555 1_555
H7 C9 1_555 1_555
H8 C9 1_555 1_555
H9 N3 1_555 1_555
H10 N2 1_555 1_555
H11 N3 1_555 1_555
C5 C6 1_555 1_555
C6 C7 1_555 1_555

#END
