
#######################################################################
#
#                 Cambridge Crystallographic Data Centre
#                                CCDC 
#
#######################################################################
#
# If this CIF has been generated from an entry in the Cambridge 
# Structural Database, then it will include bibliographic, chemical, 
# crystal, experimental, refinement or atomic coordinate data resulting 
# from the CCDC's data processing and validation procedures.
#
#######################################################################

data_YIFVOB
_chemical_formula_moiety         'C40 H80 Cl2 Li4 O10 2+,2(C34 H38 B1 1-)'
_chemical_name_systematic        
"bis(\m-chloro)-decakis(tetrahydrofuran)-tetra-lithium bis((4,4'-di-t-butyl[1,1'-biphenyl]-2,2'-diyl)bis(4-methylphenyl)borate)"
_symmetry_cell_setting           monoclinic
_symmetry_space_group_name_H-M   'P 21/n'
_symmetry_Int_Tables_number      14
_space_group_name_Hall           '-P 2yn'
loop_
_symmetry_equiv_pos_site_id
_symmetry_equiv_pos_as_xyz
1 x,y,z
2 1/2-x,1/2+y,1/2-z
3 -x,-y,-z
4 1/2+x,1/2-y,1/2+z
_cell_length_a                   13.9854(7)
_cell_length_b                   22.8625(8)
_cell_length_c                   16.6899(7)
_cell_angle_alpha                90
_cell_angle_beta                 97.113(4)
_cell_angle_gamma                90
_cell_volume                     5295.38
_exptl_crystal_colour            colorless
_exptl_crystal_description       block
_cell_formula_units_Z            2
loop_
_atom_site_label
_atom_site_type_symbol
_atom_site_fract_x
_atom_site_fract_y
_atom_site_fract_z
B1 B 0.5249(3) 0.73495(17) 0.4083(2)
C1 C 0.5048(2) 0.78110(14) 0.3333(2)
C2 C 0.4227(2) 0.76457(14) 0.28050(19)
C3 C 0.3929(3) 0.79683(16) 0.2112(2)
H1 H 0.3376 0.7852 0.1759
C4 C 0.4447(3) 0.84624(16) 0.1938(2)
H2 H 0.4237 0.8682 0.1466
C5 C 0.5268(3) 0.86434(15) 0.2440(2)
C6 C 0.5541(3) 0.83081(15) 0.3132(2)
H3 H 0.6093 0.8426 0.3484
C7 C 0.5876(3) 0.91819(16) 0.2267(2)
C8 C 0.6929(3) 0.89801(19) 0.2217(3)
H4 H 0.7185 0.8789 0.2725
H5 H 0.6938 0.8703 0.1770
H6 H 0.7328 0.9320 0.2127
C9 C 0.5515(4) 0.9474(2) 0.1468(4)
H7 H 0.5496 0.9187 0.1031
H8 H 0.4865 0.9629 0.1491
H9 H 0.5949 0.9795 0.1367
C10 C 0.5914(4) 0.96189(19) 0.2963(3)
H10 H 0.6148 0.9422 0.3471
H11 H 0.6351 0.9940 0.2871
H12 H 0.5267 0.9775 0.2995
C11 C 0.4340(2) 0.69046(15) 0.38179(19)
C12 C 0.3789(2) 0.71096(14) 0.3107(2)
C13 C 0.2961(2) 0.68099(15) 0.2776(2)
H13 H 0.2589 0.6952 0.2301
C14 C 0.2687(3) 0.63036(16) 0.3146(2)
H14 H 0.2126 0.6102 0.2914
C15 C 0.3208(3) 0.60819(15) 0.3846(2)
C16 C 0.4037(2) 0.63955(15) 0.4166(2)
H15 H 0.4405 0.6252 0.4642
C17 C 0.2901(3) 0.55114(17) 0.4230(2)
C18 C 0.3547(9) 0.5331(6) 0.4952(7)
H16 H 0.3575 0.5641 0.5360
H17 H 0.3302 0.4971 0.5171
H18 H 0.4195 0.5261 0.4805
C19 C 0.2857(7) 0.5032(4) 0.3598(6)
H19 H 0.2427 0.5153 0.3117
H20 H 0.3504 0.4962 0.3450
H21 H 0.2611 0.4672 0.3817
C20 C 0.1811(6) 0.5576(4) 0.4401(6)
H22 H 0.1411 0.5696 0.3904
H23 H 0.1581 0.5199 0.4583
H24 H 0.1770 0.5871 0.4821
C21 C 0.6301(2) 0.70253(14) 0.4117(2)
C22 C 0.6937(3) 0.71015(16) 0.3547(2)
H25 H 0.6746 0.7345 0.3094
C23 C 0.7847(3) 0.68348(18) 0.3611(2)
H26 H 0.8259 0.6908 0.3210
C24 C 0.8153(3) 0.64647(16) 0.4251(2)
C25 C 0.7526(3) 0.63747(16) 0.4810(2)
H27 H 0.7707 0.6117 0.5249
C26 C 0.6634(3) 0.66500(16) 0.4752(2)
H28 H 0.6233 0.6580 0.5162
C27 C 0.9137(3) 0.6179(2) 0.4329(3)
H29 H 0.9159 0.5858 0.4719
H30 H 0.9631 0.6469 0.4517
H31 H 0.9259 0.6026 0.3803
C28 C 0.5171(2) 0.76749(14) 0.4944(2)
C29 C 0.5855(3) 0.80929(16) 0.5249(2)
H32 H 0.6387 0.8165 0.4960
C30 C 0.5791(3) 0.84070(16) 0.5954(2)
H33 H 0.6271 0.8689 0.6126
C31 C 0.5042(3) 0.83169(17) 0.6411(2)
C32 C 0.4369(3) 0.78919(18) 0.6137(2)
H34 H 0.3855 0.7808 0.6441
C33 C 0.4434(3) 0.75864(17) 0.5422(2)
H35 H 0.3952 0.7304 0.5253
C34 C 0.4961(3) 0.8658(2) 0.7171(3)
H36 H 0.4280 0.8704 0.7243
H37 H 0.5254 0.9045 0.7131
H38 H 0.5296 0.8448 0.7635
Cl1 Cl 0.42388(9) 0.45005(4) 0.03930(8)
Li1 Li 0.3503(5) 0.3693(3) 0.0867(4)
Li2 Li 0.4761(5) 0.5462(3) 0.0650(4)
O1 O 0.2276(3) 0.39475(17) 0.1094(2)
C38 C 0.2158(6) 0.4377(3) 0.1629(4)
H48 H 0.2781 0.4478 0.1948
H49 H 0.1699 0.4255 0.2003
C39 C 0.1819(7) 0.4824(4) 0.1190(5)
H50 H 0.1413 0.5049 0.1526
H51 H 0.2379 0.5075 0.1118
C40 C 0.1377(10) 0.4777(6) 0.0559(9)
H52 H 0.1663 0.5009 0.0148
H53 H 0.0699 0.4899 0.0568
C41 C 0.1462(10) 0.4012(6) 0.0376(10)
H54 H 0.0869 0.3794 0.0452
H55 H 0.1674 0.3920 -0.0154
O2 O 0.4208(3) 0.34287(15) 0.18595(19)
C42 C 0.4932(6) 0.3741(4) 0.2390(4)
H56 H 0.4915 0.4163 0.2255
H57 H 0.5582 0.3588 0.2330
C43 C 0.4720(4) 0.3655(2) 0.3213(3)
H58 H 0.4601 0.4034 0.3469
H59 H 0.5262 0.3455 0.3542
C44 C 0.3827(4) 0.3279(3) 0.3133(3)
H60 H 0.3884 0.2967 0.3548
H61 H 0.3249 0.3517 0.3192
C45 C 0.3768(5) 0.3024(3) 0.2311(3)
H62 H 0.4108 0.2644 0.2323
H63 H 0.3088 0.2964 0.2081
O3 O 0.3447(2) 0.30544(12) 0.01172(18)
C46 C 0.3405(4) 0.24490(19) 0.0315(3)
H64 H 0.2834 0.2369 0.0594
H65 H 0.3990 0.2332 0.0674
C47 C 0.3338(5) 0.2120(2) -0.0463(3)
H66 H 0.3785 0.1782 -0.0412
H67 H 0.2674 0.1972 -0.0613
C48 C 0.3600(5) 0.2532(2) -0.1076(3)
H68 H 0.3195 0.2471 -0.1599
H69 H 0.4286 0.2489 -0.1155
C49 C 0.3414(4) 0.3119(2) -0.0730(3)
H70 H 0.3909 0.3403 -0.0857
H71 H 0.2773 0.3266 -0.0963
O4 O 0.5453(2) 0.56157(14) 0.16955(17)
C50 C 0.6419(3) 0.5398(3) 0.1897(3)
H72 H 0.6873 0.5611 0.1592
H73 H 0.6450 0.4976 0.1771
C51 C 0.6649(5) 0.5497(4) 0.2752(4)
H74 H 0.7027 0.5862 0.2850
H75 H 0.7035 0.5168 0.3005
C52 C 0.5729(4) 0.5545(3) 0.3098(3)
H76 H 0.5516 0.5159 0.3278
H77 H 0.5786 0.5820 0.3559
C53 C 0.5063(4) 0.5772(3) 0.2413(3)
H78 H 0.4415 0.5597 0.2415
H79 H 0.5004 0.6202 0.2452
O5 O 0.3745(2) 0.60333(13) 0.04648(19)
C54 C 0.3244(5) 0.6063(3) -0.0343(3)
H80 H 0.2540 0.6026 -0.0336
H81 H 0.3462 0.5747 -0.0684
C55 C 0.3486(5) 0.6648(3) -0.0657(4)
H82 H 0.4070 0.6624 -0.0936
H83 H 0.2947 0.6800 -0.1040
C56 C 0.3660(4) 0.7032(3) 0.0072(3)
H84 H 0.3123 0.7311 0.0090
H85 H 0.4268 0.7253 0.0074
C57 C 0.3721(4) 0.66165(18) 0.0766(3)
H86 H 0.4310 0.6696 0.1143
H87 H 0.3156 0.6667 0.1062
Cl1B Cl 0.57612(9) 0.54995(4) -0.03930(8)
Li1B Li 0.6497(5) 0.6307(3) -0.0867(4)
Li2B Li 0.5239(5) 0.4538(3) -0.0650(4)
O1B O 0.7724(3) 0.60525(17) -0.1094(2)
C38B C 0.7842(6) 0.5623(3) -0.1629(4)
H48B H 0.7219 0.5522 -0.1948
H49B H 0.8301 0.5745 -0.2003
C39B C 0.8181(7) 0.5176(4) -0.1190(5)
H50B H 0.8587 0.4951 -0.1526
H51B H 0.7621 0.4925 -0.1118
C40B C 0.8623(10) 0.5223(6) -0.0559(9)
H52B H 0.8337 0.4991 -0.0148
H53B H 0.9301 0.5101 -0.0568
C41B C 0.8538(10) 0.5988(6) -0.0376(10)
H54B H 0.9131 0.6206 -0.0452
H55B H 0.8326 0.6080 0.0154
O2B O 0.5792(3) 0.65713(15) -0.18595(19)
C42B C 0.5068(6) 0.6259(4) -0.2390(4)
H56B H 0.5085 0.5837 -0.2255
H57B H 0.4418 0.6412 -0.2330
C43B C 0.5280(4) 0.6345(2) -0.3213(3)
H58B H 0.5399 0.5966 -0.3469
H59B H 0.4738 0.6545 -0.3542
C44B C 0.6173(4) 0.6721(3) -0.3133(3)
H60B H 0.6116 0.7033 -0.3548
H61B H 0.6751 0.6483 -0.3192
C45B C 0.6232(5) 0.6976(3) -0.2311(3)
H62B H 0.5892 0.7356 -0.2323
H63B H 0.6912 0.7036 -0.2081
O3B O 0.6553(2) 0.69456(12) -0.01172(18)
C46B C 0.6595(4) 0.75510(19) -0.0315(3)
H64B H 0.7166 0.7631 -0.0594
H65B H 0.6010 0.7668 -0.0674
C47B C 0.6662(5) 0.7880(2) 0.0463(3)
H66B H 0.6215 0.8218 0.0412
H67B H 0.7326 0.8028 0.0613
C48B C 0.6400(5) 0.7468(2) 0.1076(3)
H68B H 0.6805 0.7529 0.1599
H69B H 0.5714 0.7511 0.1155
C49B C 0.6586(4) 0.6881(2) 0.0730(3)
H70B H 0.6091 0.6597 0.0857
H71B H 0.7227 0.6734 0.0963
O4B O 0.4547(2) 0.43843(14) -0.16955(17)
C50B C 0.3581(3) 0.4602(3) -0.1897(3)
H72B H 0.3127 0.4389 -0.1592
H73B H 0.3550 0.5024 -0.1771
C51B C 0.3351(5) 0.4503(4) -0.2752(4)
H74B H 0.2973 0.4138 -0.2850
H75B H 0.2965 0.4832 -0.3005
C52B C 0.4271(4) 0.4455(3) -0.3098(3)
H76B H 0.4484 0.4841 -0.3278
H77B H 0.4214 0.4180 -0.3559
C53B C 0.4937(4) 0.4228(3) -0.2413(3)
H78B H 0.5585 0.4403 -0.2415
H79B H 0.4996 0.3798 -0.2452
O5B O 0.6255(2) 0.39667(13) -0.04648(19)
C54B C 0.6756(5) 0.3937(3) 0.0343(3)
H80B H 0.7460 0.3974 0.0336
H81B H 0.6538 0.4253 0.0684
C55B C 0.6514(5) 0.3352(3) 0.0657(4)
H82B H 0.5930 0.3376 0.0936
H83B H 0.7053 0.3200 0.1040
C56B C 0.6340(4) 0.2968(3) -0.0072(3)
H84B H 0.6877 0.2689 -0.0090
H85B H 0.5732 0.2747 -0.0074
C57B C 0.6279(4) 0.33835(18) -0.0766(3)
H86B H 0.5690 0.3304 -0.1143
H87B H 0.6844 0.3333 -0.1062
C35? C 0.3108(8) 0.5538(5) 0.5160(6)
H39? H 0.3768 0.5677 0.5316
H40? H 0.2654 0.5808 0.5369
H41? H 0.3034 0.5147 0.5385
C36? C 0.3616(10) 0.5015(6) 0.4041(9)
H42? H 0.4280 0.5140 0.4212
H43? H 0.3480 0.4659 0.4334
H44? H 0.3533 0.4935 0.3459
C37? C 0.1937(10) 0.5310(7) 0.3970(10)
H45? H 0.1820 0.4945 0.4251
H46? H 0.1473 0.5607 0.4096
H47? H 0.1861 0.5240 0.3386
H88? H 0.2331 0.5036 0.0951
H89? H 0.1457 0.5099 0.1498
C58? C 0.0987(10) 0.4393(6) 0.0394(8)
H90? H 0.0292 0.4439 0.0442
H91? H 0.1120 0.4460 -0.0167
C59? C 0.1420(9) 0.3841(6) 0.0765(9)
H92? H 0.1025 0.3694 0.1175
H93? H 0.1434 0.3538 0.0344
loop_
_geom_bond_atom_site_label_1
_geom_bond_atom_site_label_2
_geom_bond_site_symmetry_1
_geom_bond_site_symmetry_2
B1 C1 1_555 1_555
C1 C2 1_555 1_555
C2 C3 1_555 1_555
C3 H1 1_555 1_555
C4 C3 1_555 1_555
H2 C4 1_555 1_555
C5 C4 1_555 1_555
C6 C1 1_555 1_555
H3 C6 1_555 1_555
C7 C5 1_555 1_555
C8 C7 1_555 1_555
H4 C8 1_555 1_555
H5 C8 1_555 1_555
H6 C8 1_555 1_555
C9 C7 1_555 1_555
H7 C9 1_555 1_555
H8 C9 1_555 1_555
H9 C9 1_555 1_555
C10 C7 1_555 1_555
H10 C10 1_555 1_555
H11 C10 1_555 1_555
H12 C10 1_555 1_555
C11 B1 1_555 1_555
C12 C2 1_555 1_555
C13 C12 1_555 1_555
H13 C13 1_555 1_555
C14 C13 1_555 1_555
H14 C14 1_555 1_555
C15 C14 1_555 1_555
C16 C11 1_555 1_555
H15 C16 1_555 1_555
C17 C15 1_555 1_555
C18 C17 1_555 1_555
H16 C18 1_555 1_555
H17 C18 1_555 1_555
H18 C18 1_555 1_555
C19 C17 1_555 1_555
H19 C19 1_555 1_555
H20 C19 1_555 1_555
H21 C19 1_555 1_555
C20 C17 1_555 1_555
H22 C20 1_555 1_555
H23 C20 1_555 1_555
H24 C20 1_555 1_555
C21 B1 1_555 1_555
C22 C21 1_555 1_555
H25 C22 1_555 1_555
C23 C22 1_555 1_555
H26 C23 1_555 1_555
C24 C23 1_555 1_555
C25 C24 1_555 1_555
H27 C25 1_555 1_555
C26 C21 1_555 1_555
H28 C26 1_555 1_555
C27 C24 1_555 1_555
H29 C27 1_555 1_555
H30 C27 1_555 1_555
H31 C27 1_555 1_555
C28 B1 1_555 1_555
C29 C28 1_555 1_555
H32 C29 1_555 1_555
C30 C29 1_555 1_555
H33 C30 1_555 1_555
C31 C30 1_555 1_555
C32 C31 1_555 1_555
H34 C32 1_555 1_555
C33 C28 1_555 1_555
H35 C33 1_555 1_555
C34 C31 1_555 1_555
H36 C34 1_555 1_555
H37 C34 1_555 1_555
H38 C34 1_555 1_555
Cl1 Li1 1_555 1_555
Li1 O1 1_555 1_555
Li2 Cl1 1_555 1_555
O1 C38 1_555 1_555
C38 H48 1_555 1_555
H49 C38 1_555 1_555
C39 C38 1_555 1_555
H50 C39 1_555 1_555
H51 C39 1_555 1_555
C40 C39 1_555 1_555
H52 C40 1_555 1_555
H53 C40 1_555 1_555
C41 O1 1_555 1_555
H54 C41 1_555 1_555
H55 C41 1_555 1_555
O2 Li1 1_555 1_555
C42 O2 1_555 1_555
H56 C42 1_555 1_555
H57 C42 1_555 1_555
C43 C42 1_555 1_555
H58 C43 1_555 1_555
H59 C43 1_555 1_555
C44 C43 1_555 1_555
H60 C44 1_555 1_555
H61 C44 1_555 1_555
C45 O2 1_555 1_555
H62 C45 1_555 1_555
H63 C45 1_555 1_555
O3 Li1 1_555 1_555
C46 O3 1_555 1_555
H64 C46 1_555 1_555
H65 C46 1_555 1_555
C47 C46 1_555 1_555
H66 C47 1_555 1_555
H67 C47 1_555 1_555
C48 C47 1_555 1_555
H68 C48 1_555 1_555
H69 C48 1_555 1_555
C49 O3 1_555 1_555
H70 C49 1_555 1_555
H71 C49 1_555 1_555
O4 Li2 1_555 1_555
C50 O4 1_555 1_555
H72 C50 1_555 1_555
H73 C50 1_555 1_555
C51 C50 1_555 1_555
H74 C51 1_555 1_555
H75 C51 1_555 1_555
C52 C51 1_555 1_555
H76 C52 1_555 1_555
H77 C52 1_555 1_555
C53 O4 1_555 1_555
H78 C53 1_555 1_555
H79 C53 1_555 1_555
O5 Li2 1_555 1_555
C54 O5 1_555 1_555
H80 C54 1_555 1_555
H81 C54 1_555 1_555
C55 C54 1_555 1_555
H82 C55 1_555 1_555
H83 C55 1_555 1_555
C56 C55 1_555 1_555
H84 C56 1_555 1_555
H85 C56 1_555 1_555
C57 O5 1_555 1_555
H86 C57 1_555 1_555
H87 C57 1_555 1_555
Cl1B Li2 1_555 1_555
Li1B Cl1B 1_555 1_555
Li2B Cl1 1_555 1_555
O1B Li1B 1_555 1_555
C38B O1B 1_555 1_555
H48B C38B 1_555 1_555
H49B C38B 1_555 1_555
C39B C38B 1_555 1_555
H50B C39B 1_555 1_555
H51B C39B 1_555 1_555
C40B C39B 1_555 1_555
H52B C40B 1_555 1_555
H53B C40B 1_555 1_555
C41B O1B 1_555 1_555
H54B C41B 1_555 1_555
H55B C41B 1_555 1_555
O2B Li1B 1_555 1_555
C42B O2B 1_555 1_555
H56B C42B 1_555 1_555
H57B C42B 1_555 1_555
C43B C42B 1_555 1_555
H58B C43B 1_555 1_555
H59B C43B 1_555 1_555
C44B C43B 1_555 1_555
H60B C44B 1_555 1_555
H61B C44B 1_555 1_555
C45B O2B 1_555 1_555
H62B C45B 1_555 1_555
H63B C45B 1_555 1_555
O3B Li1B 1_555 1_555
C46B O3B 1_555 1_555
H64B C46B 1_555 1_555
H65B C46B 1_555 1_555
C47B C46B 1_555 1_555
H66B C47B 1_555 1_555
H67B C47B 1_555 1_555
C48B C47B 1_555 1_555
H68B C48B 1_555 1_555
H69B C48B 1_555 1_555
C49B O3B 1_555 1_555
H70B C49B 1_555 1_555
H71B C49B 1_555 1_555
O4B Li2B 1_555 1_555
C50B O4B 1_555 1_555
H72B C50B 1_555 1_555
H73B C50B 1_555 1_555
C51B C50B 1_555 1_555
H74B C51B 1_555 1_555
H75B C51B 1_555 1_555
C52B C51B 1_555 1_555
H76B C52B 1_555 1_555
H77B C52B 1_555 1_555
C53B O4B 1_555 1_555
H78B C53B 1_555 1_555
H79B C53B 1_555 1_555
O5B Li2B 1_555 1_555
C54B O5B 1_555 1_555
H80B C54B 1_555 1_555
H81B C54B 1_555 1_555
C55B C54B 1_555 1_555
H82B C55B 1_555 1_555
H83B C55B 1_555 1_555
C56B C55B 1_555 1_555
H84B C56B 1_555 1_555
H85B C56B 1_555 1_555
C57B O5B 1_555 1_555
H86B C57B 1_555 1_555
H87B C57B 1_555 1_555
C5 C6 1_555 1_555
C11 C12 1_555 1_555
C15 C16 1_555 1_555
C25 C26 1_555 1_555
C32 C33 1_555 1_555
C40 C41 1_555 1_555
C44 C45 1_555 1_555
C48 C49 1_555 1_555
C52 C53 1_555 1_555
C56 C57 1_555 1_555
Cl1B Li2B 1_555 1_555
C40B C41B 1_555 1_555
C44B C45B 1_555 1_555
C48B C49B 1_555 1_555
C52B C53B 1_555 1_555
C56B C57B 1_555 1_555

#END
