
#######################################################################
#
#                 Cambridge Crystallographic Data Centre
#                                CCDC 
#
#######################################################################
#
# If this CIF has been generated from an entry in the Cambridge 
# Structural Database, then it will include bibliographic, chemical, 
# crystal, experimental, refinement or atomic coordinate data resulting 
# from the CCDC's data processing and validation procedures.
#
#######################################################################

data_YIFXUH
_chemical_formula_moiety         'C1 H6 N3 S1 1+,C6 H2 N3 O7 1-,H2 O1'
_chemical_name_systematic        'Thiosemicarbazidium picrate monohydrate'
_symmetry_cell_setting           triclinic
_symmetry_space_group_name_H-M   'P -1'
_symmetry_Int_Tables_number      2
_space_group_name_Hall           '-P 1'
loop_
_symmetry_equiv_pos_site_id
_symmetry_equiv_pos_as_xyz
1 x,y,z
2 -x,-y,-z
_cell_length_a                   7.1686(5)
_cell_length_b                   9.7720(6)
_cell_length_c                   10.3293(7)
_cell_angle_alpha                94.9040(10)
_cell_angle_beta                 104.6130(10)
_cell_angle_gamma                109.2570(10)
_cell_volume                     649.633
_exptl_crystal_colour            yellow
_exptl_crystal_description       block
_cell_formula_units_Z            2
loop_
_atom_site_label
_atom_site_type_symbol
_atom_site_fract_x
_atom_site_fract_y
_atom_site_fract_z
C1 C 0.7217(3) 1.0036(2) 0.9487(2)
C2 C 0.6338(3) 0.8454(2) 0.9004(2)
C3 C 0.4940(3) 0.7776(2) 0.7758(2)
H1 H 0.4430 0.6755 0.7504
C4 C 0.4295(3) 0.8635(2) 0.6879(2)
C5 C 0.5022(3) 1.0161(2) 0.7239(2)
H2 H 0.4566 1.0723 0.6641
C6 C 0.6425(3) 1.0824(2) 0.8494(2)
N1 N 0.6970(3) 0.7500(2) 0.98778(19)
N2 N 0.2821(3) 0.79158(19) 0.55577(17)
N3 N 0.7130(3) 1.24264(19) 0.88155(18)
O1 O 0.8552(3) 1.06350(18) 1.06062(17)
O2 O 0.7553(4) 0.7902(2) 1.11078(18)
O3 O 0.6863(3) 0.62910(18) 0.93507(19)
O4 O 0.2037(3) 0.65628(17) 0.53171(17)
O5 O 0.2423(3) 0.86815(19) 0.47271(16)
O6 O 0.8105(4) 1.3081(2) 0.9962(2)
O7 O 0.6669(4) 1.30720(19) 0.7905(2)
C7 C 0.1282(3) 0.2038(2) 0.3676(2)
N4 N 0.0429(3) 0.0590(2) 0.3301(2)
H3 H 0.076(4) 0.003(3) 0.380(3)
H4 H -0.046(5) 0.017(3) 0.243(3)
N5 N 0.0602(3) 0.2791(2) 0.2747(2)
H5 H -0.012(4) 0.236(3) 0.201(3)
N6 N 0.1520(4) 0.4336(2) 0.2989(2)
H6 H 0.054(5) 0.472(4) 0.283(3)
H7 H 0.226(5) 0.459(3) 0.388(3)
H8 H 0.225(5) 0.464(3) 0.246(3)
S1 S 0.30307(9) 0.28907(7) 0.51999(6)
O8 O 0.1514(3) 0.4540(2) 0.7612(2)
H9 H 0.152(6) 0.384(3) 0.712(3)
H10 H 0.164(6) 0.435(4) 0.8373(19)
loop_
_geom_bond_atom_site_label_1
_geom_bond_atom_site_label_2
_geom_bond_site_symmetry_1
_geom_bond_site_symmetry_2
C1 C2 1_555 1_555
C2 C3 1_555 1_555
C3 H1 1_555 1_555
C4 C3 1_555 1_555
C5 C4 1_555 1_555
H2 C5 1_555 1_555
C6 C1 1_555 1_555
C7 N4 1_555 1_555
N1 C2 1_555 1_555
N2 C4 1_555 1_555
N3 C6 1_555 1_555
N4 H3 1_555 1_555
H4 N4 1_555 1_555
N5 C7 1_555 1_555
H5 N5 1_555 1_555
N6 N5 1_555 1_555
H6 N6 1_555 1_555
H7 N6 1_555 1_555
H8 N6 1_555 1_555
O1 C1 1_555 1_555
O2 N1 1_555 1_555
O3 N1 1_555 1_555
O4 N2 1_555 1_555
O5 N2 1_555 1_555
O6 N3 1_555 1_555
O7 N3 1_555 1_555
O8 H9 1_555 1_555
H10 O8 1_555 1_555
S1 C7 1_555 1_555
C5 C6 1_555 1_555

#END
