
#######################################################################
#
#                 Cambridge Crystallographic Data Centre
#                                CCDC 
#
#######################################################################
#
# If this CIF has been generated from an entry in the Cambridge 
# Structural Database, then it will include bibliographic, chemical, 
# crystal, experimental, refinement or atomic coordinate data resulting 
# from the CCDC's data processing and validation procedures.
#
#######################################################################

data_YIFYIW
_chemical_formula_moiety         'C20 H21 Cl1 N4 O1 S1,C3 H7 N1 O1'
_chemical_name_systematic        
'4-(2-(4-Chlorophenyl)-3-methylbutanoylamino)-3-(p-tolyl)-1H-1,2,4-triazole-5(4H)-thione N,N-dimethylformamide solvate'
_symmetry_cell_setting           monoclinic
_symmetry_space_group_name_H-M   'P 21/c'
_symmetry_Int_Tables_number      14
_space_group_name_Hall           '-P 2ybc'
loop_
_symmetry_equiv_pos_site_id
_symmetry_equiv_pos_as_xyz
1 x,y,z
2 -x,1/2+y,1/2-z
3 -x,-y,-z
4 x,1/2-y,1/2+z
_cell_length_a                   10.235(4)
_cell_length_b                   26.654(12)
_cell_length_c                   9.581(4)
_cell_angle_alpha                90
_cell_angle_beta                 93.963(6)
_cell_angle_gamma                90
_cell_volume                     2607.48
_exptl_crystal_colour            colorless
_cell_formula_units_Z            4
loop_
_atom_site_label
_atom_site_type_symbol
_atom_site_fract_x
_atom_site_fract_y
_atom_site_fract_z
Cl1 Cl 0.16930(14) -0.00080(4) 0.83559(14)
S1 S 0.11276(10) 0.38390(3) 0.82591(9)
N1 N 0.4180(2) 0.31509(10) 1.0000(3)
N2 N 0.3445(3) 0.35624(10) 0.9613(3)
H1 H 0.3685 0.3863 0.9830
N3 N 0.2390(2) 0.29481(8) 0.8760(2)
N4 N 0.1380(2) 0.26553(8) 0.8176(2)
H2 H 0.1274 0.2620 0.7283
O1 O 0.07115(17) 0.24620(7) 1.02859(16)
C1 C 0.1062(3) 0.06002(11) 0.8322(4)
C2 C 0.0941(3) 0.08607(12) 0.7078(3)
H3 H 0.1195 0.0715 0.6257
C3 C 0.0440(3) 0.13405(11) 0.7068(3)
H4 H 0.0361 0.1518 0.6230
C4 C 0.0052(2) 0.15647(10) 0.8272(3)
C5 C 0.0201(3) 0.12912(11) 0.9516(3)
H5 H -0.0035 0.1437 1.0345
C6 C 0.0690(3) 0.08105(12) 0.9537(3)
H6 H 0.0767 0.0630 1.0369
C7 C -0.0459(2) 0.21000(10) 0.8247(2)
H7 H -0.0541 0.2210 0.7269
C8 C -0.1804(3) 0.21674(12) 0.8848(3)
H8 H -0.1725 0.2071 0.9838
C9 C -0.2240(3) 0.27065(14) 0.8745(4)
H9 H -0.3071 0.2741 0.9141
H10 H -0.2321 0.2806 0.7780
H11 H -0.1605 0.2916 0.9248
C10 C -0.2807(3) 0.18231(16) 0.8079(5)
H12 H -0.3642 0.1864 0.8465
H13 H -0.2527 0.1481 0.8186
H14 H -0.2883 0.1909 0.7104
C11 C 0.0567(2) 0.24256(9) 0.9014(2)
C12 C 0.2323(3) 0.34601(11) 0.8871(3)
C13 C 0.3519(2) 0.27690(10) 0.9485(3)
C14 C 0.3873(2) 0.22500(11) 0.9720(3)
C15 C 0.4576(3) 0.21229(13) 1.0973(3)
H15 H 0.4821 0.2373 1.1615
C16 C 0.4902(3) 0.16410(14) 1.1260(4)
H16 H 0.5358 0.1565 1.2107
C17 C 0.4573(4) 0.12548(14) 1.0319(5)
C18 C 0.4923(6) 0.07157(18) 1.0685(7)
H17 H 0.4611 0.0500 0.9933
H18 H 0.4524 0.0622 1.1524
H19 H 0.5857 0.0684 1.0830
C19 C 0.3902(3) 0.13830(13) 0.9060(4)
H20 H 0.3682 0.1133 0.8409
C20 C 0.3556(3) 0.18687(11) 0.8756(3)
H21 H 0.3109 0.1945 0.7905
C21 C 0.5479(7) 0.4571(2) 0.1282(8)
H22 H 0.5274 0.4745 0.2080
C22 C 0.7078(11) 0.4277(6) 0.0050(10)
H23 H 0.6383 0.4283 -0.0676
H24 H 0.7242 0.3937 0.0344
H25 H 0.7857 0.4416 -0.0298
C23 C 0.7667(9) 0.4766(3) 0.2044(15)
H26 H 0.7278 0.5029 0.2562
H27 H 0.8348 0.4905 0.1521
H28 H 0.8031 0.4517 0.2681
N5 N 0.6730(5) 0.45505(15) 0.1142(6)
O2 O 0.4539(5) 0.44186(13) 0.0628(6)
loop_
_geom_bond_atom_site_label_1
_geom_bond_atom_site_label_2
_geom_bond_site_symmetry_1
_geom_bond_site_symmetry_2
Cl1 C1 1_555 1_555
S1 C12 1_555 1_555
N1 N2 1_555 1_555
N2 H1 1_555 1_555
N3 N4 1_555 1_555
N4 H2 1_555 1_555
O1 C11 1_555 1_555
C1 C2 1_555 1_555
C2 H3 1_555 1_555
C3 C2 1_555 1_555
H4 C3 1_555 1_555
C4 C3 1_555 1_555
C5 C4 1_555 1_555
H5 C5 1_555 1_555
C6 C1 1_555 1_555
H6 C6 1_555 1_555
C7 C4 1_555 1_555
H7 C7 1_555 1_555
C8 C7 1_555 1_555
H8 C8 1_555 1_555
C9 C8 1_555 1_555
H9 C9 1_555 1_555
H10 C9 1_555 1_555
H11 C9 1_555 1_555
C10 C8 1_555 1_555
H12 C10 1_555 1_555
H13 C10 1_555 1_555
H14 C10 1_555 1_555
C11 N4 1_555 1_555
C12 N2 1_555 1_555
C13 N1 1_555 1_555
C14 C13 1_555 1_555
C15 C14 1_555 1_555
H15 C15 1_555 1_555
C16 C15 1_555 1_555
H16 C16 1_555 1_555
C17 C16 1_555 1_555
C18 C17 1_555 1_555
H17 C18 1_555 1_555
H18 C18 1_555 1_555
H19 C18 1_555 1_555
C19 C17 1_555 1_555
H20 C19 1_555 1_555
C20 C14 1_555 1_555
H21 C20 1_555 1_555
C21 H22 1_555 1_555
C22 H23 1_555 1_555
H24 C22 1_555 1_555
H25 C22 1_555 1_555
C23 H26 1_555 1_555
H27 C23 1_555 1_555
H28 C23 1_555 1_555
N5 C21 1_555 1_555
O2 C21 1_555 1_555
N3 C12 1_555 1_555
N3 C13 1_555 1_555
C5 C6 1_555 1_555
C7 C11 1_555 1_555
C19 C20 1_555 1_555
C22 N5 1_555 1_555
C23 N5 1_555 1_555

#END
