
#######################################################################
#
#                 Cambridge Crystallographic Data Centre
#                                CCDC 
#
#######################################################################
#
# If this CIF has been generated from an entry in the Cambridge 
# Structural Database, then it will include bibliographic, chemical, 
# crystal, experimental, refinement or atomic coordinate data resulting 
# from the CCDC's data processing and validation procedures.
#
#######################################################################

data_YIFYOC
_chemical_formula_moiety         'C9 H8 I1 N1 O4'
_chemical_name_systematic        'Dimethyl 4-iodopyridine-2,6-dicarboxylate'
_symmetry_cell_setting           triclinic
_symmetry_space_group_name_H-M   'P -1'
_symmetry_Int_Tables_number      2
_space_group_name_Hall           '-P 1'
loop_
_symmetry_equiv_pos_site_id
_symmetry_equiv_pos_as_xyz
1 x,y,z
2 -x,-y,-z
_cell_length_a                   4.2120(12)
_cell_length_b                   13.359(2)
_cell_length_c                   19.236(2)
_cell_angle_alpha                99.936(5)
_cell_angle_beta                 94.326(6)
_cell_angle_gamma                96.790(6)
_cell_volume                     1053.57
_exptl_crystal_colour            yellow
_exptl_crystal_description       needle
_chemical_melting_point          '173 deg.C'
_cell_formula_units_Z            4
_exptl_crystal_recrystallization_method methanol
loop_
_atom_site_label
_atom_site_type_symbol
_atom_site_fract_x
_atom_site_fract_y
_atom_site_fract_z
I1 I 0.73413(12) 0.45939(4) 0.22152(3)
O1 O -0.2442(13) 0.0395(4) 0.0700(3)
O2 O -0.1904(13) 0.2729(4) -0.0806(3)
O3 O 0.0551(14) 0.0694(5) 0.1748(3)
O4 O 0.1561(15) 0.4174(5) -0.0580(3)
N1 N 0.0042(14) 0.2205(5) 0.0411(3)
C1 C 0.1335(18) 0.3126(6) 0.0300(4)
C2 C 0.3483(17) 0.3824(7) 0.0778(4)
H1 H 0.4326 0.4460 0.0650
C3 C 0.4358(18) 0.3555(6) 0.1421(4)
C4 C 0.3105(17) 0.2621(7) 0.1552(4)
H2 H 0.3737 0.2432 0.1997
C5 C 0.0979(18) 0.1974(7) 0.1043(4)
C6 C -0.031(2) 0.0956(7) 0.1207(5)
C7 C -0.375(2) -0.0599(7) 0.0838(4)
H3 H -0.5355 -0.0940 0.0448
H4 H -0.4762 -0.0507 0.1283
H5 H -0.2015 -0.1021 0.0876
C8 C 0.0372(19) 0.3402(7) -0.0409(4)
C9 C -0.288(2) 0.2975(7) -0.1486(4)
H6 H -0.4579 0.2444 -0.1739
H7 H -0.1031 0.3007 -0.1766
H8 H -0.3686 0.3640 -0.1415
I2 I 0.02699(12) 0.06208(4) 0.71406(3)
O5 O -0.1482(12) 0.2288(4) 0.4081(3)
O6 O 0.6008(12) 0.4504(4) 0.5677(3)
O7 O -0.4145(13) 0.0875(5) 0.4358(3)
O8 O 0.8312(12) 0.4006(4) 0.6636(3)
N2 N 0.2139(14) 0.2712(5) 0.5325(3)
C10 C 0.3829(18) 0.2921(6) 0.5959(4)
C11 C 0.3453(17) 0.2334(6) 0.6479(4)
H9 H 0.4792 0.2516 0.6920
C12 C 0.1164(17) 0.1478(7) 0.6353(4)
C13 C -0.0624(17) 0.1227(6) 0.5693(4)
H10 H -0.2195 0.0626 0.5596
C14 C -0.0044(18) 0.1866(6) 0.5201(4)
C15 C -0.2121(19) 0.1609(7) 0.4508(4)
C16 C -0.358(2) 0.2119(7) 0.3423(4)
H11 H -0.2842 0.2618 0.3133
H12 H -0.5782 0.2201 0.3532
H13 H -0.3534 0.1423 0.3163
C17 C 0.6308(19) 0.3850(6) 0.6136(4)
C18 C 0.8238(19) 0.5442(6) 0.5832(5)
H14 H 0.7637 0.5904 0.5515
H15 H 1.0415 0.5283 0.5759
H16 H 0.8173 0.5774 0.6325
loop_
_geom_bond_atom_site_label_1
_geom_bond_atom_site_label_2
_geom_bond_site_symmetry_1
_geom_bond_site_symmetry_2
I1 C3 1_555 1_555
I2 C12 1_555 1_555
O1 C6 1_555 1_555
O2 C8 1_555 1_555
O3 C6 1_555 1_555
O4 C8 1_555 1_555
O5 C15 1_555 1_555
O6 C17 1_555 1_555
O7 C15 1_555 1_555
O8 C17 1_555 1_555
N1 C1 1_555 1_555
N2 C10 1_555 1_555
C1 C2 1_555 1_555
C2 H1 1_555 1_555
C3 C2 1_555 1_555
C4 C3 1_555 1_555
H2 C4 1_555 1_555
C5 N1 1_555 1_555
C6 C5 1_555 1_555
C7 O1 1_555 1_555
H3 C7 1_555 1_555
H4 C7 1_555 1_555
H5 C7 1_555 1_555
C8 C1 1_555 1_555
C9 O2 1_555 1_555
H6 C9 1_555 1_555
H7 C9 1_555 1_555
H8 C9 1_555 1_555
C10 C11 1_555 1_555
C11 H9 1_555 1_555
C12 C11 1_555 1_555
C13 C12 1_555 1_555
H10 C13 1_555 1_555
C14 N2 1_555 1_555
C15 C14 1_555 1_555
C16 O5 1_555 1_555
H11 C16 1_555 1_555
H12 C16 1_555 1_555
H13 C16 1_555 1_555
C17 C10 1_555 1_555
C18 O6 1_555 1_555
H14 C18 1_555 1_555
H15 C18 1_555 1_555
H16 C18 1_555 1_555
C4 C5 1_555 1_555
C13 C14 1_555 1_555

#END
