
#######################################################################
#
#                 Cambridge Crystallographic Data Centre
#                                CCDC 
#
#######################################################################
#
# If this CIF has been generated from an entry in the Cambridge 
# Structural Database, then it will include bibliographic, chemical, 
# crystal, experimental, refinement or atomic coordinate data resulting 
# from the CCDC's data processing and validation procedures.
#
#######################################################################

data_YIFYAO01
_chemical_formula_moiety         'C14 H12 Cl1 N1 O2'
_chemical_name_systematic        
4-(((4-Chlorophenyl)imino)methyl)-2-methoxyphenol
_symmetry_cell_setting           monoclinic
_symmetry_space_group_name_H-M   'P 21/c'
_symmetry_Int_Tables_number      14
_space_group_name_Hall           '-P 2ybc'
loop_
_symmetry_equiv_pos_site_id
_symmetry_equiv_pos_as_xyz
1 x,y,z
2 -x,1/2+y,1/2-z
3 -x,-y,-z
4 x,1/2-y,1/2+z
_cell_length_a                   6.3423(2)
_cell_length_b                   10.2632(3)
_cell_length_c                   19.7702(6)
_cell_angle_alpha                90
_cell_angle_beta                 90.279(2)
_cell_angle_gamma                90
_cell_volume                     1286.87
_exptl_crystal_colour            yellow
_exptl_crystal_description       block
_cell_formula_units_Z            4
loop_
_atom_site_label
_atom_site_type_symbol
_atom_site_fract_x
_atom_site_fract_y
_atom_site_fract_z
C1 C -0.2106(3) 0.5794(2) 0.81949(11)
H1 H -0.2945 0.5761 0.7790
H2 H -0.3014 0.5871 0.8580
H3 H -0.1286 0.5011 0.8233
C2 C 0.0863(3) 0.68593(16) 0.77128(8)
C3 C 0.2438(2) 0.77892(16) 0.78264(8)
C4 C 0.4165(3) 0.78247(19) 0.74063(10)
H4 H 0.5224 0.8437 0.7480
C5 C 0.4329(3) 0.69537(19) 0.68762(9)
H5 H 0.5509 0.6978 0.6599
C6 C 0.2762(3) 0.60464(17) 0.67514(8)
C7 C 0.1019(3) 0.60109(18) 0.71787(9)
H6 H -0.0048 0.5407 0.7101
C8 C 0.2982(3) 0.51408(18) 0.61878(8)
H7 H 0.4213 0.5171 0.5935
C9 C 0.1991(3) 0.34210(17) 0.54936(8)
C10 C 0.3924(3) 0.2812(2) 0.54073(9)
H8 H 0.5055 0.3039 0.5684
C11 C 0.4188(3) 0.1872(2) 0.49155(10)
H9 H 0.5487 0.1468 0.4860
C12 C 0.2511(3) 0.1541(2) 0.45079(9)
C13 C 0.0587(3) 0.2146(2) 0.45770(10)
H10 H -0.0528 0.1930 0.4291
C14 C 0.0330(3) 0.3075(2) 0.50733(10)
H11 H -0.0976 0.3473 0.5127
N1 N 0.1580(2) 0.43132(15) 0.60242(7)
O1 O -0.0737(2) 0.68885(14) 0.81686(7)
O2 O 0.23113(19) 0.86454(13) 0.83465(6)
H12 H 0.1106 0.8649 0.8495
Cl1 Cl 0.28205(9) 0.03294(6) 0.39036(3)
loop_
_geom_bond_atom_site_label_1
_geom_bond_atom_site_label_2
_geom_bond_site_symmetry_1
_geom_bond_site_symmetry_2
C1 H1 1_555 1_555
H2 C1 1_555 1_555
H3 C1 1_555 1_555
C2 C3 1_555 1_555
C3 C4 1_555 1_555
C4 H4 1_555 1_555
C5 C4 1_555 1_555
H5 C5 1_555 1_555
C6 C5 1_555 1_555
C7 C2 1_555 1_555
H6 C7 1_555 1_555
C8 C6 1_555 1_555
H7 C8 1_555 1_555
C9 C10 1_555 1_555
C10 H8 1_555 1_555
C11 C10 1_555 1_555
H9 C11 1_555 1_555
C12 C11 1_555 1_555
C13 C12 1_555 1_555
H10 C13 1_555 1_555
C14 C9 1_555 1_555
H11 C14 1_555 1_555
N1 C8 1_555 1_555
O1 C1 1_555 1_555
O2 C3 1_555 1_555
H12 O2 1_555 1_555
Cl1 C12 1_555 1_555
C2 O1 1_555 1_555
C6 C7 1_555 1_555
C9 N1 1_555 1_555
C13 C14 1_555 1_555

#END
