
#######################################################################
#
#                 Cambridge Crystallographic Data Centre
#                                CCDC 
#
#######################################################################
#
# If this CIF has been generated from an entry in the Cambridge 
# Structural Database, then it will include bibliographic, chemical, 
# crystal, experimental, refinement or atomic coordinate data resulting 
# from the CCDC's data processing and validation procedures.
#
#######################################################################

data_YIFZIX
_chemical_formula_moiety         'C11 H10 Cl1 N1 O3'
_chemical_name_systematic        
6-Chloro-3-hydroxy-3-(2-oxopropyl)indolin-2-one
_symmetry_cell_setting           orthorhombic
_symmetry_space_group_name_H-M   'P 21 21 21'
_symmetry_Int_Tables_number      19
_space_group_name_Hall           'P 2ac 2ab'
loop_
_symmetry_equiv_pos_site_id
_symmetry_equiv_pos_as_xyz
1 x,y,z
2 1/2-x,-y,1/2+z
3 -x,1/2+y,1/2-z
4 1/2+x,1/2-y,-z
_cell_length_a                   6.5958(6)
_cell_length_b                   7.8459(8)
_cell_length_c                   21.202(2)
_cell_angle_alpha                90
_cell_angle_beta                 90
_cell_angle_gamma                90
_cell_volume                     1097.2
_exptl_crystal_colour            colorless
_exptl_crystal_description       block
_cell_formula_units_Z            4
_exptl_crystal_recrystallization_method isopropanol
loop_
_atom_site_label
_atom_site_type_symbol
_atom_site_fract_x
_atom_site_fract_y
_atom_site_fract_z
C1 C 0.1455(3) 0.4145(3) 0.24001(9)
C2 C 0.3309(3) 0.4916(3) 0.23110(9)
H1 H 0.3652 0.5368 0.1920
C3 C 0.4660(3) 0.5011(3) 0.28126(8)
H2 H 0.5919 0.5526 0.2760
C4 C 0.4118(3) 0.4338(2) 0.33866(8)
C5 C 0.2202(3) 0.3612(2) 0.34619(8)
C6 C 0.0830(3) 0.3482(3) 0.29766(9)
H3 H -0.0437 0.2982 0.3030
C7 C 0.5239(2) 0.4247(2) 0.40058(7)
C8 C 0.3605(3) 0.3475(2) 0.44421(8)
C9 C 0.6055(3) 0.5942(2) 0.42433(9)
H4 H 0.6725 0.5755 0.4645
H5 H 0.7069 0.6350 0.3948
C10 C 0.4475(3) 0.7301(2) 0.43270(9)
C11 C 0.5196(5) 0.9100(3) 0.44026(13)
H6 H 0.4271 0.9858 0.4194
H7 H 0.6520 0.9214 0.4219
H8 H 0.5260 0.9379 0.4843
Cl1 Cl -0.01856(10) 0.39308(10) 0.17596(3)
N1 N 0.1981(2) 0.3078(2) 0.40939(7)
H9 H 0.0929 0.2583 0.4240
O1 O 0.68321(18) 0.30239(18) 0.39526(6)
H10 H 0.7337 0.2860 0.4301
O2 O 0.38586(19) 0.31770(17) 0.50041(6)
O3 O 0.2694(3) 0.6960(2) 0.43441(8)
loop_
_geom_bond_atom_site_label_1
_geom_bond_atom_site_label_2
_geom_bond_site_symmetry_1
_geom_bond_site_symmetry_2
C1 C2 1_555 1_555
C2 H1 1_555 1_555
C3 C2 1_555 1_555
H2 C3 1_555 1_555
C4 C3 1_555 1_555
C5 C4 1_555 1_555
C6 C1 1_555 1_555
H3 C6 1_555 1_555
C7 C4 1_555 1_555
C8 C7 1_555 1_555
C9 C7 1_555 1_555
H4 C9 1_555 1_555
H5 C9 1_555 1_555
C10 C9 1_555 1_555
C11 C10 1_555 1_555
H6 C11 1_555 1_555
H7 C11 1_555 1_555
H8 C11 1_555 1_555
Cl1 C1 1_555 1_555
N1 C5 1_555 1_555
H9 N1 1_555 1_555
O1 C7 1_555 1_555
H10 O1 1_555 1_555
O2 C8 1_555 1_555
O3 C10 1_555 1_555
C5 C6 1_555 1_555
C8 N1 1_555 1_555

#END
