
#######################################################################
#
#                 Cambridge Crystallographic Data Centre
#                                CCDC 
#
#######################################################################
#
# If this CIF has been generated from an entry in the Cambridge 
# Structural Database, then it will include bibliographic, chemical, 
# crystal, experimental, refinement or atomic coordinate data resulting 
# from the CCDC's data processing and validation procedures.
#
#######################################################################

data_YIGPIO03
_chemical_name_common            Ritonavir
_chemical_formula_moiety         'C37 H48 N6 O5 S2'
_chemical_name_systematic        
'(5S-(5R*,8R*,10R*,11R*))-10-Hydroxy-2-methyl-5-isopropyl-1-(2-isopropyl-4-thiazolyl)-3,6-dioxo-8,11-dibenzyl-2,4,7,12-tetra-azatridecan-13-oic acid 5-thiazolyl methyl ester'
_chemical_properties_biological  
'this polymorph does not have adequate bioavailability due to solubility difficulties'
_symmetry_cell_setting           orthorhombic
_symmetry_space_group_name_H-M   'P 21 21 21'
_symmetry_Int_Tables_number      19
_space_group_name_Hall           'P 2ac 2ab'
loop_
_symmetry_equiv_pos_site_id
_symmetry_equiv_pos_as_xyz
1 x,y,z
2 1/2-x,-y,1/2+z
3 -x,1/2+y,1/2-z
4 1/2+x,1/2-y,-z
_cell_length_a                   9.831(6)
_cell_length_b                   18.485(11)
_cell_length_c                   20.261(12)
_cell_angle_alpha                90
_cell_angle_beta                 90
_cell_angle_gamma                90
_cell_volume                     3681.95
_exptl_crystal_colour            colorless
_exptl_crystal_description       rod
_cell_formula_units_Z            4
loop_
_atom_site_label
_atom_site_type_symbol
_atom_site_fract_x
_atom_site_fract_y
_atom_site_fract_z
S1 S 0.47476(19) 1.27833(7) 0.87135(6)
S2 S 0.25929(16) 0.40685(8) 0.69865(6)
O1 O 0.6262(4) 1.00322(17) 1.03045(16)
O2 O 0.2718(4) 0.85622(18) 1.05507(17)
O3 O 0.2495(4) 0.62262(17) 0.99852(16)
H1 H 0.2019 0.5901 0.9835
O4 O 0.6697(4) 0.50157(19) 0.84532(16)
O5 O 0.4471(4) 0.47760(18) 0.86008(15)
N1 N 0.5088(5) 1.1453(2) 0.90195(18)
N2 N 0.4756(5) 1.0958(2) 1.04426(18)
N3 N 0.4341(5) 0.9827(2) 1.08919(19)
H2 H 0.3574 0.9992 1.1030
N4 N 0.4748(5) 0.8108(2) 1.02276(17)
H3 H 0.5617 0.8141 1.0269
N5 N 0.5661(5) 0.5327(2) 0.94099(18)
H4 H 0.6426 0.5463 0.9574
N6 N 0.0960(5) 0.3712(2) 0.7921(2)
C1 C 0.5850(7) 1.1382(3) 0.7519(3)
H5 H 0.6284 1.1013 0.7779
H6 H 0.6428 1.1799 0.7498
H7 H 0.5689 1.1202 0.7082
C2 C 0.4509(7) 1.1587(3) 0.7835(2)
H8 H 0.3949 1.1150 0.7871
C3 C 0.3734(7) 1.2141(3) 0.7420(2)
H9 H 0.4298 1.2558 0.7348
H10 H 0.2921 1.2283 0.7649
H11 H 0.3496 1.1930 0.7003
C4 C 0.4763(6) 1.1872(3) 0.8522(2)
C5 C 0.5189(6) 1.2579(3) 0.9511(2)
H12 H 0.5321 1.2917 0.9845
C6 C 0.5316(6) 1.1858(3) 0.9583(2)
C7 C 0.5770(6) 1.1479(3) 1.0203(2)
H13 H 0.6617 1.1227 1.0116
H14 H 0.5941 1.1836 1.0543
C8 C 0.3516(6) 1.1243(3) 1.0728(2)
H15 H 0.3617 1.1277 1.1198
H16 H 0.2772 1.0926 1.0625
H17 H 0.3338 1.1715 1.0549
C9 C 0.5170(6) 1.0256(3) 1.0540(2)
C10 C 0.4730(6) 0.9077(2) 1.1043(2)
H18 H 0.5710 0.9022 1.0969
C11 C 0.4409(6) 0.8879(3) 1.1762(2)
H19 H 0.3427 0.8924 1.1833
C12 C 0.5150(7) 0.9391(3) 1.2239(2)
H20 H 0.6113 0.9359 1.2167
H21 H 0.4947 0.9256 1.2686
H22 H 0.4854 0.9879 1.2163
C13 C 0.4829(7) 0.8097(3) 1.1892(2)
H23 H 0.5782 0.8040 1.1802
H24 H 0.4316 0.7780 1.1611
H25 H 0.4652 0.7978 1.2346
C14 C 0.3964(6) 0.8559(3) 1.0578(2)
C15 C 0.4198(5) 0.7558(2) 0.9776(2)
H26 H 0.3202 0.7583 0.9786
C16 C 0.4687(6) 0.7720(3) 0.9071(2)
H27 H 0.5668 0.7779 0.9077
H28 H 0.4483 0.7306 0.8793
C17 C 0.4051(6) 0.8393(3) 0.8763(2)
C18 C 0.4488(6) 0.9089(3) 0.8945(2)
H29 H 0.5185 0.9143 0.9251
C19 C 0.3888(6) 0.9692(3) 0.8672(2)
H30 H 0.4161 1.0149 0.8809
C20 C 0.2892(6) 0.9626(3) 0.8200(2)
H31 H 0.2507 1.0038 0.8013
C21 C 0.2461(7) 0.8942(3) 0.8001(3)
H32 H 0.1787 0.8892 0.7682
C22 C 0.3050(6) 0.8334(3) 0.8287(2)
H33 H 0.2764 0.7877 0.8154
C23 C 0.4642(6) 0.6801(2) 1.0001(2)
H34 H 0.5593 0.6735 0.9889
H35 H 0.4566 0.6774 1.0478
C24 C 0.3823(6) 0.6186(3) 0.9700(2)
H36 H 0.3748 0.6267 0.9223
C25 C 0.4444(5) 0.5427(2) 0.9818(2)
H37 H 0.3770 0.5066 0.9683
C26 C 0.4784(6) 0.5295(2) 1.0550(2)
H38 H 0.5652 0.5521 1.0646
H39 H 0.4101 0.5535 1.0817
C27 C 0.4856(6) 0.4511(3) 1.0756(2)
C28 C 0.6077(6) 0.4152(3) 1.0808(2)
H40 H 0.6874 0.4386 1.0682
C29 C 0.6146(7) 0.3441(3) 1.1045(2)
H41 H 0.6982 0.3211 1.1085
C30 C 0.4963(6) 0.3084(3) 1.1220(2)
H42 H 0.5001 0.2616 1.1387
C31 C 0.3720(6) 0.3429(3) 1.1144(2)
H43 H 0.2919 0.3185 1.1245
C32 C 0.3671(6) 0.4133(3) 1.0918(2)
H44 H 0.2833 0.4361 1.0874
C33 C 0.5681(6) 0.5038(3) 0.8799(2)
C34 C 0.4508(6) 0.4488(3) 0.7937(2)
H45 H 0.5177 0.4104 0.7906
H46 H 0.4750 0.4866 0.7625
C35 C 0.3121(6) 0.4203(3) 0.7787(2)
C36 C 0.2122(6) 0.3986(3) 0.8204(2)
H47 H 0.2218 0.4022 0.8660
C37 C 0.1089(6) 0.3731(3) 0.7284(3)
H48 H 0.0403 0.3571 0.7004
loop_
_geom_bond_atom_site_label_1
_geom_bond_atom_site_label_2
_geom_bond_site_symmetry_1
_geom_bond_site_symmetry_2
S1 C4 1_555 1_555
S2 C35 1_555 1_555
O1 C9 1_555 1_555
O2 C14 1_555 1_555
O3 H1 1_555 1_555
O4 C33 1_555 1_555
O5 C33 1_555 1_555
N1 C4 1_555 1_555
N2 C7 1_555 1_555
N3 H2 1_555 1_555
N4 H3 1_555 1_555
N5 H4 1_555 1_555
N6 C36 1_555 1_555
C1 H5 1_555 1_555
H6 C1 1_555 1_555
H7 C1 1_555 1_555
C2 C1 1_555 1_555
H8 C2 1_555 1_555
C3 C2 1_555 1_555
H9 C3 1_555 1_555
H10 C3 1_555 1_555
H11 C3 1_555 1_555
C4 C2 1_555 1_555
C5 S1 1_555 1_555
H12 C5 1_555 1_555
C6 N1 1_555 1_555
C7 C6 1_555 1_555
H13 C7 1_555 1_555
H14 C7 1_555 1_555
C8 N2 1_555 1_555
H15 C8 1_555 1_555
H16 C8 1_555 1_555
H17 C8 1_555 1_555
C9 N2 1_555 1_555
C10 N3 1_555 1_555
H18 C10 1_555 1_555
C11 C10 1_555 1_555
H19 C11 1_555 1_555
C12 C11 1_555 1_555
H20 C12 1_555 1_555
H21 C12 1_555 1_555
H22 C12 1_555 1_555
C13 C11 1_555 1_555
H23 C13 1_555 1_555
H24 C13 1_555 1_555
H25 C13 1_555 1_555
C14 N4 1_555 1_555
C15 N4 1_555 1_555
H26 C15 1_555 1_555
C16 C15 1_555 1_555
H27 C16 1_555 1_555
H28 C16 1_555 1_555
C17 C16 1_555 1_555
C18 C17 1_555 1_555
H29 C18 1_555 1_555
C19 C18 1_555 1_555
H30 C19 1_555 1_555
C20 C19 1_555 1_555
H31 C20 1_555 1_555
C21 C20 1_555 1_555
H32 C21 1_555 1_555
C22 C17 1_555 1_555
H33 C22 1_555 1_555
C23 C15 1_555 1_555
H34 C23 1_555 1_555
H35 C23 1_555 1_555
C24 O3 1_555 1_555
H36 C24 1_555 1_555
C25 N5 1_555 1_555
H37 C25 1_555 1_555
C26 C25 1_555 1_555
H38 C26 1_555 1_555
H39 C26 1_555 1_555
C27 C26 1_555 1_555
C28 C27 1_555 1_555
H40 C28 1_555 1_555
C29 C28 1_555 1_555
H41 C29 1_555 1_555
C30 C29 1_555 1_555
H42 C30 1_555 1_555
C31 C30 1_555 1_555
H43 C31 1_555 1_555
C32 C27 1_555 1_555
H44 C32 1_555 1_555
C33 N5 1_555 1_555
C34 O5 1_555 1_555
H45 C34 1_555 1_555
H46 C34 1_555 1_555
C35 C34 1_555 1_555
C36 C35 1_555 1_555
H47 C36 1_555 1_555
C37 S2 1_555 1_555
H48 C37 1_555 1_555
N3 C9 1_555 1_555
N6 C37 1_555 1_555
C5 C6 1_555 1_555
C10 C14 1_555 1_555
C21 C22 1_555 1_555
C23 C24 1_555 1_555
C24 C25 1_555 1_555
C31 C32 1_555 1_555

#END
