
#######################################################################
#
#                 Cambridge Crystallographic Data Centre
#                                CCDC 
#
#######################################################################
#
# If this CIF has been generated from an entry in the Cambridge 
# Structural Database, then it will include bibliographic, chemical, 
# crystal, experimental, refinement or atomic coordinate data resulting 
# from the CCDC's data processing and validation procedures.
#
#######################################################################

data_YIGPIO02
_chemical_name_common            Ritonavir
_chemical_formula_moiety         'C37 H48 N6 O5 S2'
_chemical_name_systematic        
'(5S-(5R*,8R*,10R*,11R*))-10-Hydroxy-2-methyl-5-isopropyl-1-(2-isopropyl-4-thiazolyl)-3,6-dioxo-8,11-dibenzyl-2,4,7,12-tetra-azatridecan-13-oic acid 5-thiazolyl methyl ester'
_chemical_properties_biological  'protease inhibitor in treatment of AIDS'
_symmetry_cell_setting           monoclinic
_symmetry_space_group_name_H-M   'P 21'
_symmetry_Int_Tables_number      4
_space_group_name_Hall           'P 2yb'
loop_
_symmetry_equiv_pos_site_id
_symmetry_equiv_pos_as_xyz
1 x,y,z
2 -x,1/2+y,-z
_cell_length_a                   13.344(2)
_cell_length_b                   5.2150(8)
_cell_length_c                   26.693(4)
_cell_angle_alpha                90
_cell_angle_beta                 103.456(2)
_cell_angle_gamma                90
_cell_volume                     1806.55
_exptl_crystal_colour            colorless
_exptl_crystal_description       rod
_cell_formula_units_Z            2
loop_
_atom_site_label
_atom_site_type_symbol
_atom_site_fract_x
_atom_site_fract_y
_atom_site_fract_z
S1 S 0.3562(3) -0.2987(9) 0.08269(10)
S2 S 0.67655(10) -0.0326(3) 0.58435(5)
O1 O 0.0610(3) 0.2599(11) 0.16301(19)
O2 O 0.3233(3) -0.3494(7) 0.24015(14)
O3 O 0.6163(3) -0.2848(7) 0.31582(12)
O4 O 0.7179(3) 0.4767(8) 0.42460(12)
O5 O 0.6687(3) 0.1634(6) 0.47272(12)
N1 N 0.1864(7) -0.0893(16) 0.0382(3)
N2 N 0.0240(5) -0.0599(16) 0.1038(2)
N3 N 0.1226(3) -0.1362(10) 0.18546(15)
H1 H 0.1216 -0.2958 0.1772
N4 N 0.3568(3) 0.0766(9) 0.23836(16)
H2 H 0.3313 0.2283 0.2379
N5 N 0.6965(3) 0.0596(8) 0.39644(15)
H3 H 0.6804 -0.0911 0.4051
N6 N 0.5290(3) 0.1802(9) 0.61448(16)
C1 C 0.379(2) -0.126(5) -0.0334(11)
H4 H 0.3244 -0.2297 -0.0534
H5 H 0.4306 -0.2351 -0.0130
H6 H 0.4088 -0.0242 -0.0560
C2 C 0.2716(19) 0.215(5) -0.0261(8)
H7 H 0.2270 0.1163 -0.0526
H8 H 0.3119 0.3301 -0.0414
H9 H 0.2308 0.3111 -0.0075
C3 C 0.3315(13) 0.064(3) 0.0048(6)
H10 H 0.3879 0.1642 0.0258
C4 C 0.2845(11) -0.088(2) 0.0389(4)
C5 C 0.1667(10) -0.256(2) 0.0745(3)
C6 C 0.2459(11) -0.379(3) 0.1009(4)
H11 H 0.2429 -0.4971 0.1266
C7 C 0.0611(9) -0.287(2) 0.0827(3)
H12 H 0.0144 -0.3287 0.0501
H13 H 0.0607 -0.4298 0.1060
C8 C -0.0380(8) 0.122(2) 0.0658(3)
H14 H -0.0811 0.2227 0.0824
H15 H -0.0801 0.0272 0.0379
H16 H 0.0074 0.2329 0.0528
C9 C 0.0692(5) 0.0340(16) 0.1518(2)
C10 C 0.1823(4) -0.0535(11) 0.23575(17)
H17 H 0.1772 0.1336 0.2377
C11 C 0.1441(4) -0.1699(11) 0.28081(18)
H18 H 0.1635 -0.3515 0.2840
C12 C 0.0295(4) -0.1500(12) 0.2729(2)
H19 H 0.0094 0.0269 0.2690
H20 H 0.0090 -0.2214 0.3021
H21 H -0.0032 -0.2429 0.2424
C13 C 0.1987(4) -0.0312(12) 0.32987(17)
H22 H 0.1855 0.1495 0.3260
H23 H 0.2716 -0.0614 0.3361
H24 H 0.1736 -0.0944 0.3584
C14 C 0.2942(4) -0.1231(11) 0.23871(18)
C15 C 0.4670(4) 0.0523(10) 0.23878(18)
H25 H 0.4812 -0.1268 0.2316
C16 C 0.4867(4) 0.2206(12) 0.19441(19)
H26 H 0.4439 0.1585 0.1622
H27 H 0.4653 0.3947 0.1994
C17 C 0.5974(4) 0.2252(11) 0.18995(19)
C18 C 0.6367(5) 0.0396(12) 0.1635(2)
H28 H 0.5930 -0.0869 0.1461
C19 C 0.7405(5) 0.0355(12) 0.1620(2)
H29 H 0.7656 -0.0945 0.1445
C20 C 0.8063(5) 0.2269(15) 0.1869(2)
H30 H 0.8754 0.2282 0.1859
C21 C 0.7666(5) 0.4145(12) 0.2131(2)
H31 H 0.8099 0.5429 0.2300
C22 C 0.6649(4) 0.4160(10) 0.2148(2)
H32 H 0.6402 0.5453 0.2327
C23 C 0.5344(4) 0.1254(10) 0.29200(18)
H33 H 0.5489 0.3078 0.2927
H34 H 0.4970 0.0893 0.3183
C24 C 0.6352(4) -0.0223(10) 0.30383(18)
H35 H 0.6605 -0.0245 0.2722
C25 C 0.7213(4) 0.0921(10) 0.34636(17)
H36 H 0.7274 0.2756 0.3397
C26 C 0.8229(3) -0.0393(12) 0.34568(17)
H37 H 0.8171 -0.2196 0.3535
H38 H 0.8340 -0.0279 0.3111
C27 C 0.9166(4) 0.0696(10) 0.38302(19)
C28 C 0.9640(4) 0.2884(10) 0.37048(19)
H39 H 0.9376 0.3705 0.3393
C29 C 1.0502(4) 0.3853(10) 0.4040(2)
H40 H 1.0817 0.5323 0.3952
C30 C 1.0897(4) 0.2673(10) 0.44985(19)
H41 H 1.1476 0.3342 0.4724
C31 C 1.0434(4) 0.0479(10) 0.4627(2)
H42 H 1.0704 -0.0354 0.4937
C32 C 0.9563(4) -0.0465(12) 0.42893(17)
H43 H 0.9243 -0.1925 0.4378
C33 C 0.6975(4) 0.2515(11) 0.42934(19)
C34 C 0.6615(4) 0.3546(10) 0.51005(18)
H44 H 0.6153 0.4903 0.4940
H45 H 0.7288 0.4290 0.5240
C35 C 0.6222(4) 0.2355(9) 0.55163(17)
C36 C 0.5448(4) 0.3168(10) 0.57314(18)
H46 H 0.5045 0.4584 0.5604
C37 C 0.5939(4) -0.0092(12) 0.6242(2)
H47 H 0.5952 -0.1239 0.6510
C38? C 0.432(2) 0.140(8) 0.0249(13)
H48? H 0.4780 0.0062 0.0198
H49? H 0.4415 0.1733 0.0611
H50? H 0.4458 0.2928 0.0077
C39? C 0.277(4) 0.026(11) -0.0486(14)
H51? H 0.2366 0.1752 -0.0607
H52? H 0.2329 -0.1209 -0.0511
H53? H 0.3262 -0.0011 -0.0693
C40? C 0.3315(13) 0.064(3) 0.0048(6)
H54? H 0.2989 0.2270 0.0099
loop_
_geom_bond_atom_site_label_1
_geom_bond_atom_site_label_2
_geom_bond_site_symmetry_1
_geom_bond_site_symmetry_2
S1 C4 1_555 1_555
S2 C35 1_555 1_555
O1 C9 1_555 1_555
O2 C14 1_555 1_555
O3 C24 1_555 1_555
O4 C33 1_555 1_555
O5 C33 1_555 1_555
N1 C4 1_555 1_555
N2 C7 1_555 1_555
N3 H1 1_555 1_555
N4 H2 1_555 1_555
N5 H3 1_555 1_555
N6 C36 1_555 1_555
C1 H4 1_555 1_555
H5 C1 1_555 1_555
H6 C1 1_555 1_555
C2 H7 1_555 1_555
H8 C2 1_555 1_555
H9 C2 1_555 1_555
C3 C1 1_555 1_555
H10 C3 1_555 1_555
C4 C3 1_555 1_555
C5 N1 1_555 1_555
C6 S1 1_555 1_555
H11 C6 1_555 1_555
C7 C5 1_555 1_555
H12 C7 1_555 1_555
H13 C7 1_555 1_555
C8 N2 1_555 1_555
H14 C8 1_555 1_555
H15 C8 1_555 1_555
H16 C8 1_555 1_555
C9 N2 1_555 1_555
C10 N3 1_555 1_555
H17 C10 1_555 1_555
C11 C10 1_555 1_555
H18 C11 1_555 1_555
C12 C11 1_555 1_555
H19 C12 1_555 1_555
H20 C12 1_555 1_555
H21 C12 1_555 1_555
C13 C11 1_555 1_555
H22 C13 1_555 1_555
H23 C13 1_555 1_555
H24 C13 1_555 1_555
C14 N4 1_555 1_555
C15 N4 1_555 1_555
H25 C15 1_555 1_555
C16 C15 1_555 1_555
H26 C16 1_555 1_555
H27 C16 1_555 1_555
C17 C16 1_555 1_555
C18 C17 1_555 1_555
H28 C18 1_555 1_555
C19 C18 1_555 1_555
H29 C19 1_555 1_555
C20 C19 1_555 1_555
H30 C20 1_555 1_555
C21 C20 1_555 1_555
H31 C21 1_555 1_555
C22 C17 1_555 1_555
H32 C22 1_555 1_555
C23 C15 1_555 1_555
H33 C23 1_555 1_555
H34 C23 1_555 1_555
C24 C23 1_555 1_555
H35 C24 1_555 1_555
C25 N5 1_555 1_555
H36 C25 1_555 1_555
C26 C25 1_555 1_555
H37 C26 1_555 1_555
H38 C26 1_555 1_555
C27 C26 1_555 1_555
C28 C27 1_555 1_555
H39 C28 1_555 1_555
C29 C28 1_555 1_555
H40 C29 1_555 1_555
C30 C29 1_555 1_555
H41 C30 1_555 1_555
C31 C30 1_555 1_555
H42 C31 1_555 1_555
C32 C27 1_555 1_555
H43 C32 1_555 1_555
C33 N5 1_555 1_555
C34 O5 1_555 1_555
H44 C34 1_555 1_555
H45 C34 1_555 1_555
C35 C34 1_555 1_555
C36 C35 1_555 1_555
H46 C36 1_555 1_555
C37 S2 1_555 1_555
H47 C37 1_555 1_555
N3 C9 1_555 1_555
N6 C37 1_555 1_555
C2 C3 1_555 1_555
C5 C6 1_555 1_555
C10 C14 1_555 1_555
C21 C22 1_555 1_555
C24 C25 1_555 1_555
C31 C32 1_555 1_555

#END
