
#######################################################################
#
#                 Cambridge Crystallographic Data Centre
#                                CCDC 
#
#######################################################################
#
# If this CIF has been generated from an entry in the Cambridge 
# Structural Database, then it will include bibliographic, chemical, 
# crystal, experimental, refinement or atomic coordinate data resulting 
# from the CCDC's data processing and validation procedures.
#
#######################################################################

data_YIGQIP
_chemical_formula_moiety         'C7 H16 N3 O2 1+,C24 H20 B1 1-,C2 H3 N1'
_chemical_name_systematic        
'2-(2-acetylhydrazino)-N,N,N-trimethyl-2-oxoethanaminium tetraphenylborate acetonitrile solvate'
_symmetry_cell_setting           monoclinic
_symmetry_space_group_name_H-M   'P 21/n'
_symmetry_Int_Tables_number      14
_space_group_name_Hall           '-P 2yn'
loop_
_symmetry_equiv_pos_site_id
_symmetry_equiv_pos_as_xyz
1 x,y,z
2 1/2-x,1/2+y,1/2-z
3 -x,-y,-z
4 1/2+x,1/2-y,1/2+z
_cell_length_a                   14.1478(11)
_cell_length_b                   10.2584(8)
_cell_length_c                   21.693(7)
_cell_angle_alpha                90
_cell_angle_beta                 103.870(10)
_cell_angle_gamma                90
_cell_volume                     3056.59
_exptl_crystal_colour            colorless
_exptl_crystal_description       prism
_cell_formula_units_Z            4
loop_
_atom_site_label
_atom_site_type_symbol
_atom_site_fract_x
_atom_site_fract_y
_atom_site_fract_z
N1 N 1.26204(13) 0.71078(18) 1.00224(8)
N2 N 1.00807(14) 0.7421(2) 0.97335(11)
H1 H 1.0060 0.6632 0.9597
N3 N 0.92413(14) 0.8145(2) 0.95988(10)
H2 H 0.9250 0.8980 0.9638
O1 O 1.10373(12) 0.90163(17) 1.02443(9)
O2 O 0.84070(14) 0.63005(19) 0.93787(11)
C1 C 1.2369(3) 0.7327(4) 0.93290(13)
H3 H 1.2951 0.7500 0.9190
H4 H 1.1936 0.8059 0.9229
H5 H 1.2055 0.6564 0.9118
C2 C 1.3143(2) 0.8231(3) 1.0376(2)
H6 H 1.3728 0.8393 1.0238
H7 H 1.3307 0.8039 1.0822
H8 H 1.2734 0.8988 1.0298
C3 C 1.3254(2) 0.5927(3) 1.01798(17)
H9 H 1.3850 0.6066 1.0051
H10 H 1.2921 0.5185 0.9960
H11 H 1.3397 0.5773 1.0629
C4 C 1.17018(19) 0.6837(3) 1.02327(13)
H12 H 1.1869 0.6718 1.0690
H13 H 1.1428 0.6023 1.0043
C5 C 1.09249(17) 0.7889(2) 1.00664(11)
C6 C 0.84076(19) 0.7481(3) 0.94029(14)
C7 C 0.7514(2) 0.8302(4) 0.9206(3)
H14 H 0.7225 0.8166 0.8763
H15 H 0.7686 0.9204 0.9277
H16 H 0.7058 0.8064 0.9450
N4 N 0.4894(5) 0.6651(6) 0.9034(2)
C32 C 0.4793(5) 0.6988(5) 0.7852(2)
H37 H 0.5416 0.7284 0.7806
H38 H 0.4306 0.7627 0.7678
H39 H 0.4633 0.6178 0.7630
C33 C 0.4829(3) 0.6800(5) 0.8516(2)
B1 B 0.49183(17) 0.2127(3) 0.75590(11)
C8 C 0.46200(15) 0.1911(3) 0.82411(10)
C9 C 0.43910(18) 0.2926(3) 0.85984(12)
H17 H 0.4362 0.3768 0.8436
C10 C 0.4201(2) 0.2730(5) 0.91975(14)
H18 H 0.4043 0.3436 0.9422
C11 C 0.4247(2) 0.1507(5) 0.94527(14)
H19 H 0.4117 0.1375 0.9849
C12 C 0.4487(2) 0.0476(4) 0.91156(13)
H20 H 0.4524 -0.0361 0.9284
C13 C 0.46728(18) 0.0684(3) 0.85259(11)
H21 H 0.4841 -0.0028 0.8309
C14 C 0.45567(15) 0.0906(2) 0.70672(9)
C15 C 0.36907(19) 0.0242(3) 0.70305(11)
H22 H 0.3327 0.0441 0.7323
C16 C 0.3341(2) -0.0713(3) 0.65725(13)
H23 H 0.2759 -0.1138 0.6567
C17 C 0.3852(3) -0.1025(3) 0.61340(13)
H24 H 0.3623 -0.1661 0.5830
C18 C 0.4704(2) -0.0391(3) 0.61472(12)
H25 H 0.5056 -0.0589 0.5848
C19 C 0.50467(17) 0.0551(2) 0.66056(10)
H26 H 0.5631 0.0965 0.6605
C20 C 0.43924(15) 0.3396(2) 0.71575(9)
C21 C 0.34421(18) 0.3777(3) 0.71563(11)
H27 H 0.3117 0.3344 0.7421
C22 C 0.2967(2) 0.4784(4) 0.67725(13)
H28 H 0.2336 0.5011 0.6786
C23 C 0.3422(2) 0.5438(3) 0.63766(13)
H29 H 0.3105 0.6113 0.6123
C24 C 0.4349(2) 0.5092(3) 0.63573(12)
H30 H 0.4666 0.5529 0.6089
C25 C 0.48134(17) 0.4083(2) 0.67404(10)
H31 H 0.5440 0.3856 0.6716
C26 C 0.61136(14) 0.2267(2) 0.77593(9)
C27 C 0.67303(16) 0.1199(3) 0.78299(11)
H32 H 0.6458 0.0373 0.7751
C28 C 0.77401(18) 0.1309(3) 0.80138(12)
H33 H 0.8127 0.0567 0.8052
C29 C 0.81609(18) 0.2510(3) 0.81385(12)
H34 H 0.8835 0.2593 0.8251
C30 C 0.75812(18) 0.3592(3) 0.80971(11)
H35 H 0.7861 0.4411 0.8191
C31 C 0.65764(17) 0.3463(2) 0.79151(10)
H36 H 0.6195 0.4208 0.7896
loop_
_geom_bond_atom_site_label_1
_geom_bond_atom_site_label_2
_geom_bond_site_symmetry_1
_geom_bond_site_symmetry_2
N1 C1 1_555 1_555
N2 H1 1_555 1_555
N3 N2 1_555 1_555
H2 N3 1_555 1_555
N4 C33 1_555 1_555
O1 C5 1_555 1_555
O2 C6 1_555 1_555
B1 C8 1_555 1_555
C1 H3 1_555 1_555
H4 C1 1_555 1_555
H5 C1 1_555 1_555
C2 N1 1_555 1_555
H6 C2 1_555 1_555
H7 C2 1_555 1_555
H8 C2 1_555 1_555
C3 N1 1_555 1_555
H9 C3 1_555 1_555
H10 C3 1_555 1_555
H11 C3 1_555 1_555
C4 N1 1_555 1_555
H12 C4 1_555 1_555
H13 C4 1_555 1_555
C5 N2 1_555 1_555
C6 N3 1_555 1_555
C7 C6 1_555 1_555
H14 C7 1_555 1_555
H15 C7 1_555 1_555
H16 C7 1_555 1_555
C8 C9 1_555 1_555
C9 H17 1_555 1_555
C10 C9 1_555 1_555
H18 C10 1_555 1_555
C11 C10 1_555 1_555
H19 C11 1_555 1_555
C12 C11 1_555 1_555
H20 C12 1_555 1_555
C13 C8 1_555 1_555
H21 C13 1_555 1_555
C14 B1 1_555 1_555
C15 C14 1_555 1_555
H22 C15 1_555 1_555
C16 C15 1_555 1_555
H23 C16 1_555 1_555
C17 C16 1_555 1_555
H24 C17 1_555 1_555
C18 C17 1_555 1_555
H25 C18 1_555 1_555
C19 C14 1_555 1_555
H26 C19 1_555 1_555
C20 B1 1_555 1_555
C21 C20 1_555 1_555
H27 C21 1_555 1_555
C22 C21 1_555 1_555
H28 C22 1_555 1_555
C23 C22 1_555 1_555
H29 C23 1_555 1_555
C24 C23 1_555 1_555
H30 C24 1_555 1_555
C25 C20 1_555 1_555
H31 C25 1_555 1_555
C26 B1 1_555 1_555
C27 C26 1_555 1_555
H32 C27 1_555 1_555
C28 C27 1_555 1_555
H33 C28 1_555 1_555
C29 C28 1_555 1_555
H34 C29 1_555 1_555
C30 C29 1_555 1_555
H35 C30 1_555 1_555
C31 C26 1_555 1_555
H36 C31 1_555 1_555
C32 H37 1_555 1_555
H38 C32 1_555 1_555
H39 C32 1_555 1_555
C33 C32 1_555 1_555
C4 C5 1_555 1_555
C12 C13 1_555 1_555
C18 C19 1_555 1_555
C24 C25 1_555 1_555
C30 C31 1_555 1_555

#END
