
#######################################################################
#
#                 Cambridge Crystallographic Data Centre
#                                CCDC 
#
#######################################################################
#
# If this CIF has been generated from an entry in the Cambridge 
# Structural Database, then it will include bibliographic, chemical, 
# crystal, experimental, refinement or atomic coordinate data resulting 
# from the CCDC's data processing and validation procedures.
#
#######################################################################

data_YIGRIQ
_chemical_formula_moiety         'C40 H52 N2 O2,2(C1 H1 Cl3)'
_chemical_name_systematic        
"N,N'-Di(n-hexyl)-2,9-di(t-butyl)quinacridone chloroform solvate"
_symmetry_cell_setting           monoclinic
_symmetry_space_group_name_H-M   'P 21/c'
_symmetry_Int_Tables_number      14
_space_group_name_Hall           '-P 2ybc'
loop_
_symmetry_equiv_pos_site_id
_symmetry_equiv_pos_as_xyz
1 x,y,z
2 -x,1/2+y,1/2-z
3 -x,-y,-z
4 x,1/2-y,1/2+z
_cell_length_a                   5.67940(10)
_cell_length_b                   18.1714(8)
_cell_length_c                   21.44410(10)
_cell_angle_alpha                90
_cell_angle_beta                 96.8770(7)
_cell_angle_gamma                90
_cell_volume                     2197.17
_exptl_crystal_colour            red
_exptl_crystal_description       prism
_cell_formula_units_Z            2
_exptl_crystal_recrystallization_method 'petroleum ether/chloroform'
loop_
_atom_site_label
_atom_site_type_symbol
_atom_site_fract_x
_atom_site_fract_y
_atom_site_fract_z
O1 O 0.0699(6) 0.12338(19) 0.41314(15)
N1 N 0.2170(7) 0.0432(2) 0.59279(17)
C1 C -0.1597(9) 0.1877(3) 0.5097(2)
H1 H -0.1946 0.2053 0.4689
C2 C -0.2694(8) 0.2201(3) 0.5560(3)
C3 C -0.2105(9) 0.1894(3) 0.6164(3)
H2 H -0.2804 0.2094 0.6496
C4 C -0.0578(9) 0.1324(3) 0.6287(2)
H3 H -0.0293 0.1143 0.6695
C5 C 0.0595(9) 0.0998(3) 0.5809(2)
C6 C 0.3588(9) 0.0218(3) 0.5472(2)
C7 C 0.3169(8) 0.0503(3) 0.4855(2)
C8 C 0.1215(9) 0.1020(3) 0.4678(3)
C9 C 0.0029(8) 0.1293(3) 0.5201(2)
C10 C 0.4567(9) 0.0280(3) 0.4400(2)
H4 H 0.4254 0.0471 0.3996
C11 C 0.2476(8) 0.0076(3) 0.65493(19)
H5 H 0.2899 -0.0436 0.6499
H6 H 0.0976 0.0089 0.6723
C12 C 0.4364(8) 0.0440(3) 0.7009(2)
H7 H 0.5892 0.0388 0.6855
H8 H 0.4021 0.0962 0.7031
C13 C 0.4508(10) 0.0120(3) 0.7653(2)
H9 H 0.4656 -0.0411 0.7628
H10 H 0.3063 0.0231 0.7834
C14 C 0.6671(13) 0.0438(4) 0.8079(3)
H11 H 0.8085 0.0355 0.7876
H12 H 0.6464 0.0966 0.8112
C15 C 0.7034(15) 0.0150(4) 0.8673(4)
H13 H 0.7108 -0.0382 0.8641
H14 H 0.5674 0.0269 0.8888
C16 C 0.9244(13) 0.0413(4) 0.9071(3)
H15 H 0.9346 0.0187 0.9478
H16 H 0.9180 0.0938 0.9117
H17 H 1.0613 0.0283 0.8873
C17 C -0.4247(9) 0.2880(3) 0.5463(3)
C18 C -0.6116(9) 0.2910(3) 0.5924(3)
H18 H -0.7075 0.3343 0.5843
H19 H -0.5336 0.2926 0.6347
H20 H -0.7103 0.2481 0.5871
C19 C -0.5536(10) 0.2911(3) 0.4797(3)
H21 H -0.4397 0.2909 0.4501
H22 H -0.6465 0.3353 0.4746
H23 H -0.6559 0.2491 0.4726
C20 C -0.2676(9) 0.3559(3) 0.5572(3)
H24 H -0.1525 0.3560 0.5278
H25 H -0.1877 0.3550 0.5992
H26 H -0.3637 0.3994 0.5513
O1B O 0.9301(6) -0.12338(19) 0.58686(15)
N1B N 0.7830(7) -0.0432(2) 0.40721(17)
C1B C 1.1597(9) -0.1877(3) 0.4903(2)
H1B H 1.1946 -0.2053 0.5311
C2B C 1.2694(8) -0.2201(3) 0.4440(3)
C3B C 1.2105(9) -0.1894(3) 0.3836(3)
H2B H 1.2804 -0.2094 0.3504
C4B C 1.0578(9) -0.1324(3) 0.3713(2)
H3B H 1.0293 -0.1143 0.3305
C5B C 0.9405(9) -0.0998(3) 0.4191(2)
C6B C 0.6412(9) -0.0218(3) 0.4528(2)
C7B C 0.6831(8) -0.0503(3) 0.5145(2)
C8B C 0.8785(9) -0.1020(3) 0.5322(3)
C9B C 0.9971(8) -0.1293(3) 0.4799(2)
C10B C 0.5433(9) -0.0280(3) 0.5600(2)
H4B H 0.5746 -0.0471 0.6004
C11B C 0.7524(8) -0.0076(3) 0.34507(19)
H5B H 0.7101 0.0436 0.3501
H6B H 0.9024 -0.0089 0.3277
C12B C 0.5636(8) -0.0440(3) 0.2991(2)
H7B H 0.4108 -0.0388 0.3145
H8B H 0.5979 -0.0962 0.2969
C13B C 0.5492(10) -0.0120(3) 0.2347(2)
H9B H 0.5344 0.0411 0.2372
H10B H 0.6937 -0.0231 0.2166
C14B C 0.3329(13) -0.0438(4) 0.1921(3)
H11B H 0.1915 -0.0355 0.2124
H12B H 0.3536 -0.0966 0.1888
C15B C 0.2966(15) -0.0150(4) 0.1327(4)
H13B H 0.2892 0.0382 0.1359
H14B H 0.4326 -0.0269 0.1112
C16B C 0.0756(13) -0.0413(4) 0.0929(3)
H15B H 0.0654 -0.0187 0.0522
H16B H 0.0820 -0.0938 0.0883
H17B H -0.0613 -0.0283 0.1127
C17B C 1.4247(9) -0.2880(3) 0.4537(3)
C18B C 1.6116(9) -0.2910(3) 0.4076(3)
H18B H 1.7075 -0.3343 0.4157
H19B H 1.5336 -0.2926 0.3653
H20B H 1.7103 -0.2481 0.4129
C19B C 1.5536(10) -0.2911(3) 0.5203(3)
H21B H 1.4397 -0.2909 0.5499
H22B H 1.6465 -0.3353 0.5254
H23B H 1.6559 -0.2491 0.5274
C20B C 1.2676(9) -0.3559(3) 0.4428(3)
H24B H 1.1525 -0.3560 0.4722
H25B H 1.1877 -0.3550 0.4008
H26B H 1.3637 -0.3994 0.4487
C21 C 0.2135(10) 0.2088(3) 0.3050(3)
H27 H 0.1757 0.1859 0.3440
Cl1 Cl 0.1075(4) 0.29730(11) 0.30263(10)
Cl2 Cl 0.0760(4) 0.15804(13) 0.24242(10)
Cl3 Cl 0.5163(4) 0.20721(14) 0.30535(12)
loop_
_geom_bond_atom_site_label_1
_geom_bond_atom_site_label_2
_geom_bond_site_symmetry_1
_geom_bond_site_symmetry_2
O1 C8 1_555 1_555
N1 C5 1_555 1_555
C1 H1 1_555 1_555
C2 C1 1_555 1_555
C3 C2 1_555 1_555
H2 C3 1_555 1_555
C4 C3 1_555 1_555
H3 C4 1_555 1_555
C5 C4 1_555 1_555
C6 N1 1_555 1_555
C7 C6 1_555 1_555
C8 C7 1_555 1_555
C9 C1 1_555 1_555
C10 C7 1_555 1_555
H4 C10 1_555 1_555
C11 N1 1_555 1_555
H5 C11 1_555 1_555
H6 C11 1_555 1_555
C12 C11 1_555 1_555
H7 C12 1_555 1_555
H8 C12 1_555 1_555
C13 C12 1_555 1_555
H9 C13 1_555 1_555
H10 C13 1_555 1_555
C14 C13 1_555 1_555
H11 C14 1_555 1_555
H12 C14 1_555 1_555
C15 C14 1_555 1_555
H13 C15 1_555 1_555
H14 C15 1_555 1_555
C16 C15 1_555 1_555
H15 C16 1_555 1_555
H16 C16 1_555 1_555
H17 C16 1_555 1_555
C17 C2 1_555 1_555
C18 C17 1_555 1_555
H18 C18 1_555 1_555
H19 C18 1_555 1_555
H20 C18 1_555 1_555
C19 C17 1_555 1_555
H21 C19 1_555 1_555
H22 C19 1_555 1_555
H23 C19 1_555 1_555
C20 C17 1_555 1_555
H24 C20 1_555 1_555
H25 C20 1_555 1_555
H26 C20 1_555 1_555
C21 H27 1_555 1_555
Cl1 C21 1_555 1_555
Cl2 C21 1_555 1_555
Cl3 C21 1_555 1_555
O1B C8B 1_555 1_555
N1B C5B 1_555 1_555
C1B H1B 1_555 1_555
C2B C1B 1_555 1_555
C3B C2B 1_555 1_555
H2B C3B 1_555 1_555
C4B C3B 1_555 1_555
H3B C4B 1_555 1_555
C5B C4B 1_555 1_555
C6B C10 1_555 1_555
C7B C6B 1_555 1_555
C8B C7B 1_555 1_555
C9B C1B 1_555 1_555
C10B C6 1_555 1_555
H4B C10B 1_555 1_555
C11B N1B 1_555 1_555
H5B C11B 1_555 1_555
H6B C11B 1_555 1_555
C12B C11B 1_555 1_555
H7B C12B 1_555 1_555
H8B C12B 1_555 1_555
C13B C12B 1_555 1_555
H9B C13B 1_555 1_555
H10B C13B 1_555 1_555
C14B C13B 1_555 1_555
H11B C14B 1_555 1_555
H12B C14B 1_555 1_555
C15B C14B 1_555 1_555
H13B C15B 1_555 1_555
H14B C15B 1_555 1_555
C16B C15B 1_555 1_555
H15B C16B 1_555 1_555
H16B C16B 1_555 1_555
H17B C16B 1_555 1_555
C17B C2B 1_555 1_555
C18B C17B 1_555 1_555
H18B C18B 1_555 1_555
H19B C18B 1_555 1_555
H20B C18B 1_555 1_555
C19B C17B 1_555 1_555
H21B C19B 1_555 1_555
H22B C19B 1_555 1_555
H23B C19B 1_555 1_555
C20B C17B 1_555 1_555
H24B C20B 1_555 1_555
H25B C20B 1_555 1_555
H26B C20B 1_555 1_555
C5 C9 1_555 1_555
C8 C9 1_555 1_555
N1B C6B 1_555 1_555
C5B C9B 1_555 1_555
C7B C10B 1_555 1_555
C8B C9B 1_555 1_555

#END
