
#######################################################################
#
#                 Cambridge Crystallographic Data Centre
#                                CCDC 
#
#######################################################################
#
# If this CIF has been generated from an entry in the Cambridge 
# Structural Database, then it will include bibliographic, chemical, 
# crystal, experimental, refinement or atomic coordinate data resulting 
# from the CCDC's data processing and validation procedures.
#
#######################################################################

data_YIGWUI
_chemical_formula_moiety         'C47 H28 F12 N6 O1,2(C2 H6 O1)'
_chemical_name_systematic        
'4-Amino-2,7,12,17-tetrakis(4-(trifluoromethyl)phenyl)-4,21,22,23,24-penta-azapentacyclo[16.2.1.1^3,6^.1^8,11^.1^13,16^]tetracosa-1,3(24),6,8,10,12,16(22),17,19-nonaen-5-one ethanol solvate'
_symmetry_cell_setting           triclinic
_symmetry_space_group_name_H-M   'P -1'
_symmetry_Int_Tables_number      2
_space_group_name_Hall           '-P 1'
loop_
_symmetry_equiv_pos_site_id
_symmetry_equiv_pos_as_xyz
1 x,y,z
2 -x,-y,-z
_cell_length_a                   12.6859(12)
_cell_length_b                   12.9511(12)
_cell_length_c                   14.5378(13)
_cell_angle_alpha                81.7260(10)
_cell_angle_beta                 76.306(2)
_cell_angle_gamma                84.1850(10)
_cell_volume                     2290.83
_exptl_crystal_colour            red
_exptl_crystal_description       plate
_cell_formula_units_Z            2
loop_
_atom_site_label
_atom_site_type_symbol
_atom_site_fract_x
_atom_site_fract_y
_atom_site_fract_z
C1 C -0.0046(2) 0.5546(2) 0.6647(2)
C2 C 0.0099(11) 0.4527(10) 0.7191(8)
N1 N 0.1018(9) 0.4063(6) 0.6669(7)
N2 N 0.1277(6) 0.3020(8) 0.6883(9)
H1 H 0.070(2) 0.261(3) 0.704(3)
H2 H 0.159(3) 0.277(3) 0.739(2)
O1 O -0.0565(11) 0.4099(9) 0.7911(9)
C3 C 0.1413(2) 0.4765(2) 0.58305(19)
C4 C 0.2380(2) 0.4565(2) 0.51628(19)
C5 C 0.2715(2) 0.5191(2) 0.42968(19)
C6 C 0.3710(2) 0.5052(2) 0.3601(2)
H3 H 0.4273 0.4520 0.3652
C7 C 0.3707(2) 0.5820(2) 0.2850(2)
H4 H 0.4261 0.5903 0.2282
C8 C 0.2731(2) 0.6472(2) 0.30660(19)
C9 C 0.2447(2) 0.7379(2) 0.24945(19)
C10 C 0.1538(2) 0.8076(2) 0.27346(19)
C11 C 0.1335(3) 0.9040(2) 0.2061(2)
H5 H 0.1919 0.9525 0.1958
H6 H 0.1284 0.8852 0.1437
C12 C 0.0264(3) 0.9515(2) 0.2576(2)
H7 H -0.0308 0.9502 0.2220
H8 H 0.0328 1.0247 0.2670
C13 C 0.0019(2) 0.8823(2) 0.35218(19)
C14 C -0.0861(2) 0.9064(2) 0.4257(2)
C15 C -0.1130(2) 0.8503(2) 0.5173(2)
C16 C -0.1895(2) 0.8834(2) 0.5983(2)
H9 H -0.2345 0.9467 0.5994
C17 C -0.1870(2) 0.8084(2) 0.6740(2)
H10 H -0.2291 0.8112 0.7372
C18 C -0.1104(2) 0.7250(2) 0.64251(19)
C19 C -0.0857(2) 0.6311(2) 0.6973(2)
C20 C 0.3153(2) 0.3666(2) 0.53906(19)
C21 C 0.3663(2) 0.3665(2) 0.6140(2)
H11 H 0.3507 0.4232 0.6510
C22 C 0.4388(3) 0.2854(2) 0.6350(2)
H12 H 0.4725 0.2859 0.6867
C23 C 0.4627(2) 0.2024(2) 0.5805(2)
C24 C 0.4124(2) 0.2018(2) 0.5054(2)
H13 H 0.4280 0.1452 0.4683
C25 C 0.3395(2) 0.2838(2) 0.4851(2)
H14 H 0.3055 0.2834 0.4336
C26 C 0.5387(3) 0.1142(2) 0.6058(2)
C27 C 0.3210(2) 0.7612(2) 0.15484(19)
C28 C 0.3193(3) 0.7056(2) 0.0802(2)
H15 H 0.2707 0.6519 0.0898
C29 C 0.3889(3) 0.7289(3) -0.0088(2)
H16 H 0.3870 0.6918 -0.0602
C30 C 0.4605(3) 0.8057(3) -0.0222(2)
C31 C 0.4649(3) 0.8597(3) 0.0520(2)
H17 H 0.5155 0.9116 0.0427
C32 C 0.3947(3) 0.8374(2) 0.1403(2)
H18 H 0.3972 0.8748 0.1914
C33 C 0.5318(4) 0.8375(3) -0.1183(3)
C34 C -0.1468(3) 0.6150(2) 0.7995(2)
C35 C -0.2564(3) 0.5996(2) 0.8242(2)
H19 H -0.2954 0.5996 0.7758
C36 C -0.3103(3) 0.5840(3) 0.9204(3)
H20 H -0.3857 0.5729 0.9373
C37 C -0.2544(4) 0.5848(3) 0.9909(2)
C38 C -0.1447(4) 0.5990(3) 0.9670(3)
H21 H -0.1060 0.5985 1.0155
C39 C -0.0911(3) 0.6139(3) 0.8720(2)
H22 H -0.0154 0.6236 0.8557
C40 C -0.3158(4) 0.5701(3) 1.0932(3)
F1 F 0.49443(18) 0.05390(17) 0.68553(17)
F2 F 0.62898(15) 0.14538(15) 0.62267(14)
F3 F 0.57426(19) 0.05128(16) 0.53786(16)
F4 F 0.6331(2) 0.8516(2) -0.11395(18)
F5 F 0.54091(19) 0.7678(2) -0.17909(14)
F6 F 0.4948(3) 0.9270(3) -0.1592(2)
C41 C -0.1549(4) 1.0063(3) 0.4071(3)
C42 C -0.2285(5) 1.0097(3) 0.3493(4)
H23 H -0.2408 0.9477 0.3267
C43 C -0.2840(4) 1.1039(4) 0.3245(4)
H24 H -0.3343 1.1062 0.2849
C44 C -0.2659(4) 1.1946(3) 0.3575(3)
C45 C -0.1924(3) 1.1912(3) 0.4153(3)
H25 H -0.1800 1.2532 0.4379
C46 C -0.1369(3) 1.0970(4) 0.4402(2)
H26 H -0.0866 1.0947 0.4797
C47 C -0.3183(4) 1.2999(4) 0.3304(4)
F7 F -0.2467(3) 1.3656(2) 0.2790(3)
F8 F -0.3948(3) 1.2960(2) 0.2833(3)
F9 F -0.3679(3) 1.3490(2) 0.4069(3)
F10 F -0.3815(2) 0.65322(18) 1.11777(14)
F11 F -0.3726(4) 0.4898(2) 1.11493(18)
F12 F -0.2468(3) 0.5567(2) 1.15411(17)
N3 N 0.07373(19) 0.56421(17) 0.58220(16)
N4 N 0.21521(19) 0.60611(17) 0.39406(16)
H27 H 0.1511 0.6318 0.4233
N5 N 0.07650(18) 0.79926(17) 0.35581(16)
N6 N -0.06718(18) 0.75431(17) 0.54746(16)
H28 H -0.0171 0.7168 0.5109
O3 O 0.1769(6) 0.1631(6) 0.8383(4)
H35 H 0.1164 0.1626 0.8773
C56 C 0.2588(6) 0.1230(9) 0.8860(7)
H36 H 0.2651 0.1720 0.9305
H37 H 0.3291 0.1183 0.8388
C57 C 0.2385(6) 0.0216(6) 0.9386(5)
H38 H 0.1628 0.0218 0.9748
H39 H 0.2872 0.0048 0.9827
H40 H 0.2517 -0.0309 0.8942
O5 O -0.0158(4) 0.2394(4) 0.9291(3)
H47 H -0.0333 0.2893 0.8906
C60 C -0.0883(5) 0.2435(6) 1.0216(5)
H48 H -0.1608 0.2217 1.0212
H49 H -0.0971 0.3155 1.0391
C61 C -0.0391(8) 0.1719(5) 1.0896(7)
H50 H 0.0278 0.1996 1.0956
H51 H -0.0217 0.1032 1.0667
H52 H -0.0902 0.1649 1.1519
C48? C 0.103(3) 0.4031(18) 0.668(2)
N7? N 0.012(2) 0.454(2) 0.7171(16)
N8? N -0.045(4) 0.395(4) 0.797(3)
H29? H -0.051(10) 0.327(5) 0.786(7)
H30? H -0.008(9) 0.378(7) 0.844(6)
O2? O 0.1520(17) 0.3121(18) 0.676(2)
C49? C -0.152(2) 1.0041(15) 0.4045(14)
C50? C -0.242(2) 1.0045(12) 0.3660(19)
H31? H -0.2668 0.9404 0.3577
C51? C -0.297(2) 1.0988(18) 0.340(2)
H32? H -0.3584 1.0991 0.3137
C52? C -0.2604(18) 1.1927(12) 0.3522(15)
C53? C -0.1699(17) 1.1922(15) 0.3906(14)
H33? H -0.1452 1.2563 0.3990
C54? C -0.1155(14) 1.098(2) 0.4167(14)
H34? H -0.0536 1.0976 0.4430
C55? C -0.3149(15) 1.2870(14) 0.3066(13)
F13? F -0.3109(16) 1.3693(10) 0.3497(14)
F14? F -0.4192(13) 1.2757(15) 0.3132(15)
F15? F -0.2719(12) 1.3121(9) 0.2143(10)
O4? O 0.1265(17) 0.1922(17) 0.8689(11)
H41? H 0.1251 0.2106 0.8113
C58? C 0.2227(19) 0.126(3) 0.8746(12)
H42? H 0.2878 0.1650 0.8434
H43? H 0.2245 0.0645 0.8412
C59? C 0.2230(8) 0.0929(16) 0.9745(3)
H44? H 0.1592 0.0534 1.0045
H45? H 0.2207 0.1545 1.0072
H46? H 0.2893 0.0485 0.9790
O6? O -0.0455(11) 0.2884(11) 0.9809(10)
H53? H 0.0113 0.2507 0.9618
C62? C -0.1136(15) 0.2324(15) 1.0723(13)
H54? H -0.1174 0.2694 1.1282
H55? H -0.1881 0.2239 1.0659
C63? C -0.049(2) 0.1312(13) 1.078(2)
H56? H 0.0285 0.1430 1.0577
H57? H -0.0683 0.0862 1.0369
H58? H -0.0649 0.0972 1.1443
loop_
_geom_bond_atom_site_label_1
_geom_bond_atom_site_label_2
_geom_bond_site_symmetry_1
_geom_bond_site_symmetry_2
C1 C2 1_555 1_555
C2 N1 1_555 1_555
N1 N2 1_555 1_555
N2 H1 1_555 1_555
H2 N2 1_555 1_555
O1 C2 1_555 1_555
C3 N1 1_555 1_555
C4 C3 1_555 1_555
C5 C4 1_555 1_555
C6 C5 1_555 1_555
H3 C6 1_555 1_555
C7 C6 1_555 1_555
H4 C7 1_555 1_555
C8 C7 1_555 1_555
C9 C8 1_555 1_555
C10 C9 1_555 1_555
C11 C10 1_555 1_555
H5 C11 1_555 1_555
H6 C11 1_555 1_555
C12 C11 1_555 1_555
H7 C12 1_555 1_555
H8 C12 1_555 1_555
C13 C12 1_555 1_555
C14 C13 1_555 1_555
C15 C14 1_555 1_555
C16 C15 1_555 1_555
H9 C16 1_555 1_555
C17 C16 1_555 1_555
H10 C17 1_555 1_555
C18 C17 1_555 1_555
C19 C1 1_555 1_555
C20 C4 1_555 1_555
C21 C20 1_555 1_555
H11 C21 1_555 1_555
C22 C21 1_555 1_555
H12 C22 1_555 1_555
C23 C22 1_555 1_555
C24 C23 1_555 1_555
H13 C24 1_555 1_555
C25 C20 1_555 1_555
H14 C25 1_555 1_555
C26 C23 1_555 1_555
C27 C9 1_555 1_555
C28 C27 1_555 1_555
H15 C28 1_555 1_555
C29 C28 1_555 1_555
H16 C29 1_555 1_555
C30 C29 1_555 1_555
C31 C30 1_555 1_555
H17 C31 1_555 1_555
C32 C27 1_555 1_555
H18 C32 1_555 1_555
C33 C30 1_555 1_555
C34 C19 1_555 1_555
C35 C34 1_555 1_555
H19 C35 1_555 1_555
C36 C35 1_555 1_555
H20 C36 1_555 1_555
C37 C36 1_555 1_555
C38 C37 1_555 1_555
H21 C38 1_555 1_555
C39 C34 1_555 1_555
H22 C39 1_555 1_555
C40 C37 1_555 1_555
F1 C26 1_555 1_555
F2 C26 1_555 1_555
F3 C26 1_555 1_555
F4 C33 1_555 1_555
F5 C33 1_555 1_555
F6 C33 1_555 1_555
C41 C14 1_555 1_555
C42 C41 1_555 1_555
H23 C42 1_555 1_555
C43 C42 1_555 1_555
H24 C43 1_555 1_555
C44 C43 1_555 1_555
C45 C44 1_555 1_555
H25 C45 1_555 1_555
C46 C41 1_555 1_555
H26 C46 1_555 1_555
C47 C44 1_555 1_555
F7 C47 1_555 1_555
F8 C47 1_555 1_555
F9 C47 1_555 1_555
F10 C40 1_555 1_555
F11 C40 1_555 1_555
F12 C40 1_555 1_555
N3 C1 1_555 1_555
N4 C5 1_555 1_555
H27 N4 1_555 1_555
N5 C10 1_555 1_555
N6 C15 1_555 1_555
H28 N6 1_555 1_555
O3 H35 1_555 1_555
C56 O3 1_555 1_555
H36 C56 1_555 1_555
H37 C56 1_555 1_555
C57 C56 1_555 1_555
H38 C57 1_555 1_555
H39 C57 1_555 1_555
H40 C57 1_555 1_555
O5 H47 1_555 1_555
C60 O5 1_555 1_555
H48 C60 1_555 1_555
H49 C60 1_555 1_555
C61 C60 1_555 1_555
H50 C61 1_555 1_555
H51 C61 1_555 1_555
H52 C61 1_555 1_555
C3 N3 1_555 1_555
C8 N4 1_555 1_555
C13 N5 1_555 1_555
C18 C19 1_555 1_555
C18 N6 1_555 1_555
C24 C25 1_555 1_555
C31 C32 1_555 1_555
C38 C39 1_555 1_555
C45 C46 1_555 1_555

#END
