
#######################################################################
#
#                 Cambridge Crystallographic Data Centre
#                                CCDC 
#
#######################################################################
#
# If this CIF has been generated from an entry in the Cambridge 
# Structural Database, then it will include bibliographic, chemical, 
# crystal, experimental, refinement or atomic coordinate data resulting 
# from the CCDC's data processing and validation procedures.
#
#######################################################################

data_YIGWOC
_chemical_formula_moiety         'C43 H28 Cl1 N5'
_chemical_name_systematic        
5,10,15,20-Tetraphenyl-2-aza-3-chloroporphyrin
_symmetry_cell_setting           monoclinic
_symmetry_space_group_name_H-M   'P 21/n'
_symmetry_Int_Tables_number      14
_space_group_name_Hall           '-P 2yn'
loop_
_symmetry_equiv_pos_site_id
_symmetry_equiv_pos_as_xyz
1 x,y,z
2 1/2-x,1/2+y,1/2-z
3 -x,-y,-z
4 1/2+x,1/2-y,1/2+z
_cell_length_a                   14.440(4)
_cell_length_b                   16.901(5)
_cell_length_c                   14.820(4)
_cell_angle_alpha                90
_cell_angle_beta                 117.629(4)
_cell_angle_gamma                90
_cell_volume                     3204.4
_exptl_crystal_colour            red
_exptl_crystal_description       plate
_cell_formula_units_Z            4
loop_
_atom_site_label
_atom_site_type_symbol
_atom_site_fract_x
_atom_site_fract_y
_atom_site_fract_z
C1 C 0.8510(3) 0.61499(17) 0.1657(2)
C2 C 0.9268(3) 0.60711(18) 0.1300(2)
H1 H 1.0006 0.6103 0.1694
C3 C 0.8728(3) 0.59438(19) 0.0296(2)
H2 H 0.9017 0.5871 -0.0158
C4 C 0.7646(3) 0.59372(18) 0.0029(2)
C5 C 0.6830(3) 0.57970(18) -0.0962(2)
C6 C 0.5770(3) 0.58144(18) -0.1237(2)
C7 C 0.4934(3) 0.56511(18) -0.2218(2)
H3 H 0.4998 0.5497 -0.2803
C8 C 0.4041(3) 0.57537(19) -0.2168(2)
H4 H 0.3361 0.5683 -0.2719
C9 C 0.4262(3) 0.59836(17) -0.1169(2)
C10 C 0.3546(3) 0.61889(17) -0.0822(2)
C11 C 0.3823(3) 0.63539(17) 0.0212(2)
C12 C 0.3087(2) 0.66335(17) 0.0518(2)
C13 C 0.4689(3) 0.64586(17) 0.1862(2)
C14 C 0.5485(3) 0.64657(17) 0.2872(2)
C15 C 0.6548(3) 0.63810(17) 0.3162(2)
C16 C 0.7391(3) 0.64645(19) 0.4163(2)
H5 H 0.7324 0.6542 0.4765
C17 C 0.8294(3) 0.64158(19) 0.4115(2)
H6 H 0.8974 0.6457 0.4675
C18 C 0.8054(3) 0.62901(17) 0.3073(2)
C19 C 0.8776(2) 0.62469(17) 0.2695(2)
C20 C 0.7099(7) 0.5618(5) -0.1805(4)
C21 C 0.7678(8) 0.4953(5) -0.1777(6)
H7 H 0.7890 0.4589 -0.1229
C22 C 0.7949(8) 0.4822(5) -0.2550(8)
H8 H 0.8346 0.4368 -0.2531
C23 C 0.7641(7) 0.5355(6) -0.3352(6)
H9 H 0.7826 0.5265 -0.3881
C24 C 0.7061(9) 0.6020(7) -0.3381(5)
H10 H 0.6850 0.6384 -0.3929
C25 C 0.6790(8) 0.6151(6) -0.2607(6)
H11 H 0.6393 0.6606 -0.2627
C26 C 0.2418(3) 0.62571(18) -0.1585(2)
C27 C 0.2113(3) 0.67526(18) -0.2419(2)
H12 H 0.2623 0.7049 -0.2510
C28 C 0.1056(3) 0.6819(2) -0.3130(2)
H13 H 0.0854 0.7154 -0.3705
C29 C 0.0310(3) 0.6405(2) -0.3000(3)
H14 H -0.0407 0.6459 -0.3477
C30 C 0.0607(3) 0.5908(2) -0.2171(3)
H15 H 0.0094 0.5617 -0.2079
C31 C 0.1654(3) 0.58353(19) -0.1473(3)
H16 H 0.1853 0.5490 -0.0907
C32 C 0.5190(3) 0.6619(2) 0.3701(2)
C33 C 0.4673(3) 0.6071(2) 0.3978(3)
H17 H 0.4494 0.5575 0.3638
C34 C 0.4407(4) 0.6223(3) 0.4738(3)
H18 H 0.4052 0.5832 0.4922
C35 C 0.4650(3) 0.6930(3) 0.5230(3)
H19 H 0.4437 0.7039 0.5735
C36 C 0.5199(4) 0.7488(3) 0.5002(3)
H20 H 0.5396 0.7972 0.5368
C37 C 0.5466(3) 0.7338(2) 0.4229(3)
H21 H 0.5837 0.7725 0.4059
C38 C 0.9906(3) 0.63000(17) 0.3463(2)
C39 C 1.0376(3) 0.56852(18) 0.4141(2)
H22 H 0.9986 0.5220 0.4093
C40 C 1.1404(3) 0.5740(2) 0.4889(2)
H23 H 1.1717 0.5313 0.5348
C41 C 1.1969(3) 0.6410(2) 0.4966(3)
H24 H 1.2671 0.6451 0.5486
C42 C 1.1523(3) 0.7022(2) 0.4295(3)
H25 H 1.1921 0.7482 0.4344
C43 C 1.0493(3) 0.6972(2) 0.3546(3)
H26 H 1.0187 0.7400 0.3086
N1 N 0.7516(2) 0.60744(14) 0.08756(18)
N2 N 0.5335(2) 0.59938(14) -0.06132(18)
H27 H 0.5687 0.6099 0.0042
N3 N 0.4795(2) 0.62597(14) 0.10207(17)
N4 N 0.6982(2) 0.62616(14) 0.25225(18)
H28 H 0.6629 0.6179 0.1862
Cl1 Cl 0.1840(8) 0.6942(18) 0.014(2)
N5 N 0.3626(3) 0.6696(2) 0.1534(2)
C44? C 0.7209(17) 0.5746(14) -0.1764(12)
C45? C 0.733(3) 0.5023(14) -0.211(2)
H29? H 0.7182 0.4565 -0.1823
C46? C 0.765(3) 0.4919(11) -0.283(3)
H30? H 0.7808 0.4405 -0.2978
C47? C 0.7727(19) 0.5562(16) -0.3350(16)
H31? H 0.7826 0.5495 -0.3936
C48? C 0.767(3) 0.6293(12) -0.302(2)
H32? H 0.7805 0.6746 -0.3317
C49? C 0.740(3) 0.6374(11) -0.223(2)
H33? H 0.7340 0.6892 -0.2014
C50? C 0.5190(3) 0.6619(2) 0.3701(2)
C51? C 0.532(5) 0.6048(18) 0.440(3)
H34? H 0.5534 0.5528 0.4336
C52? C 0.513(5) 0.624(2) 0.520(3)
H35? H 0.5349 0.5888 0.5753
C53? C 0.4650(3) 0.6930(3) 0.5230(3)
H36? H 0.4463 0.7024 0.5757
C54? C 0.444(5) 0.748(2) 0.448(3)
H37? H 0.4137 0.7978 0.4493
C55? C 0.468(5) 0.731(2) 0.369(3)
H38? H 0.4483 0.7672 0.3141
H39? H 0.6924 0.6107 0.0909
H40? H 0.5368 0.6104 0.1003
C56? C 0.9268(3) 0.60711(18) 0.1300(2)
N6? N 0.8728(3) 0.59438(19) 0.0296(2)
Cl2? Cl 1.0594(3) 0.6047(7) 0.1846(5)
N7? N 0.9268(3) 0.60711(18) 0.1300(2)
C57? C 0.8728(3) 0.59438(19) 0.0296(2)
Cl3? Cl 0.9530(3) 0.5672(3) -0.0243(3)
C58? C 0.4934(3) 0.56511(18) -0.2218(2)
N8? N 0.4041(3) 0.57537(19) -0.2168(2)
Cl4? Cl 0.458(2) 0.5385(14) -0.3440(7)
N9? N 0.4934(3) 0.56511(18) -0.2218(2)
C59? C 0.4041(3) 0.57537(19) -0.2168(2)
Cl5? Cl 0.3044(6) 0.5386(5) -0.3247(5)
C60? C 0.3087(2) 0.66335(17) 0.0518(2)
N10? N 0.3087(2) 0.66335(17) 0.0518(2)
C61? C 0.3626(3) 0.6696(2) 0.1534(2)
Cl6? Cl 0.29800(18) 0.71258(15) 0.21258(16)
C62? C 0.7391(3) 0.64645(19) 0.4163(2)
N11? N 0.8294(3) 0.64158(19) 0.4115(2)
Cl7? Cl 0.746(2) 0.6206(14) 0.5299(10)
N12? N 0.7391(3) 0.64645(19) 0.4163(2)
C63? C 0.8294(3) 0.64158(19) 0.4115(2)
Cl8? Cl 0.9404(11) 0.6660(14) 0.5181(11)
H41? H 0.3348 0.6871 0.1968
H42? H 0.2370 0.6751 0.0096
C64? C 0.3626(3) 0.6696(2) 0.1534(2)
loop_
_geom_bond_atom_site_label_1
_geom_bond_atom_site_label_2
_geom_bond_site_symmetry_1
_geom_bond_site_symmetry_2
C1 C2 1_555 1_555
C2 H1 1_555 1_555
C3 C2 1_555 1_555
H2 C3 1_555 1_555
C4 C3 1_555 1_555
C5 C4 1_555 1_555
C6 C5 1_555 1_555
C7 C6 1_555 1_555
H3 C7 1_555 1_555
C8 C7 1_555 1_555
H4 C8 1_555 1_555
C9 C8 1_555 1_555
C10 C9 1_555 1_555
C11 C10 1_555 1_555
C12 C11 1_555 1_555
C13 C14 1_555 1_555
C14 C15 1_555 1_555
C15 C16 1_555 1_555
C16 H5 1_555 1_555
C17 C16 1_555 1_555
H6 C17 1_555 1_555
C18 C17 1_555 1_555
C19 C1 1_555 1_555
C20 C5 1_555 1_555
C21 C20 1_555 1_555
H7 C21 1_555 1_555
C22 C21 1_555 1_555
H8 C22 1_555 1_555
C23 C22 1_555 1_555
H9 C23 1_555 1_555
C24 C23 1_555 1_555
H10 C24 1_555 1_555
C25 C20 1_555 1_555
H11 C25 1_555 1_555
C26 C10 1_555 1_555
C27 C26 1_555 1_555
H12 C27 1_555 1_555
C28 C27 1_555 1_555
H13 C28 1_555 1_555
C29 C28 1_555 1_555
H14 C29 1_555 1_555
C30 C29 1_555 1_555
H15 C30 1_555 1_555
C31 C26 1_555 1_555
H16 C31 1_555 1_555
C32 C14 1_555 1_555
C33 C32 1_555 1_555
H17 C33 1_555 1_555
C34 C33 1_555 1_555
H18 C34 1_555 1_555
C35 C34 1_555 1_555
H19 C35 1_555 1_555
C36 C35 1_555 1_555
H20 C36 1_555 1_555
C37 C32 1_555 1_555
H21 C37 1_555 1_555
C38 C19 1_555 1_555
C39 C38 1_555 1_555
H22 C39 1_555 1_555
C40 C39 1_555 1_555
H23 C40 1_555 1_555
C41 C40 1_555 1_555
H24 C41 1_555 1_555
C42 C41 1_555 1_555
H25 C42 1_555 1_555
C43 C38 1_555 1_555
H26 C43 1_555 1_555
N1 C1 1_555 1_555
N2 C6 1_555 1_555
H27 N2 1_555 1_555
N3 C11 1_555 1_555
N4 C15 1_555 1_555
H28 N4 1_555 1_555
Cl1 C12 1_555 1_555
N5 C12 1_555 1_555
C4 N1 1_555 1_555
C9 N2 1_555 1_555
C13 N3 1_555 1_555
C13 N5 1_555 1_555
C18 C19 1_555 1_555
C18 N4 1_555 1_555
C24 C25 1_555 1_555
C30 C31 1_555 1_555
C36 C37 1_555 1_555
C42 C43 1_555 1_555

#END
