
#######################################################################
#
#                 Cambridge Crystallographic Data Centre
#                                CCDC 
#
#######################################################################
#
# If this CIF has been generated from an entry in the Cambridge 
# Structural Database, then it will include bibliographic, chemical, 
# crystal, experimental, refinement or atomic coordinate data resulting 
# from the CCDC's data processing and validation procedures.
#
#######################################################################

data_YIGXAP
_chemical_formula_moiety         'C47 H26 F12 N6 O1,2(C2 H6 O1)'
_chemical_name_systematic        
'4-Amino-2,7,12,17-tetrakis(4-(trifluoromethyl)phenyl)-4,21,22,23,24-pentaazapentacyclo[16.2.1.1^3,6^.1^8,11^.1^13,16^]tetracosa-1,3(24),6,8,10,12,14,16(22),17,19-decaen-5-one ethanol solvate'
_symmetry_cell_setting           triclinic
_symmetry_space_group_name_H-M   'P -1'
_symmetry_Int_Tables_number      2
_space_group_name_Hall           '-P 1'
loop_
_symmetry_equiv_pos_site_id
_symmetry_equiv_pos_as_xyz
1 x,y,z
2 -x,-y,-z
_cell_length_a                   12.801(4)
_cell_length_b                   12.814(4)
_cell_length_c                   14.782(5)
_cell_angle_alpha                81.419(5)
_cell_angle_beta                 75.271(5)
_cell_angle_gamma                84.415(5)
_cell_volume                     2314.32
_exptl_crystal_colour            black
_exptl_crystal_description       prism
_cell_formula_units_Z            2
loop_
_atom_site_label
_atom_site_type_symbol
_atom_site_fract_x
_atom_site_fract_y
_atom_site_fract_z
C1 C 0.5083(3) 0.4492(3) 0.8278(2)
C2 C 0.5901(3) 0.3732(3) 0.7955(2)
C3 C 0.6149(3) 0.2783(3) 0.8500(2)
C4 C 0.6917(3) 0.1961(3) 0.8190(3)
H1 H 0.7347 0.1940 0.7565
C5 C 0.6937(3) 0.1207(3) 0.8938(3)
H2 H 0.7392 0.0575 0.8928
C6 C 0.6165(3) 0.1524(3) 0.9732(2)
C7 C 0.5893(3) 0.0979(3) 1.0649(2)
C8 C 0.5019(3) 0.1257(3) 1.1371(3)
C9 C 0.4721(4) 0.0616(3) 1.2289(3)
H3 H 0.5092 -0.0017 1.2496
C10 C 0.3824(4) 0.1092(3) 1.2782(3)
H4 H 0.3439 0.0867 1.3410
C11 C 0.3556(4) 0.2023(3) 1.2165(2)
C12 C 0.2641(3) 0.2699(3) 1.2432(2)
C13 C 0.2332(3) 0.3598(3) 1.1869(2)
C14 C 0.1355(3) 0.4232(3) 1.2076(3)
H5 H 0.0799 0.4144 1.2641
C15 C 0.1348(4) 0.4993(3) 1.1325(3)
H6 H 0.0785 0.5522 1.1272
C16 C 0.2345(3) 0.4850(3) 1.0631(2)
C17 C 0.2670(3) 0.5479(3) 0.9755(2)
C18 C 0.3634(3) 0.5281(3) 0.9092(2)
C19 C 0.1887(3) 0.6363(3) 0.9530(2)
C20 C 0.1620(3) 0.7201(3) 1.0053(2)
H7 H 0.1949 0.7222 1.0558
C21 C 0.0882(3) 0.8008(3) 0.9854(3)
H8 H 0.0704 0.8577 1.0222
C22 C 0.0400(3) 0.7987(3) 0.9114(3)
C23 C 0.0665(3) 0.7146(3) 0.8588(3)
H9 H 0.0342 0.7128 0.8079
C24 C 0.1389(3) 0.6341(3) 0.8794(2)
H10 H 0.1553 0.5765 0.8435
C25 C -0.0364(4) 0.8848(4) 0.8868(3)
C26 C 0.6529(13) 0.3881(5) 0.6930(5)
C27 C 0.6038(11) 0.3873(10) 0.6194(10)
H11 H 0.5286 0.3771 0.6326
C28 C 0.6646(14) 0.4013(12) 0.5266(8)
H12 H 0.6310 0.4007 0.4763
C29 C 0.7746(13) 0.4162(12) 0.5073(5)
C30 C 0.8237(10) 0.4170(17) 0.5809(9)
H13 H 0.8989 0.4272 0.5677
C31 C 0.7629(13) 0.4030(14) 0.6737(6)
H14 H 0.7965 0.4036 0.7240
C32 C 0.8388(16) 0.4289(9) 0.4038(9)
F1 F 0.8954(14) 0.3419(10) 0.3778(14)
F2 F 0.908(2) 0.5021(12) 0.3885(11)
F3 F 0.7757(15) 0.4570(12) 0.3450(6)
C33 C 0.6575(6) -0.0038(3) 1.0832(3)
C34 C 0.6427(4) -0.0956(5) 1.0496(3)
H15 H 0.5954 -0.0936 1.0091
C35 C 0.6970(4) -0.1903(3) 1.0753(3)
H16 H 0.6868 -0.2530 1.0524
C36 C 0.7661(5) -0.1932(4) 1.1346(4)
C37 C 0.7810(7) -0.1014(5) 1.1682(5)
H17 H 0.8283 -0.1034 1.2087
C38 C 0.7267(7) -0.0067(4) 1.1425(4)
H18 H 0.7369 0.0560 1.1655
C39 C 0.8173(6) -0.2990(6) 1.1633(5)
F4 F 0.8667(4) -0.3489(3) 1.0894(3)
F5 F 0.8914(5) -0.2938(4) 1.2089(4)
F6 F 0.7446(4) -0.3645(3) 1.2165(4)
F7 F 0.0141(16) 0.0669(11) 1.6474(9)
F8 F -0.1210(13) 0.1491(13) 1.6086(11)
F9 F -0.022(2) 0.2267(16) 1.670(2)
C40 C 0.191(2) 0.243(3) 1.3408(18)
C41 C 0.131(2) 0.155(3) 1.357(2)
H19 H 0.1381 0.1122 1.3078
C42 C 0.059(2) 0.130(2) 1.444(3)
H20 H 0.0178 0.0696 1.4543
C43 C 0.0485(17) 0.193(2) 1.515(2)
C44 C 0.1093(16) 0.281(2) 1.4990(17)
H21 H 0.1019 0.3235 1.5477
C45 C 0.1807(18) 0.306(2) 1.4120(19)
H22 H 0.2222 0.3661 1.4012
C46 C -0.0197(16) 0.1587(13) 1.6101(15)
F10 F -0.1270(2) 0.8507(2) 0.87536(19)
F11 F -0.0700(3) 0.9514(2) 0.9507(2)
F12 F 0.0046(3) 0.9417(2) 0.8048(2)
N1 N 0.4311(3) 0.4400(2) 0.91065(19)
N2 N 0.5705(3) 0.2488(2) 0.9439(2)
H23 H 0.5199 0.2861 0.9801
N3 N 0.4296(3) 0.2108(2) 1.1318(2)
N4 N 0.2906(3) 0.4001(2) 1.09863(19)
H24 H 0.3545 0.3746 1.0694
C47 C 0.4952(6) 0.5518(11) 0.7734(6)
N5 N 0.4065(6) 0.5976(7) 0.8250(7)
N6 N 0.3651(11) 0.6998(9) 0.7980(8)
H25 H 0.422(3) 0.742(3) 0.797(4)
H26 H 0.376(5) 0.705(3) 0.7334(17)
O1 O 0.5528(7) 0.5918(5) 0.6960(6)
O3 O 0.5149(9) 0.7579(9) 0.5587(6)
H41 H 0.5460 0.7122 0.5929
C70 C 0.5918(14) 0.7712(14) 0.4759(8)
H42 H 0.6216 0.7007 0.4584
H43 H 0.6517 0.8082 0.4856
C71 C 0.5513(11) 0.8321(11) 0.3963(7)
H44 H 0.5425 0.9074 0.4038
H45 H 0.4814 0.8070 0.3962
H46 H 0.6034 0.8219 0.3365
O5 O 0.3572(10) 0.8406(12) 0.6423(8)
H53 H 0.3789 0.7894 0.6115
C74 C 0.2588(16) 0.8789(18) 0.6311(10)
H54 H 0.2250 0.9239 0.6810
H55 H 0.2124 0.8192 0.6388
C75 C 0.2634(16) 0.9402(16) 0.5401(9)
H56 H 0.3357 0.9666 0.5143
H57 H 0.2094 1.0000 0.5470
H58 H 0.2482 0.8954 0.4973
C48? C 0.650(3) 0.3916(13) 0.6959(11)
C49? C 0.584(2) 0.400(2) 0.633(2)
H27? H 0.5079 0.3957 0.6569
C50? C 0.629(2) 0.413(3) 0.5368(19)
H28? H 0.5838 0.4188 0.4941
C51? C 0.740(2) 0.419(3) 0.5025(10)
C52? C 0.8064(19) 0.411(4) 0.5650(17)
H29? H 0.8824 0.4150 0.5415
C53? C 0.761(3) 0.397(3) 0.6616(15)
H30? H 0.8066 0.3919 0.7043
C54? C 0.801(2) 0.4313(19) 0.4057(19)
F13? F 0.856(3) 0.516(2) 0.3785(16)
F14? F 0.737(2) 0.4348(19) 0.3477(14)
F15? F 0.871(3) 0.350(2) 0.387(3)
C55? C 0.647(2) 0.0035(16) 1.0925(9)
C56? C 0.6157(16) -0.093(2) 1.0796(12)
H31? H 0.5562 -0.0949 1.0526
C57? C 0.6713(19) -0.1864(15) 1.1062(14)
H32? H 0.6498 -0.2523 1.0973
C58? C 0.758(2) -0.1835(17) 1.1457(17)
C59? C 0.790(3) -0.087(2) 1.159(2)
H33? H 0.8496 -0.0851 1.1856
C60? C 0.734(3) 0.0064(16) 1.132(2)
H34? H 0.7560 0.0723 1.1408
C61? C 0.8132(19) -0.280(2) 1.1864(15)
F16? F 0.7810(15) -0.3035(12) 1.2793(11)
F17? F 0.9186(15) -0.2725(18) 1.1717(16)
F18? F 0.800(2) -0.3657(15) 1.1523(19)
F19? F 0.0627(12) 0.1068(13) 1.6685(8)
F20? F -0.0855(15) 0.1265(17) 1.6279(13)
F21? F -0.0261(17) 0.2540(14) 1.672(2)
C62? C 0.188(2) 0.250(3) 1.3371(19)
C63? C 0.110(3) 0.176(3) 1.358(2)
H35? H 0.0988 0.1408 1.3092
C64? C 0.049(2) 0.153(3) 1.450(3)
H36? H -0.0039 0.1018 1.4641
C65? C 0.0656(18) 0.204(3) 1.521(2)
C66? C 0.1431(16) 0.279(2) 1.5003(19)
H37? H 0.1544 0.3137 1.5489
C67? C 0.2041(18) 0.302(2) 1.408(2)
H38? H 0.2571 0.3527 1.3940
C68? C 0.0034(16) 0.1730(14) 1.6225(16)
C69? C 0.3936(13) 0.6008(13) 0.8227(13)
N7? N 0.4901(7) 0.5529(13) 0.7770(8)
N8? N 0.5636(14) 0.6131(12) 0.7053(12)
H39? H 0.563(6) 0.676(3) 0.731(4)
H40? H 0.523(5) 0.641(6) 0.662(4)
O2? O 0.3679(15) 0.6993(12) 0.8126(10)
O4? O 0.5250(15) 0.7072(14) 0.5179(11)
H47? H 0.4654 0.7357 0.5493
C72? C 0.603(2) 0.7533(18) 0.4444(18)
H48? H 0.6028 0.7223 0.3870
H49? H 0.6744 0.7327 0.4586
C73? C 0.595(2) 0.8682(17) 0.4222(19)
H50? H 0.5224 0.8911 0.4132
H51? H 0.6492 0.8899 0.3642
H52? H 0.6070 0.9007 0.4742
O6? O 0.3097(14) 0.7884(13) 0.6292(10)
H59? H 0.3185 0.7745 0.6856
C76? C 0.258(3) 0.883(3) 0.6017(17)
H60? H 0.2827 0.9405 0.6280
H61? H 0.1793 0.8795 0.6280
C77? C 0.280(3) 0.908(3) 0.5012(16)
H62? H 0.2365 0.9716 0.4849
H63? H 0.2609 0.8485 0.4745
H64? H 0.3568 0.9193 0.4755
loop_
_geom_bond_atom_site_label_1
_geom_bond_atom_site_label_2
_geom_bond_site_symmetry_1
_geom_bond_site_symmetry_2
C1 C2 1_555 1_555
C2 C3 1_555 1_555
C3 C4 1_555 1_555
C4 H1 1_555 1_555
C5 C4 1_555 1_555
H2 C5 1_555 1_555
C6 C5 1_555 1_555
C7 C6 1_555 1_555
C8 C7 1_555 1_555
C9 C8 1_555 1_555
H3 C9 1_555 1_555
C10 C9 1_555 1_555
H4 C10 1_555 1_555
C11 C10 1_555 1_555
C12 C11 1_555 1_555
C13 C12 1_555 1_555
C14 C13 1_555 1_555
H5 C14 1_555 1_555
C15 C14 1_555 1_555
H6 C15 1_555 1_555
C16 C15 1_555 1_555
C17 C16 1_555 1_555
C18 C17 1_555 1_555
C19 C17 1_555 1_555
C20 C19 1_555 1_555
H7 C20 1_555 1_555
C21 C20 1_555 1_555
H8 C21 1_555 1_555
C22 C21 1_555 1_555
C23 C22 1_555 1_555
H9 C23 1_555 1_555
C24 C19 1_555 1_555
H10 C24 1_555 1_555
C25 C22 1_555 1_555
C26 C2 1_555 1_555
C27 C26 1_555 1_555
H11 C27 1_555 1_555
C28 C27 1_555 1_555
H12 C28 1_555 1_555
C29 C28 1_555 1_555
C30 C29 1_555 1_555
H13 C30 1_555 1_555
C31 C26 1_555 1_555
H14 C31 1_555 1_555
C32 C29 1_555 1_555
F1 C32 1_555 1_555
F2 C32 1_555 1_555
F3 C32 1_555 1_555
C33 C7 1_555 1_555
C34 C33 1_555 1_555
H15 C34 1_555 1_555
C35 C34 1_555 1_555
H16 C35 1_555 1_555
C36 C35 1_555 1_555
C37 C36 1_555 1_555
H17 C37 1_555 1_555
C38 C33 1_555 1_555
H18 C38 1_555 1_555
C39 C36 1_555 1_555
F4 C39 1_555 1_555
F5 C39 1_555 1_555
F6 C39 1_555 1_555
F7 C46 1_555 1_555
F8 C46 1_555 1_555
F9 C46 1_555 1_555
C40 C12 1_555 1_555
C41 C40 1_555 1_555
H19 C41 1_555 1_555
C42 C41 1_555 1_555
H20 C42 1_555 1_555
C43 C42 1_555 1_555
C44 C43 1_555 1_555
H21 C44 1_555 1_555
C45 C40 1_555 1_555
H22 C45 1_555 1_555
C46 C43 1_555 1_555
F10 C25 1_555 1_555
F11 C25 1_555 1_555
F12 C25 1_555 1_555
N1 C1 1_555 1_555
N2 C3 1_555 1_555
H23 N2 1_555 1_555
N3 C8 1_555 1_555
N4 C13 1_555 1_555
H24 N4 1_555 1_555
C47 C1 1_555 1_555
N5 C18 1_555 1_555
N6 N5 1_555 1_555
H25 N6 1_555 1_555
H26 N6 1_555 1_555
O1 C47 1_555 1_555
O3 H41 1_555 1_555
C70 O3 1_555 1_555
H42 C70 1_555 1_555
H43 C70 1_555 1_555
C71 C70 1_555 1_555
H44 C71 1_555 1_555
H45 C71 1_555 1_555
H46 C71 1_555 1_555
O5 H53 1_555 1_555
C74 O5 1_555 1_555
H54 C74 1_555 1_555
H55 C74 1_555 1_555
C75 C74 1_555 1_555
H56 C75 1_555 1_555
H57 C75 1_555 1_555
H58 C75 1_555 1_555
C6 N2 1_555 1_555
C11 N3 1_555 1_555
C16 N4 1_555 1_555
C18 N1 1_555 1_555
C23 C24 1_555 1_555
C30 C31 1_555 1_555
C37 C38 1_555 1_555
C44 C45 1_555 1_555
C47 N5 1_555 1_555

#END
