
#######################################################################
#
#                 Cambridge Crystallographic Data Centre
#                                CCDC 
#
#######################################################################
#
# If this CIF has been generated from an entry in the Cambridge 
# Structural Database, then it will include bibliographic, chemical, 
# crystal, experimental, refinement or atomic coordinate data resulting 
# from the CCDC's data processing and validation procedures.
#
#######################################################################

data_YIGZIA
_chemical_name_common            
'6H,11H,23H,28H-2,15,19,32-tetra-t-butyl-6,11:23,28-bis([1,2]-benzenoanthra)[2,3-d:2 ,3 -o]tetrabenzo[a,g,l,r]ovalene-7,34-dione unknown solvate'
_chemical_formula_moiety         'C100 H72 O2'
_chemical_name_systematic        
'2,9,13,20-tetra-t-butyl-5,6:16,17-bis([4,5]triptyceno)tetrabenzo[a,g,l,r]ovalene-11,22-dione unknown solvate'
_symmetry_cell_setting           triclinic
_symmetry_space_group_name_H-M   'P -1'
_symmetry_Int_Tables_number      2
_space_group_name_Hall           '-P 1'
loop_
_symmetry_equiv_pos_site_id
_symmetry_equiv_pos_as_xyz
1 x,y,z
2 -x,-y,-z
_cell_length_a                   13.5060(8)
_cell_length_b                   13.6468(11)
_cell_length_c                   14.0943(9)
_cell_angle_alpha                84.424(7)
_cell_angle_beta                 67.605(5)
_cell_angle_gamma                60.715(4)
_cell_volume                     2082.03
_exptl_crystal_colour            'dark violet'
_exptl_crystal_description       polyhedron
_cell_formula_units_Z            1
loop_
_atom_site_label
_atom_site_type_symbol
_atom_site_fract_x
_atom_site_fract_y
_atom_site_fract_z
C1 C 0.3028(4) 0.5980(4) 0.3419(3)
C2 C 0.3756(4) 0.6496(4) 0.3276(4)
H1 H 0.434926 0.620764 0.358095
C3 C 0.3636(4) 0.7391(4) 0.2717(4)
H2 H 0.413901 0.771599 0.264911
C4 C 0.2791(4) 0.7840(4) 0.2243(4)
C5 C 0.2053(4) 0.7368(4) 0.2374(4)
H3 H 0.147692 0.766041 0.205050
C6 C 0.2133(4) 0.6444(4) 0.2985(3)
C7 C 0.1261(4) 0.6043(4) 0.3246(3)
C8 C 0.0520(4) 0.6248(4) 0.2641(4)
O1 O 0.0840(3) 0.6512(3) 0.1763(3)
C9 C -0.0578(4) 0.6102(4) 0.3102(3)
C10 C -0.1414(4) 0.6389(4) 0.2601(3)
C11 C -0.1176(4) 0.6652(4) 0.1564(4)
H4 H -0.045535 0.671095 0.120551
C12 C -0.1922(4) 0.6827(4) 0.1044(4)
C13 C -0.2967(4) 0.6704(4) 0.1578(4)
H5 H -0.348328 0.678540 0.123556
C14 C -0.3249(4) 0.6473(4) 0.2573(4)
H6 H -0.395446 0.638467 0.290335
C15 C -0.2536(4) 0.6359(4) 0.3142(3)
C16 C -0.2829(4) 0.6097(4) 0.4181(3)
C17 C -0.4059(4) 0.6311(4) 0.4872(3)
C18 C -0.5129(4) 0.7240(4) 0.4792(4)
H7 H -0.505642 0.769170 0.424005
C19 C -0.6269(4) 0.7485(4) 0.5511(4)
C20 C -0.7502(4) 0.8553(4) 0.5626(4)
H8 H -0.741891 0.904480 0.505989
C21 C -0.8382(4) 0.8134(4) 0.5691(4)
C22 C -0.9087(4) 0.8418(4) 0.5109(4)
H9 H -0.901624 0.888957 0.457379
C23 C -0.9896(4) 0.8014(5) 0.5308(4)
H10 H -1.039480 0.821976 0.491737
C24 C -0.9984(4) 0.7308(5) 0.6075(4)
H11 H -1.054410 0.703485 0.620399
C25 C -0.9273(4) 0.6997(4) 0.6653(4)
H12 H -0.932175 0.649648 0.716415
C26 C -0.8488(4) 0.7428(4) 0.6476(4)
C27 C -0.7988(4) 0.9149(4) 0.6687(4)
C28 C -0.8283(4) 1.0251(4) 0.6912(4)
H13 H -0.819541 1.071858 0.637740
C29 C -0.8707(5) 1.0649(5) 0.7929(5)
H14 H -0.892786 1.140523 0.809766
C30 C -0.8816(5) 0.9963(5) 0.8706(5)
H15 H -0.910743 1.025579 0.940097
C31 C -0.8515(4) 0.8877(5) 0.8497(4)
H16 H -0.859096 0.841588 0.903975
C32 C -0.8095(4) 0.8450(4) 0.7485(4)
C33 C -0.7705(4) 0.7275(4) 0.7088(4)
H17 H -0.778777 0.678397 0.765407
C34 C -0.6403(4) 0.6823(4) 0.6331(4)
C35 C -0.5370(4) 0.5939(4) 0.6426(4)
H18 H -0.545884 0.549768 0.698393
C36 C -0.4179(4) 0.5668(4) 0.5715(3)
C37 C 0.3089(4) 0.5117(4) 0.4076(3)
C38 C 0.2066(4) 0.4961(4) 0.4524(3)
C39 C 0.1141(4) 0.5421(4) 0.4096(3)
C40 C 0.0086(4) 0.5260(4) 0.4553(3)
C41 C -0.0803(4) 0.5672(4) 0.4064(3)
C42 C -0.1912(4) 0.5622(4) 0.4579(3)
C43 C 0.2644(4) 0.8872(4) 0.1649(4)
C44 C -0.1647(4) 0.7137(4) -0.0056(4)
C45 C 0.1890(8) 0.9903(5) 0.2443(6)
H19 H 0.108031 0.997700 0.285028
H20 H 0.231391 0.981603 0.290212
H21 H 0.178965 1.058024 0.209034
C46 C 0.3859(5) 0.8786(5) 0.1050(5)
H22 H 0.427365 0.869931 0.151634
H23 H 0.436044 0.812814 0.052748
H24 H 0.374603 0.947268 0.071011
C47 C 0.2019(9) 0.9003(8) 0.0940(7)
H25 H 0.121427 0.905999 0.133443
H26 H 0.190711 0.968955 0.059988
H27 H 0.252153 0.834501 0.041724
C48 C -0.0564(6) 0.7347(6) -0.0459(4)
H28 H -0.071976 0.794685 -0.000136
H29 H 0.018031 0.665218 -0.048094
H30 H -0.045148 0.757920 -0.115558
C49 C -0.1426(7) 0.6213(6) -0.0751(4)
H31 H -0.213299 0.608581 -0.048089
H32 H -0.131602 0.644095 -0.144877
H33 H -0.068424 0.551393 -0.077413
C50 C -0.2753(5) 0.8226(6) -0.0079(5)
H34 H -0.290723 0.883246 0.036881
H35 H -0.259238 0.842763 -0.078794
H36 H -0.347542 0.812155 0.016607
C1A C -0.3028(4) 0.4020(4) 0.6581(3)
C2A C -0.3756(4) 0.3504(4) 0.6724(4)
H1A H -0.434926 0.379236 0.641905
C3A C -0.3636(4) 0.2609(4) 0.7283(4)
H2A H -0.413901 0.228401 0.735089
C4A C -0.2791(4) 0.2160(4) 0.7757(4)
C5A C -0.2053(4) 0.2632(4) 0.7626(4)
H3A H -0.147692 0.233959 0.794950
C6A C -0.2133(4) 0.3556(4) 0.7015(3)
C7A C -0.1261(4) 0.3957(4) 0.6754(3)
C8A C -0.0520(4) 0.3752(4) 0.7359(4)
O1A O -0.0840(3) 0.3488(3) 0.8237(3)
C9A C 0.0578(4) 0.3898(4) 0.6898(3)
C10A C 0.1414(4) 0.3611(4) 0.7399(3)
C11A C 0.1176(4) 0.3348(4) 0.8436(4)
H4A H 0.045535 0.328905 0.879449
C12A C 0.1922(4) 0.3173(4) 0.8956(4)
C13A C 0.2967(4) 0.3296(4) 0.8422(4)
H5A H 0.348328 0.321460 0.876444
C14A C 0.3249(4) 0.3527(4) 0.7427(4)
H6A H 0.395446 0.361533 0.709665
C15A C 0.2536(4) 0.3641(4) 0.6858(3)
C16A C 0.2829(4) 0.3903(4) 0.5819(3)
C17A C 0.4059(4) 0.3689(4) 0.5128(3)
C18A C 0.5129(4) 0.2760(4) 0.5208(4)
H7A H 0.505642 0.230830 0.575995
C19A C 0.6269(4) 0.2515(4) 0.4489(4)
C20A C 0.7502(4) 0.1447(4) 0.4374(4)
H8A H 0.741891 0.095520 0.494011
C21A C 0.8382(4) 0.1866(4) 0.4309(4)
C22A C 0.9087(4) 0.1582(4) 0.4891(4)
H9A H 0.901624 0.111043 0.542621
C23A C 0.9896(4) 0.1986(5) 0.4692(4)
H10A H 1.039480 0.178024 0.508263
C24A C 0.9984(4) 0.2692(5) 0.3925(4)
H11A H 1.054410 0.296515 0.379601
C25A C 0.9273(4) 0.3003(4) 0.3347(4)
H12A H 0.932175 0.350352 0.283585
C26A C 0.8488(4) 0.2572(4) 0.3524(4)
C27A C 0.7988(4) 0.0851(4) 0.3313(4)
C28A C 0.8283(4) -0.0251(4) 0.3088(4)
H13A H 0.819541 -0.071858 0.362260
C29A C 0.8707(5) -0.0649(5) 0.2071(5)
H14A H 0.892786 -0.140523 0.190234
C30A C 0.8816(5) 0.0037(5) 0.1294(5)
H15A H 0.910743 -0.025579 0.059903
C31A C 0.8515(4) 0.1123(5) 0.1503(4)
H16A H 0.859096 0.158412 0.096025
C32A C 0.8095(4) 0.1550(4) 0.2515(4)
C33A C 0.7705(4) 0.2725(4) 0.2912(4)
H17A H 0.778777 0.321603 0.234593
C34A C 0.6403(4) 0.3177(4) 0.3669(4)
C35A C 0.5370(4) 0.4061(4) 0.3574(4)
H18A H 0.545884 0.450232 0.301607
C36A C 0.4179(4) 0.4332(4) 0.4285(3)
C37A C -0.3089(4) 0.4883(4) 0.5924(3)
C38A C -0.2066(4) 0.5039(4) 0.5476(3)
C39A C -0.1141(4) 0.4579(4) 0.5904(3)
C40A C -0.0086(4) 0.4740(4) 0.5447(3)
C41A C 0.0803(4) 0.4328(4) 0.5936(3)
C42A C 0.1912(4) 0.4378(4) 0.5421(3)
C43A C -0.2644(4) 0.1128(4) 0.8351(4)
C44A C 0.1647(4) 0.2863(4) 1.0056(4)
C45A C -0.1890(8) 0.0097(5) 0.7557(6)
H19A H -0.108031 0.002300 0.714972
H20A H -0.231391 0.018397 0.709788
H21A H -0.178965 -0.058024 0.790966
C46A C -0.3859(5) 0.1214(5) 0.8950(5)
H22A H -0.427365 0.130069 0.848366
H23A H -0.436044 0.187186 0.947252
H24A H -0.374603 0.052732 0.928989
C47A C -0.2019(9) 0.0997(8) 0.9060(7)
H25A H -0.121427 0.094001 0.866557
H26A H -0.190711 0.031045 0.940012
H27A H -0.252153 0.165499 0.958276
C48A C 0.0564(6) 0.2653(6) 1.0459(4)
H28A H 0.071976 0.205315 1.000136
H29A H -0.018031 0.334782 1.048094
H30A H 0.045148 0.242080 1.115558
C49A C 0.1426(7) 0.3787(6) 1.0751(4)
H31A H 0.213299 0.391419 1.048089
H32A H 0.131602 0.355905 1.144877
H33A H 0.068424 0.448607 1.077413
C50A C 0.2753(5) 0.1774(6) 1.0079(5)
H34A H 0.290723 0.116754 0.963119
H35A H 0.259238 0.157237 1.078794
H36A H 0.347542 0.187845 0.983393
loop_
_geom_bond_atom_site_label_1
_geom_bond_atom_site_label_2
_geom_bond_site_symmetry_1
_geom_bond_site_symmetry_2
C1 C2 1_555 1_555
C2 H1 1_555 1_555
C3 C2 1_555 1_555
H2 C3 1_555 1_555
C4 C3 1_555 1_555
C5 C4 1_555 1_555
H3 C5 1_555 1_555
C6 C1 1_555 1_555
C7 C6 1_555 1_555
C8 C7 1_555 1_555
O1 C8 1_555 1_555
C9 C8 1_555 1_555
C10 C9 1_555 1_555
C11 C10 1_555 1_555
H4 C11 1_555 1_555
C12 C11 1_555 1_555
C13 C12 1_555 1_555
H5 C13 1_555 1_555
C14 C13 1_555 1_555
H6 C14 1_555 1_555
C15 C10 1_555 1_555
C16 C15 1_555 1_555
C17 C16 1_555 1_555
C18 C17 1_555 1_555
H7 C18 1_555 1_555
C19 C18 1_555 1_555
C20 C19 1_555 1_555
H8 C20 1_555 1_555
C21 C20 1_555 1_555
C22 C21 1_555 1_555
H9 C22 1_555 1_555
C23 C22 1_555 1_555
H10 C23 1_555 1_555
C24 C23 1_555 1_555
H11 C24 1_555 1_555
C25 C24 1_555 1_555
H12 C25 1_555 1_555
C26 C21 1_555 1_555
C27 C20 1_555 1_555
C28 C27 1_555 1_555
H13 C28 1_555 1_555
C29 C28 1_555 1_555
H14 C29 1_555 1_555
C30 C29 1_555 1_555
H15 C30 1_555 1_555
C31 C30 1_555 1_555
H16 C31 1_555 1_555
C32 C27 1_555 1_555
C33 C26 1_555 1_555
H17 C33 1_555 1_555
C34 C19 1_555 1_555
C35 C34 1_555 1_555
H18 C35 1_555 1_555
C36 C17 1_555 1_555
C37 C1 1_555 1_555
C38 C37 1_555 1_555
C39 C7 1_555 1_555
C40 C39 1_555 1_555
C41 C9 1_555 1_555
C42 C16 1_555 1_555
C43 C4 1_555 1_555
C44 C12 1_555 1_555
C45 C43 1_555 1_555
H19 C45 1_555 1_555
H20 C45 1_555 1_555
H21 C45 1_555 1_555
C46 C43 1_555 1_555
H22 C46 1_555 1_555
H23 C46 1_555 1_555
H24 C46 1_555 1_555
C47 C43 1_555 1_555
H25 C47 1_555 1_555
H26 C47 1_555 1_555
H27 C47 1_555 1_555
C48 C44 1_555 1_555
H28 C48 1_555 1_555
H29 C48 1_555 1_555
H30 C48 1_555 1_555
C49 C44 1_555 1_555
H31 C49 1_555 1_555
H32 C49 1_555 1_555
H33 C49 1_555 1_555
C50 C44 1_555 1_555
H34 C50 1_555 1_555
H35 C50 1_555 1_555
H36 C50 1_555 1_555
C1A C2A 1_555 1_555
C2A H1A 1_555 1_555
C3A C2A 1_555 1_555
H2A C3A 1_555 1_555
C4A C3A 1_555 1_555
C5A C4A 1_555 1_555
H3A C5A 1_555 1_555
C6A C1A 1_555 1_555
C7A C6A 1_555 1_555
C8A C7A 1_555 1_555
O1A C8A 1_555 1_555
C9A C8A 1_555 1_555
C10A C9A 1_555 1_555
C11A C10A 1_555 1_555
H4A C11A 1_555 1_555
C12A C11A 1_555 1_555
C13A C12A 1_555 1_555
H5A C13A 1_555 1_555
C14A C13A 1_555 1_555
H6A C14A 1_555 1_555
C15A C10A 1_555 1_555
C16A C15A 1_555 1_555
C17A C16A 1_555 1_555
C18A C17A 1_555 1_555
H7A C18A 1_555 1_555
C19A C18A 1_555 1_555
C20A C19A 1_555 1_555
H8A C20A 1_555 1_555
C21A C20A 1_555 1_555
C22A C21A 1_555 1_555
H9A C22A 1_555 1_555
C23A C22A 1_555 1_555
H10A C23A 1_555 1_555
C24A C23A 1_555 1_555
H11A C24A 1_555 1_555
C25A C24A 1_555 1_555
H12A C25A 1_555 1_555
C26A C21A 1_555 1_555
C27A C20A 1_555 1_555
C28A C27A 1_555 1_555
H13A C28A 1_555 1_555
C29A C28A 1_555 1_555
H14A C29A 1_555 1_555
C30A C29A 1_555 1_555
H15A C30A 1_555 1_555
C31A C30A 1_555 1_555
H16A C31A 1_555 1_555
C32A C27A 1_555 1_555
C33A C26A 1_555 1_555
H17A C33A 1_555 1_555
C34A C19A 1_555 1_555
C35A C34A 1_555 1_555
H18A C35A 1_555 1_555
C36A C37 1_555 1_555
C37A C36 1_555 1_555
C38A C42 1_555 1_555
C39A C7A 1_555 1_555
C40A C40 1_555 1_555
C41A C9A 1_555 1_555
C42A C38 1_555 1_555
C43A C4A 1_555 1_555
C44A C12A 1_555 1_555
C45A C43A 1_555 1_555
H19A C45A 1_555 1_555
H20A C45A 1_555 1_555
H21A C45A 1_555 1_555
C46A C43A 1_555 1_555
H22A C46A 1_555 1_555
H23A C46A 1_555 1_555
H24A C46A 1_555 1_555
C47A C43A 1_555 1_555
H25A C47A 1_555 1_555
H26A C47A 1_555 1_555
H27A C47A 1_555 1_555
C48A C44A 1_555 1_555
H28A C48A 1_555 1_555
H29A C48A 1_555 1_555
H30A C48A 1_555 1_555
C49A C44A 1_555 1_555
H31A C49A 1_555 1_555
H32A C49A 1_555 1_555
H33A C49A 1_555 1_555
C50A C44A 1_555 1_555
H34A C50A 1_555 1_555
H35A C50A 1_555 1_555
H36A C50A 1_555 1_555
C5 C6 1_555 1_555
C14 C15 1_555 1_555
C25 C26 1_555 1_555
C31 C32 1_555 1_555
C32 C33 1_555 1_555
C33 C34 1_555 1_555
C35 C36 1_555 1_555
C38 C39 1_555 1_555
C40 C41 1_555 1_555
C41 C42 1_555 1_555
C1A C37A 1_555 1_555
C5A C6A 1_555 1_555
C14A C15A 1_555 1_555
C16A C42A 1_555 1_555
C17A C36A 1_555 1_555
C25A C26A 1_555 1_555
C31A C32A 1_555 1_555
C32A C33A 1_555 1_555
C33A C34A 1_555 1_555
C35A C36A 1_555 1_555
C37A C38A 1_555 1_555
C38A C39A 1_555 1_555
C39A C40A 1_555 1_555
C40A C41A 1_555 1_555
C41A C42A 1_555 1_555

#END
