
#######################################################################
#
#                 Cambridge Crystallographic Data Centre
#                                CCDC 
#
#######################################################################
#
# If this CIF has been generated from an entry in the Cambridge 
# Structural Database, then it will include bibliographic, chemical, 
# crystal, experimental, refinement or atomic coordinate data resulting 
# from the CCDC's data processing and validation procedures.
#
#######################################################################

data_YIHDIE
_chemical_formula_moiety         'C24 H28 N1 O4 1+,I1 1-,0.78(C1 H4 O1)'
_chemical_name_systematic        
'2,3,6,7-Tetramethoxy-9,11,12,13,13a,14-hexahydrodibenzo[f,h]pyrrolo[1,2-b]isoquinolinium iodide methanol solvate'
_symmetry_cell_setting           monoclinic
_symmetry_space_group_name_H-M   'C 2/c'
_symmetry_Int_Tables_number      15
_space_group_name_Hall           '-C 2yn'
loop_
_symmetry_equiv_pos_site_id
_symmetry_equiv_pos_as_xyz
1 x,y,z
2 -x,y,1/2-z
3 1/2+x,1/2+y,z
4 1/2-x,1/2+y,1/2-z
5 -x,-y,-z
6 x,-y,1/2+z
7 1/2-x,1/2-y,-z
8 1/2+x,1/2-y,1/2+z
_cell_length_a                   14.507(3)
_cell_length_b                   16.714(3)
_cell_length_c                   20.116(4)
_cell_angle_alpha                90
_cell_angle_beta                 92.21(3)
_cell_angle_gamma                90
_cell_volume                     4873.9
_exptl_crystal_colour            colorless
_exptl_crystal_description       Prism
_cell_formula_units_Z            8
loop_
_atom_site_label
_atom_site_type_symbol
_atom_site_fract_x
_atom_site_fract_y
_atom_site_fract_z
O1 O 0.1192(3) 0.7816(2) 0.34728(17)
O2 O 0.1090(3) 0.9213(2) 0.39804(16)
O3 O 0.1213(3) 0.9665(2) 0.76015(17)
O4 O 0.1237(3) 0.8414(2) 0.83288(17)
C1 C 0.1376(6) 0.4254(3) 0.5656(3)
H1 H 0.0897 0.4038 0.5352
H2 H 0.1990 0.4250 0.5434
C2 C 0.1373(5) 0.3804(3) 0.6298(3)
H3 H 0.1916 0.3445 0.6338
H4 H 0.0807 0.3475 0.6319
C3 C 0.1407(5) 0.4421(3) 0.6856(3)
H5 H 0.1848 0.4275 0.7213
H6 H 0.0772 0.4474 0.7041
N1 N 0.1104(7) 0.5128(5) 0.5860(5)
H7 H 0.0477 0.5167 0.5935
C4 C 0.1661(9) 0.5191(10) 0.6489(6)
H8 H 0.2331 0.5181 0.6390
C5 C 0.1444(4) 0.5950(3) 0.6837(3)
H9 H 0.1905 0.6046 0.7193
H10 H 0.0824 0.5874 0.7043
C6 C 0.1386(3) 0.6659(3) 0.6374(2)
C7 C 0.1328(3) 0.7441(3) 0.6678(2)
C8 C 0.1312(3) 0.7536(3) 0.7376(2)
H11 H 0.1339 0.7075 0.7652
C9 C 0.1260(4) 0.8266(3) 0.7660(2)
C10 C 0.1243(4) 0.8961(3) 0.7255(2)
C11 C 0.1261(4) 0.8888(3) 0.6578(2)
H12 H 0.1256 0.9358 0.6312
C12 C 0.1287(3) 0.8127(3) 0.6264(2)
C13 C 0.1264(3) 0.8032(3) 0.5547(2)
C14 C 0.1199(3) 0.8696(3) 0.5107(2)
H13 H 0.1180 0.9221 0.5287
C15 C 0.1161(4) 0.8602(3) 0.4436(2)
C16 C 0.1216(4) 0.7827(3) 0.4150(2)
C17 C 0.1282(4) 0.7174(3) 0.4565(2)
H14 H 0.1319 0.6654 0.4378
C18 C 0.1298(3) 0.7260(3) 0.5264(2)
C19 C 0.1366(3) 0.6572(3) 0.5701(2)
C20 C 0.1401(4) 0.5753(3) 0.5381(3)
H15 H 0.0987 0.5754 0.4988
H16 H 0.2045 0.5635 0.5235
C21 C 0.1248(4) 0.7060(3) 0.3148(3)
H17 H 0.1811 0.6783 0.3304
H18 H 0.1262 0.7142 0.2666
H19 H 0.0709 0.6736 0.3251
C22 C 0.0801(5) 0.9972(3) 0.4217(3)
H20 H 0.0211 0.9913 0.4435
H21 H 0.0725 1.0344 0.3843
H22 H 0.1266 1.0181 0.4538
C23 C 0.1168(5) 1.0391(3) 0.7231(3)
H23 H 0.1696 1.0422 0.6942
H24 H 0.1184 1.0847 0.7538
H25 H 0.0594 1.0405 0.6958
C24 C 0.1164(4) 0.7739(4) 0.8754(3)
H26 H 0.0607 0.7436 0.8627
H27 H 0.1129 0.7920 0.9216
H28 H 0.1707 0.7397 0.8712
I1 I 0.38109(3) 0.03166(2) 0.63135(2)
H29? H 0.0732 0.4287 0.5478
H30? H 0.1791 0.4020 0.5319
H31? H 0.2021 0.4456 0.7081
H32? H 0.0922 0.4287 0.7183
N2? N 0.1197(8) 0.5204(8) 0.6488(5)
H33? H 0.0571 0.5217 0.6370
C25? C 0.1724(9) 0.5111(6) 0.5877(6)
H34? H 0.2406 0.5126 0.5970
H35? H 0.2085 0.5882 0.7013
H36? H 0.1017 0.6033 0.7214
H37? H 0.0773 0.5627 0.5204
H38? H 0.1840 0.5775 0.5005
loop_
_geom_bond_atom_site_label_1
_geom_bond_atom_site_label_2
_geom_bond_site_symmetry_1
_geom_bond_site_symmetry_2
O1 C16 1_555 1_555
O2 C15 1_555 1_555
O3 C10 1_555 1_555
O4 C9 1_555 1_555
C1 H1 1_555 1_555
H2 C1 1_555 1_555
C2 C1 1_555 1_555
H3 C2 1_555 1_555
H4 C2 1_555 1_555
C3 C2 1_555 1_555
H5 C3 1_555 1_555
H6 C3 1_555 1_555
N1 C1 1_555 1_555
H7 N1 1_555 1_555
C4 C3 1_555 1_555
H8 C4 1_555 1_555
C5 C4 1_555 1_555
H9 C5 1_555 1_555
H10 C5 1_555 1_555
C6 C5 1_555 1_555
C7 C6 1_555 1_555
C8 C7 1_555 1_555
H11 C8 1_555 1_555
C9 C8 1_555 1_555
C10 C9 1_555 1_555
C11 C10 1_555 1_555
H12 C11 1_555 1_555
C12 C7 1_555 1_555
C13 C12 1_555 1_555
C14 C13 1_555 1_555
H13 C14 1_555 1_555
C15 C14 1_555 1_555
C16 C15 1_555 1_555
C17 C16 1_555 1_555
H14 C17 1_555 1_555
C18 C13 1_555 1_555
C19 C6 1_555 1_555
C20 N1 1_555 1_555
H15 C20 1_555 1_555
H16 C20 1_555 1_555
C21 O1 1_555 1_555
H17 C21 1_555 1_555
H18 C21 1_555 1_555
H19 C21 1_555 1_555
C22 O2 1_555 1_555
H20 C22 1_555 1_555
H21 C22 1_555 1_555
H22 C22 1_555 1_555
C23 O3 1_555 1_555
H23 C23 1_555 1_555
H24 C23 1_555 1_555
H25 C23 1_555 1_555
C24 O4 1_555 1_555
H26 C24 1_555 1_555
H27 C24 1_555 1_555
H28 C24 1_555 1_555
N1 C4 1_555 1_555
C11 C12 1_555 1_555
C17 C18 1_555 1_555
C18 C19 1_555 1_555
C19 C20 1_555 1_555

#END
