
#######################################################################
#
#                 Cambridge Crystallographic Data Centre
#                                CCDC 
#
#######################################################################
#
# If this CIF has been generated from an entry in the Cambridge 
# Structural Database, then it will include bibliographic, chemical, 
# crystal, experimental, refinement or atomic coordinate data resulting 
# from the CCDC's data processing and validation procedures.
#
#######################################################################

data_YIHFOK
_chemical_formula_moiety         'C24 H16 O3 S2'
_chemical_name_systematic        1,9-bis(Phenylsulfinyl)dibenzofuran
_symmetry_cell_setting           monoclinic
_symmetry_space_group_name_H-M   'P 21/n'
_symmetry_Int_Tables_number      14
_space_group_name_Hall           '-P 2yn'
loop_
_symmetry_equiv_pos_site_id
_symmetry_equiv_pos_as_xyz
1 x,y,z
2 1/2-x,1/2+y,1/2-z
3 -x,-y,-z
4 1/2+x,1/2-y,1/2+z
_cell_length_a                   10.578
_cell_length_b                   12.640
_cell_length_c                   14.405
_cell_angle_alpha                90
_cell_angle_beta                 93.38
_cell_angle_gamma                90
_cell_volume                     1922.68
_exptl_crystal_colour            colorless
_chemical_melting_point          '254-258 deg.C'
_cell_formula_units_Z            4
loop_
_atom_site_label
_atom_site_type_symbol
_atom_site_fract_x
_atom_site_fract_y
_atom_site_fract_z
S1 S 0.50454(8) 0.01952(7) 0.70455(6)
S2 S 0.73534(8) -0.08192(7) 0.81218(6)
O1 O 0.4394(2) -0.0834(2) 0.7172(2)
O2 O 0.7962(3) -0.1834(2) 0.8427(2)
O3 O 0.5251(3) 0.1780(2) 1.0299(2)
C1 C 0.4561(4) 0.1770(3) 0.9460(2)
C2 C 0.3461(4) 0.2325(3) 0.9303(3)
C3 C 0.2863(4) 0.2271(3) 0.8431(3)
C4 C 0.3379(4) 0.1653(3) 0.7749(3)
C5 C 0.4483(3) 0.1084(3) 0.7913(2)
C6 C 0.5124(3) 0.1128(3) 0.8799(2)
C7 C 0.6264(3) 0.1132(3) 1.0191(2)
C8 C 0.7158(4) 0.0934(4) 1.0900(2)
C9 C 0.8124(4) 0.0275(4) 1.0705(3)
C10 C 0.8184(4) -0.0211(4) 0.9851(3)
C11 C 0.7259(3) -0.0004(3) 0.9149(2)
C12 C 0.6259(3) 0.0693(3) 0.9293(2)
C13 C 0.4340(3) 0.0787(3) 0.6011(2)
C14 C 0.3373(3) 0.0242(3) 0.5533(2)
C15 C 0.2841(4) 0.0663(4) 0.4718(3)
C16 C 0.3264(5) 0.1589(4) 0.4385(3)
C17 C 0.4245(5) 0.2116(4) 0.4846(3)
C18 C 0.4802(4) 0.1715(3) 0.5677(3)
C19 C 0.8561(3) -0.0086(3) 0.7568(2)
C20 C 0.9545(4) -0.0656(3) 0.7232(3)
C21 C 1.0417(4) -0.0137(4) 0.6724(3)
C22 C 1.0318(4) 0.0927(4) 0.6562(3)
C23 C 0.9346(4) 0.1488(3) 0.6910(3)
C24 C 0.8454(4) 0.0981(3) 0.7411(3)
H1 H 0.309(3) 0.273(3) 0.979(2)
H2 H 0.207(3) 0.260(3) 0.834(2)
H3 H 0.293(3) 0.161(3) 0.716(2)
H4 H 0.707(3) 0.119(3) 1.147(2)
H5 H 0.872(3) 0.010(3) 1.114(2)
H6 H 0.886(3) -0.073(3) 0.969(2)
H7 H 0.317(3) -0.042(3) 0.579(2)
H8 H 0.209(3) 0.036(3) 0.443(2)
H9 H 0.285(3) 0.191(3) 0.381(2)
H10 H 0.454(3) 0.267(3) 0.469(2)
H11 H 0.545(3) 0.200(3) 0.602(2)
H12 H 0.955(3) -0.140(3) 0.735(2)
H13 H 1.111(3) -0.053(3) 0.657(2)
H14 H 1.090(3) 0.127(3) 0.618(2)
H15 H 0.931(3) 0.213(3) 0.682(2)
H16 H 0.780(3) 0.141(3) 0.762(2)
loop_
_geom_bond_atom_site_label_1
_geom_bond_atom_site_label_2
_geom_bond_site_symmetry_1
_geom_bond_site_symmetry_2
S1 O1 1_555 1_555
S2 O2 1_555 1_555
O3 C1 1_555 1_555
C1 C2 1_555 1_555
C2 C3 1_555 1_555
C3 C4 1_555 1_555
C4 C5 1_555 1_555
C5 S1 1_555 1_555
C6 C1 1_555 1_555
C7 O3 1_555 1_555
C8 C7 1_555 1_555
C9 C8 1_555 1_555
C10 C9 1_555 1_555
C11 S2 1_555 1_555
C12 C6 1_555 1_555
C13 S1 1_555 1_555
C14 C13 1_555 1_555
C15 C14 1_555 1_555
C16 C15 1_555 1_555
C17 C16 1_555 1_555
C18 C13 1_555 1_555
C19 S2 1_555 1_555
C20 C19 1_555 1_555
C21 C20 1_555 1_555
C22 C21 1_555 1_555
C23 C22 1_555 1_555
C24 C19 1_555 1_555
H1 C2 1_555 1_555
H2 C3 1_555 1_555
H3 C4 1_555 1_555
H4 C8 1_555 1_555
H5 C9 1_555 1_555
H6 C10 1_555 1_555
H7 C14 1_555 1_555
H8 C15 1_555 1_555
H9 C16 1_555 1_555
H10 C17 1_555 1_555
H11 C18 1_555 1_555
H12 C20 1_555 1_555
H13 C21 1_555 1_555
H14 C22 1_555 1_555
H15 C23 1_555 1_555
H16 C24 1_555 1_555
C5 C6 1_555 1_555
C7 C12 1_555 1_555
C10 C11 1_555 1_555
C11 C12 1_555 1_555
C17 C18 1_555 1_555
C23 C24 1_555 1_555

#END
