
#######################################################################
#
#                 Cambridge Crystallographic Data Centre
#                                CCDC 
#
#######################################################################
#
# If this CIF has been generated from an entry in the Cambridge 
# Structural Database, then it will include bibliographic, chemical, 
# crystal, experimental, refinement or atomic coordinate data resulting 
# from the CCDC's data processing and validation procedures.
#
#######################################################################

data_YIHFAW
_chemical_formula_moiety         'C24 H16 S1 Se2'
_chemical_name_systematic        1,9-bis(Phenylseleno)dibenzothiophene
_symmetry_cell_setting           monoclinic
_symmetry_space_group_name_H-M   'P 21/n'
_symmetry_Int_Tables_number      14
_space_group_name_Hall           '-P 2yn'
loop_
_symmetry_equiv_pos_site_id
_symmetry_equiv_pos_as_xyz
1 x,y,z
2 1/2-x,1/2+y,1/2-z
3 -x,-y,-z
4 1/2+x,1/2-y,1/2+z
_cell_length_a                   13.618
_cell_length_b                   8.122
_cell_length_c                   18.063
_cell_angle_alpha                90
_cell_angle_beta                 96.40
_cell_angle_gamma                90
_cell_volume                     1985.41
_exptl_crystal_colour            colorless
_chemical_melting_point          '176-176.5 deg.C'
_cell_formula_units_Z            4
loop_
_atom_site_label
_atom_site_type_symbol
_atom_site_fract_x
_atom_site_fract_y
_atom_site_fract_z
Se1 Se 0.40471(4) 0.02730(6) 0.58669(3)
Se2 Se 0.53970(4) 0.11624(7) 0.73068(3)
S1 S 0.3453(1) -0.4490(2) 0.79483(8)
C1 C 0.3793(3) -0.4102(6) 0.7063(3)
C2 C 0.3750(4) -0.5282(6) 0.6505(3)
C3 C 0.3954(4) -0.4810(6) 0.5819(3)
C4 C 0.4142(4) -0.3171(6) 0.5659(3)
C5 C 0.4140(3) -0.1976(6) 0.6224(3)
C6 C 0.4042(3) -0.2447(6) 0.6954(2)
C7 C 0.3714(3) -0.2455(6) 0.8212(3)
C8 C 0.3623(4) -0.1855(7) 0.8915(3)
C9 C 0.3904(4) -0.0247(8) 0.9073(3)
C10 C 0.4347(4) 0.0678(6) 0.8556(3)
C11 C 0.4468(3) 0.0050(6) 0.7856(3)
C12 C 0.4074(3) -0.1526(6) 0.7651(3)
C13 C 0.2865(3) -0.0013(6) 0.5176(2)
C14 C 0.2077(3) -0.0966(6) 0.5348(3)
C15 C 0.1213(4) -0.1006(7) 0.4869(3)
C16 C 0.1141(4) -0.0090(8) 0.4222(3)
C17 C 0.1925(5) 0.0834(8) 0.4049(3)
C18 C 0.2800(4) 0.0880(7) 0.4521(3)
C19 C 0.6602(3) 0.0472(6) 0.7888(2)
C20 C 0.6646(3) -0.0515(7) 0.8513(3)
C21 C 0.7555(4) -0.0913(7) 0.8892(3)
C22 C 0.8406(4) -0.0308(8) 0.8658(3)
C23 C 0.8359(4) 0.0656(8) 0.8041(3)
C24 C 0.7461(4) 0.1059(7) 0.7646(3)
H1 H 0.355(3) -0.641(5) 0.663(2)
H2 H 0.398(3) -0.548(5) 0.544(2)
H3 H 0.426(3) -0.271(5) 0.512(2)
H4 H 0.340(3) -0.254(5) 0.927(2)
H5 H 0.379(3) 0.021(5) 0.951(2)
H6 H 0.462(3) 0.177(5) 0.867(2)
H7 H 0.216(3) -0.161(5) 0.578(2)
H8 H 0.066(3) -0.172(5) 0.499(2)
H9 H 0.055(3) -0.016(6) 0.392(2)
H10 H 0.202(3) 0.130(5) 0.359(2)
H11 H 0.345(3) 0.147(5) 0.440(2)
H12 H 0.605(3) -0.095(5) 0.867(2)
H13 H 0.761(3) -0.165(5) 0.929(2)
H14 H 0.900(3) -0.058(5) 0.891(2)
H15 H 0.887(3) 0.107(5) 0.788(2)
H16 H 0.743(3) 0.173(5) 0.722(2)
loop_
_geom_bond_atom_site_label_1
_geom_bond_atom_site_label_2
_geom_bond_site_symmetry_1
_geom_bond_site_symmetry_2
Se1 C5 1_555 1_555
Se2 C11 1_555 1_555
S1 C1 1_555 1_555
C1 C2 1_555 1_555
C2 C3 1_555 1_555
C3 C4 1_555 1_555
C4 C5 1_555 1_555
C5 C6 1_555 1_555
C6 C1 1_555 1_555
C7 S1 1_555 1_555
C8 C7 1_555 1_555
C9 C8 1_555 1_555
C10 C9 1_555 1_555
C11 C10 1_555 1_555
C12 C6 1_555 1_555
C13 Se1 1_555 1_555
C14 C13 1_555 1_555
C15 C14 1_555 1_555
C16 C15 1_555 1_555
C17 C16 1_555 1_555
C18 C13 1_555 1_555
C19 Se2 1_555 1_555
C20 C19 1_555 1_555
C21 C20 1_555 1_555
C22 C21 1_555 1_555
C23 C22 1_555 1_555
C24 C19 1_555 1_555
H1 C2 1_555 1_555
H2 C3 1_555 1_555
H3 C4 1_555 1_555
H4 C8 1_555 1_555
H5 C9 1_555 1_555
H6 C10 1_555 1_555
H7 C14 1_555 1_555
H8 C15 1_555 1_555
H9 C16 1_555 1_555
H10 C17 1_555 1_555
H11 C18 1_555 1_555
H12 C20 1_555 1_555
H13 C21 1_555 1_555
H14 C22 1_555 1_555
H15 C23 1_555 1_555
H16 C24 1_555 1_555
C7 C12 1_555 1_555
C11 C12 1_555 1_555
C17 C18 1_555 1_555
C23 C24 1_555 1_555

#END
