
#######################################################################
#
#                 Cambridge Crystallographic Data Centre
#                                CCDC 
#
#######################################################################
#
# If this CIF has been generated from an entry in the Cambridge 
# Structural Database, then it will include bibliographic, chemical, 
# crystal, experimental, refinement or atomic coordinate data resulting 
# from the CCDC's data processing and validation procedures.
#
#######################################################################

data_YIHJAA
_chemical_formula_moiety         'C21 H25 Cl2 N2 O1 1+,Cl1 1-'
_chemical_name_systematic        
'(+)-S-2-(3,4-Dichlorophenyl)-N-methyl-N-(1-phenyl-2-(1-pyrrolidinyl)ethyl)acetamide hydrochloride'
_chemical_properties_biological  'opioid activity-kappa agonist'
_symmetry_cell_setting           orthorhombic
_symmetry_space_group_name_H-M   'P 21 21 21'
_symmetry_Int_Tables_number      19
_space_group_name_Hall           'P 2ac 2ab'
loop_
_symmetry_equiv_pos_site_id
_symmetry_equiv_pos_as_xyz
1 x,y,z
2 1/2-x,-y,1/2+z
3 1/2+x,1/2-y,-z
4 -x,1/2+y,1/2-z
_cell_length_a                   7.146
_cell_length_b                   13.639
_cell_length_c                   21.280
_cell_angle_alpha                90
_cell_angle_beta                 90
_cell_angle_gamma                90
_cell_volume                     2074.04
_exptl_crystal_colour            colorless
_cell_formula_units_Z            4
loop_
_atom_site_label
_atom_site_type_symbol
_atom_site_fract_x
_atom_site_fract_y
_atom_site_fract_z
Cl1 Cl 0.2323(1) 0.33372(6) 0.42565(5)
Cl2 Cl -0.1738(2) 0.73126(9) 0.24034(6)
Cl3 Cl 0.0847(2) 0.54291(8) 0.23833(5)
O1 O 0.4981(4) 0.6266(2) 0.4353(2)
N1 N 0.6535(4) 0.3760(2) 0.4276(2)
N2 N 0.4927(4) 0.5198(2) 0.5167(2)
C1 C 0.7001(5) 0.2718(3) 0.4080(2)
C2 C 0.6906(7) 0.2759(3) 0.3366(2)
C3 C 0.786(1) 0.3748(4) 0.3225(2)
C4 C 0.7121(7) 0.4408(3) 0.3731(2)
C5 C 0.7403(5) 0.3996(2) 0.4894(2)
C6 C 0.6956(5) 0.5035(3) 0.5122(2)
C7 C 0.7961(5) 0.5271(3) 0.5733(2)
C8 C 0.8353(5) 0.6256(3) 0.5864(2)
C9 C 0.9307(6) 0.6514(3) 0.6406(2)
C10 C 0.9899(6) 0.5809(3) 0.6818(2)
C11 C 0.9487(6) 0.4834(3) 0.6704(2)
C12 C 0.8536(6) 0.4563(3) 0.6162(2)
C13 C 0.3899(6) 0.4684(3) 0.5658(2)
C14 C 0.4090(5) 0.5798(3) 0.4740(2)
C15 C 0.1958(5) 0.5872(3) 0.4778(2)
C16 C 0.1091(5) 0.6248(3) 0.4183(2)
C17 C 0.1365(5) 0.5762(3) 0.3613(2)
C18 C 0.0505(6) 0.6076(3) 0.3072(2)
C19 C -0.0657(6) 0.6898(3) 0.3084(2)
C20 C -0.0952(5) 0.7382(3) 0.3642(2)
C21 C -0.0078(5) 0.7061(3) 0.4188(2)
H1 H 0.516(7) 0.382(3) 0.429(2)
H2 H 0.6111 0.2268 0.4243
H3 H 0.8218 0.2538 0.4218
H4 H 0.5648 0.2754 0.3221
H5 H 0.7569 0.2229 0.3180
H6 H 0.7528 0.3982 0.2820
H7 H 0.9187 0.3690 0.3252
H8 H 0.6075 0.4766 0.3579
H9 H 0.8067 0.4852 0.3862
H10 H 0.8722 0.3933 0.4855
H11 H 0.6955 0.3541 0.5197
H12 H 0.7420 0.5475 0.4814
H13 H 0.7963 0.6750 0.5579
H14 H 0.9549 0.7186 0.6494
H15 H 1.0594 0.5989 0.7131
H16 H 0.9855 0.4347 0.6999
H17 H 0.8279 0.3891 0.6083
H18 H 0.4744 0.4476 0.5976
H19 H 0.2993 0.5112 0.5836
H20 H 0.3288 0.4128 0.5483
H21 H 0.1465 0.5240 0.4863
H22 H 0.1640 0.6305 0.5111
H23 H 0.2161 0.5205 0.3598
H24 H -0.1754 0.7938 0.3654
H25 H -0.0285 0.7402 0.4571
loop_
_geom_bond_atom_site_label_1
_geom_bond_atom_site_label_2
_geom_bond_site_symmetry_1
_geom_bond_site_symmetry_2
Cl2 C19 1_555 1_555
Cl3 C18 1_555 1_555
O1 C14 1_555 1_555
N1 C1 1_555 1_555
N2 C6 1_555 1_555
C1 C2 1_555 1_555
C2 C3 1_555 1_555
C3 C4 1_555 1_555
C4 N1 1_555 1_555
C5 N1 1_555 1_555
C6 C5 1_555 1_555
C7 C6 1_555 1_555
C8 C7 1_555 1_555
C9 C8 1_555 1_555
C10 C9 1_555 1_555
C11 C10 1_555 1_555
C12 C7 1_555 1_555
C13 N2 1_555 1_555
C14 N2 1_555 1_555
C15 C14 1_555 1_555
C16 C15 1_555 1_555
C17 C16 1_555 1_555
C18 C17 1_555 1_555
C19 C18 1_555 1_555
C20 C19 1_555 1_555
C21 C16 1_555 1_555
H1 N1 1_555 1_555
H2 C1 1_555 1_555
H3 C1 1_555 1_555
H4 C2 1_555 1_555
H5 C2 1_555 1_555
H6 C3 1_555 1_555
H7 C3 1_555 1_555
H8 C4 1_555 1_555
H9 C4 1_555 1_555
H10 C5 1_555 1_555
H11 C5 1_555 1_555
H12 C6 1_555 1_555
H13 C8 1_555 1_555
H14 C9 1_555 1_555
H15 C10 1_555 1_555
H16 C11 1_555 1_555
H17 C12 1_555 1_555
H18 C13 1_555 1_555
H19 C13 1_555 1_555
H20 C13 1_555 1_555
H21 C15 1_555 1_555
H22 C15 1_555 1_555
H23 C17 1_555 1_555
H24 C20 1_555 1_555
H25 C21 1_555 1_555
C11 C12 1_555 1_555
C20 C21 1_555 1_555

#END
