
#######################################################################
#
#                 Cambridge Crystallographic Data Centre
#                                CCDC 
#
#######################################################################
#
# If this CIF has been generated from an entry in the Cambridge 
# Structural Database, then it will include bibliographic, chemical, 
# crystal, experimental, refinement or atomic coordinate data resulting 
# from the CCDC's data processing and validation procedures.
#
#######################################################################

data_YIHJAA01
_chemical_formula_moiety         'C21 H25 Cl2 N2 O1 1+,Cl1 1-'
_chemical_name_systematic        
'(+)-S-2-(3,4-Dichlorophenyl)-N-methyl-N-(1-phenyl-2-(1-pyrrolidinyl)ethyl)acetamide hydrochloride'
_chemical_properties_biological  'opioid activity-kappa agonist'
_symmetry_cell_setting           orthorhombic
_symmetry_space_group_name_H-M   'P 21 21 21'
_symmetry_Int_Tables_number      19
_space_group_name_Hall           'P 2ac 2ab'
loop_
_symmetry_equiv_pos_site_id
_symmetry_equiv_pos_as_xyz
1 x,y,z
2 1/2-x,-y,1/2+z
3 1/2+x,1/2-y,-z
4 -x,1/2+y,1/2-z
_cell_length_a                   11.831
_cell_length_b                   13.039
_cell_length_c                   13.780
_cell_angle_alpha                90
_cell_angle_beta                 90
_cell_angle_gamma                90
_cell_volume                     2125.76
_exptl_crystal_colour            colorless
_cell_formula_units_Z            4
loop_
_atom_site_label
_atom_site_type_symbol
_atom_site_fract_x
_atom_site_fract_y
_atom_site_fract_z
Cl1 Cl -0.1110(2) 0.0874(1) 0.7519(2)
Cl2 Cl 0.5476(2) 0.1731(2) 0.7285(2)
Cl3 Cl 0.4835(2) 0.4017(2) 0.6976(2)
O1 O 0.0546(5) 0.2822(4) 0.9125(4)
N1 N -0.2138(6) 0.1654(4) 0.9389(4)
N2 N -0.1038(6) 0.3440(4) 0.8418(4)
C1 C -0.3096(7) 0.0853(6) 0.9375(6)
C2 C -0.2740(1) 0.0055(7) 1.0093(7)
C3 C -0.1540(1) 0.0193(7) 1.0243(8)
C4 C -0.1338(8) 0.1373(7) 1.0198(6)
C5 C -0.2571(7) 0.2719(5) 0.9429(5)
C6 C -0.1615(7) 0.3500(6) 0.9363(5)
C7 C -0.2028(8) 0.4606(6) 0.9562(5)
C8 C -0.1214(8) 0.5382(6) 0.9572(6)
C9 C -0.150(1) 0.6377(6) 0.9774(7)
C10 C -0.260(1) 0.6618(5) 0.9997(6)
C11 C -0.340(1) 0.5885(7) 0.9974(7)
C12 C -0.3130(8) 0.4856(7) 0.9767(7)
C13 C -0.1666(7) 0.3747(5) 0.7550(5)
C14 C 0.0036(7) 0.3106(4) 0.8387(5)
C15 C 0.0602(6) 0.3078(5) 0.7394(5)
C16 C 0.1814(7) 0.2743(5) 0.7430(5)
C17 C 0.2654(7) 0.3434(6) 0.7243(5)
C18 C 0.3793(7) 0.3129(7) 0.7202(6)
C19 C 0.4099(7) 0.2114(6) 0.7377(6)
C20 C 0.3254(9) 0.1439(6) 0.7627(7)
C21 C 0.2140(8) 0.1750(6) 0.7636(6)
H1 H -0.181(6) 0.156(6) 0.867(6)
H2 H -0.3174 0.0563 0.8747
H3 H -0.3792 0.1157 0.9566
H4 H -0.2886 -0.0611 0.9844
H5 H -0.3133 0.0144 1.0688
H6 H -0.1123 -0.0145 0.9746
H7 H -0.1320 -0.0072 1.0857
H8 H -0.0577 0.1533 1.0041
H9 H -0.1538 0.1698 1.0791
H10 H -0.2962 0.2816 1.0023
H11 H -0.3076 0.2825 0.8902
H12 H -0.1077 0.3331 0.9849
H13 H -0.0449 0.5216 0.9435
H14 H -0.0937 0.6899 0.9759
H15 H -0.2795 0.7301 1.0168
H16 H -0.4160 0.6066 1.0101
H17 H -0.3700 0.4343 0.9771
H18 H -0.2451 0.3765 0.7693
H19 H -0.1423 0.4408 0.7349
H20 H -0.1530 0.3267 0.7044
H21 H 0.0197 0.2613 0.6993
H22 H 0.0571 0.3746 0.7121
H23 H 0.2465 0.4134 0.7140
H24 H 0.3439 0.0752 0.7795
H25 H 0.1572 0.1260 0.7790
loop_
_geom_bond_atom_site_label_1
_geom_bond_atom_site_label_2
_geom_bond_site_symmetry_1
_geom_bond_site_symmetry_2
Cl2 C19 1_555 1_555
Cl3 C18 1_555 1_555
O1 C14 1_555 1_555
N1 C1 1_555 1_555
N2 C6 1_555 1_555
C1 C2 1_555 1_555
C2 C3 1_555 1_555
C3 C4 1_555 1_555
C4 N1 1_555 1_555
C5 N1 1_555 1_555
C6 C5 1_555 1_555
C7 C6 1_555 1_555
C8 C7 1_555 1_555
C9 C8 1_555 1_555
C10 C9 1_555 1_555
C11 C10 1_555 1_555
C12 C7 1_555 1_555
C13 N2 1_555 1_555
C14 N2 1_555 1_555
C15 C14 1_555 1_555
C16 C15 1_555 1_555
C17 C16 1_555 1_555
C18 C17 1_555 1_555
C19 C18 1_555 1_555
C20 C19 1_555 1_555
C21 C16 1_555 1_555
H1 N1 1_555 1_555
H2 C1 1_555 1_555
H3 C1 1_555 1_555
H4 C2 1_555 1_555
H5 C2 1_555 1_555
H6 C3 1_555 1_555
H7 C3 1_555 1_555
H8 C4 1_555 1_555
H9 C4 1_555 1_555
H10 C5 1_555 1_555
H11 C5 1_555 1_555
H12 C6 1_555 1_555
H13 C8 1_555 1_555
H14 C9 1_555 1_555
H15 C10 1_555 1_555
H16 C11 1_555 1_555
H17 C12 1_555 1_555
H18 C13 1_555 1_555
H19 C13 1_555 1_555
H20 C13 1_555 1_555
H21 C15 1_555 1_555
H22 C15 1_555 1_555
H23 C17 1_555 1_555
H24 C20 1_555 1_555
H25 C21 1_555 1_555
C11 C12 1_555 1_555
C20 C21 1_555 1_555

#END
