
#######################################################################
#
#                 Cambridge Crystallographic Data Centre
#                                CCDC 
#
#######################################################################
#
# If this CIF has been generated from an entry in the Cambridge 
# Structural Database, then it will include bibliographic, chemical, 
# crystal, experimental, refinement or atomic coordinate data resulting 
# from the CCDC's data processing and validation procedures.
#
#######################################################################

data_YIHJOO
_chemical_formula_moiety         'C32 H32 O2'
_chemical_name_systematic        
(1R,2R)-\a,\a,\a',\a'-Tetraphenyl-cyclohexane-1,2-dimethanol
_symmetry_cell_setting           monoclinic
_symmetry_space_group_name_H-M   'P 21'
_symmetry_Int_Tables_number      4
_space_group_name_Hall           'P 2yb'
loop_
_symmetry_equiv_pos_site_id
_symmetry_equiv_pos_as_xyz
1 x,y,z
2 -x,1/2+y,-z
_cell_length_a                   8.8796
_cell_length_b                   16.791
_cell_length_c                   8.8784
_cell_angle_alpha                90
_cell_angle_beta                 111.871
_cell_angle_gamma                90
_cell_volume                     1228.47
_exptl_crystal_colour            colorless
_chemical_melting_point          '189-190 deg.C'
_cell_formula_units_Z            2
loop_
_atom_site_label
_atom_site_type_symbol
_atom_site_fract_x
_atom_site_fract_y
_atom_site_fract_z
O1 O 0.8121(2) 0.9590(1) 0.1779(1)
O2 O 0.8223(1) 0.6575(1) 0.1878(2)
C1 C 0.6083(2) 0.8290(2) 0.2564(3)
C2 C 0.6141(2) 0.8085(1) 0.0922(2)
C3 C 0.7789(2) 0.8249(1) 0.0759(2)
C4 C 0.9239(2) 0.7913(1) 0.2211(2)
C5 C 0.9078(2) 0.8078(1) 0.3859(2)
C6 C 0.7437(3) 0.7872(2) 0.3920(2)
C7 C 0.8028(2) 0.9138(1) 0.0380(2)
C8 C 0.9606(2) 0.9238(1) 0.0062(2)
C9 C 0.9703(2) 0.9028(2) -0.1405(3)
C10 C 1.1122(3) 0.9122(2) -0.1676(3)
C11 C 1.2475(3) 0.9420(2) -0.0501(4)
C12 C 1.2424(3) 0.9615(2) 0.0982(5)
C13 C 1.0985(2) 0.9526(1) 0.1252(3)
C14 C 0.6613(2) 0.9448(1) -0.1120(2)
C15 C 0.6142(2) 1.0239(1) -0.1191(3)
C16 C 0.4874(3) 1.0535(2) -0.2529(3)
C17 C 0.4048(3) 1.0049(2) -0.3804(3)
C18 C 0.4515(3) 0.9279(2) -0.3766(3)
C19 C 0.5775(3) 0.8979(1) -0.2436(3)
C20 C 0.9621(2) 0.7024(1) 0.1973(2)
C21 C 0.9943(2) 0.6927(1) 0.0394(2)
C22 C 0.8739(3) 0.6636(1) -0.0983(2)
C23 C 0.9022(5) 0.6549(2) -0.2428(3)
C24 C 1.0491(4) 0.6740(2) -0.2473(3)
C25 C 1.1690(3) 0.7048(2) -0.1120(3)
C26 C 1.1401(3) 0.7136(2) 0.0297(3)
C27 C 1.1119(2) 0.6716(1) 0.3388(2)
C28 C 1.2439(3) 0.7182(1) 0.4227(3)
C29 C 1.3761(3) 0.6887(2) 0.5480(3)
C30 C 1.3808(3) 0.6113(2) 0.5948(3)
C31 C 1.2533(3) 0.5632(2) 0.5124(3)
C32 C 1.1192(3) 0.5926(1) 0.3859(2)
H1 H 0.8721(21) 0.8797(5) -0.2275(19)
H2 H 1.1145(3) 0.9005(4) -0.2503(27)
H3 H 1.3524(23) 0.9500(2) -0.0709(6)
H4 H 1.3436(21) 0.9819(4) 0.1876(19)
H5 H 1.0955(2) 0.9661(4) 0.2202(24)
H6 H 0.6697(14) 1.0581(8) -0.0309(22)
H7 H 0.4566(9) 1.1077(15) -0.2550(3)
H8 H 0.3141(20) 1.0258(5) -0.4741(21)
H9 H 0.3964(14) 0.8952(9) -0.4643(23)
H10 H 0.6070(9) 0.8454(15) -0.2430(3)
H11 H 0.7687(25) 0.6502(3) -0.0953(3)
H12 H 0.8130(19) 0.6335(5) -0.3439(21)
H13 H 1.0700(6) 0.6639(3) -0.3522(23)
H14 H 1.2727(26) 0.7216(5) -0.1167(3)
H15 H 1.2205(20) 0.7331(5) 0.1205(22)
H16 H 1.2430(3) 0.7703(15) 0.3932(9)
H17 H 1.4687(22) 0.7240(9) 0.6071(15)
H18 H 1.4798(22) 0.5883(5) 0.6884(20)
H19 H 1.2544(3) 0.5105(15) 0.5431(9)
H20 H 1.0326(21) 0.5575(9) 0.3289(14)
H21 H 0.6191(31) 0.8930(19) 0.2693(34)
H22 H 0.5246(22) 0.8350(12) 0.0022(24)
H23 H 0.5946(23) 0.7497(14) 0.0709(23)
H24 H 0.7772(19) 0.7961(11) -0.0145(19)
H25 H 1.0191(20) 0.8183(12) 0.2206(20)
H26 H 0.9297(21) 0.8671(14) 0.4074(22)
H27 H 0.9964(22) 0.7790(12) 0.4718(22)
H28 H 0.7334(33) 0.7265(19) 0.3803(30)
H29 H 0.5001(25) 0.8090(17) 0.2497(24)
H30 H 0.7480(25) 0.8110(17) 0.4944(27)
H31 H 0.8459(39) 1.0088(25) 0.1697(41)
H32 H 0.8278(42) 0.6096(26) 0.1659(41)
loop_
_geom_bond_atom_site_label_1
_geom_bond_atom_site_label_2
_geom_bond_site_symmetry_1
_geom_bond_site_symmetry_2
O1 C7 1_555 1_555
O2 C20 1_555 1_555
C1 C2 1_555 1_555
C2 C3 1_555 1_555
C3 C4 1_555 1_555
C4 C5 1_555 1_555
C5 C6 1_555 1_555
C6 C1 1_555 1_555
C7 C3 1_555 1_555
C8 C7 1_555 1_555
C9 C8 1_555 1_555
C10 C9 1_555 1_555
C11 C10 1_555 1_555
C12 C11 1_555 1_555
C13 C8 1_555 1_555
C14 C7 1_555 1_555
C15 C14 1_555 1_555
C16 C15 1_555 1_555
C17 C16 1_555 1_555
C18 C17 1_555 1_555
C19 C14 1_555 1_555
C20 C4 1_555 1_555
C21 C20 1_555 1_555
C22 C21 1_555 1_555
C23 C22 1_555 1_555
C24 C23 1_555 1_555
C25 C24 1_555 1_555
C26 C21 1_555 1_555
C27 C20 1_555 1_555
C28 C27 1_555 1_555
C29 C28 1_555 1_555
C30 C29 1_555 1_555
C31 C30 1_555 1_555
C32 C27 1_555 1_555
H1 C9 1_555 1_555
H2 C10 1_555 1_555
H3 C11 1_555 1_555
H4 C12 1_555 1_555
H5 C13 1_555 1_555
H6 C15 1_555 1_555
H7 C16 1_555 1_555
H8 C17 1_555 1_555
H9 C18 1_555 1_555
H10 C19 1_555 1_555
H11 C22 1_555 1_555
H12 C23 1_555 1_555
H13 C24 1_555 1_555
H14 C25 1_555 1_555
H15 C26 1_555 1_555
H16 C28 1_555 1_555
H17 C29 1_555 1_555
H18 C30 1_555 1_555
H19 C31 1_555 1_555
H20 C32 1_555 1_555
H21 C1 1_555 1_555
H22 C2 1_555 1_555
H23 C2 1_555 1_555
H24 C3 1_555 1_555
H25 C4 1_555 1_555
H26 C5 1_555 1_555
H27 C5 1_555 1_555
H28 C6 1_555 1_555
H29 C1 1_555 1_555
H30 C6 1_555 1_555
H31 O1 1_555 1_555
H32 O2 1_555 1_555
C12 C13 1_555 1_555
C18 C19 1_555 1_555
C25 C26 1_555 1_555
C31 C32 1_555 1_555

#END
