
#######################################################################
#
#                 Cambridge Crystallographic Data Centre
#                                CCDC 
#
#######################################################################
#
# If this CIF has been generated from an entry in the Cambridge 
# Structural Database, then it will include bibliographic, chemical, 
# crystal, experimental, refinement or atomic coordinate data resulting 
# from the CCDC's data processing and validation procedures.
#
#######################################################################

data_YIHMUZ
_chemical_formula_moiety         'C32 H38 N6 O4,4(C1 H4 O1)'
_chemical_name_systematic        
'10,21-Di-t-butyl-3,4,5,14,15,16-hexaazapentacyclo[17.3.1.1^3,6^.1^8,12^.1^14,17^]hexacosa-1(23),4,6(26),8(25),9,11,15,17(24),19,21-decaene-23,25-diyl diacetate methanol solvate'
_symmetry_cell_setting           triclinic
_symmetry_space_group_name_H-M   'P -1'
_symmetry_Int_Tables_number      2
_space_group_name_Hall           '-P 1'
loop_
_symmetry_equiv_pos_site_id
_symmetry_equiv_pos_as_xyz
1 x,y,z
2 -x,-y,-z
_cell_length_a                   8.821(3)
_cell_length_b                   12.023(4)
_cell_length_c                   17.918(7)
_cell_angle_alpha                90.00
_cell_angle_beta                 90.00
_cell_angle_gamma                90.00
_cell_volume                     1900.29
_exptl_crystal_colour            white
_exptl_crystal_description       block
_cell_formula_units_Z            2
loop_
_atom_site_label
_atom_site_type_symbol
_atom_site_fract_x
_atom_site_fract_y
_atom_site_fract_z
C1 C 0.8643(17) 0.3279(11) 0.5695(8)
H1 H 0.953(16) 0.288(11) 0.609(8)
C2 C 0.812(2) 0.4140(8) 0.4391(7)
H2 H 0.8125 0.4874 0.4602
H3 H 0.7407 0.4113 0.3986
H4 H 0.9113 0.3962 0.4209
C3 C 0.6112(17) 0.3584(10) 0.5297(10)
H5 H 0.6139 0.4313 0.5517
H6 H 0.5833 0.3049 0.5670
H7 H 0.5380 0.3573 0.4901
C4 C 0.7658(13) 0.3299(8) 0.4989(5)
C5 C 0.7569(14) 0.2188(9) 0.4648(5)
C6 C 0.6278(12) 0.1602(9) 0.4424(5)
H8 H 0.5353 0.1959 0.4493
C7 C 0.8968(11) 0.1598(8) 0.4453(4)
H9 H 0.9888 0.1936 0.4567
C8 C 0.8999(13) 0.0610(9) 0.4123(5)
C9 C 0.6223(12) 0.0574(9) 0.4117(5)
C10 C 0.7620(14) 0.0088(8) 0.3963(5)
C11 C 0.4833(12) 0.0023(9) 0.3917(5)
H10 H 0.3993 0.0506 0.4047
H11 H 0.4741 -0.0646 0.4216
C12 C 1.0505(10) 0.0093(9) 0.3909(5)
H12 H 1.1310 0.0417 0.4207
H13 H 1.0479 -0.0700 0.4006
C13 C 0.7521(11) -0.1934(8) 0.4059(5)
C14 C 0.814(2) 0.4107(9) 0.0591(7)
H14 H 0.8166 0.4841 0.0379
H15 H 0.9139 0.3910 0.0761
H16 H 0.7451 0.4094 0.1004
C15 C 0.8758(17) 0.3265(12) -0.0660(8)
H17 H 0.8386 0.2745 -0.1023
H18 H 0.9742 0.3035 -0.0492
H19 H 0.8827 0.3990 -0.0882
C16 C 0.6201(18) 0.3580(11) -0.0392(11)
H20 H 0.5957 0.2983 -0.0727
H21 H 0.6338 0.4253 -0.0672
H22 H 0.5389 0.3676 -0.0041
C17 C 0.7642(14) 0.3307(8) 0.0021(6)
C18 C 0.7541(13) 0.2159(8) 0.0380(4)
C19 C 0.6266(12) 0.1608(9) 0.0579(4)
H23 H 0.5341 0.1965 0.0511
C20 C 0.8973(11) 0.1607(8) 0.0556(4)
H24 H 0.9880 0.1961 0.0439
C21 C 0.6251(12) 0.0547(9) 0.0875(5)
C22 C 0.9016(12) 0.0612(9) 0.0878(5)
C23 C 0.7615(12) 0.0093(8) 0.1041(5)
C24 C 1.0495(10) 0.0064(8) 0.1083(4)
H25 H 1.0427 -0.0732 0.1003
H26 H 1.1306 0.0354 0.0773
C25 C 0.4763(10) 0.0010(8) 0.1069(5)
H27 H 0.4631 -0.0656 0.0770
H28 H 0.3942 0.0517 0.0951
C26 C 0.7475(11) -0.1893(9) 0.0942(6)
C27 C 1.0404(12) -0.0263(10) 0.2504(6)
H29 H 0.9911 -0.0947 0.2501
C28 C 0.4993(11) 0.0277(9) 0.2503(7)
H30 H 0.5381 0.0996 0.2507
C29 C 0.7392(12) -0.2901(8) 0.3579(5)
H31 H 0.7557 -0.2684 0.3070
H32 H 0.6397 -0.3216 0.3629
H33 H 0.8137 -0.3443 0.3722
C30 C 0.7415(14) -0.2904(7) 0.1408(5)
H34 H 0.7565 -0.2706 0.1922
H35 H 0.8198 -0.3409 0.1254
H36 H 0.6444 -0.3254 0.1351
C31 C 1.0798(10) 0.0288(9) 0.3124(5)
C32 C 0.4689(10) -0.0293(10) 0.1887(6)
N1 N 0.4251(11) -0.1317(8) 0.2882(7)
N2 N 0.4215(11) -0.1316(8) 0.2135(7)
N3 N 1.1502(11) 0.1277(8) 0.2863(6)
N4 N 1.1530(10) 0.1300(8) 0.2128(6)
N5 N 1.0815(10) 0.0301(8) 0.1884(5)
N6 N 0.4681(10) -0.0295(9) 0.3104(5)
O1 O 0.7640(7) -0.0974(5) 0.3606(3)
O2 O 0.7352(8) -0.1852(5) 0.4723(4)
O3 O 0.7399(8) -0.1836(5) 0.0275(3)
O4 O 0.7648(7) -0.0980(5) 0.1384(3)
O5 O 0.0366(17) 0.6553(12) 0.2495(5)
C33 C 0.005(3) 0.5108(17) 0.2571(14)
O6 O 0.7716(18) 0.2805(13) 0.2498(7)
C34 C 0.618(2) 0.3281(15) 0.2517(7)
O7 O 0.398(4) 0.415(2) 0.1612(12)
C35 C 0.309(5) 0.315(3) 0.1559(18)
O8 O 0.295(3) 0.3279(19) 0.3520(11)
C36 C 0.429(3) 0.434(2) 0.3317(14)
H37? H 0.608(15) 0.304(11) 0.755(7)
H38? H 0.771(15) 0.439(11) 0.633(7)
loop_
_geom_bond_atom_site_label_1
_geom_bond_atom_site_label_2
_geom_bond_site_symmetry_1
_geom_bond_site_symmetry_2
C1 H1 1_555 1_555
C2 H2 1_555 1_555
H3 C2 1_555 1_555
H4 C2 1_555 1_555
C3 H5 1_555 1_555
H6 C3 1_555 1_555
H7 C3 1_555 1_555
C4 C1 1_555 1_555
C5 C4 1_555 1_555
C6 C5 1_555 1_555
H8 C6 1_555 1_555
C7 C5 1_555 1_555
H9 C7 1_555 1_555
C8 C7 1_555 1_555
C9 C6 1_555 1_555
C10 C8 1_555 1_555
C11 C9 1_555 1_555
H10 C11 1_555 1_555
H11 C11 1_555 1_555
C12 C8 1_555 1_555
H12 C12 1_555 1_555
H13 C12 1_555 1_555
C13 C29 1_555 1_555
C14 H14 1_555 1_555
H15 C14 1_555 1_555
H16 C14 1_555 1_555
C15 H17 1_555 1_555
H18 C15 1_555 1_555
H19 C15 1_555 1_555
C16 H20 1_555 1_555
H21 C16 1_555 1_555
H22 C16 1_555 1_555
C17 C14 1_555 1_555
C18 C17 1_555 1_555
C19 C18 1_555 1_555
H23 C19 1_555 1_555
C20 C18 1_555 1_555
H24 C20 1_555 1_555
C21 C19 1_555 1_555
C22 C20 1_555 1_555
C23 C21 1_555 1_555
C24 C22 1_555 1_555
H25 C24 1_555 1_555
H26 C24 1_555 1_555
C25 C21 1_555 1_555
H27 C25 1_555 1_555
H28 C25 1_555 1_555
C26 C30 1_555 1_555
C27 H29 1_555 1_555
C28 H30 1_555 1_555
C29 H31 1_555 1_555
H32 C29 1_555 1_555
H33 C29 1_555 1_555
C30 H34 1_555 1_555
H35 C30 1_555 1_555
H36 C30 1_555 1_555
C31 C12 1_555 1_555
C32 C25 1_555 1_555
N1 N2 1_555 1_555
N2 C32 1_555 1_555
N3 C31 1_555 1_555
N4 N3 1_555 1_555
N5 C24 1_555 1_555
N6 C11 1_555 1_555
O1 C10 1_555 1_555
O2 C13 1_555 1_555
O3 C26 1_555 1_555
O4 C23 1_555 1_555
O5 C33 1_555 1_555
O6 C34 1_555 1_555
O7 C35 1_555 1_555
O8 C36 1_555 1_555
C2 C4 1_555 1_555
C3 C4 1_555 1_555
C9 C10 1_555 1_555
C13 O1 1_555 1_555
C15 C17 1_555 1_555
C16 C17 1_555 1_555
C22 C23 1_555 1_555
C26 O4 1_555 1_555
C27 C31 1_555 1_555
C27 N5 1_555 1_555
C28 C32 1_555 1_555
C28 N6 1_555 1_555
N1 N6 1_555 1_555
N4 N5 1_555 1_555

#END
