
#######################################################################
#
#                 Cambridge Crystallographic Data Centre
#                                CCDC 
#
#######################################################################
#
# If this CIF has been generated from an entry in the Cambridge 
# Structural Database, then it will include bibliographic, chemical, 
# crystal, experimental, refinement or atomic coordinate data resulting 
# from the CCDC's data processing and validation procedures.
#
#######################################################################

data_YIHMIN
_chemical_formula_moiety         'C88 H94 N4 Na2 O6 P4'
_chemical_name_systematic        
'bis(\m~2~-(N-(2,6-dimethylphenyl)-P,P-diphenylphosphinic amidato))(bis(N-(2,6-dimethylphenyl)-P,P-diphenylphosphinic amide))bis(tetrahydrofuran)disodium'
_symmetry_cell_setting           triclinic
_symmetry_space_group_name_H-M   'P -1'
_symmetry_Int_Tables_number      2
_space_group_name_Hall           '-P 1'
loop_
_symmetry_equiv_pos_site_id
_symmetry_equiv_pos_as_xyz
1 x,y,z
2 -x,-y,-z
_cell_length_a                   12.1425(12)
_cell_length_b                   13.7055(15)
_cell_length_c                   14.7949(14)
_cell_angle_alpha                110.959(9)
_cell_angle_beta                 94.213(8)
_cell_angle_gamma                115.963(10)
_cell_volume                     1988.08
_exptl_crystal_colour            colorless
_exptl_crystal_description       block
_cell_formula_units_Z            1
loop_
_atom_site_label
_atom_site_type_symbol
_atom_site_fract_x
_atom_site_fract_y
_atom_site_fract_z
Na1 Na 0.97400(9) 0.47021(9) 0.59294(7)
P1 P 1.26558(6) 0.71239(6) 0.64304(5)
P2 P 0.93579(6) 0.67020(6) 0.79764(5)
O1 O 0.90140(17) 0.55010(16) 0.71721(13)
O2 O 1.00295(18) 0.35143(17) 0.65886(14)
O3 O 1.14465(15) 0.60257(15) 0.56656(13)
N1 N 1.2582(2) 0.8150(2) 0.73179(16)
N2 N 1.08585(19) 0.76355(18) 0.86140(15)
H1 H 1.1342 0.8026 0.8325
C1 C 1.2819(2) 0.9278(2) 0.73943(19)
C2 C 1.3751(3) 1.0317(3) 0.8253(2)
C3 C 1.4451(3) 1.0188(3) 0.9041(2)
H2 H 1.3853 0.9724 0.9317
H3 H 1.5046 1.0972 0.9568
H4 H 1.4901 0.9786 0.8745
C4 C 1.3722(2) 0.7739(2) 0.57295(19)
C5 C 1.3521(3) 0.7056(3) 0.4710(2)
H5 H 1.2829 0.6278 0.4381
C6 C 1.4339(3) 0.7521(3) 0.4184(2)
H6 H 1.4196 0.7056 0.3505
C7 C 1.5370(3) 0.8680(3) 0.4667(2)
H7 H 1.5913 0.8999 0.4312
C8 C 1.5589(3) 0.9359(3) 0.5675(2)
H8 H 1.6289 1.0133 0.6001
C9 C 1.4777(2) 0.8901(2) 0.6207(2)
H9 H 1.4935 0.9369 0.6888
C10 C 1.3466(2) 0.6555(2) 0.7006(2)
C11 C 1.3664(3) 0.5645(3) 0.6385(2)
H10 H 1.3346 0.5313 0.5691
C12 C 1.4334(3) 0.5225(3) 0.6792(3)
H11 H 1.4461 0.4616 0.6371
C13 C 1.4806(3) 0.5714(4) 0.7819(3)
H12 H 1.5262 0.5442 0.8093
C14 C 1.4604(4) 0.6597(4) 0.8431(3)
H13 H 1.4913 0.6917 0.9125
C15 C 1.3944(3) 0.7026(3) 0.8034(2)
H14 H 1.3823 0.7635 0.8464
C16 C 1.1110(3) 0.8351(3) 0.5783(2)
H15 H 1.1481 0.8036 0.5287
H16 H 1.0585 0.8588 0.5504
H17 H 1.0600 0.7742 0.5985
C17 C 1.2148(3) 0.9424(3) 0.6682(2)
C18 C 1.2457(3) 1.0580(3) 0.6812(2)
H18 H 1.2010 1.0671 0.6340
C19 C 1.3412(3) 1.1599(3) 0.7626(2)
H19 H 1.3623 1.2364 0.7689
C20 C 1.4047(3) 1.1458(3) 0.8342(2)
H20 H 1.4684 1.2138 0.8895
C21 C 1.1457(2) 0.7875(2) 0.96066(19)
C22 C 1.1971(2) 0.9034(2) 1.0390(2)
C23 C 1.2583(3) 0.9273(3) 1.1337(2)
H21 H 1.2924 1.0039 1.1861
C24 C 1.2694(3) 0.8393(3) 1.1514(2)
H22 H 1.3112 0.8568 1.2151
C25 C 1.2182(3) 0.7256(3) 1.0743(2)
H23 H 1.2248 0.6664 1.0870
C26 C 1.1566(2) 0.6972(2) 0.9776(2)
C27 C 1.1053(3) 0.5723(3) 0.8957(2)
H24 H 1.1430 0.5324 0.9164
H25 H 1.1255 0.5771 0.8354
H26 H 1.0145 0.5277 0.8832
C28 C 1.1895(3) 1.0032(2) 1.0229(2)
H27 H 1.2275 1.0145 0.9703
H28 H 1.2343 1.0764 1.0841
H29 H 1.1019 0.9820 1.0043
C29 C 0.8881(3) 0.7492(3) 0.7430(2)
C30 C 0.7703(3) 0.6840(3) 0.6730(3)
H30 H 0.7192 0.6023 0.6552
C31 C 0.7282(4) 0.7407(4) 0.6289(3)
H31 H 0.6488 0.6969 0.5822
C32 C 0.8038(4) 0.8606(4) 0.6543(3)
H32 H 0.7763 0.8979 0.6241
C33 C 0.9197(3) 0.9259(3) 0.7240(3)
H33 H 0.9704 1.0075 0.7414
C34 C 0.9619(3) 0.8706(3) 0.7688(2)
H34 H 1.0405 0.9157 0.8166
C35 C 0.8486(2) 0.6516(2) 0.88978(19)
C36 C 0.8546(3) 0.7486(3) 0.9692(2)
H35 H 0.9086 0.8267 0.9780
C37 C 0.7815(3) 0.7305(3) 1.0351(2)
H36 H 0.7863 0.7960 1.0878
C38 C 0.6933(3) 0.5172(3) 0.9440(2)
H37 H 0.6389 0.4395 0.9357
C39 C 0.7667(3) 0.5351(3) 0.8772(2)
H38 H 0.7610 0.4692 0.8243
C40 C 0.7012(3) 0.6148(3) 1.0226(2)
H39 H 0.6523 0.6026 1.0672
C41 C 0.9084(3) 0.2773(3) 0.6930(3)
H40 H 0.8339 0.2140 0.6374
H41 H 0.8828 0.3248 0.7434
C42 C 0.9705(6) 0.2255(6) 0.7368(6)
H42 H 0.9998 0.2701 0.8095
H43 H 0.9102 0.1421 0.7197
C43 C 1.0723(4) 0.2329(4) 0.6980(4)
H44 H 1.0472 0.1586 0.6393
H45 H 1.1415 0.2479 0.7479
C44 C 1.1122(3) 0.3363(3) 0.6702(3)
H46 H 1.1839 0.4090 0.7226
H47 H 1.1364 0.3181 0.6077
Na1A Na 1.02600(9) 0.52979(9) 0.40706(7)
P1A P 0.73442(6) 0.28761(6) 0.35696(5)
P2A P 1.06421(6) 0.32980(6) 0.20236(5)
O1A O 1.09860(17) 0.44990(16) 0.28279(13)
O2A O 0.99705(18) 0.64857(17) 0.34114(14)
O3A O 0.85535(15) 0.39743(15) 0.43344(13)
N1A N 0.7418(2) 0.1850(2) 0.26821(16)
N2A N 0.91415(19) 0.23645(18) 0.13860(15)
H1A H 0.8658 0.1974 0.1675
C1A C 0.7181(2) 0.0722(2) 0.26057(19)
C2A C 0.6249(3) -0.0317(3) 0.1747(2)
C3A C 0.5549(3) -0.0188(3) 0.0959(2)
H2A H 0.6147 0.0276 0.0683
H3A H 0.4954 -0.0972 0.0432
H4A H 0.5099 0.0214 0.1255
C4A C 0.6278(2) 0.2261(2) 0.42705(19)
C5A C 0.6479(3) 0.2944(3) 0.5290(2)
H5A H 0.7171 0.3722 0.5619
C6A C 0.5661(3) 0.2479(3) 0.5816(2)
H6A H 0.5804 0.2944 0.6495
C7A C 0.4630(3) 0.1320(3) 0.5333(2)
H7A H 0.4087 0.1001 0.5688
C8A C 0.4411(3) 0.0641(3) 0.4325(2)
H8A H 0.3711 -0.0133 0.3999
C9A C 0.5223(2) 0.1099(2) 0.3793(2)
H9A H 0.5065 0.0631 0.3112
C10A C 0.6534(2) 0.3445(2) 0.2994(2)
C11A C 0.6336(3) 0.4355(3) 0.3615(2)
H10A H 0.6654 0.4687 0.4309
C12A C 0.5666(3) 0.4775(3) 0.3208(3)
H11A H 0.5539 0.5384 0.3629
C13A C 0.5194(3) 0.4286(4) 0.2181(3)
H12A H 0.4738 0.4558 0.1907
C14A C 0.5396(4) 0.3403(4) 0.1569(3)
H13A H 0.5087 0.3083 0.0875
C15A C 0.6056(3) 0.2974(3) 0.1966(2)
H14A H 0.6177 0.2365 0.1536
C16A C 0.8890(3) 0.1649(3) 0.4217(2)
H15A H 0.8519 0.1964 0.4713
H16A H 0.9415 0.1412 0.4496
H17A H 0.9400 0.2258 0.4015
C17A C 0.7852(3) 0.0576(3) 0.3318(2)
C18A C 0.7543(3) -0.0580(3) 0.3188(2)
H18A H 0.7990 -0.0671 0.3660
C19A C 0.6588(3) -0.1599(3) 0.2374(2)
H19A H 0.6377 -0.2364 0.2311
C20A C 0.5953(3) -0.1458(3) 0.1658(2)
H20A H 0.5316 -0.2138 0.1105
C21A C 0.8543(2) 0.2125(2) 0.03934(19)
C22A C 0.8029(2) 0.0966(2) -0.0390(2)
C23A C 0.7417(3) 0.0727(3) -0.1337(2)
H21A H 0.7076 -0.0039 -0.1861
C24A C 0.7306(3) 0.1607(3) -0.1514(2)
H22A H 0.6888 0.1432 -0.2151
C25A C 0.7818(3) 0.2744(3) -0.0743(2)
H23A H 0.7752 0.3336 -0.0870
C26A C 0.8434(2) 0.3028(2) 0.0224(2)
C27A C 0.8947(3) 0.4277(3) 0.1043(2)
H24A H 0.8570 0.4676 0.0836
H25A H 0.8745 0.4229 0.1646
H26A H 0.9855 0.4723 0.1168
C28A C 0.8105(3) -0.0032(2) -0.0229(2)
H27A H 0.7725 -0.0145 0.0297
H28A H 0.7657 -0.0764 -0.0841
H29A H 0.8981 0.0180 -0.0043
C29A C 1.1119(3) 0.2508(3) 0.2570(2)
C30A C 1.2297(3) 0.3160(3) 0.3270(3)
H30A H 1.2808 0.3977 0.3448
C31A C 1.2718(4) 0.2593(4) 0.3711(3)
H31A H 1.3512 0.3031 0.4178
C32A C 1.1962(4) 0.1394(4) 0.3457(3)
H32A H 1.2237 0.1021 0.3759
C33A C 1.0803(3) 0.0741(3) 0.2760(3)
H33A H 1.0296 -0.0075 0.2586
C34A C 1.0381(3) 0.1294(3) 0.2312(2)
H34A H 0.9595 0.0843 0.1834
C35A C 1.1514(2) 0.3484(2) 0.11022(19)
C36A C 1.1454(3) 0.2514(3) 0.0308(2)
H35A H 1.0914 0.1733 0.0220
C37A C 1.2185(3) 0.2695(3) -0.0351(2)
H36A H 1.2137 0.2040 -0.0878
C38A C 1.3067(3) 0.4828(3) 0.0560(2)
H37A H 1.3611 0.5605 0.0643
C39A C 1.2333(3) 0.4649(3) 0.1228(2)
H38A H 1.2390 0.5308 0.1757
C40A C 1.2988(3) 0.3852(3) -0.0226(2)
H39A H 1.3477 0.3974 -0.0672
C41A C 1.0916(3) 0.7227(3) 0.3070(3)
H40A H 1.1661 0.7860 0.3626
H41A H 1.1172 0.6752 0.2566
C42A C 1.0295(6) 0.7745(6) 0.2632(6)
H42A H 1.0002 0.7299 0.1905
H43A H 1.0898 0.8579 0.2803
C43A C 0.9277(4) 0.7671(4) 0.3020(4)
H44A H 0.9528 0.8414 0.3607
H45A H 0.8585 0.7521 0.2521
C44A C 0.8878(3) 0.6637(3) 0.3298(3)
H46A H 0.8161 0.5910 0.2774
H47A H 0.8636 0.6819 0.3923
loop_
_geom_bond_atom_site_label_1
_geom_bond_atom_site_label_2
_geom_bond_site_symmetry_1
_geom_bond_site_symmetry_2
Na1 O1 1_555 1_555
P1 O3 1_555 1_555
P2 O1 1_555 1_555
O2 Na1 1_555 1_555
O3 Na1 1_555 1_555
N1 P1 1_555 1_555
N2 P2 1_555 1_555
H1 N2 1_555 1_555
C1 N1 1_555 1_555
C2 C1 1_555 1_555
C3 C2 1_555 1_555
H2 C3 1_555 1_555
H3 C3 1_555 1_555
H4 C3 1_555 1_555
C4 P1 1_555 1_555
C5 C4 1_555 1_555
H5 C5 1_555 1_555
C6 C5 1_555 1_555
H6 C6 1_555 1_555
C7 C6 1_555 1_555
H7 C7 1_555 1_555
C8 C7 1_555 1_555
H8 C8 1_555 1_555
C9 C4 1_555 1_555
H9 C9 1_555 1_555
C10 P1 1_555 1_555
C11 C10 1_555 1_555
H10 C11 1_555 1_555
C12 C11 1_555 1_555
H11 C12 1_555 1_555
C13 C12 1_555 1_555
H12 C13 1_555 1_555
C14 C13 1_555 1_555
H13 C14 1_555 1_555
C15 C10 1_555 1_555
H14 C15 1_555 1_555
C16 H15 1_555 1_555
H16 C16 1_555 1_555
H17 C16 1_555 1_555
C17 C1 1_555 1_555
C18 C17 1_555 1_555
H18 C18 1_555 1_555
C19 C18 1_555 1_555
H19 C19 1_555 1_555
C20 C2 1_555 1_555
H20 C20 1_555 1_555
C21 N2 1_555 1_555
C22 C21 1_555 1_555
C23 C22 1_555 1_555
H21 C23 1_555 1_555
C24 C23 1_555 1_555
H22 C24 1_555 1_555
C25 C24 1_555 1_555
H23 C25 1_555 1_555
C26 C21 1_555 1_555
C27 C26 1_555 1_555
H24 C27 1_555 1_555
H25 C27 1_555 1_555
H26 C27 1_555 1_555
C28 C22 1_555 1_555
H27 C28 1_555 1_555
H28 C28 1_555 1_555
H29 C28 1_555 1_555
C29 P2 1_555 1_555
C30 C29 1_555 1_555
H30 C30 1_555 1_555
C31 C30 1_555 1_555
H31 C31 1_555 1_555
C32 C31 1_555 1_555
H32 C32 1_555 1_555
C33 C32 1_555 1_555
H33 C33 1_555 1_555
C34 C29 1_555 1_555
H34 C34 1_555 1_555
C35 P2 1_555 1_555
C36 C35 1_555 1_555
H35 C36 1_555 1_555
C37 C36 1_555 1_555
H36 C37 1_555 1_555
C38 H37 1_555 1_555
C39 C35 1_555 1_555
H38 C39 1_555 1_555
C40 C37 1_555 1_555
H39 C40 1_555 1_555
C41 O2 1_555 1_555
H40 C41 1_555 1_555
H41 C41 1_555 1_555
C42 C41 1_555 1_555
H42 C42 1_555 1_555
H43 C42 1_555 1_555
C43 C42 1_555 1_555
H44 C43 1_555 1_555
H45 C43 1_555 1_555
C44 O2 1_555 1_555
H46 C44 1_555 1_555
H47 C44 1_555 1_555
Na1A O3 1_555 1_555
P1A O3A 1_555 1_555
P2A O1A 1_555 1_555
O1A Na1A 1_555 1_555
O2A Na1A 1_555 1_555
O3A Na1 1_555 1_555
N1A P1A 1_555 1_555
N2A P2A 1_555 1_555
H1A N2A 1_555 1_555
C1A N1A 1_555 1_555
C2A C1A 1_555 1_555
C3A C2A 1_555 1_555
H2A C3A 1_555 1_555
H3A C3A 1_555 1_555
H4A C3A 1_555 1_555
C4A P1A 1_555 1_555
C5A C4A 1_555 1_555
H5A C5A 1_555 1_555
C6A C5A 1_555 1_555
H6A C6A 1_555 1_555
C7A C6A 1_555 1_555
H7A C7A 1_555 1_555
C8A C7A 1_555 1_555
H8A C8A 1_555 1_555
C9A C4A 1_555 1_555
H9A C9A 1_555 1_555
C10A P1A 1_555 1_555
C11A C10A 1_555 1_555
H10A C11A 1_555 1_555
C12A C11A 1_555 1_555
H11A C12A 1_555 1_555
C13A C12A 1_555 1_555
H12A C13A 1_555 1_555
C14A C13A 1_555 1_555
H13A C14A 1_555 1_555
C15A C10A 1_555 1_555
H14A C15A 1_555 1_555
C16A H15A 1_555 1_555
H16A C16A 1_555 1_555
H17A C16A 1_555 1_555
C17A C1A 1_555 1_555
C18A C17A 1_555 1_555
H18A C18A 1_555 1_555
C19A C18A 1_555 1_555
H19A C19A 1_555 1_555
C20A C2A 1_555 1_555
H20A C20A 1_555 1_555
C21A N2A 1_555 1_555
C22A C21A 1_555 1_555
C23A C22A 1_555 1_555
H21A C23A 1_555 1_555
C24A C23A 1_555 1_555
H22A C24A 1_555 1_555
C25A C24A 1_555 1_555
H23A C25A 1_555 1_555
C26A C21A 1_555 1_555
C27A C26A 1_555 1_555
H24A C27A 1_555 1_555
H25A C27A 1_555 1_555
H26A C27A 1_555 1_555
C28A C22A 1_555 1_555
H27A C28A 1_555 1_555
H28A C28A 1_555 1_555
H29A C28A 1_555 1_555
C29A P2A 1_555 1_555
C30A C29A 1_555 1_555
H30A C30A 1_555 1_555
C31A C30A 1_555 1_555
H31A C31A 1_555 1_555
C32A C31A 1_555 1_555
H32A C32A 1_555 1_555
C33A C32A 1_555 1_555
H33A C33A 1_555 1_555
C34A C29A 1_555 1_555
H34A C34A 1_555 1_555
C35A P2A 1_555 1_555
C36A C35A 1_555 1_555
H35A C36A 1_555 1_555
C37A C36A 1_555 1_555
H36A C37A 1_555 1_555
C38A H37A 1_555 1_555
C39A C35A 1_555 1_555
H38A C39A 1_555 1_555
C40A C37A 1_555 1_555
H39A C40A 1_555 1_555
C41A O2A 1_555 1_555
H40A C41A 1_555 1_555
H41A C41A 1_555 1_555
C42A C41A 1_555 1_555
H42A C42A 1_555 1_555
H43A C42A 1_555 1_555
C43A C42A 1_555 1_555
H44A C43A 1_555 1_555
H45A C43A 1_555 1_555
C44A O2A 1_555 1_555
H46A C44A 1_555 1_555
H47A C44A 1_555 1_555
C8 C9 1_555 1_555
C14 C15 1_555 1_555
C16 C17 1_555 1_555
C19 C20 1_555 1_555
C25 C26 1_555 1_555
C33 C34 1_555 1_555
C38 C39 1_555 1_555
C38 C40 1_555 1_555
C43 C44 1_555 1_555
Na1A O3A 1_555 1_555
C8A C9A 1_555 1_555
C14A C15A 1_555 1_555
C16A C17A 1_555 1_555
C19A C20A 1_555 1_555
C25A C26A 1_555 1_555
C33A C34A 1_555 1_555
C38A C39A 1_555 1_555
C38A C40A 1_555 1_555
C43A C44A 1_555 1_555

#END
