
#######################################################################
#
#                 Cambridge Crystallographic Data Centre
#                                CCDC 
#
#######################################################################
#
# If this CIF has been generated from an entry in the Cambridge 
# Structural Database, then it will include bibliographic, chemical, 
# crystal, experimental, refinement or atomic coordinate data resulting 
# from the CCDC's data processing and validation procedures.
#
#######################################################################

data_YIHQAK
_chemical_formula_moiety         'C17 H24 N1 O4 1+,C20 H17 O8 1-'
_chemical_name_systematic        
"(6R,2'S)-6-hydroxy-3-[(3-hydroxy-2-phenylpropanoyl)oxy]-8-methyl-8-azabicyclo[3.2.1]octan-8-ium 3-carboxy-2,3-bis[(4-methylbenzene-1-carbonyl)oxy]propanoate"
_symmetry_cell_setting           orthorhombic
_symmetry_space_group_name_H-M   'P 21 21 21'
_symmetry_Int_Tables_number      19
_space_group_name_Hall           'P 2ac 2ab'
loop_
_symmetry_equiv_pos_site_id
_symmetry_equiv_pos_as_xyz
1 x,y,z
2 1/2-x,-y,1/2+z
3 1/2+x,1/2-y,-z
4 -x,1/2+y,1/2-z
_cell_length_a                   33.7419(10)
_cell_length_b                   14.2147(4)
_cell_length_c                   7.94116(19)
_cell_angle_alpha                90
_cell_angle_beta                 90
_cell_angle_gamma                90
_cell_volume                     3808.83
_exptl_crystal_colour            'light colorless'
_exptl_crystal_description       block
_cell_formula_units_Z            4
loop_
_atom_site_label
_atom_site_type_symbol
_atom_site_fract_x
_atom_site_fract_y
_atom_site_fract_z
O1 O 0.51063(9) 0.36626(18) 1.2310(4)
H1 H 0.520363 0.382556 1.320995
O2 O 0.53544(7) 0.58213(17) 0.8543(3)
O3 O 0.52654(12) 0.6470(3) 0.5994(4)
O4 O 0.54878(9) 0.4244(2) 0.5169(3)
H2 H 0.557528 0.379389 0.569647
N1 N 0.44735(8) 0.5146(2) 1.1305(5)
H3 H 0.433396 0.575064 1.133312
C1 C 0.45337(11) 0.4865(3) 0.9513(6)
H4 H 0.429351 0.456964 0.906442
C2 C 0.54573(13) 0.5994(3) 0.6934(5)
C3 C 0.46312(13) 0.5743(3) 0.8533(7)
H5 H 0.440480 0.616331 0.857014
H6 H 0.467589 0.557429 0.736533
C4 C 0.58444(12) 0.5518(3) 0.6513(4)
H7 H 0.591344 0.509955 0.744909
C5 C 0.49904(11) 0.6261(3) 0.9181(5)
H8 H 0.497969 0.691848 0.881098
C6 C 0.57914(14) 0.4920(3) 0.4946(4)
H9 H 0.572565 0.532237 0.399973
H10 H 0.603843 0.460176 0.468961
C7 C 0.50272(11) 0.6226(2) 1.1088(5)
H11 H 0.530140 0.634000 1.139323
H12 H 0.486912 0.672896 1.156715
C8 C 0.61767(14) 0.6232(3) 0.6311(5)
C9 C 0.48964(9) 0.5299(2) 1.1859(5)
H13 H 0.491448 0.532280 1.309012
C10 C 0.6181(2) 0.6899(4) 0.5034(8)
H14 H 0.597321 0.692279 0.426738
C11 C 0.51098(10) 0.4433(2) 1.1173(4)
H15 H 0.538260 0.459191 1.085894
C12 C 0.6491(3) 0.7526(5) 0.4890(10)
H16 H 0.648527 0.798874 0.406262
C13 C 0.48719(10) 0.4147(3) 0.9611(5)
H17 H 0.476849 0.351425 0.973078
H18 H 0.503571 0.417534 0.860861
C14 C 0.6806(3) 0.7467(6) 0.5960(11)
H19 H 0.701691 0.788490 0.585198
C15 C 0.42487(15) 0.4455(4) 1.2336(11)
H20 H 0.439121 0.387118 1.237413
H21 H 0.399269 0.435366 1.184124
H22 H 0.421713 0.469509 1.345809
C16 C 0.6813(3) 0.6826(7) 0.7135(11)
H23 H 0.702756 0.679074 0.786926
C17 C 0.6503(2) 0.6198(5) 0.7292(8)
H24 H 0.651900 0.573178 0.810991
O5 O 0.40883(7) 0.67078(17) 0.2226(2)
O6 O 0.37140(6) 0.78761(15) 0.1301(2)
O7 O 0.35313(5) 0.84220(12) 0.43794(19)
O8 O 0.38762(6) 0.97253(16) 0.3736(3)
O9 O 0.42035(7) 0.80852(18) 0.7496(2)
O10 O 0.37014(6) 0.72212(16) 0.8440(2)
O11 O 0.35033(5) 0.66169(12) 0.5443(2)
O12 O 0.37916(7) 0.52663(18) 0.6183(4)
C18 C 0.38801(7) 0.78525(18) 0.4200(3)
H25 H 0.411401 0.825053 0.436600
C19 C 0.38975(7) 0.74249(19) 0.2429(3)
C20 C 0.35656(8) 0.93437(19) 0.4007(3)
C21 C 0.31772(9) 0.9825(2) 0.3986(3)
C22 C 0.28347(10) 0.9413(3) 0.4525(5)
H26 H 0.283655 0.879085 0.488543
C23 C 0.24845(13) 0.9920(4) 0.4536(6)
H27 H 0.225356 0.962568 0.489854
C24 C 0.24665(14) 1.0838(4) 0.4033(6)
C25 C 0.28067(15) 1.1245(3) 0.3501(6)
H28 H 0.280224 1.186681 0.314015
C26 C 0.31621(12) 1.0754(3) 0.3483(5)
H29 H 0.339244 1.105324 0.312750
C27 C 0.20771(17) 1.1376(5) 0.4066(9)
H30 H 0.209167 1.189756 0.330052
H31 H 0.202870 1.160493 0.518497
H32 H 0.186508 1.096574 0.373421
C28 C 0.38732(7) 0.71056(18) 0.5559(3)
H33 H 0.408774 0.665756 0.533908
C29 C 0.39335(7) 0.75245(19) 0.7311(3)
C30 C 0.34979(9) 0.5710(2) 0.5880(4)
C31 C 0.30879(9) 0.5335(2) 0.5932(4)
C32 C 0.30294(14) 0.4383(3) 0.5904(8)
H34 H 0.324581 0.397879 0.585472
C33 C 0.26460(17) 0.4016(4) 0.5949(9)
H35 H 0.261153 0.336808 0.589062
C34 C 0.23171(13) 0.4585(3) 0.6077(5)
C35 C 0.23892(12) 0.5525(4) 0.6167(8)
H36 H 0.217530 0.593253 0.628872
C36 C 0.27663(11) 0.5902(3) 0.6086(6)
H37 H 0.280007 0.655082 0.613648
C37 C 0.19036(15) 0.4179(5) 0.6123(8)
H38 H 0.172758 0.461875 0.665439
H39 H 0.190543 0.360128 0.674924
H40 H 0.181485 0.405872 0.499466
H41 H 0.3780(18) 0.750(4) 0.982(8)
loop_
_geom_bond_atom_site_label_1
_geom_bond_atom_site_label_2
_geom_bond_site_symmetry_1
_geom_bond_site_symmetry_2
O1 H1 1_555 1_555
O2 C2 1_555 1_555
O3 C2 1_555 1_555
O4 H2 1_555 1_555
N1 H3 1_555 1_555
C1 N1 1_555 1_555
H4 C1 1_555 1_555
C2 C4 1_555 1_555
C3 C1 1_555 1_555
H5 C3 1_555 1_555
H6 C3 1_555 1_555
C4 H7 1_555 1_555
C5 O2 1_555 1_555
H8 C5 1_555 1_555
C6 O4 1_555 1_555
H9 C6 1_555 1_555
H10 C6 1_555 1_555
C7 C5 1_555 1_555
H11 C7 1_555 1_555
H12 C7 1_555 1_555
C8 C4 1_555 1_555
C9 N1 1_555 1_555
H13 C9 1_555 1_555
C10 C8 1_555 1_555
H14 C10 1_555 1_555
C11 O1 1_555 1_555
H15 C11 1_555 1_555
C12 C10 1_555 1_555
H16 C12 1_555 1_555
C13 C1 1_555 1_555
H17 C13 1_555 1_555
H18 C13 1_555 1_555
C14 C12 1_555 1_555
H19 C14 1_555 1_555
C15 N1 1_555 1_555
H20 C15 1_555 1_555
H21 C15 1_555 1_555
H22 C15 1_555 1_555
C16 C14 1_555 1_555
H23 C16 1_555 1_555
C17 C8 1_555 1_555
H24 C17 1_555 1_555
O5 C19 1_555 1_555
O6 C19 1_555 1_555
O7 C18 1_555 1_555
O8 C20 1_555 1_555
O9 C29 1_555 1_555
O10 C29 1_555 1_555
O11 C28 1_555 1_555
O12 C30 1_555 1_555
C18 H25 1_555 1_555
C19 C18 1_555 1_555
C20 O7 1_555 1_555
C21 C20 1_555 1_555
C22 C21 1_555 1_555
H26 C22 1_555 1_555
C23 C22 1_555 1_555
H27 C23 1_555 1_555
C24 C23 1_555 1_555
C25 C24 1_555 1_555
H28 C25 1_555 1_555
C26 C21 1_555 1_555
H29 C26 1_555 1_555
C27 C24 1_555 1_555
H30 C27 1_555 1_555
H31 C27 1_555 1_555
H32 C27 1_555 1_555
C28 C18 1_555 1_555
H33 C28 1_555 1_555
C29 C28 1_555 1_555
C30 O11 1_555 1_555
C31 C30 1_555 1_555
C32 C31 1_555 1_555
H34 C32 1_555 1_555
C33 C32 1_555 1_555
H35 C33 1_555 1_555
C34 C33 1_555 1_555
C35 C34 1_555 1_555
H36 C35 1_555 1_555
C36 C31 1_555 1_555
H37 C36 1_555 1_555
C37 C34 1_555 1_555
H38 C37 1_555 1_555
H39 C37 1_555 1_555
H40 C37 1_555 1_555
H41 O10 1_555 1_555
C3 C5 1_555 1_555
C4 C6 1_555 1_555
C7 C9 1_555 1_555
C9 C11 1_555 1_555
C11 C13 1_555 1_555
C16 C17 1_555 1_555
C25 C26 1_555 1_555
C35 C36 1_555 1_555

#END
