
#######################################################################
#
#                 Cambridge Crystallographic Data Centre
#                                CCDC 
#
#######################################################################
#
# If this CIF has been generated from an entry in the Cambridge 
# Structural Database, then it will include bibliographic, chemical, 
# crystal, experimental, refinement or atomic coordinate data resulting 
# from the CCDC's data processing and validation procedures.
#
#######################################################################

data_YIHSOA
_chemical_formula_moiety         'C13 H10 F4 N4 O2'
_chemical_name_systematic        
N-[(2-fluorophenyl)carbamoyl]-1-methyl-3-(trifluoromethyl)-1H-pyrazole-4-carboxamide
_symmetry_cell_setting           monoclinic
_symmetry_space_group_name_H-M   'P 21/c'
_symmetry_Int_Tables_number      14
_space_group_name_Hall           '-P 2ybc'
loop_
_symmetry_equiv_pos_site_id
_symmetry_equiv_pos_as_xyz
1 x,y,z
2 -x,1/2+y,1/2-z
3 -x,-y,-z
4 x,1/2-y,1/2+z
_cell_length_a                   4.6181(11)
_cell_length_b                   18.857(4)
_cell_length_c                   15.180(4)
_cell_angle_alpha                90
_cell_angle_beta                 97.672(8)
_cell_angle_gamma                90
_cell_volume                     1310.09
_exptl_crystal_colour            colorless
_exptl_crystal_description       Prism
_cell_formula_units_Z            4
loop_
_atom_site_label
_atom_site_type_symbol
_atom_site_fract_x
_atom_site_fract_y
_atom_site_fract_z
F1 F 0.32346(17) 0.32264(4) 0.58645(6)
F2 F -0.02608(18) 0.29973(4) 0.66285(5)
F3 F -0.10300(18) 0.36680(4) 0.54732(5)
F4 F 1.03307(18) 0.17466(4) 0.80905(5)
O1 O 0.4091(2) 0.18486(5) 0.65433(6)
O2 O 0.7300(2) -0.01043(5) 0.59425(6)
N1 N -0.2610(2) 0.25353(5) 0.45469(7)
N2 N -0.2819(2) 0.18993(6) 0.41350(7)
N3 N 0.4197(2) 0.08327(5) 0.57218(7)
H1 H 0.355(3) 0.0600(7) 0.5224(7)
N4 N 0.7825(2) 0.08122(6) 0.69408(7)
H2 H 0.706(3) 0.1234(6) 0.7031(10)
C1 C 0.0369(3) 0.30842(7) 0.57967(9)
C2 C -0.0467(3) 0.24562(6) 0.52140(8)
C3 C 0.0735(3) 0.17646(6) 0.52379(8)
C4 C -0.0876(3) 0.14258(7) 0.45234(8)
H3 H -0.0651 0.0949 0.4342
C5 C -0.4887(3) 0.18157(7) 0.33225(8)
H4 H -0.6689 0.2074 0.3384
H5 H -0.5333 0.1312 0.3224
H6 H -0.4021 0.2005 0.2816
C6 C 0.3127(3) 0.14964(7) 0.58919(8)
C7 C 0.6551(3) 0.04757(7) 0.62120(8)
C8 C 1.0234(3) 0.05810(7) 0.75421(8)
C9 C 1.1381(3) -0.01028(7) 0.76031(8)
H7 H 1.0550 -0.0463 0.7210
C10 C 1.3755(3) -0.02573(7) 0.82437(9)
H8 H 1.4541 -0.0724 0.8280
C11 C 1.4984(3) 0.02580(7) 0.88275(9)
H9 H 1.6604 0.0145 0.9259
C12 C 1.3846(3) 0.09403(7) 0.87819(8)
H10 H 1.4660 0.1299 0.9180
C13 C 1.1508(3) 0.10835(7) 0.81454(8)
loop_
_geom_bond_atom_site_label_1
_geom_bond_atom_site_label_2
_geom_bond_site_symmetry_1
_geom_bond_site_symmetry_2
F1 C1 1_555 1_555
F2 C1 1_555 1_555
F3 C1 1_555 1_555
F4 C13 1_555 1_555
O1 C6 1_555 1_555
O2 C7 1_555 1_555
N1 N2 1_555 1_555
N2 C4 1_555 1_555
N3 H1 1_555 1_555
N4 H2 1_555 1_555
C1 C2 1_555 1_555
C2 N1 1_555 1_555
C3 C2 1_555 1_555
C4 C3 1_555 1_555
H3 C4 1_555 1_555
C5 N2 1_555 1_555
H4 C5 1_555 1_555
H5 C5 1_555 1_555
H6 C5 1_555 1_555
C6 N3 1_555 1_555
C7 N3 1_555 1_555
C8 N4 1_555 1_555
C9 C8 1_555 1_555
H7 C9 1_555 1_555
C10 C9 1_555 1_555
H8 C10 1_555 1_555
C11 C10 1_555 1_555
H9 C11 1_555 1_555
C12 C11 1_555 1_555
H10 C12 1_555 1_555
C13 C8 1_555 1_555
N4 C7 1_555 1_555
C3 C6 1_555 1_555
C12 C13 1_555 1_555

#END
