
#######################################################################
#
#                 Cambridge Crystallographic Data Centre
#                                CCDC 
#
#######################################################################
#
# If this CIF has been generated from an entry in the Cambridge 
# Structural Database, then it will include bibliographic, chemical, 
# crystal, experimental, refinement or atomic coordinate data resulting 
# from the CCDC's data processing and validation procedures.
#
#######################################################################

data_YIHTIU01
_chemical_formula_moiety         'C18 H5 F5 S3'
_chemical_name_systematic        
2-(Pentafluorophenyl)thieno[2',3':4,5]thieno[3,2-b][1]benzothiophene
_symmetry_cell_setting           monoclinic
_symmetry_space_group_name_H-M   'P 21/c'
_symmetry_Int_Tables_number      14
_space_group_name_Hall           '-P 2ybc'
loop_
_symmetry_equiv_pos_site_id
_symmetry_equiv_pos_as_xyz
1 x,y,z
2 -x,1/2+y,1/2-z
3 -x,-y,-z
4 x,1/2-y,1/2+z
_cell_length_a                   8.0841(3)
_cell_length_b                   6.1709(3)
_cell_length_c                   28.9399(10)
_cell_angle_alpha                90
_cell_angle_beta                 93.113(2)
_cell_angle_gamma                90
_cell_volume                     1441.57
_exptl_crystal_colour            colorless
_exptl_crystal_description       plate
_cell_formula_units_Z            4
loop_
_atom_site_label
_atom_site_type_symbol
_atom_site_fract_x
_atom_site_fract_y
_atom_site_fract_z
S1 S 0.93538(8) 1.19971(12) 0.15085(2)
S2 S 0.98724(8) 0.63542(12) 0.07124(2)
S3 S 0.73284(8) 1.19148(11) 0.02517(2)
F1 F 0.69528(19) 0.7127(3) -0.09865(5)
F2 F 0.5246(2) 0.7990(3) -0.17662(5)
F3 F 0.3571(2) 1.1812(3) -0.18845(5)
F4 F 0.37246(19) 1.4791(3) -0.11886(5)
F5 F 0.54069(19) 1.3975(3) -0.03952(5)
C1 C 1.0597(3) 1.0191(5) 0.18400(9)
C2 C 1.1324(3) 1.0604(5) 0.22812(9)
H1 H 1.1123 1.1928 0.2436
C3 C 1.2338(3) 0.9040(5) 0.24854(9)
H2 H 1.2856 0.9308 0.2782
C4 C 1.2624(3) 0.7062(5) 0.22647(9)
H3 H 1.3319 0.6007 0.2415
C5 C 1.1901(3) 0.6633(5) 0.18292(10)
H4 H 1.2100 0.5295 0.1679
C6 C 1.0864(3) 0.8213(5) 0.16116(9)
C7 C 1.0036(3) 0.8240(5) 0.11595(9)
C8 C 0.9226(3) 1.0144(5) 0.10557(9)
C9 C 0.8475(3) 1.0128(5) 0.05971(9)
C10 C 0.8707(3) 0.8208(5) 0.03765(10)
C11 C 0.7965(3) 0.8111(4) -0.00758(9)
H5 H 0.8012 0.6881 -0.0272
C12 C 0.7171(3) 1.0002(5) -0.01986(8)
C13 C 0.6260(3) 1.0499(5) -0.06418(9)
C14 C 0.6162(3) 0.9049(5) -0.10137(9)
C15 C 0.5276(3) 0.9464(5) -0.14254(9)
C16 C 0.4430(3) 1.1390(5) -0.14844(9)
C17 C 0.4509(3) 1.2885(5) -0.11348(10)
C18 C 0.5405(3) 1.2435(5) -0.07246(9)
loop_
_geom_bond_atom_site_label_1
_geom_bond_atom_site_label_2
_geom_bond_site_symmetry_1
_geom_bond_site_symmetry_2
S1 C1 1_555 1_555
S2 C7 1_555 1_555
S3 C9 1_555 1_555
F1 C14 1_555 1_555
F2 C15 1_555 1_555
F3 C16 1_555 1_555
F4 C17 1_555 1_555
F5 C18 1_555 1_555
C1 C2 1_555 1_555
C2 H1 1_555 1_555
C3 C2 1_555 1_555
H2 C3 1_555 1_555
C4 C3 1_555 1_555
H3 C4 1_555 1_555
C5 C4 1_555 1_555
H4 C5 1_555 1_555
C6 C1 1_555 1_555
C7 C6 1_555 1_555
C8 S1 1_555 1_555
C9 C8 1_555 1_555
C10 S2 1_555 1_555
C11 C10 1_555 1_555
H5 C11 1_555 1_555
C12 S3 1_555 1_555
C13 C12 1_555 1_555
C14 C13 1_555 1_555
C15 C14 1_555 1_555
C16 C15 1_555 1_555
C17 C16 1_555 1_555
C18 C13 1_555 1_555
C5 C6 1_555 1_555
C7 C8 1_555 1_555
C9 C10 1_555 1_555
C11 C12 1_555 1_555
C17 C18 1_555 1_555

#END
