
#######################################################################
#
#                 Cambridge Crystallographic Data Centre
#                                CCDC 
#
#######################################################################
#
# If this CIF has been generated from an entry in the Cambridge 
# Structural Database, then it will include bibliographic, chemical, 
# crystal, experimental, refinement or atomic coordinate data resulting 
# from the CCDC's data processing and validation procedures.
#
#######################################################################

data_YIHVIW
_chemical_formula_moiety         'C24 H14 S3'
_chemical_name_systematic        
2-(Biphenyl-4-yl)thieno[2',3':4,5]thieno[3,2-b][1]benzothiophene
_symmetry_cell_setting           triclinic
_symmetry_space_group_name_H-M   'P -1'
_symmetry_Int_Tables_number      2
_space_group_name_Hall           '-P 1'
loop_
_symmetry_equiv_pos_site_id
_symmetry_equiv_pos_as_xyz
1 x,y,z
2 -x,-y,-z
_cell_length_a                   5.93140(10)
_cell_length_b                   7.7196(2)
_cell_length_c                   39.3513(9)
_cell_angle_alpha                86.1810(10)
_cell_angle_beta                 89.3980(10)
_cell_angle_gamma                89.8660(10)
_cell_volume                     1797.72
_exptl_crystal_colour            colorless
_exptl_crystal_description       plate
_cell_formula_units_Z            4
loop_
_atom_site_label
_atom_site_type_symbol
_atom_site_fract_x
_atom_site_fract_y
_atom_site_fract_z
S1 S 1.07962(8) 1.14314(7) 0.125599(12)
S2 S 0.50540(8) 0.91720(7) 0.173091(12)
S3 S 1.06552(9) 1.09044(7) 0.224379(12)
C1 C 0.8980(3) 1.0887(3) 0.09328(5)
C2 C 0.9406(4) 1.1162(3) 0.05843(5)
H1 H 1.0722 1.1708 0.0504
C3 C 0.7832(4) 1.0606(3) 0.03615(6)
H2 H 0.8090 1.0774 0.0128
C4 C 0.5859(4) 0.9796(3) 0.04814(6)
H3 H 0.4825 0.9419 0.0326
C5 C 0.5409(4) 0.9544(3) 0.08240(5)
H4 H 0.4075 0.9011 0.0900
C6 C 0.6979(3) 1.0097(2) 0.10590(5)
C7 C 0.6967(3) 0.9985(2) 0.14229(5)
C8 C 0.6904(3) 0.9667(3) 0.20514(5)
C9 C 0.6861(3) 0.9402(3) 0.24093(5)
H5 H 0.5672 0.8881 0.2533
C10 C 0.8777(3) 1.0002(3) 0.25527(5)
C11 C 0.8843(3) 1.0456(2) 0.19227(5)
C12 C 0.8878(3) 1.0633(2) 0.15620(5)
C13 C 0.9426(3) 0.9929(3) 0.29117(5)
C14 C 0.8142(4) 0.9029(3) 0.31633(6)
H6 H 0.6830 0.8472 0.3103
C15 C 0.8779(4) 0.8949(3) 0.34998(6)
H7 H 0.7878 0.8336 0.3661
C16 C 1.0722(4) 0.9751(3) 0.36078(5)
C17 C 1.1988(4) 1.0650(3) 0.33552(6)
H8 H 1.3297 1.1211 0.3415
C18 C 1.1365(4) 1.0736(3) 0.30172(6)
H9 H 1.2265 1.1349 0.2856
C19 C 1.1399(4) 0.9659(3) 0.39716(5)
C20 C 1.0082(5) 0.8818(4) 0.42250(6)
H10 H 0.8753 0.8282 0.4166
C21 C 1.0699(5) 0.8758(4) 0.45628(7)
H11 H 0.9780 0.8192 0.4728
C22 C 1.2665(5) 0.9528(4) 0.46580(7)
H12 H 1.3083 0.9483 0.4885
C23 C 1.3990(5) 1.0360(4) 0.44128(7)
H13 H 1.5318 1.0890 0.4474
C24 C 1.3383(5) 1.0423(4) 0.40746(6)
H14 H 1.4318 1.0988 0.3912
S4 S 0.57462(8) 0.42492(7) 0.124261(13)
S5 S 0.00063(8) 0.62872(7) 0.170533(12)
S6 S 0.56215(8) 0.42848(7) 0.222773(12)
C25 C 0.3905(3) 0.4937(3) 0.09163(5)
C26 C 0.4306(4) 0.4795(3) 0.05702(6)
H15 H 0.5622 0.4284 0.0494
C27 C 0.2703(4) 0.5431(3) 0.03437(6)
H16 H 0.2937 0.5340 0.0111
C28 C 0.0737(4) 0.6207(3) 0.04575(6)
H17 H -0.0311 0.6644 0.0300
C29 C 0.0322(4) 0.6336(3) 0.07984(5)
H18 H -0.1002 0.6850 0.0871
C30 C 0.1908(3) 0.5688(2) 0.10371(5)
C31 C 0.1924(3) 0.5644(2) 0.14001(5)
C32 C 0.1853(3) 0.5616(2) 0.20284(5)
C33 C 0.1821(3) 0.5704(3) 0.23855(5)
H19 H 0.0633 0.6163 0.2507
C34 C 0.3747(3) 0.5032(3) 0.25323(5)
C35 C 0.3804(3) 0.4893(2) 0.19033(5)
C36 C 0.3843(3) 0.4916(2) 0.15447(5)
C37 C 0.4405(3) 0.4927(3) 0.28908(5)
C38 C 0.3102(4) 0.5676(3) 0.31391(6)
H20 H 0.1771 0.6246 0.3077
C39 C 0.3754(4) 0.5584(3) 0.34744(6)
H21 H 0.2848 0.6103 0.3633
C40 C 0.5721(4) 0.4743(3) 0.35853(5)
C41 C 0.6991(4) 0.3992(3) 0.33367(6)
H22 H 0.8317 0.3415 0.3399
C42 C 0.6360(4) 0.4071(3) 0.30001(6)
H23 H 0.7262 0.3540 0.2842
C43 C 0.6419(4) 0.4659(3) 0.39475(5)
C44 C 0.5171(5) 0.5442(4) 0.41959(6)
H24 H 0.3864 0.6046 0.4134
C45 C 0.5826(6) 0.5346(5) 0.45322(7)
H25 H 0.4950 0.5876 0.4693
C46 C 0.7752(5) 0.4477(4) 0.46316(6)
H26 H 0.8183 0.4405 0.4859
C47 C 0.9024(5) 0.3721(4) 0.43918(7)
H27 H 1.0339 0.3135 0.4456
C48 C 0.8387(5) 0.3813(4) 0.40547(7)
H28 H 0.9294 0.3298 0.3896
loop_
_geom_bond_atom_site_label_1
_geom_bond_atom_site_label_2
_geom_bond_site_symmetry_1
_geom_bond_site_symmetry_2
S1 C1 1_555 1_555
S2 C7 1_555 1_555
S3 C10 1_555 1_555
C1 C2 1_555 1_555
C2 H1 1_555 1_555
C3 C2 1_555 1_555
H2 C3 1_555 1_555
C4 C3 1_555 1_555
H3 C4 1_555 1_555
C5 C4 1_555 1_555
H4 C5 1_555 1_555
C6 C1 1_555 1_555
C7 C6 1_555 1_555
C8 S2 1_555 1_555
C9 C8 1_555 1_555
H5 C9 1_555 1_555
C10 C9 1_555 1_555
C11 S3 1_555 1_555
C12 S1 1_555 1_555
C13 C10 1_555 1_555
C14 C13 1_555 1_555
H6 C14 1_555 1_555
C15 C14 1_555 1_555
H7 C15 1_555 1_555
C16 C15 1_555 1_555
C17 C16 1_555 1_555
H8 C17 1_555 1_555
C18 C13 1_555 1_555
H9 C18 1_555 1_555
C19 C16 1_555 1_555
C20 C19 1_555 1_555
H10 C20 1_555 1_555
C21 C20 1_555 1_555
H11 C21 1_555 1_555
C22 C21 1_555 1_555
H12 C22 1_555 1_555
C23 C22 1_555 1_555
H13 C23 1_555 1_555
C24 C19 1_555 1_555
H14 C24 1_555 1_555
S4 C25 1_555 1_555
S5 C31 1_555 1_555
S6 C34 1_555 1_555
C25 C26 1_555 1_555
C26 H15 1_555 1_555
C27 C26 1_555 1_555
H16 C27 1_555 1_555
C28 C27 1_555 1_555
H17 C28 1_555 1_555
C29 C28 1_555 1_555
H18 C29 1_555 1_555
C30 C25 1_555 1_555
C31 C30 1_555 1_555
C32 S5 1_555 1_555
C33 C32 1_555 1_555
H19 C33 1_555 1_555
C34 C33 1_555 1_555
C35 S6 1_555 1_555
C36 S4 1_555 1_555
C37 C34 1_555 1_555
C38 C37 1_555 1_555
H20 C38 1_555 1_555
C39 C38 1_555 1_555
H21 C39 1_555 1_555
C40 C39 1_555 1_555
C41 C40 1_555 1_555
H22 C41 1_555 1_555
C42 C37 1_555 1_555
H23 C42 1_555 1_555
C43 C40 1_555 1_555
C44 C43 1_555 1_555
H24 C44 1_555 1_555
C45 C44 1_555 1_555
H25 C45 1_555 1_555
C46 C45 1_555 1_555
H26 C46 1_555 1_555
C47 C46 1_555 1_555
H27 C47 1_555 1_555
C48 C43 1_555 1_555
H28 C48 1_555 1_555
C5 C6 1_555 1_555
C7 C12 1_555 1_555
C8 C11 1_555 1_555
C11 C12 1_555 1_555
C17 C18 1_555 1_555
C23 C24 1_555 1_555
C29 C30 1_555 1_555
C31 C36 1_555 1_555
C32 C35 1_555 1_555
C35 C36 1_555 1_555
C41 C42 1_555 1_555
C47 C48 1_555 1_555

#END
