
#######################################################################
#
#                 Cambridge Crystallographic Data Centre
#                                CCDC 
#
#######################################################################
#
# If this CIF has been generated from an entry in the Cambridge 
# Structural Database, then it will include bibliographic, chemical, 
# crystal, experimental, refinement or atomic coordinate data resulting 
# from the CCDC's data processing and validation procedures.
#
#######################################################################

data_YIHVUI01
_chemical_formula_moiety         'C24 H10 S6'
_chemical_name_systematic        
2,2'-Bithieno[2',3':4,5]thieno[3,2-b][1]benzothiophene
_symmetry_cell_setting           monoclinic
_symmetry_space_group_name_H-M   'P 21/c'
_symmetry_Int_Tables_number      14
_space_group_name_Hall           '-P 2ybc'
loop_
_symmetry_equiv_pos_site_id
_symmetry_equiv_pos_as_xyz
1 x,y,z
2 -x,1/2+y,1/2-z
3 -x,-y,-z
4 x,1/2-y,1/2+z
_cell_length_a                   21.912(4)
_cell_length_b                   3.8720(8)
_cell_length_c                   11.272(3)
_cell_angle_alpha                90
_cell_angle_beta                 103.774(14)
_cell_angle_gamma                90
_cell_volume                     928.851
_exptl_crystal_colour            colorless
_exptl_crystal_description       plate
_cell_formula_units_Z            2
loop_
_atom_site_label
_atom_site_type_symbol
_atom_site_fract_x
_atom_site_fract_y
_atom_site_fract_z
S1 S 0.41100(8) -0.1628(5) 0.87550(16)
S2 S 0.31378(8) 0.2076(5) 1.12673(16)
S3 S 0.22811(8) -0.2374(5) 0.78676(16)
C1 C 0.4672(3) 0.0032(19) 1.0008(6)
C2 C 0.4400(3) 0.1248(19) 1.0903(7)
H1 H 0.4627 0.2196 1.1657
C3 C 0.3735(3) 0.091(2) 1.0562(7)
C4 C 0.3503(3) -0.0546(19) 0.9438(6)
C5 C 0.2836(3) -0.0816(19) 0.9122(6)
C6 C 0.2568(3) 0.053(2) 1.0006(6)
C7 C 0.1896(4) 0.0454(19) 0.9699(7)
C8 C 0.1675(3) -0.1053(19) 0.8534(7)
C9 C 0.1032(3) -0.138(2) 0.7999(7)
H2 H 0.0891 -0.2403 0.7215
C10 C 0.0606(3) -0.020(2) 0.8638(7)
H3 H 0.0168 -0.0403 0.8289
C11 C 0.0815(4) 0.131(2) 0.9793(7)
H4 H 0.0517 0.2102 1.0220
C12 C 0.1455(4) 0.1656(19) 1.0325(7)
H5 H 0.1592 0.2700 1.1106
S1B S 0.58900(8) 0.1628(5) 1.12450(16)
S2B S 0.68622(8) -0.2076(5) 0.87327(16)
S3B S 0.77189(8) 0.2374(5) 1.21324(16)
C1B C 0.5328(3) -0.0032(19) 0.9992(6)
C2B C 0.5600(3) -0.1248(19) 0.9097(7)
H1B H 0.5373 -0.2196 0.8343
C3B C 0.6265(3) -0.091(2) 0.9438(7)
C4B C 0.6497(3) 0.0546(19) 1.0562(6)
C5B C 0.7164(3) 0.0816(19) 1.0878(6)
C6B C 0.7432(3) -0.053(2) 0.9994(6)
C7B C 0.8104(4) -0.0454(19) 1.0301(7)
C8B C 0.8325(3) 0.1053(19) 1.1466(7)
C9B C 0.8968(3) 0.138(2) 1.2001(7)
H2B H 0.9109 0.2403 1.2785
C10B C 0.9394(3) 0.020(2) 1.1362(7)
H3B H 0.9832 0.0403 1.1711
C11B C 0.9185(4) -0.131(2) 1.0207(7)
H4B H 0.9483 -0.2102 0.9780
C12B C 0.8545(4) -0.1656(19) 0.9675(7)
H5B H 0.8408 -0.2700 0.8894
loop_
_geom_bond_atom_site_label_1
_geom_bond_atom_site_label_2
_geom_bond_site_symmetry_1
_geom_bond_site_symmetry_2
S1 C1 1_555 1_555
S2 C3 1_555 1_555
S3 C5 1_555 1_555
C1 C2 1_555 1_555
C2 H1 1_555 1_555
C3 C2 1_555 1_555
C4 S1 1_555 1_555
C5 C4 1_555 1_555
C6 S2 1_555 1_555
C7 C6 1_555 1_555
C8 S3 1_555 1_555
C9 C8 1_555 1_555
H2 C9 1_555 1_555
C10 C9 1_555 1_555
H3 C10 1_555 1_555
C11 C10 1_555 1_555
H4 C11 1_555 1_555
C12 C7 1_555 1_555
H5 C12 1_555 1_555
S1B C1B 1_555 1_555
S2B C3B 1_555 1_555
S3B C5B 1_555 1_555
C1B C1 1_555 1_555
C2B C1B 1_555 1_555
H1B C2B 1_555 1_555
C3B C2B 1_555 1_555
C4B S1B 1_555 1_555
C5B C4B 1_555 1_555
C6B S2B 1_555 1_555
C7B C6B 1_555 1_555
C8B S3B 1_555 1_555
C9B C8B 1_555 1_555
H2B C9B 1_555 1_555
C10B C9B 1_555 1_555
H3B C10B 1_555 1_555
C11B C10B 1_555 1_555
H4B C11B 1_555 1_555
C12B C7B 1_555 1_555
H5B C12B 1_555 1_555
C3 C4 1_555 1_555
C5 C6 1_555 1_555
C7 C8 1_555 1_555
C11 C12 1_555 1_555
C3B C4B 1_555 1_555
C5B C6B 1_555 1_555
C7B C8B 1_555 1_555
C11B C12B 1_555 1_555

#END
