
#######################################################################
#
#                 Cambridge Crystallographic Data Centre
#                                CCDC 
#
#######################################################################
#
# If this CIF has been generated from an entry in the Cambridge 
# Structural Database, then it will include bibliographic, chemical, 
# crystal, experimental, refinement or atomic coordinate data resulting 
# from the CCDC's data processing and validation procedures.
#
#######################################################################

data_YIHVIW01
_chemical_formula_moiety         'C24 H14 S3'
_chemical_name_systematic        
2-(Biphenyl-4-yl)thieno[2',3':4,5]thieno[3,2-b][1]benzothiophene
_symmetry_cell_setting           triclinic
_symmetry_space_group_name_H-M   'P -1'
_symmetry_Int_Tables_number      2
_space_group_name_Hall           '-P 1'
loop_
_symmetry_equiv_pos_site_id
_symmetry_equiv_pos_as_xyz
1 x,y,z
2 -x,-y,-z
_cell_length_a                   5.8509(5)
_cell_length_b                   7.5915(6)
_cell_length_c                   39.160(3)
_cell_angle_alpha                86.063(5)
_cell_angle_beta                 89.141(5)
_cell_angle_gamma                89.906(5)
_cell_volume                     1735.07
_exptl_crystal_colour            colorless
_exptl_crystal_description       plate
_cell_formula_units_Z            4
loop_
_atom_site_label
_atom_site_type_symbol
_atom_site_fract_x
_atom_site_fract_y
_atom_site_fract_z
S1 S 1.07978(16) 1.14518(13) 0.12563(2)
S2 S 0.49149(16) 0.91916(13) 0.17314(2)
S3 S 1.05984(16) 1.09163(14) 0.22458(2)
C1 C 0.8982(6) 1.0914(5) 0.09323(10)
C2 C 0.9442(7) 1.1196(6) 0.05827(10)
H1 H 1.0811 1.1764 0.0502
C3 C 0.7858(7) 1.0627(6) 0.03563(10)
H2 H 0.8158 1.0786 0.0117
C4 C 0.5798(7) 0.9813(6) 0.04755(10)
H3 H 0.4725 0.9437 0.0316
C5 C 0.5336(6) 0.9561(5) 0.08205(10)
H4 H 0.3947 0.9013 0.0898
C6 C 0.6909(6) 1.0111(5) 0.10585(10)
C7 C 0.6881(6) 0.9993(5) 0.14236(9)
C8 C 0.6772(6) 0.9673(5) 0.20536(10)
C9 C 0.6714(7) 0.9401(5) 0.24137(10)
H5 H 0.5474 0.8874 0.2542
C10 C 0.8681(6) 0.9997(5) 0.25547(9)
C11 C 0.8779(6) 1.0475(5) 0.19242(9)
C12 C 0.8842(6) 1.0649(5) 0.15634(9)
C13 C 0.9327(6) 0.9920(5) 0.29149(10)
C14 C 0.8004(7) 0.9027(6) 0.31717(10)
H6 H 0.6628 0.8467 0.3113
C15 C 0.8660(7) 0.8942(6) 0.35099(10)
H7 H 0.7719 0.8329 0.3678
C16 C 1.0682(7) 0.9740(6) 0.36113(10)
C17 C 1.1994(7) 1.0646(6) 0.33539(10)
H8 H 1.3358 1.1221 0.3413
C18 C 1.1347(7) 1.0722(6) 0.30156(10)
H9 H 1.2291 1.1330 0.2847
C19 C 1.1366(7) 0.9643(5) 0.39733(10)
C20 C 1.0009(8) 0.8796(6) 0.42327(11)
H10 H 0.8622 0.8251 0.4174
C21 C 1.0648(8) 0.8735(7) 0.45737(11)
H11 H 0.9693 0.8162 0.4745
C22 C 1.2699(8) 0.9515(6) 0.46649(11)
H12 H 1.3145 0.9470 0.4898
C23 C 1.4058(8) 1.0346(7) 0.44145(11)
H13 H 1.5439 1.0894 0.4475
C24 C 1.3430(7) 1.0392(6) 0.40729(11)
H14 H 1.4417 1.0942 0.3903
S4 S 0.57453(16) 0.42710(13) 0.12434(2)
S5 S -0.01285(16) 0.62987(13) 0.17094(2)
S6 S 0.55656(16) 0.42846(14) 0.22311(2)
C25 C 0.3881(7) 0.4956(5) 0.09164(10)
C26 C 0.4341(7) 0.4806(6) 0.05688(10)
H15 H 0.5715 0.4280 0.0493
C27 C 0.2719(8) 0.5451(6) 0.03388(11)
H16 H 0.2981 0.5358 0.0101
C28 C 0.0691(7) 0.6242(6) 0.04509(10)
H17 H -0.0385 0.6691 0.0288
C29 C 0.0245(7) 0.6372(5) 0.07975(10)
H18 H -0.1132 0.6902 0.0872
C30 C 0.1840(6) 0.5718(5) 0.10357(10)
C31 C 0.1850(6) 0.5667(5) 0.14042(10)
C32 C 0.1722(6) 0.5622(5) 0.20320(9)
C33 C 0.1689(6) 0.5697(5) 0.23936(9)
H19 H 0.0454 0.6156 0.2520
C34 C 0.3643(6) 0.5030(5) 0.25361(10)
C35 C 0.3725(6) 0.4891(5) 0.19053(9)
C36 C 0.3789(6) 0.4941(5) 0.15443(9)
C37 C 0.4302(6) 0.4920(5) 0.28972(10)
C38 C 0.2968(7) 0.5648(6) 0.31500(10)
H20 H 0.1576 0.6224 0.3088
C39 C 0.3628(7) 0.5551(6) 0.34880(10)
H21 H 0.2673 0.6054 0.3654
C40 C 0.5654(7) 0.4737(5) 0.35912(10)
C41 C 0.6996(7) 0.3987(6) 0.33380(10)
H22 H 0.8382 0.3406 0.3400
C42 C 0.6331(7) 0.4083(6) 0.29986(11)
H23 H 0.7273 0.3570 0.2832
C43 C 0.6403(7) 0.4643(5) 0.39535(10)
C44 C 0.5113(8) 0.5435(6) 0.42060(11)
H24 H 0.3741 0.6040 0.4145
C45 C 0.5812(8) 0.5346(7) 0.45443(11)
H25 H 0.4921 0.5898 0.4712
C46 C 0.7792(8) 0.4462(6) 0.46391(11)
H26 H 0.8252 0.4394 0.4871
C47 C 0.9115(8) 0.3670(7) 0.43933(11)
H27 H 1.0484 0.3067 0.4457
C48 C 0.8420(8) 0.3769(6) 0.40563(11)
H28 H 0.9333 0.3231 0.3890
loop_
_geom_bond_atom_site_label_1
_geom_bond_atom_site_label_2
_geom_bond_site_symmetry_1
_geom_bond_site_symmetry_2
S1 C1 1_555 1_555
S2 C7 1_555 1_555
S3 C10 1_555 1_555
C1 C2 1_555 1_555
C2 H1 1_555 1_555
C3 C2 1_555 1_555
H2 C3 1_555 1_555
C4 C3 1_555 1_555
H3 C4 1_555 1_555
C5 C4 1_555 1_555
H4 C5 1_555 1_555
C6 C1 1_555 1_555
C7 C6 1_555 1_555
C8 S2 1_555 1_555
C9 C8 1_555 1_555
H5 C9 1_555 1_555
C10 C9 1_555 1_555
C11 S3 1_555 1_555
C12 S1 1_555 1_555
C13 C10 1_555 1_555
C14 C13 1_555 1_555
H6 C14 1_555 1_555
C15 C14 1_555 1_555
H7 C15 1_555 1_555
C16 C15 1_555 1_555
C17 C16 1_555 1_555
H8 C17 1_555 1_555
C18 C13 1_555 1_555
H9 C18 1_555 1_555
C19 C16 1_555 1_555
C20 C19 1_555 1_555
H10 C20 1_555 1_555
C21 C20 1_555 1_555
H11 C21 1_555 1_555
C22 C21 1_555 1_555
H12 C22 1_555 1_555
C23 C22 1_555 1_555
H13 C23 1_555 1_555
C24 C19 1_555 1_555
H14 C24 1_555 1_555
S4 C25 1_555 1_555
S5 C31 1_555 1_555
S6 C34 1_555 1_555
C25 C26 1_555 1_555
C26 H15 1_555 1_555
C27 C26 1_555 1_555
H16 C27 1_555 1_555
C28 C27 1_555 1_555
H17 C28 1_555 1_555
C29 C28 1_555 1_555
H18 C29 1_555 1_555
C30 C25 1_555 1_555
C31 C30 1_555 1_555
C32 S5 1_555 1_555
C33 C32 1_555 1_555
H19 C33 1_555 1_555
C34 C33 1_555 1_555
C35 S6 1_555 1_555
C36 S4 1_555 1_555
C37 C34 1_555 1_555
C38 C37 1_555 1_555
H20 C38 1_555 1_555
C39 C38 1_555 1_555
H21 C39 1_555 1_555
C40 C39 1_555 1_555
C41 C40 1_555 1_555
H22 C41 1_555 1_555
C42 C37 1_555 1_555
H23 C42 1_555 1_555
C43 C40 1_555 1_555
C44 C43 1_555 1_555
H24 C44 1_555 1_555
C45 C44 1_555 1_555
H25 C45 1_555 1_555
C46 C45 1_555 1_555
H26 C46 1_555 1_555
C47 C46 1_555 1_555
H27 C47 1_555 1_555
C48 C43 1_555 1_555
H28 C48 1_555 1_555
C5 C6 1_555 1_555
C7 C12 1_555 1_555
C8 C11 1_555 1_555
C11 C12 1_555 1_555
C17 C18 1_555 1_555
C23 C24 1_555 1_555
C29 C30 1_555 1_555
C31 C36 1_555 1_555
C32 C35 1_555 1_555
C35 C36 1_555 1_555
C41 C42 1_555 1_555
C47 C48 1_555 1_555

#END
