
#######################################################################
#
#                 Cambridge Crystallographic Data Centre
#                                CCDC 
#
#######################################################################
#
# If this CIF has been generated from an entry in the Cambridge 
# Structural Database, then it will include bibliographic, chemical, 
# crystal, experimental, refinement or atomic coordinate data resulting 
# from the CCDC's data processing and validation procedures.
#
#######################################################################

data_YIHVUI
_chemical_formula_moiety         'C24 H10 S6'
_chemical_name_systematic        
2,2'-Bithieno[2',3':4,5]thieno[3,2-b][1]benzothiophene
_symmetry_cell_setting           monoclinic
_symmetry_space_group_name_H-M   'P 21/c'
_symmetry_Int_Tables_number      14
_space_group_name_Hall           '-P 2ybc'
loop_
_symmetry_equiv_pos_site_id
_symmetry_equiv_pos_as_xyz
1 x,y,z
2 -x,1/2+y,1/2-z
3 -x,-y,-z
4 x,1/2-y,1/2+z
_cell_length_a                   21.8886(10)
_cell_length_b                   3.9428(3)
_cell_length_c                   11.3536(5)
_cell_angle_alpha                90
_cell_angle_beta                 104.024(3)
_cell_angle_gamma                90
_cell_volume                     950.638
_exptl_crystal_colour            colorless
_exptl_crystal_description       needle
_cell_formula_units_Z            2
loop_
_atom_site_label
_atom_site_type_symbol
_atom_site_fract_x
_atom_site_fract_y
_atom_site_fract_z
S1 S 0.41120(3) -0.15944(19) 0.87639(6)
S2 S 0.31398(3) 0.2070(2) 1.12478(6)
S3 S 0.22853(3) -0.23345(19) 0.78800(6)
C1 C 0.46696(12) 0.0027(8) 1.0004(2)
C2 C 0.43993(12) 0.1259(8) 1.0889(2)
H1 H 0.4625 0.2198 1.1617
C3 C 0.37393(12) 0.0928(8) 1.0561(2)
C4 C 0.35072(12) -0.0569(8) 0.9436(2)
C5 C 0.28435(12) -0.0807(7) 0.9123(2)
C6 C 0.25757(12) 0.0541(8) 1.0004(2)
C7 C 0.19038(12) 0.0450(8) 0.9692(2)
C8 C 0.16777(12) -0.1055(8) 0.8543(2)
C9 C 0.10385(13) -0.1387(9) 0.8016(3)
H2 H 0.0898 -0.2376 0.7254
C10 C 0.06173(13) -0.0216(9) 0.8648(3)
H3 H 0.0187 -0.0425 0.8311
C11 C 0.08279(13) 0.1278(9) 0.9787(3)
H4 H 0.0536 0.2054 1.0199
C12 C 0.14610(13) 0.1622(8) 1.0311(3)
H5 H 0.1595 0.2625 1.1071
S1B S 0.58880(3) 0.15944(19) 1.12361(6)
S2B S 0.68602(3) -0.2070(2) 0.87522(6)
S3B S 0.77147(3) 0.23345(19) 1.21200(6)
C1B C 0.53304(12) -0.0027(8) 0.9996(2)
C2B C 0.56007(12) -0.1259(8) 0.9111(2)
H1B H 0.5375 -0.2198 0.8383
C3B C 0.62607(12) -0.0928(8) 0.9439(2)
C4B C 0.64928(12) 0.0569(8) 1.0564(2)
C5B C 0.71565(12) 0.0807(7) 1.0877(2)
C6B C 0.74243(12) -0.0541(8) 0.9996(2)
C7B C 0.80962(12) -0.0450(8) 1.0308(2)
C8B C 0.83223(12) 0.1055(8) 1.1457(2)
C9B C 0.89615(13) 0.1387(9) 1.1984(3)
H2B H 0.9102 0.2376 1.2746
C10B C 0.93827(13) 0.0216(9) 1.1352(3)
H3B H 0.9813 0.0425 1.1689
C11B C 0.91721(13) -0.1278(9) 1.0213(3)
H4B H 0.9464 -0.2054 0.9801
C12B C 0.85390(13) -0.1622(8) 0.9689(3)
H5B H 0.8405 -0.2625 0.8929
loop_
_geom_bond_atom_site_label_1
_geom_bond_atom_site_label_2
_geom_bond_site_symmetry_1
_geom_bond_site_symmetry_2
S1 C1 1_555 1_555
S2 C3 1_555 1_555
S3 C5 1_555 1_555
C1 C2 1_555 1_555
C2 H1 1_555 1_555
C3 C2 1_555 1_555
C4 S1 1_555 1_555
C5 C4 1_555 1_555
C6 S2 1_555 1_555
C7 C6 1_555 1_555
C8 S3 1_555 1_555
C9 C8 1_555 1_555
H2 C9 1_555 1_555
C10 C9 1_555 1_555
H3 C10 1_555 1_555
C11 C10 1_555 1_555
H4 C11 1_555 1_555
C12 C7 1_555 1_555
H5 C12 1_555 1_555
S1B C1B 1_555 1_555
S2B C3B 1_555 1_555
S3B C5B 1_555 1_555
C1B C1 1_555 1_555
C2B C1B 1_555 1_555
H1B C2B 1_555 1_555
C3B C2B 1_555 1_555
C4B S1B 1_555 1_555
C5B C4B 1_555 1_555
C6B S2B 1_555 1_555
C7B C6B 1_555 1_555
C8B S3B 1_555 1_555
C9B C8B 1_555 1_555
H2B C9B 1_555 1_555
C10B C9B 1_555 1_555
H3B C10B 1_555 1_555
C11B C10B 1_555 1_555
H4B C11B 1_555 1_555
C12B C7B 1_555 1_555
H5B C12B 1_555 1_555
C3 C4 1_555 1_555
C5 C6 1_555 1_555
C7 C8 1_555 1_555
C11 C12 1_555 1_555
C3B C4B 1_555 1_555
C5B C6B 1_555 1_555
C7B C8B 1_555 1_555
C11B C12B 1_555 1_555

#END
