
#######################################################################
#
#                 Cambridge Crystallographic Data Centre
#                                CCDC 
#
#######################################################################
#
# If this CIF has been generated from an entry in the Cambridge 
# Structural Database, then it will include bibliographic, chemical, 
# crystal, experimental, refinement or atomic coordinate data resulting 
# from the CCDC's data processing and validation procedures.
#
#######################################################################

data_YIJDON
_chemical_formula_moiety         'C22 H30 O4'
_chemical_name_systematic        
'1-formyl-1,4a-dimethyl-6-methylidene-5-(3-methylpenta-2,4-dien-1-yl)-3-oxodecahydronaphthalen-2-yl acetate'
_symmetry_cell_setting           orthorhombic
_symmetry_space_group_name_H-M   'P 21 21 21'
_symmetry_Int_Tables_number      19
_space_group_name_Hall           'P 2ac 2ab'
loop_
_symmetry_equiv_pos_site_id
_symmetry_equiv_pos_as_xyz
1 x,y,z
2 1/2+x,1/2-y,-z
3 -x,1/2+y,1/2-z
4 1/2-x,-y,1/2+z
_cell_length_a                   6.07170(10)
_cell_length_b                   12.8248(2)
_cell_length_c                   25.9212(5)
_cell_angle_alpha                90
_cell_angle_beta                 90
_cell_angle_gamma                90
_cell_volume                     2018.44
_exptl_crystal_colour            colorless
_exptl_crystal_description       prism
_cell_formula_units_Z            4
loop_
_atom_site_label
_atom_site_type_symbol
_atom_site_fract_x
_atom_site_fract_y
_atom_site_fract_z
O1 O 0.3141(3) 0.39298(15) 1.09056(7)
O2 O 0.3044(3) 0.25344(14) 1.01338(7)
O3 O 0.7569(3) 0.56558(14) 1.03350(8)
O4 O -0.0225(4) 0.33361(16) 1.11122(8)
C1 C 0.2767(7) 0.3132(3) 1.17139(11)
H1 H 0.2751 0.3717 1.1957
H2 H 0.4293 0.2927 1.1644
H3 H 0.1968 0.2541 1.1864
C2 C 0.1675(5) 0.3455(2) 1.12183(10)
C3 C 0.2351(4) 0.42721(19) 1.04114(9)
H4 H 0.0770 0.4479 1.0446
C4 C 0.3712(4) 0.52449(18) 1.02669(10)
C5 C 0.3076(4) 0.55730(17) 0.97038(10)
H5 H 0.1475 0.5755 0.9720
C6 C 0.3252(4) 0.47019(18) 0.92917(10)
C7 C 0.2147(4) 0.51337(18) 0.87862(9)
H6 H 0.0632 0.5359 0.8888
C8 C 0.1837(5) 0.4333(2) 0.83582(11)
H7 H 0.3276 0.4192 0.8193
H8 H 0.1298 0.3671 0.8510
C9 C 0.0234(5) 0.4701(2) 0.79574(11)
H9 H -0.0594 0.5306 0.8040
C10 C -0.0162(5) 0.4269(2) 0.74929(11)
C11 C -0.1796(5) 0.4760(2) 0.71537(11)
H10 H -0.2483 0.5378 0.7276
C12 C -0.2398(6) 0.4423(3) 0.66941(12)
H11 H -0.1756 0.3808 0.6555
H12 H -0.3474 0.4794 0.6502
C13 C 0.2525(4) 0.34058(19) 1.00179(10)
C14 C 0.1944(4) 0.37358(18) 0.94752(10)
H13 H 0.0350 0.3893 0.9459
H14 H 0.2239 0.3148 0.9237
C15 C 0.0999(6) 0.3312(3) 0.73077(12)
H15 H 0.1925 0.3489 0.7011
H16 H -0.0089 0.2787 0.7205
H17 H 0.1922 0.3033 0.7585
C16 C 0.3330(5) 0.6114(2) 0.86150(10)
C17 C 0.3339(5) 0.69542(19) 0.90134(11)
H18 H 0.1818 0.7213 0.9063
H19 H 0.4248 0.7543 0.8889
C18 C 0.4241(4) 0.65795(19) 0.95312(10)
H20 H 0.4020 0.7129 0.9795
H21 H 0.5843 0.6449 0.9500
C19 C 0.6158(4) 0.4994(2) 1.03185(10)
H22 H 0.6591 0.4283 1.0339
C20 C 0.3129(5) 0.6126(2) 1.06465(10)
H23 H 0.3256 0.5868 1.1001
H24 H 0.1616 0.6360 1.0583
H25 H 0.4145 0.6711 1.0597
C21 C 0.4290(6) 0.6232(3) 0.81579(12)
H26 H 0.5014 0.6867 0.8076
H27 H 0.4252 0.5681 0.7913
C22 C 0.5632(4) 0.43665(19) 0.91753(10)
H28 H 0.6238 0.3996 0.9474
H29 H 0.6530 0.4985 0.9104
H30 H 0.5646 0.3905 0.8874
loop_
_geom_bond_atom_site_label_1
_geom_bond_atom_site_label_2
_geom_bond_site_symmetry_1
_geom_bond_site_symmetry_2
O1 C2 1_555 1_555
O2 C13 1_555 1_555
O3 C19 1_555 1_555
O4 C2 1_555 1_555
C1 H1 1_555 1_555
H2 C1 1_555 1_555
H3 C1 1_555 1_555
C2 C1 1_555 1_555
C3 O1 1_555 1_555
H4 C3 1_555 1_555
C4 C3 1_555 1_555
C5 C4 1_555 1_555
H5 C5 1_555 1_555
C6 C5 1_555 1_555
C7 C6 1_555 1_555
H6 C7 1_555 1_555
C8 C7 1_555 1_555
H7 C8 1_555 1_555
H8 C8 1_555 1_555
C9 C8 1_555 1_555
H9 C9 1_555 1_555
C10 C9 1_555 1_555
C11 C10 1_555 1_555
H10 C11 1_555 1_555
C12 C11 1_555 1_555
H11 C12 1_555 1_555
H12 C12 1_555 1_555
C13 C3 1_555 1_555
C14 C6 1_555 1_555
H13 C14 1_555 1_555
H14 C14 1_555 1_555
C15 C10 1_555 1_555
H15 C15 1_555 1_555
H16 C15 1_555 1_555
H17 C15 1_555 1_555
C16 C7 1_555 1_555
C17 C16 1_555 1_555
H18 C17 1_555 1_555
H19 C17 1_555 1_555
C18 C5 1_555 1_555
H20 C18 1_555 1_555
H21 C18 1_555 1_555
C19 C4 1_555 1_555
H22 C19 1_555 1_555
C20 C4 1_555 1_555
H23 C20 1_555 1_555
H24 C20 1_555 1_555
H25 C20 1_555 1_555
C21 C16 1_555 1_555
H26 C21 1_555 1_555
H27 C21 1_555 1_555
C22 C6 1_555 1_555
H28 C22 1_555 1_555
H29 C22 1_555 1_555
H30 C22 1_555 1_555
C13 C14 1_555 1_555
C17 C18 1_555 1_555

#END
