
#######################################################################
#
#                 Cambridge Crystallographic Data Centre
#                                CCDC 
#
#######################################################################
#
# If this CIF has been generated from an entry in the Cambridge 
# Structural Database, then it will include bibliographic, chemical, 
# crystal, experimental, refinement or atomic coordinate data resulting 
# from the CCDC's data processing and validation procedures.
#
#######################################################################

data_YIJKEJ
_chemical_formula_moiety         'C12 H16 O2'
_chemical_name_systematic        '(4-Isobutylphenyl)acetic acid'
_symmetry_cell_setting           monoclinic
_symmetry_space_group_name_H-M   'P 21/c'
_symmetry_Int_Tables_number      14
_space_group_name_Hall           '-P 2ybc'
loop_
_symmetry_equiv_pos_site_id
_symmetry_equiv_pos_as_xyz
1 x,y,z
2 -x,1/2+y,1/2-z
3 -x,-y,-z
4 x,1/2-y,1/2+z
_cell_length_a                   11.197(3)
_cell_length_b                   5.1203(14)
_cell_length_c                   19.124(5)
_cell_angle_alpha                90
_cell_angle_beta                 99.338(5)
_cell_angle_gamma                90
_cell_volume                     1081.89
_exptl_crystal_colour            colorless
_exptl_crystal_description       Needle
_cell_formula_units_Z            4
loop_
_atom_site_label
_atom_site_type_symbol
_atom_site_fract_x
_atom_site_fract_y
_atom_site_fract_z
O1 O 0.4605(6) 0.5660(13) 0.0782(4)
O2 O 0.4245(5) 0.2040(15) 0.0124(3)
H1 H 0.4658 0.2832 -0.0138
C1 C 0.4143(4) 0.3514(12) 0.0681(3)
C2 C 0.3406(5) 0.2190(12) 0.1167(3)
H2 H 0.3812 0.0531 0.1331
H3 H 0.2607 0.1741 0.0890
C3 C 0.3201(4) 0.3733(10) 0.1811(2)
C4 C 0.3823(4) 0.3083(11) 0.2479(3)
H4 H 0.4387 0.1684 0.2527
C5 C 0.3623(4) 0.4465(12) 0.3074(3)
H5 H 0.4067 0.4014 0.3524
C6 C 0.2794(4) 0.6479(13) 0.3027(3)
C7 C 0.2204(5) 0.7189(15) 0.2358(4)
H6 H 0.1668 0.8639 0.2310
C8 C 0.2390(4) 0.5795(13) 0.1756(4)
H7 H 0.1956 0.6267 0.1305
C9 C 0.2515(10) 0.787(3) 0.3680(6)
H8 H 0.2132 0.9575 0.3540
H9 H 0.3279 0.8210 0.4007
C10 C 0.1659(3) 0.6245(11) 0.40699(17)
H10 H 0.2043 0.4506 0.4193
C11 C 0.0434(4) 0.5799(18) 0.3589(2)
H11 H -0.0113 0.4870 0.3855
H12 H 0.0557 0.4754 0.3177
H13 H 0.0078 0.7487 0.3429
C12 C 0.1498(4) 0.7611(14) 0.47525(19)
H14 H 0.1170 0.9366 0.4644
H15 H 0.2283 0.7744 0.5063
H16 H 0.0938 0.6606 0.4991
O3? O 0.4247(13) 0.558(3) 0.0718(11)
O4? O 0.3856(10) 0.209(4) 0.0037(8)
H17? H 0.4308 0.2877 -0.0204
C13? C 0.3763(8) 0.348(3) 0.0607(7)
C14? C 0.3007(9) 0.213(3) 0.1073(6)
H18? H 0.3374 0.0405 0.1209
H19? H 0.2194 0.1810 0.0796
C15? C 0.2863(9) 0.361(3) 0.1743(7)
C16? C 0.3459(11) 0.285(3) 0.2394(7)
H20? H 0.3981 0.1375 0.2430
C17? C 0.3308(12) 0.422(3) 0.3009(8)
H21? H 0.3731 0.3682 0.3457
C18? C 0.2544(11) 0.636(3) 0.2963(9)
C19? C 0.1958(15) 0.712(4) 0.2306(10)
H22? H 0.1441 0.8606 0.2263
C20? C 0.2121(13) 0.574(3) 0.1703(10)
H23? H 0.1706 0.6283 0.1254
C21? C 0.238(3) 0.778(7) 0.3636(17)
H24? H 0.2505 0.9674 0.3571
H25? H 0.3002 0.7175 0.4028
C22? C 0.1122(9) 0.7386(17) 0.3851(4)
H26? H 0.0510 0.8135 0.3463
C23? C 0.1026(13) 0.894(2) 0.4537(7)
H27? H 0.0847 1.0774 0.4417
H28? H 0.1794 0.8822 0.4864
H29? H 0.0376 0.8203 0.4763
C24? C 0.0815(10) 0.4623(19) 0.3924(7)
H30? H 0.0862 0.3704 0.3479
H31? H -0.0009 0.4483 0.4031
H32? H 0.1385 0.3835 0.4309
loop_
_geom_bond_atom_site_label_1
_geom_bond_atom_site_label_2
_geom_bond_site_symmetry_1
_geom_bond_site_symmetry_2
O1 C1 1_555 1_555
O2 H1 1_555 1_555
C1 O2 1_555 1_555
C2 C1 1_555 1_555
H2 C2 1_555 1_555
H3 C2 1_555 1_555
C3 C2 1_555 1_555
C4 C3 1_555 1_555
H4 C4 1_555 1_555
C5 C4 1_555 1_555
H5 C5 1_555 1_555
C6 C5 1_555 1_555
C7 C6 1_555 1_555
H6 C7 1_555 1_555
C8 C3 1_555 1_555
H7 C8 1_555 1_555
C9 C6 1_555 1_555
H8 C9 1_555 1_555
H9 C9 1_555 1_555
C10 C9 1_555 1_555
H10 C10 1_555 1_555
C11 C10 1_555 1_555
H11 C11 1_555 1_555
H12 C11 1_555 1_555
H13 C11 1_555 1_555
C12 C10 1_555 1_555
H14 C12 1_555 1_555
H15 C12 1_555 1_555
H16 C12 1_555 1_555
C7 C8 1_555 1_555

#END
