
#######################################################################
#
#                 Cambridge Crystallographic Data Centre
#                                CCDC 
#
#######################################################################
#
# If this CIF has been generated from an entry in the Cambridge 
# Structural Database, then it will include bibliographic, chemical, 
# crystal, experimental, refinement or atomic coordinate data resulting 
# from the CCDC's data processing and validation procedures.
#
#######################################################################

data_YIJLUB
_chemical_name_common            2-phenylacrylamide
_chemical_formula_moiety         'C9 H9 N1 O1'
_chemical_name_systematic        2-phenylprop-2-enamide
_symmetry_cell_setting           monoclinic
_symmetry_space_group_name_H-M   'P 21/c'
_symmetry_Int_Tables_number      14
_space_group_name_Hall           '-P 2ybc'
loop_
_symmetry_equiv_pos_site_id
_symmetry_equiv_pos_as_xyz
1 x,y,z
2 -x,1/2+y,1/2-z
3 -x,-y,-z
4 x,1/2-y,1/2+z
_cell_length_a                   27.0542(13)
_cell_length_b                   6.3406(3)
_cell_length_c                   9.7749(3)
_cell_angle_alpha                90
_cell_angle_beta                 99.311(4)
_cell_angle_gamma                90
_cell_volume                     1654.69
_exptl_crystal_colour            colorless
_exptl_crystal_description       block
_cell_formula_units_Z            8
_exptl_crystal_recrystallization_method 
'Re-crystallisation from solvent: dichloromethane/n-hexane'
loop_
_atom_site_label
_atom_site_type_symbol
_atom_site_fract_x
_atom_site_fract_y
_atom_site_fract_z
O1 O 0.45705(9) 0.1354(4) 0.59529(19)
N1 N 0.46370(11) 0.1828(5) 0.3717(2)
H1 H 0.483875 0.077860 0.372327
H2 H 0.455117 0.254703 0.297052
C1 C 0.37033(12) 0.4098(5) 0.5613(3)
C2 C 0.35599(15) 0.5847(7) 0.6313(4)
H3 H 0.372693 0.712142 0.627076
C3 C 0.31730(19) 0.5711(10) 0.7067(5)
H4 H 0.308189 0.688997 0.753521
C4 C 0.29204(19) 0.3837(11) 0.7131(5)
H5 H 0.265941 0.375235 0.764216
C5 C 0.30520(16) 0.2116(9) 0.6451(5)
H6 H 0.287879 0.085484 0.648519
C6 C 0.34473(14) 0.2239(7) 0.5700(4)
H7 H 0.353972 0.104504 0.525004
C7 C 0.41236(12) 0.4225(5) 0.4807(3)
C8 C 0.42264(17) 0.5934(7) 0.4130(4)
H8 H 0.403106 0.713856 0.414300
H9 H 0.449392 0.593113 0.364035
C9 C 0.44586(12) 0.2336(6) 0.4857(3)
O2 O 0.04457(8) 0.8607(3) 0.13154(18)
N2 N 0.03769(10) 0.8271(4) -0.0996(2)
H10 H 0.019441 0.938365 -0.114336
H11 H 0.045204 0.756102 -0.168319
C10 C 0.12598(11) 0.5545(5) 0.1658(3)
C11 C 0.13675(15) 0.3679(6) 0.2388(4)
H12 H 0.117254 0.249069 0.213323
C12 C 0.1755(2) 0.3552(9) 0.3476(5)
H13 H 0.182032 0.228590 0.395141
C13 C 0.20459(19) 0.5274(12) 0.3865(5)
H14 H 0.231084 0.517533 0.459780
C14 C 0.19488(16) 0.7148(11) 0.3178(5)
H15 H 0.214632 0.832436 0.344483
C15 C 0.15516(13) 0.7283(7) 0.2077(4)
H16 H 0.148296 0.856120 0.161879
C16 C 0.08415(11) 0.5642(5) 0.0476(3)
C17 C 0.07001(16) 0.4012(6) -0.0351(4)
H17 H 0.086642 0.272856 -0.020086
H18 H 0.043476 0.415533 -0.107902
C18 C 0.05416(11) 0.7651(5) 0.0286(3)
loop_
_geom_bond_atom_site_label_1
_geom_bond_atom_site_label_2
_geom_bond_site_symmetry_1
_geom_bond_site_symmetry_2
O1 C9 1_555 1_555
N1 H1 1_555 1_555
H2 N1 1_555 1_555
C1 C2 1_555 1_555
C2 H3 1_555 1_555
C3 C2 1_555 1_555
H4 C3 1_555 1_555
C4 C3 1_555 1_555
H5 C4 1_555 1_555
C5 C4 1_555 1_555
H6 C5 1_555 1_555
C6 C1 1_555 1_555
H7 C6 1_555 1_555
C7 C1 1_555 1_555
C8 C7 1_555 1_555
H8 C8 1_555 1_555
H9 C8 1_555 1_555
C9 N1 1_555 1_555
O2 C18 1_555 1_555
N2 H10 1_555 1_555
H11 N2 1_555 1_555
C10 C11 1_555 1_555
C11 H12 1_555 1_555
C12 C11 1_555 1_555
H13 C12 1_555 1_555
C13 C12 1_555 1_555
H14 C13 1_555 1_555
C14 C13 1_555 1_555
H15 C14 1_555 1_555
C15 C10 1_555 1_555
H16 C15 1_555 1_555
C16 C10 1_555 1_555
C17 C16 1_555 1_555
H17 C17 1_555 1_555
H18 C17 1_555 1_555
C18 N2 1_555 1_555
C5 C6 1_555 1_555
C7 C9 1_555 1_555
C14 C15 1_555 1_555
C16 C18 1_555 1_555

#END
