
#######################################################################
#
#                 Cambridge Crystallographic Data Centre
#                                CCDC 
#
#######################################################################
#
# If this CIF has been generated from an entry in the Cambridge 
# Structural Database, then it will include bibliographic, chemical, 
# crystal, experimental, refinement or atomic coordinate data resulting 
# from the CCDC's data processing and validation procedures.
#
#######################################################################

data_YIJNIQ
_chemical_formula_moiety         'C21 H22 Cl1 N1 P2'
_chemical_name_systematic        
'N-(Diphenylphosphino)-N-isopropyl-P-phenylphosphonamidous chloride'
_symmetry_cell_setting           triclinic
_symmetry_space_group_name_H-M   'P -1'
_symmetry_Int_Tables_number      2
_space_group_name_Hall           '-P 1'
loop_
_symmetry_equiv_pos_site_id
_symmetry_equiv_pos_as_xyz
1 x,y,z
2 -x,-y,-z
_cell_length_a                   10.118(2)
_cell_length_b                   10.153(2)
_cell_length_c                   11.622(2)
_cell_angle_alpha                73.97(3)
_cell_angle_beta                 65.70(3)
_cell_angle_gamma                65.83(3)
_cell_volume                     984.384
_exptl_crystal_colour            colorless
_exptl_crystal_description       prism
_cell_formula_units_Z            2
loop_
_atom_site_label
_atom_site_type_symbol
_atom_site_fract_x
_atom_site_fract_y
_atom_site_fract_z
C1 C 0.48412(13) 0.00631(12) 0.33957(10)
C2 C 0.50162(15) -0.12982(13) 0.31989(12)
H1 H 0.6020 -0.1970 0.2862
C3 C 0.37358(17) -0.16807(15) 0.34912(13)
H2 H 0.3864 -0.2611 0.3351
C4 C 0.22760(17) -0.07130(17) 0.39849(14)
H3 H 0.1399 -0.0973 0.4176
C5 C 0.20892(16) 0.06371(16) 0.42011(14)
H4 H 0.1083 0.1300 0.4547
C6 C 0.33642(14) 0.10239(13) 0.39139(12)
H5 H 0.3230 0.1948 0.4071
C7 C 0.64462(13) 0.11431(11) 0.05564(10)
H6 H 0.6526 0.0101 0.0867
C8 C 0.49671(16) 0.19132(15) 0.02494(13)
H7 H 0.4086 0.1857 0.1023
H8 H 0.4996 0.1443 -0.0396
H9 H 0.4866 0.2936 -0.0077
C9 C 0.78715(15) 0.11685(14) -0.06040(11)
H10 H 0.7844 0.2177 -0.0917
H11 H 0.7895 0.0739 -0.1273
H12 H 0.8795 0.0606 -0.0370
C10 C 0.45860(12) 0.43312(11) 0.26746(10)
C11 C 0.31847(13) 0.50690(12) 0.24668(11)
H13 H 0.3149 0.5209 0.1636
C12 C 0.18379(14) 0.56018(13) 0.34620(12)
H14 H 0.0887 0.6099 0.3311
C13 C 0.18859(14) 0.54051(13) 0.46727(12)
H15 H 0.0966 0.5759 0.5357
C14 C 0.32791(15) 0.46911(13) 0.48856(11)
H16 H 0.3311 0.4565 0.5716
C15 C 0.46245(13) 0.41604(12) 0.38949(10)
H17 H 0.5575 0.3679 0.4047
C16 C 0.78490(12) 0.36318(12) 0.16013(10)
C17 C 0.91489(14) 0.24336(13) 0.16359(13)
H18 H 0.9179 0.1495 0.1608
C18 C 1.04089(16) 0.25940(16) 0.17114(16)
H19 H 1.1293 0.1764 0.1738
C19 C 1.03846(15) 0.39490(16) 0.17485(14)
H20 H 1.1246 0.4052 0.1807
C20 C 0.91043(15) 0.51551(14) 0.17006(13)
H21 H 0.9086 0.6092 0.1720
C21 C 0.78449(14) 0.49999(13) 0.16246(11)
H22 H 0.6969 0.5835 0.1588
Cl1 Cl 0.82913(3) -0.10939(3) 0.25837(3)
N1 N 0.64214(10) 0.17571(9) 0.15969(8)
P1 P 0.63615(3) 0.08008(3) 0.30437(2)
P2 P 0.62418(3) 0.35720(3) 0.13029(2)
loop_
_geom_bond_atom_site_label_1
_geom_bond_atom_site_label_2
_geom_bond_site_symmetry_1
_geom_bond_site_symmetry_2
C1 C2 1_555 1_555
C2 H1 1_555 1_555
C3 C2 1_555 1_555
H2 C3 1_555 1_555
C4 C3 1_555 1_555
H3 C4 1_555 1_555
C5 C4 1_555 1_555
H4 C5 1_555 1_555
C6 C1 1_555 1_555
H5 C6 1_555 1_555
C7 H6 1_555 1_555
C8 C7 1_555 1_555
H7 C8 1_555 1_555
H8 C8 1_555 1_555
H9 C8 1_555 1_555
C9 C7 1_555 1_555
H10 C9 1_555 1_555
H11 C9 1_555 1_555
H12 C9 1_555 1_555
C10 C11 1_555 1_555
C11 H13 1_555 1_555
C12 C11 1_555 1_555
H14 C12 1_555 1_555
C13 C12 1_555 1_555
H15 C13 1_555 1_555
C14 C13 1_555 1_555
H16 C14 1_555 1_555
C15 C10 1_555 1_555
H17 C15 1_555 1_555
C16 C17 1_555 1_555
C17 H18 1_555 1_555
C18 C17 1_555 1_555
H19 C18 1_555 1_555
C19 C18 1_555 1_555
H20 C19 1_555 1_555
C20 C19 1_555 1_555
H21 C20 1_555 1_555
C21 C16 1_555 1_555
H22 C21 1_555 1_555
Cl1 P1 1_555 1_555
N1 C7 1_555 1_555
P1 C1 1_555 1_555
P2 C10 1_555 1_555
C5 C6 1_555 1_555
C14 C15 1_555 1_555
C16 P2 1_555 1_555
C20 C21 1_555 1_555
N1 P1 1_555 1_555
N1 P2 1_555 1_555

#END
