
#######################################################################
#
#                 Cambridge Crystallographic Data Centre
#                                CCDC 
#
#######################################################################
#
# If this CIF has been generated from an entry in the Cambridge 
# Structural Database, then it will include bibliographic, chemical, 
# crystal, experimental, refinement or atomic coordinate data resulting 
# from the CCDC's data processing and validation procedures.
#
#######################################################################

data_YIJNEM
_chemical_formula_moiety         'C19 H30 Cl1 N1 P2'
_chemical_name_systematic        
'N-(Dicyclopentylphosphino)-N-isopropyl-P-phenylphosphonamidous chloride'
_symmetry_cell_setting           triclinic
_symmetry_space_group_name_H-M   'P -1'
_symmetry_Int_Tables_number      2
_space_group_name_Hall           '-P 1'
loop_
_symmetry_equiv_pos_site_id
_symmetry_equiv_pos_as_xyz
1 x,y,z
2 -x,-y,-z
_cell_length_a                   10.2037(5)
_cell_length_b                   10.2286(5)
_cell_length_c                   11.3823(6)
_cell_angle_alpha                64.053(4)
_cell_angle_beta                 67.230(4)
_cell_angle_gamma                76.754(4)
_cell_volume                     982.403
_exptl_crystal_colour            colorless
_exptl_crystal_description       prism
_cell_formula_units_Z            2
loop_
_atom_site_label
_atom_site_type_symbol
_atom_site_fract_x
_atom_site_fract_y
_atom_site_fract_z
C1 C 0.56210(17) 0.20816(16) 0.13261(14)
C2 C 0.65742(16) 0.25301(17) 0.16565(17)
H1 H 0.6301 0.3336 0.1927
C3 C 0.79112(16) 0.18226(17) 0.15972(18)
H2 H 0.8542 0.2136 0.1839
C4 C 0.83337(19) 0.06626(17) 0.11886(17)
H3 H 0.9251 0.0172 0.1153
C5 C 0.74130(17) 0.02229(19) 0.08324(19)
H4 H 0.7703 -0.0567 0.0539
C6 C 0.60725(18) 0.09213(17) 0.08982(17)
H5 H 0.5450 0.0606 0.0648
C7 C 0.31513(17) 0.15208(15) 0.41088(15)
H6 H 0.3817 0.0840 0.3686
C8 C 0.16907(19) 0.09144(18) 0.48190(18)
H7 H 0.1018 0.1540 0.5272
H8 H 0.1755 -0.0074 0.5512
H9 H 0.1358 0.0886 0.4130
C9 C 0.37267(19) 0.15692(18) 0.51376(16)
H10 H 0.4683 0.1927 0.4653
H11 H 0.3774 0.0588 0.5846
H12 H 0.3094 0.2224 0.5577
C10 C 0.31464(17) 0.59200(17) 0.25703(16)
H13 H 0.3392 0.6279 0.1545
C11 C 0.2352(2) 0.71876(19) 0.3044(2)
H14 H 0.2289 0.8095 0.2238
H15 H 0.1376 0.6940 0.3686
C12 C 0.3238(3) 0.7378(4) 0.3775(4)
H16 H 0.3165 0.8405 0.3662
H17 H 0.2927 0.6751 0.4774
C13 C 0.4751(3) 0.6906(3) 0.3044(3)
H18 H 0.5163 0.7669 0.2121
H19 H 0.5380 0.6668 0.3600
C14 C 0.4522(2) 0.5553(2) 0.2925(3)
H20 H 0.4425 0.4698 0.3810
H21 H 0.5333 0.5336 0.2188
C15 C 0.08981(16) 0.50026(16) 0.22858(16)
H22 H 0.1535 0.5204 0.1310
C16 C -0.01607(19) 0.3903(2) 0.2699(2)
H23 H 0.0316 0.3130 0.2341
H24 H -0.0586 0.3444 0.3718
C17 C -0.1302(2) 0.4807(2) 0.2039(2)
H25 H -0.2262 0.4494 0.2679
H26 H -0.1131 0.4687 0.1173
C18 C -0.1186(2) 0.6400(2) 0.1736(3)
H27 H -0.0876 0.6981 0.0727
H28 H -0.2117 0.6833 0.2172
C19 C -0.00839(19) 0.63711(18) 0.23468(18)
H29 H -0.0543 0.6301 0.3312
H30 H 0.0454 0.7257 0.1793
Cl1 Cl 0.29100(6) 0.18957(7) 0.09922(6)
N1 N 0.31437(13) 0.29896(13) 0.29600(12)
P1 P 0.39551(5) 0.32366(4) 0.13030(4)
P2 P 0.19998(4) 0.43822(4) 0.34146(4)
H31? H 0.1969 0.7962 0.2332
H32? H 0.1554 0.6827 0.3920
C20? C 0.3474(5) 0.7768(5) 0.3236(7)
H33? H 0.3038 0.8298 0.3861
H34? H 0.4106 0.8406 0.2342
C21? C 0.4256(8) 0.6323(6) 0.3894(8)
H35? H 0.3658 0.5757 0.4844
H36? H 0.5163 0.6483 0.3920
H37? H 0.4700 0.4487 0.3388
H38? H 0.5349 0.5934 0.2083
loop_
_geom_bond_atom_site_label_1
_geom_bond_atom_site_label_2
_geom_bond_site_symmetry_1
_geom_bond_site_symmetry_2
C1 C2 1_555 1_555
C2 H1 1_555 1_555
C3 C2 1_555 1_555
H2 C3 1_555 1_555
C4 C3 1_555 1_555
H3 C4 1_555 1_555
C5 C4 1_555 1_555
H4 C5 1_555 1_555
C6 C1 1_555 1_555
H5 C6 1_555 1_555
C7 H6 1_555 1_555
C8 C7 1_555 1_555
H7 C8 1_555 1_555
H8 C8 1_555 1_555
H9 C8 1_555 1_555
C9 C7 1_555 1_555
H10 C9 1_555 1_555
H11 C9 1_555 1_555
H12 C9 1_555 1_555
C10 H13 1_555 1_555
C11 C10 1_555 1_555
H14 C11 1_555 1_555
H15 C11 1_555 1_555
C12 C11 1_555 1_555
H16 C12 1_555 1_555
H17 C12 1_555 1_555
C13 C12 1_555 1_555
H18 C13 1_555 1_555
H19 C13 1_555 1_555
C14 C10 1_555 1_555
H20 C14 1_555 1_555
H21 C14 1_555 1_555
C15 H22 1_555 1_555
C16 C15 1_555 1_555
H23 C16 1_555 1_555
H24 C16 1_555 1_555
C17 C16 1_555 1_555
H25 C17 1_555 1_555
H26 C17 1_555 1_555
C18 C17 1_555 1_555
H27 C18 1_555 1_555
H28 C18 1_555 1_555
C19 C15 1_555 1_555
H29 C19 1_555 1_555
H30 C19 1_555 1_555
Cl1 P1 1_555 1_555
N1 C7 1_555 1_555
P1 C1 1_555 1_555
P2 C10 1_555 1_555
C5 C6 1_555 1_555
C13 C14 1_555 1_555
C15 P2 1_555 1_555
C18 C19 1_555 1_555
N1 P1 1_555 1_555
N1 P2 1_555 1_555

#END
