
#######################################################################
#
#                 Cambridge Crystallographic Data Centre
#                                CCDC 
#
#######################################################################
#
# If this CIF has been generated from an entry in the Cambridge 
# Structural Database, then it will include bibliographic, chemical, 
# crystal, experimental, refinement or atomic coordinate data resulting 
# from the CCDC's data processing and validation procedures.
#
#######################################################################

data_YIJNOW
_chemical_formula_moiety         'C32 H50 N2 P2,C7 H8'
_chemical_name_systematic        
"N-(bis(Adamantan-1-yl)phosphino)-N,N'-diisopropyl-P-phenylphosphonous diamide toluene solvate"
_symmetry_cell_setting           triclinic
_symmetry_space_group_name_H-M   'P -1'
_symmetry_Int_Tables_number      2
_space_group_name_Hall           '-P 1'
loop_
_symmetry_equiv_pos_site_id
_symmetry_equiv_pos_as_xyz
1 x,y,z
2 -x,-y,-z
_cell_length_a                   10.7235(4)
_cell_length_b                   11.0167(4)
_cell_length_c                   15.0329(6)
_cell_angle_alpha                82.176(3)
_cell_angle_beta                 82.062(3)
_cell_angle_gamma                84.878(3)
_cell_volume                     1738.06
_exptl_crystal_colour            colorless
_exptl_crystal_description       plate
_cell_formula_units_Z            2
loop_
_atom_site_label
_atom_site_type_symbol
_atom_site_fract_x
_atom_site_fract_y
_atom_site_fract_z
C1 C 0.26320(14) 0.65891(14) 0.38247(10)
C2 C 0.32645(14) 0.58171(14) 0.45961(10)
H1 H 0.3075 0.4947 0.4631
H2 H 0.4191 0.5859 0.4469
C3 C 0.27840(15) 0.62942(16) 0.55061(10)
H3 H 0.3208 0.5786 0.5997
C4 C 0.13553(15) 0.62022(16) 0.57142(11)
H4 H 0.1155 0.5336 0.5750
H5 H 0.1045 0.6493 0.6305
C5 C 0.07055(15) 0.69858(16) 0.49689(11)
H6 H -0.0228 0.6921 0.5104
C6 C 0.09971(16) 0.83253(16) 0.49278(12)
H7 H 0.0688 0.8628 0.5515
H8 H 0.0567 0.8839 0.4452
C7 C 0.24262(16) 0.84126(15) 0.47161(11)
H9 H 0.2626 0.9288 0.4685
C8 C 0.29021(15) 0.79471(14) 0.38062(10)
H10 H 0.3822 0.8030 0.3665
H11 H 0.2483 0.8457 0.3323
C9 C 0.11807(14) 0.65263(15) 0.40541(11)
H12 H 0.0757 0.7036 0.3573
H13 H 0.0962 0.5668 0.4075
C10 C 0.30768(16) 0.76319(16) 0.54629(11)
H14 H 0.4000 0.7700 0.5337
H15 H 0.2775 0.7932 0.6052
C11 C 0.32333(14) 0.44946(14) 0.26243(10)
C12 C 0.20593(15) 0.38836(15) 0.31486(11)
H16 H 0.2015 0.3962 0.3801
H17 H 0.1287 0.4309 0.2928
C13 C 0.21211(17) 0.25171(16) 0.30204(12)
H18 H 0.1355 0.2141 0.3366
C14 C 0.33011(18) 0.18563(16) 0.33766(13)
H19 H 0.3342 0.0975 0.3300
H20 H 0.3266 0.1923 0.4030
C15 C 0.44740(16) 0.24366(15) 0.28551(11)
H21 H 0.5246 0.2006 0.3090
C16 C 0.45351(17) 0.23154(16) 0.18494(12)
H22 H 0.4603 0.1436 0.1762
H23 H 0.5290 0.2696 0.1510
C17 C 0.33450(16) 0.29520(16) 0.14930(11)
H24 H 0.3381 0.2869 0.0836
C18 C 0.32702(16) 0.43121(15) 0.16194(11)
H25 H 0.2503 0.4730 0.1387
H26 H 0.4012 0.4696 0.1262
C19 C 0.21736(18) 0.23749(17) 0.20200(13)
H27 H 0.1405 0.2785 0.1784
H28 H 0.2210 0.1493 0.1944
C20 C 0.44075(15) 0.37989(14) 0.29850(11)
H29 H 0.5176 0.4170 0.2661
H30 H 0.4376 0.3875 0.3637
C21 C 0.46504(16) 0.76327(15) 0.13791(10)
H31 H 0.5573 0.7707 0.1184
C22 C 0.4102(2) 0.72610(18) 0.05820(11)
H32 H 0.3200 0.7152 0.0753
H33 H 0.4537 0.6488 0.0416
H34 H 0.4217 0.7904 0.0065
C23 C 0.40841(19) 0.89013(16) 0.15677(12)
H35 H 0.3165 0.8886 0.1708
H36 H 0.4290 0.9498 0.1033
H37 H 0.4432 0.9138 0.2084
C24 C 0.70649(15) 0.58251(15) 0.19783(11)
C25 C 0.68487(16) 0.51721(16) 0.12951(12)
H38 H 0.6009 0.5150 0.1165
C26 C 0.78220(15) 0.45535(19) 0.07981(13)
H39 H 0.7647 0.4115 0.0333
C27 C 0.90468(17) 0.4572(2) 0.09763(13)
H40 H 0.9716 0.4127 0.0650
C28 C 0.92881(18) 0.5247(2) 0.16349(13)
H41 H 1.0133 0.5289 0.1747
C29 C 0.83109(16) 0.58608(19) 0.21332(12)
H42 H 0.8492 0.6314 0.2588
C30 C 0.64747(15) 0.81396(16) 0.37741(11)
H43 H 0.5920 0.7640 0.4249
C31 C 0.78215(17) 0.7900(2) 0.39990(14)
H44 H 0.8060 0.7016 0.4046
H45 H 0.7879 0.8197 0.4577
H46 H 0.8394 0.8333 0.3520
C32 C 0.6028(2) 0.94772(18) 0.37993(16)
H47 H 0.6556 0.9987 0.3337
H48 H 0.6091 0.9706 0.4398
H49 H 0.5148 0.9605 0.3679
N1 N 0.45343(12) 0.66958(11) 0.22074(8)
N2 N 0.63550(13) 0.77562(13) 0.28995(10)
P1 P 0.30389(4) 0.62183(4) 0.26205(3)
P2 P 0.58018(4) 0.64065(4) 0.28080(3)
H50 H 0.679(2) 0.8144(19) 0.2433(14)
C33 C 0.8973(5) 0.9145(3) 0.0944(3)
C34 C 0.9889(3) 0.9005(3) 0.1528(3)
H51 H 1.0493 0.8320 0.1524
C35 C 0.9920(3) 0.9866(4) 0.2118(2)
H52 H 1.0545 0.9770 0.2518
C36 C 0.9035(5) 1.0868(4) 0.2125(3)
H53 H 0.9056 1.1457 0.2528
C37 C 0.8120(4) 1.1009(3) 0.1541(4)
H54 H 0.7515 1.1694 0.1545
C38 C 0.8089(4) 1.0148(4) 0.0950(3)
H55 H 0.7463 1.0244 0.0551
C39 C 0.8963(8) 0.8250(5) 0.0272(4)
H56 H 0.8254 0.8485 -0.0078
H57 H 0.8872 0.7422 0.0596
H58 H 0.9757 0.8259 -0.0138
C40? C 0.8659(4) 0.9330(3) 0.0910(2)
C41? C 0.9711(3) 0.8873(3) 0.1330(3)
H59? H 1.0177 0.8146 0.1164
C42? C 1.0081(3) 0.9480(5) 0.1992(3)
H60? H 1.0799 0.9167 0.2279
C43? C 0.9398(5) 1.0544(5) 0.2235(3)
H61? H 0.9651 1.0959 0.2687
C44? C 0.8347(4) 1.1001(3) 0.1815(4)
H62? H 0.7880 1.1728 0.1981
C45? C 0.7977(3) 1.0395(4) 0.1153(3)
H63? H 0.7258 1.0707 0.0866
C46? C 0.8266(7) 0.8662(6) 0.0200(3)
H64? H 0.7514 0.9098 -0.0029
H65? H 0.8073 0.7826 0.0464
H66? H 0.8953 0.8625 -0.0300
loop_
_geom_bond_atom_site_label_1
_geom_bond_atom_site_label_2
_geom_bond_site_symmetry_1
_geom_bond_site_symmetry_2
C1 C2 1_555 1_555
C2 H1 1_555 1_555
H2 C2 1_555 1_555
C3 C2 1_555 1_555
H3 C3 1_555 1_555
C4 C3 1_555 1_555
H4 C4 1_555 1_555
H5 C4 1_555 1_555
C5 C4 1_555 1_555
H6 C5 1_555 1_555
C6 C5 1_555 1_555
H7 C6 1_555 1_555
H8 C6 1_555 1_555
C7 C6 1_555 1_555
H9 C7 1_555 1_555
C8 C1 1_555 1_555
H10 C8 1_555 1_555
H11 C8 1_555 1_555
C9 C1 1_555 1_555
H12 C9 1_555 1_555
H13 C9 1_555 1_555
C10 C3 1_555 1_555
H14 C10 1_555 1_555
H15 C10 1_555 1_555
C11 C12 1_555 1_555
C12 H16 1_555 1_555
H17 C12 1_555 1_555
C13 C12 1_555 1_555
H18 C13 1_555 1_555
C14 C13 1_555 1_555
H19 C14 1_555 1_555
H20 C14 1_555 1_555
C15 C14 1_555 1_555
H21 C15 1_555 1_555
C16 C15 1_555 1_555
H22 C16 1_555 1_555
H23 C16 1_555 1_555
C17 C16 1_555 1_555
H24 C17 1_555 1_555
C18 C11 1_555 1_555
H25 C18 1_555 1_555
H26 C18 1_555 1_555
C19 C13 1_555 1_555
H27 C19 1_555 1_555
H28 C19 1_555 1_555
C20 C11 1_555 1_555
H29 C20 1_555 1_555
H30 C20 1_555 1_555
C21 H31 1_555 1_555
C22 C21 1_555 1_555
H32 C22 1_555 1_555
H33 C22 1_555 1_555
H34 C22 1_555 1_555
C23 C21 1_555 1_555
H35 C23 1_555 1_555
H36 C23 1_555 1_555
H37 C23 1_555 1_555
C24 C25 1_555 1_555
C25 H38 1_555 1_555
C26 C25 1_555 1_555
H39 C26 1_555 1_555
C27 C26 1_555 1_555
H40 C27 1_555 1_555
C28 C27 1_555 1_555
H41 C28 1_555 1_555
C29 C24 1_555 1_555
H42 C29 1_555 1_555
C30 H43 1_555 1_555
C31 C30 1_555 1_555
H44 C31 1_555 1_555
H45 C31 1_555 1_555
H46 C31 1_555 1_555
C32 C30 1_555 1_555
H47 C32 1_555 1_555
H48 C32 1_555 1_555
H49 C32 1_555 1_555
N1 C21 1_555 1_555
N2 C30 1_555 1_555
P1 C1 1_555 1_555
P2 C24 1_555 1_555
H50 N2 1_555 1_555
C33 C34 1_555 1_555
C34 H51 1_555 1_555
C35 C34 1_555 1_555
H52 C35 1_555 1_555
C36 C35 1_555 1_555
H53 C36 1_555 1_555
C37 C36 1_555 1_555
H54 C37 1_555 1_555
C38 C33 1_555 1_555
H55 C38 1_555 1_555
C39 C33 1_555 1_555
H56 C39 1_555 1_555
H57 C39 1_555 1_555
H58 C39 1_555 1_555
C5 C9 1_555 1_555
C7 C8 1_555 1_555
C7 C10 1_555 1_555
C11 P1 1_555 1_555
C15 C20 1_555 1_555
C17 C18 1_555 1_555
C17 C19 1_555 1_555
C28 C29 1_555 1_555
N1 P1 1_555 1_555
N1 P2 1_555 1_555
N2 P2 1_555 1_555
C37 C38 1_555 1_555

#END
