
#######################################################################
#
#                 Cambridge Crystallographic Data Centre
#                                CCDC 
#
#######################################################################
#
# If this CIF has been generated from an entry in the Cambridge 
# Structural Database, then it will include bibliographic, chemical, 
# crystal, experimental, refinement or atomic coordinate data resulting 
# from the CCDC's data processing and validation procedures.
#
#######################################################################

data_YIJQIR
_chemical_formula_moiety         'C32 H42 N4 O4 2+,2(Cl1 O4 1-),C2 H3 N1'
_chemical_name_systematic        
'7,16-bis(Quinolin-8-ylmethyl)-1,4,10,13-tetraoxa-7,16-diazacyclooctadecane diperchlorate acetonitrile solvate'
_symmetry_cell_setting           monoclinic
_symmetry_space_group_name_H-M   'P 21/c'
_symmetry_Int_Tables_number      14
_space_group_name_Hall           '-P 2ybc'
loop_
_symmetry_equiv_pos_site_id
_symmetry_equiv_pos_as_xyz
1 x,y,z
2 -x,1/2+y,1/2-z
3 -x,-y,-z
4 x,1/2-y,1/2+z
_cell_length_a                   14.685(3)
_cell_length_b                   15.035(6)
_cell_length_c                   17.369(4)
_cell_angle_alpha                90
_cell_angle_beta                 90.366(12)
_cell_angle_gamma                90
_cell_volume                     3834.81
_exptl_crystal_colour            'light yellow'
_exptl_crystal_description       'thin plate'
_cell_formula_units_Z            4
loop_
_atom_site_label
_atom_site_type_symbol
_atom_site_fract_x
_atom_site_fract_y
_atom_site_fract_z
N1 N 0.2507(4) 0.4889(4) -0.0288(3)
H1 H 0.1946(4) 0.4537(4) -0.0401(3)
C1 C 0.2563(5) 0.5171(5) 0.0530(4)
H2 H 0.2138(5) 0.5655(5) 0.0614(4)
H3 H 0.3171(5) 0.5393(5) 0.0637(4)
C2 C 0.2351(5) 0.4428(6) 0.1078(5)
H4 H 0.2851(5) 0.4006(6) 0.1076(5)
H5 H 0.2305(5) 0.4669(6) 0.1595(5)
O1 O 0.1529(3) 0.3971(3) 0.0893(3)
C3 C 0.0720(5) 0.4455(6) 0.1022(5)
H6 H 0.0685(5) 0.4961(6) 0.0678(5)
H7 H 0.0704(5) 0.4670(6) 0.1549(5)
C4 C -0.0052(5) 0.3837(6) 0.0875(6)
H8 H 0.0021(5) 0.3549(6) 0.0380(6)
H9 H -0.0070(5) 0.3382(6) 0.1270(6)
O2 O -0.0869(3) 0.4336(3) 0.0882(3)
C5 C -0.1636(5) 0.3795(5) 0.0764(5)
H10 H -0.1641(5) 0.3319(5) 0.1141(5)
H11 H -0.1615(5) 0.3532(5) 0.0254(5)
C6 C 0.2475(5) 0.5649(5) -0.0842(4)
H12 H 0.3164(5) 0.6001(5) -0.0657(4)
H13 H 0.2569(5) 0.5403(5) -0.1463(4)
C7 C 0.3298(5) 0.4274(5) -0.0484(4)
H14 H 0.3858(5) 0.4617(5) -0.0468(4)
H15 H 0.3343(5) 0.3819(5) -0.0090(4)
C8 C 0.3228(5) 0.3828(5) -0.1253(4)
C9 C 0.3968(6) 0.3820(6) -0.1734(5)
H16 H 0.4485(6) 0.4146(6) -0.1606(5)
C10 C 0.3944(6) 0.3327(6) -0.2409(5)
H17 H 0.4449(6) 0.3335(6) -0.2729(5)
C11 C 0.3211(7) 0.2834(6) -0.2617(5)
H18 H 0.3222(7) 0.2496(6) -0.3065(5)
C12 C 0.2427(6) 0.2837(6) -0.2144(5)
C13 C 0.1643(7) 0.2345(6) -0.2329(5)
H19 H 0.1618(7) 0.1989(6) -0.2766(5)
C14 C 0.0919(7) 0.2408(7) -0.1846(6)
H20 H 0.0393(7) 0.2079(7) -0.1939(6)
C15 C 0.0974(6) 0.2972(6) -0.1208(5)
H21 H 0.0458(6) 0.3025(6) -0.0904(5)
N2 N 0.1685(4) 0.3425(5) -0.1006(4)
C16 C 0.2435(5) 0.3366(5) -0.1474(4)
C6B C -0.2475(5) 0.4351(5) 0.0842(4)
N1B N -0.2507(4) 0.5111(4) 0.0288(3)
H1B H -0.1946(4) 0.5463(4) 0.0401(3)
C1B C -0.2563(5) 0.4829(5) -0.0530(4)
H2B H -0.2138(5) 0.4345(5) -0.0614(4)
H3B H -0.3171(5) 0.4607(5) -0.0637(4)
C2B C -0.2351(5) 0.5572(6) -0.1078(5)
H4B H -0.2851(5) 0.5994(6) -0.1076(5)
H5B H -0.2305(5) 0.5331(6) -0.1595(5)
O1B O -0.1529(3) 0.6029(3) -0.0893(3)
C3B C -0.0720(5) 0.5545(6) -0.1022(5)
H6B H -0.0685(5) 0.5039(6) -0.0678(5)
H7B H -0.0704(5) 0.5330(6) -0.1549(5)
C4B C 0.0052(5) 0.6163(6) -0.0875(6)
H8B H -0.0021(5) 0.6451(6) -0.0380(6)
H9B H 0.0070(5) 0.6618(6) -0.1270(6)
O2B O 0.0869(3) 0.5664(3) -0.0882(3)
C5B C 0.1636(5) 0.6205(5) -0.0764(5)
H10B H 0.1641(5) 0.6681(5) -0.1141(5)
H11B H 0.1615(5) 0.6468(5) -0.0254(5)
C7B C -0.3298(5) 0.5726(5) 0.0484(4)
H14B H -0.3858(5) 0.5383(5) 0.0468(4)
H15B H -0.3343(5) 0.6181(5) 0.0090(4)
C8B C -0.3228(5) 0.6172(5) 0.1253(4)
C9B C -0.3968(6) 0.6180(6) 0.1734(5)
H16B H -0.4485(6) 0.5854(6) 0.1606(5)
C10B C -0.3944(6) 0.6673(6) 0.2409(5)
H17B H -0.4449(6) 0.6665(6) 0.2729(5)
C11B C -0.3211(7) 0.7166(6) 0.2617(5)
H18B H -0.3222(7) 0.7504(6) 0.3065(5)
C12B C -0.2427(6) 0.7163(6) 0.2144(5)
C13B C -0.1643(7) 0.7655(6) 0.2329(5)
H19B H -0.1618(7) 0.8011(6) 0.2766(5)
C14B C -0.0919(7) 0.7592(7) 0.1846(6)
H20B H -0.0393(7) 0.7921(7) 0.1939(6)
C15B C -0.0974(6) 0.7028(6) 0.1208(5)
H21B H -0.0458(6) 0.6975(6) 0.0904(5)
N2B N -0.1685(4) 0.6575(5) 0.1006(4)
C16B C -0.2435(5) 0.6634(5) 0.1474(4)
H12B H -0.3164(5) 0.3999(5) 0.0657(4)
H13B H -0.2569(5) 0.4597(5) 0.1463(4)
N3 N -0.6360(4) -0.1240(4) 0.1087(4)
H22 H -0.6118(4) -0.0605(4) 0.0804(4)
C17 C -0.7043(6) -0.1698(6) 0.0582(5)
H23 H -0.7609(6) -0.1366(6) 0.0588(5)
H24 H -0.7163(6) -0.2287(6) 0.0786(5)
C18 C -0.6719(6) -0.1781(6) -0.0235(5)
H25 H -0.6188(6) -0.2162(6) -0.0257(5)
H26 H -0.7194(6) -0.2038(6) -0.0556(5)
O3 O -0.6499(4) -0.0911(4) -0.0498(3)
C19 C -0.6077(6) -0.0939(7) -0.1230(5)
H27 H -0.6419(6) -0.1330(7) -0.1568(5)
H28 H -0.5466(6) -0.1178(7) -0.1176(5)
C20 C -0.6032(7) -0.0039(7) -0.1573(5)
H29 H -0.5897(7) -0.0089(7) -0.2118(5)
H30 H -0.6620(7) 0.0250(7) -0.1524(5)
O4 O -0.5361(4) 0.0485(4) -0.1211(3)
C21 C -0.5216(6) 0.1312(7) -0.1586(6)
H31 H -0.5772(6) 0.1660(7) -0.1581(6)
H32 H -0.5047(6) 0.1211(7) -0.2117(6)
C22 C -0.5539(6) -0.1813(6) 0.1170(6)
H33 H -0.5619(6) -0.2263(6) 0.1717(6)
H34 H -0.5018(6) -0.1791(6) 0.0603(6)
C23 C -0.6767(6) -0.0957(6) 0.1840(5)
H35 H -0.6307(6) -0.0651(6) 0.2143(5)
H36 H -0.6952(6) -0.1482(6) 0.2124(5)
C24 C -0.7584(6) -0.0349(6) 0.1735(5)
C25 C -0.8375(6) -0.0492(7) 0.2147(5)
H37 H -0.8425(6) -0.0994(7) 0.2457(5)
C26 C -0.9103(7) 0.0112(9) 0.2100(6)
H38 H -0.9623(7) 0.0019(9) 0.2392(6)
C27 C -0.9051(7) 0.0820(9) 0.1637(6)
H39 H -0.9541(7) 0.1211(9) 0.1610(6)
C28 C -0.8272(6) 0.0993(6) 0.1186(5)
C29 C -0.8172(8) 0.1694(7) 0.0673(6)
H40 H -0.8648(8) 0.2096(7) 0.0608(6)
C30 C -0.7410(8) 0.1803(6) 0.0273(6)
H41 H -0.7349(8) 0.2281(6) -0.0063(6)
C31 C -0.6695(7) 0.1185(6) 0.0367(5)
H42 H -0.6168(7) 0.1263(6) 0.0082(5)
N4 N -0.6739(4) 0.0501(4) 0.0841(4)
C32 C -0.7526(5) 0.0398(5) 0.1249(5)
C22B C -0.4461(6) 0.1813(6) -0.1170(6)
N3B N -0.3640(4) 0.1240(4) -0.1087(4)
H22B H -0.3882(4) 0.0605(4) -0.0804(4)
C17B C -0.2957(6) 0.1698(6) -0.0582(5)
H23B H -0.2391(6) 0.1366(6) -0.0588(5)
H24B H -0.2837(6) 0.2287(6) -0.0786(5)
C18B C -0.3281(6) 0.1781(6) 0.0235(5)
H25B H -0.3812(6) 0.2162(6) 0.0257(5)
H26B H -0.2806(6) 0.2038(6) 0.0556(5)
O3B O -0.3501(4) 0.0911(4) 0.0498(3)
C19B C -0.3923(6) 0.0939(7) 0.1230(5)
H27B H -0.3581(6) 0.1330(7) 0.1568(5)
H28B H -0.4534(6) 0.1178(7) 0.1176(5)
C20B C -0.3968(7) 0.0039(7) 0.1573(5)
H29B H -0.4103(7) 0.0089(7) 0.2118(5)
H30B H -0.3380(7) -0.0250(7) 0.1524(5)
O4B O -0.4639(4) -0.0485(4) 0.1211(3)
C21B C -0.4784(6) -0.1312(7) 0.1586(6)
H31B H -0.4228(6) -0.1660(7) 0.1581(6)
H32B H -0.4953(6) -0.1211(7) 0.2117(6)
C23B C -0.3233(6) 0.0957(6) -0.1840(5)
H35B H -0.3693(6) 0.0651(6) -0.2143(5)
H36B H -0.3048(6) 0.1482(6) -0.2124(5)
C24B C -0.2416(6) 0.0349(6) -0.1735(5)
C25B C -0.1625(6) 0.0492(7) -0.2147(5)
H37B H -0.1575(6) 0.0994(7) -0.2457(5)
C26B C -0.0897(7) -0.0112(9) -0.2100(6)
H38B H -0.0377(7) -0.0019(9) -0.2392(6)
C27B C -0.0949(7) -0.0820(9) -0.1637(6)
H39B H -0.0459(7) -0.1211(9) -0.1610(6)
C28B C -0.1728(6) -0.0993(6) -0.1186(5)
C29B C -0.1828(8) -0.1694(7) -0.0673(6)
H40B H -0.1352(8) -0.2096(7) -0.0608(6)
C30B C -0.2590(8) -0.1803(6) -0.0273(6)
H41B H -0.2651(8) -0.2281(6) 0.0063(6)
C31B C -0.3305(7) -0.1185(6) -0.0367(5)
H42B H -0.3832(7) -0.1263(6) -0.0082(5)
N4B N -0.3261(4) -0.0501(4) -0.0841(4)
C32B C -0.2474(5) -0.0398(5) -0.1249(5)
H33B H -0.4381(6) 0.2263(6) -0.1717(6)
H34B H -0.4982(6) 0.1791(6) -0.0603(6)
Cl1 Cl -0.49938(13) 0.35877(15) 0.09856(12)
O5 O -0.4323(4) 0.3306(4) 0.1529(3)
O6 O -0.5436(4) 0.4359(4) 0.1270(4)
O7 O -0.5651(4) 0.2905(4) 0.0855(4)
O8 O -0.4567(4) 0.3785(4) 0.0270(3)
Cl2 Cl -0.1763(2) 0.1670(2) 0.2739(2)
O9 O -0.2687(7) 0.1702(8) 0.2914(6)
O10 O -0.1357(6) 0.1799(7) 0.3452(5)
O11 O -0.1583(8) 0.0829(6) 0.2456(5)
O12 O -0.1548(11) 0.2298(7) 0.2225(6)
N5 N 0.9412(11) 0.1449(13) 0.0039(12)
C33 C 0.9095(11) 0.0813(16) 0.0359(11)
C34 C 0.8749(10) 0.0059(11) 0.0745(8)
loop_
_geom_bond_atom_site_label_1
_geom_bond_atom_site_label_2
_geom_bond_site_symmetry_1
_geom_bond_site_symmetry_2
N1 H1 1_555 1_555
C1 N1 1_555 1_555
H2 C1 1_555 1_555
H3 C1 1_555 1_555
C2 C1 1_555 1_555
H4 C2 1_555 1_555
H5 C2 1_555 1_555
O1 C2 1_555 1_555
C3 O1 1_555 1_555
H6 C3 1_555 1_555
H7 C3 1_555 1_555
C4 C3 1_555 1_555
H8 C4 1_555 1_555
H9 C4 1_555 1_555
O2 C4 1_555 1_555
C5 O2 1_555 1_555
H10 C5 1_555 1_555
H11 C5 1_555 1_555
C6 N1 1_555 1_555
H12 C6 1_555 1_555
H13 C6 1_555 1_555
C7 N1 1_555 1_555
H14 C7 1_555 1_555
H15 C7 1_555 1_555
C8 C7 1_555 1_555
C9 C8 1_555 1_555
H16 C9 1_555 1_555
C10 C9 1_555 1_555
H17 C10 1_555 1_555
C11 C10 1_555 1_555
H18 C11 1_555 1_555
C12 C11 1_555 1_555
C13 C12 1_555 1_555
H19 C13 1_555 1_555
C14 C13 1_555 1_555
H20 C14 1_555 1_555
C15 C14 1_555 1_555
H21 C15 1_555 1_555
N2 C15 1_555 1_555
C16 C8 1_555 1_555
N3 H22 1_555 1_555
C17 N3 1_555 1_555
H23 C17 1_555 1_555
H24 C17 1_555 1_555
C18 C17 1_555 1_555
H25 C18 1_555 1_555
H26 C18 1_555 1_555
O3 C18 1_555 1_555
C19 O3 1_555 1_555
H27 C19 1_555 1_555
H28 C19 1_555 1_555
C20 C19 1_555 1_555
H29 C20 1_555 1_555
H30 C20 1_555 1_555
O4 C20 1_555 1_555
C21 O4 1_555 1_555
H31 C21 1_555 1_555
H32 C21 1_555 1_555
C22 N3 1_555 1_555
H33 C22 1_555 1_555
H34 C22 1_555 1_555
C23 N3 1_555 1_555
H35 C23 1_555 1_555
H36 C23 1_555 1_555
C24 C23 1_555 1_555
C25 C24 1_555 1_555
H37 C25 1_555 1_555
C26 C25 1_555 1_555
H38 C26 1_555 1_555
C27 C26 1_555 1_555
H39 C27 1_555 1_555
C28 C27 1_555 1_555
C29 C28 1_555 1_555
H40 C29 1_555 1_555
C30 C29 1_555 1_555
H41 C30 1_555 1_555
C31 C30 1_555 1_555
H42 C31 1_555 1_555
N4 C31 1_555 1_555
C32 C24 1_555 1_555
Cl1 O5 1_555 1_555
O6 Cl1 1_555 1_555
O7 Cl1 1_555 1_555
O8 Cl1 1_555 1_555
Cl2 O9 1_555 1_555
O10 Cl2 1_555 1_555
O11 Cl2 1_555 1_555
O12 Cl2 1_555 1_555
N5 C33 1_555 1_555
C33 C34 1_555 1_555
C6B C5 1_555 1_555
N1B C6B 1_555 1_555
H1B N1B 1_555 1_555
C1B N1B 1_555 1_555
H2B C1B 1_555 1_555
H3B C1B 1_555 1_555
C2B C1B 1_555 1_555
H4B C2B 1_555 1_555
H5B C2B 1_555 1_555
O1B C2B 1_555 1_555
C3B O1B 1_555 1_555
H6B C3B 1_555 1_555
H7B C3B 1_555 1_555
C4B C3B 1_555 1_555
H8B C4B 1_555 1_555
H9B C4B 1_555 1_555
O2B C4B 1_555 1_555
C5B C6 1_555 1_555
H10B C5B 1_555 1_555
H11B C5B 1_555 1_555
C7B N1B 1_555 1_555
H14B C7B 1_555 1_555
H15B C7B 1_555 1_555
C8B C7B 1_555 1_555
C9B C8B 1_555 1_555
H16B C9B 1_555 1_555
C10B C9B 1_555 1_555
H17B C10B 1_555 1_555
C11B C10B 1_555 1_555
H18B C11B 1_555 1_555
C12B C11B 1_555 1_555
C13B C12B 1_555 1_555
H19B C13B 1_555 1_555
C14B C13B 1_555 1_555
H20B C14B 1_555 1_555
C15B C14B 1_555 1_555
H21B C15B 1_555 1_555
N2B C15B 1_555 1_555
C16B C8B 1_555 1_555
H12B C6B 1_555 1_555
H13B C6B 1_555 1_555
C22B C21 1_555 1_555
N3B C22B 1_555 1_555
H22B N3B 1_555 1_555
C17B N3B 1_555 1_555
H23B C17B 1_555 1_555
H24B C17B 1_555 1_555
C18B C17B 1_555 1_555
H25B C18B 1_555 1_555
H26B C18B 1_555 1_555
O3B C18B 1_555 1_555
C19B O3B 1_555 1_555
H27B C19B 1_555 1_555
H28B C19B 1_555 1_555
C20B C19B 1_555 1_555
H29B C20B 1_555 1_555
H30B C20B 1_555 1_555
O4B C20B 1_555 1_555
C21B C22 1_555 1_555
H31B C21B 1_555 1_555
H32B C21B 1_555 1_555
C23B N3B 1_555 1_555
H35B C23B 1_555 1_555
H36B C23B 1_555 1_555
C24B C23B 1_555 1_555
C25B C24B 1_555 1_555
H37B C25B 1_555 1_555
C26B C25B 1_555 1_555
H38B C26B 1_555 1_555
C27B C26B 1_555 1_555
H39B C27B 1_555 1_555
C28B C27B 1_555 1_555
C29B C28B 1_555 1_555
H40B C29B 1_555 1_555
C30B C29B 1_555 1_555
H41B C30B 1_555 1_555
C31B C30B 1_555 1_555
H42B C31B 1_555 1_555
N4B C31B 1_555 1_555
C32B C24B 1_555 1_555
H33B C22B 1_555 1_555
H34B C22B 1_555 1_555
C12 C16 1_555 1_555
N2 C16 1_555 1_555
C28 C32 1_555 1_555
N4 C32 1_555 1_555
O2B C5B 1_555 1_555
C12B C16B 1_555 1_555
N2B C16B 1_555 1_555
O4B C21B 1_555 1_555
C28B C32B 1_555 1_555
N4B C32B 1_555 1_555

#END
