
#######################################################################
#
#                 Cambridge Crystallographic Data Centre
#                                CCDC 
#
#######################################################################
#
# If this CIF has been generated from an entry in the Cambridge 
# Structural Database, then it will include bibliographic, chemical, 
# crystal, experimental, refinement or atomic coordinate data resulting 
# from the CCDC's data processing and validation procedures.
#
#######################################################################

data_YIJRUF
_chemical_formula_moiety         'C38 H40 N2 S2'
_chemical_name_systematic        
5,11-bis(5-Hexyl-2-thienyl)indolo(3,2-b)carbazole
_symmetry_cell_setting           monoclinic
_symmetry_space_group_name_H-M   'P 21/n'
_symmetry_Int_Tables_number      14
_space_group_name_Hall           '-P 2yn'
loop_
_symmetry_equiv_pos_site_id
_symmetry_equiv_pos_as_xyz
1 x,y,z
2 1/2-x,1/2+y,1/2-z
3 -x,-y,-z
4 1/2+x,1/2-y,1/2+z
_cell_length_a                   17.9131(10)
_cell_length_b                   9.5697(6)
_cell_length_c                   18.8066(11)
_cell_angle_alpha                90
_cell_angle_beta                 95.011(3)
_cell_angle_gamma                90
_cell_volume                     3211.56
_exptl_crystal_colour            colorless
_exptl_crystal_description       block
_cell_formula_units_Z            4
_exptl_crystal_recrystallization_method dichloromethane/hexanes
loop_
_atom_site_label
_atom_site_type_symbol
_atom_site_fract_x
_atom_site_fract_y
_atom_site_fract_z
C1 C 0.68367(10) 0.15598(18) 0.45944(9)
H1 H 0.6381 0.1862 0.4359
C2 C 0.75051(10) 0.16929(18) 0.42911(8)
C3 C 0.82011(10) 0.12473(18) 0.46276(9)
C4 C 0.87664(10) 0.15912(18) 0.41508(9)
C5 C 0.95412(10) 0.14120(19) 0.41783(9)
H2 H 0.9802 0.0991 0.4578
C6 C 0.99193(11) 0.1860(2) 0.36116(10)
H3 H 1.0441 0.1737 0.3625
C7 C 0.95395(11) 0.24897(19) 0.30222(10)
H4 H 0.9811 0.2796 0.2646
C8 C 0.87736(11) 0.26768(19) 0.29751(10)
H5 H 0.8518 0.3096 0.2572
C9 C 0.83953(10) 0.22230(18) 0.35444(9)
N1 N 0.76297(8) 0.22941(16) 0.36311(7)
C10 C 0.70690(10) 0.26634(18) 0.30965(9)
S1 S 0.65055(3) 0.13977(5) 0.26643(3)
C11 C 0.60389(11) 0.2612(2) 0.21204(10)
C12 C 0.63147(13) 0.3885(2) 0.22679(12)
H6 H 0.6135 0.4689 0.2021
C13 C 0.68987(12) 0.3930(2) 0.28249(11)
H7 H 0.7141 0.4757 0.2987
C14 C 0.5403(4) 0.2173(11) 0.1586(3)
H8 H 0.4983 0.2820 0.1619
H9 H 0.5233 0.1241 0.1715
C15 C 0.5604(2) 0.2140(5) 0.08210(17)
H10 H 0.5139 0.2142 0.0504
H11 H 0.5879 0.2995 0.0727
C16 C 0.6057(3) 0.0931(5) 0.0643(2)
H12 H 0.5798 0.0072 0.0762
H13 H 0.6537 0.0960 0.0935
C17 C 0.6206(3) 0.0891(5) -0.0152(3)
H14 H 0.5729 0.0983 -0.0445
H15 H 0.6520 0.1691 -0.0256
C18 C 0.6588(2) -0.0434(4) -0.0356(2)
H16 H 0.6268 -0.1236 -0.0267
H17 H 0.7061 -0.0542 -0.0058
C19 C 0.6744(10) -0.0418(13) -0.1145(6)
H18 H 0.6993 -0.1279 -0.1260
H19 H 0.7064 0.0370 -0.1233
H20 H 0.6275 -0.0334 -0.1441
C26 C 0.82372(10) 0.06384(19) 0.53051(9)
H34 H 0.8693 0.0336 0.5540
C27 C 0.75662(10) 0.05049(18) 0.56106(8)
C28 C 0.68726(10) 0.09530(18) 0.52698(8)
C29 C 0.63031(10) 0.06245(18) 0.57431(9)
C30 C 0.55295(10) 0.0816(2) 0.57016(10)
H35 H 0.5277 0.1251 0.5302
C31 C 0.51418(11) 0.0354(2) 0.62588(10)
H36 H 0.4619 0.0464 0.6234
C32 C 0.55118(11) -0.0271(2) 0.68538(11)
H37 H 0.5234 -0.0572 0.7227
C33 C 0.62783(11) -0.0461(2) 0.69127(9)
H38 H 0.6527 -0.0883 0.7318
C34 C 0.66659(9) -0.00077(18) 0.63519(9)
N2 N 0.74348(8) -0.00896(16) 0.62727(7)
C35 C 0.79809(9) -0.04612(18) 0.68177(8)
S2 S 0.85969(3) 0.07744(5) 0.72070(2)
C36 C 0.89865(11) -0.0424(2) 0.78163(9)
C37 C 0.86407(11) -0.1669(2) 0.77255(10)
H39 H 0.8767 -0.2447 0.8016
C38 C 0.80722(11) -0.1705(2) 0.71572(10)
H40 H 0.7788 -0.2505 0.7028
C39 C 0.9641(6) -0.0128(17) 0.8346(7)
H41 H 1.0069 0.0151 0.8088
H42 H 0.9779 -0.0988 0.8608
C40 C 0.9488(7) 0.1015(8) 0.8879(5)
H43 H 0.9965 0.1264 0.9143
H44 H 0.9310 0.1843 0.8609
C41 C 0.8973(8) 0.0718(12) 0.9377(6)
H45 H 0.9145 -0.0138 0.9626
H46 H 0.8496 0.0494 0.9106
C42 C 0.8811(4) 0.1746(7) 0.9928(3)
H47 H 0.8579 0.2556 0.9678
H48 H 0.9294 0.2061 1.0156
C43 C 0.8333(3) 0.1375(7) 1.0510(3)
H49 H 0.8611 0.0716 1.0833
H50 H 0.7886 0.0891 1.0298
C44 C 0.8082(14) 0.261(2) 1.0954(7)
H51 H 0.7781 0.2262 1.1321
H52 H 0.7786 0.3250 1.0646
H53 H 0.8519 0.3088 1.1175
C20? C 0.5393(6) 0.234(2) 0.1581(7)
H21? H 0.5271 0.3199 0.1315
H22? H 0.4955 0.2081 0.1832
C21? C 0.5540(5) 0.1185(11) 0.1058(5)
H23? H 0.5752 0.0383 0.1330
H24? H 0.5059 0.0889 0.0818
C22? C 0.6045(9) 0.1534(14) 0.0507(7)
H25? H 0.6530 0.1831 0.0740
H26? H 0.5834 0.2322 0.0224
C23? C 0.6170(10) 0.0328(16) 0.0012(7)
H27? H 0.6412 -0.0425 0.0301
H28? H 0.5677 -0.0017 -0.0176
C24? C 0.6619(6) 0.0569(15) -0.0604(7)
H29? H 0.7092 0.1011 -0.0426
H30? H 0.6347 0.1236 -0.0926
C25? C 0.680(3) -0.071(3) -0.1040(16)
H31? H 0.7095 -0.0430 -0.1426
H32? H 0.6341 -0.1148 -0.1236
H33? H 0.7088 -0.1374 -0.0734
C45? C 0.9639(7) 0.007(2) 0.8319(8)
H54? H 0.9965 -0.0726 0.8443
H55? H 0.9930 0.0746 0.8062
C46? C 0.9438(9) 0.0745(16) 0.8994(7)
H56? H 0.9909 0.0830 0.9299
H57? H 0.9283 0.1700 0.8865
C47? C 0.8915(12) 0.0251(17) 0.9432(8)
H58? H 0.9040 -0.0732 0.9528
H59? H 0.8431 0.0257 0.9145
C48? C 0.8785(5) 0.0896(11) 1.0132(4)
H60? H 0.9278 0.1059 1.0388
H61? H 0.8532 0.0196 1.0406
C49? C 0.8352(5) 0.2225(8) 1.0162(4)
H62? H 0.7872 0.2145 0.9872
H63? H 0.8634 0.3003 0.9978
C50? C 0.8219(18) 0.248(3) 1.0960(9)
H64? H 0.7918 0.3313 1.0999
H65? H 0.8697 0.2598 1.1237
H66? H 0.7959 0.1682 1.1141
loop_
_geom_bond_atom_site_label_1
_geom_bond_atom_site_label_2
_geom_bond_site_symmetry_1
_geom_bond_site_symmetry_2
C1 H1 1_555 1_555
C2 C1 1_555 1_555
C3 C2 1_555 1_555
C4 C3 1_555 1_555
C5 C4 1_555 1_555
H2 C5 1_555 1_555
C6 C5 1_555 1_555
H3 C6 1_555 1_555
C7 C6 1_555 1_555
H4 C7 1_555 1_555
C8 C7 1_555 1_555
H5 C8 1_555 1_555
C9 C4 1_555 1_555
N1 C2 1_555 1_555
C10 N1 1_555 1_555
S1 C10 1_555 1_555
C11 S1 1_555 1_555
C12 C11 1_555 1_555
H6 C12 1_555 1_555
C13 C10 1_555 1_555
H7 C13 1_555 1_555
C14 C11 1_555 1_555
H8 C14 1_555 1_555
H9 C14 1_555 1_555
C15 C14 1_555 1_555
H10 C15 1_555 1_555
H11 C15 1_555 1_555
C16 C15 1_555 1_555
H12 C16 1_555 1_555
H13 C16 1_555 1_555
C17 C16 1_555 1_555
H14 C17 1_555 1_555
H15 C17 1_555 1_555
C18 C17 1_555 1_555
H16 C18 1_555 1_555
H17 C18 1_555 1_555
C19 C18 1_555 1_555
H18 C19 1_555 1_555
H19 C19 1_555 1_555
H20 C19 1_555 1_555
C26 C3 1_555 1_555
H34 C26 1_555 1_555
C27 C26 1_555 1_555
C28 C1 1_555 1_555
C29 C28 1_555 1_555
C30 C29 1_555 1_555
H35 C30 1_555 1_555
C31 C30 1_555 1_555
H36 C31 1_555 1_555
C32 C31 1_555 1_555
H37 C32 1_555 1_555
C33 C32 1_555 1_555
H38 C33 1_555 1_555
C34 C29 1_555 1_555
N2 C27 1_555 1_555
C35 N2 1_555 1_555
S2 C35 1_555 1_555
C36 S2 1_555 1_555
C37 C36 1_555 1_555
H39 C37 1_555 1_555
C38 C35 1_555 1_555
H40 C38 1_555 1_555
C39 C36 1_555 1_555
H41 C39 1_555 1_555
H42 C39 1_555 1_555
C40 C39 1_555 1_555
H43 C40 1_555 1_555
H44 C40 1_555 1_555
C41 C40 1_555 1_555
H45 C41 1_555 1_555
H46 C41 1_555 1_555
C42 C41 1_555 1_555
H47 C42 1_555 1_555
H48 C42 1_555 1_555
C43 C42 1_555 1_555
H49 C43 1_555 1_555
H50 C43 1_555 1_555
C44 C43 1_555 1_555
H51 C44 1_555 1_555
H52 C44 1_555 1_555
H53 C44 1_555 1_555
C8 C9 1_555 1_555
C9 N1 1_555 1_555
C12 C13 1_555 1_555
C27 C28 1_555 1_555
C33 C34 1_555 1_555
C34 N2 1_555 1_555
C37 C38 1_555 1_555

#END
