
#######################################################################
#
#                 Cambridge Crystallographic Data Centre
#                                CCDC 
#
#######################################################################
#
# If this CIF has been generated from an entry in the Cambridge 
# Structural Database, then it will include bibliographic, chemical, 
# crystal, experimental, refinement or atomic coordinate data resulting 
# from the CCDC's data processing and validation procedures.
#
#######################################################################

data_YIJRAM
_chemical_formula_moiety         'C20 H24 N2 O6'
_chemical_name_systematic        
2,2'-(3,6-Dioxa-2,7-diazaocta-1,7-diene-1,8-diyl)bis(6-ethoxyphenol)
_symmetry_cell_setting           monoclinic
_symmetry_space_group_name_H-M   'C 2/c'
_symmetry_Int_Tables_number      15
_space_group_name_Hall           '-C 2yn'
loop_
_symmetry_equiv_pos_site_id
_symmetry_equiv_pos_as_xyz
1 x,y,z
2 -x,y,1/2-z
3 1/2+x,1/2+y,z
4 1/2-x,1/2+y,1/2-z
5 -x,-y,-z
6 x,-y,1/2+z
7 1/2-x,1/2-y,-z
8 1/2+x,1/2-y,1/2+z
_cell_length_a                   21.224(2)
_cell_length_b                   7.1190(8)
_cell_length_c                   13.7481(12)
_cell_angle_alpha                90
_cell_angle_beta                 109.2130(10)
_cell_angle_gamma                90
_cell_volume                     1961.55
_exptl_crystal_colour            colorless
_exptl_crystal_description       needle-like
_cell_formula_units_Z            4
loop_
_atom_site_label
_atom_site_type_symbol
_atom_site_fract_x
_atom_site_fract_y
_atom_site_fract_z
N1 N 0.54356(11) 0.2417(3) 0.63137(14)
O1 O 0.5172(4) 0.2499(15) 0.5209(7)
O2 O 0.60474(8) 0.3567(2) 0.81951(11)
H1 H 0.5840 0.3690 0.7579
O3 O 0.66989(8) 0.2738(2) 1.00968(11)
C1 C 0.5226(3) 0.4339(8) 0.4834(4)
H2 H 0.5096 0.4319 0.4089
H3 H 0.5684 0.4769 0.5107
C2 C 0.55238(12) 0.0736(3) 0.66304(16)
H4 H 0.5344 -0.0238 0.6173
C3 C 0.59008(10) 0.0304(3) 0.76969(15)
C4 C 0.61386(11) 0.1709(3) 0.84274(16)
C5 C 0.64939(11) 0.1243(3) 0.94493(15)
C6 C 0.66139(12) -0.0612(3) 0.97195(17)
H5 H 0.6855 -0.0927 1.0397
C7 C 0.63800(12) -0.2023(3) 0.89942(18)
H6 H 0.6465 -0.3276 0.9184
C8 C 0.60259(11) -0.1566(3) 0.80030(17)
H7 H 0.5865 -0.2518 0.7521
C9 C 0.70518(13) 0.2345(4) 1.11540(16)
H8 H 0.7467 0.1705 1.1220
H9 H 0.6786 0.1541 1.1436
C10 C 0.71896(14) 0.4177(4) 1.17221(18)
H10 H 0.7450 0.4965 1.1434
H11 H 0.7432 0.3950 1.2436
H12 H 0.6775 0.4790 1.1661
N1D N 0.45644(11) 0.7583(3) 0.36863(14)
O1D O 0.4828(4) 0.7501(15) 0.4791(7)
O2D O 0.39526(8) 0.6433(2) 0.18049(11)
H1D H 0.4160 0.6310 0.2421
O3D O 0.33011(8) 0.7262(2) -0.00968(11)
C1D C 0.4774(3) 0.5661(8) 0.5166(4)
H2D H 0.4904 0.5681 0.5911
H3D H 0.4316 0.5231 0.4893
C2D C 0.44762(12) 0.9264(3) 0.33696(16)
H4D H 0.4656 1.0238 0.3827
C3D C 0.40992(10) 0.9696(3) 0.23031(15)
C4D C 0.38614(11) 0.8291(3) 0.15726(16)
C5D C 0.35061(11) 0.8757(3) 0.05507(15)
C6D C 0.33861(12) 1.0612(3) 0.02805(17)
H5D H 0.3145 1.0927 -0.0397
C7D C 0.36200(12) 1.2023(3) 0.10058(18)
H6D H 0.3535 1.3276 0.0816
C8D C 0.39741(11) 1.1566(3) 0.19970(17)
H7D H 0.4135 1.2518 0.2479
C9D C 0.29482(13) 0.7655(4) -0.11540(16)
H8D H 0.2533 0.8295 -0.1220
H9D H 0.3214 0.8459 -0.1436
C10D C 0.28104(14) 0.5823(4) -0.17221(18)
H10D H 0.2550 0.5035 -0.1434
H11D H 0.2568 0.6050 -0.2436
H12D H 0.3225 0.5210 -0.1661
O4? O 0.4915(4) 0.2517(17) 0.5332(8)
C11? C 0.4731(3) 0.4418(9) 0.5064(4)
H13? H 0.4582 0.4971 0.5596
H14? H 0.4357 0.4437 0.4426
loop_
_geom_bond_atom_site_label_1
_geom_bond_atom_site_label_2
_geom_bond_site_symmetry_1
_geom_bond_site_symmetry_2
N1 O1 1_555 1_555
O1 C1 1_555 1_555
O2 H1 1_555 1_555
O3 C5 1_555 1_555
C1 H2 1_555 1_555
H3 C1 1_555 1_555
C2 N1 1_555 1_555
H4 C2 1_555 1_555
C3 C2 1_555 1_555
C4 O2 1_555 1_555
C5 C4 1_555 1_555
C6 C5 1_555 1_555
H5 C6 1_555 1_555
C7 C6 1_555 1_555
H6 C7 1_555 1_555
C8 C3 1_555 1_555
H7 C8 1_555 1_555
C9 O3 1_555 1_555
H8 C9 1_555 1_555
H9 C9 1_555 1_555
C10 C9 1_555 1_555
H10 C10 1_555 1_555
H11 C10 1_555 1_555
H12 C10 1_555 1_555
N1D O1D 1_555 1_555
O1D C1D 1_555 1_555
O2D H1D 1_555 1_555
O3D C5D 1_555 1_555
C1D C1 1_555 1_555
H2D C1D 1_555 1_555
H3D C1D 1_555 1_555
C2D N1D 1_555 1_555
H4D C2D 1_555 1_555
C3D C2D 1_555 1_555
C4D O2D 1_555 1_555
C5D C4D 1_555 1_555
C6D C5D 1_555 1_555
H5D C6D 1_555 1_555
C7D C6D 1_555 1_555
H6D C7D 1_555 1_555
C8D C3D 1_555 1_555
H7D C8D 1_555 1_555
C9D O3D 1_555 1_555
H8D C9D 1_555 1_555
H9D C9D 1_555 1_555
C10D C9D 1_555 1_555
H10D C10D 1_555 1_555
H11D C10D 1_555 1_555
H12D C10D 1_555 1_555
C3 C4 1_555 1_555
C7 C8 1_555 1_555
C3D C4D 1_555 1_555
C7D C8D 1_555 1_555

#END
