
#######################################################################
#
#                 Cambridge Crystallographic Data Centre
#                                CCDC 
#
#######################################################################
#
# If this CIF has been generated from an entry in the Cambridge 
# Structural Database, then it will include bibliographic, chemical, 
# crystal, experimental, refinement or atomic coordinate data resulting 
# from the CCDC's data processing and validation procedures.
#
#######################################################################

data_YIJSUH
_chemical_formula_moiety         'C17 H15 N1 O3'
_chemical_name_systematic        
'Methyl 3-(4-methoxyphenyl)indolizine-1-carboxylate'
_symmetry_cell_setting           triclinic
_symmetry_space_group_name_H-M   'P -1'
_symmetry_Int_Tables_number      2
_space_group_name_Hall           '-P 1'
loop_
_symmetry_equiv_pos_site_id
_symmetry_equiv_pos_as_xyz
1 x,y,z
2 -x,-y,-z
_cell_length_a                   8.3888(14)
_cell_length_b                   8.9604(15)
_cell_length_c                   10.6074(18)
_cell_angle_alpha                75.211(2)
_cell_angle_beta                 71.373(2)
_cell_angle_gamma                84.738(2)
_cell_volume                     730.486
_cell_formula_units_Z            2
loop_
_atom_site_label
_atom_site_type_symbol
_atom_site_fract_x
_atom_site_fract_y
_atom_site_fract_z
C1 C 0.1910(2) 0.6102(2) 0.4196(2)
H1 H 0.1372 0.5395 0.5002
C2 C 0.1269(3) 0.7549(2) 0.3909(2)
H2 H 0.0277 0.7827 0.4509
C3 C 0.2104(3) 0.8635(2) 0.2704(2)
H3 H 0.1673 0.9633 0.2524
C4 C 0.3520(3) 0.8235(2) 0.1814(2)
H4 H 0.4068 0.8960 0.1026
C5 C 0.4180(2) 0.6709(2) 0.20723(19)
C6 C 0.5542(2) 0.5900(2) 0.13660(19)
C7 C 0.5496(2) 0.4377(2) 0.21902(19)
H5 H 0.6252 0.3589 0.1966
C8 C 0.4168(2) 0.42426(19) 0.33674(19)
C9 C 0.3584(2) 0.29117(19) 0.45330(18)
C10 C 0.3335(2) 0.14916(19) 0.42977(19)
H6 H 0.3506 0.1410 0.3407
C11 C 0.2839(2) 0.0216(2) 0.5375(2)
H7 H 0.2682 -0.0719 0.5205
C12 C 0.2575(2) 0.03158(19) 0.67033(19)
C13 C 0.2822(2) 0.1703(2) 0.6960(2)
H8 H 0.2649 0.1778 0.7852
C14 C 0.3329(2) 0.2977(2) 0.5873(2)
H9 H 0.3504 0.3904 0.6049
C15 C 0.2121(4) -0.1054(3) 0.9029(2)
H10 H 0.3260 -0.0940 0.8999
H11 H 0.1693 -0.2023 0.9636
H12 H 0.1441 -0.0227 0.9354
C16 C 0.6745(3) 0.6551(2) 0.0051(2)
C17 C 0.9150(3) 0.5985(4) -0.1697(2)
H13 H 0.8633 0.6298 -0.2412
H14 H 0.9924 0.5148 -0.1869
H15 H 0.9746 0.6838 -0.1675
N1 N 0.33550(17) 0.56818(15) 0.32942(15)
O1 O 0.20752(19) -0.10122(15) 0.76993(15)
O2 O 0.6786(2) 0.7875(2) -0.05978(17)
O3 O 0.78728(19) 0.54886(18) -0.03989(15)
loop_
_geom_bond_atom_site_label_1
_geom_bond_atom_site_label_2
_geom_bond_site_symmetry_1
_geom_bond_site_symmetry_2
C1 H1 1_555 1_555
C2 C1 1_555 1_555
H2 C2 1_555 1_555
C3 C2 1_555 1_555
H3 C3 1_555 1_555
C4 C3 1_555 1_555
H4 C4 1_555 1_555
C5 C4 1_555 1_555
C6 C5 1_555 1_555
C7 C6 1_555 1_555
H5 C7 1_555 1_555
C8 C7 1_555 1_555
C9 C8 1_555 1_555
C10 C9 1_555 1_555
H6 C10 1_555 1_555
C11 C10 1_555 1_555
H7 C11 1_555 1_555
C12 C11 1_555 1_555
C13 C12 1_555 1_555
H8 C13 1_555 1_555
C14 C9 1_555 1_555
H9 C14 1_555 1_555
C15 H10 1_555 1_555
H11 C15 1_555 1_555
H12 C15 1_555 1_555
C16 C6 1_555 1_555
C17 H13 1_555 1_555
H14 C17 1_555 1_555
H15 C17 1_555 1_555
N1 C1 1_555 1_555
O1 C12 1_555 1_555
O2 C16 1_555 1_555
O3 C16 1_555 1_555
C5 N1 1_555 1_555
C8 N1 1_555 1_555
C13 C14 1_555 1_555
C15 O1 1_555 1_555
C17 O3 1_555 1_555

#END
