
#######################################################################
#
#                 Cambridge Crystallographic Data Centre
#                                CCDC 
#
#######################################################################
#
# If this CIF has been generated from an entry in the Cambridge 
# Structural Database, then it will include bibliographic, chemical, 
# crystal, experimental, refinement or atomic coordinate data resulting 
# from the CCDC's data processing and validation procedures.
#
#######################################################################

data_YIJVUI
_chemical_formula_moiety         'C18 H24 N1 O2 1+,C6 H5 O1 1-,H2 O1'
_chemical_name_systematic        
'Benzyldimethylammonium (2-hydroxy-3-phenoxypropyl)ammonium monohydrate'
_symmetry_cell_setting           triclinic
_symmetry_space_group_name_H-M   'P -1'
_symmetry_Int_Tables_number      2
_space_group_name_Hall           '-P 1'
loop_
_symmetry_equiv_pos_site_id
_symmetry_equiv_pos_as_xyz
1 x,y,z
2 -x,-y,-z
_cell_length_a                   8.89(1)
_cell_length_b                   8.92(1)
_cell_length_c                   15.41(2)
_cell_angle_alpha                83.9(1)
_cell_angle_beta                 80.2(1)
_cell_angle_gamma                65.2(1)
_cell_volume                     1092.28
_chemical_melting_point          90-92deg.C
_cell_formula_units_Z            2
loop_
_atom_site_label
_atom_site_type_symbol
_atom_site_fract_x
_atom_site_fract_y
_atom_site_fract_z
O1 O 0.1635(7) -0.0999(6) 0.6295(3)
O2 O 0.3357(6) 0.0884(5) 0.4427(3)
N1 N 0.3944(7) -0.2497(6) 0.3744(6)
C1 C 0.4891(9) -0.4335(8) 0.3736(4)
C2 C 0.2272(10) -0.2037(9) 0.3476(5)
C3 C 0.3774(9) -0.1973(8) 0.4680(4)
C4 C 0.2628(9) -0.0185(8) 0.4860(4)
C5 C 0.2491(8) -0.0005(8) 0.5867(4)
C6 C 0.4986(9) -0.1714(8) 0.3125(4)
C7 C 0.1462(9) -0.1161(8) 0.7224(4)
C8 C 0.2032(9) -0.0386(8) 0.7713(5)
C9 C 0.1747(10) -0.0630(9) 0.8651(5)
C10 C 0.0986(11) -0.1619(10) 0.9007(5)
C11 C 0.0450(10) -0.2400(9) 0.8497(6)
C12 C 0.0678(10) -0.2182(9) 0.7576(5)
C13 C 0.5094(9) -0.1960(8) 0.2141(4)
C14 C 0.6397(9) -0.3261(9) 0.1729(5)
C15 C 0.6478(11) -0.3423(10) 0.0822(5)
C16 C 0.5304(12) -0.2287(11) 0.0377(5)
C17 C 0.4026(12) -0.0995(11) 0.0776(5)
C18 C 0.3925(11) -0.0804(9) 0.1681(5)
H1 H 0.407(3) -0.466(3) 0.415(3)
H2 H 0.496(3) -0.473(3) 0.318(3)
H3 H 0.600(3) -0.471(3) 0.389(3)
H4 H 0.165(3) -0.252(3) 0.393(3)
H5 H 0.223(3) -0.100(3) 0.355(3)
H6 H 0.231(3) -0.246(3) 0.304(3)
H7 H 0.509(3) -0.247(3) 0.476(3)
H8 H 0.312(3) -0.266(3) 0.502(3)
H9 H 0.137(3) 0.041(3) 0.468(3)
H10 H 0.366(3) -0.054(3) 0.605(3)
H11 H 0.152(3) 0.117(3) 0.603(3)
H12 H 0.621(3) -0.254(3) 0.330(3)
H13 H 0.447(3) -0.073(3) 0.333(3)
H14 H 0.256(3) 0.036(3) 0.757(3)
H15 H 0.210(3) 0.006(3) 0.894(3)
H16 H 0.093(3) -0.176(3) 0.946(3)
H17 H 0.002(3) -0.316(3) 0.868(3)
H18 H 0.034(3) -0.288(3) 0.726(3)
H19 H 0.735(3) -0.420(3) 0.205(3)
H20 H 0.751(3) -0.437(3) 0.048(3)
H21 H 0.541(3) -0.247(3) -0.003(3)
H22 H 0.309(3) -0.006(3) 0.048(3)
H23 H 0.300(3) 0.009(3) 0.198(3)
O3 O 0.1220(6) 0.3557(6) 0.3884(3)
C19 C 0.1705(9) 0.4135(8) 0.3085(4)
C20 C 0.3320(10) 0.3462(9) 0.2677(5)
C21 C 0.3836(10) 0.4101(10) 0.1858(5)
C22 C 0.2638(11) 0.5384(9) 0.1442(5)
C23 C 0.1029(10) 0.6075(9) 0.1829(5)
C24 C 0.0552(9) 0.5435(8) 0.2654(5)
H24 H 0.406(3) 0.261(3) 0.296(3)
H25 H 0.491(3) 0.361(3) 0.150(3)
H26 H 0.294(3) 0.577(3) 0.100(3)
H27 H -0.010(3) 0.709(3) 0.169(3)
H28 H -0.043(3) 0.600(3) 0.289(3)
O4 O -0.1902(7) 0.4976(8) 0.4765(4)
H29 H -0.164(3) 0.553(3) 0.508(3)
H30 H -0.035(3) 0.416(3) 0.453(3)
loop_
_geom_bond_atom_site_label_1
_geom_bond_atom_site_label_2
_geom_bond_site_symmetry_1
_geom_bond_site_symmetry_2
O1 C5 1_555 1_555
O2 C4 1_555 1_555
N1 C1 1_555 1_555
C1 H1 1_555 1_555
C2 N1 1_555 1_555
C3 N1 1_555 1_555
C4 C3 1_555 1_555
C5 C4 1_555 1_555
C6 N1 1_555 1_555
C7 O1 1_555 1_555
C8 C7 1_555 1_555
C9 C8 1_555 1_555
C10 C9 1_555 1_555
C11 C10 1_555 1_555
C12 C7 1_555 1_555
C13 C6 1_555 1_555
C14 C13 1_555 1_555
C15 C14 1_555 1_555
C16 C15 1_555 1_555
C17 C16 1_555 1_555
C18 C13 1_555 1_555
O3 C19 1_555 1_555
C19 C20 1_555 1_555
C20 C21 1_555 1_555
C21 C22 1_555 1_555
C22 C23 1_555 1_555
C23 C24 1_555 1_555
C24 C19 1_555 1_555
O4 H29 1_555 1_555
H2 C1 1_555 1_555
H3 C1 1_555 1_555
H4 C2 1_555 1_555
H5 C2 1_555 1_555
H6 C2 1_555 1_555
H7 C3 1_555 1_555
H8 C3 1_555 1_555
H9 C4 1_555 1_555
H10 C5 1_555 1_555
H11 C5 1_555 1_555
H12 C6 1_555 1_555
H13 C6 1_555 1_555
H14 C8 1_555 1_555
H15 C9 1_555 1_555
H16 C10 1_555 1_555
H17 C11 1_555 1_555
H18 C12 1_555 1_555
H19 C14 1_555 1_555
H20 C15 1_555 1_555
H21 C16 1_555 1_555
H22 C17 1_555 1_555
H23 C18 1_555 1_555
H24 C20 1_555 1_555
H25 C21 1_555 1_555
H26 C22 1_555 1_555
H27 C23 1_555 1_555
H28 C24 1_555 1_555
H30 O4 1_555 1_555
C11 C12 1_555 1_555
C17 C18 1_555 1_555

#END
