
#######################################################################
#
#                 Cambridge Crystallographic Data Centre
#                                CCDC 
#
#######################################################################
#
# If this CIF has been generated from an entry in the Cambridge 
# Structural Database, then it will include bibliographic, chemical, 
# crystal, experimental, refinement or atomic coordinate data resulting 
# from the CCDC's data processing and validation procedures.
#
#######################################################################

data_YIKGEG
_chemical_formula_moiety         'C19 H12 Cl2 F3 N1 O3'
_chemical_name_systematic        
6-Chloro-2-(4-chlorobenzoyl)-4-methyl-4-(2,2,2-trifluoroethyl)isoquinoline-1,3(2H,4H)-dione
_symmetry_cell_setting           monoclinic
_symmetry_space_group_name_H-M   'P 21/n'
_symmetry_Int_Tables_number      14
_space_group_name_Hall           '-P 2yn'
loop_
_symmetry_equiv_pos_site_id
_symmetry_equiv_pos_as_xyz
1 x,y,z
2 1/2-x,1/2+y,1/2-z
3 -x,-y,-z
4 1/2+x,1/2-y,1/2+z
_cell_length_a                   7.9689(2)
_cell_length_b                   33.7387(7)
_cell_length_c                   14.0143(3)
_cell_angle_alpha                90
_cell_angle_beta                 103.4593(6)
_cell_angle_gamma                90
_cell_volume                     3664.41
_exptl_crystal_colour            colorless
_exptl_crystal_description       plate
_cell_formula_units_Z            8
loop_
_atom_site_label
_atom_site_type_symbol
_atom_site_fract_x
_atom_site_fract_y
_atom_site_fract_z
Cl1 Cl 0.41248(12) 1.04137(3) 0.09821(7)
Cl2 Cl -0.62626(13) 0.76320(4) -0.18006(11)
F1 F 0.2900(3) 0.87161(7) -0.14091(14)
F2 F 0.0714(2) 0.87695(7) -0.07651(14)
F3 F 0.2192(3) 0.92754(6) -0.09442(14)
O1 O 0.1531(3) 0.82610(6) 0.11265(16)
O2 O -0.2282(3) 0.92021(6) 0.14680(17)
O3 O -0.1312(3) 0.83431(8) 0.23842(17)
N1 N -0.0294(3) 0.87449(7) 0.13267(17)
C1 C 0.1284(3) 0.86142(9) 0.1188(2)
C2 C 0.2688(3) 0.89179(9) 0.1169(2)
C3 C 0.2083(3) 0.93457(8) 0.1160(2)
C4 C 0.3225(4) 0.96515(9) 0.1086(2)
H1 H 0.4362 0.9593 0.1026
C5 C 0.2693(4) 1.00401(9) 0.1101(2)
C6 C 0.1063(4) 1.01405(9) 0.1212(2)
H2 H 0.0734 1.0411 0.1231
C7 C -0.0071(4) 0.98411(9) 0.1295(2)
H3 H -0.1193 0.9904 0.1374
C8 C 0.0425(3) 0.94444(8) 0.12649(19)
C9 C -0.0829(3) 0.91377(9) 0.1362(2)
C10 C -0.1453(4) 0.84294(9) 0.1540(2)
C11 C -0.2641(3) 0.82447(8) 0.0697(2)
C12 C -0.3623(4) 0.79229(9) 0.0883(3)
H4 H -0.3527 0.7833 0.1536
C13 C -0.4745(4) 0.77348(10) 0.0101(4)
H5 H -0.5409 0.7514 0.0215
C14 C -0.4879(4) 0.78734(11) -0.0839(3)
C15 C -0.3946(4) 0.81914(11) -0.1034(3)
H6 H -0.4070 0.8284 -0.1687
C16 C -0.2812(4) 0.83764(9) -0.0256(2)
H7 H -0.2147 0.8596 -0.0380
C17 C 0.3483(3) 0.88162(9) 0.0295(2)
H8 H 0.4550 0.8974 0.0354
H9 H 0.3818 0.8533 0.0340
C18 C 0.2325(4) 0.88901(9) -0.0702(2)
C19 C 0.4088(4) 0.88431(10) 0.2132(2)
H10 H 0.3559 0.8861 0.2696
H11 H 0.4999 0.9043 0.2197
H12 H 0.4585 0.8579 0.2110
Cl3 Cl -0.42504(15) 1.00971(3) 0.35869(8)
Cl4 Cl 0.42983(13) 0.71676(3) 0.27955(9)
F4 F -0.0040(2) 0.90242(7) 0.70281(14)
F5 F -0.2294(3) 0.89821(7) 0.76129(13)
F6 F -0.2064(3) 0.94480(6) 0.66092(15)
O4 O -0.0098(3) 0.82032(7) 0.58935(18)
O5 O 0.3127(3) 0.90558(7) 0.46271(18)
O6 O 0.3859(3) 0.84354(8) 0.64365(18)
N2 N 0.1453(3) 0.86458(7) 0.52729(18)
C20 C -0.0083(4) 0.85165(9) 0.5471(2)
C21 C -0.1716(3) 0.87605(9) 0.5113(2)
C22 C -0.1411(4) 0.91563(9) 0.4661(2)
C23 C -0.2785(4) 0.94191(10) 0.4369(2)
H13 H -0.3887 0.9357 0.4479
C24 C -0.2527(5) 0.97707(10) 0.3917(2)
C25 C -0.0947(5) 0.98685(10) 0.3734(2)
H14 H -0.0806 1.0111 0.3416
C26 C 0.0422(5) 0.96119(10) 0.4018(2)
H15 H 0.1513 0.9676 0.3894
C27 C 0.0200(4) 0.92560(9) 0.4489(2)
C28 C 0.1708(4) 0.89918(9) 0.4790(2)
C29 C 0.2979(4) 0.83808(10) 0.5626(2)
C30 C 0.3250(4) 0.80792(9) 0.4927(2)
C31 C 0.4444(4) 0.77751(9) 0.5257(2)
H16 H 0.5033 0.7763 0.5928
C32 C 0.4763(4) 0.74931(9) 0.4605(3)
H17 H 0.5560 0.7285 0.4828
C33 C 0.3914(4) 0.75166(9) 0.3626(3)
C34 C 0.2741(4) 0.78133(10) 0.3289(2)
H18 H 0.2173 0.7827 0.2614
C35 C 0.2393(4) 0.80926(9) 0.3942(2)
H19 H 0.1565 0.8294 0.3716
C36 C -0.2619(4) 0.87969(9) 0.5970(2)
H20 H -0.3803 0.8897 0.5707
H21 H -0.2720 0.8528 0.6237
C37 C -0.1752(4) 0.90593(10) 0.6795(2)
C38 C -0.2902(4) 0.85030(10) 0.4317(2)
H22 H -0.4039 0.8628 0.4115
H23 H -0.3028 0.8239 0.4584
H24 H -0.2390 0.8478 0.3748
loop_
_geom_bond_atom_site_label_1
_geom_bond_atom_site_label_2
_geom_bond_site_symmetry_1
_geom_bond_site_symmetry_2
Cl1 C5 1_555 1_555
Cl2 C14 1_555 1_555
F1 C18 1_555 1_555
F2 C18 1_555 1_555
F3 C18 1_555 1_555
O1 C1 1_555 1_555
O2 C9 1_555 1_555
O3 C10 1_555 1_555
N1 C1 1_555 1_555
C1 C2 1_555 1_555
C2 C3 1_555 1_555
C3 C4 1_555 1_555
C4 H1 1_555 1_555
C5 C4 1_555 1_555
C6 C5 1_555 1_555
H2 C6 1_555 1_555
C7 C6 1_555 1_555
H3 C7 1_555 1_555
C8 C3 1_555 1_555
C9 N1 1_555 1_555
C10 N1 1_555 1_555
C11 C10 1_555 1_555
C12 C11 1_555 1_555
H4 C12 1_555 1_555
C13 C12 1_555 1_555
H5 C13 1_555 1_555
C14 C13 1_555 1_555
C15 C14 1_555 1_555
H6 C15 1_555 1_555
C16 C11 1_555 1_555
H7 C16 1_555 1_555
C17 C2 1_555 1_555
H8 C17 1_555 1_555
H9 C17 1_555 1_555
C18 C17 1_555 1_555
C19 C2 1_555 1_555
H10 C19 1_555 1_555
H11 C19 1_555 1_555
H12 C19 1_555 1_555
Cl3 C24 1_555 1_555
Cl4 C33 1_555 1_555
F4 C37 1_555 1_555
F5 C37 1_555 1_555
F6 C37 1_555 1_555
O4 C20 1_555 1_555
O5 C28 1_555 1_555
O6 C29 1_555 1_555
N2 C20 1_555 1_555
C20 C21 1_555 1_555
C21 C22 1_555 1_555
C22 C23 1_555 1_555
C23 H13 1_555 1_555
C24 C23 1_555 1_555
C25 C24 1_555 1_555
H14 C25 1_555 1_555
C26 C25 1_555 1_555
H15 C26 1_555 1_555
C27 C22 1_555 1_555
C28 N2 1_555 1_555
C29 N2 1_555 1_555
C30 C29 1_555 1_555
C31 C30 1_555 1_555
H16 C31 1_555 1_555
C32 C31 1_555 1_555
H17 C32 1_555 1_555
C33 C32 1_555 1_555
C34 C33 1_555 1_555
H18 C34 1_555 1_555
C35 C30 1_555 1_555
H19 C35 1_555 1_555
C36 C21 1_555 1_555
H20 C36 1_555 1_555
H21 C36 1_555 1_555
C37 C36 1_555 1_555
C38 C21 1_555 1_555
H22 C38 1_555 1_555
H23 C38 1_555 1_555
H24 C38 1_555 1_555
C7 C8 1_555 1_555
C8 C9 1_555 1_555
C15 C16 1_555 1_555
C26 C27 1_555 1_555
C27 C28 1_555 1_555
C34 C35 1_555 1_555

#END
