
#######################################################################
#
#                 Cambridge Crystallographic Data Centre
#                                CCDC 
#
#######################################################################
#
# If this CIF has been generated from an entry in the Cambridge 
# Structural Database, then it will include bibliographic, chemical, 
# crystal, experimental, refinement or atomic coordinate data resulting 
# from the CCDC's data processing and validation procedures.
#
#######################################################################

data_YIKTUK
_chemical_name_common            
"7,11,15,28-tetrakis(3,5-di-t-butyl-8-hydroxy-8-methylnona-3,4-diene-1,6-diyn-1-yl)-1,21,23,25-tetrahexyl-1H,5H,9H,13H,17H,21H,23H,25H-19,3:20,2-di(metheno)[1,3]benzodioxocino[9',8':4,5][1,3]benzodioxocino[9,8-d][1,3]dioxocino[5,4-i][1,3]benzodioxocine cyclo-octanol solvate"
_chemical_formula_moiety         'C128 H168 O12,C8 H16 O1'
_chemical_name_systematic        
"2,8,14,20-tetrahexyl-5,11,17,23-(3,5-di-t-butyl-8-hydroxy-8-methylnona-3,4-diene-1,6-diyn-1-yl)-4,24:6,10:12,16:18,22-O,O'-tetramethylenecalix[4]resorcinarene cyclo-octanol solvate"
_symmetry_cell_setting           orthorhombic
_symmetry_space_group_name_H-M   'P 21 21 21'
_symmetry_Int_Tables_number      19
_space_group_name_Hall           'P 2ac 2ab'
loop_
_symmetry_equiv_pos_site_id
_symmetry_equiv_pos_as_xyz
1 x,y,z
2 1/2-x,-y,1/2+z
3 -x,1/2+y,1/2-z
4 1/2+x,1/2-y,-z
_cell_length_a                   15.60160(10)
_cell_length_b                   18.65540(10)
_cell_length_c                   44.2416(2)
_cell_angle_alpha                90
_cell_angle_beta                 90
_cell_angle_gamma                90
_cell_volume                     12876.7
_exptl_crystal_colour            colorless
_exptl_crystal_description       block
_cell_formula_units_Z            4
_exptl_crystal_recrystallization_method acetonitrile
loop_
_atom_site_label
_atom_site_type_symbol
_atom_site_fract_x
_atom_site_fract_y
_atom_site_fract_z
O1 O 0.20231(15) 0.35999(12) 0.43553(5)
H1 H 0.188640 0.396359 0.425426
O2 O 0.1451(2) 0.54625(18) 0.46080(9)
H2 H 0.186901 0.551207 0.472599
O3 O 0.3125(2) 0.5513(2) 0.48270(11)
H3 H 0.334700 0.510803 0.479804
O4 O 0.33468(17) 0.40117(13) 0.47256(7)
H4 H 0.298576 0.382650 0.460841
O5 O 0.29164(10) 0.66975(7) 0.29150(4)
O6 O 0.19009(10) 0.58595(8) 0.27436(4)
O7 O 0.18462(11) 0.33038(8) 0.27232(4)
O8 O 0.28295(11) 0.24288(8) 0.28883(4)
O9 O 0.56257(11) 0.24107(8) 0.33215(3)
O10 O 0.66543(10) 0.32567(8) 0.34753(3)
O11 O 0.67361(10) 0.58112(8) 0.34754(3)
O12 O 0.57233(10) 0.66843(8) 0.33334(3)
C1 C 0.1691(7) 0.2724(7) 0.0912(3)
H5 H 0.200240 0.259608 0.072736
H6 H 0.121526 0.238899 0.094223
H7 H 0.146673 0.321256 0.089345
C2 C 0.2314(7) 0.2683(6) 0.1189(2)
H8 H 0.254870 0.219123 0.120090
H9 H 0.279969 0.301324 0.115222
C3 C 0.1919(5) 0.2866(4) 0.14829(14)
H10 H 0.141894 0.254745 0.151448
H11 H 0.170126 0.336336 0.147170
C4 C 0.2507(3) 0.2805(3) 0.17595(12)
H12 H 0.214890 0.284011 0.194378
H13 H 0.277317 0.232342 0.175874
C5 C 0.3212(5) 0.3360(4) 0.17799(13)
H14 H 0.356389 0.334887 0.159371
H15 H 0.295857 0.384448 0.179931
C6 C 0.3757(2) 0.32053(13) 0.20457(5)
H16 H 0.423075 0.355812 0.204516
H17 H 0.401777 0.272775 0.201339
C7 C 0.1627(8) 0.5123(7) 0.1013(3)
H18 H 0.125724 0.469985 0.102770
H19 H 0.128202 0.555677 0.104195
H20 H 0.189630 0.513640 0.081282
C8 C 0.2314(5) 0.5087(6) 0.1254(2)
H21 H 0.265172 0.464242 0.122586
H22 H 0.203752 0.506273 0.145496
C9 C 0.2927(2) 0.57401(19) 0.12450(6)
H23 H 0.324293 0.574262 0.105095
H24 H 0.258802 0.618792 0.125725
C10 C 0.3559(2) 0.57145(16) 0.15043(6)
H25 H 0.401952 0.606759 0.146559
H26 H 0.382537 0.523306 0.150973
C11 C 0.31631(17) 0.58710(13) 0.18140(5)
H27 H 0.283574 0.632477 0.180278
H28 H 0.275583 0.548293 0.186572
C12 C 0.38317(14) 0.59316(12) 0.20639(5)
H29 H 0.416663 0.637691 0.203435
H30 H 0.423235 0.552153 0.204941
C13 C 1.0577(2) 0.5122(3) 0.20099(10)
H31 H 1.082823 0.495661 0.181920
H32 H 1.062703 0.474300 0.216227
H33 H 1.088148 0.555053 0.207953
C14 C 0.96289(19) 0.5302(2) 0.19607(7)
H34 H 0.958372 0.570941 0.181797
H35 H 0.933827 0.488496 0.186809
C15 C 0.91769(17) 0.54965(18) 0.22530(6)
H36 H 0.946304 0.592073 0.234181
H37 H 0.924383 0.509457 0.239718
C16 C 0.82157(16) 0.56616(14) 0.22179(6)
H38 H 0.814360 0.610040 0.209457
H39 H 0.793274 0.526087 0.211033
C17 C 0.77898(15) 0.57687(13) 0.25234(5)
H40 H 0.806107 0.618482 0.262406
H41 H 0.790488 0.534117 0.264956
C18 C 0.68209(14) 0.58926(11) 0.25138(5)
H42 H 0.654628 0.550530 0.239531
H43 H 0.669998 0.635349 0.241140
C19 C 1.0432(2) 0.2538(2) 0.21976(9)
H44 H 1.059622 0.272558 0.199897
H45 H 1.062518 0.203979 0.221604
H46 H 1.069945 0.282812 0.235625
C20 C 0.9464(2) 0.25683(18) 0.22308(8)
H47 H 0.920161 0.224661 0.207876
H48 H 0.930578 0.238599 0.243340
C21 C 0.90963(19) 0.33109(16) 0.21923(6)
H49 H 0.929657 0.350790 0.199692
H50 H 0.932515 0.362202 0.235465
C22 C 0.81214(17) 0.33450(14) 0.22001(6)
H51 H 0.793637 0.382022 0.212480
H52 H 0.789011 0.297812 0.206049
C23 C 0.77367(17) 0.32258(14) 0.25122(6)
H53 H 0.796667 0.277360 0.259670
H54 H 0.791775 0.362161 0.264683
C24 C 0.67629(15) 0.31873(12) 0.25097(5)
H55 H 0.658269 0.274922 0.240057
H56 H 0.653433 0.360583 0.239827
C25 C 0.0749(3) 0.3517(3) 0.46577(7)
H57 H 0.110731 0.358560 0.483733
H58 H 0.026265 0.320704 0.470833
H59 H 0.053640 0.398277 0.458780
C26 C 0.12743(19) 0.31713(16) 0.44104(6)
C27 C 0.1608(2) 0.24431(18) 0.44993(7)
H60 H 0.200789 0.227092 0.434478
H61 H 0.112727 0.210721 0.451694
H62 H 0.190450 0.247758 0.469395
C28 C 0.0839(4) 0.6328(3) 0.49405(11)
H63 H 0.047280 0.675354 0.495236
H64 H 0.058833 0.594177 0.506197
H65 H 0.141090 0.644361 0.501813
C29 C 0.0907(4) 0.6094(3) 0.46240(14)
C30 C 0.0054(3) 0.5826(3) 0.44821(11)
H66 H -0.036548 0.621624 0.448164
H67 H 0.015933 0.566757 0.427412
H68 H -0.016827 0.542349 0.460109
C31 C 0.3473(5) 0.6726(4) 0.4878(2)
H69 H 0.387099 0.707362 0.496684
H70 H 0.348360 0.677051 0.465725
H71 H 0.289217 0.681952 0.495207
C32 C 0.3741(4) 0.5977(4) 0.49667(15)
C33 C 0.3735(8) 0.5890(7) 0.5305(2)
H72 H 0.415998 0.621245 0.539505
H73 H 0.316455 0.600723 0.538358
H74 H 0.387657 0.539299 0.535686
C34 C 0.4664(6) 0.3752(6) 0.4970(3)
H75 H 0.498686 0.339179 0.508427
H76 H 0.497295 0.387031 0.478409
H77 H 0.459913 0.418568 0.509358
C35 C 0.3780(3) 0.3456(2) 0.48914(10)
C36 C 0.3290(3) 0.3299(2) 0.51824(9)
H78 H 0.358490 0.292077 0.529546
H79 H 0.326297 0.373488 0.530587
H80 H 0.270761 0.314178 0.513283
C37 C 0.54995(13) 0.61248(10) 0.28460(5)
C38 C 0.64880(13) 0.38810(11) 0.29995(5)
C39 C 0.68389(12) 0.45615(12) 0.43913(4)
C40 C 0.68017(12) 0.45579(11) 0.40665(4)
C41 C 0.40553(14) 0.61339(10) 0.26299(5)
C42 C 0.64470(12) 0.45424(11) 0.28524(4)
H81 H 0.636353 0.454554 0.263973
C43 C 0.65901(13) 0.38867(11) 0.33125(5)
C44 C 0.33310(13) 0.45737(11) 0.23704(4)
H82 H 0.383026 0.456968 0.224749
C45 C 0.65216(13) 0.51948(11) 0.30003(5)
C46 C 0.67553(12) 0.45353(11) 0.37969(4)
C47 C 0.66356(13) 0.51821(11) 0.33135(5)
C48 C 0.38925(16) 0.21196(11) 0.33745(5)
C49 C 0.49246(13) 0.59653(10) 0.26143(5)
H83 H 0.513419 0.573177 0.243838
C50 C 0.51824(14) 0.64637(10) 0.31043(5)
C51 C 0.36330(16) 0.18348(12) 0.35985(5)
C52 C 0.29959(13) 0.52341(11) 0.24616(5)
C53 C 0.50897(15) 0.26434(11) 0.30909(5)
C54 C 0.43115(14) 0.66430(10) 0.31299(5)
C55 C 0.48610(15) 0.31544(11) 0.26021(5)
H84 H 0.508023 0.338871 0.242781
C56 C 0.63756(14) 0.31768(11) 0.28286(5)
H85 H 0.668687 0.279933 0.294564
C57 C 0.66676(12) 0.45341(12) 0.34738(4)
C58 C 0.22766(13) 0.52269(11) 0.26464(5)
C59 C 0.37582(13) 0.64708(10) 0.28919(5)
C60 C 0.65096(14) 0.51025(13) 0.45393(5)
C61 C 0.39895(15) 0.29941(11) 0.26133(5)
C62 C 0.64384(13) 0.59069(11) 0.28335(5)
H86 H 0.676793 0.627102 0.295190
C63 C 0.36776(15) 0.26547(11) 0.28712(5)
C64 C 0.34273(13) 0.59412(11) 0.23799(5)
H87 H 0.297151 0.631810 0.237866
C65 C 0.26958(17) 0.76479(12) 0.39722(5)
C66 C 0.40063(14) 0.70038(11) 0.33943(5)
C67 C 0.62405(15) 0.56664(13) 0.46918(5)
C68 C 0.33673(16) 0.32069(11) 0.23630(5)
H88 H 0.289659 0.284305 0.236306
C69 C 0.42196(16) 0.24730(11) 0.31120(5)
C70 C 0.22494(14) 0.39338(11) 0.26378(5)
C71 C 0.00045(14) 0.45214(14) 0.33665(5)
C72 C 0.22932(15) 0.61836(12) 0.29980(5)
H89 H 0.184727 0.641837 0.312263
H90 H 0.256770 0.580765 0.312280
C73 C 0.18898(13) 0.45827(12) 0.27379(5)
C74 C 0.11838(13) 0.45820(12) 0.29427(5)
C75 C 0.06358(14) 0.45613(13) 0.31311(5)
C76 C 0.59651(15) 0.61686(11) 0.35519(5)
H91 H 0.550028 0.581078 0.357290
H92 H 0.603794 0.640870 0.374984
C77 C 0.29641(15) 0.39218(11) 0.24520(5)
C78 C 0.34909(15) 0.76943(12) 0.38820(5)
C79 C 0.72786(14) 0.39217(13) 0.45476(5)
C80 C 0.22049(16) 0.29411(13) 0.29736(6)
H93 H 0.174132 0.269675 0.308639
H94 H 0.247130 0.329631 0.311076
C81 C 0.41234(16) 0.16396(13) 0.43694(5)
C82 C 0.41709(17) 0.81690(13) 0.40350(6)
C83 C -0.05172(15) 0.51926(14) 0.34442(6)
C84 C 0.25158(16) 0.09859(13) 0.38064(6)
C85 C 0.58680(16) 0.29115(12) 0.35445(5)
H95 H 0.592312 0.266254 0.374119
H96 H 0.541215 0.327751 0.356474
C86 C 0.54271(15) 0.29847(11) 0.28369(5)
C87 C 0.32920(16) 0.14762(12) 0.38599(5)
C88 C -0.01985(15) 0.32881(14) 0.36447(6)
C89 C 0.18769(16) 0.76327(12) 0.40401(5)
C90 C 0.37557(15) 0.73000(11) 0.36174(5)
C91 C 0.36778(15) 0.15701(12) 0.41198(5)
C92 C 0.68343(16) 0.62941(14) 0.47722(6)
C93 C 0.53564(16) 0.57230(14) 0.47860(5)
C94 C -0.01044(14) 0.38986(15) 0.35015(6)
C95 C 0.39751(16) 0.22479(14) 0.45670(6)
C96 C 0.03133(16) 0.31758(15) 0.39098(6)
C97 C 0.48263(16) 0.11024(13) 0.44561(5)
C98 C 0.82326(16) 0.39345(14) 0.44607(6)
H97 H 0.828793 0.390907 0.424034
H98 H 0.852397 0.352306 0.455246
H99 H 0.849401 0.437942 0.453398
C99 C 0.15500(17) 0.71162(13) 0.42543(6)
C100 C 0.46328(17) 0.58073(16) 0.48635(6)
C101 C 0.12529(19) 0.66943(15) 0.44281(6)
C102 C -0.08360(17) 0.27065(15) 0.35463(7)
C103 C 0.68570(17) 0.32274(13) 0.44360(7)
H100 H 0.624855 0.322868 0.449107
H101 H 0.714024 0.281479 0.452989
H102 H 0.691280 0.319540 0.421580
C104 C 0.16844(19) 0.86611(15) 0.36801(6)
H103 H 0.207190 0.895992 0.380054
H104 H 0.126136 0.896635 0.357887
H105 H 0.201541 0.839735 0.352818
C105 C 0.38826(18) 0.27735(16) 0.47176(7)
C106 C 0.12266(17) 0.81339(13) 0.38855(5)
C107 C 0.49318(18) 0.05336(15) 0.42109(6)
H106 H 0.439865 0.025965 0.419150
H107 H 0.540063 0.020921 0.426594
H108 H 0.506387 0.076659 0.401794
C108 C 0.27707(18) 0.04236(14) 0.35705(7)
H109 H 0.295084 0.066456 0.338423
H110 H 0.227899 0.011289 0.352775
H111 H 0.324532 0.013381 0.364875
C109 C 0.56745(17) 0.15082(15) 0.44961(6)
H112 H 0.583446 0.173571 0.430459
H113 H 0.612450 0.117154 0.455715
H114 H 0.560605 0.187659 0.465219
C110 C 0.44936(19) 0.87190(15) 0.38022(7)
H115 H 0.473796 0.846676 0.362808
H116 H 0.493437 0.902170 0.389509
H117 H 0.401419 0.901894 0.373526
C111 C 0.07540(18) 0.31356(16) 0.41313(6)
C112 C 0.72009(18) 0.39848(17) 0.48903(6)
H118 H 0.748472 0.442485 0.495824
H119 H 0.747408 0.356958 0.498594
H120 H 0.659393 0.400035 0.494701
C113 C -0.10965(16) 0.53626(17) 0.31737(6)
H121 H -0.074390 0.542628 0.299233
H122 H -0.141729 0.580409 0.321386
H123 H -0.149862 0.496616 0.314188
C114 C 0.00947(18) 0.58204(16) 0.35007(7)
H124 H 0.046754 0.570822 0.367258
H125 H -0.023771 0.625329 0.354544
H126 H 0.044577 0.590131 0.332022
C115 C 0.17690(18) 0.14356(15) 0.36865(7)
H127 H 0.162095 0.180559 0.383478
H128 H 0.127153 0.112547 0.365198
H129 H 0.193647 0.166355 0.349584
C116 C 0.45609(19) 0.07351(16) 0.47522(6)
H130 H 0.446663 0.109899 0.490847
H131 H 0.501617 0.040770 0.481728
H132 H 0.403059 0.046421 0.471991
C117 C 0.22557(18) 0.06118(14) 0.41016(7)
H133 H 0.273211 0.031535 0.417380
H134 H 0.175398 0.030783 0.406491
H135 H 0.211484 0.097324 0.425444
C118 C -0.10594(18) 0.50561(17) 0.37256(6)
H136 H -0.145088 0.465523 0.368772
H137 H -0.139180 0.548707 0.377362
H138 H -0.068371 0.493849 0.389602
C119 C 0.3789(2) 0.85552(16) 0.43058(6)
H139 H 0.331261 0.885894 0.423885
H140 H 0.422935 0.885364 0.440111
H141 H 0.357773 0.820220 0.445196
C120 C 0.07212(19) 0.85442(16) 0.41276(7)
H142 H 0.044337 0.820232 0.426433
H143 H 0.028420 0.884242 0.403014
H144 H 0.111333 0.884995 0.424309
C121 C 0.65073(19) 0.69697(15) 0.46123(7)
H145 H 0.653785 0.690106 0.439295
H146 H 0.686325 0.738019 0.467019
H147 H 0.591169 0.705990 0.467152
C122 C 0.6808(2) 0.64133(19) 0.51151(6)
H148 H 0.621822 0.651411 0.517797
H149 H 0.717599 0.682029 0.516804
H150 H 0.701424 0.598164 0.521837
C123 C 0.77546(17) 0.61393(16) 0.46728(7)
H151 H 0.796949 0.571683 0.478048
H152 H 0.811777 0.655329 0.471960
H153 H 0.776634 0.604852 0.445467
C124 C -0.15250(18) 0.26356(17) 0.37926(7)
H154 H -0.125081 0.252594 0.398641
H155 H -0.192138 0.224846 0.373895
H156 H -0.184217 0.308726 0.380940
C125 C 0.4918(2) 0.76964(17) 0.41353(7)
H157 H 0.471243 0.733845 0.428024
H158 H 0.535866 0.799430 0.423095
H159 H 0.516286 0.745324 0.395888
C126 C -0.12582(19) 0.29159(18) 0.32467(7)
H160 H -0.152770 0.338791 0.326736
H161 H -0.169474 0.255977 0.319367
H162 H -0.082253 0.293423 0.308733
C127 C 0.0622(2) 0.76679(18) 0.36972(7)
H163 H 0.095412 0.740287 0.354592
H164 H 0.020112 0.797349 0.359531
H165 H 0.032471 0.732858 0.382982
C128 C -0.0363(2) 0.19954(18) 0.35055(10)
H166 H 0.004644 0.203797 0.333859
H167 H -0.077765 0.161577 0.345982
H168 H -0.005567 0.187662 0.369203
C129 C 0.3409(5) 0.4680(6) 0.34612(17)
H169 H 0.328664 0.459957 0.324429
H170 H 0.346188 0.519843 0.350530
C130 C 0.4485(5) 0.4752(5) 0.3828(2)
H171 H 0.466648 0.440653 0.398572
H172 H 0.502809 0.492040 0.373686
C131 C 0.4156(6) 0.4237(5) 0.3580(2)
H173 H 0.459353 0.415067 0.342178
H174 H 0.396334 0.377302 0.366470
C132 C 0.3327(8) 0.5465(6) 0.4110(2)
H175 H 0.329174 0.588331 0.424733
H176 H 0.316773 0.503713 0.422978
C133 C 0.4248(7) 0.5382(6) 0.4017(2)
H177 H 0.441566 0.581913 0.390463
H178 H 0.459990 0.536607 0.420279
C134 C 0.2647(9) 0.5564(5) 0.3864(2)
H179 H 0.224289 0.594051 0.393162
H180 H 0.293442 0.574202 0.367954
O13 O 0.1591(11) 0.4772(9) 0.4040(3)
H181 H 0.143337 0.516521 0.411355
C135 C 0.2129(7) 0.4901(5) 0.3781(2)
H182 H 0.175972 0.501344 0.360212
C136 C 0.2688(6) 0.4223(4) 0.3708(2)
H183 H 0.235876 0.384219 0.360389
H184 H 0.297626 0.402593 0.388897
H185? H 0.411546 0.277454 0.201295
H186? H 0.410928 0.363896 0.201125
H187? H 0.281059 0.625136 0.120107
H188? H 0.321790 0.553919 0.106509
C137? C 0.2909(6) 0.3199(6) 0.1823(2)
H189? H 0.258378 0.274755 0.185046
H190? H 0.252721 0.360598 0.187268
C138? C 0.3228(5) 0.3261(4) 0.14971(13)
H191? H 0.351531 0.373032 0.147171
H192? H 0.366172 0.288281 0.146081
C139? C 0.2523(6) 0.3193(5) 0.1260(2)
H193? H 0.206819 0.354537 0.130739
H194? H 0.276623 0.332483 0.106066
C140? C 0.2109(9) 0.2454(6) 0.1231(3)
H195? H 0.256370 0.208830 0.120826
H196? H 0.178985 0.234618 0.141941
C141? C 0.1499(7) 0.2408(7) 0.0963(2)
H197? H 0.124873 0.192681 0.095394
H198? H 0.104047 0.276305 0.098731
H199? H 0.181422 0.250520 0.077619
C142? C 0.2130(6) 0.5392(6) 0.1272(3)
H200? H 0.180679 0.560129 0.144312
H201? H 0.222332 0.487767 0.131483
C143? C 0.1593(11) 0.5472(9) 0.0976(4)
H202? H 0.104201 0.522565 0.099997
H203? H 0.149159 0.598093 0.093454
H204? H 0.190765 0.525811 0.080639
O14? O 0.1391(4) 0.6009(4) 0.48708(17)
H205? H 0.183153 0.587272 0.477781
C144? C 0.0764(9) 0.6271(7) 0.4656(3)
C145? C 0.0125(4) 0.6670(4) 0.48340(15)
H206? H -0.031680 0.686067 0.469871
H207? H -0.013956 0.634924 0.498231
H208? H 0.040764 0.706767 0.493946
C146? C 0.0509(10) 0.5605(6) 0.4499(3)
H209? H 0.007702 0.571696 0.434529
H210? H 0.101151 0.539012 0.440233
H211? H 0.026746 0.526704 0.464586
C147? C 0.4728(6) 0.3762(5) 0.4937(3)
H212? H 0.522914 0.348138 0.499888
H213? H 0.479317 0.391023 0.472592
H214? H 0.467923 0.418792 0.506580
C148? C 0.3942(10) 0.3318(8) 0.4969(3)
O15? O 0.3211(8) 0.3692(7) 0.4884(3)
H215? H 0.288110 0.341790 0.478860
C149? C 0.3879(9) 0.3104(7) 0.5299(2)
H216? H 0.439666 0.283996 0.535750
H217? H 0.382567 0.353490 0.542405
H218? H 0.337544 0.279820 0.532847
C150? C 0.347(2) 0.6539(12) 0.4942(6)
H219? H 0.387248 0.690195 0.501353
H220? H 0.341176 0.657360 0.472151
H221? H 0.290572 0.662001 0.503554
C151? C 0.3780(11) 0.5823(9) 0.5023(4)
O16? O 0.3241(8) 0.5246(8) 0.4931(3)
H222? H 0.337723 0.487288 0.502514
C152? C 0.3798(14) 0.5737(9) 0.5354(4)
H223? H 0.415736 0.611240 0.544330
H224? H 0.321427 0.577571 0.543416
H225? H 0.403478 0.526555 0.540507
O17? O 0.2493(9) 0.5181(7) 0.4404(3)
H226? H 0.278555 0.500328 0.454513
C153? C 0.3051(14) 0.5385(19) 0.4160(5)
H227? H 0.325640 0.587301 0.421926
C154? C 0.3831(8) 0.3802(7) 0.3922(3)
H228? H 0.350748 0.376095 0.411351
H229? H 0.417308 0.335830 0.389997
C155? C 0.3190(8) 0.3818(7) 0.3668(3)
H230? H 0.263915 0.363069 0.374577
H231? H 0.338911 0.348503 0.350866
C156? C 0.3023(15) 0.4535(10) 0.3524(4)
H232? H 0.353952 0.484330 0.352653
H233? H 0.281393 0.448457 0.331384
C157? C 0.257(3) 0.5517(16) 0.3866(5)
H234? H 0.203553 0.578976 0.390708
H235? H 0.292615 0.580043 0.372545
C158? C 0.3888(16) 0.4935(15) 0.4143(6)
H236? H 0.431637 0.530988 0.418929
H237? H 0.383771 0.465735 0.433251
C159? C 0.4445(17) 0.4416(13) 0.3954(6)
H238? H 0.460186 0.462386 0.375581
H239? H 0.497181 0.427330 0.406367
C160? C 0.2351(17) 0.4809(14) 0.3727(6)
H240? H 0.225209 0.445565 0.388998
H241? H 0.181073 0.485789 0.361134
O18? O 0.1608(8) 0.4719(6) 0.3962(3)
H242? H 0.134291 0.498323 0.408402
C161? C 0.2340(6) 0.5096(6) 0.3847(2)
H243? H 0.215464 0.552902 0.373054
C162? C 0.2622(7) 0.4504(7) 0.3631(3)
H244? H 0.249770 0.406844 0.375117
H245? H 0.216324 0.451928 0.347657
C163? C 0.4393(8) 0.4267(5) 0.38919(19)
H246? H 0.390816 0.397633 0.396805
H247? H 0.491931 0.397193 0.388370
C164? C 0.4148(4) 0.4700(5) 0.35236(18)
H248? H 0.401569 0.521649 0.354564
H249? H 0.461496 0.463426 0.337453
C165? C 0.3370(5) 0.4265(5) 0.34480(19)
H250? H 0.323692 0.431775 0.323034
H251? H 0.348691 0.375247 0.348850
C166? C 0.4521(4) 0.4965(4) 0.40760(13)
H252? H 0.452951 0.483871 0.429340
H253? H 0.508962 0.516573 0.402493
C167? C 0.3851(6) 0.5546(3) 0.40281(15)
H254? H 0.388306 0.571272 0.381600
H255? H 0.399003 0.595838 0.416001
C168? C 0.2926(6) 0.5303(5) 0.4095(2)
H256? H 0.296227 0.488968 0.423419
H257? H 0.264439 0.569672 0.420746
loop_
_geom_bond_atom_site_label_1
_geom_bond_atom_site_label_2
_geom_bond_site_symmetry_1
_geom_bond_site_symmetry_2
O1 H1 1_555 1_555
O2 H2 1_555 1_555
O3 H3 1_555 1_555
O4 H4 1_555 1_555
O5 C59 1_555 1_555
O6 C58 1_555 1_555
O7 C70 1_555 1_555
O8 C63 1_555 1_555
O9 C53 1_555 1_555
O10 C43 1_555 1_555
O11 C47 1_555 1_555
O12 C50 1_555 1_555
C1 H5 1_555 1_555
H6 C1 1_555 1_555
H7 C1 1_555 1_555
C2 C1 1_555 1_555
H8 C2 1_555 1_555
H9 C2 1_555 1_555
C3 C2 1_555 1_555
H10 C3 1_555 1_555
H11 C3 1_555 1_555
C4 C3 1_555 1_555
H12 C4 1_555 1_555
H13 C4 1_555 1_555
C5 C4 1_555 1_555
H14 C5 1_555 1_555
H15 C5 1_555 1_555
C6 C5 1_555 1_555
H16 C6 1_555 1_555
H17 C6 1_555 1_555
C7 H18 1_555 1_555
H19 C7 1_555 1_555
H20 C7 1_555 1_555
C8 C7 1_555 1_555
H21 C8 1_555 1_555
H22 C8 1_555 1_555
C9 C8 1_555 1_555
H23 C9 1_555 1_555
H24 C9 1_555 1_555
C10 C9 1_555 1_555
H25 C10 1_555 1_555
H26 C10 1_555 1_555
C11 C10 1_555 1_555
H27 C11 1_555 1_555
H28 C11 1_555 1_555
C12 C11 1_555 1_555
H29 C12 1_555 1_555
H30 C12 1_555 1_555
C13 H31 1_555 1_555
H32 C13 1_555 1_555
H33 C13 1_555 1_555
C14 C13 1_555 1_555
H34 C14 1_555 1_555
H35 C14 1_555 1_555
C15 C14 1_555 1_555
H36 C15 1_555 1_555
H37 C15 1_555 1_555
C16 C15 1_555 1_555
H38 C16 1_555 1_555
H39 C16 1_555 1_555
C17 C16 1_555 1_555
H40 C17 1_555 1_555
H41 C17 1_555 1_555
C18 C17 1_555 1_555
H42 C18 1_555 1_555
H43 C18 1_555 1_555
C19 H44 1_555 1_555
H45 C19 1_555 1_555
H46 C19 1_555 1_555
C20 C19 1_555 1_555
H47 C20 1_555 1_555
H48 C20 1_555 1_555
C21 C20 1_555 1_555
H49 C21 1_555 1_555
H50 C21 1_555 1_555
C22 C21 1_555 1_555
H51 C22 1_555 1_555
H52 C22 1_555 1_555
C23 C22 1_555 1_555
H53 C23 1_555 1_555
H54 C23 1_555 1_555
C24 C23 1_555 1_555
H55 C24 1_555 1_555
H56 C24 1_555 1_555
C25 H57 1_555 1_555
H58 C25 1_555 1_555
H59 C25 1_555 1_555
C26 O1 1_555 1_555
C27 C26 1_555 1_555
H60 C27 1_555 1_555
H61 C27 1_555 1_555
H62 C27 1_555 1_555
C28 H63 1_555 1_555
H64 C28 1_555 1_555
H65 C28 1_555 1_555
C29 O2 1_555 1_555
C30 C29 1_555 1_555
H66 C30 1_555 1_555
H67 C30 1_555 1_555
H68 C30 1_555 1_555
C31 H69 1_555 1_555
H70 C31 1_555 1_555
H71 C31 1_555 1_555
C32 O3 1_555 1_555
C33 C32 1_555 1_555
H72 C33 1_555 1_555
H73 C33 1_555 1_555
H74 C33 1_555 1_555
C34 H75 1_555 1_555
H76 C34 1_555 1_555
H77 C34 1_555 1_555
C35 O4 1_555 1_555
C36 C35 1_555 1_555
H78 C36 1_555 1_555
H79 C36 1_555 1_555
H80 C36 1_555 1_555
C37 C49 1_555 1_555
C38 C42 1_555 1_555
C39 C40 1_555 1_555
C40 C46 1_555 1_555
C41 C49 1_555 1_555
C42 H81 1_555 1_555
C43 C38 1_555 1_555
C44 H82 1_555 1_555
C45 C42 1_555 1_555
C46 C57 1_555 1_555
C47 C45 1_555 1_555
C48 C51 1_555 1_555
C49 H83 1_555 1_555
C50 C37 1_555 1_555
C51 C87 1_555 1_555
C52 C44 1_555 1_555
C53 C69 1_555 1_555
C54 C50 1_555 1_555
C55 H84 1_555 1_555
C56 C24 1_555 1_555
H85 C56 1_555 1_555
C57 C43 1_555 1_555
C58 C52 1_555 1_555
C59 C41 1_555 1_555
C60 C39 1_555 1_555
C61 C55 1_555 1_555
C62 C18 1_555 1_555
H86 C62 1_555 1_555
C63 C61 1_555 1_555
C64 C12 1_555 1_555
H87 C64 1_555 1_555
C65 C78 1_555 1_555
C66 C54 1_555 1_555
C67 C60 1_555 1_555
C68 C6 1_555 1_555
H88 C68 1_555 1_555
C69 C48 1_555 1_555
C70 C73 1_555 1_555
C71 C75 1_555 1_555
C72 O5 1_555 1_555
H89 C72 1_555 1_555
H90 C72 1_555 1_555
C73 C58 1_555 1_555
C74 C73 1_555 1_555
C75 C74 1_555 1_555
C76 O11 1_555 1_555
H91 C76 1_555 1_555
H92 C76 1_555 1_555
C77 C44 1_555 1_555
C78 C82 1_555 1_555
C79 C39 1_555 1_555
C80 O7 1_555 1_555
H93 C80 1_555 1_555
H94 C80 1_555 1_555
C81 C91 1_555 1_555
C82 C110 1_555 1_555
C83 C71 1_555 1_555
C84 C87 1_555 1_555
C85 O9 1_555 1_555
H95 C85 1_555 1_555
H96 C85 1_555 1_555
C86 C53 1_555 1_555
C87 C91 1_555 1_555
C88 C94 1_555 1_555
C89 C65 1_555 1_555
C90 C66 1_555 1_555
C92 C67 1_555 1_555
C93 C67 1_555 1_555
C94 C71 1_555 1_555
C95 C81 1_555 1_555
C96 C88 1_555 1_555
C97 C81 1_555 1_555
C98 C79 1_555 1_555
H97 C98 1_555 1_555
H98 C98 1_555 1_555
H99 C98 1_555 1_555
C99 C89 1_555 1_555
C100 C32 1_555 1_555
C101 C29 1_555 1_555
C102 C88 1_555 1_555
C103 C79 1_555 1_555
H100 C103 1_555 1_555
H101 C103 1_555 1_555
H102 C103 1_555 1_555
C104 H103 1_555 1_555
H104 C104 1_555 1_555
H105 C104 1_555 1_555
C105 C35 1_555 1_555
C106 C89 1_555 1_555
C107 C97 1_555 1_555
H106 C107 1_555 1_555
H107 C107 1_555 1_555
H108 C107 1_555 1_555
C108 C84 1_555 1_555
H109 C108 1_555 1_555
H110 C108 1_555 1_555
H111 C108 1_555 1_555
C109 C97 1_555 1_555
H112 C109 1_555 1_555
H113 C109 1_555 1_555
H114 C109 1_555 1_555
C110 H115 1_555 1_555
H116 C110 1_555 1_555
H117 C110 1_555 1_555
C111 C26 1_555 1_555
C112 C79 1_555 1_555
H118 C112 1_555 1_555
H119 C112 1_555 1_555
H120 C112 1_555 1_555
C113 C83 1_555 1_555
H121 C113 1_555 1_555
H122 C113 1_555 1_555
H123 C113 1_555 1_555
C114 C83 1_555 1_555
H124 C114 1_555 1_555
H125 C114 1_555 1_555
H126 C114 1_555 1_555
C115 C84 1_555 1_555
H127 C115 1_555 1_555
H128 C115 1_555 1_555
H129 C115 1_555 1_555
C116 C97 1_555 1_555
H130 C116 1_555 1_555
H131 C116 1_555 1_555
H132 C116 1_555 1_555
C117 C84 1_555 1_555
H133 C117 1_555 1_555
H134 C117 1_555 1_555
H135 C117 1_555 1_555
C118 C83 1_555 1_555
H136 C118 1_555 1_555
H137 C118 1_555 1_555
H138 C118 1_555 1_555
C119 C82 1_555 1_555
H139 C119 1_555 1_555
H140 C119 1_555 1_555
H141 C119 1_555 1_555
C120 C106 1_555 1_555
H142 C120 1_555 1_555
H143 C120 1_555 1_555
H144 C120 1_555 1_555
C121 C92 1_555 1_555
H145 C121 1_555 1_555
H146 C121 1_555 1_555
H147 C121 1_555 1_555
C122 C92 1_555 1_555
H148 C122 1_555 1_555
H149 C122 1_555 1_555
H150 C122 1_555 1_555
C123 C92 1_555 1_555
H151 C123 1_555 1_555
H152 C123 1_555 1_555
H153 C123 1_555 1_555
C124 C102 1_555 1_555
H154 C124 1_555 1_555
H155 C124 1_555 1_555
H156 C124 1_555 1_555
C125 C82 1_555 1_555
H157 C125 1_555 1_555
H158 C125 1_555 1_555
H159 C125 1_555 1_555
C126 C102 1_555 1_555
H160 C126 1_555 1_555
H161 C126 1_555 1_555
H162 C126 1_555 1_555
C127 C106 1_555 1_555
H163 C127 1_555 1_555
H164 C127 1_555 1_555
H165 C127 1_555 1_555
C128 C102 1_555 1_555
H166 C128 1_555 1_555
H167 C128 1_555 1_555
H168 C128 1_555 1_555
C129 H169 1_555 1_555
H170 C129 1_555 1_555
C130 H171 1_555 1_555
H172 C130 1_555 1_555
C131 C129 1_555 1_555
H173 C131 1_555 1_555
H174 C131 1_555 1_555
C132 H175 1_555 1_555
H176 C132 1_555 1_555
C133 C130 1_555 1_555
H177 C133 1_555 1_555
H178 C133 1_555 1_555
C134 C132 1_555 1_555
H179 C134 1_555 1_555
H180 C134 1_555 1_555
O13 H181 1_555 1_555
C135 C134 1_555 1_555
H182 C135 1_555 1_555
C136 C129 1_555 1_555
H183 C136 1_555 1_555
H184 C136 1_555 1_555
O6 C72 1_555 1_555
O8 C80 1_555 1_555
O10 C85 1_555 1_555
O12 C76 1_555 1_555
C25 C26 1_555 1_555
C28 C29 1_555 1_555
C31 C32 1_555 1_555
C34 C35 1_555 1_555
C37 C62 1_555 1_555
C38 C56 1_555 1_555
C41 C64 1_555 1_555
C45 C62 1_555 1_555
C47 C57 1_555 1_555
C52 C64 1_555 1_555
C54 C59 1_555 1_555
C55 C86 1_555 1_555
C56 C86 1_555 1_555
C61 C68 1_555 1_555
C63 C69 1_555 1_555
C68 C77 1_555 1_555
C70 C77 1_555 1_555
C78 C90 1_555 1_555
C93 C100 1_555 1_555
C95 C105 1_555 1_555
C96 C111 1_555 1_555
C99 C101 1_555 1_555
C104 C106 1_555 1_555
C130 C131 1_555 1_555
C132 C133 1_555 1_555
O13 C135 1_555 1_555
C135 C136 1_555 1_555

#END
