
#######################################################################
#
#                 Cambridge Crystallographic Data Centre
#                                CCDC 
#
#######################################################################
#
# If this CIF has been generated from an entry in the Cambridge 
# Structural Database, then it will include bibliographic, chemical, 
# crystal, experimental, refinement or atomic coordinate data resulting 
# from the CCDC's data processing and validation procedures.
#
#######################################################################

data_YIKTOE
_chemical_name_common            
"7,11,15,28-tetrakis(3,5-di-t-butyl-8-hydroxy-8-methylnona-3,4-diene-1,6-diyn-1-yl)-1,21,23,25-tetrahexyl-1H,5H,9H,13H,17H,21H,23H,25H-19,3:20,2-di(metheno)[1,3]benzodioxocino[9',8':4,5][1,3]benzodioxocino[9,8-d][1,3]dioxocino[5,4-i][1,3]benzodioxocine acetonitrile solvate monohydrate"
_chemical_formula_moiety         'C128 H168 O12,3(C2 H3 N1),H2 O1'
_chemical_name_systematic        
"2,8,14,20-tetrahexyl-5,11,17,23-(3,5-di-t-butyl-8-hydroxy-8-methylnona-3,4-diene-1,6-diyn-1-yl)-4,24:6,10:12,16:18,22-O,O'-tetramethylenecalix[4]resorcinarene acetonitrile solvate monohydrate"
_symmetry_cell_setting           monoclinic
_symmetry_space_group_name_H-M   'P 21'
_symmetry_Int_Tables_number      4
_space_group_name_Hall           'P 2yb'
loop_
_symmetry_equiv_pos_site_id
_symmetry_equiv_pos_as_xyz
1 x,y,z
2 -x,1/2+y,-z
_cell_length_a                   15.6574(19)
_cell_length_b                   44.298(6)
_cell_length_c                   18.431(2)
_cell_angle_alpha                90
_cell_angle_beta                 91.853(3)
_cell_angle_gamma                90
_cell_volume                     12776.9
_exptl_crystal_colour            'light yellow'
_exptl_crystal_description       block
_cell_formula_units_Z            4
_exptl_crystal_recrystallization_method Acetonitrile/Water
loop_
_atom_site_label
_atom_site_type_symbol
_atom_site_fract_x
_atom_site_fract_y
_atom_site_fract_z
O1 O 0.5380(3) 0.7062(3) 1.1680(3)
O2 O 0.8200(3) 0.6661(3) 1.1746(3)
O3 O 0.9182(3) 0.6500(3) 1.0892(3)
O4 O 0.4344(4) 0.7216(3) 1.0809(3)
O5 O 0.7947(4) 0.6538(3) 0.7419(3)
O6 O 0.8995(4) 0.6411(3) 0.8318(3)
O7 O 0.5176(4) 0.6964(3) 0.7385(3)
O8 O 0.4210(4) 0.7157(3) 0.8228(3)
C1 C 0.9040(5) 0.6639(3) 1.0223(4)
C2 C 0.7639(5) 0.6878(3) 1.1474(4)
C3 C 0.8930(5) 0.6951(3) 1.0182(4)
C4 C 0.8430(5) 0.6424(3) 1.1265(4)
H1 H 0.8529 0.6235 1.1545
H2 H 0.7955 0.6387 1.0908
C5 C 0.9051(5) 0.6457(3) 0.9606(4)
C6 C 0.7932(5) 0.7127(3) 1.1087(4)
C7 C 0.8826(5) 0.7074(3) 0.9486(4)
H3 H 0.8736 0.7285 0.9442
C8 C 0.6211(5) 0.7084(3) 1.1446(4)
C9 C 0.6778(5) 0.6854(3) 1.1659(4)
C10 C 0.4756(6) 0.6966(3) 1.1164(5)
H4 H 0.4322 0.6843 1.1408
H5 H 0.5027 0.6837 1.0798
C11 C 1.0156(5) 0.7477(3) 1.0675(5)
H6 H 1.0468 0.7383 1.1092
H7 H 1.0286 0.7360 1.0235
C12 C 0.9337(5) 0.5543(3) 0.9790(4)
C13 C 0.8949(5) 0.6595(3) 0.8919(4)
C14 C 0.4700(5) 0.7295(3) 1.0143(4)
C15 C 0.7344(5) 0.7350(3) 1.0895(4)
H8 H 0.7535 0.7519 1.0627
C16 C 0.4634(5) 0.7264(3) 0.8858(4)
C17 C 0.5729(5) 0.7548(3) 0.9457(4)
H9 H 0.6228 0.7669 0.9440
C18 C 0.6254(6) 0.6386(3) 1.2397(4)
C19 C 0.8846(5) 0.6903(3) 0.8856(4)
C20 C 0.6021(6) 0.6993(3) 0.7604(4)
C21 C 0.9191(5) 0.7460(3) 1.0800(4)
H10 H 0.9066 0.7572 1.1250
H11 H 0.8882 0.7562 1.0392
C22 C 0.9051(5) 0.5417(3) 1.0386(5)
C23 C 0.7226(5) 0.7276(3) 0.8051(4)
H12 H 0.7452 0.7456 0.8258
C24 C 0.6206(6) 0.6472(3) 0.7179(4)
C25 C 0.5638(6) 0.5954(3) 0.6645(4)
C26 C 0.4397(6) 0.5981(3) 1.2715(4)
C27 C 0.7786(6) 0.7037(3) 0.7912(4)
C28 C 0.6550(6) 0.6745(3) 0.7474(4)
C29 C 0.6091(6) 0.5709(3) 0.6768(4)
C30 C 0.6503(5) 0.6599(3) 1.2069(4)
C31 C 0.7434(6) 0.6776(3) 0.7610(4)
C32 C 0.8781(6) 0.5295(3) 1.0980(5)
C33 C 0.5845(5) 0.7577(3) 1.0848(4)
H13 H 0.5404 0.7582 1.1228
C34 C 0.6692(6) 0.5986(3) 1.3341(4)
C35 C 0.5393(5) 0.7477(3) 1.0130(4)
C36 C 0.9148(5) 0.6135(3) 0.9669(4)
C37 C 0.6497(5) 0.7340(3) 1.1074(4)
C38 C 0.5225(6) 0.6038(3) 1.2763(4)
C39 C 0.3769(6) 0.6151(3) 1.3202(5)
C40 C 0.6934(7) 0.6220(3) 1.3929(5)
H14 H 0.7110 0.6409 1.3698
H15 H 0.7408 0.6142 1.4236
H16 H 0.6440 0.6259 1.4229
O9 O 0.5707(5) 0.5220(4) 1.0718(6)
H17 H 0.5859 0.5189 1.0292
C41 C 0.2371(6) 0.6579(3) 0.9634(5)
C42 C 0.6296(6) 0.5070(3) 1.1226(5)
C43 C 0.8730(5) 0.7042(3) 0.8104(4)
H18 H 0.9012 0.6904 0.7757
C44 C 0.4301(5) 0.7188(3) 0.9513(5)
C45 C 0.9240(5) 0.5874(3) 0.9733(4)
C46 C 0.4563(6) 0.6899(3) 0.7916(5)
H19 H 0.4096 0.6778 0.7687
H20 H 0.4837 0.6775 0.8305
O10 O 0.4041(5) 0.5386(3) 1.0588(4)
H21 H 0.4437 0.5266 1.0704
C47 C 0.1832(6) 0.6553(3) 1.0303(5)
C48 C 0.9388(6) 0.5252(3) 1.1638(5)
C49 C 0.4795(6) 0.5965(3) 0.6181(4)
C50 C 0.6442(7) 0.4946(3) 0.8695(6)
C51 C 0.6021(6) 0.6127(3) 1.2825(4)
C52 C 0.6347(6) 0.7258(3) 0.7897(4)
C53 C 0.8207(6) 0.6328(3) 0.7975(4)
H22 H 0.7762 0.6317 0.8343
H23 H 0.8264 0.6125 0.7758
C54 C 0.7173(6) 0.5138(3) 1.1113(5)
C55 C 0.6110(6) 0.7831(3) 0.8023(4)
H24 H 0.6429 0.7849 0.7570
H25 H 0.6515 0.7868 0.8438
C56 C 1.0165(6) 0.7315(3) 0.8102(5)
H26 H 1.0320 0.7188 0.8527
H27 H 1.0348 0.7207 0.7664
C57 C 0.5346(6) 0.7444(3) 0.8807(4)
C58 C 0.5949(6) 0.6234(3) 0.6944(4)
C59 C 0.6520(6) 0.5284(3) 0.7494(5)
C60 C 0.7906(6) 0.5208(3) 1.1046(5)
C61 C 0.8856(5) 0.7143(3) 1.0862(4)
H28 H 0.9208 0.7042 1.1254
C62 C 0.6238(6) 0.7897(3) 1.0801(4)
H29 H 0.6583 0.7939 1.1249
H30 H 0.6622 0.7906 1.0385
C63 C 0.9184(6) 0.7347(3) 0.8056(4)
H31 H 0.8999 0.7479 0.8456
H32 H 0.9014 0.7446 0.7592
C64 C 0.5741(6) 0.7513(3) 0.8078(4)
H33 H 0.5261 0.7502 0.7707
C65 C 0.6307(7) 0.5709(3) 1.3700(5)
H34 H 0.6752 0.5605 1.3991
H35 H 0.6075 0.5573 1.3326
H36 H 0.5848 0.5773 1.4016
C66 C 0.9766(6) 0.5374(3) 0.9190(5)
C67 C 0.3775(6) 0.5595(3) 1.1742(5)
C68 C 0.4066(6) 0.5769(3) 1.2201(5)
C69 C 0.3569(6) 0.6987(3) 0.9553(5)
C70 C 0.1634(7) 0.6268(4) 0.7836(6)
C71 C 1.0479(6) 0.7800(3) 1.0585(5)
H37 H 1.0125 0.7900 1.0200
H38 H 1.0394 0.7911 1.1043
C72 C 0.3326(6) 0.5920(3) 1.3680(5)
H39 H 0.2976 0.5785 1.3374
H40 H 0.2960 0.6026 1.4019
H41 H 0.3757 0.5803 1.3953
C73 C 0.6490(7) 0.5130(3) 0.8021(5)
C74 C 0.6593(6) 0.5481(3) 0.6874(5)
C75 C 0.7451(6) 0.5900(3) 1.2926(5)
H42 H 0.7687 0.6080 1.2696
H43 H 0.7282 0.5753 1.2551
H44 H 0.7884 0.5811 1.3256
C76 C 0.4257(7) 0.6377(3) 1.3676(5)
H45 H 0.4705 0.6272 1.3961
H46 H 0.3863 0.6476 1.4004
H47 H 0.4518 0.6530 1.3368
C77 C 0.2279(6) 0.6390(3) 0.9070(6)
C78 C 0.9072(7) 0.5441(3) 1.2256(5)
H48 H 0.9052 0.5653 1.2109
H49 H 0.9461 0.5417 1.2680
H50 H 0.8498 0.5374 1.2379
C79 C 0.5549(7) 0.8135(3) 1.0708(5)
H51 H 0.5218 0.8145 1.1157
H52 H 0.5152 0.8075 1.0305
C80 C 0.3103(7) 0.6309(3) 1.2715(6)
H53 H 0.3384 0.6461 1.2418
H54 H 0.2681 0.6408 1.3017
H55 H 0.2816 0.6160 1.2399
C81 C 0.3009(6) 0.6805(4) 0.9602(5)
C82 C 0.8168(6) 0.5404(4) 0.6751(5)
H56 H 0.8297 0.5607 0.6936
H57 H 0.8617 0.5340 0.6426
H58 H 0.8143 0.5263 0.7159
C83 C 0.3429(7) 0.5398(3) 1.1171(5)
C84 C 0.9302(7) 0.5447(4) 0.8468(5)
H59 H 0.8694 0.5399 0.8504
H60 H 0.9546 0.5325 0.8081
H61 H 0.9370 0.5661 0.8357
C85 C 0.1277(7) 0.6835(3) 1.0336(6)
H62 H 0.1643 0.7014 1.0392
H63 H 0.0902 0.6821 1.0750
H64 H 0.0929 0.6853 0.9886
C86 C 0.2206(7) 0.6209(3) 0.8501(6)
O11 O 0.6260(8) 0.5138(3) 0.9296(5)
H65 H 0.5749 0.5113 0.9411
C87 C 0.5910(8) 0.8446(3) 1.0550(6)
H66 H 0.6377 0.8489 1.0910
H67 H 0.6165 0.8441 1.0065
C88 C 1.0649(7) 0.7597(3) 0.8163(6)
H68 H 1.0536 0.7690 0.8639
H69 H 1.0431 0.7738 0.7782
C89 C 0.9735(7) 0.5043(3) 0.9319(6)
H70 H 1.0031 0.4996 0.9781
H71 H 1.0016 0.4938 0.8924
H72 H 0.9139 0.4978 0.9335
C90 C 0.5395(8) 0.8070(3) 0.8025(6)
H73 H 0.5035 0.8044 0.7578
H74 H 0.5031 0.8028 0.8442
C91 C 0.9355(7) 0.4916(3) 1.1862(6)
H75 H 0.8768 0.4861 1.1977
H76 H 0.9732 0.4883 1.2289
H77 H 0.9544 0.4790 1.1460
C92 C 0.7307(6) 0.5407(4) 0.6335(5)
C93 C 0.4566(7) 0.5649(3) 0.5915(6)
H78 H 0.5030 0.5569 0.5626
H79 H 0.4038 0.5657 0.5615
H80 H 0.4482 0.5516 0.6333
C94 C 1.0298(6) 0.5334(3) 1.1472(5)
H81 H 1.0492 0.5209 1.1071
H82 H 1.0667 0.5299 1.1903
H83 H 1.0325 0.5547 1.1334
C95 C 0.1275(7) 0.6279(3) 1.0285(6)
H84 H 0.0914 0.6280 0.9840
H85 H 0.0913 0.6279 1.0709
H86 H 0.1633 0.6098 1.0294
C96 C 0.2444(7) 0.6536(4) 1.0966(6)
H87 H 0.2829 0.6363 1.0914
H88 H 0.2115 0.6511 1.1405
H89 H 0.2779 0.6722 1.1002
C97 C 0.4094(7) 0.6092(3) 0.6633(5)
H90 H 0.4058 0.5975 0.7083
H91 H 0.3548 0.6080 0.6359
H92 H 0.4221 0.6303 0.6752
C98 C 0.4935(7) 0.6162(4) 0.5530(5)
H93 H 0.4980 0.6373 0.5685
H94 H 0.4452 0.6140 0.5183
H95 H 0.5464 0.6102 0.5300
C99 C 1.0707(6) 0.5482(3) 0.9188(5)
H96 H 1.0723 0.5701 0.9118
H97 H 1.1000 0.5382 0.8792
H98 H 1.0993 0.5430 0.9652
C100 C 1.1386(7) 0.7826(4) 1.0396(7)
H99 H 1.1478 0.7694 0.9971
H100 H 1.1488 0.8036 1.0241
C101 C 0.2769(8) 0.5942(4) 0.8514(6)
O12 O 0.3690(10) 0.5272(4) 0.9087(6)
H101 H 0.4065 0.5137 0.9116
C102 C 0.2662(7) 0.5533(4) 1.0813(6)
H102 H 0.2821 0.5719 1.0565
H103 H 0.2239 0.5579 1.1178
H104 H 0.2416 0.5390 1.0458
C103 C 1.1613(8) 0.7568(4) 0.8095(10)
H105 H 1.1841 0.7437 0.8491
H106 H 1.1732 0.7468 0.7629
C104 C 0.5281(10) 0.8702(4) 1.0562(8)
H107 H 0.5051 0.8719 1.1055
H108 H 0.5580 0.8894 1.0456
C105 C 1.2072(10) 0.7864(4) 0.8126(12)
H109 H 1.1838 0.7991 0.7724
H110 H 1.1924 0.7965 0.8584
C106 C 0.7311(7) 0.5661(4) 0.5725(6)
H111 H 0.6753 0.5667 0.5470
H112 H 0.7755 0.5616 0.5379
H113 H 0.7429 0.5858 0.5951
C107 C 0.4943(11) 0.8597(4) 0.7856(10)
H114 H 0.4737 0.8547 0.7357
H115 H 0.4464 0.8560 0.8183
C108 C 0.5662(8) 0.8380(3) 0.8065(6)
H116 H 0.6142 0.8411 0.7738
H117 H 0.5870 0.8425 0.8566
C109 C 0.3323(11) 0.5083(4) 1.1456(7)
H118 H 0.3213 0.4945 1.1049
H119 H 0.2841 0.5077 1.1782
H120 H 0.3846 0.5021 1.1722
C110 C 0.3936(14) 0.8949(5) 1.0002(11)
H121 H 0.3517 0.8914 0.9604
H122 H 0.4255 0.9135 0.9910
H123 H 0.3640 0.8968 1.0460
C111 C 0.4602(13) 0.8663(5) 1.0055(12)
H124 H 0.4280 0.8479 1.0186
H125 H 0.4840 0.8629 0.9571
C112 C 0.3291(11) 0.5752(4) 0.8569(7)
C113 C 0.5137(11) 0.8913(4) 0.7878(12)
H126 H 0.5624 0.8954 0.7563
H127 H 0.5310 0.8971 0.8381
C114 C 0.7129(8) 0.5100(4) 0.6011(7)
H128 H 0.7298 0.4944 0.6363
H129 H 0.7456 0.5076 0.5570
H130 H 0.6518 0.5082 0.5888
C115 C 0.6107(9) 0.4747(5) 1.0992(11)
H131 H 0.5492 0.4709 1.1015
H132 H 0.6418 0.4607 1.1316
H133 H 0.6289 0.4718 1.0493
C116 C 0.5726(10) 0.4725(4) 0.8710(8)
H134 H 0.5181 0.4833 0.8719
H135 H 0.5791 0.4598 0.9145
H136 H 0.5735 0.4597 0.8276
C117 C 0.7290(10) 0.4812(6) 0.8899(9)
H137 H 0.7473 0.4678 0.8510
H138 H 0.7245 0.4696 0.9349
H139 H 0.7712 0.4974 0.8973
C118 C 0.3964(11) 0.5510(4) 0.8590(7)
C119 C 0.4390(12) 0.9098(5) 0.7632(11)
H140 H 0.4544 0.9313 0.7654
H141 H 0.4224 0.9044 0.7132
H142 H 0.3911 0.9060 0.7949
C120 C 0.4786(13) 0.5699(5) 0.8591(12)
H143 H 0.4861 0.5802 0.9059
H144 H 0.4746 0.5848 0.8200
H145 H 0.5277 0.5566 0.8516
C121 C 1.2029(9) 0.7750(5) 1.0947(11)
H146 H 1.1966 0.7535 1.1078
H147 H 1.1925 0.7872 1.1386
C122 C 0.1098(10) 0.6538(5) 0.7950(8)
H148 H 0.0631 0.6486 0.8268
H149 H 0.0861 0.6608 0.7481
H150 H 0.1448 0.6698 0.8175
C123 C 0.6033(10) 0.5115(6) 1.1977(8)
H151 H 0.6072 0.5330 1.2102
H152 H 0.6409 0.4998 1.2308
H153 H 0.5442 0.5046 1.2023
C124 C 0.0873(12) 0.6031(5) 0.7767(10)
H154 H 0.1106 0.5826 0.7741
H155 H 0.0527 0.6073 0.7326
H156 H 0.0514 0.6048 0.8191
C125 C 0.2124(11) 0.6318(6) 0.7197(9)
H157 H 0.2551 0.6475 0.7297
H158 H 0.1741 0.6382 0.6795
H159 H 0.2413 0.6130 0.7065
C126 C 1.2918(10) 0.7803(6) 1.0726(14)
H160 H 1.3067 0.7655 1.0356
H161 H 1.3308 0.7781 1.1150
H162 H 1.2968 0.8007 1.0528
C127 C 1.3006(13) 0.7868(6) 0.8084(16)
H163 H 1.3212 0.8076 0.8111
H164 H 1.3258 0.7751 0.8489
H165 H 1.3171 0.7777 0.7624
C128 C 0.3916(14) 0.5309(5) 0.7921(9)
H166 H 0.4171 0.5112 0.8038
H167 H 0.4230 0.5404 0.7530
H168 H 0.3318 0.5282 0.7764
O13 O 0.4127(4) 0.3479(3) 0.4257(3)
O14 O -0.0744(4) 0.2806(3) 0.4111(3)
O15 O 0.3120(4) 0.3316(3) 0.7706(3)
O16 O 0.0258(4) 0.2977(3) 0.3285(3)
O17 O 0.4101(4) 0.3468(3) 0.6839(3)
O18 O -0.0714(4) 0.2785(3) 0.6699(3)
O19 O 0.3089(4) 0.3358(3) 0.3360(3)
O20 O 0.0290(4) 0.2929(3) 0.7609(3)
C131 C 0.1669(6) 0.3177(3) 0.3386(4)
C132 C 0.4014(5) 0.3314(3) 0.4899(4)
C133 C 0.2828(5) 0.2870(3) 0.3908(4)
C134 C 0.1397(6) 0.2646(3) 0.7045(4)
C135 C 0.3891(5) 0.3005(3) 0.4867(4)
C136 C 0.2540(5) 0.3132(3) 0.3571(4)
C137 C 0.1102(5) 0.2943(3) 0.3532(4)
C138 C 0.4001(5) 0.3311(3) 0.6193(4)
C139 C 0.3880(5) 0.3002(3) 0.6196(4)
C140 C 0.3799(6) 0.2828(3) 0.6907(4)
H176 H 0.4131 0.2941 0.7291
C141 C -0.1431(6) 0.3006(3) 0.5403(5)
C142 C -0.0372(6) 0.3057(3) 0.3794(5)
H177 H -0.0103 0.3184 0.4180
H178 H -0.0823 0.3178 0.3544
C143 C 0.4162(5) 0.3792(3) 0.5562(4)
C144 C 0.0884(6) 0.3886(3) 0.8625(4)
C145 C 0.4061(5) 0.3474(3) 0.5557(4)
C146 C 0.2554(6) 0.3093(3) 0.7461(4)
C147 C 0.1635(6) 0.4129(3) 0.1999(5)
C148 C 0.0694(6) 0.2418(3) 0.5415(4)
H179 H 0.1172 0.2286 0.5417
C149 C -0.1995(6) 0.3187(3) 0.5402(5)
C150 C 0.4253(5) 0.4062(3) 0.5550(4)
C151 C 0.1131(6) 0.2900(3) 0.7408(4)
C152 C 0.4165(6) 0.2510(3) 0.6882(4)
H180 H 0.3902 0.2401 0.6463
H181 H 0.4017 0.2401 0.7329
C153 C 0.1695(6) 0.3134(3) 0.7612(4)
C154 C 0.1173(6) 0.3682(3) 0.2758(4)
C155 C 0.3813(5) 0.2852(3) 0.5523(4)
H182 H 0.3712 0.2641 0.5516
C156 C 0.3829(6) 0.4718(3) 0.4498(5)
C157 C 0.4352(5) 0.4380(3) 0.5596(4)
C158 C 0.1369(6) 0.2676(3) 0.3860(4)
C159 C 0.0929(6) 0.3952(3) 0.2383(4)
C160 C 0.1386(5) 0.3455(3) 0.3049(4)
C161 C 0.0344(6) 0.2515(3) 0.4759(4)
C162 C 0.0752(6) 0.2403(3) 0.6810(4)
H183 H 0.0285 0.2406 0.7167
C163 C -0.0697(6) 0.4092(3) 0.2449(4)
C164 C 0.2859(5) 0.2846(3) 0.7093(4)
C165 C 0.3373(6) 0.3571(3) 0.3882(5)
H184 H 0.3477 0.3766 0.3639
H185 H 0.2919 0.3602 0.4236
C166 C -0.0342(6) 0.2699(3) 0.6065(4)
C167 C 0.2234(6) 0.2649(3) 0.4048(4)
H186 H 0.2425 0.2469 0.4284
C168 C 0.3783(5) 0.2840(3) 0.4138(4)
H187 H 0.4117 0.2955 0.3776
C169 C 0.0362(6) 0.2509(3) 0.6076(4)
C170 C 0.1405(6) 0.3394(3) 0.7978(4)
C171 C 0.0723(6) 0.2437(3) 0.4023(4)
H188 H 0.0252 0.2450 0.3645
C172 C 0.2259(6) 0.2622(3) 0.6900(4)
H189 H 0.2451 0.2446 0.6659
C173 C 0.4115(6) 0.2523(3) 0.4144(4)
H190 H 0.3942 0.2424 0.3680
H191 H 0.3848 0.2410 0.4541
C174 C 0.1195(6) 0.3616(3) 0.8274(5)
C175 C -0.0355(6) 0.2706(3) 0.4747(4)
C176 C 0.3356(6) 0.3544(3) 0.7202(4)
H192 H 0.2882 0.3574 0.6841
H193 H 0.3449 0.3737 0.7465
C177 C -0.0968(6) 0.4278(3) 0.3042(5)
C178 C -0.1371(6) 0.3956(3) 0.1924(5)
C179 C -0.0328(6) 0.3027(3) 0.7077(5)
H194 H -0.0774 0.3146 0.7318
H195 H -0.0048 0.3162 0.6727
C180 C -0.0717(6) 0.2803(3) 0.5418(4)
C181 C 0.0125(6) 0.4039(3) 0.2398(4)
O21 O -0.0845(8) 0.4594(3) 0.4758(5)
H196 H -0.0563 0.4755 0.4744
C182 C 0.1289(6) 0.4145(3) 0.8543(5)
C183 C 0.4069(6) 0.4550(3) 0.5045(5)
C184 C -0.2646(6) 0.3410(3) 0.5423(6)
C185 C 0.2558(6) 0.4231(4) 0.9608(5)
H197 H 0.2025 0.4213 0.9869
H198 H 0.3024 0.4287 0.9951
H199 H 0.2691 0.4038 0.9381
O22 O 0.0773(6) 0.4907(4) 0.4714(5)
H200 H 0.0765 0.4992 0.5122
C186 C 0.4811(6) 0.4513(3) 0.6269(5)
C187 C 0.0128(6) 0.3845(3) 0.9105(5)
C188 C 0.0372(7) 0.1879(3) 0.4089(5)
H201 H -0.0008 0.1887 0.3650
H202 H 0.0027 0.1929 0.4512
C189 C 0.2460(6) 0.4469(3) 0.9038(5)
C190 C 0.5425(7) 0.2187(4) 0.4352(6)
H203 H 0.5247 0.2061 0.3931
H204 H 0.5182 0.2098 0.4792
C191 C 0.1741(6) 0.4395(3) 0.8486(4)
C192 C 0.1070(6) 0.2111(3) 0.4022(4)
H205 H 0.1371 0.2076 0.3565
H206 H 0.1490 0.2087 0.4431
C193 C -0.2718(6) 0.3562(4) 0.6035(6)
C194 C 0.2070(7) 0.3915(4) 0.1474(5)
H207 H 0.2311 0.3743 0.1744
H208 H 0.2528 0.4023 0.1233
H209 H 0.1649 0.3843 0.1110
C195 C 0.1104(7) 0.2084(3) 0.6798(5)
H210 H 0.1509 0.2067 0.6398
H211 H 0.1427 0.2045 0.7259
C196 C 0.4434(7) 0.4804(3) 0.3899(5)
C197 C -0.2717(7) 0.3702(4) 0.6653(6)
C198 C -0.0634(7) 0.3720(3) 0.8657(6)
H212 H -0.0810 0.3867 0.8284
H213 H -0.1111 0.3682 0.8976
H214 H -0.0469 0.3531 0.8424
C199 C 0.1235(7) 0.4390(3) 0.1574(6)
H215 H 0.0839 0.4311 0.1197
H216 H 0.1685 0.4507 0.1346
H217 H 0.0923 0.4521 0.1903
C200 C 0.0723(8) 0.1558(3) 0.4179(6)
H218 H 0.1042 0.1502 0.3743
H219 H 0.1126 0.1551 0.4603
C201 C 0.0377(7) 0.3625(3) 0.9700(5)
H220 H 0.0516 0.3430 0.9486
H221 H -0.0099 0.3601 1.0027
H222 H 0.0877 0.3703 0.9974
C202 C -0.0130(7) 0.4147(3) 0.9446(6)
H223 H 0.0343 0.4223 0.9755
H224 H -0.0635 0.4117 0.9739
H225 H -0.0263 0.4293 0.9060
C203 C 0.0423(7) 0.1850(3) 0.6698(6)
H226 H 0.0047 0.1861 0.7119
H227 H 0.0072 0.1903 0.6261
C204 C 0.3307(6) 0.4498(3) 0.8632(5)
H228 H 0.3776 0.4539 0.8983
H229 H 0.3259 0.4663 0.8281
H230 H 0.3421 0.4308 0.8377
C205 C -0.3756(7) 0.3184(4) 0.4633(6)
H231 H -0.3412 0.3021 0.4431
H232 H -0.4238 0.3230 0.4298
H233 H -0.3972 0.3121 0.5102
C206 C 0.5088(6) 0.2504(3) 0.4246(5)
H234 H 0.5353 0.2594 0.3815
H235 H 0.5266 0.2628 0.4673
C207 C 0.4752(6) 0.4852(3) 0.6266(5)
H236 H 0.4996 0.4931 0.5822
H237 H 0.5070 0.4933 0.6690
H238 H 0.4152 0.4913 0.6286
C208 C 0.5753(6) 0.4411(3) 0.6252(5)
H239 H 0.5779 0.4190 0.6235
H240 H 0.6062 0.4484 0.6689
H241 H 0.6017 0.4495 0.5821
C209 C 0.1596(6) 0.4598(3) 0.7888(5)
C210 C -0.3214(6) 0.3461(3) 0.4736(6)
C211 C 0.2260(7) 0.4770(4) 0.9392(6)
H242 H 0.1737 0.4751 0.9665
H243 H 0.2181 0.4925 0.9016
H244 H 0.2735 0.4828 0.9722
C212 C -0.0963(7) 0.3756(4) 0.1380(5)
H245 H -0.0534 0.3871 0.1120
H246 H -0.1400 0.3681 0.1033
H247 H -0.0687 0.3585 0.1630
C213 C -0.3207(7) 0.3587(4) 0.7299(6)
C214 C 0.2954(7) 0.4834(3) 0.4421(5)
C215 C -0.1853(8) 0.4211(4) 0.1538(7)
H248 H -0.2129 0.4338 0.1898
H249 H -0.2288 0.4126 0.1203
H250 H -0.1452 0.4333 0.1266
C216 C 0.5146(7) 0.2513(3) 0.6814(6)
H251 H 0.5291 0.2650 0.6411
H252 H 0.5405 0.2598 0.7266
C217 C -0.3778(7) 0.3730(4) 0.4830(7)
H253 H -0.4160 0.3693 0.5232
H254 H -0.4118 0.3764 0.4383
H255 H -0.3425 0.3908 0.4939
C218 C -0.1202(8) 0.4421(3) 0.3554(6)
C219 C 0.1500(7) 0.4772(4) 0.7379(5)
C220 C 0.2249(8) 0.4929(4) 0.4371(6)
C221 C 0.6934(8) 0.2237(4) 0.7402(8)
H256 H 0.6722 0.2077 0.7723
H257 H 0.6791 0.2435 0.7617
C222 C 0.4400(6) 0.4387(3) 0.6942(5)
H258 H 0.3796 0.4445 0.6939
H259 H 0.4692 0.4469 0.7378
H260 H 0.4448 0.4167 0.6944
C223 C -0.1503(9) 0.4597(4) 0.4190(7)
C224 C -0.0976(9) 0.4390(4) 0.6823(6)
C225 C 0.1430(8) 0.4975(4) 0.6747(6)
O23 O 0.1241(11) 0.4820(4) 0.6116(5)
H261 H 0.0761 0.4737 0.6146
C226 C 0.4070(8) 0.4664(4) 0.3190(5)
H262 H 0.3959 0.4448 0.3265
H263 H 0.4484 0.4688 0.2806
H264 H 0.3535 0.4766 0.3046
C227 C -0.2162(7) 0.3958(4) 0.6738(6)
C228 C -0.1984(8) 0.3766(4) 0.2375(6)
H265 H -0.1664 0.3603 0.2620
H266 H -0.2431 0.3680 0.2055
H267 H -0.2246 0.3895 0.2739
C229 C 0.5325(7) 0.4685(4) 0.4068(6)
H268 H 0.5537 0.4767 0.4533
H269 H 0.5706 0.4746 0.3683
H270 H 0.5309 0.4464 0.4096
C230 C 0.5533(7) 0.2219(4) 0.6685(6)
H271 H 0.5306 0.2142 0.6213
H272 H 0.5346 0.2078 0.7066
C231 C 0.2282(8) 0.4255(4) 0.2566(7)
H273 H 0.1977 0.4361 0.2945
H274 H 0.2669 0.4396 0.2330
H275 H 0.2613 0.4088 0.2783
C232 C 0.6521(8) 0.2210(4) 0.6676(8)
H276 H 0.6700 0.2018 0.6454
H277 H 0.6721 0.2377 0.6366
C233 C 0.1376(9) 0.5052(4) 0.4281(7)
C234 C -0.2635(8) 0.3502(4) 0.4096(7)
H278 H -0.2244 0.3671 0.4194
H279 H -0.2984 0.3545 0.3657
H280 H -0.2304 0.3317 0.4024
C235 C -0.0399(9) 0.1236(4) 0.7275(8)
H281 H -0.0729 0.1418 0.7404
H282 H 0.0037 0.1202 0.7667
C236 C 0.6404(7) 0.2190(4) 0.4431(7)
H283 H 0.6622 0.2296 0.4002
H284 H 0.6557 0.2316 0.4860
O24 O -0.1073(11) 0.4634(3) 0.6277(5)
H285 H -0.0841 0.4581 0.5892
C237 C 0.0008(10) 0.1328(3) 0.4286(8)
H286 H -0.0409 0.1357 0.3877
H287 H -0.0284 0.1389 0.4730
C238 C -0.0205(9) 0.4252(4) 0.6623(7)
H288 H -0.0295 0.4147 0.6158
H289 H -0.0024 0.4106 0.6997
H290 H 0.0238 0.4406 0.6575
C239 C -0.1636(8) 0.4173(4) 0.6764(6)
C240 C 0.0704(10) 0.1537(4) 0.6624(7)
H291 H 0.1101 0.1491 0.7039
H292 H 0.1038 0.1523 0.6178
C241 C -0.0887(10) 0.4534(4) 0.7547(7)
H293 H -0.0442 0.4690 0.7538
H294 H -0.0728 0.4381 0.7910
H295 H -0.1431 0.4627 0.7671
C242 C -0.2229(11) 0.4422(4) 0.4497(8)
H296 H -0.2095 0.4206 0.4489
H297 H -0.2752 0.4460 0.4204
H298 H -0.2315 0.4486 0.4998
C243 C 0.0042(11) 0.1296(4) 0.6588(10)
H299 H -0.0394 0.1352 0.6211
H300 H 0.0314 0.1106 0.6431
C244 C 0.4445(10) 0.5151(4) 0.3828(7)
H301 H 0.3870 0.5223 0.3694
H302 H 0.4842 0.5210 0.3452
H303 H 0.4632 0.5241 0.4293
C245 C -0.1687(13) 0.4904(4) 0.3968(8)
H304 H -0.1852 0.5022 0.4391
H305 H -0.2156 0.4904 0.3603
H306 H -0.1177 0.4993 0.3760
C246 C 0.7925(9) 0.2209(4) 0.7339(12)
H307 H 0.8111 0.2331 0.6928
H308 H 0.8076 0.1997 0.7261
H309 H 0.8208 0.2282 0.7787
C247 C 0.016(2) 0.0986(5) 0.435(2)
H310 H -0.0396 0.0878 0.4329
H311 H 0.0502 0.0915 0.3942
C248 C 0.1407(11) 0.5377(5) 0.4472(10)
H312 H 0.0830 0.5462 0.4428
H313 H 0.1783 0.5483 0.4142
H314 H 0.1628 0.5400 0.4973
C249 C -0.0996(10) 0.0970(4) 0.7245(12)
H315 H -0.1458 0.1008 0.6885
H316 H -0.1238 0.0939 0.7723
H317 H -0.0680 0.0789 0.7106
C250 C 0.0784(12) 0.5205(5) 0.6802(8)
H318 H 0.0246 0.5112 0.6942
H319 H 0.0702 0.5306 0.6332
H320 H 0.0966 0.5353 0.7171
C251 C -0.3828(15) 0.3814(5) 0.7567(10)
H321 H -0.3516 0.3983 0.7791
H322 H -0.4189 0.3719 0.7926
H323 H -0.4186 0.3887 0.7158
C252 C -0.3812(12) 0.3330(6) 0.7096(12)
H324 H -0.4213 0.3397 0.6709
H325 H -0.4130 0.3271 0.7522
H326 H -0.3482 0.3158 0.6926
C253 C -0.2616(11) 0.3460(6) 0.7860(12)
H327 H -0.2197 0.3330 0.7629
H328 H -0.2941 0.3340 0.8204
H329 H -0.2320 0.3624 0.8119
C254 C 0.1057(11) 0.5006(6) 0.3538(8)
H330 H 0.0965 0.4790 0.3452
H331 H 0.1476 0.5082 0.3200
H332 H 0.0516 0.5114 0.3462
C255 C 0.2292(14) 0.5180(7) 0.6730(12)
H333 H 0.2295 0.5324 0.7133
H334 H 0.2303 0.5290 0.6269
H335 H 0.2795 0.5049 0.6777
C256 C 0.063(2) 0.0924(8) 0.5070(19)
H336 H 0.1234 0.0975 0.5028
H337 H 0.0572 0.0710 0.5193
H338 H 0.0381 0.1048 0.5451
C257 C 0.6882(14) 0.1906(6) 0.4509(18)
H339 H 0.6734 0.1777 0.4086
H340 H 0.6690 0.1801 0.4948
C258 C 0.7841(15) 0.1938(9) 0.457(2)
H341 H 0.8098 0.1830 0.4165
H342 H 0.8053 0.1854 0.5029
H343 H 0.7995 0.2153 0.4541
N1 N 0.7122(6) 0.7049(3) 0.4483(4)
C265 C 0.7003(7) 0.6887(3) 0.4957(5)
C266 C 0.6818(8) 0.6702(4) 0.5584(5)
H366 H 0.6856 0.6488 0.5453
H367 H 0.6240 0.6747 0.5743
H368 H 0.7233 0.6746 0.5979
N2 N 0.2066(6) 0.2886(3) 0.0619(5)
C267 C 0.1567(8) 0.3016(3) 0.0932(5)
C268 C 0.0887(10) 0.3174(3) 0.1319(7)
H369 H 0.0387 0.3201 0.0990
H370 H 0.1095 0.3372 0.1482
H371 H 0.0725 0.3054 0.1739
N3 N 0.1584(7) 0.3182(3) 0.5497(5)
C269 C 0.1728(11) 0.3471(4) 0.5635(9)
C270 C 0.1936(9) 0.3759(4) 0.5775(11)
H372 H 0.1824 0.3882 0.5340
H373 H 0.2544 0.3772 0.5916
H374 H 0.1594 0.3835 0.6172
C271 C 0.6624(7) 0.6781(3) 0.9576(5)
H375 H 0.6924 0.6883 0.9188
H376 H 0.6943 0.6807 1.0038
H377 H 0.6051 0.6867 0.9614
C272 C 0.6555(11) 0.6454(4) 0.9407(9)
N4 N 0.6223(14) 0.6253(4) 0.9056(11)
O25 O 0.7227 0.5652 0.9256
H378 H 0.7674 0.5727 0.9484
H379 H 0.6987 0.5791 0.8985
O26 O 0.2354 0.4332 0.6067
H380 H 0.2844 0.4369 0.5878
H381 H 0.2112 0.4501 0.6185
C273 C 0.0529(19) 0.3971(6) 0.4485(16)
N5 N 0.102(2) 0.4163(7) 0.4402(17)
C274 C 0.0031(14) 0.3711(5) 0.4692(11)
H382 H -0.0077 0.3582 0.4267
H383 H -0.0514 0.3779 0.4882
H384 H 0.0348 0.3596 0.5067
N6 N 0.5170(17) 0.6068(6) 1.0727(12)
C275 C 0.5880(19) 0.6000(10) 1.078(2)
C276 C 0.6821(17) 0.5965(7) 1.0720(17)
H385 H 0.7117 0.6106 1.1052
H386 H 0.6979 0.6008 1.0221
H387 H 0.6986 0.5758 1.0846
H169? H 1.1674 0.7686 1.0746
H170? H 1.1400 0.7721 0.9923
C129? C 1.291(2) 0.8005(14) 1.018(3)
H171? H 1.3010 0.8038 0.9667
H172? H 1.3053 0.7796 1.0312
H173? H 1.3262 0.8144 1.0476
C130? C 1.2005(19) 0.8060(9) 1.032(2)
H174? H 1.1992 0.8181 1.0771
H175? H 1.1786 0.8192 0.9923
H344? H 0.0037 0.1916 0.6293
H345? H 0.0702 0.1661 0.6543
H346? H -0.0194 0.1257 0.7786
H347? H 0.0104 0.1181 0.6991
H348? H 0.6589 0.2373 0.4701
H349? H 0.6595 0.2012 0.4718
H350? H -0.0350 0.1299 0.3838
H351? H -0.0358 0.1383 0.4693
C259? C -0.010(2) 0.1778(9) 0.7305(16)
H352? H -0.0437 0.1956 0.7451
H353? H 0.0259 0.1710 0.7727
C260? C -0.067(2) 0.1531(6) 0.704(2)
H354? H -0.1254 0.1569 0.7201
H355? H -0.0689 0.1535 0.6498
C261? C -0.005(3) 0.0785(9) 0.452(3)
H356? H 0.0265 0.0600 0.4636
H357? H -0.0453 0.0826 0.4910
H358? H -0.0374 0.0760 0.4061
C262? C 0.057(2) 0.1049(6) 0.446(2)
H359? H 0.0975 0.1012 0.4073
H360? H 0.0896 0.1079 0.4927
C263? C 0.6802(14) 0.2185(8) 0.3739(14)
H361? H 0.6624 0.2365 0.3455
H362? H 0.6614 0.2003 0.3465
C264? C 0.7750(15) 0.2182(9) 0.384(2)
H363? H 0.8013 0.2226 0.3377
H364? H 0.7936 0.1982 0.4013
H365? H 0.7925 0.2335 0.4198
loop_
_geom_bond_atom_site_label_1
_geom_bond_atom_site_label_2
_geom_bond_site_symmetry_1
_geom_bond_site_symmetry_2
O1 C8 1_555 1_555
O2 C2 1_555 1_555
O3 C1 1_555 1_555
O4 C10 1_555 1_555
O5 C31 1_555 1_555
O6 C13 1_555 1_555
O7 C20 1_555 1_555
O8 C16 1_555 1_555
C1 C3 1_555 1_555
C2 C6 1_555 1_555
C3 C7 1_555 1_555
C4 O2 1_555 1_555
H1 C4 1_555 1_555
H2 C4 1_555 1_555
C5 C1 1_555 1_555
C6 C15 1_555 1_555
C7 H3 1_555 1_555
C8 C9 1_555 1_555
C9 C2 1_555 1_555
C10 O1 1_555 1_555
H4 C10 1_555 1_555
H5 C10 1_555 1_555
C11 H6 1_555 1_555
H7 C11 1_555 1_555
C12 C22 1_555 1_555
C13 C5 1_555 1_555
C14 O4 1_555 1_555
C15 H8 1_555 1_555
C16 C44 1_555 1_555
C17 H9 1_555 1_555
C18 C30 1_555 1_555
C19 C7 1_555 1_555
C20 C28 1_555 1_555
C21 C11 1_555 1_555
H10 C21 1_555 1_555
H11 C21 1_555 1_555
C22 C32 1_555 1_555
C23 H12 1_555 1_555
C24 C28 1_555 1_555
C25 C29 1_555 1_555
C26 C38 1_555 1_555
C27 C23 1_555 1_555
C28 C31 1_555 1_555
C29 C74 1_555 1_555
C30 C9 1_555 1_555
C31 C27 1_555 1_555
C32 C48 1_555 1_555
C33 H13 1_555 1_555
C34 C40 1_555 1_555
C35 C14 1_555 1_555
C36 C5 1_555 1_555
C37 C8 1_555 1_555
C38 C51 1_555 1_555
C39 C26 1_555 1_555
C40 H14 1_555 1_555
H15 C40 1_555 1_555
H16 C40 1_555 1_555
O9 H17 1_555 1_555
C41 C47 1_555 1_555
C42 O9 1_555 1_555
C43 C19 1_555 1_555
H18 C43 1_555 1_555
C44 C14 1_555 1_555
C45 C12 1_555 1_555
C46 O7 1_555 1_555
H19 C46 1_555 1_555
H20 C46 1_555 1_555
O10 H21 1_555 1_555
C47 C85 1_555 1_555
C48 C78 1_555 1_555
C49 C25 1_555 1_555
C50 C73 1_555 1_555
C51 C18 1_555 1_555
C52 C20 1_555 1_555
C53 O5 1_555 1_555
H22 C53 1_555 1_555
H23 C53 1_555 1_555
C54 C42 1_555 1_555
C55 H24 1_555 1_555
H25 C55 1_555 1_555
C56 H26 1_555 1_555
H27 C56 1_555 1_555
C57 C16 1_555 1_555
C58 C24 1_555 1_555
C59 C73 1_555 1_555
C60 C32 1_555 1_555
C61 C3 1_555 1_555
H28 C61 1_555 1_555
C62 C33 1_555 1_555
H29 C62 1_555 1_555
H30 C62 1_555 1_555
C63 C43 1_555 1_555
H31 C63 1_555 1_555
H32 C63 1_555 1_555
C64 C52 1_555 1_555
H33 C64 1_555 1_555
C65 C34 1_555 1_555
H34 C65 1_555 1_555
H35 C65 1_555 1_555
H36 C65 1_555 1_555
C66 C12 1_555 1_555
C67 C68 1_555 1_555
C68 C26 1_555 1_555
C69 C44 1_555 1_555
C70 C86 1_555 1_555
C71 C11 1_555 1_555
H37 C71 1_555 1_555
H38 C71 1_555 1_555
C72 C39 1_555 1_555
H39 C72 1_555 1_555
H40 C72 1_555 1_555
H41 C72 1_555 1_555
C74 C59 1_555 1_555
C75 C34 1_555 1_555
H42 C75 1_555 1_555
H43 C75 1_555 1_555
H44 C75 1_555 1_555
C76 C39 1_555 1_555
H45 C76 1_555 1_555
H46 C76 1_555 1_555
H47 C76 1_555 1_555
C77 C41 1_555 1_555
C78 H48 1_555 1_555
H49 C78 1_555 1_555
H50 C78 1_555 1_555
C79 C62 1_555 1_555
H51 C79 1_555 1_555
H52 C79 1_555 1_555
C80 C39 1_555 1_555
H53 C80 1_555 1_555
H54 C80 1_555 1_555
H55 C80 1_555 1_555
C81 C41 1_555 1_555
C82 H56 1_555 1_555
H57 C82 1_555 1_555
H58 C82 1_555 1_555
C83 O10 1_555 1_555
C84 C66 1_555 1_555
H59 C84 1_555 1_555
H60 C84 1_555 1_555
H61 C84 1_555 1_555
C85 H62 1_555 1_555
H63 C85 1_555 1_555
H64 C85 1_555 1_555
C86 C77 1_555 1_555
O11 C50 1_555 1_555
H65 O11 1_555 1_555
C87 C79 1_555 1_555
H66 C87 1_555 1_555
H67 C87 1_555 1_555
C88 C56 1_555 1_555
H68 C88 1_555 1_555
H69 C88 1_555 1_555
C89 C66 1_555 1_555
H70 C89 1_555 1_555
H71 C89 1_555 1_555
H72 C89 1_555 1_555
C90 C55 1_555 1_555
H73 C90 1_555 1_555
H74 C90 1_555 1_555
C91 C48 1_555 1_555
H75 C91 1_555 1_555
H76 C91 1_555 1_555
H77 C91 1_555 1_555
C92 C74 1_555 1_555
C93 C49 1_555 1_555
H78 C93 1_555 1_555
H79 C93 1_555 1_555
H80 C93 1_555 1_555
C94 C48 1_555 1_555
H81 C94 1_555 1_555
H82 C94 1_555 1_555
H83 C94 1_555 1_555
C95 C47 1_555 1_555
H84 C95 1_555 1_555
H85 C95 1_555 1_555
H86 C95 1_555 1_555
C96 C47 1_555 1_555
H87 C96 1_555 1_555
H88 C96 1_555 1_555
H89 C96 1_555 1_555
C97 C49 1_555 1_555
H90 C97 1_555 1_555
H91 C97 1_555 1_555
H92 C97 1_555 1_555
C98 C49 1_555 1_555
H93 C98 1_555 1_555
H94 C98 1_555 1_555
H95 C98 1_555 1_555
C99 C66 1_555 1_555
H96 C99 1_555 1_555
H97 C99 1_555 1_555
H98 C99 1_555 1_555
C100 C71 1_555 1_555
H99 C100 1_555 1_555
H100 C100 1_555 1_555
C101 C86 1_555 1_555
O12 H101 1_555 1_555
C102 C83 1_555 1_555
H102 C102 1_555 1_555
H103 C102 1_555 1_555
H104 C102 1_555 1_555
C103 C88 1_555 1_555
H105 C103 1_555 1_555
H106 C103 1_555 1_555
C104 C87 1_555 1_555
H107 C104 1_555 1_555
H108 C104 1_555 1_555
C105 C103 1_555 1_555
H109 C105 1_555 1_555
H110 C105 1_555 1_555
C106 C92 1_555 1_555
H111 C106 1_555 1_555
H112 C106 1_555 1_555
H113 C106 1_555 1_555
C107 H114 1_555 1_555
H115 C107 1_555 1_555
C108 C90 1_555 1_555
H116 C108 1_555 1_555
H117 C108 1_555 1_555
C109 C83 1_555 1_555
H118 C109 1_555 1_555
H119 C109 1_555 1_555
H120 C109 1_555 1_555
C110 H121 1_555 1_555
H122 C110 1_555 1_555
H123 C110 1_555 1_555
C111 C104 1_555 1_555
H124 C111 1_555 1_555
H125 C111 1_555 1_555
C112 C101 1_555 1_555
C113 C107 1_555 1_555
H126 C113 1_555 1_555
H127 C113 1_555 1_555
C114 C92 1_555 1_555
H128 C114 1_555 1_555
H129 C114 1_555 1_555
H130 C114 1_555 1_555
C115 C42 1_555 1_555
H131 C115 1_555 1_555
H132 C115 1_555 1_555
H133 C115 1_555 1_555
C116 C50 1_555 1_555
H134 C116 1_555 1_555
H135 C116 1_555 1_555
H136 C116 1_555 1_555
C117 C50 1_555 1_555
H137 C117 1_555 1_555
H138 C117 1_555 1_555
H139 C117 1_555 1_555
C118 O12 1_555 1_555
C119 C113 1_555 1_555
H140 C119 1_555 1_555
H141 C119 1_555 1_555
H142 C119 1_555 1_555
C120 C118 1_555 1_555
H143 C120 1_555 1_555
H144 C120 1_555 1_555
H145 C120 1_555 1_555
C121 C100 1_555 1_555
H146 C121 1_555 1_555
H147 C121 1_555 1_555
C122 C70 1_555 1_555
H148 C122 1_555 1_555
H149 C122 1_555 1_555
H150 C122 1_555 1_555
C123 C42 1_555 1_555
H151 C123 1_555 1_555
H152 C123 1_555 1_555
H153 C123 1_555 1_555
C124 C70 1_555 1_555
H154 C124 1_555 1_555
H155 C124 1_555 1_555
H156 C124 1_555 1_555
C125 C70 1_555 1_555
H157 C125 1_555 1_555
H158 C125 1_555 1_555
H159 C125 1_555 1_555
C126 C121 1_555 1_555
H160 C126 1_555 1_555
H161 C126 1_555 1_555
H162 C126 1_555 1_555
C127 C105 1_555 1_555
H163 C127 1_555 1_555
H164 C127 1_555 1_555
H165 C127 1_555 1_555
C128 C118 1_555 1_555
H166 C128 1_555 1_555
H167 C128 1_555 1_555
H168 C128 1_555 1_555
O13 C132 1_555 1_555
O14 C142 1_555 1_555
O15 C146 1_555 1_555
O16 C137 1_555 1_555
O17 C138 1_555 1_555
O18 C166 1_555 1_555
O19 C136 1_555 1_555
O20 C151 1_555 1_555
C131 C136 1_555 1_555
C132 C135 1_555 1_555
C133 C136 1_555 1_555
C134 C151 1_555 1_555
C135 C155 1_555 1_555
C137 C131 1_555 1_555
C138 C139 1_555 1_555
C139 C140 1_555 1_555
C140 H176 1_555 1_555
C141 C149 1_555 1_555
C142 O16 1_555 1_555
H177 C142 1_555 1_555
H178 C142 1_555 1_555
C143 C145 1_555 1_555
C144 C174 1_555 1_555
C145 C132 1_555 1_555
C146 C153 1_555 1_555
C147 C159 1_555 1_555
C148 H179 1_555 1_555
C149 C184 1_555 1_555
C150 C143 1_555 1_555
C151 C153 1_555 1_555
C152 C140 1_555 1_555
H180 C152 1_555 1_555
H181 C152 1_555 1_555
C153 C170 1_555 1_555
C154 C159 1_555 1_555
C155 C139 1_555 1_555
H182 C155 1_555 1_555
C156 C183 1_555 1_555
C157 C150 1_555 1_555
C158 C137 1_555 1_555
C159 C181 1_555 1_555
C160 C131 1_555 1_555
C161 C148 1_555 1_555
C162 C134 1_555 1_555
H183 C162 1_555 1_555
C163 C177 1_555 1_555
C164 C140 1_555 1_555
C165 O13 1_555 1_555
H184 C165 1_555 1_555
H185 C165 1_555 1_555
C166 C169 1_555 1_555
C167 C133 1_555 1_555
H186 C167 1_555 1_555
C168 C133 1_555 1_555
H187 C168 1_555 1_555
C169 C148 1_555 1_555
C170 C174 1_555 1_555
C171 C158 1_555 1_555
H188 C171 1_555 1_555
C172 C134 1_555 1_555
H189 C172 1_555 1_555
C173 C168 1_555 1_555
H190 C173 1_555 1_555
H191 C173 1_555 1_555
C175 O14 1_555 1_555
C176 O15 1_555 1_555
H192 C176 1_555 1_555
H193 C176 1_555 1_555
C177 C218 1_555 1_555
C178 C163 1_555 1_555
C179 O18 1_555 1_555
H194 C179 1_555 1_555
H195 C179 1_555 1_555
C180 C141 1_555 1_555
C181 C163 1_555 1_555
O21 H196 1_555 1_555
C182 C144 1_555 1_555
C183 C157 1_555 1_555
C184 C193 1_555 1_555
C185 H197 1_555 1_555
H198 C185 1_555 1_555
H199 C185 1_555 1_555
O22 H200 1_555 1_555
C186 C157 1_555 1_555
C187 C144 1_555 1_555
C188 H201 1_555 1_555
H202 C188 1_555 1_555
C189 C185 1_555 1_555
C190 H203 1_555 1_555
H204 C190 1_555 1_555
C191 C182 1_555 1_555
C192 C171 1_555 1_555
H205 C192 1_555 1_555
H206 C192 1_555 1_555
C193 C197 1_555 1_555
C194 C147 1_555 1_555
H207 C194 1_555 1_555
H208 C194 1_555 1_555
H209 C194 1_555 1_555
C195 C162 1_555 1_555
H210 C195 1_555 1_555
H211 C195 1_555 1_555
C196 C156 1_555 1_555
C197 C213 1_555 1_555
C198 C187 1_555 1_555
H212 C198 1_555 1_555
H213 C198 1_555 1_555
H214 C198 1_555 1_555
C199 C147 1_555 1_555
H215 C199 1_555 1_555
H216 C199 1_555 1_555
H217 C199 1_555 1_555
C200 C188 1_555 1_555
H218 C200 1_555 1_555
H219 C200 1_555 1_555
C201 C187 1_555 1_555
H220 C201 1_555 1_555
H221 C201 1_555 1_555
H222 C201 1_555 1_555
C202 C187 1_555 1_555
H223 C202 1_555 1_555
H224 C202 1_555 1_555
H225 C202 1_555 1_555
C203 C195 1_555 1_555
H226 C203 1_555 1_555
H227 C203 1_555 1_555
C204 C189 1_555 1_555
H228 C204 1_555 1_555
H229 C204 1_555 1_555
H230 C204 1_555 1_555
C205 H231 1_555 1_555
H232 C205 1_555 1_555
H233 C205 1_555 1_555
C206 C173 1_555 1_555
H234 C206 1_555 1_555
H235 C206 1_555 1_555
C207 C186 1_555 1_555
H236 C207 1_555 1_555
H237 C207 1_555 1_555
H238 C207 1_555 1_555
C208 C186 1_555 1_555
H239 C208 1_555 1_555
H240 C208 1_555 1_555
H241 C208 1_555 1_555
C209 C191 1_555 1_555
C210 C184 1_555 1_555
C211 C189 1_555 1_555
H242 C211 1_555 1_555
H243 C211 1_555 1_555
H244 C211 1_555 1_555
C212 C178 1_555 1_555
H245 C212 1_555 1_555
H246 C212 1_555 1_555
H247 C212 1_555 1_555
C213 C251 1_555 1_555
C214 C156 1_555 1_555
C215 C178 1_555 1_555
H248 C215 1_555 1_555
H249 C215 1_555 1_555
H250 C215 1_555 1_555
C216 C152 1_555 1_555
H251 C216 1_555 1_555
H252 C216 1_555 1_555
C217 C210 1_555 1_555
H253 C217 1_555 1_555
H254 C217 1_555 1_555
H255 C217 1_555 1_555
C218 C223 1_555 1_555
C219 C209 1_555 1_555
C220 C214 1_555 1_555
C221 H256 1_555 1_555
H257 C221 1_555 1_555
C222 C186 1_555 1_555
H258 C222 1_555 1_555
H259 C222 1_555 1_555
H260 C222 1_555 1_555
C223 O21 1_555 1_555
C224 O24 1_555 1_555
C225 C219 1_555 1_555
O23 C225 1_555 1_555
H261 O23 1_555 1_555
C226 C196 1_555 1_555
H262 C226 1_555 1_555
H263 C226 1_555 1_555
H264 C226 1_555 1_555
C227 C197 1_555 1_555
C228 C178 1_555 1_555
H265 C228 1_555 1_555
H266 C228 1_555 1_555
H267 C228 1_555 1_555
C229 C196 1_555 1_555
H268 C229 1_555 1_555
H269 C229 1_555 1_555
H270 C229 1_555 1_555
C230 C216 1_555 1_555
H271 C230 1_555 1_555
H272 C230 1_555 1_555
C231 C147 1_555 1_555
H273 C231 1_555 1_555
H274 C231 1_555 1_555
H275 C231 1_555 1_555
C232 C221 1_555 1_555
H276 C232 1_555 1_555
H277 C232 1_555 1_555
C233 O22 1_555 1_555
C234 C210 1_555 1_555
H278 C234 1_555 1_555
H279 C234 1_555 1_555
H280 C234 1_555 1_555
C235 H281 1_555 1_555
H282 C235 1_555 1_555
C236 C190 1_555 1_555
H283 C236 1_555 1_555
H284 C236 1_555 1_555
O24 H285 1_555 1_555
C237 C200 1_555 1_555
H286 C237 1_555 1_555
H287 C237 1_555 1_555
C238 C224 1_555 1_555
H288 C238 1_555 1_555
H289 C238 1_555 1_555
H290 C238 1_555 1_555
C239 C224 1_555 1_555
C240 C203 1_555 1_555
H291 C240 1_555 1_555
H292 C240 1_555 1_555
C241 C224 1_555 1_555
H293 C241 1_555 1_555
H294 C241 1_555 1_555
H295 C241 1_555 1_555
C242 C223 1_555 1_555
H296 C242 1_555 1_555
H297 C242 1_555 1_555
H298 C242 1_555 1_555
C243 C235 1_555 1_555
H299 C243 1_555 1_555
H300 C243 1_555 1_555
C244 C196 1_555 1_555
H301 C244 1_555 1_555
H302 C244 1_555 1_555
H303 C244 1_555 1_555
C245 C223 1_555 1_555
H304 C245 1_555 1_555
H305 C245 1_555 1_555
H306 C245 1_555 1_555
C246 C221 1_555 1_555
H307 C246 1_555 1_555
H308 C246 1_555 1_555
H309 C246 1_555 1_555
C247 C237 1_555 1_555
H310 C247 1_555 1_555
H311 C247 1_555 1_555
C248 C233 1_555 1_555
H312 C248 1_555 1_555
H313 C248 1_555 1_555
H314 C248 1_555 1_555
C249 C235 1_555 1_555
H315 C249 1_555 1_555
H316 C249 1_555 1_555
H317 C249 1_555 1_555
C250 C225 1_555 1_555
H318 C250 1_555 1_555
H319 C250 1_555 1_555
H320 C250 1_555 1_555
C251 H321 1_555 1_555
H322 C251 1_555 1_555
H323 C251 1_555 1_555
C252 C213 1_555 1_555
H324 C252 1_555 1_555
H325 C252 1_555 1_555
H326 C252 1_555 1_555
C253 C213 1_555 1_555
H327 C253 1_555 1_555
H328 C253 1_555 1_555
H329 C253 1_555 1_555
C254 C233 1_555 1_555
H330 C254 1_555 1_555
H331 C254 1_555 1_555
H332 C254 1_555 1_555
C255 C225 1_555 1_555
H333 C255 1_555 1_555
H334 C255 1_555 1_555
H335 C255 1_555 1_555
C256 C247 1_555 1_555
H336 C256 1_555 1_555
H337 C256 1_555 1_555
H338 C256 1_555 1_555
C257 C236 1_555 1_555
H339 C257 1_555 1_555
H340 C257 1_555 1_555
C258 C257 1_555 1_555
H341 C258 1_555 1_555
H342 C258 1_555 1_555
H343 C258 1_555 1_555
N1 C265 1_555 1_555
C265 C266 1_555 1_555
C266 H366 1_555 1_555
H367 C266 1_555 1_555
H368 C266 1_555 1_555
N2 C267 1_555 1_555
C267 C268 1_555 1_555
C268 H369 1_555 1_555
H370 C268 1_555 1_555
H371 C268 1_555 1_555
N3 C269 1_555 1_555
C269 C270 1_555 1_555
C270 H372 1_555 1_555
H373 C270 1_555 1_555
H374 C270 1_555 1_555
C271 H375 1_555 1_555
H376 C271 1_555 1_555
H377 C271 1_555 1_555
C272 C271 1_555 1_555
N4 C272 1_555 1_555
O25 H378 1_555 1_555
H379 O25 1_555 1_555
O26 H380 1_555 1_555
H381 O26 1_555 1_555
C273 N5 1_555 1_555
C274 C273 1_555 1_555
H382 C274 1_555 1_555
H383 C274 1_555 1_555
H384 C274 1_555 1_555
N6 C275 1_555 1_555
C275 C276 1_555 1_555
C276 H385 1_555 1_555
H386 C276 1_555 1_555
H387 C276 1_555 1_555
O3 C4 1_555 1_555
O6 C53 1_555 1_555
O8 C46 1_555 1_555
C6 C61 1_555 1_555
C13 C19 1_555 1_555
C15 C37 1_555 1_555
C17 C35 1_555 1_555
C17 C57 1_555 1_555
C21 C61 1_555 1_555
C23 C52 1_555 1_555
C25 C58 1_555 1_555
C27 C43 1_555 1_555
C33 C35 1_555 1_555
C33 C37 1_555 1_555
C34 C51 1_555 1_555
C36 C45 1_555 1_555
C54 C60 1_555 1_555
C55 C64 1_555 1_555
C56 C63 1_555 1_555
C57 C64 1_555 1_555
C67 C83 1_555 1_555
C69 C81 1_555 1_555
C82 C92 1_555 1_555
C107 C108 1_555 1_555
C110 C111 1_555 1_555
C112 C118 1_555 1_555
O17 C176 1_555 1_555
O19 C165 1_555 1_555
O20 C179 1_555 1_555
C135 C168 1_555 1_555
C138 C145 1_555 1_555
C146 C164 1_555 1_555
C154 C160 1_555 1_555
C158 C167 1_555 1_555
C161 C171 1_555 1_555
C161 C175 1_555 1_555
C162 C169 1_555 1_555
C164 C172 1_555 1_555
C166 C180 1_555 1_555
C175 C180 1_555 1_555
C188 C192 1_555 1_555
C189 C191 1_555 1_555
C190 C206 1_555 1_555
C205 C210 1_555 1_555
C220 C233 1_555 1_555
C227 C239 1_555 1_555
C230 C232 1_555 1_555
C240 C243 1_555 1_555

#END
