
#######################################################################
#
#                 Cambridge Crystallographic Data Centre
#                                CCDC 
#
#######################################################################
#
# If this CIF has been generated from an entry in the Cambridge 
# Structural Database, then it will include bibliographic, chemical, 
# crystal, experimental, refinement or atomic coordinate data resulting 
# from the CCDC's data processing and validation procedures.
#
#######################################################################

data_YILCII
_chemical_formula_moiety         'C80 H104 O12'
_chemical_name_systematic        
45,46,47,48,49,50,51,52-octabutoxy-3,14,25,36-tetraoxanonacyclo[36.6.2.2^5,12^.2^16,23^.2^27,34^.0^6,11^.0^17,22^.0^28,33^.0^39,44^]dopentaconta-1(45),5(52),6,8,10,12(51),16(50),17,19,21,23(49),27(48),28,30,32,34(47),38(46),39,41,43-icosaene
_symmetry_cell_setting           triclinic
_symmetry_space_group_name_H-M   'P -1'
_symmetry_Int_Tables_number      2
_space_group_name_Hall           '-P 1'
loop_
_symmetry_equiv_pos_site_id
_symmetry_equiv_pos_as_xyz
1 x,y,z
2 -x,-y,-z
_cell_length_a                   14.1631(5)
_cell_length_b                   22.7817(8)
_cell_length_c                   23.1745(8)
_cell_angle_alpha                90.116(3)
_cell_angle_beta                 106.804(3)
_cell_angle_gamma                91.110(3)
_cell_volume                     7156.61
_exptl_crystal_colour            colorless
_exptl_crystal_description       block
_cell_formula_units_Z            4
loop_
_atom_site_label
_atom_site_type_symbol
_atom_site_fract_x
_atom_site_fract_y
_atom_site_fract_z
O1 O 0.6840(3) 0.49084(19) 0.08952(19)
O2 O 0.2054(3) 0.4376(2) 0.1447(2)
O3 O 0.4032(3) 0.2016(2) 0.2738(2)
O4 O 0.8475(3) 0.2681(2) 0.2651(2)
O5 O 0.4810(3) 0.57591(19) 0.08013(19)
O6 O 0.2939(3) 0.5291(2) 0.05638(19)
O7 O 0.1281(3) 0.2929(2) 0.0839(2)
O8 O 0.2120(3) 0.1952(2) 0.1419(2)
O9 O 0.5484(3) 0.0975(2) 0.2184(2)
O10 O 0.7380(4) 0.1223(2) 0.2163(2)
O11 O 0.9571(3) 0.4139(2) 0.3005(2)
O12 O 0.8915(3) 0.5060(2) 0.2260(2)
C1 C 0.6516(4) 0.5121(3) 0.1381(3)
H1 H 0.651632 0.555552 0.137956
H2 H 0.696685 0.499145 0.176951
C2 C 0.5491(4) 0.4883(3) 0.1309(3)
C3 C 0.4689(4) 0.5197(3) 0.0996(3)
C4 C 0.3714(4) 0.4975(3) 0.0902(3)
C5 C 0.3538(4) 0.4436(3) 0.1129(3)
C6 C 0.4355(5) 0.4103(3) 0.1473(3)
C7 C 0.4231(5) 0.3567(3) 0.1746(3)
H3 H 0.358291 0.342804 0.171847
C8 C 0.5012(6) 0.3243(3) 0.2048(4)
H4 H 0.490215 0.288512 0.223107
C9 C 0.5973(5) 0.3431(3) 0.2092(3)
H5 H 0.651546 0.319549 0.229193
C10 C 0.6130(5) 0.3958(3) 0.1846(3)
H6 H 0.678696 0.408570 0.188094
C11 C 0.5333(5) 0.4316(3) 0.1538(3)
C12 C 0.2500(5) 0.4199(3) 0.0991(3)
H7 H 0.210585 0.434469 0.059432
H8 H 0.250297 0.376515 0.096986
C13 C 0.1213(5) 0.4012(3) 0.1438(3)
H9 H 0.083084 0.391962 0.101664
H10 H 0.077857 0.421995 0.163351
C14 C 0.1565(5) 0.3452(3) 0.1772(3)
C15 C 0.1606(4) 0.2944(3) 0.1460(3)
C16 C 0.2061(5) 0.2437(3) 0.1759(3)
C17 C 0.2462(5) 0.2437(3) 0.2373(3)
C18 C 0.2415(5) 0.2953(3) 0.2710(3)
C19 C 0.2839(6) 0.2977(3) 0.3352(3)
H11 H 0.316237 0.264378 0.355734
C20 C 0.2785(7) 0.3473(4) 0.3672(4)
H12 H 0.306189 0.348074 0.409785
C21 C 0.2328(6) 0.3962(4) 0.3379(4)
H13 H 0.228823 0.430427 0.360561
C22 C 0.1930(5) 0.3962(4) 0.2767(4)
H14 H 0.163280 0.430717 0.257297
C23 C 0.1955(5) 0.3452(3) 0.2413(3)
C24 C 0.3014(5) 0.1902(3) 0.2663(3)
H15 H 0.289939 0.182813 0.305844
H16 H 0.278648 0.155147 0.240281
C25 C 0.4607(5) 0.1517(3) 0.2990(3)
H17 H 0.435461 0.116242 0.274173
H18 H 0.457295 0.144518 0.340452
C26 C 0.5655(5) 0.1654(3) 0.2996(3)
C27 C 0.6053(5) 0.1375(3) 0.2597(3)
C28 C 0.7024(5) 0.1516(3) 0.2581(3)
C29 C 0.7601(5) 0.1922(3) 0.2964(3)
C30 C 0.7223(5) 0.2213(3) 0.3399(3)
C31 C 0.7790(5) 0.2632(3) 0.3817(3)
H19 H 0.844578 0.272199 0.381349
C32 C 0.7421(5) 0.2908(3) 0.4220(3)
H20 H 0.781934 0.318191 0.449968
C33 C 0.6441(6) 0.2784(3) 0.4221(3)
H21 H 0.617870 0.298293 0.449956
C34 C 0.5863(5) 0.2382(3) 0.3828(3)
H22 H 0.520692 0.230258 0.383737
C35 C 0.6240(5) 0.2082(3) 0.3405(3)
C36 C 0.8589(5) 0.2113(3) 0.2905(3)
H23 H 0.908804 0.212274 0.330515
H24 H 0.880627 0.183700 0.264065
C37 C 0.9365(5) 0.2946(3) 0.2588(3)
H25 H 0.972685 0.266221 0.241186
H26 H 0.979815 0.307823 0.298513
C38 C 0.9059(4) 0.3457(3) 0.2179(3)
C39 C 0.9158(4) 0.4018(3) 0.2394(3)
C40 C 0.8818(4) 0.4504(3) 0.2010(3)
C41 C 0.8352(4) 0.4424(3) 0.1406(3)
C42 C 0.8206(4) 0.3838(3) 0.1170(3)
C43 C 0.7690(5) 0.3721(3) 0.0554(3)
H27 H 0.744541 0.403913 0.029189
C44 C 0.7544(5) 0.3166(3) 0.0336(3)
H28 H 0.719075 0.309941 -0.007525
C45 C 0.7903(5) 0.2691(3) 0.0705(3)
H29 H 0.780708 0.230355 0.054347
C46 C 0.8400(5) 0.2783(3) 0.1307(3)
H30 H 0.862888 0.245708 0.155989
C47 C 0.8570(5) 0.3356(3) 0.1547(3)
C48 C 0.7881(5) 0.4929(3) 0.1015(3)
H31 H 0.814578 0.530422 0.122075
H32 H 0.805090 0.491418 0.062994
C49 C 0.4936(5) 0.5793(3) 0.0200(3)
H33 H 0.432646 0.565440 -0.010451
H34 H 0.548598 0.554354 0.017370
C50 C 0.5156(5) 0.6426(3) 0.0088(3)
H35 H 0.463088 0.667079 0.015957
H36 H 0.512982 0.646703 -0.034185
C51 C 0.6149(6) 0.6664(4) 0.0473(4)
H37 H 0.614135 0.709813 0.045370
H38 H 0.622645 0.655403 0.089734
C52 C 0.7031(7) 0.6458(4) 0.0303(5)
H39 H 0.763110 0.663542 0.057700
H40 H 0.706295 0.602979 0.033341
H41 H 0.697762 0.657535 -0.011143
C53 C 0.2513(5) 0.5681(4) 0.0894(3)
H42 H 0.272653 0.609120 0.085216
H43 H 0.271444 0.557960 0.132755
C54 C 0.1392(6) 0.5610(4) 0.0627(4)
H44 H 0.120000 0.573949 0.020241
H45 H 0.120208 0.518981 0.063229
C55 C 0.0851(6) 0.5958(5) 0.0971(4)
H46 H 0.101102 0.637980 0.094144
H47 H 0.108714 0.584902 0.140162
C56 C -0.0255(7) 0.5870(6) 0.0754(6)
H48 H -0.056121 0.611047 0.099907
H49 H -0.049935 0.598647 0.033114
H50 H -0.042314 0.545505 0.079187
C57 C 0.0342(6) 0.2653(5) 0.0598(4)
H51 H -0.015089 0.284593 0.075748
H52 H 0.037150 0.223466 0.071660
C58 C 0.0047(7) 0.2698(6) -0.0074(5)
H53 H 0.004300 0.311830 -0.018125
H54 H -0.063662 0.254207 -0.023498
C59 C 0.0691(6) 0.2380(4) -0.0388(4)
H55 H 0.138990 0.248780 -0.018744
H56 H 0.053139 0.251588 -0.081048
C60 C 0.0571(9) 0.1717(5) -0.0388(5)
H57 H 0.100658 0.154030 -0.059777
H58 H 0.074395 0.157737 0.002799
H59 H -0.011548 0.160548 -0.059572
C61 C 0.2944(5) 0.1989(4) 0.1162(4)
H60 H 0.354800 0.213408 0.146784
H61 H 0.279417 0.226004 0.081558
C62 C 0.3084(9) 0.1380(6) 0.0962(6)
H62 H 0.246918 0.125523 0.065409
H63 H 0.316292 0.111739 0.131220
C63 C 0.3957(15) 0.1274(13) 0.0699(9)
H64 H 0.456957 0.147134 0.094680
H65 H 0.407469 0.085003 0.067003
C64 C 0.3592(15) 0.1553(12) 0.0068(9)
H66 H 0.409575 0.151101 -0.014320
H67 H 0.297966 0.135480 -0.016435
H68 H 0.347043 0.197096 0.011012
C65 C 0.5660(5) 0.0376(3) 0.2333(3)
H69 H 0.558159 0.029816 0.273733
H70 H 0.634058 0.027714 0.234023
C66 C 0.4924(6) 0.0005(3) 0.1863(3)
H71 H 0.425036 0.012184 0.185379
H72 H 0.501116 0.009350 0.146320
C67 C 0.5006(6) -0.0650(4) 0.1963(4)
H73 H 0.445657 -0.085146 0.165896
H74 H 0.493384 -0.073967 0.236575
C68 C 0.5977(8) -0.0895(5) 0.1921(6)
H75 H 0.598242 -0.131908 0.198965
H76 H 0.604782 -0.081710 0.151983
H77 H 0.652554 -0.070521 0.222730
C69 C 0.6953(6) 0.1416(4) 0.1549(3)
H78 H 0.739433 0.171338 0.144537
H79 H 0.631010 0.159894 0.151177
C70 C 0.6808(7) 0.0900(4) 0.1121(4)
H80 H 0.743750 0.068996 0.119636
H81 H 0.631212 0.062424 0.119984
C71 C 0.6474(8) 0.1083(5) 0.0472(4)
H82 H 0.592786 0.136149 0.041943
H83 H 0.702580 0.129469 0.037564
C72 C 0.6138(10) 0.0597(7) 0.0039(5)
H84 H 0.593396 0.075262 -0.037166
H85 H 0.667838 0.032340 0.007758
H86 H 0.557847 0.039032 0.012145
C73 C 0.8814(5) 0.4204(3) 0.3311(3)
H87 H 0.845560 0.382533 0.330577
H88 H 0.833330 0.449986 0.310274
C74 C 0.9315(6) 0.4398(4) 0.3959(4)
H89 H 0.968927 0.476840 0.395105
H90 H 0.879822 0.448443 0.415524
C75 C 1.0001(6) 0.3964(4) 0.4334(4)
H91 H 1.048910 0.385059 0.412500
H92 H 0.962082 0.360696 0.437945
C76 C 1.0537(6) 0.4206(4) 0.4949(4)
H93 H 1.097776 0.390865 0.517978
H94 H 1.092540 0.455589 0.490671
H95 H 1.005732 0.431232 0.516111
C77 C 0.9885(5) 0.5315(3) 0.2364(3)
H96 H 1.005558 0.533882 0.197953
H97 H 1.037516 0.506581 0.264396
C78 C 0.9912(5) 0.5917(3) 0.2630(3)
H98 H 0.939788 0.615532 0.235496
H99 H 1.056015 0.610625 0.266158
C79 C 0.9747(5) 0.5913(3) 0.3246(3)
H100 H 0.904038 0.583084 0.320097
H101 H 1.013137 0.559367 0.348795
C80 C 1.0048(5) 0.6490(4) 0.3579(4)
H102 H 0.992900 0.646719 0.397467
H103 H 1.075118 0.656945 0.363290
H104 H 0.966027 0.680660 0.334594
O13 O 0.3191(3) 0.99692(18) 0.40496(19)
O14 O 0.8051(3) 0.9188(2) 0.3715(2)
O15 O 0.6168(3) 0.6799(2) 0.2435(2)
O16 O 0.1696(3) 0.77379(19) 0.2292(2)
O17 O 0.7270(3) 1.02815(18) 0.44442(19)
O18 O 0.5415(3) 1.07585(18) 0.42137(19)
O19 O 0.1465(3) 1.01548(19) 0.2587(2)
O20 O 0.1041(3) 0.9203(2) 0.1816(2)
O21 O 0.2448(3) 0.6240(2) 0.2733(2)
O22 O 0.4280(3) 0.5857(2) 0.2815(2)
O23 O 0.7771(3) 0.6771(2) 0.3877(2)
O24 O 0.8432(3) 0.7814(2) 0.4425(2)
C86 C 0.3662(4) 1.0140(3) 0.3604(3)
H121 H 0.373633 1.057308 0.360430
H122 H 0.324570 1.001363 0.320016
C87 C 0.4658(4) 0.9868(3) 0.3732(3)
C88 C 0.5492(4) 1.0188(3) 0.4036(3)
C89 C 0.6447(4) 0.9950(3) 0.4143(3)
C90 C 0.6563(4) 0.9380(3) 0.3984(3)
C91 C 0.5717(4) 0.9038(3) 0.3660(3)
C92 C 0.5789(5) 0.8460(3) 0.3454(3)
H123 H 0.642184 0.829318 0.352992
C93 C 0.4983(5) 0.8138(3) 0.3152(3)
H124 H 0.506047 0.775964 0.300060
C94 C 0.4030(5) 0.8362(3) 0.3062(3)
H125 H 0.346239 0.812671 0.287368
C95 C 0.3933(5) 0.8920(3) 0.3250(3)
H126 H 0.328915 0.907310 0.317428
C96 C 0.4756(4) 0.9282(3) 0.3553(3)
C97 C 0.7565(5) 0.9116(3) 0.4175(3)
H127 H 0.796668 0.930713 0.455229
H128 H 0.750008 0.869240 0.425549
C98 C 0.8889(4) 0.8811(3) 0.3809(3)
H129 H 0.919339 0.875428 0.424595
H130 H 0.938847 0.899824 0.364112
C99 C 0.8569(4) 0.8225(3) 0.3505(3)
C100 C 0.8358(4) 0.7755(3) 0.3821(3)
C101 C 0.7948(4) 0.7221(3) 0.3530(3)
C102 C 0.7744(5) 0.7166(3) 0.2916(3)
C103 C 0.7965(5) 0.7633(3) 0.2572(3)
C104 C 0.7759(5) 0.7600(4) 0.1933(3)
H131 H 0.746030 0.725154 0.172809
C105 C 0.7977(6) 0.8050(4) 0.1608(4)
H132 H 0.785168 0.800800 0.118466
C106 C 0.8384(6) 0.8578(4) 0.1892(4)
H133 H 0.853284 0.889269 0.166265
C107 C 0.8570(5) 0.8638(3) 0.2511(4)
H134 H 0.882784 0.900048 0.270111
C108 C 0.8381(4) 0.8171(3) 0.2862(3)
C109 C 0.7160(5) 0.6629(3) 0.2616(3)
H135 H 0.737152 0.650664 0.226312
H136 H 0.725345 0.629903 0.290253
C110 C 0.5489(5) 0.6346(3) 0.2143(3)
H137 H 0.561270 0.598117 0.238233
H138 H 0.556060 0.626209 0.173842
C111 C 0.4476(4) 0.6559(3) 0.2090(3)
C112 C 0.3916(4) 0.6308(3) 0.2418(3)
C113 C 0.2963(4) 0.6517(3) 0.2382(3)
C114 C 0.2554(4) 0.6964(3) 0.2006(3)
C115 C 0.3115(5) 0.7236(3) 0.1649(3)
C116 C 0.2744(5) 0.7709(3) 0.1260(3)
H139 H 0.210199 0.784653 0.122690
C117 C 0.3296(5) 0.7973(3) 0.0930(3)
H140 H 0.303191 0.828615 0.066717
C118 C 0.4246(5) 0.7780(3) 0.0982(3)
H141 H 0.462953 0.796726 0.075815
C119 C 0.4626(5) 0.7326(3) 0.1350(3)
H142 H 0.527229 0.719872 0.137693
C120 C 0.4081(5) 0.7037(3) 0.1695(3)
C121 C 0.1550(5) 0.7189(3) 0.1982(3)
H143 H 0.115051 0.723957 0.155787
H144 H 0.120018 0.690774 0.217695
C122 C 0.0807(4) 0.8041(3) 0.2214(3)
H145 H 0.030605 0.778112 0.231105
H146 H 0.054660 0.817115 0.179176
C123 C 0.1039(4) 0.8564(3) 0.2636(3)
C124 C 0.1138(4) 0.9113(3) 0.2425(3)
C125 C 0.1397(4) 0.9607(3) 0.2824(3)
C126 C 0.1671(4) 0.9532(3) 0.3440(3)
C127 C 0.1626(4) 0.8956(3) 0.3669(3)
C128 C 0.1940(5) 0.8849(3) 0.4303(3)
H147 H 0.218577 0.916644 0.457453
C129 C 0.1893(5) 0.8296(3) 0.4523(3)
H148 H 0.212062 0.823120 0.494546
C130 C 0.1510(5) 0.7823(3) 0.4131(3)
H149 H 0.145988 0.744235 0.428806
C131 C 0.1206(5) 0.7912(3) 0.3516(3)
H150 H 0.095078 0.759017 0.325140
C132 C 0.1271(4) 0.8477(3) 0.3274(3)
C133 C 0.2154(4) 1.0033(3) 0.3855(3)
H151 H 0.199174 1.040987 0.364165
H152 H 0.189639 1.003830 0.420959
C134 C 0.7530(5) 1.0727(3) 0.4071(3)
H153 H 0.714125 1.108276 0.407453
H154 H 0.736951 1.058159 0.364981
C135 C 0.8624(5) 1.0880(3) 0.4302(4)
H155 H 0.879208 1.094592 0.474299
H156 H 0.874298 1.125552 0.411860
C136 C 0.9328(6) 1.0429(4) 0.4183(4)
H157 H 1.000786 1.053071 0.443033
H158 H 0.915193 1.003758 0.431037
C137 C 0.9303(8) 1.0399(5) 0.3523(4)
H159 H 0.976725 1.010430 0.347056
H160 H 0.863553 1.029018 0.327682
H161 H 0.949162 1.078341 0.339680
C138 C 0.5388(5) 1.0785(3) 0.4840(3)
H162 H 0.601266 1.064016 0.511257
H163 H 0.483839 1.053481 0.489094
C139 C 0.5244(5) 1.1411(3) 0.4995(3)
H164 H 0.570137 1.166608 0.484975
H165 H 0.542629 1.145316 0.543865
C140 C 0.4208(5) 1.1627(3) 0.4731(3)
H166 H 0.374498 1.136890 0.486736
H167 H 0.402977 1.159979 0.428636
C141 C 0.4096(6) 1.2252(4) 0.4913(4)
H168 H 0.341329 1.237188 0.473244
H169 H 0.425770 1.227982 0.535342
H170 H 0.454251 1.251071 0.477241
C142 C 0.0551(5) 1.0396(3) 0.2237(3)
H171 H 0.006641 1.038987 0.247151
H172 H 0.027431 1.016246 0.186377
C143 C 0.0759(5) 1.1015(3) 0.2086(3)
H173 H 0.126896 1.101121 0.187031
H174 H 0.103384 1.123908 0.246555
C144 C -0.0135(6) 1.1333(3) 0.1700(3)
H175 H -0.067457 1.129772 0.189153
H176 H 0.003685 1.175467 0.168835
C145 C -0.0504(6) 1.1099(4) 0.1062(3)
H177 H -0.107836 1.132167 0.083858
H178 H 0.001972 1.114105 0.086530
H179 H -0.069236 1.068368 0.106867
C146 C 0.2004(5) 0.9244(3) 0.1711(3)
H180 H 0.234752 0.886773 0.181403
H181 H 0.240916 0.955595 0.197175
C147 C 0.1879(6) 0.9384(3) 0.1061(3)
H182 H 0.253675 0.939651 0.099098
H183 H 0.148604 0.906478 0.080649
C148 C 0.1386(7) 0.9954(4) 0.0866(4)
H184 H 0.174933 1.027059 0.113839
H185 H 0.070733 0.993163 0.090412
C149 C 0.1337(8) 1.0109(4) 0.0213(4)
H186 H 0.100780 1.048534 0.010829
H187 H 0.200717 1.014073 0.017471
H188 H 0.096494 0.980169 -0.005963
C150 C 0.2781(5) 0.6417(3) 0.3358(3)
H189 H 0.243285 0.677212 0.342280
H190 H 0.349845 0.650805 0.347719
C151 C 0.2564(5) 0.5914(3) 0.3728(3)
H191 H 0.298823 0.558026 0.370299
H192 H 0.186828 0.578222 0.355663
C152 C 0.2739(6) 0.6083(4) 0.4391(4)
H193 H 0.345313 0.615586 0.458118
H194 H 0.239213 0.645108 0.441617
C153 C 0.2373(7) 0.5603(4) 0.4735(4)
H195 H 0.249612 0.572477 0.515635
H196 H 0.166371 0.553464 0.455221
H197 H 0.272397 0.523963 0.471711
C154 C 0.3926(5) 0.5281(3) 0.2568(3)
H198 H 0.409188 0.521731 0.218637
H199 H 0.320006 0.525156 0.248246
C155 C 0.4411(6) 0.4820(3) 0.3024(3)
H200 H 0.425046 0.489786 0.340544
H201 H 0.412234 0.443010 0.287258
C156 C 0.5507(6) 0.4794(4) 0.3158(4)
H202 H 0.580959 0.516222 0.336366
H203 H 0.567964 0.476370 0.277499
C157 C 0.5934(8) 0.4269(5) 0.3559(4)
H204 H 0.665209 0.426850 0.363603
H205 H 0.577659 0.430160 0.394266
H206 H 0.564667 0.390319 0.335416
C158 C 0.6798(5) 0.6779(3) 0.3959(3)
H207 H 0.628817 0.674914 0.356404
H208 H 0.670723 0.715001 0.415747
C159 C 0.6700(5) 0.6259(3) 0.4350(3)
H209 H 0.691114 0.589931 0.418566
H210 H 0.714388 0.632401 0.476301
C160 C 0.5653(5) 0.6169(3) 0.4380(4)
H211 H 0.520836 0.611158 0.396599
H212 H 0.544735 0.652581 0.455120
C161 C 0.5547(6) 0.5639(4) 0.4763(4)
H213 H 0.486015 0.559789 0.476921
H214 H 0.573728 0.528302 0.459025
H215 H 0.597626 0.569722 0.517542
C162 C 0.9256(5) 0.7546(3) 0.4844(3)
H216 H 0.987489 0.776457 0.486121
H217 H 0.931912 0.713524 0.472246
C163 C 0.9056(5) 0.7565(3) 0.5456(3)
H218 H 0.843355 0.734517 0.542850
H219 H 0.959486 0.736588 0.575668
C164 C 0.8976(6) 0.8179(3) 0.5671(3)
H220 H 0.848276 0.838902 0.535164
H221 H 0.961962 0.838548 0.573513
C165 C 0.8681(6) 0.8207(4) 0.6249(3)
H222 H 0.864291 0.861878 0.636333
H223 H 0.803598 0.801264 0.618745
H224 H 0.917405 0.800909 0.657135
H105? H 0.258599 0.606816 0.071672
H106? H 0.299941 0.569053 0.129907
C81? C 0.1570(12) 0.5724(14) 0.1029(11)
H107? H 0.149965 0.611737 0.119088
H108? H 0.151235 0.542384 0.132592
C82? C 0.0807(16) 0.5617(14) 0.0435(11)
H109? H 0.098137 0.527389 0.022688
H110? H 0.076260 0.596452 0.017279
C83? C -0.0159(17) 0.5505(16) 0.0567(14)
H111? H -0.067955 0.543325 0.018895
H112? H -0.010467 0.516060 0.082678
H113? H -0.032244 0.584810 0.077293
H114? H 0.245537 0.121086 0.070271
H115? H 0.333754 0.112121 0.131356
C84? C 0.386(2) 0.1457(17) 0.0598(16)
H116? H 0.394821 0.188183 0.053467
H117? H 0.450481 0.131535 0.085353
C85? C 0.364(3) 0.114(2) -0.0026(15)
H118? H 0.417529 0.122516 -0.020366
H119? H 0.357704 0.071837 0.002643
H120? H 0.301807 0.128726 -0.029378
H225? H 0.765255 1.110516 0.429345
H226? H 0.696951 1.077794 0.370362
C166? C 0.8429(19) 1.057(2) 0.3891(17)
H227? H 0.859590 1.087946 0.363543
H228? H 0.832399 1.019274 0.366658
C167? C 0.923(3) 1.052(2) 0.4479(18)
H229? H 0.903337 1.024262 0.475110
H230? H 0.938365 1.090834 0.468242
C168? C 1.013(3) 1.030(2) 0.432(2)
H231? H 1.067826 1.025762 0.468258
H232? H 0.996677 0.991565 0.411299
H233? H 1.031515 1.057776 0.404469
loop_
_geom_bond_atom_site_label_1
_geom_bond_atom_site_label_2
_geom_bond_site_symmetry_1
_geom_bond_site_symmetry_2
O1 C1 1_555 1_555
O2 C12 1_555 1_555
O3 C24 1_555 1_555
O4 C36 1_555 1_555
O5 C3 1_555 1_555
O6 C4 1_555 1_555
O7 C15 1_555 1_555
O8 C16 1_555 1_555
O9 C27 1_555 1_555
O10 C28 1_555 1_555
O11 C39 1_555 1_555
O12 C40 1_555 1_555
C1 H1 1_555 1_555
H2 C1 1_555 1_555
C2 C1 1_555 1_555
C3 C2 1_555 1_555
C4 C3 1_555 1_555
C5 C4 1_555 1_555
C6 C5 1_555 1_555
C7 C6 1_555 1_555
H3 C7 1_555 1_555
C8 C7 1_555 1_555
H4 C8 1_555 1_555
C9 C8 1_555 1_555
H5 C9 1_555 1_555
C10 C9 1_555 1_555
H6 C10 1_555 1_555
C11 C2 1_555 1_555
C12 C5 1_555 1_555
H7 C12 1_555 1_555
H8 C12 1_555 1_555
C13 O2 1_555 1_555
H9 C13 1_555 1_555
H10 C13 1_555 1_555
C14 C13 1_555 1_555
C15 C14 1_555 1_555
C16 C15 1_555 1_555
C17 C16 1_555 1_555
C18 C17 1_555 1_555
C19 C18 1_555 1_555
H11 C19 1_555 1_555
C20 C19 1_555 1_555
H12 C20 1_555 1_555
C21 C20 1_555 1_555
H13 C21 1_555 1_555
C22 C21 1_555 1_555
H14 C22 1_555 1_555
C23 C14 1_555 1_555
C24 C17 1_555 1_555
H15 C24 1_555 1_555
H16 C24 1_555 1_555
C25 O3 1_555 1_555
H17 C25 1_555 1_555
H18 C25 1_555 1_555
C26 C25 1_555 1_555
C27 C26 1_555 1_555
C28 C27 1_555 1_555
C29 C28 1_555 1_555
C30 C29 1_555 1_555
C31 C30 1_555 1_555
H19 C31 1_555 1_555
C32 C31 1_555 1_555
H20 C32 1_555 1_555
C33 C32 1_555 1_555
H21 C33 1_555 1_555
C34 C33 1_555 1_555
H22 C34 1_555 1_555
C35 C26 1_555 1_555
C36 C29 1_555 1_555
H23 C36 1_555 1_555
H24 C36 1_555 1_555
C37 O4 1_555 1_555
H25 C37 1_555 1_555
H26 C37 1_555 1_555
C38 C37 1_555 1_555
C39 C38 1_555 1_555
C40 C39 1_555 1_555
C41 C40 1_555 1_555
C42 C41 1_555 1_555
C43 C42 1_555 1_555
H27 C43 1_555 1_555
C44 C43 1_555 1_555
H28 C44 1_555 1_555
C45 C44 1_555 1_555
H29 C45 1_555 1_555
C46 C45 1_555 1_555
H30 C46 1_555 1_555
C47 C38 1_555 1_555
C48 O1 1_555 1_555
H31 C48 1_555 1_555
H32 C48 1_555 1_555
C49 O5 1_555 1_555
H33 C49 1_555 1_555
H34 C49 1_555 1_555
C50 C49 1_555 1_555
H35 C50 1_555 1_555
H36 C50 1_555 1_555
C51 C50 1_555 1_555
H37 C51 1_555 1_555
H38 C51 1_555 1_555
C52 C51 1_555 1_555
H39 C52 1_555 1_555
H40 C52 1_555 1_555
H41 C52 1_555 1_555
C53 O6 1_555 1_555
H42 C53 1_555 1_555
H43 C53 1_555 1_555
C54 C53 1_555 1_555
H44 C54 1_555 1_555
H45 C54 1_555 1_555
C55 C54 1_555 1_555
H46 C55 1_555 1_555
H47 C55 1_555 1_555
C56 C55 1_555 1_555
H48 C56 1_555 1_555
H49 C56 1_555 1_555
H50 C56 1_555 1_555
C57 O7 1_555 1_555
H51 C57 1_555 1_555
H52 C57 1_555 1_555
C58 C57 1_555 1_555
H53 C58 1_555 1_555
H54 C58 1_555 1_555
C59 C58 1_555 1_555
H55 C59 1_555 1_555
H56 C59 1_555 1_555
C60 C59 1_555 1_555
H57 C60 1_555 1_555
H58 C60 1_555 1_555
H59 C60 1_555 1_555
C61 O8 1_555 1_555
H60 C61 1_555 1_555
H61 C61 1_555 1_555
C62 C61 1_555 1_555
H62 C62 1_555 1_555
H63 C62 1_555 1_555
C63 C62 1_555 1_555
H64 C63 1_555 1_555
H65 C63 1_555 1_555
C64 C63 1_555 1_555
H66 C64 1_555 1_555
H67 C64 1_555 1_555
H68 C64 1_555 1_555
C65 O9 1_555 1_555
H69 C65 1_555 1_555
H70 C65 1_555 1_555
C66 C65 1_555 1_555
H71 C66 1_555 1_555
H72 C66 1_555 1_555
C67 C66 1_555 1_555
H73 C67 1_555 1_555
H74 C67 1_555 1_555
C68 C67 1_555 1_555
H75 C68 1_555 1_555
H76 C68 1_555 1_555
H77 C68 1_555 1_555
C69 O10 1_555 1_555
H78 C69 1_555 1_555
H79 C69 1_555 1_555
C70 C69 1_555 1_555
H80 C70 1_555 1_555
H81 C70 1_555 1_555
C71 C70 1_555 1_555
H82 C71 1_555 1_555
H83 C71 1_555 1_555
C72 C71 1_555 1_555
H84 C72 1_555 1_555
H85 C72 1_555 1_555
H86 C72 1_555 1_555
C73 O11 1_555 1_555
H87 C73 1_555 1_555
H88 C73 1_555 1_555
C74 C73 1_555 1_555
H89 C74 1_555 1_555
H90 C74 1_555 1_555
C75 C74 1_555 1_555
H91 C75 1_555 1_555
H92 C75 1_555 1_555
C76 C75 1_555 1_555
H93 C76 1_555 1_555
H94 C76 1_555 1_555
H95 C76 1_555 1_555
C77 O12 1_555 1_555
H96 C77 1_555 1_555
H97 C77 1_555 1_555
C78 C77 1_555 1_555
H98 C78 1_555 1_555
H99 C78 1_555 1_555
C79 C78 1_555 1_555
H100 C79 1_555 1_555
H101 C79 1_555 1_555
C80 C79 1_555 1_555
H102 C80 1_555 1_555
H103 C80 1_555 1_555
H104 C80 1_555 1_555
O13 C86 1_555 1_555
O14 C97 1_555 1_555
O15 C109 1_555 1_555
O16 C121 1_555 1_555
O17 C89 1_555 1_555
O18 C88 1_555 1_555
O19 C125 1_555 1_555
O20 C124 1_555 1_555
O21 C113 1_555 1_555
O22 C112 1_555 1_555
O23 C101 1_555 1_555
O24 C100 1_555 1_555
C86 H121 1_555 1_555
H122 C86 1_555 1_555
C87 C86 1_555 1_555
C88 C87 1_555 1_555
C89 C88 1_555 1_555
C90 C89 1_555 1_555
C91 C90 1_555 1_555
C92 C91 1_555 1_555
H123 C92 1_555 1_555
C93 C92 1_555 1_555
H124 C93 1_555 1_555
C94 C93 1_555 1_555
H125 C94 1_555 1_555
C95 C94 1_555 1_555
H126 C95 1_555 1_555
C96 C87 1_555 1_555
C97 C90 1_555 1_555
H127 C97 1_555 1_555
H128 C97 1_555 1_555
C98 O14 1_555 1_555
H129 C98 1_555 1_555
H130 C98 1_555 1_555
C99 C98 1_555 1_555
C100 C99 1_555 1_555
C101 C100 1_555 1_555
C102 C101 1_555 1_555
C103 C102 1_555 1_555
C104 C103 1_555 1_555
H131 C104 1_555 1_555
C105 C104 1_555 1_555
H132 C105 1_555 1_555
C106 C105 1_555 1_555
H133 C106 1_555 1_555
C107 C106 1_555 1_555
H134 C107 1_555 1_555
C108 C99 1_555 1_555
C109 C102 1_555 1_555
H135 C109 1_555 1_555
H136 C109 1_555 1_555
C110 O15 1_555 1_555
H137 C110 1_555 1_555
H138 C110 1_555 1_555
C111 C110 1_555 1_555
C112 C111 1_555 1_555
C113 C112 1_555 1_555
C114 C113 1_555 1_555
C115 C114 1_555 1_555
C116 C115 1_555 1_555
H139 C116 1_555 1_555
C117 C116 1_555 1_555
H140 C117 1_555 1_555
C118 C117 1_555 1_555
H141 C118 1_555 1_555
C119 C118 1_555 1_555
H142 C119 1_555 1_555
C120 C111 1_555 1_555
C121 C114 1_555 1_555
H143 C121 1_555 1_555
H144 C121 1_555 1_555
C122 O16 1_555 1_555
H145 C122 1_555 1_555
H146 C122 1_555 1_555
C123 C122 1_555 1_555
C124 C123 1_555 1_555
C125 C124 1_555 1_555
C126 C125 1_555 1_555
C127 C126 1_555 1_555
C128 C127 1_555 1_555
H147 C128 1_555 1_555
C129 C128 1_555 1_555
H148 C129 1_555 1_555
C130 C129 1_555 1_555
H149 C130 1_555 1_555
C131 C130 1_555 1_555
H150 C131 1_555 1_555
C132 C123 1_555 1_555
C133 O13 1_555 1_555
H151 C133 1_555 1_555
H152 C133 1_555 1_555
C134 O17 1_555 1_555
H153 C134 1_555 1_555
H154 C134 1_555 1_555
C135 C134 1_555 1_555
H155 C135 1_555 1_555
H156 C135 1_555 1_555
C136 C135 1_555 1_555
H157 C136 1_555 1_555
H158 C136 1_555 1_555
C137 C136 1_555 1_555
H159 C137 1_555 1_555
H160 C137 1_555 1_555
H161 C137 1_555 1_555
C138 O18 1_555 1_555
H162 C138 1_555 1_555
H163 C138 1_555 1_555
C139 C138 1_555 1_555
H164 C139 1_555 1_555
H165 C139 1_555 1_555
C140 C139 1_555 1_555
H166 C140 1_555 1_555
H167 C140 1_555 1_555
C141 C140 1_555 1_555
H168 C141 1_555 1_555
H169 C141 1_555 1_555
H170 C141 1_555 1_555
C142 O19 1_555 1_555
H171 C142 1_555 1_555
H172 C142 1_555 1_555
C143 C142 1_555 1_555
H173 C143 1_555 1_555
H174 C143 1_555 1_555
C144 C143 1_555 1_555
H175 C144 1_555 1_555
H176 C144 1_555 1_555
C145 C144 1_555 1_555
H177 C145 1_555 1_555
H178 C145 1_555 1_555
H179 C145 1_555 1_555
C146 O20 1_555 1_555
H180 C146 1_555 1_555
H181 C146 1_555 1_555
C147 C146 1_555 1_555
H182 C147 1_555 1_555
H183 C147 1_555 1_555
C148 C147 1_555 1_555
H184 C148 1_555 1_555
H185 C148 1_555 1_555
C149 C148 1_555 1_555
H186 C149 1_555 1_555
H187 C149 1_555 1_555
H188 C149 1_555 1_555
C150 O21 1_555 1_555
H189 C150 1_555 1_555
H190 C150 1_555 1_555
C151 C150 1_555 1_555
H191 C151 1_555 1_555
H192 C151 1_555 1_555
C152 C151 1_555 1_555
H193 C152 1_555 1_555
H194 C152 1_555 1_555
C153 C152 1_555 1_555
H195 C153 1_555 1_555
H196 C153 1_555 1_555
H197 C153 1_555 1_555
C154 O22 1_555 1_555
H198 C154 1_555 1_555
H199 C154 1_555 1_555
C155 C154 1_555 1_555
H200 C155 1_555 1_555
H201 C155 1_555 1_555
C156 C155 1_555 1_555
H202 C156 1_555 1_555
H203 C156 1_555 1_555
C157 C156 1_555 1_555
H204 C157 1_555 1_555
H205 C157 1_555 1_555
H206 C157 1_555 1_555
C158 O23 1_555 1_555
H207 C158 1_555 1_555
H208 C158 1_555 1_555
C159 C158 1_555 1_555
H209 C159 1_555 1_555
H210 C159 1_555 1_555
C160 C159 1_555 1_555
H211 C160 1_555 1_555
H212 C160 1_555 1_555
C161 C160 1_555 1_555
H213 C161 1_555 1_555
H214 C161 1_555 1_555
H215 C161 1_555 1_555
C162 O24 1_555 1_555
H216 C162 1_555 1_555
H217 C162 1_555 1_555
C163 C162 1_555 1_555
H218 C163 1_555 1_555
H219 C163 1_555 1_555
C164 C163 1_555 1_555
H220 C164 1_555 1_555
H221 C164 1_555 1_555
C165 C164 1_555 1_555
H222 C165 1_555 1_555
H223 C165 1_555 1_555
H224 C165 1_555 1_555
C6 C11 1_555 1_555
C10 C11 1_555 1_555
C18 C23 1_555 1_555
C22 C23 1_555 1_555
C30 C35 1_555 1_555
C34 C35 1_555 1_555
C41 C48 1_555 1_555
C42 C47 1_555 1_555
C46 C47 1_555 1_555
C91 C96 1_555 1_555
C95 C96 1_555 1_555
C103 C108 1_555 1_555
C107 C108 1_555 1_555
C115 C120 1_555 1_555
C119 C120 1_555 1_555
C126 C133 1_555 1_555
C127 C132 1_555 1_555
C131 C132 1_555 1_555

#END
