
#######################################################################
#
#                 Cambridge Crystallographic Data Centre
#                                CCDC 
#
#######################################################################
#
# If this CIF has been generated from an entry in the Cambridge 
# Structural Database, then it will include bibliographic, chemical, 
# crystal, experimental, refinement or atomic coordinate data resulting 
# from the CCDC's data processing and validation procedures.
#
#######################################################################

data_YILCUU
_chemical_formula_moiety         'C80 H104 O12,C24 H36 N1 1+,F6 P1 1-,C1 H2 Cl2'
_chemical_name_systematic        
'45,46,47,48,49,50,51,52-octabutoxy-3,14,25,36-tetraoxanonacyclo[36.6.2.2^5,12^.2^16,23^.2^27,34^.0^6,11^.0^17,22^.0^28,33^.0^39,44^]dopentaconta-1(44),5,7,9,11,16,18,20,22,27,29,31,33,38,40,42,45,47,49,51-icosaene bis(4-t-butylbenzyl)dimethylammonium hexafluorophosphate dichloromethane solvate'
_symmetry_cell_setting           orthorhombic
_symmetry_space_group_name_H-M   'P b c n'
_symmetry_Int_Tables_number      60
_space_group_name_Hall           '-P 2n 2ab'
loop_
_symmetry_equiv_pos_site_id
_symmetry_equiv_pos_as_xyz
1 x,y,z
2 1/2-x,1/2-y,1/2+z
3 1/2+x,1/2-y,-z
4 -x,y,1/2-z
5 -x,-y,-z
6 1/2+x,1/2+y,1/2-z
7 1/2-x,1/2+y,z
8 x,-y,1/2+z
_cell_length_a                   31.3606(13)
_cell_length_b                   18.8882(3)
_cell_length_c                   17.0957(3)
_cell_angle_alpha                90
_cell_angle_beta                 90
_cell_angle_gamma                90
_cell_volume                     10126.6
_exptl_crystal_colour            colorless
_exptl_crystal_description       prism
_cell_formula_units_Z            4
loop_
_atom_site_label
_atom_site_type_symbol
_atom_site_fract_x
_atom_site_fract_y
_atom_site_fract_z
O1 O 0.000000 0.48745(13) 0.250000
O2 O 0.06660(8) 0.24646(9) 0.01579(11)
O3 O 0.000000 0.00757(14) 0.250000
O4 O 0.10616(9) 0.49408(12) 0.16931(14)
O5 O 0.13242(8) 0.38511(11) 0.07593(13)
O6 O 0.13305(8) 0.09280(11) 0.06663(12)
O7 O 0.10167(9) -0.01537(11) 0.15492(13)
C1 C 0.01874(13) 0.52964(15) 0.18925(17)
H1 H 0.042803 0.557944 0.209933
H2 H -0.002632 0.562156 0.166331
C2 C 0.03414(12) 0.47737(14) 0.12908(16)
C3 C 0.07594(12) 0.45957(14) 0.12468(16)
C4 C 0.09048(11) 0.40569(14) 0.07300(16)
C5 C 0.06241(12) 0.37023(14) 0.02544(16)
C6 C 0.01863(11) 0.38823(14) 0.02743(15)
C7 C -0.01204(13) 0.35352(16) -0.02081(16)
H3 H -0.002970 0.316979 -0.055178
C8 C -0.05392(13) 0.37159(18) -0.01863(19)
H4 H -0.073645 0.348419 -0.052146
C9 C -0.06827(13) 0.42456(18) 0.03311(19)
H5 H -0.097662 0.436609 0.034803
C10 C -0.04005(12) 0.45854(16) 0.08073(17)
H6 H -0.050150 0.493988 0.115527
C11 C 0.00398(11) 0.44215(14) 0.07944(15)
C12 C 0.07863(12) 0.30971(14) -0.02434(16)
H7 H 0.065561 0.311186 -0.077031
H8 H 0.110005 0.312327 -0.030009
C13 C 0.08025(11) 0.18355(13) -0.02446(15)
H9 H 0.111767 0.181198 -0.026702
H10 H 0.068908 0.182693 -0.078487
C14 C 0.06262(11) 0.12271(13) 0.02250(15)
C15 C 0.08958(11) 0.08095(14) 0.06607(16)
C16 C 0.07301(12) 0.02708(14) 0.11596(15)
C17 C 0.03050(12) 0.01678(13) 0.12449(16)
C18 C 0.00131(12) 0.05861(14) 0.07867(15)
C19 C -0.04326(13) 0.05094(16) 0.08532(18)
H11 H -0.054676 0.016599 0.120102
C20 C -0.07045(13) 0.09265(19) 0.04197(19)
H12 H -0.100416 0.087651 0.047903
C21 C -0.05402(13) 0.14263(18) -0.01105(18)
H13 H -0.072874 0.170320 -0.041954
C22 C -0.01123(11) 0.15130(15) -0.01807(16)
H14 H -0.000601 0.185346 -0.054028
C23 C 0.01793(11) 0.11116(14) 0.02657(15)
C24 C 0.01364(14) -0.03480(15) 0.18463(16)
H15 H -0.010587 -0.062142 0.163056
H16 H 0.036263 -0.068293 0.200823
C25 C 0.11861(16) 0.4553(2) 0.2379(3)
H17 H 0.124662 0.405126 0.225214
H18 H 0.096171 0.457262 0.278606
C26 C 0.1596(4) 0.4943(9) 0.2651(6)
H19 H 0.152051 0.539703 0.290405
H20 H 0.178139 0.504481 0.219547
C27 C 0.1842(4) 0.4441(9) 0.3260(8)
H21 H 0.172223 0.451366 0.378966
H22 H 0.179477 0.393967 0.311379
C28 C 0.2214(5) 0.4556(11) 0.3275(12)
H23 H 0.235130 0.423944 0.365258
H24 H 0.233524 0.447522 0.275394
H25 H 0.226272 0.504908 0.342965
C29 C 0.16181(13) 0.4300(2) 0.0339(2)
H26 H 0.165000 0.475818 0.061401
H27 H 0.150814 0.439447 -0.019377
C30 C 0.20285(16) 0.3944(3) 0.0292(3)
H28 H 0.199081 0.349404 0.000295
H29 H 0.222631 0.424374 -0.001420
C31 C 0.22233(18) 0.3789(4) 0.1041(3)
H30 H 0.201643 0.352398 0.136563
H31 H 0.228522 0.424115 0.131112
C32 C 0.26476(18) 0.3347(3) 0.0983(3)
H32 H 0.276051 0.326329 0.150928
H33 H 0.258866 0.289244 0.072888
H34 H 0.285781 0.361057 0.067430
C33 C 0.15639(13) 0.0438(2) 0.0179(2)
H35 H 0.151920 0.055689 -0.037923
H36 H 0.145944 -0.004969 0.026859
C34 C 0.20257(14) 0.0481(2) 0.0372(3)
H37 H 0.217982 0.012566 0.005401
H38 H 0.206365 0.035161 0.092834
C35 C 0.22305(15) 0.1199(2) 0.0237(3)
H39 H 0.208910 0.155539 0.057332
H40 H 0.218708 0.134163 -0.031483
C36 C 0.27113(16) 0.1191(3) 0.0418(4)
H41 H 0.283112 0.166241 0.032366
H42 H 0.275541 0.105925 0.096625
H43 H 0.285335 0.084557 0.007841
C37 C 0.11648(17) 0.0134(2) 0.2278(2)
H44 H 0.092664 0.020398 0.265028
H45 H 0.131438 0.059007 0.219905
C38 C 0.1497(3) -0.0489(4) 0.2587(4)
H46 H 0.171368 -0.058217 0.217878
H47 H 0.164606 -0.032304 0.306263
C39 C 0.1266(2) -0.1146(3) 0.2762(4)
H48 H 0.111766 -0.130814 0.228375
H49 H 0.104679 -0.104664 0.316404
C40 C 0.1552(2) -0.1730(4) 0.3052(4)
H50 H 0.146738 -0.217860 0.280990
H51 H 0.184842 -0.162260 0.291165
H52 H 0.152744 -0.176817 0.362139
O2C O -0.06660(8) 0.24646(9) 0.48421(11)
O4C O -0.10616(9) 0.49408(12) 0.33069(14)
O5C O -0.13242(8) 0.38511(11) 0.42407(13)
O6C O -0.13305(8) 0.09280(11) 0.43337(12)
O7C O -0.10167(9) -0.01537(11) 0.34508(13)
C1C C -0.01874(13) 0.52964(15) 0.31075(17)
H1C H -0.042803 0.557944 0.290067
H2C H 0.002632 0.562156 0.333669
C2C C -0.03414(12) 0.47737(14) 0.37092(16)
C3C C -0.07594(12) 0.45957(14) 0.37532(16)
C4C C -0.09048(11) 0.40569(14) 0.42700(16)
C5C C -0.06241(12) 0.37023(14) 0.47456(16)
C6C C -0.01863(11) 0.38823(14) 0.47257(15)
C7C C 0.01204(13) 0.35352(16) 0.52081(16)
H3C H 0.002970 0.316979 0.555178
C8C C 0.05392(13) 0.37159(18) 0.51863(19)
H4C H 0.073645 0.348419 0.552146
C9C C 0.06827(13) 0.42456(18) 0.46689(19)
H5C H 0.097662 0.436609 0.465197
C10C C 0.04005(12) 0.45854(16) 0.41927(17)
H6C H 0.050150 0.493988 0.384473
C11C C -0.00398(11) 0.44215(14) 0.42056(15)
C12C C -0.07863(12) 0.30971(14) 0.52434(16)
H7C H -0.065561 0.311186 0.577031
H8C H -0.110005 0.312327 0.530009
C13C C -0.08025(11) 0.18355(13) 0.52446(15)
H9C H -0.111767 0.181198 0.526702
H10C H -0.068908 0.182693 0.578487
C14C C -0.06262(11) 0.12271(13) 0.47750(15)
C15C C -0.08958(11) 0.08095(14) 0.43393(16)
C16C C -0.07301(12) 0.02708(14) 0.38404(15)
C17C C -0.03050(12) 0.01678(13) 0.37551(16)
C18C C -0.00131(12) 0.05861(14) 0.42133(15)
C19C C 0.04326(13) 0.05094(16) 0.41468(18)
H11C H 0.054676 0.016599 0.379898
C20C C 0.07045(13) 0.09265(19) 0.45803(19)
H12C H 0.100416 0.087651 0.452097
C21C C 0.05402(13) 0.14263(18) 0.51105(18)
H13C H 0.072874 0.170320 0.541954
C22C C 0.01123(11) 0.15130(15) 0.51807(16)
H14C H 0.000601 0.185346 0.554028
C23C C -0.01793(11) 0.11116(14) 0.47343(15)
C24C C -0.01364(14) -0.03480(15) 0.31537(16)
H15C H 0.010587 -0.062142 0.336944
H16C H -0.036263 -0.068293 0.299177
C25C C -0.11861(16) 0.4553(2) 0.2621(3)
H17C H -0.124662 0.405126 0.274786
H18C H -0.096171 0.457262 0.221394
C26C C -0.1596(4) 0.4943(9) 0.2349(6)
H19C H -0.152051 0.539703 0.209595
H20C H -0.178139 0.504481 0.280453
C27C C -0.1842(4) 0.4441(9) 0.1740(8)
H21C H -0.172223 0.451366 0.121034
H22C H -0.179477 0.393967 0.188621
C28C C -0.2214(5) 0.4556(11) 0.1725(12)
H23C H -0.235130 0.423944 0.134742
H24C H -0.233524 0.447522 0.224606
H25C H -0.226272 0.504908 0.157035
C29C C -0.16181(13) 0.4300(2) 0.4661(2)
H26C H -0.165000 0.475818 0.438599
H27C H -0.150814 0.439447 0.519377
C30C C -0.20285(16) 0.3944(3) 0.4708(3)
H28C H -0.199081 0.349404 0.499705
H29C H -0.222631 0.424374 0.501420
C31C C -0.22233(18) 0.3789(4) 0.3959(3)
H30C H -0.201643 0.352398 0.363437
H31C H -0.228522 0.424115 0.368888
C32C C -0.26476(18) 0.3347(3) 0.4017(3)
H32C H -0.276051 0.326329 0.349072
H33C H -0.258866 0.289244 0.427112
H34C H -0.285781 0.361057 0.432570
C33C C -0.15639(13) 0.0438(2) 0.4821(2)
H35C H -0.151920 0.055689 0.537923
H36C H -0.145944 -0.004969 0.473141
C34C C -0.20257(14) 0.0481(2) 0.4628(3)
H37C H -0.217982 0.012566 0.494599
H38C H -0.206365 0.035161 0.407166
C35C C -0.22305(15) 0.1199(2) 0.4763(3)
H39C H -0.208910 0.155539 0.442668
H40C H -0.218708 0.134163 0.531483
C36C C -0.27113(16) 0.1191(3) 0.4582(4)
H41C H -0.283112 0.166241 0.467634
H42C H -0.275541 0.105925 0.403375
H43C H -0.285335 0.084557 0.492159
C37C C -0.11648(17) 0.0134(2) 0.2722(2)
H44C H -0.092664 0.020398 0.234972
H45C H -0.131438 0.059007 0.280095
C38C C -0.1497(3) -0.0489(4) 0.2413(4)
H46C H -0.171368 -0.058217 0.282122
H47C H -0.164606 -0.032304 0.193737
C39C C -0.1266(2) -0.1146(3) 0.2238(4)
H48C H -0.111766 -0.130814 0.271625
H49C H -0.104679 -0.104664 0.183596
C40C C -0.1552(2) -0.1730(4) 0.1948(4)
H50C H -0.146738 -0.217860 0.219010
H51C H -0.184842 -0.162260 0.208835
H52C H -0.152744 -0.176817 0.137861
Cl1 Cl 0.14335(12) 0.7279(3) 0.1359(2)
Cl2 Cl 0.14869(14) 0.6816(4) 0.3003(3)
C41 C 0.1191(4) 0.6788(11) 0.2101(9)
H53 H 0.116408 0.629008 0.192844
H54 H 0.090078 0.697522 0.219264
N1 N 0.000000 0.25997(16) 0.250000
C42 C 0.03855(13) 0.30890(15) 0.25632(19)
H55 H 0.040766 0.336521 0.207267
H56 H 0.033353 0.342883 0.299363
C43 C 0.08045(13) 0.27319(16) 0.27068(17)
C44 C 0.10574(13) 0.24960(16) 0.20935(18)
H57 H 0.095811 0.253902 0.157067
C45 C 0.14558(13) 0.2197(2) 0.22385(19)
H58 H 0.162180 0.203460 0.180942
C46 C 0.16179(14) 0.2128(2) 0.2991(2)
C47 C 0.13567(17) 0.2377(2) 0.3604(2)
H59 H 0.145692 0.234378 0.412713
C48 C 0.09590(15) 0.26676(19) 0.3466(2)
H60 H 0.079006 0.282487 0.389285
C49 C 0.20556(16) 0.1813(3) 0.3169(3)
C50 C 0.22841(17) 0.1555(3) 0.2431(3)
H61 H 0.256260 0.135824 0.257321
H62 H 0.211197 0.118880 0.217582
H63 H 0.232407 0.195355 0.207099
C51 C 0.19995(19) 0.1175(3) 0.3731(3)
H64 H 0.227915 0.096917 0.384865
H65 H 0.186551 0.133610 0.421765
H66 H 0.181843 0.081672 0.348311
C52 C 0.2334(2) 0.2386(3) 0.3567(4)
H67 H 0.261577 0.218904 0.368363
H68 H 0.236421 0.279227 0.321551
H69 H 0.219701 0.253824 0.405422
C53 C 0.00402(13) 0.21412(17) 0.17933(17)
H70 H 0.006679 0.243915 0.132650
H71 H 0.029395 0.184169 0.184314
H72 H -0.021360 0.184164 0.174594
C42C C -0.03855(13) 0.30890(15) 0.24368(19)
H55C H -0.040766 0.336521 0.292733
H56C H -0.033353 0.342883 0.200637
C43C C -0.08045(13) 0.27319(16) 0.22932(17)
C44C C -0.10574(13) 0.24960(16) 0.29065(18)
H57C H -0.095811 0.253902 0.342933
C45C C -0.14558(13) 0.2197(2) 0.27615(19)
H58C H -0.162180 0.203460 0.319058
C46C C -0.16179(14) 0.2128(2) 0.2009(2)
C47C C -0.13567(17) 0.2377(2) 0.1396(2)
H59C H -0.145692 0.234378 0.087287
C48C C -0.09590(15) 0.26676(19) 0.1534(2)
H60C H -0.079006 0.282487 0.110715
C49C C -0.20556(16) 0.1813(3) 0.1831(3)
C50C C -0.22841(17) 0.1555(3) 0.2569(3)
H61C H -0.256260 0.135824 0.242679
H62C H -0.211197 0.118880 0.282418
H63C H -0.232407 0.195355 0.292901
C51C C -0.19995(19) 0.1175(3) 0.1269(3)
H64C H -0.227915 0.096917 0.115135
H65C H -0.186551 0.133610 0.078235
H66C H -0.181843 0.081672 0.151689
C52C C -0.2334(2) 0.2386(3) 0.1433(4)
H67C H -0.261577 0.218904 0.131637
H68C H -0.236421 0.279227 0.178449
H69C H -0.219701 0.253824 0.094578
C53C C -0.00402(13) 0.21412(17) 0.32067(17)
H70C H -0.006679 0.243915 0.367350
H71C H -0.029395 0.184169 0.315686
H72C H 0.021360 0.184164 0.325406
P1 P 0.000000 0.25395(5) 0.750000
F1 F 0.03020(8) 0.25420(10) 0.67475(11)
F2 F 0.02870(8) 0.31384(9) 0.78936(11)
F3 F 0.02880(7) 0.19444(9) 0.78976(11)
F1C F -0.03020(8) 0.25420(10) 0.82525(11)
F2C F -0.02870(8) 0.31384(9) 0.71064(11)
F3C F -0.02880(7) 0.19444(9) 0.71024(11)
H73? H 0.134272 0.412075 0.222082
H74? H 0.092801 0.440386 0.266946
C54? C 0.1472(5) 0.5005(9) 0.2920(9)
H75? H 0.176803 0.498454 0.272031
H76? H 0.147124 0.478943 0.344775
C55? C 0.1338(6) 0.5812(8) 0.3000(8)
H77? H 0.106410 0.579951 0.328829
H78? H 0.154807 0.601465 0.336968
C56? C 0.1288(8) 0.6275(11) 0.2507(13)
H79? H 0.120366 0.671725 0.276441
H80? H 0.155538 0.634863 0.222207
H81? H 0.106436 0.613035 0.213949
H82? H 0.095594 0.048481 0.247402
H83? H 0.143937 0.038114 0.219343
C57? C 0.1223(8) -0.0436(7) 0.2875(8)
H84? H 0.147861 -0.029439 0.317729
H85? H 0.097873 -0.038518 0.323640
H86? H 0.129268 -0.118465 0.218681
H87? H 0.097756 -0.132756 0.288361
loop_
_geom_bond_atom_site_label_1
_geom_bond_atom_site_label_2
_geom_bond_site_symmetry_1
_geom_bond_site_symmetry_2
O1 C1 1_555 1_555
O2 C12 1_555 1_555
O3 C24 1_555 1_555
O4 C3 1_555 1_555
O5 C4 1_555 1_555
O6 C15 1_555 1_555
O7 C16 1_555 1_555
C1 H1 1_555 1_555
H2 C1 1_555 1_555
C2 C1 1_555 1_555
C3 C2 1_555 1_555
C4 C3 1_555 1_555
C5 C4 1_555 1_555
C6 C5 1_555 1_555
C7 C6 1_555 1_555
H3 C7 1_555 1_555
C8 C7 1_555 1_555
H4 C8 1_555 1_555
C9 C8 1_555 1_555
H5 C9 1_555 1_555
C10 C9 1_555 1_555
H6 C10 1_555 1_555
C11 C2 1_555 1_555
C12 C5 1_555 1_555
H7 C12 1_555 1_555
H8 C12 1_555 1_555
C13 O2 1_555 1_555
H9 C13 1_555 1_555
H10 C13 1_555 1_555
C14 C13 1_555 1_555
C15 C14 1_555 1_555
C16 C15 1_555 1_555
C17 C16 1_555 1_555
C18 C17 1_555 1_555
C19 C18 1_555 1_555
H11 C19 1_555 1_555
C20 C19 1_555 1_555
H12 C20 1_555 1_555
C21 C20 1_555 1_555
H13 C21 1_555 1_555
C22 C21 1_555 1_555
H14 C22 1_555 1_555
C23 C14 1_555 1_555
C24 C17 1_555 1_555
H15 C24 1_555 1_555
H16 C24 1_555 1_555
C25 O4 1_555 1_555
H17 C25 1_555 1_555
H18 C25 1_555 1_555
C26 C25 1_555 1_555
H19 C26 1_555 1_555
H20 C26 1_555 1_555
C27 C26 1_555 1_555
H21 C27 1_555 1_555
H22 C27 1_555 1_555
C28 C27 1_555 1_555
H23 C28 1_555 1_555
H24 C28 1_555 1_555
H25 C28 1_555 1_555
C29 O5 1_555 1_555
H26 C29 1_555 1_555
H27 C29 1_555 1_555
C30 C29 1_555 1_555
H28 C30 1_555 1_555
H29 C30 1_555 1_555
C31 C30 1_555 1_555
H30 C31 1_555 1_555
H31 C31 1_555 1_555
C32 C31 1_555 1_555
H32 C32 1_555 1_555
H33 C32 1_555 1_555
H34 C32 1_555 1_555
C33 O6 1_555 1_555
H35 C33 1_555 1_555
H36 C33 1_555 1_555
C34 C33 1_555 1_555
H37 C34 1_555 1_555
H38 C34 1_555 1_555
C35 C34 1_555 1_555
H39 C35 1_555 1_555
H40 C35 1_555 1_555
C36 C35 1_555 1_555
H41 C36 1_555 1_555
H42 C36 1_555 1_555
H43 C36 1_555 1_555
C37 O7 1_555 1_555
H44 C37 1_555 1_555
H45 C37 1_555 1_555
C38 C37 1_555 1_555
H46 C38 1_555 1_555
H47 C38 1_555 1_555
C39 C38 1_555 1_555
H48 C39 1_555 1_555
H49 C39 1_555 1_555
C40 C39 1_555 1_555
H50 C40 1_555 1_555
H51 C40 1_555 1_555
H52 C40 1_555 1_555
Cl1 C41 1_555 1_555
Cl2 C41 1_555 1_555
C41 H53 1_555 1_555
H54 C41 1_555 1_555
N1 C42 1_555 1_555
C42 H55 1_555 1_555
H56 C42 1_555 1_555
C43 C42 1_555 1_555
C44 C43 1_555 1_555
H57 C44 1_555 1_555
C45 C44 1_555 1_555
H58 C45 1_555 1_555
C46 C45 1_555 1_555
C47 C46 1_555 1_555
H59 C47 1_555 1_555
C48 C43 1_555 1_555
H60 C48 1_555 1_555
C49 C46 1_555 1_555
C50 C49 1_555 1_555
H61 C50 1_555 1_555
H62 C50 1_555 1_555
H63 C50 1_555 1_555
C51 C49 1_555 1_555
H64 C51 1_555 1_555
H65 C51 1_555 1_555
H66 C51 1_555 1_555
C52 C49 1_555 1_555
H67 C52 1_555 1_555
H68 C52 1_555 1_555
H69 C52 1_555 1_555
C53 N1 1_555 1_555
H70 C53 1_555 1_555
H71 C53 1_555 1_555
H72 C53 1_555 1_555
P1 F1 1_555 1_555
F2 P1 1_555 1_555
F3 P1 1_555 1_555
O2C C12C 1_555 1_555
O4C C3C 1_555 1_555
O5C C4C 1_555 1_555
O6C C15C 1_555 1_555
O7C C16C 1_555 1_555
C1C O1 1_555 1_555
H1C C1C 1_555 1_555
H2C C1C 1_555 1_555
C2C C1C 1_555 1_555
C3C C2C 1_555 1_555
C4C C3C 1_555 1_555
C5C C4C 1_555 1_555
C6C C5C 1_555 1_555
C7C C6C 1_555 1_555
H3C C7C 1_555 1_555
C8C C7C 1_555 1_555
H4C C8C 1_555 1_555
C9C C8C 1_555 1_555
H5C C9C 1_555 1_555
C10C C9C 1_555 1_555
H6C C10C 1_555 1_555
C11C C2C 1_555 1_555
C12C C5C 1_555 1_555
H7C C12C 1_555 1_555
H8C C12C 1_555 1_555
C13C O2C 1_555 1_555
H9C C13C 1_555 1_555
H10C C13C 1_555 1_555
C14C C13C 1_555 1_555
C15C C14C 1_555 1_555
C16C C15C 1_555 1_555
C17C C16C 1_555 1_555
C18C C17C 1_555 1_555
C19C C18C 1_555 1_555
H11C C19C 1_555 1_555
C20C C19C 1_555 1_555
H12C C20C 1_555 1_555
C21C C20C 1_555 1_555
H13C C21C 1_555 1_555
C22C C21C 1_555 1_555
H14C C22C 1_555 1_555
C23C C14C 1_555 1_555
C24C O3 1_555 1_555
H15C C24C 1_555 1_555
H16C C24C 1_555 1_555
C25C O4C 1_555 1_555
H17C C25C 1_555 1_555
H18C C25C 1_555 1_555
C26C C25C 1_555 1_555
H19C C26C 1_555 1_555
H20C C26C 1_555 1_555
C27C C26C 1_555 1_555
H21C C27C 1_555 1_555
H22C C27C 1_555 1_555
C28C C27C 1_555 1_555
H23C C28C 1_555 1_555
H24C C28C 1_555 1_555
H25C C28C 1_555 1_555
C29C O5C 1_555 1_555
H26C C29C 1_555 1_555
H27C C29C 1_555 1_555
C30C C29C 1_555 1_555
H28C C30C 1_555 1_555
H29C C30C 1_555 1_555
C31C C30C 1_555 1_555
H30C C31C 1_555 1_555
H31C C31C 1_555 1_555
C32C C31C 1_555 1_555
H32C C32C 1_555 1_555
H33C C32C 1_555 1_555
H34C C32C 1_555 1_555
C33C O6C 1_555 1_555
H35C C33C 1_555 1_555
H36C C33C 1_555 1_555
C34C C33C 1_555 1_555
H37C C34C 1_555 1_555
H38C C34C 1_555 1_555
C35C C34C 1_555 1_555
H39C C35C 1_555 1_555
H40C C35C 1_555 1_555
C36C C35C 1_555 1_555
H41C C36C 1_555 1_555
H42C C36C 1_555 1_555
H43C C36C 1_555 1_555
C37C O7C 1_555 1_555
H44C C37C 1_555 1_555
H45C C37C 1_555 1_555
C38C C37C 1_555 1_555
H46C C38C 1_555 1_555
H47C C38C 1_555 1_555
C39C C38C 1_555 1_555
H48C C39C 1_555 1_555
H49C C39C 1_555 1_555
C40C C39C 1_555 1_555
H50C C40C 1_555 1_555
H51C C40C 1_555 1_555
H52C C40C 1_555 1_555
C42C N1 1_555 1_555
H55C C42C 1_555 1_555
H56C C42C 1_555 1_555
C43C C42C 1_555 1_555
C44C C43C 1_555 1_555
H57C C44C 1_555 1_555
C45C C44C 1_555 1_555
H58C C45C 1_555 1_555
C46C C45C 1_555 1_555
C47C C46C 1_555 1_555
H59C C47C 1_555 1_555
C48C C43C 1_555 1_555
H60C C48C 1_555 1_555
C49C C46C 1_555 1_555
C50C C49C 1_555 1_555
H61C C50C 1_555 1_555
H62C C50C 1_555 1_555
H63C C50C 1_555 1_555
C51C C49C 1_555 1_555
H64C C51C 1_555 1_555
H65C C51C 1_555 1_555
H66C C51C 1_555 1_555
C52C C49C 1_555 1_555
H67C C52C 1_555 1_555
H68C C52C 1_555 1_555
H69C C52C 1_555 1_555
C53C N1 1_555 1_555
H70C C53C 1_555 1_555
H71C C53C 1_555 1_555
H72C C53C 1_555 1_555
F1C P1 1_555 1_555
F2C P1 1_555 1_555
F3C P1 1_555 1_555
C6 C11 1_555 1_555
C10 C11 1_555 1_555
C18 C23 1_555 1_555
C22 C23 1_555 1_555
C47 C48 1_555 1_555
C6C C11C 1_555 1_555
C10C C11C 1_555 1_555
C17C C24C 1_555 1_555
C18C C23C 1_555 1_555
C22C C23C 1_555 1_555
C47C C48C 1_555 1_555

#END
