
#######################################################################
#
#                 Cambridge Crystallographic Data Centre
#                                CCDC 
#
#######################################################################
#
# If this CIF has been generated from an entry in the Cambridge 
# Structural Database, then it will include bibliographic, chemical, 
# crystal, experimental, refinement or atomic coordinate data resulting 
# from the CCDC's data processing and validation procedures.
#
#######################################################################

data_YILDEF
_chemical_formula_moiety         'C16 H18 I2 N1 1+,F6 P1 1-'
_chemical_name_systematic        
'bis(4-iodobenzyl)dimethylammonium hexafluorophosphate'
_symmetry_cell_setting           orthorhombic
_symmetry_space_group_name_H-M   'P n m a'
_symmetry_Int_Tables_number      62
_space_group_name_Hall           '-P 2ac 2n'
loop_
_symmetry_equiv_pos_site_id
_symmetry_equiv_pos_as_xyz
1 x,y,z
2 1/2-x,-y,1/2+z
3 1/2+x,1/2-y,1/2-z
4 -x,1/2+y,-z
5 -x,-y,-z
6 1/2+x,y,1/2-z
7 1/2-x,1/2+y,1/2+z
8 x,1/2-y,z
_cell_length_a                   9.9737(2)
_cell_length_b                   8.5642(2)
_cell_length_c                   23.0722(4)
_cell_angle_alpha                90
_cell_angle_beta                 90
_cell_angle_gamma                90
_cell_volume                     1970.75
_exptl_crystal_colour            colorless
_exptl_crystal_description       prism
_cell_formula_units_Z            4
loop_
_atom_site_label
_atom_site_type_symbol
_atom_site_fract_x
_atom_site_fract_y
_atom_site_fract_z
I1 I 0.59642(3) 0.250000 0.98703(2)
I2 I 0.52101(3) 0.250000 0.38047(2)
N1 N 0.7328(3) 0.250000 0.68065(15)
C1 C 0.8353(4) 0.250000 0.72995(19)
H1 H 0.893151 0.156742 0.725863
C2 C 0.7753(4) 0.250000 0.79000(19)
C3 C 0.7481(3) 0.1094(4) 0.81853(13)
H2 H 0.765818 0.013299 0.799469
C4 C 0.6956(3) 0.1082(4) 0.87418(13)
H3 H 0.676548 0.012295 0.893173
C5 C 0.6715(4) 0.250000 0.90169(18)
C6 C 0.8173(4) 0.250000 0.62542(18)
H4 H 0.875893 0.343279 0.625723
C7 C 0.7368(4) 0.250000 0.56997(18)
C8 C 0.7056(3) 0.3906(4) 0.54255(13)
H5 H 0.727953 0.486704 0.560677
C9 C 0.6423(3) 0.3910(4) 0.48897(13)
H6 H 0.620136 0.486866 0.470589
C10 C 0.6116(4) 0.250000 0.4626(2)
C11 C 0.6467(3) 0.1074(4) 0.68352(13)
H7 H 0.703404 0.014054 0.681632
H8 H 0.596352 0.107320 0.719986
H9 H 0.584006 0.107313 0.650830
H1G H 0.893151 0.343258 0.725863
H4G H 0.875893 0.156721 0.625723
C3G C 0.7481(3) 0.3906(4) 0.81853(13)
H2G H 0.765818 0.486701 0.799469
C4G C 0.6956(3) 0.3918(4) 0.87418(13)
H3G H 0.676548 0.487705 0.893173
C8G C 0.7056(3) 0.1094(4) 0.54255(13)
H5G H 0.727953 0.013296 0.560677
C9G C 0.6423(3) 0.1090(4) 0.48897(13)
H6G H 0.620136 0.013134 0.470589
C11G C 0.6467(3) 0.3926(4) 0.68352(13)
H7G H 0.703404 0.485946 0.681632
H8G H 0.596352 0.392680 0.719986
H9G H 0.584006 0.392687 0.650830
P1 P 0.04940(10) 0.250000 0.31650(5)
F1 F 0.0834(2) 0.3826(3) 0.36353(10)
F2 F 0.0177(2) 0.3832(3) 0.26976(10)
F3 F -0.1029(3) 0.250000 0.33662(14)
F4 F 0.2033(3) 0.250000 0.29615(15)
F1G F 0.0834(2) 0.1174(3) 0.36353(10)
F2G F 0.0177(2) 0.1168(3) 0.26976(10)
H10? H 0.893151 0.156742 0.725863
H11? H 0.875893 0.343279 0.625723
loop_
_geom_bond_atom_site_label_1
_geom_bond_atom_site_label_2
_geom_bond_site_symmetry_1
_geom_bond_site_symmetry_2
I1 C5 1_555 1_555
I2 C10 1_555 1_555
N1 C1 1_555 1_555
C1 H1 1_555 1_555
C2 C1 1_555 1_555
C3 C2 1_555 1_555
H2 C3 1_555 1_555
C4 C3 1_555 1_555
H3 C4 1_555 1_555
C5 C4 1_555 1_555
C6 N1 1_555 1_555
H4 C6 1_555 1_555
C7 C6 1_555 1_555
C8 C7 1_555 1_555
H5 C8 1_555 1_555
C9 C8 1_555 1_555
H6 C9 1_555 1_555
C10 C9 1_555 1_555
C11 N1 1_555 1_555
H7 C11 1_555 1_555
H8 C11 1_555 1_555
H9 C11 1_555 1_555
P1 F1 1_555 1_555
F2 P1 1_555 1_555
F3 P1 1_555 1_555
F4 P1 1_555 1_555
H1G C1 1_555 1_555
H4G C6 1_555 1_555
C3G C2 1_555 1_555
H2G C3G 1_555 1_555
C4G C5 1_555 1_555
H3G C4G 1_555 1_555
C8G C7 1_555 1_555
H5G C8G 1_555 1_555
C9G C10 1_555 1_555
H6G C9G 1_555 1_555
C11G N1 1_555 1_555
H7G C11G 1_555 1_555
H8G C11G 1_555 1_555
H9G C11G 1_555 1_555
F1G P1 1_555 1_555
F2G P1 1_555 1_555
C3G C4G 1_555 1_555
C8G C9G 1_555 1_555

#END
