
#######################################################################
#
#                 Cambridge Crystallographic Data Centre
#                                CCDC 
#
#######################################################################
#
# If this CIF has been generated from an entry in the Cambridge 
# Structural Database, then it will include bibliographic, chemical, 
# crystal, experimental, refinement or atomic coordinate data resulting 
# from the CCDC's data processing and validation procedures.
#
#######################################################################

data_YILFUW
_chemical_formula_moiety         'C28 H34 N4 O1 S1,C2 H6 O1'
_chemical_name_systematic        
'(E)-8-(2-Methylbenzylidene)-4-(2-methylphenyl)-6-(2-(morpholin-4-yl)ethyl)-3,4,5,6,7,8-hexahydropyrido[4,3-d]pyrimidine-2(1H)-thione ethanol solvate'
_symmetry_cell_setting           triclinic
_symmetry_space_group_name_H-M   'P -1'
_symmetry_Int_Tables_number      2
_space_group_name_Hall           '-P 1'
loop_
_symmetry_equiv_pos_site_id
_symmetry_equiv_pos_as_xyz
1 x,y,z
2 -x,-y,-z
_cell_length_a                   9.5193(10)
_cell_length_b                   12.3059(13)
_cell_length_c                   13.2913(14)
_cell_angle_alpha                78.772(2)
_cell_angle_beta                 74.820(2)
_cell_angle_gamma                87.755(2)
_cell_volume                     1473.79
_chemical_melting_point          '393.15 K'
_cell_formula_units_Z            2
loop_
_atom_site_label
_atom_site_type_symbol
_atom_site_fract_x
_atom_site_fract_y
_atom_site_fract_z
S1 S 0.82384(6) 0.58311(5) 1.08842(4)
O1 O 0.93440(19) 0.21602(16) 0.31604(15)
N1 N 0.82593(18) 0.50948(13) 0.91364(12)
N2 N 0.63478(18) 0.61996(13) 0.97265(12)
N3 N 0.63489(16) 0.41957(12) 0.69194(11)
N4 N 0.74675(17) 0.29049(13) 0.49413(12)
C1 C 1.1180(2) 0.3114(2) 0.62213(19)
H1 H 1.1188 0.3874 0.5965
C2 C 1.2069(3) 0.2432(3) 0.5599(2)
H2 H 1.2670 0.2735 0.4938
C3 C 1.2044(3) 0.1319(3) 0.5971(3)
H3 H 1.2640 0.0860 0.5566
C4 C 1.1153(3) 0.0876(2) 0.6933(3)
H4 H 1.1129 0.0112 0.7164
C5 C 1.0272(3) 0.15385(19) 0.7585(2)
C6 C 1.0283(2) 0.26785(16) 0.72164(16)
C7 C 0.9414(2) 0.34188(15) 0.78877(15)
H5 H 0.9553 0.3364 0.8563
C8 C 0.84488(18) 0.41575(14) 0.76197(13)
C9 C 0.76803(18) 0.49058(14) 0.83138(13)
C10 C 0.7575(2) 0.57127(14) 0.98461(14)
C11 C 0.56564(19) 0.61797(14) 0.88617(14)
H6 H 0.4661 0.5894 0.9185
C12 C 0.64436(19) 0.53971(14) 0.81774(14)
C13 C 0.5752(2) 0.51730(15) 0.73516(15)
H7 H 0.4712 0.5065 0.7660
H8 H 0.5894 0.5813 0.6778
C14 C 0.79509(19) 0.42552(16) 0.66246(14)
H9 H 0.8285 0.4954 0.6153
H10 H 0.8350 0.3659 0.6258
C15 C 0.5560(2) 0.73419(14) 0.82353(14)
C16 C 0.4236(2) 0.78722(16) 0.82664(16)
C17 C 0.4228(3) 0.8909(2) 0.7639(2)
H11 H 0.3346 0.9268 0.7655
C18 C 0.5486(4) 0.9424(2) 0.6994(2)
H12 H 0.5450 1.0112 0.6562
C19 C 0.6796(3) 0.8918(2) 0.6990(2)
H13 H 0.7658 0.9275 0.6578
C20 C 0.6829(3) 0.78798(18) 0.7599(2)
H14 H 0.7718 0.7533 0.7584
C21 C 0.5762(2) 0.4091(2) 0.60271(17)
H15 H 0.6179 0.4675 0.5429
H16 H 0.4718 0.4198 0.6227
C22 C 0.6061(2) 0.2986(2) 0.56793(18)
H17 H 0.5988 0.2412 0.6305
H18 H 0.5308 0.2840 0.5351
C23 C 0.7502(3) 0.3406(2) 0.38494(17)
H19 H 0.7274 0.4186 0.3806
H20 H 0.6768 0.3056 0.3629
C24 C 0.8971(3) 0.3285(2) 0.3114(2)
H21 H 0.8960 0.3621 0.2393
H22 H 0.9698 0.3671 0.3310
C25 C 0.9347(3) 0.1680(2) 0.4206(2)
H23 H 1.0078 0.2050 0.4414
H24 H 0.9612 0.0907 0.4238
C26 C 0.7904(3) 0.17551(18) 0.49706(19)
H25 H 0.7180 0.1348 0.4792
H26 H 0.7960 0.1421 0.5683
C27 C 0.9308(5) 0.1036(3) 0.8653(3)
H27 H 0.9305 0.0244 0.8732
H28 H 0.8335 0.1302 0.8708
H29 H 0.9668 0.1241 0.9202
C28 C 0.2820(3) 0.7380(2) 0.8989(2)
H30 H 0.2039 0.7871 0.8889
H31 H 0.2868 0.7276 0.9715
H32 H 0.2651 0.6678 0.8826
H33 H 0.589(2) 0.6577(19) 1.0197(19)
H34 H 0.906(3) 0.4850(18) 0.9192(18)
O2 O 0.47311(19) 0.74700(14) 0.11828(14)
C29 C 0.5511(5) 0.8338(3) 0.1366(3)
H35 H 0.6052 0.8036 0.1881
H36 H 0.4827 0.8870 0.1665
C30 C 0.6505(6) 0.8896(4) 0.0405(4)
H37 H 0.7122 0.9392 0.0577
H38 H 0.5964 0.9310 -0.0055
H39 H 0.7091 0.8359 0.0054
H40 H 0.431(3) 0.698(2) 0.176(3)
loop_
_geom_bond_atom_site_label_1
_geom_bond_atom_site_label_2
_geom_bond_site_symmetry_1
_geom_bond_site_symmetry_2
S1 C10 1_555 1_555
O1 C24 1_555 1_555
N1 C9 1_555 1_555
N2 C10 1_555 1_555
N3 C13 1_555 1_555
N4 C22 1_555 1_555
C1 H1 1_555 1_555
C2 C1 1_555 1_555
H2 C2 1_555 1_555
C3 C2 1_555 1_555
H3 C3 1_555 1_555
C4 C3 1_555 1_555
H4 C4 1_555 1_555
C5 C4 1_555 1_555
C6 C1 1_555 1_555
C7 C6 1_555 1_555
H5 C7 1_555 1_555
C8 C7 1_555 1_555
C9 C8 1_555 1_555
C10 N1 1_555 1_555
C11 N2 1_555 1_555
H6 C11 1_555 1_555
C12 C9 1_555 1_555
C13 C12 1_555 1_555
H7 C13 1_555 1_555
H8 C13 1_555 1_555
C14 N3 1_555 1_555
H9 C14 1_555 1_555
H10 C14 1_555 1_555
C15 C11 1_555 1_555
C16 C15 1_555 1_555
C17 C16 1_555 1_555
H11 C17 1_555 1_555
C18 C17 1_555 1_555
H12 C18 1_555 1_555
C19 C18 1_555 1_555
H13 C19 1_555 1_555
C20 C15 1_555 1_555
H14 C20 1_555 1_555
C21 N3 1_555 1_555
H15 C21 1_555 1_555
H16 C21 1_555 1_555
C22 C21 1_555 1_555
H17 C22 1_555 1_555
H18 C22 1_555 1_555
C23 N4 1_555 1_555
H19 C23 1_555 1_555
H20 C23 1_555 1_555
C24 C23 1_555 1_555
H21 C24 1_555 1_555
H22 C24 1_555 1_555
C25 O1 1_555 1_555
H23 C25 1_555 1_555
H24 C25 1_555 1_555
C26 N4 1_555 1_555
H25 C26 1_555 1_555
H26 C26 1_555 1_555
C27 C5 1_555 1_555
H27 C27 1_555 1_555
H28 C27 1_555 1_555
H29 C27 1_555 1_555
C28 C16 1_555 1_555
H30 C28 1_555 1_555
H31 C28 1_555 1_555
H32 C28 1_555 1_555
H33 N2 1_555 1_555
H34 N1 1_555 1_555
O2 C29 1_555 1_555
C29 H35 1_555 1_555
H36 C29 1_555 1_555
C30 C29 1_555 1_555
H37 C30 1_555 1_555
H38 C30 1_555 1_555
H39 C30 1_555 1_555
H40 O2 1_555 1_555
C5 C6 1_555 1_555
C8 C14 1_555 1_555
C11 C12 1_555 1_555
C19 C20 1_555 1_555
C25 C26 1_555 1_555

#END
