
#######################################################################
#
#                 Cambridge Crystallographic Data Centre
#                                CCDC 
#
#######################################################################
#
# If this CIF has been generated from an entry in the Cambridge 
# Structural Database, then it will include bibliographic, chemical, 
# crystal, experimental, refinement or atomic coordinate data resulting 
# from the CCDC's data processing and validation procedures.
#
#######################################################################

data_YILHEG
_chemical_formula_moiety         'C22 H19 N1'
_chemical_name_systematic        1,2-Diphenyl-(N-indolyl)ethane
_symmetry_cell_setting           triclinic
_symmetry_space_group_name_H-M   'P -1'
_symmetry_Int_Tables_number      2
_space_group_name_Hall           '-P 1'
loop_
_symmetry_equiv_pos_site_id
_symmetry_equiv_pos_as_xyz
1 x,y,z
2 -x,-y,-z
_cell_length_a                   12.445(4)
_cell_length_b                   10.738(4)
_cell_length_c                   6.496(2)
_cell_angle_alpha                86.29(3)
_cell_angle_beta                 84.99(3)
_cell_angle_gamma                106.12(3)
_cell_volume                     827.175
_chemical_melting_point          88-89deg.C
_cell_formula_units_Z            2
loop_
_atom_site_label
_atom_site_type_symbol
_atom_site_fract_x
_atom_site_fract_y
_atom_site_fract_z
N1 N 0.1749(1) 0.0374(1) 0.0422(2)
C1 C 0.2254(2) 0.1318(2) 0.1848(3)
C2 C 0.2046(2) 0.2644(2) 0.1298(3)
C3 C 0.2312(2) 0.3514(2) 0.3028(3)
C4 C 0.3362(2) 0.4393(2) 0.3027(4)
C5 C 0.3588(2) 0.5171(2) 0.4674(5)
C6 C 0.2775(2) 0.5058(2) 0.6311(4)
C7 C 0.1735(2) 0.4197(2) 0.6309(4)
C8 C 0.1510(2) 0.3434(2) 0.4685(3)
C9 C 0.3499(2) 0.1444(2) 0.1869(3)
C10 C 0.4198(2) 0.1681(3) 0.0045(4)
C11 C 0.5342(2) 0.1825(4) 0.0044(5)
C12 C 0.5779(2) 0.1732(3) 0.1889(5)
C13 C 0.5086(2) 0.1500(3) 0.3728(5)
C14 C 0.3935(2) 0.1353(2) 0.3703(4)
C15 C 0.1403(2) 0.0614(2) -0.1473(3)
C16 C 0.1041(2) -0.0522(2) -0.2359(3)
C17 C 0.1163(1) -0.1542(2) -0.0960(3)
C18 C 0.0965(2) -0.2883(2) -0.1002(4)
C19 C 0.1192(2) -0.3580(2) 0.0663(4)
C20 C 0.1624(2) -0.2977(2) 0.2370(4)
C21 C 0.1843(2) -0.1658(2) 0.2450(3)
C22 C 0.1613(1) -0.0945(2) 0.0765(3)
H1 H 0.182(2) 0.095(2) 0.344(3)
H2 H 0.121(2) 0.251(2) 0.096(3)
H3 H 0.257(2) 0.310(2) -0.013(3)
H4 H 0.398(2) 0.449(3) 0.174(4)
H5 H 0.440(2) 0.586(3) 0.466(4)
H6 H 0.295(2) 0.566(3) 0.759(4)
H7 H 0.109(2) 0.413(3) 0.758(4)
H8 H 0.071(3) 0.313(4) 0.433(6)
H9 H 0.385(2) 0.181(3) -0.145(4)
H10 H 0.588(2) 0.200(3) -0.140(4)
H11 H 0.664(3) 0.181(3) 0.194(5)
H12 H 0.543(2) 0.143(3) 0.518(4)
H13 H 0.336(2) 0.110(3) 0.520(4)
H14 H 0.114(3) 0.149(3) -0.189(5)
H15 H 0.074(2) -0.060(3) -0.390(4)
H16 H 0.066(2) -0.336(2) -0.231(4)
H17 H 0.104(2) -0.459(2) 0.066(4)
H18 H 0.178(2) -0.354(2) 0.364(4)
H19 H 0.219(2) -0.117(2) 0.374(3)
loop_
_geom_bond_atom_site_label_1
_geom_bond_atom_site_label_2
_geom_bond_site_symmetry_1
_geom_bond_site_symmetry_2
N1 C1 1_555 1_555
C1 C2 1_555 1_555
C2 C3 1_555 1_555
C3 C4 1_555 1_555
C4 C5 1_555 1_555
C5 C6 1_555 1_555
C6 C7 1_555 1_555
C7 C8 1_555 1_555
C8 C3 1_555 1_555
C9 C1 1_555 1_555
C10 C9 1_555 1_555
C11 C10 1_555 1_555
C12 C11 1_555 1_555
C13 C12 1_555 1_555
C14 C9 1_555 1_555
C15 N1 1_555 1_555
C16 C15 1_555 1_555
C17 C16 1_555 1_555
C18 C17 1_555 1_555
C19 C18 1_555 1_555
C20 C19 1_555 1_555
C21 C20 1_555 1_555
C22 N1 1_555 1_555
H1 C1 1_555 1_555
H2 C2 1_555 1_555
H3 C2 1_555 1_555
H4 C4 1_555 1_555
H5 C5 1_555 1_555
H6 C6 1_555 1_555
H7 C7 1_555 1_555
H8 C8 1_555 1_555
H9 C10 1_555 1_555
H10 C11 1_555 1_555
H11 C12 1_555 1_555
H12 C13 1_555 1_555
H13 C14 1_555 1_555
H14 C15 1_555 1_555
H15 C16 1_555 1_555
H16 C18 1_555 1_555
H17 C19 1_555 1_555
H18 C20 1_555 1_555
H19 C21 1_555 1_555
C13 C14 1_555 1_555
C17 C22 1_555 1_555
C21 C22 1_555 1_555

#END
