
#######################################################################
#
#                 Cambridge Crystallographic Data Centre
#                                CCDC 
#
#######################################################################
#
# If this CIF has been generated from an entry in the Cambridge 
# Structural Database, then it will include bibliographic, chemical, 
# crystal, experimental, refinement or atomic coordinate data resulting 
# from the CCDC's data processing and validation procedures.
#
#######################################################################

data_YILHEJ
_chemical_formula_moiety         'C50 H30'
_chemical_name_systematic        2,2'-bi(9,9'-spirobi[fluorene])
_symmetry_cell_setting           monoclinic
_symmetry_space_group_name_H-M   'P 21/n'
_symmetry_Int_Tables_number      14
_space_group_name_Hall           '-P 2yn'
loop_
_symmetry_equiv_pos_site_id
_symmetry_equiv_pos_as_xyz
1 x,y,z
2 1/2-x,1/2+y,1/2-z
3 -x,-y,-z
4 1/2+x,1/2-y,1/2+z
_cell_length_a                   9.4833(8)
_cell_length_b                   10.8649(9)
_cell_length_c                   15.1455(14)
_cell_angle_alpha                90
_cell_angle_beta                 91.177(2)
_cell_angle_gamma                90
_cell_volume                     1560.19
_exptl_crystal_colour            colorless
_exptl_crystal_description       plate
_cell_formula_units_Z            2
_exptl_crystal_preparation       Luminescent
loop_
_atom_site_label
_atom_site_type_symbol
_atom_site_fract_x
_atom_site_fract_y
_atom_site_fract_z
C1 C 0.06613(11) 0.80923(9) 0.14732(7)
C2 C 0.07971(11) 0.86664(9) 0.06637(7)
H1 H 0.1519(15) 0.8342(13) 0.0237(9)
C3 C -0.00607(10) 0.96848(9) 0.04357(7)
C4 C -0.10352(12) 1.00860(10) 0.10635(7)
H2 H -0.1649(16) 1.0796(14) 0.0940(10)
C5 C -0.11652(11) 0.95141(10) 0.18800(7)
H3 H -0.1838(17) 0.9840(14) 0.2314(11)
C6 C -0.03187(11) 0.85047(10) 0.20886(7)
C7 C -0.01677(11) 0.77600(10) 0.28960(7)
C8 C -0.09050(11) 0.77669(11) 0.36834(7)
H4 H -0.1714(16) 0.8333(15) 0.3763(11)
C9 C -0.04662(12) 0.69823(11) 0.43633(7)
H5 H -0.0942(16) 0.6991(14) 0.4935(10)
C10 C 0.06974(12) 0.62087(10) 0.42652(7)
H6 H 0.1052(16) 0.5700(15) 0.4749(10)
C11 C 0.14197(12) 0.61794(10) 0.34706(7)
H7 H 0.2246(16) 0.5651(14) 0.3405(10)
C12 C 0.09617(11) 0.69415(9) 0.27896(7)
C13 C 0.15023(11) 0.70028(9) 0.18486(7)
C14 C 0.30929(11) 0.71145(9) 0.17620(7)
C15 C 0.39634(12) 0.80553(10) 0.20531(7)
H8 H 0.3566(16) 0.8748(14) 0.2368(10)
C16 C 0.54031(12) 0.79857(11) 0.18768(8)
H9 H 0.6022(16) 0.8654(14) 0.2067(10)
C17 C 0.59512(12) 0.69849(11) 0.14244(8)
H10 H 0.6953(17) 0.6953(14) 0.1294(11)
C18 C 0.50779(11) 0.60227(10) 0.11437(7)
H11 H 0.5462(16) 0.5321(14) 0.0824(10)
C19 C 0.36407(11) 0.60918(9) 0.13166(7)
C20 C 0.24726(11) 0.52496(9) 0.10946(7)
C21 C 0.24706(11) 0.40924(10) 0.07012(7)
H12 H 0.3351(15) 0.3719(13) 0.0498(10)
C22 C 0.11954(12) 0.34702(10) 0.05961(7)
H13 H 0.1187(16) 0.2671(15) 0.0318(10)
C23 C -0.00586(12) 0.40008(10) 0.08750(7)
H14 H -0.0945(16) 0.3548(15) 0.0802(11)
C24 C -0.00609(11) 0.51574(10) 0.12746(7)
H15 H -0.0916(16) 0.5522(14) 0.1482(10)
C25 C 0.12113(11) 0.57751(9) 0.13814(7)
C1B C -0.06613(11) 1.19077(9) -0.14732(7)
C2B C -0.07971(11) 1.13336(9) -0.06637(7)
H1B H -0.1519(15) 1.1658(13) -0.0237(9)
C3B C 0.00607(10) 1.03152(9) -0.04357(7)
C4B C 0.10352(12) 0.99140(10) -0.10635(7)
H2B H 0.1649(16) 0.9204(14) -0.0940(10)
C5B C 0.11652(11) 1.04859(10) -0.18800(7)
H3B H 0.1838(17) 1.0160(14) -0.2314(11)
C6B C 0.03187(11) 1.14953(10) -0.20886(7)
C7B C 0.01677(11) 1.22400(10) -0.28960(7)
C8B C 0.09050(11) 1.22331(11) -0.36834(7)
H4B H 0.1714(16) 1.1667(15) -0.3763(11)
C9B C 0.04662(12) 1.30177(11) -0.43633(7)
H5B H 0.0942(16) 1.3009(14) -0.4935(10)
C10B C -0.06974(12) 1.37913(10) -0.42652(7)
H6B H -0.1052(16) 1.4300(15) -0.4749(10)
C11B C -0.14197(12) 1.38206(10) -0.34706(7)
H7B H -0.2246(16) 1.4349(14) -0.3405(10)
C12B C -0.09617(11) 1.30585(9) -0.27896(7)
C13B C -0.15023(11) 1.29972(9) -0.18486(7)
C14B C -0.30929(11) 1.28855(9) -0.17620(7)
C15B C -0.39634(12) 1.19447(10) -0.20531(7)
H8B H -0.3566(16) 1.1252(14) -0.2368(10)
C16B C -0.54031(12) 1.20143(11) -0.18768(8)
H9B H -0.6022(16) 1.1346(14) -0.2067(10)
C17B C -0.59512(12) 1.30151(11) -0.14244(8)
H10B H -0.6953(17) 1.3047(14) -0.1294(11)
C18B C -0.50779(11) 1.39773(10) -0.11437(7)
H11B H -0.5462(16) 1.4679(14) -0.0824(10)
C19B C -0.36407(11) 1.39082(9) -0.13166(7)
C20B C -0.24726(11) 1.47504(9) -0.10946(7)
C21B C -0.24706(11) 1.59076(10) -0.07012(7)
H12B H -0.3351(15) 1.6281(13) -0.0498(10)
C22B C -0.11954(12) 1.65298(10) -0.05961(7)
H13B H -0.1187(16) 1.7329(15) -0.0318(10)
C23B C 0.00586(12) 1.59992(10) -0.08750(7)
H14B H 0.0945(16) 1.6452(15) -0.0802(11)
C24B C 0.00609(11) 1.48426(10) -0.12746(7)
H15B H 0.0916(16) 1.4478(14) -0.1482(10)
C25B C -0.12113(11) 1.42249(9) -0.13814(7)
loop_
_geom_bond_atom_site_label_1
_geom_bond_atom_site_label_2
_geom_bond_site_symmetry_1
_geom_bond_site_symmetry_2
C1 C2 1_555 1_555
C2 H1 1_555 1_555
C3 C2 1_555 1_555
C4 C3 1_555 1_555
H2 C4 1_555 1_555
C5 C4 1_555 1_555
H3 C5 1_555 1_555
C6 C1 1_555 1_555
C7 C6 1_555 1_555
C8 C7 1_555 1_555
H4 C8 1_555 1_555
C9 C8 1_555 1_555
H5 C9 1_555 1_555
C10 C9 1_555 1_555
H6 C10 1_555 1_555
C11 C10 1_555 1_555
H7 C11 1_555 1_555
C12 C7 1_555 1_555
C13 C1 1_555 1_555
C14 C13 1_555 1_555
C15 C14 1_555 1_555
H8 C15 1_555 1_555
C16 C15 1_555 1_555
H9 C16 1_555 1_555
C17 C16 1_555 1_555
H10 C17 1_555 1_555
C18 C17 1_555 1_555
H11 C18 1_555 1_555
C19 C14 1_555 1_555
C20 C19 1_555 1_555
C21 C20 1_555 1_555
H12 C21 1_555 1_555
C22 C21 1_555 1_555
H13 C22 1_555 1_555
C23 C22 1_555 1_555
H14 C23 1_555 1_555
C24 C23 1_555 1_555
H15 C24 1_555 1_555
C25 C13 1_555 1_555
C1B C2B 1_555 1_555
C2B H1B 1_555 1_555
C3B C3 1_555 1_555
C4B C3B 1_555 1_555
H2B C4B 1_555 1_555
C5B C4B 1_555 1_555
H3B C5B 1_555 1_555
C6B C1B 1_555 1_555
C7B C6B 1_555 1_555
C8B C7B 1_555 1_555
H4B C8B 1_555 1_555
C9B C8B 1_555 1_555
H5B C9B 1_555 1_555
C10B C9B 1_555 1_555
H6B C10B 1_555 1_555
C11B C10B 1_555 1_555
H7B C11B 1_555 1_555
C12B C7B 1_555 1_555
C13B C1B 1_555 1_555
C14B C13B 1_555 1_555
C15B C14B 1_555 1_555
H8B C15B 1_555 1_555
C16B C15B 1_555 1_555
H9B C16B 1_555 1_555
C17B C16B 1_555 1_555
H10B C17B 1_555 1_555
C18B C17B 1_555 1_555
H11B C18B 1_555 1_555
C19B C14B 1_555 1_555
C20B C19B 1_555 1_555
C21B C20B 1_555 1_555
H12B C21B 1_555 1_555
C22B C21B 1_555 1_555
H13B C22B 1_555 1_555
C23B C22B 1_555 1_555
H14B C23B 1_555 1_555
C24B C23B 1_555 1_555
H15B C24B 1_555 1_555
C25B C13B 1_555 1_555
C5 C6 1_555 1_555
C11 C12 1_555 1_555
C12 C13 1_555 1_555
C18 C19 1_555 1_555
C20 C25 1_555 1_555
C24 C25 1_555 1_555
C2B C3B 1_555 1_555
C5B C6B 1_555 1_555
C11B C12B 1_555 1_555
C12B C13B 1_555 1_555
C18B C19B 1_555 1_555
C20B C25B 1_555 1_555
C24B C25B 1_555 1_555

#END
