
#######################################################################
#
#                 Cambridge Crystallographic Data Centre
#                                CCDC 
#
#######################################################################
#
# If this CIF has been generated from an entry in the Cambridge 
# Structural Database, then it will include bibliographic, chemical, 
# crystal, experimental, refinement or atomic coordinate data resulting 
# from the CCDC's data processing and validation procedures.
#
#######################################################################

data_YILJAH
_chemical_formula_moiety         'C17 H20 O3'
_chemical_name_systematic        
3-(cyclopropanecarbonyl)-2-ethyl-2-hydroxy-3-methyl-3,4-dihydronaphthalen-1(2H)-one
_symmetry_cell_setting           orthorhombic
_symmetry_space_group_name_H-M   'P 21 21 21'
_symmetry_Int_Tables_number      19
_space_group_name_Hall           'P 2ac 2ab'
loop_
_symmetry_equiv_pos_site_id
_symmetry_equiv_pos_as_xyz
1 x,y,z
2 1/2-x,-y,1/2+z
3 1/2+x,1/2-y,-z
4 -x,1/2+y,1/2-z
_cell_length_a                   10.4344(2)
_cell_length_b                   11.4942(2)
_cell_length_c                   11.5277(2)
_cell_angle_alpha                90
_cell_angle_beta                 90
_cell_angle_gamma                90
_cell_volume                     1382.58
_exptl_crystal_colour            colorless
_exptl_crystal_description       prism
_cell_formula_units_Z            4
loop_
_atom_site_label
_atom_site_type_symbol
_atom_site_fract_x
_atom_site_fract_y
_atom_site_fract_z
O1 O 0.40902(13) 0.61107(12) 0.57198(11)
O2 O 0.22841(14) 0.20278(13) 0.31468(11)
O3 O 0.24937(13) 0.42911(12) 0.29281(10)
H1 H 0.212716 0.378005 0.255897
C1 C 0.20095(19) 0.7539(2) 0.48458(17)
H2 H 0.117629 0.780762 0.458595
H3 H 0.217024 0.763616 0.566889
C2 C 0.3107(2) 0.76787(19) 0.40422(18)
H4 H 0.393560 0.786388 0.437666
H5 H 0.294223 0.803524 0.329436
C3 C 0.25774(19) 0.64738(19) 0.42511(16)
H6 H 0.207939 0.611372 0.362606
C4 C 0.33526(17) 0.56946(19) 0.50061(14)
C5 C 0.17057(18) 0.42406(19) 0.53695(16)
H7 H 0.153343 0.343668 0.553251
H8 H 0.114626 0.450505 0.476325
H9 H 0.156268 0.469515 0.605607
C6 C 0.31161(17) 0.43778(18) 0.49772(14)
C7 C 0.40173(17) 0.37926(18) 0.58494(15)
H10 H 0.489469 0.398991 0.565283
H11 H 0.384340 0.410064 0.661675
C8 C 0.38879(18) 0.24860(18) 0.58830(16)
C9 C 0.42702(18) 0.18754(18) 0.68738(16)
H12 H 0.463915 0.227462 0.749095
C10 C 0.41048(18) 0.06829(19) 0.69446(16)
H13 H 0.435522 0.028829 0.761148
C11 C 0.35680(19) 0.0073(2) 0.60279(16)
H14 H 0.345863 -0.072869 0.608140
C12 C 0.31947(17) 0.06563(19) 0.50322(16)
H15 H 0.283645 0.024760 0.441604
C13 C 0.33569(17) 0.18563(19) 0.49559(15)
C14 C 0.29204(19) 0.24928(19) 0.39100(15)
C15 C 0.33001(17) 0.37738(18) 0.37746(14)
C16 C 0.46927(18) 0.37845(19) 0.33102(15)
H16 H 0.523093 0.335824 0.384876
H17 H 0.471240 0.337432 0.257510
C17 C 0.52647(19) 0.49913(19) 0.31346(17)
H18 H 0.464786 0.548295 0.275843
H19 H 0.601860 0.493324 0.266084
H20 H 0.548793 0.531811 0.387385
loop_
_geom_bond_atom_site_label_1
_geom_bond_atom_site_label_2
_geom_bond_site_symmetry_1
_geom_bond_site_symmetry_2
O1 C4 1_555 1_555
O2 C14 1_555 1_555
O3 H1 1_555 1_555
C1 H2 1_555 1_555
H3 C1 1_555 1_555
C2 C1 1_555 1_555
H4 C2 1_555 1_555
H5 C2 1_555 1_555
C3 C1 1_555 1_555
H6 C3 1_555 1_555
C4 C3 1_555 1_555
C5 H7 1_555 1_555
H8 C5 1_555 1_555
H9 C5 1_555 1_555
C6 C4 1_555 1_555
C7 C6 1_555 1_555
H10 C7 1_555 1_555
H11 C7 1_555 1_555
C8 C7 1_555 1_555
C9 C8 1_555 1_555
H12 C9 1_555 1_555
C10 C9 1_555 1_555
H13 C10 1_555 1_555
C11 C10 1_555 1_555
H14 C11 1_555 1_555
C12 C11 1_555 1_555
H15 C12 1_555 1_555
C13 C8 1_555 1_555
C14 C13 1_555 1_555
C15 O3 1_555 1_555
C16 C15 1_555 1_555
H16 C16 1_555 1_555
H17 C16 1_555 1_555
C17 C16 1_555 1_555
H18 C17 1_555 1_555
H19 C17 1_555 1_555
H20 C17 1_555 1_555
C2 C3 1_555 1_555
C5 C6 1_555 1_555
C6 C15 1_555 1_555
C12 C13 1_555 1_555
C14 C15 1_555 1_555

#END
