
#######################################################################
#
#                 Cambridge Crystallographic Data Centre
#                                CCDC 
#
#######################################################################
#
# If this CIF has been generated from an entry in the Cambridge 
# Structural Database, then it will include bibliographic, chemical, 
# crystal, experimental, refinement or atomic coordinate data resulting 
# from the CCDC's data processing and validation procedures.
#
#######################################################################

data_YILLIQ
_chemical_formula_moiety         'C24 H14 B1 F2 N3'
_chemical_name_systematic        
2,3-bis(4-ethynylphenyl)-5,5-difluoro-5H-imidazo[1',2':3,4][1,3,2]diazaborolo[1,5-a]pyridine
_symmetry_cell_setting           monoclinic
_symmetry_space_group_name_H-M   'P 21/c'
_symmetry_Int_Tables_number      14
_space_group_name_Hall           '-P 2ybc'
loop_
_symmetry_equiv_pos_site_id
_symmetry_equiv_pos_as_xyz
1 x,y,z
2 -x,1/2+y,1/2-z
3 -x,-y,-z
4 x,1/2-y,1/2+z
_cell_length_a                   12.406(13)
_cell_length_b                   6.729(7)
_cell_length_c                   28.52(3)
_cell_angle_alpha                90
_cell_angle_beta                 97.724(14)
_cell_angle_gamma                90
_cell_volume                     2359.25
_cell_formula_units_Z            4
loop_
_atom_site_label
_atom_site_type_symbol
_atom_site_fract_x
_atom_site_fract_y
_atom_site_fract_z
C1 C 0.0988(7) 0.2659(11) 0.2313(2)
H1 H 0.0555 0.2799 0.2552
C2 C 0.2069(7) 0.2584(13) 0.2424(3)
H2 H 0.2391 0.2637 0.2737
C3 C 0.2689(6) 0.2427(13) 0.2063(3)
H3 H 0.3438 0.2292 0.2138
C4 C 0.2262(6) 0.2460(11) 0.1604(3)
H4 H 0.2699 0.2369 0.1365
C5 C 0.1134(5) 0.2636(9) 0.1502(2)
C6 C 0.0421(5) 0.2534(9) 0.1062(2)
C7 C -0.0501(5) 0.2590(9) 0.0378(2)
C8 C -0.1243(5) 0.2577(9) 0.0706(2)
C9 C -0.0701(5) 0.2457(9) -0.0147(2)
C10 C 0.0174(5) 0.2530(10) -0.0402(2)
H5 H 0.0876 0.2663 -0.0243
C11 C 0.0011(6) 0.2403(10) -0.0897(2)
H6 H 0.0605 0.2281 -0.1063
C12 C -0.1024(6) 0.2459(10) -0.1138(2)
C13 C -0.1907(6) 0.2438(12) -0.0880(3)
H7 H -0.2613 0.2429 -0.1039
C14 C -0.1737(6) 0.2430(11) -0.0393(2)
H8 H -0.2332 0.2406 -0.0226
C15 C -0.1245(7) 0.2450(11) -0.1649(3)
C16 C -0.1450(7) 0.2673(12) -0.2061(3)
H9 H -0.1612 0.2849 -0.2386
C17 C -0.2441(5) 0.2502(10) 0.0660(2)
C18 C -0.3034(8) 0.0786(15) 0.0679(6)
H10 H -0.2684 -0.0439 0.0696
C19 C -0.4151(11) 0.088(2) 0.0673(6)
H11 H -0.4520 -0.0269 0.0740
C20 C -0.4720(6) 0.2547(14) 0.0573(3)
C21 C -0.4176(7) 0.4223(16) 0.0538(5)
H12 H -0.4552 0.5411 0.0476
C22 C -0.3046(7) 0.4214(15) 0.0593(5)
H13 H -0.2683 0.5420 0.0585
C23 C -0.5883(6) 0.2505(14) 0.0525(3)
C24 C -0.6861(7) 0.2480(16) 0.0477(3)
H14 H -0.7617 0.2460 0.0441
F1 F -0.1269(3) 0.4181(7) 0.17962(14)
F2 F -0.1196(4) 0.0832(8) 0.18432(17)
N1 N 0.0517(5) 0.2537(9) 0.1861(2)
N2 N 0.0555(4) 0.2584(7) 0.06114(18)
N3 N -0.0639(4) 0.2561(8) 0.11365(18)
B1 B -0.0770(7) 0.2522(15) 0.1665(3)
loop_
_geom_bond_atom_site_label_1
_geom_bond_atom_site_label_2
_geom_bond_site_symmetry_1
_geom_bond_site_symmetry_2
C1 H1 1_555 1_555
C2 C1 1_555 1_555
H2 C2 1_555 1_555
C3 C2 1_555 1_555
H3 C3 1_555 1_555
C4 C3 1_555 1_555
H4 C4 1_555 1_555
C5 C4 1_555 1_555
C6 C5 1_555 1_555
C7 C8 1_555 1_555
C8 C17 1_555 1_555
C9 C7 1_555 1_555
C10 C9 1_555 1_555
H5 C10 1_555 1_555
C11 C10 1_555 1_555
H6 C11 1_555 1_555
C12 C11 1_555 1_555
C13 C12 1_555 1_555
H7 C13 1_555 1_555
C14 C9 1_555 1_555
H8 C14 1_555 1_555
C15 C12 1_555 1_555
C16 C15 1_555 1_555
H9 C16 1_555 1_555
C17 C18 1_555 1_555
C18 H10 1_555 1_555
C19 C18 1_555 1_555
H11 C19 1_555 1_555
C20 C19 1_555 1_555
C21 C20 1_555 1_555
H12 C21 1_555 1_555
C22 C17 1_555 1_555
H13 C22 1_555 1_555
C23 C20 1_555 1_555
C24 C23 1_555 1_555
H14 C24 1_555 1_555
F1 B1 1_555 1_555
F2 B1 1_555 1_555
N1 C1 1_555 1_555
N2 C6 1_555 1_555
N3 C6 1_555 1_555
B1 N1 1_555 1_555
C5 N1 1_555 1_555
C7 N2 1_555 1_555
C8 N3 1_555 1_555
C13 C14 1_555 1_555
C21 C22 1_555 1_555
N3 B1 1_555 1_555

#END
