
#######################################################################
#
#                 Cambridge Crystallographic Data Centre
#                                CCDC 
#
#######################################################################
#
# If this CIF has been generated from an entry in the Cambridge 
# Structural Database, then it will include bibliographic, chemical, 
# crystal, experimental, refinement or atomic coordinate data resulting 
# from the CCDC's data processing and validation procedures.
#
#######################################################################

data_YILTES
_chemical_formula_moiety         'C17 H27 I1 O5 Si1'
_chemical_name_systematic        
(3E,3aS,4R,7S,8S,8aR)-3a-((t-Butyldimethylsilyl)oxy)-8-hydroxy-3-iodomethylidene-7-methyl-hexahydro-4,7-methanofuro(2,3-d)oxepin-5-(4H)-one
_symmetry_cell_setting           orthorhombic
_symmetry_space_group_name_H-M   'P 21 21 21'
_symmetry_Int_Tables_number      19
_space_group_name_Hall           'P 2ac 2ab'
loop_
_symmetry_equiv_pos_site_id
_symmetry_equiv_pos_as_xyz
1 x,y,z
2 1/2-x,-y,1/2+z
3 1/2+x,1/2-y,-z
4 -x,1/2+y,1/2-z
_cell_length_a                   6.703
_cell_length_b                   12.273
_cell_length_c                   24.685
_cell_angle_alpha                90
_cell_angle_beta                 90
_cell_angle_gamma                90
_cell_volume                     2030.73
_chemical_melting_point          '107-108 deg.C'
_cell_formula_units_Z            4
loop_
_atom_site_label
_atom_site_type_symbol
_atom_site_fract_x
_atom_site_fract_y
_atom_site_fract_z
I1 I 0.1607(2) -0.01380(7) 0.38956(4)
Si1 Si 0.1923(5) -0.4300(3) 0.4232(1)
O1 O 0.292(1) -0.4567(36) 0.2120(3)
O2 O 0.128(1) -0.5641(6) 0.2677(3)
C1 C 0.173(2) -0.4751(9) 0.2556(4)
C2 C 0.125(1) -0.3672(9) 0.2814(4)
C3 C 0.137(2) -0.2925(9) 0.2322(4)
C4 C 0.317(2) -0.3389(8) 0.2036(4)
C5 C 0.327(2) -0.317(1) 0.1438(4)
C6 C 0.506(2) -0.304(1) 0.2338(4)
O3 O 0.513(1) -0.1908(7) 0.2315(3)
C7 C 0.502(2) -0.3449(9) 0.2939(4)
O4 O 0.631(1) -0.2797(6) 0.3258(3)
C8 C 0.519(2) -0.197(1) 0.3533(5)
C9 C 0.298(2) -0.2258(9) 0.3449(4)
C10 C 0.141(2) -0.162(1) 0.3535(4)
C11 C 0.297(2) -0.3393(8) 0.3217(4)
O5 O 0.302(1) -0.4198(5) 0.3636(2)
C12 C 0.302(3) -0.335(1) 0.4718(4)
C13 C -0.081(2) -0.405(1) 0.4192(6)
C14 C 0.239(2) -0.573(1) 0.4452(5)
C15 C 0.470(3) -0.591(1) 0.4469(7)
C16 C 0.153(4) -0.654(1) 0.4051(6)
C17 C 0.159(3) -0.593(1) 0.5013(5)
loop_
_geom_bond_atom_site_label_1
_geom_bond_atom_site_label_2
_geom_bond_site_symmetry_1
_geom_bond_site_symmetry_2
I1 C10 1_555 1_555
Si1 O5 1_555 1_555
O1 C1 1_555 1_555
O2 C1 1_555 1_555
C1 C2 1_555 1_555
C2 C3 1_555 1_555
C3 C4 1_555 1_555
C4 O1 1_555 1_555
C5 C4 1_555 1_555
C6 C4 1_555 1_555
O3 C6 1_555 1_555
C7 C6 1_555 1_555
O4 C7 1_555 1_555
C8 O4 1_555 1_555
C9 C8 1_555 1_555
C10 C9 1_555 1_555
C11 C2 1_555 1_555
O5 C11 1_555 1_555
C12 Si1 1_555 1_555
C13 Si1 1_555 1_555
C14 Si1 1_555 1_555
C15 C14 1_555 1_555
C16 C14 1_555 1_555
C17 C14 1_555 1_555
C7 C11 1_555 1_555
C9 C11 1_555 1_555

#END
