
#######################################################################
#
#                 Cambridge Crystallographic Data Centre
#                                CCDC 
#
#######################################################################
#
# If this CIF has been generated from an entry in the Cambridge 
# Structural Database, then it will include bibliographic, chemical, 
# crystal, experimental, refinement or atomic coordinate data resulting 
# from the CCDC's data processing and validation procedures.
#
#######################################################################

data_YILZEZ
_chemical_name_common            
'1,8-bis(Nicotiniumoxy)-9,10-anthracenedione diperchlorate'
_chemical_formula_moiety         'C26 H16 N2 O6 2+,2(Cl1 O4 1-)'
_chemical_name_systematic        
'1,8-bis(3-Pyridiniumcarboxylato)-9,10-anthracenedione diperchlorate'
_symmetry_cell_setting           triclinic
_symmetry_space_group_name_H-M   'P -1'
_symmetry_Int_Tables_number      2
_space_group_name_Hall           '-P 1'
loop_
_symmetry_equiv_pos_site_id
_symmetry_equiv_pos_as_xyz
1 x,y,z
2 -x,-y,-z
_cell_length_a                   7.980(5)
_cell_length_b                   18.083(15)
_cell_length_c                   20.064(17)
_cell_angle_alpha                65.35(1)
_cell_angle_beta                 78.70(1)
_cell_angle_gamma                81.89(1)
_cell_volume                     2574.7
_exptl_crystal_colour            yellow
_exptl_crystal_description       block
_chemical_melting_point          148-158deg.C
_cell_formula_units_Z            4
loop_
_atom_site_label
_atom_site_type_symbol
_atom_site_fract_x
_atom_site_fract_y
_atom_site_fract_z
C1 C 0.8253(9) 0.4129(4) 0.5425(4)
H1 H 0.8099 0.4487 0.5660
C3 C 0.4445(9) 0.3735(5) 0.1747(4)
H3 H 0.4334 0.4084 0.1260
O12 O 0.8520(6) 0.1443(3) 0.5545(2)
O13 O 0.8306(6) -0.1961(3) 0.5827(3)
N3 N 0.4042(7) 0.3486(3) 0.3002(3)
H19 H 0.3664 0.3659 0.3347
N4 N 0.8954(7) 0.3885(3) 0.4350(3)
H20 H 0.9283 0.4072 0.3879
C29 C 0.7331(8) 0.0551(4) 0.4852(3)
O14 O 0.6986(8) 0.1283(3) 0.4586(3)
O15 O 0.7004(7) 0.1374(3) 0.2371(3)
O17 O 0.5745(6) 0.1145(3) 0.3545(2)
C30 C 0.8348(8) -0.0703(4) 0.5898(3)
C31 C 0.9140(9) 0.0228(4) 0.6573(4)
H21 H 0.9412 0.0541 0.6800
C32 C 0.6154(9) 0.1606(4) 0.2816(4)
C33 C 0.8097(7) 0.0155(4) 0.5555(3)
O18 O 0.7079(7) 0.1673(3) 0.6535(3)
C34 C 0.8538(8) 0.0600(4) 0.5907(3)
C35 C 0.7366(8) -0.0831(4) 0.4822(3)
C36 C 0.5201(9) 0.2959(4) 0.1909(4)
H22 H 0.5608 0.2778 0.1532
C37 C 0.5350(8) 0.2448(4) 0.2642(3)
C38 C 0.5995(9) -0.0188(4) 0.3523(4)
H23 H 0.5509 0.0030 0.3090
C39 C 0.9342(9) -0.0608(5) 0.6904(4)
H24 H 0.9751 -0.0858 0.7355
C40 C 0.6309(8) 0.0320(4) 0.3847(3)
C41 C 0.8027(8) -0.1221(4) 0.5536(4)
C42 C 0.6982(8) 0.0019(4) 0.4501(3)
C43 C 0.8208(8) 0.2792(4) 0.5466(3)
C44 C 0.8691(8) 0.3093(4) 0.4706(4)
H25 H 0.8828 0.2756 0.4451
C45 C 0.3867(9) 0.3985(4) 0.2304(4)
H26 H 0.3346 0.4507 0.2200
C46 C 0.7849(8) 0.1916(4) 0.5916(4)
C47 C 0.7992(8) 0.3312(4) 0.5828(4)
H27 H 0.7673 0.3112 0.6340
C48 C 0.7077(9) -0.1332(4) 0.4490(4)
H28 H 0.7346 -0.1890 0.4711
C49 C 0.6409(9) -0.1014(4) 0.3850(4)
H29 H 0.6229 -0.1353 0.3630
C50 C 0.4777(8) 0.2731(4) 0.3189(3)
H30 H 0.4899 0.2404 0.3680
C51 C 0.8740(9) 0.4403(5) 0.4676(4)
H31 H 0.8921 0.4951 0.4394
C52 C 0.8946(9) -0.1079(4) 0.6575(4)
H32 H 0.9078 -0.1644 0.6803
C2 C -0.1147(9) 0.4052(4) 1.0346(4)
H2 H -0.1319 0.4425 1.0565
O2 O 0.3029(7) -0.1914(3) 1.0670(3)
O3 O 0.4740(6) 0.1392(3) 0.8381(2)
C4 C 0.4599(9) 0.0552(4) 0.8653(4)
C5 C 0.0958(9) -0.1155(4) 1.1512(4)
H4 H 0.1138 -0.1720 1.1723
C6 C 0.2424(9) 0.0618(4) 0.9720(4)
C7 C -0.0420(8) 0.2693(4) 1.0407(3)
C8 C 0.4708(9) -0.1121(4) 0.9233(4)
H5 H 0.4756 -0.1687 0.9435
C9 C 0.4023(8) 0.1878(4) 0.7765(3)
O6 O 0.0857(7) 0.1621(3) 1.1363(3)
C10 C 0.1480(8) 0.0139(4) 1.0464(4)
O7 O -0.0156(6) 0.1344(3) 1.0531(2)
C11 C 0.0316(8) 0.0506(4) 1.0875(4)
N1 N 0.4428(7) 0.3791(3) 0.7939(3)
H6 H 0.4528 0.3947 0.8279
C12 C 0.0174(8) 0.1832(4) 1.0832(4)
C13 C 0.3623(8) 0.0164(4) 0.9329(3)
C14 C 0.4338(9) 0.4362(4) 0.7255(4)
H7 H 0.4391 0.4910 0.7153
O10 O 0.2205(9) 0.1351(3) 0.9436(3)
N2 N -0.1088(6) 0.3754(3) 0.9322(3)
H8 H -0.1183 0.3927 0.8861
C15 C 0.4168(8) 0.2748(4) 0.7589(3)
C16 C 0.5586(8) 0.0133(4) 0.8252(4)
H9 H 0.6228 0.0413 0.7793
C17 C 0.3734(8) -0.0702(4) 0.9634(4)
C18 C 0.1761(8) -0.0718(4) 1.0802(4)
C19 C 0.4054(8) 0.3323(4) 0.6874(4)
H10 H 0.3899 0.3159 0.6510
C20 C 0.4371(8) 0.2999(4) 0.8125(3)
H11 H 0.4467 0.2624 0.8605
C21 C 0.5594(10) -0.0715(4) 0.8549(4)
H12 H 0.6207 -0.1004 0.8279
O11 O 0.3383(7) 0.1625(3) 0.7425(3)
C22 C 0.2866(8) -0.1176(4) 1.0390(4)
C23 C -0.0647(9) 0.3241(4) 1.0745(4)
H13 H -0.0466 0.3066 1.1233
C24 C -0.1377(9) 0.4289(4) 0.9636(4)
H14 H -0.1738 0.4826 0.9364
C25 C 0.4166(9) 0.4125(4) 0.6707(4)
H15 H 0.4128 0.4511 0.6225
C26 C -0.0092(9) -0.0769(4) 1.1906(4)
H16 H -0.0559 -0.1065 1.2396
C27 C -0.0469(9) 0.0069(5) 1.1578(4)
H17 H -0.1246 0.0329 1.1834
C28 C -0.0660(8) 0.2968(4) 0.9683(3)
H18 H -0.0526 0.2611 0.9448
Cl1 Cl 0.4140(2) 0.37310(10) 0.97671(9)
O4 O 0.3040(8) 0.4197(4) 1.0110(3)
O5 O 0.5042(7) 0.4258(3) 0.9065(3)
O8 O 0.5340(6) 0.3249(3) 1.0238(3)
O9 O 0.3204(7) 0.3204(4) 0.9639(3)
Cl2 Cl -0.0829(2) 0.37918(10) 0.75050(8)
O1 O -0.1974(6) 0.4231(3) 0.7890(3)
O22 O -0.1792(7) 0.3276(4) 0.7378(3)
O23 O 0.0004(8) 0.4350(4) 0.6823(3)
O24 O 0.0380(7) 0.3303(3) 0.7971(3)
Cl3 Cl 0.3704(2) 0.37064(9) 0.47413(8)
O16 O 0.3009(7) 0.4188(3) 0.4056(3)
O19 O 0.2354(8) 0.3373(4) 0.5324(3)
O20 O 0.4813(7) 0.3060(3) 0.4634(3)
O21 O 0.4616(8) 0.4214(3) 0.4899(3)
Cl4 Cl 0.0852(2) 0.61785(11) 0.74947(9)
O25 O 0.0723(14) 0.6958(5) 0.7512(5)
O26 O 0.0357(18) 0.5598(7) 0.8197(4)
O27 O 0.2514(10) 0.6033(8) 0.7173(8)
O28 O -0.0273(9) 0.6161(7) 0.7014(4)
O29? O 0.207(6) 0.570(2) 0.793(2)
O30? O -0.041(7) 0.641(4) 0.796(3)
O31? O 0.169(8) 0.689(4) 0.695(4)
O32? O 0.017(6) 0.575(3) 0.722(2)
loop_
_geom_bond_atom_site_label_1
_geom_bond_atom_site_label_2
_geom_bond_site_symmetry_1
_geom_bond_site_symmetry_2
C1 H1 1_555 1_555
C2 H2 1_555 1_555
C3 H3 1_555 1_555
Cl1 O4 1_555 1_555
Cl2 O1 1_555 1_555
O2 C22 1_555 1_555
O3 C4 1_555 1_555
C4 C13 1_555 1_555
C5 H4 1_555 1_555
C6 C10 1_555 1_555
C7 C12 1_555 1_555
C8 H5 1_555 1_555
C9 O3 1_555 1_555
O5 Cl1 1_555 1_555
O6 C12 1_555 1_555
C10 C11 1_555 1_555
O7 C11 1_555 1_555
C11 C27 1_555 1_555
O8 Cl1 1_555 1_555
N1 H6 1_555 1_555
O9 Cl1 1_555 1_555
C12 O7 1_555 1_555
C13 C6 1_555 1_555
C14 N1 1_555 1_555
H7 C14 1_555 1_555
O10 C6 1_555 1_555
N2 H8 1_555 1_555
C15 C9 1_555 1_555
C16 C4 1_555 1_555
H9 C16 1_555 1_555
C17 C8 1_555 1_555
C18 C5 1_555 1_555
C19 C15 1_555 1_555
H10 C19 1_555 1_555
C20 N1 1_555 1_555
H11 C20 1_555 1_555
C21 C8 1_555 1_555
H12 C21 1_555 1_555
O11 C9 1_555 1_555
C22 C17 1_555 1_555
C23 C2 1_555 1_555
H13 C23 1_555 1_555
C24 C2 1_555 1_555
H14 C24 1_555 1_555
C25 C14 1_555 1_555
H15 C25 1_555 1_555
C26 C5 1_555 1_555
H16 C26 1_555 1_555
C27 C26 1_555 1_555
H17 C27 1_555 1_555
C28 C7 1_555 1_555
H18 C28 1_555 1_555
Cl3 O16 1_555 1_555
O12 C34 1_555 1_555
O13 C41 1_555 1_555
N3 H19 1_555 1_555
N4 H20 1_555 1_555
C29 O14 1_555 1_555
O15 C32 1_555 1_555
O17 C32 1_555 1_555
C30 C33 1_555 1_555
C31 H21 1_555 1_555
C32 C37 1_555 1_555
C33 C29 1_555 1_555
O18 C46 1_555 1_555
C34 C31 1_555 1_555
O19 Cl3 1_555 1_555
O20 Cl3 1_555 1_555
C35 C41 1_555 1_555
O21 Cl3 1_555 1_555
C36 C3 1_555 1_555
H22 C36 1_555 1_555
C37 C36 1_555 1_555
C38 H23 1_555 1_555
C39 C31 1_555 1_555
H24 C39 1_555 1_555
C40 O17 1_555 1_555
C41 C30 1_555 1_555
C42 C29 1_555 1_555
C43 C44 1_555 1_555
C44 N4 1_555 1_555
H25 C44 1_555 1_555
C45 C3 1_555 1_555
H26 C45 1_555 1_555
C46 O12 1_555 1_555
C47 C1 1_555 1_555
H27 C47 1_555 1_555
C48 C35 1_555 1_555
H28 C48 1_555 1_555
C49 C38 1_555 1_555
H29 C49 1_555 1_555
C50 N3 1_555 1_555
H30 C50 1_555 1_555
C51 C1 1_555 1_555
H31 C51 1_555 1_555
C52 C30 1_555 1_555
H32 C52 1_555 1_555
Cl4 O25 1_555 1_555
O22 Cl2 1_555 1_555
O23 Cl2 1_555 1_555
O24 Cl2 1_555 1_555
O26 Cl4 1_555 1_555
O27 Cl4 1_555 1_555
O28 Cl4 1_555 1_555
C7 C23 1_555 1_555
C10 C18 1_555 1_555
C13 C17 1_555 1_555
N2 C24 1_555 1_555
N2 C28 1_555 1_555
C15 C20 1_555 1_555
C16 C21 1_555 1_555
C18 C22 1_555 1_555
C19 C25 1_555 1_555
N3 C45 1_555 1_555
N4 C51 1_555 1_555
C33 C34 1_555 1_555
C35 C42 1_555 1_555
C37 C50 1_555 1_555
C38 C40 1_555 1_555
C39 C52 1_555 1_555
C40 C42 1_555 1_555
C43 C46 1_555 1_555
C43 C47 1_555 1_555
C48 C49 1_555 1_555

#END
