
#######################################################################
#
#                 Cambridge Crystallographic Data Centre
#                                CCDC 
#
#######################################################################
#
# If this CIF has been generated from an entry in the Cambridge 
# Structural Database, then it will include bibliographic, chemical, 
# crystal, experimental, refinement or atomic coordinate data resulting 
# from the CCDC's data processing and validation procedures.
#
#######################################################################

data_YILZUP
_chemical_formula_moiety         'C22 H10 N2 O6 S2'
_chemical_name_systematic        
1,8-bis(Thiazol-4-ylcarboxylato)-9,10-anthracenedione
_symmetry_cell_setting           orthorhombic
_symmetry_space_group_name_H-M   'F d 2 d'
_symmetry_Int_Tables_number      43
_space_group_name_Hall           'F -2d -2d'
loop_
_symmetry_equiv_pos_site_id
_symmetry_equiv_pos_as_xyz
1 x,y,z
2 -x,y,-z
3 1/4-x,1/4+y,1/4+z
4 1/4+x,1/4+y,1/4-z
5 x,1/2+y,1/2+z
6 -x,1/2+y,1/2-z
7 1/4-x,3/4+y,3/4+z
8 1/4+x,3/4+y,3/4-z
9 1/2+x,y,1/2+z
10 1/2-x,y,1/2-z
11 3/4-x,1/4+y,3/4+z
12 3/4+x,1/4+y,3/4-z
13 1/2+x,1/2+y,z
14 1/2-x,1/2+y,-z
15 3/4-x,3/4+y,1/4+z
16 3/4+x,3/4+y,1/4-z
_cell_length_a                   5.1086(3)
_cell_length_b                   24.6716(17)
_cell_length_c                   29.944(2)
_cell_angle_alpha                90
_cell_angle_beta                 90
_cell_angle_gamma                90
_cell_volume                     3774.06
_exptl_crystal_description       plate
_chemical_melting_point          260-262deg.C
_cell_formula_units_Z            8
loop_
_atom_site_label
_atom_site_type_symbol
_atom_site_fract_x
_atom_site_fract_y
_atom_site_fract_z
S1 S 0.42744(18) 0.73986(3) 0.19944(3)
O1 O -0.2500 0.56953(11) 0.2500
O2 O 0.1841(4) 0.56907(8) 0.19841(7)
O3 O -0.2500 0.35180(13) 0.2500
O4 O -0.1401(4) 0.59157(9) 0.15128(7)
C1 C -0.0622(5) 0.48873(11) 0.22132(9)
N1 N -0.0004(5) 0.70319(11) 0.16653(9)
C2 C 0.2968(6) 0.48428(15) 0.16799(9)
H1 H 0.4228 0.5020 0.1510
C3 C -0.2500 0.52030(15) 0.2500
C4 C 0.1295(6) 0.51383(12) 0.19513(9)
C5 C 0.0411(6) 0.60435(12) 0.17422(9)
C6 C 0.1447(6) 0.65971(12) 0.18052(9)
C7 C 0.3813(7) 0.67137(13) 0.19859(11)
H2 H 0.5006 0.6459 0.2090
C8 C 0.2761(6) 0.42829(13) 0.16624(11)
H3 H 0.3842 0.4084 0.1474
C9 C -0.2500 0.40076(19) 0.2500
C10 C 0.0955(8) 0.40255(13) 0.19245(10)
H4 H 0.0842 0.3649 0.1919
C11 C -0.0712(6) 0.43190(11) 0.21988(10)
C12 C 0.1272(7) 0.74765(14) 0.17521(12)
H5 H 0.0588 0.7817 0.1686
S1I S -0.92744(18) 0.73986(3) 0.30056(3)
O2I O -0.6841(4) 0.56907(8) 0.30159(7)
O4I O -0.3599(4) 0.59157(9) 0.34872(7)
C1I C -0.4378(5) 0.48873(11) 0.27868(9)
N1I N -0.4996(5) 0.70319(11) 0.33347(9)
C2I C -0.7968(6) 0.48428(15) 0.33201(9)
H1I H -0.9228 0.5020 0.3490
C4I C -0.6295(6) 0.51383(12) 0.30487(9)
C5I C -0.5411(6) 0.60435(12) 0.32578(9)
C6I C -0.6447(6) 0.65971(12) 0.31948(9)
C7I C -0.8813(7) 0.67137(13) 0.30141(11)
H2I H -1.0006 0.6459 0.2910
C8I C -0.7761(6) 0.42829(13) 0.33376(11)
H3I H -0.8842 0.4084 0.3526
C10I C -0.5955(8) 0.40255(13) 0.30755(10)
H4I H -0.5842 0.3649 0.3081
C11I C -0.4288(6) 0.43190(11) 0.28012(10)
C12I C -0.6272(7) 0.74765(14) 0.32479(12)
H5I H -0.5588 0.7817 0.3314
loop_
_geom_bond_atom_site_label_1
_geom_bond_atom_site_label_2
_geom_bond_site_symmetry_1
_geom_bond_site_symmetry_2
S1 C7 1_555 1_555
O1 C3 1_555 1_555
O2 C4 1_555 1_555
O3 C9 1_555 1_555
O4 C5 1_555 1_555
C1 C3 1_555 1_555
N1 C6 1_555 1_555
C2 H1 1_555 1_555
C3 C1I 1_555 1_555
C4 C1 1_555 1_555
C5 O2 1_555 1_555
C6 C5 1_555 1_555
C7 C6 1_555 1_555
H2 C7 1_555 1_555
C8 C2 1_555 1_555
H3 C8 1_555 1_555
C9 C11 1_555 1_555
C10 C8 1_555 1_555
H4 C10 1_555 1_555
C11 C1 1_555 1_555
C12 S1 1_555 1_555
H5 C12 1_555 1_555
S1I C7I 1_555 1_555
O2I C4I 1_555 1_555
O4I C5I 1_555 1_555
C1I C4I 1_555 1_555
N1I C6I 1_555 1_555
C2I H1I 1_555 1_555
C4I C2I 1_555 1_555
C5I O2I 1_555 1_555
C6I C5I 1_555 1_555
C7I C6I 1_555 1_555
H2I C7I 1_555 1_555
C8I C2I 1_555 1_555
H3I C8I 1_555 1_555
C10I C8I 1_555 1_555
H4I C10I 1_555 1_555
C11I C9 1_555 1_555
C12I S1I 1_555 1_555
H5I C12I 1_555 1_555
N1 C12 1_555 1_555
C2 C4 1_555 1_555
C10 C11 1_555 1_555
C1I C11I 1_555 1_555
N1I C12I 1_555 1_555
C10I C11I 1_555 1_555

#END
