
#######################################################################
#
#                 Cambridge Crystallographic Data Centre
#                                CCDC 
#
#######################################################################
#
# If this CIF has been generated from an entry in the Cambridge 
# Structural Database, then it will include bibliographic, chemical, 
# crystal, experimental, refinement or atomic coordinate data resulting 
# from the CCDC's data processing and validation procedures.
#
#######################################################################

data_YIMFUY
_chemical_formula_moiety         'C12 H14 O3'
_chemical_name_systematic        1-(2-hydroxy-6-methylphenyl)pentane-1,4-dione
_symmetry_cell_setting           monoclinic
_symmetry_space_group_name_H-M   'P 21/n'
_symmetry_Int_Tables_number      14
_space_group_name_Hall           '-P 2yn'
loop_
_symmetry_equiv_pos_site_id
_symmetry_equiv_pos_as_xyz
1 x,y,z
2 1/2-x,1/2+y,1/2-z
3 -x,-y,-z
4 1/2+x,1/2-y,1/2+z
_cell_length_a                   8.2734(2)
_cell_length_b                   12.6013(4)
_cell_length_c                   10.9726(4)
_cell_angle_alpha                90
_cell_angle_beta                 104.864(3)
_cell_angle_gamma                90
_cell_volume                     1105.68
_cell_formula_units_Z            4
loop_
_atom_site_label
_atom_site_type_symbol
_atom_site_fract_x
_atom_site_fract_y
_atom_site_fract_z
O1 O 0.16048(13) 0.01904(9) 0.84048(11)
O2 O -0.51213(13) 0.06063(11) 0.84546(12)
H1 H -0.6035 0.0555 0.8612
C1 C -0.26098(17) 0.15642(12) 0.90277(14)
O3 O -0.18134(16) 0.14314(11) 0.71126(11)
C2 C -0.1572(2) 0.23235(12) 0.97700(15)
C3 C -0.20528(16) 0.09748(13) 0.80209(13)
C4 C -0.41717(18) 0.13399(12) 0.92392(15)
C5 C -0.17582(18) -0.01983(12) 0.82136(15)
H2 H -0.2828 -0.0548 0.8117
H3 H -0.1101 -0.0319 0.9071
C6 C -0.4705(2) 0.18628(15) 1.01717(18)
H4 H -0.5755 0.1724 1.0297
C7 C -0.0869(2) -0.07028(15) 0.73152(16)
H5 H -0.0893 -0.1468 0.7409
H6 H -0.1476 -0.0533 0.6458
C8 C 0.09118(19) -0.03549(12) 0.75127(15)
C9 C -0.2117(3) 0.28191(15) 1.07202(18)
H7 H -0.1428 0.3312 1.1235
C10 C 0.1804(3) -0.07283(17) 0.65659(19)
H8 H 0.1287 -0.0424 0.5758
H9 H 0.1743 -0.1488 0.6507
H10 H 0.2954 -0.0512 0.6825
C11 C -0.3657(3) 0.25945(16) 1.09143(19)
H11 H -0.3998 0.2941 1.1555
C12 C 0.0094(2) 0.26120(16) 0.9542(2)
H12 H 0.0662 0.1978 0.9400
H13 H 0.0759 0.2978 1.0265
H14 H -0.0079 0.3064 0.8815
loop_
_geom_bond_atom_site_label_1
_geom_bond_atom_site_label_2
_geom_bond_site_symmetry_1
_geom_bond_site_symmetry_2
O1 C8 1_555 1_555
O2 H1 1_555 1_555
C1 C2 1_555 1_555
O3 C3 1_555 1_555
C2 C9 1_555 1_555
C3 C1 1_555 1_555
C4 O2 1_555 1_555
C5 C3 1_555 1_555
H2 C5 1_555 1_555
H3 C5 1_555 1_555
C6 C4 1_555 1_555
H4 C6 1_555 1_555
C7 C5 1_555 1_555
H5 C7 1_555 1_555
H6 C7 1_555 1_555
C8 C7 1_555 1_555
C9 H7 1_555 1_555
C10 C8 1_555 1_555
H8 C10 1_555 1_555
H9 C10 1_555 1_555
H10 C10 1_555 1_555
C11 C6 1_555 1_555
H11 C11 1_555 1_555
C12 C2 1_555 1_555
H12 C12 1_555 1_555
H13 C12 1_555 1_555
H14 C12 1_555 1_555
C1 C4 1_555 1_555
C9 C11 1_555 1_555

#END
