
#######################################################################
#
#                 Cambridge Crystallographic Data Centre
#                                CCDC 
#
#######################################################################
#
# If this CIF has been generated from an entry in the Cambridge 
# Structural Database, then it will include bibliographic, chemical, 
# crystal, experimental, refinement or atomic coordinate data resulting 
# from the CCDC's data processing and validation procedures.
#
#######################################################################

data_YIMGEJ
_chemical_formula_moiety         'C15 H24 O3'
_chemical_name_systematic        
2,2,6,8a-tetramethyloctahydro-3,6a-epoxyindeno[1,7-bc]pyran-8b(7H)-ol
_symmetry_cell_setting           orthorhombic
_symmetry_space_group_name_H-M   'P 21 21 21'
_symmetry_Int_Tables_number      19
_space_group_name_Hall           'P 2ac 2ab'
loop_
_symmetry_equiv_pos_site_id
_symmetry_equiv_pos_as_xyz
1 x,y,z
2 1/2-x,-y,1/2+z
3 -x,1/2+y,1/2-z
4 1/2+x,1/2-y,-z
_cell_length_a                   10.44121(16)
_cell_length_b                   11.19736(18)
_cell_length_c                   11.71740(18)
_cell_angle_alpha                90
_cell_angle_beta                 90
_cell_angle_gamma                90
_cell_volume                     1369.93
_exptl_crystal_colour            colorless
_exptl_crystal_description       block
_cell_formula_units_Z            4
loop_
_atom_site_label
_atom_site_type_symbol
_atom_site_fract_x
_atom_site_fract_y
_atom_site_fract_z
O1 O 0.29535(11) 0.48083(11) 0.25598(10)
O2 O 0.14606(12) 0.55892(12) 0.52035(10)
H1 H 0.177952 0.557088 0.584278
O3 O 0.46242(12) 0.62780(11) 0.40921(11)
C1 C 0.50223(17) 0.52477(16) 0.34423(15)
C2 C 0.39117(16) 0.43608(15) 0.33546(14)
H2 H 0.422068 0.357285 0.311647
C3 C 0.14492(18) 0.30599(17) 0.35292(16)
H3 H 0.077515 0.249191 0.370216
H4 H 0.195918 0.272827 0.291406
C4 C 0.24242(17) 0.54234(16) 0.43792(13)
C5 C 0.32110(16) 0.42802(16) 0.44921(14)
H5 H 0.380549 0.432054 0.513819
C6 C 0.15242(17) 0.64707(16) 0.27739(14)
H6 H 0.075914 0.678065 0.313827
H7 H 0.140605 0.648125 0.195283
C7 C 0.23047(17) 0.32011(16) 0.45884(16)
H8 H 0.280858 0.248106 0.468941
H9 H 0.176757 0.329690 0.525764
C8 C 0.18329(17) 0.52236(16) 0.31952(14)
C9 C 0.08297(16) 0.42342(17) 0.31118(15)
H10 H 0.064993 0.412606 0.229743
C10 C 0.61201(18) 0.46937(17) 0.41227(17)
H11 H 0.680844 0.525839 0.418415
H12 H 0.641876 0.398896 0.373938
H13 H 0.582290 0.448548 0.487205
C11 C 0.32767(17) 0.65677(15) 0.42036(15)
C12 C 0.55128(18) 0.56223(18) 0.22638(16)
H14 H 0.482638 0.597706 0.183699
H15 H 0.582632 0.493308 0.186447
H16 H 0.619334 0.619155 0.235103
C13 C 0.32456(19) 0.74039(18) 0.52176(16)
H17 H 0.351386 0.698214 0.588963
H18 H 0.238976 0.769691 0.532386
H19 H 0.381334 0.806333 0.508262
C14 C 0.27147(18) 0.71892(16) 0.31240(15)
H20 H 0.248243 0.800855 0.329558
H21 H 0.333987 0.719159 0.251165
C15 C -0.04581(17) 0.44921(19) 0.36865(17)
H22 H -0.104873 0.385977 0.351577
H23 H -0.079347 0.523469 0.340657
H24 H -0.033953 0.454348 0.449747
loop_
_geom_bond_atom_site_label_1
_geom_bond_atom_site_label_2
_geom_bond_site_symmetry_1
_geom_bond_site_symmetry_2
O1 C2 1_555 1_555
O2 H1 1_555 1_555
O3 C1 1_555 1_555
C1 C2 1_555 1_555
C2 H2 1_555 1_555
C3 H3 1_555 1_555
H4 C3 1_555 1_555
C4 O2 1_555 1_555
C5 C2 1_555 1_555
H5 C5 1_555 1_555
C6 H6 1_555 1_555
H7 C6 1_555 1_555
C7 C3 1_555 1_555
H8 C7 1_555 1_555
H9 C7 1_555 1_555
C8 O1 1_555 1_555
C9 C3 1_555 1_555
H10 C9 1_555 1_555
C10 C1 1_555 1_555
H11 C10 1_555 1_555
H12 C10 1_555 1_555
H13 C10 1_555 1_555
C11 O3 1_555 1_555
C12 C1 1_555 1_555
H14 C12 1_555 1_555
H15 C12 1_555 1_555
H16 C12 1_555 1_555
C13 C11 1_555 1_555
H17 C13 1_555 1_555
H18 C13 1_555 1_555
H19 C13 1_555 1_555
C14 C6 1_555 1_555
H20 C14 1_555 1_555
H21 C14 1_555 1_555
C15 C9 1_555 1_555
H22 C15 1_555 1_555
H23 C15 1_555 1_555
H24 C15 1_555 1_555
C4 C5 1_555 1_555
C4 C8 1_555 1_555
C4 C11 1_555 1_555
C5 C7 1_555 1_555
C6 C8 1_555 1_555
C8 C9 1_555 1_555
C11 C14 1_555 1_555

#END
