
#######################################################################
#
#                 Cambridge Crystallographic Data Centre
#                                CCDC 
#
#######################################################################
#
# If this CIF has been generated from an entry in the Cambridge 
# Structural Database, then it will include bibliographic, chemical, 
# crystal, experimental, refinement or atomic coordinate data resulting 
# from the CCDC's data processing and validation procedures.
#
#######################################################################

data_YIMGOT
_chemical_formula_moiety         'C26 H17 Br1 O1'
_chemical_name_systematic        
5-bromo-3-(diphenylmethylidene)-3H-naphtho[2,1-b]pyran
_symmetry_cell_setting           monoclinic
_symmetry_space_group_name_H-M   'P 21/c'
_symmetry_Int_Tables_number      14
_space_group_name_Hall           '-P 2ybc'
loop_
_symmetry_equiv_pos_site_id
_symmetry_equiv_pos_as_xyz
1 x,y,z
2 -x,1/2+y,1/2-z
3 -x,-y,-z
4 x,1/2-y,1/2+z
_cell_length_a                   12.8537(19)
_cell_length_b                   13.3132(18)
_cell_length_c                   11.8696(17)
_cell_angle_alpha                90
_cell_angle_beta                 114.474(2)
_cell_angle_gamma                90
_cell_volume                     1848.67
_exptl_crystal_colour            red
_exptl_crystal_description       block
_cell_formula_units_Z            4
loop_
_atom_site_label
_atom_site_type_symbol
_atom_site_fract_x
_atom_site_fract_y
_atom_site_fract_z
Br1 Br -0.10150(2) 1.05348(2) 0.69827(2)
C1 C 0.3632(3) 0.9321(2) 1.0559(3)
H1 H 0.4268 0.8962 1.0601
C2 C 0.3750(3) 0.9995(2) 1.1478(3)
H2 H 0.4463 1.0085 1.2129
C3 C 0.2843(3) 1.0536(2) 1.1457(3)
H3 H 0.2928 1.0989 1.2086
C4 C 0.1804(3) 1.0397(2) 1.0490(3)
H4 H 0.1178 1.0767 1.0456
C5 C 0.1668(2) 0.97183(19) 0.9562(2)
H5 H 0.0949 0.9630 0.8921
C6 C 0.2586(2) 0.91627(17) 0.9567(2)
C7 C 0.2503(2) 0.84327(17) 0.8596(2)
C8 C 0.3504(2) 0.77486(17) 0.8900(2)
C9 C 0.4230(2) 0.7834(2) 0.8318(3)
H6 H 0.4095 0.8324 0.7714
C10 C 0.5158(3) 0.7199(3) 0.8622(3)
H7 H 0.5637 0.7259 0.8215
C11 C 0.5374(3) 0.6488(2) 0.9509(3)
H8 H 0.6005 0.6067 0.9718
C12 C 0.4655(3) 0.6394(2) 1.0097(3)
H9 H 0.4799 0.5905 1.0703
C13 C 0.3725(2) 0.70172(19) 0.9795(2)
H10 H 0.3242 0.6946 1.0196
C14 C 0.1634(2) 0.83301(16) 0.7462(2)
C15 C 0.1582(2) 0.75949(17) 0.6557(2)
H11 H 0.2163 0.7121 0.6760
C16 C 0.0722(2) 0.75720(17) 0.5428(2)
H12 H 0.0721 0.7089 0.4861
C17 C -0.0198(2) 0.82791(16) 0.5078(2)
C18 C -0.0167(2) 0.89489(16) 0.5968(2)
C19 C -0.1045(2) 0.96571(16) 0.5729(2)
C20 C -0.1930(2) 0.97006(17) 0.4593(2)
H13 H -0.2505 1.0174 0.4441
C21 C -0.1989(2) 0.90403(17) 0.3643(2)
C22 C -0.1128(2) 0.83097(17) 0.3882(2)
C23 C -0.1206(2) 0.76645(19) 0.2912(2)
H14 H -0.0641 0.7185 0.3044
C24 C -0.2104(2) 0.7735(2) 0.1776(2)
H15 H -0.2146 0.7298 0.1147
C25 C -0.2955(2) 0.8448(2) 0.1545(3)
H16 H -0.3559 0.8490 0.0767
C26 C -0.2901(2) 0.90854(19) 0.2461(2)
H17 H -0.3476 0.9559 0.2305
O1 O 0.06981(14) 0.89671(12) 0.71324(15)
loop_
_geom_bond_atom_site_label_1
_geom_bond_atom_site_label_2
_geom_bond_site_symmetry_1
_geom_bond_site_symmetry_2
Br1 C19 1_555 1_555
C1 H1 1_555 1_555
C2 C1 1_555 1_555
H2 C2 1_555 1_555
C3 C2 1_555 1_555
H3 C3 1_555 1_555
C4 C3 1_555 1_555
H4 C4 1_555 1_555
C5 C4 1_555 1_555
H5 C5 1_555 1_555
C6 C1 1_555 1_555
C7 C6 1_555 1_555
C8 C7 1_555 1_555
C9 C8 1_555 1_555
H6 C9 1_555 1_555
C10 C9 1_555 1_555
H7 C10 1_555 1_555
C11 C10 1_555 1_555
H8 C11 1_555 1_555
C12 C11 1_555 1_555
H9 C12 1_555 1_555
C13 C8 1_555 1_555
H10 C13 1_555 1_555
C14 C7 1_555 1_555
C15 C14 1_555 1_555
H11 C15 1_555 1_555
C16 C15 1_555 1_555
H12 C16 1_555 1_555
C17 C16 1_555 1_555
C18 C17 1_555 1_555
C19 C18 1_555 1_555
C20 C19 1_555 1_555
H13 C20 1_555 1_555
C21 C20 1_555 1_555
C22 C17 1_555 1_555
C23 C22 1_555 1_555
H14 C23 1_555 1_555
C24 C23 1_555 1_555
H15 C24 1_555 1_555
C25 C24 1_555 1_555
H16 C25 1_555 1_555
C26 C21 1_555 1_555
H17 C26 1_555 1_555
O1 C14 1_555 1_555
C5 C6 1_555 1_555
C12 C13 1_555 1_555
C18 O1 1_555 1_555
C21 C22 1_555 1_555
C25 C26 1_555 1_555

#END
