
#######################################################################
#
#                 Cambridge Crystallographic Data Centre
#                                CCDC 
#
#######################################################################
#
# If this CIF has been generated from an entry in the Cambridge 
# Structural Database, then it will include bibliographic, chemical, 
# crystal, experimental, refinement or atomic coordinate data resulting 
# from the CCDC's data processing and validation procedures.
#
#######################################################################

data_YIMGIN
_chemical_formula_moiety         'C41 H28 O2'
_chemical_name_systematic        
11-(diphenylmethylidene)-2,2-diphenyl-2,11-dihydronaphtho[2,1-b:3,4-b']dipyran
_symmetry_cell_setting           orthorhombic
_symmetry_space_group_name_H-M   'P n a 21'
_symmetry_Int_Tables_number      33
_space_group_name_Hall           'P 2c -2n'
loop_
_symmetry_equiv_pos_site_id
_symmetry_equiv_pos_as_xyz
1 x,y,z
2 -x,-y,1/2+z
3 1/2+x,1/2-y,z
4 1/2-x,1/2+y,1/2+z
_cell_length_a                   9.7427(14)
_cell_length_b                   13.5639(19)
_cell_length_c                   21.658(3)
_cell_angle_alpha                90
_cell_angle_beta                 90
_cell_angle_gamma                90
_cell_volume                     2862.08
_exptl_crystal_colour            red
_exptl_crystal_description       block
_cell_formula_units_Z            4
loop_
_atom_site_label
_atom_site_type_symbol
_atom_site_fract_x
_atom_site_fract_y
_atom_site_fract_z
C1 C 0.6299(4) 0.3529(2) 0.41078(15)
H1 H 0.6732 0.4137 0.4150
C2 C 0.6239(4) 0.2884(3) 0.46055(13)
H2 H 0.6633 0.3059 0.4981
C3 C 0.5592(4) 0.1976(3) 0.45419(17)
H3 H 0.5551 0.1545 0.4875
C4 C 0.5004(5) 0.1715(2) 0.3981(2)
H4 H 0.4570 0.1107 0.3938
C5 C 0.5063(4) 0.2360(2) 0.34829(16)
H5 H 0.4670 0.2185 0.3107
C6 C 0.5711(3) 0.32675(18) 0.35464(12)
C7 C 0.3474(4) 0.5642(3) 0.4444(2)
H6 H 0.3515 0.5627 0.4015
C8 C 0.3229(4) 0.4784(3) 0.4763(2)
H7 H 0.3119 0.4198 0.4545
C9 C 0.3145(4) 0.4771(3) 0.5391(2)
H8 H 0.2990 0.4183 0.5601
C10 C 0.3292(4) 0.5638(3) 0.5706(2)
H9 H 0.3220 0.5644 0.6135
C11 C 0.3547(4) 0.6501(3) 0.5393(2)
H10 H 0.3645 0.7082 0.5617
C12 C 0.3663(3) 0.6534(2) 0.47527(17)
C13 C 0.4021(3) 0.7468(2) 0.44408(16)
C14 C 0.3714(3) 0.8403(2) 0.47799(17)
C15 C 0.4744(3) 0.8933(3) 0.50640(18)
H11 H 0.5648 0.8722 0.5029
C16 C 0.4452(4) 0.9772(3) 0.53992(19)
H12 H 0.5158 1.0117 0.5590
C17 C 0.3130(4) 1.0098(3) 0.5452(2)
H13 H 0.2934 1.0666 0.5676
C18 C 0.2102(4) 0.9582(3) 0.5173(2)
H14 H 0.1200 0.9801 0.5206
C19 C 0.2389(3) 0.8743(3) 0.4844(2)
H15 H 0.1674 0.8396 0.4660
C20 C 0.4696(3) 0.7533(2) 0.38973(17)
C21 C 0.5136(4) 0.8413(2) 0.35919(18)
H16 H 0.4811 0.9017 0.3733
C22 C 0.5997(4) 0.8398(2) 0.31117(18)
H17 H 0.6266 0.8988 0.2929
C23 C 0.6511(3) 0.7476(2) 0.28754(16)
C24 C 0.5975(3) 0.6640(2) 0.31396(16)
C25 C 0.6361(3) 0.5691(2) 0.29494(16)
C26 C 0.7356(3) 0.5564(2) 0.25081(17)
C27 C 0.7931(3) 0.6411(3) 0.22101(16)
C28 C 0.7517(3) 0.7374(2) 0.23952(16)
C29 C 0.8104(4) 0.8187(3) 0.21006(19)
H18 H 0.7827 0.8817 0.2216
C30 C 0.9068(5) 0.8087(3) 0.1650(2)
H19 H 0.9444 0.8641 0.1462
C31 C 0.9485(5) 0.7149(3) 0.1473(2)
H20 H 1.0142 0.7077 0.1165
C32 C 0.8942(4) 0.6332(3) 0.17455(19)
H21 H 0.9242 0.5711 0.1623
C33 C 0.7808(4) 0.4555(3) 0.24105(18)
H22 H 0.8594 0.4434 0.2179
C34 C 0.7113(4) 0.3804(3) 0.26469(18)
H23 H 0.7447 0.3167 0.2596
C35 C 0.5796(4) 0.3961(2) 0.29951(18)
C36 C 0.4536(4) 0.3867(2) 0.2578(2)
C37 C 0.3277(4) 0.4147(3) 0.2799(3)
H24 H 0.3196 0.4391 0.3198
C38 C 0.2117(5) 0.4065(3) 0.2424(4)
H25 H 0.1265 0.4268 0.2570
C39 C 0.2236(8) 0.3683(5) 0.1837(4)
H26 H 0.1466 0.3636 0.1586
C40 C 0.3462(8) 0.3379(6) 0.1628(3)
H27 H 0.3536 0.3100 0.1237
C41 C 0.4613(5) 0.3481(4) 0.1995(2)
H28 H 0.5462 0.3284 0.1843
O1 O 0.5031(2) 0.66631(16) 0.36018(12)
O2 O 0.5784(2) 0.49377(15) 0.32679(12)
loop_
_geom_bond_atom_site_label_1
_geom_bond_atom_site_label_2
_geom_bond_site_symmetry_1
_geom_bond_site_symmetry_2
C1 H1 1_555 1_555
C2 C1 1_555 1_555
H2 C2 1_555 1_555
C3 C2 1_555 1_555
H3 C3 1_555 1_555
C4 C3 1_555 1_555
H4 C4 1_555 1_555
C5 C4 1_555 1_555
H5 C5 1_555 1_555
C6 C1 1_555 1_555
C7 H6 1_555 1_555
C8 C7 1_555 1_555
H7 C8 1_555 1_555
C9 C8 1_555 1_555
H8 C9 1_555 1_555
C10 C9 1_555 1_555
H9 C10 1_555 1_555
C11 C10 1_555 1_555
H10 C11 1_555 1_555
C12 C7 1_555 1_555
C13 C12 1_555 1_555
C14 C13 1_555 1_555
C15 C14 1_555 1_555
H11 C15 1_555 1_555
C16 C15 1_555 1_555
H12 C16 1_555 1_555
C17 C16 1_555 1_555
H13 C17 1_555 1_555
C18 C17 1_555 1_555
H14 C18 1_555 1_555
C19 C14 1_555 1_555
H15 C19 1_555 1_555
C20 C13 1_555 1_555
C21 C20 1_555 1_555
H16 C21 1_555 1_555
C22 C21 1_555 1_555
H17 C22 1_555 1_555
C23 C22 1_555 1_555
C24 C23 1_555 1_555
C25 C24 1_555 1_555
C26 C25 1_555 1_555
C27 C26 1_555 1_555
C28 C23 1_555 1_555
C29 C28 1_555 1_555
H18 C29 1_555 1_555
C30 C29 1_555 1_555
H19 C30 1_555 1_555
C31 C30 1_555 1_555
H20 C31 1_555 1_555
C32 C27 1_555 1_555
H21 C32 1_555 1_555
C33 C26 1_555 1_555
H22 C33 1_555 1_555
C34 C33 1_555 1_555
H23 C34 1_555 1_555
C35 C6 1_555 1_555
C36 C35 1_555 1_555
C37 C36 1_555 1_555
H24 C37 1_555 1_555
C38 C37 1_555 1_555
H25 C38 1_555 1_555
C39 C38 1_555 1_555
H26 C39 1_555 1_555
C40 C39 1_555 1_555
H27 C40 1_555 1_555
C41 C36 1_555 1_555
H28 C41 1_555 1_555
O1 C20 1_555 1_555
O2 C25 1_555 1_555
C5 C6 1_555 1_555
C11 C12 1_555 1_555
C18 C19 1_555 1_555
C24 O1 1_555 1_555
C27 C28 1_555 1_555
C31 C32 1_555 1_555
C34 C35 1_555 1_555
C35 O2 1_555 1_555
C40 C41 1_555 1_555

#END
