
#######################################################################
#
#                 Cambridge Crystallographic Data Centre
#                                CCDC 
#
#######################################################################
#
# If this CIF has been generated from an entry in the Cambridge 
# Structural Database, then it will include bibliographic, chemical, 
# crystal, experimental, refinement or atomic coordinate data resulting 
# from the CCDC's data processing and validation procedures.
#
#######################################################################

data_YIMROD
_chemical_formula_moiety         'C19 H13 Cl1 O1'
_chemical_name_systematic        Biphenyl-4-yl(2-chlorophenyl)methanone
_symmetry_cell_setting           orthorhombic
_symmetry_space_group_name_H-M   'P c a 21'
_symmetry_Int_Tables_number      29
_space_group_name_Hall           'P 2c -2ac'
loop_
_symmetry_equiv_pos_site_id
_symmetry_equiv_pos_as_xyz
1 x,y,z
2 -x,-y,1/2+z
3 1/2+x,-y,z
4 1/2-x,y,1/2+z
_cell_length_a                   13.699(3)
_cell_length_b                   8.9385(17)
_cell_length_c                   46.836(9)
_cell_angle_alpha                90
_cell_angle_beta                 90
_cell_angle_gamma                90
_cell_volume                     5735
_exptl_crystal_colour            colorless
_exptl_crystal_description       Platelet
_cell_formula_units_Z            16
loop_
_atom_site_label
_atom_site_type_symbol
_atom_site_fract_x
_atom_site_fract_y
_atom_site_fract_z
Cl1 Cl 0.78918(7) 0.85607(13) 0.20808(3)
O1 O 0.9587(2) 0.6750(4) 0.17963(8)
C1 C 0.9747(3) 0.9341(5) 0.19161(9)
C2 C 0.8793(4) 0.9806(6) 0.19766(12)
C3 C 0.8541(3) 1.1314(5) 0.19536(9)
H1 H 0.7884 1.1611 0.1985
C4 C 0.9243(3) 1.2394(5) 0.18852(9)
H2 H 0.9069 1.3421 0.1872
C5 C 1.0204(3) 1.1935(5) 0.18362(9)
H3 H 1.0692 1.2652 0.1792
C6 C 1.0445(3) 1.0405(5) 0.18521(10)
H4 H 1.1100 1.0099 0.1818
C7 C 1.0042(3) 0.7708(5) 0.19252(10)
C8 C 1.0912(2) 0.7310(4) 0.21027(9)
C9 C 1.1208(3) 0.8180(4) 0.23332(8)
H5 H 1.0905 0.9120 0.2366
C10 C 1.1942(3) 0.7689(4) 0.25156(9)
H6 H 1.2118 0.8276 0.2677
C11 C 1.2427(3) 0.6333(5) 0.24635(9)
C12 C 1.2165(3) 0.5497(5) 0.22197(9)
H7 H 1.2509 0.4604 0.2175
C13 C 1.1405(3) 0.5974(5) 0.20444(9)
H8 H 1.1219 0.5388 0.1884
C14 C 1.3198(3) 0.5774(5) 0.26614(9)
C15 C 1.3157(3) 0.6143(5) 0.29541(10)
H9 H 1.2640 0.6750 0.3024
C16 C 1.3864(3) 0.5626(5) 0.31385(9)
H10 H 1.3823 0.5859 0.3336
C17 C 1.4643(3) 0.4761(5) 0.30372(12)
H11 H 1.5139 0.4431 0.3164
C18 C 1.4682(3) 0.4397(5) 0.27543(10)
H12 H 1.5199 0.3786 0.2686
C19 C 1.3976(3) 0.4910(4) 0.25652(14)
H13 H 1.4024 0.4669 0.2368
Cl2 Cl 0.90553(9) 0.96613(16) 0.27808(3)
O2 O 1.1176(2) 0.8027(4) 0.32990(7)
C20 C 1.0759(3) 1.0264(5) 0.30599(11)
C21 C 1.0131(3) 1.0655(5) 0.28378(9)
C22 C 1.0372(4) 1.1802(6) 0.26523(10)
H14 H 0.9938 1.2058 0.2502
C23 C 1.1229(4) 1.2571(6) 0.26840(12)
H15 H 1.1381 1.3374 0.2559
C24 C 1.1880(4) 1.2173(6) 0.29003(12)
H16 H 1.2480 1.2696 0.2921
C25 C 1.1657(3) 1.1038(6) 0.30814(11)
H17 H 1.2111 1.0760 0.3225
C26 C 1.0564(3) 0.9019(5) 0.32688(9)
C27 C 0.9683(3) 0.9100(5) 0.34587(9)
C28 C 0.9120(3) 1.0394(5) 0.34748(10)
H18 H 0.9256 1.1220 0.3354
C29 C 0.8349(3) 1.0464(5) 0.36727(10)
H19 H 0.7975 1.1357 0.3686
C30 C 0.8115(3) 0.9255(5) 0.38506(9)
C31 C 0.8679(3) 0.7948(5) 0.38204(9)
H20 H 0.8519 0.7097 0.3932
C32 C 0.9461(3) 0.7863(5) 0.36323(9)
H21 H 0.9842 0.6977 0.3621
C33 C 0.7324(3) 0.9370(4) 0.40639(9)
C34 C 0.6521(3) 1.0325(6) 0.40255(12)
H22 H 0.6469 1.0901 0.3856
C35 C 0.5799(3) 1.0435(7) 0.42344(11)
H23 H 0.5257 1.1078 0.4204
C36 C 0.5860(3) 0.9636(6) 0.44818(12)
H24 H 0.5368 0.9735 0.4623
C37 C 0.6648(3) 0.8669(5) 0.45272(10)
H25 H 0.6694 0.8101 0.4698
C38 C 0.7375(3) 0.8554(5) 0.43140(9)
H26 H 0.7912 0.7900 0.4343
Cl3 Cl 0.53780(7) 0.36465(13) 0.10919(3)
O3 O 0.7017(2) 0.1748(4) 0.14054(7)
C39 C 0.7225(3) 0.4307(5) 0.12780(9)
C40 C 0.6284(3) 0.4873(5) 0.12152(12)
C41 C 0.6089(3) 0.6384(5) 0.12193(9)
H27 H 0.5459 0.6739 0.1169
C42 C 0.6811(3) 0.7383(5) 0.12968(9)
H28 H 0.6679 0.8426 0.1301
C43 C 0.7727(3) 0.6856(6) 0.13688(10)
H29 H 0.8221 0.7539 0.1426
C44 C 0.7926(3) 0.5353(5) 0.13579(10)
H30 H 0.8563 0.5016 0.1406
C45 C 0.7474(3) 0.2676(5) 0.12706(9)
C46 C 0.8344(3) 0.2249(5) 0.10925(9)
C47 C 0.8628(3) 0.3139(5) 0.08603(9)
H31 H 0.8316 0.4071 0.0827
C48 C 0.9374(3) 0.2650(5) 0.06774(9)
H32 H 0.9555 0.3244 0.0518
C49 C 0.9855(3) 0.1291(4) 0.07288(9)
C50 C 0.9587(3) 0.0462(5) 0.09695(9)
H33 H 0.9933 -0.0431 0.1013
C51 C 0.8830(3) 0.0907(5) 0.11472(9)
H34 H 0.8644 0.0302 0.1305
C52 C 1.0623(3) 0.0769(5) 0.05296(9)
C53 C 1.0579(3) 0.1131(5) 0.02391(9)
H35 H 1.0054 0.1721 0.0169
C54 C 1.1303(3) 0.0630(6) 0.00514(10)
H36 H 1.1265 0.0885 -0.0145
C55 C 1.2064(4) -0.0221(6) 0.01475(13)
H37 H 1.2554 -0.0549 0.0018
C56 C 1.2118(3) -0.0606(6) 0.04365(11)
H38 H 1.2649 -0.1191 0.0504
C57 C 1.1403(4) -0.0139(6) 0.06232(14)
H39 H 1.1435 -0.0432 0.0818
Cl4 Cl 0.34747(9) 0.53233(16) 0.54052(3)
O4 O 0.1381(2) 0.7011(4) 0.48868(6)
C58 C 0.1769(3) 0.4779(5) 0.51238(11)
C59 C 0.2397(3) 0.4341(5) 0.53450(10)
C60 C 0.2155(4) 0.3205(6) 0.55300(10)
H40 H 0.2578 0.2940 0.5682
C61 C 0.1272(4) 0.2448(6) 0.54893(11)
H41 H 0.1106 0.1645 0.5613
C62 C 0.0647(3) 0.2834(6) 0.52765(12)
H42 H 0.0052 0.2303 0.5252
C63 C 0.0882(3) 0.4011(5) 0.50952(10)
H43 H 0.0436 0.4298 0.4950
C64 C 0.1976(3) 0.6005(5) 0.49137(9)
C65 C 0.2856(3) 0.5938(5) 0.47281(8)
C66 C 0.3101(3) 0.7142(5) 0.45536(9)
H44 H 0.2730 0.8038 0.4565
C67 C 0.3875(3) 0.7062(5) 0.43642(9)
H45 H 0.4035 0.7906 0.4250
C68 C 0.4426(3) 0.5742(5) 0.43392(9)
C69 C 0.4197(3) 0.4532(5) 0.45143(10)
H46 H 0.4569 0.3638 0.4503
C70 C 0.3423(3) 0.4632(5) 0.47062(9)
H47 H 0.3275 0.3801 0.4825
C71 C 0.5226(3) 0.5638(5) 0.41226(8)
C72 C 0.5189(3) 0.6465(5) 0.38729(10)
H48 H 0.4662 0.7138 0.3843
C73 C 0.5903(3) 0.6335(6) 0.36653(10)
H49 H 0.5852 0.6898 0.3494
C74 C 0.6690(3) 0.5392(6) 0.37058(11)
H50 H 0.7188 0.5319 0.3565
C75 C 0.6744(3) 0.4550(7) 0.39554(11)
H51 H 0.7280 0.3892 0.3985
C76 C 0.6020(3) 0.4667(6) 0.41618(12)
H52 H 0.6062 0.4084 0.4331
loop_
_geom_bond_atom_site_label_1
_geom_bond_atom_site_label_2
_geom_bond_site_symmetry_1
_geom_bond_site_symmetry_2
Cl1 C2 1_555 1_555
O1 C7 1_555 1_555
C1 C2 1_555 1_555
C2 C3 1_555 1_555
C3 H1 1_555 1_555
C4 C3 1_555 1_555
H2 C4 1_555 1_555
C5 C4 1_555 1_555
H3 C5 1_555 1_555
C6 C1 1_555 1_555
H4 C6 1_555 1_555
C7 C1 1_555 1_555
C8 C7 1_555 1_555
C9 C8 1_555 1_555
H5 C9 1_555 1_555
C10 C9 1_555 1_555
H6 C10 1_555 1_555
C11 C10 1_555 1_555
C12 C11 1_555 1_555
H7 C12 1_555 1_555
C13 C8 1_555 1_555
H8 C13 1_555 1_555
C14 C11 1_555 1_555
C15 C14 1_555 1_555
H9 C15 1_555 1_555
C16 C15 1_555 1_555
H10 C16 1_555 1_555
C17 C16 1_555 1_555
H11 C17 1_555 1_555
C18 C17 1_555 1_555
H12 C18 1_555 1_555
C19 C14 1_555 1_555
H13 C19 1_555 1_555
Cl2 C21 1_555 1_555
O2 C26 1_555 1_555
C20 C21 1_555 1_555
C21 C22 1_555 1_555
C22 H14 1_555 1_555
C23 C22 1_555 1_555
H15 C23 1_555 1_555
C24 C23 1_555 1_555
H16 C24 1_555 1_555
C25 C20 1_555 1_555
H17 C25 1_555 1_555
C26 C20 1_555 1_555
C27 C26 1_555 1_555
C28 C27 1_555 1_555
H18 C28 1_555 1_555
C29 C28 1_555 1_555
H19 C29 1_555 1_555
C30 C29 1_555 1_555
C31 C30 1_555 1_555
H20 C31 1_555 1_555
C32 C27 1_555 1_555
H21 C32 1_555 1_555
C33 C30 1_555 1_555
C34 C33 1_555 1_555
H22 C34 1_555 1_555
C35 C34 1_555 1_555
H23 C35 1_555 1_555
C36 C35 1_555 1_555
H24 C36 1_555 1_555
C37 C36 1_555 1_555
H25 C37 1_555 1_555
C38 C33 1_555 1_555
H26 C38 1_555 1_555
Cl3 C40 1_555 1_555
O3 C45 1_555 1_555
C39 C40 1_555 1_555
C40 C41 1_555 1_555
C41 H27 1_555 1_555
C42 C41 1_555 1_555
H28 C42 1_555 1_555
C43 C42 1_555 1_555
H29 C43 1_555 1_555
C44 C39 1_555 1_555
H30 C44 1_555 1_555
C45 C39 1_555 1_555
C46 C45 1_555 1_555
C47 C46 1_555 1_555
H31 C47 1_555 1_555
C48 C47 1_555 1_555
H32 C48 1_555 1_555
C49 C48 1_555 1_555
C50 C49 1_555 1_555
H33 C50 1_555 1_555
C51 C46 1_555 1_555
H34 C51 1_555 1_555
C52 C49 1_555 1_555
C53 C52 1_555 1_555
H35 C53 1_555 1_555
C54 C53 1_555 1_555
H36 C54 1_555 1_555
C55 C54 1_555 1_555
H37 C55 1_555 1_555
C56 C55 1_555 1_555
H38 C56 1_555 1_555
C57 C52 1_555 1_555
H39 C57 1_555 1_555
Cl4 C59 1_555 1_555
O4 C64 1_555 1_555
C58 C59 1_555 1_555
C59 C60 1_555 1_555
C60 H40 1_555 1_555
C61 C60 1_555 1_555
H41 C61 1_555 1_555
C62 C61 1_555 1_555
H42 C62 1_555 1_555
C63 C58 1_555 1_555
H43 C63 1_555 1_555
C64 C58 1_555 1_555
C65 C64 1_555 1_555
C66 C65 1_555 1_555
H44 C66 1_555 1_555
C67 C66 1_555 1_555
H45 C67 1_555 1_555
C68 C67 1_555 1_555
C69 C68 1_555 1_555
H46 C69 1_555 1_555
C70 C65 1_555 1_555
H47 C70 1_555 1_555
C71 C68 1_555 1_555
C72 C71 1_555 1_555
H48 C72 1_555 1_555
C73 C72 1_555 1_555
H49 C73 1_555 1_555
C74 C73 1_555 1_555
H50 C74 1_555 1_555
C75 C74 1_555 1_555
H51 C75 1_555 1_555
C76 C71 1_555 1_555
H52 C76 1_555 1_555
C5 C6 1_555 1_555
C12 C13 1_555 1_555
C18 C19 1_555 1_555
C24 C25 1_555 1_555
C31 C32 1_555 1_555
C37 C38 1_555 1_555
C43 C44 1_555 1_555
C50 C51 1_555 1_555
C56 C57 1_555 1_555
C62 C63 1_555 1_555
C69 C70 1_555 1_555
C75 C76 1_555 1_555

#END
