
#######################################################################
#
#                 Cambridge Crystallographic Data Centre
#                                CCDC 
#
#######################################################################
#
# If this CIF has been generated from an entry in the Cambridge 
# Structural Database, then it will include bibliographic, chemical, 
# crystal, experimental, refinement or atomic coordinate data resulting 
# from the CCDC's data processing and validation procedures.
#
#######################################################################

data_YIMRAP
_chemical_formula_moiety         'C15 H12 Cl1 N3 O3'
_chemical_name_systematic        
N'-(2-Chloro-5-nitrobenzylidene)-4-methylbenzohydrazide
_symmetry_cell_setting           monoclinic
_symmetry_space_group_name_H-M   'C c'
_symmetry_Int_Tables_number      9
_space_group_name_Hall           'C -2yc'
loop_
_symmetry_equiv_pos_site_id
_symmetry_equiv_pos_as_xyz
1 x,y,z
2 x,-y,1/2+z
3 1/2+x,1/2+y,z
4 1/2+x,1/2-y,1/2+z
_cell_length_a                   11.564(2)
_cell_length_b                   13.2712(19)
_cell_length_c                   9.4618(18)
_cell_angle_alpha                90
_cell_angle_beta                 96.860(2)
_cell_angle_gamma                90
_cell_volume                     1441.69
_exptl_crystal_colour            yellow
_exptl_crystal_description       block
_cell_formula_units_Z            4
loop_
_atom_site_label
_atom_site_type_symbol
_atom_site_fract_x
_atom_site_fract_y
_atom_site_fract_z
Cl1 Cl 0.38564(11) 0.12826(6) -0.08284(11)
O1 O 0.4371(2) 0.59485(15) 0.2366(2)
O2 O 0.1688(3) 0.2932(3) 0.4852(3)
O3 O 0.1524(3) 0.1338(2) 0.5170(3)
N1 N 0.4151(2) 0.50140(17) 0.0347(2)
N2 N 0.3757(2) 0.42149(18) 0.1092(3)
N3 N 0.1792(2) 0.2070(3) 0.4475(3)
C1 C 0.6116(3) 0.9298(3) -0.1915(4)
H1 H 0.5504 0.9542 -0.2605
H2 H 0.6769 0.9099 -0.2388
H3 H 0.6350 0.9821 -0.1242
C2 C 0.5683(3) 0.8404(2) -0.1148(3)
C3 C 0.5183(3) 0.8506(2) 0.0096(4)
H4 H 0.5109 0.9147 0.0470
C4 C 0.4792(3) 0.7698(2) 0.0800(3)
H5 H 0.4470 0.7797 0.1644
C5 C 0.4875(2) 0.6724(2) 0.0258(3)
C6 C 0.5374(2) 0.6602(2) -0.0979(3)
H6 H 0.5445 0.5959 -0.1353
C7 C 0.5775(2) 0.7434(2) -0.1678(3)
H7 H 0.6110 0.7338 -0.2514
C8 C 0.4454(2) 0.5875(2) 0.1100(3)
C9 C 0.3605(2) 0.3386(2) 0.0420(3)
H8 H 0.3764 0.3327 -0.0518
C10 C 0.3170(2) 0.2525(2) 0.1176(3)
C11 C 0.3248(2) 0.1543(2) 0.0718(3)
C12 C 0.2856(3) 0.0730(2) 0.1450(3)
H9 H 0.2919 0.0077 0.1108
C13 C 0.2375(3) 0.0900(2) 0.2681(4)
H10 H 0.2107 0.0366 0.3188
C14 C 0.2295(2) 0.1875(2) 0.3158(3)
C15 C 0.2670(2) 0.2684(2) 0.2439(3)
H11 H 0.2593 0.3334 0.2784
H12 H 0.433(3) 0.494(3) -0.0545(17)
loop_
_geom_bond_atom_site_label_1
_geom_bond_atom_site_label_2
_geom_bond_site_symmetry_1
_geom_bond_site_symmetry_2
Cl1 C11 1_555 1_555
O1 C8 1_555 1_555
O2 N3 1_555 1_555
O3 N3 1_555 1_555
N1 N2 1_555 1_555
N2 C9 1_555 1_555
N3 C14 1_555 1_555
C1 H1 1_555 1_555
H2 C1 1_555 1_555
H3 C1 1_555 1_555
C2 C1 1_555 1_555
C3 C2 1_555 1_555
H4 C3 1_555 1_555
C4 C3 1_555 1_555
H5 C4 1_555 1_555
C5 C4 1_555 1_555
C6 C5 1_555 1_555
H6 C6 1_555 1_555
C7 C2 1_555 1_555
H7 C7 1_555 1_555
C8 N1 1_555 1_555
C9 H8 1_555 1_555
C10 C9 1_555 1_555
C11 C10 1_555 1_555
C12 C11 1_555 1_555
H9 C12 1_555 1_555
C13 C12 1_555 1_555
H10 C13 1_555 1_555
C14 C13 1_555 1_555
C15 C10 1_555 1_555
H11 C15 1_555 1_555
H12 N1 1_555 1_555
C5 C8 1_555 1_555
C6 C7 1_555 1_555
C14 C15 1_555 1_555

#END
