
#######################################################################
#
#                 Cambridge Crystallographic Data Centre
#                                CCDC 
#
#######################################################################
#
# If this CIF has been generated from an entry in the Cambridge 
# Structural Database, then it will include bibliographic, chemical, 
# crystal, experimental, refinement or atomic coordinate data resulting 
# from the CCDC's data processing and validation procedures.
#
#######################################################################

data_YIMWIC01
_chemical_formula_moiety         'C12 H11 N1 O3'
_chemical_name_systematic        
4-(4-methoxybenzylidene)-3-methyl-1,2-oxazol-5(4H)-one
_symmetry_cell_setting           monoclinic
_symmetry_space_group_name_H-M   'P 21/c'
_symmetry_Int_Tables_number      14
_space_group_name_Hall           '-P 2ybc'
loop_
_symmetry_equiv_pos_site_id
_symmetry_equiv_pos_as_xyz
1 x,y,z
2 -x,1/2+y,1/2-z
3 -x,-y,-z
4 x,1/2-y,1/2+z
_cell_length_a                   12.8234(7)
_cell_length_b                   6.9230(4)
_cell_length_c                   12.7631(7)
_cell_angle_alpha                90
_cell_angle_beta                 111.8740(10)
_cell_angle_gamma                90
_cell_volume                     1051.49
_exptl_crystal_colour            orange
_exptl_crystal_description       bar
_cell_formula_units_Z            4
loop_
_atom_site_label
_atom_site_type_symbol
_atom_site_fract_x
_atom_site_fract_y
_atom_site_fract_z
C1 C 0.54996(13) 0.0844(3) 0.67852(16)
H1 H 0.5759 -0.0186 0.7324
H2 H 0.4733 0.0608 0.6301
H3 H 0.5547 0.2045 0.7176
C2 C 0.73098(11) 0.10963(17) 0.66656(12)
C3 C 0.78549(11) 0.13158(18) 0.78253(12)
H4 H 0.7443 0.1405 0.8288
C4 C 0.90128(11) 0.14006(18) 0.82832(11)
H5 H 0.9373 0.1537 0.9060
C5 C 0.96617(10) 0.12877(16) 0.76115(10)
C6 C 0.90884(11) 0.11013(17) 0.64422(11)
H6 H 0.9494 0.1037 0.5972
C7 C 0.79420(11) 0.10122(18) 0.59833(11)
H7 H 0.7578 0.0894 0.5205
C8 C 1.08648(10) 0.12683(16) 0.81850(10)
H8 H 1.1093 0.1298 0.8967
C9 C 1.17362(11) 0.12161(16) 0.78234(10)
C10 C 1.17866(11) 0.13573(18) 0.66980(11)
C11 C 1.29030(11) 0.10215(18) 0.85638(11)
C12 C 1.33527(12) 0.0833(2) 0.98137(12)
H9 H 1.4159 0.0816 1.0093
H10 H 1.3085 -0.0347 1.0020
H11 H 1.3104 0.1908 1.0136
N1 N 1.35799(10) 0.09814(18) 0.80313(11)
O1 O 0.61838(8) 0.09392(15) 0.61231(9)
O2 O 1.10976(8) 0.16122(16) 0.57636(8)
O3 O 1.28962(8) 0.11951(15) 0.68459(9)
loop_
_geom_bond_atom_site_label_1
_geom_bond_atom_site_label_2
_geom_bond_site_symmetry_1
_geom_bond_site_symmetry_2
C1 H1 1_555 1_555
H2 C1 1_555 1_555
H3 C1 1_555 1_555
C2 C3 1_555 1_555
C3 H4 1_555 1_555
C4 C3 1_555 1_555
H5 C4 1_555 1_555
C5 C4 1_555 1_555
C6 C5 1_555 1_555
H6 C6 1_555 1_555
C7 C2 1_555 1_555
H7 C7 1_555 1_555
C8 C5 1_555 1_555
H8 C8 1_555 1_555
C9 C8 1_555 1_555
C10 C9 1_555 1_555
C11 C9 1_555 1_555
C12 C11 1_555 1_555
H9 C12 1_555 1_555
H10 C12 1_555 1_555
H11 C12 1_555 1_555
N1 C11 1_555 1_555
O1 C1 1_555 1_555
O2 C10 1_555 1_555
O3 C10 1_555 1_555
C2 O1 1_555 1_555
C6 C7 1_555 1_555
N1 O3 1_555 1_555

#END
