
#######################################################################
#
#                 Cambridge Crystallographic Data Centre
#                                CCDC 
#
#######################################################################
#
# If this CIF has been generated from an entry in the Cambridge 
# Structural Database, then it will include bibliographic, chemical, 
# crystal, experimental, refinement or atomic coordinate data resulting 
# from the CCDC's data processing and validation procedures.
#
#######################################################################

data_YIMXIE
_chemical_formula_moiety         'C4 H3 N5 O3,H2 O1'
_chemical_name_systematic        
'3-(4-amino-1,2,5-oxadiazol-3-yl)-1,2,4-oxadiazol-5(4H)-one monohydrate'
_symmetry_cell_setting           monoclinic
_symmetry_space_group_name_H-M   'P 21/n'
_symmetry_Int_Tables_number      14
_space_group_name_Hall           '-P 2yn'
loop_
_symmetry_equiv_pos_site_id
_symmetry_equiv_pos_as_xyz
1 x,y,z
2 1/2-x,1/2+y,1/2-z
3 -x,-y,-z
4 1/2+x,1/2-y,1/2+z
_cell_length_a                   8.6418(10)
_cell_length_b                   4.9850(5)
_cell_length_c                   17.235(2)
_cell_angle_alpha                90
_cell_angle_beta                 104.095(3)
_cell_angle_gamma                90
_cell_volume                     720.12
_exptl_crystal_description       block
_cell_formula_units_Z            4
loop_
_atom_site_label
_atom_site_type_symbol
_atom_site_fract_x
_atom_site_fract_y
_atom_site_fract_z
C1 C 0.2085(3) 0.7099(5) 0.90417(13)
C2 C 0.1514(3) 0.9510(5) 0.79436(14)
C3 C 0.3017(3) 0.4923(5) 1.04387(14)
C4 C 0.2008(3) 0.5117(5) 0.96458(13)
N1 N 0.3225(2) 0.8859(4) 0.91588(11)
N2 N 0.1024(2) 0.7389(4) 0.83206(11)
H1 H 0.019(3) 0.637(5) 0.8105(14)
N3 N 0.2560(2) 0.2841(4) 1.07915(12)
N4 N 0.0953(2) 0.3203(4) 0.95272(12)
N5 N 0.4222(3) 0.6564(5) 1.07829(14)
H2 H 0.487(3) 0.610(6) 1.1271(17)
H3 H 0.446(3) 0.790(6) 1.0511(17)
O1 O 0.28749(18) 1.0448(3) 0.84539(9)
O2 O 0.12564(19) 0.1758(3) 1.02236(10)
O3 O 0.0952(2) 1.0528(3) 0.73021(10)
O4 O 0.8255(2) 0.5019(4) 0.73857(11)
H4 H 0.790(3) 0.370(6) 0.7590(16)
H5 H 0.827(3) 0.459(6) 0.6917(17)
loop_
_geom_bond_atom_site_label_1
_geom_bond_atom_site_label_2
_geom_bond_site_symmetry_1
_geom_bond_site_symmetry_2
C1 C4 1_555 1_555
C2 N2 1_555 1_555
C3 C4 1_555 1_555
C4 N4 1_555 1_555
N1 C1 1_555 1_555
N2 C1 1_555 1_555
H1 N2 1_555 1_555
N3 C3 1_555 1_555
N4 O2 1_555 1_555
N5 C3 1_555 1_555
H2 N5 1_555 1_555
H3 N5 1_555 1_555
O1 C2 1_555 1_555
O2 N3 1_555 1_555
O3 C2 1_555 1_555
O4 H4 1_555 1_555
H5 O4 1_555 1_555
N1 O1 1_555 1_555

#END
