
#######################################################################
#
#                 Cambridge Crystallographic Data Centre
#                                CCDC 
#
#######################################################################
#
# If this CIF has been generated from an entry in the Cambridge 
# Structural Database, then it will include bibliographic, chemical, 
# crystal, experimental, refinement or atomic coordinate data resulting 
# from the CCDC's data processing and validation procedures.
#
#######################################################################

data_YIMXOK
_chemical_formula_moiety         'C4 N6 O5 2-,2(H4 N1 1+)'
_chemical_name_systematic        
'bis(ammonium) 3-[4-(nitroazanidyl)-1,2,5-oxadiazol-3-yl]-5-oxo-5H-1,2,4-oxadiazol-4-ide'
_symmetry_cell_setting           monoclinic
_symmetry_space_group_name_H-M   'P 21/c'
_symmetry_Int_Tables_number      14
_space_group_name_Hall           '-P 2ybc'
loop_
_symmetry_equiv_pos_site_id
_symmetry_equiv_pos_as_xyz
1 x,y,z
2 -x,1/2+y,1/2-z
3 -x,-y,-z
4 x,1/2-y,1/2+z
_cell_length_a                   8.9160(13)
_cell_length_b                   13.4685(15)
_cell_length_c                   8.1632(12)
_cell_angle_alpha                90
_cell_angle_beta                 97.542(5)
_cell_angle_gamma                90
_cell_volume                     971.799
_exptl_crystal_description       column
_cell_formula_units_Z            4
loop_
_atom_site_label
_atom_site_type_symbol
_atom_site_fract_x
_atom_site_fract_y
_atom_site_fract_z
C1 C 0.5911(4) 0.2739(2) 1.0551(4)
C2 C 0.7250(4) 0.2730(2) 0.9738(4)
C3 C 0.8096(4) 0.1884(2) 0.9212(4)
C4 C 0.9680(4) 0.1054(2) 0.8067(4)
N1 N 0.5537(3) 0.36683(19) 1.0790(4)
N2 N 0.7665(3) 0.3636(2) 0.9473(4)
N3 N 0.5258(3) 0.18605(19) 1.0939(3)
N4 N 0.4037(3) 0.1922(2) 1.1708(4)
N5 N 0.7690(4) 0.0982(2) 0.9496(4)
N6 N 0.9306(3) 0.19871(19) 0.8360(4)
O1 O 0.6639(3) 0.42349(15) 1.0126(3)
O2 O 0.3475(3) 0.27084(17) 1.2122(3)
O3 O 0.3481(3) 0.10975(17) 1.2007(4)
O4 O 0.8748(3) 0.04084(16) 0.8752(3)
O5 O 1.0658(3) 0.06952(16) 0.7278(3)
N7 N 0.6213(3) 0.96641(19) 0.1732(4)
H1 H 0.607(3) 1.0338(12) 0.149(3)
H2 H 0.7272(18) 0.9538(19) 0.204(3)
H3 H 0.586(3) 0.9274(17) 0.081(2)
H4 H 0.571(3) 0.9479(18) 0.264(3)
N8 N 0.9031(3) 0.8807(2) 0.6158(4)
H5 H 0.884(3) 0.887(2) 0.4991(19)
H6 H 0.809(2) 0.882(2) 0.657(3)
H7 H 0.965(3) 0.9325(16) 0.661(3)
H8 H 0.952(3) 0.8190(14) 0.642(3)
loop_
_geom_bond_atom_site_label_1
_geom_bond_atom_site_label_2
_geom_bond_site_symmetry_1
_geom_bond_site_symmetry_2
C1 C2 1_555 1_555
C2 C3 1_555 1_555
C3 N5 1_555 1_555
C4 N6 1_555 1_555
N1 C1 1_555 1_555
N2 C2 1_555 1_555
N3 C1 1_555 1_555
N4 N3 1_555 1_555
N5 O4 1_555 1_555
N6 C3 1_555 1_555
O1 N1 1_555 1_555
O2 N4 1_555 1_555
O3 N4 1_555 1_555
O4 C4 1_555 1_555
O5 C4 1_555 1_555
N7 H1 1_555 1_555
H2 N7 1_555 1_555
H3 N7 1_555 1_555
H4 N7 1_555 1_555
N8 H5 1_555 1_555
H6 N8 1_555 1_555
H7 N8 1_555 1_555
H8 N8 1_555 1_555
N2 O1 1_555 1_555

#END
