
#######################################################################
#
#                 Cambridge Crystallographic Data Centre
#                                CCDC 
#
#######################################################################
#
# If this CIF has been generated from an entry in the Cambridge 
# Structural Database, then it will include bibliographic, chemical, 
# crystal, experimental, refinement or atomic coordinate data resulting 
# from the CCDC's data processing and validation procedures.
#
#######################################################################

data_YIMYOL
_chemical_formula_moiety         'C96 H30'
_chemical_name_systematic        'hexaphenyl C60fullerene'
_symmetry_cell_setting           monoclinic
_symmetry_space_group_name_H-M   'P 21/c'
_symmetry_Int_Tables_number      14
_space_group_name_Hall           '-P 2ybc'
loop_
_symmetry_equiv_pos_site_id
_symmetry_equiv_pos_as_xyz
1 x,y,z
2 -x,1/2+y,1/2-z
3 -x,-y,-z
4 x,1/2-y,1/2+z
_cell_length_a                   22.965(4)
_cell_length_b                   26.334(5)
_cell_length_c                   19.819(4)
_cell_angle_alpha                90
_cell_angle_beta                 110.524(4)
_cell_angle_gamma                90
_cell_volume                     11225
_cell_formula_units_Z            8
loop_
_atom_site_label
_atom_site_type_symbol
_atom_site_fract_x
_atom_site_fract_y
_atom_site_fract_z
C1 C -0.0643(3) 0.6344(3) 0.3972(4)
H1 H -0.0885 0.6554 0.3603
C2 C 0.1456(2) 0.63306(17) 0.2526(3)
C3 C -0.1534(3) 0.7004(2) 0.2397(3)
H2 H -0.1323 0.6718 0.2331
C4 C -0.0699(3) 0.5197(2) 0.2621(5)
H3 H -0.0745 0.4991 0.2979
C5 C 0.1691(3) 0.8490(2) 0.4292(3)
C6 C 0.0874(3) 0.88455(19) 0.3238(3)
C7 C -0.0929(4) 0.6036(3) 0.4335(5)
H4 H -0.1360 0.6033 0.4200
C8 C -0.2161(3) 0.6969(3) 0.2269(4)
H5 H -0.2371 0.6665 0.2106
C9 C -0.1371(3) 0.7024(3) 0.0670(3)
H6 H -0.1292 0.6823 0.1078
C10 C 0.1016(2) 0.61178(18) 0.2894(3)
C11 C 0.2754(2) 0.7208(2) 0.3434(3)
C12 C 0.0336(3) 0.6040(2) 0.4721(3)
H7 H 0.0767 0.6042 0.4859
C13 C 0.1998(3) 0.8408(2) 0.2131(3)
C14 C 0.0664(3) 0.8274(2) 0.4103(3)
C15 C -0.1920(4) 0.6965(3) 0.0107(4)
H8 H -0.2215 0.6733 0.0137
C16 C 0.1312(2) 0.63778(18) 0.3637(3)
C17 C 0.0449(3) 0.8035(2) 0.1147(3)
C18 C 0.1055(3) 0.8176(2) 0.1250(3)
C19 C -0.0928(3) 0.7378(2) 0.0648(3)
C20 C 0.1003(3) 0.6613(2) 0.4021(3)
C21 C -0.0144(2) 0.70202(19) 0.1822(2)
C22 C 0.1307(3) 0.7007(2) 0.4518(3)
C23 C 0.2283(3) 0.8513(2) 0.2850(4)
C24 C -0.0536(3) 0.5795(2) 0.1570(3)
H9 H -0.0475 0.5994 0.1213
C25 C 0.2760(3) 0.7665(2) 0.3055(3)
C26 C 0.0054(4) 0.5741(3) 0.5079(4)
H10 H 0.0296 0.5537 0.5456
C27 C 0.1268(3) 0.5296(2) 0.3599(3)
H11 H 0.1360 0.5481 0.4023
C28 C 0.0997(3) 0.5261(2) 0.2338(3)
H12 H 0.0895 0.5419 0.1892
C29 C 0.0082(2) 0.66681(18) 0.2946(3)
C30 C 0.2669(2) 0.7237(2) 0.4099(3)
C31 C 0.1349(3) 0.8918(2) 0.2909(3)
C32 C 0.2035(2) 0.64882(19) 0.3071(3)
C33 C -0.1050(3) 0.7649(3) 0.0037(3)
H13 H -0.0761 0.7886 0.0005
C34 C 0.1195(3) 0.4498(3) 0.3033(4)
H14 H 0.1214 0.4145 0.3063
C35 C 0.1684(2) 0.69077(19) 0.1703(3)
C36 C -0.0316(3) 0.74474(19) 0.1272(3)
C37 C -0.0346(3) 0.5953(3) -0.0410(3)
H15 H -0.0740 0.5985 -0.0758
C38 C 0.2077(3) 0.7932(2) 0.1841(3)
C39 C 0.0098(3) 0.8294(2) 0.1535(3)
C40 C 0.1094(2) 0.5550(2) 0.2947(3)
C41 C -0.1100(3) 0.5132(2) 0.1908(5)
H16 H -0.1418 0.4893 0.1797
C42 C -0.0289(2) 0.79382(19) 0.1699(3)
C43 C 0.0665(3) 0.7155(2) 0.1087(3)
C44 C -0.2028(4) 0.7250(4) -0.0497(4)
H17 H -0.2402 0.7215 -0.0879
C45 C -0.1598(4) 0.7582(4) -0.0547(4)
H18 H -0.1668 0.7765 -0.0970
C46 C 0.0044(4) 0.5589(2) -0.0473(4)
H19 H -0.0083 0.5366 -0.0862
C47 C -0.1538(3) 0.7874(3) 0.2736(4)
H20 H -0.1334 0.8181 0.2890
C48 C 0.0416(2) 0.6243(2) 0.0700(3)
C49 C 0.2455(3) 0.7564(2) 0.2287(3)
C50 C 0.2574(2) 0.7722(2) 0.4392(3)
C51 C -0.0163(3) 0.5861(2) 0.2271(3)
C52 C 0.0273(2) 0.7259(2) 0.3966(3)
C53 C 0.1053(3) 0.8636(2) 0.3924(3)
C54 C 0.0396(3) 0.86806(19) 0.2024(3)
C55 C -0.0153(3) 0.6284(2) 0.0184(3)
H21 H -0.0423 0.6537 0.0223
C56 C -0.0026(3) 0.6343(2) 0.4146(3)
C57 C 0.2252(3) 0.6873(2) 0.4247(3)
C58 C 0.1355(3) 0.8565(2) 0.1759(3)
C59 C 0.1287(2) 0.65309(18) 0.1846(2)
C60 C -0.0248(3) 0.5553(2) 0.2800(3)
H22 H 0.0008 0.5592 0.3278
C61 C 0.1937(2) 0.6509(2) 0.3750(3)
C62 C 0.2123(3) 0.7660(2) 0.4743(3)
C63 C -0.0103(2) 0.7617(2) 0.3516(3)
C64 C -0.0246(2) 0.7038(2) 0.2506(3)
C65 C -0.1213(3) 0.7442(2) 0.2615(3)
C66 C 0.0323(2) 0.63029(18) 0.2498(3)
C67 C 0.0810(3) 0.5871(2) 0.0624(3)
H23 H 0.1203 0.5836 0.0973
C68 C 0.1054(3) 0.4727(3) 0.2387(4)
H24 H 0.0993 0.4535 0.1975
C69 C -0.2167(4) 0.7822(4) 0.2616(4)
H25 H -0.2386 0.8099 0.2698
C70 C 0.1034(3) 0.8809(2) 0.2139(3)
C71 C 0.0631(3) 0.5547(2) 0.0037(3)
H26 H 0.0906 0.5303 -0.0012
C72 C -0.1019(3) 0.5422(3) 0.1380(4)
H27 H -0.1274 0.5379 0.0902
C73 C 0.1055(3) 0.7899(2) 0.4571(3)
C74 C 0.0299(2) 0.6693(2) 0.3759(3)
C75 C 0.0115(3) 0.81286(19) 0.3579(3)
C76 C -0.2474(4) 0.7379(4) 0.2384(4)
H28 H -0.2898 0.7355 0.2303
C77 C -0.0567(4) 0.5737(3) 0.4895(4)
H29 H -0.0753 0.5533 0.5145
C78 C 0.2676(3) 0.8139(2) 0.3326(3)
C79 C 0.1498(3) 0.7786(2) 0.1300(3)
C80 C 0.1919(3) 0.7139(2) 0.4656(3)
C81 C 0.1700(3) 0.8035(2) 0.4698(3)
C82 C 0.0862(2) 0.7396(2) 0.4483(3)
C83 C -0.0518(2) 0.74973(18) 0.2743(3)
C84 C -0.0069(3) 0.83346(19) 0.2857(3)
C85 C 0.1950(3) 0.8767(2) 0.3250(3)
C86 C 0.1292(3) 0.7286(2) 0.1233(3)
C87 C 0.2132(3) 0.8549(2) 0.3961(3)
C88 C 0.0616(2) 0.66004(19) 0.1343(3)
C89 C 0.0222(2) 0.66271(19) 0.1813(2)
C90 C -0.0379(2) 0.79611(19) 0.2346(3)
C91 C 0.0248(3) 0.7522(2) 0.1055(3)
C92 C 0.2584(3) 0.8165(2) 0.4006(3)
C93 C 0.1306(4) 0.4774(3) 0.3630(4)
H30 H 0.1412 0.4612 0.4073
C94 C 0.0302(3) 0.86996(19) 0.2708(3)
C95 C 0.2244(3) 0.7034(2) 0.2209(3)
C96 C 0.2431(2) 0.6826(2) 0.2920(3)
C97 C 0.4880(4) 0.6677(3) 0.0210(4)
H31 H 0.4449 0.6670 0.0000
C98 C 0.2958(4) 0.4160(3) 0.2326(4)
C99 C 0.7520(4) 0.5297(4) 0.2421(4)
H32 H 0.7940 0.5341 0.2496
C100 C 0.5217(5) 0.6993(3) -0.0051(4)
H33 H 0.5013 0.7204 -0.0438
C101 C 0.4566(3) 0.3894(2) 0.2461(3)
C102 C 0.3909(4) 0.3768(2) 0.2280(4)
C103 C 0.6996(4) 0.4964(4) 0.5245(4)
H34 H 0.7359 0.4936 0.5644
C104 C 0.3699(3) 0.7877(3) 0.1438(4)
H35 H 0.3542 0.8068 0.1018
C105 C 0.3452(3) 0.4714(3) 0.3260(3)
C106 C 0.2447(3) 0.4556(3) 0.0477(4)
C107 C 0.2672(4) 0.4107(3) 0.1571(5)
C108 C 0.6595(4) 0.4586(3) 0.5069(4)
H36 H 0.6691 0.4290 0.5341
C109 C 0.3871(3) 0.8114(2) 0.2106(4)
H37 H 0.3838 0.8465 0.2134
C110 C 0.5281(3) 0.4607(2) 0.2933(3)
C111 C 0.2963(3) 0.5119(3) -0.0117(3)
C112 C 0.5234(2) 0.67177(19) 0.2642(3)
C113 C 0.6103(3) 0.7119(3) 0.3581(4)
H38 H 0.6370 0.7137 0.4058
C114 C 0.6167(4) 0.7453(2) 0.3071(4)
H39 H 0.6480 0.7697 0.3204
C115 C 0.5317(3) 0.7068(2) 0.2177(3)
H40 H 0.5049 0.7063 0.1700
C116 C 0.3675(3) 0.5220(2) 0.3426(3)
C117 C 0.5822(3) 0.6367(2) 0.1066(3)
H41 H 0.6031 0.6147 0.1439
C118 C 0.5629(3) 0.6751(2) 0.3367(3)
H42 H 0.5577 0.6529 0.3706
C119 C 0.5773(3) 0.7423(2) 0.2378(4)
H43 H 0.5816 0.7649 0.2038
C120 C 0.5847(6) 0.7005(3) 0.0243(5)
H44 H 0.6068 0.7231 0.0064
C121 C 0.5185(3) 0.6360(2) 0.0800(3)
C122 C 0.6053(3) 0.4611(3) 0.4511(3)
H45 H 0.5773 0.4343 0.4418
C123 C 0.6161(4) 0.6687(3) 0.0805(4)
H46 H 0.6593 0.6689 0.1001
C124 C 0.4142(2) 0.7316(2) 0.2679(3)
H47 H 0.4284 0.7125 0.3100
C125 C 0.2848(3) 0.5845(3) 0.0480(3)
C126 C 0.3634(4) 0.3721(2) 0.1517(4)
C127 C 0.5168(3) 0.5534(2) 0.2968(3)
C128 C 0.2321(3) 0.4530(3) 0.1145(4)
C129 C 0.3181(3) 0.5625(3) 0.0066(3)
C130 C 0.6567(3) 0.4844(3) 0.1862(4)
H48 H 0.6354 0.4580 0.1567
C131 C 0.2240(3) 0.4974(3) 0.1493(4)
C132 C 0.3884(4) 0.4328(3) 0.3266(4)
C133 C 0.4381(3) 0.5894(2) 0.3447(3)
C134 C 0.5405(3) 0.4630(2) 0.2309(3)
C135 C 0.3036(4) 0.3888(3) 0.1168(4)
C136 C 0.2877(4) 0.4166(3) 0.0480(4)
C137 C 0.2414(3) 0.5476(2) 0.0556(3)
C138 C 0.4117(4) 0.3820(2) 0.1216(4)
C139 C 0.2494(4) 0.5027(3) 0.0179(4)
C140 C 0.6877(4) 0.5405(4) 0.4835(5)
H49 H 0.7162 0.5671 0.4944
C141 C 0.5002(2) 0.5956(2) 0.1908(3)
C142 C 0.4311(3) 0.5336(2) 0.3621(3)
C143 C 0.6312(3) 0.5436(3) 0.4247(4)
H50 H 0.6215 0.5733 0.3977
C144 C 0.5284(3) 0.6444(3) 0.5301(3)
H51 H 0.5671 0.6405 0.5661
C145 C 0.2523(3) 0.5018(3) 0.2273(4)
C146 C 0.4291(4) 0.6834(3) 0.4860(4)
H52 H 0.4002 0.7062 0.4916
C147 C 0.3789(3) 0.6298(2) 0.1199(3)
C148 C 0.4146(3) 0.6556(2) 0.4250(3)
H53 H 0.3755 0.6595 0.3896
C149 C 0.4238(3) 0.5363(2) 0.0249(3)
C150 C 0.3967(4) 0.4076(3) 0.0564(4)
C151 C 0.4936(3) 0.4559(2) 0.1044(3)
C152 C 0.4066(2) 0.6496(2) 0.1996(3)
C153 C 0.7209(4) 0.4912(4) 0.2013(5)
H54 H 0.7421 0.4684 0.1825
C154 C 0.5285(3) 0.5563(2) 0.2285(3)
C155 C 0.4820(3) 0.5458(2) 0.0810(3)
C156 C 0.4725(3) 0.4964(2) 0.3626(3)
C157 C 0.3161(3) 0.6173(2) 0.1043(3)
C158 C 0.4811(3) 0.5996(2) 0.1096(3)
C159 C 0.7234(3) 0.5615(3) 0.2719(5)
H55 H 0.7459 0.5871 0.3023
C160 C 0.5129(3) 0.6163(2) 0.4671(3)
H56 H 0.5415 0.5936 0.4607
C161 C 0.6604(3) 0.5568(3) 0.2580(4)
H57 H 0.6406 0.5805 0.2774
C162 C 0.3391(3) 0.4743(3) -0.0111(3)
C163 C 0.4396(3) 0.4453(2) 0.0488(3)
C164 C 0.5568(3) 0.5124(2) 0.2010(3)
C165 C 0.4809(2) 0.59134(19) 0.3010(3)
C166 C 0.3345(4) 0.4249(3) 0.0202(4)
C167 C 0.3567(4) 0.3975(2) 0.2673(4)
C168 C 0.4687(3) 0.3927(2) 0.1799(3)
C169 C 0.5096(3) 0.4288(2) 0.1738(3)
C170 C 0.2857(3) 0.4621(3) 0.2676(4)
C171 C 0.5305(3) 0.5052(2) 0.3426(3)
C172 C 0.3729(3) 0.6002(2) 0.2925(3)
C173 C 0.4757(2) 0.6290(2) 0.2396(3)
C174 C 0.4089(3) 0.7830(2) 0.2722(4)
H58 H 0.4201 0.7988 0.3169
C175 C 0.2299(3) 0.5454(3) 0.1191(4)
C176 C 0.4853(4) 0.6783(3) 0.5391(4)
H59 H 0.4949 0.6974 0.5811
C177 C 0.3760(3) 0.7361(2) 0.1400(4)
H60 H 0.3648 0.7203 0.0953
C178 C 0.4111(3) 0.6090(2) 0.0811(3)
C179 C 0.3987(3) 0.7076(2) 0.2020(3)
C180 C 0.4029(3) 0.4852(2) 0.0071(3)
C181 C 0.2603(3) 0.5799(2) 0.1778(3)
C182 C 0.5913(3) 0.5045(2) 0.4071(3)
C183 C 0.3299(3) 0.5622(2) 0.2986(3)
C184 C 0.6260(3) 0.5178(2) 0.2161(3)
C185 C 0.4501(3) 0.4458(2) 0.3416(3)
C186 C 0.5160(3) 0.5059(2) 0.1199(3)
C187 C 0.4556(3) 0.6220(2) 0.4138(3)
C188 C 0.2744(3) 0.5525(2) 0.2438(3)
C189 C 0.4852(3) 0.4233(2) 0.3009(3)
C190 C 0.3808(3) 0.5744(2) 0.0245(3)
C191 C 0.3024(3) 0.6138(2) 0.1700(3)
C192 C 0.3600(3) 0.62504(19) 0.2288(3)
loop_
_geom_bond_atom_site_label_1
_geom_bond_atom_site_label_2
_geom_bond_site_symmetry_1
_geom_bond_site_symmetry_2
C1 H1 1_555 1_555
C2 C10 1_555 1_555
C3 H2 1_555 1_555
C4 H3 1_555 1_555
C5 C53 1_555 1_555
C6 C31 1_555 1_555
C7 C1 1_555 1_555
H4 C7 1_555 1_555
C8 C3 1_555 1_555
H5 C8 1_555 1_555
C9 H6 1_555 1_555
C10 C16 1_555 1_555
C11 C25 1_555 1_555
C12 H7 1_555 1_555
C13 C23 1_555 1_555
C14 C53 1_555 1_555
C15 C9 1_555 1_555
H8 C15 1_555 1_555
C16 C20 1_555 1_555
C17 C18 1_555 1_555
C18 C58 1_555 1_555
C19 C9 1_555 1_555
C20 C22 1_555 1_555
C21 C36 1_555 1_555
C22 C80 1_555 1_555
C23 C78 1_555 1_555
C24 H9 1_555 1_555
C25 C49 1_555 1_555
C26 C12 1_555 1_555
H10 C26 1_555 1_555
C27 H11 1_555 1_555
C28 H12 1_555 1_555
C29 C64 1_555 1_555
C30 C11 1_555 1_555
C31 C70 1_555 1_555
C32 C2 1_555 1_555
C33 C19 1_555 1_555
H13 C33 1_555 1_555
C34 H14 1_555 1_555
C35 C59 1_555 1_555
C36 C19 1_555 1_555
C37 H15 1_555 1_555
C38 C13 1_555 1_555
C39 C17 1_555 1_555
C40 C10 1_555 1_555
C41 C4 1_555 1_555
H16 C41 1_555 1_555
C42 C36 1_555 1_555
C43 C86 1_555 1_555
C44 C15 1_555 1_555
H17 C44 1_555 1_555
C45 C33 1_555 1_555
H18 C45 1_555 1_555
C46 C37 1_555 1_555
H19 C46 1_555 1_555
C47 H20 1_555 1_555
C48 C55 1_555 1_555
C49 C38 1_555 1_555
C50 C30 1_555 1_555
C51 C24 1_555 1_555
C52 C63 1_555 1_555
C53 C6 1_555 1_555
C54 C39 1_555 1_555
C55 C37 1_555 1_555
H21 C55 1_555 1_555
C56 C1 1_555 1_555
C57 C30 1_555 1_555
C58 C13 1_555 1_555
C59 C2 1_555 1_555
C60 C4 1_555 1_555
H22 C60 1_555 1_555
C61 C16 1_555 1_555
C62 C50 1_555 1_555
C63 C75 1_555 1_555
C64 C21 1_555 1_555
C65 C3 1_555 1_555
C66 C10 1_555 1_555
C67 C48 1_555 1_555
H23 C67 1_555 1_555
C68 C28 1_555 1_555
H24 C68 1_555 1_555
C69 C47 1_555 1_555
H25 C69 1_555 1_555
C70 C54 1_555 1_555
C71 C46 1_555 1_555
H26 C71 1_555 1_555
C72 C24 1_555 1_555
H27 C72 1_555 1_555
C73 C14 1_555 1_555
C74 C20 1_555 1_555
C75 C14 1_555 1_555
C76 C8 1_555 1_555
H28 C76 1_555 1_555
C77 C7 1_555 1_555
H29 C77 1_555 1_555
C78 C25 1_555 1_555
C79 C18 1_555 1_555
C80 C57 1_555 1_555
C81 C5 1_555 1_555
C82 C22 1_555 1_555
C83 C63 1_555 1_555
C84 C75 1_555 1_555
C85 C23 1_555 1_555
C86 C35 1_555 1_555
C87 C5 1_555 1_555
C88 C43 1_555 1_555
C89 C21 1_555 1_555
C90 C42 1_555 1_555
C91 C17 1_555 1_555
C92 C50 1_555 1_555
C93 C27 1_555 1_555
H30 C93 1_555 1_555
C94 C6 1_555 1_555
C95 C35 1_555 1_555
C96 C11 1_555 1_555
C97 H31 1_555 1_555
C98 C107 1_555 1_555
C99 H32 1_555 1_555
C100 C97 1_555 1_555
H33 C100 1_555 1_555
C101 C102 1_555 1_555
C102 C126 1_555 1_555
C103 H34 1_555 1_555
C104 H35 1_555 1_555
C105 C116 1_555 1_555
C106 C128 1_555 1_555
C107 C128 1_555 1_555
C108 C103 1_555 1_555
H36 C108 1_555 1_555
C109 C104 1_555 1_555
H37 C109 1_555 1_555
C110 C134 1_555 1_555
C111 C129 1_555 1_555
C112 C115 1_555 1_555
C113 H38 1_555 1_555
C114 C113 1_555 1_555
H39 C114 1_555 1_555
C115 H40 1_555 1_555
C116 C142 1_555 1_555
C117 H41 1_555 1_555
C118 C112 1_555 1_555
H42 C118 1_555 1_555
C119 C114 1_555 1_555
H43 C119 1_555 1_555
C120 C100 1_555 1_555
H44 C120 1_555 1_555
C121 C97 1_555 1_555
C122 C108 1_555 1_555
H45 C122 1_555 1_555
C123 C117 1_555 1_555
H46 C123 1_555 1_555
C124 H47 1_555 1_555
C125 C129 1_555 1_555
C126 C135 1_555 1_555
C127 C154 1_555 1_555
C128 C131 1_555 1_555
C129 C190 1_555 1_555
C130 H48 1_555 1_555
C131 C145 1_555 1_555
C132 C105 1_555 1_555
C133 C142 1_555 1_555
C134 C164 1_555 1_555
C135 C107 1_555 1_555
C136 C106 1_555 1_555
C137 C125 1_555 1_555
C138 C126 1_555 1_555
C139 C106 1_555 1_555
C140 C103 1_555 1_555
H49 C140 1_555 1_555
C141 C154 1_555 1_555
C142 C156 1_555 1_555
C143 C140 1_555 1_555
H50 C143 1_555 1_555
C144 H51 1_555 1_555
C145 C170 1_555 1_555
C146 H52 1_555 1_555
C147 C152 1_555 1_555
C148 C146 1_555 1_555
H53 C148 1_555 1_555
C149 C155 1_555 1_555
C150 C138 1_555 1_555
C151 C163 1_555 1_555
C152 C173 1_555 1_555
C153 C99 1_555 1_555
H54 C153 1_555 1_555
C154 C164 1_555 1_555
C155 C158 1_555 1_555
C156 C171 1_555 1_555
C157 C125 1_555 1_555
C158 C121 1_555 1_555
C159 C99 1_555 1_555
H55 C159 1_555 1_555
C160 C144 1_555 1_555
H56 C160 1_555 1_555
C161 C159 1_555 1_555
H57 C161 1_555 1_555
C162 C111 1_555 1_555
C163 C150 1_555 1_555
C164 C184 1_555 1_555
C165 C127 1_555 1_555
C166 C136 1_555 1_555
C167 C98 1_555 1_555
C168 C101 1_555 1_555
C169 C134 1_555 1_555
C170 C98 1_555 1_555
C171 C110 1_555 1_555
C172 C133 1_555 1_555
C173 C112 1_555 1_555
C174 C109 1_555 1_555
H58 C174 1_555 1_555
C175 C131 1_555 1_555
C176 C144 1_555 1_555
H59 C176 1_555 1_555
C177 C104 1_555 1_555
H60 C177 1_555 1_555
C178 C147 1_555 1_555
C179 C124 1_555 1_555
C180 C149 1_555 1_555
C181 C175 1_555 1_555
C182 C122 1_555 1_555
C183 C116 1_555 1_555
C184 C130 1_555 1_555
C185 C132 1_555 1_555
C186 C151 1_555 1_555
C187 C133 1_555 1_555
C188 C145 1_555 1_555
C189 C101 1_555 1_555
C190 C149 1_555 1_555
C191 C157 1_555 1_555
C192 C152 1_555 1_555
C12 C56 1_555 1_555
C26 C77 1_555 1_555
C27 C40 1_555 1_555
C28 C40 1_555 1_555
C29 C66 1_555 1_555
C29 C74 1_555 1_555
C31 C85 1_555 1_555
C32 C61 1_555 1_555
C32 C96 1_555 1_555
C34 C68 1_555 1_555
C34 C93 1_555 1_555
C36 C91 1_555 1_555
C38 C79 1_555 1_555
C39 C42 1_555 1_555
C41 C72 1_555 1_555
C43 C91 1_555 1_555
C44 C45 1_555 1_555
C47 C65 1_555 1_555
C48 C88 1_555 1_555
C49 C95 1_555 1_555
C51 C60 1_555 1_555
C51 C66 1_555 1_555
C52 C74 1_555 1_555
C52 C82 1_555 1_555
C54 C94 1_555 1_555
C56 C74 1_555 1_555
C57 C61 1_555 1_555
C58 C70 1_555 1_555
C59 C88 1_555 1_555
C62 C80 1_555 1_555
C62 C81 1_555 1_555
C64 C83 1_555 1_555
C65 C83 1_555 1_555
C66 C89 1_555 1_555
C67 C71 1_555 1_555
C69 C76 1_555 1_555
C73 C81 1_555 1_555
C73 C82 1_555 1_555
C78 C92 1_555 1_555
C79 C86 1_555 1_555
C83 C90 1_555 1_555
C84 C90 1_555 1_555
C84 C94 1_555 1_555
C85 C87 1_555 1_555
C87 C92 1_555 1_555
C88 C89 1_555 1_555
C95 C96 1_555 1_555
C102 C167 1_555 1_555
C105 C170 1_555 1_555
C110 C189 1_555 1_555
C111 C139 1_555 1_555
C113 C118 1_555 1_555
C115 C119 1_555 1_555
C117 C121 1_555 1_555
C120 C123 1_555 1_555
C124 C174 1_555 1_555
C127 C171 1_555 1_555
C130 C153 1_555 1_555
C132 C167 1_555 1_555
C133 C165 1_555 1_555
C135 C136 1_555 1_555
C137 C139 1_555 1_555
C137 C175 1_555 1_555
C138 C168 1_555 1_555
C141 C158 1_555 1_555
C141 C173 1_555 1_555
C143 C182 1_555 1_555
C146 C176 1_555 1_555
C147 C157 1_555 1_555
C148 C187 1_555 1_555
C150 C166 1_555 1_555
C151 C169 1_555 1_555
C152 C179 1_555 1_555
C155 C186 1_555 1_555
C156 C185 1_555 1_555
C158 C178 1_555 1_555
C160 C187 1_555 1_555
C161 C184 1_555 1_555
C162 C166 1_555 1_555
C162 C180 1_555 1_555
C163 C180 1_555 1_555
C164 C186 1_555 1_555
C165 C173 1_555 1_555
C168 C169 1_555 1_555
C171 C182 1_555 1_555
C172 C183 1_555 1_555
C172 C192 1_555 1_555
C177 C179 1_555 1_555
C178 C190 1_555 1_555
C181 C188 1_555 1_555
C181 C191 1_555 1_555
C183 C188 1_555 1_555
C185 C189 1_555 1_555
C191 C192 1_555 1_555

#END
