
#######################################################################
#
#                 Cambridge Crystallographic Data Centre
#                                CCDC 
#
#######################################################################
#
# If this CIF has been generated from an entry in the Cambridge 
# Structural Database, then it will include bibliographic, chemical, 
# crystal, experimental, refinement or atomic coordinate data resulting 
# from the CCDC's data processing and validation procedures.
#
#######################################################################

data_YINBUU
_chemical_formula_moiety         'C34 H30 N2 O4'
_chemical_name_systematic        
1,1''-Dibenzyl-4',5'-dihydroxydispiro[indole-3,1'-cyclohexane-2',3''-indole]-2,2''(1H,1''H)-dione
_symmetry_cell_setting           orthorhombic
_symmetry_space_group_name_H-M   'P 21 21 21'
_symmetry_Int_Tables_number      19
_space_group_name_Hall           'P 2ac 2ab'
loop_
_symmetry_equiv_pos_site_id
_symmetry_equiv_pos_as_xyz
1 x,y,z
2 1/2-x,-y,1/2+z
3 -x,1/2+y,1/2-z
4 1/2+x,1/2-y,-z
_cell_length_a                   10.7417(10)
_cell_length_b                   13.5708(13)
_cell_length_c                   18.7332(17)
_cell_angle_alpha                90
_cell_angle_beta                 90
_cell_angle_gamma                90
_cell_volume                     2730.8
_exptl_crystal_colour            colorless
_exptl_crystal_description       prismatic
_cell_formula_units_Z            4
loop_
_atom_site_label
_atom_site_type_symbol
_atom_site_fract_x
_atom_site_fract_y
_atom_site_fract_z
N1 N 0.31258(16) 0.68740(14) 0.24700(9)
N2 N 0.55742(18) 0.80291(15) 0.45840(10)
O1 O 0.49453(16) 0.62150(12) 0.20751(8)
O2 O 0.65410(15) 0.90591(13) 0.37968(9)
O3 O 0.68250(18) 0.72271(17) 0.14675(9)
H1 H 0.6283 0.6837 0.1592
O4 O 0.83856(17) 0.84321(19) 0.29372(13)
C1 C 0.4376(2) 0.68623(17) 0.23904(11)
C2 C 0.2729(2) 0.77375(16) 0.28211(11)
C3 C 0.1531(2) 0.80362(18) 0.29581(12)
H2 H 0.0851 0.7642 0.2845
C4 C 0.1385(2) 0.89540(19) 0.32735(13)
H3 H 0.0587 0.9179 0.3378
C5 C 0.2386(2) 0.95354(19) 0.34340(14)
H4 H 0.2258 1.0153 0.3637
C6 C 0.3590(2) 0.92167(17) 0.32978(13)
H5 H 0.4269 0.9612 0.3409
C7 C 0.3756(2) 0.83052(16) 0.29949(11)
C8 C 0.4940(2) 0.77746(15) 0.27599(11)
C9 C 0.5708(2) 0.84058(19) 0.22378(13)
H6 H 0.5202 0.8531 0.1819
H7 H 0.5870 0.9037 0.2463
C10 C 0.6951(2) 0.7976(2) 0.19910(14)
H8 H 0.7407 0.8516 0.1763
C11 C 0.7747(2) 0.7634(2) 0.26123(14)
H9 H 0.8389 0.7204 0.2409
C12 C 0.7013(2) 0.70045(18) 0.31382(12)
H10 H 0.7538 0.6881 0.3550
H11 H 0.6849 0.6373 0.2915
C13 C 0.57637(19) 0.74262(16) 0.34065(11)
C14 C 0.6009(2) 0.82815(18) 0.39259(12)
C15 C 0.5026(2) 0.70859(17) 0.45763(12)
C16 C 0.5107(2) 0.66960(16) 0.38962(11)
C17 C 0.4676(2) 0.57538(17) 0.37779(14)
H12 H 0.4734 0.5470 0.3327
C18 C 0.4157(2) 0.5236(2) 0.43406(15)
H13 H 0.3855 0.4603 0.4263
C19 C 0.4078(2) 0.5638(2) 0.50069(16)
H14 H 0.3731 0.5272 0.5376
C20 C 0.4510(2) 0.6585(2) 0.51433(14)
H15 H 0.4453 0.6867 0.5595
C21 C 0.2316(2) 0.61187(17) 0.21647(12)
H16 H 0.1684 0.5942 0.2512
H17 H 0.2805 0.5534 0.2064
C22 C 0.1690(2) 0.64601(17) 0.14871(12)
C23 C 0.2377(3) 0.6745(2) 0.09057(13)
H18 H 0.3242 0.6718 0.0925
C24 C 0.1794(3) 0.7075(2) 0.02878(15)
H19 H 0.2266 0.7268 -0.0104
C25 C 0.0527(3) 0.7114(2) 0.02591(17)
H20 H 0.0133 0.7353 -0.0147
C26 C -0.0162(3) 0.6801(2) 0.08271(17)
H21 H -0.1027 0.6805 0.0800
C27 C 0.0414(2) 0.6480(2) 0.14377(14)
H22 H -0.0065 0.6274 0.1823
C28 C 0.5853(3) 0.8586(2) 0.52252(13)
H23 H 0.6568 0.9003 0.5130
H24 H 0.6089 0.8127 0.5598
C29 C 0.4818(3) 0.9225(2) 0.55041(14)
C30 C 0.3653(3) 0.9254(2) 0.52099(16)
H25 H 0.3465 0.8856 0.4820
C31 C 0.2750(4) 0.9875(3) 0.5491(2)
H26 H 0.1962 0.9894 0.5286
C32 C 0.3007(7) 1.0456(4) 0.6062(4)
H27 H 0.2400 1.0868 0.6251
C33 C 0.4160(8) 1.0426(4) 0.6352(3)
H28 H 0.4341 1.0826 0.6741
C34 C 0.5071(5) 0.9815(3) 0.60836(17)
H29 H 0.5855 0.9802 0.6293
H30 H 0.790(3) 0.869(3) 0.3234(15)
loop_
_geom_bond_atom_site_label_1
_geom_bond_atom_site_label_2
_geom_bond_site_symmetry_1
_geom_bond_site_symmetry_2
N1 C1 1_555 1_555
N2 C14 1_555 1_555
O1 C1 1_555 1_555
O2 C14 1_555 1_555
O3 H1 1_555 1_555
O4 C11 1_555 1_555
C1 C8 1_555 1_555
C2 N1 1_555 1_555
C3 C2 1_555 1_555
H2 C3 1_555 1_555
C4 C3 1_555 1_555
H3 C4 1_555 1_555
C5 C4 1_555 1_555
H4 C5 1_555 1_555
C6 C5 1_555 1_555
H5 C6 1_555 1_555
C7 C2 1_555 1_555
C8 C7 1_555 1_555
C9 C8 1_555 1_555
H6 C9 1_555 1_555
H7 C9 1_555 1_555
C10 O3 1_555 1_555
H8 C10 1_555 1_555
C11 C10 1_555 1_555
H9 C11 1_555 1_555
C12 C11 1_555 1_555
H10 C12 1_555 1_555
H11 C12 1_555 1_555
C13 C8 1_555 1_555
C14 C13 1_555 1_555
C15 N2 1_555 1_555
C16 C13 1_555 1_555
C17 C16 1_555 1_555
H12 C17 1_555 1_555
C18 C17 1_555 1_555
H13 C18 1_555 1_555
C19 C18 1_555 1_555
H14 C19 1_555 1_555
C20 C15 1_555 1_555
H15 C20 1_555 1_555
C21 N1 1_555 1_555
H16 C21 1_555 1_555
H17 C21 1_555 1_555
C22 C21 1_555 1_555
C23 C22 1_555 1_555
H18 C23 1_555 1_555
C24 C23 1_555 1_555
H19 C24 1_555 1_555
C25 C24 1_555 1_555
H20 C25 1_555 1_555
C26 C25 1_555 1_555
H21 C26 1_555 1_555
C27 C22 1_555 1_555
H22 C27 1_555 1_555
C28 N2 1_555 1_555
H23 C28 1_555 1_555
H24 C28 1_555 1_555
C29 C28 1_555 1_555
C30 C29 1_555 1_555
H25 C30 1_555 1_555
C31 C30 1_555 1_555
H26 C31 1_555 1_555
C32 C31 1_555 1_555
H27 C32 1_555 1_555
C33 C32 1_555 1_555
H28 C33 1_555 1_555
C34 C29 1_555 1_555
H29 C34 1_555 1_555
H30 O4 1_555 1_555
C6 C7 1_555 1_555
C9 C10 1_555 1_555
C12 C13 1_555 1_555
C15 C16 1_555 1_555
C19 C20 1_555 1_555
C26 C27 1_555 1_555
C33 C34 1_555 1_555

#END
