
#######################################################################
#
#                 Cambridge Crystallographic Data Centre
#                                CCDC 
#
#######################################################################
#
# If this CIF has been generated from an entry in the Cambridge 
# Structural Database, then it will include bibliographic, chemical, 
# crystal, experimental, refinement or atomic coordinate data resulting 
# from the CCDC's data processing and validation procedures.
#
#######################################################################

data_YINGEK
_chemical_formula_moiety         'C26 H34 O9'
_chemical_name_systematic        
'methyl 2-hydroxy-3-(5a-hydroxy-3,7,7,10a,10c-pentamethyl-2-methylidene-4,6,8-trioxotetradecahydro-1H-phenanthro[10,1-bc]furan-3-yl)-2-methyl-3-oxopropanoate'
_symmetry_cell_setting           monoclinic
_symmetry_space_group_name_H-M   'P 21'
_symmetry_Int_Tables_number      4
_space_group_name_Hall           'P 2yb'
loop_
_symmetry_equiv_pos_site_id
_symmetry_equiv_pos_as_xyz
1 x,y,z
2 -x,1/2+y,-z
_cell_length_a                   7.3751(3)
_cell_length_b                   15.7593(7)
_cell_length_c                   10.1577(4)
_cell_angle_alpha                90
_cell_angle_beta                 90.4660(10)
_cell_angle_gamma                90
_cell_volume                     1180.55
_exptl_crystal_colour            colorless
_exptl_crystal_description       block
_cell_formula_units_Z            2
loop_
_atom_site_label
_atom_site_type_symbol
_atom_site_fract_x
_atom_site_fract_y
_atom_site_fract_z
O1 O 0.38930(19) 0.26679(11) 0.46617(16)
O2 O 0.5106(2) 0.33813(11) 0.63684(17)
O3 O 0.3606(2) 0.13558(11) 0.63271(18)
H1 H 0.3759 0.0908 0.5895
O4 O 0.6080(2) 0.06822(12) 0.50024(17)
O5 O 0.5409(2) -0.18637(12) -0.04182(19)
O6 O 1.1760(2) -0.10417(12) 0.16433(17)
O7 O 0.9889(2) -0.04201(11) 0.43747(15)
O8 O 0.9165(2) 0.00790(11) 0.63657(17)
O9 O 1.26655(19) -0.00305(12) 0.35679(17)
H2 H 1.3137 -0.0509 0.3448
C1 C 0.9484(3) -0.12649(16) -0.0818(2)
H3 H 1.0760 -0.1278 -0.0541
H4 H 0.9233 -0.0732 -0.1282
H5 H 0.9236 -0.1744 -0.1407
C2 C 0.8257(3) -0.13292(14) 0.0408(2)
C3 C 0.8582(3) -0.06428(14) 0.1483(2)
H6 H 0.7783 -0.0813 0.2229
C4 C 0.8021(3) 0.02928(14) 0.1156(2)
C5 C 0.8148(3) 0.07854(15) 0.2474(2)
H7 H 0.7406 0.0448 0.3105
C6 C 0.7275(3) 0.16740(15) 0.2461(2)
H8 H 0.7596 0.1963 0.1629
H9 H 0.5940 0.1610 0.2476
C7 C 0.7860(3) 0.22277(14) 0.3609(2)
C8 C 0.8358(3) 0.17714(14) 0.4903(2)
C9 C 0.6572(3) 0.13713(15) 0.5382(2)
C10 C 0.5231(3) 0.18371(15) 0.6330(2)
C11 C 0.4757(3) 0.27268(15) 0.5809(2)
C12 C 0.3444(3) 0.34597(17) 0.4015(3)
H10 H 0.4292 0.3902 0.4304
H11 H 0.2205 0.3626 0.4243
H12 H 0.3530 0.3388 0.3059
C13 C 0.6298(3) -0.12456(16) -0.0126(2)
C14 C 0.5601(3) -0.03605(16) -0.0381(2)
H13 H 0.4274 -0.0387 -0.0527
H14 H 0.6156 -0.0143 -0.1198
C15 C 0.5998(3) 0.02659(16) 0.0739(2)
H15 H 0.5261 0.0108 0.1511
H16 H 0.5619 0.0841 0.0457
C16 C 0.8516(3) -0.22106(14) 0.1013(2)
H17 H 0.7831 -0.2249 0.1833
H18 H 0.9806 -0.2305 0.1199
H19 H 0.8076 -0.2642 0.0393
C17 C 1.0492(3) -0.06468(14) 0.2060(2)
C18 C 1.0836(3) -0.00671(15) 0.3259(2)
C19 C 0.9541(3) 0.02225(16) 0.5245(2)
C20 C 0.9794(3) 0.10697(15) 0.4575(2)
H20 H 1.0988 0.1293 0.4894
C21 C 1.0063(3) 0.08352(14) 0.3116(2)
C22 C 1.1426(3) 0.14291(15) 0.2441(2)
H21 H 1.2427 0.1555 0.3050
H22 H 1.0816 0.1958 0.2191
H23 H 1.1902 0.1152 0.1652
C23 C 0.9156(3) 0.06886(16) 0.0048(2)
H24 H 0.8684 0.0499 -0.0807
H25 H 1.0423 0.0510 0.0146
H26 H 0.9082 0.1309 0.0101
C24 C 0.7941(3) 0.30666(16) 0.3493(2)
H27 H 0.7629 0.3329 0.2680
H28 H 0.8310 0.3404 0.4223
C25 C 0.9214(3) 0.23621(16) 0.5926(2)
H29 H 1.0286 0.2635 0.5551
H30 H 0.9572 0.2033 0.6704
H31 H 0.8333 0.2797 0.6179
C26 C 0.5978(3) 0.18676(18) 0.7741(2)
H32 H 0.4975 0.1946 0.8356
H33 H 0.6830 0.2342 0.7827
H34 H 0.6605 0.1334 0.7942
loop_
_geom_bond_atom_site_label_1
_geom_bond_atom_site_label_2
_geom_bond_site_symmetry_1
_geom_bond_site_symmetry_2
O1 C11 1_555 1_555
O2 C11 1_555 1_555
O3 H1 1_555 1_555
O4 C9 1_555 1_555
O5 C13 1_555 1_555
O6 C17 1_555 1_555
O7 C18 1_555 1_555
O8 C19 1_555 1_555
O9 H2 1_555 1_555
C1 H3 1_555 1_555
H4 C1 1_555 1_555
H5 C1 1_555 1_555
C2 C1 1_555 1_555
C3 C2 1_555 1_555
H6 C3 1_555 1_555
C4 C3 1_555 1_555
C5 C4 1_555 1_555
H7 C5 1_555 1_555
C6 C5 1_555 1_555
H8 C6 1_555 1_555
H9 C6 1_555 1_555
C7 C6 1_555 1_555
C8 C7 1_555 1_555
C9 C8 1_555 1_555
C10 O3 1_555 1_555
C11 C10 1_555 1_555
C12 O1 1_555 1_555
H10 C12 1_555 1_555
H11 C12 1_555 1_555
H12 C12 1_555 1_555
C13 C2 1_555 1_555
C14 C13 1_555 1_555
H13 C14 1_555 1_555
H14 C14 1_555 1_555
C15 C4 1_555 1_555
H15 C15 1_555 1_555
H16 C15 1_555 1_555
C16 C2 1_555 1_555
H17 C16 1_555 1_555
H18 C16 1_555 1_555
H19 C16 1_555 1_555
C17 C3 1_555 1_555
C18 O9 1_555 1_555
C19 O7 1_555 1_555
C20 C8 1_555 1_555
H20 C20 1_555 1_555
C21 C5 1_555 1_555
C22 C21 1_555 1_555
H21 C22 1_555 1_555
H22 C22 1_555 1_555
H23 C22 1_555 1_555
C23 C4 1_555 1_555
H24 C23 1_555 1_555
H25 C23 1_555 1_555
H26 C23 1_555 1_555
C24 C7 1_555 1_555
H27 C24 1_555 1_555
H28 C24 1_555 1_555
C25 C8 1_555 1_555
H29 C25 1_555 1_555
H30 C25 1_555 1_555
H31 C25 1_555 1_555
C26 C10 1_555 1_555
H32 C26 1_555 1_555
H33 C26 1_555 1_555
H34 C26 1_555 1_555
C9 C10 1_555 1_555
C14 C15 1_555 1_555
C17 C18 1_555 1_555
C18 C21 1_555 1_555
C19 C20 1_555 1_555
C20 C21 1_555 1_555

#END
