
#######################################################################
#
#                 Cambridge Crystallographic Data Centre
#                                CCDC 
#
#######################################################################
#
# If this CIF has been generated from an entry in the Cambridge 
# Structural Database, then it will include bibliographic, chemical, 
# crystal, experimental, refinement or atomic coordinate data resulting 
# from the CCDC's data processing and validation procedures.
#
#######################################################################

data_YINGIO
_chemical_formula_moiety         'C29 H38 O10'
_chemical_name_systematic        
'dimethyl 15-(acetyloxy)-4,6,8,10,14,14-hexamethyl-7,18-dioxo-5,19-dioxapentacyclo[10.5.2.0^1,13^.0^2,10^.0^4,8^]nonadec-2-ene-6,9-dicarboxylate'
_symmetry_cell_setting           triclinic
_symmetry_space_group_name_H-M   'P 1'
_symmetry_Int_Tables_number      1
_space_group_name_Hall           'P 1'
loop_
_symmetry_equiv_pos_site_id
_symmetry_equiv_pos_as_xyz
1 x,y,z
_cell_length_a                   7.84890(10)
_cell_length_b                   7.85050(10)
_cell_length_c                   11.6784(2)
_cell_angle_alpha                74.58
_cell_angle_beta                 73.43
_cell_angle_gamma                87.86
_cell_volume                     664.309
_exptl_crystal_colour            colorless
_exptl_crystal_description       prism
_cell_formula_units_Z            1
loop_
_atom_site_label
_atom_site_type_symbol
_atom_site_fract_x
_atom_site_fract_y
_atom_site_fract_z
O1 O 1.0027(2) -0.2296(2) 0.60348(16)
O2 O 0.5726(2) -0.0825(2) 0.59019(14)
O3 O 1.0405(2) -0.0288(2) 0.04427(14)
O4 O 0.67411(19) 0.5210(2) 0.06105(13)
O5 O 0.9107(2) 0.1345(2) 0.64413(14)
O6 O 0.98162(18) 0.1353(2) 0.36869(13)
O7 O 1.1146(2) 0.3834(2) 0.36896(15)
O8 O 0.8442(3) -0.2548(3) 0.47600(16)
O9 O 0.44411(19) 0.3432(2) 0.08464(14)
O10 O 1.1815(3) -0.1635(3) -0.10035(19)
C1 C 1.1370(4) -0.3408(4) 0.5499(3)
H1 H 1.0837 -0.4585 0.5648
H2 H 1.2342 -0.3512 0.5883
H3 H 1.1837 -0.2878 0.4605
C2 C 0.8633(3) -0.2019(3) 0.5593(2)
C3 C 0.7241(3) -0.0971(3) 0.63239(19)
C4 C 0.5450(3) 0.0990(3) 0.52295(18)
C5 C 0.5846(2) 0.1007(3) 0.38875(18)
H4 H 0.5520 -0.0028 0.3711
C6 C 0.6622(2) 0.2361(3) 0.29220(18)
C7 C 0.7008(2) 0.2216(3) 0.15805(17)
C8 C 0.8893(3) 0.3050(3) 0.08328(18)
H5 H 0.9737 0.2626 0.1338
C9 C 0.9663(3) 0.2704(3) -0.04640(18)
C10 C 0.9392(3) 0.0749(3) -0.03633(19)
H6 H 0.9841 0.0543 -0.1206
C11 C 1.1628(3) -0.1347(3) -0.0021(2)
C12 C 1.2701(3) -0.2148(3) 0.0851(2)
H7 H 1.3275 -0.3193 0.0633
H8 H 1.1916 -0.2493 0.1702
H9 H 1.3611 -0.1279 0.0787
C13 C 0.6695(3) 0.0357(3) 0.15072(19)
H10 H 0.5398 0.0072 0.1790
H11 H 0.7242 -0.0487 0.2082
C14 C 0.7450(3) 0.0096(3) 0.02064(19)
H12 H 0.7355 -0.1176 0.0252
H13 H 0.6737 0.0746 -0.0333
C15 C 0.5873(3) 0.3610(3) 0.09846(17)
C16 C 0.8512(3) 0.4979(3) 0.08003(18)
H14 H 0.9415 0.5784 0.0099
C17 C 0.8494(3) 0.5317(3) 0.20237(18)
H15 H 0.8204 0.6563 0.1995
H16 H 0.9697 0.5142 0.2136
C18 C 0.7119(3) 0.4076(3) 0.31614(18)
C19 C 0.6730(3) -0.1902(3) 0.7715(2)
H17 H 0.5796 -0.1257 0.8161
H18 H 0.7777 -0.1929 0.8017
H19 H 0.6292 -0.3114 0.7854
C20 C 0.7915(3) 0.0926(3) 0.61005(17)
C21 C 0.6736(2) 0.2232(3) 0.54681(17)
C22 C 0.7929(3) 0.3580(3) 0.42863(18)
H20 H 0.8030 0.4697 0.4525
C23 C 0.9814(3) 0.2963(3) 0.38701(17)
C24 C 1.1547(3) 0.0716(3) 0.3168(2)
H21 H 1.2163 0.1572 0.2389
H22 H 1.1396 -0.0425 0.3009
H23 H 1.2252 0.0572 0.3756
C25 C 0.5822(3) 0.3235(3) 0.64363(19)
H24 H 0.5173 0.2386 0.7209
H25 H 0.4988 0.4056 0.6120
H26 H 0.6724 0.3898 0.6595
C26 C 0.3451(3) 0.1169(3) 0.57835(19)
H27 H 0.2784 0.0243 0.5651
H28 H 0.3099 0.2333 0.5379
H29 H 0.3192 0.1045 0.6674
C27 C 0.5451(3) 0.5159(3) 0.34886(19)
H30 H 0.5002 0.5571 0.2764
H31 H 0.5763 0.6180 0.3733
H32 H 0.4530 0.4414 0.4176
C28 C 0.8810(3) 0.3776(3) -0.14569(19)
H33 H 0.9314 0.3441 -0.2233
H34 H 0.9052 0.5041 -0.1597
H35 H 0.7521 0.3524 -0.1171
C29 C 1.1656(3) 0.3238(4) -0.0921(2)
H36 H 1.2260 0.2512 -0.0345
H37 H 1.1811 0.4488 -0.0963
H38 H 1.2167 0.3054 -0.1747
loop_
_geom_bond_atom_site_label_1
_geom_bond_atom_site_label_2
_geom_bond_site_symmetry_1
_geom_bond_site_symmetry_2
O1 C1 1_555 1_555
O2 C3 1_555 1_555
O3 C10 1_555 1_555
O4 C15 1_555 1_555
O5 C20 1_555 1_555
O6 C23 1_555 1_555
O7 C23 1_555 1_555
O8 C2 1_555 1_555
O9 C15 1_555 1_555
O10 C11 1_555 1_555
C1 H1 1_555 1_555
H2 C1 1_555 1_555
H3 C1 1_555 1_555
C2 O1 1_555 1_555
C3 C2 1_555 1_555
C4 O2 1_555 1_555
C5 C4 1_555 1_555
H4 C5 1_555 1_555
C6 C5 1_555 1_555
C7 C6 1_555 1_555
C8 C7 1_555 1_555
H5 C8 1_555 1_555
C9 C8 1_555 1_555
C10 C9 1_555 1_555
H6 C10 1_555 1_555
C11 O3 1_555 1_555
C12 C11 1_555 1_555
H7 C12 1_555 1_555
H8 C12 1_555 1_555
H9 C12 1_555 1_555
C13 C7 1_555 1_555
H10 C13 1_555 1_555
H11 C13 1_555 1_555
C14 C10 1_555 1_555
H12 C14 1_555 1_555
H13 C14 1_555 1_555
C15 C7 1_555 1_555
C16 O4 1_555 1_555
H14 C16 1_555 1_555
C17 C16 1_555 1_555
H15 C17 1_555 1_555
H16 C17 1_555 1_555
C18 C6 1_555 1_555
C19 C3 1_555 1_555
H17 C19 1_555 1_555
H18 C19 1_555 1_555
H19 C19 1_555 1_555
C20 C3 1_555 1_555
C21 C4 1_555 1_555
C22 C18 1_555 1_555
H20 C22 1_555 1_555
C23 C22 1_555 1_555
C24 O6 1_555 1_555
H21 C24 1_555 1_555
H22 C24 1_555 1_555
H23 C24 1_555 1_555
C25 C21 1_555 1_555
H24 C25 1_555 1_555
H25 C25 1_555 1_555
H26 C25 1_555 1_555
C26 C4 1_555 1_555
H27 C26 1_555 1_555
H28 C26 1_555 1_555
H29 C26 1_555 1_555
C27 C18 1_555 1_555
H30 C27 1_555 1_555
H31 C27 1_555 1_555
H32 C27 1_555 1_555
C28 C9 1_555 1_555
H33 C28 1_555 1_555
H34 C28 1_555 1_555
H35 C28 1_555 1_555
C29 C9 1_555 1_555
H36 C29 1_555 1_555
H37 C29 1_555 1_555
H38 C29 1_555 1_555
C8 C16 1_555 1_555
C13 C14 1_555 1_555
C17 C18 1_555 1_555
C20 C21 1_555 1_555
C21 C22 1_555 1_555

#END
