
#######################################################################
#
#                 Cambridge Crystallographic Data Centre
#                                CCDC 
#
#######################################################################
#
# If this CIF has been generated from an entry in the Cambridge 
# Structural Database, then it will include bibliographic, chemical, 
# crystal, experimental, refinement or atomic coordinate data resulting 
# from the CCDC's data processing and validation procedures.
#
#######################################################################

data_YINJOW
_chemical_formula_moiety         'C42 H55 N1 O3 Si1'
_chemical_name_systematic        
N,N-dibenzyl-4-((t-butyl(diphenyl)silyl)oxy)-4-cyclohexyl-1,1-dimethoxybutan-2-amine
_symmetry_cell_setting           triclinic
_symmetry_space_group_name_H-M   'P -1'
_symmetry_Int_Tables_number      2
_space_group_name_Hall           '-P 1'
loop_
_symmetry_equiv_pos_site_id
_symmetry_equiv_pos_as_xyz
1 x,y,z
2 -x,-y,-z
_cell_length_a                   9.7071(2)
_cell_length_b                   11.1189(2)
_cell_length_c                   18.7507(3)
_cell_angle_alpha                81.2230(10)
_cell_angle_beta                 76.8780(10)
_cell_angle_gamma                72.9850(10)
_cell_volume                     1876.61
_exptl_crystal_colour            colorless
_exptl_crystal_description       block
_cell_formula_units_Z            2
loop_
_atom_site_label
_atom_site_type_symbol
_atom_site_fract_x
_atom_site_fract_y
_atom_site_fract_z
C1 C 0.85405(13) 0.71178(12) 0.15320(6)
H1 H 0.8955 0.6956 0.1984
H2 H 0.8947 0.7767 0.1202
C2 C 0.89964(14) 0.58973(12) 0.11513(7)
H3 H 1.0079 0.5629 0.1004
H4 H 0.8684 0.5221 0.1501
C3 C 0.83098(14) 0.60823(12) 0.04736(7)
H5 H 0.8714 0.6685 0.0100
H6 H 0.8568 0.5266 0.0259
C4 C 0.66448(14) 0.65823(12) 0.06654(7)
H7 H 0.6231 0.5934 0.0992
H8 H 0.6239 0.6749 0.0210
C5 C 0.61873(13) 0.77975(11) 0.10485(6)
H9 H 0.5104 0.8066 0.1194
H10 H 0.6501 0.8475 0.0701
C6 C 0.68679(12) 0.76149(10) 0.17314(6)
H11 H 0.6503 0.6944 0.2074
C7 C 0.63563(12) 0.88117(10) 0.21398(6)
H12 H 0.5268 0.9146 0.2188
C8 C 0.73844(13) 1.17539(11) 0.06319(6)
C9 C 0.90412(14) 1.13810(15) 0.06179(7)
H13 H 0.9378 1.0471 0.0752
H14 H 0.9245 1.1843 0.0970
H15 H 0.9559 1.1591 0.0123
C10 C 0.71065(14) 1.10709(13) 0.00479(6)
H16 H 0.7666 1.1292 -0.0434
H17 H 0.6057 1.1329 0.0033
H18 H 0.7420 1.0156 0.0172
C11 C 0.43842(12) 1.17682(10) 0.16703(6)
C12 C 0.34259(13) 1.27043(11) 0.21048(6)
H19 H 0.3805 1.3080 0.2412
C13 C 0.19292(13) 1.30971(12) 0.20962(7)
H20 H 0.1306 1.3747 0.2388
C14 C 0.13445(13) 1.25466(12) 0.16641(7)
H21 H 0.0324 1.2818 0.1657
C15 C 0.22628(13) 1.15953(12) 0.12422(7)
H22 H 0.1868 1.1203 0.0950
C16 C 0.37573(13) 1.12135(11) 0.12449(7)
H23 H 0.4372 1.0561 0.0952
C17 C 0.70139(12) 1.20274(11) 0.22677(6)
C18 C 0.80907(12) 1.13013(11) 0.26643(6)
H24 H 0.8479 1.0425 0.2605
C19 C 0.86035(13) 1.18362(12) 0.31434(6)
H25 H 0.9335 1.1326 0.3404
C20 C 0.80447(14) 1.31139(13) 0.32397(7)
H26 H 0.8376 1.3475 0.3574
C21 C 0.70005(14) 1.38602(12) 0.28446(7)
H27 H 0.6625 1.4737 0.2903
C22 C 0.65031(13) 1.33238(11) 0.23619(7)
H28 H 0.5800 1.3848 0.2089
C23 C 0.67302(12) 0.85885(11) 0.29078(6)
H29 H 0.6527 0.9414 0.3104
H30 H 0.7792 0.8170 0.2870
C24 C 0.58508(12) 0.77701(11) 0.34476(6)
H31 H 0.5669 0.7177 0.3151
C25 C 0.67737(12) 0.69517(11) 0.40001(6)
H32 H 0.7162 0.7486 0.4245
C26 C 0.93799(14) 0.59983(14) 0.36916(8)
H33 H 0.9600 0.6807 0.3503
H34 H 1.0097 0.5323 0.3419
H35 H 0.9432 0.5825 0.4215
C27 C 0.64923(17) 0.56937(15) 0.51365(8)
H36 H 0.7352 0.5003 0.4974
H37 H 0.5765 0.5351 0.5495
H38 H 0.6791 0.6289 0.5365
C28 C 0.44153(12) 0.92140(11) 0.43891(6)
H39 H 0.5284 0.9554 0.4278
H40 H 0.4492 0.8601 0.4830
C29 C 0.30377(13) 1.02794(11) 0.45461(6)
C30 C 0.26508(14) 1.12420(12) 0.40016(7)
H41 H 0.3274 1.1246 0.3531
C31 C 0.13588(16) 1.21974(14) 0.41427(8)
H42 H 0.1103 1.2853 0.3768
C32 C 0.04402(15) 1.22006(14) 0.48273(9)
H43 H -0.0447 1.2852 0.4921
C33 C 0.08200(14) 1.12546(14) 0.53717(8)
H44 H 0.0197 1.1257 0.5842
C34 C 0.21122(13) 1.02970(13) 0.52331(7)
H45 H 0.2367 0.9648 0.5611
C35 C 0.32244(13) 0.79241(12) 0.39282(6)
H46 H 0.2338 0.8451 0.4225
H47 H 0.3539 0.7110 0.4223
C36 C 0.28479(12) 0.76822(11) 0.32332(6)
C37 C 0.21668(13) 0.86920(12) 0.27802(7)
H48 H 0.1966 0.9532 0.2904
C38 C 0.17783(14) 0.84816(13) 0.21491(7)
H49 H 0.1299 0.9175 0.1850
C39 C 0.20902(14) 0.72608(13) 0.19565(7)
H50 H 0.1825 0.7117 0.1526
C40 C 0.27884(14) 0.62541(13) 0.23928(7)
H51 H 0.3019 0.5418 0.2257
C41 C 0.31544(14) 0.64643(12) 0.30313(7)
H52 H 0.3620 0.5767 0.3333
C42 C 0.68519(18) 1.31858(13) 0.04434(8)
H53 H 0.7093 1.3628 0.0793
H54 H 0.5786 1.3431 0.0474
H55 H 0.7336 1.3413 -0.0056
N1 N 0.44044(10) 0.85673(9) 0.37647(5)
O1 O 0.70415(8) 0.97388(7) 0.16995(4)
O2 O 0.79449(9) 0.60571(8) 0.36024(5)
O3 O 0.58656(10) 0.63312(8) 0.45197(5)
Si1 Si 0.64316(3) 1.12823(3) 0.158966(16)
loop_
_geom_bond_atom_site_label_1
_geom_bond_atom_site_label_2
_geom_bond_site_symmetry_1
_geom_bond_site_symmetry_2
C1 H1 1_555 1_555
H2 C1 1_555 1_555
C2 C1 1_555 1_555
H3 C2 1_555 1_555
H4 C2 1_555 1_555
C3 C2 1_555 1_555
H5 C3 1_555 1_555
H6 C3 1_555 1_555
C4 C3 1_555 1_555
H7 C4 1_555 1_555
H8 C4 1_555 1_555
C5 C4 1_555 1_555
H9 C5 1_555 1_555
H10 C5 1_555 1_555
C6 C1 1_555 1_555
H11 C6 1_555 1_555
C7 C6 1_555 1_555
H12 C7 1_555 1_555
C8 C9 1_555 1_555
C9 H13 1_555 1_555
H14 C9 1_555 1_555
H15 C9 1_555 1_555
C10 C8 1_555 1_555
H16 C10 1_555 1_555
H17 C10 1_555 1_555
H18 C10 1_555 1_555
C11 C12 1_555 1_555
C12 H19 1_555 1_555
C13 C12 1_555 1_555
H20 C13 1_555 1_555
C14 C13 1_555 1_555
H21 C14 1_555 1_555
C15 C14 1_555 1_555
H22 C15 1_555 1_555
C16 C11 1_555 1_555
H23 C16 1_555 1_555
C17 C18 1_555 1_555
C18 H24 1_555 1_555
C19 C18 1_555 1_555
H25 C19 1_555 1_555
C20 C19 1_555 1_555
H26 C20 1_555 1_555
C21 C20 1_555 1_555
H27 C21 1_555 1_555
C22 C17 1_555 1_555
H28 C22 1_555 1_555
C23 C7 1_555 1_555
H29 C23 1_555 1_555
H30 C23 1_555 1_555
C24 C23 1_555 1_555
H31 C24 1_555 1_555
C25 C24 1_555 1_555
H32 C25 1_555 1_555
C26 H33 1_555 1_555
H34 C26 1_555 1_555
H35 C26 1_555 1_555
C27 H36 1_555 1_555
H37 C27 1_555 1_555
H38 C27 1_555 1_555
C28 H39 1_555 1_555
H40 C28 1_555 1_555
C29 C28 1_555 1_555
C30 C29 1_555 1_555
H41 C30 1_555 1_555
C31 C30 1_555 1_555
H42 C31 1_555 1_555
C32 C31 1_555 1_555
H43 C32 1_555 1_555
C33 C32 1_555 1_555
H44 C33 1_555 1_555
C34 C29 1_555 1_555
H45 C34 1_555 1_555
C35 H46 1_555 1_555
H47 C35 1_555 1_555
C36 C35 1_555 1_555
C37 C36 1_555 1_555
H48 C37 1_555 1_555
C38 C37 1_555 1_555
H49 C38 1_555 1_555
C39 C38 1_555 1_555
H50 C39 1_555 1_555
C40 C39 1_555 1_555
H51 C40 1_555 1_555
C41 C36 1_555 1_555
H52 C41 1_555 1_555
C42 C8 1_555 1_555
H53 C42 1_555 1_555
H54 C42 1_555 1_555
H55 C42 1_555 1_555
N1 C24 1_555 1_555
O1 C7 1_555 1_555
O2 C25 1_555 1_555
O3 C25 1_555 1_555
Si1 C8 1_555 1_555
C5 C6 1_555 1_555
C11 Si1 1_555 1_555
C15 C16 1_555 1_555
C17 Si1 1_555 1_555
C21 C22 1_555 1_555
C26 O2 1_555 1_555
C27 O3 1_555 1_555
C28 N1 1_555 1_555
C33 C34 1_555 1_555
C35 N1 1_555 1_555
C40 C41 1_555 1_555
O1 Si1 1_555 1_555

#END
