
#######################################################################
#
#                 Cambridge Crystallographic Data Centre
#                                CCDC 
#
#######################################################################
#
# If this CIF has been generated from an entry in the Cambridge 
# Structural Database, then it will include bibliographic, chemical, 
# crystal, experimental, refinement or atomic coordinate data resulting 
# from the CCDC's data processing and validation procedures.
#
#######################################################################

data_YIPLOA
_chemical_formula_moiety         'C20 H19 N1 O5'
_chemical_name_systematic        
'Methyl (3-(anilinomethylene)-7-methoxy-4-oxo-3,4-dihydro-2H-chromen-2-yl)acetate'
_symmetry_cell_setting           monoclinic
_symmetry_space_group_name_H-M   'P 21/n'
_symmetry_Int_Tables_number      14
_space_group_name_Hall           '-P 2yn'
loop_
_symmetry_equiv_pos_site_id
_symmetry_equiv_pos_as_xyz
1 x,y,z
2 1/2-x,1/2+y,1/2-z
3 -x,-y,-z
4 1/2+x,1/2-y,1/2+z
_cell_length_a                   12.504(4)
_cell_length_b                   8.420(3)
_cell_length_c                   16.185(6)
_cell_angle_alpha                90
_cell_angle_beta                 96.842(4)
_cell_angle_gamma                90
_cell_volume                     1691.88
_exptl_crystal_colour            yellow
_exptl_crystal_description       rod
_cell_formula_units_Z            4
loop_
_atom_site_label
_atom_site_type_symbol
_atom_site_fract_x
_atom_site_fract_y
_atom_site_fract_z
O1 O 0.42300(8) 0.92863(14) 0.23345(6)
O2 O 0.18565(9) 0.74995(17) 0.36292(8)
O3 O 0.67396(9) 0.89542(16) 0.47770(7)
O4 O 0.52448(11) 0.60792(19) 0.10948(9)
O5 O 0.43374(9) 0.79771(17) 0.03633(8)
N1 N 0.04475(11) 0.83147(19) 0.23434(10)
H1 H 0.0610(16) 0.781(3) 0.2872(14)
C1 C 0.32933(12) 0.8589(2) 0.18505(10)
H2 H 0.3079 0.9276 0.1371
C2 C 0.23508(12) 0.8435(2) 0.23475(10)
C3 C 0.25693(12) 0.7928(2) 0.32003(10)
C4 C 0.36936(12) 0.8061(2) 0.35748(10)
C5 C 0.40020(13) 0.7632(2) 0.43984(10)
H3 H 0.3507 0.7127 0.4695
C6 C 0.50115(14) 0.7935(2) 0.47811(11)
H4 H 0.5203 0.7632 0.5331
C7 C 0.57579(13) 0.8701(2) 0.43429(10)
C8 C 0.54841(12) 0.9134(2) 0.35222(10)
H5 H 0.5982 0.9641 0.3230
C9 C 0.44560(12) 0.88012(19) 0.31392(9)
C10 C 0.36004(14) 0.6982(2) 0.15322(11)
H6 H 0.3794 0.6298 0.2009
H7 H 0.2967 0.6526 0.1215
C11 C 0.45079(14) 0.6940(2) 0.09973(10)
C12 C 0.51024(16) 0.7874(3) -0.02512(12)
H8 H 0.5823 0.7964 0.0024
H9 H 0.4967 0.8719 -0.0648
H10 H 0.5019 0.6871 -0.0534
C13 C 0.13303(13) 0.8660(2) 0.19755(10)
H11 H 0.1236 0.9075 0.1439
C14 C -0.06258(12) 0.8632(2) 0.20439(10)
C15 C -0.09248(14) 0.9724(2) 0.14289(12)
H12 H -0.0403 1.0299 0.1193
C16 C -0.20083(15) 0.9966(3) 0.11602(13)
H13 H -0.2211 1.0695 0.0739
C17 C -0.27869(15) 0.9129(3) 0.15165(14)
H14 H -0.3513 0.9297 0.1337
C18 C -0.24877(14) 0.8055(3) 0.21317(12)
H15 H -0.3012 0.7491 0.2371
C19 C -0.14154(13) 0.7800(2) 0.24017(11)
H16 H -0.1218 0.7071 0.2824
C20 C 0.75054(14) 0.9864(3) 0.43946(12)
H17 H 0.7726 0.9282 0.3934
H18 H 0.8121 1.0072 0.4793
H19 H 0.7185 1.0851 0.4199
loop_
_geom_bond_atom_site_label_1
_geom_bond_atom_site_label_2
_geom_bond_site_symmetry_1
_geom_bond_site_symmetry_2
O1 C1 1_555 1_555
O2 C3 1_555 1_555
O3 C7 1_555 1_555
O4 C11 1_555 1_555
O5 C11 1_555 1_555
N1 H1 1_555 1_555
C1 H2 1_555 1_555
C2 C1 1_555 1_555
C3 C2 1_555 1_555
C4 C3 1_555 1_555
C5 C4 1_555 1_555
H3 C5 1_555 1_555
C6 C5 1_555 1_555
H4 C6 1_555 1_555
C7 C6 1_555 1_555
C8 C7 1_555 1_555
H5 C8 1_555 1_555
C9 O1 1_555 1_555
C10 C1 1_555 1_555
H6 C10 1_555 1_555
H7 C10 1_555 1_555
C11 C10 1_555 1_555
C12 O5 1_555 1_555
H8 C12 1_555 1_555
H9 C12 1_555 1_555
H10 C12 1_555 1_555
C13 N1 1_555 1_555
H11 C13 1_555 1_555
C14 N1 1_555 1_555
C15 C14 1_555 1_555
H12 C15 1_555 1_555
C16 C15 1_555 1_555
H13 C16 1_555 1_555
C17 C16 1_555 1_555
H14 C17 1_555 1_555
C18 C17 1_555 1_555
H15 C18 1_555 1_555
C19 C14 1_555 1_555
H16 C19 1_555 1_555
C20 O3 1_555 1_555
H17 C20 1_555 1_555
H18 C20 1_555 1_555
H19 C20 1_555 1_555
C2 C13 1_555 1_555
C4 C9 1_555 1_555
C8 C9 1_555 1_555
C18 C19 1_555 1_555

#END
