
#######################################################################
#
#                 Cambridge Crystallographic Data Centre
#                                CCDC 
#
#######################################################################
#
# If this CIF has been generated from an entry in the Cambridge 
# Structural Database, then it will include bibliographic, chemical, 
# crystal, experimental, refinement or atomic coordinate data resulting 
# from the CCDC's data processing and validation procedures.
#
#######################################################################

data_YIPNOC
_chemical_formula_moiety         'C25 H24 O3'
_chemical_name_systematic        
2,4-bis(2,4,5-trimethylphenyl)-6H-furo[2,3-b]pyran-6-one
_symmetry_cell_setting           orthorhombic
_symmetry_space_group_name_H-M   'P n a 21'
_symmetry_Int_Tables_number      33
_space_group_name_Hall           'P 2c -2n'
loop_
_symmetry_equiv_pos_site_id
_symmetry_equiv_pos_as_xyz
1 x,y,z
2 -x,-y,1/2+z
3 1/2+x,1/2-y,z
4 1/2-x,1/2+y,1/2+z
_cell_length_a                   21.709(3)
_cell_length_b                   11.1822(14)
_cell_length_c                   7.8807(10)
_cell_angle_alpha                90
_cell_angle_beta                 90
_cell_angle_gamma                90
_cell_volume                     1913.07
_exptl_crystal_colour            orange
_exptl_crystal_description       block
_chemical_melting_point          '441 K'
_cell_formula_units_Z            4
loop_
_atom_site_label
_atom_site_type_symbol
_atom_site_fract_x
_atom_site_fract_y
_atom_site_fract_z
O1 O 0.37375(8) 0.64661(15) 0.4400(3)
C1 C 0.33563(11) 0.5862(2) 0.3670(3)
O2 O 0.28098(7) 0.64835(13) 0.3206(2)
C2 C 0.33844(11) 0.4623(2) 0.3222(3)
H1 H 0.3748 0.4197 0.3511
C3 C 0.29268(10) 0.4008(2) 0.2412(3)
C4 C 0.29877(10) 0.2721(2) 0.2020(3)
C5 C 0.35157(10) 0.2226(2) 0.1257(3)
C6 C 0.40663(11) 0.2955(2) 0.0703(4)
H2 H 0.4346 0.3063 0.1666
H3 H 0.3927 0.3739 0.0298
H4 H 0.4282 0.2537 -0.0214
C7 C 0.35233(11) 0.1003(2) 0.0983(3)
H5 H 0.3873 0.0665 0.0438
C8 C 0.30488(12) 0.0244(2) 0.1461(3)
C9 C 0.30965(13) -0.1081(2) 0.1158(4)
H6 H 0.3468 -0.1252 0.0493
H7 H 0.2733 -0.1356 0.0533
H8 H 0.3120 -0.1499 0.2249
C10 C 0.25258(10) 0.0730(2) 0.2244(3)
C11 C 0.20001(12) -0.0054(2) 0.2812(4)
H9 H 0.1697 0.0430 0.3427
H10 H 0.2157 -0.0685 0.3560
H11 H 0.1804 -0.0418 0.1818
C12 C 0.25021(10) 0.19552(19) 0.2469(3)
H12 H 0.2141 0.2294 0.2950
C13 C 0.23802(10) 0.4671(2) 0.2007(3)
C14 C 0.23794(10) 0.5841(2) 0.2424(3)
C15 C 0.17949(10) 0.4499(2) 0.1159(3)
H13 H 0.1648 0.3771 0.0690
C16 C 0.14943(10) 0.5563(2) 0.1154(3)
O3 O 0.18713(7) 0.64303(13) 0.1956(2)
C17 C 0.09131(10) 0.6072(2) 0.0559(3)
C18 C 0.04817(10) 0.54278(19) -0.0405(3)
C19 C 0.05589(11) 0.4134(2) -0.0877(3)
H14 H 0.0217 0.3887 -0.1610
H15 H 0.0560 0.3644 0.0155
H16 H 0.0949 0.4028 -0.1482
C20 C -0.00441(11) 0.6036(2) -0.0956(3)
H17 H -0.0334 0.5611 -0.1628
C21 C -0.01673(10) 0.7224(2) -0.0577(3)
C22 C -0.07348(11) 0.7832(2) -0.1255(4)
H18 H -0.0986 0.7251 -0.1878
H19 H -0.0613 0.8482 -0.2020
H20 H -0.0974 0.8159 -0.0309
C23 C 0.02516(11) 0.7844(2) 0.0443(3)
C24 C 0.01337(12) 0.9121(2) 0.0984(4)
H21 H 0.0484 0.9411 0.1652
H22 H -0.0241 0.9154 0.1675
H23 H 0.0082 0.9624 -0.0023
C25 C 0.07817(10) 0.7262(2) 0.0964(3)
H24 H 0.1071 0.7693 0.1632
loop_
_geom_bond_atom_site_label_1
_geom_bond_atom_site_label_2
_geom_bond_site_symmetry_1
_geom_bond_site_symmetry_2
O1 C1 1_555 1_555
C1 O2 1_555 1_555
O2 C14 1_555 1_555
C2 C1 1_555 1_555
H1 C2 1_555 1_555
C3 C2 1_555 1_555
C4 C3 1_555 1_555
C5 C4 1_555 1_555
C6 C5 1_555 1_555
H2 C6 1_555 1_555
H3 C6 1_555 1_555
H4 C6 1_555 1_555
C7 C5 1_555 1_555
H5 C7 1_555 1_555
C8 C7 1_555 1_555
C9 C8 1_555 1_555
H6 C9 1_555 1_555
H7 C9 1_555 1_555
H8 C9 1_555 1_555
C10 C8 1_555 1_555
C11 C10 1_555 1_555
H9 C11 1_555 1_555
H10 C11 1_555 1_555
H11 C11 1_555 1_555
C12 C4 1_555 1_555
H12 C12 1_555 1_555
C13 C3 1_555 1_555
C14 C13 1_555 1_555
C15 C13 1_555 1_555
H13 C15 1_555 1_555
C16 C15 1_555 1_555
O3 C14 1_555 1_555
C17 C16 1_555 1_555
C18 C17 1_555 1_555
C19 C18 1_555 1_555
H14 C19 1_555 1_555
H15 C19 1_555 1_555
H16 C19 1_555 1_555
C20 C18 1_555 1_555
H17 C20 1_555 1_555
C21 C20 1_555 1_555
C22 C21 1_555 1_555
H18 C22 1_555 1_555
H19 C22 1_555 1_555
H20 C22 1_555 1_555
C23 C21 1_555 1_555
C24 C23 1_555 1_555
H21 C24 1_555 1_555
H22 C24 1_555 1_555
H23 C24 1_555 1_555
C25 C17 1_555 1_555
H24 C25 1_555 1_555
C10 C12 1_555 1_555
C16 O3 1_555 1_555
C23 C25 1_555 1_555

#END
