
#######################################################################
#
#                 Cambridge Crystallographic Data Centre
#                                CCDC 
#
#######################################################################
#
# If this CIF has been generated from an entry in the Cambridge 
# Structural Database, then it will include bibliographic, chemical, 
# crystal, experimental, refinement or atomic coordinate data resulting 
# from the CCDC's data processing and validation procedures.
#
#######################################################################

data_YIPSEY
_chemical_name_common            
6-methoxy-5-[methoxy(phenyl)methyl]tetrahydrofuro[3,2-b]furan-2(3H)-one
_chemical_formula_moiety         'C15 H18 O5'
_chemical_name_systematic        
3,6-Anhydro-2-deoxy-5,7-di-O-methyl-7-C-phenyl-D-glycero-D-ido-heptono-1,4-lactone
_symmetry_cell_setting           orthorhombic
_symmetry_space_group_name_H-M   'P 21 21 21'
_symmetry_Int_Tables_number      19
_space_group_name_Hall           'P 2ac 2ab'
loop_
_symmetry_equiv_pos_site_id
_symmetry_equiv_pos_as_xyz
1 x,y,z
2 1/2-x,-y,1/2+z
3 -x,1/2+y,1/2-z
4 1/2+x,1/2-y,-z
_cell_length_a                   8.2861(10)
_cell_length_b                   9.8316(10)
_cell_length_c                   18.092(2)
_cell_angle_alpha                90
_cell_angle_beta                 90
_cell_angle_gamma                90
_cell_volume                     1473.88
_exptl_crystal_colour            colorless
_exptl_crystal_description       plate
_chemical_melting_point          '369 K'
_cell_formula_units_Z            4
loop_
_atom_site_label
_atom_site_type_symbol
_atom_site_fract_x
_atom_site_fract_y
_atom_site_fract_z
O1 O 1.0367(10) 0.4243(9) 0.3027(4)
O2 O 0.7859(8) 0.4618(6) 0.3404(2)
O3 O 0.4761(6) 0.4585(5) 0.4810(2)
O4 O 0.7949(8) 0.3510(5) 0.5003(2)
O5 O 0.6796(5) 0.6744(4) 0.5732(2)
C1 C 0.9214(14) 0.3879(11) 0.3399(5)
C2 C 0.6022(11) 0.7231(9) 0.6350(6)
H1 H 0.6704 0.7112 0.6774
H2 H 0.5033 0.6741 0.6422
H3 H 0.579 0.8181 0.6286
C3 C 0.9014(12) 0.2633(7) 0.3861(4)
H4 H 0.994 0.2497 0.418
H5 H 0.8869 0.1833 0.3554
C4 C 0.7516(11) 0.2929(7) 0.4306(3)
H6 H 0.6841 0.2118 0.4366
C5 C 0.6654(8) 0.4033(6) 0.3879(4)
H7 H 0.5728 0.3682 0.3601
C6 C 0.6157(8) 0.5026(6) 0.4472(4)
H8 H 0.6035 0.5948 0.4274
C7 C 0.7547(8) 0.4935(6) 0.5001(3)
H9 H 0.846 0.5458 0.4806
C8 C 0.7236(8) 0.5346(6) 0.5790(3)
H10 H 0.6324 0.4824 0.5986
C9 C 0.8685(8) 0.5143(7) 0.6278(3)
C10 C 1.0054(8) 0.5923(8) 0.6189(6)
H11 H 1.0098 0.6557 0.5809
C11 C 1.1344(11) 0.5781(12) 0.6650(7)
H12 H 1.2218 0.6372 0.6614
C12 C 1.1346(13) 0.4779(12) 0.7158(5)
H13 H 1.225 0.4644 0.7454
C13 C 1.0041(12) 0.3968(12) 0.7241(4)
H14 H 1.0044 0.3284 0.7596
C14 C 0.8715(10) 0.4153(9) 0.6802(3)
H15 H 0.7821 0.3592 0.6862
C15 C 0.3313(10) 0.4922(14) 0.4449(6)
H16 H 0.2416 0.4573 0.4726
H17 H 0.3224 0.5893 0.4411
H18 H 0.3311 0.4531 0.3963
loop_
_geom_bond_atom_site_label_1
_geom_bond_atom_site_label_2
_geom_bond_site_symmetry_1
_geom_bond_site_symmetry_2
O1 C1 1_555 1_555
O2 C1 1_555 1_555
O3 C6 1_555 1_555
O4 C4 1_555 1_555
O5 C2 1_555 1_555
C1 C3 1_555 1_555
C2 H1 1_555 1_555
H2 C2 1_555 1_555
H3 C2 1_555 1_555
C3 H4 1_555 1_555
H5 C3 1_555 1_555
C4 C3 1_555 1_555
H6 C4 1_555 1_555
C5 O2 1_555 1_555
H7 C5 1_555 1_555
C6 C5 1_555 1_555
H8 C6 1_555 1_555
C7 O4 1_555 1_555
H9 C7 1_555 1_555
C8 O5 1_555 1_555
H10 C8 1_555 1_555
C9 C8 1_555 1_555
C10 C9 1_555 1_555
H11 C10 1_555 1_555
C11 C10 1_555 1_555
H12 C11 1_555 1_555
C12 C11 1_555 1_555
H13 C12 1_555 1_555
C13 C12 1_555 1_555
H14 C13 1_555 1_555
C14 C9 1_555 1_555
H15 C14 1_555 1_555
C15 O3 1_555 1_555
H16 C15 1_555 1_555
H17 C15 1_555 1_555
H18 C15 1_555 1_555
C4 C5 1_555 1_555
C6 C7 1_555 1_555
C7 C8 1_555 1_555
C13 C14 1_555 1_555

#END
