
#######################################################################
#
#                 Cambridge Crystallographic Data Centre
#                                CCDC 
#
#######################################################################
#
# If this CIF has been generated from an entry in the Cambridge 
# Structural Database, then it will include bibliographic, chemical, 
# crystal, experimental, refinement or atomic coordinate data resulting 
# from the CCDC's data processing and validation procedures.
#
#######################################################################

data_YIPSOI
_chemical_name_common            
6-hydroxy-5-[methoxy(phenyl)methyl]tetrahydrofuro[3,2-b]furan-2(3H)-one
_chemical_formula_moiety         'C14 H16 O5'
_chemical_name_systematic        
3,6-Anhydro-2-deoxy-7-O-methyl-7-C-phenyl-D-glycero-D-ido-heptono-1,4-lactone
_symmetry_cell_setting           monoclinic
_symmetry_space_group_name_H-M   'P 21'
_symmetry_Int_Tables_number      4
_space_group_name_Hall           'P 2yb'
loop_
_symmetry_equiv_pos_site_id
_symmetry_equiv_pos_as_xyz
1 x,y,z
2 -x,1/2+y,-z
_cell_length_a                   7.6832(2)
_cell_length_b                   7.5202(3)
_cell_length_c                   11.6492(4)
_cell_angle_alpha                90
_cell_angle_beta                 91.533(3)
_cell_angle_gamma                90
_cell_volume                     672.841
_exptl_crystal_colour            colorless
_exptl_crystal_description       block
_chemical_melting_point          '396 K'
_cell_formula_units_Z            2
loop_
_atom_site_label
_atom_site_type_symbol
_atom_site_fract_x
_atom_site_fract_y
_atom_site_fract_z
O1 O 0.64604(19) 0.7000(3) 0.99983(17)
O2 O 0.2617(2) 0.6669(2) 0.74251(13)
O3 O 0.35974(16) 0.7184(2) 1.00176(12)
O4 O -0.06760(18) 0.6936(3) 0.85931(16)
H1 H -0.138(3) 0.690(5) 0.912(2)
O5 O 0.0161(2) 0.2728(2) 0.80605(14)
C1 C 0.5128(2) 0.7472(3) 0.95239(18)
C2 C 0.4864(3) 0.8428(4) 0.8406(2)
H2 H 0.5565 0.7902 0.7815
H3 H 0.5165 0.9675 0.8483
C3 C 0.2939(3) 0.8201(3) 0.81250(19)
H4 H 0.2434 0.9277 0.7778
C4 C 0.2150(2) 0.7792(3) 0.92888(18)
H5 H 0.1553 0.8821 0.9612
C5 C 0.0923(2) 0.6246(3) 0.90419(16)
H6 H 0.0763 0.5494 0.9718
C6 C 0.1892(2) 0.5288(3) 0.81021(17)
H7 H 0.2841 0.459 0.8455
C7 C 0.0808(3) 0.4087(3) 0.73193(17)
H8 H -0.0176 0.4766 0.6993
C8 C -0.1219(4) 0.1752(5) 0.7555(3)
H9 H -0.1602 0.0866 0.8085
H10 H -0.083 0.1184 0.6869
H11 H -0.2166 0.254 0.7364
C9 C 0.1839(3) 0.3298(3) 0.63529(17)
C10 C 0.3382(3) 0.2394(3) 0.6576(2)
H12 H 0.3824 0.2324 0.7326
C11 C 0.4272(4) 0.1596(4) 0.5701(3)
H13 H 0.5303 0.0989 0.5867
C12 C 0.3646(4) 0.1693(4) 0.4587(3)
H14 H 0.4244 0.1144 0.4
C13 C 0.2143(4) 0.2597(4) 0.4346(2)
H15 H 0.1725 0.2674 0.3591
C14 C 0.1227(3) 0.3407(4) 0.5221(2)
H16 H 0.0204 0.4022 0.5047
loop_
_geom_bond_atom_site_label_1
_geom_bond_atom_site_label_2
_geom_bond_site_symmetry_1
_geom_bond_site_symmetry_2
O1 C1 1_555 1_555
O2 C3 1_555 1_555
O3 C1 1_555 1_555
O4 H1 1_555 1_555
O5 C7 1_555 1_555
C1 C2 1_555 1_555
C2 H2 1_555 1_555
H3 C2 1_555 1_555
C3 C2 1_555 1_555
H4 C3 1_555 1_555
C4 O3 1_555 1_555
H5 C4 1_555 1_555
C5 O4 1_555 1_555
H6 C5 1_555 1_555
C6 O2 1_555 1_555
H7 C6 1_555 1_555
C7 C6 1_555 1_555
H8 C7 1_555 1_555
C8 O5 1_555 1_555
H9 C8 1_555 1_555
H10 C8 1_555 1_555
H11 C8 1_555 1_555
C9 C7 1_555 1_555
C10 C9 1_555 1_555
H12 C10 1_555 1_555
C11 C10 1_555 1_555
H13 C11 1_555 1_555
C12 C11 1_555 1_555
H14 C12 1_555 1_555
C13 C12 1_555 1_555
H15 C13 1_555 1_555
C14 C9 1_555 1_555
H16 C14 1_555 1_555
C3 C4 1_555 1_555
C4 C5 1_555 1_555
C5 C6 1_555 1_555
C13 C14 1_555 1_555

#END
