
#######################################################################
#
#                 Cambridge Crystallographic Data Centre
#                                CCDC 
#
#######################################################################
#
# If this CIF has been generated from an entry in the Cambridge 
# Structural Database, then it will include bibliographic, chemical, 
# crystal, experimental, refinement or atomic coordinate data resulting 
# from the CCDC's data processing and validation procedures.
#
#######################################################################

data_YIPTAV
_chemical_name_common            
5-(benzenecarbonyl)-6-methoxytetrahydrofuro[3,2-b]furan-2(3H)-one
_chemical_formula_moiety         'C14 H14 O5'
_chemical_name_systematic        
3,6-Anhydro-2-deoxy-5-O-methyl-7-C-phenyl-D-ido-hept-7-ulosono-1,4-lactone
_symmetry_cell_setting           orthorhombic
_symmetry_space_group_name_H-M   'P 21 21 21'
_symmetry_Int_Tables_number      19
_space_group_name_Hall           'P 2ac 2ab'
loop_
_symmetry_equiv_pos_site_id
_symmetry_equiv_pos_as_xyz
1 x,y,z
2 1/2-x,-y,1/2+z
3 -x,1/2+y,1/2-z
4 1/2+x,1/2-y,-z
_cell_length_a                   4.6740(2)
_cell_length_b                   12.9175(7)
_cell_length_c                   21.3349(7)
_cell_angle_alpha                90
_cell_angle_beta                 90
_cell_angle_gamma                90
_cell_volume                     1288.12
_exptl_crystal_colour            colorless
_exptl_crystal_description       block
_chemical_melting_point          '408 K'
_cell_formula_units_Z            4
loop_
_atom_site_label
_atom_site_type_symbol
_atom_site_fract_x
_atom_site_fract_y
_atom_site_fract_z
O1 O 0.4293(5) 0.93326(15) 0.36060(11)
O2 O 0.6585(4) 0.79585(13) 0.32432(8)
O3 O 0.7194(4) 0.67375(13) 0.44061(8)
O4 O 1.0211(4) 0.55105(13) 0.31823(7)
O5 O 1.0373(5) 0.50474(17) 0.46490(9)
C1 C 0.6108(6) 0.86885(19) 0.36883(13)
C2 C 0.8083(6) 0.85337(19) 0.42280(12)
H1 H 0.707448 0.859639 0.462351
H2 H 0.963906 0.90303 0.421875
C3 C 0.9174(6) 0.74437(18) 0.41313(11)
H3 H 1.113887 0.73456 0.428008
C4 C 0.8854(5) 0.72720(18) 0.34332(11)
H4 H 1.063713 0.741118 0.32068
C5 C 0.7889(5) 0.61467(18) 0.33596(10)
H5 H 0.633074 0.609452 0.305401
C6 C 0.6830(6) 0.58538(17) 0.40202(11)
H6 H 0.478695 0.568805 0.399751
C7 C 0.8427(5) 0.49186(19) 0.42839(11)
C8 C 0.7530(6) 0.38658(19) 0.40791(11)
C9 C 0.8751(9) 0.3020(2) 0.43571(16)
H7 H 1.014794 0.310882 0.466297
C10 C 0.7909(13) 0.2027(3) 0.4183(2)
H8 H 0.870489 0.145581 0.438307
C11 C 0.5947(11) 0.1888(3) 0.3727(2)
H9 H 0.544216 0.122146 0.360493
C12 C 0.4707(10) 0.2718(3) 0.3447(2)
H10 H 0.33275 0.262106 0.313803
C13 C 0.5507(8) 0.3709(2) 0.36223(16)
H11 H 0.466116 0.4276 0.342801
C14 C 1.0436(9) 0.5364(4) 0.25289(14)
H12 H 1.213401 0.497455 0.243709
H13 H 1.053638 0.60253 0.232448
H14 H 0.87904 0.499321 0.238035
loop_
_geom_bond_atom_site_label_1
_geom_bond_atom_site_label_2
_geom_bond_site_symmetry_1
_geom_bond_site_symmetry_2
O1 C1 1_555 1_555
O2 C1 1_555 1_555
O3 C3 1_555 1_555
O4 C5 1_555 1_555
O5 C7 1_555 1_555
C1 C2 1_555 1_555
C2 H1 1_555 1_555
H2 C2 1_555 1_555
C3 C2 1_555 1_555
H3 C3 1_555 1_555
C4 O2 1_555 1_555
H4 C4 1_555 1_555
C5 C4 1_555 1_555
H5 C5 1_555 1_555
C6 O3 1_555 1_555
H6 C6 1_555 1_555
C7 C6 1_555 1_555
C8 C7 1_555 1_555
C9 C8 1_555 1_555
H7 C9 1_555 1_555
C10 C9 1_555 1_555
H8 C10 1_555 1_555
C11 C10 1_555 1_555
H9 C11 1_555 1_555
C12 C11 1_555 1_555
H10 C12 1_555 1_555
C13 C8 1_555 1_555
H11 C13 1_555 1_555
C14 O4 1_555 1_555
H12 C14 1_555 1_555
H13 C14 1_555 1_555
H14 C14 1_555 1_555
C3 C4 1_555 1_555
C5 C6 1_555 1_555
C12 C13 1_555 1_555

#END
