
#######################################################################
#
#                 Cambridge Crystallographic Data Centre
#                                CCDC 
#
#######################################################################
#
# If this CIF has been generated from an entry in the Cambridge 
# Structural Database, then it will include bibliographic, chemical, 
# crystal, experimental, refinement or atomic coordinate data resulting 
# from the CCDC's data processing and validation procedures.
#
#######################################################################

data_YIPXAZ
_chemical_formula_moiety         'C16 H21 N1 O4'
_chemical_name_systematic        
(5R,6S,8aS)-5-((benzyloxy)methyl)-6-methoxyhexahydro-3H-[1,3]oxazolo[3,4-a]pyridin-3-one
_symmetry_cell_setting           orthorhombic
_symmetry_space_group_name_H-M   'P 21 21 21'
_symmetry_Int_Tables_number      19
_space_group_name_Hall           'P 2ac 2ab'
loop_
_symmetry_equiv_pos_site_id
_symmetry_equiv_pos_as_xyz
1 x,y,z
2 1/2-x,-y,1/2+z
3 -x,1/2+y,1/2-z
4 1/2+x,1/2-y,-z
_cell_length_a                   7.0440(3)
_cell_length_b                   8.5890(4)
_cell_length_c                   24.9709(11)
_cell_angle_alpha                90
_cell_angle_beta                 90
_cell_angle_gamma                90
_cell_volume                     1510.76
_exptl_crystal_colour            colorless
_exptl_crystal_description       plate
_chemical_melting_point          '64 deg.C'
_cell_formula_units_Z            4
loop_
_atom_site_label
_atom_site_type_symbol
_atom_site_fract_x
_atom_site_fract_y
_atom_site_fract_z
O1 O 1.0413(2) 0.16181(17) 0.22584(5)
O2 O 0.7289(2) 0.11278(17) 0.21716(6)
O3 O 0.7495(2) 0.24654(16) 0.07409(6)
O4 O 0.49366(19) 0.61270(16) 0.14741(5)
N1 N 0.8641(2) 0.33825(18) 0.18515(6)
C1 C 1.0571(3) 0.3933(2) 0.17425(8)
C2 C 1.1705(3) 0.2829(3) 0.20990(10)
C3 C 0.8628(3) 0.1982(2) 0.20921(7)
C4 C 0.7032(3) 0.3989(2) 0.15535(7)
C5 C 0.7478(3) 0.4012(2) 0.09514(7)
C6 C 0.9424(3) 0.4700(2) 0.08393(8)
C7 C 1.0978(3) 0.3849(3) 0.11478(8)
C8 C 0.6500(3) 0.5585(2) 0.17767(8)
C9 C 0.4339(3) 0.7638(2) 0.16306(8)
C10 C 0.2821(3) 0.8159(2) 0.12499(7)
C11 C 0.1123(3) 0.8770(2) 0.14336(8)
C12 C -0.0241(3) 0.9294(2) 0.10745(9)
C13 C 0.0068(3) 0.9188(3) 0.05291(9)
C14 C 0.1742(3) 0.8553(3) 0.03438(8)
C15 C 0.3114(3) 0.8047(3) 0.06994(8)
C16 C 0.5658(4) 0.1852(3) 0.06442(14)
H1 H 1.073(3) 0.502(3) 0.1865(9)
H2 H 1.273(4) 0.231(3) 0.1918(9)
H3 H 1.222(4) 0.330(3) 0.2411(11)
H4 H 0.602(3) 0.328(2) 0.1603(7)
H5 H 0.644(3) 0.459(2) 0.0768(8)
H6 H 0.966(3) 0.463(3) 0.0458(9)
H7 H 0.940(3) 0.580(3) 0.0942(8)
H8 H 1.099(3) 0.276(3) 0.1031(9)
H9 H 1.223(3) 0.431(3) 0.1080(9)
H10 H 0.755(3) 0.637(2) 0.1733(8)
H11 H 0.617(3) 0.547(2) 0.2140(9)
H12 H 0.547(4) 0.835(3) 0.1634(9)
H13 H 0.388(3) 0.761(3) 0.1996(10)
H14 H 0.086(3) 0.888(3) 0.1801(10)
H15 H -0.137(4) 0.969(3) 0.1198(10)
H16 H -0.088(4) 0.954(3) 0.0282(10)
H17 H 0.199(3) 0.852(3) -0.0030(10)
H18 H 0.427(4) 0.761(3) 0.0567(9)
H19 H 0.585(4) 0.084(3) 0.0468(10)
H20 H 0.491(5) 0.254(4) 0.0391(13)
H21 H 0.494(5) 0.171(5) 0.0971(16)
loop_
_geom_bond_atom_site_label_1
_geom_bond_atom_site_label_2
_geom_bond_site_symmetry_1
_geom_bond_site_symmetry_2
O1 C2 1_555 1_555
O2 C3 1_555 1_555
O3 C5 1_555 1_555
O4 C8 1_555 1_555
N1 C1 1_555 1_555
C1 C2 1_555 1_555
C2 H2 1_555 1_555
C3 O1 1_555 1_555
C4 N1 1_555 1_555
C5 C4 1_555 1_555
C6 C5 1_555 1_555
C7 C1 1_555 1_555
C8 C4 1_555 1_555
C9 O4 1_555 1_555
C10 C9 1_555 1_555
C11 C10 1_555 1_555
C12 C11 1_555 1_555
C13 C12 1_555 1_555
C14 C13 1_555 1_555
C15 C10 1_555 1_555
C16 O3 1_555 1_555
H1 C1 1_555 1_555
H3 C2 1_555 1_555
H4 C4 1_555 1_555
H5 C5 1_555 1_555
H6 C6 1_555 1_555
H7 C6 1_555 1_555
H8 C7 1_555 1_555
H9 C7 1_555 1_555
H10 C8 1_555 1_555
H11 C8 1_555 1_555
H12 C9 1_555 1_555
H13 C9 1_555 1_555
H14 C11 1_555 1_555
H15 C12 1_555 1_555
H16 C13 1_555 1_555
H17 C14 1_555 1_555
H18 C15 1_555 1_555
H19 C16 1_555 1_555
H20 C16 1_555 1_555
H21 C16 1_555 1_555
N1 C3 1_555 1_555
C6 C7 1_555 1_555
C14 C15 1_555 1_555

#END
