
#######################################################################
#
#                 Cambridge Crystallographic Data Centre
#                                CCDC 
#
#######################################################################
#
# If this CIF has been generated from an entry in the Cambridge 
# Structural Database, then it will include bibliographic, chemical, 
# crystal, experimental, refinement or atomic coordinate data resulting 
# from the CCDC's data processing and validation procedures.
#
#######################################################################

data_YIPYUT
_chemical_formula_moiety         'C20 H34 N1 O2 P1'
_chemical_name_systematic        
'2-Isopropyl-5-methylcyclohexyl N-isobutyl-P-phenylphosphonamidate'
_symmetry_cell_setting           orthorhombic
_symmetry_space_group_name_H-M   'P 21 21 21'
_symmetry_Int_Tables_number      19
_space_group_name_Hall           'P 2ac 2ab'
loop_
_symmetry_equiv_pos_site_id
_symmetry_equiv_pos_as_xyz
1 x,y,z
2 1/2-x,-y,1/2+z
3 -x,1/2+y,1/2-z
4 1/2+x,1/2-y,-z
_cell_length_a                   9.2742(8)
_cell_length_b                   10.4852(8)
_cell_length_c                   22.2309(19)
_cell_angle_alpha                90
_cell_angle_beta                 90
_cell_angle_gamma                90
_cell_volume                     2161.77
_cell_formula_units_Z            4
loop_
_atom_site_label
_atom_site_type_symbol
_atom_site_fract_x
_atom_site_fract_y
_atom_site_fract_z
P1 P 0.43529(8) 0.15186(6) 0.24415(3)
N1 N 0.5736(2) 0.2472(2) 0.24328(11)
H1 H 0.5640 0.3227 0.2287
O1 O 0.3246(2) 0.21110(18) 0.19847(9)
O2 O 0.4774(2) 0.01826(17) 0.23380(10)
C1 C 0.3642(5) 0.4331(3) 0.06569(15)
H2 H 0.4643 0.4142 0.0547
C2 C 0.3399(4) 0.3876(3) 0.12993(14)
H3 H 0.4070 0.4309 0.1565
H4 H 0.2430 0.4101 0.1424
C3 C 0.3600(3) 0.2450(3) 0.13591(13)
H5 H 0.4609 0.2232 0.1277
C4 C 0.2623(4) 0.1695(3) 0.09358(14)
H6 H 0.1629 0.1919 0.1041
C5 C 0.2875(5) 0.2169(3) 0.02940(15)
H7 H 0.3848 0.1951 0.0172
H8 H 0.2213 0.1736 0.0025
C6 C 0.2665(5) 0.3600(3) 0.02345(16)
H9 H 0.2865 0.3855 -0.0177
H10 H 0.1669 0.3811 0.0322
C7 C 0.3425(6) 0.5779(3) 0.0616(2)
H11 H 0.3558 0.6052 0.0208
H12 H 0.4114 0.6200 0.0870
H13 H 0.2467 0.5991 0.0746
C8 C 0.2757(4) 0.0234(3) 0.10096(17)
H14 H 0.2686 0.0044 0.1440
C9 C 0.4186(4) -0.0298(3) 0.07881(19)
H15 H 0.4304 -0.0097 0.0370
H16 H 0.4195 -0.1206 0.0840
H17 H 0.4960 0.0075 0.1014
C10 C 0.1503(5) -0.0452(4) 0.0694(2)
H18 H 0.1608 -0.0370 0.0267
H19 H 0.0607 -0.0076 0.0817
H20 H 0.1512 -0.1339 0.0802
C11 C 0.7139(3) 0.2073(4) 0.26670(16)
H21 H 0.7129 0.1152 0.2711
H22 H 0.7270 0.2438 0.3064
C12 C 0.8374(6) 0.2435(8) 0.2287(3)
H23 H 0.8381 0.3369 0.2291
C13 C 0.8288(6) 0.2074(5) 0.1630(2)
H24 H 0.7777 0.1280 0.1598
H25 H 0.9241 0.1975 0.1467
H26 H 0.7782 0.2721 0.1409
C14 C 0.9769(8) 0.2046(14) 0.2602(6)
H27 H 1.0503 0.2669 0.2521
H28 H 1.0075 0.1229 0.2455
H29 H 0.9606 0.1997 0.3028
C15 C 0.3342(3) 0.1695(3) 0.31288(12)
C16 C 0.2838(4) 0.0622(3) 0.34296(15)
H30 H 0.3044 -0.0186 0.3281
C17 C 0.2034(5) 0.0751(4) 0.39469(17)
H31 H 0.1695 0.0030 0.4145
C18 C 0.1735(5) 0.1930(4) 0.41680(16)
H32 H 0.1179 0.2015 0.4514
C19 C 0.2253(4) 0.2995(4) 0.38824(17)
H33 H 0.2062 0.3801 0.4038
C20 C 0.3055(4) 0.2871(3) 0.33640(15)
H34 H 0.3406 0.3596 0.3172
H35? H 0.6978 0.1490 0.2999
H36? H 0.7627 0.2818 0.2827
C21? C 0.8136(8) 0.1427(9) 0.2216(3)
H37? H 0.7627 0.0636 0.2115
H38? H 0.8918 0.1586 0.1376
H39? H 0.8687 0.2909 0.1690
H40? H 0.7359 0.2147 0.1443
C22? C 0.9543(9) 0.0963(13) 0.2485(6)
H41? H 1.0003 0.0386 0.2210
H42? H 0.9351 0.0530 0.2857
H43? H 1.0164 0.1678 0.2559
loop_
_geom_bond_atom_site_label_1
_geom_bond_atom_site_label_2
_geom_bond_site_symmetry_1
_geom_bond_site_symmetry_2
P1 N1 1_555 1_555
N1 H1 1_555 1_555
O1 P1 1_555 1_555
O2 P1 1_555 1_555
C1 H2 1_555 1_555
C2 C1 1_555 1_555
H3 C2 1_555 1_555
H4 C2 1_555 1_555
C3 O1 1_555 1_555
H5 C3 1_555 1_555
C4 C3 1_555 1_555
H6 C4 1_555 1_555
C5 C4 1_555 1_555
H7 C5 1_555 1_555
H8 C5 1_555 1_555
C6 C1 1_555 1_555
H9 C6 1_555 1_555
H10 C6 1_555 1_555
C7 C1 1_555 1_555
H11 C7 1_555 1_555
H12 C7 1_555 1_555
H13 C7 1_555 1_555
C8 C4 1_555 1_555
H14 C8 1_555 1_555
C9 C8 1_555 1_555
H15 C9 1_555 1_555
H16 C9 1_555 1_555
H17 C9 1_555 1_555
C10 C8 1_555 1_555
H18 C10 1_555 1_555
H19 C10 1_555 1_555
H20 C10 1_555 1_555
C11 N1 1_555 1_555
H21 C11 1_555 1_555
H22 C11 1_555 1_555
C12 C11 1_555 1_555
H23 C12 1_555 1_555
C13 C12 1_555 1_555
H24 C13 1_555 1_555
H25 C13 1_555 1_555
H26 C13 1_555 1_555
C14 C12 1_555 1_555
H27 C14 1_555 1_555
H28 C14 1_555 1_555
H29 C14 1_555 1_555
C15 P1 1_555 1_555
C16 C15 1_555 1_555
H30 C16 1_555 1_555
C17 C16 1_555 1_555
H31 C17 1_555 1_555
C18 C17 1_555 1_555
H32 C18 1_555 1_555
C19 C18 1_555 1_555
H33 C19 1_555 1_555
C20 C15 1_555 1_555
H34 C20 1_555 1_555
C2 C3 1_555 1_555
C5 C6 1_555 1_555
C19 C20 1_555 1_555

#END
