
#######################################################################
#
#                 Cambridge Crystallographic Data Centre
#                                CCDC 
#
#######################################################################
#
# If this CIF has been generated from an entry in the Cambridge 
# Structural Database, then it will include bibliographic, chemical, 
# crystal, experimental, refinement or atomic coordinate data resulting 
# from the CCDC's data processing and validation procedures.
#
#######################################################################

data_YIPZAA
_chemical_formula_moiety         'C26 H31 O3 P1'
_chemical_name_systematic        
'2-Isopropyl-5-methylcyclohexyl 2-naphthyl phenylphosphonate'
_symmetry_cell_setting           orthorhombic
_symmetry_space_group_name_H-M   'P 21 21 21'
_symmetry_Int_Tables_number      19
_space_group_name_Hall           'P 2ac 2ab'
loop_
_symmetry_equiv_pos_site_id
_symmetry_equiv_pos_as_xyz
1 x,y,z
2 1/2-x,-y,1/2+z
3 -x,1/2+y,1/2-z
4 1/2+x,1/2-y,-z
_cell_length_a                   5.9886(4)
_cell_length_b                   8.7545(9)
_cell_length_c                   43.859(3)
_cell_angle_alpha                90
_cell_angle_beta                 90
_cell_angle_gamma                90
_cell_volume                     2299.4
_exptl_crystal_colour            colorless
_exptl_crystal_description       block
_cell_formula_units_Z            4
loop_
_atom_site_label
_atom_site_type_symbol
_atom_site_fract_x
_atom_site_fract_y
_atom_site_fract_z
P1 P 0.6247(2) 0.35592(17) 0.87308(3)
O1 O 0.7002(5) 0.3601(4) 0.90665(7)
O2 O 0.4105(7) 0.4278(5) 0.86873(8)
C1 C 0.9304(8) 0.3720(6) 0.91914(11)
H1 H 1.035(8) 0.402(5) 0.9031(11)
O3 O 0.8297(6) 0.4322(5) 0.85650(8)
C2 C 0.8465(9) 0.4844(5) 0.82683(10)
C3 C 0.7177(9) 0.5294(6) 0.77585(11)
C4 C 0.6268(10) 0.1629(6) 0.86123(11)
C5 C 0.9104(10) 0.6132(6) 0.76956(12)
C6 C 1.0434(9) 0.5641(6) 0.82068(12)
H2 H 1.1529 0.5741 0.8356
C7 C 0.6855(9) 0.4655(6) 0.80537(11)
H3 H 0.5559 0.4116 0.8099
C8 C 1.2271(10) 0.3458(7) 0.97045(12)
H4 H 1.1264 0.3160 0.9867
H5 H 1.3760 0.3537 0.9790
C9 C 0.9223(11) 0.4915(6) 0.94385(12)
H6 H 0.819(9) 0.455(6) 0.9595(12)
C10 C 0.9366(10) 0.6771(7) 0.74038(14)
H7 H 1.0642 0.7335 0.7359
C11 C 0.9926(9) 0.2186(6) 0.93185(12)
H8 H 0.9896 0.1430 0.9157
H9 H 0.8844 0.1886 0.9472
C12 C 1.2260(10) 0.2236(7) 0.94609(12)
H10 H 1.332(9) 0.254(6) 0.9302(12)
C13 C 0.5927(13) 0.5732(8) 0.72458(12)
H11 H 0.4875 0.5574 0.7093
C14 C 0.7773(12) 0.6576(9) 0.71851(13)
H12 H 0.7953 0.7021 0.6994
C15 C 0.8060(12) 0.0970(9) 0.84744(14)
H13 H 0.9321 0.1560 0.8437
C16 C 0.5592(10) 0.5116(7) 0.75262(12)
H14 H 0.4292 0.4567 0.7565
C17 C 1.0727(9) 0.6269(6) 0.79258(12)
H15 H 1.2036 0.6802 0.7885
C18 C 0.4373(12) 0.0741(9) 0.86600(14)
H16 H 0.3087 0.1169 0.8743
C19 C 1.1578(11) 0.4982(7) 0.95841(13)
H17 H 1.2649 0.5321 0.9433
H18 H 1.1576 0.5720 0.9749
C20 C 0.8341(14) 0.6474(8) 0.93250(16)
H19 H 0.696(11) 0.630(8) 0.9211(15)
C21 C 0.9992(14) 0.7273(8) 0.91162(15)
H20 H 1.0376 0.6608 0.8950
H21 H 1.1315 0.7527 0.9229
H22 H 0.9329 0.8190 0.9037
C22 C 1.2967(13) 0.0657(7) 0.95814(17)
C23 C 0.632(3) -0.1387(11) 0.8443(2)
H23 H 0.6350 -0.2412 0.8388
C24 C 0.444(2) -0.0804(11) 0.85815(19)
H24 H 0.3220 -0.1433 0.8622
C25 C 0.7775(14) 0.7523(8) 0.96144(16)
H25 H 0.7821 0.8579 0.9556
H26 H 0.8854 0.7341 0.9772
H27 H 0.6310 0.7276 0.9689
C26 C 0.8065(19) -0.0537(12) 0.8389(2)
H28 H 0.9308 -0.0951 0.8292
loop_
_geom_bond_atom_site_label_1
_geom_bond_atom_site_label_2
_geom_bond_site_symmetry_1
_geom_bond_site_symmetry_2
P1 O1 1_555 1_555
O1 C1 1_555 1_555
O2 P1 1_555 1_555
C1 H1 1_555 1_555
O3 P1 1_555 1_555
C2 O3 1_555 1_555
C3 C5 1_555 1_555
C4 P1 1_555 1_555
C5 C10 1_555 1_555
C6 C2 1_555 1_555
H2 C6 1_555 1_555
C7 C2 1_555 1_555
H3 C7 1_555 1_555
C8 H4 1_555 1_555
H5 C8 1_555 1_555
C9 C1 1_555 1_555
H6 C9 1_555 1_555
C10 H7 1_555 1_555
C11 C1 1_555 1_555
H8 C11 1_555 1_555
H9 C11 1_555 1_555
C12 C8 1_555 1_555
H10 C12 1_555 1_555
C13 H11 1_555 1_555
C14 C10 1_555 1_555
H12 C14 1_555 1_555
C15 C4 1_555 1_555
H13 C15 1_555 1_555
C16 C3 1_555 1_555
H14 C16 1_555 1_555
C17 C5 1_555 1_555
H15 C17 1_555 1_555
C18 C4 1_555 1_555
H16 C18 1_555 1_555
C19 C8 1_555 1_555
H17 C19 1_555 1_555
H18 C19 1_555 1_555
C20 C9 1_555 1_555
H19 C20 1_555 1_555
C21 C20 1_555 1_555
H20 C21 1_555 1_555
H21 C21 1_555 1_555
H22 C21 1_555 1_555
C22 C12 1_555 1_555
C23 H23 1_555 1_555
C24 C18 1_555 1_555
H24 C24 1_555 1_555
C25 C20 1_555 1_555
H25 C25 1_555 1_555
H26 C25 1_555 1_555
H27 C25 1_555 1_555
C26 C15 1_555 1_555
H28 C26 1_555 1_555
C3 C7 1_555 1_555
C6 C17 1_555 1_555
C9 C19 1_555 1_555
C11 C12 1_555 1_555
C13 C14 1_555 1_555
C13 C16 1_555 1_555
C23 C24 1_555 1_555
C23 C26 1_555 1_555

#END
