
#######################################################################
#
#                 Cambridge Crystallographic Data Centre
#                                CCDC 
#
#######################################################################
#
# If this CIF has been generated from an entry in the Cambridge 
# Structural Database, then it will include bibliographic, chemical, 
# crystal, experimental, refinement or atomic coordinate data resulting 
# from the CCDC's data processing and validation procedures.
#
#######################################################################

data_YIQCEI
_chemical_formula_moiety         'C18 H16 O5'
_chemical_name_systematic        
'Ethyl 2-benzoyl-5-(2-furyl)-3-hydroxypenta-2,4-dienoate'
_symmetry_cell_setting           monoclinic
_symmetry_space_group_name_H-M   'C 2/c'
_symmetry_Int_Tables_number      15
_space_group_name_Hall           '-C 2yn'
loop_
_symmetry_equiv_pos_site_id
_symmetry_equiv_pos_as_xyz
1 x,y,z
2 -x,y,1/2-z
3 1/2+x,1/2+y,z
4 1/2-x,1/2+y,1/2-z
5 -x,-y,-z
6 x,-y,1/2+z
7 1/2-x,1/2-y,-z
8 1/2+x,1/2-y,1/2+z
_cell_length_a                   20.6244(6)
_cell_length_b                   7.8979(2)
_cell_length_c                   20.2406(5)
_cell_angle_alpha                90
_cell_angle_beta                 111.300(2)
_cell_angle_gamma                90
_cell_volume                     3071.77
_exptl_crystal_colour            yellow
_exptl_crystal_description       prism
_cell_formula_units_Z            8
loop_
_atom_site_label
_atom_site_type_symbol
_atom_site_fract_x
_atom_site_fract_y
_atom_site_fract_z
C1 C 0.09587(7) 0.97429(17) 0.88167(7)
C2 C 0.10936(6) 1.10321(16) 0.93895(7)
C3 C 0.10058(6) 1.06622(18) 1.00215(7)
C4 C 0.08480(7) 0.89910(18) 1.02307(7)
H1 H 0.0815 0.8047 0.9929
C5 C 0.07493(7) 0.87760(18) 1.08471(7)
H2 H 0.0797 0.9750 1.1136
C6 C 0.05793(7) 0.72262(18) 1.11074(7)
C7 C 0.04860(8) 0.6845(2) 1.17220(7)
H3 H 0.0534 0.7597 1.2103
C8 C 0.03021(7) 0.5106(2) 1.16830(7)
H4 H 0.0205 0.4465 1.2033
C9 C 0.02929(7) 0.4547(2) 1.10524(8)
H5 H 0.0183 0.3421 1.0884
C10 C 0.12787(7) 1.27654(17) 0.92823(7)
C11 C 0.15249(7) 1.47634(18) 0.85310(7)
H6 H 0.1295 1.5617 0.8730
H7 H 0.1383 1.4979 0.8016
C12 C 0.23011(8) 1.4944(2) 0.88767(8)
H8 H 0.2434 1.4932 0.9393
H9 H 0.2447 1.6016 0.8730
H10 H 0.2529 1.4001 0.8732
C13 C 0.14841(7) 0.95042(16) 0.84724(7)
C14 C 0.21870(7) 0.98574(18) 0.88334(7)
H11 H 0.2336 1.0326 0.9297
C15 C 0.26693(8) 0.9527(2) 0.85186(8)
H12 H 0.3149 0.9756 0.8769
C16 C 0.24514(8) 0.8862(2) 0.78396(8)
H13 H 0.2782 0.8640 0.7624
C17 C 0.17513(8) 0.8519(2) 0.74726(7)
H14 H 0.1603 0.8070 0.7006
C18 C 0.12684(7) 0.88314(17) 0.77887(7)
H15 H 0.0790 0.8587 0.7539
O1 O 0.04372(5) 0.88585(14) 0.86373(5)
O2 O 0.10946(5) 1.18512(13) 1.05124(5)
O3 O 0.04620(5) 0.58107(13) 1.06887(5)
O4 O 0.13958(6) 1.38870(13) 0.97354(5)
O5 O 0.12974(5) 1.30697(12) 0.86429(5)
H16 H 0.1205(9) 1.276(2) 1.0312(9)
loop_
_geom_bond_atom_site_label_1
_geom_bond_atom_site_label_2
_geom_bond_site_symmetry_1
_geom_bond_site_symmetry_2
C1 C2 1_555 1_555
C2 C3 1_555 1_555
C3 C4 1_555 1_555
C4 H1 1_555 1_555
C5 C4 1_555 1_555
H2 C5 1_555 1_555
C6 C5 1_555 1_555
C7 C6 1_555 1_555
H3 C7 1_555 1_555
C8 C7 1_555 1_555
H4 C8 1_555 1_555
C9 C8 1_555 1_555
H5 C9 1_555 1_555
C10 C2 1_555 1_555
C11 H6 1_555 1_555
H7 C11 1_555 1_555
C12 C11 1_555 1_555
H8 C12 1_555 1_555
H9 C12 1_555 1_555
H10 C12 1_555 1_555
C13 C1 1_555 1_555
C14 C13 1_555 1_555
H11 C14 1_555 1_555
C15 C14 1_555 1_555
H12 C15 1_555 1_555
C16 C15 1_555 1_555
H13 C16 1_555 1_555
C17 C16 1_555 1_555
H14 C17 1_555 1_555
C18 C13 1_555 1_555
H15 C18 1_555 1_555
O1 C1 1_555 1_555
O2 C3 1_555 1_555
O3 C6 1_555 1_555
O4 C10 1_555 1_555
O5 C10 1_555 1_555
H16 O2 1_555 1_555
C9 O3 1_555 1_555
C11 O5 1_555 1_555
C17 C18 1_555 1_555

#END
