
#######################################################################
#
#                 Cambridge Crystallographic Data Centre
#                                CCDC 
#
#######################################################################
#
# If this CIF has been generated from an entry in the Cambridge 
# Structural Database, then it will include bibliographic, chemical, 
# crystal, experimental, refinement or atomic coordinate data resulting 
# from the CCDC's data processing and validation procedures.
#
#######################################################################

data_YIQDEJ
_chemical_formula_moiety         'C19 H15 Cl1 N2 O3'
_chemical_name_systematic        
2-Benzyl-7-chloro-1-(nitromethyl)-1,2-dihydro-3H-pyrrolo[1,2-a]indol-3-one
_symmetry_cell_setting           triclinic
_symmetry_space_group_name_H-M   'P 1'
_symmetry_Int_Tables_number      1
_space_group_name_Hall           'P 1'
loop_
_symmetry_equiv_pos_site_id
_symmetry_equiv_pos_as_xyz
1 x,y,z
_cell_length_a                   5.7559(6)
_cell_length_b                   11.6412(13)
_cell_length_c                   12.7287(14)
_cell_angle_alpha                80.6231(18)
_cell_angle_beta                 89.4712(19)
_cell_angle_gamma                86.0815(19)
_cell_volume                     839.529
_exptl_crystal_colour            colorless
_exptl_crystal_description       prism
_cell_formula_units_Z            2
loop_
_atom_site_label
_atom_site_type_symbol
_atom_site_fract_x
_atom_site_fract_y
_atom_site_fract_z
Cl1 Cl 0.81343(13) 0.53479(6) 0.42067(6)
O1 O 0.5999(3) 1.12791(17) 0.51830(15)
O2 O 1.5747(4) 0.9889(2) 0.77531(17)
O3 O 1.3771(4) 0.9041(2) 0.90470(18)
N1 N 0.8691(4) 0.97567(19) 0.57529(17)
N2 N 1.3942(4) 0.9750(2) 0.82459(17)
C1 C 0.8154(5) 0.6661(2) 0.4696(2)
C2 C 0.6349(5) 0.7513(2) 0.4370(2)
H1 H 0.5132 0.7348 0.3929
C3 C 0.6347(5) 0.8595(2) 0.4692(2)
H2 H 0.5145 0.9187 0.4485
C4 C 0.8178(5) 0.8773(2) 0.5330(2)
C5 C 0.9986(5) 0.7909(2) 0.5677(2)
C6 C 0.9959(5) 0.6825(2) 0.5345(2)
H3 H 1.1140 0.6224 0.5559
C7 C 0.7736(5) 1.0878(2) 0.5683(2)
C8 C 0.9212(5) 1.1495(2) 0.6367(2)
H4 H 0.8318 1.1590 0.7028
C9 C 1.1397(5) 1.0642(2) 0.6690(2)
H5 H 1.2792 1.0943 0.6290
C10 C 1.0771(4) 0.9533(2) 0.6333(2)
C11 C 1.1588(5) 0.8419(2) 0.6317(2)
H6 H 1.2957 0.8040 0.6661
C12 C 1.1824(5) 1.0525(3) 0.7883(2)
H7 H 1.2003 1.1309 0.8066
H8 H 1.0449 1.0206 0.8269
C13 C 0.9767(5) 1.2706(2) 0.5800(2)
H9 H 1.0740 1.2620 0.5169
H10 H 0.8294 1.3149 0.5546
C14 C 1.1016(5) 1.3391(2) 0.6495(2)
C15 C 1.3113(5) 1.3852(3) 0.6172(3)
H11 H 1.3777 1.3720 0.5512
C16 C 1.4254(6) 1.4506(3) 0.6804(3)
H12 H 1.5688 1.4820 0.6575
C17 C 1.3304(7) 1.4695(3) 0.7759(3)
H13 H 1.4096 1.5135 0.8192
C18 C 1.1214(8) 1.4253(3) 0.8098(3)
H14 H 1.0563 1.4390 0.8759
C19 C 1.0064(6) 1.3603(3) 0.7461(3)
H15 H 0.8616 1.3302 0.7688
Cl2 Cl 0.10361(11) 0.07735(6) 0.34501(5)
O4 O 0.3673(3) 0.68444(18) 0.22358(16)
O5 O -0.5103(4) 0.65025(19) -0.05290(18)
O6 O -0.3504(4) 0.7006(2) -0.20651(17)
N3 N 0.0986(4) 0.5710(2) 0.16563(18)
N4 N -0.3527(5) 0.6906(2) -0.1097(2)
C20 C 0.1167(5) 0.2245(2) 0.2901(2)
C21 C -0.0600(5) 0.2770(2) 0.2223(2)
H16 H -0.1841 0.2343 0.2038
C22 C -0.0482(5) 0.3951(2) 0.1824(2)
C23 C 0.1397(5) 0.4549(2) 0.2123(2)
C24 C 0.3173(5) 0.4008(2) 0.2793(2)
H17 H 0.4425 0.4428 0.2978
C25 C 0.3049(5) 0.2834(2) 0.3180(2)
H18 H 0.4239 0.2427 0.3635
C26 C 0.1954(5) 0.6747(2) 0.1737(2)
C27 C 0.0388(5) 0.7719(2) 0.1096(2)
H19 H 0.1312 0.8141 0.0504
C28 C -0.1585(5) 0.7109(2) 0.0614(2)
H20 H -0.3134 0.7396 0.0868
C29 C -0.1105(5) 0.5841(2) 0.1069(2)
C30 C -0.2025(5) 0.4796(2) 0.1143(2)
H21 H -0.3417 0.4639 0.0813
C31 C -0.1512(5) 0.7359(3) -0.0592(2)
H22 H -0.1512 0.8212 -0.0828
H23 H -0.0044 0.6996 -0.0839
C32 C -0.0526(5) 0.8580(2) 0.1819(2)
H24 H -0.1514 0.8168 0.2378
H25 H 0.0813 0.8846 0.2175
C33 C -0.1923(5) 0.9637(2) 0.1237(2)
C34 C -0.4163(5) 0.9940(3) 0.1571(2)
H26 H -0.4842 0.9461 0.2154
C35 C -0.5416(6) 1.0938(3) 0.1059(3)
H27 H -0.6936 1.1138 0.1298
C36 C -0.4461(6) 1.1635(3) 0.0209(2)
H28 H -0.5326 1.2310 -0.0144
C37 C -0.2241(6) 1.1348(3) -0.0128(2)
H29 H -0.1572 1.1830 -0.0711
C38 C -0.0981(5) 1.0357(3) 0.0383(2)
H30 H 0.0545 1.0168 0.0145
loop_
_geom_bond_atom_site_label_1
_geom_bond_atom_site_label_2
_geom_bond_site_symmetry_1
_geom_bond_site_symmetry_2
Cl1 C1 1_555 1_555
O1 C7 1_555 1_555
O2 N2 1_555 1_555
O3 N2 1_555 1_555
N1 C4 1_555 1_555
N2 C12 1_555 1_555
C1 C2 1_555 1_555
C2 H1 1_555 1_555
C3 C2 1_555 1_555
H2 C3 1_555 1_555
C4 C3 1_555 1_555
C5 C4 1_555 1_555
C6 C1 1_555 1_555
H3 C6 1_555 1_555
C7 N1 1_555 1_555
C8 C7 1_555 1_555
H4 C8 1_555 1_555
C9 C8 1_555 1_555
H5 C9 1_555 1_555
C10 N1 1_555 1_555
C11 C5 1_555 1_555
H6 C11 1_555 1_555
C12 C9 1_555 1_555
H7 C12 1_555 1_555
H8 C12 1_555 1_555
C13 C8 1_555 1_555
H9 C13 1_555 1_555
H10 C13 1_555 1_555
C14 C13 1_555 1_555
C15 C14 1_555 1_555
H11 C15 1_555 1_555
C16 C15 1_555 1_555
H12 C16 1_555 1_555
C17 C16 1_555 1_555
H13 C17 1_555 1_555
C18 C17 1_555 1_555
H14 C18 1_555 1_555
C19 C14 1_555 1_555
H15 C19 1_555 1_555
Cl2 C20 1_555 1_555
O4 C26 1_555 1_555
O5 N4 1_555 1_555
O6 N4 1_555 1_555
N3 C23 1_555 1_555
N4 C31 1_555 1_555
C20 C21 1_555 1_555
C21 H16 1_555 1_555
C22 C21 1_555 1_555
C23 C22 1_555 1_555
C24 C23 1_555 1_555
H17 C24 1_555 1_555
C25 C20 1_555 1_555
H18 C25 1_555 1_555
C26 N3 1_555 1_555
C27 C26 1_555 1_555
H19 C27 1_555 1_555
C28 C27 1_555 1_555
H20 C28 1_555 1_555
C29 N3 1_555 1_555
C30 C22 1_555 1_555
H21 C30 1_555 1_555
C31 C28 1_555 1_555
H22 C31 1_555 1_555
H23 C31 1_555 1_555
C32 C27 1_555 1_555
H24 C32 1_555 1_555
H25 C32 1_555 1_555
C33 C32 1_555 1_555
C34 C33 1_555 1_555
H26 C34 1_555 1_555
C35 C34 1_555 1_555
H27 C35 1_555 1_555
C36 C35 1_555 1_555
H28 C36 1_555 1_555
C37 C36 1_555 1_555
H29 C37 1_555 1_555
C38 C33 1_555 1_555
H30 C38 1_555 1_555
C5 C6 1_555 1_555
C9 C10 1_555 1_555
C10 C11 1_555 1_555
C18 C19 1_555 1_555
C24 C25 1_555 1_555
C28 C29 1_555 1_555
C29 C30 1_555 1_555
C37 C38 1_555 1_555

#END
