
#######################################################################
#
#                 Cambridge Crystallographic Data Centre
#                                CCDC 
#
#######################################################################
#
# If this CIF has been generated from an entry in the Cambridge 
# Structural Database, then it will include bibliographic, chemical, 
# crystal, experimental, refinement or atomic coordinate data resulting 
# from the CCDC's data processing and validation procedures.
#
#######################################################################

data_YIQDOS
_chemical_formula_moiety         'C13 H10 F1 N3 O1'
_chemical_name_systematic        
'(E)-N-isonicotinoyl 3-fluorobenzaldehydehydrazone'
_symmetry_cell_setting           orthorhombic
_symmetry_space_group_name_H-M   'P b c a'
_symmetry_Int_Tables_number      61
_space_group_name_Hall           '-P 2ac 2ab'
loop_
_symmetry_equiv_pos_site_id
_symmetry_equiv_pos_as_xyz
1 x,y,z
2 1/2-x,-y,1/2+z
3 -x,1/2+y,1/2-z
4 1/2+x,1/2-y,-z
5 -x,-y,-z
6 1/2+x,y,1/2-z
7 x,1/2-y,1/2+z
8 1/2-x,1/2+y,z
_cell_length_a                   13.1910(4)
_cell_length_b                   18.8057(6)
_cell_length_c                   18.2843(4)
_cell_angle_alpha                90
_cell_angle_beta                 90
_cell_angle_gamma                90
_cell_volume                     4535.71
_exptl_crystal_colour            colorless
_exptl_crystal_description       needle
_chemical_melting_point          '453-454 K'
_cell_formula_units_Z            16
_exptl_crystal_recrystallization_method ethanol
loop_
_atom_site_label
_atom_site_type_symbol
_atom_site_fract_x
_atom_site_fract_y
_atom_site_fract_z
N1 N 0.48911(13) -0.04000(9) 0.36595(10)
C1 C 0.40080(15) -0.00579(10) 0.37487(11)
C2 C 0.39033(14) 0.05825(10) 0.41165(11)
C3 C 0.47641(14) 0.08952(10) 0.44133(10)
C4 C 0.56870(14) 0.05504(10) 0.43207(11)
C5 C 0.57108(15) -0.00894(11) 0.39506(12)
C6 C 0.47670(14) 0.15832(10) 0.48285(11)
O1 O 0.55367(11) 0.19416(8) 0.48815(8)
N2 N 0.38765(12) 0.17658(8) 0.51417(9)
N3 N 0.38387(12) 0.23581(8) 0.55838(9)
C8 C 0.29804(14) 0.24726(10) 0.58816(11)
C9 C 0.28062(14) 0.30477(10) 0.64067(11)
C10 C 0.18202(14) 0.31315(11) 0.66708(11)
C11 C 0.16399(14) 0.36499(11) 0.71864(11)
F1 F 0.06787(9) 0.37216(7) 0.74408(8)
C12 C 0.23791(15) 0.40892(11) 0.74548(11)
C13 C 0.33552(15) 0.40023(11) 0.71901(12)
C14 C 0.35741(15) 0.34884(11) 0.66716(11)
H1 H 0.3416 -0.0268 0.3547
H2 H 0.3258 0.0802 0.4164
H3 H 0.6293 0.0752 0.4509
H4 H 0.6346 -0.0323 0.3899
H5 H 0.3328 0.1510 0.5064
H6 H 0.2429 0.2171 0.5757
H7 H 0.1286 0.2837 0.6499
H8 H 0.2228 0.4442 0.7811
H9 H 0.3883 0.4300 0.7367
H10 H 0.4248 0.3436 0.6496
C7 C 0.11594(14) 0.11515(10) 0.51004(11)
N4 N -0.14132(13) 0.02314(9) 0.61911(10)
C15 C -0.15375(16) 0.06896(12) 0.56491(13)
C16 C -0.07478(16) 0.10133(12) 0.52769(13)
C17 C 0.02389(14) 0.08595(10) 0.54775(11)
C18 C 0.03770(16) 0.03871(12) 0.60450(13)
C19 C -0.04620(17) 0.00940(13) 0.63802(14)
O2 O 0.20099(10) 0.09197(7) 0.52349(8)
N5 N 0.09777(12) 0.16686(8) 0.46035(9)
N6 N 0.17787(12) 0.19446(9) 0.42072(9)
C20 C 0.15322(15) 0.24611(10) 0.37845(11)
C21 C 0.22817(15) 0.28149(10) 0.33232(11)
C22 C 0.32939(16) 0.26093(12) 0.33128(12)
C23 C 0.39533(17) 0.29646(13) 0.28605(13)
F2 F 0.49092(15) 0.27994(12) 0.28543(14)
C24 C 0.36606(16) 0.35160(11) 0.24134(12)
C25 C 0.26565(17) 0.37122(11) 0.24312(13)
C26 C 0.19610(16) 0.33746(10) 0.28778(12)
H11 H -0.2211 0.0804 0.5506
H12 H -0.0882 0.1336 0.4889
H13 H 0.1041 0.0265 0.6203
H14 H -0.0351 -0.0228 0.6773
H15 H 0.0358 0.1827 0.4533
H16 H 0.0847 0.2617 0.3771
H17 H 0.3525 0.2230 0.3613
H19 H 0.4133 0.3752 0.2105
H20 H 0.2434 0.4091 0.2127
H21 H 0.1272 0.3522 0.2882
F3? F 0.2425(3) 0.4250(2) 0.2084(2)
H18? H 0.4645 0.2823 0.2856
loop_
_geom_bond_atom_site_label_1
_geom_bond_atom_site_label_2
_geom_bond_site_symmetry_1
_geom_bond_site_symmetry_2
N1 C1 1_555 1_555
C1 C2 1_555 1_555
C2 C3 1_555 1_555
C3 C4 1_555 1_555
C4 C5 1_555 1_555
C5 N1 1_555 1_555
C6 C3 1_555 1_555
O1 C6 1_555 1_555
N2 C6 1_555 1_555
N3 N2 1_555 1_555
C7 C17 1_555 1_555
C8 N3 1_555 1_555
C9 C8 1_555 1_555
C10 C9 1_555 1_555
C11 C10 1_555 1_555
F1 C11 1_555 1_555
C12 C11 1_555 1_555
C13 C12 1_555 1_555
C14 C9 1_555 1_555
N4 C15 1_555 1_555
C15 C16 1_555 1_555
C16 C17 1_555 1_555
C17 C18 1_555 1_555
C18 C19 1_555 1_555
C19 N4 1_555 1_555
O2 C7 1_555 1_555
N5 C7 1_555 1_555
N6 N5 1_555 1_555
C20 N6 1_555 1_555
C21 C20 1_555 1_555
C22 C21 1_555 1_555
C23 C22 1_555 1_555
F2 C23 1_555 1_555
C24 C23 1_555 1_555
C25 C24 1_555 1_555
C26 C21 1_555 1_555
H1 C1 1_555 1_555
H2 C2 1_555 1_555
H3 C4 1_555 1_555
H4 C5 1_555 1_555
H5 N2 1_555 1_555
H6 C8 1_555 1_555
H7 C10 1_555 1_555
H8 C12 1_555 1_555
H9 C13 1_555 1_555
H10 C14 1_555 1_555
H11 C15 1_555 1_555
H12 C16 1_555 1_555
H13 C18 1_555 1_555
H14 C19 1_555 1_555
H15 N5 1_555 1_555
H16 C20 1_555 1_555
H17 C22 1_555 1_555
H19 C24 1_555 1_555
H20 C25 1_555 1_555
H21 C26 1_555 1_555
C13 C14 1_555 1_555
C25 C26 1_555 1_555

#END
