
#######################################################################
#
#                 Cambridge Crystallographic Data Centre
#                                CCDC 
#
#######################################################################
#
# If this CIF has been generated from an entry in the Cambridge 
# Structural Database, then it will include bibliographic, chemical, 
# crystal, experimental, refinement or atomic coordinate data resulting 
# from the CCDC's data processing and validation procedures.
#
#######################################################################

data_YIQDUY
_chemical_formula_moiety         'C13 H10 Cl1 N3 O1'
_chemical_name_systematic        
'(Z)-N-isonicotinoyl 2-chlorobenzaldehydehydrazone'
_symmetry_cell_setting           monoclinic
_symmetry_space_group_name_H-M   'P 21/c'
_symmetry_Int_Tables_number      14
_space_group_name_Hall           '-P 2ybc'
loop_
_symmetry_equiv_pos_site_id
_symmetry_equiv_pos_as_xyz
1 x,y,z
2 -x,1/2+y,1/2-z
3 -x,-y,-z
4 x,1/2-y,1/2+z
_cell_length_a                   7.9977(2)
_cell_length_b                   6.7184(2)
_cell_length_c                   22.5514(6)
_cell_angle_alpha                90
_cell_angle_beta                 98.609(3)
_cell_angle_gamma                90
_cell_volume                     1198.07
_exptl_crystal_colour            colorless
_exptl_crystal_description       plate
_chemical_melting_point          '463-464 K'
_cell_formula_units_Z            4
_exptl_crystal_recrystallization_method ethanol
loop_
_atom_site_label
_atom_site_type_symbol
_atom_site_fract_x
_atom_site_fract_y
_atom_site_fract_z
N1 N -0.07515(16) 0.1695(2) 0.67399(6)
C1 C 0.01389(19) 0.3068(2) 0.64910(7)
C2 C 0.18814(19) 0.3082(2) 0.65489(7)
C3 C 0.27868(18) 0.1597(2) 0.68869(6)
C4 C 0.18877(19) 0.0168(2) 0.71512(7)
C5 C 0.01336(19) 0.0271(3) 0.70645(7)
C6 C 0.46874(18) 0.1534(2) 0.70072(7)
O1 O 0.54326(13) 0.10882(17) 0.75062(5)
N2 N 0.55609(15) 0.19946(19) 0.65557(5)
N3 N 0.47650(16) 0.21267(19) 0.59726(5)
C7 C 0.57369(18) 0.2355(2) 0.55758(7)
C8 C 0.5007(2) 0.2480(2) 0.49427(7)
C9 C 0.60118(19) 0.2658(2) 0.44858(7)
Cl1 Cl 0.82143(5) 0.27586(7) 0.466582(18)
C10 C 0.5319(2) 0.2757(2) 0.38862(7)
C11 C 0.3585(2) 0.2667(2) 0.37239(7)
C12 C 0.2548(2) 0.2456(2) 0.41642(7)
C13 C 0.32502(19) 0.2373(2) 0.47628(7)
H1 H -0.0465 0.4094 0.6261
H2 H 0.2453 0.4087 0.6361
H3 H 0.2462 -0.0864 0.7388
H4 H -0.0471 -0.0721 0.7245
H5 H 0.6666 0.1849 0.6631
H6 H 0.6926 0.2442 0.5692
H7 H 0.6033 0.2887 0.3587
H8 H 0.3101 0.2749 0.3313
H9 H 0.1357 0.2369 0.4053
H10 H 0.2528 0.2241 0.5059
loop_
_geom_bond_atom_site_label_1
_geom_bond_atom_site_label_2
_geom_bond_site_symmetry_1
_geom_bond_site_symmetry_2
N1 C1 1_555 1_555
C1 C2 1_555 1_555
C2 C3 1_555 1_555
C3 C4 1_555 1_555
C4 C5 1_555 1_555
C5 N1 1_555 1_555
C6 C3 1_555 1_555
O1 C6 1_555 1_555
N2 C6 1_555 1_555
N3 N2 1_555 1_555
C7 N3 1_555 1_555
C8 C7 1_555 1_555
C9 C8 1_555 1_555
Cl1 C9 1_555 1_555
C10 C9 1_555 1_555
C11 C10 1_555 1_555
C12 C11 1_555 1_555
C13 C8 1_555 1_555
H1 C1 1_555 1_555
H2 C2 1_555 1_555
H3 C4 1_555 1_555
H4 C5 1_555 1_555
H5 N2 1_555 1_555
H6 C7 1_555 1_555
H7 C10 1_555 1_555
H8 C11 1_555 1_555
H9 C12 1_555 1_555
H10 C13 1_555 1_555
C12 C13 1_555 1_555

#END
