
#######################################################################
#
#                 Cambridge Crystallographic Data Centre
#                                CCDC 
#
#######################################################################
#
# If this CIF has been generated from an entry in the Cambridge 
# Structural Database, then it will include bibliographic, chemical, 
# crystal, experimental, refinement or atomic coordinate data resulting 
# from the CCDC's data processing and validation procedures.
#
#######################################################################

data_YIQFIO
_chemical_formula_moiety         'C14 H13 N3 O2'
_chemical_name_systematic        
'(E)-N-isonicotinoyl 3-methoxybenzaldehydehydrazone'
_symmetry_cell_setting           monoclinic
_symmetry_space_group_name_H-M   'P 21/n'
_symmetry_Int_Tables_number      14
_space_group_name_Hall           '-P 2yn'
loop_
_symmetry_equiv_pos_site_id
_symmetry_equiv_pos_as_xyz
1 x,y,z
2 1/2-x,1/2+y,1/2-z
3 -x,-y,-z
4 1/2+x,1/2-y,1/2+z
_cell_length_a                   8.2938(4)
_cell_length_b                   11.0771(6)
_cell_length_c                   13.846(5)
_cell_angle_alpha                90
_cell_angle_beta                 103.478(3)
_cell_angle_gamma                90
_cell_volume                     1237.02
_exptl_crystal_colour            colorless
_exptl_crystal_description       plate
_chemical_melting_point          '462-463 K'
_cell_formula_units_Z            4
_exptl_crystal_recrystallization_method ethanol
loop_
_atom_site_label
_atom_site_type_symbol
_atom_site_fract_x
_atom_site_fract_y
_atom_site_fract_z
N1 N 0.3443(2) 0.01173(16) 0.21674(11)
C1 C 0.2510(2) 0.11174(19) 0.21241(14)
C2 C 0.2721(2) 0.19592(18) 0.28839(13)
C3 C 0.3938(2) 0.17631(17) 0.37461(13)
C4 C 0.4922(2) 0.07418(19) 0.37889(14)
C5 C 0.4640(2) -0.00431(19) 0.29901(14)
C6 C 0.4226(2) 0.25532(19) 0.46606(13)
O1 O 0.51981(18) 0.22403(13) 0.54261(10)
N2 N 0.3325(2) 0.35815(15) 0.45832(11)
N3 N 0.3498(2) 0.43143(15) 0.54134(11)
C7 C 0.2485(2) 0.51952(18) 0.53219(14)
C8 C 0.2499(2) 0.60431(18) 0.61353(13)
C9 C 0.3668(2) 0.59741(18) 0.70439(14)
C10 C 0.3612(2) 0.68102(19) 0.77832(14)
O2 O 0.46807(18) 0.68502(15) 0.86998(10)
C11 C 0.5981(3) 0.6000(2) 0.89170(16)
C12 C 0.2401(3) 0.77063(19) 0.76175(15)
C13 C 0.1266(3) 0.7769(2) 0.67251(15)
C14 C 0.1297(3) 0.69469(19) 0.59773(15)
H1 H 0.1662 0.1254 0.1542
H2 H 0.2043 0.2660 0.2816
H3 H 0.5781 0.0584 0.4361
H4 H 0.5333 -0.0733 0.3028
H5 H 0.2644 0.3781 0.4018
H6 H 0.1699 0.5305 0.4709
H7 H 0.4493 0.5361 0.7154
H8 H 0.5520 0.5191 0.8953
H9 H 0.6729 0.6199 0.9556
H10 H 0.6598 0.6018 0.8393
H11 H 0.2361 0.8275 0.8125
H12 H 0.0447 0.8386 0.6618
H13 H 0.0505 0.6998 0.5361
loop_
_geom_bond_atom_site_label_1
_geom_bond_atom_site_label_2
_geom_bond_site_symmetry_1
_geom_bond_site_symmetry_2
N1 C1 1_555 1_555
C1 C2 1_555 1_555
C2 C3 1_555 1_555
C3 C4 1_555 1_555
C4 C5 1_555 1_555
C5 N1 1_555 1_555
C6 C3 1_555 1_555
O1 C6 1_555 1_555
N2 C6 1_555 1_555
N3 N2 1_555 1_555
C7 N3 1_555 1_555
C8 C7 1_555 1_555
C9 C8 1_555 1_555
C10 C9 1_555 1_555
O2 C10 1_555 1_555
C11 O2 1_555 1_555
C12 C10 1_555 1_555
C13 C12 1_555 1_555
C14 C8 1_555 1_555
H1 C1 1_555 1_555
H2 C2 1_555 1_555
H3 C4 1_555 1_555
H4 C5 1_555 1_555
H5 N2 1_555 1_555
H6 C7 1_555 1_555
H7 C9 1_555 1_555
H8 C11 1_555 1_555
H9 C11 1_555 1_555
H10 C11 1_555 1_555
H11 C12 1_555 1_555
H12 C13 1_555 1_555
H13 C14 1_555 1_555
C13 C14 1_555 1_555

#END
