
#######################################################################
#
#                 Cambridge Crystallographic Data Centre
#                                CCDC 
#
#######################################################################
#
# If this CIF has been generated from an entry in the Cambridge 
# Structural Database, then it will include bibliographic, chemical, 
# crystal, experimental, refinement or atomic coordinate data resulting 
# from the CCDC's data processing and validation procedures.
#
#######################################################################

data_YIQFEK
_chemical_formula_moiety         'C13 H10 Br1 N3 O1,H2 O1'
_chemical_name_systematic        
'(E)-N-isonicotinoyl 4-bromobenzaldehydehydrazone monohydrate'
_symmetry_cell_setting           monoclinic
_symmetry_space_group_name_H-M   'P 21/c'
_symmetry_Int_Tables_number      14
_space_group_name_Hall           '-P 2ybc'
loop_
_symmetry_equiv_pos_site_id
_symmetry_equiv_pos_as_xyz
1 x,y,z
2 -x,1/2+y,1/2-z
3 -x,-y,-z
4 x,1/2-y,1/2+z
_cell_length_a                   14.2570(3)
_cell_length_b                   14.6299(4)
_cell_length_c                   14.1669(4)
_cell_angle_alpha                90
_cell_angle_beta                 119.152(2)
_cell_angle_gamma                90
_cell_volume                     2580.61
_exptl_crystal_colour            colorless
_exptl_crystal_description       block
_chemical_melting_point          '469-470 K'
_cell_formula_units_Z            8
_exptl_crystal_recrystallization_method acetone
loop_
_atom_site_label
_atom_site_type_symbol
_atom_site_fract_x
_atom_site_fract_y
_atom_site_fract_z
N1 N 0.5800(4) 0.0327(4) 0.7369(4)
C1 C 0.5383(5) 0.1105(4) 0.6845(5)
C2 C 0.5930(5) 0.1913(4) 0.6997(5)
C3 C 0.7025(4) 0.1925(4) 0.7756(5)
C4 C 0.7502(4) 0.1119(4) 0.8281(5)
C5 C 0.6865(5) 0.0347(4) 0.8089(5)
C6 C 0.7729(5) 0.2753(4) 0.8043(5)
O1 O 0.8715(3) 0.2673(3) 0.8431(4)
N2 N 0.7221(4) 0.3567(3) 0.7862(4)
N3 N 0.7829(4) 0.4360(3) 0.8169(4)
C7 C 0.7274(5) 0.5099(4) 0.7989(5)
C8 C 0.7799(5) 0.6002(4) 0.8265(5)
C9 C 0.7158(5) 0.6780(4) 0.8020(5)
C10 C 0.7600(5) 0.7643(4) 0.8269(5)
C11 C 0.8712(5) 0.7725(4) 0.8780(5)
Br1 Br 0.93391(5) 0.89108(4) 0.91670(6)
C12 C 0.9369(5) 0.6969(4) 0.9046(5)
C13 C 0.8930(5) 0.6114(4) 0.8797(6)
H1 H 0.4643 0.1102 0.6320
H2 H 0.5577 0.2446 0.6600
H3 H 0.8253 0.1094 0.8766
H4 H 0.7194 -0.0194 0.8482
H5 H 0.6517 0.3593 0.7555
H6 H 0.6515 0.5061 0.7673
H7 H 0.6400 0.6714 0.7675
H8 H 0.7155 0.8169 0.8095
H9 H 1.0127 0.7042 0.9401
H10 H 0.9383 0.5593 0.8982
O2 O 0.5001(4) 0.4045(3) 0.6585(4)
H11 H 0.4385 0.3898 0.5856
H12 H 0.4670 0.4321 0.6999
N4 N 0.1127(5) 0.0114(4) 0.3484(5)
C14 C 0.0596(5) 0.0851(4) 0.3548(5)
C15 C 0.1056(5) 0.1708(4) 0.3845(5)
C16 C 0.2117(5) 0.1819(4) 0.4092(5)
C17 C 0.2665(5) 0.1062(5) 0.4041(6)
C18 C 0.2147(6) 0.0241(5) 0.3723(5)
C19 C 0.2712(5) 0.2711(4) 0.4455(5)
O3 O 0.3693(3) 0.2717(3) 0.5027(4)
N5 N 0.2100(4) 0.3471(4) 0.4120(4)
N6 N 0.2627(4) 0.4296(4) 0.4440(4)
C20 C 0.2064(5) 0.5023(4) 0.4067(5)
C21 C 0.2604(5) 0.5919(4) 0.4393(5)
C22 C 0.1989(5) 0.6725(4) 0.4157(5)
C23 C 0.2491(5) 0.7565(5) 0.4539(5)
C24 C 0.3603(5) 0.7598(4) 0.5122(5)
Br2 Br 0.43156(5) 0.87230(4) 0.56999(6)
C25 C 0.4226(5) 0.6818(5) 0.5320(5)
C26 C 0.3720(5) 0.5987(4) 0.4955(5)
H13 H -0.0131 0.0778 0.3381
H14 H 0.0653 0.2212 0.3879
H15 H 0.3399 0.1110 0.4227
H16 H 0.2533 -0.0266 0.3667
H17 H 0.1398 0.3440 0.3716
H18 H 0.1313 0.4987 0.3589
H19 H 0.1229 0.6695 0.3736
H20 H 0.2079 0.8108 0.4402
H21 H 0.4988 0.6856 0.5699
H22 H 0.4141 0.5450 0.5090
O4 O -0.0157(4) 0.3575(4) 0.2779(4)
H23 H -0.0291 0.4180 0.2408
H24 H -0.0785 0.3472 0.2898
loop_
_geom_bond_atom_site_label_1
_geom_bond_atom_site_label_2
_geom_bond_site_symmetry_1
_geom_bond_site_symmetry_2
N1 C1 1_555 1_555
C1 C2 1_555 1_555
C2 C3 1_555 1_555
C3 C4 1_555 1_555
C4 C5 1_555 1_555
C5 N1 1_555 1_555
C6 C3 1_555 1_555
O1 C6 1_555 1_555
N2 C6 1_555 1_555
N3 N2 1_555 1_555
C7 N3 1_555 1_555
C8 C7 1_555 1_555
C9 C8 1_555 1_555
C10 C9 1_555 1_555
C11 C10 1_555 1_555
Br1 C11 1_555 1_555
C12 C11 1_555 1_555
C13 C8 1_555 1_555
O2 H11 1_555 1_555
N4 C14 1_555 1_555
C14 C15 1_555 1_555
C15 C16 1_555 1_555
C16 C17 1_555 1_555
C17 C18 1_555 1_555
C18 N4 1_555 1_555
C19 C16 1_555 1_555
O3 C19 1_555 1_555
N5 C19 1_555 1_555
N6 N5 1_555 1_555
C20 N6 1_555 1_555
C21 C20 1_555 1_555
C22 C21 1_555 1_555
C23 C22 1_555 1_555
C24 C23 1_555 1_555
Br2 C24 1_555 1_555
C25 C24 1_555 1_555
C26 C21 1_555 1_555
O4 H23 1_555 1_555
H1 C1 1_555 1_555
H2 C2 1_555 1_555
H3 C4 1_555 1_555
H4 C5 1_555 1_555
H5 N2 1_555 1_555
H6 C7 1_555 1_555
H7 C9 1_555 1_555
H8 C10 1_555 1_555
H9 C12 1_555 1_555
H10 C13 1_555 1_555
H12 O2 1_555 1_555
H13 C14 1_555 1_555
H14 C15 1_555 1_555
H15 C17 1_555 1_555
H16 C18 1_555 1_555
H17 N5 1_555 1_555
H18 C20 1_555 1_555
H19 C22 1_555 1_555
H20 C23 1_555 1_555
H21 C25 1_555 1_555
H22 C26 1_555 1_555
H24 O4 1_555 1_555
C12 C13 1_555 1_555
C25 C26 1_555 1_555

#END
