
#######################################################################
#
#                 Cambridge Crystallographic Data Centre
#                                CCDC 
#
#######################################################################
#
# If this CIF has been generated from an entry in the Cambridge 
# Structural Database, then it will include bibliographic, chemical, 
# crystal, experimental, refinement or atomic coordinate data resulting 
# from the CCDC's data processing and validation procedures.
#
#######################################################################

data_YIQFUA
_chemical_formula_moiety         'C15 H15 N3 O2'
_chemical_name_systematic        'N-isonicotinoyl 3-ethoxybenzaldehydehydrazone'
_symmetry_cell_setting           monoclinic
_symmetry_space_group_name_H-M   'P 21/c'
_symmetry_Int_Tables_number      14
_space_group_name_Hall           '-P 2ybc'
loop_
_symmetry_equiv_pos_site_id
_symmetry_equiv_pos_as_xyz
1 x,y,z
2 -x,1/2+y,1/2-z
3 -x,-y,-z
4 x,1/2-y,1/2+z
_cell_length_a                   24.2060(17)
_cell_length_b                   5.5637(4)
_cell_length_c                   9.9571(4)
_cell_angle_alpha                90
_cell_angle_beta                 94.965(4)
_cell_angle_gamma                90
_cell_volume                     1335.94
_exptl_crystal_colour            colorless
_exptl_crystal_description       block
_chemical_melting_point          '421-422 K'
_cell_formula_units_Z            4
_exptl_crystal_recrystallization_method chloroform/2-propanol
loop_
_atom_site_label
_atom_site_type_symbol
_atom_site_fract_x
_atom_site_fract_y
_atom_site_fract_z
N1 N 0.46930(10) 1.2555(4) 0.5871(2)
C1 C 0.46048(11) 1.0481(5) 0.6480(2)
C2 C 0.41829(11) 0.8892(5) 0.6054(2)
C3 C 0.38363(10) 0.9450(5) 0.4911(2)
C4 C 0.39299(11) 1.1596(5) 0.4255(3)
C5 C 0.43558(12) 1.3083(5) 0.4780(3)
C6 C 0.33847(11) 0.7834(5) 0.4321(2)
O1 O 0.32397(8) 0.7854(4) 0.31090(17)
N2 N 0.31707(9) 0.6371(4) 0.5221(2)
N3 N 0.27501(9) 0.4788(4) 0.4795(2)
C7 C 0.26185(11) 0.3332(5) 0.5710(3)
C8 C 0.21697(11) 0.1589(5) 0.5475(2)
C9 C 0.17571(11) 0.1870(5) 0.4406(2)
C10 C 0.13304(10) 0.0221(5) 0.4250(2)
O2 O 0.08936(7) 0.0337(3) 0.32784(17)
C11 C 0.08654(11) 0.2364(5) 0.2386(3)
C12 C 0.03418(12) 0.2120(6) 0.1465(3)
C13 C 0.13114(12) -0.1719(5) 0.5139(3)
C14 C 0.17197(12) -0.1971(5) 0.6185(3)
C15 C 0.21436(11) -0.0312(5) 0.6377(2)
H1 H 0.4844 1.0061 0.7250
H2 H 0.4132 0.7448 0.6537
H3 H 0.3707 1.2038 0.3462
H4 H 0.4410 1.4564 0.4336
H5 H 0.3298 0.6421 0.6076
H6 H 0.2820 0.3387 0.6572
H7 H 0.1771 0.3180 0.3798
H8 H 0.1193 0.2391 0.1854
H9 H 0.0859 0.3877 0.2908
H10 H 0.0344 0.0576 0.0992
H11 H 0.0321 0.3432 0.0806
H12 H 0.0020 0.2193 0.1998
H13 H 0.1019 -0.2857 0.5023
H14 H 0.1709 -0.3303 0.6779
H15 H 0.2415 -0.0467 0.7120
loop_
_geom_bond_atom_site_label_1
_geom_bond_atom_site_label_2
_geom_bond_site_symmetry_1
_geom_bond_site_symmetry_2
N1 C1 1_555 1_555
C1 C2 1_555 1_555
C2 C3 1_555 1_555
C3 C4 1_555 1_555
C4 C5 1_555 1_555
C5 N1 1_555 1_555
C6 C3 1_555 1_555
O1 C6 1_555 1_555
N2 C6 1_555 1_555
N3 N2 1_555 1_555
C7 N3 1_555 1_555
C8 C7 1_555 1_555
C9 C8 1_555 1_555
C10 C9 1_555 1_555
O2 C10 1_555 1_555
C11 O2 1_555 1_555
C12 C11 1_555 1_555
C13 C10 1_555 1_555
C14 C13 1_555 1_555
C15 C8 1_555 1_555
H1 C1 1_555 1_555
H2 C2 1_555 1_555
H3 C4 1_555 1_555
H4 C5 1_555 1_555
H5 N2 1_555 1_555
H6 C7 1_555 1_555
H7 C9 1_555 1_555
H8 C11 1_555 1_555
H9 C11 1_555 1_555
H10 C12 1_555 1_555
H11 C12 1_555 1_555
H12 C12 1_555 1_555
H13 C13 1_555 1_555
H14 C14 1_555 1_555
H15 C15 1_555 1_555
C14 C15 1_555 1_555

#END
