
#######################################################################
#
#                 Cambridge Crystallographic Data Centre
#                                CCDC 
#
#######################################################################
#
# If this CIF has been generated from an entry in the Cambridge 
# Structural Database, then it will include bibliographic, chemical, 
# crystal, experimental, refinement or atomic coordinate data resulting 
# from the CCDC's data processing and validation procedures.
#
#######################################################################

data_YIQGIR
_chemical_formula_moiety         'C10 H12 O2'
_chemical_name_systematic        2-methyl-3,4-dihydro-2H-1-benzopyran-4-ol
_symmetry_cell_setting           monoclinic
_symmetry_space_group_name_H-M   'P 21'
_symmetry_Int_Tables_number      4
_space_group_name_Hall           'P 2yb'
loop_
_symmetry_equiv_pos_site_id
_symmetry_equiv_pos_as_xyz
1 x,y,z
2 -x,1/2+y,-z
_cell_length_a                   11.506(10)
_cell_length_b                   4.840(8)
_cell_length_c                   16.85(2)
_cell_angle_alpha                90
_cell_angle_beta                 103.13(7)
_cell_angle_gamma                90
_cell_volume                     913.829
_exptl_crystal_colour            colorless
_exptl_crystal_description       block
_cell_formula_units_Z            4
loop_
_atom_site_label
_atom_site_type_symbol
_atom_site_fract_x
_atom_site_fract_y
_atom_site_fract_z
O1 O 0.8080(3) 0.1256(9) 0.4831(2)
H1 H 0.471(6) -0.035(15) 0.277(4)
C1 C 0.8125(4) 0.2393(11) 0.4097(4)
O2 O 0.5166(4) 0.1111(9) 0.2881(3)
C2 C 0.9105(5) 0.4074(14) 0.4095(5)
H2 H 0.969513 0.428280 0.456975
C3 C 0.7373(6) 0.3355(13) 0.2705(4)
H3 H 0.679232 0.313916 0.222519
C4 C 0.8353(8) 0.5062(16) 0.2706(6)
H4 H 0.842548 0.596302 0.223237
C5 C 0.9207(7) 0.5394(17) 0.3414(6)
H5 H 0.985818 0.653988 0.342242
C6 C 0.7248(4) 0.1972(9) 0.3403(3)
C7 C 0.6214(4) 0.0118(10) 0.3422(3)
H6 H 0.639240 -0.171730 0.323485
C8 C 0.6061(4) -0.0148(12) 0.4270(3)
H7 H 0.547340 -0.156527 0.429190
H8 H 0.577099 0.158512 0.444038
C9 C 0.7217(4) -0.0886(13) 0.4837(3)
H9 H 0.751233 -0.259912 0.464314
C10 C 0.7149(6) -0.129(2) 0.5701(4)
H10 H 0.668874 -0.291106 0.574466
H11 H 0.677482 0.029312 0.588199
H12 H 0.793948 -0.149897 0.603495
O3 O 0.4039(3) 0.6132(8) 0.2540(2)
O4 O 0.2079(3) 0.7837(7) 0.0233(2)
H13 H 0.449(6) 0.467(16) 0.264(4)
C11 C 0.1685(4) 0.8541(10) 0.0909(3)
C12 C 0.0736(4) 1.0381(11) 0.0794(4)
H14 H 0.039058 1.100755 0.027187
C13 C 0.0300(5) 1.1287(14) 0.1443(4)
H15 H -0.033565 1.252122 0.136014
C14 C 0.0800(5) 1.0377(12) 0.2200(4)
H16 H 0.051349 1.099314 0.264280
C15 C 0.1742(5) 0.8519(11) 0.2318(3)
H17 H 0.207376 0.789956 0.284281
C16 C 0.2207(4) 0.7555(9) 0.1679(3)
C17 C 0.3208(4) 0.5519(10) 0.1796(3)
H18 H 0.288653 0.366178 0.183427
C18 C 0.3788(4) 0.5604(13) 0.1089(3)
H19 H 0.433378 0.405813 0.112139
H20 H 0.424538 0.729646 0.110758
C19 C 0.2862(5) 0.5468(12) 0.0295(3)
H21 H 0.238658 0.378666 0.029346
C20 C 0.3349(6) 0.5491(19) -0.0454(4)
H22 H 0.270105 0.549583 -0.092774
H23 H 0.383091 0.387675 -0.046133
H24 H 0.382685 0.711592 -0.045554
loop_
_geom_bond_atom_site_label_1
_geom_bond_atom_site_label_2
_geom_bond_site_symmetry_1
_geom_bond_site_symmetry_2
O1 C1 1_555 1_555
H1 O2 1_555 1_555
C1 C2 1_555 1_555
O2 C7 1_555 1_555
C2 H2 1_555 1_555
C3 H3 1_555 1_555
C4 C3 1_555 1_555
H4 C4 1_555 1_555
C5 C2 1_555 1_555
H5 C5 1_555 1_555
C6 C1 1_555 1_555
C7 C6 1_555 1_555
H6 C7 1_555 1_555
C8 C7 1_555 1_555
H7 C8 1_555 1_555
H8 C8 1_555 1_555
C9 O1 1_555 1_555
H9 C9 1_555 1_555
C10 C9 1_555 1_555
H10 C10 1_555 1_555
H11 C10 1_555 1_555
H12 C10 1_555 1_555
O3 H13 1_555 1_555
O4 C11 1_555 1_555
C11 C12 1_555 1_555
C12 H14 1_555 1_555
C13 C12 1_555 1_555
H15 C13 1_555 1_555
C14 C13 1_555 1_555
H16 C14 1_555 1_555
C15 C14 1_555 1_555
H17 C15 1_555 1_555
C16 C11 1_555 1_555
C17 O3 1_555 1_555
H18 C17 1_555 1_555
C18 C17 1_555 1_555
H19 C18 1_555 1_555
H20 C18 1_555 1_555
C19 O4 1_555 1_555
H21 C19 1_555 1_555
C20 C19 1_555 1_555
H22 C20 1_555 1_555
H23 C20 1_555 1_555
H24 C20 1_555 1_555
C3 C6 1_555 1_555
C4 C5 1_555 1_555
C8 C9 1_555 1_555
C15 C16 1_555 1_555
C16 C17 1_555 1_555
C18 C19 1_555 1_555

#END
