
#######################################################################
#
#                 Cambridge Crystallographic Data Centre
#                                CCDC 
#
#######################################################################
#
# If this CIF has been generated from an entry in the Cambridge 
# Structural Database, then it will include bibliographic, chemical, 
# crystal, experimental, refinement or atomic coordinate data resulting 
# from the CCDC's data processing and validation procedures.
#
#######################################################################

data_YIQKAN
_chemical_formula_moiety         'C117 H96,3(C5 H12)'
_chemical_name_systematic        
"1,1'-spiro-bi-(5,8,11,14-tetra-t-butyl-1H-tetrabenzo[ef,hi,kl,no]fluoreno[3,4,5,6-qrabc]coronene) n-pentane solvate"
_symmetry_cell_setting           monoclinic
_symmetry_space_group_name_H-M   'I 2/a'
_symmetry_Int_Tables_number      15
_space_group_name_Hall           '-I 2ya'
loop_
_symmetry_equiv_pos_site_id
_symmetry_equiv_pos_as_xyz
1 x,y,z
2 1/2-x,y,-z
3 1/2+x,1/2+y,1/2+z
4 -x,1/2+y,1/2-z
5 -x,-y,-z
6 1/2+x,-y,z
7 1/2-x,1/2-y,1/2-z
8 x,1/2-y,1/2+z
_cell_length_a                   20.9930(13)
_cell_length_b                   17.0469(8)
_cell_length_c                   30.788(2)
_cell_angle_alpha                90
_cell_angle_beta                 90.228(5)
_cell_angle_gamma                90
_cell_volume                     11017.9
_exptl_crystal_colour            brown
_exptl_crystal_description       needle
_cell_formula_units_Z            4
_exptl_crystal_recrystallization_method 
'Re-crystallisation from solvent: tetrahydrofuran/pentane'
loop_
_atom_site_label
_atom_site_type_symbol
_atom_site_fract_x
_atom_site_fract_y
_atom_site_fract_z
C1 C 0.250000 0.6907(9) 0.500000
C2 C 0.2851(5) 0.6401(6) 0.4672(4)
C3 C 0.3250(5) 0.5744(7) 0.4696(3)
H1 H 0.339351 0.555763 0.496980
C4 C 0.3438(5) 0.5358(7) 0.4310(4)
H2 H 0.371923 0.492357 0.433395
C5 C 0.3224(5) 0.5590(6) 0.3880(4)
C6 C 0.3369(5) 0.5188(6) 0.3477(3)
C7 C 0.3781(6) 0.4555(6) 0.3461(4)
H3 H 0.398689 0.438414 0.371969
C8 C 0.3902(5) 0.4159(7) 0.3068(4)
C9 C 0.3597(5) 0.4420(6) 0.2698(4)
H4 H 0.366769 0.414348 0.243515
C10 C 0.3192(5) 0.5069(7) 0.2688(3)
C11 C 0.2876(5) 0.5320(6) 0.2291(3)
C12 C 0.2958(5) 0.4937(7) 0.1898(3)
H5 H 0.324820 0.451045 0.188942
C13 C 0.2635(5) 0.5142(6) 0.1507(3)
C14 C 0.2236(5) 0.5788(6) 0.1524(3)
H6 H 0.203630 0.596796 0.126558
C15 C 0.2121(4) 0.6184(6) 0.1916(3)
C16 C 0.1641(5) 0.6825(6) 0.1935(3)
C17 C 0.1268(5) 0.7020(6) 0.1570(4)
H7 H 0.135065 0.675853 0.130395
C18 C 0.0773(5) 0.7589(6) 0.1579(4)
C19 C 0.0687(5) 0.7966(7) 0.1985(3)
H8 H 0.036651 0.835729 0.200484
C20 C 0.1038(5) 0.7804(6) 0.2353(3)
C21 C 0.0900(5) 0.8174(6) 0.2765(3)
C22 C 0.0415(5) 0.8752(6) 0.2798(4)
H9 H 0.021164 0.893112 0.254027
C23 C 0.0229(5) 0.9066(6) 0.3196(4)
C24 C 0.0543(5) 0.8821(6) 0.3579(4)
H10 H 0.040813 0.901671 0.385205
C25 C 0.1058(5) 0.8286(7) 0.3558(3)
C26 C 0.1390(5) 0.8033(6) 0.3950(3)
C27 C 0.1267(6) 0.8253(7) 0.4393(4)
H11 H 0.094144 0.862978 0.444123
C28 C 0.1584(5) 0.7962(6) 0.4759(3)
H12 H 0.146850 0.813422 0.504177
C29 C 0.2071(5) 0.7416(6) 0.4706(3)
C30 C 0.2655(5) 0.6609(6) 0.4253(3)
C31 C 0.2811(5) 0.6236(6) 0.3868(3)
C32 C 0.2503(5) 0.6509(6) 0.3475(3)
C33 C 0.2637(5) 0.6132(6) 0.3075(3)
C34 C 0.2311(5) 0.6362(6) 0.2703(3)
C35 C 0.2431(5) 0.5964(6) 0.2296(3)
C36 C 0.1515(5) 0.7195(6) 0.2335(3)
C37 C 0.1850(4) 0.6973(6) 0.2710(3)
C38 C 0.1723(5) 0.7347(6) 0.3118(3)
C39 C 0.2051(5) 0.7130(6) 0.3498(3)
C40 C 0.1896(5) 0.7478(6) 0.3901(3)
C41 C 0.2197(5) 0.7211(6) 0.4269(3)
C42 C 0.3072(5) 0.5464(6) 0.3081(3)
C43 C 0.1238(5) 0.7943(6) 0.3145(3)
C44 C 0.4353(6) 0.3441(7) 0.3082(4)
C45 C 0.5038(6) 0.3726(8) 0.3211(4)
H13 H 0.535424 0.335103 0.310344
H14 H 0.507169 0.376235 0.352835
H15 H 0.511761 0.424272 0.308299
C46 C 0.4137(6) 0.2863(8) 0.3438(4)
H16 H 0.371719 0.265133 0.336206
H17 H 0.411160 0.313863 0.371677
H18 H 0.444492 0.243316 0.346086
C47 C 0.4349(6) 0.2992(7) 0.2643(4)
H19 H 0.451443 0.333386 0.241343
H20 H 0.391257 0.283420 0.257064
H21 H 0.461867 0.252408 0.266689
C48 C 0.2720(5) 0.4657(6) 0.1106(3)
C49 C 0.3447(6) 0.4503(8) 0.0993(4)
H22 H 0.365892 0.500444 0.093380
H23 H 0.347494 0.416587 0.073616
H24 H 0.365693 0.424519 0.123950
C50 C 0.2404(6) 0.3857(7) 0.1158(4)
H25 H 0.210823 0.387253 0.140398
H26 H 0.273069 0.345785 0.121245
H27 H 0.216875 0.372536 0.089244
C51 C 0.2439(7) 0.5051(8) 0.0702(4)
H28 H 0.254665 0.474167 0.044433
H29 H 0.261608 0.558042 0.067314
H30 H 0.197510 0.508341 0.073001
C52 C 0.0339(5) 0.7732(6) 0.1191(4)
C53 C 0.0115(6) 0.8587(7) 0.1175(4)
H31 H -0.016978 0.868902 0.142019
H32 H -0.011276 0.868206 0.090203
H33 H 0.048511 0.893620 0.119381
C54 C 0.0630(6) 0.7523(8) 0.0778(3)
H34 H 0.096584 0.790136 0.070836
H35 H 0.030541 0.752963 0.054836
H36 H 0.081504 0.699593 0.079896
C55 C -0.0270(5) 0.7245(7) 0.1254(4)
H37 H -0.016690 0.668539 0.123669
H38 H -0.057988 0.737892 0.102716
H39 H -0.045254 0.736079 0.153990
C56 C -0.0309(5) 0.9652(7) 0.3225(4)
C57 C -0.0517(6) 0.9867(9) 0.3685(4)
H40 H -0.084110 1.028024 0.367134
H41 H -0.014856 1.005519 0.385119
H42 H -0.069576 0.940277 0.382766
C58 C -0.0062(7) 1.0448(7) 0.2997(5)
H43 H 0.002304 1.034735 0.268930
H44 H 0.032954 1.062540 0.314048
H45 H -0.038998 1.085463 0.302283
C59 C -0.0889(6) 0.9386(8) 0.2959(5)
H46 H -0.077009 0.933721 0.265256
H47 H -0.123124 0.977365 0.298734
H48 H -0.103729 0.887697 0.306662
C2A C 0.2149(5) 0.6401(6) 0.5328(4)
C3A C 0.1750(5) 0.5744(7) 0.5304(3)
H1A H 0.160649 0.555763 0.503020
C4A C 0.1562(5) 0.5358(7) 0.5690(4)
H2A H 0.128077 0.492357 0.566605
C5A C 0.1776(5) 0.5590(6) 0.6120(4)
C6A C 0.1631(5) 0.5188(6) 0.6523(3)
C7A C 0.1219(6) 0.4555(6) 0.6539(4)
H3A H 0.101311 0.438414 0.628031
C8A C 0.1098(5) 0.4159(7) 0.6932(4)
C9A C 0.1403(5) 0.4420(6) 0.7302(4)
H4A H 0.133231 0.414348 0.756485
C10A C 0.1808(5) 0.5069(7) 0.7312(3)
C11A C 0.2124(5) 0.5320(6) 0.7709(3)
C12A C 0.2042(5) 0.4937(7) 0.8102(3)
H5A H 0.175180 0.451045 0.811058
C13A C 0.2365(5) 0.5142(6) 0.8493(3)
C14A C 0.2764(5) 0.5788(6) 0.8476(3)
H6A H 0.296370 0.596796 0.873442
C15A C 0.2879(4) 0.6184(6) 0.8084(3)
C16A C 0.3359(5) 0.6825(6) 0.8065(3)
C17A C 0.3732(5) 0.7020(6) 0.8430(4)
H7A H 0.364935 0.675853 0.869605
C18A C 0.4227(5) 0.7589(6) 0.8421(4)
C19A C 0.4313(5) 0.7966(7) 0.8015(3)
H8A H 0.463349 0.835729 0.799516
C20A C 0.3962(5) 0.7804(6) 0.7647(3)
C21A C 0.4100(5) 0.8174(6) 0.7235(3)
C22A C 0.4585(5) 0.8752(6) 0.7202(4)
H9A H 0.478836 0.893112 0.745973
C23A C 0.4771(5) 0.9066(6) 0.6804(4)
C24A C 0.4457(5) 0.8821(6) 0.6421(4)
H10A H 0.459187 0.901671 0.614795
C25A C 0.3942(5) 0.8286(7) 0.6442(3)
C26A C 0.3610(5) 0.8033(6) 0.6050(3)
C27A C 0.3733(6) 0.8253(7) 0.5607(4)
H11A H 0.405856 0.862978 0.555877
C28A C 0.3416(5) 0.7962(6) 0.5241(3)
H12A H 0.353150 0.813422 0.495823
C29A C 0.2929(5) 0.7416(6) 0.5294(3)
C30A C 0.2345(5) 0.6609(6) 0.5747(3)
C31A C 0.2189(5) 0.6236(6) 0.6132(3)
C32A C 0.2497(5) 0.6509(6) 0.6525(3)
C33A C 0.2363(5) 0.6132(6) 0.6925(3)
C34A C 0.2689(5) 0.6362(6) 0.7297(3)
C35A C 0.2569(5) 0.5964(6) 0.7704(3)
C36A C 0.3485(5) 0.7195(6) 0.7665(3)
C37A C 0.3150(4) 0.6973(6) 0.7290(3)
C38A C 0.3277(5) 0.7347(6) 0.6882(3)
C39A C 0.2949(5) 0.7130(6) 0.6502(3)
C40A C 0.3104(5) 0.7478(6) 0.6099(3)
C41A C 0.2803(5) 0.7211(6) 0.5731(3)
C42A C 0.1928(5) 0.5464(6) 0.6919(3)
C43A C 0.3762(5) 0.7943(6) 0.6855(3)
C44A C 0.0647(6) 0.3441(7) 0.6918(4)
C45A C -0.0038(6) 0.3726(8) 0.6789(4)
H13A H -0.035424 0.335103 0.689656
H14A H -0.007169 0.376235 0.647165
H15A H -0.011761 0.424272 0.691701
C46A C 0.0863(6) 0.2863(8) 0.6562(4)
H16A H 0.128281 0.265133 0.663794
H17A H 0.088840 0.313863 0.628323
H18A H 0.055508 0.243316 0.653914
C47A C 0.0651(6) 0.2992(7) 0.7357(4)
H19A H 0.048557 0.333386 0.758657
H20A H 0.108743 0.283420 0.742936
H21A H 0.038133 0.252408 0.733311
C48A C 0.2280(5) 0.4657(6) 0.8894(3)
C49A C 0.1553(6) 0.4503(8) 0.9007(4)
H22A H 0.134108 0.500444 0.906620
H23A H 0.152506 0.416587 0.926384
H24A H 0.134307 0.424519 0.876050
C50A C 0.2596(6) 0.3857(7) 0.8842(4)
H25A H 0.289177 0.387253 0.859602
H26A H 0.226931 0.345785 0.878755
H27A H 0.283125 0.372536 0.910756
C51A C 0.2561(7) 0.5051(8) 0.9298(4)
H28A H 0.245335 0.474167 0.955567
H29A H 0.238392 0.558042 0.932686
H30A H 0.302490 0.508341 0.926999
C52A C 0.4661(5) 0.7732(6) 0.8809(4)
C53A C 0.4885(6) 0.8587(7) 0.8825(4)
H31A H 0.516978 0.868902 0.857981
H32A H 0.511276 0.868206 0.909797
H33A H 0.451489 0.893620 0.880619
C54A C 0.4370(6) 0.7523(8) 0.9222(3)
H34A H 0.403416 0.790136 0.929164
H35A H 0.469459 0.752963 0.945164
H36A H 0.418496 0.699593 0.920104
C55A C 0.5270(5) 0.7245(7) 0.8746(4)
H37A H 0.516690 0.668539 0.876331
H38A H 0.557988 0.737892 0.897284
H39A H 0.545254 0.736079 0.846010
C56A C 0.5309(5) 0.9652(7) 0.6775(4)
C57A C 0.5517(6) 0.9867(9) 0.6315(4)
H40A H 0.584110 1.028024 0.632866
H41A H 0.514856 1.005519 0.614881
H42A H 0.569576 0.940277 0.617234
C58A C 0.5062(7) 1.0448(7) 0.7003(5)
H43A H 0.497696 1.034735 0.731070
H44A H 0.467046 1.062540 0.685952
H45A H 0.538998 1.085463 0.697717
C59A C 0.5889(6) 0.9386(8) 0.7041(5)
H46A H 0.577009 0.933721 0.734744
H47A H 0.623124 0.977365 0.701266
H48A H 0.603729 0.887697 0.693338
C60 C 0.1379(12) 0.237(3) 0.0163(19)
H49 H 0.097160 0.210451 0.021297
H50 H 0.149651 0.267407 0.042087
H51 H 0.133890 0.272123 -0.008745
C61 C 0.190(2) 0.175(3) 0.0071(19)
H52 H 0.195130 0.139117 0.032169
H53 H 0.179268 0.143863 -0.018992
C62 C 0.250000 0.222(5) 0.000000
H54 H 0.257521 0.256765 0.025402
C60A C 0.3621(12) 0.237(3) -0.0163(19)
H49A H 0.402840 0.210451 -0.021297
H50A H 0.350349 0.267407 -0.042087
H51A H 0.366110 0.272123 0.008745
C61A C 0.310(2) 0.175(3) -0.0071(19)
H52A H 0.304870 0.139117 -0.032169
H53A H 0.320732 0.143863 0.018992
H54A H 0.242479 0.256765 -0.025402
C63? C 0.1810(12) 0.3842(13) 0.3140(8)
H55? H 0.204298 0.426414 0.298765
H56? H 0.138375 0.381332 0.300154
C64? C 0.2137(12) 0.3102(13) 0.3024(7)
H57? H 0.188986 0.264685 0.313058
H58? H 0.256522 0.308615 0.316015
C65? C 0.220(2) 0.306(2) 0.2542(9)
H59? H 0.176819 0.304554 0.240590
H60? H 0.242563 0.352735 0.242785
C66? C 0.256(2) 0.2298(18) 0.2452(12)
H61? H 0.261326 0.223498 0.213786
H62? H 0.297546 0.231657 0.259398
H63? H 0.231342 0.185358 0.256575
C67? C 0.1706(11) 0.4119(12) 0.3563(7)
H64? H 0.213139 0.418913 0.369825
H65? H 0.149416 0.369004 0.372436
C68? C 0.1338(11) 0.4848(12) 0.3654(6)
H66? H 0.152661 0.529259 0.349210
H67? H 0.089249 0.478098 0.355469
C69? C 0.1351(11) 0.5019(13) 0.4126(7)
H68? H 0.179647 0.506546 0.422859
H69? H 0.114402 0.458663 0.428772
C70? C 0.1005(13) 0.5766(14) 0.4203(9)
H70? H 0.093623 0.604313 0.392419
H71? H 0.125999 0.610986 0.439573
C71? C 0.0376(13) 0.5591(18) 0.4410(12)
H72? H 0.043404 0.527303 0.467627
H73? H 0.009373 0.530401 0.420664
C72? C 0.010(2) 0.640(2) 0.4519(19)
H74? H -0.031814 0.633913 0.465763
H75? H 0.038722 0.667891 0.471848
H76? H 0.004918 0.670968 0.425198
C73? C 0.0352(13) 0.4962(15) 0.0052(12)
H77? H 0.063774 0.518826 -0.017082
H78? H 0.047304 0.513651 0.034768
C74? C 0.0247(14) 0.4105(17) 0.0010(11)
H79? H 0.014882 0.396619 -0.029561
H80? H -0.011400 0.393737 0.019402
C75? C 0.0865(18) 0.3704(18) 0.0158(14)
H81? H 0.081719 0.313390 0.013595
H82? H 0.121764 0.387602 -0.002664
H83? H 0.095608 0.384734 0.046063
loop_
_geom_bond_atom_site_label_1
_geom_bond_atom_site_label_2
_geom_bond_site_symmetry_1
_geom_bond_site_symmetry_2
C1 C2 1_555 1_555
C2 C3 1_555 1_555
C3 H1 1_555 1_555
C4 C3 1_555 1_555
H2 C4 1_555 1_555
C5 C4 1_555 1_555
C6 C5 1_555 1_555
C7 C6 1_555 1_555
H3 C7 1_555 1_555
C8 C7 1_555 1_555
C9 C8 1_555 1_555
H4 C9 1_555 1_555
C10 C9 1_555 1_555
C11 C10 1_555 1_555
C12 C11 1_555 1_555
H5 C12 1_555 1_555
C13 C12 1_555 1_555
C14 C13 1_555 1_555
H6 C14 1_555 1_555
C15 C14 1_555 1_555
C16 C15 1_555 1_555
C17 C16 1_555 1_555
H7 C17 1_555 1_555
C18 C17 1_555 1_555
C19 C18 1_555 1_555
H8 C19 1_555 1_555
C20 C19 1_555 1_555
C21 C20 1_555 1_555
C22 C21 1_555 1_555
H9 C22 1_555 1_555
C23 C22 1_555 1_555
C24 C23 1_555 1_555
H10 C24 1_555 1_555
C25 C24 1_555 1_555
C26 C25 1_555 1_555
C27 C26 1_555 1_555
H11 C27 1_555 1_555
C28 C27 1_555 1_555
H12 C28 1_555 1_555
C29 C1 1_555 1_555
C30 C2 1_555 1_555
C31 C5 1_555 1_555
C32 C31 1_555 1_555
C33 C32 1_555 1_555
C34 C33 1_555 1_555
C35 C11 1_555 1_555
C36 C16 1_555 1_555
C37 C34 1_555 1_555
C38 C37 1_555 1_555
C39 C32 1_555 1_555
C40 C26 1_555 1_555
C41 C29 1_555 1_555
C42 C6 1_555 1_555
C43 C21 1_555 1_555
C44 C8 1_555 1_555
C45 C44 1_555 1_555
H13 C45 1_555 1_555
H14 C45 1_555 1_555
H15 C45 1_555 1_555
C46 C44 1_555 1_555
H16 C46 1_555 1_555
H17 C46 1_555 1_555
H18 C46 1_555 1_555
C47 C44 1_555 1_555
H19 C47 1_555 1_555
H20 C47 1_555 1_555
H21 C47 1_555 1_555
C48 C13 1_555 1_555
C49 C48 1_555 1_555
H22 C49 1_555 1_555
H23 C49 1_555 1_555
H24 C49 1_555 1_555
C50 C48 1_555 1_555
H25 C50 1_555 1_555
H26 C50 1_555 1_555
H27 C50 1_555 1_555
C51 C48 1_555 1_555
H28 C51 1_555 1_555
H29 C51 1_555 1_555
H30 C51 1_555 1_555
C52 C18 1_555 1_555
C53 C52 1_555 1_555
H31 C53 1_555 1_555
H32 C53 1_555 1_555
H33 C53 1_555 1_555
C54 C52 1_555 1_555
H34 C54 1_555 1_555
H35 C54 1_555 1_555
H36 C54 1_555 1_555
C55 C52 1_555 1_555
H37 C55 1_555 1_555
H38 C55 1_555 1_555
H39 C55 1_555 1_555
C56 C23 1_555 1_555
C57 C56 1_555 1_555
H40 C57 1_555 1_555
H41 C57 1_555 1_555
H42 C57 1_555 1_555
C58 C56 1_555 1_555
H43 C58 1_555 1_555
H44 C58 1_555 1_555
H45 C58 1_555 1_555
C59 C56 1_555 1_555
H46 C59 1_555 1_555
H47 C59 1_555 1_555
H48 C59 1_555 1_555
C60 H49 1_555 1_555
H50 C60 1_555 1_555
H51 C60 1_555 1_555
C61 C60 1_555 1_555
H52 C61 1_555 1_555
H53 C61 1_555 1_555
C62 C61 1_555 1_555
H54 C62 1_555 1_555
C2A C1 1_555 1_555
C3A C2A 1_555 1_555
H1A C3A 1_555 1_555
C4A C3A 1_555 1_555
H2A C4A 1_555 1_555
C5A C4A 1_555 1_555
C6A C5A 1_555 1_555
C7A C6A 1_555 1_555
H3A C7A 1_555 1_555
C8A C7A 1_555 1_555
C9A C8A 1_555 1_555
H4A C9A 1_555 1_555
C10A C9A 1_555 1_555
C11A C10A 1_555 1_555
C12A C11A 1_555 1_555
H5A C12A 1_555 1_555
C13A C12A 1_555 1_555
C14A C13A 1_555 1_555
H6A C14A 1_555 1_555
C15A C14A 1_555 1_555
C16A C15A 1_555 1_555
C17A C16A 1_555 1_555
H7A C17A 1_555 1_555
C18A C17A 1_555 1_555
C19A C18A 1_555 1_555
H8A C19A 1_555 1_555
C20A C19A 1_555 1_555
C21A C20A 1_555 1_555
C22A C21A 1_555 1_555
H9A C22A 1_555 1_555
C23A C22A 1_555 1_555
C24A C23A 1_555 1_555
H10A C24A 1_555 1_555
C25A C24A 1_555 1_555
C26A C25A 1_555 1_555
C27A C26A 1_555 1_555
H11A C27A 1_555 1_555
C28A C27A 1_555 1_555
H12A C28A 1_555 1_555
C29A C1 1_555 1_555
C30A C2A 1_555 1_555
C31A C5A 1_555 1_555
C32A C31A 1_555 1_555
C33A C32A 1_555 1_555
C34A C33A 1_555 1_555
C35A C11A 1_555 1_555
C36A C16A 1_555 1_555
C37A C34A 1_555 1_555
C38A C37A 1_555 1_555
C39A C32A 1_555 1_555
C40A C26A 1_555 1_555
C41A C29A 1_555 1_555
C42A C6A 1_555 1_555
C43A C21A 1_555 1_555
C44A C8A 1_555 1_555
C45A C44A 1_555 1_555
H13A C45A 1_555 1_555
H14A C45A 1_555 1_555
H15A C45A 1_555 1_555
C46A C44A 1_555 1_555
H16A C46A 1_555 1_555
H17A C46A 1_555 1_555
H18A C46A 1_555 1_555
C47A C44A 1_555 1_555
H19A C47A 1_555 1_555
H20A C47A 1_555 1_555
H21A C47A 1_555 1_555
C48A C13A 1_555 1_555
C49A C48A 1_555 1_555
H22A C49A 1_555 1_555
H23A C49A 1_555 1_555
H24A C49A 1_555 1_555
C50A C48A 1_555 1_555
H25A C50A 1_555 1_555
H26A C50A 1_555 1_555
H27A C50A 1_555 1_555
C51A C48A 1_555 1_555
H28A C51A 1_555 1_555
H29A C51A 1_555 1_555
H30A C51A 1_555 1_555
C52A C18A 1_555 1_555
C53A C52A 1_555 1_555
H31A C53A 1_555 1_555
H32A C53A 1_555 1_555
H33A C53A 1_555 1_555
C54A C52A 1_555 1_555
H34A C54A 1_555 1_555
H35A C54A 1_555 1_555
H36A C54A 1_555 1_555
C55A C52A 1_555 1_555
H37A C55A 1_555 1_555
H38A C55A 1_555 1_555
H39A C55A 1_555 1_555
C56A C23A 1_555 1_555
C57A C56A 1_555 1_555
H40A C57A 1_555 1_555
H41A C57A 1_555 1_555
H42A C57A 1_555 1_555
C58A C56A 1_555 1_555
H43A C58A 1_555 1_555
H44A C58A 1_555 1_555
H45A C58A 1_555 1_555
C59A C56A 1_555 1_555
H46A C59A 1_555 1_555
H47A C59A 1_555 1_555
H48A C59A 1_555 1_555
C60A H49A 1_555 1_555
H50A C60A 1_555 1_555
H51A C60A 1_555 1_555
C61A C62 1_555 1_555
H52A C61A 1_555 1_555
H53A C61A 1_555 1_555
H54A C62 1_555 1_555
C10 C42 1_555 1_555
C15 C35 1_555 1_555
C20 C36 1_555 1_555
C25 C43 1_555 1_555
C28 C29 1_555 1_555
C30 C31 1_555 1_555
C30 C41 1_555 1_555
C33 C42 1_555 1_555
C34 C35 1_555 1_555
C36 C37 1_555 1_555
C38 C39 1_555 1_555
C38 C43 1_555 1_555
C39 C40 1_555 1_555
C40 C41 1_555 1_555
C10A C42A 1_555 1_555
C15A C35A 1_555 1_555
C20A C36A 1_555 1_555
C25A C43A 1_555 1_555
C28A C29A 1_555 1_555
C30A C31A 1_555 1_555
C30A C41A 1_555 1_555
C33A C42A 1_555 1_555
C34A C35A 1_555 1_555
C36A C37A 1_555 1_555
C38A C39A 1_555 1_555
C38A C43A 1_555 1_555
C39A C40A 1_555 1_555
C40A C41A 1_555 1_555
C60A C61A 1_555 1_555

#END
