
#######################################################################
#
#                 Cambridge Crystallographic Data Centre
#                                CCDC 
#
#######################################################################
#
# If this CIF has been generated from an entry in the Cambridge 
# Structural Database, then it will include bibliographic, chemical, 
# crystal, experimental, refinement or atomic coordinate data resulting 
# from the CCDC's data processing and validation procedures.
#
#######################################################################

data_YIQLAN
_chemical_formula_moiety         'C68 H46 B2 N6 O2,2(C7 H8)'
_chemical_name_systematic        
"9c,9c'-bis(Benzyloxy)-3,3',9,9'-tetraphenyl-9cH,9c'H-6,6'-bi-8b\l^5^,9b,9d-triaza-9\L^5^-boratricyclopenta[cd,gh,kl]phenalene toluene solvate"
_symmetry_cell_setting           triclinic
_symmetry_space_group_name_H-M   'P -1'
_symmetry_Int_Tables_number      2
_space_group_name_Hall           '-P 1'
loop_
_symmetry_equiv_pos_site_id
_symmetry_equiv_pos_as_xyz
1 x,y,z
2 -x,-y,-z
_cell_length_a                   12.1018(3)
_cell_length_b                   15.8455(3)
_cell_length_c                   17.9185(4)
_cell_angle_alpha                103.4753(13)
_cell_angle_beta                 104.6738(13)
_cell_angle_gamma                103.5719(13)
_cell_volume                     3070.9
_exptl_crystal_colour            red
_exptl_crystal_description       prism
_cell_formula_units_Z            2
loop_
_atom_site_label
_atom_site_type_symbol
_atom_site_fract_x
_atom_site_fract_y
_atom_site_fract_z
C1 C 0.3612(5) 0.9398(3) 0.1058(3)
C2 C 0.3419(5) 0.8575(3) 0.0425(3)
H1 H 0.3138 0.8486 -0.0142
C3 C 0.3711(5) 0.7942(3) 0.0782(3)
H2 H 0.3659 0.7337 0.0504
C4 C 0.4111(5) 0.8354(3) 0.1650(3)
C5 C 0.4261(5) 0.8005(3) 0.2316(3)
C6 C 0.4186(5) 0.8524(3) 0.3053(3)
C7 C 0.3987(5) 0.8340(4) 0.3754(3)
H3 H 0.3991 0.7793 0.3886
C8 C 0.3787(5) 0.9082(3) 0.4217(3)
H4 H 0.3642 0.9138 0.4720
C9 C 0.3838(5) 0.9751(3) 0.3797(3)
C10 C 0.3512(5) 1.0563(3) 0.3845(3)
C11 C 0.3357(5) 1.0890(3) 0.3169(3)
C12 C 0.2655(5) 1.1439(3) 0.2874(3)
H5 H 0.2314 1.1814 0.3181
C13 C 0.2566(5) 1.1328(3) 0.2079(3)
H6 H 0.2156 1.1615 0.1739
C14 C 0.3198(5) 1.0704(3) 0.1844(3)
C15 C 0.3228(5) 1.0184(3) 0.1095(3)
C16 C 0.3228(5) 1.1021(4) 0.4564(3)
C17 C 0.2572(6) 1.0551(4) 0.4950(4)
H7 H 0.2238 0.9905 0.4735
C18 C 0.2390(7) 1.1010(5) 0.5650(4)
H8 H 0.1931 1.0681 0.5909
C19 C 0.2886(7) 1.1947(6) 0.5963(4)
H9 H 0.2777 1.2260 0.6447
C20 C 0.3528(6) 1.2433(5) 0.5592(4)
H10 H 0.3842 1.3080 0.5810
C21 C 0.3723(5) 1.1986(4) 0.4899(4)
H11 H 0.4186 1.2323 0.4647
C22 C 0.2767(5) 1.0389(3) 0.0319(3)
C23 C 0.1636(5) 1.0519(3) 0.0089(3)
H12 H 0.1134 1.0465 0.0418
C24 C 0.1263(5) 1.0726(3) -0.0627(4)
H13 H 0.0506 1.0827 -0.0781
C25 C 0.1963(5) 1.0789(3) -0.1116(4)
H14 H 0.1693 1.0933 -0.1603
C26 C 0.3070(5) 1.0642(4) -0.0899(4)
H15 H 0.3555 1.0677 -0.1240
C27 C 0.3461(5) 1.0444(3) -0.0186(3)
H16 H 0.4220 1.0344 -0.0039
C28 C 0.6454(6) 1.0878(4) 0.3623(4)
H17 H 0.6216 1.0519 0.3972
H18 H 0.6268 1.1459 0.3773
C29 C 0.7796(3) 1.1085(3) 0.3770(3)
C30 C 0.8589(5) 1.1635(3) 0.4532(3)
H19 H 0.8289 1.1893 0.4942
C31 C 0.9820(4) 1.1808(3) 0.4694(3)
H20 H 1.0362 1.2184 0.5214
C32 C 1.0259(3) 1.1431(4) 0.4094(4)
H21 H 1.1101 1.1549 0.4205
C33 C 0.9466(5) 1.0881(3) 0.3333(3)
H22 H 0.9766 1.0623 0.2923
C34 C 0.8235(4) 1.0707(3) 0.3171(2)
H23 H 0.7693 1.0331 0.2650
N1 N 0.4102(4) 0.9247(3) 0.1772(3)
N2 N 0.4169(4) 0.9405(3) 0.3129(3)
N3 N 0.3722(4) 1.0513(3) 0.2538(3)
O1 O 0.5801(3) 1.0397(2) 0.2822(2)
C35 C 0.2647(5) 0.4880(3) 0.2147(3)
C36 C 0.1786(5) 0.5350(3) 0.2245(3)
H24 H 0.0987 0.5078 0.2225
C37 C 0.2318(5) 0.6255(4) 0.2371(3)
H25 H 0.1948 0.6720 0.2451
C38 C 0.3538(5) 0.6389(3) 0.2361(3)
C39 C 0.4381(5) 0.7080(3) 0.2230(3)
C40 C 0.5271(5) 0.6850(3) 0.1918(3)
C41 C 0.6070(5) 0.7270(4) 0.1548(3)
H26 H 0.6218 0.7877 0.1525
C42 C 0.6590(5) 0.6652(3) 0.1234(3)
H27 H 0.7164 0.6759 0.0963
C43 C 0.6108(5) 0.5810(3) 0.1388(3)
C44 C 0.6083(5) 0.4890(3) 0.1114(3)
C45 C 0.5189(5) 0.4194(3) 0.1197(3)
C46 C 0.4637(5) 0.3245(3) 0.0779(3)
H28 H 0.4930 0.2869 0.0434
C47 C 0.3589(5) 0.2967(3) 0.0964(3)
H29 H 0.3045 0.2363 0.0766
C48 C 0.3458(5) 0.3741(3) 0.1505(3)
C49 C 0.2539(5) 0.3944(3) 0.1793(3)
N4 N 0.3708(4) 0.5551(3) 0.2286(2)
N5 N 0.5386(4) 0.5999(2) 0.1849(3)
N6 N 0.4502(4) 0.4445(3) 0.1657(2)
C50 C 0.6952(5) 0.4639(3) 0.0723(3)
C51 C 0.7164(5) 0.4927(4) 0.0083(3)
H30 H 0.6701 0.5269 -0.0142
C52 C 0.8028(6) 0.4728(4) -0.0231(4)
H31 H 0.8156 0.4927 -0.0672
C53 C 0.8708(6) 0.4239(4) 0.0100(4)
H32 H 0.9321 0.4114 -0.0109
C54 C 0.8517(5) 0.3928(3) 0.0726(4)
H33 H 0.8981 0.3580 0.0941
C55 C 0.7643(5) 0.4126(3) 0.1040(3)
H34 H 0.7508 0.3913 0.1473
C56 C 0.1426(5) 0.3221(3) 0.1636(3)
C57 C 0.0788(5) 0.2601(3) 0.0868(3)
H35 H 0.1054 0.2657 0.0421
C58 C -0.0244(5) 0.1893(3) 0.0748(4)
H36 H -0.0664 0.1463 0.0223
C59 C -0.0657(5) 0.1817(4) 0.1391(4)
H37 H -0.1360 0.1337 0.1307
C60 C -0.0039(5) 0.2443(4) 0.2158(4)
H38 H -0.0312 0.2389 0.2603
C61 C 0.0984(5) 0.3153(4) 0.2275(4)
H39 H 0.1384 0.3595 0.2795
O2 O 0.5656(4) 0.5510(2) 0.3060(2)
C62 C 0.5562(10) 0.4856(6) 0.3435(6)
H40 H 0.4698 0.4545 0.3320
H41 H 0.5921 0.5161 0.4028
C63 C 0.6163(9) 0.4122(6) 0.3193(7)
C64 C 0.7365(10) 0.4419(4) 0.3247(7)
H42 H 0.7788 0.5054 0.3427
C65 C 0.7947(7) 0.3786(7) 0.3038(8)
H43 H 0.8769 0.3989 0.3075
C66 C 0.7328(10) 0.2857(6) 0.2774(8)
H44 H 0.7726 0.2425 0.2631
C67 C 0.6126(10) 0.2560(4) 0.2720(7)
H45 H 0.5702 0.1925 0.2540
C68 C 0.5544(6) 0.3193(7) 0.2929(6)
H46 H 0.4722 0.2990 0.2892
B1 B 0.4861(6) 0.5380(4) 0.2260(4)
B2 B 0.4523(6) 0.9933(4) 0.2601(4)
C76 C 0.9690(5) 0.7271(4) 0.2408(5)
C77 C 1.0118(6) 0.8180(5) 0.2890(3)
H54 H 0.9956 0.8350 0.3386
C78 C 1.0782(5) 0.8841(3) 0.2646(4)
H55 H 1.1075 0.9462 0.2975
C79 C 1.1019(4) 0.8593(4) 0.1920(4)
H56 H 1.1473 0.9045 0.1753
C80 C 1.0591(5) 0.7684(5) 0.1438(3)
H57 H 1.0753 0.7514 0.0942
C81 C 0.9926(5) 0.7023(3) 0.1682(4)
H58 H 0.9634 0.6402 0.1353
C82 C 0.9154(8) 0.6597(6) 0.2722(6)
H59 H 0.9782 0.6499 0.3129
H60 H 0.8717 0.6023 0.2280
H61 H 0.8594 0.6804 0.2974
C83 C 0.3254(9) 0.5528(5) 0.4337(6)
H62 H 0.3624 0.6105 0.4293
C84 C 0.2189(9) 0.5377(6) 0.4521(5)
C85 C 0.1647(8) 0.4533(7) 0.4586(6)
H63 H 0.0919 0.4429 0.4711
C86 C 0.2169(10) 0.3841(5) 0.4467(5)
H64 H 0.1798 0.3264 0.4512
C87 C 0.3233(10) 0.3992(6) 0.4284(5)
H65 H 0.3590 0.3519 0.4203
C88 C 0.3776(7) 0.4836(8) 0.4218(6)
H66 H 0.4503 0.4940 0.4093
C89 C 0.189(3) 0.6320(17) 0.462(2)
H67 H 0.2464 0.6741 0.4470
H68 H 0.1950 0.6590 0.5184
H69 H 0.1072 0.6206 0.4264
C69? C 0.6684(16) 0.5473(10) 0.3248(9)
H47? H 0.7108 0.5854 0.3821
H48? H 0.7099 0.5749 0.2912
C70? C 0.6813(17) 0.4515(9) 0.3157(11)
C71? C 0.5867(13) 0.3742(12) 0.3021(10)
H49? H 0.5088 0.3789 0.2982
C72? C 0.6060(13) 0.2899(10) 0.2941(10)
H50? H 0.5413 0.2371 0.2847
C73? C 0.7200(16) 0.2829(8) 0.2997(12)
H51? H 0.7332 0.2254 0.2942
C74? C 0.8147(13) 0.3602(12) 0.3134(12)
H52? H 0.8926 0.3555 0.3172
C75? C 0.7954(14) 0.4445(9) 0.3214(11)
H53? H 0.8601 0.4973 0.3307
C90? C 0.260(3) 0.6200(17) 0.4475(18)
H70? H 0.2976 0.6800 0.4478
C91? C 0.137(3) 0.5911(16) 0.4352(16)
H71? H 0.0911 0.6312 0.4272
C92? C 0.0817(18) 0.5034(16) 0.4346(14)
H72? H -0.0022 0.4836 0.4262
C93? C 0.1490(19) 0.4447(15) 0.4463(16)
C94? C 0.2717(19) 0.474(2) 0.4586(18)
H73? H 0.3178 0.4336 0.4665
C95? C 0.3271(18) 0.561(2) 0.4591(17)
H74? H 0.4110 0.5812 0.4675
C96? C 0.110(2) 0.3947(14) 0.4495(14)
H75? H 0.0245 0.3898 0.4356
H76? H 0.1397 0.3925 0.5050
H77? H 0.1203 0.3439 0.4116
loop_
_geom_bond_atom_site_label_1
_geom_bond_atom_site_label_2
_geom_bond_site_symmetry_1
_geom_bond_site_symmetry_2
C1 C2 1_555 1_555
C2 H1 1_555 1_555
C3 C2 1_555 1_555
H2 C3 1_555 1_555
C4 C3 1_555 1_555
C5 C4 1_555 1_555
C6 C5 1_555 1_555
C7 C6 1_555 1_555
H3 C7 1_555 1_555
C8 C7 1_555 1_555
H4 C8 1_555 1_555
C9 C8 1_555 1_555
C10 C9 1_555 1_555
C11 C10 1_555 1_555
C12 C11 1_555 1_555
H5 C12 1_555 1_555
C13 C12 1_555 1_555
H6 C13 1_555 1_555
C14 C13 1_555 1_555
C15 C1 1_555 1_555
C16 C10 1_555 1_555
C17 C16 1_555 1_555
H7 C17 1_555 1_555
C18 C17 1_555 1_555
H8 C18 1_555 1_555
C19 C18 1_555 1_555
H9 C19 1_555 1_555
C20 C19 1_555 1_555
H10 C20 1_555 1_555
C21 C16 1_555 1_555
H11 C21 1_555 1_555
C22 C15 1_555 1_555
C23 C22 1_555 1_555
H12 C23 1_555 1_555
C24 C23 1_555 1_555
H13 C24 1_555 1_555
C25 C24 1_555 1_555
H14 C25 1_555 1_555
C26 C25 1_555 1_555
H15 C26 1_555 1_555
C27 C22 1_555 1_555
H16 C27 1_555 1_555
C28 H17 1_555 1_555
H18 C28 1_555 1_555
C29 C28 1_555 1_555
C30 C29 1_555 1_555
H19 C30 1_555 1_555
C31 C30 1_555 1_555
H20 C31 1_555 1_555
C32 C31 1_555 1_555
H21 C32 1_555 1_555
C33 C32 1_555 1_555
H22 C33 1_555 1_555
C34 C29 1_555 1_555
H23 C34 1_555 1_555
N1 C1 1_555 1_555
N2 C6 1_555 1_555
N3 C11 1_555 1_555
O1 C28 1_555 1_555
C35 C36 1_555 1_555
C36 H24 1_555 1_555
C37 C36 1_555 1_555
H25 C37 1_555 1_555
C38 C37 1_555 1_555
C39 C5 1_555 1_555
C40 C39 1_555 1_555
C41 C40 1_555 1_555
H26 C41 1_555 1_555
C42 C41 1_555 1_555
H27 C42 1_555 1_555
C43 C42 1_555 1_555
C44 C43 1_555 1_555
C45 C44 1_555 1_555
C46 C45 1_555 1_555
H28 C46 1_555 1_555
C47 C46 1_555 1_555
H29 C47 1_555 1_555
C48 C47 1_555 1_555
C49 C35 1_555 1_555
N4 C35 1_555 1_555
N5 C40 1_555 1_555
N6 C45 1_555 1_555
C50 C44 1_555 1_555
C51 C50 1_555 1_555
H30 C51 1_555 1_555
C52 C51 1_555 1_555
H31 C52 1_555 1_555
C53 C52 1_555 1_555
H32 C53 1_555 1_555
C54 C53 1_555 1_555
H33 C54 1_555 1_555
C55 C50 1_555 1_555
H34 C55 1_555 1_555
C56 C49 1_555 1_555
C57 C56 1_555 1_555
H35 C57 1_555 1_555
C58 C57 1_555 1_555
H36 C58 1_555 1_555
C59 C58 1_555 1_555
H37 C59 1_555 1_555
C60 C59 1_555 1_555
H38 C60 1_555 1_555
C61 C56 1_555 1_555
H39 C61 1_555 1_555
O2 C62 1_555 1_555
C62 H40 1_555 1_555
H41 C62 1_555 1_555
C63 C62 1_555 1_555
C64 C63 1_555 1_555
H42 C64 1_555 1_555
C65 C64 1_555 1_555
H43 C65 1_555 1_555
C66 C65 1_555 1_555
H44 C66 1_555 1_555
C67 C66 1_555 1_555
H45 C67 1_555 1_555
C68 C63 1_555 1_555
H46 C68 1_555 1_555
B1 N4 1_555 1_555
B2 N1 1_555 1_555
C76 C77 1_555 1_555
C77 H54 1_555 1_555
C78 C77 1_555 1_555
H55 C78 1_555 1_555
C79 C78 1_555 1_555
H56 C79 1_555 1_555
C80 C79 1_555 1_555
H57 C80 1_555 1_555
C81 C76 1_555 1_555
H58 C81 1_555 1_555
C82 C76 1_555 1_555
H59 C82 1_555 1_555
H60 C82 1_555 1_555
H61 C82 1_555 1_555
C83 H62 1_555 1_555
C84 C83 1_555 1_555
C85 C84 1_555 1_555
H63 C85 1_555 1_555
C86 C85 1_555 1_555
H64 C86 1_555 1_555
C87 C86 1_555 1_555
H65 C87 1_555 1_555
C88 C83 1_555 1_555
H66 C88 1_555 1_555
C89 C84 1_555 1_555
H67 C89 1_555 1_555
H68 C89 1_555 1_555
H69 C89 1_555 1_555
C4 N1 1_555 1_555
C9 N2 1_555 1_555
C14 C15 1_555 1_555
C14 N3 1_555 1_555
C20 C21 1_555 1_555
C26 C27 1_555 1_555
C33 C34 1_555 1_555
N2 B2 1_555 1_555
N3 B2 1_555 1_555
O1 B2 1_555 1_555
C38 C39 1_555 1_555
C38 N4 1_555 1_555
C43 N5 1_555 1_555
C48 C49 1_555 1_555
C48 N6 1_555 1_555
N5 B1 1_555 1_555
N6 B1 1_555 1_555
C54 C55 1_555 1_555
C60 C61 1_555 1_555
O2 B1 1_555 1_555
C67 C68 1_555 1_555
C80 C81 1_555 1_555
C87 C88 1_555 1_555

#END
