
#######################################################################
#
#                 Cambridge Crystallographic Data Centre
#                                CCDC 
#
#######################################################################
#
# If this CIF has been generated from an entry in the Cambridge 
# Structural Database, then it will include bibliographic, chemical, 
# crystal, experimental, refinement or atomic coordinate data resulting 
# from the CCDC's data processing and validation procedures.
#
#######################################################################

data_YIQMOD
_chemical_formula_moiety         'C16 H23 N1 O3'
_chemical_name_systematic        'ethyl 3-methyl-4-(phenylcarbamoyl)hexanoate'
_symmetry_cell_setting           monoclinic
_symmetry_space_group_name_H-M   'P 21'
_symmetry_Int_Tables_number      4
_space_group_name_Hall           'P 2yb'
loop_
_symmetry_equiv_pos_site_id
_symmetry_equiv_pos_as_xyz
1 x,y,z
2 -x,1/2+y,-z
_cell_length_a                   5.0392(2)
_cell_length_b                   13.4868(6)
_cell_length_c                   11.2913(5)
_cell_angle_alpha                90
_cell_angle_beta                 92.322(2)
_cell_angle_gamma                90
_cell_volume                     766.757
_exptl_crystal_colour            colorless
_exptl_crystal_description       plate
_cell_formula_units_Z            2
loop_
_atom_site_label
_atom_site_type_symbol
_atom_site_fract_x
_atom_site_fract_y
_atom_site_fract_z
O1 O 0.5223(2) 0.56818(10) 0.53073(12)
O2 O 0.3711(3) 0.43885(11) 0.15316(13)
O3 O 0.6765(3) 0.31894(10) 0.18017(13)
N1 N 0.9642(3) 0.54705(11) 0.57245(13)
H1 H 1.1233 0.5578 0.5457
C1 C 0.9527(3) 0.49723(13) 0.68290(16)
C2 C 1.1501(4) 0.51802(14) 0.76870(18)
H2 H 1.2850 0.5648 0.7528
C3 C 1.1504(4) 0.47008(16) 0.87840(19)
H3 H 1.2838 0.4850 0.9375
C4 C 0.9561(4) 0.40088(16) 0.90083(19)
H4 H 0.9558 0.3682 0.9754
C5 C 0.7623(4) 0.37940(16) 0.8144(2)
H5 H 0.6304 0.3313 0.8298
C6 C 0.7578(4) 0.42738(14) 0.70488(17)
H6 H 0.6234 0.4126 0.6461
C7 C 0.7555(3) 0.57964(13) 0.50423(16)
C8 C 0.8257(4) 0.63281(13) 0.39077(17)
H7 H 1.0229 0.6317 0.3840
C9 C 0.7336(4) 0.74093(14) 0.39917(19)
H8 H 0.7849 0.7767 0.3270
H9 H 0.5374 0.7422 0.4011
C10 C 0.8488(5) 0.79527(16) 0.5075(2)
H10 H 1.0432 0.7922 0.5080
H11 H 0.7861 0.7639 0.5795
H12 H 0.7915 0.8647 0.5049
C11 C 0.6960(3) 0.57890(14) 0.28228(16)
H13 H 0.4996 0.5891 0.2838
C12 C 0.7912(5) 0.62158(16) 0.16597(19)
H14 H 0.7484 0.6924 0.1617
H15 H 0.7024 0.5870 0.0991
H16 H 0.9837 0.6127 0.1626
C13 C 0.7498(4) 0.46726(14) 0.28660(17)
H17 H 0.9383 0.4552 0.2698
H18 H 0.7198 0.4426 0.3676
C14 C 0.5758(4) 0.40978(14) 0.19902(17)
C15 C 0.5231(4) 0.25502(15) 0.09989(18)
H19 H 0.6413 0.2038 0.0679
H20 H 0.4505 0.2949 0.0324
C16 C 0.2973(4) 0.20506(16) 0.16057(19)
H21 H 0.2162 0.1550 0.1076
H22 H 0.1638 0.2547 0.1799
H23 H 0.3655 0.1731 0.2336
loop_
_geom_bond_atom_site_label_1
_geom_bond_atom_site_label_2
_geom_bond_site_symmetry_1
_geom_bond_site_symmetry_2
O1 C7 1_555 1_555
O2 C14 1_555 1_555
O3 C14 1_555 1_555
N1 H1 1_555 1_555
C1 N1 1_555 1_555
C2 C1 1_555 1_555
H2 C2 1_555 1_555
C3 C2 1_555 1_555
H3 C3 1_555 1_555
C4 C3 1_555 1_555
H4 C4 1_555 1_555
C5 C4 1_555 1_555
H5 C5 1_555 1_555
C6 C1 1_555 1_555
H6 C6 1_555 1_555
C7 N1 1_555 1_555
C8 C7 1_555 1_555
H7 C8 1_555 1_555
C9 C8 1_555 1_555
H8 C9 1_555 1_555
H9 C9 1_555 1_555
C10 C9 1_555 1_555
H10 C10 1_555 1_555
H11 C10 1_555 1_555
H12 C10 1_555 1_555
C11 C8 1_555 1_555
H13 C11 1_555 1_555
C12 C11 1_555 1_555
H14 C12 1_555 1_555
H15 C12 1_555 1_555
H16 C12 1_555 1_555
C13 C11 1_555 1_555
H17 C13 1_555 1_555
H18 C13 1_555 1_555
C14 C13 1_555 1_555
C15 O3 1_555 1_555
H19 C15 1_555 1_555
H20 C15 1_555 1_555
C16 C15 1_555 1_555
H21 C16 1_555 1_555
H22 C16 1_555 1_555
H23 C16 1_555 1_555
C5 C6 1_555 1_555

#END
