
#######################################################################
#
#                 Cambridge Crystallographic Data Centre
#                                CCDC 
#
#######################################################################
#
# If this CIF has been generated from an entry in the Cambridge 
# Structural Database, then it will include bibliographic, chemical, 
# crystal, experimental, refinement or atomic coordinate data resulting 
# from the CCDC's data processing and validation procedures.
#
#######################################################################

data_YIQMUJ
_chemical_compound_source        'Taiwania cryptomerioides'
_chemical_name_common            'taiwanoid A unknown solvate'
_chemical_formula_moiety         'C41 H58 O7'
_chemical_name_systematic        
'methyl 5-{[10,13-dihydroxy-3,4b,8,8-tetramethyl-9,11,14-trioxo-12-(propan-2-yl)-1,4,4b,5,6,7,8,8a,9,10-decahydro-4a,10a-but[2]enophenanthren-4-yl]methyl}-1,4a-dimethyl-6-methylidenedecahydronaphthalene-1-carboxylate unknown solvate'
_symmetry_cell_setting           orthorhombic
_symmetry_space_group_name_H-M   'P 21 21 21'
_symmetry_Int_Tables_number      19
_space_group_name_Hall           'P 2ac 2ab'
loop_
_symmetry_equiv_pos_site_id
_symmetry_equiv_pos_as_xyz
1 x,y,z
2 1/2-x,-y,1/2+z
3 -x,1/2+y,1/2-z
4 1/2+x,1/2-y,-z
_cell_length_a                   12.9237(4)
_cell_length_b                   15.5472(4)
_cell_length_c                   39.6257(12)
_cell_angle_alpha                90
_cell_angle_beta                 90
_cell_angle_gamma                90
_cell_volume                     7961.89
_exptl_crystal_colour            colorless
_exptl_crystal_description       block
_cell_formula_units_Z            8
loop_
_atom_site_label
_atom_site_type_symbol
_atom_site_fract_x
_atom_site_fract_y
_atom_site_fract_z
O1 O 0.4425(2) 0.43508(17) 0.55055(6)
O2 O 0.35438(19) 0.49624(19) 0.59232(5)
O3 O 0.25258(16) 0.58410(13) 0.36851(6)
O4 O 0.22802(16) 0.87925(13) 0.35244(7)
H1 H 0.2690 0.9208 0.3546
O5 O 0.40600(15) 0.87985(11) 0.38588(5)
O6 O 0.37507(17) 0.57602(13) 0.30350(5)
H2 H 0.3628 0.5826 0.2828
O7 O 0.56983(17) 0.60353(14) 0.28308(5)
C1 C 0.7838(2) 0.6376(2) 0.30963(9)
H3 H 0.7494 0.5966 0.2945
H4 H 0.7884 0.6129 0.3323
H5 H 0.8536 0.6497 0.3012
C2 C 0.7147(3) 0.7592(2) 0.27526(7)
H6 H 0.7843 0.7624 0.2656
H7 H 0.6845 0.8170 0.2762
H8 H 0.6712 0.7221 0.2612
C3 C 0.2957(2) 0.65009(17) 0.36011(7)
C4 C 0.5050(2) 0.83784(16) 0.31616(6)
H9 H 0.4630 0.8828 0.3268
H10 H 0.4613 0.8034 0.3011
H11 H 0.5609 0.8644 0.3031
C5 C 0.6277(2) 0.83453(16) 0.36487(6)
H12 H 0.5906 0.8861 0.3731
H13 H 0.6512 0.8015 0.3848
C6 C 0.7221(2) 0.86304(19) 0.34455(7)
H14 H 0.6997 0.8960 0.3245
H15 H 0.7667 0.9006 0.3585
C7 C 0.2854(2) 0.55862(17) 0.46095(7)
H16 H 0.2502 0.5838 0.4411
H17 H 0.3435 0.5230 0.4526
C8 C 0.2093(3) 0.5010(2) 0.47970(8)
H18 H 0.1481 0.5352 0.4864
H19 H 0.1857 0.4546 0.4644
C9 C 0.7816(2) 0.7841(2) 0.33373(7)
H20 H 0.8041 0.7527 0.3542
H21 H 0.8446 0.8028 0.3216
C10 C 0.7210(2) 0.72176(19) 0.31096(7)
C11 C 0.2575(2) 0.46122(19) 0.51099(7)
H22 H 0.3146 0.4226 0.5041
H23 H 0.2048 0.4258 0.5227
C12 C 0.2998(2) 0.52901(18) 0.53579(7)
C13 C 0.61289(19) 0.70211(16) 0.32784(6)
H24 H 0.6302 0.6639 0.3474
C14 C 0.5410(2) 0.64839(17) 0.30635(6)
C15 C 0.3721(2) 0.59325(17) 0.51631(6)
H25 H 0.4332 0.5581 0.5093
C16 C 0.4158(2) 0.66246(19) 0.53943(7)
H26 H 0.4447 0.6353 0.5600
H27 H 0.3596 0.7018 0.5464
C17 C 0.4265(2) 0.64918(17) 0.31600(6)
H28 H 0.3936 0.7015 0.3060
C18 C 0.41494(19) 0.65343(15) 0.35481(6)
C19 C 0.5010(2) 0.7141(2) 0.52155(7)
H29 H 0.5205 0.7639 0.5357
H30 H 0.5630 0.6774 0.5188
C20 C 0.46306(18) 0.74000(15) 0.36883(6)
C21 C 0.46666(19) 0.74573(18) 0.48750(7)
C22 C 0.4244(2) 0.67553(16) 0.46486(6)
H31 H 0.4794 0.6305 0.4634
C23 C 0.55230(18) 0.77851(16) 0.34408(6)
C24 C 0.3846(2) 0.81316(16) 0.37162(6)
C25 C 0.32920(19) 0.63218(16) 0.48291(6)
C26 C 0.4016(2) 0.70386(16) 0.42855(6)
H32 H 0.3574 0.7558 0.4294
H33 H 0.3613 0.6579 0.4173
C27 C 0.2799(2) 0.80484(18) 0.35678(7)
C28 C 0.49773(18) 0.72410(15) 0.40647(6)
H34 H 0.5307 0.7779 0.4152
C29 C 0.2345(2) 0.72787(19) 0.35257(8)
C30 C 0.57547(19) 0.65175(16) 0.40897(6)
C31 C 0.1201(2) 0.7173(2) 0.34479(10)
H35 H 0.1123 0.6540 0.3411
C32 C 0.5566(2) 0.57979(17) 0.39209(6)
H36 H 0.6033 0.5330 0.3945
C33 C 0.0552(3) 0.7340(5) 0.37483(14)
H37 H 0.0785 0.6976 0.3935
H38 H -0.0172 0.7208 0.3696
H39 H 0.0613 0.7946 0.3813
C34 C 0.4646(2) 0.56911(16) 0.36929(7)
H40 H 0.4104 0.5375 0.3819
H41 H 0.4855 0.5325 0.3500
C35 C 0.0880(4) 0.7542(5) 0.31292(15)
H42 H 0.0945 0.8169 0.3139
H43 H 0.0157 0.7387 0.3085
H44 H 0.1319 0.7318 0.2948
C36 C 0.6688(2) 0.66455(19) 0.43110(7)
H45 H 0.7115 0.7112 0.4220
H46 H 0.7094 0.6113 0.4318
H47 H 0.6464 0.6795 0.4540
C37 C 0.2444(2) 0.70072(18) 0.48780(7)
H48 H 0.2284 0.7275 0.4660
H49 H 0.2689 0.7448 0.5036
H50 H 0.1819 0.6735 0.4969
C38 C 0.4692(2) 0.82857(17) 0.47960(7)
H51 H 0.4932 0.8694 0.4956
H52 H 0.4471 0.8471 0.4579
C39 C 0.2109(2) 0.5715(2) 0.55503(7)
H53 H 0.1616 0.5962 0.5389
H54 H 0.2384 0.6171 0.5695
H55 H 0.1758 0.5283 0.5689
C40 C 0.3732(2) 0.48142(19) 0.55972(7)
C41 C 0.4260(4) 0.4558(4) 0.61562(10)
H56 H 0.4249 0.3934 0.6123
H57 H 0.4055 0.4692 0.6388
H58 H 0.4960 0.4776 0.6115
O8 O 0.66774(18) 0.14394(17) 0.26003(5)
O9 O 0.50242(19) 0.04747(12) 0.27850(5)
H63 H 0.4891 0.0487 0.2578
O10 O 0.36873(17) 0.34643(12) 0.35078(5)
O11 O 0.21776(17) 0.28661(13) 0.31028(6)
H64 H 0.2306 0.3372 0.3164
O12 O 0.35318(17) 0.02358(12) 0.33931(5)
O13 O 0.3963(2) -0.00397(18) 0.54330(6)
O14 O 0.2669(2) 0.05572(17) 0.57234(5)
C43 C 0.6144(2) 0.35500(17) 0.34894(7)
H65 H 0.5585 0.3947 0.3559
H66 H 0.6390 0.3245 0.3694
C44 C 0.2976(2) 0.03693(18) 0.43649(7)
H67 H 0.2755 0.0443 0.4127
H68 H 0.3663 0.0088 0.4364
C45 C 0.7034(3) 0.4073(2) 0.33435(9)
H69 H 0.6803 0.4377 0.3137
H70 H 0.7265 0.4509 0.3509
C46 C 0.2201(3) -0.0218(2) 0.45453(8)
H71 H 0.1500 0.0036 0.4529
H72 H 0.2186 -0.0784 0.4431
C47 C 0.7916(3) 0.3471(2) 0.32600(10)
H73 H 0.8139 0.3176 0.3469
H74 H 0.8509 0.3814 0.3177
C48 C 0.2480(3) -0.03442(18) 0.49156(8)
H75 H 0.3152 -0.0648 0.4931
H76 H 0.1949 -0.0709 0.5025
C49 C 0.2555(2) 0.05259(17) 0.51073(7)
C50 C 0.7638(3) 0.2784(2) 0.29921(8)
C51 C 0.3318(2) 0.11301(16) 0.49129(6)
H77 H 0.3998 0.0823 0.4917
C52 C 0.6615(2) 0.23198(17) 0.31013(7)
H78 H 0.6824 0.1958 0.3298
C53 C 0.3514(3) 0.19802(19) 0.51000(7)
H79 H 0.3685 0.1859 0.5339
H80 H 0.2880 0.2337 0.5095
C54 C 0.6194(2) 0.16795(18) 0.28468(7)
C55 C 0.5121(2) 0.13316(16) 0.29088(6)
H81 H 0.4614 0.1703 0.2786
C56 C 0.4412(3) 0.2477(2) 0.49348(7)
H82 H 0.4494 0.3044 0.5045
H83 H 0.5065 0.2152 0.4963
C57 C 0.4181(2) 0.25973(17) 0.45636(7)
C58 C 0.4829(2) 0.13302(15) 0.32879(6)
C59 C 0.4051(2) 0.17426(16) 0.43810(6)
H84 H 0.4668 0.1385 0.4440
C60 C 0.4853(2) 0.22763(15) 0.34319(6)
C61 C 0.3076(2) 0.12638(17) 0.45310(6)
C62 C 0.5700(2) 0.28875(16) 0.32403(7)
C63 C 0.3821(2) 0.27449(16) 0.33868(6)
C64 C 0.4028(2) 0.18122(18) 0.39943(6)
H85 H 0.3413 0.2153 0.3929
H86 H 0.3939 0.1227 0.3900
C65 C 0.4998(2) 0.22268(16) 0.38265(6)
H87 H 0.5061 0.2828 0.3913
C66 C 0.2952(2) 0.23525(17) 0.31954(7)
C67 C 0.2888(2) 0.14927(18) 0.31465(7)
C68 C 0.5975(2) 0.17496(17) 0.39220(6)
C69 C 0.3717(2) 0.09615(16) 0.32894(6)
C70 C 0.6215(2) 0.10404(17) 0.37544(7)
H88 H 0.6823 0.0737 0.3818
C71 C 0.5575(2) 0.06926(17) 0.34701(7)
H89 H 0.5156 0.0210 0.3559
H90 H 0.6052 0.0451 0.3299
C72 C 0.1921(2) 0.10934(19) 0.29984(8)
H91 H 0.1607 0.1531 0.2844
C73 C 0.1129(3) 0.0908(2) 0.32739(9)
H92 H 0.1403 0.0468 0.3427
H93 H 0.0487 0.0699 0.3171
H94 H 0.0989 0.1436 0.3401
C74 C 0.6629(2) 0.2086(2) 0.42091(7)
H95 H 0.6863 0.2670 0.4156
H96 H 0.7231 0.1711 0.4240
H97 H 0.6217 0.2095 0.4417
C75 C 0.2140(3) 0.0285(2) 0.27849(8)
H98 H 0.2704 0.0405 0.2626
H99 H 0.1516 0.0127 0.2659
H100 H 0.2340 -0.0190 0.2934
C76 C 0.4047(3) 0.33658(18) 0.44292(8)
H101 H 0.4095 0.3865 0.4567
H102 H 0.3903 0.3420 0.4195
C77 C 0.3042(3) 0.03622(19) 0.54558(8)
C78 C 0.8514(3) 0.2108(3) 0.29879(10)
H103 H 0.9181 0.2398 0.2959
H104 H 0.8403 0.1708 0.2800
H105 H 0.8512 0.1790 0.3201
C79 C 0.4476(4) -0.0212(4) 0.57487(11)
H106 H 0.4026 -0.0565 0.5892
H107 H 0.4627 0.0332 0.5863
H108 H 0.5123 -0.0521 0.5706
C80 C 0.1467(3) 0.0884(2) 0.51706(8)
H109 H 0.1071 0.0874 0.4960
H110 H 0.1518 0.1477 0.5253
H111 H 0.1115 0.0530 0.5340
C81 C 0.7602(3) 0.3219(3) 0.26415(10)
H112 H 0.7242 0.3773 0.2659
H113 H 0.7231 0.2847 0.2483
H114 H 0.8308 0.3314 0.2560
C82 C 0.2095(2) 0.1793(2) 0.44607(8)
H115 H 0.2076 0.1956 0.4222
H116 H 0.2100 0.2313 0.4600
H117 H 0.1482 0.1448 0.4515
C83 C 0.5179(3) 0.33826(18) 0.29417(7)
H118 H 0.4814 0.3888 0.3029
H119 H 0.4686 0.3003 0.2827
H120 H 0.5712 0.3568 0.2781
H59? H 0.1099 0.7745 0.3338
C42? C 0.1040(8) 0.6598(8) 0.3115(3)
H60? H 0.1522 0.6789 0.2939
H61? H 0.0328 0.6663 0.3034
H62? H 0.1173 0.5993 0.3169
loop_
_geom_bond_atom_site_label_1
_geom_bond_atom_site_label_2
_geom_bond_site_symmetry_1
_geom_bond_site_symmetry_2
O1 C40 1_555 1_555
O2 C40 1_555 1_555
O3 C3 1_555 1_555
O4 H1 1_555 1_555
O5 C24 1_555 1_555
O6 H2 1_555 1_555
O7 C14 1_555 1_555
C1 H3 1_555 1_555
H4 C1 1_555 1_555
H5 C1 1_555 1_555
C2 H6 1_555 1_555
H7 C2 1_555 1_555
H8 C2 1_555 1_555
C3 C18 1_555 1_555
C4 H9 1_555 1_555
H10 C4 1_555 1_555
H11 C4 1_555 1_555
C5 H12 1_555 1_555
H13 C5 1_555 1_555
C6 C5 1_555 1_555
H14 C6 1_555 1_555
H15 C6 1_555 1_555
C7 H16 1_555 1_555
H17 C7 1_555 1_555
C8 C7 1_555 1_555
H18 C8 1_555 1_555
H19 C8 1_555 1_555
C9 C6 1_555 1_555
H20 C9 1_555 1_555
H21 C9 1_555 1_555
C10 C1 1_555 1_555
C11 C8 1_555 1_555
H22 C11 1_555 1_555
H23 C11 1_555 1_555
C12 C11 1_555 1_555
C13 C10 1_555 1_555
H24 C13 1_555 1_555
C14 C13 1_555 1_555
C15 C12 1_555 1_555
H25 C15 1_555 1_555
C16 C15 1_555 1_555
H26 C16 1_555 1_555
H27 C16 1_555 1_555
C17 O6 1_555 1_555
H28 C17 1_555 1_555
C18 C17 1_555 1_555
C19 C16 1_555 1_555
H29 C19 1_555 1_555
H30 C19 1_555 1_555
C20 C18 1_555 1_555
C21 C19 1_555 1_555
C22 C21 1_555 1_555
H31 C22 1_555 1_555
C23 C4 1_555 1_555
C24 C20 1_555 1_555
C25 C7 1_555 1_555
C26 C22 1_555 1_555
H32 C26 1_555 1_555
H33 C26 1_555 1_555
C27 O4 1_555 1_555
C28 C20 1_555 1_555
H34 C28 1_555 1_555
C29 C3 1_555 1_555
C30 C28 1_555 1_555
C31 C29 1_555 1_555
H35 C31 1_555 1_555
C32 C30 1_555 1_555
H36 C32 1_555 1_555
C33 C31 1_555 1_555
H37 C33 1_555 1_555
H38 C33 1_555 1_555
H39 C33 1_555 1_555
C34 C18 1_555 1_555
H40 C34 1_555 1_555
H41 C34 1_555 1_555
C35 C31 1_555 1_555
H42 C35 1_555 1_555
H43 C35 1_555 1_555
H44 C35 1_555 1_555
C36 C30 1_555 1_555
H45 C36 1_555 1_555
H46 C36 1_555 1_555
H47 C36 1_555 1_555
C37 C25 1_555 1_555
H48 C37 1_555 1_555
H49 C37 1_555 1_555
H50 C37 1_555 1_555
C38 C21 1_555 1_555
H51 C38 1_555 1_555
H52 C38 1_555 1_555
C39 C12 1_555 1_555
H53 C39 1_555 1_555
H54 C39 1_555 1_555
H55 C39 1_555 1_555
C40 C12 1_555 1_555
C41 O2 1_555 1_555
H56 C41 1_555 1_555
H57 C41 1_555 1_555
H58 C41 1_555 1_555
O8 C54 1_555 1_555
O9 H63 1_555 1_555
O10 C63 1_555 1_555
O11 H64 1_555 1_555
O12 C69 1_555 1_555
O13 C77 1_555 1_555
O14 C77 1_555 1_555
C43 H65 1_555 1_555
H66 C43 1_555 1_555
C44 H67 1_555 1_555
H68 C44 1_555 1_555
C45 C43 1_555 1_555
H69 C45 1_555 1_555
H70 C45 1_555 1_555
C46 C44 1_555 1_555
H71 C46 1_555 1_555
H72 C46 1_555 1_555
C47 C45 1_555 1_555
H73 C47 1_555 1_555
H74 C47 1_555 1_555
C48 C46 1_555 1_555
H75 C48 1_555 1_555
H76 C48 1_555 1_555
C49 C48 1_555 1_555
C50 C47 1_555 1_555
C51 C49 1_555 1_555
H77 C51 1_555 1_555
C52 C50 1_555 1_555
H78 C52 1_555 1_555
C53 C51 1_555 1_555
H79 C53 1_555 1_555
H80 C53 1_555 1_555
C54 C52 1_555 1_555
C55 O9 1_555 1_555
H81 C55 1_555 1_555
C56 C53 1_555 1_555
H82 C56 1_555 1_555
H83 C56 1_555 1_555
C57 C56 1_555 1_555
C58 C55 1_555 1_555
C59 C57 1_555 1_555
H84 C59 1_555 1_555
C60 C58 1_555 1_555
C61 C44 1_555 1_555
C62 C43 1_555 1_555
C63 C60 1_555 1_555
C64 C59 1_555 1_555
H85 C64 1_555 1_555
H86 C64 1_555 1_555
C65 C60 1_555 1_555
H87 C65 1_555 1_555
C66 O11 1_555 1_555
C67 C66 1_555 1_555
C68 C65 1_555 1_555
C69 C58 1_555 1_555
C70 C68 1_555 1_555
H88 C70 1_555 1_555
C71 C58 1_555 1_555
H89 C71 1_555 1_555
H90 C71 1_555 1_555
C72 C67 1_555 1_555
H91 C72 1_555 1_555
C73 C72 1_555 1_555
H92 C73 1_555 1_555
H93 C73 1_555 1_555
H94 C73 1_555 1_555
C74 C68 1_555 1_555
H95 C74 1_555 1_555
H96 C74 1_555 1_555
H97 C74 1_555 1_555
C75 C72 1_555 1_555
H98 C75 1_555 1_555
H99 C75 1_555 1_555
H100 C75 1_555 1_555
C76 C57 1_555 1_555
H101 C76 1_555 1_555
H102 C76 1_555 1_555
C77 C49 1_555 1_555
C78 C50 1_555 1_555
H103 C78 1_555 1_555
H104 C78 1_555 1_555
H105 C78 1_555 1_555
C79 O13 1_555 1_555
H106 C79 1_555 1_555
H107 C79 1_555 1_555
H108 C79 1_555 1_555
C80 C49 1_555 1_555
H109 C80 1_555 1_555
H110 C80 1_555 1_555
H111 C80 1_555 1_555
C81 C50 1_555 1_555
H112 C81 1_555 1_555
H113 C81 1_555 1_555
H114 C81 1_555 1_555
C82 C61 1_555 1_555
H115 C82 1_555 1_555
H116 C82 1_555 1_555
H117 C82 1_555 1_555
C83 C62 1_555 1_555
H118 C83 1_555 1_555
H119 C83 1_555 1_555
H120 C83 1_555 1_555
C2 C10 1_555 1_555
C5 C23 1_555 1_555
C9 C10 1_555 1_555
C13 C23 1_555 1_555
C14 C17 1_555 1_555
C15 C25 1_555 1_555
C20 C23 1_555 1_555
C22 C25 1_555 1_555
C24 C27 1_555 1_555
C26 C28 1_555 1_555
C27 C29 1_555 1_555
C32 C34 1_555 1_555
C51 C61 1_555 1_555
C52 C62 1_555 1_555
C54 C55 1_555 1_555
C59 C61 1_555 1_555
C60 C62 1_555 1_555
C63 C66 1_555 1_555
C64 C65 1_555 1_555
C67 C69 1_555 1_555
C70 C71 1_555 1_555

#END
