
#######################################################################
#
#                 Cambridge Crystallographic Data Centre
#                                CCDC 
#
#######################################################################
#
# If this CIF has been generated from an entry in the Cambridge 
# Structural Database, then it will include bibliographic, chemical, 
# crystal, experimental, refinement or atomic coordinate data resulting 
# from the CCDC's data processing and validation procedures.
#
#######################################################################

data_YIQTEZ
_chemical_formula_moiety         'C21 H23 N3 O3 S1'
_chemical_name_systematic        
2-(4-(Heptyloxy)phenyl)-5-(4-nitrophenyl)-1,3,4-thiadiazole
_symmetry_cell_setting           triclinic
_symmetry_space_group_name_H-M   'P -1'
_symmetry_Int_Tables_number      2
_space_group_name_Hall           '-P 1'
loop_
_symmetry_equiv_pos_site_id
_symmetry_equiv_pos_as_xyz
1 x,y,z
2 -x,-y,-z
_cell_length_a                   7.205(3)
_cell_length_b                   9.381(4)
_cell_length_c                   15.474(7)
_cell_angle_alpha                75.116(8)
_cell_angle_beta                 83.941(8)
_cell_angle_gamma                87.949(7)
_cell_volume                     1005.11
_cell_formula_units_Z            2
loop_
_atom_site_label
_atom_site_type_symbol
_atom_site_fract_x
_atom_site_fract_y
_atom_site_fract_z
S1 S 0.63464(11) 0.76699(10) 0.49308(6)
O1 O 0.9357(4) 1.1551(4) 0.8336(2)
O2 O 1.1726(4) 1.1302(4) 0.7429(2)
O3 O 0.1914(3) 0.4518(3) 0.22994(17)
N1 N 1.0094(4) 1.1108(4) 0.7708(2)
N2 N 0.3759(4) 0.8157(3) 0.6075(2)
N3 N 0.2914(4) 0.7491(3) 0.5526(2)
C1 C 0.5940(4) 0.9660(4) 0.6999(2)
H1 H 0.4652 0.9636 0.7138
C2 C 0.7022(5) 1.0334(4) 0.7458(2)
H2 H 0.6481 1.0754 0.7908
C3 C 0.8916(4) 1.0374(4) 0.7235(2)
C4 C 0.9757(5) 0.9745(4) 0.6578(2)
H3 H 1.1045 0.9784 0.6439
C5 C 0.8665(4) 0.9062(4) 0.6135(2)
H4 H 0.9221 0.8624 0.5696
C6 C 0.6736(4) 0.9015(3) 0.6332(2)
C7 C 0.5551(4) 0.8323(3) 0.5850(2)
C8 C 0.4077(4) 0.7169(3) 0.4897(2)
C9 C 0.3510(4) 0.6464(3) 0.4228(2)
C10 C 0.4780(5) 0.6084(4) 0.3581(2)
H5 H 0.6041 0.6270 0.3573
C11 C 0.4207(5) 0.5438(4) 0.2953(2)
H6 H 0.5082 0.5191 0.2527
C12 C 0.2340(5) 0.5154(4) 0.2949(2)
C13 C 0.1049(5) 0.5525(4) 0.3594(2)
H7 H -0.0212 0.5334 0.3604
C14 C 0.1646(4) 0.6173(4) 0.4214(2)
H8 H 0.0771 0.6424 0.4639
C15 C -0.0032(5) 0.4312(4) 0.2220(3)
H9 H -0.0686 0.5254 0.2106
H10 H -0.0612 0.3676 0.2772
C16 C -0.0126(6) 0.3622(4) 0.1453(3)
H11 H 0.0577 0.2702 0.1564
H12 H 0.0442 0.4274 0.0905
C17 C -0.2120(6) 0.3323(5) 0.1334(3)
H13 H -0.2644 0.2622 0.1874
H14 H -0.2831 0.4234 0.1281
C18 C -0.2381(7) 0.2740(6) 0.0548(3)
H15 H -0.1766 0.1786 0.0622
H16 H -0.1785 0.3400 0.0009
C19 C -0.4476(7) 0.2571(6) 0.0420(3)
H17 H -0.4996 0.1772 0.0907
H18 H -0.5135 0.3468 0.0477
C20 C -0.4830(8) 0.2301(7) -0.0378(4)
H19 H -0.3890 0.2246 -0.0829
C21 C -0.6848(8) 0.2102(6) -0.0463(4)
H20 H -0.7370 0.1367 0.0050
H21 H -0.6965 0.1792 -0.0999
H22 H -0.7505 0.3020 -0.0493
loop_
_geom_bond_atom_site_label_1
_geom_bond_atom_site_label_2
_geom_bond_site_symmetry_1
_geom_bond_site_symmetry_2
S1 C7 1_555 1_555
O1 N1 1_555 1_555
O2 N1 1_555 1_555
O3 C12 1_555 1_555
N1 C3 1_555 1_555
N2 N3 1_555 1_555
N3 C8 1_555 1_555
C1 H1 1_555 1_555
C2 C1 1_555 1_555
H2 C2 1_555 1_555
C3 C2 1_555 1_555
C4 C3 1_555 1_555
H3 C4 1_555 1_555
C5 C4 1_555 1_555
H4 C5 1_555 1_555
C6 C1 1_555 1_555
C7 N2 1_555 1_555
C8 S1 1_555 1_555
C9 C8 1_555 1_555
C10 C9 1_555 1_555
H5 C10 1_555 1_555
C11 C10 1_555 1_555
H6 C11 1_555 1_555
C12 C11 1_555 1_555
C13 C12 1_555 1_555
H7 C13 1_555 1_555
C14 C9 1_555 1_555
H8 C14 1_555 1_555
C15 O3 1_555 1_555
H9 C15 1_555 1_555
H10 C15 1_555 1_555
C16 C15 1_555 1_555
H11 C16 1_555 1_555
H12 C16 1_555 1_555
C17 C16 1_555 1_555
H13 C17 1_555 1_555
H14 C17 1_555 1_555
C18 C17 1_555 1_555
H15 C18 1_555 1_555
H16 C18 1_555 1_555
C19 C18 1_555 1_555
H17 C19 1_555 1_555
H18 C19 1_555 1_555
C20 C19 1_555 1_555
H19 C20 1_555 1_555
C21 C20 1_555 1_555
H20 C21 1_555 1_555
H21 C21 1_555 1_555
H22 C21 1_555 1_555
C5 C6 1_555 1_555
C6 C7 1_555 1_555
C13 C14 1_555 1_555

#END
