
#######################################################################
#
#                 Cambridge Crystallographic Data Centre
#                                CCDC 
#
#######################################################################
#
# If this CIF has been generated from an entry in the Cambridge 
# Structural Database, then it will include bibliographic, chemical, 
# crystal, experimental, refinement or atomic coordinate data resulting 
# from the CCDC's data processing and validation procedures.
#
#######################################################################

data_YIQVEC
_chemical_formula_moiety         'C26 H19 N1 O1 S1'
_chemical_name_systematic        
(3-methyl-4-(10H-phenothiazin-10-yl)phenyl)(phenyl)methanone
_symmetry_cell_setting           triclinic
_symmetry_space_group_name_H-M   'P -1'
_symmetry_Int_Tables_number      2
_space_group_name_Hall           '-P 1'
loop_
_symmetry_equiv_pos_site_id
_symmetry_equiv_pos_as_xyz
1 x,y,z
2 -x,-y,-z
_cell_length_a                   7.4588(5)
_cell_length_b                   12.5555(8)
_cell_length_c                   21.4551(13)
_cell_angle_alpha                98.617(2)
_cell_angle_beta                 92.080(2)
_cell_angle_gamma                95.851(2)
_cell_volume                     1973.5
_exptl_crystal_colour            yellow
_exptl_crystal_description       tablet
_cell_formula_units_Z            4
_exptl_crystal_recrystallization_method dichloromethane/hexane/ethylacetate
_exptl_crystal_preparation       ', Luminescent'
loop_
_atom_site_label
_atom_site_type_symbol
_atom_site_fract_x
_atom_site_fract_y
_atom_site_fract_z
S1 S 0.2099(2) 0.19339(11) 0.74016(5)
O1 O 1.0793(5) 0.4019(4) 0.4622(2)
N1 N 0.4455(3) 0.25995(17) 0.63216(10)
C1 C 0.9180(5) 0.3852(3) 0.44609(18)
C2 C 0.7857(4) 0.3452(2) 0.49031(13)
C3 C 0.6095(4) 0.3738(2) 0.49174(13)
H1 H 0.5652 0.4122 0.4606
C4 C 0.4993(4) 0.3458(2) 0.53886(13)
H2 H 0.3807 0.3670 0.5407
C5 C 0.5625(4) 0.2870(2) 0.58312(12)
C6 C 0.7363(4) 0.2537(2) 0.58144(12)
C7 C 0.8451(4) 0.2852(2) 0.53478(13)
H3 H 0.9643 0.2650 0.5333
C8 C 0.4986(3) 0.31352(15) 0.69604(9)
C9 C 0.4037(2) 0.28867(13) 0.74793(8)
C10 C 0.4486(2) 0.34723(14) 0.80736(8)
H4 H 0.3865 0.3275 0.8425
C11 C 0.5820(2) 0.43401(15) 0.81664(8)
H5 H 0.6112 0.4736 0.8577
C12 C 0.6716(2) 0.46203(15) 0.76559(9)
H6 H 0.7611 0.5226 0.7711
C13 C 0.6315(3) 0.40203(15) 0.70617(9)
H7 H 0.6959 0.4216 0.6715
C14 C 0.3565(3) 0.15147(15) 0.62290(9)
C15 C 0.2456(2) 0.11356(14) 0.66789(8)
C16 C 0.1425(2) 0.01386(14) 0.65356(9)
H8 H 0.0690 -0.0116 0.6846
C17 C 0.1445(3) -0.04901(15) 0.59517(10)
H9 H 0.0723 -0.1168 0.5858
C18 C 0.2528(3) -0.01192(15) 0.55062(9)
H10 H 0.2547 -0.0543 0.5101
C19 C 0.3589(3) 0.08659(15) 0.56434(9)
H11 H 0.4346 0.1103 0.5333
C20 C 0.8538(6) 0.4038(3) 0.3828(2)
C21 C 0.7200(7) 0.3336(4) 0.3472(2)
H12 H 0.6645 0.2732 0.3639
C22 C 0.6669(8) 0.3508(4) 0.28733(18)
H13 H 0.5771 0.3016 0.2626
C23 C 0.7455(9) 0.4402(5) 0.26367(18)
H14 H 0.7080 0.4528 0.2229
C24 C 0.8767(8) 0.5106(4) 0.2987(2)
H15 H 0.9286 0.5720 0.2822
C25 C 0.9345(7) 0.4929(4) 0.3581(2)
H16 H 1.0280 0.5408 0.3817
C26 C 0.8063(3) 0.1870(2) 0.62783(12)
H17 H 0.9255 0.1702 0.6175
H18 H 0.7277 0.1209 0.6259
H19 H 0.8103 0.2272 0.6697
S3 S 0.32310(9) -0.07966(4) 0.22708(3)
O3 O -0.42283(19) 0.37767(10) 0.06186(7)
N3 N 0.1432(2) 0.09935(12) 0.17380(7)
C41 C -0.2660(3) 0.40766(14) 0.08103(8)
C42 C -0.1530(3) 0.32908(14) 0.10516(8)
C43 C 0.0343(3) 0.33896(14) 0.10278(8)
H31 H 0.0953 0.3975 0.0858
C44 C 0.1311(2) 0.26306(14) 0.12529(8)
H32 H 0.2589 0.2694 0.1238
C45 C 0.0417(2) 0.17757(14) 0.15001(8)
C46 C -0.1450(3) 0.16582(14) 0.15261(8)
C47 C -0.2396(3) 0.24229(15) 0.12920(8)
H33 H -0.3675 0.2349 0.1297
C48 C 0.2183(2) 0.02406(14) 0.12905(8)
C49 C 0.3123(2) -0.05785(14) 0.14810(9)
C50 C 0.3871(3) -0.12987(15) 0.10353(10)
H34 H 0.4557 -0.1826 0.1172
C51 C 0.3641(3) -0.12668(15) 0.03985(10)
H35 H 0.4145 -0.1771 0.0098
C52 C 0.2669(3) -0.04912(15) 0.02076(9)
H36 H 0.2477 -0.0470 -0.0230
C53 C 0.1964(3) 0.02625(15) 0.06453(9)
H37 H 0.1321 0.0803 0.0502
C54 C 0.2057(2) 0.12384(14) 0.23784(8)
C55 C 0.2999(2) 0.05160(14) 0.26640(8)
C56 C 0.3632(3) 0.07782(15) 0.32890(9)
H38 H 0.4334 0.0301 0.3470
C57 C 0.3253(3) 0.17242(16) 0.36524(9)
H39 H 0.3651 0.1885 0.4085
C58 C 0.2291(3) 0.24334(15) 0.33810(8)
H40 H 0.2023 0.3085 0.3629
C59 C 0.1715(2) 0.22015(14) 0.27504(8)
H41 H 0.1077 0.2705 0.2567
C60 C -0.1889(2) 0.52232(14) 0.08233(8)
C61 C -0.0565(2) 0.57406(14) 0.12743(8)
H42 H -0.0060 0.5342 0.1567
C62 C 0.0023(2) 0.68278(15) 0.13002(9)
H43 H 0.0931 0.7171 0.1608
C63 C -0.0714(3) 0.74156(15) 0.08775(9)
H44 H -0.0311 0.8162 0.0894
C64 C -0.2041(3) 0.69126(15) 0.04308(9)
H45 H -0.2550 0.7318 0.0142
C65 C -0.2628(2) 0.58267(15) 0.04020(8)
H46 H -0.3539 0.5489 0.0094
C66 C -0.2374(3) 0.07734(18) 0.18103(12)
H47 H -0.1902 0.0106 0.1655
H48 H -0.3645 0.0709 0.1701
H49 H -0.2181 0.0926 0.2261
S2? S 0.2611(16) 0.1708(8) 0.7495(4)
O2? O 1.1223(12) 0.3826(10) 0.4692(6)
N2? N 0.5122(7) 0.2315(4) 0.6442(2)
C27? C 0.9634(12) 0.3629(8) 0.4552(5)
C28? C 0.8393(9) 0.3217(6) 0.5026(3)
C29? C 0.6679(9) 0.3522(5) 0.5059(3)
H20? H 0.6248 0.3931 0.4758
C30? C 0.5551(9) 0.3237(5) 0.5534(3)
C31? C 0.6260(9) 0.2626(5) 0.5945(3)
C32? C 0.7968(8) 0.2297(5) 0.5918(3)
H21? H 0.8389 0.1868 0.6209
C33? C 0.9057(9) 0.2615(6) 0.5449(3)
H22? H 1.0252 0.2418 0.5423
C34? C 0.8847(15) 0.3856(9) 0.3950(5)
C35? C 0.7424(18) 0.3179(11) 0.3610(6)
H23? H 0.6900 0.2563 0.3772
C36? C 0.6789(19) 0.3403(11) 0.3046(6)
H24? H 0.5839 0.2928 0.2815
C37? C 0.750(2) 0.4312(12) 0.2800(5)
H25? H 0.7025 0.4475 0.2413
C38? C 0.8953(19) 0.4984(10) 0.3141(6)
H26? H 0.9473 0.5609 0.2985
C39? C 0.9598(18) 0.4730(10) 0.3693(6)
H27? H 1.0607 0.5171 0.3910
C40? C 0.3759(9) 0.3624(6) 0.5600(3)
H28? H 0.3526 0.4032 0.5267
H29? H 0.2854 0.3015 0.5572
H30? H 0.3727 0.4077 0.6000
S4? S 0.437(2) -0.0389(9) 0.2247(5)
H50? H -0.2058 0.1075 0.1698
C67? C 0.3029(14) 0.2628(9) 0.1286(5)
H51? H 0.3350 0.1983 0.1034
H52? H 0.3439 0.2645 0.1717
H53? H 0.3586 0.3253 0.1131
loop_
_geom_bond_atom_site_label_1
_geom_bond_atom_site_label_2
_geom_bond_site_symmetry_1
_geom_bond_site_symmetry_2
S1 C9 1_555 1_555
O1 C1 1_555 1_555
N1 C5 1_555 1_555
C1 C2 1_555 1_555
C2 C3 1_555 1_555
C3 H1 1_555 1_555
C4 C3 1_555 1_555
H2 C4 1_555 1_555
C5 C4 1_555 1_555
C6 C5 1_555 1_555
C7 C2 1_555 1_555
H3 C7 1_555 1_555
C8 N1 1_555 1_555
C9 C8 1_555 1_555
C10 C9 1_555 1_555
H4 C10 1_555 1_555
C11 C10 1_555 1_555
H5 C11 1_555 1_555
C12 C11 1_555 1_555
H6 C12 1_555 1_555
C13 C8 1_555 1_555
H7 C13 1_555 1_555
C14 N1 1_555 1_555
C15 S1 1_555 1_555
C16 C15 1_555 1_555
H8 C16 1_555 1_555
C17 C16 1_555 1_555
H9 C17 1_555 1_555
C18 C17 1_555 1_555
H10 C18 1_555 1_555
C19 C14 1_555 1_555
H11 C19 1_555 1_555
C20 C1 1_555 1_555
C21 C20 1_555 1_555
H12 C21 1_555 1_555
C22 C21 1_555 1_555
H13 C22 1_555 1_555
C23 C22 1_555 1_555
H14 C23 1_555 1_555
C24 C23 1_555 1_555
H15 C24 1_555 1_555
C25 C20 1_555 1_555
H16 C25 1_555 1_555
C26 C6 1_555 1_555
H17 C26 1_555 1_555
H18 C26 1_555 1_555
H19 C26 1_555 1_555
S3 C49 1_555 1_555
O3 C41 1_555 1_555
N3 C45 1_555 1_555
C41 C42 1_555 1_555
C42 C43 1_555 1_555
C43 H31 1_555 1_555
C44 C43 1_555 1_555
H32 C44 1_555 1_555
C45 C44 1_555 1_555
C46 C45 1_555 1_555
C47 C42 1_555 1_555
H33 C47 1_555 1_555
C48 N3 1_555 1_555
C49 C48 1_555 1_555
C50 C49 1_555 1_555
H34 C50 1_555 1_555
C51 C50 1_555 1_555
H35 C51 1_555 1_555
C52 C51 1_555 1_555
H36 C52 1_555 1_555
C53 C48 1_555 1_555
H37 C53 1_555 1_555
C54 N3 1_555 1_555
C55 S3 1_555 1_555
C56 C55 1_555 1_555
H38 C56 1_555 1_555
C57 C56 1_555 1_555
H39 C57 1_555 1_555
C58 C57 1_555 1_555
H40 C58 1_555 1_555
C59 C54 1_555 1_555
H41 C59 1_555 1_555
C60 C41 1_555 1_555
C61 C60 1_555 1_555
H42 C61 1_555 1_555
C62 C61 1_555 1_555
H43 C62 1_555 1_555
C63 C62 1_555 1_555
H44 C63 1_555 1_555
C64 C63 1_555 1_555
H45 C64 1_555 1_555
C65 C60 1_555 1_555
H46 C65 1_555 1_555
C66 C46 1_555 1_555
H47 C66 1_555 1_555
H48 C66 1_555 1_555
H49 C66 1_555 1_555
C6 C7 1_555 1_555
C12 C13 1_555 1_555
C14 C15 1_555 1_555
C18 C19 1_555 1_555
C24 C25 1_555 1_555
C46 C47 1_555 1_555
C52 C53 1_555 1_555
C54 C55 1_555 1_555
C58 C59 1_555 1_555
C64 C65 1_555 1_555

#END
