
#######################################################################
#
#                 Cambridge Crystallographic Data Centre
#                                CCDC 
#
#######################################################################
#
# If this CIF has been generated from an entry in the Cambridge 
# Structural Database, then it will include bibliographic, chemical, 
# crystal, experimental, refinement or atomic coordinate data resulting 
# from the CCDC's data processing and validation procedures.
#
#######################################################################

data_YIQVIE01
_chemical_formula_moiety         'C23 H30 O3'
_chemical_name_systematic        
14\b-Hydrogen-15\b,16\b-methano-3-oxo-17\a-pregn-4-ene-21,17-carbolactone
_symmetry_cell_setting           orthorhombic
_symmetry_space_group_name_H-M   'P 21 21 21'
_symmetry_Int_Tables_number      19
_space_group_name_Hall           'P 2ac 2ab'
loop_
_symmetry_equiv_pos_site_id
_symmetry_equiv_pos_as_xyz
1 x,y,z
2 1/2-x,-y,1/2+z
3 -x,1/2+y,1/2-z
4 1/2+x,1/2-y,-z
_cell_length_a                   7.2458(9)
_cell_length_b                   7.5710(9)
_cell_length_c                   34.793(4)
_cell_angle_alpha                90
_cell_angle_beta                 90
_cell_angle_gamma                90
_cell_volume                     1908.67
_cell_formula_units_Z            4
loop_
_atom_site_label
_atom_site_type_symbol
_atom_site_fract_x
_atom_site_fract_y
_atom_site_fract_z
C1 C 0.8290(3) 0.5947(3) 0.01758(5)
H1 H 0.8126 0.7217 0.0190
H2 H 0.9604 0.5712 0.0161
C2 C 0.7367(4) 0.5268(3) -0.01896(6)
H3 H 0.6088 0.5645 -0.0192
H4 H 0.7974 0.5783 -0.0411
C3 C 0.7444(3) 0.3303(4) -0.02199(6)
C4 C 0.7376(3) 0.2351(3) 0.01422(6)
H5 H 0.7375 0.1124 0.0133
C5 C 0.7315(3) 0.3124(3) 0.04894(5)
C6 C 0.6997(3) 0.2045(2) 0.08443(5)
H6 H 0.7011 0.0801 0.0778
H7 H 0.5790 0.2321 0.0949
C7 C 0.8465(3) 0.2401(2) 0.11485(5)
H8 H 0.8170 0.1748 0.1380
H9 H 0.9654 0.1994 0.1056
C8 C 0.8574(3) 0.4361(2) 0.12404(5)
H10 H 0.7362 0.4709 0.1340
C9 C 0.8921(3) 0.5463(2) 0.08793(5)
H11 H 1.0142 0.5123 0.0783
C10 C 0.7524(3) 0.5104(2) 0.05459(5)
C11 C 0.9044(3) 0.7413(2) 0.09880(6)
H12 H 0.9326 0.8100 0.0760
H13 H 0.7856 0.7803 0.1085
C12 C 1.0512(3) 0.7753(3) 0.12913(5)
H14 H 1.0537 0.9005 0.1350
H15 H 1.1709 0.7435 0.1187
C13 C 1.0186(3) 0.6714(2) 0.16644(5)
C14 C 0.9984(3) 0.4734(2) 0.15606(5)
H16 H 0.9558 0.4118 0.1792
C15 C 1.1962(3) 0.4137(2) 0.14841(5)
H17 H 1.2320 0.3769 0.1225
C16 C 1.3200(3) 0.5365(3) 0.17077(5)
H18 H 1.4357 0.5747 0.1588
C17 C 1.2000(3) 0.6751(2) 0.18975(5)
C18 C 0.8539(3) 0.7442(3) 0.18874(6)
H19 H 0.8802 0.8626 0.1970
H20 H 0.8310 0.6713 0.2108
H21 H 0.7468 0.7447 0.1725
C19 C 0.5594(3) 0.5865(3) 0.06330(6)
H22 H 0.4745 0.5499 0.0437
H23 H 0.5658 0.7131 0.0639
H24 H 0.5178 0.5437 0.0878
C20 C 1.2909(3) 0.8559(3) 0.19537(6)
H25 H 1.3821 0.8783 0.1756
H26 H 1.1996 0.9496 0.1949
C21 C 1.3805(3) 0.8419(3) 0.23449(6)
H27 H 1.5077 0.8032 0.2323
H28 H 1.3773 0.9544 0.2478
C22 C 1.2662(3) 0.7077(3) 0.25481(6)
C23 C 1.3018(3) 0.3464(3) 0.18222(6)
H29 H 1.4058 0.2689 0.1773
H30 H 1.2333 0.3199 0.2055
O1 O 0.7475(2) 0.2543(3) -0.05294(4)
O2 O 1.2644(3) 0.6736(2) 0.28837(4)
O3 O 1.1595(2) 0.62128(17) 0.22959(3)
loop_
_geom_bond_atom_site_label_1
_geom_bond_atom_site_label_2
_geom_bond_site_symmetry_1
_geom_bond_site_symmetry_2
C1 H1 1_555 1_555
H2 C1 1_555 1_555
C2 C1 1_555 1_555
H3 C2 1_555 1_555
H4 C2 1_555 1_555
C3 C2 1_555 1_555
C4 C3 1_555 1_555
H5 C4 1_555 1_555
C5 C4 1_555 1_555
C6 C5 1_555 1_555
H6 C6 1_555 1_555
H7 C6 1_555 1_555
C7 C6 1_555 1_555
H8 C7 1_555 1_555
H9 C7 1_555 1_555
C8 C7 1_555 1_555
H10 C8 1_555 1_555
C9 C8 1_555 1_555
H11 C9 1_555 1_555
C10 C1 1_555 1_555
C11 C9 1_555 1_555
H12 C11 1_555 1_555
H13 C11 1_555 1_555
C12 C11 1_555 1_555
H14 C12 1_555 1_555
H15 C12 1_555 1_555
C13 C12 1_555 1_555
C14 C8 1_555 1_555
H16 C14 1_555 1_555
C15 C14 1_555 1_555
H17 C15 1_555 1_555
C16 C15 1_555 1_555
H18 C16 1_555 1_555
C17 C13 1_555 1_555
C18 C13 1_555 1_555
H19 C18 1_555 1_555
H20 C18 1_555 1_555
H21 C18 1_555 1_555
C19 C10 1_555 1_555
H22 C19 1_555 1_555
H23 C19 1_555 1_555
H24 C19 1_555 1_555
C20 C17 1_555 1_555
H25 C20 1_555 1_555
H26 C20 1_555 1_555
C21 C20 1_555 1_555
H27 C21 1_555 1_555
H28 C21 1_555 1_555
C22 C21 1_555 1_555
C23 C15 1_555 1_555
H29 C23 1_555 1_555
H30 C23 1_555 1_555
O1 C3 1_555 1_555
O2 C22 1_555 1_555
O3 C17 1_555 1_555
C5 C10 1_555 1_555
C9 C10 1_555 1_555
C13 C14 1_555 1_555
C16 C17 1_555 1_555
C16 C23 1_555 1_555
C22 O3 1_555 1_555

#END
