
#######################################################################
#
#                 Cambridge Crystallographic Data Centre
#                                CCDC 
#
#######################################################################
#
# If this CIF has been generated from an entry in the Cambridge 
# Structural Database, then it will include bibliographic, chemical, 
# crystal, experimental, refinement or atomic coordinate data resulting 
# from the CCDC's data processing and validation procedures.
#
#######################################################################

data_YIQWUR
_chemical_formula_moiety         'C10 H9 Cl1 N2 O1'
_chemical_name_systematic        
5-Chloromethyl-3-(4-methylphenyl)-1,2,4-oxadiazole
_symmetry_cell_setting           monoclinic
_symmetry_space_group_name_H-M   'C 2/c'
_symmetry_Int_Tables_number      15
_space_group_name_Hall           '-C 2yn'
loop_
_symmetry_equiv_pos_site_id
_symmetry_equiv_pos_as_xyz
1 x,y,z
2 1/2+x,1/2+y,z
3 -x,y,1/2-z
4 1/2-x,1/2+y,1/2-z
5 -x,-y,-z
6 1/2-x,1/2-y,-z
7 x,-y,1/2+z
8 1/2+x,1/2-y,1/2+z
_cell_length_a                   25.462(5)
_cell_length_b                   6.4040(13)
_cell_length_c                   14.589(3)
_cell_angle_alpha                90
_cell_angle_beta                 122.83(3)
_cell_angle_gamma                90
_cell_volume                     1998.92
_exptl_crystal_colour            colorless
_exptl_crystal_description       block
_cell_formula_units_Z            8
_exptl_crystal_recrystallization_method ethanol
loop_
_atom_site_label
_atom_site_type_symbol
_atom_site_fract_x
_atom_site_fract_y
_atom_site_fract_z
Cl1 Cl 0.02222(5) 0.14389(18) 0.38492(8)
O1 O 0.08264(11) 0.5594(4) 0.5539(2)
N1 N 0.13240(13) 0.7029(4) 0.5847(3)
N2 N 0.16296(12) 0.3737(4) 0.5827(2)
C1 C 0.41839(18) 0.8720(6) 0.7058(3)
H1 H 0.4470 0.7565 0.7324
H2 H 0.4341 0.9795 0.7603
H3 H 0.4141 0.9262 0.6407
C2 C 0.35583(15) 0.7997(6) 0.6807(3)
C3 C 0.34571(16) 0.5951(5) 0.6953(3)
H4 H 0.3785 0.5003 0.7223
C4 C 0.28841(15) 0.5270(5) 0.6712(3)
H5 H 0.2830 0.3877 0.6823
C5 C 0.23873(15) 0.6639(5) 0.6305(2)
C6 C 0.24793(17) 0.8724(5) 0.6149(3)
H6 H 0.2152 0.9675 0.5877
C7 C 0.30605(18) 0.9360(5) 0.6403(3)
H7 H 0.3119 1.0752 0.6299
C8 C 0.17730(14) 0.5851(5) 0.5989(2)
C9 C 0.10588(16) 0.3704(5) 0.5555(2)
C10 C 0.06392(17) 0.1880(5) 0.5267(3)
H8 H 0.0348 0.2134 0.5489
H9 H 0.0884 0.0652 0.5650
loop_
_geom_bond_atom_site_label_1
_geom_bond_atom_site_label_2
_geom_bond_site_symmetry_1
_geom_bond_site_symmetry_2
Cl1 C10 1_555 1_555
O1 N1 1_555 1_555
N1 C8 1_555 1_555
N2 C8 1_555 1_555
C1 H1 1_555 1_555
H2 C1 1_555 1_555
H3 C1 1_555 1_555
C2 C1 1_555 1_555
C3 C2 1_555 1_555
H4 C3 1_555 1_555
C4 C3 1_555 1_555
H5 C4 1_555 1_555
C5 C4 1_555 1_555
C6 C5 1_555 1_555
H6 C6 1_555 1_555
C7 C2 1_555 1_555
H7 C7 1_555 1_555
C8 C5 1_555 1_555
C9 O1 1_555 1_555
C10 C9 1_555 1_555
H8 C10 1_555 1_555
H9 C10 1_555 1_555
N2 C9 1_555 1_555
C6 C7 1_555 1_555

#END
