
#######################################################################
#
#                 Cambridge Crystallographic Data Centre
#                                CCDC 
#
#######################################################################
#
# If this CIF has been generated from an entry in the Cambridge 
# Structural Database, then it will include bibliographic, chemical, 
# crystal, experimental, refinement or atomic coordinate data resulting 
# from the CCDC's data processing and validation procedures.
#
#######################################################################

data_YIQXUS
_chemical_formula_moiety         'C19 H20 Cl2 N3 O3 P1 S1'
_chemical_name_systematic        
'(R,S)-Diethyl ((5-(2,4-dichlorophenyl)-1,3,4-thiadiazol-2-ylamino)(phenyl)methyl)phosphonate'
_symmetry_cell_setting           monoclinic
_symmetry_space_group_name_H-M   'P 21/n'
_symmetry_Int_Tables_number      14
_space_group_name_Hall           '-P 2yn'
loop_
_symmetry_equiv_pos_site_id
_symmetry_equiv_pos_as_xyz
1 x,y,z
2 1/2-x,1/2+y,1/2-z
3 -x,-y,-z
4 1/2+x,1/2-y,1/2+z
_cell_length_a                   8.4870(17)
_cell_length_b                   16.530(3)
_cell_length_c                   15.703(3)
_cell_angle_alpha                90
_cell_angle_beta                 94.47(3)
_cell_angle_gamma                90
_cell_volume                     2196.27
_exptl_crystal_colour            colorless
_exptl_crystal_description       needle
_chemical_melting_point          '453-454 K'
_cell_formula_units_Z            4
_exptl_crystal_recrystallization_method acetone
loop_
_atom_site_label
_atom_site_type_symbol
_atom_site_fract_x
_atom_site_fract_y
_atom_site_fract_z
Cl1 Cl 0.3460(3) 0.37335(12) 0.14352(10)
Cl2 Cl 0.3666(2) 0.44309(12) -0.18670(9)
S1 S 0.1558(2) 0.48605(11) 0.25006(9)
P1 P 0.0393(2) 0.65490(13) 0.52266(9)
O1 O 0.2180(6) 0.6788(3) 0.5237(2)
O2 O 0.0005(6) 0.5841(3) 0.5707(2)
O3 O -0.0427(5) 0.7339(3) 0.5529(2)
N1 N 0.0476(5) 0.5763(3) 0.3769(2)
H1 H 0.0697 0.5357 0.4099
N2 N 0.0586(6) 0.6318(3) 0.2402(3)
N3 N 0.1044(6) 0.6122(3) 0.1607(3)
C1 C 0.3610(7) 0.6550(4) 0.6493(4)
H2 H 0.4266 0.6728 0.6983
H3 H 0.4184 0.6170 0.6174
H4 H 0.2679 0.6294 0.6678
C2 C 0.3175(8) 0.7211(4) 0.5980(4)
H5 H 0.4090 0.7483 0.5780
H6 H 0.2548 0.7596 0.6275
C3 C -0.1313(9) 0.7382(5) 0.6870(5)
H7 H -0.2156 0.7363 0.7243
H8 H -0.0786 0.7895 0.6929
H9 H -0.0574 0.6956 0.7017
C4 C -0.1941(9) 0.7282(5) 0.6014(4)
H10 H -0.2685 0.7708 0.5842
H11 H -0.2454 0.6760 0.5928
C5 C -0.0214(6) 0.6487(4) 0.4094(3)
H12 H 0.0225 0.6954 0.3810
C6 C -0.1952(8) 0.6534(5) 0.3975(3)
C7 C -0.2645(8) 0.7291(5) 0.3791(4)
H13 H -0.2045 0.7752 0.3711
C8 C -0.4350(10) 0.7307(6) 0.3735(4)
H14 H -0.4841 0.7805 0.3632
C9 C -0.5298(10) 0.6650(6) 0.3820(4)
H15 H -0.6394 0.6689 0.3761
C10 C -0.4547(10) 0.5930(5) 0.3999(4)
H16 H -0.5146 0.5470 0.4085
C11 C -0.2943(8) 0.5873(5) 0.4053(4)
H17 H -0.2487 0.5366 0.4147
C12 C 0.0776(6) 0.5735(4) 0.2916(3)
C13 C 0.1598(7) 0.5399(4) 0.1552(3)
C14 C 0.2134(6) 0.5107(4) 0.0727(3)
C15 C 0.1763(7) 0.5587(4) 0.0007(3)
H18 H 0.1172 0.6056 0.0058
C16 C 0.2262(7) 0.5374(4) -0.0786(3)
H19 H 0.2031 0.5702 -0.1261
C17 C 0.3105(7) 0.4667(4) -0.0856(3)
C18 C 0.3452(7) 0.4183(4) -0.0185(3)
H20 H 0.4053 0.3718 -0.0239
C19 C 0.2892(7) 0.4390(4) 0.0592(3)
loop_
_geom_bond_atom_site_label_1
_geom_bond_atom_site_label_2
_geom_bond_site_symmetry_1
_geom_bond_site_symmetry_2
Cl1 C19 1_555 1_555
Cl2 C17 1_555 1_555
S1 C12 1_555 1_555
P1 O1 1_555 1_555
O1 C2 1_555 1_555
O2 P1 1_555 1_555
O3 P1 1_555 1_555
N1 H1 1_555 1_555
N2 N3 1_555 1_555
N3 C13 1_555 1_555
C1 H2 1_555 1_555
H3 C1 1_555 1_555
H4 C1 1_555 1_555
C2 C1 1_555 1_555
H5 C2 1_555 1_555
H6 C2 1_555 1_555
C3 H7 1_555 1_555
H8 C3 1_555 1_555
H9 C3 1_555 1_555
C4 O3 1_555 1_555
H10 C4 1_555 1_555
H11 C4 1_555 1_555
C5 P1 1_555 1_555
H12 C5 1_555 1_555
C6 C5 1_555 1_555
C7 C6 1_555 1_555
H13 C7 1_555 1_555
C8 C7 1_555 1_555
H14 C8 1_555 1_555
C9 C8 1_555 1_555
H15 C9 1_555 1_555
C10 C9 1_555 1_555
H16 C10 1_555 1_555
C11 C6 1_555 1_555
H17 C11 1_555 1_555
C12 N1 1_555 1_555
C13 S1 1_555 1_555
C14 C13 1_555 1_555
C15 C14 1_555 1_555
H18 C15 1_555 1_555
C16 C15 1_555 1_555
H19 C16 1_555 1_555
C17 C16 1_555 1_555
C18 C17 1_555 1_555
H20 C18 1_555 1_555
C19 C14 1_555 1_555
N1 C5 1_555 1_555
N2 C12 1_555 1_555
C3 C4 1_555 1_555
C10 C11 1_555 1_555
C18 C19 1_555 1_555

#END
