
#######################################################################
#
#                 Cambridge Crystallographic Data Centre
#                                CCDC 
#
#######################################################################
#
# If this CIF has been generated from an entry in the Cambridge 
# Structural Database, then it will include bibliographic, chemical, 
# crystal, experimental, refinement or atomic coordinate data resulting 
# from the CCDC's data processing and validation procedures.
#
#######################################################################

data_YIQXEC
_chemical_formula_moiety         'C17 H18 Cl1 N2 O2 S1 1+,Br1 1-'
_chemical_name_systematic        
'5-(4-Chlorophenyl)-6-ethoxycarbonyl-3,7-dimethyl-5H-thiazolo(3,2-a)pyrimidin-8-ium bromide'
_symmetry_cell_setting           monoclinic
_symmetry_space_group_name_H-M   'C 2/c'
_symmetry_Int_Tables_number      15
_space_group_name_Hall           '-C 2yn'
loop_
_symmetry_equiv_pos_site_id
_symmetry_equiv_pos_as_xyz
1 x,y,z
2 1/2+x,1/2+y,z
3 -x,y,1/2-z
4 1/2-x,1/2+y,1/2-z
5 -x,-y,-z
6 1/2-x,1/2-y,-z
7 x,-y,1/2+z
8 1/2+x,1/2-y,1/2+z
_cell_length_a                   25.457(2)
_cell_length_b                   11.697(2)
_cell_length_c                   14.231(3)
_cell_angle_alpha                90
_cell_angle_beta                 106.8080(16)
_cell_angle_gamma                90
_cell_volume                     4056.54
_exptl_crystal_colour            colorless
_exptl_crystal_description       block
_chemical_melting_point          '513-514 K'
_cell_formula_units_Z            8
_exptl_crystal_recrystallization_method ethanol
loop_
_atom_site_label
_atom_site_type_symbol
_atom_site_fract_x
_atom_site_fract_y
_atom_site_fract_z
Br1 Br 0.193130(15) 0.08363(3) 0.11668(3)
C1 C 0.05124(13) 0.2550(3) 0.5811(2)
C2 C 0.00250(15) 0.2082(3) 0.5272(3)
H1 H 0.0025 0.1379 0.4966
C3 C -0.04725(15) 0.2644(3) 0.5177(3)
H2 H -0.0803 0.2330 0.4808
C4 C -0.04561(15) 0.3696(3) 0.5654(3)
C5 C 0.00383(16) 0.4186(3) 0.6183(3)
H3 H 0.0042 0.4902 0.6469
C6 C 0.05217(14) 0.3609(3) 0.6283(3)
H4 H 0.0853 0.3916 0.6659
C7 C 0.10663(12) 0.1866(3) 0.5932(2)
H5 H 0.0983 0.1127 0.5597
C8 C 0.14678(12) 0.2529(3) 0.5513(2)
C9 C 0.19109(13) 0.3174(3) 0.6071(2)
S1 S 0.19598(4) 0.18989(8) 0.88153(6)
C10 C 0.17799(13) 0.2276(3) 0.7561(2)
C11 C 0.14183(14) 0.0864(3) 0.8572(3)
H6 H 0.1333 0.0420 0.9050
C12 C 0.11427(14) 0.0811(3) 0.7576(3)
C13 C 0.06841(13) 0.0014(3) 0.7070(3)
H7 H 0.0659 -0.0591 0.7511
H8 H 0.0756 -0.0303 0.6498
H9 H 0.0344 0.0429 0.6880
C14 C 0.23141(13) 0.3942(3) 0.5837(3)
H10 H 0.2168 0.4228 0.5180
H11 H 0.2647 0.3528 0.5886
H12 H 0.2391 0.4570 0.6290
C15 C 0.13101(13) 0.2443(3) 0.4422(2)
C16 C 0.14414(14) 0.3068(3) 0.2878(2)
H13 H 0.1052 0.3235 0.2631
H14 H 0.1504 0.2310 0.2656
C17 C 0.17647(16) 0.3939(3) 0.2484(3)
H15 H 0.2148 0.3753 0.2708
H16 H 0.1707 0.4687 0.2715
H17 H 0.1643 0.3930 0.1780
Cl1 Cl -0.10751(4) 0.44589(8) 0.55951(7)
N1 N 0.20339(11) 0.3071(3) 0.7143(2)
H18 H 0.2272(15) 0.352(3) 0.751(3)
N2 N 0.13435(11) 0.1668(2) 0.70220(18)
O1 O 0.09178(10) 0.1876(2) 0.39502(17)
O2 O 0.16151(9) 0.31004(19) 0.39710(16)
loop_
_geom_bond_atom_site_label_1
_geom_bond_atom_site_label_2
_geom_bond_site_symmetry_1
_geom_bond_site_symmetry_2
C1 C2 1_555 1_555
C2 H1 1_555 1_555
C3 C2 1_555 1_555
H2 C3 1_555 1_555
C4 C3 1_555 1_555
C5 C4 1_555 1_555
H3 C5 1_555 1_555
C6 C1 1_555 1_555
H4 C6 1_555 1_555
C7 C1 1_555 1_555
H5 C7 1_555 1_555
C8 C7 1_555 1_555
C9 C8 1_555 1_555
S1 C10 1_555 1_555
C10 N1 1_555 1_555
C11 S1 1_555 1_555
H6 C11 1_555 1_555
C12 C11 1_555 1_555
C13 C12 1_555 1_555
H7 C13 1_555 1_555
H8 C13 1_555 1_555
H9 C13 1_555 1_555
C14 C9 1_555 1_555
H10 C14 1_555 1_555
H11 C14 1_555 1_555
H12 C14 1_555 1_555
C15 C8 1_555 1_555
C16 H13 1_555 1_555
H14 C16 1_555 1_555
C17 C16 1_555 1_555
H15 C17 1_555 1_555
H16 C17 1_555 1_555
H17 C17 1_555 1_555
Cl1 C4 1_555 1_555
N1 C9 1_555 1_555
H18 N1 1_555 1_555
N2 C7 1_555 1_555
O1 C15 1_555 1_555
O2 C15 1_555 1_555
C5 C6 1_555 1_555
C10 N2 1_555 1_555
C12 N2 1_555 1_555
C16 O2 1_555 1_555

#END
