
#######################################################################
#
#                 Cambridge Crystallographic Data Centre
#                                CCDC 
#
#######################################################################
#
# If this CIF has been generated from an entry in the Cambridge 
# Structural Database, then it will include bibliographic, chemical, 
# crystal, experimental, refinement or atomic coordinate data resulting 
# from the CCDC's data processing and validation procedures.
#
#######################################################################

data_YIQYAZ
_chemical_formula_moiety         'C8 H6 Cl1 N3 O1'
_chemical_name_systematic        
3-(5-(Chloromethyl)-1,2,4-oxadiazol-3-yl)pyridine
_symmetry_cell_setting           monoclinic
_symmetry_space_group_name_H-M   'P 21/c'
_symmetry_Int_Tables_number      14
_space_group_name_Hall           '-P 2ybc'
loop_
_symmetry_equiv_pos_site_id
_symmetry_equiv_pos_as_xyz
1 x,y,z
2 -x,1/2+y,1/2-z
3 -x,-y,-z
4 x,1/2-y,1/2+z
_cell_length_a                   10.512(2)
_cell_length_b                   11.486(2)
_cell_length_c                   7.2080(14)
_cell_angle_alpha                90
_cell_angle_beta                 94.11(3)
_cell_angle_gamma                90
_cell_volume                     868.062
_exptl_crystal_colour            colorless
_exptl_crystal_description       block
_cell_formula_units_Z            4
_exptl_crystal_recrystallization_method ethanol
loop_
_atom_site_label
_atom_site_type_symbol
_atom_site_fract_x
_atom_site_fract_y
_atom_site_fract_z
Cl1 Cl 0.52306(14) 0.64720(16) 0.1385(2)
O1 O 0.7692(3) 0.4888(3) 0.0884(5)
N1 N 0.8725(4) 0.6501(3) 0.1618(6)
C1 C 0.6560(5) 0.6635(5) 0.0065(7)
H1 H 0.6353 0.6329 -0.1174
H2 H 0.6745 0.7458 -0.0055
N2 N 0.8883(4) 0.4531(4) 0.1708(6)
C2 C 0.7692(5) 0.6047(5) 0.0876(7)
C3 C 1.2517(5) 0.6678(5) 0.4255(9)
H3 H 1.2924 0.7383 0.4530
C4 C 0.9434(5) 0.5523(4) 0.2100(6)
C5 C 1.0744(5) 0.5578(4) 0.3039(7)
C6 C 1.1302(5) 0.6650(4) 0.3419(8)
H4 H 1.0865 0.7335 0.3117
C7 C 1.3113(5) 0.5643(5) 0.4673(8)
H5 H 1.3932 0.5676 0.5251
N3 N 1.2620(4) 0.4590(4) 0.4320(7)
C8 C 1.1440(5) 0.4579(5) 0.3476(7)
H6 H 1.1070 0.3863 0.3168
loop_
_geom_bond_atom_site_label_1
_geom_bond_atom_site_label_2
_geom_bond_site_symmetry_1
_geom_bond_site_symmetry_2
Cl1 C1 1_555 1_555
O1 N2 1_555 1_555
N1 C2 1_555 1_555
C1 H1 1_555 1_555
H2 C1 1_555 1_555
N2 C4 1_555 1_555
C2 O1 1_555 1_555
C3 H3 1_555 1_555
C4 N1 1_555 1_555
C5 C4 1_555 1_555
C6 C3 1_555 1_555
H4 C6 1_555 1_555
C7 C3 1_555 1_555
H5 C7 1_555 1_555
N3 C7 1_555 1_555
C8 C5 1_555 1_555
H6 C8 1_555 1_555
C1 C2 1_555 1_555
C5 C6 1_555 1_555
N3 C8 1_555 1_555

#END
