
#######################################################################
#
#                 Cambridge Crystallographic Data Centre
#                                CCDC 
#
#######################################################################
#
# If this CIF has been generated from an entry in the Cambridge 
# Structural Database, then it will include bibliographic, chemical, 
# crystal, experimental, refinement or atomic coordinate data resulting 
# from the CCDC's data processing and validation procedures.
#
#######################################################################

data_YIQYII
_chemical_formula_moiety         'C24 H20 O2'
_chemical_name_systematic        'Methyl 2,4,5-triphenylpenta-2,4-dienoate'
_symmetry_cell_setting           monoclinic
_symmetry_space_group_name_H-M   'P c'
_symmetry_Int_Tables_number      7
_space_group_name_Hall           'P -2yc'
loop_
_symmetry_equiv_pos_site_id
_symmetry_equiv_pos_as_xyz
1 x,y,z
2 x,-y,1/2+z
_cell_length_a                   8.8894(18)
_cell_length_b                   9.5354(19)
_cell_length_c                   22.333(5)
_cell_angle_alpha                90
_cell_angle_beta                 95.64(3)
_cell_angle_gamma                90
_cell_volume                     1883.87
_exptl_crystal_colour            colorless
_exptl_crystal_description       block
_cell_formula_units_Z            4
loop_
_atom_site_label
_atom_site_type_symbol
_atom_site_fract_x
_atom_site_fract_y
_atom_site_fract_z
C1 C 0.5750(7) 1.1951(7) 0.2771(3)
C2 C 0.4095(10) 1.2435(8) 0.1910(3)
H1 H 0.3883 1.3272 0.2125
H2 H 0.3165 1.2043 0.1727
H3 H 0.4740 1.2659 0.1603
C3 C 0.6504(6) 1.0862(6) 0.3156(2)
C4 C 0.6953(6) 1.1240(5) 0.3725(2)
H4 H 0.6625 1.2096 0.3864
C5 C 0.7991(9) 1.0314(7) 0.4159(3)
C6 C 0.7690(9) 1.0076(7) 0.4657(3)
H5 H 0.8456 0.9671 0.4914
C7 C 0.6644(6) 0.9403(5) 0.2935(2)
C8 C 0.7263(7) 0.9136(7) 0.2403(3)
H6 H 0.7630 0.9877 0.2189
C9 C 0.7344(8) 0.7803(8) 0.2186(3)
H7 H 0.7779 0.7650 0.1830
C10 C 0.6794(8) 0.6682(7) 0.2485(3)
H8 H 0.6828 0.5777 0.2331
C11 C 0.6198(7) 0.6940(6) 0.3012(3)
H9 H 0.5834 0.6198 0.3226
C12 C 0.6126(6) 0.8278(6) 0.3234(2)
H10 H 0.5714 0.8422 0.3596
C13 C 0.9567(6) 0.9803(6) 0.3943(3)
C14 C 1.0209(8) 1.0725(7) 0.3564(3)
H11 H 0.9764 1.1592 0.3473
C15 C 1.1547(9) 1.0334(12) 0.3316(3)
H12 H 1.2012 1.0918 0.3056
C16 C 1.2134(10) 0.9013(13) 0.3485(4)
H13 H 1.3025 0.8706 0.3341
C17 C 1.1433(11) 0.8204(10) 0.3845(4)
H14 H 1.1853 0.7330 0.3942
C18 C 1.0190(8) 0.8542(7) 0.4076(3)
H15 H 0.9744 0.7923 0.4328
C19 C 0.6200(7) 1.0355(6) 0.4929(3)
C20 C 0.6323(7) 1.0289(6) 0.5555(3)
H16 H 0.7271 1.0165 0.5765
C21 C 0.5107(9) 1.0403(7) 0.5863(3)
H17 H 0.5209 1.0336 0.6280
C22 C 0.3751(8) 1.0611(7) 0.5566(3)
H18 H 0.2911 1.0708 0.5780
C23 C 0.3579(7) 1.0685(6) 0.4954(3)
H19 H 0.2623 1.0815 0.4753
C24 C 0.4802(8) 1.0569(6) 0.4635(3)
H20 H 0.4683 1.0636 0.4218
O1 O 0.5951(6) 1.3215(5) 0.28431(19)
O2 O 0.4840(5) 1.1429(5) 0.23212(17)
C25 C 1.0613(7) 0.2867(7) 0.6130(2)
C26 C 1.2103(9) 0.2433(8) 0.7057(3)
H21 H 1.1292 0.2082 0.7268
H22 H 1.2821 0.2913 0.7334
H23 H 1.2593 0.1665 0.6877
C27 C 1.0098(6) 0.3981(5) 0.5679(2)
C28 C 0.9794(7) 0.3536(6) 0.5118(2)
H24 H 0.9873 0.2575 0.5058
C29 C 0.9339(7) 0.4395(5) 0.4569(2)
C30 C 0.8043(6) 0.5151(5) 0.4496(2)
H25 H 0.7904 0.5715 0.4155
C31 C 0.9981(6) 0.5437(6) 0.5894(2)
C32 C 1.0598(6) 0.6562(5) 0.5605(2)
H26 H 1.1101 0.6398 0.5265
C33 C 1.0477(7) 0.7911(6) 0.5812(3)
H27 H 1.0906 0.8646 0.5614
C34 C 0.9716(8) 0.8187(7) 0.6314(3)
H28 H 0.9645 0.9098 0.6458
C35 C 0.9089(8) 0.7114(7) 0.6587(3)
H29 H 0.8559 0.7296 0.6918
C36 C 0.9205(7) 0.5732(6) 0.6391(3)
H30 H 0.8765 0.5009 0.6593
C37 C 1.0411(7) 0.4393(6) 0.4085(3)
C38 C 0.9908(8) 0.4612(7) 0.3488(3)
H31 H 0.8887 0.4740 0.3366
C39 C 1.0978(10) 0.4634(7) 0.3076(3)
H32 H 1.0654 0.4771 0.2672
C40 C 1.2536(10) 0.4457(8) 0.3246(3)
H33 H 1.3237 0.4503 0.2964
C41 C 1.2977(8) 0.4215(6) 0.3840(3)
H34 H 1.3994 0.4076 0.3966
C42 C 1.1930(8) 0.4177(6) 0.4251(3)
H35 H 1.2252 0.4002 0.4653
C43 C 0.6819(7) 0.5172(6) 0.4905(2)
C44 C 0.6022(8) 0.6425(6) 0.4901(3)
H36 H 0.6270 0.7164 0.4657
C45 C 0.4835(9) 0.6566(7) 0.5269(4)
H37 H 0.4295 0.7401 0.5276
C46 C 0.4491(8) 0.5458(8) 0.5615(3)
H38 H 0.3719 0.5549 0.5865
C47 C 0.5243(8) 0.4230(8) 0.5604(3)
H39 H 0.4986 0.3481 0.5841
C48 C 0.6390(7) 0.4099(6) 0.5239(3)
H40 H 0.6885 0.3242 0.5223
O3 O 1.0313(5) 0.1668(5) 0.6078(2)
O4 O 1.1497(5) 0.3410(4) 0.65853(17)
loop_
_geom_bond_atom_site_label_1
_geom_bond_atom_site_label_2
_geom_bond_site_symmetry_1
_geom_bond_site_symmetry_2
C1 C3 1_555 1_555
C2 H1 1_555 1_555
H2 C2 1_555 1_555
H3 C2 1_555 1_555
C3 C4 1_555 1_555
C4 H4 1_555 1_555
C5 C4 1_555 1_555
C6 C5 1_555 1_555
H5 C6 1_555 1_555
C7 C3 1_555 1_555
C8 C7 1_555 1_555
H6 C8 1_555 1_555
C9 C8 1_555 1_555
H7 C9 1_555 1_555
C10 C9 1_555 1_555
H8 C10 1_555 1_555
C11 C10 1_555 1_555
H9 C11 1_555 1_555
C12 C7 1_555 1_555
H10 C12 1_555 1_555
C13 C5 1_555 1_555
C14 C13 1_555 1_555
H11 C14 1_555 1_555
C15 C14 1_555 1_555
H12 C15 1_555 1_555
C16 C15 1_555 1_555
H13 C16 1_555 1_555
C17 C16 1_555 1_555
H14 C17 1_555 1_555
C18 C13 1_555 1_555
H15 C18 1_555 1_555
C19 C6 1_555 1_555
C20 C19 1_555 1_555
H16 C20 1_555 1_555
C21 C20 1_555 1_555
H17 C21 1_555 1_555
C22 C21 1_555 1_555
H18 C22 1_555 1_555
C23 C22 1_555 1_555
H19 C23 1_555 1_555
C24 C19 1_555 1_555
H20 C24 1_555 1_555
O1 C1 1_555 1_555
O2 C1 1_555 1_555
C25 C27 1_555 1_555
C26 H21 1_555 1_555
H22 C26 1_555 1_555
H23 C26 1_555 1_555
C27 C28 1_555 1_555
C28 H24 1_555 1_555
C29 C28 1_555 1_555
C30 C29 1_555 1_555
H25 C30 1_555 1_555
C31 C27 1_555 1_555
C32 C31 1_555 1_555
H26 C32 1_555 1_555
C33 C32 1_555 1_555
H27 C33 1_555 1_555
C34 C33 1_555 1_555
H28 C34 1_555 1_555
C35 C34 1_555 1_555
H29 C35 1_555 1_555
C36 C31 1_555 1_555
H30 C36 1_555 1_555
C37 C29 1_555 1_555
C38 C37 1_555 1_555
H31 C38 1_555 1_555
C39 C38 1_555 1_555
H32 C39 1_555 1_555
C40 C39 1_555 1_555
H33 C40 1_555 1_555
C41 C40 1_555 1_555
H34 C41 1_555 1_555
C42 C37 1_555 1_555
H35 C42 1_555 1_555
C43 C30 1_555 1_555
C44 C43 1_555 1_555
H36 C44 1_555 1_555
C45 C44 1_555 1_555
H37 C45 1_555 1_555
C46 C45 1_555 1_555
H38 C46 1_555 1_555
C47 C46 1_555 1_555
H39 C47 1_555 1_555
C48 C43 1_555 1_555
H40 C48 1_555 1_555
O3 C25 1_555 1_555
O4 C25 1_555 1_555
C2 O2 1_555 1_555
C11 C12 1_555 1_555
C17 C18 1_555 1_555
C23 C24 1_555 1_555
C26 O4 1_555 1_555
C35 C36 1_555 1_555
C41 C42 1_555 1_555
C47 C48 1_555 1_555

#END
