
#######################################################################
#
#                 Cambridge Crystallographic Data Centre
#                                CCDC 
#
#######################################################################
#
# If this CIF has been generated from an entry in the Cambridge 
# Structural Database, then it will include bibliographic, chemical, 
# crystal, experimental, refinement or atomic coordinate data resulting 
# from the CCDC's data processing and validation procedures.
#
#######################################################################

data_YIQZIJ
_chemical_formula_moiety         'C47 H35 N7 O22 S6,4(C3 H6 O1)'
_chemical_name_systematic        
'4-(bis((4-(bis((4-nitrophenyl)sulfonyl)amino)phenyl)sulfonyl)amino)benzyl 2-methylacrylate acetone solvate'
_symmetry_cell_setting           triclinic
_symmetry_space_group_name_H-M   'P -1'
_symmetry_Int_Tables_number      2
_space_group_name_Hall           '-P 1'
loop_
_symmetry_equiv_pos_site_id
_symmetry_equiv_pos_as_xyz
1 x,y,z
2 -x,-y,-z
_cell_length_a                   14.8302(5)
_cell_length_b                   15.2456(5)
_cell_length_c                   17.2608(6)
_cell_angle_alpha                64.655(3)
_cell_angle_beta                 84.366(2)
_cell_angle_gamma                73.335(2)
_cell_volume                     3377.45
_exptl_crystal_colour            colorless
_exptl_crystal_description       Cube
_cell_formula_units_Z            2
loop_
_atom_site_label
_atom_site_type_symbol
_atom_site_fract_x
_atom_site_fract_y
_atom_site_fract_z
S1 S 0.04534(6) 0.28089(7) 0.75902(6)
S2 S 0.03631(6) 0.33517(7) 1.13298(6)
S3 S -0.15694(6) 0.31774(7) 1.12789(6)
S4 S 0.21251(7) 0.36103(7) 0.70922(6)
S5 S 0.20577(6) 0.34335(7) 0.31688(6)
S6 S 0.33843(6) 0.46701(7) 0.29043(6)
O1 O 0.09392(18) 0.3776(2) 1.06315(16)
O2 O -0.00967(18) 0.3877(2) 1.18268(17)
O3 O 0.4295(3) -0.3430(3) 0.9871(3)
O4 O 0.2178(4) -0.1298(3) 1.4164(3)
O5 O -0.19393(18) 0.2667(2) 1.09121(18)
O6 O -0.14939(19) 0.2831(2) 1.21845(16)
O7 O -0.3992(2) 0.7863(2) 0.89481(19)
O8 O -0.3708(3) 0.8038(3) 1.0055(3)
O9 O 0.12497(17) 0.3346(2) 0.36789(17)
O10 O 0.19757(19) 0.3914(2) 0.22585(16)
O11 O 0.40583(19) 0.4543(2) 0.34997(19)
O12 O 0.3653(2) 0.4335(2) 0.2241(2)
O13 O 0.4721(3) -0.1276(3) 0.5000(3)
O14 O 0.3349(3) -0.1118(3) 1.3343(3)
O15 O 0.1148(3) 0.9479(3) 0.1858(4)
O16 O 0.1148(3) 0.9446(3) 0.0612(4)
O17 O 0.3896(2) -0.1924(2) 0.8764(2)
O18 O 0.5361(3) -0.0820(3) 0.3774(2)
O19 O 0.03294(18) 0.1885(2) 0.76637(17)
O20 O 0.00403(18) 0.3736(2) 0.68892(16)
O21 O 0.14890(19) 0.4489(2) 0.71294(17)
O22 O 0.30450(19) 0.3225(2) 0.74882(17)
N1 N -0.0477(2) 0.3130(2) 1.08991(19)
N2 N 0.2563(3) -0.0810(3) 1.3553(3)
N3 N -0.3654(2) 0.7522(3) 0.9668(2)
N4 N 0.2594(2) 0.4071(2) 0.34866(18)
N5 N 0.4778(3) -0.0657(3) 0.4274(3)
N6 N 0.1342(3) 0.9047(3) 0.1373(4)
N7 N 0.1620(2) 0.2659(2) 0.75702(18)
C1 C 0.0141(2) 0.2906(3) 0.8565(2)
C2 C 0.0228(2) 0.2025(3) 0.9312(2)
C3 C 0.0013(2) 0.2099(3) 1.0089(2)
C4 C -0.0282(2) 0.3052(3) 1.0083(2)
C5 C -0.0386(2) 0.3922(3) 0.9335(2)
C6 C -0.0167(2) 0.3860(3) 0.8563(2)
C7 C 0.1020(3) 0.2138(3) 1.2000(2)
C8 C 0.0804(3) 0.1703(3) 1.2859(3)
C9 C 0.1307(3) 0.0730(3) 1.3370(3)
C10 C 0.2027(3) 0.0249(3) 1.3000(3)
C11 C 0.2271(3) 0.0671(3) 1.2158(3)
C12 C 0.1757(3) 0.1626(3) 1.1654(3)
C13 C -0.2181(2) 0.4463(3) 1.0822(2)
C14 C -0.2219(3) 0.5067(3) 1.1250(2)
C15 C -0.2713(3) 0.6064(3) 1.0867(3)
C16 C -0.3150(2) 0.6443(3) 1.0074(2)
C17 C -0.3124(3) 0.5856(3) 0.9651(2)
C18 C -0.2640(3) 0.4858(3) 1.0028(2)
C19 C 0.2253(2) 0.3749(3) 0.6022(2)
C20 C 0.3045(2) 0.3148(3) 0.5822(2)
C21 C 0.3158(2) 0.3242(3) 0.4984(2)
C22 C 0.2473(2) 0.3952(3) 0.4374(2)
C23 C 0.1672(2) 0.4552(3) 0.4571(2)
C24 C 0.1557(2) 0.4445(3) 0.5410(2)
C25 C 0.2860(3) 0.2224(3) 0.3492(2)
C26 C 0.3520(3) 0.2015(3) 0.2926(3)
C27 C 0.4150(3) 0.1064(3) 0.3177(3)
C28 C 0.4100(3) 0.0362(3) 0.3999(3)
C29 C 0.3440(3) 0.0550(3) 0.4576(3)
C30 C 0.2813(3) 0.1491(3) 0.4315(2)
C31 C 0.2752(2) 0.5949(3) 0.2455(2)
C32 C 0.2534(3) 0.6437(3) 0.1583(3)
C33 C 0.2061(3) 0.7467(4) 0.1225(3)
C34 C 0.1835(3) 0.7948(3) 0.1757(3)
C35 C 0.2047(3) 0.7477(3) 0.2618(3)
C36 C 0.2518(3) 0.6471(3) 0.2976(3)
C37 C 0.2216(3) 0.1641(3) 0.7998(2)
C38 C 0.2480(3) 0.1266(3) 0.8859(2)
C39 C 0.2982(3) 0.0272(3) 0.9277(3)
C40 C 0.3229(3) -0.0350(3) 0.8849(3)
C41 C 0.2999(3) 0.0048(3) 0.7980(3)
C42 C 0.2486(3) 0.1040(3) 0.7557(3)
C43 C 0.3753(3) -0.1435(3) 0.9344(3)
C44 C 0.4148(3) -0.2931(4) 0.9107(4)
C45 C 0.4209(3) -0.3319(4) 0.8448(4)
C46 C 0.3945(4) -0.2600(5) 0.7540(4)
C47 C 0.4497(4) -0.4323(4) 0.8705(5)
H1 H 0.0437 0.1383 0.9284
H2 H 0.0067 0.1500 1.0611
H3 H -0.0614 0.4566 0.9358
H4 H -0.0220 0.4448 0.8031
H5 H 0.0309 0.2083 1.3084
H6 H 0.1150 0.0415 1.3960
H7 H 0.2791 0.0293 1.1951
H8 H 0.1894 0.1949 1.1059
H9 H -0.1906 0.4781 1.1799
H10 H -0.2753 0.6491 1.1154
H11 H -0.3450 0.6152 0.9106
H12 H -0.2611 0.4425 0.9748
H13 H 0.3506 0.2670 0.6265
H14 H 0.3701 0.2827 0.4835
H15 H 0.1214 0.5034 0.4127
H16 H 0.1006 0.4835 0.5575
H17 H 0.3538 0.2532 0.2362
H18 H 0.4597 0.0918 0.2777
H19 H 0.3428 0.0025 0.5138
H20 H 0.2347 0.1647 0.4698
H21 H 0.2704 0.6061 0.1239
H22 H 0.1902 0.7819 0.0623
H23 H 0.1864 0.7855 0.2959
H24 H 0.2687 0.6120 0.3576
H25 H 0.2315 0.1701 0.9150
H26 H 0.3164 0.0005 0.9870
H27 H 0.3199 -0.0372 0.7676
H28 H 0.2315 0.1311 0.6960
H29 H 0.3397 -0.1765 0.9820
H30 H 0.4355 -0.1490 0.9548
H31 H 0.4022 -0.2957 0.7185
H32 H 0.4345 -0.2154 0.7346
H33 H 0.3301 -0.2214 0.7505
H34 H 0.4552 -0.4615 0.8302
H35 H 0.4649 -0.4751 0.9301
O23 O 0.3502(2) 0.8950(3) 0.1378(2)
C48 C 0.4672(4) 0.7394(5) 0.1854(4)
C49 C 0.4299(3) 0.8485(4) 0.1651(3)
C50 C 0.4940(4) 0.8966(6) 0.1798(6)
H36 H 0.5312 0.7157 0.2064
H37 H 0.4646 0.7288 0.1348
H38 H 0.4293 0.7030 0.2286
H39 H 0.5534 0.8479 0.2018
H40 H 0.4677 0.9241 0.2203
H41 H 0.5030 0.9498 0.1265
O24 O -0.0205(3) 0.8533(3) 0.5179(2)
C51 C -0.0113(4) 0.7432(4) 0.4529(3)
C52 C 0.0170(3) 0.7711(3) 0.5177(3)
C53 C 0.0906(3) 0.6945(4) 0.5817(3)
H42 H 0.0249 0.6762 0.4617
H43 H -0.0012 0.7901 0.3964
H44 H -0.0770 0.7457 0.4588
H45 H 0.1114 0.6350 0.5710
H46 H 0.0649 0.6776 0.6379
H47 H 0.1430 0.7209 0.5785
O25 O 0.6940(3) 0.4142(4) 0.5024(3)
C54 C 0.6428(5) 0.3771(9) 0.4002(6)
C55 C 0.6347(4) 0.3874(4) 0.4826(4)
C56 C 0.5562(4) 0.3614(5) 0.5375(5)
H48 H 0.5902 0.3560 0.3930
H49 H 0.7002 0.3272 0.4016
H50 H 0.6431 0.4403 0.3532
H51 H 0.5169 0.3427 0.5095
H52 H 0.5200 0.4184 0.5478
H53 H 0.5801 0.3058 0.5911
O26 O 0.7814(3) -0.0253(3) 0.3799(2)
C57 C 0.8454(4) 0.0864(4) 0.4042(3)
C58 C 0.8415(4) 0.0198(4) 0.3624(3)
C59 C 0.9135(4) 0.0122(4) 0.2967(3)
H54 H 0.8971 0.1156 0.3822
H55 H 0.8542 0.0473 0.4650
H56 H 0.7876 0.1392 0.3923
H57 H 0.9545 0.0530 0.2916
H58 H 0.8826 0.0358 0.2423
H59 H 0.9498 -0.0567 0.3141
loop_
_geom_bond_atom_site_label_1
_geom_bond_atom_site_label_2
_geom_bond_site_symmetry_1
_geom_bond_site_symmetry_2
S1 O19 1_555 1_555
S2 O1 1_555 1_555
S3 O5 1_555 1_555
S4 O21 1_555 1_555
S5 O9 1_555 1_555
S6 O11 1_555 1_555
O2 S2 1_555 1_555
O3 C44 1_555 1_555
O4 N2 1_555 1_555
O6 S3 1_555 1_555
O7 N3 1_555 1_555
O8 N3 1_555 1_555
O10 S5 1_555 1_555
O12 S6 1_555 1_555
O13 N5 1_555 1_555
O14 N2 1_555 1_555
O15 N6 1_555 1_555
O16 N6 1_555 1_555
O17 C43 1_555 1_555
O18 N5 1_555 1_555
O20 S1 1_555 1_555
O22 S4 1_555 1_555
N1 S2 1_555 1_555
N2 C10 1_555 1_555
N3 C16 1_555 1_555
N4 S5 1_555 1_555
N5 C28 1_555 1_555
N6 C34 1_555 1_555
N7 S1 1_555 1_555
C1 S1 1_555 1_555
C2 C1 1_555 1_555
C3 C2 1_555 1_555
C4 N1 1_555 1_555
C5 C4 1_555 1_555
C6 C1 1_555 1_555
C7 S2 1_555 1_555
C8 C7 1_555 1_555
C9 C8 1_555 1_555
C10 C9 1_555 1_555
C11 C10 1_555 1_555
C12 C7 1_555 1_555
C13 S3 1_555 1_555
C14 C13 1_555 1_555
C15 C14 1_555 1_555
C16 C15 1_555 1_555
C17 C16 1_555 1_555
C18 C13 1_555 1_555
C19 S4 1_555 1_555
C20 C19 1_555 1_555
C21 C20 1_555 1_555
C22 N4 1_555 1_555
C23 C22 1_555 1_555
C24 C19 1_555 1_555
C25 S5 1_555 1_555
C26 C25 1_555 1_555
C27 C26 1_555 1_555
C28 C27 1_555 1_555
C29 C28 1_555 1_555
C30 C25 1_555 1_555
C31 S6 1_555 1_555
C32 C31 1_555 1_555
C33 C32 1_555 1_555
C34 C33 1_555 1_555
C35 C34 1_555 1_555
C36 C31 1_555 1_555
C37 N7 1_555 1_555
C38 C37 1_555 1_555
C39 C38 1_555 1_555
C40 C39 1_555 1_555
C41 C40 1_555 1_555
C42 C37 1_555 1_555
C43 C40 1_555 1_555
C44 O17 1_555 1_555
C45 C44 1_555 1_555
C46 C45 1_555 1_555
C47 C45 1_555 1_555
H1 C2 1_555 1_555
H2 C3 1_555 1_555
H3 C5 1_555 1_555
H4 C6 1_555 1_555
H5 C8 1_555 1_555
H6 C9 1_555 1_555
H7 C11 1_555 1_555
H8 C12 1_555 1_555
H9 C14 1_555 1_555
H10 C15 1_555 1_555
H11 C17 1_555 1_555
H12 C18 1_555 1_555
H13 C20 1_555 1_555
H14 C21 1_555 1_555
H15 C23 1_555 1_555
H16 C24 1_555 1_555
H17 C26 1_555 1_555
H18 C27 1_555 1_555
H19 C29 1_555 1_555
H20 C30 1_555 1_555
H21 C32 1_555 1_555
H22 C33 1_555 1_555
H23 C35 1_555 1_555
H24 C36 1_555 1_555
H25 C38 1_555 1_555
H26 C39 1_555 1_555
H27 C41 1_555 1_555
H28 C42 1_555 1_555
H29 C43 1_555 1_555
H30 C43 1_555 1_555
H31 C46 1_555 1_555
H32 C46 1_555 1_555
H33 C46 1_555 1_555
H34 C47 1_555 1_555
H35 C47 1_555 1_555
O23 C49 1_555 1_555
C48 C49 1_555 1_555
C49 C50 1_555 1_555
C50 H39 1_555 1_555
H36 C48 1_555 1_555
H37 C48 1_555 1_555
H38 C48 1_555 1_555
H40 C50 1_555 1_555
H41 C50 1_555 1_555
O24 C52 1_555 1_555
C51 C52 1_555 1_555
C52 C53 1_555 1_555
C53 H45 1_555 1_555
H42 C51 1_555 1_555
H43 C51 1_555 1_555
H44 C51 1_555 1_555
H46 C53 1_555 1_555
H47 C53 1_555 1_555
O25 C55 1_555 1_555
C54 C55 1_555 1_555
C55 C56 1_555 1_555
C56 H51 1_555 1_555
H48 C54 1_555 1_555
H49 C54 1_555 1_555
H50 C54 1_555 1_555
H52 C56 1_555 1_555
H53 C56 1_555 1_555
O26 C58 1_555 1_555
C57 C58 1_555 1_555
C58 C59 1_555 1_555
C59 H57 1_555 1_555
H54 C57 1_555 1_555
H55 C57 1_555 1_555
H56 C57 1_555 1_555
H58 C59 1_555 1_555
H59 C59 1_555 1_555
S3 N1 1_555 1_555
S4 N7 1_555 1_555
S6 N4 1_555 1_555
C3 C4 1_555 1_555
C5 C6 1_555 1_555
C11 C12 1_555 1_555
C17 C18 1_555 1_555
C21 C22 1_555 1_555
C23 C24 1_555 1_555
C29 C30 1_555 1_555
C35 C36 1_555 1_555
C41 C42 1_555 1_555

#END
