
#######################################################################
#
#                 Cambridge Crystallographic Data Centre
#                                CCDC 
#
#######################################################################
#
# If this CIF has been generated from an entry in the Cambridge 
# Structural Database, then it will include bibliographic, chemical, 
# crystal, experimental, refinement or atomic coordinate data resulting 
# from the CCDC's data processing and validation procedures.
#
#######################################################################

data_YIRBOR
_chemical_formula_moiety         'C16 H16 N2'
_chemical_name_systematic        6-Methyl-3-p-tolyl-3,4-dihydroquinazoline
_symmetry_cell_setting           monoclinic
_symmetry_space_group_name_H-M   'P 21/a'
_symmetry_Int_Tables_number      14
_space_group_name_Hall           '-P 2yab'
loop_
_symmetry_equiv_pos_site_id
_symmetry_equiv_pos_as_xyz
1 x,y,z
2 1/2-x,1/2+y,-z
3 -x,-y,-z
4 1/2+x,1/2-y,z
_cell_length_a                   6.2745(7)
_cell_length_b                   14.6008(15)
_cell_length_c                   14.0154(11)
_cell_angle_alpha                90
_cell_angle_beta                 94.39(3)
_cell_angle_gamma                90
_cell_volume                     1280.22
_exptl_crystal_colour            yellow
_exptl_crystal_description       plate
_chemical_melting_point          '435 K'
_cell_formula_units_Z            4
_exptl_crystal_recrystallization_method 'diethyl ether'
loop_
_atom_site_label
_atom_site_type_symbol
_atom_site_fract_x
_atom_site_fract_y
_atom_site_fract_z
N1 N 0.6678(4) 0.38190(17) 0.57235(17)
N2 N 1.0036(4) 0.4135(2) 0.6578(2)
C1 C 0.6452(7) 0.3515(3) 1.0142(3)
H1 H 0.7489 0.3663 1.0658
H2 H 0.6026 0.2887 1.0194
H3 H 0.5225 0.3904 1.0172
C2 C 0.7421(7) 0.3660(3) 0.9198(2)
C3 C 0.6227(6) 0.3486(2) 0.8341(2)
H4 H 0.4846 0.3258 0.8355
C4 C 0.7041(5) 0.3645(2) 0.7467(2)
C5 C 0.9117(5) 0.3963(2) 0.7451(2)
C6 C 1.0329(6) 0.4132(3) 0.8300(3)
H5 H 1.1719 0.4349 0.8287
C7 C 0.9484(7) 0.3978(3) 0.9161(3)
H6 H 1.0314 0.4091 0.9727
C8 C 0.5695(5) 0.3451(2) 0.6562(2)
H7 H 0.5510 0.2794 0.6490
H8 H 0.4294 0.3723 0.6600
C9 C 0.8787(5) 0.4058(2) 0.5816(3)
H9 H 0.9401 0.4183 0.5247
C10 C 0.5485(5) 0.3786(2) 0.4822(2)
C11 C 0.3519(5) 0.3348(2) 0.4725(2)
H10 H 0.2965 0.3090 0.5260
C12 C 0.2370(5) 0.3290(2) 0.3845(2)
H11 H 0.1062 0.2987 0.3799
C13 C 0.3117(6) 0.3670(2) 0.3029(2)
C14 C 0.5045(6) 0.4121(2) 0.3141(2)
H12 H 0.5584 0.4385 0.2606
C15 C 0.6217(6) 0.4200(2) 0.4012(2)
H13 H 0.7491 0.4528 0.4058
C16 C 0.1841(7) 0.3585(3) 0.2075(2)
H14 H 0.2119 0.4105 0.1683
H15 H 0.0345 0.3561 0.2173
H16 H 0.2249 0.3035 0.1761
loop_
_geom_bond_atom_site_label_1
_geom_bond_atom_site_label_2
_geom_bond_site_symmetry_1
_geom_bond_site_symmetry_2
N1 C8 1_555 1_555
N2 C5 1_555 1_555
C1 H1 1_555 1_555
H2 C1 1_555 1_555
H3 C1 1_555 1_555
C2 C1 1_555 1_555
C3 C2 1_555 1_555
H4 C3 1_555 1_555
C4 C3 1_555 1_555
C5 C4 1_555 1_555
C6 C5 1_555 1_555
H5 C6 1_555 1_555
C7 C2 1_555 1_555
H6 C7 1_555 1_555
C8 C4 1_555 1_555
H7 C8 1_555 1_555
H8 C8 1_555 1_555
C9 N1 1_555 1_555
H9 C9 1_555 1_555
C10 N1 1_555 1_555
C11 C10 1_555 1_555
H10 C11 1_555 1_555
C12 C11 1_555 1_555
H11 C12 1_555 1_555
C13 C12 1_555 1_555
C14 C13 1_555 1_555
H12 C14 1_555 1_555
C15 C10 1_555 1_555
H13 C15 1_555 1_555
C16 C13 1_555 1_555
H14 C16 1_555 1_555
H15 C16 1_555 1_555
H16 C16 1_555 1_555
N2 C9 1_555 1_555
C6 C7 1_555 1_555
C14 C15 1_555 1_555

#END
