
#######################################################################
#
#                 Cambridge Crystallographic Data Centre
#                                CCDC 
#
#######################################################################
#
# If this CIF has been generated from an entry in the Cambridge 
# Structural Database, then it will include bibliographic, chemical, 
# crystal, experimental, refinement or atomic coordinate data resulting 
# from the CCDC's data processing and validation procedures.
#
#######################################################################

data_YIRCUY
_chemical_formula_moiety         'C18 H24 O4 S1'
_chemical_name_systematic        
(1R,4R,7S)-1,7-Dimethyl-7-(phenylsulfonylmethyl)spiro(bicyclo(2.2.1)heptane-2,2'-1,3-dioxolane)
_symmetry_cell_setting           orthorhombic
_symmetry_space_group_name_H-M   'P 21 21 21'
_symmetry_Int_Tables_number      19
_space_group_name_Hall           'P 2ac 2ab'
loop_
_symmetry_equiv_pos_site_id
_symmetry_equiv_pos_as_xyz
1 x,y,z
2 1/2-x,-y,1/2+z
3 -x,1/2+y,1/2-z
4 1/2+x,1/2-y,-z
_cell_length_a                   10.5420(2)
_cell_length_b                   11.7946(2)
_cell_length_c                   13.2997(3)
_cell_angle_alpha                90
_cell_angle_beta                 90
_cell_angle_gamma                90
_cell_volume                     1653.67
_exptl_crystal_colour            colorless
_exptl_crystal_description       block
_cell_formula_units_Z            4
_exptl_crystal_recrystallization_method 'ethyl acetate'
loop_
_atom_site_label
_atom_site_type_symbol
_atom_site_fract_x
_atom_site_fract_y
_atom_site_fract_z
C1 C 0.8521(3) 0.4745(2) 0.8698(2)
H1 H 0.9141 0.4185 0.8671
C2 C 0.7480(3) 0.4684(2) 0.8078(2)
H2 H 0.7396 0.4083 0.7630
C3 C 0.6567(3) 0.5508(2) 0.81181(19)
H3 H 0.5869 0.5464 0.7693
C4 C 0.6670(2) 0.6412(2) 0.87884(18)
H4 H 0.6050 0.6972 0.8814
C5 C 0.7711(2) 0.64549(17) 0.94106(17)
C6 C 0.8644(3) 0.5640(2) 0.93635(18)
H5 H 0.9353 0.5690 0.9777
C7 C 0.9448(3) 1.1891(2) 1.1304(2)
H6 H 1.0316 1.2009 1.1088
H7 H 0.9416 1.1890 1.2033
C8 C 0.8581(3) 1.2769(2) 1.08728(18)
H8 H 0.7817 1.2846 1.1273
H9 H 0.8999 1.3500 1.0829
C9 C 0.8317(2) 1.11268(18) 0.99706(16)
C10 C 0.8975(2) 1.06072(19) 0.90376(17)
C11 C 0.8356(3) 1.1177(2) 0.81204(18)
H10 H 0.8811 1.0990 0.7509
H11 H 0.8342 1.1995 0.8199
C12 C 0.7000(3) 1.0694(2) 0.80945(18)
H12 H 0.6838 1.0296 0.7469
H13 H 0.6373 1.1289 0.8177
C13 C 0.8356(2) 0.93875(18) 0.89830(16)
C14 C 0.6987(2) 0.9872(2) 0.89958(17)
H14 H 0.6319 0.9295 0.8967
C15 C 1.0411(2) 1.0690(2) 0.9064(2)
H15 H 1.0757 1.0343 0.8472
H16 H 1.0726 1.0307 0.9650
H17 H 1.0657 1.1474 0.9087
C16 C 0.8700(3) 0.8742(2) 0.80203(17)
H18 H 0.9595 0.8591 0.8013
H19 H 0.8478 0.9192 0.7445
H20 H 0.8242 0.8039 0.8000
C17 C 0.8764(2) 0.86578(17) 0.98851(17)
H21 H 0.8897 0.9172 1.0444
H22 H 0.9587 0.8340 0.9719
C18 C 0.6982(2) 1.0590(2) 0.99592(17)
H23 H 0.6847 1.0121 1.0549
H24 H 0.6329 1.1168 0.9933
O1 O 0.65482(17) 0.79178(14) 1.05340(14)
O2 O 0.8532(2) 0.70566(14) 1.11702(12)
O3 O 0.83048(18) 1.23328(13) 0.99050(12)
O4 O 0.89416(16) 1.08703(13) 1.08999(11)
S1 S 0.78162(6) 0.75224(5) 1.03435(4)
loop_
_geom_bond_atom_site_label_1
_geom_bond_atom_site_label_2
_geom_bond_site_symmetry_1
_geom_bond_site_symmetry_2
C1 H1 1_555 1_555
C2 C1 1_555 1_555
H2 C2 1_555 1_555
C3 C2 1_555 1_555
H3 C3 1_555 1_555
C4 C3 1_555 1_555
H4 C4 1_555 1_555
C5 C4 1_555 1_555
C6 C1 1_555 1_555
H5 C6 1_555 1_555
C7 H6 1_555 1_555
H7 C7 1_555 1_555
C8 C7 1_555 1_555
H8 C8 1_555 1_555
H9 C8 1_555 1_555
C9 C10 1_555 1_555
C10 C11 1_555 1_555
C11 H10 1_555 1_555
H11 C11 1_555 1_555
C12 C11 1_555 1_555
H12 C12 1_555 1_555
H13 C12 1_555 1_555
C13 C10 1_555 1_555
C14 C12 1_555 1_555
H14 C14 1_555 1_555
C15 C10 1_555 1_555
H15 C15 1_555 1_555
H16 C15 1_555 1_555
H17 C15 1_555 1_555
C16 C13 1_555 1_555
H18 C16 1_555 1_555
H19 C16 1_555 1_555
H20 C16 1_555 1_555
C17 C13 1_555 1_555
H21 C17 1_555 1_555
H22 C17 1_555 1_555
C18 C9 1_555 1_555
H23 C18 1_555 1_555
H24 C18 1_555 1_555
O1 S1 1_555 1_555
O2 S1 1_555 1_555
O3 C8 1_555 1_555
O4 C7 1_555 1_555
S1 C5 1_555 1_555
C5 C6 1_555 1_555
C9 O3 1_555 1_555
C9 O4 1_555 1_555
C13 C14 1_555 1_555
C14 C18 1_555 1_555
C17 S1 1_555 1_555

#END
