
#######################################################################
#
#                 Cambridge Crystallographic Data Centre
#                                CCDC 
#
#######################################################################
#
# If this CIF has been generated from an entry in the Cambridge 
# Structural Database, then it will include bibliographic, chemical, 
# crystal, experimental, refinement or atomic coordinate data resulting 
# from the CCDC's data processing and validation procedures.
#
#######################################################################

data_YIRCOS
_chemical_formula_moiety         'C12 H16 I1 N1 O2 S1'
_chemical_name_systematic        (S)-2-(Iodomethyl)-1-tosylpyrrolidine
_symmetry_cell_setting           monoclinic
_symmetry_space_group_name_H-M   'P 21'
_symmetry_Int_Tables_number      4
_space_group_name_Hall           'P 2yb'
loop_
_symmetry_equiv_pos_site_id
_symmetry_equiv_pos_as_xyz
1 x,y,z
2 -x,1/2+y,-z
_cell_length_a                   7.6345(16)
_cell_length_b                   7.7084(16)
_cell_length_c                   12.071(3)
_cell_angle_alpha                90
_cell_angle_beta                 93.17(1)
_cell_angle_gamma                90
_cell_volume                     709.289
_exptl_crystal_colour            colorless
_exptl_crystal_description       block
_cell_formula_units_Z            2
_exptl_crystal_recrystallization_method 'ethyl acetate'
loop_
_atom_site_label
_atom_site_type_symbol
_atom_site_fract_x
_atom_site_fract_y
_atom_site_fract_z
I1 I 0.74117(5) 1.0996(2) 0.25200(3)
S1 S 0.26704(16) 0.6075(3) 0.31530(11)
O1 O 0.4219(6) 0.5601(6) 0.2627(4)
C1 C 0.3980(7) 0.9338(7) 0.3147(5)
H1 H 0.3790 0.9188 0.2343
C2 C 0.5919(8) 0.9208(9) 0.3477(5)
H2 H 0.6320 0.8033 0.3355
H3 H 0.6108 0.9470 0.4260
C3 C 0.3090(8) 1.0976(12) 0.3511(5)
H4 H 0.2155 1.1311 0.2977
H5 H 0.3925 1.1922 0.3594
C4 C 0.1722(9) 0.8691(9) 0.4444(5)
H6 H 0.1685 0.8074 0.5143
H7 H 0.0566 0.8668 0.4068
C5 C 0.2361(10) 1.0518(9) 0.4619(6)
H8 H 0.3265 1.0578 0.5214
H9 H 0.1406 1.1287 0.4788
N1 N 0.3058(6) 0.7944(6) 0.3740(4)
O2 O 0.1979(6) 0.4989(6) 0.3981(4)
C6 C -0.0698(7) 0.5882(12) 0.2289(4)
H10 H -0.0957 0.5381 0.2962
C7 C 0.1002(8) 0.6359(9) 0.2101(4)
C8 C -0.0007(11) 0.7369(10) 0.0301(5)
H11 H 0.0235 0.7888 -0.0369
C9 C -0.2011(7) 0.6151(13) 0.1476(5)
H12 H -0.3147 0.5799 0.1605
C10 C -0.1693(9) 0.6917(9) 0.0491(5)
C11 C 0.1366(10) 0.7067(9) 0.1096(5)
H13 H 0.2514 0.7343 0.0944
C12 C -0.3186(12) 0.7276(15) -0.0368(7)
H14 H -0.3545 0.8465 -0.0315
H15 H -0.4160 0.6532 -0.0233
H16 H -0.2795 0.7057 -0.1097
loop_
_geom_bond_atom_site_label_1
_geom_bond_atom_site_label_2
_geom_bond_site_symmetry_1
_geom_bond_site_symmetry_2
I1 C2 1_555 1_555
S1 O1 1_555 1_555
C1 H1 1_555 1_555
C2 C1 1_555 1_555
H2 C2 1_555 1_555
H3 C2 1_555 1_555
C3 C1 1_555 1_555
H4 C3 1_555 1_555
H5 C3 1_555 1_555
C4 H6 1_555 1_555
H7 C4 1_555 1_555
C5 C3 1_555 1_555
H8 C5 1_555 1_555
H9 C5 1_555 1_555
N1 S1 1_555 1_555
O2 S1 1_555 1_555
C6 H10 1_555 1_555
C7 S1 1_555 1_555
C8 H11 1_555 1_555
C9 C6 1_555 1_555
H12 C9 1_555 1_555
C10 C8 1_555 1_555
C11 C7 1_555 1_555
H13 C11 1_555 1_555
C12 C10 1_555 1_555
H14 C12 1_555 1_555
H15 C12 1_555 1_555
H16 C12 1_555 1_555
C1 N1 1_555 1_555
C4 C5 1_555 1_555
C4 N1 1_555 1_555
C6 C7 1_555 1_555
C8 C11 1_555 1_555
C9 C10 1_555 1_555

#END
