
#######################################################################
#
#                 Cambridge Crystallographic Data Centre
#                                CCDC 
#
#######################################################################
#
# If this CIF has been generated from an entry in the Cambridge 
# Structural Database, then it will include bibliographic, chemical, 
# crystal, experimental, refinement or atomic coordinate data resulting 
# from the CCDC's data processing and validation procedures.
#
#######################################################################

data_YIRGUC
_chemical_formula_moiety         'C22 H22 N2'
_chemical_name_systematic        
(6E)-N-((4Z)-2,5-Dimethyl-4-(p-tolylimino)cyclohexa-2,5-dienylidene)-4-methylaniline
_symmetry_cell_setting           rhombohedral
_symmetry_space_group_name_H-M   'R -3'
_symmetry_Int_Tables_number      148
_space_group_name_Hall           '-R 3'
loop_
_symmetry_equiv_pos_site_id
_symmetry_equiv_pos_as_xyz
1 x,y,z
2 -y,x-y,z
3 -x+y,-x,z
4 2/3+x,1/3+y,1/3+z
5 2/3-y,1/3+x-y,1/3+z
6 2/3-x+y,1/3-x,1/3+z
7 1/3+x,2/3+y,2/3+z
8 1/3-y,2/3+x-y,2/3+z
9 1/3-x+y,2/3-x,2/3+z
10 -x,-y,-z
11 y,-x+y,-z
12 x-y,x,-z
13 1/3-x,2/3-y,2/3-z
14 1/3+y,2/3-x+y,2/3-z
15 1/3+x-y,2/3+x,2/3-z
16 2/3-x,1/3-y,1/3-z
17 2/3+y,1/3-x+y,1/3-z
18 2/3+x-y,1/3+x,1/3-z
_cell_length_a                   21.173(8)
_cell_length_b                   21.173(8)
_cell_length_c                   10.476(2)
_cell_angle_alpha                90
_cell_angle_beta                 90
_cell_angle_gamma                120.00
_cell_volume                     4067.16
_exptl_crystal_colour            red
_exptl_crystal_description       block
_cell_formula_units_Z            9
_exptl_crystal_recrystallization_method acetone
loop_
_atom_site_label
_atom_site_type_symbol
_atom_site_fract_x
_atom_site_fract_y
_atom_site_fract_z
N1 N 0.17771(14) 0.28153(14) 0.0673(3)
C1 C -0.0660(2) 0.1028(3) 0.3942(4)
H1 H -0.0769 0.1330 0.4474
H2 H -0.0529 0.0740 0.4468
H3 H -0.1081 0.0712 0.3441
C2 C -0.00306(19) 0.1504(2) 0.3064(3)
C3 C 0.0232(2) 0.1207(2) 0.2204(5)
H4 H 0.0010 0.0702 0.2149
C4 C 0.0822(2) 0.1636(2) 0.1401(5)
H5 H 0.0988 0.1413 0.0836
C5 C 0.11505(18) 0.23690(19) 0.1441(3)
C6 C 0.0891(2) 0.2665(2) 0.2299(4)
H6 H 0.1111 0.3170 0.2358
C7 C 0.0306(3) 0.2232(3) 0.3089(4)
H7 H 0.0141 0.2456 0.3656
C8 C 0.10079(16) 0.28723(16) -0.1018(3)
H8 H 0.0579 0.2564 -0.0583
C9 C 0.16973(16) 0.30428(16) -0.0440(3)
C10 C 0.23710(16) 0.35227(17) -0.1164(3)
C11 C 0.30536(15) 0.36974(17) -0.0619(3)
H9 H 0.3439 0.4007 -0.1192
H10 H 0.3068 0.3257 -0.0474
H11 H 0.3115 0.3946 0.0178
N1L N 0.15562(14) 0.38514(14) -0.4006(3)
C1L C 0.3993(2) 0.5639(3) -0.7275(4)
H1L H 0.4102 0.5337 -0.7807
H2L H 0.3862 0.5927 -0.7801
H3L H 0.4414 0.5955 -0.6774
C2L C 0.33639(19) 0.5163(2) -0.6397(3)
C3L C 0.3101(2) 0.5460(2) -0.5537(5)
H4L H 0.3323 0.5965 -0.5482
C4L C 0.2511(2) 0.5031(2) -0.4734(5)
H5L H 0.2345 0.5254 -0.4169
C5L C 0.21828(18) 0.42977(19) -0.4774(3)
C6L C 0.2442(2) 0.4002(2) -0.5632(4)
H6L H 0.2222 0.3497 -0.5691
C7L C 0.3027(3) 0.4435(3) -0.6422(4)
H7L H 0.3192 0.4211 -0.6989
C8L C 0.23254(16) 0.37944(16) -0.2315(3)
H8L H 0.2754 0.4103 -0.2750
C9L C 0.16360(16) 0.36239(16) -0.2893(3)
C10L C 0.09623(16) 0.31440(17) -0.2169(3)
C11L C 0.02797(15) 0.29693(17) -0.2714(3)
H9L H -0.0106 0.2660 -0.2141
H10L H 0.0265 0.3410 -0.2859
H11L H 0.0218 0.2721 -0.3511
loop_
_geom_bond_atom_site_label_1
_geom_bond_atom_site_label_2
_geom_bond_site_symmetry_1
_geom_bond_site_symmetry_2
N1 C5 1_555 1_555
C1 H1 1_555 1_555
H2 C1 1_555 1_555
H3 C1 1_555 1_555
C2 C1 1_555 1_555
C3 C2 1_555 1_555
H4 C3 1_555 1_555
C4 C3 1_555 1_555
H5 C4 1_555 1_555
C5 C4 1_555 1_555
C6 C5 1_555 1_555
H6 C6 1_555 1_555
C7 C2 1_555 1_555
H7 C7 1_555 1_555
C8 H8 1_555 1_555
C9 N1 1_555 1_555
C10 C9 1_555 1_555
C11 C10 1_555 1_555
H9 C11 1_555 1_555
H10 C11 1_555 1_555
H11 C11 1_555 1_555
N1L C5L 1_555 1_555
C1L H1L 1_555 1_555
H2L C1L 1_555 1_555
H3L C1L 1_555 1_555
C2L C1L 1_555 1_555
C3L C2L 1_555 1_555
H4L C3L 1_555 1_555
C4L C3L 1_555 1_555
H5L C4L 1_555 1_555
C5L C4L 1_555 1_555
C6L C5L 1_555 1_555
H6L C6L 1_555 1_555
C7L C2L 1_555 1_555
H7L C7L 1_555 1_555
C8L C10 1_555 1_555
H8L C8L 1_555 1_555
C9L N1L 1_555 1_555
C10L C8 1_555 1_555
C11L C10L 1_555 1_555
H9L C11L 1_555 1_555
H10L C11L 1_555 1_555
H11L C11L 1_555 1_555
C6 C7 1_555 1_555
C8 C9 1_555 1_555
C6L C7L 1_555 1_555
C8L C9L 1_555 1_555
C9L C10L 1_555 1_555

#END
