
#######################################################################
#
#                 Cambridge Crystallographic Data Centre
#                                CCDC 
#
#######################################################################
#
# If this CIF has been generated from an entry in the Cambridge 
# Structural Database, then it will include bibliographic, chemical, 
# crystal, experimental, refinement or atomic coordinate data resulting 
# from the CCDC's data processing and validation procedures.
#
#######################################################################

data_YIRKOB
_chemical_formula_moiety         'C15 H16 N4 O2'
_chemical_name_systematic        
't-Butyl 5-amino[1,2,3]triazolo[5,1-a]isoquinoline-6-carboxylate'
_symmetry_cell_setting           monoclinic
_symmetry_space_group_name_H-M   'P 21/c'
_symmetry_Int_Tables_number      14
_space_group_name_Hall           '-P 2ybc'
loop_
_symmetry_equiv_pos_site_id
_symmetry_equiv_pos_as_xyz
1 x,y,z
2 -x,1/2+y,1/2-z
3 -x,-y,-z
4 x,1/2-y,1/2+z
_cell_length_a                   23.543(3)
_cell_length_b                   6.2775(8)
_cell_length_c                   20.602(3)
_cell_angle_alpha                90
_cell_angle_beta                 114.078(2)
_cell_angle_gamma                90
_cell_volume                     2779.87
_cell_formula_units_Z            8
loop_
_atom_site_label
_atom_site_type_symbol
_atom_site_fract_x
_atom_site_fract_y
_atom_site_fract_z
C1 C 0.62789(8) 1.1961(3) 0.45294(9)
H1 H 0.6663 1.1676 0.4499
C2 C 0.57466(8) 1.0748(3) 0.42185(9)
C3 C 0.55553(8) 0.8831(3) 0.38071(9)
C4 C 0.59804(8) 0.7686(3) 0.36219(9)
H2 H 0.6392 0.8206 0.3758
C5 C 0.58030(8) 0.5815(3) 0.32438(9)
H3 H 0.6084 0.5071 0.3100
C6 C 0.52056(8) 0.5026(3) 0.30741(9)
H4 H 0.5088 0.3699 0.2834
C7 C 0.47824(8) 0.6138(3) 0.32479(9)
H5 H 0.4379 0.5560 0.3127
C8 C 0.49362(8) 0.8123(3) 0.36028(9)
C9 C 0.45055(8) 0.9416(3) 0.37869(9)
C10 C 0.47127(8) 1.1191(3) 0.42162(9)
C11 C 0.38279(8) 0.9025(3) 0.35154(9)
C12 C 0.29468(8) 0.7169(3) 0.25971(9)
C13 C 0.25132(9) 0.9082(4) 0.23844(11)
H6 H 0.2503 0.9739 0.2811
H7 H 0.2093 0.8618 0.2069
H8 H 0.2664 1.0121 0.2136
C14 C 0.28375(9) 0.5703(4) 0.31247(10)
H9 H 0.3141 0.4537 0.3257
H10 H 0.2416 0.5116 0.2906
H11 H 0.2886 0.6514 0.3551
C15 C 0.29107(9) 0.5938(4) 0.19497(10)
H12 H 0.3022 0.6878 0.1640
H13 H 0.2486 0.5407 0.1690
H14 H 0.3200 0.4734 0.2100
N1 N 0.61719(7) 1.3610(3) 0.48834(8)
N2 N 0.55922(7) 1.3532(3) 0.48201(8)
N3 N 0.53329(7) 1.1778(2) 0.44185(7)
N4 N 0.43914(7) 1.2458(3) 0.44650(8)
H15 H 0.3996 1.2199 0.4357
H16 H 0.4575 1.3552 0.4737
O1 O 0.34972(6) 0.9745(2) 0.37908(6)
O2 O 0.36048(5) 0.7863(2) 0.29126(6)
C16 C -0.12208(8) -0.2029(3) 0.33661(10)
H17 H -0.1606 -0.1786 0.2973
C17 C -0.06989(8) -0.0771(3) 0.35497(9)
C18 C -0.05179(8) 0.1152(3) 0.33051(9)
C19 C -0.09474(8) 0.2203(3) 0.27024(9)
H18 H -0.1348 0.1604 0.2449
C20 C -0.07942(8) 0.4082(3) 0.24761(9)
H19 H -0.1081 0.4771 0.2062
C21 C -0.02116(8) 0.4963(3) 0.28633(9)
H20 H -0.0108 0.6292 0.2719
C22 C 0.02212(8) 0.3946(3) 0.34541(9)
H21 H 0.0614 0.4598 0.3707
C23 C 0.00921(8) 0.1951(3) 0.36916(9)
C24 C 0.05352(8) 0.0727(3) 0.42898(9)
C25 C 0.03389(8) -0.1127(3) 0.45121(9)
C26 C 0.12033(8) 0.1226(3) 0.46838(9)
C27 C 0.20488(8) 0.3634(3) 0.47258(10)
C28 C 0.20051(9) 0.5690(4) 0.43175(10)
H22 H 0.1805 0.5402 0.3806
H23 H 0.2424 0.6257 0.4439
H24 H 0.1758 0.6734 0.4445
C29 C 0.22911(9) 0.4098(4) 0.55181(10)
H25 H 0.1990 0.4989 0.5610
H26 H 0.2690 0.4849 0.5674
H27 H 0.2349 0.2756 0.5780
C30 C 0.24347(9) 0.1979(4) 0.45509(12)
H28 H 0.2430 0.0641 0.4794
H29 H 0.2864 0.2488 0.4710
H30 H 0.2259 0.1740 0.4036
N5 N -0.11008(7) -0.3661(3) 0.38304(8)
N6 N -0.05256(7) -0.3532(3) 0.43023(8)
N7 N -0.02768(7) -0.1757(2) 0.41355(7)
N8 N 0.06637(7) -0.2418(3) 0.50515(8)
H31 H 0.0485 -0.3544 0.5140
H32 H 0.1057 -0.2141 0.5318
O3 O 0.15625(6) 0.0167(2) 0.51832(7)
O4 O 0.13881(5) 0.2938(2) 0.44348(6)
loop_
_geom_bond_atom_site_label_1
_geom_bond_atom_site_label_2
_geom_bond_site_symmetry_1
_geom_bond_site_symmetry_2
C1 H1 1_555 1_555
C2 C1 1_555 1_555
C3 C2 1_555 1_555
C4 C3 1_555 1_555
H2 C4 1_555 1_555
C5 C4 1_555 1_555
H3 C5 1_555 1_555
C6 C5 1_555 1_555
H4 C6 1_555 1_555
C7 C6 1_555 1_555
H5 C7 1_555 1_555
C8 C3 1_555 1_555
C9 C8 1_555 1_555
C10 C9 1_555 1_555
C11 C9 1_555 1_555
C12 C13 1_555 1_555
C13 H6 1_555 1_555
H7 C13 1_555 1_555
H8 C13 1_555 1_555
C14 C12 1_555 1_555
H9 C14 1_555 1_555
H10 C14 1_555 1_555
H11 C14 1_555 1_555
C15 C12 1_555 1_555
H12 C15 1_555 1_555
H13 C15 1_555 1_555
H14 C15 1_555 1_555
N1 C1 1_555 1_555
N2 N1 1_555 1_555
N3 C2 1_555 1_555
N4 C10 1_555 1_555
H15 N4 1_555 1_555
H16 N4 1_555 1_555
O1 C11 1_555 1_555
O2 C11 1_555 1_555
C16 H17 1_555 1_555
C17 C16 1_555 1_555
C18 C17 1_555 1_555
C19 C18 1_555 1_555
H18 C19 1_555 1_555
C20 C19 1_555 1_555
H19 C20 1_555 1_555
C21 C20 1_555 1_555
H20 C21 1_555 1_555
C22 C21 1_555 1_555
H21 C22 1_555 1_555
C23 C18 1_555 1_555
C24 C23 1_555 1_555
C25 C24 1_555 1_555
C26 C24 1_555 1_555
C27 C28 1_555 1_555
C28 H22 1_555 1_555
H23 C28 1_555 1_555
H24 C28 1_555 1_555
C29 C27 1_555 1_555
H25 C29 1_555 1_555
H26 C29 1_555 1_555
H27 C29 1_555 1_555
C30 C27 1_555 1_555
H28 C30 1_555 1_555
H29 C30 1_555 1_555
H30 C30 1_555 1_555
N5 C16 1_555 1_555
N6 N5 1_555 1_555
N7 C17 1_555 1_555
N8 C25 1_555 1_555
H31 N8 1_555 1_555
H32 N8 1_555 1_555
O3 C26 1_555 1_555
O4 C26 1_555 1_555
C7 C8 1_555 1_555
C10 N3 1_555 1_555
C12 O2 1_555 1_555
N2 N3 1_555 1_555
C22 C23 1_555 1_555
C25 N7 1_555 1_555
C27 O4 1_555 1_555
N6 N7 1_555 1_555

#END
