
#######################################################################
#
#                 Cambridge Crystallographic Data Centre
#                                CCDC 
#
#######################################################################
#
# If this CIF has been generated from an entry in the Cambridge 
# Structural Database, then it will include bibliographic, chemical, 
# crystal, experimental, refinement or atomic coordinate data resulting 
# from the CCDC's data processing and validation procedures.
#
#######################################################################

data_YIRKEQ
_chemical_formula_moiety         'C8 H11 N5 S1'
_chemical_name_systematic        '2-Acetylpyrazine 4-methylthiosemicarbazone'
_symmetry_cell_setting           monoclinic
_symmetry_space_group_name_H-M   'P 21/c'
_symmetry_Int_Tables_number      14
_space_group_name_Hall           '-P 2ybc'
loop_
_symmetry_equiv_pos_site_id
_symmetry_equiv_pos_as_xyz
1 x,y,z
2 -x,1/2+y,1/2-z
3 -x,-y,-z
4 x,1/2-y,1/2+z
_cell_length_a                   9.870(8)
_cell_length_b                   5.976(5)
_cell_length_c                   17.517(14)
_cell_angle_alpha                90
_cell_angle_beta                 91.251(9)
_cell_angle_gamma                90
_cell_volume                     1032.96
_exptl_crystal_colour            colorless
_exptl_crystal_description       block
_cell_formula_units_Z            4
loop_
_atom_site_label
_atom_site_type_symbol
_atom_site_fract_x
_atom_site_fract_y
_atom_site_fract_z
S1 S 0.53153(5) 0.14546(9) 0.39197(3)
C1 C 0.3602(2) 0.1901(4) 0.24436(12)
H1 H 0.2945 0.1858 0.2031
H2 H 0.4483 0.1567 0.2252
H3 H 0.3610 0.3365 0.2669
C2 C 0.39403(17) -0.0043(3) 0.36625(9)
C3 C 0.20657(16) -0.4638(3) 0.43186(9)
C4 C 0.27288(19) -0.5396(3) 0.50496(10)
H4 H 0.3690 -0.5166 0.5026
H5 H 0.2547 -0.6958 0.5125
H6 H 0.2376 -0.4552 0.5467
C5 C 0.08835(16) -0.5912(3) 0.40117(9)
C6 C 0.01556(17) -0.5220(3) 0.33622(9)
H7 H 0.0401 -0.3887 0.3129
C7 C -0.1190(2) -0.8254(3) 0.34285(11)
H8 H -0.1901 -0.9129 0.3240
C8 C -0.0499(2) -0.8930(4) 0.40744(12)
H9 H -0.0764 -1.0244 0.4313
N1 N 0.32507(15) 0.0258(3) 0.30149(8)
H10 H 0.2552 -0.0570 0.2928
N2 N 0.35053(14) -0.1701(2) 0.41299(8)
H11 H 0.3907 -0.1941 0.4563
N3 N 0.24209(14) -0.2982(2) 0.39019(8)
N4 N -0.08728(15) -0.6382(3) 0.30628(9)
N5 N 0.05389(16) -0.7775(3) 0.43754(9)
loop_
_geom_bond_atom_site_label_1
_geom_bond_atom_site_label_2
_geom_bond_site_symmetry_1
_geom_bond_site_symmetry_2
S1 C2 1_555 1_555
C1 H1 1_555 1_555
H2 C1 1_555 1_555
H3 C1 1_555 1_555
C2 N1 1_555 1_555
C3 C4 1_555 1_555
C4 H4 1_555 1_555
H5 C4 1_555 1_555
H6 C4 1_555 1_555
C5 C3 1_555 1_555
C6 C5 1_555 1_555
H7 C6 1_555 1_555
C7 H8 1_555 1_555
C8 C7 1_555 1_555
H9 C8 1_555 1_555
N1 C1 1_555 1_555
H10 N1 1_555 1_555
N2 C2 1_555 1_555
H11 N2 1_555 1_555
N3 C3 1_555 1_555
N4 C6 1_555 1_555
N5 C5 1_555 1_555
C7 N4 1_555 1_555
C8 N5 1_555 1_555
N2 N3 1_555 1_555

#END
