
#######################################################################
#
#                 Cambridge Crystallographic Data Centre
#                                CCDC 
#
#######################################################################
#
# If this CIF has been generated from an entry in the Cambridge 
# Structural Database, then it will include bibliographic, chemical, 
# crystal, experimental, refinement or atomic coordinate data resulting 
# from the CCDC's data processing and validation procedures.
#
#######################################################################

data_YIRLIV
_chemical_formula_moiety         'C10 H9 Br1 N2 O2'
_chemical_name_systematic        
(E)-3-Bromo-N-(1,3-oxazolidin-2-ylidene)benzamide
_symmetry_cell_setting           monoclinic
_symmetry_space_group_name_H-M   'P 21/n'
_symmetry_Int_Tables_number      14
_space_group_name_Hall           '-P 2yn'
loop_
_symmetry_equiv_pos_site_id
_symmetry_equiv_pos_as_xyz
1 x,y,z
2 1/2-x,1/2+y,1/2-z
3 -x,-y,-z
4 1/2+x,1/2-y,1/2+z
_cell_length_a                   8.3877(9)
_cell_length_b                   12.5593(14)
_cell_length_c                   10.1907(12)
_cell_angle_alpha                90
_cell_angle_beta                 107.222(2)
_cell_angle_gamma                90
_cell_volume                     1025.39
_exptl_crystal_colour            colorless
_exptl_crystal_description       block
_chemical_melting_point          '374-375 K'
_cell_formula_units_Z            4
_exptl_crystal_recrystallization_method acetone/water
loop_
_atom_site_label
_atom_site_type_symbol
_atom_site_fract_x
_atom_site_fract_y
_atom_site_fract_z
Br1 Br 0.04206(6) 1.43302(3) 0.32211(5)
C1 C 0.0393(6) 1.1042(4) 0.3277(5)
C2 C 0.0857(6) 1.2085(4) 0.3458(5)
H1 H 0.1950 1.2257 0.3946
C3 C -0.0281(6) 1.2896(4) 0.2923(5)
C4 C -0.1893(6) 1.2665(4) 0.2181(5)
H2 H -0.2645 1.3206 0.1801
C5 C -0.2374(5) 1.1618(4) 0.2011(5)
H3 H -0.3472 1.1450 0.1532
C6 C -0.1254(5) 1.0807(4) 0.2540(5)
H4 H -0.1600 1.0101 0.2404
C7 C 0.1639(6) 1.0192(4) 0.3880(5)
C8 C 0.2087(5) 0.8408(3) 0.4213(4)
C9 C 0.4320(5) 0.7332(4) 0.5310(5)
H5 H 0.4701 0.7237 0.6299
H6 H 0.5225 0.7167 0.4931
C10 C 0.2784(5) 0.6662(4) 0.4651(5)
H7 H 0.2988 0.6185 0.3969
H8 H 0.2479 0.6242 0.5339
N1 N 0.1044(5) 0.9177(3) 0.3686(5)
N2 N 0.3674(5) 0.8409(3) 0.4935(4)
H9 H 0.372(6) 0.884(5) 0.566(5)
O1 O 0.3084(4) 1.0460(3) 0.4488(5)
O2 O 0.1470(4) 0.7416(2) 0.4011(3)
loop_
_geom_bond_atom_site_label_1
_geom_bond_atom_site_label_2
_geom_bond_site_symmetry_1
_geom_bond_site_symmetry_2
Br1 C3 1_555 1_555
C1 C2 1_555 1_555
C2 H1 1_555 1_555
C3 C2 1_555 1_555
C4 C3 1_555 1_555
H2 C4 1_555 1_555
C5 C4 1_555 1_555
H3 C5 1_555 1_555
C6 C1 1_555 1_555
H4 C6 1_555 1_555
C7 C1 1_555 1_555
C8 N1 1_555 1_555
C9 H5 1_555 1_555
H6 C9 1_555 1_555
C10 C9 1_555 1_555
H7 C10 1_555 1_555
H8 C10 1_555 1_555
N1 C7 1_555 1_555
N2 C8 1_555 1_555
H9 N2 1_555 1_555
O1 C7 1_555 1_555
O2 C8 1_555 1_555
C5 C6 1_555 1_555
C9 N2 1_555 1_555
C10 O2 1_555 1_555

#END
