
#######################################################################
#
#                 Cambridge Crystallographic Data Centre
#                                CCDC 
#
#######################################################################
#
# If this CIF has been generated from an entry in the Cambridge 
# Structural Database, then it will include bibliographic, chemical, 
# crystal, experimental, refinement or atomic coordinate data resulting 
# from the CCDC's data processing and validation procedures.
#
#######################################################################

data_YIRLOC
_chemical_formula_moiety         'C30 H42 O5'
_chemical_name_systematic        
4-Hydroxy-3a,6,6,13a-tetramethyl-1-(1-(5-methyl-6-oxo-3,6-dihydro-2H-pyran-2-yl)ethyl)-1,2,3,3a,3b,4,5,5a,6,12,13,13a-dodecahydro-8H-cyclopenta[5,6]cyclopropa[1,8a]naphtho[2,1-c]oxepin-8-one
_symmetry_cell_setting           monoclinic
_symmetry_space_group_name_H-M   'P 21'
_symmetry_Int_Tables_number      4
_space_group_name_Hall           'P 2yb'
loop_
_symmetry_equiv_pos_site_id
_symmetry_equiv_pos_as_xyz
1 x,y,z
2 -x,1/2+y,-z
_cell_length_a                   8.0353(2)
_cell_length_b                   32.2688(9)
_cell_length_c                   10.6842(3)
_cell_angle_alpha                90
_cell_angle_beta                 112.0480(10)
_cell_angle_gamma                90
_cell_volume                     2567.71
_exptl_crystal_colour            colorless
_exptl_crystal_description       prism
_cell_formula_units_Z            4
loop_
_atom_site_label
_atom_site_type_symbol
_atom_site_fract_x
_atom_site_fract_y
_atom_site_fract_z
O1 O 1.01308(19) 0.03442(4) 0.45683(15)
O2 O 0.7345(2) 0.30918(5) 1.26652(14)
O3 O 1.0239(2) -0.01086(5) 0.30694(18)
O4 O 0.49740(19) 0.27032(4) 1.17905(14)
O5 O 0.3243(2) 0.19826(5) 0.62403(15)
H1 H 0.2562 0.2189 0.5974
C1 C 1.1233(3) 0.04646(7) 0.1466(2)
H2 H 1.1880 0.0682 0.1195
H3 H 1.0009 0.0442 0.0790
H4 H 1.1858 0.0200 0.1535
C2 C 1.1157(3) 0.05726(6) 0.2815(2)
C3 C 1.0457(3) 0.02449(6) 0.3458(2)
C4 C 0.9980(3) 0.07849(6) 0.4838(2)
H5 H 0.8898 0.0898 0.4097
C5 C 0.9631(3) 0.07989(6) 0.61534(19)
H6 H 0.8657 0.0594 0.6054
C6 C 0.8910(2) 0.12264(5) 0.63448(18)
H7 H 0.9901 0.1432 0.6507
C7 C 0.8211(2) 0.12703(5) 0.75161(18)
C8 C 0.9653(3) 0.13554(6) 0.89107(19)
H8 H 1.0582 0.1537 0.8800
H9 H 1.0237 0.1090 0.9298
C9 C 0.8954(3) 0.15611(6) 0.99229(19)
H10 H 0.9297 0.1381 1.0730
H11 H 0.9608 0.1826 1.0214
C10 C 0.6934(2) 0.16543(6) 0.94749(18)
C11 C 0.6402(3) 0.19291(6) 1.04735(18)
C12 C 0.7861(3) 0.20538(7) 1.17431(19)
H12 H 0.8837 0.1865 1.2080
C13 C 0.7996(3) 0.23934(7) 1.24779(19)
H13 H 0.9071 0.2411 1.3257
C14 C 0.6766(3) 0.27472(6) 1.22933(18)
C15 C 0.3998(3) 0.23495(6) 1.09655(18)
C16 C 0.4887(3) 0.22412(6) 0.99364(18)
H14 H 0.5453 0.2504 0.9793
C17 C 0.3556(3) 0.21123(6) 0.85427(19)
H15 H 0.2971 0.1849 0.8618
H16 H 0.2612 0.2326 0.8192
C18 C 0.4511(3) 0.20583(6) 0.75710(18)
H17 H 0.5199 0.2316 0.7568
C19 C 0.5790(2) 0.16898(5) 0.79326(18)
H18 H 0.5009 0.1438 0.7698
C20 C 0.6972(2) 0.16608(5) 0.70813(18)
C21 C 0.8075(3) 0.20625(6) 0.72186(19)
H19 H 0.9004 0.2017 0.6846
H20 H 0.8642 0.2138 0.8174
H21 H 0.7279 0.2287 0.6722
C22 C 0.5942(3) 0.15796(6) 0.55678(18)
H22 H 0.5508 0.1843 0.5079
H23 H 0.4898 0.1396 0.5427
C23 C 0.7297(3) 0.13686(6) 0.50705(19)
H24 H 0.7705 0.1566 0.4535
H25 H 0.6736 0.1127 0.4495
C24 C 0.2141(3) 0.25400(6) 1.02970(19)
H26 H 0.1697 0.2628 1.0993
H27 H 0.1319 0.2334 0.9710
H28 H 0.2211 0.2780 0.9758
C25 C 0.3924(3) 0.19930(7) 1.1879(2)
H29 H 0.5146 0.1900 1.2414
H30 H 0.3238 0.1763 1.1325
H31 H 0.3339 0.2087 1.2485
C26 C 0.6005(3) 0.14645(6) 1.03226(19)
H32 H 0.6724 0.1282 1.1077
H33 H 0.4739 0.1378 0.9859
C27 C 0.7154(3) 0.08810(6) 0.7612(2)
H34 H 0.7952 0.0640 0.7820
H35 H 0.6154 0.0837 0.6749
H36 H 0.6685 0.0919 0.8329
C28 C 1.1290(3) 0.06558(7) 0.7356(2)
H37 H 1.1829 0.0416 0.7089
H38 H 1.0934 0.0578 0.8107
H39 H 1.2167 0.0882 0.7641
C29 C 1.1608(3) 0.10096(6) 0.4809(2)
H40 H 1.1469 0.1312 0.4902
H41 H 1.2693 0.0916 0.5570
C30 C 1.1805(3) 0.09195(6) 0.3493(2)
H42 H 1.2402 0.1114 0.3138
O6 O 0.9164(2) 0.76167(5) 1.45433(14)
O7 O 1.12894(18) 0.79655(4) 1.42434(13)
C31 C 1.2597(2) 0.84833(6) 1.16132(18)
H43 H 1.3048 0.8761 1.1974
H44 H 1.3632 0.8291 1.1892
O8 O 0.58978(18) 1.02230(4) 0.37732(13)
O9 O 0.5704(2) 1.06867(5) 0.22154(15)
O10 O 1.32499(18) 0.85844(5) 0.96788(13)
H45 H 1.3080 0.8462 0.8947
C32 C 0.9546(3) 0.79056(6) 1.39575(18)
C33 C 0.8092(3) 0.81532(6) 1.30011(19)
H46 H 0.6963 0.8112 1.3077
C34 C 0.8042(3) 0.84245(5) 1.20457(19)
H47 H 0.6882 0.8529 1.1526
C35 C 0.9500(2) 0.85871(6) 1.16695(17)
C36 C 0.8972(2) 0.88264(5) 1.03074(18)
C37 C 0.6983(2) 0.88173(6) 0.93868(18)
H48 H 0.6275 0.8903 0.9927
H49 H 0.6653 0.8527 0.9101
C38 C 0.6406(2) 0.90914(6) 0.81031(19)
H50 H 0.5618 0.8927 0.7324
H51 H 0.5695 0.9328 0.8222
C39 C 0.7986(2) 0.92593(5) 0.77808(18)
C40 C 0.7570(2) 0.93554(6) 0.62656(18)
H52 H 0.6829 0.9122 0.5723
C41 C 0.6586(2) 0.97628(5) 0.56670(18)
H53 H 0.7381 0.9995 0.6170
C42 C 0.6426(3) 0.97953(6) 0.41921(19)
H54 H 0.7640 0.9746 0.4163
C43 C 0.5106(3) 0.95041(6) 0.3197(2)
H55 H 0.5509 0.9214 0.3416
H56 H 0.3908 0.9533 0.3251
C44 C 0.4995(3) 0.96091(6) 0.1799(2)
H57 H 0.4654 0.9400 0.1122
C45 C 0.5361(3) 0.99859(6) 0.14911(19)
C46 C 0.5292(3) 1.01152(8) 0.0119(2)
H58 H 0.4919 0.9879 -0.0502
H59 H 0.6485 1.0209 0.0189
H60 H 0.4429 1.0342 -0.0225
C47 C 1.2082(2) 0.83157(6) 1.37843(17)
C48 C 1.4058(3) 0.81871(6) 1.43417(19)
H61 H 1.4421 0.8111 1.5295
H62 H 1.4796 0.8419 1.4257
H63 H 1.4222 0.7949 1.3831
C49 C 1.1249(2) 0.83376(5) 1.22181(17)
H64 H 1.0925 0.8047 1.1897
C50 C 1.1774(2) 0.85034(6) 1.00846(17)
H65 H 1.1208 0.8232 0.9710
C51 C 1.0374(2) 0.88504(5) 0.96191(17)
H66 H 1.1059 0.9112 0.9967
C52 C 0.9462(2) 0.89125(5) 0.80781(17)
C53 C 0.9503(3) 0.90611(5) 1.16087(18)
H67 H 0.8546 0.9210 1.1798
H68 H 1.0682 0.9203 1.1936
C54 C 0.9435(3) 0.93317(6) 0.6157(2)
H69 H 0.9343 0.9186 0.5318
H70 H 0.9906 0.9614 0.6135
C55 C 1.0700(3) 0.90935(6) 0.74031(19)
H71 H 1.1602 0.9282 0.8029
H72 H 1.1333 0.8869 0.7129
C56 C 0.5699(3) 1.03254(6) 0.2501(2)
C57 C 0.4772(3) 0.98240(6) 0.58034(19)
H73 H 0.4152 1.0062 0.5258
H74 H 0.4964 0.9874 0.6752
H75 H 0.4037 0.9575 0.5487
C58 C 0.8737(3) 0.96513(5) 0.86354(19)
H76 H 0.7834 0.9872 0.8353
H77 H 0.9823 0.9743 0.8503
H78 H 0.9032 0.9588 0.9592
C59 C 0.8677(3) 0.85014(6) 0.73544(19)
H79 H 0.9654 0.8304 0.7484
H80 H 0.8042 0.8554 0.6387
H81 H 0.7838 0.8386 0.7733
C60 C 1.1865(3) 0.87062(6) 1.44987(19)
H82 H 1.0585 0.8768 1.4239
H83 H 1.2457 0.8938 1.4241
H84 H 1.2413 0.8665 1.5478
loop_
_geom_bond_atom_site_label_1
_geom_bond_atom_site_label_2
_geom_bond_site_symmetry_1
_geom_bond_site_symmetry_2
O1 C3 1_555 1_555
O2 C14 1_555 1_555
O3 C3 1_555 1_555
O4 C14 1_555 1_555
O5 H1 1_555 1_555
C1 H2 1_555 1_555
H3 C1 1_555 1_555
H4 C1 1_555 1_555
C2 C1 1_555 1_555
C3 C2 1_555 1_555
C4 O1 1_555 1_555
H5 C4 1_555 1_555
C5 C4 1_555 1_555
H6 C5 1_555 1_555
C6 C5 1_555 1_555
H7 C6 1_555 1_555
C7 C6 1_555 1_555
C8 C7 1_555 1_555
H8 C8 1_555 1_555
H9 C8 1_555 1_555
C9 C8 1_555 1_555
H10 C9 1_555 1_555
H11 C9 1_555 1_555
C10 C9 1_555 1_555
C11 C10 1_555 1_555
C12 C11 1_555 1_555
H12 C12 1_555 1_555
C13 C12 1_555 1_555
H13 C13 1_555 1_555
C14 C13 1_555 1_555
C15 O4 1_555 1_555
C16 C11 1_555 1_555
H14 C16 1_555 1_555
C17 C16 1_555 1_555
H15 C17 1_555 1_555
H16 C17 1_555 1_555
C18 O5 1_555 1_555
H17 C18 1_555 1_555
C19 C10 1_555 1_555
H18 C19 1_555 1_555
C20 C7 1_555 1_555
C21 C20 1_555 1_555
H19 C21 1_555 1_555
H20 C21 1_555 1_555
H21 C21 1_555 1_555
C22 C20 1_555 1_555
H22 C22 1_555 1_555
H23 C22 1_555 1_555
C23 C6 1_555 1_555
H24 C23 1_555 1_555
H25 C23 1_555 1_555
C24 C15 1_555 1_555
H26 C24 1_555 1_555
H27 C24 1_555 1_555
H28 C24 1_555 1_555
C25 C15 1_555 1_555
H29 C25 1_555 1_555
H30 C25 1_555 1_555
H31 C25 1_555 1_555
C26 C10 1_555 1_555
H32 C26 1_555 1_555
H33 C26 1_555 1_555
C27 C7 1_555 1_555
H34 C27 1_555 1_555
H35 C27 1_555 1_555
H36 C27 1_555 1_555
C28 C5 1_555 1_555
H37 C28 1_555 1_555
H38 C28 1_555 1_555
H39 C28 1_555 1_555
C29 C4 1_555 1_555
H40 C29 1_555 1_555
H41 C29 1_555 1_555
C30 C2 1_555 1_555
H42 C30 1_555 1_555
O6 C32 1_555 1_555
O7 C32 1_555 1_555
C31 H43 1_555 1_555
H44 C31 1_555 1_555
O8 C42 1_555 1_555
O9 C56 1_555 1_555
O10 H45 1_555 1_555
C32 C33 1_555 1_555
C33 H46 1_555 1_555
C34 C33 1_555 1_555
H47 C34 1_555 1_555
C35 C34 1_555 1_555
C36 C35 1_555 1_555
C37 C36 1_555 1_555
H48 C37 1_555 1_555
H49 C37 1_555 1_555
C38 C37 1_555 1_555
H50 C38 1_555 1_555
H51 C38 1_555 1_555
C39 C38 1_555 1_555
C40 C39 1_555 1_555
H52 C40 1_555 1_555
C41 C40 1_555 1_555
H53 C41 1_555 1_555
C42 C41 1_555 1_555
H54 C42 1_555 1_555
C43 C42 1_555 1_555
H55 C43 1_555 1_555
H56 C43 1_555 1_555
C44 C43 1_555 1_555
H57 C44 1_555 1_555
C45 C44 1_555 1_555
C46 C45 1_555 1_555
H58 C46 1_555 1_555
H59 C46 1_555 1_555
H60 C46 1_555 1_555
C47 O7 1_555 1_555
C48 C47 1_555 1_555
H61 C48 1_555 1_555
H62 C48 1_555 1_555
H63 C48 1_555 1_555
C49 C31 1_555 1_555
H64 C49 1_555 1_555
C50 C31 1_555 1_555
H65 C50 1_555 1_555
C51 C36 1_555 1_555
H66 C51 1_555 1_555
C52 C39 1_555 1_555
C53 C35 1_555 1_555
H67 C53 1_555 1_555
H68 C53 1_555 1_555
C54 C40 1_555 1_555
H69 C54 1_555 1_555
H70 C54 1_555 1_555
C55 C52 1_555 1_555
H71 C55 1_555 1_555
H72 C55 1_555 1_555
C56 O8 1_555 1_555
C57 C41 1_555 1_555
H73 C57 1_555 1_555
H74 C57 1_555 1_555
H75 C57 1_555 1_555
C58 C39 1_555 1_555
H76 C58 1_555 1_555
H77 C58 1_555 1_555
H78 C58 1_555 1_555
C59 C52 1_555 1_555
H79 C59 1_555 1_555
H80 C59 1_555 1_555
H81 C59 1_555 1_555
C60 C47 1_555 1_555
H82 C60 1_555 1_555
H83 C60 1_555 1_555
H84 C60 1_555 1_555
C11 C26 1_555 1_555
C15 C16 1_555 1_555
C17 C18 1_555 1_555
C18 C19 1_555 1_555
C19 C20 1_555 1_555
C22 C23 1_555 1_555
C29 C30 1_555 1_555
O10 C50 1_555 1_555
C35 C49 1_555 1_555
C36 C53 1_555 1_555
C45 C56 1_555 1_555
C47 C49 1_555 1_555
C50 C51 1_555 1_555
C51 C52 1_555 1_555
C54 C55 1_555 1_555

#END
