
#######################################################################
#
#                 Cambridge Crystallographic Data Centre
#                                CCDC 
#
#######################################################################
#
# If this CIF has been generated from an entry in the Cambridge 
# Structural Database, then it will include bibliographic, chemical, 
# crystal, experimental, refinement or atomic coordinate data resulting 
# from the CCDC's data processing and validation procedures.
#
#######################################################################

data_YIRLER
_chemical_formula_moiety         'C5 H5 N3 O1'
_chemical_name_systematic        Pyrimidine-2-carboxamide
_symmetry_cell_setting           monoclinic
_symmetry_space_group_name_H-M   'P 21/c'
_symmetry_Int_Tables_number      14
_space_group_name_Hall           '-P 2ybc'
loop_
_symmetry_equiv_pos_site_id
_symmetry_equiv_pos_as_xyz
1 x,y,z
2 -x,1/2+y,1/2-z
3 -x,-y,-z
4 x,1/2-y,1/2+z
_cell_length_a                   7.9241(7)
_cell_length_b                   7.3059(7)
_cell_length_c                   9.8223(9)
_cell_angle_alpha                90
_cell_angle_beta                 103.512(6)
_cell_angle_gamma                90
_cell_volume                     552.9
_exptl_crystal_colour            yellow
_exptl_crystal_description       prism
_cell_formula_units_Z            4
loop_
_atom_site_label
_atom_site_type_symbol
_atom_site_fract_x
_atom_site_fract_y
_atom_site_fract_z
N1 N 0.35320(14) 0.45375(15) 0.64547(11)
N2 N 0.18202(13) 0.54314(14) 0.42171(10)
O1 O 0.13605(12) 0.15236(12) 0.61860(8)
N3 N 0.07527(15) 0.18634(15) 0.38330(10)
H1 H 0.0949 0.2477 0.3043
H2 H 0.0039 0.0783 0.3675
C1 C 0.23238(14) 0.42647(15) 0.52761(11)
C2 C 0.43153(18) 0.6167(2) 0.65658(14)
H3 H 0.5193 0.6412 0.7355
C3 C 0.38709(19) 0.74967(19) 0.55555(15)
H4 H 0.4405 0.8638 0.5659
C4 C 0.26039(18) 0.70681(18) 0.43855(14)
H5 H 0.2279 0.7944 0.3686
C5 C 0.14304(14) 0.24129(15) 0.51331(11)
loop_
_geom_bond_atom_site_label_1
_geom_bond_atom_site_label_2
_geom_bond_site_symmetry_1
_geom_bond_site_symmetry_2
N1 C1 1_555 1_555
N2 C1 1_555 1_555
O1 C5 1_555 1_555
N3 H1 1_555 1_555
H2 N3 1_555 1_555
C1 C5 1_555 1_555
C2 N1 1_555 1_555
H3 C2 1_555 1_555
C3 C2 1_555 1_555
H4 C3 1_555 1_555
C4 N2 1_555 1_555
H5 C4 1_555 1_555
C5 N3 1_555 1_555
C3 C4 1_555 1_555

#END
