
#######################################################################
#
#                 Cambridge Crystallographic Data Centre
#                                CCDC 
#
#######################################################################
#
# If this CIF has been generated from an entry in the Cambridge 
# Structural Database, then it will include bibliographic, chemical, 
# crystal, experimental, refinement or atomic coordinate data resulting 
# from the CCDC's data processing and validation procedures.
#
#######################################################################

data_YIRMAO01
_chemical_formula_moiety         'C40 H26 N4'
_chemical_name_systematic        2,2',3,3'-tetraphenyl-6,6'-biquinoxaline
_symmetry_cell_setting           monoclinic
_symmetry_space_group_name_H-M   'P 21/c'
_symmetry_Int_Tables_number      14
_space_group_name_Hall           '-P 2ybc'
loop_
_symmetry_equiv_pos_site_id
_symmetry_equiv_pos_as_xyz
1 x,y,z
2 -x,1/2+y,1/2-z
3 -x,-y,-z
4 x,1/2-y,1/2+z
_cell_length_a                   6.2940(7)
_cell_length_b                   7.6457(9)
_cell_length_c                   29.753(4)
_cell_angle_alpha                90
_cell_angle_beta                 94.876(4)
_cell_angle_gamma                90
_cell_volume                     1426.59
_exptl_crystal_colour            yellow
_exptl_crystal_description       Tabular
_cell_formula_units_Z            2
loop_
_atom_site_label
_atom_site_type_symbol
_atom_site_fract_x
_atom_site_fract_y
_atom_site_fract_z
C1 C 0.5619(3) 0.8361(2) 0.87934(6)
C2 C 0.6255(3) 0.8835(2) 0.83372(6)
C3 C 0.4730(3) 0.9637(2) 0.80341(6)
H1 H 0.3330 0.9822 0.8121
C4 C 0.5219(3) 1.0165(3) 0.76109(6)
H2 H 0.4168 1.0727 0.7413
C5 C 0.7245(3) 0.9878(2) 0.74744(6)
H3 H 0.7579 1.0217 0.7181
C6 C 0.8777(3) 0.9089(2) 0.77705(6)
H4 H 1.0165 0.8888 0.7679
C7 C 0.8305(3) 0.8591(2) 0.81983(6)
H5 H 0.9383 0.8079 0.8400
C8 C 0.6588(3) 0.6982(2) 0.90715(6)
C9 C 0.8076(3) 0.5665(2) 0.89032(6)
C10 C 0.7428(3) 0.4630(2) 0.85305(6)
H6 H 0.6046 0.4784 0.8381
C11 C 0.8785(3) 0.3380(3) 0.83769(6)
H7 H 0.8326 0.2662 0.8127
C12 C 1.0818(3) 0.3179(3) 0.85899(6)
H8 H 1.1771 0.2351 0.8479
C13 C 1.1457(3) 0.4187(2) 0.89641(6)
H9 H 1.2846 0.4040 0.9111
C14 C 1.0086(3) 0.5405(2) 0.91256(6)
H10 H 1.0516 0.6063 0.9388
C15 C 0.4523(3) 0.7739(2) 0.96411(6)
C16 C 0.3836(3) 0.7450(3) 1.00738(6)
H11 H 0.4578 0.6640 1.0272
C17 C 0.2117(3) 0.8324(3) 1.02095(6)
H12 H 0.1682 0.8112 1.0503
C18 C 0.0953(3) 0.9551(2) 0.99238(6)
C19 C 0.1645(3) 0.9858(2) 0.95042(6)
H13 H 0.0909 1.0685 0.9310
C20 C 0.3423(3) 0.8971(2) 0.93571(6)
N1 N 0.4049(2) 0.9312(2) 0.89373(5)
N2 N 0.6103(2) 0.6736(2) 0.94902(5)
C1B C -0.5619(3) 1.1639(2) 1.12066(6)
C2B C -0.6255(3) 1.1165(2) 1.16628(6)
C3B C -0.4730(3) 1.0363(2) 1.19659(6)
H1B H -0.3330 1.0178 1.1879
C4B C -0.5219(3) 0.9835(3) 1.23891(6)
H2B H -0.4168 0.9273 1.2587
C5B C -0.7245(3) 1.0122(2) 1.25256(6)
H3B H -0.7579 0.9783 1.2819
C6B C -0.8777(3) 1.0911(2) 1.22295(6)
H4B H -1.0165 1.1112 1.2321
C7B C -0.8305(3) 1.1409(2) 1.18017(6)
H5B H -0.9383 1.1921 1.1600
C8B C -0.6588(3) 1.3018(2) 1.09285(6)
C9B C -0.8076(3) 1.4335(2) 1.10968(6)
C10B C -0.7428(3) 1.5370(2) 1.14695(6)
H6B H -0.6046 1.5216 1.1619
C11B C -0.8785(3) 1.6620(3) 1.16231(6)
H7B H -0.8326 1.7338 1.1873
C12B C -1.0818(3) 1.6821(3) 1.14101(6)
H8B H -1.1771 1.7649 1.1521
C13B C -1.1457(3) 1.5813(2) 1.10359(6)
H9B H -1.2846 1.5960 1.0889
C14B C -1.0086(3) 1.4595(2) 1.08744(6)
H10B H -1.0516 1.3937 1.0612
C15B C -0.4523(3) 1.2261(2) 1.03589(6)
C16B C -0.3836(3) 1.2550(3) 0.99262(6)
H11B H -0.4578 1.3360 0.9728
C17B C -0.2117(3) 1.1676(3) 0.97905(6)
H12B H -0.1682 1.1888 0.9497
C18B C -0.0953(3) 1.0449(2) 1.00762(6)
C19B C -0.1645(3) 1.0142(2) 1.04958(6)
H13B H -0.0909 0.9315 1.0690
C20B C -0.3423(3) 1.1029(2) 1.06429(6)
N1B N -0.4049(2) 1.0688(2) 1.10627(5)
N2B N -0.6103(2) 1.3264(2) 1.05098(5)
loop_
_geom_bond_atom_site_label_1
_geom_bond_atom_site_label_2
_geom_bond_site_symmetry_1
_geom_bond_site_symmetry_2
C1 C2 1_555 1_555
C2 C3 1_555 1_555
C3 H1 1_555 1_555
C4 C3 1_555 1_555
H2 C4 1_555 1_555
C5 C4 1_555 1_555
H3 C5 1_555 1_555
C6 C5 1_555 1_555
H4 C6 1_555 1_555
C7 C2 1_555 1_555
H5 C7 1_555 1_555
C8 C1 1_555 1_555
C9 C8 1_555 1_555
C10 C9 1_555 1_555
H6 C10 1_555 1_555
C11 C10 1_555 1_555
H7 C11 1_555 1_555
C12 C11 1_555 1_555
H8 C12 1_555 1_555
C13 C12 1_555 1_555
H9 C13 1_555 1_555
C14 C9 1_555 1_555
H10 C14 1_555 1_555
C15 C16 1_555 1_555
C16 H11 1_555 1_555
C17 C16 1_555 1_555
H12 C17 1_555 1_555
C18 C17 1_555 1_555
C19 C18 1_555 1_555
H13 C19 1_555 1_555
C20 C15 1_555 1_555
N1 C1 1_555 1_555
N2 C8 1_555 1_555
C1B C2B 1_555 1_555
C2B C3B 1_555 1_555
C3B H1B 1_555 1_555
C4B C3B 1_555 1_555
H2B C4B 1_555 1_555
C5B C4B 1_555 1_555
H3B C5B 1_555 1_555
C6B C5B 1_555 1_555
H4B C6B 1_555 1_555
C7B C2B 1_555 1_555
H5B C7B 1_555 1_555
C8B C1B 1_555 1_555
C9B C8B 1_555 1_555
C10B C9B 1_555 1_555
H6B C10B 1_555 1_555
C11B C10B 1_555 1_555
H7B C11B 1_555 1_555
C12B C11B 1_555 1_555
H8B C12B 1_555 1_555
C13B C12B 1_555 1_555
H9B C13B 1_555 1_555
C14B C9B 1_555 1_555
H10B C14B 1_555 1_555
C15B C16B 1_555 1_555
C16B H11B 1_555 1_555
C17B C16B 1_555 1_555
H12B C17B 1_555 1_555
C18B C18 1_555 1_555
C19B C18B 1_555 1_555
H13B C19B 1_555 1_555
C20B C15B 1_555 1_555
N1B C1B 1_555 1_555
N2B C8B 1_555 1_555
C6 C7 1_555 1_555
C13 C14 1_555 1_555
C15 N2 1_555 1_555
C19 C20 1_555 1_555
C20 N1 1_555 1_555
C6B C7B 1_555 1_555
C13B C14B 1_555 1_555
C15B N2B 1_555 1_555
C17B C18B 1_555 1_555
C19B C20B 1_555 1_555
C20B N1B 1_555 1_555

#END
