
#######################################################################
#
#                 Cambridge Crystallographic Data Centre
#                                CCDC 
#
#######################################################################
#
# If this CIF has been generated from an entry in the Cambridge 
# Structural Database, then it will include bibliographic, chemical, 
# crystal, experimental, refinement or atomic coordinate data resulting 
# from the CCDC's data processing and validation procedures.
#
#######################################################################

data_YIRMUI01
_chemical_formula_moiety         'C25 H20 N4,4(H2 O1)'
_chemical_name_systematic        
"4,4'-Methylenebis(N-(pyridin-4-ylmethylene)aniline) tetrahydrate"
_symmetry_cell_setting           monoclinic
_symmetry_space_group_name_H-M   'C 2/c'
_symmetry_Int_Tables_number      15
_space_group_name_Hall           '-C 2yn'
loop_
_symmetry_equiv_pos_site_id
_symmetry_equiv_pos_as_xyz
1 x,y,z
2 -x,y,1/2-z
3 1/2+x,1/2+y,z
4 1/2-x,1/2+y,1/2-z
5 -x,-y,-z
6 x,-y,1/2+z
7 1/2-x,1/2-y,-z
8 1/2+x,1/2-y,1/2+z
_cell_length_a                   17.744(4)
_cell_length_b                   4.7133(9)
_cell_length_c                   28.273(6)
_cell_angle_alpha                90
_cell_angle_beta                 99.76(3)
_cell_angle_gamma                90
_cell_volume                     2330.33
_exptl_crystal_colour            yellow
_exptl_crystal_description       block
_cell_formula_units_Z            4
loop_
_atom_site_label
_atom_site_type_symbol
_atom_site_fract_x
_atom_site_fract_y
_atom_site_fract_z
O1 O 0.49527(15) 0.7290(6) 0.45029(9)
H1 H 0.471(2) 0.746(9) 0.4744(11)
H2 H 0.520(2) 0.570(6) 0.4548(16)
O2 O 0.57690(16) 0.2262(6) 0.46923(11)
H3 H 0.612(2) 0.284(10) 0.4542(15)
H4 H 0.560(3) 0.066(6) 0.4591(17)
N1 N 0.68718(16) -0.4869(6) 0.42928(10)
N2 N 0.80597(12) 0.2438(5) 0.33301(8)
C1 C 0.66058(19) -0.3359(7) 0.38996(13)
H5 H 0.6090 -0.3589 0.3760
C2 C 0.70416(16) -0.1487(7) 0.36859(11)
H6 H 0.6826 -0.0484 0.3408
C3 C 0.78013(15) -0.1110(6) 0.38870(10)
C4 C 0.80808(18) -0.2666(6) 0.42918(11)
H7 H 0.8595 -0.2479 0.4439
C5 C 0.7603(2) -0.4500(7) 0.44802(12)
H8 H 0.7806 -0.5543 0.4756
C6 C 0.82996(15) 0.0875(6) 0.36816(10)
H9 H 0.8819 0.0972 0.3820
C7 C 0.85658(14) 0.4341(5) 0.31505(9)
C8 C 0.92964(15) 0.5047(6) 0.33876(10)
H10 H 0.9486 0.4237 0.3688
C9 C 0.97432(15) 0.6936(6) 0.31818(10)
H11 H 1.0236 0.7381 0.3345
C10 C 0.94815(14) 0.8183(5) 0.27422(9)
C11 C 0.87478(15) 0.7536(5) 0.25154(9)
H12 H 0.8552 0.8393 0.2220
C12 C 0.82968(14) 0.5637(6) 0.27191(9)
H13 H 0.7800 0.5231 0.2559
C13 C 1.0000 1.0042(8) 0.2500
H14 H 1.0309 1.1260 0.2739
N1A N 1.31282(16) -0.4869(6) 0.07072(10)
N2A N 1.19403(12) 0.2438(5) 0.16699(8)
C1A C 1.33942(19) -0.3359(7) 0.11004(13)
H5A H 1.3910 -0.3589 0.1240
C2A C 1.29584(16) -0.1487(7) 0.13141(11)
H6A H 1.3174 -0.0484 0.1592
C3A C 1.21987(15) -0.1110(6) 0.11130(10)
C4A C 1.19192(18) -0.2666(6) 0.07082(11)
H7A H 1.1405 -0.2479 0.0561
C5A C 1.2397(2) -0.4500(7) 0.05198(12)
H8A H 1.2194 -0.5543 0.0244
C6A C 1.17004(15) 0.0875(6) 0.13184(10)
H9A H 1.1181 0.0972 0.1180
C7A C 1.14342(14) 0.4341(5) 0.18495(9)
C8A C 1.07036(15) 0.5047(6) 0.16124(10)
H10A H 1.0514 0.4237 0.1312
C9A C 1.02568(15) 0.6936(6) 0.18182(10)
H11A H 0.9764 0.7381 0.1655
C10A C 1.05185(14) 0.8183(5) 0.22578(9)
C11A C 1.12522(15) 0.7536(5) 0.24846(9)
H12A H 1.1448 0.8393 0.2780
C12A C 1.17032(14) 0.5637(6) 0.22809(9)
H13A H 1.2200 0.5231 0.2441
H14A H 0.9691 1.1260 0.2261
loop_
_geom_bond_atom_site_label_1
_geom_bond_atom_site_label_2
_geom_bond_site_symmetry_1
_geom_bond_site_symmetry_2
O1 H1 1_555 1_555
H2 O1 1_555 1_555
O2 H3 1_555 1_555
H4 O2 1_555 1_555
N1 C1 1_555 1_555
N2 C6 1_555 1_555
C1 H5 1_555 1_555
C2 C1 1_555 1_555
H6 C2 1_555 1_555
C3 C2 1_555 1_555
C4 C3 1_555 1_555
H7 C4 1_555 1_555
C5 N1 1_555 1_555
H8 C5 1_555 1_555
C6 C3 1_555 1_555
H9 C6 1_555 1_555
C7 N2 1_555 1_555
C8 C7 1_555 1_555
H10 C8 1_555 1_555
C9 C8 1_555 1_555
H11 C9 1_555 1_555
C10 C9 1_555 1_555
C11 C10 1_555 1_555
H12 C11 1_555 1_555
C12 C7 1_555 1_555
H13 C12 1_555 1_555
C13 C10 1_555 1_555
H14 C13 1_555 1_555
N1A C1A 1_555 1_555
N2A C6A 1_555 1_555
C1A H5A 1_555 1_555
C2A C1A 1_555 1_555
H6A C2A 1_555 1_555
C3A C2A 1_555 1_555
C4A C3A 1_555 1_555
H7A C4A 1_555 1_555
C5A N1A 1_555 1_555
H8A C5A 1_555 1_555
C6A C3A 1_555 1_555
H9A C6A 1_555 1_555
C7A N2A 1_555 1_555
C8A C7A 1_555 1_555
H10A C8A 1_555 1_555
C9A C8A 1_555 1_555
H11A C9A 1_555 1_555
C10A C13 1_555 1_555
C11A C10A 1_555 1_555
H12A C11A 1_555 1_555
C12A C7A 1_555 1_555
H13A C12A 1_555 1_555
H14A C13 1_555 1_555
C4 C5 1_555 1_555
C11 C12 1_555 1_555
C4A C5A 1_555 1_555
C9A C10A 1_555 1_555
C11A C12A 1_555 1_555

#END
