
#######################################################################
#
#                 Cambridge Crystallographic Data Centre
#                                CCDC 
#
#######################################################################
#
# If this CIF has been generated from an entry in the Cambridge 
# Structural Database, then it will include bibliographic, chemical, 
# crystal, experimental, refinement or atomic coordinate data resulting 
# from the CCDC's data processing and validation procedures.
#
#######################################################################

data_YIRMES
_chemical_formula_moiety         'C12 H13 N3 O1'
_chemical_name_systematic        7-Acetylamino-2,4-dimethyl-1,8-naphthyridine
_chemical_properties_biological  'antibacterial activity'
_symmetry_cell_setting           monoclinic
_symmetry_space_group_name_H-M   'P 21/n'
_symmetry_Int_Tables_number      14
_space_group_name_Hall           '-P 2yn'
loop_
_symmetry_equiv_pos_site_id
_symmetry_equiv_pos_as_xyz
1 x,y,z
2 1/2-x,1/2+y,1/2-z
3 -x,-y,-z
4 1/2+x,1/2-y,1/2+z
_cell_length_a                   7.970(8)
_cell_length_b                   7.309(7)
_cell_length_c                   19.071(18)
_cell_angle_alpha                90
_cell_angle_beta                 91.883(14)
_cell_angle_gamma                90
_cell_volume                     1110.34
_exptl_crystal_colour            'pale yellow'
_exptl_crystal_description       block
_cell_formula_units_Z            4
_exptl_crystal_recrystallization_method dichloromethane/ether
loop_
_atom_site_label
_atom_site_type_symbol
_atom_site_fract_x
_atom_site_fract_y
_atom_site_fract_z
N1 N 0.8038(2) 0.1591(3) 0.16857(10)
N2 N 0.6692(2) -0.1164(3) 0.15749(10)
N3 N 0.9292(3) 0.4340(3) 0.18935(10)
H1 H 0.8956 0.4199 0.2314
O1 O 1.0871(3) 0.6171(3) 0.12288(10)
C1 C 0.7455(3) 0.0253(3) 0.12480(11)
C2 C 0.6113(3) -0.2514(4) 0.11782(13)
C3 C 0.6280(3) -0.2537(4) 0.04464(14)
H2 H 0.5891 -0.3546 0.0192
C4 C 0.6991(3) -0.1130(4) 0.01004(12)
C5 C 0.7602(3) 0.0348(3) 0.05134(12)
C6 C 0.8324(3) 0.1936(4) 0.02437(13)
H3 H 0.8425 0.2063 -0.0238
C7 C 0.8875(3) 0.3283(4) 0.06768(13)
H4 H 0.9331 0.4351 0.0499
C8 C 0.8742(3) 0.3032(3) 0.14080(12)
C9 C 0.5235(4) -0.4030(4) 0.15366(15)
H5 H 0.5582 -0.4054 0.2023
H6 H 0.5514 -0.5173 0.1322
H7 H 0.4045 -0.3839 0.1496
C10 C 0.7102(4) -0.1127(4) -0.06836(13)
H8 H 0.6876 -0.2334 -0.0861
H9 H 0.8208 -0.0758 -0.0809
H10 H 0.6291 -0.0287 -0.0882
C11 C 1.0292(3) 0.5810(4) 0.17874(14)
C12 C 1.0655(4) 0.6957(4) 0.24196(16)
H11 H 1.1689 0.7605 0.2364
H12 H 1.0749 0.6188 0.2827
H13 H 0.9759 0.7818 0.2475
loop_
_geom_bond_atom_site_label_1
_geom_bond_atom_site_label_2
_geom_bond_site_symmetry_1
_geom_bond_site_symmetry_2
N1 C1 1_555 1_555
N2 C1 1_555 1_555
N3 H1 1_555 1_555
O1 C11 1_555 1_555
C1 C5 1_555 1_555
C2 N2 1_555 1_555
C3 C2 1_555 1_555
H2 C3 1_555 1_555
C4 C3 1_555 1_555
C5 C4 1_555 1_555
C6 C5 1_555 1_555
H3 C6 1_555 1_555
C7 C6 1_555 1_555
H4 C7 1_555 1_555
C8 N1 1_555 1_555
C9 C2 1_555 1_555
H5 C9 1_555 1_555
H6 C9 1_555 1_555
H7 C9 1_555 1_555
C10 C4 1_555 1_555
H8 C10 1_555 1_555
H9 C10 1_555 1_555
H10 C10 1_555 1_555
C11 N3 1_555 1_555
C12 C11 1_555 1_555
H11 C12 1_555 1_555
H12 C12 1_555 1_555
H13 C12 1_555 1_555
N3 C8 1_555 1_555
C7 C8 1_555 1_555

#END
