
#######################################################################
#
#                 Cambridge Crystallographic Data Centre
#                                CCDC 
#
#######################################################################
#
# If this CIF has been generated from an entry in the Cambridge 
# Structural Database, then it will include bibliographic, chemical, 
# crystal, experimental, refinement or atomic coordinate data resulting 
# from the CCDC's data processing and validation procedures.
#
#######################################################################

data_YIRNOE
_chemical_formula_moiety         'C15 H14 O6,0.5(H2 O1)'
_chemical_name_systematic        
'3,6,14-Trihydroxy-12-oxatetracyclo[8.3.3.0^1,10^.0^2,7^]hexadeca-2,4,6-triene-8,11-dione hemihydrate'
_symmetry_cell_setting           monoclinic
_symmetry_space_group_name_H-M   'P 21'
_symmetry_Int_Tables_number      4
_space_group_name_Hall           'P 2yb'
loop_
_symmetry_equiv_pos_site_id
_symmetry_equiv_pos_as_xyz
1 x,y,z
2 -x,1/2+y,-z
_cell_length_a                   6.8969(2)
_cell_length_b                   13.7816(5)
_cell_length_c                   13.7689(5)
_cell_angle_alpha                90
_cell_angle_beta                 94.749(2)
_cell_angle_gamma                90
_cell_volume                     1304.25
_exptl_crystal_colour            yellow
_exptl_crystal_description       prism
_cell_formula_units_Z            4
loop_
_atom_site_label
_atom_site_type_symbol
_atom_site_fract_x
_atom_site_fract_y
_atom_site_fract_z
O1 O 0.0831(5) 0.9040(3) 0.5391(2)
H1 H 0.1825 0.9046 0.5185
H2 H 0.0353 0.8503 0.5467
O2 O 1.0788(5) 0.8900(2) 0.8465(2)
O3 O 1.2396(4) 0.7961(2) 0.7492(2)
O4 O 0.9220(5) 0.7233(2) 0.5646(2)
H3 H 0.9695 0.6786 0.5326
O5 O 1.0903(5) 0.5305(2) 0.5860(2)
H4 H 1.0390 0.4947 0.5417
O6 O 1.0011(4) 0.3652(2) 0.9438(2)
H5 H 0.9674 0.4067 0.9837
O7 O 0.9451(5) 0.5400(2) 1.0068(2)
C1 C 1.0547(6) 0.3496(3) 0.7794(3)
H6 H 1.0627 0.2813 0.7882
C2 C 1.0204(6) 0.4078(3) 0.8578(3)
C3 C 1.0133(6) 0.5100(3) 0.8448(3)
C4 C 0.9921(6) 0.5728(3) 0.9284(3)
C5 C 1.0438(6) 0.6782(3) 0.9208(3)
H7 H 1.1866 0.6856 0.9330
H8 H 0.9824 0.7149 0.9719
C6 C 0.9787(6) 0.7218(3) 0.8213(3)
C7 C 1.0997(7) 0.8127(3) 0.8091(3)
C8 C 1.2281(6) 0.6970(3) 0.7126(3)
H9 H 1.3317 0.6565 0.7461
H10 H 1.2430 0.6958 0.6417
C9 C 1.0259(6) 0.6591(3) 0.7337(3)
C10 C 0.7611(6) 0.7444(4) 0.8060(3)
H11 H 0.6815 0.6886 0.8244
H12 H 0.7270 0.8022 0.8438
C11 C 0.7348(6) 0.7636(4) 0.6972(3)
H13 H 0.7811 0.8294 0.6819
H14 H 0.5964 0.7575 0.6726
C12 C 0.8591(6) 0.6852(3) 0.6519(3)
H15 H 0.7773 0.6264 0.6366
C13 C 1.0774(6) 0.3883(3) 0.6889(3)
H16 H 1.1004 0.3468 0.6360
C14 C 1.0665(6) 0.4896(3) 0.6749(3)
C15 C 1.0359(6) 0.5501(3) 0.7519(3)
O8 O 0.9548(5) 0.1592(3) 0.6076(2)
O9 O 0.5506(5) 0.5070(3) 0.7319(3)
H17 H 0.5727 0.4924 0.6746
O10 O 0.9103(4) 0.1125(2) 0.7586(2)
O11 O 0.4912(5) 0.1876(3) 0.9666(3)
H18 H 0.4420 0.1389 0.9373
O12 O 0.3693(5) 0.0415(3) 0.8592(3)
H19 H 0.2641 0.0108 0.8595
O13 O 0.5932(5) 0.3943(3) 0.5870(3)
C16 C 0.5176(7) 0.4354(4) 0.8840(4)
H20 H 0.5148 0.4982 0.9123
C17 C 0.5404(7) 0.4255(4) 0.7851(4)
C18 C 0.5501(6) 0.3321(4) 0.7446(3)
C19 C 0.5358(6) 0.2473(4) 0.8025(3)
C20 C 0.5687(6) 0.1451(3) 0.7652(3)
C21 C 0.6226(6) 0.1423(3) 0.6580(3)
C22 C 0.8436(6) 0.1413(3) 0.6687(3)
C23 C 0.5685(6) 0.3239(3) 0.6395(3)
C24 C 0.5454(7) 0.2253(4) 0.5942(3)
H21 H 0.6129 0.2248 0.5335
H22 H 0.4054 0.2139 0.5759
C25 C 0.7522(6) 0.1016(3) 0.8201(3)
H23 H 0.7823 0.1360 0.8826
H24 H 0.7313 0.0321 0.8342
C26 C 0.5062(6) 0.2609(4) 0.9026(3)
C27 C 0.4991(7) 0.3546(4) 0.9409(4)
H25 H 0.4809 0.3627 1.0081
C28 C 0.3929(7) 0.0752(4) 0.7635(3)
H26 H 0.2719 0.1087 0.7361
C29 C 0.4459(8) -0.0065(4) 0.6962(4)
H27 H 0.5319 -0.0543 0.7320
H28 H 0.3274 -0.0403 0.6682
C30 C 0.5505(7) 0.0422(4) 0.6163(4)
H29 H 0.4608 0.0513 0.5571
H30 H 0.6620 0.0022 0.5993
loop_
_geom_bond_atom_site_label_1
_geom_bond_atom_site_label_2
_geom_bond_site_symmetry_1
_geom_bond_site_symmetry_2
O1 H1 1_555 1_555
H2 O1 1_555 1_555
O2 C7 1_555 1_555
O3 C7 1_555 1_555
O4 H3 1_555 1_555
O5 H4 1_555 1_555
O6 H5 1_555 1_555
O7 C4 1_555 1_555
C1 H6 1_555 1_555
C2 O6 1_555 1_555
C3 C2 1_555 1_555
C4 C3 1_555 1_555
C5 C4 1_555 1_555
H7 C5 1_555 1_555
H8 C5 1_555 1_555
C6 C5 1_555 1_555
C7 C6 1_555 1_555
C8 O3 1_555 1_555
H9 C8 1_555 1_555
H10 C8 1_555 1_555
C9 C6 1_555 1_555
C10 C6 1_555 1_555
H11 C10 1_555 1_555
H12 C10 1_555 1_555
C11 C10 1_555 1_555
H13 C11 1_555 1_555
H14 C11 1_555 1_555
C12 O4 1_555 1_555
H15 C12 1_555 1_555
C13 C1 1_555 1_555
H16 C13 1_555 1_555
C14 O5 1_555 1_555
C15 C3 1_555 1_555
O8 C22 1_555 1_555
O9 H17 1_555 1_555
O10 C22 1_555 1_555
O11 H18 1_555 1_555
O12 H19 1_555 1_555
O13 C23 1_555 1_555
C16 H20 1_555 1_555
C17 O9 1_555 1_555
C18 C17 1_555 1_555
C19 C18 1_555 1_555
C20 C19 1_555 1_555
C21 C20 1_555 1_555
C22 C21 1_555 1_555
C23 C18 1_555 1_555
C24 C21 1_555 1_555
H21 C24 1_555 1_555
H22 C24 1_555 1_555
C25 O10 1_555 1_555
H23 C25 1_555 1_555
H24 C25 1_555 1_555
C26 O11 1_555 1_555
C27 C16 1_555 1_555
H25 C27 1_555 1_555
C28 O12 1_555 1_555
H26 C28 1_555 1_555
C29 C28 1_555 1_555
H27 C29 1_555 1_555
H28 C29 1_555 1_555
C30 C21 1_555 1_555
H29 C30 1_555 1_555
H30 C30 1_555 1_555
C1 C2 1_555 1_555
C8 C9 1_555 1_555
C9 C12 1_555 1_555
C9 C15 1_555 1_555
C11 C12 1_555 1_555
C13 C14 1_555 1_555
C14 C15 1_555 1_555
C16 C17 1_555 1_555
C19 C26 1_555 1_555
C20 C25 1_555 1_555
C20 C28 1_555 1_555
C23 C24 1_555 1_555
C26 C27 1_555 1_555
C29 C30 1_555 1_555

#END
