
#######################################################################
#
#                 Cambridge Crystallographic Data Centre
#                                CCDC 
#
#######################################################################
#
# If this CIF has been generated from an entry in the Cambridge 
# Structural Database, then it will include bibliographic, chemical, 
# crystal, experimental, refinement or atomic coordinate data resulting 
# from the CCDC's data processing and validation procedures.
#
#######################################################################

data_YIRPUL
_chemical_formula_moiety         'C20 H27 Br1 N2 O2'
_chemical_name_systematic        N-(4-Bromobenzoyl)-N,N'-dicyclohexylurea
_symmetry_cell_setting           monoclinic
_symmetry_space_group_name_H-M   'P 21/n'
_symmetry_Int_Tables_number      14
_space_group_name_Hall           '-P 2yn'
loop_
_symmetry_equiv_pos_site_id
_symmetry_equiv_pos_as_xyz
1 x,y,z
2 1/2-x,1/2+y,1/2-z
3 -x,-y,-z
4 1/2+x,1/2-y,1/2+z
_cell_length_a                   13.501(2)
_cell_length_b                   9.5621(10)
_cell_length_c                   16.306(2)
_cell_angle_alpha                90
_cell_angle_beta                 114.443(6)
_cell_angle_gamma                90
_cell_volume                     1916.4
_exptl_crystal_colour            colorless
_exptl_crystal_description       prism
_cell_formula_units_Z            4
_exptl_crystal_recrystallization_method 'ethyl acetate'
loop_
_atom_site_label
_atom_site_type_symbol
_atom_site_fract_x
_atom_site_fract_y
_atom_site_fract_z
Br1 Br 0.615319(17) 0.39160(2) 1.092233(14)
N1 N 0.86443(11) 0.53780(15) 0.80694(9)
N2 N 0.67615(11) 0.53992(16) 0.73657(10)
O1 O 0.95485(9) 0.68643(13) 0.92419(8)
O2 O 0.76754(10) 0.34042(13) 0.73292(8)
C1 C 0.69576(14) 0.4583(2) 1.02792(12)
C2 C 0.69278(15) 0.5987(2) 1.00682(13)
H1 H 0.6508 0.6624 1.0240
C3 C 0.75215(15) 0.6450(2) 0.96011(13)
H2 H 0.7519 0.7414 0.9460
C4 C 0.81235(13) 0.55047(19) 0.93373(11)
C5 C 0.81418(14) 0.40955(19) 0.95585(12)
H3 H 0.8551 0.3450 0.9381
C6 C 0.75616(14) 0.3634(2) 1.00396(12)
H4 H 0.7581 0.2677 1.0202
C7 C 0.88221(13) 0.60122(18) 0.88777(12)
C8 C 0.94261(14) 0.55666(19) 0.76516(12)
H5 H 0.9907 0.6372 0.7963
C9 C 1.01578(15) 0.4287(2) 0.77921(14)
H6 H 0.9702 0.3452 0.7531
H7 H 1.0574 0.4122 0.8445
C10 C 1.09504(16) 0.4493(2) 0.73482(14)
H8 H 1.1462 0.5260 0.7656
H9 H 1.1380 0.3628 0.7415
C11 C 1.03445(17) 0.4842(2) 0.63510(14)
H10 H 0.9878 0.4043 0.6032
H11 H 1.0874 0.5007 0.6086
C12 C 0.96424(17) 0.6143(2) 0.62288(14)
H12 H 0.9238 0.6338 0.5578
H13 H 1.0117 0.6956 0.6507
C13 C 0.88348(15) 0.5955(2) 0.66570(13)
H14 H 0.8424 0.6834 0.6599
H15 H 0.8308 0.5210 0.6335
C14 C 0.76568(14) 0.4618(2) 0.75616(11)
C15 C 0.56540(13) 0.48403(19) 0.69141(12)
H16 H 0.5702 0.3853 0.6733
C16 C 0.50196(16) 0.5682(2) 0.60708(13)
H17 H 0.5392 0.5639 0.5661
H18 H 0.4987 0.6673 0.6233
C17 C 0.38642(16) 0.5099(2) 0.55931(15)
H19 H 0.3452 0.5668 0.5051
H20 H 0.3899 0.4128 0.5396
C18 C 0.32755(16) 0.5114(2) 0.62076(18)
H21 H 0.3189 0.6091 0.6368
H22 H 0.2542 0.4702 0.5890
C19 C 0.39104(16) 0.4288(2) 0.70547(16)
H23 H 0.3934 0.3293 0.6896
H24 H 0.3535 0.4344 0.7462
C20 C 0.50804(16) 0.4842(2) 0.75473(14)
H25 H 0.5063 0.5805 0.7764
H26 H 0.5487 0.4245 0.8077
H27 H 0.6851(15) 0.6326(10) 0.7456(12)
loop_
_geom_bond_atom_site_label_1
_geom_bond_atom_site_label_2
_geom_bond_site_symmetry_1
_geom_bond_site_symmetry_2
Br1 C1 1_555 1_555
N1 C7 1_555 1_555
N2 C14 1_555 1_555
O1 C7 1_555 1_555
O2 C14 1_555 1_555
C1 C2 1_555 1_555
C2 H1 1_555 1_555
C3 C2 1_555 1_555
H2 C3 1_555 1_555
C4 C3 1_555 1_555
C5 C4 1_555 1_555
H3 C5 1_555 1_555
C6 C1 1_555 1_555
H4 C6 1_555 1_555
C7 C4 1_555 1_555
C8 N1 1_555 1_555
H5 C8 1_555 1_555
C9 C8 1_555 1_555
H6 C9 1_555 1_555
H7 C9 1_555 1_555
C10 C9 1_555 1_555
H8 C10 1_555 1_555
H9 C10 1_555 1_555
C11 C10 1_555 1_555
H10 C11 1_555 1_555
H11 C11 1_555 1_555
C12 C11 1_555 1_555
H12 C12 1_555 1_555
H13 C12 1_555 1_555
C13 C8 1_555 1_555
H14 C13 1_555 1_555
H15 C13 1_555 1_555
C14 N1 1_555 1_555
C15 N2 1_555 1_555
H16 C15 1_555 1_555
C16 C15 1_555 1_555
H17 C16 1_555 1_555
H18 C16 1_555 1_555
C17 C16 1_555 1_555
H19 C17 1_555 1_555
H20 C17 1_555 1_555
C18 C17 1_555 1_555
H21 C18 1_555 1_555
H22 C18 1_555 1_555
C19 C18 1_555 1_555
H23 C19 1_555 1_555
H24 C19 1_555 1_555
C20 C15 1_555 1_555
H25 C20 1_555 1_555
H26 C20 1_555 1_555
H27 N2 1_555 1_555
C5 C6 1_555 1_555
C12 C13 1_555 1_555
C19 C20 1_555 1_555

#END
