
#######################################################################
#
#                 Cambridge Crystallographic Data Centre
#                                CCDC 
#
#######################################################################
#
# If this CIF has been generated from an entry in the Cambridge 
# Structural Database, then it will include bibliographic, chemical, 
# crystal, experimental, refinement or atomic coordinate data resulting 
# from the CCDC's data processing and validation procedures.
#
#######################################################################

data_YIRQOG
_chemical_formula_moiety         'C18 H20 N2 O4'
_chemical_name_systematic        
'1-(2-Hydroxy-5-methoxyphenyl)ethan-1-one N-((E)-1-(2-hydroxy-5-methoxyphenyl)ethylidene)hydrazone'
_symmetry_cell_setting           monoclinic
_symmetry_space_group_name_H-M   'P 21/c'
_symmetry_Int_Tables_number      14
_space_group_name_Hall           '-P 2ybc'
loop_
_symmetry_equiv_pos_site_id
_symmetry_equiv_pos_as_xyz
1 x,y,z
2 -x,1/2+y,1/2-z
3 -x,-y,-z
4 x,1/2-y,1/2+z
_cell_length_a                   8.5545(7)
_cell_length_b                   6.4614(4)
_cell_length_c                   14.3548(10)
_cell_angle_alpha                90
_cell_angle_beta                 91.243(5)
_cell_angle_gamma                90
_cell_volume                     793.261
_exptl_crystal_colour            orange-yellow
_exptl_crystal_description       plate
_cell_formula_units_Z            2
_exptl_crystal_recrystallization_method 'ethyl acetate'
loop_
_atom_site_label
_atom_site_type_symbol
_atom_site_fract_x
_atom_site_fract_y
_atom_site_fract_z
C1 C 0.0145(3) 0.1588(3) 0.15985(12)
H1 H -0.0618 0.0500 0.1561
H2 H -0.0328 0.2815 0.1842
H3 H 0.0996 0.1168 0.2003
C2 C 0.0749(2) 0.2025(2) 0.06448(11)
C3 C 0.17276(19) 0.3862(2) 0.04965(11)
C4 C 0.2295(2) 0.4376(3) -0.03962(11)
C5 C 0.3199(2) 0.6135(3) -0.05005(13)
H4 H 0.3562 0.6473 -0.1087
C6 C 0.3574(2) 0.7398(3) 0.02449(13)
H5 H 0.4185 0.8570 0.0159
C7 C 0.3037(2) 0.6916(3) 0.11227(12)
C8 C 0.2134(2) 0.5179(3) 0.12370(11)
H6 H 0.1779 0.4868 0.1829
C9 C 0.4389(3) 0.9765(3) 0.18430(16)
H7 H 0.5389 0.9266 0.1650
H8 H 0.4503 1.0430 0.2439
H9 H 0.3989 1.0740 0.1393
N1 N 0.04606(16) 0.0865(2) -0.00768(9)
O1 O 0.19804(19) 0.3216(2) -0.11624(9)
H10 H 0.1487 0.2184 -0.1014
O2 O 0.33331(18) 0.8075(2) 0.19129(9)
C1B C -0.0145(3) -0.1588(3) -0.15985(12)
H1B H 0.0618 -0.0500 -0.1561
H2B H 0.0328 -0.2815 -0.1842
H3B H -0.0996 -0.1168 -0.2003
C2B C -0.0749(2) -0.2025(2) -0.06448(11)
C3B C -0.17276(19) -0.3862(2) -0.04965(11)
C4B C -0.2295(2) -0.4376(3) 0.03962(11)
C5B C -0.3199(2) -0.6135(3) 0.05005(13)
H4B H -0.3562 -0.6473 0.1087
C6B C -0.3574(2) -0.7398(3) -0.02449(13)
H5B H -0.4185 -0.8570 -0.0159
C7B C -0.3037(2) -0.6916(3) -0.11227(12)
C8B C -0.2134(2) -0.5179(3) -0.12370(11)
H6B H -0.1779 -0.4868 -0.1829
C9B C -0.4389(3) -0.9765(3) -0.18430(16)
H7B H -0.5389 -0.9266 -0.1650
H8B H -0.4503 -1.0430 -0.2439
H9B H -0.3989 -1.0740 -0.1393
N1B N -0.04606(16) -0.0865(2) 0.00768(9)
O1B O -0.19804(19) -0.3216(2) 0.11624(9)
H10B H -0.1487 -0.2184 0.1014
O2B O -0.33331(18) -0.8075(2) -0.19129(9)
loop_
_geom_bond_atom_site_label_1
_geom_bond_atom_site_label_2
_geom_bond_site_symmetry_1
_geom_bond_site_symmetry_2
C1 H1 1_555 1_555
H2 C1 1_555 1_555
H3 C1 1_555 1_555
C2 C1 1_555 1_555
C3 C2 1_555 1_555
C4 C3 1_555 1_555
C5 C4 1_555 1_555
H4 C5 1_555 1_555
C6 C5 1_555 1_555
H5 C6 1_555 1_555
C7 C6 1_555 1_555
C8 C3 1_555 1_555
H6 C8 1_555 1_555
C9 H7 1_555 1_555
H8 C9 1_555 1_555
H9 C9 1_555 1_555
N1 C2 1_555 1_555
O1 C4 1_555 1_555
H10 O1 1_555 1_555
O2 C7 1_555 1_555
C1B H1B 1_555 1_555
H2B C1B 1_555 1_555
H3B C1B 1_555 1_555
C2B C1B 1_555 1_555
C3B C2B 1_555 1_555
C4B C3B 1_555 1_555
C5B C4B 1_555 1_555
H4B C5B 1_555 1_555
C6B C5B 1_555 1_555
H5B C6B 1_555 1_555
C7B C6B 1_555 1_555
C8B C3B 1_555 1_555
H6B C8B 1_555 1_555
C9B H7B 1_555 1_555
H8B C9B 1_555 1_555
H9B C9B 1_555 1_555
N1B N1 1_555 1_555
O1B C4B 1_555 1_555
H10B O1B 1_555 1_555
O2B C7B 1_555 1_555
C7 C8 1_555 1_555
C9 O2 1_555 1_555
C2B N1B 1_555 1_555
C7B C8B 1_555 1_555
C9B O2B 1_555 1_555

#END
