
#######################################################################
#
#                 Cambridge Crystallographic Data Centre
#                                CCDC 
#
#######################################################################
#
# If this CIF has been generated from an entry in the Cambridge 
# Structural Database, then it will include bibliographic, chemical, 
# crystal, experimental, refinement or atomic coordinate data resulting 
# from the CCDC's data processing and validation procedures.
#
#######################################################################

data_YIRREX
_chemical_formula_moiety         'C10 H16 N4 2+,2(N1 O3 1-)'
_chemical_name_systematic        "1,1'-(Butane-1,4-diyl)diimidazolium dinitrate"
_symmetry_cell_setting           monoclinic
_symmetry_space_group_name_H-M   'P 21/n'
_symmetry_Int_Tables_number      14
_space_group_name_Hall           '-P 2yn'
loop_
_symmetry_equiv_pos_site_id
_symmetry_equiv_pos_as_xyz
1 x,y,z
2 1/2-x,1/2+y,1/2-z
3 -x,-y,-z
4 1/2+x,1/2-y,1/2+z
_cell_length_a                   7.788(2)
_cell_length_b                   10.482(3)
_cell_length_c                   9.363(3)
_cell_angle_alpha                90
_cell_angle_beta                 110.649(4)
_cell_angle_gamma                90
_cell_volume                     715.235
_exptl_crystal_colour            colorless
_exptl_crystal_description       block
_cell_formula_units_Z            2
loop_
_atom_site_label
_atom_site_type_symbol
_atom_site_fract_x
_atom_site_fract_y
_atom_site_fract_z
N1 N 0.6076(2) 0.66149(16) 0.79775(17)
N2 N 0.5677(2) 0.72628(16) 1.00094(19)
H1 H 0.5670 0.7281 1.0925
C1 C 0.6268(3) 0.6310(2) 0.9390(2)
H2 H 0.6744 0.5546 0.9872
C2 C 0.5079(3) 0.8216(2) 0.8959(2)
H3 H 0.4590 0.8996 0.9098
C3 C 0.5331(3) 0.78137(19) 0.7687(2)
H4 H 0.5051 0.8264 0.6778
C4 C 0.6486(3) 0.5788(2) 0.6874(2)
H5 H 0.7079 0.5016 0.7385
H6 H 0.7332 0.6223 0.6488
C5 C 0.4777(3) 0.54372(19) 0.5556(2)
H7 H 0.4195 0.6207 0.5030
H8 H 0.3920 0.5014 0.5941
N1B N 0.3924(2) 0.33851(16) 0.20225(17)
N2B N 0.4323(2) 0.27372(16) -0.00094(19)
H1B H 0.4330 0.2719 -0.0925
C1B C 0.3732(3) 0.3690(2) 0.0610(2)
H2B H 0.3256 0.4454 0.0128
C2B C 0.4921(3) 0.1784(2) 0.1041(2)
H3B H 0.5410 0.1004 0.0902
C3B C 0.4669(3) 0.21863(19) 0.2313(2)
H4B H 0.4949 0.1736 0.3222
C4B C 0.3514(3) 0.4212(2) 0.3126(2)
H5B H 0.2921 0.4984 0.2615
H6B H 0.2668 0.3777 0.3512
C5B C 0.5223(3) 0.45628(19) 0.4444(2)
H7B H 0.5805 0.3793 0.4970
H8B H 0.6080 0.4986 0.4059
N3 N 0.6173(2) 0.84419(17) 0.3487(2)
O1 O 0.6683(3) 0.92237(15) 0.27403(18)
O2 O 0.5460(2) 0.74148(15) 0.28855(17)
O3 O 0.6379(3) 0.86529(19) 0.4822(2)
loop_
_geom_bond_atom_site_label_1
_geom_bond_atom_site_label_2
_geom_bond_site_symmetry_1
_geom_bond_site_symmetry_2
N1 C1 1_555 1_555
N2 H1 1_555 1_555
N3 O1 1_555 1_555
O2 N3 1_555 1_555
O3 N3 1_555 1_555
C1 N2 1_555 1_555
H2 C1 1_555 1_555
C2 N2 1_555 1_555
H3 C2 1_555 1_555
C3 N1 1_555 1_555
H4 C3 1_555 1_555
C4 N1 1_555 1_555
H5 C4 1_555 1_555
H6 C4 1_555 1_555
C5 C4 1_555 1_555
H7 C5 1_555 1_555
H8 C5 1_555 1_555
N1B C1B 1_555 1_555
N2B H1B 1_555 1_555
C1B N2B 1_555 1_555
H2B C1B 1_555 1_555
C2B N2B 1_555 1_555
H3B C2B 1_555 1_555
C3B N1B 1_555 1_555
H4B C3B 1_555 1_555
C4B N1B 1_555 1_555
H5B C4B 1_555 1_555
H6B C4B 1_555 1_555
C5B C5 1_555 1_555
H7B C5B 1_555 1_555
H8B C5B 1_555 1_555
C2 C3 1_555 1_555
C2B C3B 1_555 1_555
C4B C5B 1_555 1_555

#END
