
#######################################################################
#
#                 Cambridge Crystallographic Data Centre
#                                CCDC 
#
#######################################################################
#
# If this CIF has been generated from an entry in the Cambridge 
# Structural Database, then it will include bibliographic, chemical, 
# crystal, experimental, refinement or atomic coordinate data resulting 
# from the CCDC's data processing and validation procedures.
#
#######################################################################

data_YIRVIE
_chemical_formula_moiety         '2(C19 H16 O3 S3),C7 H14'
_chemical_name_systematic        
'bis(tris(5-Acetyl-3-thienyl)methane) cycloheptane clathrate'
_symmetry_cell_setting           triclinic
_symmetry_space_group_name_H-M   'P -1'
_symmetry_Int_Tables_number      2
_space_group_name_Hall           '-P 1'
loop_
_symmetry_equiv_pos_site_id
_symmetry_equiv_pos_as_xyz
1 x,y,z
2 -x,-y,-z
_cell_length_a                   11.721(5)
_cell_length_b                   13.734(6)
_cell_length_c                   14.177(6)
_cell_angle_alpha                89.22(4)
_cell_angle_beta                 76.84(4)
_cell_angle_gamma                76.01(3)
_cell_volume                     2154.24
_exptl_crystal_colour            'pale yellow'
_cell_formula_units_Z            2
loop_
_atom_site_label
_atom_site_type_symbol
_atom_site_fract_x
_atom_site_fract_y
_atom_site_fract_z
S1 S 0.0803(1) 0.8995(1) 0.2904(1)
S2 S -0.1189(1) 0.6291(1) 0.6301(1)
S3 S -0.4850(1) 0.7833(1) 0.3594(1)
O1 O -0.0008(4) 1.1035(3) 0.3864(3)
O2 O -0.1741(4) 0.4401(3) 0.7048(3)
O3 O -0.3939(4) 0.7312(4) 0.0769(3)
C1 C -0.1282(4) 0.7024(3) 0.3528(3)
C2 C -0.0729(4) 0.7910(4) 0.3403(3)
C3 C 0.0396(5) 0.7893(4) 0.2846(3)
C4 C -0.0561(4) 0.9537(4) 0.3702(3)
C5 C -0.1271(4) 0.8872(3) 0.3884(3)
C6 C -0.0789(5) 1.0569(4) 0.4063(4)
C7 C -0.2005(5) 1.1036(4) 0.4702(5)
C8 C -0.1286(4) 0.6565(3) 0.4515(3)
C9 C -0.1061(5) 0.7008(4) 0.5295(3)
C10 C -0.1537(4) 0.5371(3) 0.5685(4)
C11 C -0.1557(4) 0.5638(4) 0.4736(4)
C12 C -0.1784(5) 0.4495(4) 0.6181(4)
C13 C -0.2110(6) 0.3711(4) 0.5647(5)
C14 C -0.2535(5) 0.7271(3) 0.3336(4)
C15 C -0.3590(5) 0.7591(4) 0.4042(4)
C16 C -0.3998(5) 0.7523(4) 0.2427(4)
C17 C -0.2756(4) 0.7217(3) 0.2353(4)
C18 C -0.4571(6) 0.7567(5) 0.1589(5)
C19 C -0.5920(6) 0.7919(6) 0.1766(5)
H1 H -0.078 0.653 0.305
H2 H 0.090 0.732 0.246
H3 H -0.206 0.903 0.430
H4 H -0.222 1.060 0.520
H5 H -0.260 1.117 0.433
H6 H -0.194(4) 1.166(3) 0.498(3)
H7 H -0.086 0.764 0.528
H8 H -0.174 0.523 0.428
H9 H -0.181 0.377 0.497
H10 H -0.297 0.383 0.579
H11 H -0.187(4) 0.312(3) 0.582(3)
H12 H -0.361 0.767 0.471
H13 H -0.215 0.701 0.177
H14 H -0.615 0.797 0.116
H15 H -0.618 0.856 0.210
H16 H -0.632(4) 0.741(4) 0.220(4)
S4 S 0.1280(1) 0.0810(1) 0.8687(1)
S5 S -0.0734(1) 0.4351(1) 1.1951(1)
S6 S 0.4853(1) 0.0668(1) 1.1452(1)
O4 O 0.1842(4) -0.1337(3) 0.8022(3)
O5 O 0.0227(4) 0.6064(3) 1.1122(3)
O6 O 0.3784(3) 0.0626(3) 1.4285(3)
C20 C 0.1295(4) 0.1509(3) 1.1461(3)
C21 C 0.1311(4) 0.1059(4) 1.0474(3)
C22 C 0.1123(5) 0.1584(4) 0.9671(3)
C23 C 0.1607(4) -0.0236(4) 0.9337(4)
C24 C 0.1581(4) 0.0017(4) 1.0284(3)
C25 C 0.1845(5) -0.1239(4) 0.8883(4)
C26 C 0.2117(6) -0.2127(4) 0.9488(5)
C27 C 0.0786(5) 0.2637(4) 1.1543(3)
C28 C -0.0375(5) 0.3081(4) 1.2021(4)
C29 C 0.0711(5) 0.4320(4) 1.1276(4)
C30 C 0.1402(5) 0.3365(4) 1.1128(3)
C31 C 0.0982(6) 0.5273(4) 1.0969(4)
C32 C 0.2270(7) 0.5226(5) 1.0457(5)
C33 C 0.2551(4) 0.1194(4) 1.1660(3)
C34 C 0.3612(5) 0.1023(4) 1.0972(4)
C35 C 0.3950(4) 0.0739(4) 1.2615(3)
C36 C 0.2748(5) 0.1021(3) 1.2631(3)
C37 C 0.4471(5) 0.0537(4) 1.3477(4)
C38 C 0.5809(5) 0.0244(5) 1.3354(4)
H17 H 0.076 0.125 1.195
H18 H 0.093 0.230 0.966
H19 H 0.173 -0.046 1.076
H20 H 0.165 -0.196 1.013
H21 H 0.295 -0.228 0.949
H22 H 0.194(3) -0.269(3) 0.928(3)
H23 H -0.092 0.272 1.236
H24 H 0.222 0.320 1.078
H25 H 0.249 0.476 0.992
H26 H 0.277 0.500 1.090
H27 H 0.241(4) 0.583(4) 1.022(4)
H28 H 0.366 0.109 1.030
H29 H 0.212 0.110 1.320
H30 H 0.616 -0.032 1.291
H31 H 0.601 0.008 1.396
H32 H 0.610(3) 0.083(3) 1.310(3)
C39 C 0.5422(9) 0.6360(8) 0.7837(7)
C40 C 0.5111(8) 0.5348(8) 0.8116(9)
C41 C 0.3915(8) 0.5297(8) 0.7869(6)
C42 C 0.4181(12) 0.4983(7) 0.6793(6)
C43 C 0.3875(10) 0.5944(8) 0.6243(8)
C44 C 0.4300(8) 0.6873(8) 0.6450(8)
C45 C 0.5475(9) 0.6708(9) 0.6794(7)
H33 H 0.619 0.632 0.796
H34 H 0.483 0.687 0.825
H35 H 0.504 0.528 0.879
H36 H 0.574 0.481 0.778
H37 H 0.336 0.594 0.798
H38 H 0.358 0.482 0.826
H39 H 0.501 0.465 0.657
H40 H 0.370 0.455 0.670
H41 H 0.302 0.615 0.637
H42 H 0.419 0.576 0.557
H43 H 0.368 0.728 0.693
H44 H 0.440 0.722 0.586
H45 H 0.607 0.621 0.637
H46 H 0.571 0.732 0.675
C46? C 0.498(2) 0.700(2) 0.747(2)
C47? C 0.575(2) 0.630(2) 0.806(2)
C48? C 0.470(2) 0.577(2) 0.830(2)
C49? C 0.457(3) 0.492(2) 0.767(2)
C50? C 0.401(2) 0.541(2) 0.684(2)
C51? C 0.476(3) 0.597(2) 0.610(2)
C52? C 0.510(3) 0.692(2) 0.636(2)
H47? H 0.510 0.764 0.759
H48? H 0.417 0.698 0.775
H49? H 0.649 0.589 0.769
H50? H 0.590 0.661 0.860
H51? H 0.474 0.549 0.891
H52? H 0.398 0.628 0.837
H53? H 0.536 0.451 0.740
H54? H 0.409 0.452 0.804
H55? H 0.327 0.586 0.714
H56? H 0.386 0.488 0.649
H57? H 0.431 0.615 0.561
H58? H 0.550 0.550 0.582
H59? H 0.591 0.690 0.603
H60? H 0.457 0.749 0.618
loop_
_geom_bond_atom_site_label_1
_geom_bond_atom_site_label_2
_geom_bond_site_symmetry_1
_geom_bond_site_symmetry_2
S1 C3 1_555 1_555
S2 C9 1_555 1_555
S3 C15 1_555 1_555
O1 C6 1_555 1_555
O2 C12 1_555 1_555
O3 C18 1_555 1_555
C1 C2 1_555 1_555
C2 C3 1_555 1_555
C3 H2 1_555 1_555
C4 S1 1_555 1_555
C5 C2 1_555 1_555
C6 C4 1_555 1_555
C7 C6 1_555 1_555
C8 C1 1_555 1_555
C9 C8 1_555 1_555
C10 S2 1_555 1_555
C11 C8 1_555 1_555
C12 C10 1_555 1_555
C13 C12 1_555 1_555
C14 C1 1_555 1_555
C15 C14 1_555 1_555
C16 S3 1_555 1_555
C17 C14 1_555 1_555
C18 C16 1_555 1_555
C19 C18 1_555 1_555
H1 C1 1_555 1_555
H3 C5 1_555 1_555
H4 C7 1_555 1_555
H5 C7 1_555 1_555
H6 C7 1_555 1_555
H7 C9 1_555 1_555
H8 C11 1_555 1_555
H9 C13 1_555 1_555
H10 C13 1_555 1_555
H11 C13 1_555 1_555
H12 C15 1_555 1_555
H13 C17 1_555 1_555
H14 C19 1_555 1_555
H15 C19 1_555 1_555
H16 C19 1_555 1_555
S4 C22 1_555 1_555
S5 C28 1_555 1_555
S6 C34 1_555 1_555
O4 C25 1_555 1_555
O5 C31 1_555 1_555
O6 C37 1_555 1_555
C20 C21 1_555 1_555
C21 C22 1_555 1_555
C22 H18 1_555 1_555
C23 S4 1_555 1_555
C24 C21 1_555 1_555
C25 C23 1_555 1_555
C26 C25 1_555 1_555
C27 C20 1_555 1_555
C28 C27 1_555 1_555
C29 S5 1_555 1_555
C30 C27 1_555 1_555
C31 C29 1_555 1_555
C32 C31 1_555 1_555
C33 C20 1_555 1_555
C34 C33 1_555 1_555
C35 S6 1_555 1_555
C36 C33 1_555 1_555
C37 C35 1_555 1_555
C38 C37 1_555 1_555
H17 C20 1_555 1_555
H19 C24 1_555 1_555
H20 C26 1_555 1_555
H21 C26 1_555 1_555
H22 C26 1_555 1_555
H23 C28 1_555 1_555
H24 C30 1_555 1_555
H25 C32 1_555 1_555
H26 C32 1_555 1_555
H27 C32 1_555 1_555
H28 C34 1_555 1_555
H29 C36 1_555 1_555
H30 C38 1_555 1_555
H31 C38 1_555 1_555
H32 C38 1_555 1_555
C39 C40 1_555 1_555
C40 C41 1_555 1_555
C41 C42 1_555 1_555
C42 C43 1_555 1_555
C43 C44 1_555 1_555
C44 C45 1_555 1_555
C45 C39 1_555 1_555
H33 C39 1_555 1_555
H34 C39 1_555 1_555
H35 C40 1_555 1_555
H36 C40 1_555 1_555
H37 C41 1_555 1_555
H38 C41 1_555 1_555
H39 C42 1_555 1_555
H40 C42 1_555 1_555
H41 C43 1_555 1_555
H42 C43 1_555 1_555
H43 C44 1_555 1_555
H44 C44 1_555 1_555
H45 C45 1_555 1_555
H46 C45 1_555 1_555
C4 C5 1_555 1_555
C10 C11 1_555 1_555
C16 C17 1_555 1_555
C23 C24 1_555 1_555
C29 C30 1_555 1_555
C35 C36 1_555 1_555

#END
