
#######################################################################
#
#                 Cambridge Crystallographic Data Centre
#                                CCDC 
#
#######################################################################
#
# If this CIF has been generated from an entry in the Cambridge 
# Structural Database, then it will include bibliographic, chemical, 
# crystal, experimental, refinement or atomic coordinate data resulting 
# from the CCDC's data processing and validation procedures.
#
#######################################################################

data_YIRYOO
_chemical_formula_moiety         'C26 H22 N4 O2,2(C1 H4 O1)'
_chemical_name_systematic        
'7-(4-(5,7-Dimethyl-1,8-naphthyridin-2-yloxy)phenoxy)-2,4-dimethyl-1,8-naphthyridine methanol solvate'
_symmetry_cell_setting           triclinic
_symmetry_space_group_name_H-M   'P -1'
_symmetry_Int_Tables_number      2
_space_group_name_Hall           '-P 1'
loop_
_symmetry_equiv_pos_site_id
_symmetry_equiv_pos_as_xyz
1 x,y,z
2 -x,-y,-z
_cell_length_a                   7.009(3)
_cell_length_b                   9.244(3)
_cell_length_c                   10.239(4)
_cell_angle_alpha                78.679(6)
_cell_angle_beta                 79.653(6)
_cell_angle_gamma                82.689(6)
_cell_volume                     636.994
_exptl_crystal_colour            colorless
_exptl_crystal_description       block
_cell_formula_units_Z            1
loop_
_atom_site_label
_atom_site_type_symbol
_atom_site_fract_x
_atom_site_fract_y
_atom_site_fract_z
N1 N 0.3076(3) 0.1993(2) 0.6758(2)
N2 N 0.5387(3) 0.2103(2) 0.8040(2)
O1 O 0.0813(3) 0.19512(19) 0.5388(2)
C1 C 0.4486(4) 0.1239(3) 0.7453(3)
C2 C 0.6819(4) 0.1463(3) 0.8699(3)
C3 C 0.7375(4) -0.0058(3) 0.8838(3)
H2 H 0.8371 -0.0463 0.9328
C4 C 0.6492(4) -0.0972(3) 0.8273(3)
C5 C 0.4982(4) -0.0297(3) 0.7537(3)
C6 C 0.3930(4) -0.1050(3) 0.6864(3)
H3 H 0.4195 -0.2068 0.6903
C7 C 0.2544(4) -0.0296(3) 0.6165(3)
H4 H 0.1844 -0.0778 0.5719
C8 C 0.2194(4) 0.1241(3) 0.6135(3)
C9 C 0.7853(5) 0.2444(4) 0.9283(4)
H5 H 0.7284 0.3448 0.9090
H6 H 0.9206 0.2389 0.8892
H7 H 0.7732 0.2123 1.0242
C10 C 0.7114(5) -0.2600(3) 0.8422(4)
H8 H 0.6335 -0.3056 0.7965
H9 H 0.6944 -0.3037 0.9362
H10 H 0.8461 -0.2751 0.8035
C11 C 0.1900(4) 0.4419(3) 0.4653(3)
H11 H 0.3177 0.4026 0.4418
C12 C 0.0463(4) 0.3504(3) 0.5222(3)
C13 C -0.1421(4) 0.4064(3) 0.5566(3)
H12 H -0.2379 0.3428 0.5947
N1A N -0.3076(3) 0.8007(2) 0.3242(2)
N2A N -0.5387(3) 0.7897(2) 0.1960(2)
O1A O -0.0813(3) 0.80488(19) 0.4612(2)
C1A C -0.4486(4) 0.8761(3) 0.2547(3)
C2A C -0.6819(4) 0.8537(3) 0.1301(3)
C3A C -0.7375(4) 1.0058(3) 0.1162(3)
H2A H -0.8371 1.0463 0.0672
C4A C -0.6492(4) 1.0972(3) 0.1727(3)
C5A C -0.4982(4) 1.0297(3) 0.2463(3)
C6A C -0.3930(4) 1.1050(3) 0.3136(3)
H3A H -0.4195 1.2068 0.3097
C7A C -0.2544(4) 1.0296(3) 0.3835(3)
H4A H -0.1844 1.0778 0.4281
C8A C -0.2194(4) 0.8759(3) 0.3865(3)
C9A C -0.7853(5) 0.7556(4) 0.0717(4)
H5A H -0.7284 0.6552 0.0910
H6A H -0.9206 0.7611 0.1108
H7A H -0.7732 0.7877 -0.0242
C10A C -0.7114(5) 1.2600(3) 0.1578(4)
H8A H -0.6335 1.3056 0.2035
H9A H -0.6944 1.3037 0.0638
H10A H -0.8461 1.2751 0.1965
C11A C -0.1900(4) 0.5581(3) 0.5347(3)
H11A H -0.3177 0.5974 0.5582
C12A C -0.0463(4) 0.6496(3) 0.4778(3)
C13A C 0.1421(4) 0.5936(3) 0.4434(3)
H12A H 0.2379 0.6572 0.4053
O2 O 0.3944(3) 0.5192(2) 0.7759(3)
H1 H 0.4376 0.4317 0.7831
C14 C 0.1928(5) 0.5291(4) 0.8034(4)
H13 H 0.1519 0.4905 0.8970
H14 H 0.1452 0.4727 0.7488
H15 H 0.1418 0.6310 0.7834
loop_
_geom_bond_atom_site_label_1
_geom_bond_atom_site_label_2
_geom_bond_site_symmetry_1
_geom_bond_site_symmetry_2
N1 C1 1_555 1_555
N2 C1 1_555 1_555
O1 C8 1_555 1_555
O2 H1 1_555 1_555
C1 C5 1_555 1_555
C2 N2 1_555 1_555
C3 C2 1_555 1_555
H2 C3 1_555 1_555
C4 C3 1_555 1_555
C5 C4 1_555 1_555
C6 C5 1_555 1_555
H3 C6 1_555 1_555
C7 C6 1_555 1_555
H4 C7 1_555 1_555
C8 N1 1_555 1_555
C9 C2 1_555 1_555
H5 C9 1_555 1_555
H6 C9 1_555 1_555
H7 C9 1_555 1_555
C10 C4 1_555 1_555
H8 C10 1_555 1_555
H9 C10 1_555 1_555
H10 C10 1_555 1_555
C11 H11 1_555 1_555
C12 O1 1_555 1_555
C13 C12 1_555 1_555
H12 C13 1_555 1_555
C14 O2 1_555 1_555
H13 C14 1_555 1_555
H14 C14 1_555 1_555
H15 C14 1_555 1_555
N1A C1A 1_555 1_555
N2A C1A 1_555 1_555
O1A C8A 1_555 1_555
C1A C5A 1_555 1_555
C2A N2A 1_555 1_555
C3A C2A 1_555 1_555
H2A C3A 1_555 1_555
C4A C3A 1_555 1_555
C5A C4A 1_555 1_555
C6A C5A 1_555 1_555
H3A C6A 1_555 1_555
C7A C6A 1_555 1_555
H4A C7A 1_555 1_555
C8A N1A 1_555 1_555
C9A C2A 1_555 1_555
H5A C9A 1_555 1_555
H6A C9A 1_555 1_555
H7A C9A 1_555 1_555
C10A C4A 1_555 1_555
H8A C10A 1_555 1_555
H9A C10A 1_555 1_555
H10A C10A 1_555 1_555
C11A C13 1_555 1_555
H11A C11A 1_555 1_555
C12A O1A 1_555 1_555
C13A C11 1_555 1_555
H12A C13A 1_555 1_555
C7 C8 1_555 1_555
C11 C12 1_555 1_555
C7A C8A 1_555 1_555
C11A C12A 1_555 1_555
C12A C13A 1_555 1_555

#END
