
#######################################################################
#
#                 Cambridge Crystallographic Data Centre
#                                CCDC 
#
#######################################################################
#
# If this CIF has been generated from an entry in the Cambridge 
# Structural Database, then it will include bibliographic, chemical, 
# crystal, experimental, refinement or atomic coordinate data resulting 
# from the CCDC's data processing and validation procedures.
#
#######################################################################

data_YIRZUV
_chemical_name_common            
'beta-Neopentyl-4-fluorophenethylammonium mandelate'
_chemical_formula_moiety         'C13 H21 F1 N1 1+,C8 H7 O3 1-'
_chemical_name_systematic        
'2-(4-Fluorophenyl)-4,4-dimethylpentan-1-aminium hydroxy(phenyl)acetate'
_symmetry_cell_setting           orthorhombic
_symmetry_space_group_name_H-M   'P 21 21 21'
_symmetry_Int_Tables_number      19
_space_group_name_Hall           'P 2ac 2ab'
loop_
_symmetry_equiv_pos_site_id
_symmetry_equiv_pos_as_xyz
1 x,y,z
2 1/2-x,-y,1/2+z
3 -x,1/2+y,1/2-z
4 1/2+x,1/2-y,-z
_cell_length_a                   6.8358(9)
_cell_length_b                   13.4392(18)
_cell_length_c                   21.828(3)
_cell_angle_alpha                90
_cell_angle_beta                 90
_cell_angle_gamma                90
_cell_volume                     2005.29
_exptl_crystal_colour            colorless
_exptl_crystal_description       needle
_cell_formula_units_Z            4
loop_
_atom_site_label
_atom_site_type_symbol
_atom_site_fract_x
_atom_site_fract_y
_atom_site_fract_z
F1 F 0.3260(3) -0.01225(14) 0.17222(8)
N1 N -0.1768(5) -0.1837(2) -0.04750(14)
H1 H -0.133(5) -0.195(2) -0.0056(17)
H2 H -0.063(5) -0.214(2) -0.0737(15)
H3 H -0.301(5) -0.222(2) -0.0567(14)
C1 C -0.2241(5) -0.07709(19) -0.06060(13)
H4 H -0.3192 -0.0528 -0.0298
H5 H -0.2866 -0.0723 -0.1014
C2 C -0.0424(4) -0.0104(2) -0.05937(13)
H6 H 0.0531 -0.0374 -0.0898
C3 C -0.1049(4) 0.0945(2) -0.08132(13)
H7 H -0.1919 0.0856 -0.1172
H8 H -0.1847 0.1247 -0.0484
C4 C 0.0540(5) 0.1707(2) -0.09937(14)
C5 C -0.0527(6) 0.2621(2) -0.12455(15)
H9 H 0.0433 0.3126 -0.1366
H10 H -0.1389 0.2894 -0.0929
H11 H -0.1307 0.2429 -0.1603
C6 C 0.1783(6) 0.2040(2) -0.04443(15)
H12 H 0.2661 0.2579 -0.0571
H13 H 0.2559 0.1476 -0.0295
H14 H 0.0923 0.2277 -0.0116
C7 C 0.1873(5) 0.1282(2) -0.14852(15)
H15 H 0.2799 0.1795 -0.1619
H16 H 0.1085 0.1064 -0.1835
H17 H 0.2596 0.0714 -0.1318
C8 C 0.0554(5) -0.0119(2) 0.00300(14)
C9 C 0.2389(5) -0.0533(2) 0.01049(14)
H18 H 0.3028 -0.0818 -0.0239
C10 C 0.3329(5) -0.0544(2) 0.06737(16)
H19 H 0.4588 -0.0832 0.0724
C11 C 0.2350(6) -0.0120(2) 0.11575(15)
C12 C 0.0518(5) 0.0291(2) 0.11124(14)
H20 H -0.0115 0.0570 0.1460
C13 C -0.0375(5) 0.0283(2) 0.05433(14)
H21 H -0.1649 0.0557 0.0501
O1 O -0.0485(3) -0.24114(14) 0.06890(9)
O2 O -0.3527(3) -0.23086(16) 0.10560(10)
O3 O -0.2520(4) -0.20353(17) 0.21848(10)
H22 H -0.359(5) -0.209(3) 0.1952(16)
C14 C -0.1706(5) -0.2316(2) 0.11176(15)
C15 C -0.0920(4) -0.2167(2) 0.17684(13)
H23 H -0.0106 -0.1549 0.1774
C16 C 0.0336(5) -0.3023(2) 0.19703(12)
C17 C -0.0436(5) -0.3971(2) 0.20487(13)
H24 H -0.1788 -0.4078 0.1972
C18 C 0.0711(5) -0.4766(2) 0.22354(13)
H25 H 0.0158 -0.5411 0.2276
C19 C 0.2679(6) -0.4609(3) 0.23620(13)
H26 H 0.3470 -0.5144 0.2502
C20 C 0.3483(5) -0.3680(3) 0.22847(14)
H27 H 0.4836 -0.3577 0.2362
C21 C 0.2315(5) -0.2890(2) 0.20930(13)
H28 H 0.2880 -0.2249 0.2045
loop_
_geom_bond_atom_site_label_1
_geom_bond_atom_site_label_2
_geom_bond_site_symmetry_1
_geom_bond_site_symmetry_2
F1 C11 1_555 1_555
N1 H1 1_555 1_555
H2 N1 1_555 1_555
H3 N1 1_555 1_555
C1 N1 1_555 1_555
H4 C1 1_555 1_555
H5 C1 1_555 1_555
C2 C1 1_555 1_555
H6 C2 1_555 1_555
C3 C2 1_555 1_555
H7 C3 1_555 1_555
H8 C3 1_555 1_555
C4 C3 1_555 1_555
C5 C4 1_555 1_555
H9 C5 1_555 1_555
H10 C5 1_555 1_555
H11 C5 1_555 1_555
C6 C4 1_555 1_555
H12 C6 1_555 1_555
H13 C6 1_555 1_555
H14 C6 1_555 1_555
C7 C4 1_555 1_555
H15 C7 1_555 1_555
H16 C7 1_555 1_555
H17 C7 1_555 1_555
C8 C2 1_555 1_555
C9 C8 1_555 1_555
H18 C9 1_555 1_555
C10 C9 1_555 1_555
H19 C10 1_555 1_555
C11 C10 1_555 1_555
C12 C11 1_555 1_555
H20 C12 1_555 1_555
C13 C8 1_555 1_555
H21 C13 1_555 1_555
O1 C14 1_555 1_555
O2 C14 1_555 1_555
O3 H22 1_555 1_555
C14 C15 1_555 1_555
C15 O3 1_555 1_555
H23 C15 1_555 1_555
C16 C15 1_555 1_555
C17 C16 1_555 1_555
H24 C17 1_555 1_555
C18 C17 1_555 1_555
H25 C18 1_555 1_555
C19 C18 1_555 1_555
H26 C19 1_555 1_555
C20 C19 1_555 1_555
H27 C20 1_555 1_555
C21 C16 1_555 1_555
H28 C21 1_555 1_555
C12 C13 1_555 1_555
C20 C21 1_555 1_555

#END
