
#######################################################################
#
#                 Cambridge Crystallographic Data Centre
#                                CCDC 
#
#######################################################################
#
# If this CIF has been generated from an entry in the Cambridge 
# Structural Database, then it will include bibliographic, chemical, 
# crystal, experimental, refinement or atomic coordinate data resulting 
# from the CCDC's data processing and validation procedures.
#
#######################################################################

data_YISCEL
_chemical_formula_moiety         'C24 H18 Br1 N1'
_chemical_name_systematic        8-bromo-N,N-dimethylpentahelicen-5-amine
_symmetry_cell_setting           monoclinic
_symmetry_space_group_name_H-M   'P 21/c'
_symmetry_Int_Tables_number      14
_space_group_name_Hall           '-P 2ybc'
loop_
_symmetry_equiv_pos_site_id
_symmetry_equiv_pos_as_xyz
1 x,y,z
2 -x,1/2+y,1/2-z
3 -x,-y,-z
4 x,1/2-y,1/2+z
_cell_length_a                   9.641(8)
_cell_length_b                   20.704(18)
_cell_length_c                   8.904(8)
_cell_angle_alpha                90
_cell_angle_beta                 91.489(8)
_cell_angle_gamma                90
_cell_volume                     1776.7
_exptl_crystal_colour            yellow
_exptl_crystal_description       block
_cell_formula_units_Z            4
loop_
_atom_site_label
_atom_site_type_symbol
_atom_site_fract_x
_atom_site_fract_y
_atom_site_fract_z
Br1 Br 0.53926(14) 0.74930(6) 0.60987(13)
N1 N 0.3974(6) 0.4302(3) 0.2042(7)
C1 C 0.5534(8) 0.5816(4) 0.3633(8)
C2 C 0.6945(8) 0.5722(4) 0.3389(8)
C3 C 0.7373(8) 0.5056(4) 0.3128(8)
C4 C 0.6363(8) 0.4586(4) 0.2714(8)
C5 C 0.4913(8) 0.4770(4) 0.2603(8)
C6 C 0.4542(8) 0.5348(4) 0.3184(9)
H1 H 0.3605 0.5440 0.3289
C7 C 0.7873(9) 0.6258(4) 0.3599(9)
C8 C 0.8700(8) 0.4835(4) 0.3478(9)
H2 H 0.9375 0.5134 0.3772
C9 C 0.6775(9) 0.3943(4) 0.2592(8)
H3 H 0.6125 0.3638 0.2265
C10 C 0.9057(9) 0.4201(4) 0.3409(9)
H4 H 0.9952 0.4072 0.3682
C11 C 0.9182(9) 0.6316(4) 0.2861(9)
C12 C 0.8082(9) 0.3746(4) 0.2931(9)
H5 H 0.8325 0.3313 0.2846
C13 C 0.5090(10) 0.6390(4) 0.4339(9)
H6 H 0.4148 0.6471 0.4440
C14 C 0.9562(9) 0.5944(4) 0.1608(9)
H7 H 0.8934 0.5641 0.1229
C15 C 1.0132(10) 0.6791(5) 0.3330(11)
C16 C 0.2536(8) 0.4386(5) 0.2411(10)
H8 H 0.2469 0.4468 0.3468
H9 H 0.2028 0.4001 0.2154
H10 H 0.2154 0.4745 0.1856
C17 C 0.7437(10) 0.6794(4) 0.4470(10)
C18 C 1.0795(9) 0.6008(5) 0.0931(10)
H11 H 1.0990 0.5764 0.0086
C19 C 0.9745(12) 0.7247(5) 0.4409(13)
H12 H 1.0401 0.7536 0.4790
C20 C 0.4106(9) 0.4151(4) 0.0461(9)
H13 H 0.3663 0.4481 -0.0136
H14 H 0.3673 0.3742 0.0248
H15 H 0.5071 0.4128 0.0224
C21 C 1.1460(11) 0.6827(5) 0.2663(14)
H16 H 1.2115 0.7119 0.3035
C22 C 0.8447(13) 0.7271(4) 0.4897(11)
H17 H 0.8194 0.7605 0.5530
C23 C 0.6034(11) 0.6816(4) 0.4864(10)
C24 C 1.1775(11) 0.6446(6) 0.1516(14)
H18 H 1.2649 0.6471 0.1102
loop_
_geom_bond_atom_site_label_1
_geom_bond_atom_site_label_2
_geom_bond_site_symmetry_1
_geom_bond_site_symmetry_2
Br1 C23 1_555 1_555
N1 C5 1_555 1_555
C1 C2 1_555 1_555
C2 C3 1_555 1_555
C3 C4 1_555 1_555
C4 C5 1_555 1_555
C5 C6 1_555 1_555
C6 C1 1_555 1_555
H1 C6 1_555 1_555
C7 C2 1_555 1_555
C8 C3 1_555 1_555
H2 C8 1_555 1_555
C9 C4 1_555 1_555
H3 C9 1_555 1_555
C10 C8 1_555 1_555
H4 C10 1_555 1_555
C11 C7 1_555 1_555
C12 C9 1_555 1_555
H5 C12 1_555 1_555
C13 C1 1_555 1_555
H6 C13 1_555 1_555
C14 C11 1_555 1_555
H7 C14 1_555 1_555
C15 C11 1_555 1_555
C16 N1 1_555 1_555
H8 C16 1_555 1_555
H9 C16 1_555 1_555
H10 C16 1_555 1_555
C17 C7 1_555 1_555
C18 C14 1_555 1_555
H11 C18 1_555 1_555
C19 C15 1_555 1_555
H12 C19 1_555 1_555
C20 N1 1_555 1_555
H13 C20 1_555 1_555
H14 C20 1_555 1_555
H15 C20 1_555 1_555
C21 C15 1_555 1_555
H16 C21 1_555 1_555
C22 C17 1_555 1_555
H17 C22 1_555 1_555
C23 C13 1_555 1_555
C24 C18 1_555 1_555
H18 C24 1_555 1_555
C10 C12 1_555 1_555
C17 C23 1_555 1_555
C19 C22 1_555 1_555
C21 C24 1_555 1_555

#END
