
#######################################################################
#
#                 Cambridge Crystallographic Data Centre
#                                CCDC 
#
#######################################################################
#
# If this CIF has been generated from an entry in the Cambridge 
# Structural Database, then it will include bibliographic, chemical, 
# crystal, experimental, refinement or atomic coordinate data resulting 
# from the CCDC's data processing and validation procedures.
#
#######################################################################

data_YISDIN
_chemical_formula_moiety         'C6 H4 S4,C11 H8 N2 O1'
_chemical_name_systematic        
'Tetrathiafulvalene 1-oxo-2,6-dimethyl-4-dicyanomethylenecyclohexa-2,5-diene'
_symmetry_cell_setting           monoclinic
_symmetry_space_group_name_H-M   'P 21/c'
_symmetry_Int_Tables_number      14
_space_group_name_Hall           '-P 2ybc'
loop_
_symmetry_equiv_pos_site_id
_symmetry_equiv_pos_as_xyz
1 x,y,z
2 -x,1/2+y,1/2-z
3 -x,-y,-z
4 x,1/2-y,1/2+z
_cell_length_a                   8.061(2)
_cell_length_b                   33.065(7)
_cell_length_c                   13.746(3)
_cell_angle_alpha                90
_cell_angle_beta                 105.21(2)
_cell_angle_gamma                90
_cell_volume                     3535.48
_exptl_crystal_colour            'dark green'
_chemical_melting_point          128-132deg.C
_cell_formula_units_Z            8
loop_
_atom_site_label
_atom_site_type_symbol
_atom_site_fract_x
_atom_site_fract_y
_atom_site_fract_z
S1 S 0.4875(2) 0.20762(4) 0.2938(1)
S2 S 0.1993(2) 0.26482(5) 0.2730(1)
S3 S 0.7499(2) 0.28072(4) 0.2929(1)
S4 S 0.4695(2) 0.34010(4) 0.2730(1)
C1 C 0.4197(7) 0.2584(2) 0.2821(4)
C2 C 0.2850(8) 0.1874(2) 0.2801(4)
C3 C 0.1549(8) 0.2132(2) 0.2706(4)
C4 C 0.5301(7) 0.2887(1) 0.2823(4)
C5 C 0.7918(8) 0.3305(2) 0.2675(4)
C6 C 0.6660(8) 0.3573(2) 0.2585(4)
H1 H 0.2671 0.1587 0.2794
H2 H 0.0397 0.2036 0.2625
H3 H 0.9024 0.3384 0.2601
H4 H 0.6827 0.3852 0.2442
S5 S 0.4968(2) 0.5667(1) 0.4946(1)
S6 S 0.2368(2) 0.5064(1) 0.5175(1)
C7 C 0.4454(6) 0.5150(1) 0.5022(4)
C8 C 0.2997(7) 0.5846(2) 0.5046(4)
C9 C 0.1833(7) 0.5577(2) 0.5151(4)
H5 H 0.2756 0.6131 0.5028
H6 H 0.0725 0.5662 0.5211
C7B C 0.5546(6) 0.4850(1) 0.4978(4)
S5B S 0.5032(2) 0.4333(1) 0.5054(1)
S6B S 0.7632(2) 0.4936(1) 0.4825(1)
C8B C 0.7003(7) 0.4154(2) 0.4954(4)
C9B C 0.8167(7) 0.4423(2) 0.4849(4)
H5B H 0.7244 0.3869 0.4972
H6B H 0.9275 0.4338 0.4789
S7 S 0.0040(2) 0.4340(1) 0.0171(1)
S8 S -0.2684(2) 0.4950(1) 0.0075(1)
C10 C -0.0546(6) 0.4855(1) 0.0051(3)
C11 C -0.1940(7) 0.4173(2) 0.0309(4)
C12 C -0.3160(7) 0.4447(2) 0.0259(4)
H7 H -0.2137 0.3892 0.0420
H8 H -0.4274 0.4370 0.0323
C10B C 0.0546(6) 0.5145(1) -0.0051(3)
S7B S -0.0040(2) 0.5660(1) -0.0171(1)
S8B S 0.2684(2) 0.5050(1) -0.0075(1)
C11B C 0.1940(7) 0.5827(2) -0.0309(4)
C12B C 0.3160(7) 0.5553(2) -0.0259(4)
H7B H 0.2137 0.6108 -0.0420
H8B H 0.4274 0.5630 -0.0323
O1 O -0.0223(5) 0.6194(1) 0.2415(3)
N1 N 0.5468(6) 0.4538(1) 0.2395(3)
N2 N 0.0715(7) 0.4046(1) 0.2913(4)
C13 C 0.0346(7) 0.5851(2) 0.2405(4)
C14 C 0.2119(6) 0.5780(1) 0.2331(3)
C15 C 0.2726(6) 0.5402(1) 0.2373(3)
C16 C 0.1696(6) 0.5054(1) 0.2477(3)
C17 C -0.0065(6) 0.5121(1) 0.2520(3)
C18 C -0.0742(6) 0.5493(2) 0.2449(4)
C19 C 0.3168(7) 0.6147(1) 0.2249(4)
C20 C -0.2573(7) 0.5573(2) 0.2442(4)
C21 C 0.2375(6) 0.4672(1) 0.2549(3)
C22 C 0.4115(7) 0.4594(1) 0.2475(4)
C23 C 0.1428(7) 0.4322(2) 0.2741(4)
H9 H 0.3885 0.5360 0.2336
H10 H -0.0759 0.4893 0.2598
H11 H 0.4289 0.6065 0.2206
H12 H 0.2611 0.6298 0.1656
H13 H 0.3277 0.6314 0.2835
H14 H -0.3149 0.5321 0.2474
H15 H -0.2604 0.5736 0.3014
H16 H -0.3138 0.5713 0.1834
O2 O 0.5052(5) 0.1574(1) 0.0397(3)
N3 N -0.0909(7) 0.3196(2) 0.0077(5)
N4 N 0.4025(7) 0.3726(1) 0.0044(4)
C24 C 0.4445(7) 0.1917(2) 0.0413(4)
C25 C 0.2589(7) 0.1969(1) 0.0318(3)
C26 C 0.1966(6) 0.2347(1) 0.0286(4)
C27 C 0.3053(7) 0.2703(2) 0.0322(3)
C28 C 0.4866(6) 0.2645(2) 0.0444(4)
C29 C 0.5565(6) 0.2275(2) 0.0507(4)
C30 C 0.1508(7) 0.1600(1) 0.0224(4)
C31 C 0.7435(7) 0.2200(2) 0.0642(5)
C32 C 0.2346(7) 0.3081(2) 0.0223(4)
C33 C 0.0524(9) 0.3146(2) 0.0135(4)
C34 C 0.3298(8) 0.3441(2) 0.0148(4)
H17 H 0.0766 0.2385 0.0238
H18 H 0.5595 0.2878 0.0483
H19 H 0.0336 0.1675 0.0168
H20 H 0.1570 0.1452 -0.0366
H21 H 0.1920 0.1434 0.0810
H22 H 0.8029 0.2453 0.0693
H23 H 0.7875 0.2047 0.1249
H24 H 0.7605 0.2050 0.0077
loop_
_geom_bond_atom_site_label_1
_geom_bond_atom_site_label_2
_geom_bond_site_symmetry_1
_geom_bond_site_symmetry_2
S1 C1 1_555 1_555
S2 C1 1_555 1_555
S3 C4 1_555 1_555
S4 C4 1_555 1_555
C1 C4 1_555 1_555
C2 S1 1_555 1_555
C3 S2 1_555 1_555
C5 S3 1_555 1_555
C6 S4 1_555 1_555
H1 C2 1_555 1_555
H2 C3 1_555 1_555
H3 C5 1_555 1_555
H4 C6 1_555 1_555
S5 C7 1_555 1_555
S6 C7 1_555 1_555
C7 C7B 1_555 1_555
C8 S5 1_555 1_555
C9 S6 1_555 1_555
H5 C8 1_555 1_555
H6 C9 1_555 1_555
S7 C10 1_555 1_555
S8 C10 1_555 1_555
C10 C10B 1_555 1_555
C11 S7 1_555 1_555
C12 S8 1_555 1_555
H7 C11 1_555 1_555
H8 C12 1_555 1_555
O1 C13 1_555 1_555
N1 C22 1_555 1_555
N2 C23 1_555 1_555
C13 C14 1_555 1_555
C14 C15 1_555 1_555
C15 C16 1_555 1_555
C16 C17 1_555 1_555
C17 C18 1_555 1_555
C18 C13 1_555 1_555
C19 C14 1_555 1_555
C20 C18 1_555 1_555
C21 C16 1_555 1_555
C22 C21 1_555 1_555
C23 C21 1_555 1_555
H9 C15 1_555 1_555
H10 C17 1_555 1_555
H11 C19 1_555 1_555
H12 C19 1_555 1_555
H13 C19 1_555 1_555
H14 C20 1_555 1_555
H15 C20 1_555 1_555
H16 C20 1_555 1_555
O2 C24 1_555 1_555
N3 C33 1_555 1_555
N4 C34 1_555 1_555
C24 C25 1_555 1_555
C25 C26 1_555 1_555
C26 C27 1_555 1_555
C27 C28 1_555 1_555
C28 C29 1_555 1_555
C29 C24 1_555 1_555
C30 C25 1_555 1_555
C31 C29 1_555 1_555
C32 C27 1_555 1_555
C33 C32 1_555 1_555
C34 C32 1_555 1_555
H17 C26 1_555 1_555
H18 C28 1_555 1_555
H19 C30 1_555 1_555
H20 C30 1_555 1_555
H21 C30 1_555 1_555
H22 C31 1_555 1_555
H23 C31 1_555 1_555
H24 C31 1_555 1_555
C7B S5B 1_555 1_555
S5B C8B 1_555 1_555
S6B C7B 1_555 1_555
C8B C9B 1_555 1_555
C9B S6B 1_555 1_555
H5B C8B 1_555 1_555
H6B C9B 1_555 1_555
C10B S7B 1_555 1_555
S7B C11B 1_555 1_555
S8B C10B 1_555 1_555
C11B C12B 1_555 1_555
C12B S8B 1_555 1_555
H7B C11B 1_555 1_555
H8B C12B 1_555 1_555
C2 C3 1_555 1_555
C5 C6 1_555 1_555
C8 C9 1_555 1_555
C11 C12 1_555 1_555

#END
