
#######################################################################
#
#                 Cambridge Crystallographic Data Centre
#                                CCDC 
#
#######################################################################
#
# If this CIF has been generated from an entry in the Cambridge 
# Structural Database, then it will include bibliographic, chemical, 
# crystal, experimental, refinement or atomic coordinate data resulting 
# from the CCDC's data processing and validation procedures.
#
#######################################################################

data_YISDEL
_chemical_formula_moiety         'C26 H20 N4'
_chemical_name_systematic        
8-((1-Phenyl-2-(quinolin-8-ylmethylene)hydrazino)methyl)quinoline
_symmetry_cell_setting           triclinic
_symmetry_space_group_name_H-M   'P -1'
_symmetry_Int_Tables_number      2
_space_group_name_Hall           '-P 1'
loop_
_symmetry_equiv_pos_site_id
_symmetry_equiv_pos_as_xyz
1 x,y,z
2 -x,-y,-z
_cell_length_a                   10.110(7)
_cell_length_b                   11.084(4)
_cell_length_c                   11.162(4)
_cell_angle_alpha                118.868(6)
_cell_angle_beta                 105.839(8)
_cell_angle_gamma                98.676(8)
_cell_volume                     992.723
_exptl_crystal_colour            yellow
_exptl_crystal_description       block
_cell_formula_units_Z            2
loop_
_atom_site_label
_atom_site_type_symbol
_atom_site_fract_x
_atom_site_fract_y
_atom_site_fract_z
C1 C -0.12227(12) 0.73401(13) 0.31626(13)
H1 H -0.2270 0.7095 0.2869
H2 H -0.0766 0.8000 0.4240
C2 C -0.08508(11) 0.59612(12) 0.27294(11)
C3 C -0.00383(12) 0.55186(13) 0.19043(12)
H3 H 0.0300 0.6078 0.1573
C4 C 0.02975(14) 0.42273(14) 0.15439(14)
H4 H 0.0857 0.3949 0.0984
C5 C -0.01898(13) 0.33880(14) 0.20072(14)
H5 H 0.0034 0.2536 0.1756
C6 C -0.10306(11) 0.37922(13) 0.28641(12)
C7 C -0.13590(10) 0.50958(12) 0.32319(11)
C8 C -0.25978(13) 0.47770(16) 0.45503(15)
H6 H -0.3124 0.5104 0.5139
C9 C -0.23440(13) 0.34709(16) 0.42316(15)
H7 H -0.2703 0.2949 0.4589
C10 C -0.15676(13) 0.29820(14) 0.33945(14)
H8 H -0.1387 0.2115 0.3168
C11 C -0.17429(12) 0.79199(14) 0.12186(13)
C12 C -0.30566(13) 0.67484(16) 0.03104(15)
H9 H -0.3300 0.6083 0.0561
C13 C -0.39947(16) 0.6582(2) -0.09657(17)
H10 H -0.4874 0.5808 -0.1559
C14 C -0.36513(19) 0.7536(2) -0.13718(18)
H11 H -0.4290 0.7412 -0.2232
C15 C -0.23503(18) 0.8679(2) -0.04895(18)
H12 H -0.2111 0.9327 -0.0761
C16 C -0.13952(15) 0.88796(16) 0.07901(15)
H13 H -0.0517 0.9655 0.1370
C17 C 0.15573(12) 0.93251(13) 0.43156(12)
H14 H 0.1379 0.8746 0.4678
C18 C 0.29735(12) 1.04749(13) 0.50419(12)
C19 C 0.33036(14) 1.12964(15) 0.44908(15)
H15 H 0.2626 1.1096 0.3607
C20 C 0.46375(15) 1.24295(16) 0.52276(17)
H16 H 0.4829 1.2975 0.4834
C21 C 0.56534(14) 1.27397(16) 0.65094(17)
H17 H 0.6539 1.3489 0.6981
C22 C 0.53790(13) 1.19394(14) 0.71294(14)
C23 C 0.63767(14) 1.22101(17) 0.84649(16)
H18 H 0.7282 1.2942 0.8976
C24 C 0.60189(16) 1.14070(19) 0.90020(16)
H19 H 0.6667 1.1584 0.9887
C25 C 0.46545(16) 1.03018(17) 0.82037(15)
H20 H 0.4424 0.9757 0.8588
C26 C 0.40252(12) 1.07886(12) 0.63926(12)
N1 N 0.05702(10) 0.91297(11) 0.31767(10)
N2 N -0.07762(10) 0.81031(11) 0.25106(11)
N3 N -0.21474(10) 0.55778(11) 0.40799(11)
N4 N 0.36816(11) 0.99846(12) 0.69516(11)
loop_
_geom_bond_atom_site_label_1
_geom_bond_atom_site_label_2
_geom_bond_site_symmetry_1
_geom_bond_site_symmetry_2
C1 H1 1_555 1_555
H2 C1 1_555 1_555
C2 C1 1_555 1_555
C3 C2 1_555 1_555
H3 C3 1_555 1_555
C4 C3 1_555 1_555
H4 C4 1_555 1_555
C5 C4 1_555 1_555
H5 C5 1_555 1_555
C6 C5 1_555 1_555
C7 C2 1_555 1_555
C8 H6 1_555 1_555
C9 C8 1_555 1_555
H7 C9 1_555 1_555
C10 C6 1_555 1_555
H8 C10 1_555 1_555
C11 C12 1_555 1_555
C12 H9 1_555 1_555
C13 C12 1_555 1_555
H10 C13 1_555 1_555
C14 C13 1_555 1_555
H11 C14 1_555 1_555
C15 C14 1_555 1_555
H12 C15 1_555 1_555
C16 C11 1_555 1_555
H13 C16 1_555 1_555
C17 H14 1_555 1_555
C18 C17 1_555 1_555
C19 C18 1_555 1_555
H15 C19 1_555 1_555
C20 C19 1_555 1_555
H16 C20 1_555 1_555
C21 C20 1_555 1_555
H17 C21 1_555 1_555
C22 C21 1_555 1_555
C23 C22 1_555 1_555
H18 C23 1_555 1_555
C24 C23 1_555 1_555
H19 C24 1_555 1_555
C25 C24 1_555 1_555
H20 C25 1_555 1_555
C26 C18 1_555 1_555
N1 C17 1_555 1_555
N2 C1 1_555 1_555
N3 C7 1_555 1_555
N4 C25 1_555 1_555
C6 C7 1_555 1_555
C8 N3 1_555 1_555
C9 C10 1_555 1_555
C11 N2 1_555 1_555
C15 C16 1_555 1_555
C22 C26 1_555 1_555
C26 N4 1_555 1_555
N1 N2 1_555 1_555

#END
