
#######################################################################
#
#                 Cambridge Crystallographic Data Centre
#                                CCDC 
#
#######################################################################
#
# If this CIF has been generated from an entry in the Cambridge 
# Structural Database, then it will include bibliographic, chemical, 
# crystal, experimental, refinement or atomic coordinate data resulting 
# from the CCDC's data processing and validation procedures.
#
#######################################################################

data_YISHAK
_chemical_formula_moiety         'C3 H5 N2 1+,C7 H3 N2 O6 1-'
_chemical_name_systematic        'Imidazolium 3,5-dinitrobenzoate'
_symmetry_cell_setting           monoclinic
_symmetry_space_group_name_H-M   'P 21/n'
_symmetry_Int_Tables_number      14
_space_group_name_Hall           '-P 2yn'
loop_
_symmetry_equiv_pos_site_id
_symmetry_equiv_pos_as_xyz
1 x,y,z
2 1/2-x,1/2+y,1/2-z
3 -x,-y,-z
4 1/2+x,1/2-y,1/2+z
_cell_length_a                   7.5540(9)
_cell_length_b                   21.333(2)
_cell_length_c                   7.7823(9)
_cell_angle_alpha                90
_cell_angle_beta                 102.741(2)
_cell_angle_gamma                90
_cell_volume                     1223.23
_exptl_crystal_colour            colorless
_exptl_crystal_description       block
_cell_formula_units_Z            4
loop_
_atom_site_label
_atom_site_type_symbol
_atom_site_fract_x
_atom_site_fract_y
_atom_site_fract_z
N1 N 0.3353(2) 0.11330(7) 0.5645(2)
N2 N -0.1980(2) 0.11218(8) 0.8231(2)
O1 O 0.4407(2) 0.08391(8) 0.4999(2)
O2 O 0.3261(2) 0.17029(6) 0.5631(2)
O3 O -0.31406(18) 0.08141(8) 0.8713(2)
O4 O -0.1950(2) 0.16943(7) 0.8193(2)
C1 C 0.09514(19) -0.01863(7) 0.73021(18)
C2 C -0.04440(19) 0.01370(7) 0.78117(19)
H3 H -0.1326 -0.0079 0.8240
C3 C -0.0507(2) 0.07806(7) 0.76762(19)
C4 C 0.0737(2) 0.11181(7) 0.7008(2)
H4 H 0.0674 0.1553 0.6917
C5 C 0.20825(19) 0.07836(7) 0.6477(2)
C6 C 0.22371(19) 0.01407(7) 0.66291(19)
H5 H 0.3182 -0.0069 0.6288
C7 C 0.0997(2) -0.08968(8) 0.7385(2)
O5 O 0.23111(19) -0.11569(6) 0.69712(19)
O6 O -0.0306(2) -0.11540(6) 0.7808(2)
N3 N 0.19398(19) -0.23077(6) 0.57033(19)
H1 H 0.1983 -0.1968 0.6305
N4 N 0.26954(19) -0.30523(7) 0.4201(2)
H2 H 0.3322 -0.3283 0.3650
C8 C 0.3238(2) -0.25274(8) 0.5011(2)
H6 H 0.4365 -0.2341 0.5084
C9 C 0.0983(3) -0.31731(9) 0.4373(3)
H7 H 0.0274 -0.3517 0.3920
C10 C 0.0510(2) -0.27077(9) 0.5311(3)
H8 H -0.0596 -0.2664 0.5638
loop_
_geom_bond_atom_site_label_1
_geom_bond_atom_site_label_2
_geom_bond_site_symmetry_1
_geom_bond_site_symmetry_2
N1 O1 1_555 1_555
N2 O3 1_555 1_555
N3 H1 1_555 1_555
N4 H2 1_555 1_555
O2 N1 1_555 1_555
O4 N2 1_555 1_555
C1 C2 1_555 1_555
C2 H3 1_555 1_555
C3 N2 1_555 1_555
C4 C3 1_555 1_555
H4 C4 1_555 1_555
C5 N1 1_555 1_555
C6 C1 1_555 1_555
H5 C6 1_555 1_555
C7 C1 1_555 1_555
O5 C7 1_555 1_555
O6 C7 1_555 1_555
C8 N3 1_555 1_555
H6 C8 1_555 1_555
C9 N4 1_555 1_555
H7 C9 1_555 1_555
C10 N3 1_555 1_555
H8 C10 1_555 1_555
N4 C8 1_555 1_555
C2 C3 1_555 1_555
C4 C5 1_555 1_555
C5 C6 1_555 1_555
C9 C10 1_555 1_555

#END
