
#######################################################################
#
#                 Cambridge Crystallographic Data Centre
#                                CCDC 
#
#######################################################################
#
# If this CIF has been generated from an entry in the Cambridge 
# Structural Database, then it will include bibliographic, chemical, 
# crystal, experimental, refinement or atomic coordinate data resulting 
# from the CCDC's data processing and validation procedures.
#
#######################################################################

data_YISMUL
_chemical_formula_moiety         'C27 H17 O9 1-,C12 H11 N2 1+'
_chemical_name_systematic        
'4-[2-(pyridin-4-yl)ethenyl]pyridin-1-ium 4-[3,5-bis(4-carboxyphenoxy)phenoxy]benzoate'
_symmetry_cell_setting           triclinic
_symmetry_space_group_name_H-M   'P -1'
_symmetry_Int_Tables_number      2
_space_group_name_Hall           '-P 1'
loop_
_symmetry_equiv_pos_site_id
_symmetry_equiv_pos_as_xyz
1 x,y,z
2 -x,-y,-z
_cell_length_a                   7.433(3)
_cell_length_b                   9.101(4)
_cell_length_c                   22.827(9)
_cell_angle_alpha                88.73(2)
_cell_angle_beta                 87.969(16)
_cell_angle_gamma                84.49(2)
_cell_volume                     1535.82
_exptl_crystal_colour            white
_exptl_crystal_description       block
_cell_formula_units_Z            2
loop_
_atom_site_label
_atom_site_type_symbol
_atom_site_fract_x
_atom_site_fract_y
_atom_site_fract_z
O1 O 0.4505(3) 0.2583(2) 0.78645(8)
O2 O -0.1897(3) 0.2599(2) 0.61026(8)
O3 O 0.7055(3) 0.7143(2) 0.73046(8)
O4 O 0.9436(3) 0.4021(2) 0.88450(9)
O5 O 1.4853(3) 0.7725(2) 1.00959(9)
H1 H 1.5282 0.8245 1.0334
O6 O 0.0335(3) 0.3219(2) 0.54880(8)
O7 O 0.4038(3) 0.7081(2) 0.47500(9)
H2 H 0.3316 0.7252 0.4488
O8 O 1.2254(3) 0.9006(2) 1.03829(9)
O9 O 0.3042(3) 0.9372(2) 0.50143(9)
C1 C 0.0984(4) 0.2785(3) 0.64833(12)
C2 C 0.6283(4) 0.7304(3) 0.67553(12)
C3 C 0.5727(4) 0.3625(3) 0.79065(12)
C4 C -0.0297(4) 0.2866(3) 0.59824(13)
C5 C 0.7002(4) 0.5841(3) 0.76310(12)
C6 C 0.3365(4) 0.2685(3) 0.73855(12)
C7 C 0.6506(4) 0.6221(3) 0.63397(12)
H3 H 0.7133 0.5311 0.6425
C8 C 0.4708(4) 0.8951(3) 0.60924(13)
H4 H 0.4119 0.9876 0.6007
C9 C 0.0352(4) 0.2823(3) 0.70635(12)
H5 H -0.0887 0.2870 0.7146
C10 C 0.8231(4) 0.5627(3) 0.80660(12)
H6 H 0.9074 0.6300 0.8119
C11 C 0.2839(4) 0.2680(3) 0.63642(12)
H7 H 0.3275 0.2660 0.5977
C12 C 0.1525(4) 0.2792(3) 0.75181(12)
H8 H 0.1092 0.2841 0.7905
C13 C 0.6949(4) 0.3367(3) 0.83489(12)
H9 H 0.6940 0.2530 0.8590
C14 C 0.4855(4) 0.7883(3) 0.56672(12)
C15 C 0.5715(4) 0.4874(3) 0.75504(12)
H10 H 0.4860 0.5059 0.7263
C16 C 0.8187(4) 0.4388(3) 0.84237(12)
C17 C 0.3916(4) 0.8195(3) 0.51065(12)
C18 C 0.9373(4) 0.6344(3) 0.93450(12)
H11 H 0.8132 0.6522 0.9301
C19 C 0.4046(4) 0.2604(3) 0.68151(13)
H12 H 0.5287 0.2501 0.6735
C20 C 1.2152(4) 0.7033(3) 0.97198(12)
C21 C 0.5413(4) 0.8680(3) 0.66384(12)
H13 H 0.5305 0.9406 0.6921
C22 C 1.0316(4) 0.5118(3) 0.91050(12)
C23 C 1.3074(4) 0.8031(3) 1.00972(13)
C24 C 1.2158(4) 0.4837(3) 0.91509(12)
H14 H 1.2777 0.4014 0.8976
C25 C 0.5776(4) 0.6510(3) 0.57900(12)
H15 H 0.5904 0.5787 0.5506
C26 C 1.3075(4) 0.5805(3) 0.94625(12)
H16 H 1.4320 0.5628 0.9499
C27 C 1.0297(4) 0.7314(3) 0.96532(12)
H17 H 0.9676 0.8152 0.9815
N1 N 0.9713(3) 0.2709(2) 0.43924(10)
H18 H 0.9790 0.2969 0.4750
N2 N 0.6310(3) -0.0573(2) 0.08498(10)
C28 C 1.0441(4) 0.1376(3) 0.42301(13)
H19 H 1.1039 0.0746 0.4501
C29 C 0.9401(4) 0.1853(3) 0.32582(12)
C30 C 0.8868(4) 0.3648(3) 0.40106(13)
H20 H 0.8382 0.4574 0.4134
C31 C 0.7434(4) 0.1040(3) 0.17783(12)
C32 C 0.8712(4) 0.3257(3) 0.34393(12)
H21 H 0.8149 0.3925 0.3174
C33 C 0.9149(4) 0.1273(3) 0.26746(13)
H22 H 0.9945 0.0480 0.2551
C34 C 0.5165(4) 0.0403(3) 0.11343(13)
H23 H 0.3970 0.0531 0.1021
C35 C 1.0310(4) 0.0935(3) 0.36678(13)
H24 H 1.0834 0.0010 0.3557
C36 C 0.8052(4) -0.0706(3) 0.10090(13)
H25 H 0.8881 -0.1344 0.0801
C37 C 0.7878(4) 0.1788(3) 0.23082(13)
H26 H 0.7225 0.2685 0.2394
C38 C 0.8659(4) 0.0064(3) 0.14670(13)
H27 H 0.9867 -0.0066 0.1566
C39 C 0.5671(4) 0.1229(3) 0.15874(13)
H28 H 0.4831 0.1915 0.1766
loop_
_geom_bond_atom_site_label_1
_geom_bond_atom_site_label_2
_geom_bond_site_symmetry_1
_geom_bond_site_symmetry_2
O1 C3 1_555 1_555
O2 C4 1_555 1_555
O3 C2 1_555 1_555
O4 C16 1_555 1_555
O5 H1 1_555 1_555
O6 C4 1_555 1_555
O7 H2 1_555 1_555
O8 C23 1_555 1_555
O9 C17 1_555 1_555
C1 C4 1_555 1_555
C2 C7 1_555 1_555
C3 C13 1_555 1_555
C5 O3 1_555 1_555
C6 O1 1_555 1_555
C7 H3 1_555 1_555
C8 H4 1_555 1_555
C9 C1 1_555 1_555
H5 C9 1_555 1_555
C10 C5 1_555 1_555
H6 C10 1_555 1_555
C11 C1 1_555 1_555
H7 C11 1_555 1_555
C12 C6 1_555 1_555
H8 C12 1_555 1_555
C13 H9 1_555 1_555
C14 C8 1_555 1_555
C15 C3 1_555 1_555
H10 C15 1_555 1_555
C16 C10 1_555 1_555
C17 O7 1_555 1_555
C18 H11 1_555 1_555
C19 C6 1_555 1_555
H12 C19 1_555 1_555
C20 C23 1_555 1_555
C21 C2 1_555 1_555
H13 C21 1_555 1_555
C22 O4 1_555 1_555
C23 O5 1_555 1_555
C24 C22 1_555 1_555
H14 C24 1_555 1_555
C25 C7 1_555 1_555
H15 C25 1_555 1_555
C26 C20 1_555 1_555
H16 C26 1_555 1_555
C27 C18 1_555 1_555
H17 C27 1_555 1_555
N1 H18 1_555 1_555
N2 C34 1_555 1_555
C28 N1 1_555 1_555
H19 C28 1_555 1_555
C29 C32 1_555 1_555
C30 N1 1_555 1_555
H20 C30 1_555 1_555
C31 C37 1_555 1_555
C32 C30 1_555 1_555
H21 C32 1_555 1_555
C33 C29 1_555 1_555
H22 C33 1_555 1_555
C34 H23 1_555 1_555
C35 C28 1_555 1_555
H24 C35 1_555 1_555
C36 N2 1_555 1_555
H25 C36 1_555 1_555
C37 C33 1_555 1_555
H26 C37 1_555 1_555
C38 C31 1_555 1_555
H27 C38 1_555 1_555
C39 C31 1_555 1_555
H28 C39 1_555 1_555
C5 C15 1_555 1_555
C8 C21 1_555 1_555
C9 C12 1_555 1_555
C11 C19 1_555 1_555
C13 C16 1_555 1_555
C14 C17 1_555 1_555
C14 C25 1_555 1_555
C18 C22 1_555 1_555
C20 C27 1_555 1_555
C24 C26 1_555 1_555
C29 C35 1_555 1_555
C34 C39 1_555 1_555
C36 C38 1_555 1_555

#END
