
#######################################################################
#
#                 Cambridge Crystallographic Data Centre
#                                CCDC 
#
#######################################################################
#
# If this CIF has been generated from an entry in the Cambridge 
# Structural Database, then it will include bibliographic, chemical, 
# crystal, experimental, refinement or atomic coordinate data resulting 
# from the CCDC's data processing and validation procedures.
#
#######################################################################

data_YISMOF
_chemical_formula_moiety         'C27 H21 N3 O6,H2 O1'
_chemical_name_systematic        
"4,4',4''-(benzene-1,3,5-triyltriazanediyl)tribenzoic acid monohydrate"
_symmetry_cell_setting           monoclinic
_symmetry_space_group_name_H-M   'P 21/c'
_symmetry_Int_Tables_number      14
_space_group_name_Hall           '-P 2ybc'
loop_
_symmetry_equiv_pos_site_id
_symmetry_equiv_pos_as_xyz
1 x,y,z
2 -x,1/2+y,1/2-z
3 -x,-y,-z
4 x,1/2-y,1/2+z
_cell_length_a                   26.2114(18)
_cell_length_b                   7.6705(6)
_cell_length_c                   26.7036(18)
_cell_angle_alpha                90
_cell_angle_beta                 118.679(4)
_cell_angle_gamma                90
_cell_volume                     4710.24
_exptl_crystal_colour            brown
_exptl_crystal_description       needle
_cell_formula_units_Z            8
loop_
_atom_site_label
_atom_site_type_symbol
_atom_site_fract_x
_atom_site_fract_y
_atom_site_fract_z
O1 O -0.08174(9) 0.5084(3) 0.52990(8)
N1 N 0.05559(10) 0.2942(4) 0.79376(10)
H1 H 0.0254 0.2703 0.7971
O2 O 0.29599(10) 0.6415(4) 1.24440(9)
O3 O -0.00023(9) 0.6610(3) 0.55929(9)
O4 O 0.22640(10) 0.8343(4) 1.22873(10)
H2 H 0.2516 0.8782 1.2583
N2 N 0.25261(10) 0.4961(4) 0.91807(10)
H3 H 0.2574 0.5186 0.8890
O5 O 0.46176(11) 0.3754(4) 1.17013(11)
N3 N 0.10773(10) 0.5233(4) 0.98072(10)
H4 H 0.0832 0.4465 0.9792
O6 O 0.50130(10) 0.5641(4) 1.13527(10)
H5 H 0.5295 0.5518 1.1670
C1 C 0.03645(12) 0.3608(4) 0.73951(12)
C2 C 0.12520(12) 0.4761(4) 0.94007(12)
C3 C 0.09907(12) 0.3698(4) 0.84612(11)
C4 C 0.17985(12) 0.5135(4) 0.94843(12)
H6 H 0.2064 0.5697 0.9817
C5 C 0.30256(13) 0.4906(4) 0.97144(12)
C6 C -0.01560(12) 0.2956(4) 0.69507(12)
H7 H -0.0356 0.2092 0.7029
C7 C -0.03753(12) 0.3561(4) 0.64047(13)
H8 H -0.0724 0.3116 0.6120
C8 C 0.15515(12) 0.3960(4) 0.85595(12)
H9 H 0.1656 0.3658 0.8284
C9 C 0.04434(12) 0.5447(4) 0.67141(12)
H10 H 0.0652 0.6276 0.6633
C10 C 0.35240(13) 0.5769(5) 0.97925(13)
H11 H 0.3517 0.6401 0.9492
C11 C -0.00825(12) 0.4835(4) 0.62704(12)
C12 C 0.19593(12) 0.4682(4) 0.90767(12)
C13 C 0.06606(12) 0.4868(4) 0.72629(12)
H12 H 0.1008 0.5321 0.7549
C14 C 0.21237(13) 0.6583(4) 1.15222(12)
C15 C 0.08395(12) 0.4048(4) 0.88818(12)
H13 H 0.0466 0.3808 0.8819
C16 C 0.40439(13) 0.4774(5) 1.07585(13)
C17 C 0.19900(13) 0.4901(5) 1.07110(12)
H14 H 0.2130 0.4080 1.0551
C18 C 0.14446(13) 0.5656(4) 1.03811(12)
C19 C 0.12420(13) 0.6849(5) 1.06351(13)
H15 H 0.0876 0.7346 1.0424
C20 C 0.30480(13) 0.3967(4) 1.01707(13)
H16 H 0.2720 0.3377 1.0128
C21 C 0.35528(13) 0.3907(4) 1.06835(13)
H17 H 0.3562 0.3271 1.0984
C22 C 0.15830(12) 0.7295(4) 1.11978(12)
H18 H 0.1444 0.8101 1.1363
C23 C 0.40222(13) 0.5705(5) 1.03016(14)
H19 H 0.4352 0.6290 1.0345
C24 C 0.24933(15) 0.7084(5) 1.21266(14)
C25 C -0.03145(13) 0.5535(5) 0.56879(13)
C26 C 0.23201(13) 0.5372(5) 1.12722(13)
H20 H 0.2684 0.4865 1.1489
C27 C 0.45859(15) 0.4683(6) 1.13130(16)
O7 O 0.96554(9) 0.7124(3) 0.95871(9)
O8 O 0.88332(9) 0.8639(3) 0.92661(9)
O9 O 0.59960(10) 0.5380(4) 0.23422(10)
O10 O 0.41237(10) 0.6287(4) 0.33317(11)
H21 H 0.3797 0.6565 0.3083
N4 N 0.64263(11) 0.5859(4) 0.57486(11)
H22 H 0.6406 0.5991 0.6059
N5 N 0.77743(11) 0.4724(4) 0.50191(10)
H23 H 0.8134 0.4783 0.5102
O11 O 0.39419(10) 0.8305(4) 0.38138(11)
N6 N 0.84401(11) 0.4464(4) 0.70289(10)
H24 H 0.8752 0.4437 0.7000
O12 O 0.55549(10) 0.3522(4) 0.26448(10)
C28 C 0.89523(12) 0.6805(4) 0.86135(12)
C29 C 0.91586(13) 0.7556(5) 0.91849(13)
C30 C 0.91199(13) 0.4881(5) 0.80004(13)
H25 H 0.9361 0.4093 0.7950
C31 C 0.73632(13) 0.4552(5) 0.44482(12)
C32 C 0.69700(13) 0.5365(4) 0.58215(13)
C33 C 0.59089(13) 0.6171(5) 0.52445(13)
C34 C 0.70920(13) 0.5247(5) 0.53720(13)
H26 H 0.6801 0.5463 0.5001
C35 C 0.80869(13) 0.4579(4) 0.60247(13)
H27 H 0.8462 0.4325 0.6094
C36 C 0.79654(13) 0.4729(5) 0.64788(13)
C37 C 0.82369(13) 0.6519(5) 0.76213(13)
H28 H 0.7879 0.6835 0.7318
C38 C 0.64876(13) 0.4425(5) 0.33090(13)
C39 C 0.84233(12) 0.7254(4) 0.81518(12)
H29 H 0.8189 0.8070 0.8201
C40 C 0.55274(13) 0.7405(5) 0.52564(14)
H30 H 0.5627 0.8028 0.5589
C41 C 0.74314(13) 0.5391(5) 0.40262(13)
H31 H 0.7773 0.5999 0.4122
C42 C 0.48410(13) 0.6818(5) 0.42800(14)
C43 C 0.85826(13) 0.5311(5) 0.75385(12)
C44 C 0.69969(14) 0.5341(5) 0.34606(14)
H32 H 0.7048 0.5924 0.3183
C45 C 0.68670(13) 0.3531(5) 0.42859(13)
H33 H 0.6827 0.2871 0.4558
C46 C 0.76448(13) 0.4810(4) 0.54723(13)
C47 C 0.57417(13) 0.5255(5) 0.47406(14)
H34 H 0.5988 0.4411 0.4724
C48 C 0.42656(15) 0.7221(5) 0.37942(15)
C49 C 0.92969(13) 0.5600(5) 0.85257(13)
H35 H 0.9654 0.5279 0.8829
C50 C 0.74113(13) 0.5038(4) 0.63788(13)
H36 H 0.7327 0.5031 0.6680
C51 C 0.52172(13) 0.5579(5) 0.42664(14)
H37 H 0.5114 0.4959 0.3932
C52 C 0.50083(14) 0.7706(5) 0.47839(14)
H38 H 0.4759 0.8536 0.4801
C53 C 0.64380(14) 0.3498(5) 0.37268(14)
H39 H 0.6106 0.2835 0.3627
C54 C 0.59947(16) 0.4451(7) 0.27228(16)
O13 O 0.29046(9) 0.9879(4) 0.32631(11)
H40 H 0.2965 1.0829 0.3138
H41 H 0.3212 0.9263 0.3404
O14 O 0.33020(15) 0.2781(5) 0.29197(16)
H42 H 0.3533 0.2218 0.2841
H43 H 0.3234 0.3720 0.2730
loop_
_geom_bond_atom_site_label_1
_geom_bond_atom_site_label_2
_geom_bond_site_symmetry_1
_geom_bond_site_symmetry_2
O1 C25 1_555 1_555
N1 H1 1_555 1_555
O2 C24 1_555 1_555
O3 C25 1_555 1_555
O4 H2 1_555 1_555
N2 H3 1_555 1_555
O5 C27 1_555 1_555
N3 H4 1_555 1_555
O6 H5 1_555 1_555
C1 N1 1_555 1_555
C2 N3 1_555 1_555
C3 N1 1_555 1_555
C4 C2 1_555 1_555
H6 C4 1_555 1_555
C5 N2 1_555 1_555
C6 C1 1_555 1_555
H7 C6 1_555 1_555
C7 C6 1_555 1_555
H8 C7 1_555 1_555
C8 C3 1_555 1_555
H9 C8 1_555 1_555
C9 H10 1_555 1_555
C10 C5 1_555 1_555
H11 C10 1_555 1_555
C11 C7 1_555 1_555
C12 N2 1_555 1_555
C13 C1 1_555 1_555
H12 C13 1_555 1_555
C14 C22 1_555 1_555
C15 C2 1_555 1_555
H13 C15 1_555 1_555
C16 C21 1_555 1_555
C17 H14 1_555 1_555
C18 N3 1_555 1_555
C19 C18 1_555 1_555
H15 C19 1_555 1_555
C20 C5 1_555 1_555
H16 C20 1_555 1_555
C21 C20 1_555 1_555
H17 C21 1_555 1_555
C22 C19 1_555 1_555
H18 C22 1_555 1_555
C23 C10 1_555 1_555
H19 C23 1_555 1_555
C24 O4 1_555 1_555
C25 C11 1_555 1_555
C26 C14 1_555 1_555
H20 C26 1_555 1_555
C27 O6 1_555 1_555
O7 C29 1_555 1_555
O8 C29 1_555 1_555
O9 C54 1_555 1_555
O10 H21 1_555 1_555
N4 H22 1_555 1_555
N5 H23 1_555 1_555
O11 C48 1_555 1_555
N6 H24 1_555 1_555
O12 C54 1_555 1_555
C28 C29 1_555 1_555
C30 H25 1_555 1_555
C31 N5 1_555 1_555
C32 N4 1_555 1_555
C33 N4 1_555 1_555
C34 C32 1_555 1_555
H26 C34 1_555 1_555
C35 H27 1_555 1_555
C36 N6 1_555 1_555
C37 H28 1_555 1_555
C38 C44 1_555 1_555
C39 C28 1_555 1_555
H29 C39 1_555 1_555
C40 C33 1_555 1_555
H30 C40 1_555 1_555
C41 C31 1_555 1_555
H31 C41 1_555 1_555
C42 C48 1_555 1_555
C43 N6 1_555 1_555
C44 C41 1_555 1_555
H32 C44 1_555 1_555
C45 C31 1_555 1_555
H33 C45 1_555 1_555
C46 N5 1_555 1_555
C47 C33 1_555 1_555
H34 C47 1_555 1_555
C48 O10 1_555 1_555
C49 C28 1_555 1_555
H35 C49 1_555 1_555
C50 C32 1_555 1_555
H36 C50 1_555 1_555
C51 C42 1_555 1_555
H37 C51 1_555 1_555
C52 C40 1_555 1_555
H38 C52 1_555 1_555
C53 C38 1_555 1_555
H39 C53 1_555 1_555
C54 C38 1_555 1_555
O13 H40 1_555 1_555
H41 O13 1_555 1_555
O14 H42 1_555 1_555
H43 O14 1_555 1_555
C3 C15 1_555 1_555
C4 C12 1_555 1_555
C8 C12 1_555 1_555
C9 C11 1_555 1_555
C9 C13 1_555 1_555
C14 C24 1_555 1_555
C16 C23 1_555 1_555
C16 C27 1_555 1_555
C17 C18 1_555 1_555
C17 C26 1_555 1_555
C30 C43 1_555 1_555
C30 C49 1_555 1_555
C34 C46 1_555 1_555
C35 C36 1_555 1_555
C35 C46 1_555 1_555
C36 C50 1_555 1_555
C37 C39 1_555 1_555
C37 C43 1_555 1_555
C42 C52 1_555 1_555
C45 C53 1_555 1_555
C47 C51 1_555 1_555

#END
