
#######################################################################
#
#                 Cambridge Crystallographic Data Centre
#                                CCDC 
#
#######################################################################
#
# If this CIF has been generated from an entry in the Cambridge 
# Structural Database, then it will include bibliographic, chemical, 
# crystal, experimental, refinement or atomic coordinate data resulting 
# from the CCDC's data processing and validation procedures.
#
#######################################################################

data_YISNUM
_chemical_formula_moiety         'C27 H21 N3 O6,C10 H8 N2 S1,C1 H4 O1'
_chemical_name_systematic        
"4,4',4''-(benzene-1,3,5-triyltriazanediyl)tribenzoic acid 4,4'-sulfanediyldipyridine methanol solvate"
_symmetry_cell_setting           triclinic
_symmetry_space_group_name_H-M   'P -1'
_symmetry_Int_Tables_number      2
_space_group_name_Hall           '-P 1'
loop_
_symmetry_equiv_pos_site_id
_symmetry_equiv_pos_as_xyz
1 x,y,z
2 -x,-y,-z
_cell_length_a                   9.017(8)
_cell_length_b                   11.280(11)
_cell_length_c                   16.817(15)
_cell_angle_alpha                97.49(2)
_cell_angle_beta                 91.87(3)
_cell_angle_gamma                92.38(2)
_cell_volume                     1693.18
_exptl_crystal_colour            brown
_exptl_crystal_description       block
_cell_formula_units_Z            2
loop_
_atom_site_label
_atom_site_type_symbol
_atom_site_fract_x
_atom_site_fract_y
_atom_site_fract_z
S1 S 0.55756(12) 0.19599(9) 0.37528(8)
N1 N 0.4682(3) -0.2082(2) 0.32108(17)
N2 N 0.2327(4) 0.4297(3) 0.51791(19)
C1 C 0.3891(4) -0.0208(3) 0.3883(2)
H1 H 0.3197 0.0200 0.4197
C2 C 0.5880(4) -0.1482(3) 0.2965(2)
H2 H 0.6553 -0.1913 0.2649
C3 C 0.6153(4) -0.0258(3) 0.3160(2)
H3 H 0.7001 0.0114 0.2987
C4 C 0.3723(4) -0.1442(3) 0.3661(2)
H4 H 0.2898 -0.1843 0.3835
C5 C 0.5138(4) 0.0409(3) 0.3619(2)
C6 C 0.2930(5) 0.4565(3) 0.4512(3)
H5 H 0.2721 0.5293 0.4341
C7 C 0.3562(4) 0.2444(3) 0.5010(2)
H6 H 0.3757 0.1727 0.5201
C8 C 0.4185(4) 0.2723(3) 0.4315(2)
C9 C 0.2649(5) 0.3239(3) 0.5413(2)
H7 H 0.2227 0.3034 0.5876
C10 C 0.3853(5) 0.3818(3) 0.4058(3)
H8 H 0.4245 0.4039 0.3591
O1 O -0.0010(3) 0.13289(19) 0.05656(15)
O2 O -0.0925(3) 1.3900(2) 0.40262(16)
H9 H -0.1290 1.4436 0.4324
O3 O 0.6964(3) 1.5786(2) 0.26158(16)
O4 O 0.1268(3) 0.07992(19) -0.05413(14)
O5 O -0.1269(3) 1.2864(2) 0.50734(16)
N3 N 0.0943(3) 0.8834(2) 0.23375(17)
H10 H 0.0458 0.8181 0.2400
O6 O 0.4476(3) 1.56336(19) 0.26111(18)
H11 H 0.4591 1.6323 0.2835
N4 N 0.5506(3) 1.0241(2) 0.11549(17)
H12 H 0.6301 0.9966 0.0947
N5 N 0.3139(4) 0.6410(2) 0.01120(18)
H13 H 0.3637 0.6491 -0.0306
C11 C 0.6926(4) 1.2061(3) 0.1686(2)
H14 H 0.7796 1.1647 0.1634
C12 C 0.0566(4) 0.9850(3) 0.2830(2)
C13 C 0.1951(4) 0.7687(3) 0.1199(2)
H15 H 0.1151 0.7138 0.1191
C14 C -0.0333(4) 1.1867(3) 0.3853(2)
C15 C -0.0013(4) 0.9728(3) 0.3589(2)
H16 H -0.0105 0.8975 0.3755
C16 C 0.3189(4) 0.9585(3) 0.1736(2)
H17 H 0.3242 1.0270 0.2111
C17 C 0.4242(4) 0.8346(3) 0.0630(2)
H18 H 0.4974 0.8216 0.0256
C18 C 0.5707(4) 1.3920(3) 0.2094(2)
C19 C 0.4285(4) 0.9408(3) 0.1161(2)
C20 C -0.0445(4) 1.0719(3) 0.4086(2)
H19 H -0.0817 1.0621 0.4584
C21 C 0.0668(4) 1.1007(3) 0.2599(2)
H20 H 0.1036 1.1114 0.2102
C22 C 0.0225(4) 1.1987(3) 0.3105(2)
H21 H 0.0302 1.2743 0.2941
C23 C 0.5558(4) 1.1461(3) 0.1451(2)
C24 C 0.4354(4) 1.3324(3) 0.1830(2)
H22 H 0.3487 1.3743 0.1874
C25 C 0.4268(4) 1.2128(3) 0.1505(2)
H23 H 0.3355 1.1764 0.1322
C26 C 0.7001(4) 1.3268(3) 0.1997(2)
H24 H 0.7921 1.3651 0.2144
C27 C 0.2021(4) 0.8734(3) 0.1746(2)
C28 C 0.1636(4) 0.4896(3) 0.0725(2)
H25 H 0.1412 0.5446 0.1161
C29 C 0.1417(4) 0.2848(3) 0.0042(2)
C30 C 0.0864(4) 0.1597(3) 0.0015(2)
C31 C 0.1087(4) 0.3716(3) 0.0670(2)
H26 H 0.0478 0.3498 0.1068
C32 C 0.2527(4) 0.5257(3) 0.0123(2)
C33 C 0.2307(4) 0.3215(3) -0.0560(2)
H27 H 0.2532 0.2665 -0.0995
C34 C 0.2848(5) 0.4379(3) -0.0510(2)
H28 H 0.3451 0.4593 -0.0911
C35 C 0.5783(4) 1.5193(3) 0.2460(2)
C36 C -0.0882(4) 1.2914(3) 0.4388(3)
C37 C 0.3094(4) 0.7472(3) 0.0660(2)
O7 O -0.0173(3) 0.6427(3) 0.2443(2)
H29 H -0.1042 0.6196 0.2469
C38 C 0.0708(5) 0.5854(4) 0.2941(3)
H30 H 0.1731 0.5976 0.2819
H31 H 0.0442 0.5013 0.2862
H32 H 0.0564 0.6172 0.3489
loop_
_geom_bond_atom_site_label_1
_geom_bond_atom_site_label_2
_geom_bond_site_symmetry_1
_geom_bond_site_symmetry_2
S1 C5 1_555 1_555
N1 C2 1_555 1_555
N2 C6 1_555 1_555
C1 H1 1_555 1_555
C2 H2 1_555 1_555
C3 C2 1_555 1_555
H3 C3 1_555 1_555
C4 N1 1_555 1_555
H4 C4 1_555 1_555
C5 C1 1_555 1_555
C6 H5 1_555 1_555
C7 H6 1_555 1_555
C8 S1 1_555 1_555
C9 N2 1_555 1_555
H7 C9 1_555 1_555
C10 C6 1_555 1_555
H8 C10 1_555 1_555
O1 C30 1_555 1_555
O2 H9 1_555 1_555
O3 C35 1_555 1_555
O4 C30 1_555 1_555
O5 C36 1_555 1_555
N3 H10 1_555 1_555
O6 H11 1_555 1_555
N4 H12 1_555 1_555
N5 H13 1_555 1_555
C11 H14 1_555 1_555
C12 N3 1_555 1_555
C13 H15 1_555 1_555
C14 C20 1_555 1_555
C15 C12 1_555 1_555
H16 C15 1_555 1_555
C16 H17 1_555 1_555
C17 H18 1_555 1_555
C18 C24 1_555 1_555
C19 N4 1_555 1_555
C20 C15 1_555 1_555
H19 C20 1_555 1_555
C21 C12 1_555 1_555
H20 C21 1_555 1_555
C22 C14 1_555 1_555
H21 C22 1_555 1_555
C23 N4 1_555 1_555
C24 H22 1_555 1_555
C25 C23 1_555 1_555
H23 C25 1_555 1_555
C26 C11 1_555 1_555
H24 C26 1_555 1_555
C27 N3 1_555 1_555
C28 H25 1_555 1_555
C29 C30 1_555 1_555
C31 C28 1_555 1_555
H26 C31 1_555 1_555
C32 N5 1_555 1_555
C33 C29 1_555 1_555
H27 C33 1_555 1_555
C34 C32 1_555 1_555
H28 C34 1_555 1_555
C35 O6 1_555 1_555
C36 O2 1_555 1_555
C37 N5 1_555 1_555
O7 H29 1_555 1_555
C38 O7 1_555 1_555
H30 C38 1_555 1_555
H31 C38 1_555 1_555
H32 C38 1_555 1_555
C1 C4 1_555 1_555
C3 C5 1_555 1_555
C7 C8 1_555 1_555
C7 C9 1_555 1_555
C8 C10 1_555 1_555
C11 C23 1_555 1_555
C13 C27 1_555 1_555
C13 C37 1_555 1_555
C14 C36 1_555 1_555
C16 C19 1_555 1_555
C16 C27 1_555 1_555
C17 C19 1_555 1_555
C17 C37 1_555 1_555
C18 C26 1_555 1_555
C18 C35 1_555 1_555
C21 C22 1_555 1_555
C24 C25 1_555 1_555
C28 C32 1_555 1_555
C29 C31 1_555 1_555
C33 C34 1_555 1_555

#END
