
#######################################################################
#
#                 Cambridge Crystallographic Data Centre
#                                CCDC 
#
#######################################################################
#
# If this CIF has been generated from an entry in the Cambridge 
# Structural Database, then it will include bibliographic, chemical, 
# crystal, experimental, refinement or atomic coordinate data resulting 
# from the CCDC's data processing and validation procedures.
#
#######################################################################

data_YISQOI
_chemical_formula_moiety         'C23 H27 N1 O12'
_chemical_name_systematic        
'5-(1,3-Benzodioxol-5-yl)-6-((methoxycarbonyl)amino)cyclohexane-1,2,3,4-tetrayl tetraacetate'
_symmetry_cell_setting           monoclinic
_symmetry_space_group_name_H-M   'C 2/c'
_symmetry_Int_Tables_number      15
_space_group_name_Hall           '-C 2yn'
loop_
_symmetry_equiv_pos_site_id
_symmetry_equiv_pos_as_xyz
1 x,y,z
2 -x,y,1/2-z
3 1/2+x,1/2+y,z
4 1/2-x,1/2+y,1/2-z
5 -x,-y,-z
6 x,-y,1/2+z
7 1/2-x,1/2-y,-z
8 1/2+x,1/2-y,1/2+z
_cell_length_a                   24.468(3)
_cell_length_b                   15.3134(8)
_cell_length_c                   18.490(2)
_cell_angle_alpha                90
_cell_angle_beta                 130.09(2)
_cell_angle_gamma                90
_cell_volume                     5300.14
_exptl_crystal_colour            colorless
_exptl_crystal_description       Block
_cell_formula_units_Z            8
loop_
_atom_site_label
_atom_site_type_symbol
_atom_site_fract_x
_atom_site_fract_y
_atom_site_fract_z
O1 O 1.01386(13) 0.51573(14) 0.35068(16)
O2 O 1.03286(13) 0.80729(16) 0.45436(17)
O3 O 0.91757(13) 0.78518(15) 0.25994(17)
O4 O 1.09181(13) 0.64213(17) 0.49308(17)
N1 N 0.84495(16) 0.64278(19) 0.3385(2)
H1 H 0.8765 0.6240 0.3954
C1 C 0.90335(18) 0.5951(2) 0.2740(2)
H2 H 0.9088 0.6154 0.2286
O5 O 0.72787(14) 0.67765(19) 0.2241(2)
C2 C 0.97834(18) 0.5786(2) 0.3674(2)
H3 H 0.9757 0.5559 0.4146
C3 C 0.86676(18) 0.6696(2) 0.2857(2)
H4 H 0.8233 0.6854 0.2222
C4 C 1.02302(18) 0.6609(2) 0.4035(2)
H5 H 1.0284 0.6814 0.3582
O6 O 1.04869(16) 0.43545(19) 0.4753(2)
C5 C 0.85508(19) 0.5155(2) 0.2309(2)
O7 O 0.76818(16) 0.61079(19) 0.3597(2)
O8 O 0.68588(16) 0.43723(19) 0.0066(2)
C6 C 0.91322(19) 0.7517(2) 0.3293(2)
H6 H 0.8907 0.7951 0.3417
C7 C 0.98772(19) 0.7313(2) 0.4198(2)
H7 H 0.9851 0.7111 0.4678
C8 C 1.0485(2) 0.4489(2) 0.4112(3)
C9 C 0.79377(19) 0.5184(2) 0.1347(2)
H8 H 0.7841 0.5665 0.0974
C10 C 0.7759(2) 0.6465(2) 0.3003(3)
O9 O 1.14675(17) 0.6767(3) 0.4368(3)
C11 C 0.7493(2) 0.4487(2) 0.0983(3)
C12 C 0.8670(2) 0.4415(2) 0.2834(3)
H9 H 0.9068 0.4401 0.3474
O10 O 0.70876(19) 0.3156(2) 0.0959(3)
C13 C 1.0368(2) 0.8590(3) 0.5168(3)
C14 C 0.9068(2) 0.8712(2) 0.2404(3)
O11 O 0.9004(2) 0.92222(19) 0.2828(3)
C15 C 0.7621(2) 0.3759(3) 0.1504(3)
C16 C 1.1501(2) 0.6529(3) 0.5008(3)
C17 C 0.8215(3) 0.3698(3) 0.2432(3)
H10 H 0.8312 0.3197 0.2782
O12 O 1.0037(2) 0.8439(2) 0.5422(3)
C18 C 1.0833(3) 0.9349(3) 0.5432(4)
H11 H 1.1305 0.9152 0.5712
H12 H 1.0854 0.9703 0.5878
H13 H 1.0643 0.9688 0.4878
C19 C 1.0856(3) 0.3936(3) 0.3882(4)
H14 H 1.0624 0.3378 0.3653
H15 H 1.1345 0.3854 0.4440
H16 H 1.0839 0.4218 0.3404
C20 C 1.2164(3) 0.6321(4) 0.5972(4)
H17 H 1.2254 0.6766 0.6402
H18 H 1.2557 0.6293 0.5974
H19 H 1.2112 0.5767 0.6165
C21 C 0.9032(3) 0.8920(3) 0.1588(3)
H20 H 0.9411 0.8624 0.1662
H21 H 0.9081 0.9539 0.1563
H22 H 0.8580 0.8732 0.1013
C22 C 0.6586(3) 0.3551(3) 0.0068(4)
H23 H 0.6138 0.3634 -0.0062
H24 H 0.6499 0.3177 -0.0421
C23 C 0.6967(3) 0.6147(4) 0.3289(4)
H25 H 0.6636 0.5883 0.2676
H26 H 0.6836 0.6746 0.3254
H27 H 0.6956 0.5840 0.3731
loop_
_geom_bond_atom_site_label_1
_geom_bond_atom_site_label_2
_geom_bond_site_symmetry_1
_geom_bond_site_symmetry_2
O1 C2 1_555 1_555
O2 C7 1_555 1_555
O3 C6 1_555 1_555
O4 C4 1_555 1_555
N1 H1 1_555 1_555
C1 H2 1_555 1_555
O5 C10 1_555 1_555
C2 C1 1_555 1_555
H3 C2 1_555 1_555
C3 N1 1_555 1_555
H4 C3 1_555 1_555
C4 C2 1_555 1_555
H5 C4 1_555 1_555
O6 C8 1_555 1_555
C5 C1 1_555 1_555
O7 C10 1_555 1_555
O8 C11 1_555 1_555
C6 C3 1_555 1_555
H6 C6 1_555 1_555
C7 C4 1_555 1_555
H7 C7 1_555 1_555
C8 O1 1_555 1_555
C9 C5 1_555 1_555
H8 C9 1_555 1_555
C10 N1 1_555 1_555
O9 C16 1_555 1_555
C11 C9 1_555 1_555
C12 C5 1_555 1_555
H9 C12 1_555 1_555
O10 C15 1_555 1_555
C13 O2 1_555 1_555
C14 O3 1_555 1_555
O11 C14 1_555 1_555
C15 C11 1_555 1_555
C16 O4 1_555 1_555
C17 C12 1_555 1_555
H10 C17 1_555 1_555
O12 C13 1_555 1_555
C18 C13 1_555 1_555
H11 C18 1_555 1_555
H12 C18 1_555 1_555
H13 C18 1_555 1_555
C19 C8 1_555 1_555
H14 C19 1_555 1_555
H15 C19 1_555 1_555
H16 C19 1_555 1_555
C20 C16 1_555 1_555
H17 C20 1_555 1_555
H18 C20 1_555 1_555
H19 C20 1_555 1_555
C21 C14 1_555 1_555
H20 C21 1_555 1_555
H21 C21 1_555 1_555
H22 C21 1_555 1_555
C22 O8 1_555 1_555
H23 C22 1_555 1_555
H24 C22 1_555 1_555
C23 O7 1_555 1_555
H25 C23 1_555 1_555
H26 C23 1_555 1_555
H27 C23 1_555 1_555
C1 C3 1_555 1_555
C6 C7 1_555 1_555
O10 C22 1_555 1_555
C15 C17 1_555 1_555

#END
