
#######################################################################
#
#                 Cambridge Crystallographic Data Centre
#                                CCDC 
#
#######################################################################
#
# If this CIF has been generated from an entry in the Cambridge 
# Structural Database, then it will include bibliographic, chemical, 
# crystal, experimental, refinement or atomic coordinate data resulting 
# from the CCDC's data processing and validation procedures.
#
#######################################################################

data_YISQIC
_chemical_formula_moiety         'C18 H23 N1 O10'
_chemical_name_systematic        
7a-(1,3-benzodioxol-5-yl)-4,5-dihydroxy-6,7-bis(methoxymethoxy)hexahydro-1,3-benzoxazol-2(3H)-one
_symmetry_cell_setting           monoclinic
_symmetry_space_group_name_H-M   'P 21/c'
_symmetry_Int_Tables_number      14
_space_group_name_Hall           '-P 2ybc'
loop_
_symmetry_equiv_pos_site_id
_symmetry_equiv_pos_as_xyz
1 x,y,z
2 -x,1/2+y,1/2-z
3 -x,-y,-z
4 x,1/2-y,1/2+z
_cell_length_a                   9.8076(11)
_cell_length_b                   11.2274(13)
_cell_length_c                   17.7325(19)
_cell_angle_alpha                90
_cell_angle_beta                 101.224(7)
_cell_angle_gamma                90
_cell_volume                     1915.25
_exptl_crystal_colour            colorless
_exptl_crystal_description       plate
_cell_formula_units_Z            4
loop_
_atom_site_label
_atom_site_type_symbol
_atom_site_fract_x
_atom_site_fract_y
_atom_site_fract_z
O1 O 0.9862(3) 0.3252(4) 0.96183(19)
O2 O 1.1400(4) 0.1447(5) 0.90174(19)
O3 O 0.8662(5) 0.0469(7) 0.7692(2)
H1 H 0.8209 -0.0149 0.7539
O4 O 0.7425(4) -0.1062(4) 0.8562(2)
H2 H 0.7932 -0.1670 0.8643
O5 O 0.7457(3) 0.2053(4) 1.00864(17)
O6 O 1.0898(4) 0.2955(4) 1.0913(2)
O7 O 0.5945(5) 0.1120(4) 1.0676(2)
O8 O 0.5411(5) 0.6024(4) 0.9129(2)
O9 O 0.5229(6) 0.6135(5) 0.7814(2)
N1 N 0.6168(5) 0.0638(5) 0.9442(3)
H3 H 0.5479 0.0127 0.9324
C1 C 0.9383(5) 0.2075(5) 0.9446(3)
H4 H 0.9740 0.1569 0.9906
C2 C 0.9915(5) 0.1546(7) 0.8766(3)
H5 H 0.9720 0.2122 0.8327
C3 C 0.9278(6) 0.0346(8) 0.8493(3)
H6 H 1.0030 -0.0268 0.8552
C4 C 0.8163(6) -0.0057(6) 0.8927(3)
H7 H 0.8609 -0.0273 0.9466
C5 C 0.7128(5) 0.0919(5) 0.8943(3)
H8 H 0.6605 0.1085 0.8410
C6 C 0.7776(5) 0.2074(6) 0.9317(2)
C7 C 1.1083(6) 0.3367(8) 1.0191(3)
H9 H 1.1843 0.2910 1.0032
H10 H 1.1364 0.4214 1.0235
C8 C 1.0041(7) 0.3723(7) 1.1270(4)
H11 H 1.0410 0.4536 1.1292
H12 H 1.0038 0.3441 1.1793
H13 H 0.9090 0.3716 1.0970
C9 C 1.2093(17) 0.1744(15) 0.8386(9)
H14 H 1.3063 0.1453 0.8525
H15 H 1.1635 0.1286 0.7930
O10 O 1.2222(8) 0.2167(11) 0.8010(5)
C10 C 1.3147(13) 0.3088(14) 0.8418(7)
H16 H 1.2657 0.3533 0.8760
H17 H 1.3424 0.3634 0.8044
H18 H 1.3975 0.2711 0.8723
C11 C 0.6451(6) 0.1245(6) 1.0106(3)
C12 C 0.7122(5) 0.3176(6) 0.8904(3)
C13 C 0.6604(5) 0.4098(5) 0.9290(3)
H19 H 0.6655 0.4061 0.9830
C14 C 0.6018(6) 0.5062(6) 0.8872(3)
C15 C 0.5934(6) 0.5131(6) 0.8086(3)
C16 C 0.6433(6) 0.4254(6) 0.7688(3)
H20 H 0.6363 0.4304 0.7147
C17 C 0.7053(5) 0.3274(6) 0.8106(3)
H21 H 0.7438 0.2658 0.7845
C18 C 0.4946(7) 0.6765(6) 0.8458(3)
H22 H 0.3938 0.6927 0.8394
H23 H 0.5449 0.7535 0.8515
O11? O 1.2143(11) 0.2981(12) 0.8156(6)
C19? C 1.307(3) 0.375(2) 0.8676(14)
H24? H 1.2584 0.4062 0.9068
H25? H 1.3360 0.4418 0.8386
H26? H 1.3888 0.3300 0.8924
C20? C 1.2147(15) 0.1087(15) 0.8447(8)
H27? H 1.1647 0.0451 0.8118
H28? H 1.3087 0.0799 0.8683
loop_
_geom_bond_atom_site_label_1
_geom_bond_atom_site_label_2
_geom_bond_site_symmetry_1
_geom_bond_site_symmetry_2
O1 C1 1_555 1_555
O2 C2 1_555 1_555
O3 H1 1_555 1_555
O4 H2 1_555 1_555
O5 C6 1_555 1_555
O6 C7 1_555 1_555
O7 C11 1_555 1_555
O8 C14 1_555 1_555
O9 C15 1_555 1_555
N1 H3 1_555 1_555
C1 H4 1_555 1_555
C2 C1 1_555 1_555
H5 C2 1_555 1_555
C3 O3 1_555 1_555
H6 C3 1_555 1_555
C4 O4 1_555 1_555
H7 C4 1_555 1_555
C5 N1 1_555 1_555
H8 C5 1_555 1_555
C6 C1 1_555 1_555
C7 O1 1_555 1_555
H9 C7 1_555 1_555
H10 C7 1_555 1_555
C8 O6 1_555 1_555
H11 C8 1_555 1_555
H12 C8 1_555 1_555
H13 C8 1_555 1_555
C9 O2 1_555 1_555
H14 C9 1_555 1_555
H15 C9 1_555 1_555
O10 C9 1_555 1_555
C10 O10 1_555 1_555
H16 C10 1_555 1_555
H17 C10 1_555 1_555
H18 C10 1_555 1_555
C11 O5 1_555 1_555
C12 C6 1_555 1_555
C13 C12 1_555 1_555
H19 C13 1_555 1_555
C14 C13 1_555 1_555
C15 C14 1_555 1_555
C16 C15 1_555 1_555
H20 C16 1_555 1_555
C17 C12 1_555 1_555
H21 C17 1_555 1_555
C18 O8 1_555 1_555
H22 C18 1_555 1_555
H23 C18 1_555 1_555
O9 C18 1_555 1_555
N1 C11 1_555 1_555
C2 C3 1_555 1_555
C3 C4 1_555 1_555
C4 C5 1_555 1_555
C5 C6 1_555 1_555
C16 C17 1_555 1_555

#END
