
#######################################################################
#
#                 Cambridge Crystallographic Data Centre
#                                CCDC 
#
#######################################################################
#
# If this CIF has been generated from an entry in the Cambridge 
# Structural Database, then it will include bibliographic, chemical, 
# crystal, experimental, refinement or atomic coordinate data resulting 
# from the CCDC's data processing and validation procedures.
#
#######################################################################

data_YISRAV
_chemical_formula_moiety         'C21 H21 F3 N2 O4'
_chemical_name_systematic        
4-Benzyl-3-(4,4,4-trifluoro-3-((4-methoxyphenyl)amino)butanoyl)-1,3-oxazolidin-2-one
_symmetry_cell_setting           orthorhombic
_symmetry_space_group_name_H-M   'P 21 21 21'
_symmetry_Int_Tables_number      19
_space_group_name_Hall           'P 2ac 2ab'
loop_
_symmetry_equiv_pos_site_id
_symmetry_equiv_pos_as_xyz
1 x,y,z
2 1/2-x,-y,1/2+z
3 -x,1/2+y,1/2-z
4 1/2+x,1/2-y,-z
_cell_length_a                   6.1769(12)
_cell_length_b                   12.491(2)
_cell_length_c                   26.337(5)
_cell_angle_alpha                90
_cell_angle_beta                 90
_cell_angle_gamma                90
_cell_volume                     2032.05
_exptl_crystal_colour            colorless
_exptl_crystal_description       prismatic
_cell_formula_units_Z            4
loop_
_atom_site_label
_atom_site_type_symbol
_atom_site_fract_x
_atom_site_fract_y
_atom_site_fract_z
F1 F 0.809(3) 1.2010(12) 0.9547(7)
F2 F 0.470(3) 1.2000(16) 0.9298(9)
F3 F 0.593(5) 1.0698(17) 0.9726(7)
N1 N 1.0082(4) 1.16247(18) 0.77029(8)
N2 N 0.6089(5) 0.9989(3) 0.87292(11)
O1 O 0.6820(3) 1.24635(18) 0.75158(9)
O2 O 0.9618(3) 1.25279(18) 0.69904(8)
O3 O 1.1312(4) 1.0775(2) 0.83858(9)
O4 O 0.5331(5) 0.5893(2) 0.95289(11)
C1 C 0.8648(4) 1.2239(2) 0.74175(11)
C2 C 1.1864(5) 1.2222(3) 0.69896(13)
H1 H 1.2784 1.2844 0.7035
H2 H 1.2244 1.1877 0.6672
C3 C 1.2124(4) 1.1455(2) 0.74276(12)
H3 H 1.3334 1.1690 0.7641
C4 C 1.2487(5) 1.0295(3) 0.72693(14)
H4 H 1.3849 1.0251 0.7087
H5 H 1.2624 0.9862 0.7573
C5 C 1.0742(5) 0.9823(2) 0.69428(13)
C6 C 1.0924(8) 0.9763(3) 0.64305(15)
H6 H 1.2169 1.0018 0.6273
C7 C 0.9279(11) 0.9329(4) 0.61393(19)
H7 H 0.9429 0.9299 0.5788
C8 C 0.7450(9) 0.8945(4) 0.6359(2)
H8 H 0.6339 0.8669 0.6160
C9 C 0.7258(6) 0.8968(3) 0.6867(2)
H9 H 0.6031 0.8685 0.7022
C10 C 0.8887(6) 0.9413(3) 0.71598(16)
H10 H 0.8728 0.9435 0.7511
C11 C 0.9855(5) 1.1290(2) 0.81939(12)
C12 C 0.7881(6) 1.1612(3) 0.84927(13)
H11 H 0.6642 1.1645 0.8267
H12 H 0.8103 1.2321 0.8634
C13 C 0.7415(6) 1.0831(3) 0.89189(11)
H13 H 0.8794 1.0519 0.9028
C14 C 0.6443(10) 1.1401(4) 0.93642(14)
C15 C 0.5938(6) 0.8968(3) 0.89620(12)
C16 C 0.7546(7) 0.8552(3) 0.92594(15)
H14 H 0.8766 0.8962 0.9330
C17 C 0.7379(7) 0.7527(3) 0.94568(14)
H15 H 0.8480 0.7258 0.9661
C18 C 0.5625(6) 0.6916(3) 0.93546(12)
C19 C 0.4024(6) 0.7322(3) 0.90521(13)
H16 H 0.2824 0.6902 0.8976
C20 C 0.4157(5) 0.8340(3) 0.88586(12)
H17 H 0.3044 0.8607 0.8657
C21 C 0.6890(10) 0.5464(4) 0.98558(18)
H18 H 0.6948 0.5882 1.0161
H19 H 0.8279 0.5477 0.9693
H20 H 0.6513 0.4739 0.9938
H21 H 0.497(5) 1.022(3) 0.8581(14)
F4? F 0.734(3) 1.2305(11) 0.9517(6)
F5? F 0.441(2) 1.1693(16) 0.9216(8)
F6? F 0.639(6) 1.084(2) 0.9786(8)
loop_
_geom_bond_atom_site_label_1
_geom_bond_atom_site_label_2
_geom_bond_site_symmetry_1
_geom_bond_site_symmetry_2
F1 C14 1_555 1_555
F2 C14 1_555 1_555
F3 C14 1_555 1_555
N1 C1 1_555 1_555
N2 C13 1_555 1_555
O1 C1 1_555 1_555
O2 C1 1_555 1_555
O3 C11 1_555 1_555
O4 C18 1_555 1_555
C2 O2 1_555 1_555
H1 C2 1_555 1_555
H2 C2 1_555 1_555
C3 N1 1_555 1_555
H3 C3 1_555 1_555
C4 C3 1_555 1_555
H4 C4 1_555 1_555
H5 C4 1_555 1_555
C5 C4 1_555 1_555
C6 C5 1_555 1_555
H6 C6 1_555 1_555
C7 C6 1_555 1_555
H7 C7 1_555 1_555
C8 C7 1_555 1_555
H8 C8 1_555 1_555
C9 C8 1_555 1_555
H9 C9 1_555 1_555
C10 C5 1_555 1_555
H10 C10 1_555 1_555
C11 N1 1_555 1_555
C12 C11 1_555 1_555
H11 C12 1_555 1_555
H12 C12 1_555 1_555
C13 C12 1_555 1_555
H13 C13 1_555 1_555
C14 C13 1_555 1_555
C15 N2 1_555 1_555
C16 C15 1_555 1_555
H14 C16 1_555 1_555
C17 C16 1_555 1_555
H15 C17 1_555 1_555
C18 C17 1_555 1_555
C19 C18 1_555 1_555
H16 C19 1_555 1_555
C20 C15 1_555 1_555
H17 C20 1_555 1_555
C21 O4 1_555 1_555
H18 C21 1_555 1_555
H19 C21 1_555 1_555
H20 C21 1_555 1_555
H21 N2 1_555 1_555
C2 C3 1_555 1_555
C9 C10 1_555 1_555
C19 C20 1_555 1_555

#END
