
#######################################################################
#
#                 Cambridge Crystallographic Data Centre
#                                CCDC 
#
#######################################################################
#
# If this CIF has been generated from an entry in the Cambridge 
# Structural Database, then it will include bibliographic, chemical, 
# crystal, experimental, refinement or atomic coordinate data resulting 
# from the CCDC's data processing and validation procedures.
#
#######################################################################

data_YISREZ
_chemical_formula_moiety         'C19 H24 N2 O6'
_chemical_name_systematic        
"Isopropyl 5'-isopropoxy-4,6,7-trimethyl-2-oxo-3'H-spiro[1-benzofuran-3,2'-[1,3,4]oxadiazole]-3'-carboxylate"
_symmetry_cell_setting           monoclinic
_symmetry_space_group_name_H-M   'P 21/n'
_symmetry_Int_Tables_number      14
_space_group_name_Hall           '-P 2yn'
loop_
_symmetry_equiv_pos_site_id
_symmetry_equiv_pos_as_xyz
1 x,y,z
2 1/2-x,1/2+y,1/2-z
3 -x,-y,-z
4 1/2+x,1/2-y,1/2+z
_cell_length_a                   10.012(3)
_cell_length_b                   14.186(4)
_cell_length_c                   13.351(4)
_cell_angle_alpha                90
_cell_angle_beta                 95.364(5)
_cell_angle_gamma                90
_cell_volume                     1887.94
_exptl_crystal_colour            colorless
_exptl_crystal_description       Prism
_cell_formula_units_Z            4
loop_
_atom_site_label
_atom_site_type_symbol
_atom_site_fract_x
_atom_site_fract_y
_atom_site_fract_z
O1 O 0.74060(7) 0.12939(5) 0.58006(5)
O2 O 0.78327(8) 0.28181(6) 0.61839(6)
O3 O 0.59481(7) 0.30181(5) 0.43405(5)
O4 O 0.53976(7) 0.44020(5) 0.36268(6)
O5 O 0.98400(7) 0.21352(6) 0.47136(6)
O6 O 1.01027(7) 0.35710(5) 0.39897(6)
N1 N 0.75292(9) 0.37689(6) 0.35341(7)
N2 N 0.80748(8) 0.29008(6) 0.39168(7)
C1 C 0.69463(10) 0.08098(8) 0.49083(8)
C2 C 0.67503(10) -0.01492(8) 0.48804(8)
C3 C 0.62698(11) -0.05095(8) 0.39307(9)
C4 C 0.60110(11) 0.00887(8) 0.31037(8)
H1 H 0.5667 -0.0177 0.2479
C5 C 0.62348(10) 0.10579(8) 0.31536(8)
C6 C 0.67246(10) 0.14082(8) 0.40910(8)
C7 C 0.70747(10) 0.23792(8) 0.44383(8)
C8 C 0.75119(10) 0.22273(8) 0.55752(8)
C9 C 0.70567(12) -0.07694(8) 0.57894(9)
H2 H 0.7886 -0.1121 0.5722
H3 H 0.6316 -0.1213 0.5841
H4 H 0.7168 -0.0378 0.6396
C10 C 0.60652(12) -0.15537(8) 0.37977(9)
H5 H 0.5672 -0.1683 0.3112
H6 H 0.5460 -0.1782 0.4280
H7 H 0.6931 -0.1877 0.3914
C11 C 0.59508(12) 0.16887(9) 0.22542(9)
H8 H 0.5777 0.1303 0.1647
H9 H 0.6727 0.2096 0.2185
H10 H 0.5163 0.2079 0.2343
C12 C 0.63432(10) 0.37672(8) 0.38014(8)
C13 C 0.57045(11) 0.51578(8) 0.29132(9)
H11 H 0.6672 0.5336 0.3035
C14 C 0.48442(13) 0.59796(9) 0.31614(10)
H12 H 0.3897 0.5798 0.3062
H13 H 0.5006 0.6511 0.2720
H14 H 0.5070 0.6165 0.3864
C15 C 0.54213(12) 0.47931(9) 0.18550(9)
H15 H 0.6009 0.4255 0.1754
H16 H 0.5589 0.5294 0.1377
H17 H 0.4482 0.4593 0.1746
C16 C 0.94103(11) 0.28267(8) 0.42543(8)
C17 C 1.15649(10) 0.35546(8) 0.42396(8)
H18 H 1.1797 0.3121 0.4820
C18 C 1.19514(13) 0.45483(9) 0.45316(10)
H19 H 1.1678 0.4974 0.3972
H20 H 1.2926 0.4585 0.4691
H21 H 1.1502 0.4733 0.5123
C19 C 1.22040(12) 0.32108(9) 0.33320(9)
H22 H 1.1853 0.2585 0.3142
H23 H 1.3178 0.3174 0.3490
H24 H 1.1998 0.3650 0.2772
loop_
_geom_bond_atom_site_label_1
_geom_bond_atom_site_label_2
_geom_bond_site_symmetry_1
_geom_bond_site_symmetry_2
O1 C1 1_555 1_555
O2 C8 1_555 1_555
O3 C7 1_555 1_555
O4 C12 1_555 1_555
O5 C16 1_555 1_555
O6 C16 1_555 1_555
N1 N2 1_555 1_555
N2 C7 1_555 1_555
C1 C2 1_555 1_555
C2 C3 1_555 1_555
C3 C4 1_555 1_555
C4 H1 1_555 1_555
C5 C4 1_555 1_555
C6 C1 1_555 1_555
C7 C6 1_555 1_555
C8 O1 1_555 1_555
C9 C2 1_555 1_555
H2 C9 1_555 1_555
H3 C9 1_555 1_555
H4 C9 1_555 1_555
C10 C3 1_555 1_555
H5 C10 1_555 1_555
H6 C10 1_555 1_555
H7 C10 1_555 1_555
C11 C5 1_555 1_555
H8 C11 1_555 1_555
H9 C11 1_555 1_555
H10 C11 1_555 1_555
C12 O3 1_555 1_555
C13 O4 1_555 1_555
H11 C13 1_555 1_555
C14 C13 1_555 1_555
H12 C14 1_555 1_555
H13 C14 1_555 1_555
H14 C14 1_555 1_555
C15 C13 1_555 1_555
H15 C15 1_555 1_555
H16 C15 1_555 1_555
H17 C15 1_555 1_555
C16 N2 1_555 1_555
C17 O6 1_555 1_555
H18 C17 1_555 1_555
C18 C17 1_555 1_555
H19 C18 1_555 1_555
H20 C18 1_555 1_555
H21 C18 1_555 1_555
C19 C17 1_555 1_555
H22 C19 1_555 1_555
H23 C19 1_555 1_555
H24 C19 1_555 1_555
N1 C12 1_555 1_555
C5 C6 1_555 1_555
C7 C8 1_555 1_555

#END
