
#######################################################################
#
#                 Cambridge Crystallographic Data Centre
#                                CCDC 
#
#######################################################################
#
# If this CIF has been generated from an entry in the Cambridge 
# Structural Database, then it will include bibliographic, chemical, 
# crystal, experimental, refinement or atomic coordinate data resulting 
# from the CCDC's data processing and validation procedures.
#
#######################################################################

data_YISWOP
_chemical_formula_moiety         'C13 H9 Cl1 N2 O1'
_chemical_name_systematic        
3-(4-chlorophenyl)pyrrolo[1,2-a]pyrazin-1(2H)-one
_symmetry_cell_setting           monoclinic
_symmetry_space_group_name_H-M   'P 21/c'
_symmetry_Int_Tables_number      14
_space_group_name_Hall           '-P 2ybc'
loop_
_symmetry_equiv_pos_site_id
_symmetry_equiv_pos_as_xyz
1 x,y,z
2 -x,1/2+y,1/2-z
3 -x,-y,-z
4 x,1/2-y,1/2+z
_cell_length_a                   13.7397(13)
_cell_length_b                   7.0671(5)
_cell_length_c                   12.9494(12)
_cell_angle_alpha                90
_cell_angle_beta                 116.609(12)
_cell_angle_gamma                90
_cell_volume                     1124.21
_cell_formula_units_Z            4
loop_
_atom_site_label
_atom_site_type_symbol
_atom_site_fract_x
_atom_site_fract_y
_atom_site_fract_z
Cl1 Cl 0.07658(7) 0.13318(13) 0.23169(10)
N1 N 0.53378(13) 0.0917(2) 0.15432(13)
C1 C 0.52327(15) 0.1232(2) 0.25542(15)
O1 O 0.63374(11) 0.0644(2) 0.05491(11)
N2 N 0.71406(14) 0.1517(2) 0.35468(13)
C2 C 0.63036(15) 0.0913(3) 0.14804(15)
C3 C 0.41272(16) 0.1249(3) 0.24781(16)
C4 C 0.32004(18) 0.1434(3) 0.14357(19)
H1 H 0.3271 0.1546 0.0757
C5 C 0.61318(17) 0.1552(3) 0.35415(16)
H2 H 0.6078 0.1797 0.4219
C6 C 0.72593(16) 0.1235(3) 0.25489(17)
C7 C 0.3973(2) 0.1100(3) 0.3469(2)
H3 H 0.4577 0.0977 0.4184
C8 C 0.2947(2) 0.1129(3) 0.3414(2)
H4 H 0.2865 0.1028 0.4087
C9 C 0.2049(2) 0.1306(3) 0.2367(3)
C10 C 0.83495(17) 0.1279(3) 0.2829(2)
H5 H 0.8661 0.1130 0.2328
C11 C 0.2171(2) 0.1456(3) 0.1384(2)
H6 H 0.1561 0.1574 0.0674
C12 C 0.8897(2) 0.1597(4) 0.4025(2)
H7 H 0.9648 0.1693 0.4458
C13 C 0.8154(2) 0.1743(3) 0.4453(2)
H8 H 0.8309 0.1956 0.5220
H9 H 0.4776(19) 0.057(3) 0.091(2)
loop_
_geom_bond_atom_site_label_1
_geom_bond_atom_site_label_2
_geom_bond_site_symmetry_1
_geom_bond_site_symmetry_2
Cl1 C9 1_555 1_555
N1 C1 1_555 1_555
C1 C3 1_555 1_555
O1 C2 1_555 1_555
N2 C5 1_555 1_555
C2 N1 1_555 1_555
C3 C4 1_555 1_555
C4 H1 1_555 1_555
C5 C1 1_555 1_555
H2 C5 1_555 1_555
C6 N2 1_555 1_555
C7 C3 1_555 1_555
H3 C7 1_555 1_555
C8 C7 1_555 1_555
H4 C8 1_555 1_555
C9 C8 1_555 1_555
C10 C6 1_555 1_555
H5 C10 1_555 1_555
C11 C4 1_555 1_555
H6 C11 1_555 1_555
C12 C10 1_555 1_555
H7 C12 1_555 1_555
C13 N2 1_555 1_555
H8 C13 1_555 1_555
H9 N1 1_555 1_555
C2 C6 1_555 1_555
C9 C11 1_555 1_555
C12 C13 1_555 1_555

#END
