
#######################################################################
#
#                 Cambridge Crystallographic Data Centre
#                                CCDC 
#
#######################################################################
#
# If this CIF has been generated from an entry in the Cambridge 
# Structural Database, then it will include bibliographic, chemical, 
# crystal, experimental, refinement or atomic coordinate data resulting 
# from the CCDC's data processing and validation procedures.
#
#######################################################################

data_YITDUB
_chemical_formula_moiety         'C20 H20 O8'
_chemical_name_systematic        bis(5-Carboxymethyl-1,3-phenylene)-14-crown-4
_symmetry_cell_setting           triclinic
_symmetry_space_group_name_H-M   'P -1'
_symmetry_Int_Tables_number      2
_space_group_name_Hall           '-P 1'
loop_
_symmetry_equiv_pos_site_id
_symmetry_equiv_pos_as_xyz
1 x,y,z
2 -x,-y,-z
_cell_length_a                   11.3511(9)
_cell_length_b                   12.7142(10)
_cell_length_c                   13.9104(12)
_cell_angle_alpha                71.0120(10)
_cell_angle_beta                 83.1210(10)
_cell_angle_gamma                66.0210(10)
_cell_volume                     1734.3
_exptl_crystal_colour            colorless
_exptl_crystal_description       block
_chemical_melting_point          251.0-252.0deg.C
_cell_formula_units_Z            4
loop_
_atom_site_label
_atom_site_type_symbol
_atom_site_fract_x
_atom_site_fract_y
_atom_site_fract_z
O1 O 0.66455(13) 0.10884(11) 0.06500(10)
O3 O 0.77335(13) -0.20822(11) 0.07315(10)
O5 O 0.83541(13) -0.34151(11) 0.43978(10)
O7 O 0.73122(13) -0.02463(11) 0.43121(10)
O9 O 1.14718(13) -0.68213(11) 0.31856(10)
O11 O 1.10055(12) -0.61688(11) 0.15173(10)
O13 O 0.34166(13) 0.44226(11) 0.19086(10)
O15 O 0.39541(12) 0.37717(11) 0.35653(10)
C1 C 0.75254(18) -0.00506(17) 0.05299(15)
H1 H 0.8242 -0.0425 0.1031
H2 H 0.7894 0.0080 -0.0160
C3 C 0.68283(19) -0.08882(16) 0.06852(15)
H5 H 0.6338 -0.0910 0.1325
H6 H 0.6209 -0.0580 0.0117
C5 C 0.74851(19) -0.22684(16) 0.45048(14)
H9 H 0.7100 -0.2387 0.5189
H10 H 0.6779 -0.1887 0.3993
C7 C 0.82030(18) -0.14501(16) 0.43593(14)
H13 H 0.8819 -0.1770 0.4932
H14 H 0.8699 -0.1434 0.3723
C9 C 0.79836(18) -0.26637(17) 0.25675(14)
H17 H 0.7322 -0.1922 0.2605
C11 C 0.83135(18) -0.28757(17) 0.16367(14)
C13 C 0.92702(18) -0.39629(16) 0.15722(14)
H19 H 0.9499 -0.4107 0.0933
C15 C 0.98865(18) -0.48363(16) 0.24639(14)
C17 C 0.95843(18) -0.46262(17) 0.33969(14)
H21 H 1.0030 -0.5221 0.3996
C19 C 0.86249(18) -0.35399(17) 0.34474(14)
C21 C 1.08747(18) -0.60395(17) 0.24436(14)
C23 C 1.19507(19) -0.73107(17) 0.14385(15)
H23 H 1.1980 -0.7319 0.0734
H24 H 1.1714 -0.7968 0.1885
H25 H 1.2800 -0.7421 0.1643
C25 C 0.70464(18) 0.03319(17) 0.24783(14)
H29 H 0.7739 -0.0389 0.2433
C27 C 0.63688(18) 0.11963(17) 0.16075(14)
C29 C 0.53754(18) 0.22618(16) 0.16635(15)
H31 H 0.4912 0.2849 0.1068
C31 C 0.50688(18) 0.24569(16) 0.26026(15)
C33 C 0.57108(18) 0.15975(17) 0.34840(14)
H33 H 0.5478 0.1734 0.4125
C35 C 0.67007(18) 0.05333(16) 0.34116(14)
C37 C 0.40519(18) 0.36515(16) 0.26354(14)
C39 C 0.30379(19) 0.49191(17) 0.36593(15)
H35 H 0.3038 0.4919 0.4364
H36 H 0.2174 0.5047 0.3471
H37 H 0.3280 0.5570 0.3207
O2 O 0.57954(13) 0.56672(11) 0.07149(10)
O4 O 0.88212(12) 0.31234(11) 0.05872(10)
O6 O 0.92998(12) 0.17727(11) 0.42681(10)
O8 O 0.63142(12) 0.43498(11) 0.43931(10)
O10 O 1.15233(14) -0.19308(12) 0.31514(10)
O12 O 1.08624(13) -0.12676(11) 0.15336(10)
O14 O 0.36285(14) 0.93937(12) 0.17984(10)
O16 O 0.43261(13) 0.87565(11) 0.34058(10)
C2 C 0.65980(18) 0.44998(17) 0.06225(15)
H3 H 0.6328 0.4404 0.0016
H4 H 0.6500 0.3866 0.1228
C4 C 0.79929(18) 0.43499(16) 0.05257(14)
H7 H 0.8116 0.4899 -0.0133
H8 H 0.8224 0.4570 0.1076
C6 C 0.85169(18) 0.29494(16) 0.43611(14)
H11 H 0.8626 0.3578 0.3756
H12 H 0.8795 0.3037 0.4968
C8 C 0.71130(18) 0.31198(16) 0.44564(14)
H15 H 0.6871 0.2907 0.3906
H16 H 0.6980 0.2577 0.5116
C10 C 0.89774(17) 0.25336(17) 0.24299(14)
H18 H 0.8547 0.3346 0.2438
C12 C 0.91676(18) 0.22684(16) 0.15187(14)
C14 C 0.97903(18) 0.10837(16) 0.14973(14)
H20 H 0.9904 0.0901 0.0874
C16 C 1.02439(18) 0.01686(16) 0.24102(14)
C18 C 1.00652(18) 0.04142(17) 0.33285(14)
H22 H 1.0379 -0.0221 0.3945
C20 C 0.94239(18) 0.15963(17) 0.33357(14)
C22 C 1.09473(18) -0.11155(17) 0.24234(14)
C24 C 1.1538(2) -0.24882(17) 0.14834(16)
H26 H 1.1422 -0.2509 0.0804
H27 H 1.1192 -0.3027 0.1992
H28 H 1.2459 -0.2756 0.1620
C26 C 0.61220(17) 0.49226(17) 0.25525(14)
H30 H 0.6530 0.4106 0.2552
C28 C 0.56853(18) 0.58525(17) 0.16426(14)
C30 C 0.50641(18) 0.70402(17) 0.16425(14)
H32 H 0.4754 0.7672 0.1024
C32 C 0.48994(17) 0.72991(17) 0.25574(14)
C34 C 0.53563(17) 0.63855(16) 0.34758(14)
H34 H 0.5259 0.6571 0.4097
C36 C 0.59568(18) 0.51973(17) 0.34564(14)
C38 C 0.42139(18) 0.85838(17) 0.25310(15)
C40 C 0.3697(2) 0.99889(17) 0.34243(16)
H38 H 0.3828 1.0027 0.4094
H39 H 0.2771 1.0280 0.3291
H40 H 0.4063 1.0497 0.2901
loop_
_geom_bond_atom_site_label_1
_geom_bond_atom_site_label_2
_geom_bond_site_symmetry_1
_geom_bond_site_symmetry_2
O1 C1 1_555 1_555
O2 C2 1_555 1_555
O3 C3 1_555 1_555
O4 C4 1_555 1_555
O5 C5 1_555 1_555
O6 C6 1_555 1_555
O7 C7 1_555 1_555
O8 C8 1_555 1_555
O9 C21 1_555 1_555
O10 C22 1_555 1_555
O11 C21 1_555 1_555
O12 C22 1_555 1_555
O13 C37 1_555 1_555
O14 C38 1_555 1_555
O15 C37 1_555 1_555
O16 C38 1_555 1_555
C1 H1 1_555 1_555
H2 C1 1_555 1_555
C2 H3 1_555 1_555
H4 C2 1_555 1_555
C3 C1 1_555 1_555
H5 C3 1_555 1_555
H6 C3 1_555 1_555
C4 C2 1_555 1_555
H7 C4 1_555 1_555
H8 C4 1_555 1_555
C5 H9 1_555 1_555
H10 C5 1_555 1_555
C6 H11 1_555 1_555
H12 C6 1_555 1_555
C7 C5 1_555 1_555
H13 C7 1_555 1_555
H14 C7 1_555 1_555
C8 C6 1_555 1_555
H15 C8 1_555 1_555
H16 C8 1_555 1_555
C9 H17 1_555 1_555
C10 H18 1_555 1_555
C11 O3 1_555 1_555
C12 O4 1_555 1_555
C13 C11 1_555 1_555
H19 C13 1_555 1_555
C14 C12 1_555 1_555
H20 C14 1_555 1_555
C15 C13 1_555 1_555
C16 C14 1_555 1_555
C17 C15 1_555 1_555
H21 C17 1_555 1_555
C18 C16 1_555 1_555
H22 C18 1_555 1_555
C19 O5 1_555 1_555
C20 O6 1_555 1_555
C21 C15 1_555 1_555
C22 C16 1_555 1_555
C23 O11 1_555 1_555
H23 C23 1_555 1_555
H24 C23 1_555 1_555
H25 C23 1_555 1_555
C24 O12 1_555 1_555
H26 C24 1_555 1_555
H27 C24 1_555 1_555
H28 C24 1_555 1_555
C25 H29 1_555 1_555
C26 H30 1_555 1_555
C27 O1 1_555 1_555
C28 O2 1_555 1_555
C29 C27 1_555 1_555
H31 C29 1_555 1_555
C30 C28 1_555 1_555
H32 C30 1_555 1_555
C31 C29 1_555 1_555
C32 C30 1_555 1_555
C33 C31 1_555 1_555
H33 C33 1_555 1_555
C34 C32 1_555 1_555
H34 C34 1_555 1_555
C35 O7 1_555 1_555
C36 O8 1_555 1_555
C37 C31 1_555 1_555
C38 C32 1_555 1_555
C39 O15 1_555 1_555
H35 C39 1_555 1_555
H36 C39 1_555 1_555
H37 C39 1_555 1_555
C40 O16 1_555 1_555
H38 C40 1_555 1_555
H39 C40 1_555 1_555
H40 C40 1_555 1_555
C9 C11 1_555 1_555
C9 C19 1_555 1_555
C10 C12 1_555 1_555
C10 C20 1_555 1_555
C17 C19 1_555 1_555
C18 C20 1_555 1_555
C25 C27 1_555 1_555
C25 C35 1_555 1_555
C26 C28 1_555 1_555
C26 C36 1_555 1_555
C33 C35 1_555 1_555
C34 C36 1_555 1_555

#END
