
#######################################################################
#
#                 Cambridge Crystallographic Data Centre
#                                CCDC 
#
#######################################################################
#
# If this CIF has been generated from an entry in the Cambridge 
# Structural Database, then it will include bibliographic, chemical, 
# crystal, experimental, refinement or atomic coordinate data resulting 
# from the CCDC's data processing and validation procedures.
#
#######################################################################

data_YITFUE
_chemical_formula_moiety         'C4 H12 B10 F4'
_chemical_name_systematic        
1,2-Dimethyl-8,9,10,12-tetrafluoro-1,2-dicarba-closo-dodecaborane(6)
_symmetry_cell_setting           monoclinic
_symmetry_space_group_name_H-M   'P 21/c'
_symmetry_Int_Tables_number      14
_space_group_name_Hall           '-P 2ybc'
loop_
_symmetry_equiv_pos_site_id
_symmetry_equiv_pos_as_xyz
1 x,y,z
2 -x,1/2+y,1/2-z
3 -x,-y,-z
4 x,1/2-y,1/2+z
_cell_length_a                   11.735(3)
_cell_length_b                   7.9285(18)
_cell_length_c                   12.782(3)
_cell_angle_alpha                90
_cell_angle_beta                 92.945(4)
_cell_angle_gamma                90
_cell_volume                     1187.68
_exptl_crystal_colour            colorless
_exptl_crystal_description       block
_cell_formula_units_Z            4
loop_
_atom_site_label
_atom_site_type_symbol
_atom_site_fract_x
_atom_site_fract_y
_atom_site_fract_z
F1 F 0.6442(3) 0.2137(4) 0.5175(2)
F2 F 0.8772(3) 0.1567(4) 0.6604(3)
F3 F 0.8673(3) 0.3978(4) 0.8640(2)
F4 F 0.6374(3) 0.2116(4) 0.7683(2)
C1 C 0.8134(4) 0.6409(5) 0.5919(3)
C2 C 0.6888(4) 0.6695(5) 0.6486(3)
C3 C 0.8661(5) 0.7860(6) 0.5342(4)
H1 H 0.8615 0.7634 0.4603
H2 H 0.9446 0.7983 0.5579
H3 H 0.8255 0.8881 0.5479
C4 C 0.6317(5) 0.8406(7) 0.6404(6)
H4 H 0.5640 0.8327 0.5952
H5 H 0.6832 0.9206 0.6121
H6 H 0.6116 0.8768 0.7087
B1 B 0.6924(4) 0.5528(6) 0.5361(4)
H7 H 0.6533 0.5935 0.4602
B2 B 0.8217(5) 0.4403(7) 0.5448(4)
H8 H 0.8666 0.4047 0.4746
B3 B 0.8972(4) 0.5033(7) 0.6615(4)
H9 H 0.9910 0.5094 0.6672
B4 B 0.8122(4) 0.6527(6) 0.7247(4)
H10 H 0.8499 0.7578 0.7708
B5 B 0.6101(4) 0.4908(7) 0.6414(4)
H11 H 0.5163 0.4889 0.6344
B6 B 0.6929(5) 0.3399(6) 0.5763(4)
B7 B 0.8219(5) 0.3075(6) 0.6563(4)
B8 B 0.8174(5) 0.4409(7) 0.7698(4)
B9 B 0.6854(4) 0.5524(6) 0.7598(4)
H12 H 0.6410 0.5900 0.8298
B10 B 0.6893(5) 0.3386(6) 0.7170(4)
loop_
_geom_bond_atom_site_label_1
_geom_bond_atom_site_label_2
_geom_bond_site_symmetry_1
_geom_bond_site_symmetry_2
F1 B6 1_555 1_555
F2 B7 1_555 1_555
F3 B8 1_555 1_555
F4 B10 1_555 1_555
C1 C2 1_555 1_555
C2 C4 1_555 1_555
C3 C1 1_555 1_555
H1 C3 1_555 1_555
H2 C3 1_555 1_555
H3 C3 1_555 1_555
C4 H4 1_555 1_555
H5 C4 1_555 1_555
H6 C4 1_555 1_555
B1 C1 1_555 1_555
H7 B1 1_555 1_555
B2 C1 1_555 1_555
H8 B2 1_555 1_555
B3 C1 1_555 1_555
H9 B3 1_555 1_555
B4 C1 1_555 1_555
H10 B4 1_555 1_555
B5 C2 1_555 1_555
H11 B5 1_555 1_555
B6 B1 1_555 1_555
B7 B2 1_555 1_555
B8 B3 1_555 1_555
B9 C2 1_555 1_555
H12 B9 1_555 1_555
B10 B5 1_555 1_555
C2 B1 1_555 1_555
C2 B4 1_555 1_555
B1 B2 1_555 1_555
B1 B5 1_555 1_555
B2 B3 1_555 1_555
B2 B6 1_555 1_555
B3 B4 1_555 1_555
B3 B7 1_555 1_555
B4 B8 1_555 1_555
B4 B9 1_555 1_555
B5 B6 1_555 1_555
B5 B9 1_555 1_555
B6 B7 1_555 1_555
B6 B10 1_555 1_555
B7 B8 1_555 1_555
B7 B10 1_555 1_555
B8 B9 1_555 1_555
B8 B10 1_555 1_555
B9 B10 1_555 1_555

#END
