
#######################################################################
#
#                 Cambridge Crystallographic Data Centre
#                                CCDC 
#
#######################################################################
#
# If this CIF has been generated from an entry in the Cambridge 
# Structural Database, then it will include bibliographic, chemical, 
# crystal, experimental, refinement or atomic coordinate data resulting 
# from the CCDC's data processing and validation procedures.
#
#######################################################################

data_YITGEP
_chemical_formula_moiety         'C10 H14 B10 F4'
_chemical_name_systematic        
1,2-((1,2-Phenylene)dimethyl)-8,9,10,12-tetrafluoro-1,2-dicarba-closo-dodecaborane(6)
_symmetry_cell_setting           orthorhombic
_symmetry_space_group_name_H-M   'P c a 21'
_symmetry_Int_Tables_number      29
_space_group_name_Hall           'P 2c -2ac'
loop_
_symmetry_equiv_pos_site_id
_symmetry_equiv_pos_as_xyz
1 x,y,z
2 -x,-y,1/2+z
3 1/2+x,-y,z
4 1/2-x,y,1/2+z
_cell_length_a                   21.924(4)
_cell_length_b                   7.5397(13)
_cell_length_c                   9.2002(13)
_cell_angle_alpha                90
_cell_angle_beta                 90
_cell_angle_gamma                90
_cell_volume                     1520.8
_exptl_crystal_colour            colorless
_exptl_crystal_description       block
_cell_formula_units_Z            4
loop_
_atom_site_label
_atom_site_type_symbol
_atom_site_fract_x
_atom_site_fract_y
_atom_site_fract_z
C1 C 0.39346(14) 0.2510(5) 0.8792(4)
C2 C 0.33785(15) 0.1577(5) 0.9769(4)
C3 C 0.39723(19) 0.2047(5) 0.7202(4)
H1 H 0.4399 0.1988 0.6926
H2 H 0.3786 0.2998 0.6646
C4 C 0.36678(16) 0.0313(5) 0.6781(4)
C5 C 0.38668(19) -0.0512(6) 0.5505(4)
H3 H 0.4174 0.0013 0.4955
C6 C 0.36149(19) -0.2090(6) 0.5052(5)
H4 H 0.3753 -0.2625 0.4203
C7 C 0.31591(19) -0.2877(5) 0.5854(5)
H5 H 0.2992 -0.3951 0.5557
C8 C 0.29512(18) -0.2053(5) 0.7107(4)
H6 H 0.2637 -0.2572 0.7636
C9 C 0.32030(16) -0.0473(5) 0.7588(4)
C10 C 0.29521(16) 0.0329(5) 0.8958(4)
H7 H 0.2838 -0.0626 0.9610
H8 H 0.2583 0.0975 0.8716
B1 B 0.41193(18) 0.0857(5) 1.0028(5)
H9 H 0.4292 -0.0462 0.9726
B2 B 0.45664(19) 0.2797(6) 0.9844(5)
H10 H 0.5037 0.2725 0.9432
B3 B 0.40849(18) 0.4610(6) 0.9392(5)
H11 H 0.4243 0.5700 0.8692
B4 B 0.33246(18) 0.3796(5) 0.9317(5)
H12 H 0.2986 0.4353 0.8561
B5 B 0.36060(19) 0.1186(6) 1.1500(5)
H13 H 0.3448 0.0065 1.2167
B6 B 0.43674(19) 0.1994(6) 1.1604(5)
B7 B 0.4346(2) 0.4351(6) 1.1219(5)
B8 B 0.3570(2) 0.4950(6) 1.0875(5)
B9 B 0.31169(18) 0.2983(5) 1.1056(5)
H14 H 0.2641 0.3021 1.1433
B10 B 0.3739(2) 0.3334(6) 1.2272(5)
F1 F 0.47851(12) 0.1256(4) 1.2536(3)
F2 F 0.47466(12) 0.5502(4) 1.1834(3)
F3 F 0.33545(12) 0.6585(3) 1.1231(3)
F4 F 0.36554(13) 0.3665(4) 1.3713(3)
loop_
_geom_bond_atom_site_label_1
_geom_bond_atom_site_label_2
_geom_bond_site_symmetry_1
_geom_bond_site_symmetry_2
C1 C2 1_555 1_555
C2 C10 1_555 1_555
C3 C1 1_555 1_555
H1 C3 1_555 1_555
H2 C3 1_555 1_555
C4 C3 1_555 1_555
C5 C4 1_555 1_555
H3 C5 1_555 1_555
C6 C5 1_555 1_555
H4 C6 1_555 1_555
C7 C6 1_555 1_555
H5 C7 1_555 1_555
C8 C7 1_555 1_555
H6 C8 1_555 1_555
C9 C4 1_555 1_555
C10 C9 1_555 1_555
H7 C10 1_555 1_555
H8 C10 1_555 1_555
B1 C1 1_555 1_555
H9 B1 1_555 1_555
B2 C1 1_555 1_555
H10 B2 1_555 1_555
B3 C1 1_555 1_555
H11 B3 1_555 1_555
B4 C1 1_555 1_555
H12 B4 1_555 1_555
B5 C2 1_555 1_555
H13 B5 1_555 1_555
B6 B1 1_555 1_555
B7 B2 1_555 1_555
B8 B3 1_555 1_555
B9 C2 1_555 1_555
H14 B9 1_555 1_555
B10 B5 1_555 1_555
F1 B6 1_555 1_555
F2 B7 1_555 1_555
F3 B8 1_555 1_555
F4 B10 1_555 1_555
C2 B1 1_555 1_555
C2 B4 1_555 1_555
C8 C9 1_555 1_555
B1 B2 1_555 1_555
B1 B5 1_555 1_555
B2 B3 1_555 1_555
B2 B6 1_555 1_555
B3 B4 1_555 1_555
B3 B7 1_555 1_555
B4 B8 1_555 1_555
B4 B9 1_555 1_555
B5 B6 1_555 1_555
B5 B9 1_555 1_555
B6 B7 1_555 1_555
B6 B10 1_555 1_555
B7 B8 1_555 1_555
B7 B10 1_555 1_555
B8 B9 1_555 1_555
B8 B10 1_555 1_555
B9 B10 1_555 1_555

#END
