
#######################################################################
#
#                 Cambridge Crystallographic Data Centre
#                                CCDC 
#
#######################################################################
#
# If this CIF has been generated from an entry in the Cambridge 
# Structural Database, then it will include bibliographic, chemical, 
# crystal, experimental, refinement or atomic coordinate data resulting 
# from the CCDC's data processing and validation procedures.
#
#######################################################################

data_YITHUF
_chemical_formula_moiety         'C25 H20 O2'
_chemical_name_systematic        
5-exo-(2-Methoxyphenyl)-6-exo-(2-phenylethynyl)-7-oxabenzonorbornene
_symmetry_cell_setting           monoclinic
_symmetry_space_group_name_H-M   'C 2/c'
_symmetry_Int_Tables_number      15
_space_group_name_Hall           '-C 2yn'
loop_
_symmetry_equiv_pos_site_id
_symmetry_equiv_pos_as_xyz
1 x,y,z
2 1/2+x,1/2+y,z
3 -x,y,1/2-z
4 1/2-x,1/2+y,1/2-z
5 -x,-y,-z
6 1/2-x,1/2-y,-z
7 x,-y,1/2+z
8 1/2+x,1/2-y,1/2+z
_cell_length_a                   16.122(3)
_cell_length_b                   11.678(2)
_cell_length_c                   19.930(3)
_cell_angle_alpha                90
_cell_angle_beta                 93.644(2)
_cell_angle_gamma                90
_cell_volume                     3744.69
_exptl_crystal_colour            colorless
_exptl_crystal_description       columnar
_chemical_melting_point          127-129deg.C
_cell_formula_units_Z            8
loop_
_atom_site_label
_atom_site_type_symbol
_atom_site_fract_x
_atom_site_fract_y
_atom_site_fract_z
O1 O 0.09934(6) 0.13690(7) 0.16972(4)
O2 O 0.28418(6) 0.46940(8) 0.15080(5)
C1 C 0.02863(7) 0.21211(10) 0.07716(5)
C2 C -0.03775(8) 0.23720(12) 0.03259(6)
C3 C -0.03124(9) 0.20717(15) -0.03423(7)
C4 C 0.03991(10) 0.15757(17) -0.05547(7)
C5 C 0.10735(9) 0.13516(14) -0.01078(7)
C6 C 0.10020(8) 0.16147(10) 0.05587(6)
C7 C 0.15803(8) 0.15377(11) 0.11830(6)
C8 C 0.19144(7) 0.27461(10) 0.13449(5)
C9 C 0.11058(7) 0.33361(10) 0.15958(5)
C10 C 0.04706(7) 0.23287(11) 0.15158(5)
C11 C 0.26559(7) 0.27980(10) 0.18489(5)
C12 C 0.28949(8) 0.18798(12) 0.22582(6)
C13 C 0.35707(9) 0.19589(14) 0.27238(6)
C14 C 0.40027(9) 0.29603(16) 0.27891(7)
C15 C 0.37811(9) 0.38975(13) 0.23931(7)
C16 C 0.31098(8) 0.38133(11) 0.19230(6)
C17 C 0.33499(12) 0.56870(13) 0.14918(8)
C18 C 0.12055(7) 0.37198(10) 0.22930(6)
C19 C 0.13105(8) 0.40119(10) 0.28643(6)
C20 C 0.14799(8) 0.43113(10) 0.35586(6)
C21 C 0.21625(8) 0.38222(11) 0.39178(6)
C22 C 0.23224(9) 0.40731(13) 0.45935(7)
C23 C 0.18177(10) 0.48128(13) 0.49116(7)
C24 C 0.11552(11) 0.53163(14) 0.45616(8)
C25 C 0.09815(10) 0.50777(13) 0.38838(7)
H1 H 0.0927 0.3981 0.1305
H2 H 0.2070 0.3116 0.0937
H3 H -0.0010 0.2370 0.1800
H4 H 0.1995 0.0928 0.1202
H5 H 0.2572 0.1128 0.2196
H6 H -0.0890 0.2697 0.0483
H7 H 0.2503 0.3280 0.3700
H8 H 0.1544 0.1029 -0.0235
H9 H 0.0437 0.1401 -0.1016
H10 H 0.4501 0.3020 0.3096
H11 H 0.0532 0.5403 0.3634
H12 H 0.0817 0.5820 0.4796
H13 H 0.1908 0.4960 0.5396
H14 H 0.4088 0.4627 0.2433
H15 H 0.3717 0.1253 0.2994
H16 H -0.0770 0.2231 -0.0661
H17 H 0.3869 0.5548 0.1360
H18 H 0.3062 0.6217 0.1166
H19 H 0.3442 0.6078 0.1904
H20 H 0.2823 0.3687 0.4840
loop_
_geom_bond_atom_site_label_1
_geom_bond_atom_site_label_2
_geom_bond_site_symmetry_1
_geom_bond_site_symmetry_2
O1 C7 1_555 1_555
O2 C16 1_555 1_555
C1 C2 1_555 1_555
C2 C3 1_555 1_555
C3 C4 1_555 1_555
C4 C5 1_555 1_555
C5 C6 1_555 1_555
C6 C1 1_555 1_555
C7 C6 1_555 1_555
C8 C7 1_555 1_555
C9 C8 1_555 1_555
C10 O1 1_555 1_555
C11 C8 1_555 1_555
C12 C11 1_555 1_555
C13 C12 1_555 1_555
C14 C13 1_555 1_555
C15 C14 1_555 1_555
C16 C11 1_555 1_555
C17 O2 1_555 1_555
C18 C9 1_555 1_555
C19 C18 1_555 1_555
C20 C19 1_555 1_555
C21 C20 1_555 1_555
C22 C21 1_555 1_555
C23 C22 1_555 1_555
C24 C23 1_555 1_555
C25 C20 1_555 1_555
H1 C9 1_555 1_555
H2 C8 1_555 1_555
H3 C10 1_555 1_555
H4 C7 1_555 1_555
H5 C12 1_555 1_555
H6 C2 1_555 1_555
H7 C21 1_555 1_555
H8 C5 1_555 1_555
H9 C4 1_555 1_555
H10 C14 1_555 1_555
H11 C25 1_555 1_555
H12 C24 1_555 1_555
H13 C23 1_555 1_555
H14 C15 1_555 1_555
H15 C13 1_555 1_555
H16 C3 1_555 1_555
H17 C17 1_555 1_555
H18 C17 1_555 1_555
H19 C17 1_555 1_555
H20 C22 1_555 1_555
C1 C10 1_555 1_555
C9 C10 1_555 1_555
C15 C16 1_555 1_555
C24 C25 1_555 1_555

#END
