
#######################################################################
#
#                 Cambridge Crystallographic Data Centre
#                                CCDC 
#
#######################################################################
#
# If this CIF has been generated from an entry in the Cambridge 
# Structural Database, then it will include bibliographic, chemical, 
# crystal, experimental, refinement or atomic coordinate data resulting 
# from the CCDC's data processing and validation procedures.
#
#######################################################################

data_YITHAM
_chemical_formula_moiety         'C6 H18 B10 F2'
_chemical_name_systematic        
8,10-Difluoro-1,2,9,12-tetramethyl-1,2-dicarba-closo-dodecaborate(6)
_symmetry_cell_setting           orthorhombic
_symmetry_space_group_name_H-M   'C m c 21'
_symmetry_Int_Tables_number      36
_space_group_name_Hall           'C 2n -2'
loop_
_symmetry_equiv_pos_site_id
_symmetry_equiv_pos_as_xyz
1 x,y,z
2 -x,-y,1/2+z
3 x,-y,1/2+z
4 -x,y,z
5 1/2+x,1/2+y,z
6 1/2-x,1/2-y,1/2+z
7 1/2+x,1/2-y,1/2+z
8 1/2-x,1/2+y,z
_cell_length_a                   10.3580(8)
_cell_length_b                   10.9827(8)
_cell_length_c                   12.1927(9)
_cell_angle_alpha                90
_cell_angle_beta                 90
_cell_angle_gamma                90
_cell_volume                     1387.03
_exptl_crystal_colour            colorless
_exptl_crystal_description       block
_cell_formula_units_Z            4
loop_
_atom_site_label
_atom_site_type_symbol
_atom_site_fract_x
_atom_site_fract_y
_atom_site_fract_z
F1 F 0.25141(13) 0.34910(15) 0.25412(18)
C1 C 0.0000 0.1057(3) 0.3702(3)
C2 C 0.0000 0.2121(3) 0.4698(2)
C3 C 0.0000 -0.0279(3) 0.4027(4)
C4 C 0.0000 0.1724(4) 0.5893(3)
C5 C 0.0000 0.5397(3) 0.2869(4)
H1 H 0.0000 0.5861 0.3537
H2 H -0.0757 0.5592 0.2450
C6 C 0.0000 0.3199(4) 0.0821(3)
H3 H 0.0000 0.2472 0.0384
H4 H 0.0757 0.3670 0.0658
B1 B 0.1368(2) 0.1873(2) 0.3947(2)
H5 H 0.2257 0.1477 0.4288
B2 B 0.0844(2) 0.1542(2) 0.2598(2)
H6 H 0.1396 0.0938 0.2053
B3 B 0.0847(2) 0.3355(2) 0.4292(2)
H7 H 0.1405 0.3935 0.4854
B4 B 0.1381(2) 0.3035(2) 0.2942(2)
B5 B 0.0000 0.2841(3) 0.2091(3)
B6 B 0.0000 0.3987(3) 0.3153(3)
F1C F -0.25141(13) 0.34910(15) 0.25412(18)
H2C H 0.0757 0.5592 0.2450
H4C H -0.0757 0.3670 0.0658
B1C B -0.1368(2) 0.1873(2) 0.3947(2)
H5C H -0.2257 0.1477 0.4288
B2C B -0.0844(2) 0.1542(2) 0.2598(2)
H6C H -0.1396 0.0938 0.2053
B3C B -0.0847(2) 0.3355(2) 0.4292(2)
H7C H -0.1405 0.3935 0.4854
B4C B -0.1381(2) 0.3035(2) 0.2942(2)
H8? H -0.0757 0.5592 0.2450
H9? H 0.0757 0.3670 0.0658
H10? H -0.0822 -0.0632 0.3852
H11? H 0.0155 -0.0349 0.4800
H12? H 0.0667 -0.0698 0.3632
H13? H -0.0819 0.1915 0.6219
H14? H 0.0673 0.2144 0.6280
H15? H 0.0146 0.0862 0.5935
loop_
_geom_bond_atom_site_label_1
_geom_bond_atom_site_label_2
_geom_bond_site_symmetry_1
_geom_bond_site_symmetry_2
F1 B4 1_555 1_555
C1 C2 1_555 1_555
C2 C4 1_555 1_555
C3 C1 1_555 1_555
C5 H1 1_555 1_555
H2 C5 1_555 1_555
C6 H3 1_555 1_555
H4 C6 1_555 1_555
B1 C1 1_555 1_555
H5 B1 1_555 1_555
B2 C1 1_555 1_555
H6 B2 1_555 1_555
B3 C2 1_555 1_555
H7 B3 1_555 1_555
B4 B1 1_555 1_555
B5 C6 1_555 1_555
B6 C5 1_555 1_555
F1C B4C 1_555 1_555
H2C C5 1_555 1_555
H4C C6 1_555 1_555
B1C C1 1_555 1_555
H5C B1C 1_555 1_555
B2C C1 1_555 1_555
H6C B2C 1_555 1_555
B3C C2 1_555 1_555
H7C B3C 1_555 1_555
B4C B5 1_555 1_555
C2 B1 1_555 1_555
C2 B1C 1_555 1_555
B1 B2 1_555 1_555
B1 B3 1_555 1_555
B2 B4 1_555 1_555
B2 B5 1_555 1_555
B2 B2C 1_555 1_555
B3 B4 1_555 1_555
B3 B6 1_555 1_555
B3 B3C 1_555 1_555
B4 B5 1_555 1_555
B4 B6 1_555 1_555
B5 B6 1_555 1_555
B5 B2C 1_555 1_555
B6 B3C 1_555 1_555
B6 B4C 1_555 1_555
B1C B2C 1_555 1_555
B1C B3C 1_555 1_555
B1C B4C 1_555 1_555
B2C B4C 1_555 1_555
B3C B4C 1_555 1_555

#END
