
#######################################################################
#
#                 Cambridge Crystallographic Data Centre
#                                CCDC 
#
#######################################################################
#
# If this CIF has been generated from an entry in the Cambridge 
# Structural Database, then it will include bibliographic, chemical, 
# crystal, experimental, refinement or atomic coordinate data resulting 
# from the CCDC's data processing and validation procedures.
#
#######################################################################

data_YITLUK
_chemical_formula_moiety         'C21 H21 N1 O5'
_chemical_name_systematic        
4-(7-(1,3-Dioxolan-2-yl)-3-phenyl-1,4-benzodioxin-2-yl)morpholine
_symmetry_cell_setting           monoclinic
_symmetry_space_group_name_H-M   'P 21/n'
_symmetry_Int_Tables_number      14
_space_group_name_Hall           '-P 2yn'
loop_
_symmetry_equiv_pos_site_id
_symmetry_equiv_pos_as_xyz
1 x,y,z
2 1/2-x,1/2+y,1/2-z
3 -x,-y,-z
4 1/2+x,1/2-y,1/2+z
_cell_length_a                   9.668(4)
_cell_length_b                   13.095(5)
_cell_length_c                   15.164(6)
_cell_angle_alpha                90
_cell_angle_beta                 92.429(7)
_cell_angle_gamma                90
_cell_volume                     1918.07
_cell_formula_units_Z            4
loop_
_atom_site_label
_atom_site_type_symbol
_atom_site_fract_x
_atom_site_fract_y
_atom_site_fract_z
C1 C 0.9702(6) 0.8973(2) 0.2811(2)
C2 C 0.9801(5) 0.8759(2) 0.1990(2)
C3 C 0.9948(3) 1.04583(19) 0.15749(17)
C4 C 1.0047(3) 1.1199(2) 0.09398(18)
H1 H 0.9994 1.1022 0.0345
C5 C 1.0224(3) 1.2202(2) 0.11859(19)
H2 H 1.0301 1.2701 0.0755
C6 C 1.0290(3) 1.24755(19) 0.20630(19)
C7 C 1.0210(3) 1.17255(19) 0.26988(17)
H3 H 1.0276 1.1903 0.3293
C8 C 1.0033(3) 1.07185(19) 0.24611(17)
C9 C 1.1003(3) 0.8154(3) 0.4004(3)
H4 H 1.1166 0.8743 0.4382
H5 H 1.1759 0.8104 0.3605
C10 C 1.0937(5) 0.7223(3) 0.4542(3)
H6 H 1.0768 0.6638 0.4160
H7 H 1.1817 0.7121 0.4861
C11 C 0.8605(5) 0.7422(3) 0.4692(4)
H8 H 0.7901 0.7495 0.5125
H9 H 0.8388 0.6819 0.4342
C12 C 0.8588(4) 0.8362(3) 0.4093(3)
H10 H 0.7717 0.8399 0.3754
H11 H 0.8691 0.8977 0.4446
C13 C 0.9603(4) 0.7699(2) 0.16257(18)
C14 C 1.0739(4) 0.7138(3) 0.1394(2)
H12 H 1.1619 0.7418 0.1472
C15 C 1.0592(4) 0.6173(3) 0.1053(2)
H13 H 1.1366 0.5804 0.0896
C16 C 0.9301(4) 0.5758(2) 0.09441(19)
H14 H 0.9194 0.5105 0.0711
C17 C 0.8178(4) 0.6296(2) 0.1174(2)
H15 H 0.7301 0.6008 0.1102
C18 C 0.8320(4) 0.7256(2) 0.1511(2)
H16 H 0.7538 0.7616 0.1666
C19 C 1.0437(3) 1.3578(2) 0.2326(2)
H17 H 1.065(3) 1.399(2) 0.1807(18)
C20 C 0.9612(3) 1.4745(2) 0.3267(2)
H18 H 0.9149 1.4679 0.3819
H19 H 0.9382 1.5403 0.3007
C21 C 1.1146(4) 1.4635(2) 0.3414(2)
H20 H 1.1626 1.5210 0.3163
H21 H 1.1396 1.4594 0.4039
N1 N 0.9721(3) 0.82725(16) 0.35092(14)
O1 O 0.9947(2) 0.99984(13) 0.31153(11)
O2 O 0.9766(2) 0.94563(13) 0.13110(11)
O3 O 0.9904(5) 0.7299(2) 0.51268(17)
O4 O 1.1480(2) 1.37198(14) 0.29806(15)
O5 O 0.9222(2) 1.39418(14) 0.26822(15)
loop_
_geom_bond_atom_site_label_1
_geom_bond_atom_site_label_2
_geom_bond_site_symmetry_1
_geom_bond_site_symmetry_2
C1 C2 1_555 1_555
C2 C13 1_555 1_555
C3 C4 1_555 1_555
C4 H1 1_555 1_555
C5 C4 1_555 1_555
H2 C5 1_555 1_555
C6 C5 1_555 1_555
C7 C6 1_555 1_555
H3 C7 1_555 1_555
C8 C3 1_555 1_555
C9 H4 1_555 1_555
H5 C9 1_555 1_555
C10 C9 1_555 1_555
H6 C10 1_555 1_555
H7 C10 1_555 1_555
C11 H8 1_555 1_555
H9 C11 1_555 1_555
C12 C11 1_555 1_555
H10 C12 1_555 1_555
H11 C12 1_555 1_555
C13 C14 1_555 1_555
C14 H12 1_555 1_555
C15 C14 1_555 1_555
H13 C15 1_555 1_555
C16 C15 1_555 1_555
H14 C16 1_555 1_555
C17 C16 1_555 1_555
H15 C17 1_555 1_555
C18 C13 1_555 1_555
H16 C18 1_555 1_555
C19 C6 1_555 1_555
H17 C19 1_555 1_555
C20 H18 1_555 1_555
H19 C20 1_555 1_555
C21 C20 1_555 1_555
H20 C21 1_555 1_555
H21 C21 1_555 1_555
N1 C1 1_555 1_555
O1 C1 1_555 1_555
O2 C2 1_555 1_555
O3 C10 1_555 1_555
O4 C19 1_555 1_555
O5 C19 1_555 1_555
C3 O2 1_555 1_555
C7 C8 1_555 1_555
C8 O1 1_555 1_555
C9 N1 1_555 1_555
C11 O3 1_555 1_555
C12 N1 1_555 1_555
C17 C18 1_555 1_555
C20 O5 1_555 1_555
C21 O4 1_555 1_555

#END
