
#######################################################################
#
#                 Cambridge Crystallographic Data Centre
#                                CCDC 
#
#######################################################################
#
# If this CIF has been generated from an entry in the Cambridge 
# Structural Database, then it will include bibliographic, chemical, 
# crystal, experimental, refinement or atomic coordinate data resulting 
# from the CCDC's data processing and validation procedures.
#
#######################################################################

data_YITRIF
_chemical_formula_moiety         'C26 H22 N2 O4,C2 H6 O1'
_chemical_name_systematic        
"methyl 3'-(benzenecarbonyl)-2-oxo-4'-phenyl-1,2-dihydrospiro[indole-3,2'-pyrrolidine]-5'-carboxylate ethanol solvate"
_symmetry_cell_setting           triclinic
_symmetry_space_group_name_H-M   'P -1'
_symmetry_Int_Tables_number      2
_space_group_name_Hall           '-P 1'
loop_
_symmetry_equiv_pos_site_id
_symmetry_equiv_pos_as_xyz
1 x,y,z
2 -x,-y,-z
_cell_length_a                   8.7731(6)
_cell_length_b                   12.3585(8)
_cell_length_c                   12.5316(9)
_cell_angle_alpha                96.327(5)
_cell_angle_beta                 103.909(6)
_cell_angle_gamma                106.988(6)
_cell_volume                     1237.26
_cell_formula_units_Z            2
loop_
_atom_site_label
_atom_site_type_symbol
_atom_site_fract_x
_atom_site_fract_y
_atom_site_fract_z
O1 O 0.92463(17) 0.46117(12) 0.13919(12)
O2 O 0.84896(19) 0.55570(12) 0.26699(14)
O3 O 0.19840(15) 0.30873(11) 0.06588(11)
O4 O 0.54230(17) 0.09615(12) 0.30525(11)
N1 N 0.39863(19) 0.16772(13) 0.40947(12)
H1 H 0.3830 0.1158 0.4499
N2 N 0.66200(19) 0.35014(16) 0.30455(13)
H2 H 0.669(3) 0.4152(19) 0.3336(19)
C1 C 0.0063(3) -0.05690(18) 0.15814(18)
H3 H 0.0146 -0.1304 0.1565
C2 C -0.1265(3) -0.0344(2) 0.1830(2)
H4 H -0.2077 -0.0926 0.1990
C3 C -0.1405(3) 0.0727(2) 0.1844(2)
H5 H -0.2303 0.0876 0.2022
C4 C -0.0225(3) 0.15837(19) 0.15968(18)
H6 H -0.0342 0.2307 0.1591
C5 C 0.1133(2) 0.13847(15) 0.13558(14)
C6 C 0.1286(2) 0.03003(16) 0.13549(16)
H7 H 0.2202 0.0156 0.1203
C7 C 0.2386(2) 0.23515(14) 0.11055(14)
C8 C 0.5331(2) 0.29925(14) -0.01168(14)
C9 C 0.4526(2) 0.34672(14) -0.09359(14)
H8 H 0.4046 0.4006 -0.0731
C10 C 0.4423(3) 0.31566(17) -0.20486(16)
H9 H 0.3875 0.3485 -0.2584
C11 C 0.5121(3) 0.23715(18) -0.23669(16)
H10 H 0.5065 0.2172 -0.3116
C12 C 0.5908(3) 0.18766(19) -0.15770(17)
H11 H 0.6373 0.1332 -0.1792
C13 C 0.6009(2) 0.21887(16) -0.04590(16)
H12 H 0.6545 0.1849 0.0071
C14 C 0.3904(2) 0.33034(15) 0.34187(14)
C15 C 0.3409(2) 0.26206(16) 0.41637(14)
C16 C 0.2462(3) 0.28751(19) 0.48202(16)
H13 H 0.2129 0.2405 0.5310
C17 C 0.2025(3) 0.3851(2) 0.47268(18)
H14 H 0.1373 0.4037 0.5154
C18 C 0.2534(3) 0.4556(2) 0.40128(19)
H15 H 0.2242 0.5219 0.3975
C19 C 0.3477(3) 0.42844(16) 0.33499(17)
H16 H 0.3816 0.4759 0.2865
C20 C 0.4814(2) 0.16830(16) 0.33203(15)
C21 C 0.4875(2) 0.27717(14) 0.28136(13)
C22 C 0.4187(2) 0.24289(14) 0.15021(13)
H17 H 0.4274 0.1673 0.1263
C23 C 0.5393(2) 0.33360(13) 0.10878(13)
H18 H 0.5102 0.4043 0.1160
C24 C 0.7040(2) 0.35459(14) 0.19915(13)
H19 H 0.7485 0.2924 0.1833
C25 C 0.8331(2) 0.46903(16) 0.20721(15)
C26 C 1.0511(3) 0.5676(2) 0.1387(2)
H20 H 0.9989 0.6167 0.1012
H21 H 1.1259 0.5502 0.1002
H22 H 1.1121 0.6062 0.2145
O5 O 0.70055(19) -0.00405(11) 0.46397(12)
H23 H 0.6395 0.0203 0.4198
C27 C 0.8513(3) 0.0860(2) 0.5189(2)
H24 H 0.9057 0.1129 0.4633
H25 H 0.9239 0.0557 0.5690
C28 C 0.8306(4) 0.1832(3) 0.5826(3)
H26 H 0.7806 0.2245 0.5321
H27 H 0.9373 0.2336 0.6291
H28 H 0.7603 0.1559 0.6287
loop_
_geom_bond_atom_site_label_1
_geom_bond_atom_site_label_2
_geom_bond_site_symmetry_1
_geom_bond_site_symmetry_2
O1 C25 1_555 1_555
O2 C25 1_555 1_555
O3 C7 1_555 1_555
O4 C20 1_555 1_555
N1 H1 1_555 1_555
N2 H2 1_555 1_555
C1 H3 1_555 1_555
C2 C1 1_555 1_555
H4 C2 1_555 1_555
C3 C2 1_555 1_555
H5 C3 1_555 1_555
C4 C3 1_555 1_555
H6 C4 1_555 1_555
C5 C4 1_555 1_555
C6 C1 1_555 1_555
H7 C6 1_555 1_555
C7 C5 1_555 1_555
C8 C9 1_555 1_555
C9 H8 1_555 1_555
C10 C9 1_555 1_555
H9 C10 1_555 1_555
C11 C10 1_555 1_555
H10 C11 1_555 1_555
C12 C11 1_555 1_555
H11 C12 1_555 1_555
C13 C8 1_555 1_555
H12 C13 1_555 1_555
C14 C15 1_555 1_555
C15 N1 1_555 1_555
C16 C15 1_555 1_555
H13 C16 1_555 1_555
C17 C16 1_555 1_555
H14 C17 1_555 1_555
C18 C17 1_555 1_555
H15 C18 1_555 1_555
C19 C14 1_555 1_555
H16 C19 1_555 1_555
C20 N1 1_555 1_555
C21 N2 1_555 1_555
C22 C7 1_555 1_555
H17 C22 1_555 1_555
C23 C8 1_555 1_555
H18 C23 1_555 1_555
C24 N2 1_555 1_555
H19 C24 1_555 1_555
C25 C24 1_555 1_555
C26 O1 1_555 1_555
H20 C26 1_555 1_555
H21 C26 1_555 1_555
H22 C26 1_555 1_555
O5 H23 1_555 1_555
C27 O5 1_555 1_555
H24 C27 1_555 1_555
H25 C27 1_555 1_555
C28 C27 1_555 1_555
H26 C28 1_555 1_555
H27 C28 1_555 1_555
H28 C28 1_555 1_555
C5 C6 1_555 1_555
C12 C13 1_555 1_555
C14 C21 1_555 1_555
C18 C19 1_555 1_555
C20 C21 1_555 1_555
C21 C22 1_555 1_555
C22 C23 1_555 1_555
C23 C24 1_555 1_555

#END
