
#######################################################################
#
#                 Cambridge Crystallographic Data Centre
#                                CCDC 
#
#######################################################################
#
# If this CIF has been generated from an entry in the Cambridge 
# Structural Database, then it will include bibliographic, chemical, 
# crystal, experimental, refinement or atomic coordinate data resulting 
# from the CCDC's data processing and validation procedures.
#
#######################################################################

data_YITVAB
_chemical_formula_moiety         'C16 H12 F1 N5 O2'
_chemical_name_systematic        
5-fluoro-N-(2-methyl-5-nitrophenyl)-4-(pyridin-3-yl)pyrimidin-2-amine
_symmetry_cell_setting           monoclinic
_symmetry_space_group_name_H-M   'P 21/c'
_symmetry_Int_Tables_number      14
_space_group_name_Hall           '-P 2ybc'
loop_
_symmetry_equiv_pos_site_id
_symmetry_equiv_pos_as_xyz
1 x,y,z
2 -x,1/2+y,1/2-z
3 -x,-y,-z
4 x,1/2-y,1/2+z
_cell_length_a                   8.4745(7)
_cell_length_b                   13.4830(13)
_cell_length_c                   12.5515(12)
_cell_angle_alpha                90
_cell_angle_beta                 96.566(3)
_cell_angle_gamma                90
_cell_volume                     1424.75
_exptl_crystal_colour            colorless
_exptl_crystal_description       block
_cell_formula_units_Z            4
loop_
_atom_site_label
_atom_site_type_symbol
_atom_site_fract_x
_atom_site_fract_y
_atom_site_fract_z
F1 F -0.01489(12) 0.68553(7) 0.76352(8)
O1 O 0.54114(17) 0.45453(11) 0.20920(10)
O2 O 0.45984(17) 0.55931(9) 0.31996(10)
N1 N 0.04998(17) 0.43029(9) 0.70462(11)
N2 N 0.17859(14) 0.53127(8) 0.58399(9)
N3 N 0.18304(17) 0.35723(9) 0.57821(11)
N4 N 0.47242(16) 0.47440(11) 0.28712(10)
N5 N 0.2307(2) 0.88578(10) 0.59652(13)
C1 C 0.13702(18) 0.44444(10) 0.62231(11)
C2 C 0.0026(2) 0.51242(12) 0.74928(12)
H1 H -0.0584 0.5072 0.8061
C3 C 0.04079(18) 0.60538(11) 0.71435(12)
C4 C 0.13107(16) 0.61502(10) 0.62996(11)
C5 C 0.18268(17) 0.70932(10) 0.58420(11)
C6 C 0.1794(2) 0.80114(11) 0.63551(13)
H2 H 0.1387 0.8034 0.7012
C7 C 0.2893(2) 0.88113(12) 0.50251(15)
H3 H 0.3275 0.9391 0.4746
C8 C 0.2963(2) 0.79486(12) 0.44459(14)
H4 H 0.3367 0.7953 0.3788
C9 C 0.2427(2) 0.70800(11) 0.48531(12)
H5 H 0.2465 0.6490 0.4473
C10 C 0.26393(17) 0.33993(10) 0.48837(11)
C11 C 0.27472(19) 0.24053(11) 0.45374(13)
C12 C 0.3514(2) 0.22183(12) 0.36372(14)
H6 H 0.3593 0.1566 0.3407
C13 C 0.4159(2) 0.29608(13) 0.30732(13)
H7 H 0.4656 0.2821 0.2467
C14 C 0.40418(18) 0.39259(11) 0.34400(12)
C15 C 0.33123(17) 0.41535(11) 0.43388(12)
H8 H 0.3274 0.4806 0.4575
C16 C 0.2061(2) 0.15576(12) 0.51184(15)
H9 H 0.2050 0.0969 0.4687
H10 H 0.0996 0.1718 0.5249
H11 H 0.2701 0.1446 0.5790
H12 H 0.151(2) 0.3040(11) 0.6097(13)
loop_
_geom_bond_atom_site_label_1
_geom_bond_atom_site_label_2
_geom_bond_site_symmetry_1
_geom_bond_site_symmetry_2
F1 C3 1_555 1_555
O1 N4 1_555 1_555
O2 N4 1_555 1_555
N1 C1 1_555 1_555
N2 C1 1_555 1_555
N3 C1 1_555 1_555
N4 C14 1_555 1_555
N5 C6 1_555 1_555
C2 N1 1_555 1_555
H1 C2 1_555 1_555
C3 C2 1_555 1_555
C4 N2 1_555 1_555
C5 C4 1_555 1_555
C6 C5 1_555 1_555
H2 C6 1_555 1_555
C7 N5 1_555 1_555
H3 C7 1_555 1_555
C8 C7 1_555 1_555
H4 C8 1_555 1_555
C9 C5 1_555 1_555
H5 C9 1_555 1_555
C10 N3 1_555 1_555
C11 C10 1_555 1_555
C12 C11 1_555 1_555
H6 C12 1_555 1_555
C13 C12 1_555 1_555
H7 C13 1_555 1_555
C14 C13 1_555 1_555
C15 C10 1_555 1_555
H8 C15 1_555 1_555
C16 C11 1_555 1_555
H9 C16 1_555 1_555
H10 C16 1_555 1_555
H11 C16 1_555 1_555
H12 N3 1_555 1_555
C3 C4 1_555 1_555
C8 C9 1_555 1_555
C14 C15 1_555 1_555

#END
