
#######################################################################
#
#                 Cambridge Crystallographic Data Centre
#                                CCDC 
#
#######################################################################
#
# If this CIF has been generated from an entry in the Cambridge 
# Structural Database, then it will include bibliographic, chemical, 
# crystal, experimental, refinement or atomic coordinate data resulting 
# from the CCDC's data processing and validation procedures.
#
#######################################################################

data_YIVLAS
_chemical_formula_moiety         'C8 H9 Cl1 O3'
_chemical_name_systematic        2-chloro-4-(2-hydroxyethoxy)phenol
_symmetry_cell_setting           monoclinic
_symmetry_space_group_name_H-M   'P 21/c'
_symmetry_Int_Tables_number      14
_space_group_name_Hall           '-P 2ybc'
loop_
_symmetry_equiv_pos_site_id
_symmetry_equiv_pos_as_xyz
1 x,y,z
2 -x,1/2+y,1/2-z
3 -x,-y,-z
4 x,1/2-y,1/2+z
_cell_length_a                   20.214(3)
_cell_length_b                   10.0193(13)
_cell_length_c                   8.1960(11)
_cell_angle_alpha                90
_cell_angle_beta                 95.8337(18)
_cell_angle_gamma                90
_cell_volume                     1651.34
_exptl_crystal_colour            colorless
_exptl_crystal_description       plate
_cell_formula_units_Z            8
loop_
_atom_site_label
_atom_site_type_symbol
_atom_site_fract_x
_atom_site_fract_y
_atom_site_fract_z
Cl1 Cl 0.650566(13) 0.75728(3) 0.54493(3)
O1 O 0.67152(4) 0.97987(8) 0.33080(10)
H1 H 0.6771(7) 1.0515(11) 0.2814(17)
O2 O 0.40829(4) 0.83787(8) 0.36423(10)
O3 O 0.28886(4) 0.69419(8) 0.31976(11)
H2 H 0.2514(5) 0.6700(16) 0.3407(19)
C1 C 0.60560(5) 0.94917(11) 0.33058(13)
C2 C 0.58791(5) 0.84532(11) 0.43068(13)
C3 C 0.52218(5) 0.80962(11) 0.43938(13)
H3 H 0.5113 0.7397 0.5103
C4 C 0.47213(5) 0.87719(11) 0.34308(13)
C5 C 0.48874(5) 0.97882(11) 0.23867(13)
H4 H 0.4549 1.0237 0.1709
C6 C 0.55528(5) 1.01461(11) 0.23389(13)
H5 H 0.5663 1.0847 0.1635
C7 C 0.35691(5) 0.87498(12) 0.23992(15)
H6 H 0.3632 0.8286 0.1359
H7 H 0.3581 0.9724 0.2204
C8 C 0.29137(5) 0.83576(12) 0.29838(16)
H8 H 0.2860 0.8808 0.4037
H9 H 0.2545 0.8645 0.2172
Cl2 Cl 1.153405(13) 0.79662(3) 0.51434(3)
O4 O 1.17121(4) 0.54214(8) 0.35464(10)
H10 H 1.1763(7) 0.4707(11) 0.3039(16)
O5 O 0.90962(4) 0.69697(8) 0.38669(10)
O6 O 0.78644(4) 0.82846(8) 0.29972(11)
H11 H 0.7509(6) 0.8590(16) 0.3239(19)
C9 C 1.10548(5) 0.57581(11) 0.35360(13)
C10 C 1.08946(5) 0.69358(11) 0.43098(13)
C11 C 1.02404(5) 0.73168(11) 0.44106(13)
H12 H 1.0143 0.8109 0.4976
C12 C 0.97280(5) 0.65245(11) 0.36739(13)
C13 C 0.98763(5) 0.53675(11) 0.28422(13)
H13 H 0.9528 0.4838 0.2312
C14 C 1.05384(5) 0.49901(11) 0.27920(13)
H14 H 1.0637 0.4193 0.2238
C15 C 0.85562(5) 0.63384(11) 0.28992(14)
H15 H 0.8571 0.5361 0.3080
H16 H 0.8586 0.6513 0.1720
C16 C 0.79188(5) 0.69036(11) 0.34100(14)
H17 H 0.7536 0.6412 0.2851
H18 H 0.7910 0.6793 0.4608
loop_
_geom_bond_atom_site_label_1
_geom_bond_atom_site_label_2
_geom_bond_site_symmetry_1
_geom_bond_site_symmetry_2
Cl1 C2 1_555 1_555
O1 H1 1_555 1_555
O2 C4 1_555 1_555
O3 H2 1_555 1_555
C1 O1 1_555 1_555
C2 C1 1_555 1_555
C3 C2 1_555 1_555
H3 C3 1_555 1_555
C4 C3 1_555 1_555
C5 C4 1_555 1_555
H4 C5 1_555 1_555
C6 C1 1_555 1_555
H5 C6 1_555 1_555
C7 O2 1_555 1_555
H6 C7 1_555 1_555
H7 C7 1_555 1_555
C8 O3 1_555 1_555
H8 C8 1_555 1_555
H9 C8 1_555 1_555
Cl2 C10 1_555 1_555
O4 H10 1_555 1_555
O5 C12 1_555 1_555
O6 H11 1_555 1_555
C9 O4 1_555 1_555
C10 C9 1_555 1_555
C11 C10 1_555 1_555
H12 C11 1_555 1_555
C12 C11 1_555 1_555
C13 C12 1_555 1_555
H13 C13 1_555 1_555
C14 C9 1_555 1_555
H14 C14 1_555 1_555
C15 O5 1_555 1_555
H15 C15 1_555 1_555
H16 C15 1_555 1_555
C16 O6 1_555 1_555
H17 C16 1_555 1_555
H18 C16 1_555 1_555
C5 C6 1_555 1_555
C7 C8 1_555 1_555
C13 C14 1_555 1_555
C15 C16 1_555 1_555

#END
