
#######################################################################
#
#                 Cambridge Crystallographic Data Centre
#                                CCDC 
#
#######################################################################
#
# If this CIF has been generated from an entry in the Cambridge 
# Structural Database, then it will include bibliographic, chemical, 
# crystal, experimental, refinement or atomic coordinate data resulting 
# from the CCDC's data processing and validation procedures.
#
#######################################################################

data_YIVMIA
_chemical_formula_moiety         'C21 H16 N2 O2'
_chemical_name_systematic        
2'-Methyl-2,5'-(ethen-1,2-diyl)-bis(8-hydroxyquinoline)
_symmetry_cell_setting           triclinic
_symmetry_space_group_name_H-M   'P -1'
_symmetry_Int_Tables_number      2
_space_group_name_Hall           '-P 1'
loop_
_symmetry_equiv_pos_site_id
_symmetry_equiv_pos_as_xyz
1 x,y,z
2 -x,-y,-z
_cell_length_a                   7.0687(5)
_cell_length_b                   9.6203(6)
_cell_length_c                   12.2109(8)
_cell_angle_alpha                86.735(4)
_cell_angle_beta                 87.840(4)
_cell_angle_gamma                74.333(4)
_cell_volume                     798.015
_exptl_crystal_colour            yellow
_exptl_crystal_description       block
_cell_formula_units_Z            2
_exptl_crystal_preparation       fluorescent
loop_
_atom_site_label
_atom_site_type_symbol
_atom_site_fract_x
_atom_site_fract_y
_atom_site_fract_z
O1 O -0.3948(2) 0.59135(13) 0.15006(11)
H1 H -0.4005 0.5448 0.0966
O2 O -0.2897(3) -0.17788(15) -0.47081(10)
H2 H -0.2504 -0.2663 -0.4706
N1 N -0.3104(2) 0.30714(14) 0.12184(11)
N2 N -0.1992(2) -0.38186(15) -0.31080(12)
C1 C -0.2988(2) 0.34886(18) 0.22538(13)
C2 C -0.3448(3) 0.49964(18) 0.23969(15)
C3 C -0.3387(3) 0.5507(2) 0.34084(16)
H3 H -0.3705 0.6498 0.3497
C4 C -0.2847(3) 0.4542(2) 0.43125(16)
H4 H -0.2798 0.4901 0.4999
C5 C -0.2387(3) 0.3078(2) 0.42094(15)
H5 H -0.2021 0.2453 0.4821
C6 C -0.2468(3) 0.25193(19) 0.31746(14)
C7 C -0.2053(3) 0.1034(2) 0.29732(15)
H6 H -0.1693 0.0343 0.3546
C8 C -0.2181(3) 0.06177(18) 0.19427(15)
H7 H -0.1918 -0.0360 0.1812
C9 C -0.2713(2) 0.16626(18) 0.10624(14)
C10 C -0.2885(3) 0.12719(18) -0.00569(15)
H8 H -0.3168 0.2021 -0.0592
C11 C -0.2675(3) -0.00534(18) -0.03843(15)
H9 H -0.2385 -0.0789 0.0161
C12 C -0.2840(2) -0.05094(17) -0.14933(13)
C13 C -0.3387(3) 0.04819(18) -0.23639(15)
H10 H -0.3744 0.1460 -0.2225
C14 C -0.3431(3) 0.00832(19) -0.34444(15)
H11 H -0.3802 0.0787 -0.4008
C15 C -0.2925(3) -0.13422(19) -0.36654(14)
C16 C -0.2423(2) -0.24207(17) -0.28046(13)
C17 C -0.2385(2) -0.20135(16) -0.17148(13)
C18 C -0.1930(3) -0.31698(18) -0.09199(14)
H12 H -0.1897 -0.2982 -0.0183
C19 C -0.1539(3) -0.45582(18) -0.12261(15)
H13 H -0.1264 -0.5313 -0.0695
C20 C -0.1547(3) -0.48615(17) -0.23375(15)
C21 C -0.1055(3) -0.6395(2) -0.26890(19)
H14 H -0.2231 -0.6614 -0.2904
H15 H -0.0483 -0.7042 -0.2089
H16 H -0.0136 -0.6508 -0.3298
loop_
_geom_bond_atom_site_label_1
_geom_bond_atom_site_label_2
_geom_bond_site_symmetry_1
_geom_bond_site_symmetry_2
O1 H1 1_555 1_555
O2 H2 1_555 1_555
N1 C1 1_555 1_555
N2 C16 1_555 1_555
C1 C2 1_555 1_555
C2 O1 1_555 1_555
C3 C2 1_555 1_555
H3 C3 1_555 1_555
C4 C3 1_555 1_555
H4 C4 1_555 1_555
C5 C4 1_555 1_555
H5 C5 1_555 1_555
C6 C1 1_555 1_555
C7 C6 1_555 1_555
H6 C7 1_555 1_555
C8 C7 1_555 1_555
H7 C8 1_555 1_555
C9 N1 1_555 1_555
C10 C9 1_555 1_555
H8 C10 1_555 1_555
C11 C10 1_555 1_555
H9 C11 1_555 1_555
C12 C11 1_555 1_555
C13 C12 1_555 1_555
H10 C13 1_555 1_555
C14 C13 1_555 1_555
H11 C14 1_555 1_555
C15 O2 1_555 1_555
C16 C15 1_555 1_555
C17 C12 1_555 1_555
C18 C17 1_555 1_555
H12 C18 1_555 1_555
C19 C18 1_555 1_555
H13 C19 1_555 1_555
C20 N2 1_555 1_555
C21 C20 1_555 1_555
H14 C21 1_555 1_555
H15 C21 1_555 1_555
H16 C21 1_555 1_555
C5 C6 1_555 1_555
C8 C9 1_555 1_555
C14 C15 1_555 1_555
C16 C17 1_555 1_555
C19 C20 1_555 1_555

#END
