
#######################################################################
#
#                 Cambridge Crystallographic Data Centre
#                                CCDC 
#
#######################################################################
#
# If this CIF has been generated from an entry in the Cambridge 
# Structural Database, then it will include bibliographic, chemical, 
# crystal, experimental, refinement or atomic coordinate data resulting 
# from the CCDC's data processing and validation procedures.
#
#######################################################################

data_YIVNEW
_chemical_formula_moiety         'C9 H12 N2 O5'
_chemical_name_systematic        
1-(2'-Deoxy-\b-D-ribofuranosyl)-3-nitropyrrole
_symmetry_cell_setting           orthorhombic
_symmetry_space_group_name_H-M   'P 21 21 21'
_symmetry_Int_Tables_number      19
_space_group_name_Hall           'P 2ac 2ab'
loop_
_symmetry_equiv_pos_site_id
_symmetry_equiv_pos_as_xyz
1 x,y,z
2 1/2-x,-y,1/2+z
3 1/2+x,1/2-y,-z
4 -x,1/2+y,1/2-z
_cell_length_a                   6.6248
_cell_length_b                   11.1648
_cell_length_c                   13.6041
_cell_angle_alpha                90
_cell_angle_beta                 90
_cell_angle_gamma                90
_cell_volume                     1006.22
_exptl_crystal_colour            colorless
_chemical_melting_point          '95-96 deg.C'
_cell_formula_units_Z            4
loop_
_atom_site_label
_atom_site_type_symbol
_atom_site_fract_x
_atom_site_fract_y
_atom_site_fract_z
O1 O 0.2289(3) 0.4103(2) 0.4496(2)
O2 O -0.0675(4) 0.6733(2) 0.4627(2)
O3 O 0.5128(4) 0.6014(3) 0.4560(2)
O4 O 0.6992(5) 0.1685(3) 0.7884(2)
O5 O 0.7507(4) 0.3530(3) 0.7438(2)
N1 N 0.2121(4) 0.3160(2) 0.6016(2)
N2 N 0.6477(5) 0.2608(3) 0.7457(2)
C1 C 0.1855(5) 0.5277(3) 0.4150(2)
C2 C 0.0808(5) 0.5934(3) 0.4999(2)
C3 C -0.0097(5) 0.4927(3) 0.5607(3)
C4 C 0.0934(5) 0.3783(3) 0.5264(2)
C5 C 0.3922(5) 0.3522(3) 0.6370(2)
C6 C 0.4556(5) 0.2610(3) 0.6985(2)
C7 C 0.3119(6) 0.1685(3) 0.6989(3)
C8 C 0.1641(5) 0.2043(3) 0.6382(3)
C9 C 0.3738(6) 0.5836(3) 0.3762(3)
loop_
_geom_bond_atom_site_label_1
_geom_bond_atom_site_label_2
_geom_bond_site_symmetry_1
_geom_bond_site_symmetry_2
O1 C1 1_555 1_555
O2 C2 1_555 1_555
O3 C9 1_555 1_555
O4 N2 1_555 1_555
O5 N2 1_555 1_555
N1 C4 1_555 1_555
N2 C6 1_555 1_555
C1 C2 1_555 1_555
C2 C3 1_555 1_555
C3 C4 1_555 1_555
C4 O1 1_555 1_555
C5 N1 1_555 1_555
C6 C5 1_555 1_555
C7 C6 1_555 1_555
C8 N1 1_555 1_555
C9 C1 1_555 1_555
C7 C8 1_555 1_555

#END
