
#######################################################################
#
#                 Cambridge Crystallographic Data Centre
#                                CCDC 
#
#######################################################################
#
# If this CIF has been generated from an entry in the Cambridge 
# Structural Database, then it will include bibliographic, chemical, 
# crystal, experimental, refinement or atomic coordinate data resulting 
# from the CCDC's data processing and validation procedures.
#
#######################################################################

data_YIVPUO
_chemical_formula_moiety         'C17 H15 Br1 O2'
_chemical_name_systematic        2'-Hydroxy-4',6'-dimethyl-4-bromochalcone
_symmetry_cell_setting           orthorhombic
_symmetry_space_group_name_H-M   'P 21 21 21'
_symmetry_Int_Tables_number      19
_space_group_name_Hall           'P 2ac 2ab'
loop_
_symmetry_equiv_pos_site_id
_symmetry_equiv_pos_as_xyz
1 x,y,z
2 1/2-x,-y,1/2+z
3 1/2+x,1/2-y,-z
4 -x,1/2+y,1/2-z
_cell_length_a                   15.428
_cell_length_b                   16.008
_cell_length_c                   11.958
_cell_angle_alpha                90
_cell_angle_beta                 90
_cell_angle_gamma                90
_cell_volume                     2953.28
_chemical_melting_point          '80 deg.C'
_cell_formula_units_Z            8
loop_
_atom_site_label
_atom_site_type_symbol
_atom_site_fract_x
_atom_site_fract_y
_atom_site_fract_z
Br1 Br 0.6112(1) 0.6220(1) 0.0155(2)
C1 C 0.5963(10) 0.7344(8) -0.0167(13)
C2 C 0.5592(9) 0.7598(9) -0.1184(13)
C3 C 0.5503(11) 0.8435(9) -0.1373(11)
C4 C 0.5768(9) 0.9043(8) -0.0631(13)
C5 C 0.6071(12) 0.8770(10) 0.0364(12)
C6 C 0.6191(10) 0.7981(9) 0.0600(11)
C7 C 0.5638(10) 0.9932(8) -0.0911(12)
C8 C 0.5873(10) 1.0577(9) -0.0332(12)
C9 C 0.5687(10) 1.1450(10) -0.0691(12)
C10 C 0.5687(9) 1.2168(9) 0.0159(13)
C11 C 0.5856(9) 1.2980(10) -0.0254(14)
C12 C 0.5922(10) 1.3650(9) 0.0434(14)
C13 C 0.5781(10) 1.3552(9) 0.1543(14)
C14 C 0.5486(10) 1.2804(9) 0.1937(13)
C15 C 0.5478(10) 1.2104(9) 0.1295(14)
C16 C 0.5138(11) 1.1292(10) 0.1842(13)
C17 C 0.5748(11) 1.4292(10) 0.2239(15)
O1 O 0.6028(8) 1.3086(7) -0.1362(10)
O2 O 0.5585(8) 1.1559(6) -0.1713(9)
H1 H 0.542(3) 0.713(3) -0.172(3)
H2 H 0.527(3) 0.867(3) -0.215(3)
H3 H 0.641(3) 0.919(3) 0.096(3)
H4 H 0.636(2) 0.779(2) 0.121(3)
H5 H 0.540(3) 1.006(3) -0.174(3)
H6 H 0.613(3) 1.058(3) 0.041(3)
H7 H 0.590(3) 1.422(3) 0.000(3)
H8 H 0.532(3) 1.259(3) 0.284(3)
H9 H 0.518(3) 1.098(3) 0.133(3)
H10 H 0.452(3) 1.134(3) 0.199(3)
H11 H 0.558(3) 1.135(3) 0.253(3)
H12 H 0.606(3) 1.486(3) 0.195(3)
H13 H 0.620(3) 1.425(3) 0.296(3)
H14 H 0.514(3) 1.442(3) 0.248(3)
H15 H 0.599(3) 1.278(3) -0.198(3)
Br2 Br 0.1709(2) 1.0322(1) 0.2757(2)
C18 C 0.1831(11) 0.9372(9) 0.3647(14)
C19 C 0.1822(11) 0.9453(9) 0.4801(14)
C20 C 0.1882(11) 0.8684(11) 0.5461(12)
C21 C 0.1856(10) 0.7942(9) 0.4959(13)
C22 C 0.1845(12) 0.7866(9) 0.3792(12)
C23 C 0.1812(11) 0.8597(9) 0.3189(13)
C24 C 0.1870(11) 0.7214(10) 0.5672(13)
C25 C 0.1900(10) 0.6437(9) 0.5348(12)
C26 C 0.1896(12) 0.5709(10) 0.6190(13)
C27 C 0.1754(10) 0.4841(10) 0.5868(12)
C28 C 0.2050(11) 0.4259(10) 0.6540(15)
C29 C 0.2023(11) 0.3413(10) 0.6312(14)
C30 C 0.1692(11) 0.3172(10) 0.5330(14)
C31 C 0.1309(8) 0.3750(10) 0.4591(11)
C32 C 0.1336(10) 0.4616(10) 0.4864(13)
C33 C 0.0858(10) 0.5171(10) 0.4073(12)
C34 C 0.1605(12) 0.2241(10) 0.4994(16)
O3 O 0.2434(7) 0.4380(7) 0.7608(9)
O4 O 0.2058(8) 0.5901(6) 0.7206(10)
H16 H 0.188(3) 1.005(3) 0.519(3)
H17 H 0.213(3) 0.877(3) 0.644(3)
H18 H 0.199(3) 0.734(3) 0.335(3)
H19 H 0.191(3) 0.869(3) 0.230(3)
H20 H 0.194(3) 0.722(3) 0.662(3)
H21 H 0.193(3) 0.628(3) 0.460(3)
H22 H 0.226(3) 0.300(3) 0.691(3)
H23 H 0.102(3) 0.366(3) 0.375(3)
H24 H 0.074(3) 0.570(3) 0.436(3)
H25 H 0.024(3) 0.499(3) 0.399(3)
H26 H 0.105(3) 0.522(3) 0.327(3)
H27 H 0.191(3) 0.190(3) 0.558(3)
H28 H 0.183(3) 0.228(3) 0.419(3)
H29 H 0.106(3) 0.211(3) 0.492(3)
H30 H 0.216(3) 0.502(3) 0.766(3)
loop_
_geom_bond_atom_site_label_1
_geom_bond_atom_site_label_2
_geom_bond_site_symmetry_1
_geom_bond_site_symmetry_2
Br1 C1 1_555 1_555
C1 C2 1_555 1_555
C2 C3 1_555 1_555
C3 C4 1_555 1_555
C4 C5 1_555 1_555
C5 C6 1_555 1_555
C6 C1 1_555 1_555
C7 C4 1_555 1_555
C8 C7 1_555 1_555
C9 C8 1_555 1_555
C10 C9 1_555 1_555
C11 C10 1_555 1_555
C12 C11 1_555 1_555
C13 C12 1_555 1_555
C14 C13 1_555 1_555
C15 C10 1_555 1_555
C16 C15 1_555 1_555
C17 C13 1_555 1_555
O1 C11 1_555 1_555
O2 C9 1_555 1_555
H1 C2 1_555 1_555
H2 C3 1_555 1_555
H3 C5 1_555 1_555
H4 C6 1_555 1_555
H5 C7 1_555 1_555
H6 C8 1_555 1_555
H7 C12 1_555 1_555
H8 C14 1_555 1_555
H9 C16 1_555 1_555
H10 C16 1_555 1_555
H11 C16 1_555 1_555
H12 C17 1_555 1_555
H13 C17 1_555 1_555
H14 C17 1_555 1_555
H15 O1 1_555 1_555
Br2 C18 1_555 1_555
C18 C19 1_555 1_555
C19 C20 1_555 1_555
C20 C21 1_555 1_555
C21 C22 1_555 1_555
C22 C23 1_555 1_555
C23 C18 1_555 1_555
C24 C21 1_555 1_555
C25 C24 1_555 1_555
C26 C25 1_555 1_555
C27 C26 1_555 1_555
C28 C27 1_555 1_555
C29 C28 1_555 1_555
C30 C29 1_555 1_555
C31 C30 1_555 1_555
C32 C27 1_555 1_555
C33 C32 1_555 1_555
C34 C30 1_555 1_555
O3 C28 1_555 1_555
O4 C26 1_555 1_555
H16 C19 1_555 1_555
H17 C20 1_555 1_555
H18 C22 1_555 1_555
H19 C23 1_555 1_555
H20 C24 1_555 1_555
H21 C25 1_555 1_555
H22 C29 1_555 1_555
H23 C31 1_555 1_555
H24 C33 1_555 1_555
H25 C33 1_555 1_555
H26 C33 1_555 1_555
H27 C34 1_555 1_555
H28 C34 1_555 1_555
H29 C34 1_555 1_555
H30 O3 1_555 1_555
C14 C15 1_555 1_555
C31 C32 1_555 1_555

#END
