
#######################################################################
#
#                 Cambridge Crystallographic Data Centre
#                                CCDC 
#
#######################################################################
#
# If this CIF has been generated from an entry in the Cambridge 
# Structural Database, then it will include bibliographic, chemical, 
# crystal, experimental, refinement or atomic coordinate data resulting 
# from the CCDC's data processing and validation procedures.
#
#######################################################################

data_YIVRIE
_chemical_formula_moiety         'C17 H16 O2'
_chemical_name_systematic        5,7-Dimethylflavanone
_symmetry_cell_setting           monoclinic
_symmetry_space_group_name_H-M   'P 21/c'
_symmetry_Int_Tables_number      14
_space_group_name_Hall           '-P 2ybc'
loop_
_symmetry_equiv_pos_site_id
_symmetry_equiv_pos_as_xyz
1 x,y,z
2 -x,1/2+y,1/2-z
3 -x,-y,-z
4 x,1/2-y,1/2+z
_cell_length_a                   11.842
_cell_length_b                   5.002
_cell_length_c                   23.472
_cell_angle_alpha                90
_cell_angle_beta                 97.60
_cell_angle_gamma                90
_cell_volume                     1378.12
_exptl_crystal_colour            'pale yellow'
_chemical_melting_point          '78 deg.C'
_cell_formula_units_Z            4
loop_
_atom_site_label
_atom_site_type_symbol
_atom_site_fract_x
_atom_site_fract_y
_atom_site_fract_z
C1 C 0.1680(5) 0.4263(13) 0.0264(2)
C2 C 0.1224(5) 0.5498(11) 0.0681(2)
C3 C 0.1577(4) 0.4808(11) 0.1243(2)
C4 C 0.2361(3) 0.2838(8) 0.1380(2)
C5 C 0.2817(5) 0.1574(10) 0.0942(2)
C6 C 0.2456(5) 0.2321(15) 0.0377(2)
C7 C 0.2793(4) 0.1940(11) 0.1979(2)
C8 C 0.3536(4) 0.3844(9) 0.2324(2)
C9 C 0.3868(3) 0.3041(7) 0.2934(1)
C10 C 0.3137(3) 0.1025(7) 0.3158(1)
C11 C 0.2154(3) 0.0147(6) 0.2808(1)
C12 C 0.1402(3) -0.1653(7) 0.2998(2)
C13 C 0.1615(3) -0.2725(7) 0.3540(2)
C14 C 0.2600(3) -0.1927(9) 0.3889(2)
C15 C 0.3352(3) -0.0064(8) 0.3719(2)
C16 C 0.4399(5) 0.0665(21) 0.4132(3)
C17 C 0.0832(5) -0.4763(11) 0.3745(3)
O1 O 0.1882(2) 0.1003(5) 0.2252(1)
O2 O 0.4696(2) 0.4023(6) 0.3216(1)
H1 H 0.137(4) 0.467(9) -0.013(2)
H2 H 0.064(5) 0.703(12) 0.057(2)
H3 H 0.128(4) 0.591(10) 0.156(2)
H4 H 0.332(4) 0.019(10) 0.096(2)
H5 H 0.287(5) 0.108(13) 0.009(3)
H6 H 0.342(4) 0.018(12) 0.198(2)
H7 H 0.286(6) 0.517(14) 0.231(3)
H8 H 0.412(3) 0.467(7) 0.216(2)
H9 H 0.073(3) -0.232(7) 0.271(1)
H10 H 0.274(3) -0.262(8) 0.424(2)
H11 H 0.442(5) 0.257(14) 0.417(2)
H12 H 0.439(4) -0.028(11) 0.446(3)
H13 H 0.510(6) 0.028(13) 0.397(3)
H14 H 0.016(5) -0.530(11) 0.353(2)
H15 H 0.061(4) -0.444(10) 0.411(2)
H16 H 0.115(4) -0.651(10) 0.376(2)
loop_
_geom_bond_atom_site_label_1
_geom_bond_atom_site_label_2
_geom_bond_site_symmetry_1
_geom_bond_site_symmetry_2
C1 C2 1_555 1_555
C2 C3 1_555 1_555
C3 C4 1_555 1_555
C4 C5 1_555 1_555
C5 C6 1_555 1_555
C6 C1 1_555 1_555
C7 C4 1_555 1_555
C8 C7 1_555 1_555
C9 C8 1_555 1_555
C10 C9 1_555 1_555
C11 C10 1_555 1_555
C12 C11 1_555 1_555
C13 C12 1_555 1_555
C14 C13 1_555 1_555
C15 C10 1_555 1_555
C16 C15 1_555 1_555
C17 C13 1_555 1_555
O1 C7 1_555 1_555
O2 C9 1_555 1_555
H1 C1 1_555 1_555
H2 C2 1_555 1_555
H3 C3 1_555 1_555
H4 C5 1_555 1_555
H5 C6 1_555 1_555
H6 C7 1_555 1_555
H7 C8 1_555 1_555
H8 C8 1_555 1_555
H9 C12 1_555 1_555
H10 C14 1_555 1_555
H11 C16 1_555 1_555
H12 C16 1_555 1_555
H13 C16 1_555 1_555
H14 C17 1_555 1_555
H15 C17 1_555 1_555
H16 C17 1_555 1_555
C11 O1 1_555 1_555
C14 C15 1_555 1_555

#END
