
#######################################################################
#
#                 Cambridge Crystallographic Data Centre
#                                CCDC 
#
#######################################################################
#
# If this CIF has been generated from an entry in the Cambridge 
# Structural Database, then it will include bibliographic, chemical, 
# crystal, experimental, refinement or atomic coordinate data resulting 
# from the CCDC's data processing and validation procedures.
#
#######################################################################

data_YIVREA
_chemical_formula_moiety         'C17 H15 Br1 O2'
_chemical_name_systematic        5,7-Dimethyl-4'-bromoflavanone
_symmetry_cell_setting           monoclinic
_symmetry_space_group_name_H-M   'P 21'
_symmetry_Int_Tables_number      4
_space_group_name_Hall           'P 2yb'
loop_
_symmetry_equiv_pos_site_id
_symmetry_equiv_pos_as_xyz
1 x,y,z
2 -x,1/2+y,-z
_cell_length_a                   4.194
_cell_length_b                   13.149
_cell_length_c                   12.993
_cell_angle_alpha                90
_cell_angle_beta                 91.67
_cell_angle_gamma                90
_cell_volume                     716.219
_chemical_melting_point          '115 deg.C'
_cell_formula_units_Z            2
loop_
_atom_site_label
_atom_site_type_symbol
_atom_site_fract_x
_atom_site_fract_y
_atom_site_fract_z
Br1 Br 0.5033(10) 0.3276 0.4846(4)
C1 C 0.6676(15) 0.4362(5) 0.4110(7)
C2 C 0.6813(16) 0.4348(9) 0.3042(7)
C3 C 0.7976(16) 0.5181(7) 0.2512(10)
C4 C 0.8985(17) 0.6093(7) 0.2953(8)
C5 C 0.9142(17) 0.6015(10) 0.4021(8)
C6 C 0.7946(16) 0.5218(7) 0.4595(9)
C7 C 1.0588(16) 0.6960(7) 0.2460(7)
C8 C 1.1035(16) 0.6991(10) 0.1333(7)
C9 C 1.2314(16) 0.7874(8) 0.0774(8)
C10 C 1.1314(15) 0.8805(8) 0.1317(6)
C11 C 0.9650(16) 0.8751(8) 0.2227(7)
C12 C 0.8782(17) 0.9678(8) 0.2652(10)
C13 C 0.9530(17) 1.0608(8) 0.2217(9)
C14 C 1.1136(17) 1.0726(9) 0.1304(9)
C15 C 1.1969(16) 0.9770(8) 0.0940(8)
C16 C 1.3793(16) 0.9892(12) -0.0026(9)
C17 C 0.8699(17) 1.1522(11) 0.2849(10)
O1 O 0.8794(15) 0.7824(7) 0.2657(10)
O2 O 1.3898(16) 0.7732(10) 0.0010(8)
H1 H 0.584(2) 0.364(2) 0.265(2)
H2 H 0.823(2) 0.512(2) 0.169(2)
H3 H 1.056(2) 0.662(2) 0.442(2)
H4 H 0.812(2) 0.528(2) 0.542(2)
H5 H 1.294(2) 0.683(2) 0.281(2)
H6 H 0.876(2) 0.685(2) 0.099(2)
H7 H 1.269(2) 0.637(2) 0.119(2)
H8 H 0.737(2) 0.969(2) 0.331(2)
H9 H 1.148(2) 1.149(2) 0.095(2)
H10 H 1.442(2) 0.912(2) -0.025(2)
H11 H 1.592(2) 1.035(2) 0.008(2)
H12 H 1.233(2) 1.026(2) -0.062(2)
H13 H 0.962(2) 1.222(2) 0.247(2)
H14 H 1.012(2) 1.150(2) 0.364(2)
H15 H 0.633(2) 1.157(3) 0.298(2)
Br2? Br 0.4913(9) 0.4374(3) 0.4827(3)
loop_
_geom_bond_atom_site_label_1
_geom_bond_atom_site_label_2
_geom_bond_site_symmetry_1
_geom_bond_site_symmetry_2
Br1 C1 1_555 1_555
C1 C2 1_555 1_555
C2 C3 1_555 1_555
C3 C4 1_555 1_555
C4 C5 1_555 1_555
C5 C6 1_555 1_555
C6 C1 1_555 1_555
C7 C4 1_555 1_555
C8 C7 1_555 1_555
C9 C8 1_555 1_555
C10 C9 1_555 1_555
C11 C10 1_555 1_555
C12 C11 1_555 1_555
C13 C12 1_555 1_555
C14 C13 1_555 1_555
C15 C10 1_555 1_555
C16 C15 1_555 1_555
C17 C13 1_555 1_555
O1 C7 1_555 1_555
O2 C9 1_555 1_555
H1 C2 1_555 1_555
H2 C3 1_555 1_555
H3 C5 1_555 1_555
H4 C6 1_555 1_555
H5 C7 1_555 1_555
H6 C8 1_555 1_555
H7 C8 1_555 1_555
H8 C12 1_555 1_555
H9 C14 1_555 1_555
H10 C16 1_555 1_555
H11 C16 1_555 1_555
H12 C16 1_555 1_555
H13 C17 1_555 1_555
H14 C17 1_555 1_555
H15 C17 1_555 1_555
C11 O1 1_555 1_555
C14 C15 1_555 1_555

#END
