
#######################################################################
#
#                 Cambridge Crystallographic Data Centre
#                                CCDC 
#
#######################################################################
#
# If this CIF has been generated from an entry in the Cambridge 
# Structural Database, then it will include bibliographic, chemical, 
# crystal, experimental, refinement or atomic coordinate data resulting 
# from the CCDC's data processing and validation procedures.
#
#######################################################################

data_YIVSAZ
_chemical_formula_moiety         'C9 H11 Cl1 O3'
_chemical_name_systematic        2-Chloro-4-(3-hydroxypropoxy)phenol
_symmetry_cell_setting           monoclinic
_symmetry_space_group_name_H-M   'P 21/n'
_symmetry_Int_Tables_number      14
_space_group_name_Hall           '-P 2yn'
loop_
_symmetry_equiv_pos_site_id
_symmetry_equiv_pos_as_xyz
1 x,y,z
2 1/2-x,1/2+y,1/2-z
3 -x,-y,-z
4 1/2+x,1/2-y,1/2+z
_cell_length_a                   5.2268(5)
_cell_length_b                   8.9268(9)
_cell_length_c                   19.809(2)
_cell_angle_alpha                90
_cell_angle_beta                 92.227(2)
_cell_angle_gamma                90
_cell_volume                     923.562
_exptl_crystal_colour            colorless
_exptl_crystal_description       plate
_cell_formula_units_Z            4
loop_
_atom_site_label
_atom_site_type_symbol
_atom_site_fract_x
_atom_site_fract_y
_atom_site_fract_z
Cl1 Cl 0.72171(5) 0.30994(3) 0.089241(12)
O1 O 0.59696(14) 0.45612(9) 0.33668(3)
O2 O 0.63349(14) 0.16443(8) 0.45716(4)
H1 H 0.731(3) 0.1175(17) 0.4833(7)
O3 O 0.30364(14) 0.52223(9) 0.06639(3)
H2 H 0.165(2) 0.5693(17) 0.0632(8)
C1 C 0.53203(18) 0.46773(11) 0.26913(5)
C2 C 0.33313(18) 0.56652(11) 0.25169(5)
H3 H 0.2527 0.6219 0.2859
C3 C 0.25256(18) 0.58402(11) 0.18452(5)
H4 H 0.1159 0.6508 0.1733
C4 C 0.36965(18) 0.50479(11) 0.13322(5)
C5 C 0.56812(18) 0.40777(11) 0.15171(5)
C6 C 0.65121(18) 0.38763(11) 0.21885(5)
H5 H 0.7870 0.3203 0.2301
C7 C 0.82364(18) 0.37157(12) 0.35434(5)
H6 H 0.9710 0.4104 0.3297
H7 H 0.7984 0.2648 0.3423
C8 C 0.87306(19) 0.38801(12) 0.42990(5)
H8 H 0.8905 0.4957 0.4411
H9 H 1.0371 0.3384 0.4429
C9 C 0.66197(19) 0.32107(11) 0.47090(5)
H10 H 0.7033 0.3359 0.5196
H11 H 0.4986 0.3731 0.4597
loop_
_geom_bond_atom_site_label_1
_geom_bond_atom_site_label_2
_geom_bond_site_symmetry_1
_geom_bond_site_symmetry_2
Cl1 C5 1_555 1_555
O1 C1 1_555 1_555
O2 H1 1_555 1_555
O3 H2 1_555 1_555
C1 C2 1_555 1_555
C2 H3 1_555 1_555
C3 C2 1_555 1_555
H4 C3 1_555 1_555
C4 O3 1_555 1_555
C5 C4 1_555 1_555
C6 C1 1_555 1_555
H5 C6 1_555 1_555
C7 O1 1_555 1_555
H6 C7 1_555 1_555
H7 C7 1_555 1_555
C8 C7 1_555 1_555
H8 C8 1_555 1_555
H9 C8 1_555 1_555
C9 O2 1_555 1_555
H10 C9 1_555 1_555
H11 C9 1_555 1_555
C3 C4 1_555 1_555
C5 C6 1_555 1_555
C8 C9 1_555 1_555

#END
