
#######################################################################
#
#                 Cambridge Crystallographic Data Centre
#                                CCDC 
#
#######################################################################
#
# If this CIF has been generated from an entry in the Cambridge 
# Structural Database, then it will include bibliographic, chemical, 
# crystal, experimental, refinement or atomic coordinate data resulting 
# from the CCDC's data processing and validation procedures.
#
#######################################################################

data_YIVVOP
_chemical_formula_moiety         'C26 H27 N1 O2'
_chemical_name_systematic        
'N-(Diphenylmethylene)phenylalanine t-butyl ester'
_symmetry_cell_setting           orthorhombic
_symmetry_space_group_name_H-M   'P n a 21'
_symmetry_Int_Tables_number      33
_space_group_name_Hall           'P 2c -2n'
loop_
_symmetry_equiv_pos_site_id
_symmetry_equiv_pos_as_xyz
1 x,y,z
2 -x,-y,1/2+z
3 1/2-x,1/2+y,1/2+z
4 1/2+x,1/2-y,z
_cell_length_a                   18.437(6)
_cell_length_b                   12.804(4)
_cell_length_c                   19.089(6)
_cell_angle_alpha                90
_cell_angle_beta                 90
_cell_angle_gamma                90
_cell_volume                     4506.29
_exptl_crystal_colour            colorless
_exptl_crystal_description       Block
_cell_formula_units_Z            8
loop_
_atom_site_label
_atom_site_type_symbol
_atom_site_fract_x
_atom_site_fract_y
_atom_site_fract_z
N1 N 0.3149(3) 0.4133(5) 0.5123(4)
O1 O 0.2059(3) 0.3352(4) 0.5890(3)
O2 O 0.2883(3) 0.2484(4) 0.6551(6)
C1 C 0.3269(4) 0.4021(5) 0.5871(4)
H1 H 0.3164 0.4690 0.6098
C2 C 0.4045(4) 0.3729(5) 0.6028(5)
H2 H 0.4093 0.3600 0.6526
H3 H 0.4159 0.3083 0.5785
C3 C 0.2721(4) 0.3201(6) 0.6142(4)
C4 C 0.2956(4) 0.4979(6) 0.4830(5)
C5 C 0.1469(6) 0.2601(6) 0.6041(8)
C6 C 0.1637(4) 0.1587(6) 0.5703(5)
H4 H 0.2018 0.1244 0.5956
H5 H 0.1789 0.1705 0.5228
H6 H 0.1211 0.1155 0.5704
C7 C 0.1257(5) 0.2560(5) 0.6757(6)
H7 H 0.1640 0.2255 0.7030
H8 H 0.0826 0.2143 0.6802
H9 H 0.1161 0.3254 0.6923
C8 C 0.0849(3) 0.3095(6) 0.5595(4)
H10 H 0.0717 0.3759 0.5791
H11 H 0.0435 0.2640 0.5598
H12 H 0.1013 0.3191 0.5123
C9 C 0.2767(4) 0.5917(6) 0.5251(4)
C10 C 0.3246(4) 0.6731(7) 0.5287(4)
H13 H 0.3699 0.6684 0.5076
C11 C 0.3039(6) 0.7653(7) 0.5653(7)
H14 H 0.3354 0.8220 0.5661
C12 C 0.2403(7) 0.7725(7) 0.5984(7)
H15 H 0.2284 0.8329 0.6229
C13 C 0.1940(5) 0.6929(8) 0.5963(5)
H16 H 0.1493 0.6986 0.6186
C14 C 0.2117(4) 0.6012(6) 0.5611(4)
H17 H 0.1795 0.5454 0.5618
C15 C 0.2932(4) 0.5039(7) 0.4078(5)
C16 C 0.3326(4) 0.4359(7) 0.3666(6)
H18 H 0.3619 0.3860 0.3879
C17 C 0.3295(6) 0.4407(8) 0.2934(6)
H19 H 0.3549 0.3928 0.2662
C18 C 0.2903(5) 0.5133(9) 0.2638(6)
H20 H 0.2890 0.5176 0.2152
C19 C 0.2529(6) 0.5801(8) 0.3011(7)
H21 H 0.2250 0.6301 0.2781
C20 C 0.2537(5) 0.5786(7) 0.3734(5)
H22 H 0.2276 0.6281 0.3986
C21 C 0.4574(4) 0.4532(7) 0.5820(6)
C22 C 0.4796(5) 0.4642(7) 0.5135(6)
H23 H 0.4629 0.4175 0.4798
C23 C 0.5261(4) 0.5430(7) 0.4941(5)
H24 H 0.5397 0.5510 0.4475
C24 C 0.5509(4) 0.6071(8) 0.5424(7)
H25 H 0.5843 0.6580 0.5293
C25 C 0.5298(5) 0.6017(9) 0.6110(7)
H26 H 0.5454 0.6512 0.6434
C26 C 0.4852(6) 0.5218(8) 0.6307(6)
H27 H 0.4734 0.5136 0.6777
N2 N 0.0688(3) 0.5895(5) 0.9028(4)
O3 O -0.0384(2) 0.6711(4) 0.8247(3)
O4 O 0.0455(4) 0.7528(4) 0.7599(6)
C27 C 0.0765(3) 0.5980(5) 0.8246(4)
H28 H 0.0647 0.5321 0.8011
C28 C 0.1587(3) 0.6310(5) 0.8118(5)
H29 H 0.1660 0.6466 0.7626
H30 H 0.1696 0.6935 0.8385
C29 C 0.0285(4) 0.6886(6) 0.7982(5)
C30 C 0.0497(3) 0.4998(7) 0.9275(4)
C31 C -0.0970(6) 0.7575(7) 0.8154(7)
C32 C -0.1172(6) 0.7657(6) 0.7338(7)
H31 H -0.1533 0.8188 0.7272
H32 H -0.1357 0.6998 0.7178
H33 H -0.0745 0.7833 0.7075
C33 C -0.0709(5) 0.8621(6) 0.8414(5)
H34 H -0.0589 0.8570 0.8902
H35 H -0.1085 0.9131 0.8351
H36 H -0.0287 0.8828 0.8154
C34 C -0.1573(4) 0.7049(7) 0.8541(5)
H37 H -0.1450 0.7001 0.9029
H38 H -0.1644 0.6360 0.8354
H39 H -0.2010 0.7447 0.8488
C35 C 0.0313(4) 0.3992(6) 0.8875(4)
C36 C 0.0778(4) 0.3139(6) 0.8877(5)
H40 H 0.1209 0.3177 0.9129
C37 C 0.0617(7) 0.2246(8) 0.8518(8)
H41 H 0.0946 0.1696 0.8513
C38 C -0.0029(7) 0.2156(8) 0.8163(7)
H42 H -0.0145 0.1541 0.7928
C39 C -0.0511(5) 0.3007(8) 0.8160(6)
H43 H -0.0942 0.2960 0.7909
C40 C -0.0357(4) 0.3903(6) 0.8520(4)
H44 H -0.0690 0.4448 0.8532
C41 C 0.0491(4) 0.4929(6) 1.0069(5)
C42 C 0.0880(4) 0.5637(6) 1.0483(5)
H45 H 0.1143 0.6161 1.0261
C43 C 0.0888(5) 0.5590(8) 1.1204(5)
H46 H 0.1165 0.6058 1.1464
C44 C 0.0466(5) 0.4814(8) 1.1543(6)
H47 H 0.0446 0.4790 1.2029
C45 C 0.0073(6) 0.4072(8) 1.1136(6)
H48 H -0.0197 0.3550 1.1352
C46 C 0.0100(4) 0.4144(6) 1.0405(5)
H49 H -0.0149 0.3656 1.0136
C47 C 0.2104(4) 0.5418(7) 0.8343(6)
C48 C 0.2326(4) 0.5367(7) 0.9042(5)
H50 H 0.2172 0.5870 0.9360
C49 C 0.2790(4) 0.4541(8) 0.9267(5)
H51 H 0.2938 0.4501 0.9733
C50 C 0.3019(5) 0.3800(7) 0.8789(6)
H52 H 0.3298 0.3235 0.8934
C51 C 0.2832(5) 0.3907(9) 0.8107(7)
H53 H 0.3030 0.3455 0.7777
C52 C 0.2355(5) 0.4670(8) 0.7891(5)
H54 H 0.2200 0.4677 0.7427
loop_
_geom_bond_atom_site_label_1
_geom_bond_atom_site_label_2
_geom_bond_site_symmetry_1
_geom_bond_site_symmetry_2
N1 C1 1_555 1_555
O1 C3 1_555 1_555
O2 C3 1_555 1_555
C1 H1 1_555 1_555
C2 C1 1_555 1_555
H2 C2 1_555 1_555
H3 C2 1_555 1_555
C3 C1 1_555 1_555
C4 N1 1_555 1_555
C5 O1 1_555 1_555
C6 C5 1_555 1_555
H4 C6 1_555 1_555
H5 C6 1_555 1_555
H6 C6 1_555 1_555
C7 C5 1_555 1_555
H7 C7 1_555 1_555
H8 C7 1_555 1_555
H9 C7 1_555 1_555
C8 C5 1_555 1_555
H10 C8 1_555 1_555
H11 C8 1_555 1_555
H12 C8 1_555 1_555
C9 C4 1_555 1_555
C10 C9 1_555 1_555
H13 C10 1_555 1_555
C11 C10 1_555 1_555
H14 C11 1_555 1_555
C12 C11 1_555 1_555
H15 C12 1_555 1_555
C13 C12 1_555 1_555
H16 C13 1_555 1_555
C14 C9 1_555 1_555
H17 C14 1_555 1_555
C15 C4 1_555 1_555
C16 C15 1_555 1_555
H18 C16 1_555 1_555
C17 C16 1_555 1_555
H19 C17 1_555 1_555
C18 C17 1_555 1_555
H20 C18 1_555 1_555
C19 C18 1_555 1_555
H21 C19 1_555 1_555
C20 C15 1_555 1_555
H22 C20 1_555 1_555
C21 C2 1_555 1_555
C22 C21 1_555 1_555
H23 C22 1_555 1_555
C23 C22 1_555 1_555
H24 C23 1_555 1_555
C24 C23 1_555 1_555
H25 C24 1_555 1_555
C25 C24 1_555 1_555
H26 C25 1_555 1_555
C26 C21 1_555 1_555
H27 C26 1_555 1_555
N2 C27 1_555 1_555
O3 C29 1_555 1_555
O4 C29 1_555 1_555
C27 H28 1_555 1_555
C28 C27 1_555 1_555
H29 C28 1_555 1_555
H30 C28 1_555 1_555
C29 C27 1_555 1_555
C30 N2 1_555 1_555
C31 O3 1_555 1_555
C32 C31 1_555 1_555
H31 C32 1_555 1_555
H32 C32 1_555 1_555
H33 C32 1_555 1_555
C33 C31 1_555 1_555
H34 C33 1_555 1_555
H35 C33 1_555 1_555
H36 C33 1_555 1_555
C34 C31 1_555 1_555
H37 C34 1_555 1_555
H38 C34 1_555 1_555
H39 C34 1_555 1_555
C35 C30 1_555 1_555
C36 C35 1_555 1_555
H40 C36 1_555 1_555
C37 C36 1_555 1_555
H41 C37 1_555 1_555
C38 C37 1_555 1_555
H42 C38 1_555 1_555
C39 C38 1_555 1_555
H43 C39 1_555 1_555
C40 C35 1_555 1_555
H44 C40 1_555 1_555
C41 C30 1_555 1_555
C42 C41 1_555 1_555
H45 C42 1_555 1_555
C43 C42 1_555 1_555
H46 C43 1_555 1_555
C44 C43 1_555 1_555
H47 C44 1_555 1_555
C45 C44 1_555 1_555
H48 C45 1_555 1_555
C46 C41 1_555 1_555
H49 C46 1_555 1_555
C47 C28 1_555 1_555
C48 C47 1_555 1_555
H50 C48 1_555 1_555
C49 C48 1_555 1_555
H51 C49 1_555 1_555
C50 C49 1_555 1_555
H52 C50 1_555 1_555
C51 C50 1_555 1_555
H53 C51 1_555 1_555
C52 C47 1_555 1_555
H54 C52 1_555 1_555
C13 C14 1_555 1_555
C19 C20 1_555 1_555
C25 C26 1_555 1_555
C39 C40 1_555 1_555
C45 C46 1_555 1_555
C51 C52 1_555 1_555

#END
