
#######################################################################
#
#                 Cambridge Crystallographic Data Centre
#                                CCDC 
#
#######################################################################
#
# If this CIF has been generated from an entry in the Cambridge 
# Structural Database, then it will include bibliographic, chemical, 
# crystal, experimental, refinement or atomic coordinate data resulting 
# from the CCDC's data processing and validation procedures.
#
#######################################################################

data_YIVVUV
_chemical_formula_moiety         'C26 H26 Cl1 N1 O2'
_chemical_name_systematic        
'N-(Diphenylmethylene)-4-chlorophenylalanine t-butyl ester'
_symmetry_cell_setting           monoclinic
_symmetry_space_group_name_H-M   'P 21/c'
_symmetry_Int_Tables_number      14
_space_group_name_Hall           '-P 2ybc'
loop_
_symmetry_equiv_pos_site_id
_symmetry_equiv_pos_as_xyz
1 x,y,z
2 -x,1/2+y,1/2-z
3 -x,-y,-z
4 x,1/2-y,1/2+z
_cell_length_a                   15.095(6)
_cell_length_b                   10.502(4)
_cell_length_c                   15.544(6)
_cell_angle_alpha                90
_cell_angle_beta                 108.517(6)
_cell_angle_gamma                90
_cell_volume                     2336.58
_exptl_crystal_colour            colorless
_exptl_crystal_description       Block
_cell_formula_units_Z            4
loop_
_atom_site_label
_atom_site_type_symbol
_atom_site_fract_x
_atom_site_fract_y
_atom_site_fract_z
Cl1 Cl 0.98881(10) 0.63830(14) 1.08324(9)
N1 N 0.7241(2) 0.9831(3) 0.74531(19)
O1 O 0.7198(2) 1.0297(3) 0.5608(2)
O2 O 0.8060(2) 1.1910(3) 0.6352(2)
C1 C 0.8047(3) 0.9926(4) 0.7123(3)
H1 H 0.8183 0.9087 0.6918
C2 C 0.8886(3) 1.0384(4) 0.7901(3)
H2 H 0.9405 1.0546 0.7675
H3 H 0.8729 1.1179 0.8137
C3 C 0.7780(3) 1.0843(5) 0.6329(3)
C4 C 0.6839(3) 0.8763(4) 0.7455(2)
C5 C 0.6787(3) 1.0938(4) 0.4736(3)
C6 C 0.7531(4) 1.1359(6) 0.4355(3)
H4 H 0.7898 1.2017 0.4732
H5 H 0.7247 1.1682 0.3752
H6 H 0.7925 1.0649 0.4337
C7 C 0.6187(4) 1.2029(5) 0.4824(3)
H7 H 0.6571 1.2680 0.5194
H8 H 0.5739 1.1741 0.5102
H9 H 0.5866 1.2368 0.4234
C8 C 0.6192(4) 0.9895(5) 0.4153(3)
H10 H 0.6585 0.9200 0.4102
H11 H 0.5871 1.0227 0.3560
H12 H 0.5744 0.9600 0.4429
C9 C 0.7108(2) 0.7537(4) 0.7105(3)
C10 C 0.7684(3) 0.6684(4) 0.7687(3)
H13 H 0.7901 0.6854 0.8306
C11 C 0.7946(3) 0.5558(5) 0.7354(4)
H14 H 0.8346 0.4987 0.7748
C12 C 0.7614(4) 0.5299(5) 0.6448(4)
H15 H 0.7784 0.4545 0.6229
C13 C 0.7041(4) 0.6127(5) 0.5867(4)
H16 H 0.6820 0.5947 0.5250
C14 C 0.6786(3) 0.7242(4) 0.6194(3)
H17 H 0.6389 0.7807 0.5791
C15 C 0.6052(3) 0.8728(4) 0.7837(2)
C16 C 0.5892(3) 0.9751(4) 0.8333(3)
H18 H 0.6294 1.0446 0.8443
C17 C 0.5148(4) 0.9753(5) 0.8666(3)
H19 H 0.5051 1.0442 0.9001
C18 C 0.4557(4) 0.8744(5) 0.8500(3)
H20 H 0.4045 0.8758 0.8711
C19 C 0.4701(3) 0.7711(5) 0.8032(3)
H21 H 0.4299 0.7017 0.7937
C20 C 0.5456(3) 0.7698(4) 0.7694(3)
H22 H 0.5556 0.6995 0.7374
C21 C 0.9176(3) 0.9421(5) 0.8654(3)
C22 C 0.9765(3) 0.8425(5) 0.8637(3)
H23 H 1.0016 0.8377 0.8163
C23 C 0.9993(3) 0.7496(5) 0.9301(3)
H24 H 1.0396 0.6837 0.9277
C24 C 0.9616(3) 0.7559(5) 0.9993(3)
C25 C 0.9033(3) 0.8540(5) 1.0027(3)
H25 H 0.8781 0.8585 1.0500
C26 C 0.8819(3) 0.9455(5) 0.9367(3)
H26 H 0.8421 1.0117 0.9400
loop_
_geom_bond_atom_site_label_1
_geom_bond_atom_site_label_2
_geom_bond_site_symmetry_1
_geom_bond_site_symmetry_2
Cl1 C24 1_555 1_555
N1 C1 1_555 1_555
O1 C3 1_555 1_555
O2 C3 1_555 1_555
C1 H1 1_555 1_555
C2 C1 1_555 1_555
H2 C2 1_555 1_555
H3 C2 1_555 1_555
C3 C1 1_555 1_555
C4 N1 1_555 1_555
C5 O1 1_555 1_555
C6 C5 1_555 1_555
H4 C6 1_555 1_555
H5 C6 1_555 1_555
H6 C6 1_555 1_555
C7 C5 1_555 1_555
H7 C7 1_555 1_555
H8 C7 1_555 1_555
H9 C7 1_555 1_555
C8 C5 1_555 1_555
H10 C8 1_555 1_555
H11 C8 1_555 1_555
H12 C8 1_555 1_555
C9 C4 1_555 1_555
C10 C9 1_555 1_555
H13 C10 1_555 1_555
C11 C10 1_555 1_555
H14 C11 1_555 1_555
C12 C11 1_555 1_555
H15 C12 1_555 1_555
C13 C12 1_555 1_555
H16 C13 1_555 1_555
C14 C9 1_555 1_555
H17 C14 1_555 1_555
C15 C4 1_555 1_555
C16 C15 1_555 1_555
H18 C16 1_555 1_555
C17 C16 1_555 1_555
H19 C17 1_555 1_555
C18 C17 1_555 1_555
H20 C18 1_555 1_555
C19 C18 1_555 1_555
H21 C19 1_555 1_555
C20 C15 1_555 1_555
H22 C20 1_555 1_555
C21 C2 1_555 1_555
C22 C21 1_555 1_555
H23 C22 1_555 1_555
C23 C22 1_555 1_555
H24 C23 1_555 1_555
C24 C23 1_555 1_555
C25 C24 1_555 1_555
H25 C25 1_555 1_555
C26 C21 1_555 1_555
H26 C26 1_555 1_555
C13 C14 1_555 1_555
C19 C20 1_555 1_555
C25 C26 1_555 1_555

#END
