
#######################################################################
#
#                 Cambridge Crystallographic Data Centre
#                                CCDC 
#
#######################################################################
#
# If this CIF has been generated from an entry in the Cambridge 
# Structural Database, then it will include bibliographic, chemical, 
# crystal, experimental, refinement or atomic coordinate data resulting 
# from the CCDC's data processing and validation procedures.
#
#######################################################################

data_YIWBOV
_chemical_formula_moiety         'C3 H15 Ca1 N3 O9 2+,C3 H2 N3 O3 1-,H1 O1 1-'
_chemical_name_systematic        
'Hexa-aqua-(cyanuric acid-O)-calcium hydroxide cyanurate'
_symmetry_cell_setting           triclinic
_symmetry_space_group_name_H-M   'P -1'
_symmetry_Int_Tables_number      2
_space_group_name_Hall           '-P 1'
loop_
_symmetry_equiv_pos_site_id
_symmetry_equiv_pos_as_xyz
1 x,y,z
2 -x,-y,-z
_cell_length_a                   6.501
_cell_length_b                   10.814
_cell_length_c                   11.803
_cell_angle_alpha                103.64
_cell_angle_beta                 92.72
_cell_angle_gamma                98.82
_cell_volume                     793.808
_exptl_crystal_colour            colorless
_cell_formula_units_Z            2
loop_
_atom_site_label
_atom_site_type_symbol
_atom_site_fract_x
_atom_site_fract_y
_atom_site_fract_z
Ca1 Ca 0.81125(6) 0.04720(3) 0.31944(3)
O1 O 0.8846(3) 0.1105(2) 0.1337(2)
O2 O 1.1855(2) 0.1149(2) 0.3496(1)
O3 O 0.9053(3) 0.1425(2) 0.5267(1)
O4 O 0.6394(3) -0.0969(2) 0.4189(2)
O5 O 0.9016(3) -0.1449(2) 0.2029(2)
O6 O 0.4696(2) -0.0263(1) 0.2141(1)
O8 O 0.6574(2) 0.2385(1) 0.3482(1)
O9 O 0.7939(3) 0.6134(1) 0.2405(1)
O10 O 0.7892(2) 0.6171(1) 0.6243(1)
N1 N 0.7168(3) 0.4269(2) 0.2936(1)
N2 N 0.7981(3) 0.6256(2) 0.4345(1)
N3 N 0.7216(3) 0.4282(2) 0.4876(1)
C1 C 0.6968(3) 0.3569(2) 0.3749(2)
C2 C 0.7714(3) 0.5605(2) 0.3224(2)
C3 C 0.7709(3) 0.5617(2) 0.5184(2)
O7 O 0.3088(3) 0.0912(2) 0.0553(2)
O11 O 0.6443(2) 0.2983(1) 0.0539(1)
O12 O 0.6650(2) 0.3096(1) -0.3266(1)
O13 O 0.8598(3) 0.6756(1) -0.0411(1)
N4 N 0.6532(3) 0.2929(2) -0.1393(1)
N5 N 0.7549(3) 0.4928(2) -0.1855(1)
N6 N 0.7489(3) 0.4864(2) 0.0063(1)
C4 C 0.6800(3) 0.3551(2) -0.0253(2)
C5 C 0.6888(3) 0.3608(2) -0.2197(2)
C6 C 0.7924(3) 0.5604(2) -0.0712(2)
loop_
_geom_bond_atom_site_label_1
_geom_bond_atom_site_label_2
_geom_bond_site_symmetry_1
_geom_bond_site_symmetry_2
Ca1 O1 1_555 1_555
O2 Ca1 1_555 1_555
O3 Ca1 1_555 1_555
O4 Ca1 1_555 1_555
O5 Ca1 1_555 1_555
O6 Ca1 1_555 1_555
O8 Ca1 1_555 1_555
O9 C2 1_555 1_555
O10 C3 1_555 1_555
O11 C4 1_555 1_555
O12 C5 1_555 1_555
O13 C6 1_555 1_555
N1 C1 1_555 1_555
N2 C2 1_555 1_555
N3 C1 1_555 1_555
N4 C4 1_555 1_555
N5 C5 1_555 1_555
N6 C4 1_555 1_555
C1 O8 1_555 1_555
C2 N1 1_555 1_555
C3 N2 1_555 1_555
C5 N4 1_555 1_555
C6 N5 1_555 1_555
N3 C3 1_555 1_555
N6 C6 1_555 1_555

#END
