
#######################################################################
#
#                 Cambridge Crystallographic Data Centre
#                                CCDC 
#
#######################################################################
#
# If this CIF has been generated from an entry in the Cambridge 
# Structural Database, then it will include bibliographic, chemical, 
# crystal, experimental, refinement or atomic coordinate data resulting 
# from the CCDC's data processing and validation procedures.
#
#######################################################################

data_YIWGEQ
_chemical_formula_moiety         'C29 H30 F1 N1 O4'
_chemical_name_systematic        
(3S,5S)-1-(t-Butoxycarbonyl)-3-fluoro-5-(trityloxymethyl)-2-pyrrolidinone
_symmetry_cell_setting           orthorhombic
_symmetry_space_group_name_H-M   'P 21 21 21'
_symmetry_Int_Tables_number      19
_space_group_name_Hall           'P 2ac 2ab'
loop_
_symmetry_equiv_pos_site_id
_symmetry_equiv_pos_as_xyz
1 x,y,z
2 1/2-x,-y,1/2+z
3 -x,1/2+y,1/2-z
4 1/2+x,1/2-y,-z
_cell_length_a                   7.89950(10)
_cell_length_b                   11.97150(10)
_cell_length_c                   26.087
_cell_angle_alpha                90
_cell_angle_beta                 90
_cell_angle_gamma                90
_cell_volume                     2467.02
_exptl_crystal_colour            colorless
_exptl_crystal_description       rectangular
_chemical_melting_point          403-407K
_cell_formula_units_Z            4
_exptl_crystal_recrystallization_method ethanol
loop_
_atom_site_label
_atom_site_type_symbol
_atom_site_fract_x
_atom_site_fract_y
_atom_site_fract_z
N1 N 0.5353(2) 0.34800(10) 0.92462(5)
F1 F 0.69740(14) 0.27142(10) 0.81014(4)
O1 O 0.36889(14) 0.52296(8) 0.87933(4)
O2 O 0.4345(2) 0.19953(10) 0.87517(5)
O3 O 0.3867(2) 0.23526(10) 0.98051(4)
O4 O 0.52568(14) 0.39137(9) 1.00739(4)
C1 C 0.2546(2) 0.60919(12) 0.86168(6)
C2 C 0.1589(2) 0.55413(13) 0.81687(6)
C3 C 0.1362(2) 0.43911(13) 0.81566(6)
H1 H 0.1843(24) 0.3931(15) 0.8419(7)
C4 C 0.0394(2) 0.38965(13) 0.77740(6)
H2 H 0.0182(25) 0.3073(15) 0.7779(7)
C5 C -0.0384(2) 0.45424(14) 0.74029(6)
H3 H -0.1115(26) 0.4199(15) 0.7147(7)
C6 C -0.0146(3) 0.5685(2) 0.74080(7)
H4 H -0.0570(28) 0.6165(17) 0.7132(8)
C7 C 0.0852(3) 0.61812(15) 0.77853(7)
H5 H 0.1013(30) 0.6987(19) 0.7801(8)
C8 C 0.3602(2) 0.70943(12) 0.84358(6)
C9 C 0.4687(3) 0.69362(14) 0.80202(6)
H6 H 0.4664(26) 0.6214(16) 0.7842(7)
C10 C 0.5787(3) 0.7769(2) 0.78618(7)
H7 H 0.6556(30) 0.7650(18) 0.7568(8)
C11 C 0.5805(2) 0.8795(2) 0.81125(8)
H8 H 0.6557(30) 0.9373(19) 0.8003(8)
C12 C 0.4733(2) 0.89688(14) 0.85240(7)
H9 H 0.4704(25) 0.9699(16) 0.8702(7)
C13 C 0.3652(2) 0.81184(13) 0.86905(7)
H10 H 0.2911(26) 0.8258(16) 0.8982(8)
C14 C 0.1208(2) 0.63563(12) 0.90290(6)
C15 C 0.1044(2) 0.5691(2) 0.94667(6)
H11 H 0.1771(24) 0.5073(16) 0.9523(7)
C16 C -0.0214(2) 0.5906(2) 0.98291(7)
H12 H -0.0327(27) 0.5416(17) 1.0120(8)
C17 C -0.1335(2) 0.6778(2) 0.97577(8)
H13 H -0.2211(27) 0.6904(16) 1.0007(8)
C18 C -0.1229(2) 0.74206(15) 0.93155(8)
H14 H -0.2064(26) 0.8009(16) 0.9260(7)
C19 C 0.0032(2) 0.72100(14) 0.89556(7)
H15 H 0.0082(28) 0.7687(17) 0.8640(8)
C20 C 0.4977(2) 0.55295(12) 0.91537(6)
H16 H 0.4476(21) 0.5648(14) 0.9500(6)
H17 H 0.5586(21) 0.6235(14) 0.9032(6)
C21 C 0.6223(2) 0.45608(12) 0.91528(6)
H18 H 0.7098(22) 0.4679(13) 0.9422(6)
C22 C 0.7046(2) 0.4380(2) 0.86225(6)
H19 H 0.7033(24) 0.5068(16) 0.8423(7)
H20 H 0.8180(23) 0.4092(14) 0.8655(7)
C23 C 0.5985(2) 0.34912(14) 0.83662(6)
H21 H 0.5133(19) 0.3804(11) 0.8083(5)
C24 C 0.5097(2) 0.28684(13) 0.87987(6)
C25 C 0.4726(2) 0.31670(12) 0.97301(6)
C26 C 0.4752(2) 0.38371(13) 1.06218(6)
C27 C 0.5132(3) 0.26878(14) 1.08434(7)
H22 H 0.4910(27) 0.2710(16) 1.1231(8)
H23 H 0.6333(29) 0.2491(16) 1.0773(7)
H24 H 0.4340(26) 0.2114(17) 1.0699(7)
C28 C 0.5895(3) 0.4712(2) 1.08626(7)
H25 H 0.5536(28) 0.4765(17) 1.1229(9)
H26 H 0.5672(24) 0.5436(17) 1.0700(7)
H27 H 0.7075(28) 0.4460(17) 1.0833(8)
C29 C 0.2896(3) 0.4151(2) 1.06593(8)
H28 H 0.2572(28) 0.4106(18) 1.1030(9)
H29 H 0.2176(27) 0.3576(17) 1.0449(8)
H30 H 0.2718(25) 0.4923(18) 1.0514(7)
loop_
_geom_bond_atom_site_label_1
_geom_bond_atom_site_label_2
_geom_bond_site_symmetry_1
_geom_bond_site_symmetry_2
N1 C21 1_555 1_555
F1 C23 1_555 1_555
O1 C1 1_555 1_555
O2 C24 1_555 1_555
O3 C25 1_555 1_555
O4 C25 1_555 1_555
C1 C2 1_555 1_555
C2 C3 1_555 1_555
C3 H1 1_555 1_555
C4 C3 1_555 1_555
H2 C4 1_555 1_555
C5 C4 1_555 1_555
H3 C5 1_555 1_555
C6 C5 1_555 1_555
H4 C6 1_555 1_555
C7 C2 1_555 1_555
H5 C7 1_555 1_555
C8 C1 1_555 1_555
C9 C8 1_555 1_555
H6 C9 1_555 1_555
C10 C9 1_555 1_555
H7 C10 1_555 1_555
C11 C10 1_555 1_555
H8 C11 1_555 1_555
C12 C11 1_555 1_555
H9 C12 1_555 1_555
C13 C8 1_555 1_555
H10 C13 1_555 1_555
C14 C1 1_555 1_555
C15 C14 1_555 1_555
H11 C15 1_555 1_555
C16 C15 1_555 1_555
H12 C16 1_555 1_555
C17 C16 1_555 1_555
H13 C17 1_555 1_555
C18 C17 1_555 1_555
H14 C18 1_555 1_555
C19 C14 1_555 1_555
H15 C19 1_555 1_555
C20 O1 1_555 1_555
H16 C20 1_555 1_555
H17 C20 1_555 1_555
C21 C20 1_555 1_555
H18 C21 1_555 1_555
C22 C21 1_555 1_555
H19 C22 1_555 1_555
H20 C22 1_555 1_555
C23 C22 1_555 1_555
H21 C23 1_555 1_555
C24 N1 1_555 1_555
C25 N1 1_555 1_555
C26 O4 1_555 1_555
C27 C26 1_555 1_555
H22 C27 1_555 1_555
H23 C27 1_555 1_555
H24 C27 1_555 1_555
C28 C26 1_555 1_555
H25 C28 1_555 1_555
H26 C28 1_555 1_555
H27 C28 1_555 1_555
C29 C26 1_555 1_555
H28 C29 1_555 1_555
H29 C29 1_555 1_555
H30 C29 1_555 1_555
C6 C7 1_555 1_555
C12 C13 1_555 1_555
C18 C19 1_555 1_555
C23 C24 1_555 1_555

#END
