
#######################################################################
#
#                 Cambridge Crystallographic Data Centre
#                                CCDC 
#
#######################################################################
#
# If this CIF has been generated from an entry in the Cambridge 
# Structural Database, then it will include bibliographic, chemical, 
# crystal, experimental, refinement or atomic coordinate data resulting 
# from the CCDC's data processing and validation procedures.
#
#######################################################################

data_YIWZAG
_chemical_formula_moiety         'C16 H14 Cl2 N2 O4'
_chemical_name_systematic        
4,4'-Dichloro-2,2'-(ethylenedioxybis(nitrilomethylidyne))diphenol
_symmetry_cell_setting           monoclinic
_symmetry_space_group_name_H-M   'P 21/n'
_symmetry_Int_Tables_number      14
_space_group_name_Hall           '-P 2yn'
loop_
_symmetry_equiv_pos_site_id
_symmetry_equiv_pos_as_xyz
1 x,y,z
2 1/2-x,1/2+y,1/2-z
3 -x,-y,-z
4 1/2+x,1/2-y,1/2+z
_cell_length_a                   4.0771(11)
_cell_length_b                   11.7135(15)
_cell_length_c                   17.502(2)
_cell_angle_alpha                90
_cell_angle_beta                 96.618(2)
_cell_angle_gamma                90
_cell_volume                     830.275
_exptl_crystal_colour            colorless
_exptl_crystal_description       block
_chemical_melting_point          138-140deg.C
_cell_formula_units_Z            2
_exptl_crystal_recrystallization_method acetone
loop_
_atom_site_label
_atom_site_type_symbol
_atom_site_fract_x
_atom_site_fract_y
_atom_site_fract_z
Cl1 Cl 0.1381(2) 0.81375(7) 0.44048(4)
N1 N 0.7252(6) 1.00091(19) 0.14694(12)
O1 O 0.8239(5) 0.94681(15) 0.08159(10)
O2 O 0.6213(5) 1.16591(16) 0.24409(11)
H1 H 0.6774 1.1387 0.2044
C1 C 0.9457(7) 1.0312(2) 0.03350(14)
H2 H 1.1299 1.0720 0.0611
H3 H 0.7737 1.0857 0.0164
C2 C 0.6165(7) 0.9299(2) 0.19270(15)
H4 H 0.6090 0.8527 0.1801
C3 C 0.5033(6) 0.9672(2) 0.26457(14)
C4 C 0.5119(7) 1.0812(2) 0.28761(15)
C5 C 0.4059(8) 1.1106(3) 0.35708(16)
H5 H 0.4126 1.1867 0.3724
C6 C 0.2910(7) 1.0296(3) 0.40389(16)
H6 H 0.2205 1.0505 0.4506
C7 C 0.2810(6) 0.9173(2) 0.38099(15)
C8 C 0.3861(6) 0.8857(2) 0.31255(14)
H7 H 0.3792 0.8093 0.2980
Cl1B Cl 1.8619(2) 1.18625(7) -0.44048(4)
N1B N 1.2748(6) 0.99909(19) -0.14694(12)
O1B O 1.1761(5) 1.05319(15) -0.08159(10)
O2B O 1.3787(5) 0.83409(16) -0.24409(11)
H1B H 1.3226 0.8613 -0.2044
C1B C 1.0543(7) 0.9688(2) -0.03350(14)
H2B H 0.8701 0.9280 -0.0611
H3B H 1.2263 0.9143 -0.0164
C2B C 1.3835(7) 1.0701(2) -0.19270(15)
H4B H 1.3910 1.1473 -0.1801
C3B C 1.4967(6) 1.0328(2) -0.26457(14)
C4B C 1.4881(7) 0.9188(2) -0.28761(15)
C5B C 1.5941(8) 0.8894(3) -0.35708(16)
H5B H 1.5874 0.8133 -0.3724
C6B C 1.7090(7) 0.9704(3) -0.40389(16)
H6B H 1.7795 0.9495 -0.4506
C7B C 1.7190(6) 1.0827(2) -0.38099(15)
C8B C 1.6139(6) 1.1143(2) -0.31255(14)
H7B H 1.6208 1.1907 -0.2980
loop_
_geom_bond_atom_site_label_1
_geom_bond_atom_site_label_2
_geom_bond_site_symmetry_1
_geom_bond_site_symmetry_2
Cl1 C7 1_555 1_555
N1 O1 1_555 1_555
O1 C1 1_555 1_555
O2 H1 1_555 1_555
C1 H2 1_555 1_555
H3 C1 1_555 1_555
C2 N1 1_555 1_555
H4 C2 1_555 1_555
C3 C2 1_555 1_555
C4 O2 1_555 1_555
C5 C4 1_555 1_555
H5 C5 1_555 1_555
C6 C5 1_555 1_555
H6 C6 1_555 1_555
C7 C6 1_555 1_555
C8 C3 1_555 1_555
H7 C8 1_555 1_555
Cl1B C7B 1_555 1_555
N1B O1B 1_555 1_555
O1B C1B 1_555 1_555
O2B H1B 1_555 1_555
C1B C1 1_555 1_555
H2B C1B 1_555 1_555
H3B C1B 1_555 1_555
C2B N1B 1_555 1_555
H4B C2B 1_555 1_555
C3B C2B 1_555 1_555
C4B O2B 1_555 1_555
C5B C4B 1_555 1_555
H5B C5B 1_555 1_555
C6B C5B 1_555 1_555
H6B C6B 1_555 1_555
C7B C6B 1_555 1_555
C8B C3B 1_555 1_555
H7B C8B 1_555 1_555
C3 C4 1_555 1_555
C7 C8 1_555 1_555
C3B C4B 1_555 1_555
C7B C8B 1_555 1_555

#END
