
#######################################################################
#
#                 Cambridge Crystallographic Data Centre
#                                CCDC 
#
#######################################################################
#
# If this CIF has been generated from an entry in the Cambridge 
# Structural Database, then it will include bibliographic, chemical, 
# crystal, experimental, refinement or atomic coordinate data resulting 
# from the CCDC's data processing and validation procedures.
#
#######################################################################

data_YIXKUN
_chemical_formula_moiety         '2(C60 H40 N4 O4),C4 H8 O1'
_chemical_name_systematic        
'2,18-bis(diphenylmethylene)-7,13,23,29-tetraoxa-10,26,35,40-tetraazaheptacyclo[28.2.2.2^3,6^.2^14,17^.2^19,22^.1^8,12^.1^24,28^]dotetraconta-1(32),3,5,8(40),9,11,14,16,19,21,24(35),25,27,30,33,36,38,41-octadecaene tetrahydrofuran solvate'
_symmetry_cell_setting           triclinic
_symmetry_space_group_name_H-M   'P -1'
_symmetry_Int_Tables_number      2
_space_group_name_Hall           '-P 1'
loop_
_symmetry_equiv_pos_site_id
_symmetry_equiv_pos_as_xyz
1 x,y,z
2 -x,-y,-z
_cell_length_a                   12.237(4)
_cell_length_b                   12.745(4)
_cell_length_c                   17.157(6)
_cell_angle_alpha                79.464(6)
_cell_angle_beta                 89.857(6)
_cell_angle_gamma                65.497(5)
_cell_volume                     2385.72
_cell_formula_units_Z            1
loop_
_atom_site_label
_atom_site_type_symbol
_atom_site_fract_x
_atom_site_fract_y
_atom_site_fract_z
C1 C 0.2889(4) 0.1400(4) 0.4470(2)
C2 C 0.2047(4) 0.1477(4) 0.5023(2)
H1 H 0.1449 0.1226 0.4946
C3 C 0.2963(4) 0.2268(4) 0.5746(3)
H2 H 0.3016 0.2589 0.6182
C4 C 0.3789(4) 0.2162(3) 0.5181(2)
C5 C 0.5550(3) 0.2389(3) 0.4748(2)
C6 C 0.6732(4) 0.1871(4) 0.5040(2)
H3 H 0.6934 0.1575 0.5582
C7 C 0.7623(4) 0.1787(3) 0.4531(2)
H4 H 0.8426 0.1433 0.4732
C8 C 0.7334(3) 0.2229(3) 0.3715(2)
C9 C 0.6120(3) 0.2734(3) 0.3446(2)
H5 H 0.5906 0.3018 0.2903
C10 C 0.5224(4) 0.2830(3) 0.3951(2)
H6 H 0.4418 0.3184 0.3757
C11 C 0.8272(3) 0.2132(3) 0.3146(2)
C12 C 0.9259(3) 0.0921(3) 0.3214(2)
C13 C 1.0447(3) 0.0717(3) 0.3127(2)
H7 H 1.0652 0.1352 0.3041
C14 C 1.1344(4) -0.0405(3) 0.3164(2)
H8 H 1.2137 -0.0523 0.3095
C15 C 1.1033(3) -0.1349(3) 0.3305(2)
C16 C 0.9861(3) -0.1184(3) 0.3424(2)
H9 H 0.9664 -0.1823 0.3536
C17 C 0.8984(4) -0.0049(3) 0.3372(2)
H10 H 0.8191 0.0068 0.3445
C18 C 1.1847(4) -0.3318(3) 0.3073(2)
C19 C 1.2721(4) -0.4441(4) 0.3306(3)
H11 H 1.3362 -0.4590 0.3664
C20 C 1.1719(4) -0.5070(4) 0.2517(3)
H12 H 1.1640 -0.5664 0.2312
C21 C 1.0861(3) -0.3921(4) 0.2298(2)
C22 C 0.8941(3) -0.2620(3) 0.1634(2)
C23 C 0.9046(3) -0.1584(3) 0.1346(2)
H13 H 0.9795 -0.1598 0.1234
C24 C 0.8037(3) -0.0533(3) 0.1226(2)
H14 H 0.8115 0.0164 0.1044
C25 C 0.6901(3) -0.0491(3) 0.1370(2)
C26 C 0.6817(3) -0.1546(3) 0.1644(2)
H15 H 0.6066 -0.1540 0.1743
C27 C 0.7823(4) -0.2605(3) 0.1774(2)
H16 H 0.7750 -0.3304 0.1955
C28 C 0.5810(3) 0.0661(3) 0.1272(2)
C29 C 0.5011(3) 0.0765(3) 0.1939(2)
C30 C 0.5500(4) 0.0297(3) 0.2718(2)
H17 H 0.6333 -0.0090 0.2819
C31 C 0.4787(4) 0.0386(3) 0.3352(2)
H18 H 0.5140 0.0065 0.3870
C32 C 0.3561(4) 0.0947(3) 0.3213(2)
C33 C 0.3036(4) 0.1418(3) 0.2450(2)
H19 H 0.2202 0.1794 0.2359
C34 C 0.3749(3) 0.1335(3) 0.1814(2)
H20 H 0.3387 0.1661 0.1299
C35 C 0.8189(3) 0.3069(3) 0.2590(2)
C36 C 0.8971(3) 0.2979(3) 0.1915(2)
C37 C 0.9546(3) 0.3722(3) 0.1731(2)
H21 H 0.9438 0.4286 0.2035
C38 C 1.0273(4) 0.3641(4) 0.1107(2)
H22 H 1.0669 0.4131 0.1008
C39 C 1.0415(4) 0.2838(4) 0.0629(2)
H23 H 1.0899 0.2785 0.0206
C40 C 0.9823(4) 0.2113(4) 0.0790(2)
H24 H 0.9907 0.1573 0.0469
C41 C 0.9112(4) 0.2181(3) 0.1420(2)
H25 H 0.8719 0.1689 0.1517
C42 C 0.7253(4) 0.4280(3) 0.2603(2)
C43 C 0.7061(4) 0.4722(4) 0.3296(3)
H26 H 0.7570 0.4287 0.3753
C44 C 0.6120(5) 0.5804(4) 0.3322(3)
H27 H 0.5999 0.6088 0.3792
C45 C 0.5371(4) 0.6450(4) 0.2648(3)
H28 H 0.4726 0.7163 0.2666
C46 C 0.5571(4) 0.6047(4) 0.1950(3)
H29 H 0.5081 0.6501 0.1489
C47 C 0.6503(4) 0.4963(3) 0.1929(2)
H30 H 0.6625 0.4690 0.1455
C48 C 0.5591(3) 0.1552(3) 0.0648(2)
C49 C 0.6355(3) 0.1452(3) -0.0043(2)
C50 C 0.6554(3) 0.0617(3) -0.0507(2)
H31 H 0.6184 0.0105 -0.0401
C51 C 0.7295(4) 0.0535(4) -0.1124(2)
H32 H 0.7431 -0.0040 -0.1423
C52 C 0.7831(4) 0.1302(4) -0.1297(2)
H33 H 0.8332 0.1244 -0.1711
C53 C 0.7622(4) 0.2149(3) -0.0856(2)
H34 H 0.7984 0.2667 -0.0970
C54 C 0.6880(3) 0.2237(3) -0.0245(2)
H35 H 0.6724 0.2833 0.0038
C55 C 0.4589(3) 0.2743(3) 0.0589(2)
C56 C 0.3633(3) 0.3138(3) 0.0013(2)
H36 H 0.3635 0.2661 -0.0337
C57 C 0.2685(4) 0.4224(4) -0.0044(2)
H37 H 0.2037 0.4470 -0.0420
C58 C 0.2703(4) 0.4944(4) 0.0457(3)
H38 H 0.2063 0.5679 0.0418
C59 C 0.3651(4) 0.4591(4) 0.1012(3)
H39 H 0.3665 0.5092 0.1340
C60 C 0.4590(4) 0.3481(3) 0.1085(2)
H40 H 0.5225 0.3233 0.1471
N1 N 0.3764(3) 0.1724(3) 0.45456(18)
N2 N 0.2093(3) 0.1916(3) 0.5671(2)
N3 N 1.0924(3) -0.3051(3) 0.25701(18)
N4 N 1.2657(4) -0.5323(3) 0.3022(2)
O1 O 0.2768(2) 0.0993(2) 0.38105(15)
O2 O 0.4691(2) 0.2485(2) 0.53087(16)
O3 O 0.9925(2) -0.3722(2) 0.17732(16)
O4 O 1.1990(2) -0.2462(2) 0.33786(15)
C61? C 1.0249(12) 0.5671(12) 0.4166(7)
H41? H 1.0830 0.5570 0.3776
H42? H 0.9480 0.6330 0.4016
C62? C 0.9844(14) 0.4701(14) 0.4149(7)
H43? H 0.9329 0.5359 0.3743
H44? H 1.0319 0.3989 0.3973
C63? C 0.9311(6) 0.4563(7) 0.5000(4)
H45? H 0.8485 0.5014 0.4796
H46? H 0.9555 0.3734 0.5196
O5? O 0.9780(12) 0.5146(13) 0.5498(7)
loop_
_geom_bond_atom_site_label_1
_geom_bond_atom_site_label_2
_geom_bond_site_symmetry_1
_geom_bond_site_symmetry_2
C1 C2 1_555 1_555
C2 H1 1_555 1_555
C3 H2 1_555 1_555
C4 C3 1_555 1_555
C5 C6 1_555 1_555
C6 H3 1_555 1_555
C7 C6 1_555 1_555
H4 C7 1_555 1_555
C8 C7 1_555 1_555
C9 C8 1_555 1_555
H5 C9 1_555 1_555
C10 C5 1_555 1_555
H6 C10 1_555 1_555
C11 C8 1_555 1_555
C12 C11 1_555 1_555
C13 C12 1_555 1_555
H7 C13 1_555 1_555
C14 C13 1_555 1_555
H8 C14 1_555 1_555
C15 C14 1_555 1_555
C16 C15 1_555 1_555
H9 C16 1_555 1_555
C17 C12 1_555 1_555
H10 C17 1_555 1_555
C18 C19 1_555 1_555
C19 H11 1_555 1_555
C20 H12 1_555 1_555
C21 C20 1_555 1_555
C22 C23 1_555 1_555
C23 H13 1_555 1_555
C24 C23 1_555 1_555
H14 C24 1_555 1_555
C25 C24 1_555 1_555
C26 C25 1_555 1_555
H15 C26 1_555 1_555
C27 C22 1_555 1_555
H16 C27 1_555 1_555
C28 C25 1_555 1_555
C29 C28 1_555 1_555
C30 C29 1_555 1_555
H17 C30 1_555 1_555
C31 C30 1_555 1_555
H18 C31 1_555 1_555
C32 C31 1_555 1_555
C33 C32 1_555 1_555
H19 C33 1_555 1_555
C34 C29 1_555 1_555
H20 C34 1_555 1_555
C35 C11 1_555 1_555
C36 C35 1_555 1_555
C37 C36 1_555 1_555
H21 C37 1_555 1_555
C38 C37 1_555 1_555
H22 C38 1_555 1_555
C39 C38 1_555 1_555
H23 C39 1_555 1_555
C40 C39 1_555 1_555
H24 C40 1_555 1_555
C41 C36 1_555 1_555
H25 C41 1_555 1_555
C42 C35 1_555 1_555
C43 C42 1_555 1_555
H26 C43 1_555 1_555
C44 C43 1_555 1_555
H27 C44 1_555 1_555
C45 C44 1_555 1_555
H28 C45 1_555 1_555
C46 C45 1_555 1_555
H29 C46 1_555 1_555
C47 C42 1_555 1_555
H30 C47 1_555 1_555
C48 C28 1_555 1_555
C49 C48 1_555 1_555
C50 C49 1_555 1_555
H31 C50 1_555 1_555
C51 C50 1_555 1_555
H32 C51 1_555 1_555
C52 C51 1_555 1_555
H33 C52 1_555 1_555
C53 C52 1_555 1_555
H34 C53 1_555 1_555
C54 C49 1_555 1_555
H35 C54 1_555 1_555
C55 C48 1_555 1_555
C56 C55 1_555 1_555
H36 C56 1_555 1_555
C57 C56 1_555 1_555
H37 C57 1_555 1_555
C58 C57 1_555 1_555
H38 C58 1_555 1_555
C59 C58 1_555 1_555
H39 C59 1_555 1_555
C60 C55 1_555 1_555
H40 C60 1_555 1_555
N1 C1 1_555 1_555
N2 C2 1_555 1_555
N3 C18 1_555 1_555
N4 C19 1_555 1_555
O1 C1 1_555 1_555
O2 C4 1_555 1_555
O3 C21 1_555 1_555
O4 C15 1_555 1_555
C3 N2 1_555 1_555
C4 N1 1_555 1_555
C5 O2 1_555 1_555
C9 C10 1_555 1_555
C16 C17 1_555 1_555
C18 O4 1_555 1_555
C20 N4 1_555 1_555
C21 N3 1_555 1_555
C22 O3 1_555 1_555
C26 C27 1_555 1_555
C32 O1 1_555 1_555
C33 C34 1_555 1_555
C40 C41 1_555 1_555
C46 C47 1_555 1_555
C53 C54 1_555 1_555
C59 C60 1_555 1_555

#END
