
#######################################################################
#
#                 Cambridge Crystallographic Data Centre
#                                CCDC 
#
#######################################################################
#
# If this CIF has been generated from an entry in the Cambridge 
# Structural Database, then it will include bibliographic, chemical, 
# crystal, experimental, refinement or atomic coordinate data resulting 
# from the CCDC's data processing and validation procedures.
#
#######################################################################

data_YIXKOH
_chemical_formula_moiety         'C60 H40 N4 O4,C6 H6'
_chemical_name_systematic        
'2,18-bis(diphenylmethylene)-7,13,23,29-tetraoxa-10,26,35,40-tetraazaheptacyclo[28.2.2.2^3,6^.2^14,17^.2^19,22^.1^8,12^.1^24,28^]dotetraconta-1(32),3,5,8(40),9,11,14,16,19,21,24(35),25,27,30,33,36,38,41-octadecaene benzene solvate'
_symmetry_cell_setting           triclinic
_symmetry_space_group_name_H-M   'P -1'
_symmetry_Int_Tables_number      2
_space_group_name_Hall           '-P 1'
loop_
_symmetry_equiv_pos_site_id
_symmetry_equiv_pos_as_xyz
1 x,y,z
2 -x,-y,-z
_cell_length_a                   12.024(3)
_cell_length_b                   12.744(3)
_cell_length_c                   18.613(5)
_cell_angle_alpha                97.529(4)
_cell_angle_beta                 98.367(4)
_cell_angle_gamma                115.203(3)
_cell_volume                     2493.12
_cell_formula_units_Z            2
loop_
_atom_site_label
_atom_site_type_symbol
_atom_site_fract_x
_atom_site_fract_y
_atom_site_fract_z
C1 C 0.6641(3) 0.4397(2) 0.88818(16)
H1 H 0.6602 0.5108 0.9068
O1 O 0.45812(18) 0.11726(16) 0.83394(11)
O2 O 0.21983(18) 0.24020(17) 0.67832(11)
O3 O 0.90074(18) 0.70210(18) 0.48377(11)
O4 O 1.14107(19) 0.59251(19) 0.64541(11)
N1 N 1.0166(2) 0.6445(2) 0.56574(13)
C2 C 0.8904(3) 0.5637(2) 0.88382(15)
C3 C 0.6051(3) 0.7021(2) 0.69516(16)
N2 N 0.3436(2) 0.1838(2) 0.75651(13)
C4 C 0.7949(3) 1.0782(3) 0.67786(18)
H2 H 0.7888 1.1063 0.6333
C5 C 0.8866(3) 0.5250(3) 0.74781(16)
H3 H 0.7973 0.4839 0.7392
C6 C 0.3204(3) 0.3513(2) 0.68465(16)
C7 C 0.6250(3) 0.7969(2) 0.74664(16)
C8 C 0.7768(3) 0.4455(2) 0.87370(15)
C9 C 0.9262(3) 0.6528(2) 0.94310(15)
C10 C 1.0285(3) 0.7754(2) 0.94941(15)
C11 C 0.8302(3) 0.7053(2) 0.53724(16)
C12 C 0.6289(3) 0.6453(2) 0.56635(16)
H4 H 0.5396 0.6027 0.5513
C13 C 0.8565(3) 0.5583(3) 1.05031(16)
H5 H 0.8890 0.5037 1.0382
C14 C 0.8153(3) 0.7722(2) 0.65918(17)
H6 H 0.8554 0.8169 0.7086
C15 C 1.1980(3) 0.6374(3) 0.53375(17)
H7 H 1.2678 0.6216 0.5471
C16 C 0.4405(3) 0.3696(2) 0.67879(16)
H8 H 0.4603 0.3047 0.6726
C17 C 1.0811(3) 0.6924(3) 0.45445(17)
H9 H 1.0655 0.7168 0.4096
C18 C 0.5068(3) 0.8604(3) 0.82953(16)
H10 H 0.5069 0.9155 0.7998
C19 C 0.5635(3) 0.7089(3) 0.85683(17)
H11 H 0.6030 0.6597 0.8465
C20 C 0.7988(3) 0.5538(3) 1.11044(17)
H12 H 0.7932 0.4968 1.1397
C21 C 0.7002(3) 0.6420(3) 0.51456(17)
H13 H 0.6609 0.5976 0.4650
C22 C 0.2464(3) -0.0123(2) 0.77696(17)
H14 H 0.2547 -0.0717 0.7999
C23 C 0.1296(3) 0.0496(2) 0.70207(17)
H15 H 0.0523 0.0361 0.6714
C24 C 0.7799(3) 0.3398(2) 0.84687(16)
H16 H 0.8564 0.3419 0.8378
C25 C 0.8895(3) 1.1503(3) 0.73952(18)
H17 H 0.9493 1.2274 0.7373
C26 C 0.9422(3) 0.5313(3) 0.68759(17)
H18 H 0.8927 0.4956 0.6384
N3 N 0.1357(2) -0.0360(2) 0.73398(15)
C27 C 0.3478(3) 0.0972(2) 0.78812(16)
C28 C 0.7613(3) 0.7163(3) 1.08694(17)
H19 H 0.7288 0.7708 1.0991
C29 C 0.9561(3) 0.5763(2) 0.82060(16)
C30 C 1.0730(3) 0.5918(3) 0.70139(16)
N4 N 1.1798(2) 0.6705(2) 0.47045(14)
C31 C 0.8201(3) 0.7225(2) 1.02812(16)
H20 H 0.8292 0.7826 1.0009
C32 C 0.8880(3) 0.7715(2) 0.60846(16)
H21 H 0.9772 0.8163 0.6226
C33 C 1.0009(3) 0.6798(2) 0.50278(16)
C34 C 0.2342(3) 0.1574(2) 0.71315(16)
C35 C 1.1157(3) 0.6254(3) 0.58099(16)
C36 C 0.7162(3) 0.9214(2) 0.74478(16)
C37 C 1.1445(3) 0.6433(2) 0.77195(16)
H22 H 1.2337 0.6842 0.7801
C38 C 0.2910(3) 0.4452(2) 0.69131(16)
H23 H 0.2078 0.4317 0.6939
C39 C 0.6736(3) 0.2321(2) 0.83322(16)
H24 H 0.6767 0.1605 0.8146
C40 C 1.0111(3) 0.8489(2) 0.90490(17)
H25 H 0.9352 0.8204 0.8682
C41 C 1.1045(3) 0.9635(3) 0.91414(19)
H26 H 1.0920 1.0147 0.8846
C42 C 0.8966(3) 1.1093(3) 0.80478(18)
H27 H 0.9609 1.1586 0.8476
C43 C 0.8096(3) 0.9965(2) 0.80724(17)
H28 H 0.8137 0.9697 0.8524
C44 C 1.2158(3) 1.0039(3) 0.96604(19)
H29 H 1.2804 1.0824 0.9716
C45 C 0.8662(3) 0.6429(2) 1.00811(16)
C46 C 0.6831(3) 0.7082(2) 0.63918(16)
C47 C 0.5064(3) 0.7016(3) 0.91639(17)
H30 H 0.5061 0.6466 0.9463
C48 C 1.1396(3) 0.8185(3) 1.00268(17)
H31 H 1.1509 0.7698 1.0346
C49 C 1.0871(3) 0.6360(2) 0.83169(16)
H32 H 1.1375 0.6721 0.8807
C50 C 0.4499(3) 0.8537(3) 0.88979(17)
H33 H 0.4117 0.9036 0.9011
C51 C 0.4496(3) 0.7731(3) 0.93318(17)
H34 H 0.4104 0.7670 0.9743
C52 C 1.2337(3) 0.9316(3) 1.00968(18)
H35 H 1.3112 0.9594 1.0448
C53 C 0.5309(3) 0.4832(2) 0.68209(16)
H36 H 0.6132 0.4958 0.6777
C54 C 0.7093(3) 0.9656(3) 0.68076(17)
H37 H 0.6442 0.9172 0.6381
C55 C 0.5633(3) 0.2295(2) 0.84682(16)
C56 C 0.5049(3) 0.5802(2) 0.69168(16)
C57 C 0.5635(3) 0.7886(2) 0.81157(16)
C58 C 0.5583(3) 0.3323(2) 0.87583(16)
H38 H 0.4826 0.3290 0.8872
C59 C 0.3820(3) 0.5584(2) 0.69423(15)
H39 H 0.3606 0.6223 0.6980
C60 C 0.7498(3) 0.6317(3) 1.12772(17)
H40 H 0.7082 0.6267 1.1678
C61 C 0.3143(4) 0.0914(3) 0.5167(2)
H41 H 0.2725 0.1178 0.4814
C62 C 0.2454(4) 0.0001(3) 0.5475(2)
H42 H 0.1559 -0.0360 0.5339
C63 C 0.3036(5) -0.0399(4) 0.5975(2)
H43 H 0.2546 -0.1037 0.6184
C64 C 0.4437(4) 0.1454(4) 0.5364(2)
H44 H 0.4914 0.2089 0.5149
C65 C 0.4333(5) 0.0122(4) 0.6178(2)
H45 H 0.4742 -0.0163 0.6520
C66 C 0.5038(4) 0.1068(5) 0.5877(2)
H46 H 0.5933 0.1448 0.6024
loop_
_geom_bond_atom_site_label_1
_geom_bond_atom_site_label_2
_geom_bond_site_symmetry_1
_geom_bond_site_symmetry_2
C1 H1 1_555 1_555
O1 C27 1_555 1_555
O2 C6 1_555 1_555
O3 C11 1_555 1_555
O4 C30 1_555 1_555
N1 C33 1_555 1_555
C2 C8 1_555 1_555
C3 C7 1_555 1_555
N2 C27 1_555 1_555
C4 H2 1_555 1_555
C5 H3 1_555 1_555
C6 C16 1_555 1_555
C7 C36 1_555 1_555
C8 C1 1_555 1_555
C9 C2 1_555 1_555
C10 C9 1_555 1_555
C11 C21 1_555 1_555
C12 H4 1_555 1_555
C13 H5 1_555 1_555
C14 H6 1_555 1_555
C15 H7 1_555 1_555
C16 H8 1_555 1_555
C17 H9 1_555 1_555
C18 H10 1_555 1_555
C19 H11 1_555 1_555
C20 C13 1_555 1_555
H12 C20 1_555 1_555
C21 C12 1_555 1_555
H13 C21 1_555 1_555
C22 H14 1_555 1_555
C23 H15 1_555 1_555
C24 C8 1_555 1_555
H16 C24 1_555 1_555
C25 C4 1_555 1_555
H17 C25 1_555 1_555
C26 C5 1_555 1_555
H18 C26 1_555 1_555
N3 C22 1_555 1_555
C27 C22 1_555 1_555
C28 H19 1_555 1_555
C29 C2 1_555 1_555
C30 C26 1_555 1_555
N4 C15 1_555 1_555
C31 C28 1_555 1_555
H20 C31 1_555 1_555
C32 C11 1_555 1_555
H21 C32 1_555 1_555
C33 O3 1_555 1_555
C34 O2 1_555 1_555
C35 O4 1_555 1_555
C36 C43 1_555 1_555
C37 C30 1_555 1_555
H22 C37 1_555 1_555
C38 C6 1_555 1_555
H23 C38 1_555 1_555
C39 C24 1_555 1_555
H24 C39 1_555 1_555
C40 C10 1_555 1_555
H25 C40 1_555 1_555
C41 C40 1_555 1_555
H26 C41 1_555 1_555
C42 C25 1_555 1_555
H27 C42 1_555 1_555
C43 C42 1_555 1_555
H28 C43 1_555 1_555
C44 C41 1_555 1_555
H29 C44 1_555 1_555
C45 C9 1_555 1_555
C46 C3 1_555 1_555
C47 C19 1_555 1_555
H30 C47 1_555 1_555
C48 C10 1_555 1_555
H31 C48 1_555 1_555
C49 C29 1_555 1_555
H32 C49 1_555 1_555
C50 C18 1_555 1_555
H33 C50 1_555 1_555
C51 C47 1_555 1_555
H34 C51 1_555 1_555
C52 C44 1_555 1_555
H35 C52 1_555 1_555
C53 C16 1_555 1_555
H36 C53 1_555 1_555
C54 C4 1_555 1_555
H37 C54 1_555 1_555
C55 O1 1_555 1_555
C56 C3 1_555 1_555
C57 C7 1_555 1_555
C58 C1 1_555 1_555
H38 C58 1_555 1_555
C59 C38 1_555 1_555
H39 C59 1_555 1_555
C60 C20 1_555 1_555
H40 C60 1_555 1_555
C61 H41 1_555 1_555
C62 C61 1_555 1_555
H42 C62 1_555 1_555
C63 C62 1_555 1_555
H43 C63 1_555 1_555
C64 C61 1_555 1_555
H44 C64 1_555 1_555
C65 C63 1_555 1_555
H45 C65 1_555 1_555
C66 C64 1_555 1_555
H46 C66 1_555 1_555
N1 C35 1_555 1_555
N2 C34 1_555 1_555
C5 C29 1_555 1_555
C12 C46 1_555 1_555
C13 C45 1_555 1_555
C14 C32 1_555 1_555
C14 C46 1_555 1_555
C15 C35 1_555 1_555
C17 N4 1_555 1_555
C17 C33 1_555 1_555
C18 C57 1_555 1_555
C19 C57 1_555 1_555
C23 N3 1_555 1_555
C23 C34 1_555 1_555
C28 C60 1_555 1_555
C31 C45 1_555 1_555
C36 C54 1_555 1_555
C37 C49 1_555 1_555
C39 C55 1_555 1_555
C48 C52 1_555 1_555
C50 C51 1_555 1_555
C53 C56 1_555 1_555
C55 C58 1_555 1_555
C56 C59 1_555 1_555
C65 C66 1_555 1_555

#END
