
#######################################################################
#
#                 Cambridge Crystallographic Data Centre
#                                CCDC 
#
#######################################################################
#
# If this CIF has been generated from an entry in the Cambridge 
# Structural Database, then it will include bibliographic, chemical, 
# crystal, experimental, refinement or atomic coordinate data resulting 
# from the CCDC's data processing and validation procedures.
#
#######################################################################

data_YIXNID
_chemical_formula_moiety         'C15 H13 N3 O4,C1 H4 O1'
_chemical_name_systematic        
"N'-(4-Methoxybenzylidene)-4-nitrobenzohydrazide methanol solvate"
_symmetry_cell_setting           monoclinic
_symmetry_space_group_name_H-M   'P 21/n'
_symmetry_Int_Tables_number      14
_space_group_name_Hall           '-P 2yn'
loop_
_symmetry_equiv_pos_site_id
_symmetry_equiv_pos_as_xyz
1 x,y,z
2 1/2-x,1/2+y,1/2-z
3 -x,-y,-z
4 1/2+x,1/2-y,1/2+z
_cell_length_a                   14.719(3)
_cell_length_b                   6.631(2)
_cell_length_c                   18.002(3)
_cell_angle_alpha                90
_cell_angle_beta                 113.17(3)
_cell_angle_gamma                90
_cell_volume                     1615.31
_exptl_crystal_colour            yellow
_exptl_crystal_description       block
_cell_formula_units_Z            4
loop_
_atom_site_label
_atom_site_type_symbol
_atom_site_fract_x
_atom_site_fract_y
_atom_site_fract_z
N1 N 0.3893(2) 0.1141(5) 0.43054(18)
N2 N 0.37993(17) 0.4842(3) 0.09474(14)
N3 N 0.38196(16) 0.5979(3) 0.03071(14)
O1 O 0.35466(19) -0.0546(4) 0.41861(15)
O2 O 0.4269(2) 0.1901(4) 0.49761(15)
O3 O 0.38954(18) 0.7649(3) 0.16870(13)
O4 O 0.37929(16) 0.8238(3) -0.31725(12)
C1 C 0.3883(2) 0.2315(4) 0.36036(17)
C2 C 0.4211(2) 0.4269(5) 0.37219(18)
H1 H 0.4442 0.4847 0.4234
C3 C 0.4188(2) 0.5348(5) 0.30657(18)
H2 H 0.4402 0.6680 0.3136
C4 C 0.38535(19) 0.4503(4) 0.23005(16)
C5 C 0.3527(2) 0.2511(4) 0.22030(18)
H3 H 0.3303 0.1916 0.1695
C6 C 0.3537(2) 0.1412(4) 0.28616(18)
H4 H 0.3311 0.0088 0.2799
C7 C 0.3851(2) 0.5799(4) 0.16214(17)
C8 C 0.3756(2) 0.4971(4) -0.03121(18)
H5 H 0.3686 0.3578 -0.0305
C9 C 0.37877(19) 0.5910(4) -0.10321(16)
C10 C 0.3555(2) 0.4751(5) -0.17273(17)
H6 H 0.3393 0.3398 -0.1717
C11 C 0.3559(2) 0.5571(4) -0.24324(18)
H7 H 0.3389 0.4783 -0.2895
C12 C 0.3818(2) 0.7574(4) -0.24426(17)
C13 C 0.4075(2) 0.8738(4) -0.17570(17)
H8 H 0.4263 1.0075 -0.1762
C14 C 0.4054(2) 0.7901(4) -0.10576(17)
H9 H 0.4221 0.8695 -0.0597
C15 C 0.3969(2) 1.0303(5) -0.3251(2)
H10 H 0.3480 1.1096 -0.3156
H11 H 0.3933 1.0560 -0.3787
H12 H 0.4614 1.0657 -0.2864
H13 H 0.377(2) 0.3496(16) 0.0892(19)
O5 O 0.34226(17) 0.0632(3) 0.04415(13)
H14 H 0.3646 -0.0390 0.0708
C16 C 0.2426(3) 0.0315(5) -0.0070(2)
H15 H 0.2053 0.0016 0.0250
H16 H 0.2380 -0.0796 -0.0425
H17 H 0.2166 0.1508 -0.0383
loop_
_geom_bond_atom_site_label_1
_geom_bond_atom_site_label_2
_geom_bond_site_symmetry_1
_geom_bond_site_symmetry_2
N1 O1 1_555 1_555
N2 N3 1_555 1_555
N3 C8 1_555 1_555
O2 N1 1_555 1_555
O3 C7 1_555 1_555
O4 C12 1_555 1_555
C1 N1 1_555 1_555
C2 C1 1_555 1_555
H1 C2 1_555 1_555
C3 C2 1_555 1_555
H2 C3 1_555 1_555
C4 C3 1_555 1_555
C5 C4 1_555 1_555
H3 C5 1_555 1_555
C6 C1 1_555 1_555
H4 C6 1_555 1_555
C7 N2 1_555 1_555
C8 H5 1_555 1_555
C9 C8 1_555 1_555
C10 C9 1_555 1_555
H6 C10 1_555 1_555
C11 C10 1_555 1_555
H7 C11 1_555 1_555
C12 C11 1_555 1_555
C13 C12 1_555 1_555
H8 C13 1_555 1_555
C14 C9 1_555 1_555
H9 C14 1_555 1_555
C15 O4 1_555 1_555
H10 C15 1_555 1_555
H11 C15 1_555 1_555
H12 C15 1_555 1_555
H13 N2 1_555 1_555
O5 H14 1_555 1_555
C16 O5 1_555 1_555
H15 C16 1_555 1_555
H16 C16 1_555 1_555
H17 C16 1_555 1_555
C4 C7 1_555 1_555
C5 C6 1_555 1_555
C13 C14 1_555 1_555

#END
