
#######################################################################
#
#                 Cambridge Crystallographic Data Centre
#                                CCDC 
#
#######################################################################
#
# If this CIF has been generated from an entry in the Cambridge 
# Structural Database, then it will include bibliographic, chemical, 
# crystal, experimental, refinement or atomic coordinate data resulting 
# from the CCDC's data processing and validation procedures.
#
#######################################################################

data_YIXPAX
_chemical_formula_moiety         '2(C7 H7 N2 1+),C10 H6 O6 S2 2-,3(H2 O1)'
_chemical_name_systematic        
'bis(Benzimidazolium) naphthalene-1,5-disulfonate trihydrate'
_symmetry_cell_setting           triclinic
_symmetry_space_group_name_H-M   'P -1'
_symmetry_Int_Tables_number      2
_space_group_name_Hall           '-P 1'
loop_
_symmetry_equiv_pos_site_id
_symmetry_equiv_pos_as_xyz
1 x,y,z
2 -x,-y,-z
_cell_length_a                   8.372(4)
_cell_length_b                   9.889(5)
_cell_length_c                   17.044(8)
_cell_angle_alpha                80.914(8)
_cell_angle_beta                 87.557(9)
_cell_angle_gamma                73.641(8)
_cell_volume                     1336.97
_exptl_crystal_colour            colorless
_exptl_crystal_description       block
_cell_formula_units_Z            2
loop_
_atom_site_label
_atom_site_type_symbol
_atom_site_fract_x
_atom_site_fract_y
_atom_site_fract_z
S1 S 0.75176(8) 0.65881(6) 0.37087(4)
O1 O 0.7659(2) 0.65613(18) 0.28505(10)
O2 O 0.6945(2) 0.80262(17) 0.39064(11)
O3 O 0.9056(2) 0.57458(17) 0.41288(10)
C1 C 0.4007(3) 0.4475(3) 0.37232(15)
H1 H 0.3477 0.4186 0.3338
C2 C 0.5171(3) 0.5243(3) 0.34934(15)
H2 H 0.5410 0.5452 0.2957
C3 C 0.5963(3) 0.5689(2) 0.40503(13)
C4 C 0.5595(3) 0.5398(2) 0.48859(13)
C5 C 0.3643(3) 0.4149(3) 0.45112(14)
H3 H 0.2886 0.3622 0.4654
S1A S 0.24824(8) 0.34119(6) 0.62913(4)
O1A O 0.2341(2) 0.34387(18) 0.71495(10)
O2A O 0.3055(2) 0.19738(17) 0.60936(11)
O3A O 0.0944(2) 0.42542(17) 0.58712(10)
C1A C 0.5993(3) 0.5525(3) 0.62768(15)
H1A H 0.6523 0.5814 0.6662
C2A C 0.4829(3) 0.4757(3) 0.65066(15)
H2A H 0.4590 0.4548 0.7043
C3A C 0.4037(3) 0.4311(2) 0.59497(13)
C4A C 0.4405(3) 0.4602(2) 0.51141(13)
C5A C 0.6357(3) 0.5851(3) 0.54888(14)
H3A H 0.7114 0.6378 0.5346
S2 S 0.39100(7) 0.25493(6) 0.14588(3)
O4 O 0.21223(19) 0.33257(17) 0.14166(10)
O5 O 0.4281(2) 0.13448(16) 0.10230(10)
O6 O 0.4518(2) 0.21705(18) 0.22760(10)
C6 C 0.6767(3) 0.5287(2) 0.11047(14)
H4 H 0.7486 0.5548 0.1414
C7 C 0.6018(3) 0.4208(2) 0.14309(13)
H5 H 0.6249 0.3764 0.1953
C8 C 0.4946(3) 0.3809(2) 0.09785(13)
C9 C 0.4614(3) 0.4453(2) 0.01605(12)
C10 C 0.6440(3) 0.5950(2) 0.03388(13)
H6 H 0.6916 0.6677 0.0139
S2A S 0.60900(7) 0.74507(6) -0.14588(3)
O4A O 0.78777(19) 0.66743(17) -0.14166(10)
O5A O 0.5719(2) 0.86552(16) -0.10230(10)
O6A O 0.5482(2) 0.78295(18) -0.22760(10)
C6A C 0.3233(3) 0.4713(2) -0.11047(14)
H4A H 0.2514 0.4452 -0.1414
C7A C 0.3982(3) 0.5792(2) -0.14309(13)
H5A H 0.3751 0.6236 -0.1953
C8A C 0.5054(3) 0.6191(2) -0.09785(13)
C9A C 0.5386(3) 0.5547(2) -0.01605(12)
C10A C 0.3560(3) 0.4050(2) -0.03388(13)
H6A H 0.3084 0.3323 -0.0139
N1 N 0.8368(3) 0.0653(2) 1.09595(14)
H7 H 0.794(4) -0.007(2) 1.1155(19)
N2 N 0.9885(3) 0.2131(2) 1.08427(15)
H8 H 1.065(3) 0.253(3) 1.0965(18)
C11 C 0.9359(3) 0.1177(3) 1.13375(17)
H9 H 0.9641 0.0912 1.1873
C12 C 0.8228(3) 0.1305(2) 1.01695(16)
C13 C 0.7326(3) 0.1173(3) 0.95341(18)
H10 H 0.6675 0.0541 0.9585
C14 C 0.7446(4) 0.2034(3) 0.88195(18)
H11 H 0.6861 0.1975 0.8380
C15 C 0.8424(4) 0.2990(3) 0.87418(18)
H12 H 0.8468 0.3547 0.8252
C16 C 0.9320(3) 0.3128(3) 0.93678(17)
H13 H 0.9967 0.3763 0.9314
C17 C 0.9205(3) 0.2262(2) 1.00908(16)
N3 N 0.0749(3) 0.7339(2) 0.48285(14)
H14 H 0.032(3) 0.670(2) 0.4660(15)
N4 N 0.1689(3) 0.8418(2) 0.56460(12)
H15 H 0.192(3) 0.865(3) 0.6108(9)
C18 C 0.0892(3) 0.7450(3) 0.55844(16)
H16 H 0.0493 0.6927 0.6011
C19 C 0.1487(3) 0.8290(2) 0.43592(14)
C20 C 0.1657(3) 0.8615(3) 0.35337(16)
H17 H 0.1264 0.8154 0.3181
C21 C 0.2444(4) 0.9660(3) 0.32755(17)
H18 H 0.2584 0.9907 0.2733
C22 C 0.3036(3) 1.0360(3) 0.38033(18)
H19 H 0.3552 1.1060 0.3601
C23 C 0.2877(3) 1.0043(3) 0.46113(16)
H20 H 0.3274 1.0507 0.4960
C24 C 0.2086(3) 0.8982(2) 0.48839(14)
O7 O 0.6702(3) 0.8721(2) 0.15255(12)
H21 H 0.695(3) 0.822(3) 0.1982(9)
H22 H 0.575(2) 0.928(3) 0.1601(16)
O8 O 0.7493(3) 0.0547(2) 0.30528(12)
H23 H 0.733(3) -0.0213(17) 0.3299(15)
H24 H 0.657(2) 0.102(3) 0.283(2)
O9 O 0.0253(4) 0.6345(3) 0.73328(16)
H25 H -0.066(2) 0.618(3) 0.719(2)
H26 H 0.089(3) 0.5484(16) 0.743(2)
loop_
_geom_bond_atom_site_label_1
_geom_bond_atom_site_label_2
_geom_bond_site_symmetry_1
_geom_bond_site_symmetry_2
S1 O1 1_555 1_555
O2 S1 1_555 1_555
O3 S1 1_555 1_555
C1 H1 1_555 1_555
C2 C1 1_555 1_555
H2 C2 1_555 1_555
C3 S1 1_555 1_555
C4 C3 1_555 1_555
C5 C1 1_555 1_555
H3 C5 1_555 1_555
S2 O4 1_555 1_555
O5 S2 1_555 1_555
O6 S2 1_555 1_555
C6 H4 1_555 1_555
C7 C6 1_555 1_555
H5 C7 1_555 1_555
C8 S2 1_555 1_555
C9 C8 1_555 1_555
C10 C6 1_555 1_555
H6 C10 1_555 1_555
N1 H7 1_555 1_555
N2 H8 1_555 1_555
C11 N1 1_555 1_555
H9 C11 1_555 1_555
C12 N1 1_555 1_555
C13 C12 1_555 1_555
H10 C13 1_555 1_555
C14 C13 1_555 1_555
H11 C14 1_555 1_555
C15 C14 1_555 1_555
H12 C15 1_555 1_555
C16 C15 1_555 1_555
H13 C16 1_555 1_555
C17 N2 1_555 1_555
N3 H14 1_555 1_555
N4 H15 1_555 1_555
C18 N3 1_555 1_555
H16 C18 1_555 1_555
C19 N3 1_555 1_555
C20 C19 1_555 1_555
H17 C20 1_555 1_555
C21 C20 1_555 1_555
H18 C21 1_555 1_555
C22 C21 1_555 1_555
H19 C22 1_555 1_555
C23 C22 1_555 1_555
H20 C23 1_555 1_555
C24 N4 1_555 1_555
O7 H21 1_555 1_555
H22 O7 1_555 1_555
O8 H23 1_555 1_555
H24 O8 1_555 1_555
O9 H25 1_555 1_555
H26 O9 1_555 1_555
S1A O1A 1_555 1_555
O2A S1A 1_555 1_555
O3A S1A 1_555 1_555
C1A H1A 1_555 1_555
C2A C1A 1_555 1_555
H2A C2A 1_555 1_555
C3A S1A 1_555 1_555
C4A C4 1_555 1_555
C5A C4 1_555 1_555
H3A C5A 1_555 1_555
S2A O4A 1_555 1_555
O5A S2A 1_555 1_555
O6A S2A 1_555 1_555
C6A H4A 1_555 1_555
C7A C6A 1_555 1_555
H5A C7A 1_555 1_555
C8A S2A 1_555 1_555
C9A C9 1_555 1_555
C10A C9 1_555 1_555
H6A C10A 1_555 1_555
C2 C3 1_555 1_555
C5 C4A 1_555 1_555
C7 C8 1_555 1_555
C10 C9A 1_555 1_555
N2 C11 1_555 1_555
C12 C17 1_555 1_555
C16 C17 1_555 1_555
N4 C18 1_555 1_555
C19 C24 1_555 1_555
C23 C24 1_555 1_555
C1A C5A 1_555 1_555
C2A C3A 1_555 1_555
C3A C4A 1_555 1_555
C6A C10A 1_555 1_555
C7A C8A 1_555 1_555
C8A C9A 1_555 1_555

#END
