
#######################################################################
#
#                 Cambridge Crystallographic Data Centre
#                                CCDC 
#
#######################################################################
#
# If this CIF has been generated from an entry in the Cambridge 
# Structural Database, then it will include bibliographic, chemical, 
# crystal, experimental, refinement or atomic coordinate data resulting 
# from the CCDC's data processing and validation procedures.
#
#######################################################################

data_YIXRAA
_chemical_formula_moiety         'C12 H10 Br1 N1 O1'
_chemical_name_systematic        4-(1-bromo-4-oxopent-2-en-2-yl)benzonitrile
_symmetry_cell_setting           triclinic
_symmetry_space_group_name_H-M   'P -1'
_symmetry_Int_Tables_number      2
_space_group_name_Hall           '-P 1'
loop_
_symmetry_equiv_pos_site_id
_symmetry_equiv_pos_as_xyz
1 x,y,z
2 -x,-y,-z
_cell_length_a                   8.3861(14)
_cell_length_b                   8.3872(14)
_cell_length_c                   9.0080(16)
_cell_angle_alpha                95.574(12)
_cell_angle_beta                 100.912(12)
_cell_angle_gamma                112.227(11)
_cell_volume                     565.89
_exptl_crystal_colour            colorless
_exptl_crystal_description       block
_cell_formula_units_Z            2
loop_
_atom_site_label
_atom_site_type_symbol
_atom_site_fract_x
_atom_site_fract_y
_atom_site_fract_z
Br1 Br 0.58452(4) 0.75665(4) 0.83209(3)
O1 O 0.3245(3) 0.8696(2) 0.3890(2)
N1 N 0.0468(3) -0.1840(3) 0.8519(3)
C1 C 0.3079(5) 0.6798(4) 0.1689(3)
H1 H 0.3317 0.7827 0.1235
H2 H 0.1960 0.5896 0.1119
H3 H 0.4006 0.6395 0.1667
C2 C 0.3006(3) 0.7228(3) 0.3325(3)
C3 C 0.2577(3) 0.5742(3) 0.4166(3)
H4 H 0.2009 0.4626 0.3562
C4 C 0.2911(3) 0.5819(3) 0.5692(3)
C5 C 0.2371(3) 0.4168(3) 0.6317(3)
C6 C 0.2528(3) 0.2689(3) 0.5609(3)
H5 H 0.2983 0.2745 0.4741
C7 C 0.2019(3) 0.1155(3) 0.6176(3)
H6 H 0.2129 0.0185 0.5691
C8 C 0.1342(3) 0.1056(3) 0.7473(3)
C9 C 0.0837(3) -0.0549(3) 0.8068(3)
C10 C 0.1689(3) 0.4040(3) 0.7623(3)
H7 H 0.1582 0.5008 0.8115
C11 C 0.1171(3) 0.2506(3) 0.8194(3)
H8 H 0.0710 0.2441 0.9058
C12 C 0.3805(3) 0.7515(3) 0.6828(3)
H9 H 0.2959 0.7669 0.7365
H10 H 0.4193 0.8479 0.6282
loop_
_geom_bond_atom_site_label_1
_geom_bond_atom_site_label_2
_geom_bond_site_symmetry_1
_geom_bond_site_symmetry_2
Br1 C12 1_555 1_555
O1 C2 1_555 1_555
N1 C9 1_555 1_555
C1 H1 1_555 1_555
H2 C1 1_555 1_555
H3 C1 1_555 1_555
C2 C1 1_555 1_555
C3 C2 1_555 1_555
H4 C3 1_555 1_555
C4 C3 1_555 1_555
C5 C4 1_555 1_555
C6 C5 1_555 1_555
H5 C6 1_555 1_555
C7 C6 1_555 1_555
H6 C7 1_555 1_555
C8 C7 1_555 1_555
C9 C8 1_555 1_555
C10 C5 1_555 1_555
H7 C10 1_555 1_555
C11 C8 1_555 1_555
H8 C11 1_555 1_555
C12 C4 1_555 1_555
H9 C12 1_555 1_555
H10 C12 1_555 1_555
C10 C11 1_555 1_555

#END
