
#######################################################################
#
#                 Cambridge Crystallographic Data Centre
#                                CCDC 
#
#######################################################################
#
# If this CIF has been generated from an entry in the Cambridge 
# Structural Database, then it will include bibliographic, chemical, 
# crystal, experimental, refinement or atomic coordinate data resulting 
# from the CCDC's data processing and validation procedures.
#
#######################################################################

data_YIYKEY
_chemical_formula_moiety         'C39 H45 N1 O5 S2'
_chemical_name_systematic        
'3,4,5-tris(benzyloxy)-6-((benzyloxy)methyl)tetrahydro-2H-pyran-2-yl diethylcarbamodithioate'
_symmetry_cell_setting           orthorhombic
_symmetry_space_group_name_H-M   'P 21 21 21'
_symmetry_Int_Tables_number      19
_space_group_name_Hall           'P 2ac 2ab'
loop_
_symmetry_equiv_pos_site_id
_symmetry_equiv_pos_as_xyz
1 x,y,z
2 1/2-x,-y,1/2+z
3 -x,1/2+y,1/2-z
4 1/2+x,1/2-y,-z
_cell_length_a                   7.8008(2)
_cell_length_b                   20.4180(4)
_cell_length_c                   23.6928(17)
_cell_angle_alpha                90
_cell_angle_beta                 90
_cell_angle_gamma                90
_cell_volume                     3773.71
_exptl_crystal_colour            colorless
_exptl_crystal_description       needle
_cell_formula_units_Z            4
loop_
_atom_site_label
_atom_site_type_symbol
_atom_site_fract_x
_atom_site_fract_y
_atom_site_fract_z
S1 S 0.12560(10) 0.20455(4) 0.29762(3)
S2 S 0.36859(11) 0.23542(5) 0.39336(4)
O1 O 0.4184(3) 0.24603(9) 0.25615(8)
O2 O 0.6166(3) 0.33706(10) 0.19107(9)
O3 O 0.7592(3) 0.18681(12) 0.16521(9)
O4 O 0.4811(3) 0.09635(10) 0.14175(8)
O5 O 0.2361(3) 0.08414(9) 0.23109(8)
N1 N 0.0304(3) 0.24357(13) 0.39776(10)
C1 C 0.5916(4) 0.23491(15) 0.23861(12)
C2 C 0.5873(4) 0.19645(16) 0.18341(12)
C3 C 0.4949(4) 0.13241(14) 0.19338(12)
C4 C 0.3168(4) 0.14443(14) 0.21711(12)
C5 C 0.3339(4) 0.18651(14) 0.27004(12)
C6 C 0.6060(5) 0.43921(16) 0.14316(15)
C7 C 0.6816(4) 0.30004(16) 0.23647(14)
C8 C 0.6263(6) 0.50666(17) 0.14140(18)
C9 C 0.6860(5) 0.40098(17) 0.18991(16)
C10 C 0.5105(6) 0.41050(19) 0.10193(17)
C11 C 0.4511(7) 0.5136(2) 0.0592(2)
C12 C 0.5504(7) 0.5426(2) 0.0992(2)
C13 C 0.7843(6) 0.1810(4) 0.10666(18)
C14 C 0.9538(5) 0.2082(2) 0.08942(15)
C15 C 1.0652(7) 0.1704(3) 0.05882(19)
C16 C 1.2239(7) 0.2004(3) 0.0397(2)
C17 C 1.2483(7) 0.2616(4) 0.0535(2)
C18 C 1.1373(12) 0.2967(4) 0.0843(3)
C19 C 0.9936(9) 0.2692(3) 0.1015(3)
C20 C 0.5428(6) 0.03146(19) 0.14449(17)
C21 C 0.5017(5) -0.0040(2) 0.09091(18)
C22 C 0.4992(7) -0.0708(2) 0.0907(2)
C23 C 0.4585(7) -0.1050(3) 0.0428(3)
C24 C 0.4195(7) -0.0736(3) -0.0051(3)
C25 C 0.4242(9) -0.0069(3) -0.0067(2)
C26 C 0.4677(8) 0.0278(2) 0.0419(2)
C27 C 0.1005(5) 0.06623(18) 0.19353(16)
C28 C 0.0042(4) 0.00960(16) 0.21644(15)
C29 C -0.0811(5) 0.01349(19) 0.26675(19)
C30 C -0.1766(6) -0.0373(3) 0.2870(2)
C31 C -0.1902(6) -0.0938(3) 0.2569(3)
C32 C -0.1072(8) -0.0994(2) 0.2072(3)
C33 C -0.0090(6) -0.0481(2) 0.18671(18)
C34 C 0.1713(4) 0.22939(14) 0.36808(12)
C35 C 0.0405(5) 0.26639(19) 0.45631(13)
C36 C 0.0419(7) 0.3404(2) 0.45929(18)
C37 C -0.1439(4) 0.2326(2) 0.37643(14)
C38 C -0.2023(5) 0.1626(2) 0.38633(18)
C39 C 0.4302(7) 0.4470(2) 0.06021(19)
H1 H 0.6492 0.2073 0.2678
H2 H 0.5239 0.2224 0.1543
H3 H 0.5619 0.1059 0.2211
H4 H 0.2460 0.1682 0.1885
H5 H 0.4021 0.1624 0.2991
H6 H 0.6928 0.5281 0.1694
H7 H 0.4985 0.3642 0.1017
H8 H 0.3970 0.5392 0.0308
H9 H 0.5676 0.5886 0.0980
H10 H 1.0395 0.1260 0.0503
H11 H 1.3059 0.1766 0.0183
H12 H 1.3503 0.2824 0.0411
H13 H 1.1618 0.3410 0.0936
H14 H 0.9159 0.2944 0.1235
H15 H 0.5262 -0.0940 0.1243
H16 H 0.4579 -0.1515 0.0436
H17 H 0.3887 -0.0978 -0.0378
H18 H 0.3980 0.0157 -0.0407
H19 H 0.4737 0.0743 0.0407
H20 H -0.0735 0.0527 0.2882
H21 H -0.2339 -0.0331 0.3222
H22 H -0.2575 -0.1291 0.2708
H23 H -0.1162 -0.1388 0.1861
H24 H 0.0498 -0.0529 0.1518
H25 H 0.6633 0.3239 0.2723
H26 H 0.8064 0.2932 0.2315
H27 H 0.8116 0.3986 0.1842
H28 H 0.6641 0.4231 0.2264
H29 H 0.6919 0.2047 0.0866
H30 H 0.7779 0.1342 0.0958
H31 H 0.4892 0.0085 0.1768
H32 H 0.6684 0.0319 0.1504
H33 H 0.1489 0.0547 0.1562
H34 H 0.0219 0.1038 0.1884
H35 H 0.1461 0.2490 0.4740
H36 H -0.0590 0.2494 0.4777
H37 H 0.1413 0.3573 0.4386
H38 H 0.0490 0.3543 0.4988
H39 H -0.0635 0.3576 0.4424
H40 H -0.1471 0.2423 0.3355
H41 H -0.2239 0.2630 0.3956
H42 H -0.1238 0.1324 0.3672
H43 H -0.3183 0.1569 0.3713
H44 H -0.2024 0.1533 0.4269
H45 H 0.3613 0.4259 0.0326
loop_
_geom_bond_atom_site_label_1
_geom_bond_atom_site_label_2
_geom_bond_site_symmetry_1
_geom_bond_site_symmetry_2
S1 C5 1_555 1_555
S2 C34 1_555 1_555
O1 C1 1_555 1_555
O2 C7 1_555 1_555
O3 C2 1_555 1_555
O4 C3 1_555 1_555
O5 C4 1_555 1_555
N1 C34 1_555 1_555
C1 C2 1_555 1_555
C2 C3 1_555 1_555
C3 C4 1_555 1_555
C4 C5 1_555 1_555
C5 O1 1_555 1_555
C6 C8 1_555 1_555
C7 C1 1_555 1_555
C8 C12 1_555 1_555
C9 O2 1_555 1_555
C10 C6 1_555 1_555
C11 C12 1_555 1_555
C12 H9 1_555 1_555
C13 O3 1_555 1_555
C14 C13 1_555 1_555
C15 C14 1_555 1_555
C16 C15 1_555 1_555
C17 C16 1_555 1_555
C18 C17 1_555 1_555
C19 C14 1_555 1_555
C20 O4 1_555 1_555
C21 C20 1_555 1_555
C22 C21 1_555 1_555
C23 C22 1_555 1_555
C24 C23 1_555 1_555
C25 C24 1_555 1_555
C26 C21 1_555 1_555
C27 O5 1_555 1_555
C28 C27 1_555 1_555
C29 C28 1_555 1_555
C30 C29 1_555 1_555
C31 C30 1_555 1_555
C32 C31 1_555 1_555
C33 C28 1_555 1_555
C34 S1 1_555 1_555
C35 N1 1_555 1_555
C36 C35 1_555 1_555
C37 N1 1_555 1_555
C38 C37 1_555 1_555
C39 C10 1_555 1_555
H1 C1 1_555 1_555
H2 C2 1_555 1_555
H3 C3 1_555 1_555
H4 C4 1_555 1_555
H5 C5 1_555 1_555
H6 C8 1_555 1_555
H7 C10 1_555 1_555
H8 C11 1_555 1_555
H10 C15 1_555 1_555
H11 C16 1_555 1_555
H12 C17 1_555 1_555
H13 C18 1_555 1_555
H14 C19 1_555 1_555
H15 C22 1_555 1_555
H16 C23 1_555 1_555
H17 C24 1_555 1_555
H18 C25 1_555 1_555
H19 C26 1_555 1_555
H20 C29 1_555 1_555
H21 C30 1_555 1_555
H22 C31 1_555 1_555
H23 C32 1_555 1_555
H24 C33 1_555 1_555
H25 C7 1_555 1_555
H26 C7 1_555 1_555
H27 C9 1_555 1_555
H28 C9 1_555 1_555
H29 C13 1_555 1_555
H30 C13 1_555 1_555
H31 C20 1_555 1_555
H32 C20 1_555 1_555
H33 C27 1_555 1_555
H34 C27 1_555 1_555
H35 C35 1_555 1_555
H36 C35 1_555 1_555
H37 C36 1_555 1_555
H38 C36 1_555 1_555
H39 C36 1_555 1_555
H40 C37 1_555 1_555
H41 C37 1_555 1_555
H42 C38 1_555 1_555
H43 C38 1_555 1_555
H44 C38 1_555 1_555
H45 C39 1_555 1_555
C6 C9 1_555 1_555
C11 C39 1_555 1_555
C18 C19 1_555 1_555
C25 C26 1_555 1_555
C32 C33 1_555 1_555

#END
