
#######################################################################
#
#                 Cambridge Crystallographic Data Centre
#                                CCDC 
#
#######################################################################
#
# If this CIF has been generated from an entry in the Cambridge 
# Structural Database, then it will include bibliographic, chemical, 
# crystal, experimental, refinement or atomic coordinate data resulting 
# from the CCDC's data processing and validation procedures.
#
#######################################################################

data_YIYMAV
_chemical_compound_source        'leaves of Stachytarpheta glabra'
_chemical_name_common            Fulvoipolamiide
_chemical_formula_moiety         'C11 H10 O3'
_chemical_name_systematic        4-Methoxycarbonyl-7-methylcyclopenta(c)pyran
_symmetry_cell_setting           monoclinic
_symmetry_space_group_name_H-M   'P 21/m'
_symmetry_Int_Tables_number      11
_space_group_name_Hall           '-P 2yb'
loop_
_symmetry_equiv_pos_site_id
_symmetry_equiv_pos_as_xyz
1 x,y,z
2 -x,1/2+y,-z
3 -x,-y,-z
4 x,1/2-y,z
_cell_length_a                   8.2483(16)
_cell_length_b                   6.7191(16)
_cell_length_c                   8.6624(15)
_cell_angle_alpha                90
_cell_angle_beta                 95.080(10)
_cell_angle_gamma                90
_cell_volume                     478.194
_exptl_crystal_colour            red
_exptl_crystal_description       prism
_chemical_melting_point          89-91deg.C
_cell_formula_units_Z            2
_exptl_crystal_recrystallization_method ethanol/water
loop_
_atom_site_label
_atom_site_type_symbol
_atom_site_fract_x
_atom_site_fract_y
_atom_site_fract_z
O1 O 0.6655(3) 0.2500 0.0699(3)
O2 O 0.0946(4) 0.2500 -0.0513(4)
O3 O 0.2040(3) 0.2500 0.1912(3)
C1 C 0.5089(5) 0.2500 0.1022(5)
H1 H 0.4875 0.2500 0.2059
C2 C 0.3798(5) 0.2500 -0.0072(5)
C3 C 0.4122(5) 0.2500 -0.1654(5)
C4 C 0.3222(5) 0.2500 -0.3046(5)
H2 H 0.2092 0.2500 -0.3206
C5 C 0.4346(6) 0.2500 -0.4230(6)
H3 H 0.4033 0.2500 -0.5288
C6 C 0.5894(6) 0.2500 -0.3622(6)
C7 C 0.5840(5) 0.2500 -0.1969(5)
C8 C 0.6989(5) 0.2500 -0.0816(6)
H4 H 0.8071 0.2500 -0.1041
C9 C 0.2130(5) 0.2500 0.0412(6)
C10 C 0.0436(5) 0.2500 0.2437(6)
H5 H 0.0517 0.2500 0.355
H6 H -0.0141 0.1333 0.2056
H7 H -0.0141 0.3667 0.2056
C11 C 0.7442(7) 0.2500 -0.4458(6)
H8 H 0.8373 0.2500 -0.371
H9 H 0.7465 0.3667 -0.5096
H10 H 0.7465 0.1333 -0.5096
loop_
_geom_bond_atom_site_label_1
_geom_bond_atom_site_label_2
_geom_bond_site_symmetry_1
_geom_bond_site_symmetry_2
O1 C1 1_555 1_555
O2 C9 1_555 1_555
O3 C9 1_555 1_555
C1 H1 1_555 1_555
C2 C1 1_555 1_555
C3 C2 1_555 1_555
C4 C3 1_555 1_555
H2 C4 1_555 1_555
C5 C4 1_555 1_555
H3 C5 1_555 1_555
C6 C5 1_555 1_555
C7 C3 1_555 1_555
C8 O1 1_555 1_555
H4 C8 1_555 1_555
C9 C2 1_555 1_555
C10 O3 1_555 1_555
H5 C10 1_555 1_555
H6 C10 1_555 1_555
H7 C10 1_555 1_555
C11 C6 1_555 1_555
H8 C11 1_555 1_555
H9 C11 1_555 1_555
H10 C11 1_555 1_555
C6 C7 1_555 1_555
C7 C8 1_555 1_555

#END
