
#######################################################################
#
#                 Cambridge Crystallographic Data Centre
#                                CCDC 
#
#######################################################################
#
# If this CIF has been generated from an entry in the Cambridge 
# Structural Database, then it will include bibliographic, chemical, 
# crystal, experimental, refinement or atomic coordinate data resulting 
# from the CCDC's data processing and validation procedures.
#
#######################################################################

data_YIZBAM
_chemical_name_common            anti-atropisomer-alcohol
_chemical_formula_moiety         'C27 H43 N1 O2 Si2,C2 H6 O1'
_chemical_name_systematic        
'2-(bis(trimethylsilyl)methyl)-6-(hydroxy(phenyl)methyl)-N,N-diisopropylbenzamide ethanol solvate'
_symmetry_cell_setting           triclinic
_symmetry_space_group_name_H-M   'P -1'
_symmetry_Int_Tables_number      2
_space_group_name_Hall           '-P 1'
loop_
_symmetry_equiv_pos_site_id
_symmetry_equiv_pos_as_xyz
1 x,y,z
2 -x,-y,-z
_cell_length_a                   8.921(5)
_cell_length_b                   9.502(6)
_cell_length_c                   19.916(12)
_cell_angle_alpha                86.236(6)
_cell_angle_beta                 89.408(7)
_cell_angle_gamma                74.579(7)
_cell_volume                     1623.89
_exptl_crystal_colour            colorless
_exptl_crystal_description       block
_cell_formula_units_Z            2
_chemical_properties_physical    Heat-sensitive
loop_
_atom_site_label
_atom_site_type_symbol
_atom_site_fract_x
_atom_site_fract_y
_atom_site_fract_z
Si1 Si 0.32509(14) 0.86152(12) 0.13582(6)
Si2 Si 0.15041(15) 0.62180(16) 0.09494(5)
O1 O 0.3295(3) 0.4591(3) 0.45026(11)
H1 H 0.4036 0.4016 0.4698
O2 O 0.3867(3) 0.3220(2) 0.22315(11)
N1 N 0.5728(3) 0.4162(3) 0.26239(13)
C1 C 0.1922(3) 0.3037(3) 0.39939(14)
C2 C 0.1717(4) 0.2184(3) 0.34810(16)
H2 H 0.2241 0.2219 0.3077
C3 C 0.0734(4) 0.1284(4) 0.35704(19)
H3 H 0.0607 0.0711 0.3225
C4 C -0.0059(4) 0.1223(4) 0.4162(2)
H4 H -0.0716 0.0612 0.4218
C5 C 0.0125(5) 0.2065(4) 0.46650(19)
H5 H -0.0414 0.2034 0.5065
C6 C 0.1113(4) 0.2968(4) 0.45838(16)
H6 H 0.1232 0.3536 0.4932
C7 C 0.3002(4) 0.4020(3) 0.38854(14)
H7 H 0.3991 0.3448 0.3709
C8 C 0.2317(3) 0.5308(3) 0.33876(14)
C9 C 0.2932(3) 0.5446(3) 0.27427(13)
C10 C 0.2216(3) 0.6629(3) 0.22895(14)
C11 C 0.0916(4) 0.7656(3) 0.25165(15)
H8 H 0.0433 0.8455 0.2228
C12 C 0.0323(4) 0.7529(3) 0.31506(16)
H9 H -0.0542 0.8238 0.3286
C13 C 0.1009(4) 0.6353(3) 0.35857(15)
H10 H 0.0597 0.6259 0.4012
C14 C 0.4232(3) 0.4197(3) 0.25092(14)
C15 C 0.6214(4) 0.5315(4) 0.29530(19)
H11 H 0.5272 0.6077 0.3052
C16 C 0.7214(5) 0.6018(5) 0.2490(3)
H12 H 0.8184 0.5316 0.2412
H13 H 0.7409 0.6839 0.2695
H14 H 0.6680 0.6344 0.2068
C17 C 0.7047(5) 0.4746(5) 0.3614(2)
H15 H 0.6403 0.4299 0.3898
H16 H 0.7261 0.5542 0.3833
H17 H 0.8007 0.4034 0.3531
C18 C 0.6974(4) 0.2890(4) 0.2414(2)
H18 H 0.7962 0.3064 0.2546
C19 C 0.7021(7) 0.2815(7) 0.1649(3)
H19 H 0.6133 0.2525 0.1501
H20 H 0.7955 0.2113 0.1525
H21 H 0.7004 0.3759 0.1441
C20 C 0.6890(5) 0.1473(4) 0.2792(3)
H22 H 0.6860 0.1595 0.3267
H23 H 0.7790 0.0705 0.2690
H24 H 0.5969 0.1222 0.2657
C21 C 0.2783(4) 0.6795(3) 0.15750(14)
H25 H 0.3787 0.6059 0.1561
C22 C 0.3898(7) 0.9311(5) 0.2123(3)
H26 H 0.3852 1.0328 0.2041
H27 H 0.4948 0.8770 0.2233
H28 H 0.3231 0.9194 0.2492
C23 C 0.4857(7) 0.8309(7) 0.0728(3)
H29 H 0.5285 0.9137 0.0695
H30 H 0.4454 0.8187 0.0296
H31 H 0.5656 0.7446 0.0867
C24 C 0.2285(11) 0.6299(10) 0.0100(4)
H32 H 0.3302 0.5632 0.0086
H33 H 0.2352 0.7275 -0.0020
H34 H 0.1611 0.6032 -0.0212
C25 C 0.1107(9) 0.4473(7) 0.1223(3)
H35 H 0.0276 0.4331 0.0956
H36 H 0.0812 0.4486 0.1688
H37 H 0.2024 0.3688 0.1169
C26 C -0.0535(7) 0.7481(7) 0.0904(3)
H38 H -0.0485 0.8468 0.0798
H39 H -0.1035 0.7424 0.1331
H40 H -0.1118 0.7191 0.0561
C27 C 0.1607(7) 1.0102(7) 0.1001(3)
H41 H 0.0815 1.0359 0.1335
H42 H 0.1186 0.9774 0.0617
H43 H 0.1971 1.0941 0.0866
O3 O 0.5613(4) 0.3016(3) 0.5325(2)
H44 H 0.6325 0.3409 0.5336
C28 C 0.6073(6) 0.1637(5) 0.5644(3)
H45 H 0.6674 0.1681 0.6041
H46 H 0.6752 0.0989 0.5345
C29 C 0.4818(8) 0.1020(6) 0.5842(3)
H47 H 0.4205 0.1591 0.6177
H48 H 0.5233 0.0033 0.6024
H49 H 0.4179 0.1022 0.5457
loop_
_geom_bond_atom_site_label_1
_geom_bond_atom_site_label_2
_geom_bond_site_symmetry_1
_geom_bond_site_symmetry_2
Si1 C21 1_555 1_555
Si2 C21 1_555 1_555
O1 H1 1_555 1_555
O2 C14 1_555 1_555
N1 C14 1_555 1_555
C1 C2 1_555 1_555
C2 H2 1_555 1_555
C3 C2 1_555 1_555
H3 C3 1_555 1_555
C4 C3 1_555 1_555
H4 C4 1_555 1_555
C5 C4 1_555 1_555
H5 C5 1_555 1_555
C6 C1 1_555 1_555
H6 C6 1_555 1_555
C7 O1 1_555 1_555
H7 C7 1_555 1_555
C8 C7 1_555 1_555
C9 C8 1_555 1_555
C10 C9 1_555 1_555
C11 C10 1_555 1_555
H8 C11 1_555 1_555
C12 C11 1_555 1_555
H9 C12 1_555 1_555
C13 C8 1_555 1_555
H10 C13 1_555 1_555
C14 C9 1_555 1_555
C15 N1 1_555 1_555
H11 C15 1_555 1_555
C16 C15 1_555 1_555
H12 C16 1_555 1_555
H13 C16 1_555 1_555
H14 C16 1_555 1_555
C17 C15 1_555 1_555
H15 C17 1_555 1_555
H16 C17 1_555 1_555
H17 C17 1_555 1_555
C18 N1 1_555 1_555
H18 C18 1_555 1_555
C19 C18 1_555 1_555
H19 C19 1_555 1_555
H20 C19 1_555 1_555
H21 C19 1_555 1_555
C20 C18 1_555 1_555
H22 C20 1_555 1_555
H23 C20 1_555 1_555
H24 C20 1_555 1_555
C21 C10 1_555 1_555
H25 C21 1_555 1_555
C22 Si1 1_555 1_555
H26 C22 1_555 1_555
H27 C22 1_555 1_555
H28 C22 1_555 1_555
C23 Si1 1_555 1_555
H29 C23 1_555 1_555
H30 C23 1_555 1_555
H31 C23 1_555 1_555
C24 Si2 1_555 1_555
H32 C24 1_555 1_555
H33 C24 1_555 1_555
H34 C24 1_555 1_555
C25 Si2 1_555 1_555
H35 C25 1_555 1_555
H36 C25 1_555 1_555
H37 C25 1_555 1_555
C26 Si2 1_555 1_555
H38 C26 1_555 1_555
H39 C26 1_555 1_555
H40 C26 1_555 1_555
C27 Si1 1_555 1_555
H41 C27 1_555 1_555
H42 C27 1_555 1_555
H43 C27 1_555 1_555
O3 H44 1_555 1_555
C28 O3 1_555 1_555
H45 C28 1_555 1_555
H46 C28 1_555 1_555
C29 C28 1_555 1_555
H47 C29 1_555 1_555
H48 C29 1_555 1_555
H49 C29 1_555 1_555
C1 C7 1_555 1_555
C5 C6 1_555 1_555
C12 C13 1_555 1_555

#END
