
#######################################################################
#
#                 Cambridge Crystallographic Data Centre
#                                CCDC 
#
#######################################################################
#
# If this CIF has been generated from an entry in the Cambridge 
# Structural Database, then it will include bibliographic, chemical, 
# crystal, experimental, refinement or atomic coordinate data resulting 
# from the CCDC's data processing and validation procedures.
#
#######################################################################

data_YIZDUH
_chemical_formula_moiety         'C14 H13 F1 N4 O3'
_chemical_name_systematic        
5-((4-Fluorophenyl)ethynyl)-1-((2-hydroxyethoxy)methyl)-1,2,4-triazole-3-carboxamide
_chemical_properties_biological  'anti-hepatitis C virus activity'
_symmetry_cell_setting           triclinic
_symmetry_space_group_name_H-M   'P -1'
_symmetry_Int_Tables_number      2
_space_group_name_Hall           '-P 1'
loop_
_symmetry_equiv_pos_site_id
_symmetry_equiv_pos_as_xyz
1 x,y,z
2 -x,-y,-z
_cell_length_a                   5.1149(6)
_cell_length_b                   8.4420(9)
_cell_length_c                   17.0589(18)
_cell_angle_alpha                93.615(2)
_cell_angle_beta                 90.062(2)
_cell_angle_gamma                101.108(2)
_cell_volume                     721.299
_exptl_crystal_colour            colorless
_exptl_crystal_description       plate
_cell_formula_units_Z            2
_exptl_crystal_recrystallization_method dichloromethane/methanol
loop_
_atom_site_label
_atom_site_type_symbol
_atom_site_fract_x
_atom_site_fract_y
_atom_site_fract_z
C1 C 1.2821(6) 0.7282(4) 0.03563(18)
C2 C 1.2085(7) 0.5934(4) 0.07624(19)
H1 H 1.2782 0.5012 0.0637
C3 C 1.0289(6) 0.5958(3) 0.13619(17)
H2 H 0.9768 0.5045 0.1645
C4 C 0.9256(5) 0.7333(3) 0.15458(15)
C5 C 1.0062(6) 0.8684(3) 0.11208(18)
H3 H 0.9393 0.9617 0.1244
C6 C 1.1841(7) 0.8659(4) 0.05193(19)
H4 H 1.2366 0.9560 0.0229
C7 C 0.7412(5) 0.7372(3) 0.21708(16)
C8 C 0.5852(6) 0.7399(3) 0.26915(16)
C9 C 0.3990(5) 0.7462(3) 0.33025(14)
C10 C 0.0834(5) 0.7004(3) 0.40899(14)
C11 C -0.1573(5) 0.6117(3) 0.44819(15)
C12 C 0.5666(6) 1.0424(3) 0.37638(17)
H5 H 0.6330 1.0779 0.4291
H6 H 0.7185 1.0365 0.3431
C13 C 0.3806(7) 1.1381(3) 0.26674(18)
H7 H 0.2458 1.0425 0.2533
H8 H 0.5426 1.1267 0.2393
C14 C 0.2878(7) 1.2851(3) 0.2426(2)
H9 H 0.4115 1.3808 0.2630
H10 H 0.2877 1.2850 0.1857
F1 F 1.4579(4) 0.7266(3) -0.02363(13)
N1 N 0.3964(4) 0.8810(2) 0.37738(12)
N2 N 0.1925(4) 0.8522(2) 0.42815(12)
N3 N 0.2022(4) 0.6284(2) 0.34908(12)
N4 N -0.2541(5) 0.6956(3) 0.50594(15)
H11 H -0.179(6) 0.792(3) 0.5189(17)
H12 H -0.398(6) 0.647(3) 0.5366(17)
O1 O 0.4291(4) 1.1536(2) 0.34897(11)
O2 O 0.0289(5) 1.2924(3) 0.27003(18)
H13 H 0.038(9) 1.369(6) 0.309(3)
O3 O -0.2535(4) 0.4738(2) 0.42547(12)
loop_
_geom_bond_atom_site_label_1
_geom_bond_atom_site_label_2
_geom_bond_site_symmetry_1
_geom_bond_site_symmetry_2
C1 C2 1_555 1_555
C2 H1 1_555 1_555
C3 C2 1_555 1_555
H2 C3 1_555 1_555
C4 C3 1_555 1_555
C5 C4 1_555 1_555
H3 C5 1_555 1_555
C6 C1 1_555 1_555
H4 C6 1_555 1_555
C7 C4 1_555 1_555
C8 C7 1_555 1_555
C9 C8 1_555 1_555
C10 C11 1_555 1_555
C11 N4 1_555 1_555
C12 H5 1_555 1_555
H6 C12 1_555 1_555
C13 H7 1_555 1_555
H8 C13 1_555 1_555
C14 C13 1_555 1_555
H9 C14 1_555 1_555
H10 C14 1_555 1_555
F1 C1 1_555 1_555
N1 C9 1_555 1_555
N2 C10 1_555 1_555
N3 C9 1_555 1_555
N4 H11 1_555 1_555
H12 N4 1_555 1_555
O1 C12 1_555 1_555
O2 C14 1_555 1_555
H13 O2 1_555 1_555
O3 C11 1_555 1_555
C5 C6 1_555 1_555
C10 N3 1_555 1_555
C12 N1 1_555 1_555
C13 O1 1_555 1_555
N1 N2 1_555 1_555

#END
