
#######################################################################
#
#                 Cambridge Crystallographic Data Centre
#                                CCDC 
#
#######################################################################
#
# If this CIF has been generated from an entry in the Cambridge 
# Structural Database, then it will include bibliographic, chemical, 
# crystal, experimental, refinement or atomic coordinate data resulting 
# from the CCDC's data processing and validation procedures.
#
#######################################################################

data_YIZDOB
_chemical_formula_moiety         'C14 H14 N4 O3'
_chemical_name_systematic        
5-(Phenylethynyl)-1-((2-hydroxyethoxy)methyl)-1,2,4-triazole-3-carboxamide
_chemical_properties_biological  'anti-hepatitis C virus activity'
_symmetry_cell_setting           monoclinic
_symmetry_space_group_name_H-M   'P 21/n'
_symmetry_Int_Tables_number      14
_space_group_name_Hall           '-P 2yn'
loop_
_symmetry_equiv_pos_site_id
_symmetry_equiv_pos_as_xyz
1 x,y,z
2 1/2-x,1/2+y,1/2-z
3 -x,-y,-z
4 1/2+x,1/2-y,1/2+z
_cell_length_a                   17.9247(9)
_cell_length_b                   9.1151(5)
_cell_length_c                   18.0680(9)
_cell_angle_alpha                90
_cell_angle_beta                 106.613(1)
_cell_angle_gamma                90
_cell_volume                     2828.82
_exptl_crystal_colour            colorless
_exptl_crystal_description       block
_cell_formula_units_Z            8
_exptl_crystal_recrystallization_method dichloromethane/methanol
loop_
_atom_site_label
_atom_site_type_symbol
_atom_site_fract_x
_atom_site_fract_y
_atom_site_fract_z
C1 C 0.72401(9) 0.51102(19) 0.28687(10)
C2 C 0.68442(11) 0.6223(2) 0.31176(11)
H1 H 0.7078 0.6711 0.3577
C3 C 0.61034(11) 0.6609(2) 0.26855(12)
H2 H 0.5840 0.7362 0.2851
C4 C 0.57552(11) 0.5877(2) 0.20087(11)
H3 H 0.5252 0.6125 0.1724
C5 C 0.61439(11) 0.4788(2) 0.17508(11)
H4 H 0.5907 0.4307 0.1290
C6 C 0.68873(11) 0.4406(2) 0.21755(11)
H5 H 0.7153 0.3674 0.1997
C7 C 0.79970(10) 0.4660(2) 0.33360(10)
C8 C 0.86168(10) 0.4258(2) 0.37281(10)
C9 C 0.93205(10) 0.36354(19) 0.42015(10)
C10 C 1.04701(9) 0.30047(18) 0.47227(9)
C11 C 1.13363(9) 0.29161(18) 0.49208(9)
C12 C 0.86680(11) 0.1765(2) 0.48519(11)
H6 H 0.8226 0.1780 0.4393
H7 H 0.8804 0.0748 0.4980
C13 C 0.89518(12) 0.2032(2) 0.62070(12)
H8 H 0.9486 0.2290 0.6245
H9 H 0.8928 0.0984 0.6291
C14 C 0.86843(13) 0.2851(2) 0.68002(12)
H10 H 0.8131 0.2687 0.6711
H11 H 0.8951 0.2469 0.7308
N1 N 1.00405(8) 0.39882(16) 0.42121(8)
N2 N 1.00693(8) 0.20795(16) 0.50225(8)
N3 N 0.93253(8) 0.25024(16) 0.46833(8)
N4 N 1.16708(9) 0.39377(18) 0.46119(9)
H23 H 1.2207(12) 0.390(2) 0.4699(11)
H24 H 1.1407(12) 0.457(2) 0.4283(11)
O1 O 1.16919(7) 0.19301(14) 0.53447(8)
O2 O 0.84549(7) 0.24119(15) 0.54572(7)
O3 O 0.88240(9) 0.43660(16) 0.67870(8)
H27 H 0.9308(16) 0.460(3) 0.7066(15)
C15 C 0.76378(9) -0.04284(19) 0.70956(10)
C16 C 0.79264(11) 0.0162(2) 0.78315(11)
H12 H 0.7618 0.0787 0.8026
C17 C 0.86708(11) -0.0179(2) 0.82731(11)
H13 H 0.8869 0.0234 0.8761
C18 C 0.91183(11) -0.1129(2) 0.79917(12)
H14 H 0.9623 -0.1342 0.8287
C19 C 0.88275(11) -0.1769(2) 0.72768(12)
H15 H 0.9128 -0.2438 0.7099
C20 C 0.80896(11) -0.1416(2) 0.68253(11)
H16 H 0.7894 -0.1838 0.6340
C21 C 0.68979(10) 0.0048(2) 0.66020(10)
C22 C 0.63034(10) 0.0521(2) 0.61901(10)
C23 C 0.56198(9) 0.12243(18) 0.57266(9)
C24 C 0.44912(9) 0.20635(18) 0.52629(9)
C25 C 0.36435(10) 0.23427(19) 0.51471(10)
C26 C 0.62768(10) 0.2721(2) 0.49109(11)
H17 H 0.6223 0.3755 0.4778
H18 H 0.6763 0.2591 0.5314
C27 C 0.58749(14) 0.2540(2) 0.35319(12)
H19 H 0.6136 0.3421 0.3435
H20 H 0.5353 0.2802 0.3540
C28 C 0.58383(15) 0.1442(3) 0.29139(13)
H21 H 0.5721 0.1945 0.2421
H22 H 0.6345 0.0986 0.3005
N5 N 0.49013(8) 0.10590(15) 0.57800(8)
N6 N 0.49014(8) 0.28156(16) 0.48954(8)
N7 N 0.56301(8) 0.22629(16) 0.51972(8)
N8 N 0.32598(9) 0.12841(18) 0.53809(9)
H25 H 0.2741(12) 0.144(2) 0.5341(11)
H26 H 0.3466(12) 0.050(2) 0.5531(11)
O4 O 0.62971(7) 0.19094(14) 0.42622(7)
O5 O 0.52779(10) 0.0342(2) 0.28723(9)
H28 H 0.5319(17) 0.005(3) 0.3351(17)
O6 O 0.33499(7) 0.35049(15) 0.48626(8)
loop_
_geom_bond_atom_site_label_1
_geom_bond_atom_site_label_2
_geom_bond_site_symmetry_1
_geom_bond_site_symmetry_2
C1 C2 1_555 1_555
C2 H1 1_555 1_555
C3 C2 1_555 1_555
H2 C3 1_555 1_555
C4 C3 1_555 1_555
H3 C4 1_555 1_555
C5 C4 1_555 1_555
H4 C5 1_555 1_555
C6 C1 1_555 1_555
H5 C6 1_555 1_555
C7 C1 1_555 1_555
C8 C7 1_555 1_555
C9 C8 1_555 1_555
C10 C11 1_555 1_555
C11 N4 1_555 1_555
C12 H6 1_555 1_555
H7 C12 1_555 1_555
C13 H8 1_555 1_555
H9 C13 1_555 1_555
C14 C13 1_555 1_555
H10 C14 1_555 1_555
H11 C14 1_555 1_555
C15 C16 1_555 1_555
C16 H12 1_555 1_555
C17 C16 1_555 1_555
H13 C17 1_555 1_555
C18 C17 1_555 1_555
H14 C18 1_555 1_555
C19 C18 1_555 1_555
H15 C19 1_555 1_555
C20 C15 1_555 1_555
H16 C20 1_555 1_555
C21 C15 1_555 1_555
C22 C21 1_555 1_555
C23 C22 1_555 1_555
C24 C25 1_555 1_555
C25 N8 1_555 1_555
C26 H17 1_555 1_555
H18 C26 1_555 1_555
C27 H19 1_555 1_555
H20 C27 1_555 1_555
C28 C27 1_555 1_555
H21 C28 1_555 1_555
H22 C28 1_555 1_555
N1 C9 1_555 1_555
N2 C10 1_555 1_555
N3 C9 1_555 1_555
N4 H23 1_555 1_555
H24 N4 1_555 1_555
N5 C23 1_555 1_555
N6 C24 1_555 1_555
N7 C23 1_555 1_555
N8 H25 1_555 1_555
H26 N8 1_555 1_555
O1 C11 1_555 1_555
O2 C12 1_555 1_555
O3 C14 1_555 1_555
H27 O3 1_555 1_555
O4 C26 1_555 1_555
O5 C28 1_555 1_555
H28 O5 1_555 1_555
O6 C25 1_555 1_555
C5 C6 1_555 1_555
C10 N1 1_555 1_555
C12 N3 1_555 1_555
C13 O2 1_555 1_555
C19 C20 1_555 1_555
C24 N5 1_555 1_555
C26 N7 1_555 1_555
C27 O4 1_555 1_555
N2 N3 1_555 1_555
N6 N7 1_555 1_555

#END
