
#######################################################################
#
#                 Cambridge Crystallographic Data Centre
#                                CCDC 
#
#######################################################################
#
# If this CIF has been generated from an entry in the Cambridge 
# Structural Database, then it will include bibliographic, chemical, 
# crystal, experimental, refinement or atomic coordinate data resulting 
# from the CCDC's data processing and validation procedures.
#
#######################################################################

data_YIZDAN
_chemical_formula_moiety         'C9 H9 N3 O3 S1'
_chemical_name_systematic        
'4-(3-(2-Methylfuran-3-yl)-\D^2^-1,2,4-triazoline-5-thione-4-yl)acetic acid'
_symmetry_cell_setting           monoclinic
_symmetry_space_group_name_H-M   'P 21/c'
_symmetry_Int_Tables_number      14
_space_group_name_Hall           '-P 2ybc'
loop_
_symmetry_equiv_pos_site_id
_symmetry_equiv_pos_as_xyz
1 x,y,z
2 -x,1/2+y,1/2-z
3 -x,-y,-z
4 x,1/2-y,1/2+z
_cell_length_a                   6.466(1)
_cell_length_b                   14.845(3)
_cell_length_c                   11.004(2)
_cell_angle_alpha                90
_cell_angle_beta                 94.43(3)
_cell_angle_gamma                90
_cell_volume                     1053.09
_exptl_crystal_colour            yellow
_exptl_crystal_description       prism
_chemical_melting_point          '273-275 deg.C'
_cell_formula_units_Z            4
_exptl_crystal_recrystallization_method ethanol
loop_
_atom_site_label
_atom_site_type_symbol
_atom_site_fract_x
_atom_site_fract_y
_atom_site_fract_z
S1 S 0.29012(11) 0.57298(5) 0.57137(8)
N1 N -0.1074(4) 0.62532(18) 0.5041(2)
H1 H -0.1540 0.5711 0.4942
N2 N -0.2312(4) 0.70033(18) 0.4954(2)
N3 N 0.0831(4) 0.73284(16) 0.57469(19)
O1 O 0.4686(6) 0.8267(3) 0.7879(3)
H2 H 0.4996 0.8206 0.8742
O2 O 0.2021(5) 0.7390(2) 0.8216(2)
O3 O -0.2654(4) 0.99719(15) 0.4854(2)
C1 C -0.1107(4) 0.7649(2) 0.5386(2)
C2 C 0.0861(4) 0.64289(19) 0.5507(3)
C3 C -0.1681(4) 0.8599(2) 0.5440(3)
C4 C -0.1629(5) 0.9174(2) 0.6493(3)
H3 H -0.1243 0.9014 0.7296
C5 C -0.2243(5) 0.9979(2) 0.6088(3)
H4 H -0.2376 1.0482 0.6580
C6 C -0.2315(4) 0.9117(2) 0.4471(3)
C7 C -0.2597(6) 0.8943(3) 0.3140(3)
H5 H -0.2426 0.8312 0.2989
H6 H -0.1583 0.9278 0.2733
H7 H -0.3963 0.9128 0.2836
C8 C 0.2635(4) 0.78437(19) 0.6186(2)
H8 H 0.2440 0.8467 0.5939
H9 H 0.3840 0.7615 0.5813
C9 C 0.3031(6) 0.7802(3) 0.7543(3)
loop_
_geom_bond_atom_site_label_1
_geom_bond_atom_site_label_2
_geom_bond_site_symmetry_1
_geom_bond_site_symmetry_2
S1 C2 1_555 1_555
N1 H1 1_555 1_555
N2 N1 1_555 1_555
N3 C1 1_555 1_555
O1 H2 1_555 1_555
O2 C9 1_555 1_555
O3 C5 1_555 1_555
C1 N2 1_555 1_555
C2 N1 1_555 1_555
C3 C1 1_555 1_555
C4 C3 1_555 1_555
H3 C4 1_555 1_555
C5 C4 1_555 1_555
H4 C5 1_555 1_555
C6 O3 1_555 1_555
C7 C6 1_555 1_555
H5 C7 1_555 1_555
H6 C7 1_555 1_555
H7 C7 1_555 1_555
C8 N3 1_555 1_555
H8 C8 1_555 1_555
H9 C8 1_555 1_555
C9 O1 1_555 1_555
N3 C2 1_555 1_555
C3 C6 1_555 1_555
C8 C9 1_555 1_555

#END
