
#######################################################################
#
#                 Cambridge Crystallographic Data Centre
#                                CCDC 
#
#######################################################################
#
# If this CIF has been generated from an entry in the Cambridge 
# Structural Database, then it will include bibliographic, chemical, 
# crystal, experimental, refinement or atomic coordinate data resulting 
# from the CCDC's data processing and validation procedures.
#
#######################################################################

data_YIZFIW
_chemical_formula_moiety         'C21 H31 Cl1 N1 O7 P1 S1'
_chemical_name_systematic        
N-Isopropyl-O-(p-chlorophenyl)-O'-(1,2:3,4-di-O''-isopropylidene-\a-D-galactopyranosyl)-thiophosphoramidate
_symmetry_cell_setting           triclinic
_symmetry_space_group_name_H-M   'P 1'
_symmetry_Int_Tables_number      1
_space_group_name_Hall           'P 1'
loop_
_symmetry_equiv_pos_site_id
_symmetry_equiv_pos_as_xyz
1 x,y,z
_cell_length_a                   10.475
_cell_length_b                   11.165
_cell_length_c                   12.484
_cell_angle_alpha                76.65
_cell_angle_beta                 81.05
_cell_angle_gamma                65.54
_cell_volume                     1290.13
_exptl_crystal_colour            colorless
_cell_formula_units_Z            2
loop_
_atom_site_label
_atom_site_type_symbol
_atom_site_fract_x
_atom_site_fract_y
_atom_site_fract_z
S1 S 0.356 0.754 0.725
P1 P 0.2452(4) 0.9214(4) 0.7717(3)
O1 O 0.1179(9) 1.0250(9) 0.6985(8)
Cl1 Cl -0.3342(5) 0.8971(6) 0.6022(5)
C1 C 0.012(1) 0.988(1) 0.679(1)
C2 C -0.091(1) 0.986(1) 0.756(1)
C3 C -0.204(2) 0.960(2) 0.739(1)
C4 C -0.198(1) 0.934(1) 0.629(1)
C5 C -0.088(2) 0.936(2) 0.551(1)
C6 C 0.016(1) 0.961(1) 0.573(1)
N1 N 0.333(1) 1.013(1) 0.771(1)
C7 C 0.272(2) 1.148(2) 0.788(2)
C8 C 0.362(3) 1.220(2) 0.726(3)
C9 C 0.277(3) 1.156(2) 0.906(2)
O2 O 0.156(1) 0.9126(9) 0.8863(8)
O3 O -0.0324(8) 0.8470(9) 1.0508(7)
O4 O 0.186(1) 0.5930(9) 1.1449(8)
O5 O 0.0068(9) 0.6130(8) 1.2751(8)
O6 O -0.182(1) 1.0410(9) 1.1107(8)
O7 O -0.071(1) 0.9601(9) 1.2690(8)
C10 C 0.208(2) 0.790(1) 0.975(1)
C11 C 0.103(1) 0.831(1) 1.075(1)
C12 C 0.155(1) 0.719(1) 1.175(1)
C13 C 0.033(1) 0.727(1) 1.268(1)
C14 C -0.096(2) 0.853(1) 1.250(1)
C15 C -0.139(1) 0.898(1) 1.125(1)
C16 C 0.123(2) 0.517(1) 1.232(1)
C17 C 0.238(2) 0.434(2) 1.316(1)
C18 C 0.084(2) 0.428(2) 1.182(1)
C19 C -0.164(2) 1.081(1) 1.208(1)
C20 C -0.305(2) 1.140(2) 1.269(2)
C21 C -0.089(2) 1.179(2) 1.175(2)
S2 S -0.4022(5) 0.7799(4) 0.9707(4)
P2 P -0.3357(4) 0.5885(4) 0.9941(3)
O8 O -0.172(1) 0.511(1) 0.9674(8)
Cl2 Cl 0.1737(5) 0.5925(5) 0.5627(4)
C22 C -0.100(1) 0.543(1) 0.869(1)
C23 C -0.003(2) 0.589(2) 0.870(1)
C24 C 0.089(2) 0.600(2) 0.775(1)
C25 C 0.061(2) 0.579(2) 0.679(1)
C26 C -0.035(2) 0.540(2) 0.676(2)
C27 C -0.123(2) 0.525(2) 0.767(2)
N2 N -0.424(1) 0.536(1) 0.9328(9)
C28 C -0.409(2) 0.398(1) 0.945(1)
C29 C -0.366(3) 0.347(2) 0.841(3)
C30 C -0.543(2) 0.386(2) 0.990(2)
O9 O -0.330(1) 0.511(1) 1.1192(7)
O10 O -0.5652(9) 0.6451(9) 1.3447(8)
O11 O -0.279(1) 0.4294(9) 1.3686(8)
O12 O -0.331(1) 0.532(1) 1.5172(7)
O13 O -0.4538(9) 0.8661(8) 1.3521(8)
O14 O -0.6685(9) 0.8671(9) 1.3510(9)
C31 C -0.456(1) 0.543(1) 1.192(1)
C32 C -0.447(1) 0.631(1) 1.267(1)
C33 C -0.311(1) 0.568(1) 1.325(1)
C34 C -0.321(1) 0.632(1) 1.426(1)
C35 C -0.459(1) 0.752(1) 1.434(1)
C36 C -0.592(1) 0.742(1) 1.408(1)
C37 C -0.265(2) 0.406(1) 1.485(1)
C38 C -0.345(2) 0.318(2) 1.539(2)
C39 C -0.100(2) 0.341(2) 1.501(2)
C40 C -0.599(2) 0.956(2) 1.336(1)
C41 C -0.602(2) 1.028(2) 1.210(1)
C42 C -0.650(2) 1.051(2) 1.414(2)
loop_
_geom_bond_atom_site_label_1
_geom_bond_atom_site_label_2
_geom_bond_site_symmetry_1
_geom_bond_site_symmetry_2
S1 P1 1_555 1_555
P1 O1 1_555 1_555
O1 C1 1_555 1_555
Cl1 C4 1_555 1_555
C1 C2 1_555 1_555
C2 C3 1_555 1_555
C3 C4 1_555 1_555
C4 C5 1_555 1_555
C5 C6 1_555 1_555
C6 C1 1_555 1_555
N1 P1 1_555 1_555
C7 N1 1_555 1_555
C8 C7 1_555 1_555
C9 C7 1_555 1_555
O2 P1 1_555 1_555
O3 C11 1_555 1_555
O4 C12 1_555 1_555
O5 C13 1_555 1_555
O6 C15 1_555 1_555
O7 C14 1_555 1_555
C10 O2 1_555 1_555
C11 C10 1_555 1_555
C12 C11 1_555 1_555
C13 C12 1_555 1_555
C14 C13 1_555 1_555
C15 O3 1_555 1_555
C16 O4 1_555 1_555
C17 C16 1_555 1_555
C18 C16 1_555 1_555
C19 O6 1_555 1_555
C20 C19 1_555 1_555
C21 C19 1_555 1_555
S2 P2 1_555 1_555
P2 O8 1_555 1_555
O8 C22 1_555 1_555
Cl2 C25 1_555 1_555
C22 C23 1_555 1_555
C23 C24 1_555 1_555
C24 C25 1_555 1_555
C25 C26 1_555 1_555
C26 C27 1_555 1_555
C27 C22 1_555 1_555
N2 P2 1_555 1_555
C28 N2 1_555 1_555
C29 C28 1_555 1_555
C30 C28 1_555 1_555
O9 P2 1_555 1_555
O10 C32 1_555 1_555
O11 C33 1_555 1_555
O12 C34 1_555 1_555
O13 C35 1_555 1_555
O14 C36 1_555 1_555
C31 O9 1_555 1_555
C32 C31 1_555 1_555
C33 C32 1_555 1_555
C34 C33 1_555 1_555
C35 C34 1_555 1_555
C36 O10 1_555 1_555
C37 O11 1_555 1_555
C38 C37 1_555 1_555
C39 C37 1_555 1_555
C40 O13 1_555 1_555
C41 C40 1_555 1_555
C42 C40 1_555 1_555
O5 C16 1_555 1_555
O7 C19 1_555 1_555
C14 C15 1_555 1_555
O12 C37 1_555 1_555
O14 C40 1_555 1_555
C35 C36 1_555 1_555

#END
