
#######################################################################
#
#                 Cambridge Crystallographic Data Centre
#                                CCDC 
#
#######################################################################
#
# If this CIF has been generated from an entry in the Cambridge 
# Structural Database, then it will include bibliographic, chemical, 
# crystal, experimental, refinement or atomic coordinate data resulting 
# from the CCDC's data processing and validation procedures.
#
#######################################################################

data_YIZFAO
_chemical_formula_moiety         'C13 H10 Cl1 O3 P1 S1'
_chemical_name_systematic        
2-(3'-Methyl-4'-chlorophenoxy)-1,3,2-benzodioxaphosphole-2-thione
_symmetry_cell_setting           monoclinic
_symmetry_space_group_name_H-M   'P 21/a'
_symmetry_Int_Tables_number      14
_space_group_name_Hall           '-P 2yab'
loop_
_symmetry_equiv_pos_site_id
_symmetry_equiv_pos_as_xyz
1 x,y,z
2 1/2-x,1/2+y,-z
3 -x,-y,-z
4 1/2+x,1/2-y,z
_cell_length_a                   8.762
_cell_length_b                   11.733
_cell_length_c                   13.310
_cell_angle_alpha                90
_cell_angle_beta                 98.28
_cell_angle_gamma                90
_cell_volume                     1354.07
_cell_formula_units_Z            4
loop_
_atom_site_label
_atom_site_type_symbol
_atom_site_fract_x
_atom_site_fract_y
_atom_site_fract_z
P1 P 0.6683(2) 0.4100(1) 0.2528(1)
Cl1 Cl 0.8592(3) 0.4226(2) 0.7769(1)
S1 S 0.5803(2) 0.2710(2) 0.2846(1)
O1 O 0.7916(5) 0.4634(4) 0.3362(3)
O2 O 0.5492(5) 0.5118(4) 0.2168(3)
O3 O 0.7630(5) 0.4140(4) 0.1580(3)
C1 C 0.7980(7) 0.4488(5) 0.4416(4)
C2 C 0.7118(7) 0.5200(5) 0.4946(5)
C3 C 0.7313(7) 0.5103(5) 0.5999(5)
C4 C 0.8354(7) 0.4319(5) 0.6452(4)
C5 C 0.9217(6) 0.3599(5) 0.5925(4)
C6 C 0.8993(7) 0.3699(5) 0.4874(4)
C7 C 1.0363(8) 0.2743(6) 0.6436(6)
C8 C 0.5947(7) 0.5641(5) 0.1309(4)
C9 C 0.7148(6) 0.5093(5) 0.0983(4)
C10 C 0.7764(8) 0.5420(6) 0.0123(5)
C11 C 0.7064(8) 0.6388(6) -0.0365(5)
C12 C 0.5854(8) 0.6846(5) -0.0034(5)
C13 C 0.5232(8) 0.6598(5) 0.0829(5)
loop_
_geom_bond_atom_site_label_1
_geom_bond_atom_site_label_2
_geom_bond_site_symmetry_1
_geom_bond_site_symmetry_2
P1 S1 1_555 1_555
Cl1 C4 1_555 1_555
O1 P1 1_555 1_555
O2 P1 1_555 1_555
O3 P1 1_555 1_555
C1 O1 1_555 1_555
C2 C1 1_555 1_555
C3 C2 1_555 1_555
C4 C3 1_555 1_555
C5 C4 1_555 1_555
C6 C1 1_555 1_555
C7 C5 1_555 1_555
C8 O2 1_555 1_555
C9 O3 1_555 1_555
C10 C9 1_555 1_555
C11 C10 1_555 1_555
C12 C11 1_555 1_555
C13 C8 1_555 1_555
C5 C6 1_555 1_555
C8 C9 1_555 1_555
C12 C13 1_555 1_555

#END
