
#######################################################################
#
#                 Cambridge Crystallographic Data Centre
#                                CCDC 
#
#######################################################################
#
# If this CIF has been generated from an entry in the Cambridge 
# Structural Database, then it will include bibliographic, chemical, 
# crystal, experimental, refinement or atomic coordinate data resulting 
# from the CCDC's data processing and validation procedures.
#
#######################################################################

data_YIZGOE
_chemical_formula_moiety         'C13 H7 Cl1 N4 O1,C2 H6 O1'
_chemical_name_systematic        
'6-Amino-4-(4-chlorophenyl)-1,2-dihydro-2-oxopyrdine-3,5-dicarbonitrile ethanol solvate'
_symmetry_cell_setting           triclinic
_symmetry_space_group_name_H-M   'P -1'
_symmetry_Int_Tables_number      2
_space_group_name_Hall           '-P 1'
loop_
_symmetry_equiv_pos_site_id
_symmetry_equiv_pos_as_xyz
1 x,y,z
2 -x,-y,-z
_cell_length_a                   6.779(15)
_cell_length_b                   10.43(2)
_cell_length_c                   11.29(2)
_cell_angle_alpha                88.63(4)
_cell_angle_beta                 84.64(5)
_cell_angle_gamma                81.70(5)
_cell_volume                     786.4
_exptl_crystal_colour            yellow
_cell_formula_units_Z            2
_exptl_crystal_recrystallization_method ethanol
loop_
_atom_site_label
_atom_site_type_symbol
_atom_site_fract_x
_atom_site_fract_y
_atom_site_fract_z
Cl1 Cl 0.3975(2) 0.82836(15) -0.02217(14)
N1 N 0.5948(5) 0.1640(3) 0.4619(3)
H1 H 0.6265 0.0965 0.5051
N2 N 0.8639(5) 0.2449(4) 0.5286(3)
H2 H 0.8872 0.1750 0.5701
H3 H 0.9396 0.3041 0.5306
N3 N 0.8431(6) 0.5684(4) 0.4170(3)
N4 N 0.0909(6) 0.2779(4) 0.1962(4)
O1 O 0.3337(4) 0.0728(3) 0.4074(3)
C1 C 0.7115(6) 0.2614(4) 0.4620(4)
C2 C 0.6618(6) 0.3714(4) 0.3915(3)
C3 C 0.5068(6) 0.3773(4) 0.3156(3)
C4 C 0.3894(6) 0.2770(4) 0.3223(4)
C5 C 0.4309(6) 0.1666(4) 0.3978(4)
C6 C 0.7649(6) 0.4801(5) 0.4032(4)
C7 C 0.2249(7) 0.2768(4) 0.2517(4)
C8 C 0.4755(6) 0.4878(4) 0.2317(4)
C9 C 0.2886(7) 0.5613(4) 0.2249(4)
H4 H 0.1784 0.5405 0.2729
C10 C 0.2667(8) 0.6653(5) 0.1466(5)
H5 H 0.1417 0.7148 0.1433
C11 C 0.4281(8) 0.6967(5) 0.0733(4)
C12 C 0.6121(7) 0.6220(5) 0.0767(4)
H6 H 0.7202 0.6409 0.0257
C13 C 0.6369(6) 0.5193(4) 0.1554(4)
H7 H 0.7624 0.4702 0.1578
O2 O -0.0039(6) 0.0173(4) 0.6614(4)
H8 H 0.0326 0.0767 0.6200
C14 C 0.0834(9) 0.0123(5) 0.7685(5)
H9 H 0.1465 -0.0755 0.7830
H10 H -0.0195 0.0355 0.8330
C15 C 0.2370(8) 0.1028(6) 0.7664(5)
H11 H 0.2942 0.0979 0.8413
H12 H 0.1744 0.1899 0.7528
H13 H 0.3405 0.0787 0.7037
loop_
_geom_bond_atom_site_label_1
_geom_bond_atom_site_label_2
_geom_bond_site_symmetry_1
_geom_bond_site_symmetry_2
Cl1 C11 1_555 1_555
N1 H1 1_555 1_555
N2 H2 1_555 1_555
H3 N2 1_555 1_555
N3 C6 1_555 1_555
N4 C7 1_555 1_555
O1 C5 1_555 1_555
C1 N1 1_555 1_555
C2 C1 1_555 1_555
C3 C2 1_555 1_555
C4 C3 1_555 1_555
C5 N1 1_555 1_555
C6 C2 1_555 1_555
C7 C4 1_555 1_555
C8 C3 1_555 1_555
C9 C8 1_555 1_555
H4 C9 1_555 1_555
C10 C9 1_555 1_555
H5 C10 1_555 1_555
C11 C10 1_555 1_555
C12 C11 1_555 1_555
H6 C12 1_555 1_555
C13 C8 1_555 1_555
H7 C13 1_555 1_555
O2 H8 1_555 1_555
C14 O2 1_555 1_555
H9 C14 1_555 1_555
H10 C14 1_555 1_555
C15 C14 1_555 1_555
H11 C15 1_555 1_555
H12 C15 1_555 1_555
H13 C15 1_555 1_555
N2 C1 1_555 1_555
C4 C5 1_555 1_555
C12 C13 1_555 1_555

#END
