
#######################################################################
#
#                 Cambridge Crystallographic Data Centre
#                                CCDC 
#
#######################################################################
#
# If this CIF has been generated from an entry in the Cambridge 
# Structural Database, then it will include bibliographic, chemical, 
# crystal, experimental, refinement or atomic coordinate data resulting 
# from the CCDC's data processing and validation procedures.
#
#######################################################################

data_YIZLOI
_chemical_formula_moiety         'C20 H24 N2 O1'
_chemical_name_systematic        
8-Phenyl-6-(2-methoxybenzyl)-1,6-diazabicyclo(3.2.1)octane
_symmetry_cell_setting           monoclinic
_symmetry_space_group_name_H-M   'P 21'
_symmetry_Int_Tables_number      4
_space_group_name_Hall           'P 2yb'
loop_
_symmetry_equiv_pos_site_id
_symmetry_equiv_pos_as_xyz
1 x,y,z
2 -x,1/2+y,-z
_cell_length_a                   9.166
_cell_length_b                   6.170
_cell_length_c                   14.753
_cell_angle_alpha                90
_cell_angle_beta                 90.59
_cell_angle_gamma                90
_cell_volume                     834.3
_cell_formula_units_Z            2
loop_
_atom_site_label
_atom_site_type_symbol
_atom_site_fract_x
_atom_site_fract_y
_atom_site_fract_z
N1 N 0.2437(3) -0.0247(8) 0.7776(2)
C1 C 0.2824(4) -0.2386(4) 0.8180(2)
N2 N 0.3541(3) -0.1999(9) 0.9052(2)
C2 C 0.4293(3) 0.0078(9) 0.8892(2)
C3 C 0.3083(3) 0.1366 0.8405(2)
C4 C 0.2469(4) -0.1679(10) 0.9783(2)
C5 C 0.1318(4) 0.0043(9) 0.9561(2)
C6 C 0.1956(4) 0.2036(9) 0.9112(2)
C7 C 0.5730(3) -0.0206(9) 0.8391(2)
C8 C 0.6465(4) -0.2142(10) 0.8434(2)
C9 C 0.7835(4) -0.2350(14) 0.8041(3)
C10 C 0.8473(4) -0.0649(10) 0.7594(3)
C11 C 0.7720(4) 0.1272(11) 0.7536(3)
C12 C 0.6346(3) 0.1517(9) 0.7931(2)
C13 C 0.2920(3) -0.0108(9) 0.6824(2)
C14 C 0.2277(3) 0.1760(8) 0.6300(2)
C15 C 0.2734(4) 0.2039(9) 0.5408(2)
O1 O 0.3707(2) 0.0553(8) 0.5105(1)
C16 C 0.4156(4) 0.0661(14) 0.4196(2)
C17 C 0.2184(4) 0.3753(10) 0.4891(2)
C18 C 0.1175(4) 0.5160(9) 0.5246(3)
C19 C 0.0701(4) 0.4871(9) 0.6122(2)
C20 C 0.1259(3) 0.3187(9) 0.6643(2)
H1 H 0.3472 -0.3151 0.7786
H2 H 0.1954 -0.3227 0.8265
H3 H 0.4627 0.0817 0.9428
H4 H 0.3414 0.2639 0.8095
H5 H 0.1978 -0.3031 0.9884
H6 H 0.2982 -0.1254 1.0325
H7 H 0.0860 0.0478 1.0114
H8 H 0.0601 -0.0577 0.9159
H9 H 0.1187 0.2842 0.8821
H10 H 0.2420 0.2924 0.9564
H11 H 0.6030 -0.3355 0.8737
H12 H 0.8347 -0.3705 0.8082
H13 H 0.9420 -0.0803 0.7330
H14 H 0.8147 0.2470 0.7219
H15 H 0.5829 0.2866 0.7885
H16 H 0.3963 0.0043 0.6825
H17 H 0.2652 -0.1428 0.6521
H18 H 0.4844 -0.0476 0.4078
H19 H 0.4603 0.2040 0.4081
H20 H 0.3319 0.0488 0.3806
H21 H 0.2518 0.3959 0.4282
H22 H 0.0794 0.6330 0.4886
H23 H -0.0010 0.5839 0.6371
H24 H 0.0931 0.3014 0.7255
loop_
_geom_bond_atom_site_label_1
_geom_bond_atom_site_label_2
_geom_bond_site_symmetry_1
_geom_bond_site_symmetry_2
N1 C1 1_555 1_555
C1 N2 1_555 1_555
N2 C2 1_555 1_555
C2 C3 1_555 1_555
C3 N1 1_555 1_555
C4 N2 1_555 1_555
C5 C4 1_555 1_555
C6 C3 1_555 1_555
C7 C2 1_555 1_555
C8 C7 1_555 1_555
C9 C8 1_555 1_555
C10 C9 1_555 1_555
C11 C10 1_555 1_555
C12 C7 1_555 1_555
C13 N1 1_555 1_555
C14 C13 1_555 1_555
C15 C14 1_555 1_555
O1 C15 1_555 1_555
C16 O1 1_555 1_555
C17 C15 1_555 1_555
C18 C17 1_555 1_555
C19 C18 1_555 1_555
C20 C14 1_555 1_555
H1 C1 1_555 1_555
H2 C1 1_555 1_555
H3 C2 1_555 1_555
H4 C3 1_555 1_555
H5 C4 1_555 1_555
H6 C4 1_555 1_555
H7 C5 1_555 1_555
H8 C5 1_555 1_555
H9 C6 1_555 1_555
H10 C6 1_555 1_555
H11 C8 1_555 1_555
H12 C9 1_555 1_555
H13 C10 1_555 1_555
H14 C11 1_555 1_555
H15 C12 1_555 1_555
H16 C13 1_555 1_555
H17 C13 1_555 1_555
H18 C16 1_555 1_555
H19 C16 1_555 1_555
H20 C16 1_555 1_555
H21 C17 1_555 1_555
H22 C18 1_555 1_555
H23 C19 1_555 1_555
H24 C20 1_555 1_555
C5 C6 1_555 1_555
C11 C12 1_555 1_555
C19 C20 1_555 1_555

#END
