
#######################################################################
#
#                 Cambridge Crystallographic Data Centre
#                                CCDC 
#
#######################################################################
#
# If this CIF has been generated from an entry in the Cambridge 
# Structural Database, then it will include bibliographic, chemical, 
# crystal, experimental, refinement or atomic coordinate data resulting 
# from the CCDC's data processing and validation procedures.
#
#######################################################################

data_YIZPUU
_chemical_formula_moiety         'C24 H18 O1'
_chemical_name_systematic        6-ethyl-11-phenylindeno[1,2-c]chromene
_symmetry_cell_setting           monoclinic
_symmetry_space_group_name_H-M   'C c'
_symmetry_Int_Tables_number      9
_space_group_name_Hall           'C -2yc'
loop_
_symmetry_equiv_pos_site_id
_symmetry_equiv_pos_as_xyz
1 x,y,z
2 x,-y,1/2+z
3 1/2+x,1/2+y,z
4 1/2+x,1/2-y,1/2+z
_cell_length_a                   11.869(4)
_cell_length_b                   18.827(6)
_cell_length_c                   7.924(3)
_cell_angle_alpha                90
_cell_angle_beta                 104.536(4)
_cell_angle_gamma                90
_cell_volume                     1714
_exptl_crystal_colour            yellow
_exptl_crystal_description       block
_cell_formula_units_Z            4
loop_
_atom_site_label
_atom_site_type_symbol
_atom_site_fract_x
_atom_site_fract_y
_atom_site_fract_z
C1 C -0.0104(3) 0.0332(2) 0.4494(4)
C2 C -0.1122(4) 0.0159(3) 0.4925(5)
H1 H -0.1331 -0.0315 0.4993
C3 C -0.1816(4) 0.0685(3) 0.5249(5)
H2 H -0.2504 0.0573 0.5548
C4 C -0.1504(3) 0.1394(3) 0.5137(5)
H3 H -0.1982 0.1756 0.5353
C5 C -0.0476(3) 0.1553(2) 0.4701(5)
H4 H -0.0265 0.2025 0.4629
C6 C 0.0247(3) 0.10175(19) 0.4368(4)
C7 C 0.1381(3) 0.11185(15) 0.3952(4)
C8 C 0.2018(3) 0.17051(16) 0.3794(4)
C9 C 0.3100(3) 0.14651(15) 0.3443(4)
C10 C 0.4013(3) 0.18446(18) 0.3114(5)
H5 H 0.4012 0.2338 0.3148
C11 C 0.4920(3) 0.1487(2) 0.2738(5)
H6 H 0.5536 0.1742 0.2508
C12 C 0.4942(3) 0.0756(2) 0.2692(5)
H7 H 0.5576 0.0528 0.2440
C13 C 0.4044(3) 0.03516(19) 0.3012(5)
H8 H 0.4067 -0.0142 0.2975
C14 C 0.3097(3) 0.07053(17) 0.3394(4)
C15 C 0.2016(3) 0.04769(16) 0.3740(4)
C16 C 0.1590(3) -0.01807(16) 0.3876(4)
C17 C 0.1743(3) 0.24662(15) 0.3907(4)
C18 C 0.0903(3) 0.28042(17) 0.2612(5)
H9 H 0.0470 0.2543 0.1676
C19 C 0.0709(3) 0.35240(18) 0.2705(5)
H10 H 0.0144 0.3745 0.1837
C20 C 0.1349(4) 0.39156(17) 0.4079(5)
H11 H 0.1223 0.4401 0.4138
C21 C 0.2167(3) 0.35884(17) 0.5352(5)
H12 H 0.2595 0.3852 0.6287
C22 C 0.2368(3) 0.28725(17) 0.5272(4)
H13 H 0.2935 0.2658 0.6150
C23 C 0.2171(4) -0.08684(17) 0.3688(5)
H14 H 0.2930 -0.0871 0.4510
H15 H 0.2297 -0.0887 0.2526
C24 C 0.1534(5) -0.1534(2) 0.3968(6)
H16 H 0.1398 -0.1525 0.5112
H17 H 0.1996 -0.1942 0.3861
H18 H 0.0803 -0.1559 0.3110
O1 O 0.0536(2) -0.02575(13) 0.4236(4)
loop_
_geom_bond_atom_site_label_1
_geom_bond_atom_site_label_2
_geom_bond_site_symmetry_1
_geom_bond_site_symmetry_2
C1 C2 1_555 1_555
C2 H1 1_555 1_555
C3 C2 1_555 1_555
H2 C3 1_555 1_555
C4 C3 1_555 1_555
H3 C4 1_555 1_555
C5 C4 1_555 1_555
H4 C5 1_555 1_555
C6 C1 1_555 1_555
C7 C6 1_555 1_555
C8 C7 1_555 1_555
C9 C8 1_555 1_555
C10 C9 1_555 1_555
H5 C10 1_555 1_555
C11 C10 1_555 1_555
H6 C11 1_555 1_555
C12 C11 1_555 1_555
H7 C12 1_555 1_555
C13 C12 1_555 1_555
H8 C13 1_555 1_555
C14 C9 1_555 1_555
C15 C7 1_555 1_555
C16 C15 1_555 1_555
C17 C8 1_555 1_555
C18 C17 1_555 1_555
H9 C18 1_555 1_555
C19 C18 1_555 1_555
H10 C19 1_555 1_555
C20 C19 1_555 1_555
H11 C20 1_555 1_555
C21 C20 1_555 1_555
H12 C21 1_555 1_555
C22 C17 1_555 1_555
H13 C22 1_555 1_555
C23 C16 1_555 1_555
H14 C23 1_555 1_555
H15 C23 1_555 1_555
C24 C23 1_555 1_555
H16 C24 1_555 1_555
H17 C24 1_555 1_555
H18 C24 1_555 1_555
O1 C1 1_555 1_555
C5 C6 1_555 1_555
C13 C14 1_555 1_555
C14 C15 1_555 1_555
C16 O1 1_555 1_555
C21 C22 1_555 1_555

#END
