
#######################################################################
#
#                 Cambridge Crystallographic Data Centre
#                                CCDC 
#
#######################################################################
#
# If this CIF has been generated from an entry in the Cambridge 
# Structural Database, then it will include bibliographic, chemical, 
# crystal, experimental, refinement or atomic coordinate data resulting 
# from the CCDC's data processing and validation procedures.
#
#######################################################################

data_YIZQOP
_chemical_formula_moiety         'C44 H42 N2,0.7(C1 H1 Cl3)'
_chemical_name_systematic        
"N,N'-Ditritylcyclohexane-1,2-diamine chloroform solvate"
_symmetry_cell_setting           monoclinic
_symmetry_space_group_name_H-M   'P 21'
_symmetry_Int_Tables_number      4
_space_group_name_Hall           'P 2yb'
loop_
_symmetry_equiv_pos_site_id
_symmetry_equiv_pos_as_xyz
1 x,y,z
2 -x,1/2+y,-z
_cell_length_a                   9.6680(1)
_cell_length_b                   17.2210(2)
_cell_length_c                   11.8062(2)
_cell_angle_alpha                90
_cell_angle_beta                 92.5800(10)
_cell_angle_gamma                90
_cell_volume                     1963.65
_exptl_crystal_colour            colorless
_exptl_crystal_description       block
_cell_formula_units_Z            2
loop_
_atom_site_label
_atom_site_type_symbol
_atom_site_fract_x
_atom_site_fract_y
_atom_site_fract_z
C1 C 0.59040(16) 0.47786(10) 0.65405(13)
H1 H 0.5558 0.4271 0.6282
C2 C 0.64779(16) 0.46963(10) 0.77786(13)
H2 H 0.6898 0.5190 0.8023
C3 C 0.5306(2) 0.44981(14) 0.85583(16)
H3 H 0.4907 0.4001 0.8338
H4 H 0.5677 0.4454 0.9333
C4 C 0.4178(2) 0.51198(18) 0.84983(18)
H5 H 0.3454 0.4984 0.9006
H6 H 0.4567 0.5615 0.8740
C5 C 0.3568(2) 0.51885(19) 0.72976(19)
H7 H 0.2885 0.5601 0.7262
H8 H 0.3105 0.4707 0.7083
C6 C 0.46950(19) 0.53616(15) 0.64661(17)
H9 H 0.5055 0.5879 0.6614
H10 H 0.4286 0.5356 0.5701
N1 N 0.70544(14) 0.50017(8) 0.58441(11)
H11 H 0.7330 0.5483 0.5943
C7 C 0.71920(16) 0.47615(9) 0.46529(12)
C8 C 0.86612(17) 0.50203(9) 0.43350(14)
C9 C 0.9689(2) 0.51779(18) 0.51474(18)
H12 H 0.9493 0.5139 0.5909
C10 C 1.1002(3) 0.5392(2) 0.4860(2)
H13 H 1.1673 0.5493 0.5430
C11 C 1.1332(2) 0.54568(18) 0.3746(2)
H14 H 1.2219 0.5599 0.3554
C12 C 1.0331(3) 0.5308(2) 0.2927(2)
H15 H 1.0536 0.5350 0.2168
C13 C 0.9007(2) 0.50933(16) 0.32129(17)
H16 H 0.8337 0.4996 0.2640
C14 C 0.61621(17) 0.51574(11) 0.37776(14)
C15 C 0.5811(2) 0.59289(12) 0.39036(19)
H17 H 0.6142 0.6195 0.4546
C16 C 0.4980(3) 0.63191(17) 0.3100(2)
H18 H 0.4749 0.6837 0.3212
C17 C 0.4497(3) 0.5936(2) 0.2134(2)
H19 H 0.3934 0.6193 0.1595
C18 C 0.4856(3) 0.5173(2) 0.19766(19)
H20 H 0.4537 0.4914 0.1325
C19 C 0.5695(2) 0.47835(15) 0.27847(17)
H21 H 0.5944 0.4270 0.2660
C20 C 0.70733(19) 0.38714(10) 0.46149(13)
C21 C 0.5788(2) 0.35079(12) 0.45213(17)
H22 H 0.4991 0.3809 0.4443
C22 C 0.5672(3) 0.27015(15) 0.4543(2)
H23 H 0.4804 0.2470 0.4469
C23 C 0.6823(3) 0.22516(13) 0.4671(2)
H24 H 0.6742 0.1714 0.4692
C24 C 0.8116(3) 0.25957(13) 0.4772(2)
H25 H 0.8906 0.2289 0.4855
C25 C 0.8234(2) 0.34013(11) 0.47477(16)
H26 H 0.9106 0.3628 0.4822
N2 N 0.75535(14) 0.40928(8) 0.77971(11)
H27 H 0.8131 0.4199 0.7168
C26 C 0.85241(17) 0.40244(9) 0.88049(13)
C27 C 0.78978(19) 0.35121(10) 0.97240(13)
C28 C 0.6903(3) 0.29594(12) 0.94269(17)
H28 H 0.6581 0.2917 0.8675
C29 C 0.6379(3) 0.24656(14) 1.0240(2)
H29 H 0.5698 0.2105 1.0031
C30 C 0.6869(3) 0.25094(14) 1.1359(2)
H30 H 0.6510 0.2186 1.1904
C31 C 0.7892(3) 0.30359(16) 1.16552(18)
H31 H 0.8241 0.3060 1.2401
C32 C 0.8405(2) 0.35309(13) 1.08468(16)
H32 H 0.9101 0.3882 1.1059
C33 C 0.9799(2) 0.35534(11) 0.84461(16)
C34 C 0.9695(3) 0.30326(16) 0.7552(2)
H33 H 0.8860 0.2984 0.7136
C35 C 1.0815(5) 0.2583(2) 0.7267(3)
H34 H 1.0722 0.2236 0.6665
C36 C 1.2058(4) 0.2646(2) 0.7864(3)
H35 H 1.2816 0.2357 0.7652
C37 C 1.2181(3) 0.31433(19) 0.8787(4)
H36 H 1.3015 0.3179 0.9208
C38 C 1.1045(2) 0.35899(14) 0.9082(2)
H37 H 1.1123 0.3915 0.9710
C39 C 0.89599(18) 0.48375(10) 0.92320(15)
C40 C 0.9987(2) 0.52453(13) 0.8685(2)
H38 H 1.0439 0.5010 0.8096
C41 C 1.0344(3) 0.59972(17) 0.9007(3)
H39 H 1.1047 0.6256 0.8650
C42 C 0.9653(4) 0.63621(15) 0.9861(3)
H40 H 0.9906 0.6861 1.0091
C43 C 0.8591(4) 0.59854(15) 1.0368(2)
H41 H 0.8096 0.6238 1.0917
C44 C 0.8257(2) 0.52237(12) 1.00603(18)
H42 H 0.7548 0.4970 1.0418
C45 C 0.8158(5) 0.7585(3) 0.7599(5)
H43 H 0.8861 0.7496 0.8209
Cl1 Cl 0.8324(5) 0.8523(2) 0.7081(5)
Cl2 Cl 0.8406(7) 0.6931(2) 0.6499(5)
Cl3 Cl 0.6555(4) 0.7443(4) 0.8104(3)
Cl4? Cl 0.7724(12) 0.8521(3) 0.7501(8)
Cl5? Cl 0.8393(10) 0.7174(7) 0.6222(9)
Cl6? Cl 0.6796(7) 0.7030(5) 0.8078(8)
loop_
_geom_bond_atom_site_label_1
_geom_bond_atom_site_label_2
_geom_bond_site_symmetry_1
_geom_bond_site_symmetry_2
C1 H1 1_555 1_555
C2 C1 1_555 1_555
H2 C2 1_555 1_555
C3 C2 1_555 1_555
H3 C3 1_555 1_555
H4 C3 1_555 1_555
C4 C3 1_555 1_555
H5 C4 1_555 1_555
H6 C4 1_555 1_555
C5 C4 1_555 1_555
H7 C5 1_555 1_555
H8 C5 1_555 1_555
C6 C1 1_555 1_555
H9 C6 1_555 1_555
H10 C6 1_555 1_555
N1 C1 1_555 1_555
H11 N1 1_555 1_555
C7 N1 1_555 1_555
C8 C7 1_555 1_555
C9 C8 1_555 1_555
H12 C9 1_555 1_555
C10 C9 1_555 1_555
H13 C10 1_555 1_555
C11 C10 1_555 1_555
H14 C11 1_555 1_555
C12 C11 1_555 1_555
H15 C12 1_555 1_555
C13 C8 1_555 1_555
H16 C13 1_555 1_555
C14 C7 1_555 1_555
C15 C14 1_555 1_555
H17 C15 1_555 1_555
C16 C15 1_555 1_555
H18 C16 1_555 1_555
C17 C16 1_555 1_555
H19 C17 1_555 1_555
C18 C17 1_555 1_555
H20 C18 1_555 1_555
C19 C14 1_555 1_555
H21 C19 1_555 1_555
C20 C7 1_555 1_555
C21 C20 1_555 1_555
H22 C21 1_555 1_555
C22 C21 1_555 1_555
H23 C22 1_555 1_555
C23 C22 1_555 1_555
H24 C23 1_555 1_555
C24 C23 1_555 1_555
H25 C24 1_555 1_555
C25 C20 1_555 1_555
H26 C25 1_555 1_555
N2 C2 1_555 1_555
H27 N2 1_555 1_555
C26 N2 1_555 1_555
C27 C26 1_555 1_555
C28 C27 1_555 1_555
H28 C28 1_555 1_555
C29 C28 1_555 1_555
H29 C29 1_555 1_555
C30 C29 1_555 1_555
H30 C30 1_555 1_555
C31 C30 1_555 1_555
H31 C31 1_555 1_555
C32 C27 1_555 1_555
H32 C32 1_555 1_555
C33 C26 1_555 1_555
C34 C33 1_555 1_555
H33 C34 1_555 1_555
C35 C34 1_555 1_555
H34 C35 1_555 1_555
C36 C35 1_555 1_555
H35 C36 1_555 1_555
C37 C36 1_555 1_555
H36 C37 1_555 1_555
C38 C33 1_555 1_555
H37 C38 1_555 1_555
C39 C26 1_555 1_555
C40 C39 1_555 1_555
H38 C40 1_555 1_555
C41 C40 1_555 1_555
H39 C41 1_555 1_555
C42 C41 1_555 1_555
H40 C42 1_555 1_555
C43 C42 1_555 1_555
H41 C43 1_555 1_555
C44 C39 1_555 1_555
H42 C44 1_555 1_555
C45 H43 1_555 1_555
Cl1 C45 1_555 1_555
Cl2 C45 1_555 1_555
Cl3 C45 1_555 1_555
C5 C6 1_555 1_555
C12 C13 1_555 1_555
C18 C19 1_555 1_555
C24 C25 1_555 1_555
C31 C32 1_555 1_555
C37 C38 1_555 1_555
C43 C44 1_555 1_555

#END
