
#######################################################################
#
#                 Cambridge Crystallographic Data Centre
#                                CCDC 
#
#######################################################################
#
# If this CIF has been generated from an entry in the Cambridge 
# Structural Database, then it will include bibliographic, chemical, 
# crystal, experimental, refinement or atomic coordinate data resulting 
# from the CCDC's data processing and validation procedures.
#
#######################################################################

data_YIZRAC
_chemical_formula_moiety         'C43 H38 O2'
_chemical_name_systematic        
1,1',1'',1''',1'''',1'''''-(Cyclopentane-1,2-diylbis(oxymethanetetrayl))hexabenzene
_symmetry_cell_setting           monoclinic
_symmetry_space_group_name_H-M   'P 21'
_symmetry_Int_Tables_number      4
_space_group_name_Hall           'P 2yb'
loop_
_symmetry_equiv_pos_site_id
_symmetry_equiv_pos_as_xyz
1 x,y,z
2 -x,1/2+y,-z
_cell_length_a                   13.89078(9)
_cell_length_b                   17.33310(8)
_cell_length_c                   14.31162(9)
_cell_angle_alpha                90
_cell_angle_beta                 110.9888(7)
_cell_angle_gamma                90
_cell_volume                     3217.18
_exptl_crystal_colour            colorless
_exptl_crystal_description       plate
_cell_formula_units_Z            4
loop_
_atom_site_label
_atom_site_type_symbol
_atom_site_fract_x
_atom_site_fract_y
_atom_site_fract_z
C1 C 0.63549(11) 0.68326(7) 0.70123(10)
H1 H 0.6506 0.7333 0.6777
C2 C 0.51892(10) 0.67076(8) 0.66551(10)
H2 H 0.5038 0.6177 0.6797
C3 C 0.48852(13) 0.72736(11) 0.73261(12)
H3 H 0.4892 0.7801 0.7103
H4 H 0.4206 0.7156 0.7334
C4 C 0.57092(13) 0.71474(12) 0.83478(12)
H5 H 0.5479 0.6774 0.8727
H6 H 0.5867 0.7628 0.8720
C5 C 0.66594(12) 0.68460(10) 0.81593(11)
H7 H 0.6838 0.6332 0.8435
H8 H 0.7245 0.7184 0.8463
O1 O 0.68346(7) 0.62284(5) 0.66553(7)
C6 C 0.78493(11) 0.63354(8) 0.66108(11)
C7 C 0.82427(13) 0.55051(8) 0.65775(11)
C8 C 0.76057(14) 0.48740(9) 0.64797(12)
H9 H 0.6929 0.4950 0.6438
C9 C 0.79576(18) 0.41289(10) 0.64428(14)
H10 H 0.7519 0.3711 0.6381
C10 C 0.8945(2) 0.40085(11) 0.64964(14)
H11 H 0.9175 0.3511 0.6453
C11 C 0.9600(2) 0.46259(13) 0.66152(18)
H12 H 1.0279 0.4543 0.6668
C12 C 0.92536(17) 0.53728(12) 0.66566(18)
H13 H 0.9703 0.5787 0.6738
C13 C 0.77724(12) 0.67336(8) 0.56204(11)
C14 C 0.68502(14) 0.67674(10) 0.48206(12)
H14 H 0.6252 0.6583 0.4893
C15 C 0.68046(17) 0.70742(14) 0.39061(14)
H15 H 0.6177 0.7089 0.3373
C16 C 0.76761(19) 0.73545(12) 0.37832(14)
H16 H 0.7641 0.7562 0.3172
C17 C 0.86053(17) 0.73257(11) 0.45754(14)
H17 H 0.9201 0.7513 0.4500
C18 C 0.86500(14) 0.70190(10) 0.54808(13)
H18 H 0.9280 0.7002 0.6010
C19 C 0.85653(10) 0.67706(8) 0.75341(11)
C20 C 0.90854(14) 0.63811(9) 0.84150(13)
H19 H 0.9022 0.5848 0.8435
C21 C 0.96979(17) 0.67672(11) 0.92665(15)
H20 H 1.0038 0.6493 0.9850
C22 C 0.98051(15) 0.75552(11) 0.92530(14)
H21 H 1.0223 0.7815 0.9822
C23 C 0.92900(13) 0.79518(9) 0.83932(13)
H22 H 0.9356 0.8485 0.8381
C24 C 0.86698(11) 0.75694(8) 0.75381(12)
H23 H 0.8320 0.7849 0.6962
O2 O 0.47268(7) 0.68611(5) 0.56063(7)
C25 C 0.37232(10) 0.65295(8) 0.50523(10)
C26 C 0.34176(11) 0.69038(8) 0.40082(11)
C27 C 0.41149(13) 0.73244(10) 0.37249(12)
H24 H 0.4781 0.7397 0.4180
C28 C 0.38353(16) 0.76390(11) 0.27731(14)
H25 H 0.4317 0.7917 0.2597
C29 C 0.28546(15) 0.75441(10) 0.20880(12)
H26 H 0.2671 0.7750 0.1448
C30 C 0.21510(14) 0.71407(11) 0.23643(12)
H27 H 0.1483 0.7078 0.1909
C31 C 0.24216(12) 0.68247(9) 0.33122(11)
H28 H 0.1931 0.6556 0.3486
C32 C 0.38163(11) 0.56467(8) 0.49367(10)
C33 C 0.47532(11) 0.53039(9) 0.50781(11)
H29 H 0.5343 0.5608 0.5254
C34 C 0.48347(13) 0.45144(9) 0.49639(13)
H30 H 0.5475 0.4297 0.5060
C35 C 0.39760(14) 0.40505(9) 0.47097(13)
H31 H 0.4032 0.3520 0.4643
C36 C 0.30305(14) 0.43833(9) 0.45557(14)
H32 H 0.2445 0.4075 0.4384
C37 C 0.29453(12) 0.51736(9) 0.46544(12)
H33 H 0.2299 0.5391 0.4531
C38 C 0.29469(11) 0.67401(8) 0.55511(10)
C39 C 0.24806(13) 0.74622(9) 0.53863(12)
H34 H 0.2616 0.7802 0.4946
C40 C 0.18201(14) 0.76842(12) 0.58651(13)
H35 H 0.1507 0.8167 0.5736
C41 C 0.16235(14) 0.71953(13) 0.65317(13)
H36 H 0.1181 0.7346 0.6855
C42 C 0.20881(15) 0.64809(13) 0.67166(13)
H37 H 0.1962 0.6149 0.7171
C43 C 0.27424(12) 0.62530(10) 0.62296(11)
H38 H 0.3049 0.5768 0.6358
C44 C 0.58414(11) 0.50162(8) 0.17302(10)
H39 H 0.5691 0.4543 0.1330
C45 C 0.70074(11) 0.51479(8) 0.21809(10)
H40 H 0.7153 0.5666 0.2473
C46 C 0.73425(13) 0.45380(11) 0.30120(13)
H41 H 0.7395 0.4034 0.2740
H42 H 0.8004 0.4671 0.3515
C47 C 0.64991(14) 0.45464(14) 0.34538(14)
H43 H 0.6714 0.4846 0.4067
H44 H 0.6344 0.4025 0.3604
C48 C 0.55574(12) 0.49101(12) 0.26713(12)
H45 H 0.5402 0.5404 0.2904
H46 H 0.4962 0.4576 0.2528
O3 O 0.53559(7) 0.56614(5) 0.11204(7)
C49 C 0.43197(11) 0.55821(8) 0.03882(10)
C50 C 0.39541(14) 0.64204(9) 0.01091(11)
C51 C 0.46213(17) 0.70374(10) 0.04415(18)
H47 H 0.5301 0.6952 0.0856
C52 C 0.4276(2) 0.77905(12) 0.0156(3)
H48 H 0.4733 0.8201 0.0377
C53 C 0.3279(3) 0.79313(14) -0.0444(2)
H49 H 0.3061 0.8432 -0.0645
C54 C 0.2597(3) 0.73233(16) -0.07478(17)
H50 H 0.1912 0.7417 -0.1140
C55 C 0.2928(2) 0.65691(13) -0.04721(16)
H51 H 0.2461 0.6164 -0.0677
C56 C 0.43464(12) 0.51800(8) -0.05675(10)
C57 C 0.52487(14) 0.51340(9) -0.07623(12)
H52 H 0.5857 0.5323 -0.0294
C58 C 0.52657(17) 0.48102(12) -0.16454(13)
H53 H 0.5880 0.4793 -0.1767
C59 C 0.43762(19) 0.45138(11) -0.23423(13)
H54 H 0.4388 0.4291 -0.2929
C60 C 0.34496(14) 0.48857(10) -0.12844(12)
H55 H 0.2830 0.4914 -0.1175
C61 C 0.34713(18) 0.45517(11) -0.21585(13)
H56 H 0.2868 0.4352 -0.2624
C62 C 0.36338(11) 0.51627(8) 0.08551(10)
C63 C 0.32741(12) 0.55595(9) 0.15084(12)
H57 H 0.3370 0.6090 0.1578
C64 C 0.27787(14) 0.51815(11) 0.20542(14)
H58 H 0.2559 0.5456 0.2499
C65 C 0.26079(14) 0.43964(11) 0.19426(14)
H59 H 0.2279 0.4140 0.2315
C66 C 0.29274(14) 0.39990(10) 0.12775(14)
H60 H 0.2794 0.3473 0.1183
C67 C 0.34470(13) 0.43739(9) 0.07468(12)
H61 H 0.3675 0.4094 0.0311
O4 O 0.74498(7) 0.50601(5) 0.14238(7)
C68 C 0.84577(10) 0.53883(8) 0.15964(10)
C69 C 0.83913(11) 0.62728(8) 0.14687(10)
C70 C 0.74554(12) 0.66455(9) 0.10463(11)
H62 H 0.6848 0.6360 0.0845
C71 C 0.74087(14) 0.74434(9) 0.09176(13)
H63 H 0.6772 0.7686 0.0637
C72 C 0.83022(15) 0.78759(9) 0.12048(14)
H64 H 0.8272 0.8408 0.1118
C73 C 0.92380(15) 0.75097(10) 0.16217(16)
H65 H 0.9843 0.7797 0.1816
C74 C 0.92890(13) 0.67174(9) 0.17555(15)
H66 H 0.9928 0.6479 0.2039
C75 C 0.87871(12) 0.50472(7) 0.07620(10)
C76 C 0.80714(15) 0.47142(9) -0.00807(12)
H67 H 0.7381 0.4697 -0.0148
C77 C 0.83752(18) 0.44066(10) -0.08250(14)
H68 H 0.7886 0.4184 -0.1387
C78 C 0.93905(18) 0.44257(10) -0.07435(14)
H69 H 0.9590 0.4215 -0.1244
C79 C 1.01087(16) 0.47600(11) 0.00846(14)
H70 H 1.0796 0.4782 0.0140
C80 C 0.98144(13) 0.50652(9) 0.08378(12)
H71 H 1.0308 0.5284 0.1399
C81 C 0.92098(11) 0.51364(8) 0.26299(10)
C82 C 0.95505(12) 0.43736(9) 0.27566(12)
H72 H 0.9370 0.4046 0.2206
C83 C 1.01531(13) 0.40983(11) 0.36897(13)
H73 H 1.0374 0.3588 0.3763
C84 C 1.04277(14) 0.45789(14) 0.45107(14)
H74 H 1.0838 0.4395 0.5138
C85 C 1.00945(15) 0.53285(14) 0.43998(13)
H75 H 1.0274 0.5652 0.4955
C86 C 0.94888(12) 0.56109(11) 0.34621(12)
H76 H 0.9270 0.6122 0.3395
loop_
_geom_bond_atom_site_label_1
_geom_bond_atom_site_label_2
_geom_bond_site_symmetry_1
_geom_bond_site_symmetry_2
C1 H1 1_555 1_555
C2 C1 1_555 1_555
H2 C2 1_555 1_555
C3 C2 1_555 1_555
H3 C3 1_555 1_555
H4 C3 1_555 1_555
C4 C3 1_555 1_555
H5 C4 1_555 1_555
H6 C4 1_555 1_555
C5 C1 1_555 1_555
H7 C5 1_555 1_555
H8 C5 1_555 1_555
O1 C1 1_555 1_555
C6 O1 1_555 1_555
C7 C6 1_555 1_555
C8 C7 1_555 1_555
H9 C8 1_555 1_555
C9 C8 1_555 1_555
H10 C9 1_555 1_555
C10 C9 1_555 1_555
H11 C10 1_555 1_555
C11 C10 1_555 1_555
H12 C11 1_555 1_555
C12 C7 1_555 1_555
H13 C12 1_555 1_555
C13 C6 1_555 1_555
C14 C13 1_555 1_555
H14 C14 1_555 1_555
C15 C14 1_555 1_555
H15 C15 1_555 1_555
C16 C15 1_555 1_555
H16 C16 1_555 1_555
C17 C16 1_555 1_555
H17 C17 1_555 1_555
C18 C13 1_555 1_555
H18 C18 1_555 1_555
C19 C6 1_555 1_555
C20 C19 1_555 1_555
H19 C20 1_555 1_555
C21 C20 1_555 1_555
H20 C21 1_555 1_555
C22 C21 1_555 1_555
H21 C22 1_555 1_555
C23 C22 1_555 1_555
H22 C23 1_555 1_555
C24 C19 1_555 1_555
H23 C24 1_555 1_555
O2 C2 1_555 1_555
C25 O2 1_555 1_555
C26 C25 1_555 1_555
C27 C26 1_555 1_555
H24 C27 1_555 1_555
C28 C27 1_555 1_555
H25 C28 1_555 1_555
C29 C28 1_555 1_555
H26 C29 1_555 1_555
C30 C29 1_555 1_555
H27 C30 1_555 1_555
C31 C26 1_555 1_555
H28 C31 1_555 1_555
C32 C25 1_555 1_555
C33 C32 1_555 1_555
H29 C33 1_555 1_555
C34 C33 1_555 1_555
H30 C34 1_555 1_555
C35 C34 1_555 1_555
H31 C35 1_555 1_555
C36 C35 1_555 1_555
H32 C36 1_555 1_555
C37 C32 1_555 1_555
H33 C37 1_555 1_555
C38 C25 1_555 1_555
C39 C38 1_555 1_555
H34 C39 1_555 1_555
C40 C39 1_555 1_555
H35 C40 1_555 1_555
C41 C40 1_555 1_555
H36 C41 1_555 1_555
C42 C41 1_555 1_555
H37 C42 1_555 1_555
C43 C38 1_555 1_555
H38 C43 1_555 1_555
C44 H39 1_555 1_555
C45 C44 1_555 1_555
H40 C45 1_555 1_555
C46 C45 1_555 1_555
H41 C46 1_555 1_555
H42 C46 1_555 1_555
C47 C46 1_555 1_555
H43 C47 1_555 1_555
H44 C47 1_555 1_555
C48 C44 1_555 1_555
H45 C48 1_555 1_555
H46 C48 1_555 1_555
O3 C44 1_555 1_555
C49 O3 1_555 1_555
C50 C49 1_555 1_555
C51 C50 1_555 1_555
H47 C51 1_555 1_555
C52 C51 1_555 1_555
H48 C52 1_555 1_555
C53 C52 1_555 1_555
H49 C53 1_555 1_555
C54 C53 1_555 1_555
H50 C54 1_555 1_555
C55 C50 1_555 1_555
H51 C55 1_555 1_555
C56 C49 1_555 1_555
C57 C56 1_555 1_555
H52 C57 1_555 1_555
C58 C57 1_555 1_555
H53 C58 1_555 1_555
C59 C58 1_555 1_555
H54 C59 1_555 1_555
C60 C56 1_555 1_555
H55 C60 1_555 1_555
C61 C59 1_555 1_555
H56 C61 1_555 1_555
C62 C49 1_555 1_555
C63 C62 1_555 1_555
H57 C63 1_555 1_555
C64 C63 1_555 1_555
H58 C64 1_555 1_555
C65 C64 1_555 1_555
H59 C65 1_555 1_555
C66 C65 1_555 1_555
H60 C66 1_555 1_555
C67 C62 1_555 1_555
H61 C67 1_555 1_555
O4 C45 1_555 1_555
C68 O4 1_555 1_555
C69 C68 1_555 1_555
C70 C69 1_555 1_555
H62 C70 1_555 1_555
C71 C70 1_555 1_555
H63 C71 1_555 1_555
C72 C71 1_555 1_555
H64 C72 1_555 1_555
C73 C72 1_555 1_555
H65 C73 1_555 1_555
C74 C69 1_555 1_555
H66 C74 1_555 1_555
C75 C68 1_555 1_555
C76 C75 1_555 1_555
H67 C76 1_555 1_555
C77 C76 1_555 1_555
H68 C77 1_555 1_555
C78 C77 1_555 1_555
H69 C78 1_555 1_555
C79 C78 1_555 1_555
H70 C79 1_555 1_555
C80 C75 1_555 1_555
H71 C80 1_555 1_555
C81 C68 1_555 1_555
C82 C81 1_555 1_555
H72 C82 1_555 1_555
C83 C82 1_555 1_555
H73 C83 1_555 1_555
C84 C83 1_555 1_555
H74 C84 1_555 1_555
C85 C84 1_555 1_555
H75 C85 1_555 1_555
C86 C81 1_555 1_555
H76 C86 1_555 1_555
C4 C5 1_555 1_555
C11 C12 1_555 1_555
C17 C18 1_555 1_555
C23 C24 1_555 1_555
C30 C31 1_555 1_555
C36 C37 1_555 1_555
C42 C43 1_555 1_555
C47 C48 1_555 1_555
C54 C55 1_555 1_555
C60 C61 1_555 1_555
C66 C67 1_555 1_555
C73 C74 1_555 1_555
C79 C80 1_555 1_555
C85 C86 1_555 1_555

#END
