
#######################################################################
#
#                 Cambridge Crystallographic Data Centre
#                                CCDC 
#
#######################################################################
#
# If this CIF has been generated from an entry in the Cambridge 
# Structural Database, then it will include bibliographic, chemical, 
# crystal, experimental, refinement or atomic coordinate data resulting 
# from the CCDC's data processing and validation procedures.
#
#######################################################################

data_YIZTEG
_chemical_formula_moiety         'C16 H16 O4'
_chemical_name_systematic        bis(1,3-Phenylene)-14-crown-4
_symmetry_cell_setting           monoclinic
_symmetry_space_group_name_H-M   'P 21/c'
_symmetry_Int_Tables_number      14
_space_group_name_Hall           '-P 2ybc'
loop_
_symmetry_equiv_pos_site_id
_symmetry_equiv_pos_as_xyz
1 x,y,z
2 -x,1/2+y,1/2-z
3 -x,-y,-z
4 x,1/2-y,1/2+z
_cell_length_a                   7.759
_cell_length_b                   11.000
_cell_length_c                   15.409
_cell_angle_alpha                90
_cell_angle_beta                 93.97
_cell_angle_gamma                90
_cell_volume                     1311.99
_exptl_crystal_colour            white
_chemical_melting_point          173-174deg.C
_cell_formula_units_Z            4
loop_
_atom_site_label
_atom_site_type_symbol
_atom_site_fract_x
_atom_site_fract_y
_atom_site_fract_z
O1 O 0.8665(2) 0.1252(1) 0.4850(1)
O2 O 0.4312(2) -0.1683(1) 0.4053(1)
C1 C 0.7372(2) 0.0796(2) 0.4284(1)
C2 C 0.6485(2) -0.0274(2) 0.4422(1)
C3 C 0.5154(2) -0.0637(2) 0.3827(1)
C4 C 0.4756(3) 0.0020(2) 0.3073(1)
C5 C 0.5710(3) 0.1067(2) 0.2935(1)
C6 C 0.6995(3) 0.1464(2) 0.3527(1)
C7 C 0.8648(2) 0.0989(2) 0.5762(1)
C8 C 0.2514(3) -0.1824(2) 0.3780(1)
H1 H 0.673(1) -0.073(1) 0.494(1)
H2 H 0.382(1) -0.025(1) 0.265(1)
H3 H 0.547(1) 0.151(1) 0.240(1)
H4 H 0.764(1) 0.226(1) 0.343(1)
H5 H 0.840(1) 0.013(1) 0.587(1)
H6 H 0.982(1) 0.116(1) 0.599(1)
H7 H 0.232(1) -0.270(1) 0.391(1)
H8 H 0.228(1) -0.172(1) 0.315(1)
C8B C 0.7486(3) 0.1824(2) 0.6220(1)
C7B C 0.1352(2) -0.0989(2) 0.4238(1)
O2B O 0.5688(2) 0.1683(1) 0.5947(1)
H7B H 0.768(1) 0.270(1) 0.609(1)
H8B H 0.772(1) 0.172(1) 0.685(1)
O1B O 0.1335(2) -0.1252(1) 0.5150(1)
H5B H 0.160(1) -0.013(1) 0.413(1)
H6B H 0.018(1) -0.116(1) 0.401(1)
C3B C 0.4846(2) 0.0637(2) 0.6173(1)
C1B C 0.2628(2) -0.0796(2) 0.5716(1)
C2B C 0.3515(2) 0.0274(2) 0.5578(1)
C4B C 0.5244(3) -0.0020(2) 0.6927(1)
C6B C 0.3005(3) -0.1464(2) 0.6473(1)
H1B H 0.327(1) 0.073(1) 0.506(1)
C5B C 0.4290(3) -0.1067(2) 0.7065(1)
H2B H 0.618(1) 0.025(1) 0.735(1)
H4B H 0.236(1) -0.226(1) 0.657(1)
H3B H 0.453(1) -0.151(1) 0.760(1)
O3 O -0.2961(2) -0.0074(1) 0.0243(1)
O4 O 0.1013(2) 0.1312(2) -0.1745(1)
C9 C -0.2188(2) -0.0294(2) -0.0513(1)
C10 C -0.1093(2) 0.0620(2) -0.0761(1)
C11 C -0.0151(2) 0.0459(2) -0.1479(1)
C12 C -0.0355(3) -0.0587(2) -0.1984(1)
C13 C -0.1496(3) -0.1466(2) -0.1741(1)
C14 C -0.2419(3) -0.1340(2) -0.1009(1)
C15 C -0.3555(3) -0.1106(2) 0.0722(2)
C16 C 0.2102(3) 0.1904(2) -0.1086(2)
H9 H -0.096(1) 0.135(1) -0.040(1)
H10 H 0.038(1) -0.072(1) -0.254(1)
H11 H -0.162(1) -0.217(1) -0.206(1)
H12 H -0.325(1) -0.191(1) -0.088(1)
H13 H -0.421(1) -0.073(1) 0.118(1)
H14 H -0.443(1) -0.160(1) 0.036(1)
H15 H 0.136(1) 0.224(1) -0.063(1)
H16 H 0.260(1) 0.257(1) -0.141(1)
C16B C -0.2102(3) -0.1904(2) 0.1086(2)
C15B C 0.3555(3) 0.1106(2) -0.0722(2)
O4B O -0.1013(2) -0.1312(2) 0.1745(1)
H15B H -0.136(1) -0.224(1) 0.063(1)
H16B H -0.260(1) -0.257(1) 0.141(1)
O3B O 0.2961(2) 0.0074(1) -0.0243(1)
H13B H 0.421(1) 0.073(1) -0.118(1)
H14B H 0.443(1) 0.160(1) -0.036(1)
C11B C 0.0151(2) -0.0459(2) 0.1479(1)
C9B C 0.2188(2) 0.0294(2) 0.0513(1)
C10B C 0.1093(2) -0.0620(2) 0.0761(1)
C12B C 0.0355(3) 0.0587(2) 0.1984(1)
C14B C 0.2419(3) 0.1340(2) 0.1009(1)
H9B H 0.096(1) -0.135(1) 0.040(1)
C13B C 0.1496(3) 0.1466(2) 0.1741(1)
H10B H -0.038(1) 0.072(1) 0.254(1)
H12B H 0.325(1) 0.191(1) 0.088(1)
H11B H 0.162(1) 0.217(1) 0.206(1)
loop_
_geom_bond_atom_site_label_1
_geom_bond_atom_site_label_2
_geom_bond_site_symmetry_1
_geom_bond_site_symmetry_2
O1 C1 1_555 1_555
O2 C3 1_555 1_555
C1 C2 1_555 1_555
C2 C3 1_555 1_555
C3 C4 1_555 1_555
C4 C5 1_555 1_555
C5 C6 1_555 1_555
C6 C1 1_555 1_555
C7 O1 1_555 1_555
C8 O2 1_555 1_555
H1 C2 1_555 1_555
H2 C4 1_555 1_555
H3 C5 1_555 1_555
H4 C6 1_555 1_555
H5 C7 1_555 1_555
H6 C7 1_555 1_555
H7 C8 1_555 1_555
H8 C8 1_555 1_555
O3 C9 1_555 1_555
O4 C11 1_555 1_555
C9 C10 1_555 1_555
C10 C11 1_555 1_555
C11 C12 1_555 1_555
C12 C13 1_555 1_555
C13 C14 1_555 1_555
C14 C9 1_555 1_555
C15 O3 1_555 1_555
C16 O4 1_555 1_555
H9 C10 1_555 1_555
H10 C12 1_555 1_555
H11 C13 1_555 1_555
H12 C14 1_555 1_555
H13 C15 1_555 1_555
H14 C15 1_555 1_555
H15 C16 1_555 1_555
H16 C16 1_555 1_555
C8B C7 1_555 1_555
C7B C8 1_555 1_555
O2B C8B 1_555 1_555
H7B C8B 1_555 1_555
H8B C8B 1_555 1_555
O1B C7B 1_555 1_555
H5B C7B 1_555 1_555
H6B C7B 1_555 1_555
C3B O2B 1_555 1_555
C1B O1B 1_555 1_555
C2B C3B 1_555 1_555
C4B C3B 1_555 1_555
C6B C1B 1_555 1_555
H1B C2B 1_555 1_555
C5B C4B 1_555 1_555
H2B C4B 1_555 1_555
H4B C6B 1_555 1_555
H3B C5B 1_555 1_555
C16B C15 1_555 1_555
C15B C16 1_555 1_555
O4B C16B 1_555 1_555
H15B C16B 1_555 1_555
H16B C16B 1_555 1_555
O3B C15B 1_555 1_555
H13B C15B 1_555 1_555
H14B C15B 1_555 1_555
C11B O4B 1_555 1_555
C9B O3B 1_555 1_555
C10B C11B 1_555 1_555
C12B C11B 1_555 1_555
C14B C9B 1_555 1_555
H9B C10B 1_555 1_555
C13B C12B 1_555 1_555
H10B C12B 1_555 1_555
H12B C14B 1_555 1_555
H11B C13B 1_555 1_555
C1B C2B 1_555 1_555
C6B C5B 1_555 1_555
C9B C10B 1_555 1_555
C14B C13B 1_555 1_555

#END
