
#######################################################################
#
#                 Cambridge Crystallographic Data Centre
#                                CCDC 
#
#######################################################################
#
# If this CIF has been generated from an entry in the Cambridge 
# Structural Database, then it will include bibliographic, chemical, 
# crystal, experimental, refinement or atomic coordinate data resulting 
# from the CCDC's data processing and validation procedures.
#
#######################################################################

data_YIZWAG
_chemical_formula_moiety         
'C32 H60 N6 O18 P6,2(H3 O1 1+),2(Br1 1-),2.5(H2 O1)'
_chemical_name_systematic        
'bis(Oxonium) 3,6,10,18,21,25-hexaazoniatricyclo(25.3.1.1^12,16^)dotriaconta-1(31),12(32),13,15,27,29-hexaene-3,6,10,18,21,25-hexakis(methylenephosphonate) dibromide hydrate'
_symmetry_cell_setting           monoclinic
_symmetry_space_group_name_H-M   'P 21/c'
_symmetry_Int_Tables_number      14
_space_group_name_Hall           '-P 2ybc'
loop_
_symmetry_equiv_pos_site_id
_symmetry_equiv_pos_as_xyz
1 x,y,z
2 -x,1/2+y,1/2-z
3 -x,-y,-z
4 x,1/2-y,1/2+z
_cell_length_a                   12.3409(10)
_cell_length_b                   22.7068(18)
_cell_length_c                   18.3862(14)
_cell_angle_alpha                90
_cell_angle_beta                 91.9260(10)
_cell_angle_gamma                90
_cell_volume                     5149.31
_exptl_crystal_colour            colorless
_exptl_crystal_description       block
_cell_formula_units_Z            4
loop_
_atom_site_label
_atom_site_type_symbol
_atom_site_fract_x
_atom_site_fract_y
_atom_site_fract_z
P1 P 0.96016(13) 0.64644(8) 0.55122(12)
P2 P 0.37739(11) 0.44871(6) 0.57652(8)
P3 P 0.46609(15) 0.48819(10) 0.20546(10)
O1 O 1.0139(4) 0.6531(2) 0.6253(3)
O3 O 0.9211(4) 0.5853(2) 0.5369(4)
O6 O 1.0367(4) 0.6684(2) 0.4916(3)
H4 H 1.0119 0.6580 0.4505
O8 O 0.4969(3) 0.46071(17) 0.5731(2)
O10 O 0.3480(3) 0.42649(19) 0.6538(2)
H9 H 0.3728 0.4500 0.6854
O12 O 0.3295(3) 0.40873(17) 0.5201(2)
O14 O 0.4283(5) 0.4226(2) 0.1907(3)
O16 O 0.5607(4) 0.4883(3) 0.2550(3)
O19 O 0.4694(6) 0.5188(3) 0.1346(3)
N1 N 0.7412(4) 0.6722(2) 0.5781(3)
H25 H 0.7201 0.6384 0.5528
N2 N 0.3205(3) 0.55200(19) 0.5016(3)
H26 H 0.3905 0.5472 0.4853
N3 N 0.3500(4) 0.5038(2) 0.3335(2)
H27 H 0.4147 0.5176 0.3546
C1 C 0.7555(5) 0.6557(3) 0.6583(3)
H31 H 0.8237 0.6734 0.6778
H32 H 0.6950 0.6730 0.6852
C2 C 0.6519(4) 0.7181(3) 0.5660(4)
H33 H 0.6718 0.7541 0.5937
H34 H 0.6472 0.7287 0.5137
C3 C 0.5426(4) 0.6975(2) 0.5888(3)
C4 C 0.5051(5) 0.7122(3) 0.6576(4)
H35 H 0.5499 0.7344 0.6904
C5 C 0.4028(6) 0.6946(3) 0.6780(4)
H36 H 0.3783 0.7043 0.7249
C6 C 0.3366(5) 0.6631(3) 0.6305(4)
H37 H 0.2668 0.6510 0.6448
C7 C 0.3718(5) 0.6489(2) 0.5618(3)
C8 C 0.4745(4) 0.6666(2) 0.5414(3)
H38 H 0.4981 0.6572 0.4941
C9 C 0.2967(4) 0.6173(2) 0.5076(3)
H39 H 0.2209 0.6226 0.5224
H40 H 0.3033 0.6357 0.4591
C10 C 0.2412(4) 0.5254(3) 0.4462(3)
H41 H 0.1822 0.5016 0.4603
C11 C 0.2607(5) 0.5388(3) 0.3672(3)
H42 H 0.1925 0.5316 0.3387
H43 H 0.2780 0.5812 0.3629
C12 C 0.3479(5) 0.4386(2) 0.3477(3)
H44 H 0.4055 0.4195 0.3199
H45 H 0.3645 0.4316 0.4001
C13 C 0.7587(5) 0.5899(3) 0.6725(3)
H46 H 0.7763 0.5828 0.7247
H47 H 0.8165 0.5719 0.6438
C27 C 0.8427(5) 0.6947(3) 0.5450(4)
H66 H 0.8624 0.7325 0.5687
H67 H 0.8264 0.7030 0.4929
C30 C 0.3117(5) 0.5207(2) 0.5731(3)
H72 H 0.2340 0.5156 0.5833
H73 H 0.3444 0.5458 0.6120
C31 C 0.3528(5) 0.5191(3) 0.2545(3)
H74 H 0.3553 0.5625 0.2500
H75 H 0.2842 0.5056 0.2305
P1B P 0.03984(13) 0.35356(8) 0.44878(12)
P2B P 0.62261(11) 0.55129(6) 0.42348(8)
P3B P 0.53391(15) 0.51181(10) 0.79454(10)
O1B O -0.0139(4) 0.3469(2) 0.3747(3)
O3B O 0.0789(4) 0.4147(2) 0.4631(4)
O6B O -0.0367(4) 0.3316(2) 0.5084(3)
H4B H -0.0119 0.3420 0.5495
O8B O 0.5031(3) 0.53929(17) 0.4269(2)
O10B O 0.6520(3) 0.57351(19) 0.3462(2)
H9B H 0.6272 0.5500 0.3146
O12B O 0.6705(3) 0.59127(17) 0.4799(2)
O14B O 0.5717(5) 0.5774(2) 0.8093(3)
O16B O 0.4393(4) 0.5117(3) 0.7450(3)
O19B O 0.5306(6) 0.4812(3) 0.8654(3)
N1B N 0.2588(4) 0.3278(2) 0.4219(3)
H25B H 0.2799 0.3616 0.4472
N2B N 0.6795(3) 0.44800(19) 0.4984(3)
H26B H 0.6095 0.4528 0.5147
N3B N 0.6500(4) 0.4962(2) 0.6665(2)
H27B H 0.5853 0.4824 0.6454
C1B C 0.2445(5) 0.3443(3) 0.3417(3)
H31B H 0.1763 0.3266 0.3222
H32B H 0.3050 0.3270 0.3148
C2B C 0.3481(4) 0.2819(3) 0.4340(4)
H33B H 0.3282 0.2459 0.4063
H34B H 0.3528 0.2713 0.4863
C3B C 0.4574(4) 0.3025(2) 0.4112(3)
C4B C 0.4949(5) 0.2878(3) 0.3424(4)
H35B H 0.4501 0.2656 0.3096
C5B C 0.5972(6) 0.3054(3) 0.3220(4)
H36B H 0.6217 0.2957 0.2751
C6B C 0.6634(5) 0.3369(3) 0.3695(4)
H37B H 0.7332 0.3490 0.3552
C7B C 0.6282(5) 0.3511(2) 0.4382(3)
C8B C 0.5255(4) 0.3334(2) 0.4586(3)
H38B H 0.5019 0.3428 0.5059
C9B C 0.7033(4) 0.3827(2) 0.4924(3)
H39B H 0.7791 0.3774 0.4776
H40B H 0.6967 0.3643 0.5409
C10B C 0.7588(4) 0.4746(3) 0.5538(3)
H41B H 0.8178 0.4984 0.5397
C11B C 0.7393(5) 0.4612(3) 0.6328(3)
H42B H 0.8075 0.4684 0.6613
H43B H 0.7220 0.4188 0.6371
C12B C 0.6521(5) 0.5614(2) 0.6523(3)
H44B H 0.5945 0.5805 0.6801
H45B H 0.6355 0.5684 0.5999
C13B C 0.2413(5) 0.4101(3) 0.3275(3)
H46B H 0.2237 0.4172 0.2753
H47B H 0.1835 0.4281 0.3562
C27B C 0.1573(5) 0.3053(3) 0.4550(4)
H66B H 0.1376 0.2675 0.4313
H67B H 0.1736 0.2970 0.5071
C30B C 0.6883(5) 0.4793(2) 0.4269(3)
H72B H 0.7660 0.4844 0.4167
H73B H 0.6556 0.4542 0.3880
C31B C 0.6472(5) 0.4809(3) 0.7455(3)
H74B H 0.6447 0.4375 0.7500
H75B H 0.7158 0.4944 0.7695
P4 P 0.51968(13) 0.36834(8) -0.00277(11)
P5 P 0.92867(13) 0.48599(7) 0.28476(8)
P6 P 0.88397(11) 0.45654(6) -0.09060(8)
O20 O 0.4651(3) 0.3679(2) 0.0691(3)
O21 O 0.5697(4) 0.4282(2) -0.0195(3)
H22 H 0.5474 0.4396 -0.0608
O22 O 0.4437(3) 0.34688(19) -0.0649(3)
O23 O 0.9315(4) 0.5227(2) 0.3548(2)
O24 O 0.8858(3) 0.42438(19) 0.3024(2)
H23 H 0.9327 0.4060 0.3275
O25 O 1.0298(3) 0.4865(2) 0.2446(2)
O26 O 0.8226(3) 0.41598(17) -0.0443(2)
O27 O 1.0033(3) 0.46412(16) -0.0727(2)
O28 O 0.8649(3) 0.43911(17) -0.1723(2)
H24 H 0.8983 0.4627 -0.1987
N4 N 0.7326(4) 0.3333(2) 0.0422(3)
H28 H 0.7592 0.3671 0.0205
N5 N 0.8269(4) 0.5046(2) 0.1491(2)
H29 H 0.8942 0.5181 0.1351
N6 N 0.8263(3) 0.55929(18) -0.0159(2)
H30 H 0.8923 0.5514 0.0080
C14 C 0.8169(4) 0.2850(2) 0.0347(3)
H48 H 0.7897 0.2484 0.0571
H49 H 0.8266 0.2770 -0.0176
C15 C 0.7129(5) 0.3477(2) 0.1213(3)
H50 H 0.6425 0.3306 0.1346
H51 H 0.7702 0.3287 0.1522
C16 C 0.7120(5) 0.4131(2) 0.1383(3)
H52 H 0.6875 0.4191 0.1885
H53 H 0.6597 0.4331 0.1045
C17 C 0.8238(4) 0.4406(2) 0.1311(3)
H54 H 0.8762 0.4196 0.1637
H55 H 0.8472 0.4352 0.0805
C18 C 0.7435(4) 0.5423(2) 0.1088(3)
H56 H 0.6716 0.5348 0.1291
H57 H 0.7614 0.5842 0.1175
C19 C 0.7361(4) 0.5316(2) 0.0276(3)
H58 H 0.6657 0.5471 0.0086
H59 H 0.7363 0.4886 0.0190
C20 C 0.8114(4) 0.6253(2) -0.0195(3)
H60 H 0.7390 0.6340 -0.0418
H61 H 0.8134 0.6413 0.0306
C21 C 0.8961(4) 0.6557(2) -0.0625(3)
C22 C 0.8720(5) 0.6746(3) -0.1336(3)
H62 H 0.8032 0.6659 -0.1557
C23 C 0.9475(5) 0.7062(3) -0.1721(3)
H63 H 0.9302 0.7189 -0.2203
C24 C 1.0480(5) 0.7190(3) -0.1403(3)
H64 H 1.0991 0.7412 -0.1664
C25 C 0.9254(4) 0.3005(2) 0.0701(3)
C26 C 0.9974(4) 0.6690(2) -0.0312(3)
H65 H 1.0143 0.6571 0.0174
C28 C 0.8211(5) 0.5182(3) 0.2286(3)
H68 H 0.7507 0.5039 0.2460
H69 H 0.8230 0.5614 0.2350
C29 C 0.8262(4) 0.5305(2) -0.0894(3)
H70 H 0.8673 0.5558 -0.1226
H71 H 0.7505 0.5285 -0.1089
C32 C 0.6321(5) 0.3154(3) 0.0004(4)
H76 H 0.6054 0.2782 0.0216
H77 H 0.6519 0.3067 -0.0502
P4B P 1.48032(13) 0.63166(8) 0.00277(11)
P5B P 1.07133(13) 0.51401(7) -0.28476(8)
P6B P 1.11603(11) 0.54346(6) 0.09060(8)
O20B O 1.5349(3) 0.6321(2) -0.0691(3)
O21B O 1.4303(4) 0.5718(2) 0.0195(3)
H22B H 1.4526 0.5604 0.0608
O22B O 1.5563(3) 0.65312(19) 0.0649(3)
O23B O 1.0685(4) 0.4773(2) -0.3548(2)
O24B O 1.1142(3) 0.57562(19) -0.3024(2)
H23B H 1.0673 0.5940 -0.3275
O25B O 0.9702(3) 0.5135(2) -0.2446(2)
O26B O 1.1774(3) 0.58402(17) 0.0443(2)
O27B O 0.9967(3) 0.53588(16) 0.0727(2)
O28B O 1.1351(3) 0.56089(17) 0.1723(2)
H24B H 1.1017 0.5373 0.1987
N4B N 1.2674(4) 0.6667(2) -0.0422(3)
H28B H 1.2408 0.6329 -0.0205
N5B N 1.1731(4) 0.4954(2) -0.1491(2)
H29B H 1.1058 0.4819 -0.1351
N6B N 1.1737(3) 0.44071(18) 0.0159(2)
H30B H 1.1077 0.4486 -0.0080
C14B C 1.1831(4) 0.7150(2) -0.0347(3)
H48B H 1.2103 0.7516 -0.0571
H49B H 1.1734 0.7230 0.0176
C15B C 1.2871(5) 0.6523(2) -0.1213(3)
H50B H 1.3575 0.6694 -0.1346
H51B H 1.2298 0.6713 -0.1522
C16B C 1.2880(5) 0.5869(2) -0.1383(3)
H52B H 1.3125 0.5809 -0.1885
H53B H 1.3403 0.5669 -0.1045
C17B C 1.1762(4) 0.5594(2) -0.1311(3)
H54B H 1.1238 0.5804 -0.1637
H55B H 1.1528 0.5648 -0.0805
C18B C 1.2565(4) 0.4577(2) -0.1088(3)
H56B H 1.3284 0.4652 -0.1291
H57B H 1.2386 0.4158 -0.1175
C19B C 1.2639(4) 0.4684(2) -0.0276(3)
H58B H 1.3343 0.4529 -0.0086
H59B H 1.2637 0.5114 -0.0190
C20B C 1.1886(4) 0.3747(2) 0.0195(3)
H60B H 1.2610 0.3660 0.0418
H61B H 1.1866 0.3587 -0.0306
C21B C 1.1039(4) 0.3443(2) 0.0625(3)
C22B C 1.1280(5) 0.3254(3) 0.1336(3)
H62B H 1.1968 0.3341 0.1557
C23B C 1.0525(5) 0.2938(3) 0.1721(3)
H63B H 1.0698 0.2811 0.2203
C24B C 0.9520(5) 0.2810(3) 0.1403(3)
H64B H 0.9009 0.2588 0.1664
C25B C 1.0746(4) 0.6995(2) -0.0701(3)
C26B C 1.0026(4) 0.3310(2) 0.0312(3)
H65B H 0.9857 0.3429 -0.0174
C28B C 1.1789(5) 0.4818(3) -0.2286(3)
H68B H 1.2493 0.4961 -0.2460
H69B H 1.1770 0.4386 -0.2350
C29B C 1.1738(4) 0.4695(2) 0.0894(3)
H70B H 1.1327 0.4442 0.1226
H71B H 1.2495 0.4715 0.1089
C32B C 1.3679(5) 0.6846(3) -0.0004(4)
H76B H 1.3946 0.7218 -0.0216
H77B H 1.3481 0.6933 0.0502
O2 O 0.5380(8) 0.6423(3) 0.2019(4)
H1 H 0.5522 0.6070 0.2141
H2 H 0.4750 0.6514 0.2155
H3 H 0.5411 0.6458 0.1560
O4 O 0.9656(10) 0.3777(5) 0.6497(8)
O9 O 0.7635(7) 0.6814(4) 0.3601(7)
H7 H 0.7353 0.6524 0.3816
H8 H 0.8313 0.6825 0.3698
O11 O -0.1060(8) 0.2605(4) 0.8463(5)
H10 H -0.0603 0.2730 0.8020
H11 H -0.0880 0.2265 0.8470
O13 O 0.6068(6) 0.7586(4) 0.3729(7)
H12 H 0.5557 0.7483 0.3503
H13 H 0.6595 0.7418 0.3792
H14 H 0.5907 0.7894 0.4011
O15 O -0.2753(8) 0.3312(3) 0.8354(4)
H16 H -0.2663 0.3486 0.7985
H17 H -0.2482 0.3091 0.8540
O17 O 0.6794(13) 0.7081(8) 0.2580(8)
H18 H 0.6935 0.7415 0.2398
H19 H 0.6513 0.6823 0.2297
Br1 Br 0.3692(3) 0.69426(13) 0.3400(2)
Br4 Br 0.1245(9) 0.3293(3) 0.8253(5)
O5? O 1.0287(12) 0.3605(6) 0.6339(7)
O7? O 0.9775(9) 0.4956(5) 0.4745(5)
H5? H 0.9627 0.5028 0.4299
H6? H 0.9596 0.5255 0.4993
H15? H 0.4473 0.4123 0.1486
O18? O 0.871(2) 0.3449(13) 0.7219(15)
H20? H 0.8069 0.3348 0.7080
H21? H 0.8972 0.3668 0.6894
Br2? Br 0.3800(3) 0.69012(16) 0.3338(2)
Br3? Br 0.0975(12) 0.3208(7) 0.8352(8)
Br5? Br 0.1656(4) 0.3168(3) 0.8183(3)
Br6? Br 0.1155(10) 0.3207(4) 0.8109(4)
O29? O 0.4167(12) 0.3684(7) 0.1607(10)
loop_
_geom_bond_atom_site_label_1
_geom_bond_atom_site_label_2
_geom_bond_site_symmetry_1
_geom_bond_site_symmetry_2
P1 O1 1_555 1_555
P2 O8 1_555 1_555
P3 O14 1_555 1_555
P4 O20 1_555 1_555
P5 O23 1_555 1_555
P6 O26 1_555 1_555
O2 H1 1_555 1_555
H2 O2 1_555 1_555
H3 O2 1_555 1_555
O3 P1 1_555 1_555
O6 P1 1_555 1_555
H4 O6 1_555 1_555
O9 H7 1_555 1_555
H8 O9 1_555 1_555
O10 P2 1_555 1_555
H9 O10 1_555 1_555
O11 H10 1_555 1_555
H11 O11 1_555 1_555
O12 P2 1_555 1_555
O13 H12 1_555 1_555
H13 O13 1_555 1_555
H14 O13 1_555 1_555
O15 H16 1_555 1_555
H17 O15 1_555 1_555
O16 P3 1_555 1_555
O17 H18 1_555 1_555
H19 O17 1_555 1_555
O19 P3 1_555 1_555
O21 P4 1_555 1_555
H22 O21 1_555 1_555
O22 P4 1_555 1_555
O24 P5 1_555 1_555
H23 O24 1_555 1_555
O25 P5 1_555 1_555
O27 P6 1_555 1_555
O28 P6 1_555 1_555
H24 O28 1_555 1_555
N1 H25 1_555 1_555
N2 H26 1_555 1_555
N3 H27 1_555 1_555
N4 H28 1_555 1_555
N5 H29 1_555 1_555
N6 H30 1_555 1_555
C1 N1 1_555 1_555
H31 C1 1_555 1_555
H32 C1 1_555 1_555
C2 N1 1_555 1_555
H33 C2 1_555 1_555
H34 C2 1_555 1_555
C3 C2 1_555 1_555
C4 C3 1_555 1_555
H35 C4 1_555 1_555
C5 C4 1_555 1_555
H36 C5 1_555 1_555
C6 C5 1_555 1_555
H37 C6 1_555 1_555
C7 C6 1_555 1_555
C8 C3 1_555 1_555
H38 C8 1_555 1_555
C9 N2 1_555 1_555
H39 C9 1_555 1_555
H40 C9 1_555 1_555
C10 N2 1_555 1_555
H41 C10 1_555 1_555
C11 N3 1_555 1_555
H42 C11 1_555 1_555
H43 C11 1_555 1_555
C12 N3 1_555 1_555
H44 C12 1_555 1_555
H45 C12 1_555 1_555
C13 C1 1_555 1_555
H46 C13 1_555 1_555
H47 C13 1_555 1_555
C14 N4 1_555 1_555
H48 C14 1_555 1_555
H49 C14 1_555 1_555
C15 N4 1_555 1_555
H50 C15 1_555 1_555
H51 C15 1_555 1_555
C16 C15 1_555 1_555
H52 C16 1_555 1_555
H53 C16 1_555 1_555
C17 N5 1_555 1_555
H54 C17 1_555 1_555
H55 C17 1_555 1_555
C18 N5 1_555 1_555
H56 C18 1_555 1_555
H57 C18 1_555 1_555
C19 N6 1_555 1_555
H58 C19 1_555 1_555
H59 C19 1_555 1_555
C20 N6 1_555 1_555
H60 C20 1_555 1_555
H61 C20 1_555 1_555
C21 C20 1_555 1_555
C22 C21 1_555 1_555
H62 C22 1_555 1_555
C23 C22 1_555 1_555
H63 C23 1_555 1_555
C24 C23 1_555 1_555
H64 C24 1_555 1_555
C25 C14 1_555 1_555
C26 C21 1_555 1_555
H65 C26 1_555 1_555
C27 P1 1_555 1_555
H66 C27 1_555 1_555
H67 C27 1_555 1_555
C28 P5 1_555 1_555
H68 C28 1_555 1_555
H69 C28 1_555 1_555
C29 P6 1_555 1_555
H70 C29 1_555 1_555
H71 C29 1_555 1_555
C30 P2 1_555 1_555
H72 C30 1_555 1_555
H73 C30 1_555 1_555
C31 P3 1_555 1_555
H74 C31 1_555 1_555
H75 C31 1_555 1_555
C32 P4 1_555 1_555
H76 C32 1_555 1_555
H77 C32 1_555 1_555
P1B O1B 1_555 1_555
P2B O8B 1_555 1_555
P3B O14B 1_555 1_555
P4B O20B 1_555 1_555
P5B O23B 1_555 1_555
P6B O26B 1_555 1_555
O3B P1B 1_555 1_555
O6B P1B 1_555 1_555
H4B O6B 1_555 1_555
O10B P2B 1_555 1_555
H9B O10B 1_555 1_555
O12B P2B 1_555 1_555
O16B P3B 1_555 1_555
O19B P3B 1_555 1_555
O21B P4B 1_555 1_555
H22B O21B 1_555 1_555
O22B P4B 1_555 1_555
O24B P5B 1_555 1_555
H23B O24B 1_555 1_555
O25B P5B 1_555 1_555
O27B P6B 1_555 1_555
O28B P6B 1_555 1_555
H24B O28B 1_555 1_555
N1B H25B 1_555 1_555
N2B H26B 1_555 1_555
N3B H27B 1_555 1_555
N4B H28B 1_555 1_555
N5B H29B 1_555 1_555
N6B H30B 1_555 1_555
C1B N1B 1_555 1_555
H31B C1B 1_555 1_555
H32B C1B 1_555 1_555
C2B N1B 1_555 1_555
H33B C2B 1_555 1_555
H34B C2B 1_555 1_555
C3B C2B 1_555 1_555
C4B C3B 1_555 1_555
H35B C4B 1_555 1_555
C5B C4B 1_555 1_555
H36B C5B 1_555 1_555
C6B C5B 1_555 1_555
H37B C6B 1_555 1_555
C7B C6B 1_555 1_555
C8B C3B 1_555 1_555
H38B C8B 1_555 1_555
C9B N2B 1_555 1_555
H39B C9B 1_555 1_555
H40B C9B 1_555 1_555
C10B N2B 1_555 1_555
H41B C10B 1_555 1_555
C11B N3B 1_555 1_555
H42B C11B 1_555 1_555
H43B C11B 1_555 1_555
C12B C13 1_555 1_555
H44B C12B 1_555 1_555
H45B C12B 1_555 1_555
C13B C12 1_555 1_555
H46B C13B 1_555 1_555
H47B C13B 1_555 1_555
C14B N4B 1_555 1_555
H48B C14B 1_555 1_555
H49B C14B 1_555 1_555
C15B N4B 1_555 1_555
H50B C15B 1_555 1_555
H51B C15B 1_555 1_555
C16B C15B 1_555 1_555
H52B C16B 1_555 1_555
H53B C16B 1_555 1_555
C17B N5B 1_555 1_555
H54B C17B 1_555 1_555
H55B C17B 1_555 1_555
C18B N5B 1_555 1_555
H56B C18B 1_555 1_555
H57B C18B 1_555 1_555
C19B N6B 1_555 1_555
H58B C19B 1_555 1_555
H59B C19B 1_555 1_555
C20B N6B 1_555 1_555
H60B C20B 1_555 1_555
H61B C20B 1_555 1_555
C21B C20B 1_555 1_555
C22B C21B 1_555 1_555
H62B C22B 1_555 1_555
C23B C22B 1_555 1_555
H63B C23B 1_555 1_555
C24B C25 1_555 1_555
H64B C24B 1_555 1_555
C25B C24 1_555 1_555
C26B C25 1_555 1_555
H65B C26B 1_555 1_555
C27B P1B 1_555 1_555
H66B C27B 1_555 1_555
H67B C27B 1_555 1_555
C28B P5B 1_555 1_555
H68B C28B 1_555 1_555
H69B C28B 1_555 1_555
C29B P6B 1_555 1_555
H70B C29B 1_555 1_555
H71B C29B 1_555 1_555
C30B P2B 1_555 1_555
H72B C30B 1_555 1_555
H73B C30B 1_555 1_555
C31B P3B 1_555 1_555
H74B C31B 1_555 1_555
H75B C31B 1_555 1_555
C32B P4B 1_555 1_555
H76B C32B 1_555 1_555
H77B C32B 1_555 1_555
N1 C27 1_555 1_555
N2 C30 1_555 1_555
N3 C31 1_555 1_555
N4 C32 1_555 1_555
N5 C28 1_555 1_555
N6 C29 1_555 1_555
C7 C8 1_555 1_555
C7 C9 1_555 1_555
C10 C11 1_555 1_555
C16 C17 1_555 1_555
C18 C19 1_555 1_555
C26 C25B 1_555 1_555
N1B C27B 1_555 1_555
N2B C30B 1_555 1_555
N3B C12B 1_555 1_555
N3B C31B 1_555 1_555
N4B C32B 1_555 1_555
N5B C28B 1_555 1_555
N6B C29B 1_555 1_555
C1B C13B 1_555 1_555
C7B C8B 1_555 1_555
C7B C9B 1_555 1_555
C10B C11B 1_555 1_555
C14B C25B 1_555 1_555
C16B C17B 1_555 1_555
C18B C19B 1_555 1_555
C21B C26B 1_555 1_555
C23B C24B 1_555 1_555

#END
