
#######################################################################
#
#                 Cambridge Crystallographic Data Centre
#                                CCDC 
#
#######################################################################
#
# If this CIF has been generated from an entry in the Cambridge 
# Structural Database, then it will include bibliographic, chemical, 
# crystal, experimental, refinement or atomic coordinate data resulting 
# from the CCDC's data processing and validation procedures.
#
#######################################################################

data_YIZWOU
_chemical_formula_moiety         
'C34 H64 N6 O18 P6,2(H3 O1 1+),2(Cl1 1-),2(C1 H4 O1),11(H2 O1)'
_chemical_name_systematic        
'bis(Oxonium) 3,7,11,18,22,26-hexaazoniatricyclo(26.2.2.2^13,16^)tetratriaconta-1(30),13,15,28,31,33-hexaene-3,7,11,18,22,26-hexakis(methylenephosphonate) dichloride methanol solvate undecahydrate'
_symmetry_cell_setting           triclinic
_symmetry_space_group_name_H-M   'P -1'
_symmetry_Int_Tables_number      2
_space_group_name_Hall           '-P 1'
loop_
_symmetry_equiv_pos_site_id
_symmetry_equiv_pos_as_xyz
1 x,y,z
2 -x,-y,-z
_cell_length_a                   12.078(3)
_cell_length_b                   12.387(4)
_cell_length_c                   12.659(4)
_cell_angle_alpha                108.106(4)
_cell_angle_beta                 109.290(4)
_cell_angle_gamma                99.810(5)
_cell_volume                     1618.46
_exptl_crystal_colour            colorless
_exptl_crystal_description       block
_cell_formula_units_Z            1
loop_
_atom_site_label
_atom_site_type_symbol
_atom_site_fract_x
_atom_site_fract_y
_atom_site_fract_z
P1 P 0.27490(7) 0.29375(7) 1.43473(7)
P2 P -0.22504(7) 0.00109(7) 0.42761(7)
P3 P 0.14463(8) 0.73085(8) 0.73643(8)
N1 N 0.3617(2) 0.2093(2) 1.2549(2)
N2 N -0.0256(2) 0.1566(2) 0.6524(2)
H1 H 0.022(3) 0.120(3) 0.624(3)
N3 N 0.2492(2) 0.5379(2) 0.7073(2)
H2 H 0.261(3) 0.489(4) 0.653(4)
H3 H 0.401(3) 0.194(3) 1.303(3)
O1 O 0.2691(2) 0.4139(2) 1.5017(2)
O3 O 0.1470(2) 0.1971(2) 1.3661(2)
H5 H 0.0920 0.2294 1.3705
O5 O 0.3648(2) 0.2460(2) 1.5064(2)
O7 O -0.1487(2) -0.0791(2) 0.4093(2)
O9 O -0.3174(2) -0.0415(2) 0.4795(2)
H12 H -0.3194 -0.1108 0.4758
O11 O -0.2985(2) 0.0271(2) 0.3209(2)
O13 O 0.1321(2) 0.7209(2) 0.8468(2)
O15 O 0.0411(2) 0.7474(2) 0.6444(2)
O16 O 0.2686(2) 0.8297(2) 0.7812(2)
H19 H 0.2601 0.8677 0.7359
C1 C 0.5627(3) 0.3287(3) 1.2774(3)
H24 H 0.5556 0.3962 1.3391
H25 H 0.6121 0.2870 1.3201
C2 C 0.4352(3) 0.2432(3) 1.1889(3)
H26 H 0.3912 0.2813 1.1372
H27 H 0.4434 0.1704 1.1350
C3 C 0.3249(3) 0.3112(3) 1.3186(3)
H28 H 0.2573 0.3224 1.2571
H29 H 0.3957 0.3846 1.3571
C4 C 0.2532(3) 0.0973(3) 1.1710(3)
H30 H 0.2850 0.0288 1.1490
H31 H 0.2031 0.0818 1.2158
C5 C 0.1716(3) 0.1044(3) 1.0560(3)
C6 C 0.0757(3) 0.1534(3) 1.0516(3)
H32 H 0.0627 0.1863 1.1234
C7 C -0.0011(3) 0.1548(3) 0.9433(3)
H33 H -0.0644 0.1912 0.9421
C8 C 0.0137(3) 0.1035(3) 0.8366(3)
C9 C 0.1084(3) 0.0526(3) 0.8407(3)
H34 H 0.1192 0.0167 0.7682
C10 C 0.1867(3) 0.0539(3) 0.9490(3)
H35 H 0.2517 0.0199 0.9506
C11 C -0.0786(3) 0.0933(3) 0.7178(3)
H36 H -0.1436 0.1262 0.7330
H37 H -0.1181 0.0078 0.6635
C12 C -0.1267(3) 0.1497(3) 0.5403(3)
H38 H -0.0886 0.1911 0.4995
H39 H -0.1799 0.1947 0.5664
C13 C 0.0490(3) 0.2839(3) 0.7362(3)
H40 H 0.1153 0.2850 0.8083
H41 H -0.0046 0.3263 0.7649
C14 C 0.1054(3) 0.3485(3) 0.6740(3)
H42 H 0.0401 0.3617 0.6120
H43 H 0.1470 0.2995 0.6323
C15 C 0.1984(3) 0.4682(3) 0.7682(3)
H44 H 0.1580 0.5146 0.8140
H45 H 0.2666 0.4545 0.8269
C16 C 0.1597(3) 0.5923(3) 0.6454(3)
H46 H 0.0773 0.5321 0.6036
H47 H 0.1825 0.6063 0.5815
C17 C 0.6256(3) 0.3746(3) 1.2075(3)
H48 H 0.5745 0.4139 1.1628
H49 H 0.6341 0.3069 1.1472
P1A P 0.72510(7) 0.70625(7) 0.56527(7)
P2A P 1.22504(7) 0.99891(7) 1.57239(7)
P3A P 0.85537(8) 0.26915(8) 1.26357(8)
N1A N 0.6383(2) 0.7907(2) 0.7451(2)
N2A N 1.0256(2) 0.8434(2) 1.3476(2)
H1A H 0.978(3) 0.880(3) 1.376(3)
N3A N 0.7508(2) 0.4621(2) 1.2927(2)
H2A H 0.739(3) 0.511(4) 1.347(4)
H3A H 0.599(3) 0.806(3) 0.697(3)
O1A O 0.7309(2) 0.5861(2) 0.4983(2)
O3A O 0.8530(2) 0.8029(2) 0.6339(2)
H5A H 0.9080 0.7706 0.6295
O5A O 0.6352(2) 0.7540(2) 0.4936(2)
O7A O 1.1487(2) 1.0791(2) 1.5907(2)
O9A O 1.3174(2) 1.0415(2) 1.5205(2)
H12A H 1.3194 1.1108 1.5242
O11A O 1.2985(2) 0.9729(2) 1.6791(2)
O13A O 0.8679(2) 0.2791(2) 1.1532(2)
O15A O 0.9589(2) 0.2526(2) 1.3556(2)
O16A O 0.7314(2) 0.1703(2) 1.2188(2)
H19A H 0.7399 0.1323 1.2641
C1A C 0.4373(3) 0.6713(3) 0.7226(3)
H24A H 0.4444 0.6038 0.6609
H25A H 0.3879 0.7130 0.6799
C2A C 0.5648(3) 0.7568(3) 0.8111(3)
H26A H 0.6088 0.7187 0.8628
H27A H 0.5566 0.8296 0.8650
C3A C 0.6751(3) 0.6888(3) 0.6814(3)
H28A H 0.7427 0.6776 0.7429
H29A H 0.6043 0.6154 0.6429
C4A C 0.7468(3) 0.9027(3) 0.8290(3)
H30A H 0.7150 0.9712 0.8510
H31A H 0.7969 0.9182 0.7842
C5A C 0.8284(3) 0.8956(3) 0.9440(3)
C6A C 0.9243(3) 0.8466(3) 0.9484(3)
H32A H 0.9373 0.8137 0.8766
C7A C 1.0011(3) 0.8452(3) 1.0567(3)
H33A H 1.0644 0.8088 1.0579
C8A C 0.9863(3) 0.8965(3) 1.1634(3)
C9A C 0.8916(3) 0.9474(3) 1.1593(3)
H34A H 0.8808 0.9833 1.2318
C10A C 0.8133(3) 0.9461(3) 1.0510(3)
H35A H 0.7483 0.9801 1.0494
C11A C 1.0786(3) 0.9067(3) 1.2822(3)
H36A H 1.1436 0.8738 1.2670
H37A H 1.1181 0.9922 1.3365
C12A C 1.1267(3) 0.8503(3) 1.4597(3)
H38A H 1.0886 0.8089 1.5005
H39A H 1.1799 0.8053 1.4336
C13A C 0.9510(3) 0.7161(3) 1.2638(3)
H40A H 0.8847 0.7150 1.1917
H41A H 1.0046 0.6737 1.2351
C14A C 0.8946(3) 0.6515(3) 1.3260(3)
H42A H 0.9599 0.6383 1.3880
H43A H 0.8530 0.7005 1.3677
C15A C 0.8016(3) 0.5318(3) 1.2318(3)
H44A H 0.8420 0.4854 1.1860
H45A H 0.7334 0.5455 1.1731
C16A C 0.8403(3) 0.4077(3) 1.3546(3)
H46A H 0.9227 0.4679 1.3964
H47A H 0.8175 0.3937 1.4185
C17A C 0.3744(3) 0.6254(3) 0.7925(3)
H48A H 0.4255 0.5861 0.8372
H49A H 0.3659 0.6931 0.8528
O2 O 0.7917(4) 0.4277(3) 0.6030(3)
H4 H 0.7383 0.3747 0.6048
H56 H 0.863(5) 0.478(5) 0.684(5)
H58 H 0.77(2) 0.46(2) 0.52(2)
O4 O 0.4952(3) 0.0838(3) 0.3643(3)
H6 H 0.4605 0.1227 0.3261
H7 H 0.5546 0.0717 0.3453
O6 O 0.4491(4) 0.3876(5) 0.7632(4)
H8 H 0.4183 0.3354 0.6907
H9 H 0.4298 0.3562 0.8081
O8 O 0.9546(3) 0.5464(3) 0.8375(4)
H10 H 0.9183 0.5771 0.8808
H11 H 1.0104 0.6008 0.8405
O10 O 0.5429(4) 0.8582(5) 0.0971(3)
H13 H 0.5604 0.8665 0.0398
H14 H 0.5908 0.9111 0.1672
O12 O 0.3206(3) 0.8390(3) 0.0659(3)
H15 H 0.3942 0.8432 0.0743
H16 H 0.2734 0.7788 0.0089
O17 O 0.5948(8) 0.6756(9) 0.0737(7)
H20 H 0.6534 0.7332 0.1337
H21 H 0.5422 0.6999 0.0313
H57 H 0.566(3) 0.625(3) 0.084(3)
O18 O 0.3822(4) 0.7416(4) 0.4055(4)
H22 H 0.4300 0.7589 0.4789
C19 C 0.4061(12) 0.6450(11) 0.3332(12)
H53 H 0.4370 0.5957 0.3738
H54 H 0.4589 0.6787 0.3016
H55 H 0.3262 0.6064 0.2670
O19 O 0.2504(4) 0.7188(5) 0.1809(5)
H23 H 0.2773 0.6840 0.1299
C18 C 0.3279(12) 0.8345(11) 0.2756(12)
H50 H 0.3783 0.8299 0.3497
H51 H 0.3747 0.8732 0.2422
H52 H 0.2692 0.8761 0.2849
Cl1 Cl 0.27271(18) 0.44830(12) 0.07573(13)
O14? O 0.1216(9) 0.4916(10) 0.0186(9)
H17? H 0.0894 0.4674 0.0607
H18? H 0.1657 0.5638 0.0611
Cl2? Cl 0.3514(7) 0.4539(7) 0.0696(7)
loop_
_geom_bond_atom_site_label_1
_geom_bond_atom_site_label_2
_geom_bond_site_symmetry_1
_geom_bond_site_symmetry_2
P1 O1 1_555 1_555
P2 O7 1_555 1_555
P3 O13 1_555 1_555
N1 H3 1_555 1_555
N2 H1 1_555 1_555
N3 H2 1_555 1_555
O2 H4 1_555 1_555
O3 P1 1_555 1_555
H5 O3 1_555 1_555
O4 H6 1_555 1_555
H7 O4 1_555 1_555
O5 P1 1_555 1_555
O6 H8 1_555 1_555
H9 O6 1_555 1_555
O8 H10 1_555 1_555
H11 O8 1_555 1_555
O9 P2 1_555 1_555
H12 O9 1_555 1_555
O10 H13 1_555 1_555
H14 O10 1_555 1_555
O11 P2 1_555 1_555
O12 H15 1_555 1_555
H16 O12 1_555 1_555
O15 P3 1_555 1_555
O16 P3 1_555 1_555
H19 O16 1_555 1_555
O17 H20 1_555 1_555
H21 O17 1_555 1_555
O18 H22 1_555 1_555
O19 H23 1_555 1_555
C1 H24 1_555 1_555
H25 C1 1_555 1_555
C2 N1 1_555 1_555
H26 C2 1_555 1_555
H27 C2 1_555 1_555
C3 P1 1_555 1_555
H28 C3 1_555 1_555
H29 C3 1_555 1_555
C4 N1 1_555 1_555
H30 C4 1_555 1_555
H31 C4 1_555 1_555
C5 C4 1_555 1_555
C6 C5 1_555 1_555
H32 C6 1_555 1_555
C7 C6 1_555 1_555
H33 C7 1_555 1_555
C8 C7 1_555 1_555
C9 C8 1_555 1_555
H34 C9 1_555 1_555
C10 C5 1_555 1_555
H35 C10 1_555 1_555
C11 N2 1_555 1_555
H36 C11 1_555 1_555
H37 C11 1_555 1_555
C12 P2 1_555 1_555
H38 C12 1_555 1_555
H39 C12 1_555 1_555
C13 N2 1_555 1_555
H40 C13 1_555 1_555
H41 C13 1_555 1_555
C14 C13 1_555 1_555
H42 C14 1_555 1_555
H43 C14 1_555 1_555
C15 N3 1_555 1_555
H44 C15 1_555 1_555
H45 C15 1_555 1_555
C16 P3 1_555 1_555
H46 C16 1_555 1_555
H47 C16 1_555 1_555
C17 C1 1_555 1_555
H48 C17 1_555 1_555
H49 C17 1_555 1_555
C18 O19 1_555 1_555
H50 C18 1_555 1_555
H51 C18 1_555 1_555
H52 C18 1_555 1_555
C19 O18 1_555 1_555
H53 C19 1_555 1_555
H54 C19 1_555 1_555
H55 C19 1_555 1_555
H56 O2 1_555 1_555
H57 O17 1_555 1_555
H58 O2 1_555 1_555
P1A O1A 1_555 1_555
P2A O7A 1_555 1_555
P3A O13A 1_555 1_555
N1A H3A 1_555 1_555
N2A H1A 1_555 1_555
N3A C17 1_555 1_555
H2A N3A 1_555 1_555
O3A P1A 1_555 1_555
H5A O3A 1_555 1_555
O5A P1A 1_555 1_555
O9A P2A 1_555 1_555
H12A O9A 1_555 1_555
O11A P2A 1_555 1_555
O15A P3A 1_555 1_555
O16A P3A 1_555 1_555
H19A O16A 1_555 1_555
C1A H24A 1_555 1_555
H25A C1A 1_555 1_555
C2A N1A 1_555 1_555
H26A C2A 1_555 1_555
H27A C2A 1_555 1_555
C3A P1A 1_555 1_555
H28A C3A 1_555 1_555
H29A C3A 1_555 1_555
C4A N1A 1_555 1_555
H30A C4A 1_555 1_555
H31A C4A 1_555 1_555
C5A C4A 1_555 1_555
C6A C5A 1_555 1_555
H32A C6A 1_555 1_555
C7A C6A 1_555 1_555
H33A C7A 1_555 1_555
C8A C7A 1_555 1_555
C9A C8A 1_555 1_555
H34A C9A 1_555 1_555
C10A C5A 1_555 1_555
H35A C10A 1_555 1_555
C11A N2A 1_555 1_555
H36A C11A 1_555 1_555
H37A C11A 1_555 1_555
C12A P2A 1_555 1_555
H38A C12A 1_555 1_555
H39A C12A 1_555 1_555
C13A N2A 1_555 1_555
H40A C13A 1_555 1_555
H41A C13A 1_555 1_555
C14A C13A 1_555 1_555
H42A C14A 1_555 1_555
H43A C14A 1_555 1_555
C15A N3A 1_555 1_555
H44A C15A 1_555 1_555
H45A C15A 1_555 1_555
C16A P3A 1_555 1_555
H46A C16A 1_555 1_555
H47A C16A 1_555 1_555
C17A N3 1_555 1_555
H48A C17A 1_555 1_555
H49A C17A 1_555 1_555
N1 C3 1_555 1_555
N2 C12 1_555 1_555
N3 C16 1_555 1_555
C1 C2 1_555 1_555
C8 C11 1_555 1_555
C9 C10 1_555 1_555
C14 C15 1_555 1_555
N1A C3A 1_555 1_555
N2A C12A 1_555 1_555
N3A C16A 1_555 1_555
C1A C2A 1_555 1_555
C1A C17A 1_555 1_555
C8A C11A 1_555 1_555
C9A C10A 1_555 1_555
C14A C15A 1_555 1_555

#END
