
#######################################################################
#
#                 Cambridge Crystallographic Data Centre
#                                CCDC 
#
#######################################################################
#
# If this CIF has been generated from an entry in the Cambridge 
# Structural Database, then it will include bibliographic, chemical, 
# crystal, experimental, refinement or atomic coordinate data resulting 
# from the CCDC's data processing and validation procedures.
#
#######################################################################

data_YIZZUE
_chemical_formula_moiety         'C19 H21 N1 O6'
_chemical_name_systematic        
4-(4-hydroxy-3,5-dimethoxyphenyl)-6,7-dimethoxy-1,4-dihydroisoquinolin-3(2H)-one
_symmetry_cell_setting           monoclinic
_symmetry_space_group_name_H-M   'P 21/n'
_symmetry_Int_Tables_number      14
_space_group_name_Hall           '-P 2yn'
loop_
_symmetry_equiv_pos_site_id
_symmetry_equiv_pos_as_xyz
1 x,y,z
2 1/2-x,1/2+y,1/2-z
3 -x,-y,-z
4 1/2+x,1/2-y,1/2+z
_cell_length_a                   10.594(3)
_cell_length_b                   14.206(3)
_cell_length_c                   11.535(3)
_cell_angle_alpha                90
_cell_angle_beta                 98.606(4)
_cell_angle_gamma                90
_cell_volume                     1716.45
_exptl_crystal_colour            colorless
_exptl_crystal_description       Prism
_cell_formula_units_Z            4
loop_
_atom_site_label
_atom_site_type_symbol
_atom_site_fract_x
_atom_site_fract_y
_atom_site_fract_z
O1 O 0.43242(8) 0.28685(6) 1.02389(7)
O2 O 1.01295(8) -0.01448(5) 1.28820(7)
O3 O 0.91092(8) -0.08679(5) 1.09150(7)
O4 O 0.83323(8) 0.27456(6) 0.74182(7)
O5 O 0.70170(8) 0.16474(6) 0.57287(6)
H1 H 0.7764 0.1853 0.5752
O6 O 0.49931(8) 0.06989(6) 0.60863(7)
N1 N 0.59298(10) 0.28563(7) 1.17561(9)
C1 C 0.70028(11) 0.24499(8) 1.25411(10)
H2 H 0.6732 0.2321 1.3310
H3 H 0.7706 0.2915 1.2667
C2 C 0.74902(11) 0.15561(8) 1.20757(9)
C3 C 0.85907(11) 0.11429(8) 1.27135(10)
H4 H 0.8996 0.1431 1.3415
C4 C 0.90794(11) 0.03242(8) 1.23248(10)
C5 C 0.84990(11) -0.00930(8) 1.12654(10)
C6 C 0.74180(11) 0.03068(8) 1.06571(10)
H5 H 0.7015 0.0021 0.9953
C7 C 0.68975(11) 0.11359(8) 1.10630(9)
C8 C 0.57314(11) 0.15570(8) 1.03209(9)
H6 H 0.5018 0.1095 1.0315
C9 C 0.52853(11) 0.24813(8) 1.07834(9)
C10 C 1.09305(15) 0.03532(10) 1.37682(15)
H7 H 1.1218 0.0938 1.3441
H8 H 1.1673 -0.0036 1.4065
H9 H 1.0455 0.0502 1.4411
C11 C 0.87502(14) -0.11445(9) 0.97192(11)
H10 H 0.7875 -0.1388 0.9608
H11 H 0.9332 -0.1636 0.9523
H12 H 0.8798 -0.0599 0.9208
C12 C 0.59751(11) 0.16646(8) 0.90618(9)
C13 C 0.70153(11) 0.21979(8) 0.88475(9)
H13 H 0.7499 0.2543 0.9466
C14 C 0.73459(11) 0.22259(7) 0.77318(10)
C15 C 0.66749(11) 0.16901(7) 0.68241(9)
C16 C 0.56040(11) 0.11867(7) 0.70358(9)
C17 C 0.52511(11) 0.11753(7) 0.81518(9)
H14 H 0.4517 0.0834 0.8291
C18 C 0.90619(13) 0.33003(10) 0.83113(11)
H15 H 0.8497 0.3744 0.8634
H16 H 0.9717 0.3650 0.7975
H17 H 0.9472 0.2887 0.8937
C19 C 0.37783(11) 0.02954(8) 0.61794(10)
H18 H 0.3851 -0.0104 0.6879
H19 H 0.3490 -0.0086 0.5482
H20 H 0.3159 0.0799 0.6241
H21 H 0.5620(13) 0.3381(7) 1.2028(10)
loop_
_geom_bond_atom_site_label_1
_geom_bond_atom_site_label_2
_geom_bond_site_symmetry_1
_geom_bond_site_symmetry_2
O1 C9 1_555 1_555
O2 C4 1_555 1_555
O3 C5 1_555 1_555
O4 C14 1_555 1_555
O5 H1 1_555 1_555
O6 C16 1_555 1_555
N1 C1 1_555 1_555
C1 H2 1_555 1_555
H3 C1 1_555 1_555
C2 C1 1_555 1_555
C3 C2 1_555 1_555
H4 C3 1_555 1_555
C4 C3 1_555 1_555
C5 C4 1_555 1_555
C6 C5 1_555 1_555
H5 C6 1_555 1_555
C7 C2 1_555 1_555
C8 C7 1_555 1_555
H6 C8 1_555 1_555
C9 N1 1_555 1_555
C10 O2 1_555 1_555
H7 C10 1_555 1_555
H8 C10 1_555 1_555
H9 C10 1_555 1_555
C11 O3 1_555 1_555
H10 C11 1_555 1_555
H11 C11 1_555 1_555
H12 C11 1_555 1_555
C12 C8 1_555 1_555
C13 C12 1_555 1_555
H13 C13 1_555 1_555
C14 C13 1_555 1_555
C15 O5 1_555 1_555
C16 C15 1_555 1_555
C17 C12 1_555 1_555
H14 C17 1_555 1_555
C18 O4 1_555 1_555
H15 C18 1_555 1_555
H16 C18 1_555 1_555
H17 C18 1_555 1_555
C19 O6 1_555 1_555
H18 C19 1_555 1_555
H19 C19 1_555 1_555
H20 C19 1_555 1_555
H21 N1 1_555 1_555
C6 C7 1_555 1_555
C8 C9 1_555 1_555
C14 C15 1_555 1_555
C16 C17 1_555 1_555

#END
