
#######################################################################
#
#                 Cambridge Crystallographic Data Centre
#                                CCDC 
#
#######################################################################
#
# If this CIF has been generated from an entry in the Cambridge 
# Structural Database, then it will include bibliographic, chemical, 
# crystal, experimental, refinement or atomic coordinate data resulting 
# from the CCDC's data processing and validation procedures.
#
#######################################################################

data_YOBZOG
_chemical_formula_moiety         'C12 H9 N4 S1 1+,Cl1 1-'
_chemical_name_systematic        
"3-methyl[1,3]thiazolo[3',2':2,3][1,2,4]triazino[5,6-b]indol-10-ium chloride"
_symmetry_cell_setting           monoclinic
_symmetry_space_group_name_H-M   'P 21/n'
_symmetry_Int_Tables_number      14
_space_group_name_Hall           '-P 2yn'
loop_
_symmetry_equiv_pos_site_id
_symmetry_equiv_pos_as_xyz
1 x,y,z
2 1/2-x,1/2+y,1/2-z
3 -x,-y,-z
4 1/2+x,1/2-y,1/2+z
_cell_length_a                   8.9740(3)
_cell_length_b                   12.8141(3)
_cell_length_c                   10.2075(3)
_cell_angle_alpha                90
_cell_angle_beta                 96.481(2)
_cell_angle_gamma                90
_cell_volume                     1166.3
_exptl_crystal_colour            yellow
_cell_formula_units_Z            4
loop_
_atom_site_label
_atom_site_type_symbol
_atom_site_fract_x
_atom_site_fract_y
_atom_site_fract_z
Cl1 Cl 0.81764(6) 0.68802(3) 0.61798(5)
S1 S 0.48057(5) 0.18797(3) 0.49742(5)
N1 N 0.67683(16) 0.03384(11) 0.57457(14)
N2 N 0.88238(16) -0.07831(11) 0.64497(15)
H1 H 0.8372 -0.1376 0.6389
N3 N 0.90229(16) 0.19422(10) 0.62227(14)
N4 N 0.75741(15) 0.21174(10) 0.57749(13)
C1 C 0.5579(2) 0.31141(13) 0.50694(19)
H2 H 0.5028 0.3713 0.4833
C2 C 0.65018(18) 0.13568(12) 0.55562(16)
C3 C 0.81827(18) 0.01455(12) 0.61707(16)
C4 C 1.0356(2) -0.06292(13) 0.68583(16)
C5 C 1.1431(2) -0.13733(14) 0.72401(18)
H3 H 1.1194 -0.2080 0.7248
C6 C 1.2883(2) -0.10207(16) 0.76118(19)
H4 H 1.3627 -0.1502 0.7893
C7 C 1.07093(19) 0.04394(13) 0.68450(16)
C8 C 1.2173(2) 0.07720(15) 0.71899(19)
H5 H 1.2421 0.1476 0.7163
C9 C 1.3252(2) 0.00322(16) 0.7573(2)
H6 H 1.4238 0.0240 0.7809
C10 C 0.93134(18) 0.09559(12) 0.64106(16)
C11 C 0.7050(2) 0.31354(12) 0.55153(17)
C12 C 0.8106(2) 0.40175(14) 0.5767(2)
H7 H 0.7596 0.4660 0.5526
H8 H 0.8929 0.3930 0.5252
H9 H 0.8478 0.4035 0.6686
loop_
_geom_bond_atom_site_label_1
_geom_bond_atom_site_label_2
_geom_bond_site_symmetry_1
_geom_bond_site_symmetry_2
S1 C1 1_555 1_555
N1 C2 1_555 1_555
N2 H1 1_555 1_555
N3 N4 1_555 1_555
N4 C2 1_555 1_555
C1 H2 1_555 1_555
C2 S1 1_555 1_555
C3 N1 1_555 1_555
C4 N2 1_555 1_555
C5 C4 1_555 1_555
H3 C5 1_555 1_555
C6 C5 1_555 1_555
H4 C6 1_555 1_555
C7 C4 1_555 1_555
C8 C7 1_555 1_555
H5 C8 1_555 1_555
C9 C6 1_555 1_555
H6 C9 1_555 1_555
C10 N3 1_555 1_555
C11 N4 1_555 1_555
C12 C11 1_555 1_555
H7 C12 1_555 1_555
H8 C12 1_555 1_555
H9 C12 1_555 1_555
N2 C3 1_555 1_555
C1 C11 1_555 1_555
C3 C10 1_555 1_555
C7 C10 1_555 1_555
C8 C9 1_555 1_555

#END
