
#######################################################################
#
#                 Cambridge Crystallographic Data Centre
#                                CCDC 
#
#######################################################################
#
# If this CIF has been generated from an entry in the Cambridge 
# Structural Database, then it will include bibliographic, chemical, 
# crystal, experimental, refinement or atomic coordinate data resulting 
# from the CCDC's data processing and validation procedures.
#
#######################################################################

data_YOCHUV
_chemical_formula_moiety         'C19 H18 Cl5 O4 P1 S1'
_chemical_name_systematic        
'2,4,10,16,18-Pentachloro-7,8,13,14-tetrahydro-6H,12H,20H-dibenzo[h,k][1,3,7,13,2]tetraoxaphosphacyclohexadecine 10-sulfide'
_symmetry_cell_setting           monoclinic
_symmetry_space_group_name_H-M   'P 21/c'
_symmetry_Int_Tables_number      14
_space_group_name_Hall           '-P 2ybc'
loop_
_symmetry_equiv_pos_site_id
_symmetry_equiv_pos_as_xyz
1 x,y,z
2 -x,1/2+y,1/2-z
3 -x,-y,-z
4 x,1/2-y,1/2+z
_cell_length_a                   12.3919(6)
_cell_length_b                   13.6990(5)
_cell_length_c                   14.0032(6)
_cell_angle_alpha                90
_cell_angle_beta                 100.369(2)
_cell_angle_gamma                90
_cell_volume                     2338.32
_cell_formula_units_Z            4
loop_
_atom_site_label
_atom_site_type_symbol
_atom_site_fract_x
_atom_site_fract_y
_atom_site_fract_z
P1 P -0.34027(8) 0.15291(7) 0.22145(8)
S1 S -0.33572(8) 0.25127(6) 0.31855(8)
Cl1 Cl -0.36096(8) -0.29920(7) 0.05326(8)
Cl2 Cl 0.06167(8) -0.39131(6) 0.06822(6)
Cl3 Cl 0.35974(7) -0.07957(6) 0.42133(7)
Cl4 Cl 0.21786(7) 0.10793(6) 0.08697(6)
Cl5 Cl -0.48509(7) 0.14222(7) 0.13545(8)
O1 O -0.27137(19) -0.13588(15) 0.18159(17)
O2 O -0.00365(18) 0.03174(15) 0.11248(16)
O3 O -0.25340(16) 0.17251(13) 0.15582(16)
O4 O -0.30929(18) 0.04832(15) 0.25963(17)
C1 C -0.1931(3) -0.1974(2) 0.1577(3)
C2 C -0.2232(3) -0.2774(3) 0.0968(3)
C3 C -0.1452(3) -0.3372(2) 0.0678(2)
H1 H -0.1652 -0.3902 0.0269
C4 C -0.0382(3) -0.3158(2) 0.1013(2)
C5 C -0.0049(3) -0.2366(2) 0.1598(2)
H2 H 0.0694 -0.2235 0.1793
C6 C -0.0827(3) -0.1765(2) 0.1896(2)
C7 C -0.0509(2) -0.0913(2) 0.2580(2)
H3 H -0.1033 -0.0389 0.2400
H4 H -0.0563 -0.1118 0.3233
C8 C 0.0632(3) -0.0521(2) 0.2587(3)
C9 C 0.1493(3) -0.0798(2) 0.3306(2)
H5 H 0.1368 -0.1217 0.3798
C10 C 0.2531(3) -0.0457(2) 0.3294(3)
C11 C 0.2755(3) 0.0130(2) 0.2565(3)
H6 H 0.3465 0.0348 0.2559
C12 C 0.1909(3) 0.0386(2) 0.1845(3)
C13 C 0.0828(3) 0.0094(2) 0.1851(3)
C14 C -0.0367(3) 0.1322(2) 0.1059(2)
H7 H 0.0191 0.1712 0.0836
H8 H -0.0450 0.1558 0.1695
C15 C -0.1430(3) 0.1423(2) 0.0368(2)
H9 H -0.1382 0.1059 -0.0217
H10 H -0.1535 0.2104 0.0189
C16 C -0.2427(3) 0.1071(2) 0.0759(2)
H11 H -0.3078 0.1100 0.0258
H12 H -0.2324 0.0403 0.0988
C17 C -0.3695(3) -0.0050(3) 0.3218(3)
H13 H -0.3240 -0.0134 0.3852
H14 H -0.4340 0.0319 0.3299
C18 C -0.4024(3) -0.0994(3) 0.2810(3)
H15 H -0.4518 -0.0882 0.2199
H16 H -0.4450 -0.1306 0.3241
C19 C -0.3205(3) -0.1691(2) 0.2625(3)
H17 H -0.3544 -0.2324 0.2475
H18 H -0.2642 -0.1760 0.3199
loop_
_geom_bond_atom_site_label_1
_geom_bond_atom_site_label_2
_geom_bond_site_symmetry_1
_geom_bond_site_symmetry_2
P1 S1 1_555 1_555
Cl1 C2 1_555 1_555
Cl2 C4 1_555 1_555
Cl3 C10 1_555 1_555
Cl4 C12 1_555 1_555
Cl5 P1 1_555 1_555
O1 C1 1_555 1_555
O2 C13 1_555 1_555
O3 P1 1_555 1_555
O4 P1 1_555 1_555
C1 C2 1_555 1_555
C2 C3 1_555 1_555
C3 H1 1_555 1_555
C4 C3 1_555 1_555
C5 C4 1_555 1_555
H2 C5 1_555 1_555
C6 C1 1_555 1_555
C7 C6 1_555 1_555
H3 C7 1_555 1_555
H4 C7 1_555 1_555
C8 C7 1_555 1_555
C9 C8 1_555 1_555
H5 C9 1_555 1_555
C10 C9 1_555 1_555
C11 C10 1_555 1_555
H6 C11 1_555 1_555
C12 C11 1_555 1_555
C13 C8 1_555 1_555
C14 O2 1_555 1_555
H7 C14 1_555 1_555
H8 C14 1_555 1_555
C15 C14 1_555 1_555
H9 C15 1_555 1_555
H10 C15 1_555 1_555
C16 O3 1_555 1_555
H11 C16 1_555 1_555
H12 C16 1_555 1_555
C17 O4 1_555 1_555
H13 C17 1_555 1_555
H14 C17 1_555 1_555
C18 C17 1_555 1_555
H15 C18 1_555 1_555
H16 C18 1_555 1_555
C19 O1 1_555 1_555
H17 C19 1_555 1_555
H18 C19 1_555 1_555
C5 C6 1_555 1_555
C12 C13 1_555 1_555
C15 C16 1_555 1_555
C18 C19 1_555 1_555

#END
