
#######################################################################
#
#                 Cambridge Crystallographic Data Centre
#                                CCDC 
#
#######################################################################
#
# If this CIF has been generated from an entry in the Cambridge 
# Structural Database, then it will include bibliographic, chemical, 
# crystal, experimental, refinement or atomic coordinate data resulting 
# from the CCDC's data processing and validation procedures.
#
#######################################################################

data_YOCKOQ
_chemical_formula_moiety         
'0.92(Cs1 1+),3.08(Na1 1+),16(C19 H31 N5 O5 Si1),4(C6 H2 N3 O7 1-),4(C2 H3 N1)'
_chemical_name_systematic        
"Cesium tri-sodium hexadecakis(5'-(t-butyldimethylsilyl)-2',3'-O'-isopropylidene-guanosine) tetrakis(picrate) acetonitrile solvate"
_symmetry_cell_setting           tetragonal
_symmetry_space_group_name_H-M   'I 4'
_symmetry_Int_Tables_number      79
_space_group_name_Hall           'I 4'
loop_
_symmetry_equiv_pos_site_id
_symmetry_equiv_pos_as_xyz
1 x,y,z
2 -y,x,z
3 -x,-y,z
4 y,-x,z
5 1/2+x,1/2+y,1/2+z
6 1/2-y,1/2+x,1/2+z
7 1/2-x,1/2-y,1/2+z
8 1/2+y,1/2-x,1/2+z
_cell_length_a                   30.622(7)
_cell_length_b                   30.622(7)
_cell_length_c                   25.748(8)
_cell_angle_alpha                90
_cell_angle_beta                 90
_cell_angle_gamma                90
_cell_volume                     24144.1
_exptl_crystal_colour            'canary yellow'
_exptl_crystal_description       block
_cell_formula_units_Z            2
loop_
_atom_site_label
_atom_site_type_symbol
_atom_site_fract_x
_atom_site_fract_y
_atom_site_fract_z
Cs1 Cs 0.0000 0.0000 -0.20629(3)
Na2 Na 0.0000 0.0000 -0.06125(6)
Na3 Na 0.0000 0.0000 0.07229(6)
Na4 Na 0.0000 0.0000 0.20860(6)
N1 N 0.01487(9) -0.11745(9) -0.12255(12)
H1 H -0.0099 -0.1029 -0.1221
N2 N -0.02701(10) -0.18069(10) -0.12318(15)
H2 H -0.0294 -0.2093 -0.1234
H3 H -0.0506 -0.1643 -0.1231
C1 C 0.01249(11) -0.16211(11) -0.12303(15)
N3 N 0.04772(10) -0.18772(10) -0.12320(13)
C2 C 0.08541(11) -0.16483(11) -0.12201(15)
C3 C 0.09081(11) -0.12041(11) -0.12193(14)
O1 O 0.05189(8) -0.05252(7) -0.12329(10)
C4 C 0.05340(11) -0.09339(11) -0.12269(14)
N4 N 0.13440(10) -0.10929(10) -0.12095(14)
C5 C 0.15457(13) -0.14709(12) -0.12030(18)
H4 H 0.1855 -0.1498 -0.1191
N5 N 0.12691(10) -0.18251(10) -0.12151(14)
O2 O 0.15618(9) -0.23669(9) -0.17687(13)
C6 C 0.14275(13) -0.22760(12) -0.12556(18)
H5 H 0.1688 -0.2306 -0.1024
O3 O 0.13250(11) -0.29574(9) -0.08132(14)
C7 C 0.11003(13) -0.26234(12) -0.11038(18)
H6 H 0.0844 -0.2501 -0.0912
O4 O 0.11436(12) -0.32802(10) -0.15658(15)
C8 C 0.09710(15) -0.28414(14) -0.16177(19)
H7 H 0.0648 -0.2838 -0.1678
C9 C 0.11934(16) -0.33682(14) -0.1025(2)
C10 C 0.07664(18) -0.35178(16) -0.0792(3)
H8 H 0.0542 -0.3295 -0.0852
H9 H 0.0804 -0.3562 -0.0417
H10 H 0.0677 -0.3793 -0.0954
C11 C 0.1558(2) -0.36891(18) -0.0947(3)
H11 H 0.1821 -0.3584 -0.1124
H12 H 0.1473 -0.3973 -0.1090
H13 H 0.1618 -0.3720 -0.0574
C12 C 0.12216(14) -0.26017(14) -0.20381(19)
H14 H 0.1360 -0.2822 -0.2273
C13 C 0.09330(16) -0.23016(16) -0.2361(2)
H15 H 0.0705 -0.2477 -0.2537
H16 H 0.0785 -0.2090 -0.2130
O5 O 0.11843(13) -0.20684(11) -0.27453(13)
Si1 Si 0.10725(7) -0.20992(8) -0.33628(8)
C14 C 0.0846(7) -0.2585(7) -0.3614(10)
H17 H 0.1026 -0.2834 -0.3508
H18 H 0.0838 -0.2569 -0.3994
H19 H 0.0549 -0.2622 -0.3480
C15 C 0.0721(6) -0.1644(6) -0.3555(5)
H20 H 0.0434 -0.1676 -0.3392
H21 H 0.0688 -0.1642 -0.3934
H22 H 0.0854 -0.1368 -0.3443
C16 C 0.1618(3) -0.2057(3) -0.3671(3)
C17 C 0.1904(5) -0.2466(6) -0.3498(7)
H23 H 0.2195 -0.2445 -0.3653
H24 H 0.1763 -0.2736 -0.3615
H25 H 0.1930 -0.2470 -0.3118
C18 C 0.1596(5) -0.2088(5) -0.4263(5)
H26 H 0.1891 -0.2067 -0.4407
H27 H 0.1417 -0.1848 -0.4398
H28 H 0.1465 -0.2368 -0.4363
C19 C 0.1876(5) -0.1652(5) -0.3496(6)
H29 H 0.2164 -0.1653 -0.3661
H30 H 0.1911 -0.1657 -0.3118
H31 H 0.1717 -0.1387 -0.3598
N6 N 0.11193(9) -0.03838(9) 0.00549(13)
H47 H 0.0879 -0.0541 0.0036
N7 N 0.14967(10) -0.10427(10) 0.01081(14)
H48 H 0.1739 -0.1196 0.0128
H49 H 0.1243 -0.1177 0.0099
C26 C 0.15144(11) -0.06063(12) 0.00907(15)
N8 N 0.18984(9) -0.04021(10) 0.01037(13)
C27 C 0.18572(11) 0.00332(11) 0.00832(15)
C28 C 0.14813(11) 0.02818(11) 0.00609(15)
O6 O 0.07034(7) 0.02298(7) 0.00369(10)
C29 C 0.10748(11) 0.00633(11) 0.00464(14)
N9 N 0.15765(9) 0.07248(9) 0.00406(13)
C30 C 0.20067(12) 0.07363(12) 0.00430(17)
H50 H 0.2170 0.1000 0.0023
N10 N 0.21978(9) 0.03297(10) 0.00777(14)
O7 O 0.27502(9) 0.00764(9) -0.04536(12)
C31 C 0.26586(12) 0.02390(14) 0.0040(2)
H51 H 0.2823 0.0518 0.0088
O8 O 0.30385(12) 0.00810(15) 0.08859(16)
C32 C 0.28269(15) -0.01003(17) 0.0447(2)
H52 H 0.2582 -0.0294 0.0561
O9 O 0.35476(11) -0.00999(14) 0.02825(17)
C33 C 0.31516(16) -0.03571(16) 0.01453(19)
H53 H 0.3169 -0.0670 0.0254
C34 C 0.35042(18) 0.0039(2) 0.0802(3)
C35 C 0.36802(19) -0.0288(2) 0.1163(3)
H54 H 0.3764 -0.0145 0.1489
H55 H 0.3937 -0.0427 0.1008
H56 H 0.3457 -0.0509 0.1233
C36 C 0.3712(3) 0.0481(3) 0.0846(4)
H57 H 0.3661 0.0599 0.1195
H58 H 0.3584 0.0678 0.0587
H59 H 0.4027 0.0456 0.0785
C37 C 0.30392(14) -0.02972(13) -0.04238(18)
H60 H 0.3314 -0.0226 -0.0616
C38 C 0.28308(16) -0.06843(15) -0.0677(2)
H61 H 0.3026 -0.0941 -0.0643
H62 H 0.2553 -0.0753 -0.0499
Si3 Si 0.30836(4) -0.07454(4) -0.16974(6)
O10 O 0.27459(9) -0.06003(10) -0.12233(14)
C39 C 0.3318(2) -0.12924(19) -0.1541(3)
H63 H 0.3081 -0.1506 -0.1507
H64 H 0.3481 -0.1276 -0.1214
H65 H 0.3515 -0.1383 -0.1821
C40 C 0.35408(19) -0.0341(2) -0.1758(3)
H66 H 0.3421 -0.0053 -0.1843
H67 H 0.3741 -0.0434 -0.2033
H68 H 0.3700 -0.0324 -0.1428
C41 C 0.27386(17) -0.07480(18) -0.2295(2)
C42 C 0.2600(2) -0.0279(2) -0.2440(3)
H69 H 0.2430 -0.0284 -0.2762
H70 H 0.2860 -0.0097 -0.2488
H71 H 0.2421 -0.0156 -0.2160
C43 C 0.2335(2) -0.1033(2) -0.2212(3)
H72 H 0.2163 -0.1044 -0.2533
H73 H 0.2156 -0.0909 -0.1932
H74 H 0.2426 -0.1329 -0.2117
C44 C 0.3001(3) -0.0942(3) -0.2765(3)
H75 H 0.2816 -0.0942 -0.3076
H76 H 0.3090 -0.1242 -0.2685
H77 H 0.3261 -0.0763 -0.2828
N11 N -0.07936(9) -0.08712(9) 0.13652(12)
H78 H -0.0508 -0.0897 0.1377
N12 N -0.08190(10) -0.16260(10) 0.13183(14)
H79 H -0.0961 -0.1875 0.1304
H80 H -0.0532 -0.1624 0.1317
C45 C -0.10385(12) -0.12511(11) 0.13425(14)
N13 N -0.14688(10) -0.12515(10) 0.13447(13)
C46 C -0.16430(11) -0.08478(11) 0.13669(14)
C47 C -0.14281(11) -0.04522(11) 0.13723(14)
O11 O -0.07183(7) -0.01271(7) 0.13794(10)
C48 C -0.09687(11) -0.04501(11) 0.13709(14)
N14 N -0.17292(9) -0.01095(9) 0.13918(13)
C49 C -0.21094(12) -0.03037(12) 0.14024(15)
H81 H -0.2379 -0.0152 0.1420
N15 N -0.20770(9) -0.07528(9) 0.13858(13)
O12 O -0.24144(9) -0.12692(9) 0.19226(12)
C50 C -0.24364(12) -0.10693(13) 0.14314(17)
H82 H -0.2719 -0.0907 0.1407
O13 O -0.27998(12) -0.13794(11) 0.06877(17)
C51 C -0.24349(13) -0.14244(14) 0.10172(18)
H83 H -0.2155 -0.1428 0.0817
O14 O -0.29509(13) -0.19386(14) 0.12194(15)
C52 C -0.25017(15) -0.18394(15) 0.13103(18)
H84 H -0.2304 -0.2077 0.1187
C53 C -0.30614(16) -0.17667(18) 0.0738(3)
C54 C -0.2955(2) -0.2073(2) 0.0288(2)
H85 H -0.2648 -0.2163 0.0311
H86 H -0.3004 -0.1921 -0.0042
H87 H -0.3143 -0.2331 0.0306
C55 C -0.3535(2) -0.1638(4) 0.0735(4)
H88 H -0.3593 -0.1439 0.1025
H89 H -0.3716 -0.1900 0.0771
H90 H -0.3604 -0.1492 0.0407
C56 C -0.24365(15) -0.17370(14) 0.18794(18)
H91 H -0.2695 -0.1844 0.2079
C57 C -0.20273(14) -0.19430(14) 0.21029(19)
H92 H -0.2044 -0.2264 0.2065
H93 H -0.1769 -0.1840 0.1906
Si4 Si -0.21202(4) -0.21870(4) 0.31038(5)
O15 O -0.19752(9) -0.18349(9) 0.26410(12)
C58 C -0.27006(14) -0.23499(16) 0.3016(2)
H94 H -0.2888 -0.2092 0.3050
H95 H -0.2780 -0.2565 0.3281
H96 H -0.2739 -0.2478 0.2670
C59 C -0.17678(17) -0.26791(16) 0.3052(2)
H97 H -0.1822 -0.2825 0.2719
H98 H -0.1835 -0.2880 0.3337
H99 H -0.1460 -0.2592 0.3072
C60 C -0.20389(15) -0.18862(17) 0.3730(2)
C61 C -0.15736(17) -0.1718(2) 0.3786(2)
H100 H -0.1543 -0.1564 0.4117
H101 H -0.1508 -0.1518 0.3500
H102 H -0.1370 -0.1965 0.3776
C62 C -0.2349(2) -0.1495(2) 0.3758(3)
H103 H -0.2305 -0.1340 0.4086
H104 H -0.2652 -0.1598 0.3737
H105 H -0.2290 -0.1297 0.3467
C63 C -0.2128(2) -0.2197(2) 0.4184(2)
H106 H -0.2085 -0.2042 0.4513
H107 H -0.1927 -0.2445 0.4166
H108 H -0.2430 -0.2303 0.4164
N16 N 0.11300(10) 0.03276(10) 0.26514(12)
H109 H 0.0893 0.0490 0.2660
N17 N 0.15237(11) 0.09711(11) 0.26546(14)
H110 H 0.1772 0.1116 0.2655
H111 H 0.1274 0.1114 0.2655
C64 C 0.15255(12) 0.05417(12) 0.26537(15)
N18 N 0.19073(10) 0.03321(11) 0.26537(14)
C65 C 0.18610(13) -0.01058(13) 0.26366(16)
C66 C 0.14807(13) -0.03470(13) 0.26286(15)
O16 O 0.07047(8) -0.02838(8) 0.26272(11)
C67 C 0.10730(12) -0.01250(12) 0.26362(14)
N19 N 0.15658(12) -0.07902(11) 0.26056(15)
C68 C 0.19915(14) -0.08087(14) 0.2608(2)
H112 H 0.2147 -0.1077 0.2604
N20 N 0.21953(11) -0.04124(11) 0.26155(17)
O17 O 0.28010(13) -0.0422(2) 0.3228(2)
C69 C 0.26688(15) -0.03628(17) 0.2678(3)
H113 H 0.2827 -0.0575 0.2450
O18 O 0.32663(10) 0.00739(11) 0.23846(19)
C70 C 0.28304(15) 0.00949(15) 0.2582(2)
H114 H 0.2630 0.0268 0.2354
O19 O 0.3322(2) 0.04524(19) 0.3127(3)
C71 C 0.2894(2) 0.0298(3) 0.3108(3)
H115 H 0.2685 0.0546 0.3155
C72 C 0.34921(18) 0.04259(19) 0.2619(4)
C73 C 0.3405(3) 0.0840(2) 0.2309(5)
H116 H 0.3096 0.0919 0.2339
H117 H 0.3478 0.0790 0.1943
H118 H 0.3585 0.1078 0.2446
C74 C 0.3977(2) 0.0306(2) 0.2617(5)
H119 H 0.4025 0.0051 0.2840
H120 H 0.4148 0.0553 0.2748
H121 H 0.4069 0.0238 0.2262
C83 C 0.2848(4) 0.0022(4) 0.3478(5)
H140 H 0.3117 0.0024 0.3698
Si6 Si 0.2068(3) -0.0130(5) 0.4646(5)
C84 C 0.2452(4) 0.0145(4) 0.3818(5)
H141 H 0.2494 0.0437 0.3976
H142 H 0.2182 0.0151 0.3606
O21 O 0.2429(5) -0.0106(6) 0.4120(4)
C85 C 0.2237(7) 0.0303(6) 0.5053(8)
H143 H 0.2555 0.0292 0.5096
H144 H 0.2096 0.0275 0.5392
H145 H 0.2155 0.0582 0.4894
C86 C 0.2145(10) -0.0647(9) 0.4957(12)
H146 H 0.2254 -0.0860 0.4704
H147 H 0.1866 -0.0749 0.5099
H148 H 0.2357 -0.0617 0.5240
C87 C 0.1501(5) -0.0072(5) 0.4468(6)
C88 C 0.1317(6) -0.0417(6) 0.4115(7)
H149 H 0.1004 -0.0364 0.4062
H150 H 0.1357 -0.0705 0.4274
H151 H 0.1468 -0.0408 0.3780
C89 C 0.1435(8) 0.0385(6) 0.4174(9)
H152 H 0.1122 0.0436 0.4115
H153 H 0.1587 0.0377 0.3839
H154 H 0.1554 0.0622 0.4387
C90 C 0.1187(7) -0.0036(8) 0.4964(8)
H155 H 0.0887 0.0018 0.4849
H156 H 0.1284 0.0207 0.5185
H157 H 0.1198 -0.0309 0.5162
C91 C 0.14890(14) 0.26059(13) 0.06151(19)
O22 O 0.14103(11) 0.22196(9) 0.07462(14)
O23 O 0.18965(12) 0.20425(12) -0.01108(16)
C92 C 0.16797(13) 0.27368(14) 0.01196(19)
N21 N 0.17875(12) 0.24053(13) -0.0257(2)
O24 O 0.17593(13) 0.25101(12) -0.07252(17)
C93 C 0.17568(15) 0.31697(14) -0.0015(2)
H158 H 0.1877 0.3238 -0.0345
O25 O 0.16160(18) 0.42317(13) 0.0473(2)
N22 N 0.1748(2) 0.39450(14) 0.0174(3)
C94 C 0.16616(16) 0.34949(15) 0.0323(2)
O26 O 0.1935(2) 0.40125(15) -0.0239(3)
C95 C 0.14850(17) 0.34037(14) 0.0813(2)
H159 H 0.1426 0.3633 0.1052
C96 C 0.13981(16) 0.29755(14) 0.09421(19)
O27 O 0.12993(18) 0.31265(17) 0.18133(18)
N23 N 0.11914(18) 0.28975(14) 0.14406(19)
O28 O 0.08981(19) 0.26187(13) 0.14758(18)
N24 N 0.1182(3) -0.4063(2) -0.2343(3)
C97 C 0.0947(4) -0.3829(6) -0.2627(7)
C98 C 0.0719(5) -0.3502(6) -0.2777(6)
H160 H 0.0431 -0.3513 -0.2611
H161 H 0.0683 -0.3512 -0.3155
H162 H 0.0867 -0.3230 -0.2679
N25 N 0.0000 0.0000 0.3602(6)
C99 C 0.0000 0.0000 0.4180(8)
C100 C 0.0000 0.0000 0.4570(16)
N26 N 0.0261(3) -0.0914(4) -0.2469(3)
C101 C 0.0662(4) -0.0914(3) -0.2478(3)
C102 C 0.1142(3) -0.0880(4) -0.2505(3)
H166 H 0.1232 -0.0837 -0.2867
H167 H 0.1273 -0.1150 -0.2372
H168 H 0.1240 -0.0632 -0.2295
N27 N -0.0091(9) 0.4493(14) -0.0205(17)
C103 C 0.0269(7) 0.4414(8) -0.0343(10)
C104 C 0.0635(5) 0.4154(5) -0.0399(6)
H169 H 0.0710 0.4024 -0.0063
H170 H 0.0880 0.4332 -0.0523
H171 H 0.0574 0.3922 -0.0651
N30 N 0.4145(6) -0.0276(6) 0.3919(7)
C109 C 0.3913(8) -0.0164(9) 0.4263(10)
C110 C 0.3588(9) -0.0009(10) 0.4567(10)
Na1? Na 0.0000 0.0000 -0.20629(3)
Cs2? Cs 0.0000 0.0000 -0.06125(6)
Cs3? Cs 0.0000 0.0000 0.07229(6)
Cs4? Cs 0.0000 0.0000 0.20860(6)
Si2? Si 0.13648(13) -0.22460(14) -0.33560(15)
C20? C 0.0820(10) -0.2610(16) -0.3492(15)
H32? H 0.0805 -0.2850 -0.3241
H33? H 0.0832 -0.2730 -0.3845
H34? H 0.0560 -0.2425 -0.3456
C21? C 0.1828(8) -0.2588(9) -0.3313(8)
H35? H 0.2087 -0.2411 -0.3241
H36? H 0.1867 -0.2744 -0.3642
H37? H 0.1786 -0.2800 -0.3032
C22? C 0.1472(5) -0.1750(6) -0.3767(5)
C23? C 0.1075(8) -0.1444(7) -0.3772(7)
H38? H 0.1142 -0.1184 -0.3979
H39? H 0.1004 -0.1357 -0.3415
H40? H 0.0824 -0.1597 -0.3925
C24? C 0.1593(10) -0.1866(7) -0.4323(7)
H41? H 0.1647 -0.1598 -0.4520
H42? H 0.1352 -0.2029 -0.4483
H43? H 0.1857 -0.2047 -0.4322
C25? C 0.1871(9) -0.1492(9) -0.3527(14)
H44? H 0.1805 -0.1414 -0.3166
H45? H 0.1923 -0.1226 -0.3729
H46? H 0.2132 -0.1677 -0.3536
C75? C 0.2848(4) 0.0022(4) 0.3478(5)
H122? H 0.3101 0.0031 0.3724
Si5? Si 0.1930(5) -0.0114(7) 0.4583(7)
C76? C 0.2414(7) -0.0343(7) 0.3712(9)
H123? H 0.2148 -0.0322 0.3494
H124? H 0.2513 -0.0651 0.3725
O20? O 0.2337(8) -0.0150(9) 0.4271(7)
C77? C 0.1507(12) -0.0358(14) 0.4143(16)
H125? H 0.1441 -0.0153 0.3862
H126? H 0.1241 -0.0417 0.4342
H127? H 0.1619 -0.0631 0.3996
C78? C 0.1837(7) 0.0465(6) 0.4799(9)
H128? H 0.2089 0.0566 0.4999
H129? H 0.1574 0.0478 0.5016
H130? H 0.1798 0.0652 0.4494
C79? C 0.2053(6) -0.0458(6) 0.5161(7)
C80? C 0.2190(6) -0.0906(5) 0.4992(8)
H131? H 0.2264 -0.1082 0.5297
H132? H 0.2445 -0.0883 0.4764
H133? H 0.1950 -0.1045 0.4802
C81? C 0.1679(8) -0.0441(10) 0.5549(10)
H134? H 0.1749 -0.0625 0.5849
H135? H 0.1411 -0.0546 0.5384
H136? H 0.1637 -0.0139 0.5665
C82? C 0.2445(7) -0.0239(8) 0.5469(9)
H137? H 0.2526 -0.0423 0.5764
H138? H 0.2355 0.0050 0.5595
H139? H 0.2697 -0.0206 0.5237
H163? H 0.0289 -0.0086 0.4697
H164? H -0.0219 -0.0208 0.4697
H165? H -0.0070 0.0293 0.4697
N28? N 0.1165(11) 0.4744(8) -0.0596(14)
C105? C 0.1006(10) 0.4378(7) -0.0606(13)
C106? C 0.0887(4) 0.3979(3) -0.0447(4)
N29? N 0.5064(9) 0.0274(8) 0.3002(11)
C107? C 0.5000 0.0000 0.3309(11)
C108? C 0.4701(10) -0.0280(10) 0.3518(13)
N31? N 0.1119(13) 0.5197(17) 0.147(2)
C111? C 0.1478(9) 0.5090(9) 0.1272(11)
C112? C 0.1889(12) 0.5202(16) 0.1009(18)
N32? N 0.0700(17) 0.514(3) 0.181(3)
C113? C 0.0355(15) 0.5011(19) 0.165(2)
C114? C 0.0000 0.5000 0.135(2)
N33? N 0.0000 0.0000 -0.344(5)
C115? C 0.032(3) -0.022(3) -0.389(4)
loop_
_geom_bond_atom_site_label_1
_geom_bond_atom_site_label_2
_geom_bond_site_symmetry_1
_geom_bond_site_symmetry_2
N1 H1 1_555 1_555
N2 H2 1_555 1_555
H3 N2 1_555 1_555
C1 N1 1_555 1_555
N3 C1 1_555 1_555
C2 N3 1_555 1_555
C3 C2 1_555 1_555
O1 C4 1_555 1_555
C4 N1 1_555 1_555
N4 C3 1_555 1_555
C5 N4 1_555 1_555
H4 C5 1_555 1_555
N5 C2 1_555 1_555
O2 C6 1_555 1_555
C6 N5 1_555 1_555
H5 C6 1_555 1_555
O3 C7 1_555 1_555
C7 C6 1_555 1_555
H6 C7 1_555 1_555
O4 C8 1_555 1_555
C8 C7 1_555 1_555
H7 C8 1_555 1_555
C9 O3 1_555 1_555
C10 C9 1_555 1_555
H8 C10 1_555 1_555
H9 C10 1_555 1_555
H10 C10 1_555 1_555
C11 C9 1_555 1_555
H11 C11 1_555 1_555
H12 C11 1_555 1_555
H13 C11 1_555 1_555
C12 O2 1_555 1_555
H14 C12 1_555 1_555
C13 C12 1_555 1_555
H15 C13 1_555 1_555
H16 C13 1_555 1_555
O5 C13 1_555 1_555
Si1 O5 1_555 1_555
C14 Si1 1_555 1_555
H17 C14 1_555 1_555
H18 C14 1_555 1_555
H19 C14 1_555 1_555
C15 Si1 1_555 1_555
H20 C15 1_555 1_555
H21 C15 1_555 1_555
H22 C15 1_555 1_555
C16 Si1 1_555 1_555
C17 C16 1_555 1_555
H23 C17 1_555 1_555
H24 C17 1_555 1_555
H25 C17 1_555 1_555
C18 C16 1_555 1_555
H26 C18 1_555 1_555
H27 C18 1_555 1_555
H28 C18 1_555 1_555
C19 C16 1_555 1_555
H29 C19 1_555 1_555
H30 C19 1_555 1_555
H31 C19 1_555 1_555
N6 H47 1_555 1_555
N7 H48 1_555 1_555
H49 N7 1_555 1_555
C26 N6 1_555 1_555
N8 C26 1_555 1_555
C27 N8 1_555 1_555
C28 C27 1_555 1_555
O6 C29 1_555 1_555
C29 N6 1_555 1_555
N9 C28 1_555 1_555
C30 N9 1_555 1_555
H50 C30 1_555 1_555
N10 C27 1_555 1_555
O7 C31 1_555 1_555
C31 N10 1_555 1_555
H51 C31 1_555 1_555
O8 C32 1_555 1_555
C32 C31 1_555 1_555
H52 C32 1_555 1_555
O9 C33 1_555 1_555
C33 C32 1_555 1_555
H53 C33 1_555 1_555
C34 O8 1_555 1_555
C35 C34 1_555 1_555
H54 C35 1_555 1_555
H55 C35 1_555 1_555
H56 C35 1_555 1_555
C36 C34 1_555 1_555
H57 C36 1_555 1_555
H58 C36 1_555 1_555
H59 C36 1_555 1_555
C37 O7 1_555 1_555
H60 C37 1_555 1_555
C38 C37 1_555 1_555
H61 C38 1_555 1_555
H62 C38 1_555 1_555
Si3 O10 1_555 1_555
O10 C38 1_555 1_555
C39 Si3 1_555 1_555
H63 C39 1_555 1_555
H64 C39 1_555 1_555
H65 C39 1_555 1_555
C40 Si3 1_555 1_555
H66 C40 1_555 1_555
H67 C40 1_555 1_555
H68 C40 1_555 1_555
C41 Si3 1_555 1_555
C42 C41 1_555 1_555
H69 C42 1_555 1_555
H70 C42 1_555 1_555
H71 C42 1_555 1_555
C43 C41 1_555 1_555
H72 C43 1_555 1_555
H73 C43 1_555 1_555
H74 C43 1_555 1_555
C44 C41 1_555 1_555
H75 C44 1_555 1_555
H76 C44 1_555 1_555
H77 C44 1_555 1_555
N11 H78 1_555 1_555
N12 H79 1_555 1_555
H80 N12 1_555 1_555
C45 N11 1_555 1_555
N13 C45 1_555 1_555
C46 N13 1_555 1_555
C47 C46 1_555 1_555
O11 C48 1_555 1_555
C48 N11 1_555 1_555
N14 C47 1_555 1_555
C49 N14 1_555 1_555
H81 C49 1_555 1_555
N15 C46 1_555 1_555
O12 C50 1_555 1_555
C50 N15 1_555 1_555
H82 C50 1_555 1_555
O13 C51 1_555 1_555
C51 C50 1_555 1_555
H83 C51 1_555 1_555
O14 C52 1_555 1_555
C52 C51 1_555 1_555
H84 C52 1_555 1_555
C53 O13 1_555 1_555
C54 C53 1_555 1_555
H85 C54 1_555 1_555
H86 C54 1_555 1_555
H87 C54 1_555 1_555
C55 C53 1_555 1_555
H88 C55 1_555 1_555
H89 C55 1_555 1_555
H90 C55 1_555 1_555
C56 O12 1_555 1_555
H91 C56 1_555 1_555
C57 C56 1_555 1_555
H92 C57 1_555 1_555
H93 C57 1_555 1_555
Si4 O15 1_555 1_555
O15 C57 1_555 1_555
C58 Si4 1_555 1_555
H94 C58 1_555 1_555
H95 C58 1_555 1_555
H96 C58 1_555 1_555
C59 Si4 1_555 1_555
H97 C59 1_555 1_555
H98 C59 1_555 1_555
H99 C59 1_555 1_555
C60 Si4 1_555 1_555
C61 C60 1_555 1_555
H100 C61 1_555 1_555
H101 C61 1_555 1_555
H102 C61 1_555 1_555
C62 C60 1_555 1_555
H103 C62 1_555 1_555
H104 C62 1_555 1_555
H105 C62 1_555 1_555
C63 C60 1_555 1_555
H106 C63 1_555 1_555
H107 C63 1_555 1_555
H108 C63 1_555 1_555
N16 H109 1_555 1_555
N17 H110 1_555 1_555
H111 N17 1_555 1_555
C64 N16 1_555 1_555
N18 C64 1_555 1_555
C65 N18 1_555 1_555
C66 C65 1_555 1_555
O16 C67 1_555 1_555
C67 N16 1_555 1_555
N19 C66 1_555 1_555
C68 N19 1_555 1_555
H112 C68 1_555 1_555
N20 C65 1_555 1_555
O17 C69 1_555 1_555
C69 N20 1_555 1_555
H113 C69 1_555 1_555
O18 C70 1_555 1_555
C70 C69 1_555 1_555
H114 C70 1_555 1_555
O19 C71 1_555 1_555
C71 C70 1_555 1_555
H115 C71 1_555 1_555
C72 O18 1_555 1_555
C73 C72 1_555 1_555
H116 C73 1_555 1_555
H117 C73 1_555 1_555
H118 C73 1_555 1_555
C74 C72 1_555 1_555
H119 C74 1_555 1_555
H120 C74 1_555 1_555
H121 C74 1_555 1_555
C83 O17 1_555 1_555
H140 C83 1_555 1_555
Si6 O21 1_555 1_555
C84 C83 1_555 1_555
H141 C84 1_555 1_555
H142 C84 1_555 1_555
O21 C84 1_555 1_555
C85 Si6 1_555 1_555
H143 C85 1_555 1_555
H144 C85 1_555 1_555
H145 C85 1_555 1_555
C86 Si6 1_555 1_555
H146 C86 1_555 1_555
H147 C86 1_555 1_555
H148 C86 1_555 1_555
C87 Si6 1_555 1_555
C88 C87 1_555 1_555
H149 C88 1_555 1_555
H150 C88 1_555 1_555
H151 C88 1_555 1_555
C89 C87 1_555 1_555
H152 C89 1_555 1_555
H153 C89 1_555 1_555
H154 C89 1_555 1_555
C90 C87 1_555 1_555
H155 C90 1_555 1_555
H156 C90 1_555 1_555
H157 C90 1_555 1_555
C91 O22 1_555 1_555
O23 N21 1_555 1_555
C92 C91 1_555 1_555
N21 C92 1_555 1_555
O24 N21 1_555 1_555
C93 C92 1_555 1_555
H158 C93 1_555 1_555
O25 N22 1_555 1_555
N22 C94 1_555 1_555
C94 C93 1_555 1_555
O26 N22 1_555 1_555
C95 C94 1_555 1_555
H159 C95 1_555 1_555
C96 C91 1_555 1_555
O27 N23 1_555 1_555
N23 C96 1_555 1_555
O28 N23 1_555 1_555
N24 C97 1_555 1_555
C97 C98 1_555 1_555
C98 H160 1_555 1_555
H161 C98 1_555 1_555
H162 C98 1_555 1_555
N25 C99 1_555 1_555
C99 C100 1_555 1_555
N26 C101 1_555 1_555
C101 C102 1_555 1_555
C102 H166 1_555 1_555
H167 C102 1_555 1_555
H168 C102 1_555 1_555
N27 C103 1_555 1_555
C103 C104 1_555 1_555
C104 H169 1_555 1_555
H170 C104 1_555 1_555
H171 C104 1_555 1_555
N30 C109 1_555 1_555
C109 C110 1_555 1_555
N2 C1 1_555 1_555
C3 C4 1_555 1_555
C5 N5 1_555 1_555
O4 C9 1_555 1_555
C8 C12 1_555 1_555
N7 C26 1_555 1_555
C28 C29 1_555 1_555
C30 N10 1_555 1_555
O9 C34 1_555 1_555
C33 C37 1_555 1_555
N12 C45 1_555 1_555
C47 C48 1_555 1_555
C49 N15 1_555 1_555
O14 C53 1_555 1_555
C52 C56 1_555 1_555
N17 C64 1_555 1_555
C66 C67 1_555 1_555
C68 N20 1_555 1_555
O19 C72 1_555 1_555
C71 C83 1_555 1_555
C95 C96 1_555 1_555

#END
