
#######################################################################
#
#                 Cambridge Crystallographic Data Centre
#                                CCDC 
#
#######################################################################
#
# If this CIF has been generated from an entry in the Cambridge 
# Structural Database, then it will include bibliographic, chemical, 
# crystal, experimental, refinement or atomic coordinate data resulting 
# from the CCDC's data processing and validation procedures.
#
#######################################################################

data_YOCQEO
_chemical_formula_moiety         'C28 H30 N2 O4'
_chemical_name_systematic        
6'-(4-methoxyphenyl)-1'-(4-nitrophenyl)-7',8',9',9a'-tetrahydro-1'H-spiro[cyclohexane-1,3'-[1,3]oxazino[5,4,3-hi]indole]
_symmetry_cell_setting           triclinic
_symmetry_space_group_name_H-M   'P -1'
_symmetry_Int_Tables_number      2
_space_group_name_Hall           '-P 1'
loop_
_symmetry_equiv_pos_site_id
_symmetry_equiv_pos_as_xyz
1 x,y,z
2 -x,-y,-z
_cell_length_a                   9.7600(6)
_cell_length_b                   10.9026(9)
_cell_length_c                   12.4389(8)
_cell_angle_alpha                81.462(6)
_cell_angle_beta                 80.813(5)
_cell_angle_gamma                65.420(7)
_cell_volume                     1183.26
_exptl_crystal_colour            yellow
_exptl_crystal_description       platelet
_cell_formula_units_Z            2
loop_
_atom_site_label
_atom_site_type_symbol
_atom_site_fract_x
_atom_site_fract_y
_atom_site_fract_z
O1 O 0.96385(19) 0.3233(2) -0.54895(14)
O2 O 0.8071(3) 0.2277(2) -0.50421(15)
O3 O 0.75813(13) 0.31514(12) 0.02755(9)
O4 O 0.64993(18) 0.85297(17) 0.65174(12)
N1 N 0.8778(2) 0.2883(2) -0.48216(16)
N2 N 0.70024(16) 0.44348(15) 0.17695(12)
C1 C 0.7267(2) 0.3315(2) -0.19081(16)
H1 H 0.6521 0.3168 -0.1409
C2 C 0.7436(2) 0.3018(2) -0.29725(17)
H2 H 0.6820 0.2664 -0.3195
C3 C 0.8537(2) 0.3258(2) -0.36971(16)
C4 C 0.9425(2) 0.3816(2) -0.34033(16)
H3 H 1.0128 0.4011 -0.3917
C5 C 0.9263(2) 0.4085(2) -0.23381(16)
H4 H 0.9881 0.4444 -0.2125
C6 C 0.81910(19) 0.38304(18) -0.15717(14)
C7 C 0.8046(2) 0.41212(18) -0.04056(14)
H5 H 0.9043 0.3995 -0.0231
C8 C 0.69162(19) 0.55233(18) -0.01426(14)
H6 H 0.5924 0.5638 -0.0318
C9 C 0.7232(2) 0.6728(2) -0.06924(16)
H7 H 0.7082 0.6847 -0.1460
H8 H 0.8281 0.6554 -0.0648
C10 C 0.6209(3) 0.8017(2) -0.01671(17)
H9 H 0.5162 0.8183 -0.0211
H10 H 0.6399 0.8769 -0.0579
C11 C 0.6429(2) 0.79756(19) 0.10266(16)
H11 H 0.7319 0.8146 0.1063
H12 H 0.5558 0.8681 0.1377
C12 C 0.66167(18) 0.66183(17) 0.16232(15)
C13 C 0.68152(19) 0.55683(18) 0.10585(14)
C14 C 0.66673(18) 0.61231(18) 0.27577(14)
C15 C 0.6919(2) 0.47820(19) 0.27995(15)
H13 H 0.7018 0.4195 0.3434
C16 C 0.65375(18) 0.68259(18) 0.37130(15)
C17 C 0.6837(2) 0.7972(2) 0.36327(17)
H14 H 0.7057 0.8350 0.2941
C18 C 0.6823(2) 0.8581(2) 0.45376(18)
H15 H 0.7020 0.9357 0.4448
C19 C 0.6518(2) 0.8035(2) 0.55648(17)
C20 C 0.6207(2) 0.6899(2) 0.56746(17)
H16 H 0.5997 0.6522 0.6369
C21 C 0.6202(2) 0.6318(2) 0.47683(16)
H17 H 0.5967 0.5563 0.4864
C22 C 0.7035(3) 0.9572(3) 0.6448(2)
H18 H 0.6419 1.0348 0.6008
H19 H 0.8067 0.9252 0.6120
H20 H 0.6980 0.9818 0.7168
C23 C 0.76751(19) 0.30530(17) 0.14236(14)
C24 C 0.9303(2) 0.2312(2) 0.16992(16)
H21 H 0.9326 0.2309 0.2476
H22 H 0.9908 0.2788 0.1308
C25 C 0.9992(2) 0.0846(2) 0.13890(19)
H23 H 1.0074 0.0851 0.0601
H24 H 1.1004 0.0384 0.1615
C26 C 0.9032(3) 0.0091(2) 0.1926(2)
H25 H 0.9456 -0.0811 0.1682
H26 H 0.9035 0.0003 0.2713
C27 C 0.7435(2) 0.0830(2) 0.16417(19)
H27 H 0.6824 0.0354 0.2020
H28 H 0.7425 0.0840 0.0862
C28 C 0.6753(2) 0.22664(18) 0.19540(15)
H29 H 0.5735 0.2720 0.1738
H30 H 0.6681 0.2252 0.2742
loop_
_geom_bond_atom_site_label_1
_geom_bond_atom_site_label_2
_geom_bond_site_symmetry_1
_geom_bond_site_symmetry_2
O1 N1 1_555 1_555
O2 N1 1_555 1_555
O3 C7 1_555 1_555
O4 C19 1_555 1_555
N1 C3 1_555 1_555
N2 C13 1_555 1_555
C1 H1 1_555 1_555
C2 C1 1_555 1_555
H2 C2 1_555 1_555
C3 C2 1_555 1_555
C4 C3 1_555 1_555
H3 C4 1_555 1_555
C5 C4 1_555 1_555
H4 C5 1_555 1_555
C6 C1 1_555 1_555
C7 C6 1_555 1_555
H5 C7 1_555 1_555
C8 C7 1_555 1_555
H6 C8 1_555 1_555
C9 C8 1_555 1_555
H7 C9 1_555 1_555
H8 C9 1_555 1_555
C10 C9 1_555 1_555
H9 C10 1_555 1_555
H10 C10 1_555 1_555
C11 C10 1_555 1_555
H11 C11 1_555 1_555
H12 C11 1_555 1_555
C12 C11 1_555 1_555
C13 C8 1_555 1_555
C14 C12 1_555 1_555
C15 N2 1_555 1_555
H13 C15 1_555 1_555
C16 C14 1_555 1_555
C17 C16 1_555 1_555
H14 C17 1_555 1_555
C18 C17 1_555 1_555
H15 C18 1_555 1_555
C19 C18 1_555 1_555
C20 C19 1_555 1_555
H16 C20 1_555 1_555
C21 C16 1_555 1_555
H17 C21 1_555 1_555
C22 O4 1_555 1_555
H18 C22 1_555 1_555
H19 C22 1_555 1_555
H20 C22 1_555 1_555
C23 O3 1_555 1_555
C24 C23 1_555 1_555
H21 C24 1_555 1_555
H22 C24 1_555 1_555
C25 C24 1_555 1_555
H23 C25 1_555 1_555
H24 C25 1_555 1_555
C26 C25 1_555 1_555
H25 C26 1_555 1_555
H26 C26 1_555 1_555
C27 C26 1_555 1_555
H27 C27 1_555 1_555
H28 C27 1_555 1_555
C28 C23 1_555 1_555
H29 C28 1_555 1_555
H30 C28 1_555 1_555
N2 C23 1_555 1_555
C5 C6 1_555 1_555
C12 C13 1_555 1_555
C14 C15 1_555 1_555
C20 C21 1_555 1_555
C27 C28 1_555 1_555

#END
