
#######################################################################
#
#                 Cambridge Crystallographic Data Centre
#                                CCDC 
#
#######################################################################
#
# If this CIF has been generated from an entry in the Cambridge 
# Structural Database, then it will include bibliographic, chemical, 
# crystal, experimental, refinement or atomic coordinate data resulting 
# from the CCDC's data processing and validation procedures.
#
#######################################################################

data_YOCQOX
_chemical_formula_moiety         'C14 H11 Br1 N2 O2'
_chemical_name_systematic        
3-Bromo-N'-((E)-4-hydroxybenzylidene)benzohydrazide
_symmetry_cell_setting           orthorhombic
_symmetry_space_group_name_H-M   'P 21 21 21'
_symmetry_Int_Tables_number      19
_space_group_name_Hall           'P 2ac 2ab'
loop_
_symmetry_equiv_pos_site_id
_symmetry_equiv_pos_as_xyz
1 x,y,z
2 1/2-x,-y,1/2+z
3 -x,1/2+y,1/2-z
4 1/2+x,1/2-y,-z
_cell_length_a                   7.5576(11)
_cell_length_b                   11.7337(18)
_cell_length_c                   15.021(2)
_cell_angle_alpha                90
_cell_angle_beta                 90
_cell_angle_gamma                90
_cell_volume                     1332.04
_exptl_crystal_colour            colorless
_exptl_crystal_description       block
_cell_formula_units_Z            4
loop_
_atom_site_label
_atom_site_type_symbol
_atom_site_fract_x
_atom_site_fract_y
_atom_site_fract_z
Br1 Br 0.04594(5) 0.39161(3) 0.901456(17)
O1 O 0.1347(3) -0.14174(14) 0.15827(10)
H1 H 0.0663 -0.1163 0.1208
O2 O 0.0446(3) 0.45672(13) 0.48129(10)
N1 N 0.1134(3) 0.23480(18) 0.46451(12)
N2 N 0.1329(3) 0.29110(18) 0.54514(12)
C1 C 0.1401(3) 0.0602(2) 0.38450(14)
C2 C 0.0757(3) 0.1044(2) 0.30437(14)
H2 H 0.0339 0.1789 0.3024
C3 C 0.0735(3) 0.03889(19) 0.22853(14)
H3 H 0.0315 0.0692 0.1754
C4 C 0.1341(3) -0.0726(2) 0.23148(14)
C5 C 0.1975(3) -0.1177(2) 0.31015(15)
H4 H 0.2381 -0.1925 0.3120
C6 C 0.2003(3) -0.0514(2) 0.38585(15)
H5 H 0.2432 -0.0820 0.4387
C7 C 0.1494(3) 0.1299(2) 0.46504(15)
H6 H 0.1829 0.0958 0.5183
C8 C 0.0976(3) 0.4039(2) 0.54681(14)
C9 C 0.1227(3) 0.4615(2) 0.63473(15)
C10 C 0.0837(3) 0.4069(2) 0.71421(14)
H7 H 0.0457 0.3315 0.7143
C11 C 0.1020(4) 0.4657(2) 0.79290(15)
C12 C 0.1571(4) 0.5781(2) 0.79396(18)
H8 H 0.1689 0.6169 0.8476
C13 C 0.1942(4) 0.6314(2) 0.7149(2)
H9 H 0.2320 0.7068 0.7151
C14 C 0.1760(4) 0.5743(2) 0.63504(17)
H10 H 0.1995 0.6116 0.5817
H11 H 0.195(4) 0.257(2) 0.5890(15)
loop_
_geom_bond_atom_site_label_1
_geom_bond_atom_site_label_2
_geom_bond_site_symmetry_1
_geom_bond_site_symmetry_2
Br1 C11 1_555 1_555
O1 H1 1_555 1_555
O2 C8 1_555 1_555
N1 N2 1_555 1_555
N2 C8 1_555 1_555
C1 C2 1_555 1_555
C2 H2 1_555 1_555
C3 C2 1_555 1_555
H3 C3 1_555 1_555
C4 O1 1_555 1_555
C5 C4 1_555 1_555
H4 C5 1_555 1_555
C6 C1 1_555 1_555
H5 C6 1_555 1_555
C7 N1 1_555 1_555
H6 C7 1_555 1_555
C8 C9 1_555 1_555
C9 C10 1_555 1_555
C10 H7 1_555 1_555
C11 C10 1_555 1_555
C12 C11 1_555 1_555
H8 C12 1_555 1_555
C13 C12 1_555 1_555
H9 C13 1_555 1_555
C14 C9 1_555 1_555
H10 C14 1_555 1_555
H11 N2 1_555 1_555
C1 C7 1_555 1_555
C3 C4 1_555 1_555
C5 C6 1_555 1_555
C13 C14 1_555 1_555

#END
