
#######################################################################
#
#                 Cambridge Crystallographic Data Centre
#                                CCDC 
#
#######################################################################
#
# If this CIF has been generated from an entry in the Cambridge 
# Structural Database, then it will include bibliographic, chemical, 
# crystal, experimental, refinement or atomic coordinate data resulting 
# from the CCDC's data processing and validation procedures.
#
#######################################################################

data_YOCVAP01
_chemical_formula_moiety         'Cl1 O4 1-,C3 D5 N2 1+'
_chemical_name_systematic        'Perdeuteroimidazolium perchlorate'
_symmetry_cell_setting           rhombohedral
_symmetry_space_group_name_H-M   'R 3 m'
_symmetry_Int_Tables_number      160
_space_group_name_Hall           'R 3 -2"'
loop_
_symmetry_equiv_pos_site_id
_symmetry_equiv_pos_as_xyz
1 x,y,z
2 -y,x-y,z
3 -x+y,-x,z
4 -y,-x,z
5 -x+y,y,z
6 x,x-y,z
7 2/3+x,1/3+y,1/3+z
8 2/3-y,1/3+x-y,1/3+z
9 2/3-x+y,1/3-x,1/3+z
10 2/3-y,1/3-x,1/3+z
11 2/3-x+y,1/3+y,1/3+z
12 2/3+x,1/3+x-y,1/3+z
13 1/3+x,2/3+y,2/3+z
14 1/3-y,2/3+x-y,2/3+z
15 1/3-x+y,2/3-x,2/3+z
16 1/3-y,2/3-x,2/3+z
17 1/3-x+y,2/3+y,2/3+z
18 1/3+x,2/3+x-y,2/3+z
_cell_length_a                   8.1291(11)
_cell_length_b                   8.1291(11)
_cell_length_c                   8.6284(17)
_cell_angle_alpha                90
_cell_angle_beta                 90
_cell_angle_gamma                120
_cell_volume                     493.794
_cell_formula_units_Z            3
loop_
_atom_site_label
_atom_site_type_symbol
_atom_site_fract_x
_atom_site_fract_y
_atom_site_fract_z
C1 C 1.52830(18) 1.1959(2) 0.5351(2)
D1 D 1.4057 1.0963 0.5291
C1D C 1.66760(27) 1.1959(2) 0.5351(2)
D1D D 1.6906 1.0963 0.5291
C1E C 1.52830(18) 1.33240(27) 0.5351(2)
D1E D 1.4057 1.3094 0.5291
C1A C 1.8041(2) 1.33240(27) 0.5351(2)
D1A D 1.9037 1.3094 0.5291
C1B C 1.66760(27) 1.47170(18) 0.5351(2)
D1B D 1.6906 1.5943 0.5291
C1C C 1.8041(2) 1.47170(18) 0.5351(2)
D1C D 1.9037 1.5943 0.5291
Cl1 Cl 1.6667 1.3333 -0.0057
O1 O 1.76127(12) 1.23873(12) -0.0629(2)
O2 O 1.6667 1.3333 0.1537(3)
O1A O 1.76127(12) 1.52254(17) -0.0629(2)
O1B O 1.47746(17) 1.23873(12) -0.0629(2)
N1? N 1.52830(18) 1.1959(2) 0.5351(2)
loop_
_geom_bond_atom_site_label_1
_geom_bond_atom_site_label_2
_geom_bond_site_symmetry_1
_geom_bond_site_symmetry_2
Cl1 O1 1_555 1_555
O2 Cl1 1_555 1_555
C1 D1 1_555 1_555
O1A Cl1 1_555 1_555
O1B Cl1 1_555 1_555
C1D C1 1_555 1_555
D1D C1D 1_555 1_555
C1E C1 1_555 1_555
D1E C1E 1_555 1_555
C1A C1D 1_555 1_555
D1A C1A 1_555 1_555
C1B C1E 1_555 1_555
D1B C1B 1_555 1_555
C1C C1A 1_555 1_555
D1C C1C 1_555 1_555
C1B C1C 1_555 1_555

#END
