
#######################################################################
#
#                 Cambridge Crystallographic Data Centre
#                                CCDC 
#
#######################################################################
#
# If this CIF has been generated from an entry in the Cambridge 
# Structural Database, then it will include bibliographic, chemical, 
# crystal, experimental, refinement or atomic coordinate data resulting 
# from the CCDC's data processing and validation procedures.
#
#######################################################################

data_YOCVAP02
_chemical_formula_moiety         'Cl1 O4 1-,C3 D5 N2 1+'
_chemical_name_systematic        'Perdeuteroimidazolium perchlorate'
_symmetry_cell_setting           rhombohedral
_symmetry_space_group_name_H-M   'R -3 m'
_symmetry_Int_Tables_number      166
_space_group_name_Hall           '-R 3 2"'
loop_
_symmetry_equiv_pos_site_id
_symmetry_equiv_pos_as_xyz
1 x,y,z
2 -y,x-y,z
3 -x+y,-x,z
4 y,x,-z
5 x-y,-y,-z
6 -x,-x+y,-z
7 2/3+x,1/3+y,1/3+z
8 2/3-y,1/3+x-y,1/3+z
9 2/3-x+y,1/3-x,1/3+z
10 2/3+y,1/3+x,1/3-z
11 2/3+x-y,1/3-y,1/3-z
12 2/3-x,1/3-x+y,1/3-z
13 1/3+x,2/3+y,2/3+z
14 1/3-y,2/3+x-y,2/3+z
15 1/3-x+y,2/3-x,2/3+z
16 1/3+y,2/3+x,2/3-z
17 1/3+x-y,2/3-y,2/3-z
18 1/3-x,2/3-x+y,2/3-z
19 -x,-y,-z
20 y,-x+y,-z
21 x-y,x,-z
22 -y,-x,z
23 -x+y,y,z
24 x,x-y,z
25 1/3-x,2/3-y,2/3-z
26 1/3+y,2/3-x+y,2/3-z
27 1/3+x-y,2/3+x,2/3-z
28 1/3-y,2/3-x,2/3+z
29 1/3-x+y,2/3+y,2/3+z
30 1/3+x,2/3+x-y,2/3+z
31 2/3-x,1/3-y,1/3-z
32 2/3+y,1/3-x+y,1/3-z
33 2/3+x-y,1/3+x,1/3-z
34 2/3-y,1/3-x,1/3+z
35 2/3-x+y,1/3+y,1/3+z
36 2/3+x,1/3+x-y,1/3+z
_cell_length_a                   8.2343(12)
_cell_length_b                   8.2343(12)
_cell_length_c                   8.7198(17)
_cell_angle_alpha                90
_cell_angle_beta                 90
_cell_angle_gamma                120
_cell_volume                     512.024
_cell_formula_units_Z            3
loop_
_atom_site_label
_atom_site_type_symbol
_atom_site_fract_x
_atom_site_fract_y
_atom_site_fract_z
Cl1 Cl 1.0000 0.0000 1.0000
O1 O 0.9176(8) -0.1648(16) 1.0900(12)
O1A O 1.1648(16) 0.0824(18) 1.0900(12)
O1B O 0.9176(18) 0.0824(8) 1.0900(12)
O1C O 0.8352(16) -0.0824(8) 0.9100(12)
O1D O 1.0824(18) 0.1648(16) 0.9100(12)
O1E O 1.0824(8) -0.0824(18) 0.9100(12)
C1 C 0.8041(6) 0.3333 0.8333
D1 D 0.9203 0.3333 0.8333
C1U C 0.6667 0.1959(6) 0.8333
D1U D 0.6667 0.0797 0.8333
C1W C 0.8041(6) 0.4708(6) 0.8333
D1W D 0.9203 0.5870 0.8333
C1A C 0.6667 0.4708(6) 0.8333
D1A D 0.6667 0.5870 0.8333
C1B C 0.5292(6) 0.1959(6) 0.8333
D1B D 0.4130 0.0797 0.8333
C1V C 0.5292(6) 0.3333 0.8333
D1V D 0.4130 0.3333 0.8333
N1? N 0.8041(6) 0.3333 0.8333
loop_
_geom_bond_atom_site_label_1
_geom_bond_atom_site_label_2
_geom_bond_site_symmetry_1
_geom_bond_site_symmetry_2
Cl1 O1 1_555 1_555
C1 D1 1_555 1_555
O1A Cl1 1_555 1_555
O1B Cl1 1_555 1_555
O1C Cl1 1_555 1_555
O1D Cl1 1_555 1_555
O1E Cl1 1_555 1_555
C1U C1 1_555 1_555
D1U C1U 1_555 1_555
C1W C1 1_555 1_555
D1W C1W 1_555 1_555
C1A C1W 1_555 1_555
D1A C1A 1_555 1_555
C1B C1U 1_555 1_555
D1B C1B 1_555 1_555
C1V C1A 1_555 1_555
D1V C1V 1_555 1_555
C1B C1V 1_555 1_555

#END
