
#######################################################################
#
#                 Cambridge Crystallographic Data Centre
#                                CCDC 
#
#######################################################################
#
# If this CIF has been generated from an entry in the Cambridge 
# Structural Database, then it will include bibliographic, chemical, 
# crystal, experimental, refinement or atomic coordinate data resulting 
# from the CCDC's data processing and validation procedures.
#
#######################################################################

data_YOCXOE
_chemical_formula_moiety         'C28 H28 N2 O5'
_chemical_name_systematic        
3,3-Dimethyl-10-(4-methoxyphenyl)-9-(4-nitrophenyl)-1,2,3,4,5,6,7,8,9,10-decahydroacridine-1,8-dione
_symmetry_cell_setting           monoclinic
_symmetry_space_group_name_H-M   'P 21/c'
_symmetry_Int_Tables_number      14
_space_group_name_Hall           '-P 2ybc'
loop_
_symmetry_equiv_pos_site_id
_symmetry_equiv_pos_as_xyz
1 x,y,z
2 -x,1/2+y,1/2-z
3 -x,-y,-z
4 x,1/2-y,1/2+z
_cell_length_a                   12.463(2)
_cell_length_b                   12.104(2)
_cell_length_c                   16.408(3)
_cell_angle_alpha                90
_cell_angle_beta                 98.251(5)
_cell_angle_gamma                90
_cell_volume                     2449.56
_exptl_crystal_colour            yellow
_exptl_crystal_description       block
_chemical_melting_point          '498 K'
_cell_formula_units_Z            4
_exptl_crystal_recrystallization_method acetone
loop_
_atom_site_label
_atom_site_type_symbol
_atom_site_fract_x
_atom_site_fract_y
_atom_site_fract_z
O1 O 0.08638(11) 1.24134(11) 0.47495(8)
O2 O 0.05773(12) 1.11707(12) 0.18637(8)
O3 O 0.5690(14) 1.4049(12) 0.3168(11)
O5 O 0.6106(9) 1.2617(11) 0.2566(5)
O7 O 0.35763(13) 0.47297(12) 0.51861(10)
N1 N 0.19057(12) 0.88250(11) 0.40821(8)
N2 N 0.55282(17) 1.3088(2) 0.30009(14)
C1 C 0.18027(13) 0.96528(14) 0.46587(10)
C2 C 0.15262(13) 1.06903(13) 0.44043(10)
C3 C 0.15223(13) 1.10285(13) 0.35148(10)
H1 H 0.0951 1.1582 0.3377
C4 C 0.12365(13) 1.00353(14) 0.29784(10)
C5 C 0.14825(13) 0.90001(14) 0.32513(10)
C6 C 0.11987(13) 1.14962(14) 0.49803(10)
C7 C 0.12427(16) 1.11571(16) 0.58669(11)
H2 H 0.0543 1.0859 0.5947
H3 H 0.1375 1.1807 0.6212
C8 C 0.21130(16) 1.03015(15) 0.61444(11)
C9 C 0.19433(16) 0.93206(14) 0.55494(11)
H4 H 0.2562 0.8829 0.5659
H5 H 0.1307 0.8913 0.5653
C10 C 0.32415(18) 1.08004(19) 0.61482(14)
H6 H 0.3324 1.1032 0.5601
H7 H 0.3782 1.0256 0.6335
H8 H 0.3327 1.1426 0.6511
C11 C 0.2002(2) 0.98929(19) 0.70144(12)
H9 H 0.2555 0.9356 0.7186
H10 H 0.1301 0.9562 0.7012
H11 H 0.2079 1.0506 0.7390
C12 C 0.07097(14) 1.02312(16) 0.21323(11)
C13 C 0.03387(17) 0.92376(17) 0.16216(12)
H12 H 0.0273 0.9427 0.1042
H13 H -0.0369 0.9009 0.1739
C14 C 0.11349(17) 0.82947(16) 0.18061(11)
H14 H 0.0867 0.7653 0.1486
H15 H 0.1825 0.8503 0.1643
C15 C 0.13000(16) 0.79997(15) 0.27115(11)
H16 H 0.0667 0.7606 0.2840
H17 H 0.1920 0.7511 0.2827
C16 C 0.25980(13) 1.15546(14) 0.33919(10)
C17 C 0.28131(16) 1.26474(15) 0.36177(12)
H18 H 0.2297 1.3049 0.3850
C18 C 0.37723(17) 1.31493(17) 0.35050(12)
H19 H 0.3907 1.3881 0.3659
C19 C 0.45231(15) 1.25482(17) 0.31624(12)
C20 C 0.43494(16) 1.14667(18) 0.29390(14)
H20 H 0.4872 1.1070 0.2711
C21 C 0.33872(15) 1.09742(16) 0.30581(13)
H21 H 0.3266 1.0238 0.2911
C22 C 0.23073(14) 0.77423(14) 0.43564(10)
C23 C 0.34019(15) 0.75163(16) 0.44032(13)
H22 H 0.3870 0.8052 0.4250
C24 C 0.38016(17) 0.64987(17) 0.46765(14)
H23 H 0.4537 0.6346 0.4704
C25 C 0.31091(17) 0.57056(15) 0.49100(12)
C26 C 0.20155(16) 0.59242(15) 0.48461(12)
H24 H 0.1545 0.5385 0.4989
C27 C 0.16152(15) 0.69446(15) 0.45690(11)
H25 H 0.0877 0.7090 0.4527
C28 C 0.2998(2) 0.40427(18) 0.56706(16)
H26 H 0.2784 0.4465 0.6116
H27 H 0.3453 0.3441 0.5889
H28 H 0.2364 0.3756 0.5335
O4? O 0.5542(16) 1.4082(13) 0.3017(12)
O6? O 0.6318(8) 1.2452(10) 0.2980(5)
loop_
_geom_bond_atom_site_label_1
_geom_bond_atom_site_label_2
_geom_bond_site_symmetry_1
_geom_bond_site_symmetry_2
O1 C6 1_555 1_555
O2 C12 1_555 1_555
O3 N2 1_555 1_555
O5 N2 1_555 1_555
O7 C25 1_555 1_555
N1 C1 1_555 1_555
N2 C19 1_555 1_555
C1 C2 1_555 1_555
C2 C3 1_555 1_555
C3 H1 1_555 1_555
C4 C3 1_555 1_555
C5 N1 1_555 1_555
C6 C2 1_555 1_555
C7 C6 1_555 1_555
H2 C7 1_555 1_555
H3 C7 1_555 1_555
C8 C7 1_555 1_555
C9 C1 1_555 1_555
H4 C9 1_555 1_555
H5 C9 1_555 1_555
C10 C8 1_555 1_555
H6 C10 1_555 1_555
H7 C10 1_555 1_555
H8 C10 1_555 1_555
C11 C8 1_555 1_555
H9 C11 1_555 1_555
H10 C11 1_555 1_555
H11 C11 1_555 1_555
C12 C4 1_555 1_555
C13 C12 1_555 1_555
H12 C13 1_555 1_555
H13 C13 1_555 1_555
C14 C13 1_555 1_555
H14 C14 1_555 1_555
H15 C14 1_555 1_555
C15 C5 1_555 1_555
H16 C15 1_555 1_555
H17 C15 1_555 1_555
C16 C3 1_555 1_555
C17 C16 1_555 1_555
H18 C17 1_555 1_555
C18 C17 1_555 1_555
H19 C18 1_555 1_555
C19 C18 1_555 1_555
C20 C19 1_555 1_555
H20 C20 1_555 1_555
C21 C16 1_555 1_555
H21 C21 1_555 1_555
C22 N1 1_555 1_555
C23 C22 1_555 1_555
H22 C23 1_555 1_555
C24 C23 1_555 1_555
H23 C24 1_555 1_555
C25 C24 1_555 1_555
C26 C25 1_555 1_555
H24 C26 1_555 1_555
C27 C22 1_555 1_555
H25 C27 1_555 1_555
C28 O7 1_555 1_555
H26 C28 1_555 1_555
H27 C28 1_555 1_555
H28 C28 1_555 1_555
C4 C5 1_555 1_555
C8 C9 1_555 1_555
C14 C15 1_555 1_555
C20 C21 1_555 1_555
C26 C27 1_555 1_555

#END
