
#######################################################################
#
#                 Cambridge Crystallographic Data Centre
#                                CCDC 
#
#######################################################################
#
# If this CIF has been generated from an entry in the Cambridge 
# Structural Database, then it will include bibliographic, chemical, 
# crystal, experimental, refinement or atomic coordinate data resulting 
# from the CCDC's data processing and validation procedures.
#
#######################################################################

data_YOCZIB
_chemical_formula_moiety         'C6 H8 N2,C8 H2 F4 O4'
_chemical_name_systematic        
'2,6-Dimethylpyrazine 2,3,5,6-tetrafluoroterephthalic acid'
_symmetry_cell_setting           triclinic
_symmetry_space_group_name_H-M   'P -1'
_symmetry_Int_Tables_number      2
_space_group_name_Hall           '-P 1'
loop_
_symmetry_equiv_pos_site_id
_symmetry_equiv_pos_as_xyz
1 x,y,z
2 -x,-y,-z
_cell_length_a                   7.8250(4)
_cell_length_b                   9.0424(4)
_cell_length_c                   11.6340(4)
_cell_angle_alpha                92.810(3)
_cell_angle_beta                 105.233(4)
_cell_angle_gamma                115.272(5)
_cell_volume                     705.881
_exptl_crystal_colour            colorless
_exptl_crystal_description       block
_cell_formula_units_Z            2
loop_
_atom_site_label
_atom_site_type_symbol
_atom_site_fract_x
_atom_site_fract_y
_atom_site_fract_z
F1 F 0.0236(3) 0.3129(2) 0.32272(15)
F2 F 0.0481(3) 0.1784(2) 0.51868(15)
F3 F -0.4960(3) 0.4067(2) 0.38402(15)
F4 F -0.4682(3) 0.2751(3) 0.58259(15)
O1 O -0.2551(4) 0.5708(2) 0.24056(16)
H1 H -0.2695 0.6000 0.1745
O2 O -0.2069(4) 0.1992(3) 0.75813(18)
H2 H -0.2008 0.1437 0.8113
O3 O -0.2775(4) 0.3458(2) 0.13705(16)
C1 C -0.2596(4) 0.4254(3) 0.2286(2)
C2 C -0.2388(4) 0.3618(3) 0.3465(2)
C3 C -0.3580(4) 0.3541(3) 0.4171(2)
C4 C -0.2111(4) 0.2211(3) 0.5563(2)
C5 C -0.1022(4) 0.3022(3) 0.3850(2)
C6 C -0.0883(4) 0.2321(3) 0.4874(2)
C7 C -0.3443(4) 0.2838(3) 0.5204(2)
O4 O -0.2034(6) -0.0040(3) 0.6480(2)
C8 C -0.2073(5) 0.1257(4) 0.6598(2)
N1 N 0.7332(3) 0.7420(3) 0.05931(17)
N2 N 0.7593(4) 0.9773(3) -0.0868(2)
C9 C 0.7108(4) 0.8756(3) 0.0921(2)
C10 C 0.7776(4) 0.8437(3) -0.1192(2)
H3 H 0.7978 0.8287 -0.1933
C11 C 0.7677(4) 0.7245(3) -0.0458(2)
C12 C 0.7257(4) 0.9930(3) 0.0176(2)
H4 H 0.7116 1.0855 0.0419
C13 C 0.6720(5) 0.8943(4) 0.2095(3)
H5 H 0.6688 0.8024 0.2485
H6 H 0.5463 0.8960 0.1946
H7 H 0.7759 0.9964 0.2610
C14 C 0.7944(6) 0.5776(4) -0.0817(3)
H8 H 0.7809 0.5096 -0.0205
H9 H 0.9244 0.6144 -0.0901
H10 H 0.6951 0.5139 -0.1575
loop_
_geom_bond_atom_site_label_1
_geom_bond_atom_site_label_2
_geom_bond_site_symmetry_1
_geom_bond_site_symmetry_2
F1 C5 1_555 1_555
F2 C6 1_555 1_555
F3 C3 1_555 1_555
F4 C7 1_555 1_555
O1 H1 1_555 1_555
O2 H2 1_555 1_555
O3 C1 1_555 1_555
C1 O1 1_555 1_555
C2 C1 1_555 1_555
C3 C2 1_555 1_555
C4 C6 1_555 1_555
C5 C2 1_555 1_555
C6 C5 1_555 1_555
C7 C3 1_555 1_555
O4 C8 1_555 1_555
C8 O2 1_555 1_555
N1 C9 1_555 1_555
N2 C10 1_555 1_555
C9 C12 1_555 1_555
C10 H3 1_555 1_555
C11 N1 1_555 1_555
C12 N2 1_555 1_555
H4 C12 1_555 1_555
C13 C9 1_555 1_555
H5 C13 1_555 1_555
H6 C13 1_555 1_555
H7 C13 1_555 1_555
C14 C11 1_555 1_555
H8 C14 1_555 1_555
H9 C14 1_555 1_555
H10 C14 1_555 1_555
C4 C7 1_555 1_555
C4 C8 1_555 1_555
C10 C11 1_555 1_555

#END
