
#######################################################################
#
#                 Cambridge Crystallographic Data Centre
#                                CCDC 
#
#######################################################################
#
# If this CIF has been generated from an entry in the Cambridge 
# Structural Database, then it will include bibliographic, chemical, 
# crystal, experimental, refinement or atomic coordinate data resulting 
# from the CCDC's data processing and validation procedures.
#
#######################################################################

data_YODBUQ
_chemical_formula_moiety         'C16 H20 N4 2+,2(C8 H1 F4 O4 1-)'
_chemical_name_systematic        
"1,1'-(1,4-Phenylenebis(methylene))bis(2-methyl-1H-imidazol-3-ium) bis(4-carboxy-2,3,5,6-tetrafluorobenzoate)"
_symmetry_cell_setting           triclinic
_symmetry_space_group_name_H-M   'P -1'
_symmetry_Int_Tables_number      2
_space_group_name_Hall           '-P 1'
loop_
_symmetry_equiv_pos_site_id
_symmetry_equiv_pos_as_xyz
1 x,y,z
2 -x,-y,-z
_cell_length_a                   7.1153(5)
_cell_length_b                   8.4148(6)
_cell_length_c                   14.4196(13)
_cell_angle_alpha                99.8950(10)
_cell_angle_beta                 97.073(2)
_cell_angle_gamma                111.8780(10)
_cell_volume                     772.54
_exptl_crystal_colour            colorless
_exptl_crystal_description       block
_cell_formula_units_Z            1
loop_
_atom_site_label
_atom_site_type_symbol
_atom_site_fract_x
_atom_site_fract_y
_atom_site_fract_z
F1 F 0.61505(19) 0.97023(17) 0.42851(9)
F2 F 1.2650(2) 1.28150(17) 0.63969(10)
O1 O 0.7968(2) 1.34957(18) 0.53077(10)
O2 O 0.8759(3) 1.2907(2) 0.67218(10)
C1 C 0.9345(3) 1.1335(2) 0.53762(12)
C2 C 0.8610(3) 1.2713(2) 0.58312(12)
C3 C 1.1292(3) 1.1418(2) 0.57125(12)
C4 C 0.8070(3) 0.9891(2) 0.46486(12)
F1A F 1.38495(19) 1.02977(17) 0.57149(9)
F2A F 0.7350(2) 0.71850(17) 0.36031(10)
O1A O 1.2032(2) 0.65043(18) 0.46923(10)
O2A O 1.1241(3) 0.7093(2) 0.32782(10)
C1A C 1.0655(3) 0.8665(2) 0.46238(12)
C2A C 1.1390(3) 0.7287(2) 0.41688(12)
C3A C 0.8708(3) 0.8582(2) 0.42875(12)
C4A C 1.1930(3) 1.0109(2) 0.53514(12)
O3 O 1.5658(2) 1.17948(18) 0.81609(10)
O4 O 1.7473(3) 1.44701(19) 0.79522(11)
F3 F 1.3848(4) 1.5370(3) 0.82264(9)
F4 F 1.7430(3) 1.3262(3) 1.02970(10)
C5 C 1.5674(3) 1.4279(2) 0.92194(12)
C6 C 1.6283(3) 1.3382(2) 0.83725(13)
C7 C 1.4439(4) 1.5175(3) 0.91007(13)
C8 C 1.6227(4) 1.4125(3) 1.01338(14)
O3A O 1.4342(2) 1.82052(18) 1.18391(10)
O4A O 1.2527(3) 1.55299(19) 1.20478(11)
F3A F 1.6152(4) 1.4630(3) 1.17736(9)
F4A F 1.2570(3) 1.6738(3) 0.97030(10)
C5A C 1.4326(3) 1.5721(2) 1.07806(12)
C6A C 1.3717(3) 1.6618(2) 1.16275(13)
C7A C 1.5561(4) 1.4825(3) 1.08993(13)
C8A C 1.3773(4) 1.5875(3) 0.98662(14)
N1 N 0.1113(2) 0.10095(19) 0.26866(10)
N2 N 0.2236(3) 0.3510(2) 0.37068(11)
H1 H 0.2297 0.4481 0.4046
C9 C 0.3101(3) 0.1359(3) 0.31271(14)
H2 H 0.3820 0.0647 0.3008
C10 C -0.0093(3) -0.0252(2) 0.09299(13)
C11 C -0.0220(3) -0.0560(2) 0.19251(13)
H3 H -0.1642 -0.0906 0.2004
H4 H 0.0182 -0.1523 0.1992
C12 C 0.0615(3) 0.2348(2) 0.30512(12)
C13 C -0.1369(3) 0.2499(3) 0.27823(18)
H5 H -0.2278 0.1490 0.2284
H6 H -0.1128 0.3549 0.2553
H7 H -0.1992 0.2555 0.3334
C14 C -0.1793(3) -0.0265(3) 0.03387(15)
H8 H -0.3008 -0.0442 0.0564
C15 C 0.1704(3) 0.0020(3) 0.05737(15)
H9 H 0.2862 0.0037 0.0960
C16 C 0.3807(3) 0.2930(3) 0.37641(14)
H10 H 0.5108 0.3511 0.4166
N1A N -0.1113(2) -0.10095(19) -0.26866(10)
N2A N -0.2236(3) -0.3510(2) -0.37068(11)
H1A H -0.2297 -0.4481 -0.4046
C9A C -0.3101(3) -0.1359(3) -0.31271(14)
H2A H -0.3820 -0.0647 -0.3008
C10A C 0.0093(3) 0.0252(2) -0.09299(13)
C11A C 0.0220(3) 0.0560(2) -0.19251(13)
H3A H 0.1642 0.0906 -0.2004
H4A H -0.0182 0.1523 -0.1992
C12A C -0.0615(3) -0.2348(2) -0.30512(12)
C13A C 0.1369(3) -0.2499(3) -0.27823(18)
H5A H 0.2278 -0.1490 -0.2284
H6A H 0.1128 -0.3549 -0.2553
H7A H 0.1992 -0.2555 -0.3334
C14A C 0.1793(3) 0.0265(3) -0.03387(15)
H8A H 0.3008 0.0442 -0.0564
C15A C -0.1704(3) -0.0020(3) -0.05737(15)
H9A H -0.2862 -0.0037 -0.0960
C16A C -0.3807(3) -0.2930(3) -0.37641(14)
H10A H -0.5108 -0.3511 -0.4166
loop_
_geom_bond_atom_site_label_1
_geom_bond_atom_site_label_2
_geom_bond_site_symmetry_1
_geom_bond_site_symmetry_2
F1 C4 1_555 1_555
F2 C3 1_555 1_555
O1 C2 1_555 1_555
O2 C2 1_555 1_555
C1 C2 1_555 1_555
C3 C1 1_555 1_555
C4 C1 1_555 1_555
O3 C6 1_555 1_555
O4 C6 1_555 1_555
F3 C7 1_555 1_555
F4 C8 1_555 1_555
C5 C6 1_555 1_555
C7 C5 1_555 1_555
C8 C5 1_555 1_555
N1 C9 1_555 1_555
N2 H1 1_555 1_555
C9 H2 1_555 1_555
C10 C11 1_555 1_555
C11 N1 1_555 1_555
H3 C11 1_555 1_555
H4 C11 1_555 1_555
C12 N1 1_555 1_555
C13 C12 1_555 1_555
H5 C13 1_555 1_555
H6 C13 1_555 1_555
H7 C13 1_555 1_555
C14 C10 1_555 1_555
H8 C14 1_555 1_555
C15 C10 1_555 1_555
H9 C15 1_555 1_555
C16 N2 1_555 1_555
H10 C16 1_555 1_555
F1A C4A 1_555 1_555
F2A C3A 1_555 1_555
O1A C2A 1_555 1_555
O2A C2A 1_555 1_555
C1A C2A 1_555 1_555
C3A C4 1_555 1_555
C4A C3 1_555 1_555
O3A C6A 1_555 1_555
O4A C6A 1_555 1_555
F3A C7A 1_555 1_555
F4A C8A 1_555 1_555
C5A C6A 1_555 1_555
C7A C8 1_555 1_555
C8A C7 1_555 1_555
N1A C9A 1_555 1_555
N2A H1A 1_555 1_555
C9A H2A 1_555 1_555
C10A C11A 1_555 1_555
C11A N1A 1_555 1_555
H3A C11A 1_555 1_555
H4A C11A 1_555 1_555
C12A N1A 1_555 1_555
C13A C12A 1_555 1_555
H5A C13A 1_555 1_555
H6A C13A 1_555 1_555
H7A C13A 1_555 1_555
C14A C15 1_555 1_555
H8A C14A 1_555 1_555
C15A C14 1_555 1_555
H9A C15A 1_555 1_555
C16A N2A 1_555 1_555
H10A C16A 1_555 1_555
N2 C12 1_555 1_555
C9 C16 1_555 1_555
C1A C3A 1_555 1_555
C1A C4A 1_555 1_555
C5A C7A 1_555 1_555
C5A C8A 1_555 1_555
N2A C12A 1_555 1_555
C9A C16A 1_555 1_555
C10A C14A 1_555 1_555
C10A C15A 1_555 1_555

#END
