
#######################################################################
#
#                 Cambridge Crystallographic Data Centre
#                                CCDC 
#
#######################################################################
#
# If this CIF has been generated from an entry in the Cambridge 
# Structural Database, then it will include bibliographic, chemical, 
# crystal, experimental, refinement or atomic coordinate data resulting 
# from the CCDC's data processing and validation procedures.
#
#######################################################################

data_YODCAX
_chemical_formula_moiety         '2(C4 H8 N5 1+),C8 F4 O4 2-'
_chemical_name_systematic        
'bis(2,4-Diamino-6-methyl-1,3,5-triazin-1-ium) 2,3,5,6-tetrafluoroterephthalate'
_symmetry_cell_setting           monoclinic
_symmetry_space_group_name_H-M   'P 21/n'
_symmetry_Int_Tables_number      14
_space_group_name_Hall           '-P 2yn'
loop_
_symmetry_equiv_pos_site_id
_symmetry_equiv_pos_as_xyz
1 x,y,z
2 1/2-x,1/2+y,1/2-z
3 -x,-y,-z
4 1/2+x,1/2-y,1/2+z
_cell_length_a                   4.8860(12)
_cell_length_b                   11.475(3)
_cell_length_c                   17.771(4)
_cell_angle_alpha                90
_cell_angle_beta                 90.010(10)
_cell_angle_gamma                90
_cell_volume                     996.364
_exptl_crystal_colour            colorless
_exptl_crystal_description       block
_cell_formula_units_Z            2
loop_
_atom_site_label
_atom_site_type_symbol
_atom_site_fract_x
_atom_site_fract_y
_atom_site_fract_z
F1 F 0.06701(19) 0.38972(8) 0.56027(5)
O1 O 0.2914(3) 0.68406(10) 0.65729(6)
F2 F 0.2484(2) 0.32163(9) 0.43004(5)
C1 C 0.2847(3) 0.44512(13) 0.53246(7)
C2 C 0.3798(3) 0.40948(12) 0.46374(8)
O2 O 0.2191(3) 0.50005(10) 0.69023(6)
C3 C 0.4013(3) 0.53718(12) 0.57078(7)
C4 C 0.2956(3) 0.57795(13) 0.64597(8)
F1B F 0.93299(19) 0.61028(8) 0.43973(5)
O1B O 0.7086(3) 0.31594(10) 0.34271(6)
F2B F 0.7516(2) 0.67837(9) 0.56996(5)
C1B C 0.7153(3) 0.55488(13) 0.46754(7)
C2B C 0.6202(3) 0.59052(12) 0.53626(8)
O2B O 0.7809(3) 0.49995(10) 0.30977(6)
C3B C 0.5987(3) 0.46282(12) 0.42922(7)
C4B C 0.7044(3) 0.42205(13) 0.35403(8)
N1 N -0.3013(3) 0.52353(11) 0.91579(7)
N2 N -0.0181(3) 0.56933(11) 0.81601(7)
H1 H 0.0519 0.5498 0.7734
N3 N -0.0320(3) 0.69886(12) 0.91735(8)
N4 N -0.2918(3) 0.64346(13) 1.01738(8)
H2 H -0.2391 0.7049 1.0410
H3 H -0.4025 0.5954 1.0386
N5 N 0.2205(3) 0.73937(13) 0.81131(8)
H4 H 0.2747 0.8042 0.8305
H5 H 0.2745 0.7193 0.7671
C5 C -0.2009(3) 0.49920(12) 0.84980(8)
C6 C -0.2032(4) 0.62307(13) 0.94892(9)
C7 C -0.2824(4) 0.39208(15) 0.80966(10)
H6 H -0.1893 0.3884 0.7622
H7 H -0.4766 0.3929 0.8013
H8 H -0.2345 0.3253 0.8394
C8 C 0.0557(3) 0.67128(13) 0.84938(9)
loop_
_geom_bond_atom_site_label_1
_geom_bond_atom_site_label_2
_geom_bond_site_symmetry_1
_geom_bond_site_symmetry_2
F1 C1 1_555 1_555
O1 C4 1_555 1_555
F2 C2 1_555 1_555
C1 C2 1_555 1_555
C2 C3B 1_555 1_555
O2 C4 1_555 1_555
C3 C1 1_555 1_555
C4 C3 1_555 1_555
N1 C5 1_555 1_555
N2 H1 1_555 1_555
N3 C6 1_555 1_555
N4 H2 1_555 1_555
H3 N4 1_555 1_555
N5 H4 1_555 1_555
H5 N5 1_555 1_555
C5 N2 1_555 1_555
C6 N1 1_555 1_555
C7 C5 1_555 1_555
H6 C7 1_555 1_555
H7 C7 1_555 1_555
H8 C7 1_555 1_555
C8 N2 1_555 1_555
F1B C1B 1_555 1_555
O1B C4B 1_555 1_555
F2B C2B 1_555 1_555
C1B C2B 1_555 1_555
C2B C3 1_555 1_555
O2B C4B 1_555 1_555
C3B C1B 1_555 1_555
C4B C3B 1_555 1_555
N3 C8 1_555 1_555
N4 C6 1_555 1_555
N5 C8 1_555 1_555

#END
