
#######################################################################
#
#                 Cambridge Crystallographic Data Centre
#                                CCDC 
#
#######################################################################
#
# If this CIF has been generated from an entry in the Cambridge 
# Structural Database, then it will include bibliographic, chemical, 
# crystal, experimental, refinement or atomic coordinate data resulting 
# from the CCDC's data processing and validation procedures.
#
#######################################################################

data_YODHAC
_chemical_formula_moiety         'C16 H19 N1 O5'
_chemical_name_systematic        
'Ethyl (2-nitro-5-oxo-3-phenylcyclohexyl)acetat'
_symmetry_cell_setting           monoclinic
_symmetry_space_group_name_H-M   'P 21'
_symmetry_Int_Tables_number      4
_space_group_name_Hall           'P 2yb'
loop_
_symmetry_equiv_pos_site_id
_symmetry_equiv_pos_as_xyz
1 x,y,z
2 -x,1/2+y,-z
_cell_length_a                   10.442(2)
_cell_length_b                   6.0037(14)
_cell_length_c                   13.450(3)
_cell_angle_alpha                90
_cell_angle_beta                 105.350(3)
_cell_angle_gamma                90
_cell_volume                     813.11
_exptl_crystal_colour            colorless
_exptl_crystal_description       block
_cell_formula_units_Z            2
loop_
_atom_site_label
_atom_site_type_symbol
_atom_site_fract_x
_atom_site_fract_y
_atom_site_fract_z
N1 N 0.7554(3) 0.4051(7) 0.2484(2)
O1 O 0.9550(3) 0.0789(5) -0.04061(18)
O2 O 0.5054(3) 0.2447(6) -0.09449(19)
O3 O 0.6383(3) 0.4496(6) -0.15882(19)
O4 O 0.7946(3) 0.5938(5) 0.24196(18)
O5 O 0.6743(3) 0.3571(7) 0.2932(2)
C1 C 0.9204(4) 0.0503(6) 0.0379(3)
C2 C 1.0109(3) 0.0840(7) 0.1433(2)
H1 H 1.0982 0.1272 0.1376
H2 H 1.0199 -0.0551 0.1812
C3 C 0.9573(3) 0.2644(6) 0.2027(2)
H3 H 0.9617 0.4075 0.1687
C4 C 0.8120(4) 0.2167(6) 0.1958(2)
H4 H 0.8086 0.0796 0.2345
C5 C 0.7212(4) 0.1844(5) 0.0870(2)
H5 H 0.6339 0.1367 0.0933
C6 C 0.7801(4) -0.0063(6) 0.0366(3)
H6 H 0.7784 -0.1438 0.0741
H7 H 0.7276 -0.0274 -0.0339
C7 C 1.0426(4) 0.2819(6) 0.3124(2)
C8 C 1.0446(4) 0.1163(7) 0.3837(2)
H8 H 0.9906 -0.0081 0.3647
C9 C 1.1250(5) 0.1322(9) 0.4820(3)
H9 H 1.1253 0.0176 0.5286
C10 C 1.2039(5) 0.3112(11) 0.5124(3)
H10 H 1.2575 0.3207 0.5796
C11 C 1.2040(5) 0.4796(9) 0.4429(4)
H11 H 1.2584 0.6033 0.4626
C12 C 1.1223(4) 0.4635(8) 0.3435(3)
H12 H 1.1218 0.5784 0.2970
C13 C 0.7018(3) 0.3928(6) 0.0196(2)
H13 H 0.6698 0.5135 0.0545
H14 H 0.7865 0.4375 0.0089
C14 C 0.6040(4) 0.3506(7) -0.0833(3)
C15 C 0.5495(5) 0.4107(13) -0.2623(3)
H15 H 0.5411 0.2520 -0.2760
H16 H 0.4620 0.4698 -0.2658
C16 C 0.5998(6) 0.512(2) -0.3335(4)
H17 H 0.6072 0.6689 -0.3199
H18 H 0.5419 0.4865 -0.4009
H19 H 0.6861 0.4516 -0.3301
loop_
_geom_bond_atom_site_label_1
_geom_bond_atom_site_label_2
_geom_bond_site_symmetry_1
_geom_bond_site_symmetry_2
N1 O4 1_555 1_555
O1 C1 1_555 1_555
O2 C14 1_555 1_555
O3 C14 1_555 1_555
O5 N1 1_555 1_555
C1 C2 1_555 1_555
C2 H1 1_555 1_555
H2 C2 1_555 1_555
C3 C2 1_555 1_555
H3 C3 1_555 1_555
C4 N1 1_555 1_555
H4 C4 1_555 1_555
C5 C4 1_555 1_555
H5 C5 1_555 1_555
C6 C1 1_555 1_555
H6 C6 1_555 1_555
H7 C6 1_555 1_555
C7 C3 1_555 1_555
C8 C7 1_555 1_555
H8 C8 1_555 1_555
C9 C8 1_555 1_555
H9 C9 1_555 1_555
C10 C9 1_555 1_555
H10 C10 1_555 1_555
C11 C10 1_555 1_555
H11 C11 1_555 1_555
C12 C7 1_555 1_555
H12 C12 1_555 1_555
C13 C5 1_555 1_555
H13 C13 1_555 1_555
H14 C13 1_555 1_555
C14 C13 1_555 1_555
C15 O3 1_555 1_555
H15 C15 1_555 1_555
H16 C15 1_555 1_555
C16 C15 1_555 1_555
H17 C16 1_555 1_555
H18 C16 1_555 1_555
H19 C16 1_555 1_555
C3 C4 1_555 1_555
C5 C6 1_555 1_555
C11 C12 1_555 1_555

#END
