
#######################################################################
#
#                 Cambridge Crystallographic Data Centre
#                                CCDC 
#
#######################################################################
#
# If this CIF has been generated from an entry in the Cambridge 
# Structural Database, then it will include bibliographic, chemical, 
# crystal, experimental, refinement or atomic coordinate data resulting 
# from the CCDC's data processing and validation procedures.
#
#######################################################################

data_YODLUZ
_chemical_formula_moiety         'C18 H12 N4 S3'
_chemical_name_systematic        
4,4'-((1,3,4-Thiadiazole-2,5-diyl)bis(thiomethylene))dibenzonitrile
_symmetry_cell_setting           monoclinic
_symmetry_space_group_name_H-M   'P 21/c'
_symmetry_Int_Tables_number      14
_space_group_name_Hall           '-P 2ybc'
loop_
_symmetry_equiv_pos_site_id
_symmetry_equiv_pos_as_xyz
1 x,y,z
2 -x,1/2+y,1/2-z
3 -x,-y,-z
4 x,1/2-y,1/2+z
_cell_length_a                   7.6974(15)
_cell_length_b                   8.4375(17)
_cell_length_c                   27.272(6)
_cell_angle_alpha                90
_cell_angle_beta                 92.53(3)
_cell_angle_gamma                90
_cell_volume                     1769.5
_exptl_crystal_colour            colorless
_exptl_crystal_description       Prism
_cell_formula_units_Z            4
_exptl_crystal_recrystallization_method methanol
loop_
_atom_site_label
_atom_site_type_symbol
_atom_site_fract_x
_atom_site_fract_y
_atom_site_fract_z
C1 C 0.6555(3) 0.3789(3) 0.34124(8)
C2 C 0.9214(3) 0.3764(3) 0.38800(8)
C3 C 0.4395(3) 0.2503(3) 0.27094(10)
H1 H 0.5357 0.2535 0.2491
H2 H 0.4455 0.1514 0.2891
C4 C 0.2700(3) 0.2614(3) 0.24188(9)
C5 C 0.1254(3) 0.1815(3) 0.25715(10)
H3 H 0.1344 0.1193 0.2853
C6 C -0.0313(3) 0.1926(3) 0.23136(10)
H4 H -0.1277 0.1379 0.2419
C7 C -0.0448(3) 0.2853(3) 0.18983(8)
C8 C 0.0971(3) 0.3662(3) 0.17434(8)
H5 H 0.0873 0.4293 0.1464
C9 C 0.2533(3) 0.3540(3) 0.20014(9)
H6 H 0.3494 0.4087 0.1894
C10 C -0.2123(3) 0.3038(3) 0.16434(9)
C11 C 1.2030(3) 0.2210(3) 0.42467(10)
H7 H 1.1265 0.1432 0.4386
H8 H 1.2195 0.1920 0.3908
C12 C 1.3756(3) 0.2188(3) 0.45268(8)
C13 C 1.4027(3) 0.2929(3) 0.49739(9)
H9 H 1.3126 0.3500 0.5106
C14 C 1.5604(3) 0.2838(3) 0.52286(9)
H10 H 1.5767 0.3346 0.5530
C15 C 1.6945(3) 0.1987(3) 0.50351(9)
C16 C 1.6682(3) 0.1221(3) 0.45909(9)
H11 H 1.7575 0.0631 0.4462
C17 C 1.5102(3) 0.1328(3) 0.43390(9)
H12 H 1.4936 0.0815 0.4039
C18 C 1.8610(3) 0.1876(3) 0.52986(9)
N1 N 0.7442(3) 0.2519(3) 0.33425(8)
N2 N 0.9002(3) 0.2507(2) 0.36166(8)
N3 N -0.3451(3) 0.3216(4) 0.14549(9)
N4 N 1.9930(3) 0.1766(3) 0.54989(9)
S1 S 0.75230(9) 0.51067(8) 0.38233(2)
S2 S 0.45247(8) 0.41683(8) 0.31298(2)
S3 S 1.10283(9) 0.41341(8) 0.42665(3)
loop_
_geom_bond_atom_site_label_1
_geom_bond_atom_site_label_2
_geom_bond_site_symmetry_1
_geom_bond_site_symmetry_2
C1 N1 1_555 1_555
C2 N2 1_555 1_555
C3 H1 1_555 1_555
H2 C3 1_555 1_555
C4 C3 1_555 1_555
C5 C4 1_555 1_555
H3 C5 1_555 1_555
C6 C5 1_555 1_555
H4 C6 1_555 1_555
C7 C6 1_555 1_555
C8 C7 1_555 1_555
H5 C8 1_555 1_555
C9 C4 1_555 1_555
H6 C9 1_555 1_555
C10 C7 1_555 1_555
C11 H7 1_555 1_555
H8 C11 1_555 1_555
C12 C11 1_555 1_555
C13 C12 1_555 1_555
H9 C13 1_555 1_555
C14 C13 1_555 1_555
H10 C14 1_555 1_555
C15 C14 1_555 1_555
C16 C15 1_555 1_555
H11 C16 1_555 1_555
C17 C12 1_555 1_555
H12 C17 1_555 1_555
C18 C15 1_555 1_555
N1 N2 1_555 1_555
N3 C10 1_555 1_555
N4 C18 1_555 1_555
S1 C1 1_555 1_555
S2 C1 1_555 1_555
S3 C2 1_555 1_555
C2 S1 1_555 1_555
C3 S2 1_555 1_555
C8 C9 1_555 1_555
C11 S3 1_555 1_555
C16 C17 1_555 1_555

#END
