
#######################################################################
#
#                 Cambridge Crystallographic Data Centre
#                                CCDC 
#
#######################################################################
#
# If this CIF has been generated from an entry in the Cambridge 
# Structural Database, then it will include bibliographic, chemical, 
# crystal, experimental, refinement or atomic coordinate data resulting 
# from the CCDC's data processing and validation procedures.
#
#######################################################################

data_YODLEK
_chemical_name_common            
11-Hydroxy-6,16-diaza-2,4,8,13-tetraoxa-1,4(1,4),3(1,3),8,14(1,2)-pentabenzenacyclohexadecaphane-6,15-diene
_chemical_formula_moiety         'C35 H28 N2 O5'
_chemical_name_systematic        
2,8,21,25-tetraoxa-13,33-diazahexacyclo[32.2.2.2^9,12^.1^3,7^.0^15,20^.0^26,31^]hentetraconta-1(36),3(41),4,6,9,11,13,15,17,19,26,28,30,32,34,37,39-heptadecaen-23-ol
_symmetry_cell_setting           monoclinic
_symmetry_space_group_name_H-M   'P 21/n'
_symmetry_Int_Tables_number      14
_space_group_name_Hall           '-P 2yn'
loop_
_symmetry_equiv_pos_site_id
_symmetry_equiv_pos_as_xyz
1 x,y,z
2 1/2-x,1/2+y,1/2-z
3 -x,-y,-z
4 1/2+x,1/2-y,1/2+z
_cell_length_a                   12.1391(19)
_cell_length_b                   14.388(2)
_cell_length_c                   19.066(3)
_cell_angle_alpha                90
_cell_angle_beta                 102.388(5)
_cell_angle_gamma                90
_cell_volume                     3252.49
_cell_formula_units_Z            4
loop_
_atom_site_label
_atom_site_type_symbol
_atom_site_fract_x
_atom_site_fract_y
_atom_site_fract_z
C1 C 0.8327(3) 0.4275(3) 0.2018(2)
H1 H 0.9111 0.4256 0.2116
C2 C 0.7797(3) 0.5088(3) 0.2115(2)
H2 H 0.8216 0.5620 0.2269
C3 C 0.6643(3) 0.5111(2) 0.19837(16)
C4 C 0.6004(3) 0.4333(2) 0.17498(15)
H3 H 0.5220 0.4355 0.1659
C5 C 0.6560(3) 0.3523(2) 0.16554(14)
C6 C 0.7727(3) 0.3484(3) 0.17799(18)
H4 H 0.8093 0.2937 0.1704
C7 C 0.5604(3) 0.6106(2) 0.26112(16)
C8 C 0.4823(3) 0.6828(2) 0.25418(17)
H5 H 0.4635 0.7163 0.2115
C9 C 0.4334(3) 0.7042(2) 0.31045(18)
H6 H 0.3842 0.7544 0.3065
C10 C 0.4557(3) 0.6525(2) 0.37347(16)
C11 C 0.5334(3) 0.5817(2) 0.37962(17)
H7 H 0.5508 0.5475 0.4220
C12 C 0.5863(3) 0.5602(2) 0.32400(16)
H8 H 0.6388 0.5123 0.3291
C13 C 0.3525(3) 0.6124(2) 0.45764(16)
H9 H 0.3576 0.5520 0.4412
C14 C 0.2894(3) 0.6276(2) 0.51474(15)
C15 C 0.2915(3) 0.7118(2) 0.55064(17)
H10 H 0.3380 0.7594 0.5410
C16 C 0.2262(4) 0.7259(3) 0.60012(19)
H11 H 0.2278 0.7831 0.6230
C17 C 0.1591(4) 0.6569(3) 0.61589(18)
H12 H 0.1154 0.6674 0.6496
C18 C 0.1552(3) 0.5718(3) 0.58256(17)
H13 H 0.1096 0.5246 0.5939
C19 C 0.2204(3) 0.5571(2) 0.53155(15)
C20 C 0.1630(3) 0.3959(2) 0.51038(17)
H14 H 0.0833 0.4088 0.5057
H15 H 0.1940 0.3742 0.5587
C21 C 0.1817(3) 0.3259(2) 0.45537(16)
C22 C 0.1473(3) 0.2286(2) 0.47144(17)
H16 H 0.1854 0.2096 0.5193
H17 H 0.0665 0.2248 0.4677
C23 C 0.1843(3) 0.0783(2) 0.42496(15)
C24 C 0.1382(3) 0.0282(2) 0.47423(17)
H18 H 0.1038 0.0589 0.5067
C25 C 0.1443(3) -0.0675(3) 0.4743(2)
H19 H 0.1134 -0.1011 0.5070
C26 C 0.1943(3) -0.1133(2) 0.4276(2)
H20 H 0.1956 -0.1779 0.4274
C27 C 0.2435(3) -0.0642(2) 0.38015(17)
H21 H 0.2793 -0.0964 0.3491
C28 C 0.2406(2) 0.0322(2) 0.37777(15)
C29 C 0.3004(3) 0.0872(2) 0.33301(15)
H22 H 0.3070 0.1509 0.3411
C30 C 0.4103(2) 0.11141(19) 0.24880(15)
C31 C 0.4046(3) 0.0999(2) 0.17536(15)
H23 H 0.3601 0.0527 0.1507
C32 C 0.4633(3) 0.1568(2) 0.13917(15)
H24 H 0.4550 0.1507 0.0898
C33 C 0.5350(2) 0.22359(19) 0.17615(14)
C34 C 0.5461(3) 0.2340(2) 0.24932(15)
H25 H 0.5954 0.2781 0.2743
C35 C 0.4831(3) 0.1784(2) 0.28510(15)
H26 H 0.4896 0.1861 0.3343
N1 N 0.4000(2) 0.67643(18) 0.42965(14)
N2 N 0.3437(2) 0.05261(17) 0.28378(13)
O1 O 0.6107(2) 0.59617(15) 0.20299(12)
O2 O 0.5961(2) 0.27444(16) 0.13565(11)
O3 O 0.1809(2) 0.17228(14) 0.41855(11)
O4 O 0.1102(2) 0.3541(2) 0.38687(13)
H27 H 0.1499 0.3682 0.3587
O5 O 0.2222(2) 0.47690(15) 0.49368(12)
loop_
_geom_bond_atom_site_label_1
_geom_bond_atom_site_label_2
_geom_bond_site_symmetry_1
_geom_bond_site_symmetry_2
C1 H1 1_555 1_555
C2 C1 1_555 1_555
H2 C2 1_555 1_555
C3 C2 1_555 1_555
C4 C3 1_555 1_555
H3 C4 1_555 1_555
C5 C4 1_555 1_555
C6 C1 1_555 1_555
H4 C6 1_555 1_555
C7 C8 1_555 1_555
C8 H5 1_555 1_555
C9 C8 1_555 1_555
H6 C9 1_555 1_555
C10 C9 1_555 1_555
C11 C10 1_555 1_555
H7 C11 1_555 1_555
C12 C7 1_555 1_555
H8 C12 1_555 1_555
C13 H9 1_555 1_555
C14 C13 1_555 1_555
C15 C14 1_555 1_555
H10 C15 1_555 1_555
C16 C15 1_555 1_555
H11 C16 1_555 1_555
C17 C16 1_555 1_555
H12 C17 1_555 1_555
C18 C17 1_555 1_555
H13 C18 1_555 1_555
C19 C14 1_555 1_555
C20 H14 1_555 1_555
H15 C20 1_555 1_555
C21 C20 1_555 1_555
C22 C21 1_555 1_555
H16 C22 1_555 1_555
H17 C22 1_555 1_555
C23 C24 1_555 1_555
C24 H18 1_555 1_555
C25 C24 1_555 1_555
H19 C25 1_555 1_555
C26 C25 1_555 1_555
H20 C26 1_555 1_555
C27 C26 1_555 1_555
H21 C27 1_555 1_555
C28 C23 1_555 1_555
C29 C28 1_555 1_555
H22 C29 1_555 1_555
C30 C31 1_555 1_555
C31 H23 1_555 1_555
C32 C31 1_555 1_555
H24 C32 1_555 1_555
C33 C32 1_555 1_555
C34 C33 1_555 1_555
H25 C34 1_555 1_555
C35 C30 1_555 1_555
H26 C35 1_555 1_555
N1 C10 1_555 1_555
N2 C29 1_555 1_555
O1 C3 1_555 1_555
O2 C5 1_555 1_555
O3 C22 1_555 1_555
O4 C21 1_555 1_555
H27 O4 1_555 1_555
O5 C19 1_555 1_555
C5 C6 1_555 1_555
C7 O1 1_555 1_555
C11 C12 1_555 1_555
C13 N1 1_555 1_555
C18 C19 1_555 1_555
C20 O5 1_555 1_555
C23 O3 1_555 1_555
C27 C28 1_555 1_555
C30 N2 1_555 1_555
C33 O2 1_555 1_555
C34 C35 1_555 1_555

#END
