
#######################################################################
#
#                 Cambridge Crystallographic Data Centre
#                                CCDC 
#
#######################################################################
#
# If this CIF has been generated from an entry in the Cambridge 
# Structural Database, then it will include bibliographic, chemical, 
# crystal, experimental, refinement or atomic coordinate data resulting 
# from the CCDC's data processing and validation procedures.
#
#######################################################################

data_YODMAG
_chemical_formula_moiety         'C17 H16 N3 O1 1+,F6 P1 1-'
_chemical_name_systematic        
'2,5-Diphenyl-2,5,6,8-tetrahydro-1,2,4-triazolo(3,4-c)(1,4)oxazin-4-ium hexafluorophosphate'
_symmetry_cell_setting           orthorhombic
_symmetry_space_group_name_H-M   'P 21 21 21'
_symmetry_Int_Tables_number      19
_space_group_name_Hall           'P 2ac 2ab'
loop_
_symmetry_equiv_pos_site_id
_symmetry_equiv_pos_as_xyz
1 x,y,z
2 1/2-x,-y,1/2+z
3 -x,1/2+y,1/2-z
4 1/2+x,1/2-y,-z
_cell_length_a                   8.1706(6)
_cell_length_b                   11.4642(8)
_cell_length_c                   19.7716(14)
_cell_angle_alpha                90
_cell_angle_beta                 90
_cell_angle_gamma                90
_cell_volume                     1851.99
_exptl_crystal_colour            colorless
_exptl_crystal_description       Prism
_cell_formula_units_Z            4
_exptl_crystal_recrystallization_method acetone
loop_
_atom_site_label
_atom_site_type_symbol
_atom_site_fract_x
_atom_site_fract_y
_atom_site_fract_z
P1 P 0.32742(6) 0.98825(5) 0.80826(3)
F1 F 0.2154(2) 0.87484(13) 0.80330(9)
F2 F 0.2554(2) 1.02909(15) 0.73698(7)
F3 F 0.4387(2) 1.10126(14) 0.80938(10)
F4 F 0.4001(2) 0.94705(14) 0.87749(8)
F5 F 0.1857(2) 1.05734(14) 0.84539(8)
F6 F 0.4689(2) 0.92073(17) 0.76896(9)
O1 O 0.9022(2) -0.21782(15) 0.73641(11)
N1 N 0.8395(2) 0.01208(15) 0.75583(9)
N2 N 0.8073(2) -0.00577(15) 0.86600(9)
N3 N 0.8078(2) 0.10971(15) 0.84664(8)
C1 C 0.8303(4) -0.19097(19) 0.79941(16)
H1 H 0.8925 -0.2275 0.8354
H2 H 0.7196 -0.2213 0.8009
C2 C 0.8273(3) -0.06202(18) 0.80973(13)
C3 C 0.8765(3) -0.02665(18) 0.68603(12)
H3 H 0.9952 -0.0221 0.6795
C4 C 0.8266(3) -0.1550(2) 0.68261(15)
H4 H 0.7085 -0.1616 0.6862
H5 H 0.8599 -0.1878 0.6395
C5 C 0.8292(3) 0.11963(19) 0.78062(10)
H6 H 0.844(3) 0.188(2) 0.7561(11)
C6 C 0.7964(3) 0.04596(19) 0.63230(11)
C7 C 0.8786(4) 0.0594(3) 0.57130(14)
H7 H 0.9832 0.0287 0.5661
C8 C 0.8056(6) 0.1181(3) 0.51833(15)
H8 H 0.8602 0.1250 0.4772
C9 C 0.6547(5) 0.1658(3) 0.52585(14)
H9 H 0.6065 0.2059 0.4902
C10 C 0.5736(4) 0.1547(3) 0.58587(13)
H10 H 0.4711 0.1887 0.5911
C11 C 0.6421(3) 0.0937(2) 0.63886(12)
H11 H 0.5843 0.0846 0.6790
C12 C 0.7902(3) 0.20118(18) 0.89483(9)
C13 C 0.8528(3) 0.1859(2) 0.95942(11)
H12 H 0.9029 0.1163 0.9718
C14 C 0.8388(4) 0.2766(3) 1.00491(13)
H13 H 0.8789 0.2676 1.0486
C15 C 0.7666(4) 0.3795(3) 0.98659(13)
H14 H 0.7596 0.4407 1.0173
C16 C 0.7046(4) 0.3918(2) 0.92254(13)
H15 H 0.6546 0.4616 0.9103
C17 C 0.7151(3) 0.3032(2) 0.87617(11)
H16 H 0.6721 0.3121 0.8329
loop_
_geom_bond_atom_site_label_1
_geom_bond_atom_site_label_2
_geom_bond_site_symmetry_1
_geom_bond_site_symmetry_2
P1 F1 1_555 1_555
F2 P1 1_555 1_555
F3 P1 1_555 1_555
F4 P1 1_555 1_555
F5 P1 1_555 1_555
F6 P1 1_555 1_555
O1 C1 1_555 1_555
N1 C2 1_555 1_555
N2 N3 1_555 1_555
N3 C5 1_555 1_555
C1 H1 1_555 1_555
H2 C1 1_555 1_555
C2 N2 1_555 1_555
C3 N1 1_555 1_555
H3 C3 1_555 1_555
C4 O1 1_555 1_555
H4 C4 1_555 1_555
H5 C4 1_555 1_555
C5 N1 1_555 1_555
H6 C5 1_555 1_555
C6 C3 1_555 1_555
C7 C6 1_555 1_555
H7 C7 1_555 1_555
C8 C7 1_555 1_555
H8 C8 1_555 1_555
C9 C8 1_555 1_555
H9 C9 1_555 1_555
C10 C9 1_555 1_555
H10 C10 1_555 1_555
C11 C6 1_555 1_555
H11 C11 1_555 1_555
C12 N3 1_555 1_555
C13 C12 1_555 1_555
H12 C13 1_555 1_555
C14 C13 1_555 1_555
H13 C14 1_555 1_555
C15 C14 1_555 1_555
H14 C15 1_555 1_555
C16 C15 1_555 1_555
H15 C16 1_555 1_555
C17 C12 1_555 1_555
H16 C17 1_555 1_555
C1 C2 1_555 1_555
C3 C4 1_555 1_555
C10 C11 1_555 1_555
C16 C17 1_555 1_555

#END
