
#######################################################################
#
#                 Cambridge Crystallographic Data Centre
#                                CCDC 
#
#######################################################################
#
# If this CIF has been generated from an entry in the Cambridge 
# Structural Database, then it will include bibliographic, chemical, 
# crystal, experimental, refinement or atomic coordinate data resulting 
# from the CCDC's data processing and validation procedures.
#
#######################################################################

data_YODNIP
_chemical_formula_moiety         'C16 H16 Cl1 N1 O2'
_chemical_name_systematic        
N-Benzyl-2-(2-chloro-4-methylphenoxy)acetamide
_symmetry_cell_setting           orthorhombic
_symmetry_space_group_name_H-M   'P b c a'
_symmetry_Int_Tables_number      61
_space_group_name_Hall           '-P 2ac 2ab'
loop_
_symmetry_equiv_pos_site_id
_symmetry_equiv_pos_as_xyz
1 x,y,z
2 1/2-x,-y,1/2+z
3 -x,1/2+y,1/2-z
4 1/2+x,1/2-y,-z
5 -x,-y,-z
6 1/2+x,y,1/2-z
7 x,1/2-y,1/2+z
8 1/2-x,1/2+y,z
_cell_length_a                   11.9900(18)
_cell_length_b                   9.2986(14)
_cell_length_c                   25.868(4)
_cell_angle_alpha                90
_cell_angle_beta                 90
_cell_angle_gamma                90
_cell_volume                     2884.03
_exptl_crystal_colour            colorless
_exptl_crystal_description       block
_cell_formula_units_Z            8
_exptl_crystal_recrystallization_method 'ethyl acetate/hexane'
loop_
_atom_site_label
_atom_site_type_symbol
_atom_site_fract_x
_atom_site_fract_y
_atom_site_fract_z
N1 N 0.25818(17) 0.4733(2) 0.38688(7)
H1 H 0.2699(18) 0.557(3) 0.3929(9)
Cl1 Cl 0.03007(5) 0.17559(7) 0.57574(3)
O1 O 0.12962(13) 0.38711(16) 0.50994(6)
O2 O 0.19800(14) 0.26379(16) 0.42037(6)
C1 C 0.17217(18) 0.2116(2) 0.57204(8)
C2 C 0.24535(19) 0.1359(2) 0.60276(8)
H2 H 0.2178 0.0675 0.6257
C3 C 0.35942(19) 0.1599(2) 0.60016(9)
C4 C 0.4390(2) 0.0750(3) 0.63326(10)
H3 H 0.5140 0.1053 0.6263
H4 H 0.4315 -0.0255 0.6255
H5 H 0.4221 0.0911 0.6691
C5 C 0.3965(2) 0.2623(3) 0.56529(9)
H6 H 0.4726 0.2803 0.5626
C6 C 0.32366(19) 0.3384(2) 0.53445(9)
H7 H 0.3514 0.4062 0.5113
C7 C 0.20977(18) 0.3153(2) 0.53747(8)
C8 C 0.1658(2) 0.4792(2) 0.46959(8)
H8 H 0.2239 0.5422 0.4825
H9 H 0.1038 0.5387 0.4584
C9 C 0.21020(18) 0.3948(2) 0.42362(8)
C10 C 0.2954(2) 0.4080(2) 0.33864(8)
H10 H 0.2365 0.3473 0.3250
H11 H 0.3597 0.3477 0.3454
C11 C 0.32561(18) 0.5196(2) 0.29900(8)
C12 C 0.2495(2) 0.5609(2) 0.26193(9)
H12 H 0.1787 0.5201 0.2619
C13 C 0.2765(2) 0.6617(3) 0.22488(10)
H13 H 0.2241 0.6880 0.2001
C14 C 0.3801(2) 0.7230(3) 0.22441(10)
H14 H 0.3985 0.7901 0.1991
C15 C 0.4562(2) 0.6855(3) 0.26101(12)
H15 H 0.5263 0.7282 0.2611
C16 C 0.4294(2) 0.5832(3) 0.29846(10)
H16 H 0.4820 0.5577 0.3232
loop_
_geom_bond_atom_site_label_1
_geom_bond_atom_site_label_2
_geom_bond_site_symmetry_1
_geom_bond_site_symmetry_2
N1 H1 1_555 1_555
Cl1 C1 1_555 1_555
O1 C7 1_555 1_555
O2 C9 1_555 1_555
C1 C2 1_555 1_555
C2 H2 1_555 1_555
C3 C2 1_555 1_555
C4 C3 1_555 1_555
H3 C4 1_555 1_555
H4 C4 1_555 1_555
H5 C4 1_555 1_555
C5 C3 1_555 1_555
H6 C5 1_555 1_555
C6 C5 1_555 1_555
H7 C6 1_555 1_555
C7 C1 1_555 1_555
C8 O1 1_555 1_555
H8 C8 1_555 1_555
H9 C8 1_555 1_555
C9 N1 1_555 1_555
C10 N1 1_555 1_555
H10 C10 1_555 1_555
H11 C10 1_555 1_555
C11 C10 1_555 1_555
C12 C11 1_555 1_555
H12 C12 1_555 1_555
C13 C12 1_555 1_555
H13 C13 1_555 1_555
C14 C13 1_555 1_555
H14 C14 1_555 1_555
C15 C14 1_555 1_555
H15 C15 1_555 1_555
C16 C11 1_555 1_555
H16 C16 1_555 1_555
C6 C7 1_555 1_555
C8 C9 1_555 1_555
C15 C16 1_555 1_555

#END
