
#######################################################################
#
#                 Cambridge Crystallographic Data Centre
#                                CCDC 
#
#######################################################################
#
# If this CIF has been generated from an entry in the Cambridge 
# Structural Database, then it will include bibliographic, chemical, 
# crystal, experimental, refinement or atomic coordinate data resulting 
# from the CCDC's data processing and validation procedures.
#
#######################################################################

data_YODQUD
_chemical_formula_moiety         'C28 H26 N4 O2'
_chemical_name_systematic        
1,2-bis(3-(2-methoxyphenyl)pyrazol-1-ylmethyl)benzene
_symmetry_cell_setting           monoclinic
_symmetry_space_group_name_H-M   'P 21/n'
_symmetry_Int_Tables_number      14
_space_group_name_Hall           '-P 2yn'
loop_
_symmetry_equiv_pos_site_id
_symmetry_equiv_pos_as_xyz
1 x,y,z
2 1/2+x,1/2-y,1/2+z
3 -x,-y,-z
4 1/2-x,1/2+y,1/2-z
_cell_length_a                   7.9949(19)
_cell_length_b                   12.330(3)
_cell_length_c                   23.989(6)
_cell_angle_alpha                90
_cell_angle_beta                 91.37(3)
_cell_angle_gamma                90
_cell_volume                     2364.09
_exptl_crystal_description       block
_cell_formula_units_Z            4
loop_
_atom_site_label
_atom_site_type_symbol
_atom_site_fract_x
_atom_site_fract_y
_atom_site_fract_z
C1 C -0.3391(2) 0.88609(15) 0.19808(7)
C2 C -0.2309(3) 0.95466(16) 0.22681(8)
H1 H -0.1262 0.9695 0.2126
C3 C -0.2780(4) 1.00213(19) 0.27737(10)
H2 H -0.2057 1.0488 0.2966
C4 C -0.4345(5) 0.9780(2) 0.29801(10)
H3 H -0.4671 1.0095 0.3313
C5 C -0.5410(3) 0.9094(2) 0.27051(10)
H4 H -0.6443 0.8934 0.2855
C6 C -0.4970(3) 0.86357(19) 0.22063(8)
O1 O -0.59752(18) 0.79462(15) 0.19039(6)
C7 C -0.7443(3) 0.7541(3) 0.21596(12)
H5 H -0.8034 0.7072 0.1904
H6 H -0.8152 0.8137 0.2257
H7 H -0.7131 0.7143 0.2490
C8 C -0.2919(2) 0.83649(14) 0.14467(7)
N1 N -0.14134(17) 0.78962(12) 0.13989(6)
N2 N -0.14175(17) 0.75231(11) 0.08661(6)
C9 C -0.2849(2) 0.77554(14) 0.05868(8)
H8 H -0.3109 0.7583 0.0217
C10 C -0.3849(2) 0.82926(14) 0.09475(8)
H9 H -0.493(2) 0.8546(15) 0.0869(8)
C11 C 0.0020(2) 0.69406(14) 0.06584(8)
H10 H -0.0375 0.6360 0.0417
H11 H 0.0620 0.6612 0.0972
C12 C 0.1223(2) 0.76420(13) 0.03397(7)
C13 C 0.1204(2) 0.87628(13) 0.03870(8)
H12 H 0.0447 0.9090 0.0623
C14 C 0.2292(2) 0.94037(15) 0.00893(8)
H13 H 0.2262 1.0154 0.0125
C15 C 0.3421(2) 0.89247(15) -0.02604(8)
H14 H 0.4149 0.9351 -0.0463
C16 C 0.3463(2) 0.78066(14) -0.03077(7)
H15 H 0.4234 0.7486 -0.0540
C17 C 0.2374(2) 0.71554(13) -0.00140(7)
C18 C 0.2405(2) 0.59436(13) -0.01031(7)
H16 H 0.1315 0.5708 -0.0242
H17 H 0.3217 0.5773 -0.0384
N3 N 0.28323(17) 0.53484(11) 0.04080(6)
N4 N 0.22835(17) 0.43163(11) 0.04654(6)
C19 C 0.29967(19) 0.39676(13) 0.09449(7)
C20 C 0.3992(2) 0.47824(14) 0.11860(8)
H18 H 0.4617 0.4743 0.1517
C21 C 0.3856(2) 0.56448(15) 0.08349(8)
H19 H 0.430(2) 0.6337(16) 0.0851(8)
C22 C 0.2661(2) 0.28500(13) 0.11392(7)
C23 C 0.1150(2) 0.23440(14) 0.10065(8)
H20 H 0.0332 0.2725 0.0806
C24 C 0.0833(2) 0.12830(15) 0.11668(8)
H21 H -0.0190 0.0960 0.1078
C25 C 0.2049(2) 0.07148(15) 0.14586(8)
H22 H 0.1851 0.0000 0.1561
C26 C 0.3559(2) 0.11930(14) 0.16009(8)
H23 H 0.4373 0.0801 0.1797
C27 C 0.3864(2) 0.22635(13) 0.14503(7)
O2 O 0.53095(14) 0.28033(9) 0.15840(5)
C28 C 0.6626(2) 0.22159(16) 0.18638(9)
H24 H 0.7599 0.2669 0.1901
H25 H 0.6893 0.1582 0.1651
H26 H 0.6269 0.2003 0.2227
loop_
_geom_bond_atom_site_label_1
_geom_bond_atom_site_label_2
_geom_bond_site_symmetry_1
_geom_bond_site_symmetry_2
C1 C2 1_555 1_555
C2 H1 1_555 1_555
C3 C2 1_555 1_555
H2 C3 1_555 1_555
C4 C3 1_555 1_555
H3 C4 1_555 1_555
C5 C4 1_555 1_555
H4 C5 1_555 1_555
C6 C1 1_555 1_555
O1 C6 1_555 1_555
C7 O1 1_555 1_555
H5 C7 1_555 1_555
H6 C7 1_555 1_555
H7 C7 1_555 1_555
C8 C1 1_555 1_555
N1 C8 1_555 1_555
N2 N1 1_555 1_555
C9 N2 1_555 1_555
H8 C9 1_555 1_555
C10 C8 1_555 1_555
H9 C10 1_555 1_555
C11 N2 1_555 1_555
H10 C11 1_555 1_555
H11 C11 1_555 1_555
C12 C11 1_555 1_555
C13 C12 1_555 1_555
H12 C13 1_555 1_555
C14 C13 1_555 1_555
H13 C14 1_555 1_555
C15 C14 1_555 1_555
H14 C15 1_555 1_555
C16 C15 1_555 1_555
H15 C16 1_555 1_555
C17 C12 1_555 1_555
C18 C17 1_555 1_555
H16 C18 1_555 1_555
H17 C18 1_555 1_555
N3 C18 1_555 1_555
N4 N3 1_555 1_555
C19 N4 1_555 1_555
C20 C19 1_555 1_555
H18 C20 1_555 1_555
C21 N3 1_555 1_555
H19 C21 1_555 1_555
C22 C19 1_555 1_555
C23 C22 1_555 1_555
H20 C23 1_555 1_555
C24 C23 1_555 1_555
H21 C24 1_555 1_555
C25 C24 1_555 1_555
H22 C25 1_555 1_555
C26 C25 1_555 1_555
H23 C26 1_555 1_555
C27 C22 1_555 1_555
O2 C27 1_555 1_555
C28 O2 1_555 1_555
H24 C28 1_555 1_555
H25 C28 1_555 1_555
H26 C28 1_555 1_555
C5 C6 1_555 1_555
C9 C10 1_555 1_555
C16 C17 1_555 1_555
C20 C21 1_555 1_555
C26 C27 1_555 1_555

#END
