
#######################################################################
#
#                 Cambridge Crystallographic Data Centre
#                                CCDC 
#
#######################################################################
#
# If this CIF has been generated from an entry in the Cambridge 
# Structural Database, then it will include bibliographic, chemical, 
# crystal, experimental, refinement or atomic coordinate data resulting 
# from the CCDC's data processing and validation procedures.
#
#######################################################################

data_YODXAR
_chemical_name_common            Eplerenone
_chemical_formula_moiety         'C24 H30 O6'
_chemical_name_systematic        
9\a,11-Epoxy-7\a-(methoxycarbonyl)-3-oxo-17\a-pregn-4-ene-21,17-carbolactone
_chemical_properties_biological  
'Eplerenone is an aldosterone receptor antagonist used to control high blood pressure'
_symmetry_cell_setting           monoclinic
_symmetry_space_group_name_H-M   'P 21'
_symmetry_Int_Tables_number      4
_space_group_name_Hall           'P 2yb'
loop_
_symmetry_equiv_pos_site_id
_symmetry_equiv_pos_as_xyz
1 x,y,z
2 -x,1/2+y,-z
_cell_length_a                   8.8111(12)
_cell_length_b                   11.2502(14)
_cell_length_c                   11.0791(14)
_cell_angle_alpha                90
_cell_angle_beta                 93.822(12)
_cell_angle_gamma                90
_cell_volume                     1095.79
_exptl_crystal_colour            colorless
_exptl_crystal_description       prism
_cell_formula_units_Z            2
_exptl_crystal_recrystallization_method 'isopropyl acetate'
loop_
_atom_site_label
_atom_site_type_symbol
_atom_site_fract_x
_atom_site_fract_y
_atom_site_fract_z
O1 O 1.0464(3) 0.4216(3) 0.7881(2)
O2 O 0.56610(19) 0.59244(15) 0.42867(14)
O3 O 0.3441(2) 0.5951(2) -0.04641(15)
O4 O 0.2114(3) 0.7108(2) -0.1747(2)
O5 O 0.3026(2) 0.3751(2) 0.48785(18)
O6 O 0.5113(2) 0.39765(17) 0.61239(15)
C1 C 0.9809(3) 0.4378(3) 0.6886(3)
C2 C 0.8781(3) 0.3503(3) 0.6326(3)
H1 H 0.8667 0.2790 0.6734
C3 C 0.7987(2) 0.3645(2) 0.5268(2)
C4 C 0.8144(3) 0.4764(2) 0.4502(2)
C5 C 0.8639(3) 0.5800(3) 0.5342(3)
H2 H 0.8872 0.6484 0.4855
H3 H 0.7802 0.6014 0.5825
C6 C 1.0034(4) 0.5491(3) 0.6184(3)
H4 H 1.0910 0.5395 0.5707
H5 H 1.0244 0.6143 0.6743
C7 C 0.6962(3) 0.2664(2) 0.4773(2)
H6 H 0.6779 0.2114 0.5422
H7 H 0.7480 0.2231 0.4165
C8 C 0.5428(3) 0.31049(19) 0.4209(2)
H8 H 0.4905 0.2424 0.3819
C9 C 0.5773(3) 0.40015(19) 0.32071(19)
H9 H 0.6460 0.3602 0.2678
C10 C 0.6638(2) 0.50586(19) 0.37665(19)
C11 C 0.6404(3) 0.6242(2) 0.3205(2)
H10 H 0.7261 0.6795 0.3327
C12 C 0.5346(3) 0.6470(2) 0.2085(2)
H11 H 0.5873 0.6950 0.1518
H12 H 0.4469 0.6917 0.2316
C13 C 0.4802(3) 0.5318(2) 0.1461(2)
C14 C 0.4394(3) 0.4396(2) 0.24120(19)
H13 H 0.3675 0.4769 0.2934
C15 C 0.3535(4) 0.3408(3) 0.1676(2)
H14 H 0.2718 0.3086 0.2122
H15 H 0.4221 0.2768 0.1493
C16 C 0.2892(4) 0.4030(3) 0.0495(3)
H16 H 0.3373 0.3722 -0.0203
H17 H 0.1802 0.3913 0.0375
C17 C 0.3273(3) 0.5352(3) 0.0692(2)
C18 C 0.1966(3) 0.6020(4) 0.1223(2)
H18 H 0.1360 0.5493 0.1689
H19 H 0.2342 0.6669 0.1736
C19 C 0.1061(4) 0.6477(4) 0.0121(3)
H20 H 0.0257 0.5926 -0.0137
H21 H 0.0615 0.7245 0.0278
C20 C 0.2204(4) 0.6575(3) -0.0809(2)
C21 C 0.9348(3) 0.4522(3) 0.3570(2)
H22 H 0.9027 0.3861 0.3068
H23 H 1.0308 0.4341 0.3991
H24 H 0.9454 0.5213 0.3076
C22 C 0.6070(3) 0.4876(3) 0.0688(2)
H25 H 0.7013 0.4846 0.1174
H26 H 0.6169 0.5410 0.0022
H27 H 0.5820 0.4096 0.0385
C23 C 0.4376(3) 0.3638(2) 0.5084(2)
C24 C 0.4250(4) 0.4621(3) 0.6968(3)
H28 H 0.3434 0.4131 0.7214
H29 H 0.3839 0.5329 0.6588
H30 H 0.4901 0.4834 0.7663
loop_
_geom_bond_atom_site_label_1
_geom_bond_atom_site_label_2
_geom_bond_site_symmetry_1
_geom_bond_site_symmetry_2
O1 C1 1_555 1_555
O2 C10 1_555 1_555
O3 C17 1_555 1_555
O4 C20 1_555 1_555
O5 C23 1_555 1_555
O6 C23 1_555 1_555
C1 C2 1_555 1_555
C2 H1 1_555 1_555
C3 C2 1_555 1_555
C4 C3 1_555 1_555
C5 C4 1_555 1_555
H2 C5 1_555 1_555
H3 C5 1_555 1_555
C6 C1 1_555 1_555
H4 C6 1_555 1_555
H5 C6 1_555 1_555
C7 C3 1_555 1_555
H6 C7 1_555 1_555
H7 C7 1_555 1_555
C8 C7 1_555 1_555
H8 C8 1_555 1_555
C9 C8 1_555 1_555
H9 C9 1_555 1_555
C10 C4 1_555 1_555
C11 O2 1_555 1_555
H10 C11 1_555 1_555
C12 C11 1_555 1_555
H11 C12 1_555 1_555
H12 C12 1_555 1_555
C13 C12 1_555 1_555
C14 C9 1_555 1_555
H13 C14 1_555 1_555
C15 C14 1_555 1_555
H14 C15 1_555 1_555
H15 C15 1_555 1_555
C16 C15 1_555 1_555
H16 C16 1_555 1_555
H17 C16 1_555 1_555
C17 C13 1_555 1_555
C18 C17 1_555 1_555
H18 C18 1_555 1_555
H19 C18 1_555 1_555
C19 C18 1_555 1_555
H20 C19 1_555 1_555
H21 C19 1_555 1_555
C20 O3 1_555 1_555
C21 C4 1_555 1_555
H22 C21 1_555 1_555
H23 C21 1_555 1_555
H24 C21 1_555 1_555
C22 C13 1_555 1_555
H25 C22 1_555 1_555
H26 C22 1_555 1_555
H27 C22 1_555 1_555
C23 C8 1_555 1_555
C24 O6 1_555 1_555
H28 C24 1_555 1_555
H29 C24 1_555 1_555
H30 C24 1_555 1_555
C5 C6 1_555 1_555
C9 C10 1_555 1_555
C10 C11 1_555 1_555
C13 C14 1_555 1_555
C16 C17 1_555 1_555
C19 C20 1_555 1_555

#END
