
#######################################################################
#
#                 Cambridge Crystallographic Data Centre
#                                CCDC 
#
#######################################################################
#
# If this CIF has been generated from an entry in the Cambridge 
# Structural Database, then it will include bibliographic, chemical, 
# crystal, experimental, refinement or atomic coordinate data resulting 
# from the CCDC's data processing and validation procedures.
#
#######################################################################

data_YOFSIW
_chemical_formula_moiety         
'4(C10 H18 N1 1+),C6 H5 O9 P3 4-,5(H2 O1),C2 H6 O1,C1 H4 O1'
_chemical_name_systematic        
'tetrakis(Adamantan-1-ylammonium) benzene-1,3,5-triphosphonate ethanol methanol solvate pentahydrate'
_symmetry_cell_setting           triclinic
_symmetry_space_group_name_H-M   'P -1'
_symmetry_Int_Tables_number      2
_space_group_name_Hall           '-P 1'
loop_
_symmetry_equiv_pos_site_id
_symmetry_equiv_pos_as_xyz
1 x,y,z
2 -x,-y,-z
_cell_length_a                   11.862(5)
_cell_length_b                   15.663(7)
_cell_length_c                   16.830(8)
_cell_angle_alpha                62.422(7)
_cell_angle_beta                 80.885(8)
_cell_angle_gamma                75.348(7)
_cell_volume                     2678.4
_exptl_crystal_colour            colorless
_exptl_crystal_description       block
_cell_formula_units_Z            2
loop_
_atom_site_label
_atom_site_type_symbol
_atom_site_fract_x
_atom_site_fract_y
_atom_site_fract_z
P1 P 0.24288(5) 0.54450(4) 0.48017(4)
P2 P -0.19687(5) 0.78381(4) 0.40846(4)
P3 P 0.15595(5) 0.89980(4) 0.50010(4)
O1 O 0.30556(13) 0.49379(11) 0.56786(10)
O2 O 0.32606(13) 0.58447(11) 0.39846(10)
O3 O 0.17306(13) 0.47907(11) 0.47294(10)
O4 O -0.27073(13) 0.87823(11) 0.40790(10)
O5 O -0.25723(14) 0.69867(12) 0.47954(11)
H1 H -0.222(4) 0.626(4) 0.500(3)
O6 O -0.17781(14) 0.78073(12) 0.31968(11)
O7 O 0.09196(14) 0.91028(11) 0.58151(10)
O8 O 0.12292(17) 0.99925(12) 0.41299(11)
H2 H 0.056(3) 1.028(2) 0.414(2)
O9 O 0.28612(14) 0.87401(13) 0.50201(11)
C1 C 0.13882(18) 0.65254(15) 0.47871(13)
C2 C 0.02418(19) 0.67245(15) 0.45725(14)
H3 H -0.003(2) 0.6263(17) 0.4454(15)
C3 C -0.05319(19) 0.75994(15) 0.44843(14)
C4 C -0.01273(19) 0.82755(16) 0.46310(14)
H4 H -0.064(2) 0.8867(19) 0.4561(16)
C5 C 0.10298(19) 0.80923(15) 0.48502(14)
C6 C 0.17774(19) 0.72195(15) 0.49239(14)
H5 H 0.259(2) 0.7096(16) 0.5052(14)
O10 O 0.4611(2) 0.29321(14) 0.41255(14)
H6 H 0.556(2) 0.2616(19) 0.3846(17)
H7 H 0.369(6) 0.285(5) 0.461(5)
O11 O 0.50080(16) 0.34929(12) 0.56770(11)
H8 H 0.439(3) 0.389(2) 0.5699(19)
H9 H 0.554(3) 0.368(2) 0.580(2)
O12 O 0.16037(15) 0.38341(15) 0.70132(12)
H10 H 0.170(3) 0.336(3) 0.691(2)
H11 H 0.207(3) 0.422(3) 0.658(2)
O13 O 0.6305(6) 0.9447(8) 0.5367(6)
H12 H 0.580(4) 0.877(3) 0.561(3)
H13 H 0.679(5) 0.914(4) 0.505(5)
O14 O 0.20964(16) 0.66657(15) 0.24561(13)
H14 H 0.253(4) 0.648(3) 0.300(3)
C7 C 0.1370(4) 0.7568(3) 0.2252(3)
C8 C 0.0112(10) 0.8196(6) 0.2007(6)
H15 H 0.129(5) 0.781(4) 0.288(4)
H16 H 0.167(8) 0.817(7) 0.143(7)
C9 C 0.44116(19) 0.90702(16) 0.29149(15)
C10 C 0.3250(2) 0.88568(18) 0.28552(16)
H17 H 0.268(2) 0.8992(17) 0.3275(16)
H18 H 0.333(2) 0.8175(19) 0.3034(15)
C11 C 0.2844(2) 0.94947(18) 0.18917(16)
H19 H 0.210(2) 0.9357(18) 0.1856(16)
C12 C 0.2702(2) 1.05797(19) 0.16614(18)
H20 H 0.245(2) 1.0961(18) 0.1057(18)
H21 H 0.212(2) 1.0725(18) 0.2101(17)
C13 C 0.3871(2) 1.07872(18) 0.17209(17)
H22 H 0.380(2) 1.148(2) 0.1575(17)
C14 C 0.4768(2) 1.05259(19) 0.10640(17)
H23 H 0.550(2) 1.0688(17) 0.1065(16)
H24 H 0.4493(19) 1.0934(17) 0.0465(16)
C15 C 0.4919(2) 0.94313(18) 0.13123(16)
H25 H 0.549(2) 0.9279(18) 0.0896(17)
C16 C 0.5327(2) 0.88091(18) 0.22745(16)
H26 H 0.607(2) 0.8906(17) 0.2340(16)
H27 H 0.544(2) 0.8124(19) 0.2428(15)
C17 C 0.3751(2) 0.9228(2) 0.12411(17)
H28 H 0.3859(19) 0.8535(18) 0.1375(15)
H29 H 0.347(2) 0.9612(18) 0.0623(18)
C18 C 0.4270(2) 1.01550(17) 0.26827(17)
H30 H 0.502(2) 1.0270(17) 0.2727(15)
H31 H 0.372(2) 1.0267(17) 0.3105(16)
N1 N 0.47942(19) 0.84579(15) 0.38630(13)
H32 H 0.493(2) 0.779(2) 0.4021(17)
H33 H 0.419(2) 0.8589(19) 0.4248(18)
H34 H 0.543(2) 0.8605(18) 0.3945(17)
C19 C 0.09716(19) 0.45965(17) 0.26363(15)
C20 C 0.1281(2) 0.52186(17) 0.16448(16)
H35 H 0.201(2) 0.5491(17) 0.1611(15)
H36 H 0.062(2) 0.578(2) 0.1355(19)
C21 C 0.1545(2) 0.45688(17) 0.11524(16)
H37 H 0.172(2) 0.4963(18) 0.0522(17)
C22 C 0.0472(2) 0.4166(2) 0.12292(18)
H38 H 0.062(2) 0.3764(19) 0.0890(17)
H39 H -0.019(2) 0.471(2) 0.0949(18)
C23 C 0.2569(2) 0.37234(19) 0.15740(17)
H40 H 0.326(2) 0.3990(18) 0.1507(16)
H41 H 0.274(2) 0.328(2) 0.1259(18)
C24 C 0.2256(2) 0.31066(18) 0.25656(17)
H42 H 0.287(2) 0.2600(19) 0.2833(17)
C25 C 0.1995(2) 0.37543(18) 0.30550(16)
H43 H 0.268(2) 0.4018(16) 0.3037(15)
H44 H 0.176(2) 0.3402(17) 0.3657(17)
C26 C 0.1180(3) 0.27009(19) 0.2642(2)
H45 H 0.136(2) 0.228(2) 0.2333(18)
H46 H 0.099(2) 0.232(2) 0.325(2)
C27 C 0.0157(2) 0.3550(2) 0.22226(18)
H47 H -0.054(2) 0.331(2) 0.2290(18)
C28 C -0.0105(2) 0.4199(2) 0.27119(18)
H48 H -0.078(2) 0.476(2) 0.2455(17)
H49 H -0.032(2) 0.3810(19) 0.3352(18)
N2 N 0.0719(2) 0.52481(17) 0.31040(15)
H50 H 0.119(3) 0.576(2) 0.284(2)
H51 H -0.006(3) 0.556(2) 0.3064(18)
H52 H 0.092(3) 0.492(2) 0.368(2)
C29 C 0.44455(18) 0.48486(15) 0.74175(14)
C30 C 0.4377(2) 0.37725(16) 0.77588(15)
H53 H 0.378(2) 0.3734(17) 0.7435(15)
H54 H 0.513(2) 0.3423(17) 0.7624(15)
C31 C 0.4074(2) 0.33287(18) 0.87719(16)
H55 H 0.404(2) 0.2634(19) 0.8990(16)
C32 C 0.5037(2) 0.33808(18) 0.92482(17)
H56 H 0.580(2) 0.3010(18) 0.9127(16)
H57 H 0.484(2) 0.3111(18) 0.9884(18)
C33 C 0.5109(2) 0.44586(17) 0.89070(15)
H58 H 0.572(2) 0.4487(16) 0.9193(15)
C34 C 0.3939(2) 0.5040(2) 0.90949(17)
H59 H 0.398(2) 0.573(2) 0.8896(17)
H60 H 0.375(2) 0.4767(18) 0.9750(18)
C35 C 0.2984(2) 0.49876(19) 0.86121(16)
H61 H 0.224(2) 0.5354(18) 0.8730(16)
C36 C 0.3276(2) 0.54339(18) 0.75984(16)
H62 H 0.269(2) 0.5396(16) 0.7274(15)
H63 H 0.3326(19) 0.6101(18) 0.7381(15)
C37 C 0.2900(2) 0.3913(2) 0.89520(17)
H64 H 0.271(2) 0.3621(18) 0.9599(18)
H65 H 0.227(2) 0.3886(17) 0.8648(16)
C38 C 0.54032(19) 0.49072(17) 0.78918(15)
H66 H 0.616(2) 0.4551(17) 0.7752(15)
N3 N 0.47273(18) 0.52832(15) 0.64265(12)
H67 H 0.415(2) 0.5278(18) 0.6117(17)
H68 H 0.481(2) 0.592(2) 0.6212(18)
H69 H 0.543(3) 0.494(2) 0.6297(18)
H70 H 0.546(2) 0.561(2) 0.7638(16)
C39 C 0.8111(2) 0.10922(16) 0.21851(15)
C40 C 0.8137(2) 0.21682(17) 0.18994(17)
H71 H 0.734(2) 0.2510(18) 0.1979(16)
H72 H 0.861(2) 0.2213(18) 0.2281(17)
C41 C 0.8561(2) 0.26360(18) 0.09144(17)
H73 H 0.859(2) 0.330(2) 0.0760(17)
C42 C 0.7723(2) 0.25878(19) 0.03369(18)
H74 H 0.798(2) 0.2880(19) -0.0291(19)
H75 H 0.694(3) 0.294(2) 0.0426(18)
C43 C 0.7697(2) 0.15071(19) 0.06285(17)
H76 H 0.720(2) 0.1473(19) 0.0262(18)
C44 C 0.8923(2) 0.0953(2) 0.05067(19)
H77 H 0.922(2) 0.123(2) -0.012(2)
H78 H 0.892(2) 0.028(2) 0.0699(18)
C45 C 0.9756(2) 0.09995(19) 0.10914(18)
H79 H 1.053(2) 0.0610(19) 0.1027(17)
C46 C 0.9330(2) 0.05267(18) 0.20803(17)
H80 H 0.986(2) 0.0549(18) 0.2456(17)
H81 H 0.928(2) -0.015(2) 0.2304(18)
C47 C 0.9787(2) 0.20747(19) 0.08050(19)
H82 H 1.034(2) 0.2101(19) 0.1170(18)
H83 H 1.009(2) 0.235(2) 0.017(2)
C48 C 0.7278(2) 0.10370(18) 0.16171(17)
H84 H 0.7261(19) 0.0356(18) 0.1816(15)
H85 H 0.650(2) 0.1385(18) 0.1715(16)
N4 N 0.7689(2) 0.06556(16) 0.31476(14)
H86 H 0.696(3) 0.095(2) 0.3206(18)
H87 H 0.815(3) 0.072(2) 0.348(2)
H88 H 0.761(3) -0.002(3) 0.341(2)
C49 C -0.1859(4) 0.8280(4) 0.1065(3)
O15 O -0.1728(10) 0.8845(6) 0.1408(6)
H89 H -0.1032(16) 0.7500(14) 0.1234(12)
H90 H -0.234(4) 0.796(3) 0.132(3)
H91 H -0.187(4) 0.856(3) 0.049(4)
H92 H -0.169(3) 0.870(3) 0.167(2)
O16 O 0.5106(10) 0.1706(9) 0.3130(7)
O17? O 0.5535(3) 0.13407(19) 0.38065(19)
O18? O 0.6833(15) 0.9061(7) 0.5600(7)
C50? C -0.0981(10) 0.8297(10) 0.1402(5)
loop_
_geom_bond_atom_site_label_1
_geom_bond_atom_site_label_2
_geom_bond_site_symmetry_1
_geom_bond_site_symmetry_2
P1 O1 1_555 1_555
P2 O4 1_555 1_555
P3 O7 1_555 1_555
O2 P1 1_555 1_555
O3 P1 1_555 1_555
O5 P2 1_555 1_555
H1 O5 1_555 1_555
O6 P2 1_555 1_555
O8 P3 1_555 1_555
H2 O8 1_555 1_555
O9 P3 1_555 1_555
C1 P1 1_555 1_555
C2 C1 1_555 1_555
H3 C2 1_555 1_555
C3 P2 1_555 1_555
C4 C3 1_555 1_555
H4 C4 1_555 1_555
C5 P3 1_555 1_555
C6 C1 1_555 1_555
H5 C6 1_555 1_555
O10 H6 1_555 1_555
H7 O10 1_555 1_555
O11 H8 1_555 1_555
H9 O11 1_555 1_555
O12 H10 1_555 1_555
H11 O12 1_555 1_555
O13 H12 1_555 1_555
H13 O13 1_555 1_555
O14 H14 1_555 1_555
C7 O14 1_555 1_555
C8 C7 1_555 1_555
H15 C7 1_555 1_555
H16 C7 1_555 1_555
C9 C10 1_555 1_555
C10 H17 1_555 1_555
H18 C10 1_555 1_555
C11 C10 1_555 1_555
H19 C11 1_555 1_555
C12 C11 1_555 1_555
H20 C12 1_555 1_555
H21 C12 1_555 1_555
C13 C12 1_555 1_555
H22 C13 1_555 1_555
C14 C13 1_555 1_555
H23 C14 1_555 1_555
H24 C14 1_555 1_555
C15 C14 1_555 1_555
H25 C15 1_555 1_555
C16 C9 1_555 1_555
H26 C16 1_555 1_555
H27 C16 1_555 1_555
C17 C11 1_555 1_555
H28 C17 1_555 1_555
H29 C17 1_555 1_555
C18 C9 1_555 1_555
H30 C18 1_555 1_555
H31 C18 1_555 1_555
N1 C9 1_555 1_555
H32 N1 1_555 1_555
H33 N1 1_555 1_555
H34 N1 1_555 1_555
C19 C20 1_555 1_555
C20 H35 1_555 1_555
H36 C20 1_555 1_555
C21 C20 1_555 1_555
H37 C21 1_555 1_555
C22 C21 1_555 1_555
H38 C22 1_555 1_555
H39 C22 1_555 1_555
C23 C21 1_555 1_555
H40 C23 1_555 1_555
H41 C23 1_555 1_555
C24 C23 1_555 1_555
H42 C24 1_555 1_555
C25 C19 1_555 1_555
H43 C25 1_555 1_555
H44 C25 1_555 1_555
C26 C24 1_555 1_555
H45 C26 1_555 1_555
H46 C26 1_555 1_555
C27 C22 1_555 1_555
H47 C27 1_555 1_555
C28 C19 1_555 1_555
H48 C28 1_555 1_555
H49 C28 1_555 1_555
N2 C19 1_555 1_555
H50 N2 1_555 1_555
H51 N2 1_555 1_555
H52 N2 1_555 1_555
C29 C30 1_555 1_555
C30 H53 1_555 1_555
H54 C30 1_555 1_555
C31 C30 1_555 1_555
H55 C31 1_555 1_555
C32 C31 1_555 1_555
H56 C32 1_555 1_555
H57 C32 1_555 1_555
C33 C32 1_555 1_555
H58 C33 1_555 1_555
C34 C33 1_555 1_555
H59 C34 1_555 1_555
H60 C34 1_555 1_555
C35 C34 1_555 1_555
H61 C35 1_555 1_555
C36 C29 1_555 1_555
H62 C36 1_555 1_555
H63 C36 1_555 1_555
C37 C31 1_555 1_555
H64 C37 1_555 1_555
H65 C37 1_555 1_555
C38 C29 1_555 1_555
H66 C38 1_555 1_555
N3 C29 1_555 1_555
H67 N3 1_555 1_555
H68 N3 1_555 1_555
H69 N3 1_555 1_555
H70 C38 1_555 1_555
C39 C40 1_555 1_555
C40 H71 1_555 1_555
H72 C40 1_555 1_555
C41 C40 1_555 1_555
H73 C41 1_555 1_555
C42 C41 1_555 1_555
H74 C42 1_555 1_555
H75 C42 1_555 1_555
C43 C42 1_555 1_555
H76 C43 1_555 1_555
C44 C43 1_555 1_555
H77 C44 1_555 1_555
H78 C44 1_555 1_555
C45 C44 1_555 1_555
H79 C45 1_555 1_555
C46 C39 1_555 1_555
H80 C46 1_555 1_555
H81 C46 1_555 1_555
C47 C41 1_555 1_555
H82 C47 1_555 1_555
H83 C47 1_555 1_555
C48 C39 1_555 1_555
H84 C48 1_555 1_555
H85 C48 1_555 1_555
N4 C39 1_555 1_555
H86 N4 1_555 1_555
H87 N4 1_555 1_555
H88 N4 1_555 1_555
C49 O15 1_555 1_555
O15 H92 1_555 1_555
H89 C49 1_555 1_555
H90 C49 1_555 1_555
H91 C49 1_555 1_555
C2 C3 1_555 1_555
C4 C5 1_555 1_555
C5 C6 1_555 1_555
C13 C18 1_555 1_555
C15 C16 1_555 1_555
C15 C17 1_555 1_555
C24 C25 1_555 1_555
C26 C27 1_555 1_555
C27 C28 1_555 1_555
C33 C38 1_555 1_555
C35 C36 1_555 1_555
C35 C37 1_555 1_555
C43 C48 1_555 1_555
C45 C46 1_555 1_555
C45 C47 1_555 1_555

#END
