
#######################################################################
#
#                 Cambridge Crystallographic Data Centre
#                                CCDC 
#
#######################################################################
#
# If this CIF has been generated from an entry in the Cambridge 
# Structural Database, then it will include bibliographic, chemical, 
# crystal, experimental, refinement or atomic coordinate data resulting 
# from the CCDC's data processing and validation procedures.
#
#######################################################################

data_YOGRUJ
_chemical_formula_moiety         'C35 H47 B2 Li2 N13,C2 H3 N1'
_chemical_name_systematic        
'(\m~2~-1,3-bis(Dipyrazolyl(t-butyl)borate)benzene)-tris(acetonitrile)-pyrazole-di-lithium acetonitrile solvate'
_symmetry_cell_setting           monoclinic
_symmetry_space_group_name_H-M   'P 21/n'
_symmetry_Int_Tables_number      14
_space_group_name_Hall           '-P 2yn'
loop_
_symmetry_equiv_pos_site_id
_symmetry_equiv_pos_as_xyz
1 x,y,z
2 1/2-x,1/2+y,1/2-z
3 -x,-y,-z
4 1/2+x,1/2-y,1/2+z
_cell_length_a                   14.816(3)
_cell_length_b                   9.3044(13)
_cell_length_c                   30.973(3)
_cell_angle_alpha                90
_cell_angle_beta                 92.967(10)
_cell_angle_gamma                90
_cell_volume                     4264.03
_exptl_crystal_colour            colorless
_exptl_crystal_description       block
_cell_formula_units_Z            4
loop_
_atom_site_label
_atom_site_type_symbol
_atom_site_fract_x
_atom_site_fract_y
_atom_site_fract_z
N1 N 0.54750(9) 0.49841(15) 0.16566(4)
N2 N 0.73186(9) 0.34264(16) 0.04097(4)
N3 N 0.77291(9) 0.09717(16) 0.07486(4)
N4 N 0.56820(9) 0.23397(15) 0.19028(4)
N5 N 0.47913(10) 0.19517(16) 0.18382(5)
N6 N 0.45545(10) 0.50157(17) 0.16059(5)
C1 C 0.70690(11) 0.39428(18) 0.17965(5)
C2 C 0.72122(11) 0.33532(18) 0.13891(5)
H1 H 0.6701 0.2953 0.1235
C3 C 0.59187(12) 0.44108(19) 0.24801(5)
C4 C 0.87761(12) 0.38832(19) 0.14313(6)
H2 H 0.9360 0.3854 0.1319
C5 C 0.80395(11) 0.32976(18) 0.11873(5)
N7 N 0.74422(12) 0.01255(17) 0.04063(5)
C6 C 0.61884(12) 0.11435(19) 0.19589(5)
H3 H 0.6826 0.1127 0.2010
N8 N 0.69345(10) 0.29002(18) 0.00294(5)
B1 B 0.60430(13) 0.3936(2) 0.19715(6)
C7 C 0.90491(12) 0.2578(2) 0.04750(6)
C8 C 0.58164(13) 0.6109(2) 0.14440(6)
H4 H 0.6440 0.6332 0.1432
C9 C 0.78337(12) 0.45405(19) 0.20105(6)
H5 H 0.7778 0.4983 0.2284
C10 C 0.97395(13) 0.1644(2) 0.07356(7)
H6 H 1.0316 0.1649 0.0594
H7 H 0.9513 0.0656 0.0750
H8 H 0.9830 0.2031 0.1029
C11 C 0.77800(12) 0.0170(2) 0.11115(6)
H9 H 0.7964 0.0511 0.1391
C12 C 0.94090(13) 0.4119(2) 0.04334(7)
H10 H 0.9956 0.4107 0.0268
H11 H 0.9553 0.4514 0.0722
H12 H 0.8948 0.4717 0.0283
B2 B 0.80632(13) 0.2581(2) 0.07034(6)
C13 C 0.63293(13) 0.3882(2) -0.01116(6)
H13 H 0.5958 0.3791 -0.0370
C14 C 0.43512(14) 0.6157(2) 0.13557(6)
H14 H 0.3754 0.6432 0.1265
C15 C 0.60910(14) 0.6033(2) 0.25479(6)
H15 H 0.6065 0.6265 0.2856
H16 H 0.5628 0.6583 0.2382
H17 H 0.6689 0.6280 0.2449
C16 C 0.69481(13) 0.4717(2) 0.04897(6)
H18 H 0.7103 0.5308 0.0733
C17 C 0.63116(13) 0.5047(2) 0.01653(6)
H19 H 0.5945 0.5883 0.0138
C18 C 0.49575(13) 0.4122(2) 0.26245(6)
H20 H 0.4904 0.4480 0.2920
H21 H 0.4838 0.3086 0.2617
H22 H 0.4519 0.4616 0.2429
C19 C 0.47820(13) 0.0514(2) 0.18540(6)
H23 H 0.4250 -0.0053 0.1817
C20 C 0.65507(13) 0.3543(2) 0.27943(5)
H24 H 0.6440 0.3816 0.3093
H25 H 0.7181 0.3749 0.2735
H26 H 0.6432 0.2514 0.2755
C21 C 0.51202(14) 0.6882(2) 0.12469(6)
H27 H 0.5159 0.7724 0.1075
C22 C 0.86715(12) 0.4501(2) 0.18313(6)
H28 H 0.9181 0.4905 0.1986
N9 N 0.59350(14) -0.0129(3) -0.03799(6)
C23 C 0.90009(14) 0.1959(3) 0.00142(6)
H29 H 0.9604 0.1978 -0.0101
H30 H 0.8586 0.2540 -0.0171
H31 H 0.8782 0.0966 0.0021
C24 C 0.73173(16) -0.1182(2) 0.05736(7)
H32 H 0.7111 -0.1992 0.0410
C25 C 0.56402(13) -0.0047(2) 0.19312(6)
H33 H 0.5811 -0.1028 0.1959
C26 C 0.46379(15) -0.1587(3) -0.07602(7)
H34 H 0.4896 -0.2350 -0.0934
H35 H 0.4269 -0.0949 -0.0949
H36 H 0.4260 -0.2015 -0.0544
C27 C 0.75251(14) -0.1211(2) 0.10140(7)
H37 H 0.7497 -0.2007 0.1205
C28 C 0.53640(15) -0.0766(3) -0.05439(7)
Li1 Li 0.3795(2) 0.3327(4) 0.17253(10)
Li2 Li 0.7096(2) 0.0906(4) -0.01803(10)
N10 N 0.27547(10) 0.31451(18) 0.21376(5)
N11 N 0.19046(11) 0.3634(2) 0.20587(6)
H38 H 0.1769(15) 0.423(3) 0.1832(7)
C29 C 0.26920(15) 0.2299(2) 0.24793(7)
H39 H 0.3187 0.1794 0.2615
C30 C 0.13325(15) 0.3110(3) 0.23379(8)
H40 H 0.0704 0.3307 0.2342
C31 C 0.18158(17) 0.2244(3) 0.26146(8)
H41 H 0.1601 0.1714 0.2850
N12 N 0.30110(12) 0.3127(2) 0.11514(6)
C32 C 0.25686(14) 0.3334(3) 0.08517(7)
C33 C 0.19877(18) 0.3597(4) 0.04678(9)
H42 H 0.1836 0.2681 0.0326
H43 H 0.2303 0.4216 0.0269
H44 H 0.1432 0.4073 0.0550
C34 C 0.78571(15) 0.0343(2) -0.11257(7)
N13 N 0.76789(13) 0.0589(2) -0.07835(6)
C35 C 0.80844(19) 0.0001(3) -0.15651(7)
H45 H 0.8707 -0.0357 -0.1564
H46 H 0.8029 0.0868 -0.1744
H47 H 0.7671 -0.0738 -0.1683
N14 N 0.11511(16) 0.5876(3) 0.14491(8)
C36 C 0.05890(16) 0.6590(2) 0.13147(8)
C37 C -0.01418(18) 0.7488(3) 0.11457(8)
H48 H -0.0691 0.6909 0.1102
H49 H 0.0018 0.7901 0.0869
H50 H -0.0248 0.8263 0.1351
loop_
_geom_bond_atom_site_label_1
_geom_bond_atom_site_label_2
_geom_bond_site_symmetry_1
_geom_bond_site_symmetry_2
N1 N6 1_555 1_555
N2 N8 1_555 1_555
N3 N7 1_555 1_555
N4 N5 1_555 1_555
N5 C19 1_555 1_555
N6 C14 1_555 1_555
C1 C2 1_555 1_555
C2 H1 1_555 1_555
C3 B1 1_555 1_555
C4 H2 1_555 1_555
C5 C2 1_555 1_555
N7 C24 1_555 1_555
C6 N4 1_555 1_555
H3 C6 1_555 1_555
N8 C13 1_555 1_555
B1 N1 1_555 1_555
C7 C10 1_555 1_555
C8 N1 1_555 1_555
H4 C8 1_555 1_555
C9 C1 1_555 1_555
H5 C9 1_555 1_555
C10 H6 1_555 1_555
H7 C10 1_555 1_555
H8 C10 1_555 1_555
C11 N3 1_555 1_555
H9 C11 1_555 1_555
C12 C7 1_555 1_555
H10 C12 1_555 1_555
H11 C12 1_555 1_555
H12 C12 1_555 1_555
B2 N2 1_555 1_555
C13 H13 1_555 1_555
C14 H14 1_555 1_555
C15 C3 1_555 1_555
H15 C15 1_555 1_555
H16 C15 1_555 1_555
H17 C15 1_555 1_555
C16 N2 1_555 1_555
H18 C16 1_555 1_555
C17 C13 1_555 1_555
H19 C17 1_555 1_555
C18 C3 1_555 1_555
H20 C18 1_555 1_555
H21 C18 1_555 1_555
H22 C18 1_555 1_555
C19 H23 1_555 1_555
C20 C3 1_555 1_555
H24 C20 1_555 1_555
H25 C20 1_555 1_555
H26 C20 1_555 1_555
C21 C8 1_555 1_555
H27 C21 1_555 1_555
C22 C4 1_555 1_555
H28 C22 1_555 1_555
N9 C28 1_555 1_555
C23 C7 1_555 1_555
H29 C23 1_555 1_555
H30 C23 1_555 1_555
H31 C23 1_555 1_555
C24 H32 1_555 1_555
C25 C6 1_555 1_555
H33 C25 1_555 1_555
C26 H34 1_555 1_555
H35 C26 1_555 1_555
H36 C26 1_555 1_555
C27 C11 1_555 1_555
H37 C27 1_555 1_555
C28 C26 1_555 1_555
Li1 N5 1_555 1_555
Li2 N7 1_555 1_555
N10 Li1 1_555 1_555
N11 N10 1_555 1_555
H38 N11 1_555 1_555
C29 N10 1_555 1_555
H39 C29 1_555 1_555
C30 N11 1_555 1_555
H40 C30 1_555 1_555
C31 C29 1_555 1_555
H41 C31 1_555 1_555
N12 Li1 1_555 1_555
C32 N12 1_555 1_555
C33 C32 1_555 1_555
H42 C33 1_555 1_555
H43 C33 1_555 1_555
H44 C33 1_555 1_555
C34 N13 1_555 1_555
N13 Li2 1_555 1_555
C35 C34 1_555 1_555
H45 C35 1_555 1_555
H46 C35 1_555 1_555
H47 C35 1_555 1_555
N14 C36 1_555 1_555
C36 C37 1_555 1_555
C37 H48 1_555 1_555
H49 C37 1_555 1_555
H50 C37 1_555 1_555
N3 B2 1_555 1_555
N4 B1 1_555 1_555
N6 Li1 1_555 1_555
C1 B1 1_555 1_555
C4 C5 1_555 1_555
C5 B2 1_555 1_555
N8 Li2 1_555 1_555
C7 B2 1_555 1_555
C9 C22 1_555 1_555
C14 C21 1_555 1_555
C16 C17 1_555 1_555
C19 C25 1_555 1_555
N9 Li2 1_555 1_555
C24 C27 1_555 1_555
C30 C31 1_555 1_555

#END
