
#######################################################################
#
#                 Cambridge Crystallographic Data Centre
#                                CCDC 
#
#######################################################################
#
# If this CIF has been generated from an entry in the Cambridge 
# Structural Database, then it will include bibliographic, chemical, 
# crystal, experimental, refinement or atomic coordinate data resulting 
# from the CCDC's data processing and validation procedures.
#
#######################################################################

data_YOGRET
_chemical_formula_moiety         'C27 H20 N1 O1 P1'
_chemical_name_systematic        1-(Diphenylphosphoryl)-3-phenylisoquinoline
_symmetry_cell_setting           triclinic
_symmetry_space_group_name_H-M   'P -1'
_symmetry_Int_Tables_number      2
_space_group_name_Hall           '-P 1'
loop_
_symmetry_equiv_pos_site_id
_symmetry_equiv_pos_as_xyz
1 x,y,z
2 -x,-y,-z
_cell_length_a                   9.303(5)
_cell_length_b                   14.555(7)
_cell_length_c                   16.060(8)
_cell_angle_alpha                86.378(6)
_cell_angle_beta                 76.236(6)
_cell_angle_gamma                85.943(7)
_cell_volume                     2104.46
_exptl_crystal_colour            colorless
_exptl_crystal_description       block
_cell_formula_units_Z            4
loop_
_atom_site_label
_atom_site_type_symbol
_atom_site_fract_x
_atom_site_fract_y
_atom_site_fract_z
P1 P 0.44849(9) 0.76753(6) 0.06624(6)
O1 O 0.5640(3) 0.78542(17) -0.01283(14)
N1 N 0.2582(3) 0.64767(17) 0.14173(17)
C1 C 0.3517(3) 0.6625(2) 0.0677(2)
C2 C 0.3678(4) 0.6065(2) -0.0041(2)
C3 C 0.4739(4) 0.6165(2) -0.0817(2)
H1 H 0.5420 0.6618 -0.0887
C4 C 0.4784(5) 0.5604(3) -0.1473(2)
H2 H 0.5500 0.5671 -0.1984
C5 C 0.3753(6) 0.4928(3) -0.1379(3)
H3 H 0.3775 0.4557 -0.1833
C6 C 0.2726(5) 0.4808(3) -0.0637(3)
H4 H 0.2052 0.4354 -0.0587
C7 C 0.2659(4) 0.5359(2) 0.0063(2)
C8 C 0.1651(4) 0.5231(2) 0.0862(2)
H5 H 0.0968 0.4779 0.0935
C9 C 0.1664(3) 0.5765(2) 0.1534(2)
C10 C 0.0725(3) 0.5620(2) 0.2410(2)
C11 C 0.0512(4) 0.6297(2) 0.2986(2)
H6 H 0.0933 0.6860 0.2818
C12 C -0.0323(4) 0.6157(3) 0.3818(3)
H7 H -0.0472 0.6625 0.4203
C13 C -0.0924(5) 0.5324(4) 0.4067(3)
H8 H -0.1480 0.5225 0.4625
C14 C -0.0719(5) 0.4644(3) 0.3508(3)
H9 H -0.1130 0.4079 0.3683
C15 C 0.0104(4) 0.4784(3) 0.2672(3)
H10 H 0.0237 0.4316 0.2289
C16 C 0.5251(4) 0.7579(2) 0.1594(2)
C17 C 0.6779(4) 0.7511(2) 0.1454(3)
H11 H 0.7365 0.7540 0.0898
C18 C 0.7431(5) 0.7400(3) 0.2144(3)
H12 H 0.8458 0.7344 0.2050
C19 C 0.6576(6) 0.7371(3) 0.2970(3)
H13 H 0.7019 0.7294 0.3433
C20 C 0.5073(5) 0.7455(3) 0.3102(3)
H14 H 0.4494 0.7441 0.3661
C21 C 0.4396(4) 0.7561(3) 0.2429(2)
H15 H 0.3367 0.7620 0.2531
C22 C 0.3040(3) 0.8584(2) 0.0834(2)
C23 C 0.1583(4) 0.8474(2) 0.0862(3)
H16 H 0.1267 0.7888 0.0828
C24 C 0.0573(5) 0.9225(3) 0.0942(3)
H17 H -0.0418 0.9142 0.0964
C25 C 0.1017(5) 1.0078(3) 0.0987(3)
H18 H 0.0332 1.0581 0.1048
C26 C 0.2461(5) 1.0201(3) 0.0945(4)
H19 H 0.2776 1.0790 0.0966
C27 C 0.3462(5) 0.9447(3) 0.0870(3)
H20 H 0.4452 0.9535 0.0842
P2 P 0.35638(10) 0.17294(6) 0.43449(6)
N2 N 0.1376(3) 0.18661(17) 0.35829(17)
O2 O 0.4008(3) 0.13489(19) 0.51299(15)
C28 C 0.1623(4) 0.1615(2) 0.4341(2)
C29 C 0.0495(4) 0.1310(2) 0.5052(2)
C30 C 0.0720(4) 0.1059(3) 0.5875(2)
H21 H 0.1649 0.1096 0.5987
C31 C -0.0444(5) 0.0759(3) 0.6511(3)
H22 H -0.0297 0.0588 0.7054
C32 C -0.1845(5) 0.0708(3) 0.6347(3)
H23 H -0.2621 0.0507 0.6786
C33 C -0.2093(4) 0.0942(3) 0.5573(3)
H24 H -0.3032 0.0896 0.5478
C34 C -0.0935(4) 0.1261(2) 0.4898(2)
C35 C -0.1144(4) 0.1527(2) 0.4089(2)
H25 H -0.2076 0.1489 0.3980
C36 C -0.0008(3) 0.1844(2) 0.3443(2)
C37 C -0.0175(3) 0.2176(2) 0.2583(2)
C38 C 0.1054(4) 0.2342(2) 0.1934(2)
H26 H 0.1991 0.2227 0.2043
C39 C 0.0937(4) 0.2671(2) 0.1130(2)
H27 H 0.1789 0.2774 0.0704
C40 C -0.0410(4) 0.2845(3) 0.0957(3)
H28 H -0.0494 0.3067 0.0414
C41 C -0.1648(5) 0.2688(3) 0.1593(3)
H29 H -0.2580 0.2809 0.1479
C42 C -0.1539(4) 0.2353(3) 0.2400(3)
H30 H -0.2394 0.2246 0.2823
C43 C 0.4639(3) 0.1194(2) 0.3399(2)
C44 C 0.4695(3) 0.1559(2) 0.2573(2)
H31 H 0.4181 0.2116 0.2492
C45 C 0.5502(4) 0.1107(3) 0.1878(2)
H32 H 0.5525 0.1350 0.1326
C46 C 0.6279(4) 0.0292(3) 0.1999(3)
H33 H 0.6821 -0.0018 0.1525
C47 C 0.6263(5) -0.0067(3) 0.2802(3)
H34 H 0.6812 -0.0613 0.2875
C48 C 0.5438(4) 0.0373(2) 0.3507(2)
H35 H 0.5416 0.0120 0.4056
C49 C 0.3853(4) 0.2944(2) 0.41649(19)
C50 C 0.2983(4) 0.3593(2) 0.3829(2)
H36 H 0.2131 0.3420 0.3687
C51 C 0.3355(5) 0.4503(3) 0.3697(2)
H37 H 0.2749 0.4937 0.3472
C52 C 0.4591(6) 0.4765(3) 0.3893(3)
H38 H 0.4854 0.5374 0.3790
C53 C 0.5456(5) 0.4127(4) 0.4245(4)
H39 H 0.6299 0.4308 0.4392
C54 C 0.5092(4) 0.3221(3) 0.4383(3)
H40 H 0.5686 0.2795 0.4624
loop_
_geom_bond_atom_site_label_1
_geom_bond_atom_site_label_2
_geom_bond_site_symmetry_1
_geom_bond_site_symmetry_2
P1 O1 1_555 1_555
N1 C1 1_555 1_555
C1 P1 1_555 1_555
C2 C1 1_555 1_555
C3 C2 1_555 1_555
H1 C3 1_555 1_555
C4 C3 1_555 1_555
H2 C4 1_555 1_555
C5 C4 1_555 1_555
H3 C5 1_555 1_555
C6 C5 1_555 1_555
H4 C6 1_555 1_555
C7 C2 1_555 1_555
C8 C7 1_555 1_555
H5 C8 1_555 1_555
C9 N1 1_555 1_555
C10 C9 1_555 1_555
C11 C10 1_555 1_555
H6 C11 1_555 1_555
C12 C11 1_555 1_555
H7 C12 1_555 1_555
C13 C12 1_555 1_555
H8 C13 1_555 1_555
C14 C13 1_555 1_555
H9 C14 1_555 1_555
C15 C10 1_555 1_555
H10 C15 1_555 1_555
C16 P1 1_555 1_555
C17 C16 1_555 1_555
H11 C17 1_555 1_555
C18 C17 1_555 1_555
H12 C18 1_555 1_555
C19 C18 1_555 1_555
H13 C19 1_555 1_555
C20 C19 1_555 1_555
H14 C20 1_555 1_555
C21 C16 1_555 1_555
H15 C21 1_555 1_555
C22 P1 1_555 1_555
C23 C22 1_555 1_555
H16 C23 1_555 1_555
C24 C23 1_555 1_555
H17 C24 1_555 1_555
C25 C24 1_555 1_555
H18 C25 1_555 1_555
C26 C25 1_555 1_555
H19 C26 1_555 1_555
C27 C22 1_555 1_555
H20 C27 1_555 1_555
P2 O2 1_555 1_555
N2 C28 1_555 1_555
C28 P2 1_555 1_555
C29 C28 1_555 1_555
C30 C29 1_555 1_555
H21 C30 1_555 1_555
C31 C30 1_555 1_555
H22 C31 1_555 1_555
C32 C31 1_555 1_555
H23 C32 1_555 1_555
C33 C32 1_555 1_555
H24 C33 1_555 1_555
C34 C29 1_555 1_555
C35 C34 1_555 1_555
H25 C35 1_555 1_555
C36 N2 1_555 1_555
C37 C36 1_555 1_555
C38 C37 1_555 1_555
H26 C38 1_555 1_555
C39 C38 1_555 1_555
H27 C39 1_555 1_555
C40 C39 1_555 1_555
H28 C40 1_555 1_555
C41 C40 1_555 1_555
H29 C41 1_555 1_555
C42 C37 1_555 1_555
H30 C42 1_555 1_555
C43 P2 1_555 1_555
C44 C43 1_555 1_555
H31 C44 1_555 1_555
C45 C44 1_555 1_555
H32 C45 1_555 1_555
C46 C45 1_555 1_555
H33 C46 1_555 1_555
C47 C46 1_555 1_555
H34 C47 1_555 1_555
C48 C43 1_555 1_555
H35 C48 1_555 1_555
C49 P2 1_555 1_555
C50 C49 1_555 1_555
H36 C50 1_555 1_555
C51 C50 1_555 1_555
H37 C51 1_555 1_555
C52 C51 1_555 1_555
H38 C52 1_555 1_555
C53 C52 1_555 1_555
H39 C53 1_555 1_555
C54 C49 1_555 1_555
H40 C54 1_555 1_555
C6 C7 1_555 1_555
C8 C9 1_555 1_555
C14 C15 1_555 1_555
C20 C21 1_555 1_555
C26 C27 1_555 1_555
C33 C34 1_555 1_555
C35 C36 1_555 1_555
C41 C42 1_555 1_555
C47 C48 1_555 1_555
C53 C54 1_555 1_555

#END
