
#######################################################################
#
#                 Cambridge Crystallographic Data Centre
#                                CCDC 
#
#######################################################################
#
# If this CIF has been generated from an entry in the Cambridge 
# Structural Database, then it will include bibliographic, chemical, 
# crystal, experimental, refinement or atomic coordinate data resulting 
# from the CCDC's data processing and validation procedures.
#
#######################################################################

data_YOGWOI
_chemical_compound_source        
'Isolated from the cultures of endophytic fungus Guignardia sp. KcF8 derived of a mangrove plant Kandelia candel'
_chemical_name_common            'palmarumycin C1'
_chemical_formula_moiety         'C20 H11 Cl1 O4'
_chemical_name_systematic        
3-chloro-5-hydroxy-4H-spiro[naphthalene-1,2'-naphtho[1,8-de][1,3]dioxin]-4-one
_chemical_properties_biological  
'Cytotoxicity against 10 human tumor cell lines'
_symmetry_cell_setting           triclinic
_symmetry_space_group_name_H-M   'P -1'
_symmetry_Int_Tables_number      2
_space_group_name_Hall           '-P 1'
loop_
_symmetry_equiv_pos_site_id
_symmetry_equiv_pos_as_xyz
1 x,y,z
2 -x,-y,-z
_cell_length_a                   5.0690(2)
_cell_length_b                   11.7367(6)
_cell_length_c                   13.0641(8)
_cell_angle_alpha                76.308(5)
_cell_angle_beta                 86.608(4)
_cell_angle_gamma                86.969(4)
_cell_volume                     753.211
_exptl_crystal_colour            yellow
_exptl_crystal_description       block
_cell_formula_units_Z            2
loop_
_atom_site_label
_atom_site_type_symbol
_atom_site_fract_x
_atom_site_fract_y
_atom_site_fract_z
Cl1 Cl 0.32552(7) 0.84663(3) 0.07105(3)
C1 C 0.6752(3) 0.73207(14) 0.21428(13)
C2 C 0.5515(3) 0.84729(14) 0.16499(12)
C3 C 0.6069(3) 0.94572(13) 0.19059(12)
H1 H 0.5179 1.0166 0.1566
C4 C 0.8039(3) 0.95050(13) 0.27071(12)
C5 C 0.9330(3) 0.83375(13) 0.32185(12)
C6 C 1.1188(3) 0.82990(14) 0.39583(12)
H2 H 1.1630 0.8999 0.4143
C7 C 1.2415(3) 0.72249(15) 0.44352(13)
H3 H 1.3706 0.7201 0.4939
C8 C 1.1779(3) 0.62013(15) 0.41841(13)
H4 H 1.2621 0.5477 0.4517
C9 C 0.9905(3) 0.62278(14) 0.34447(13)
C10 C 0.8660(3) 0.72995(13) 0.29426(12)
C11 C 0.5838(3) 1.11204(13) 0.32456(12)
C12 C 0.3775(3) 1.15308(14) 0.37925(12)
H5 H 0.2920 1.1026 0.4381
C13 C 0.2934(3) 1.27242(14) 0.34654(13)
H6 H 0.1507 1.3019 0.3846
C14 C 0.4122(3) 1.34623(14) 0.26160(13)
H7 H 0.3499 1.4257 0.2408
C15 C 0.6280(3) 1.30503(13) 0.20417(12)
C16 C 0.7631(3) 1.37571(14) 0.11554(13)
H8 H 0.7073 1.4555 0.0905
C17 C 0.9734(3) 1.32970(15) 0.06589(13)
H9 H 1.0628 1.3789 0.0073
C18 C 1.0612(3) 1.21124(14) 0.09925(13)
H10 H 1.2075 1.1807 0.0638
C19 C 0.9307(3) 1.14144(13) 0.18371(12)
C20 C 0.7146(3) 1.18586(13) 0.23744(12)
O1 O 0.6182(3) 0.64282(10) 0.18711(10)
O2 O 0.9332(3) 0.51967(10) 0.32354(11)
H11 H 0.833(5) 0.534(2) 0.2772(19)
O3 O 0.6750(2) 0.99563(9) 0.35498(8)
O4 O 1.01224(19) 1.02500(9) 0.22027(8)
loop_
_geom_bond_atom_site_label_1
_geom_bond_atom_site_label_2
_geom_bond_site_symmetry_1
_geom_bond_site_symmetry_2
Cl1 C2 1_555 1_555
C1 C2 1_555 1_555
C2 C3 1_555 1_555
C3 H1 1_555 1_555
C4 C3 1_555 1_555
C5 C4 1_555 1_555
C6 C5 1_555 1_555
H2 C6 1_555 1_555
C7 C6 1_555 1_555
H3 C7 1_555 1_555
C8 C7 1_555 1_555
H4 C8 1_555 1_555
C9 C8 1_555 1_555
C10 C1 1_555 1_555
C11 C12 1_555 1_555
C12 H5 1_555 1_555
C13 C12 1_555 1_555
H6 C13 1_555 1_555
C14 C13 1_555 1_555
H7 C14 1_555 1_555
C15 C14 1_555 1_555
C16 C15 1_555 1_555
H8 C16 1_555 1_555
C17 C16 1_555 1_555
H9 C17 1_555 1_555
C18 C17 1_555 1_555
H10 C18 1_555 1_555
C19 C18 1_555 1_555
C20 C11 1_555 1_555
O1 C1 1_555 1_555
O2 C9 1_555 1_555
H11 O2 1_555 1_555
O3 C4 1_555 1_555
O4 C4 1_555 1_555
C5 C10 1_555 1_555
C9 C10 1_555 1_555
C11 O3 1_555 1_555
C15 C20 1_555 1_555
C19 C20 1_555 1_555
C19 O4 1_555 1_555

#END
