
#######################################################################
#
#                 Cambridge Crystallographic Data Centre
#                                CCDC 
#
#######################################################################
#
# If this CIF has been generated from an entry in the Cambridge 
# Structural Database, then it will include bibliographic, chemical, 
# crystal, experimental, refinement or atomic coordinate data resulting 
# from the CCDC's data processing and validation procedures.
#
#######################################################################

data_YOGXAT
_chemical_compound_source        'Aerial parts of Pterocaulon virgatum'
_chemical_formula_moiety         'C15 H14 O5'
_chemical_name_systematic        
5-(3-Methyl-2-butenyloxy)-6,7-methylenedioxycoumarin
_chemical_properties_biological  
'Argentinian traditional medicinal agent used as a digestive, an insecticide, an emmenagogue and as a snakebite remedy'
_symmetry_cell_setting           monoclinic
_symmetry_space_group_name_H-M   'P 21/n'
_symmetry_Int_Tables_number      14
_space_group_name_Hall           '-P 2yn'
loop_
_symmetry_equiv_pos_site_id
_symmetry_equiv_pos_as_xyz
1 x,y,z
2 1/2-x,1/2+y,1/2-z
3 -x,-y,-z
4 1/2+x,1/2-y,1/2+z
_cell_length_a                   9.130
_cell_length_b                   7.826
_cell_length_c                   18.967
_cell_angle_alpha                90
_cell_angle_beta                 103.79
_cell_angle_gamma                90
_cell_volume                     1316.16
_exptl_crystal_colour            colorless
_chemical_melting_point          128-129deg.C
_cell_formula_units_Z            4
loop_
_atom_site_label
_atom_site_type_symbol
_atom_site_fract_x
_atom_site_fract_y
_atom_site_fract_z
O1 O 0.3763(1) 0.1778(2) 0.4871(1)
C1 C 0.2403(2) 0.1820(3) 0.4369(1)
C2 C 0.1438(2) 0.3276(3) 0.4393(1)
C3 C 0.1869(2) 0.4515(2) 0.4884(1)
C4 C 0.3276(2) 0.4439(2) 0.5408(1)
C5 C 0.3762(2) 0.5730(2) 0.5943(1)
C6 C 0.5154(2) 0.5503(2) 0.6408(1)
C7 C 0.6037(2) 0.4091(2) 0.6359(1)
C8 C 0.5621(2) 0.2803(2) 0.5858(1)
C9 C 0.4204(2) 0.3031(2) 0.5385(1)
C10 C 0.7278(3) 0.5720(3) 0.7276(1)
O2 O 0.2129(2) 0.0658(2) 0.3942(1)
O3 O 0.5860(2) 0.6511(2) 0.6979(1)
O4 O 0.7338(2) 0.4164(2) 0.6887(1)
O5 O 0.2764(2) 0.7003(2) 0.5969(1)
C11 C 0.3390(3) 0.8702(3) 0.6122(2)
C12 C 0.2096(2) 0.9895(3) 0.6063(1)
C13 C 0.1997(2) 1.1117(2) 0.6530(1)
C14 C 0.0674(3) 1.2302(3) 0.6394(2)
C15 C 0.3173(4) 1.1492(4) 0.7214(2)
H1 H 0.0352(2) 0.3353(3) 0.4013(1)
H2 H 0.1138(2) 0.5601(2) 0.4880(1)
H3 H 0.6327(2) 0.1709(2) 0.5830(1)
H4 H 0.8176(3) 0.6559(3) 0.7211(1)
H5 H 0.7393(3) 0.5458(3) 0.7846(1)
H6 H 0.4105(3) 0.8742(2) 0.6665(2)
H7 H 0.4040(3) 0.9044(2) 0.5736(2)
H8 H 0.1158(2) 0.9753(3) 0.5597(1)
H9 H 0.0026(3) 1.1834(3) 0.5878(2)
H10 H 0.0296(36) 1.2305(49) 0.6765(19)
H11 H 0.0961(39) 1.3571(43) 0.6333(17)
H12 H 0.2697(4) 1.1451(4) 0.7684(2)
H13 H 0.3659(4) 1.2737(4) 0.7177(2)
H14 H 0.4022(36) 1.0809(50) 0.7237(17)
loop_
_geom_bond_atom_site_label_1
_geom_bond_atom_site_label_2
_geom_bond_site_symmetry_1
_geom_bond_site_symmetry_2
O1 C1 1_555 1_555
C1 C2 1_555 1_555
C2 C3 1_555 1_555
C3 C4 1_555 1_555
C4 C5 1_555 1_555
C5 C6 1_555 1_555
C6 C7 1_555 1_555
C7 C8 1_555 1_555
C8 C9 1_555 1_555
C9 O1 1_555 1_555
C10 O3 1_555 1_555
O2 C1 1_555 1_555
O3 C6 1_555 1_555
O4 C7 1_555 1_555
O5 C5 1_555 1_555
C11 O5 1_555 1_555
C12 C11 1_555 1_555
C13 C12 1_555 1_555
C14 C13 1_555 1_555
C15 C13 1_555 1_555
H1 C2 1_555 1_555
H2 C3 1_555 1_555
H3 C8 1_555 1_555
H4 C10 1_555 1_555
H5 C10 1_555 1_555
H6 C11 1_555 1_555
H7 C11 1_555 1_555
H8 C12 1_555 1_555
H9 C14 1_555 1_555
H10 C14 1_555 1_555
H11 C14 1_555 1_555
H12 C15 1_555 1_555
H13 C15 1_555 1_555
H14 C15 1_555 1_555
C4 C9 1_555 1_555
C10 O4 1_555 1_555

#END
