
#######################################################################
#
#                 Cambridge Crystallographic Data Centre
#                                CCDC 
#
#######################################################################
#
# If this CIF has been generated from an entry in the Cambridge 
# Structural Database, then it will include bibliographic, chemical, 
# crystal, experimental, refinement or atomic coordinate data resulting 
# from the CCDC's data processing and validation procedures.
#
#######################################################################

data_YOHCON02
_chemical_formula_moiety         'C9 H12 Se4'
_chemical_name_systematic        
2,3,7,8-Tetramethyl-1,4,6,9-tetraselenaspiro(5.5)nona-2,7-diene
_symmetry_cell_setting           monoclinic
_symmetry_space_group_name_H-M   'C 2/c'
_symmetry_Int_Tables_number      15
_space_group_name_Hall           '-C 2yn'
loop_
_symmetry_equiv_pos_site_id
_symmetry_equiv_pos_as_xyz
1 x,y,z
2 -x,y,1/2-z
3 1/2+x,1/2+y,z
4 1/2-x,1/2+y,1/2-z
5 -x,-y,-z
6 x,-y,1/2+z
7 1/2-x,1/2-y,-z
8 1/2+x,1/2-y,1/2+z
_cell_length_a                   10.042(2)
_cell_length_b                   10.335(3)
_cell_length_c                   12.164(4)
_cell_angle_alpha                90
_cell_angle_beta                 91.42(2)
_cell_angle_gamma                90
_cell_volume                     1262.04
_cell_formula_units_Z            4
loop_
_atom_site_label
_atom_site_type_symbol
_atom_site_fract_x
_atom_site_fract_y
_atom_site_fract_z
Se1 Se -0.1479(1) 0.3808(2) 0.1880(1)
Se2 Se 0.0637(2) 0.1669(2) 0.1310(1)
C1 C 0.0000 0.272(2) 0.2500
C2 C -0.108(1) 0.352(2) 0.038(1)
C3 C -0.020(1) 0.260(2) 0.014(1)
C4 C -0.186(2) 0.435(2) -0.041(2)
C5 C 0.024(2) 0.225(2) -0.099(2)
Se1A Se 0.1479(1) 0.3808(2) 0.3120(1)
Se2A Se -0.0637(2) 0.1669(2) 0.3690(1)
C2A C 0.108(1) 0.352(2) 0.462(1)
C3A C 0.020(1) 0.260(2) 0.486(1)
C4A C 0.186(2) 0.435(2) 0.541(2)
C5A C -0.024(2) 0.225(2) 0.599(2)
loop_
_geom_bond_atom_site_label_1
_geom_bond_atom_site_label_2
_geom_bond_site_symmetry_1
_geom_bond_site_symmetry_2
Se1 C1 1_555 1_555
Se2 C1 1_555 1_555
C1 Se1A 1_555 1_555
C2 Se1 1_555 1_555
C3 Se2 1_555 1_555
C4 C2 1_555 1_555
C5 C3 1_555 1_555
Se1A C2A 1_555 1_555
Se2A C1 1_555 1_555
C2A C3A 1_555 1_555
C3A Se2A 1_555 1_555
C4A C2A 1_555 1_555
C5A C3A 1_555 1_555
C2 C3 1_555 1_555

#END
