
#######################################################################
#
#                 Cambridge Crystallographic Data Centre
#                                CCDC 
#
#######################################################################
#
# If this CIF has been generated from an entry in the Cambridge 
# Structural Database, then it will include bibliographic, chemical, 
# crystal, experimental, refinement or atomic coordinate data resulting 
# from the CCDC's data processing and validation procedures.
#
#######################################################################

data_YOHCON01
_chemical_formula_moiety         'C9 H12 Se4'
_chemical_name_systematic        
2,3,7,8-Tetramethyl-1,4,6,9-tetraselenaspiro(5.5)nona-2,7-diene
_symmetry_cell_setting           triclinic
_symmetry_space_group_name_H-M   'P -1'
_symmetry_Int_Tables_number      2
_space_group_name_Hall           '-P 1'
loop_
_symmetry_equiv_pos_site_id
_symmetry_equiv_pos_as_xyz
1 x,y,z
2 -x,-y,-z
_cell_length_a                   7.058(2)
_cell_length_b                   7.156(3)
_cell_length_c                   12.156(4)
_cell_angle_alpha                82.41(2)
_cell_angle_beta                 89.78(2)
_cell_angle_gamma                89.87(2)
_cell_volume                     608.579
_cell_formula_units_Z            2
loop_
_atom_site_label
_atom_site_type_symbol
_atom_site_fract_x
_atom_site_fract_y
_atom_site_fract_z
Se1 Se 0.2305(2) 0.5474(2) 0.1838(1)
Se2 Se 0.5358(2) 0.2730(2) 0.3314(1)
Se3 Se 0.2315(2) 0.1107(2) 0.1682(1)
Se4 Se 0.0987(2) 0.2586(2) 0.3950(1)
C1 C 0.281(2) 0.297(2) 0.270(1)
C2 C 0.247(2) 0.470(2) 0.040(1)
C3 C 0.468(2) 0.249(2) 0.483(1)
C4 C 0.249(2) 0.282(2) 0.034(1)
C5 C 0.286(2) 0.247(2) 0.509(1)
C6 C 0.250(2) 0.624(2) -0.052(1)
C7 C 0.627(2) 0.241(2) 0.561(1)
C8 C 0.250(2) 0.190(2) -0.070(1)
C9 C 0.199(2) 0.224(2) 0.625(1)
loop_
_geom_bond_atom_site_label_1
_geom_bond_atom_site_label_2
_geom_bond_site_symmetry_1
_geom_bond_site_symmetry_2
Se1 C1 1_555 1_555
Se2 C1 1_555 1_555
Se3 C1 1_555 1_555
Se4 C1 1_555 1_555
C2 Se1 1_555 1_555
C3 Se2 1_555 1_555
C4 Se3 1_555 1_555
C5 Se4 1_555 1_555
C6 C2 1_555 1_555
C7 C3 1_555 1_555
C8 C4 1_555 1_555
C9 C5 1_555 1_555
C2 C4 1_555 1_555
C3 C5 1_555 1_555

#END
