
#######################################################################
#
#                 Cambridge Crystallographic Data Centre
#                                CCDC 
#
#######################################################################
#
# If this CIF has been generated from an entry in the Cambridge 
# Structural Database, then it will include bibliographic, chemical, 
# crystal, experimental, refinement or atomic coordinate data resulting 
# from the CCDC's data processing and validation procedures.
#
#######################################################################

data_YOHJOW
_chemical_formula_moiety         'C15 H14 Br1 N1 O1'
_chemical_name_systematic        N-(4-bromo-3-methylphenyl)-2-phenylacetamide
_symmetry_cell_setting           triclinic
_symmetry_space_group_name_H-M   'P -1'
_symmetry_Int_Tables_number      2
_space_group_name_Hall           '-P 1'
loop_
_symmetry_equiv_pos_site_id
_symmetry_equiv_pos_as_xyz
1 x,y,z
2 -x,-y,-z
_cell_length_a                   4.9995(3)
_cell_length_b                   10.8392(4)
_cell_length_c                   12.7301(7)
_cell_angle_alpha                108.149(4)
_cell_angle_beta                 91.968(5)
_cell_angle_gamma                90.310(4)
_cell_volume                     655.05
_exptl_crystal_colour            colorless
_exptl_crystal_description       plate
_cell_formula_units_Z            2
loop_
_atom_site_label
_atom_site_type_symbol
_atom_site_fract_x
_atom_site_fract_y
_atom_site_fract_z
C1 C 0.2977(5) 0.7638(2) 0.5510(2)
O1 O 0.0594(4) 0.7346(2) 0.53092(18)
N1 N 0.4932(4) 0.7035(2) 0.48448(19)
H1 H 0.6577 0.7332 0.5037
C2 C 0.3984(5) 0.8692(3) 0.6554(2)
H2 H 0.4635 0.8277 0.7104
H3 H 0.5519 0.9158 0.6370
C3 C 0.4584(5) 0.5970(2) 0.3866(2)
C4 C 0.6214(5) 0.5910(3) 0.2990(2)
H4 H 0.7472 0.6595 0.3066
C5 C 0.6073(5) 0.4886(3) 0.2008(2)
C6 C 0.4191(5) 0.3906(3) 0.1937(2)
Br1 Br 0.37906(7) 0.24603(3) 0.06240(2)
C7 C 0.2543(6) 0.3946(3) 0.2798(2)
H5 H 0.1284 0.3261 0.2723
C8 C 0.2720(5) 0.4974(3) 0.3765(2)
H6 H 0.1586 0.5003 0.4356
C9 C 0.7862(7) 0.4883(4) 0.1079(3)
H7 H 0.8685 0.4031 0.0793
H8 H 0.9266 0.5552 0.1356
H9 H 0.6801 0.5066 0.0485
C10 C 0.1876(5) 0.9661(3) 0.7065(2)
C11 C 0.0826(6) 0.9695(3) 0.8069(2)
H10 H 0.1438 0.9100 0.8432
C12 C -0.1117(6) 1.0592(3) 0.8550(2)
H11 H -0.1816 1.0606 0.9238
C13 C -0.2022(6) 1.1455(3) 0.8029(3)
H12 H -0.3340 1.2069 0.8357
C14 C -0.1001(6) 1.1423(3) 0.7023(3)
H13 H -0.1631 1.2013 0.6658
C15 C 0.0933(6) 1.0535(3) 0.6548(2)
H14 H 0.1624 1.0524 0.5860
loop_
_geom_bond_atom_site_label_1
_geom_bond_atom_site_label_2
_geom_bond_site_symmetry_1
_geom_bond_site_symmetry_2
C1 O1 1_555 1_555
N1 C1 1_555 1_555
H1 N1 1_555 1_555
C2 C1 1_555 1_555
H2 C2 1_555 1_555
H3 C2 1_555 1_555
C3 N1 1_555 1_555
C4 C3 1_555 1_555
H4 C4 1_555 1_555
C5 C4 1_555 1_555
C6 C5 1_555 1_555
Br1 C6 1_555 1_555
C7 C6 1_555 1_555
H5 C7 1_555 1_555
C8 C3 1_555 1_555
H6 C8 1_555 1_555
C9 C5 1_555 1_555
H7 C9 1_555 1_555
H8 C9 1_555 1_555
H9 C9 1_555 1_555
C10 C2 1_555 1_555
C11 C10 1_555 1_555
H10 C11 1_555 1_555
C12 C11 1_555 1_555
H11 C12 1_555 1_555
C13 C12 1_555 1_555
H12 C13 1_555 1_555
C14 C13 1_555 1_555
H13 C14 1_555 1_555
C15 C10 1_555 1_555
H14 C15 1_555 1_555
C7 C8 1_555 1_555
C14 C15 1_555 1_555

#END
