
#######################################################################
#
#                 Cambridge Crystallographic Data Centre
#                                CCDC 
#
#######################################################################
#
# If this CIF has been generated from an entry in the Cambridge 
# Structural Database, then it will include bibliographic, chemical, 
# crystal, experimental, refinement or atomic coordinate data resulting 
# from the CCDC's data processing and validation procedures.
#
#######################################################################

data_YOHXOK
_chemical_formula_moiety         'C144 H132,4.6(C2 H3 N1),2(C1 H2 Cl2)'
_chemical_name_systematic        
'2^5^,5^5^,7^5^,10^5^,12^5^,15^5^,17^5^,20^5^,21^5^,24^5^,25^5^,28^5^-Dodecapropyl-1,6,11,16(1,3,5)-2,5,7,10,12,15,17,20,21,24,25,28(1,3)-hexadecabenzenatricyclo[14.4.4.46,11]octacosa-3,8,13,18,22,26-hexayne acetonitrile dichloromethane solvate'
_symmetry_cell_setting           monoclinic
_symmetry_space_group_name_H-M   'P 21/c'
_symmetry_Int_Tables_number      14
_space_group_name_Hall           '-P 2ybc'
loop_
_symmetry_equiv_pos_site_id
_symmetry_equiv_pos_as_xyz
1 x,y,z
2 -x,1/2+y,1/2-z
3 -x,-y,-z
4 x,1/2-y,1/2+z
_cell_length_a                   16.4702(12)
_cell_length_b                   11.9661(8)
_cell_length_c                   34.019(2)
_cell_angle_alpha                90
_cell_angle_beta                 91.009(3)
_cell_angle_gamma                90
_cell_volume                     6703.56
_exptl_crystal_colour            colorless
_exptl_crystal_description       Acicular
_cell_formula_units_Z            2
_exptl_crystal_recrystallization_method acetonitrile/dichloromethane
loop_
_atom_site_label
_atom_site_type_symbol
_atom_site_fract_x
_atom_site_fract_y
_atom_site_fract_z
C1 C -0.1285(3) 1.0172(5) 0.63743(15)
C2 C -0.0779(3) 1.0272(5) 0.60516(16)
H1 H -0.0963 1.067 0.5825
C3 C -0.0010(3) 0.9797(5) 0.60574(16)
C4 C 0.0253(3) 0.9238(5) 0.63953(15)
H2 H 0.0785 0.8932 0.6404
C5 C -0.0243(3) 0.9114(5) 0.67218(15)
C6 C -0.1010(3) 0.9592(5) 0.67049(15)
H3 H -0.1355 0.9523 0.6924
C7 C 0.0520(3) 0.9868(5) 0.57042(14)
C8 C 0.0512(3) 1.0797(5) 0.54592(15)
H4 H 0.016 1.1403 0.5515
C9 C 0.1009(3) 1.0858(5) 0.51337(15)
C10 C 0.1529(3) 0.9960(5) 0.50568(15)
H5 H 0.1886 0.9997 0.4841
C11 C 0.1525(3) 0.9013(5) 0.52945(15)
C12 C 0.1025(3) 0.8963(5) 0.56161(15)
H6 H 0.1024 0.8316 0.5778
C13 C 0.1023(4) 1.1874(5) 0.48756(16)
H7 H 0.1058 1.1629 0.4598
H8 H 0.0503 1.228 0.4904
C14 C 0.1707(4) 1.2668(5) 0.49624(19)
H9 H 0.2227 1.226 0.4943
H10 H 0.1661 1.2937 0.5236
C15 C 0.1724(4) 1.3689(6) 0.4684(2)
H11 H 0.1733 1.3431 0.4411
H12 H 0.2212 1.4135 0.4741
H13 H 0.124 1.4148 0.4724
C16 C 0.2046(4) 0.8061(6) 0.52091(15)
C17 C 0.2466(4) 0.7262(5) 0.51462(16)
C18 C 0.2973(3) 0.6330(5) 0.50835(16)
C19 C 0.3407(3) 0.6214(5) 0.47402(15)
H14 H 0.3347 0.6765 0.4541
C20 C 0.3926(3) 0.5317(5) 0.46783(15)
C21 C 0.3993(3) 0.4507(5) 0.49733(15)
H15 H 0.4348 0.3892 0.4937
C22 C 0.3550(3) 0.4573(5) 0.53228(15)
C23 C 0.3041(3) 0.5485(5) 0.53748(16)
H16 H 0.2734 0.5543 0.5608
C24 C 0.4413(4) 0.5244(5) 0.43145(15)
H17 H 0.48 0.4616 0.4344
H18 H 0.4735 0.5938 0.429
C25 C 0.3926(4) 0.5077(6) 0.39367(16)
H19 H 0.3542 0.5707 0.3902
H20 H 0.3604 0.4382 0.3957
C26 C 0.4461(5) 0.5002(6) 0.35769(18)
H21 H 0.4803 0.567 0.3563
H22 H 0.4118 0.4952 0.3339
H23 H 0.4806 0.4336 0.3597
C27 C 0.3613(3) 0.3689(5) 0.56277(15)
C28 C 0.3822(3) 0.2607(5) 0.55299(15)
H24 H 0.393 0.2434 0.5263
C29 C 0.3879(3) 0.1754(5) 0.58128(15)
C30 C 0.3703(3) 0.2020(5) 0.62021(16)
H25 H 0.373 0.1452 0.6397
C31 C 0.3493(3) 0.3094(5) 0.63098(16)
C32 C 0.3454(3) 0.3930(5) 0.60239(16)
H26 H 0.332 0.4672 0.6098
C33 C 0.3287(4) 0.3391(5) 0.67243(15)
C34 C 0.3634(4) 0.2817(6) 0.70390(17)
H27 H 0.4006 0.223 0.6988
C35 C 0.3456(5) 0.3071(7) 0.74276(18)
C36 C 0.2906(4) 0.3929(6) 0.74945(17)
H28 H 0.2772 0.4112 0.7757
C37 C 0.2550(3) 0.4521(5) 0.71911(16)
C38 C 0.2752(3) 0.4249(5) 0.68006(16)
H29 H 0.2517 0.4661 0.6589
C39 C 0.3940(7) 0.2574(12) 0.7764(3)
H30 H 0.3638 0.2707 0.8008
H31 H 0.3964 0.1755 0.7724
C40 C 0.4763(7) 0.2974(14) 0.7826(4)
H32 H 0.5078 0.2847 0.7585
H33 H 0.5025 0.2544 0.8042
C41 C 0.4778(7) 0.4222(11) 0.7929(4)
H34 H 0.4404 0.4626 0.7753
H35 H 0.5329 0.4514 0.7898
H36 H 0.4611 0.4324 0.8202
C42 C 0.1985(4) 0.5415(6) 0.72588(15)
C43 C 0.1500(4) 0.6152(6) 0.73078(15)
C44 C 0.0906(3) 0.7018(5) 0.73606(16)
C45 C 0.0585(4) 0.7260(5) 0.77243(16)
H37 H 0.0766 0.6841 0.7946
C46 C 0.0018(4) 0.8078(6) 0.77755(16)
C47 C -0.0240(4) 0.8702(5) 0.74490(16)
H38 H -0.0618 0.9293 0.7483
C48 C 0.0051(3) 0.8471(5) 0.70679(15)
C49 C 0.0626(3) 0.7622(5) 0.70286(16)
H39 H 0.083 0.745 0.6776
C50 C -0.0320(4) 0.8319(6) 0.81812(17)
H40 H 0.0136 0.8356 0.8374
H41 H -0.059 0.9058 0.8177
C51 C -0.0921(5) 0.7446(7) 0.8314(2)
H42 H -0.1401 0.7463 0.8135
H43 H -0.0668 0.6699 0.8291
C52 C -0.1196(5) 0.7603(8) 0.8725(2)
H44 H -0.0723 0.7621 0.8904
H45 H -0.1552 0.6983 0.8797
H46 H -0.1494 0.8309 0.8745
C53 C -0.2123(3) 1.0675(5) 0.63503(15)
C54 C -0.2540(3) 1.0689(5) 0.59965(15)
H47 H -0.2301 1.0357 0.5773
C55 C -0.3313(3) 1.1183(5) 0.59571(15)
C56 C -0.3644(4) 1.1683(5) 0.62847(16)
H48 H -0.4163 1.2027 0.6264
C57 C -0.3225(4) 1.1688(5) 0.66448(17)
C58 C -0.2481(3) 1.1160(5) 0.66713(16)
H49 H -0.2206 1.1131 0.6919
C59 C -0.3558(5) 1.2298(8) 0.6997(2)
H50 H -0.3571 1.1788 0.7226
H51 H -0.412 1.255 0.6939
C60 C -0.2981(6) 1.3382(8) 0.7101(2)
H52 H -0.2416 1.3128 0.715
H53 H -0.2981 1.3898 0.6874
C61 C -0.3284(8) 1.3993(12) 0.7460(4)
H54 H -0.3878 1.4044 0.7446
H55 H -0.3051 1.4747 0.7468
H56 H -0.3118 1.3584 0.7698
C62 C -0.3702(3) 1.1118(5) 0.55784(19)
C63 C -0.3929(3) 1.1019(5) 0.52378(18)
C64 C -0.4135(3) 1.0772(5) 0.48427(16)
C65 C -0.3889(3) 0.9736(5) 0.46932(15)
H57 H -0.3569 0.9255 0.4855
C66 C -0.4099(3) 0.9397(5) 0.43183(15)
C67 C -0.4535(3) 1.0139(5) 0.40810(16)
H58 H -0.4675 0.9924 0.382
C68 C -0.4774(4) 1.1186(5) 0.42150(16)
C69 C -0.4585(3) 1.1486(5) 0.45954(16)
H59 H -0.4762 1.2188 0.4693
C70 C -0.5231(4) 1.1991(6) 0.39497(19)
H60 H -0.5159 1.2757 0.4055
H61 H -0.4986 1.1971 0.3686
C71 C -0.6118(5) 1.1760(6) 0.3906(2)
H62 H -0.6354 1.2281 0.3709
H63 H -0.6193 1.0991 0.3804
C72 C -0.6563(4) 1.1875(6) 0.42753(19)
H64 H -0.6365 1.1316 0.4465
H65 H -0.7144 1.176 0.4224
H66 H -0.6475 1.2625 0.4383
C1B C 0.1285(3) -0.0172(5) 0.36257(15)
C2B C 0.0779(3) -0.0272(5) 0.39484(16)
H1B H 0.0963 -0.067 0.4175
C3B C 0.0010(3) 0.0203(5) 0.39426(16)
C4B C -0.0253(3) 0.0762(5) 0.36047(15)
H2B H -0.0785 0.1068 0.3596
C5B C 0.0243(3) 0.0886(5) 0.32782(15)
C6B C 0.1010(3) 0.0408(5) 0.32951(15)
H3B H 0.1355 0.0477 0.3076
C7B C -0.0520(3) 0.0132(5) 0.42958(14)
C8B C -0.0512(3) -0.0797(5) 0.45408(15)
H4B H -0.016 -0.1403 0.4485
C9B C -0.1009(3) -0.0858(5) 0.48663(15)
C10B C -0.1529(3) 0.0040(5) 0.49432(15)
H5B H -0.1886 0.0003 0.5159
C11B C -0.1525(3) 0.0987(5) 0.47055(15)
C12B C -0.1025(3) 0.1037(5) 0.43839(15)
H6B H -0.1024 0.1684 0.4222
C13B C -0.1023(4) -0.1874(5) 0.51244(16)
H7B H -0.1058 -0.1629 0.5402
H8B H -0.0503 -0.228 0.5096
C14B C -0.1707(4) -0.2668(5) 0.50376(19)
H9B H -0.2227 -0.226 0.5057
H10B H -0.1661 -0.2937 0.4764
C15B C -0.1724(4) -0.3689(6) 0.5316(2)
H11B H -0.1733 -0.3431 0.5589
H12B H -0.2212 -0.4135 0.5259
H13B H -0.124 -0.4148 0.5276
C16B C -0.2046(4) 0.1939(6) 0.47909(15)
C17B C -0.2466(4) 0.2738(5) 0.48538(16)
C18B C -0.2973(3) 0.3670(5) 0.49165(16)
C19B C -0.3407(3) 0.3786(5) 0.52598(15)
H14B H -0.3347 0.3235 0.5459
C20B C -0.3926(3) 0.4683(5) 0.53217(15)
C21B C -0.3993(3) 0.5493(5) 0.50267(15)
H15B H -0.4348 0.6108 0.5063
C22B C -0.3550(3) 0.5427(5) 0.46772(15)
C23B C -0.3041(3) 0.4515(5) 0.46252(16)
H16B H -0.2734 0.4457 0.4392
C24B C -0.4413(4) 0.4756(5) 0.56855(15)
H17B H -0.48 0.5384 0.5656
H18B H -0.4735 0.4062 0.571
C25B C -0.3926(4) 0.4923(6) 0.60633(16)
H19B H -0.3542 0.4293 0.6098
H20B H -0.3604 0.5618 0.6043
C26B C -0.4461(5) 0.4998(6) 0.64231(18)
H21B H -0.4803 0.433 0.6437
H22B H -0.4118 0.5048 0.6661
H23B H -0.4806 0.5664 0.6403
C27B C -0.3613(3) 0.6311(5) 0.43723(15)
C28B C -0.3822(3) 0.7393(5) 0.44701(15)
H24B H -0.393 0.7566 0.4737
C29B C -0.3879(3) 0.8246(5) 0.41872(15)
C30B C -0.3703(3) 0.7980(5) 0.37979(16)
H25B H -0.373 0.8548 0.3603
C31B C -0.3493(3) 0.6906(5) 0.36902(16)
C32B C -0.3454(3) 0.6070(5) 0.39761(16)
H26B H -0.332 0.5328 0.3902
C33B C -0.3287(4) 0.6609(5) 0.32757(15)
C34B C -0.3634(4) 0.7183(6) 0.29610(17)
H27B H -0.4006 0.777 0.3012
C35B C -0.3456(5) 0.6929(7) 0.25724(18)
C36B C -0.2906(4) 0.6071(6) 0.25055(17)
H28B H -0.2772 0.5888 0.2243
C37B C -0.2550(3) 0.5479(5) 0.28089(16)
C38B C -0.2752(3) 0.5751(5) 0.31994(16)
H29B H -0.2517 0.5339 0.3411
C39B C -0.3940(7) 0.7426(12) 0.2236(3)
H30B H -0.3638 0.7293 0.1992
H31B H -0.3964 0.8245 0.2276
C40B C -0.4763(7) 0.7026(14) 0.2174(4)
H32B H -0.5078 0.7153 0.2415
H33B H -0.5025 0.7456 0.1958
C41B C -0.4778(7) 0.5778(11) 0.2071(4)
H34B H -0.4404 0.5374 0.2247
H35B H -0.5329 0.5486 0.2102
H36B H -0.4611 0.5676 0.1798
C42B C -0.1985(4) 0.4585(6) 0.27412(15)
C43B C -0.1500(4) 0.3848(6) 0.26922(15)
C44B C -0.0906(3) 0.2982(5) 0.26394(16)
C45B C -0.0585(4) 0.2740(5) 0.22757(16)
H37B H -0.0766 0.3159 0.2054
C46B C -0.0018(4) 0.1922(6) 0.22245(16)
C47B C 0.0240(4) 0.1298(5) 0.25510(16)
H38B H 0.0618 0.0707 0.2517
C48B C -0.0051(3) 0.1529(5) 0.29321(15)
C49B C -0.0626(3) 0.2378(5) 0.29714(16)
H39B H -0.083 0.255 0.3224
C50B C 0.0320(4) 0.1681(6) 0.18188(17)
H40B H -0.0136 0.1644 0.1626
H41B H 0.059 0.0942 0.1823
C51B C 0.0921(5) 0.2554(7) 0.1686(2)
H42B H 0.1401 0.2537 0.1865
H43B H 0.0668 0.3301 0.1709
C52B C 0.1196(5) 0.2397(8) 0.1275(2)
H44B H 0.0723 0.2379 0.1096
H45B H 0.1552 0.3017 0.1203
H46B H 0.1494 0.1691 0.1255
C53B C 0.2123(3) -0.0675(5) 0.36497(15)
C54B C 0.2540(3) -0.0689(5) 0.40035(15)
H47B H 0.2301 -0.0357 0.4227
C55B C 0.3313(3) -0.1183(5) 0.40429(15)
C56B C 0.3644(4) -0.1683(5) 0.37153(16)
H48B H 0.4163 -0.2027 0.3736
C57B C 0.3225(4) -0.1688(5) 0.33552(17)
C58B C 0.2481(3) -0.1160(5) 0.33287(16)
H49B H 0.2206 -0.1131 0.3081
C59B C 0.3558(5) -0.2298(8) 0.3003(2)
H50B H 0.3571 -0.1788 0.2774
H51B H 0.412 -0.255 0.3061
C60B C 0.2981(6) -0.3382(8) 0.2899(2)
H52B H 0.2416 -0.3128 0.285
H53B H 0.2981 -0.3898 0.3126
C61B C 0.3284(8) -0.3993(12) 0.2540(4)
H54B H 0.3878 -0.4044 0.2554
H55B H 0.3051 -0.4747 0.2532
H56B H 0.3118 -0.3584 0.2302
C62B C 0.3702(3) -0.1118(5) 0.44216(19)
C63B C 0.3929(3) -0.1019(5) 0.47622(18)
C64B C 0.4135(3) -0.0772(5) 0.51573(16)
C65B C 0.3889(3) 0.0264(5) 0.53068(15)
H57B H 0.3569 0.0745 0.5145
C66B C 0.4099(3) 0.0603(5) 0.56817(15)
C67B C 0.4535(3) -0.0139(5) 0.59190(16)
H58B H 0.4675 0.0076 0.618
C68B C 0.4774(4) -0.1186(5) 0.57850(16)
C69B C 0.4585(3) -0.1486(5) 0.54046(16)
H59B H 0.4762 -0.2188 0.5307
C70B C 0.5231(4) -0.1991(6) 0.60503(19)
H60B H 0.5159 -0.2757 0.5945
H61B H 0.4986 -0.1971 0.6314
C71B C 0.6118(5) -0.1760(6) 0.6094(2)
H62B H 0.6354 -0.2281 0.6291
H63B H 0.6193 -0.0991 0.6196
C72B C 0.6563(4) -0.1875(6) 0.57247(19)
H64B H 0.6365 -0.1316 0.5535
H65B H 0.7144 -0.176 0.5776
H66B H 0.6475 -0.2625 0.5617
C76 C 0.0765(6) 0.5543(9) 0.5478(3)
H74 H 0.0703 0.6208 0.5312
H75 H 0.0238 0.5171 0.5503
H76 H 0.1152 0.5028 0.5359
C77 C 0.1043(5) 0.5849(7) 0.5839(3)
N1 N 0.1288(6) 0.6108(7) 0.6134(3)
C78 C -0.1696(6) 1.3680(9) 0.6023(3)
H77 H -0.1464 1.3547 0.6287
H78 H -0.215 1.3165 0.5976
H79 H -0.1891 1.4452 0.6005
C79 C -0.1100(6) 1.3500(7) 0.5742(3)
N2 N -0.0619(5) 1.3381(6) 0.5520(3)
N3 N 0.2209(12) 0.1333(18) 0.8391(6)
C80 C 0.1781(14) 0.114(2) 0.8122(7)
C81 C 0.1233(15) 0.084(2) 0.7811(7)
H80 H 0.0708 0.1202 0.7851
H81 H 0.1158 0.0024 0.781
H82 H 0.1454 0.1074 0.7559
C82 C 0.2825(6) 0.8069(10) 0.6212(3)
H83 H 0.2308 0.7735 0.6117
H84 H 0.3146 0.8267 0.5978
Cl1 Cl 0.2612(2) 0.9287(3) 0.64729(12)
Cl2 Cl 0.3347(2) 0.7094(3) 0.64799(12)
C73? C 0.3731(13) 0.224(2) 0.7748(6)
H67? H 0.3451 0.2406 0.7996
H68? H 0.3592 0.1469 0.7667
C74? C 0.4637(13) 0.235(3) 0.7808(9)
H69? H 0.4916 0.2018 0.7581
H70? H 0.4806 0.193 0.8047
C75? C 0.489(2) 0.357(4) 0.7852(13)
H71? H 0.5248 0.3772 0.7638
H72? H 0.517 0.3672 0.8105
H73? H 0.4402 0.4042 0.7842
loop_
_geom_bond_atom_site_label_1
_geom_bond_atom_site_label_2
_geom_bond_site_symmetry_1
_geom_bond_site_symmetry_2
C1 C2 1_555 1_555
C2 H1 1_555 1_555
C3 C2 1_555 1_555
C4 C3 1_555 1_555
H2 C4 1_555 1_555
C5 C4 1_555 1_555
C6 C1 1_555 1_555
H3 C6 1_555 1_555
C7 C3 1_555 1_555
C8 C7 1_555 1_555
H4 C8 1_555 1_555
C9 C8 1_555 1_555
C10 C9 1_555 1_555
H5 C10 1_555 1_555
C11 C10 1_555 1_555
C12 C7 1_555 1_555
H6 C12 1_555 1_555
C13 C9 1_555 1_555
H7 C13 1_555 1_555
H8 C13 1_555 1_555
C14 C13 1_555 1_555
H9 C14 1_555 1_555
H10 C14 1_555 1_555
C15 C14 1_555 1_555
H11 C15 1_555 1_555
H12 C15 1_555 1_555
H13 C15 1_555 1_555
C16 C11 1_555 1_555
C17 C16 1_555 1_555
C18 C17 1_555 1_555
C19 C18 1_555 1_555
H14 C19 1_555 1_555
C20 C19 1_555 1_555
C21 C20 1_555 1_555
H15 C21 1_555 1_555
C22 C21 1_555 1_555
C23 C18 1_555 1_555
H16 C23 1_555 1_555
C24 C20 1_555 1_555
H17 C24 1_555 1_555
H18 C24 1_555 1_555
C25 C24 1_555 1_555
H19 C25 1_555 1_555
H20 C25 1_555 1_555
C26 C25 1_555 1_555
H21 C26 1_555 1_555
H22 C26 1_555 1_555
H23 C26 1_555 1_555
C27 C22 1_555 1_555
C28 C27 1_555 1_555
H24 C28 1_555 1_555
C29 C28 1_555 1_555
C30 C29 1_555 1_555
H25 C30 1_555 1_555
C31 C30 1_555 1_555
C32 C27 1_555 1_555
H26 C32 1_555 1_555
C33 C31 1_555 1_555
C34 C33 1_555 1_555
H27 C34 1_555 1_555
C35 C34 1_555 1_555
C36 C35 1_555 1_555
H28 C36 1_555 1_555
C37 C36 1_555 1_555
C38 C33 1_555 1_555
H29 C38 1_555 1_555
C39 C35 1_555 1_555
H30 C39 1_555 1_555
H31 C39 1_555 1_555
C40 C39 1_555 1_555
H32 C40 1_555 1_555
H33 C40 1_555 1_555
C41 C40 1_555 1_555
H34 C41 1_555 1_555
H35 C41 1_555 1_555
H36 C41 1_555 1_555
C42 C37 1_555 1_555
C43 C42 1_555 1_555
C44 C43 1_555 1_555
C45 C44 1_555 1_555
H37 C45 1_555 1_555
C46 C45 1_555 1_555
C47 C46 1_555 1_555
H38 C47 1_555 1_555
C48 C5 1_555 1_555
C49 C44 1_555 1_555
H39 C49 1_555 1_555
C50 C46 1_555 1_555
H40 C50 1_555 1_555
H41 C50 1_555 1_555
C51 C50 1_555 1_555
H42 C51 1_555 1_555
H43 C51 1_555 1_555
C52 C51 1_555 1_555
H44 C52 1_555 1_555
H45 C52 1_555 1_555
H46 C52 1_555 1_555
C53 C1 1_555 1_555
C54 C53 1_555 1_555
H47 C54 1_555 1_555
C55 C54 1_555 1_555
C56 C55 1_555 1_555
H48 C56 1_555 1_555
C57 C56 1_555 1_555
C58 C53 1_555 1_555
H49 C58 1_555 1_555
C59 C57 1_555 1_555
H50 C59 1_555 1_555
H51 C59 1_555 1_555
C60 C59 1_555 1_555
H52 C60 1_555 1_555
H53 C60 1_555 1_555
C61 C60 1_555 1_555
H54 C61 1_555 1_555
H55 C61 1_555 1_555
H56 C61 1_555 1_555
C62 C55 1_555 1_555
C63 C62 1_555 1_555
C64 C63 1_555 1_555
C65 C64 1_555 1_555
H57 C65 1_555 1_555
C66 C65 1_555 1_555
C67 C66 1_555 1_555
H58 C67 1_555 1_555
C68 C67 1_555 1_555
C69 C64 1_555 1_555
H59 C69 1_555 1_555
C70 C68 1_555 1_555
H60 C70 1_555 1_555
H61 C70 1_555 1_555
C71 C70 1_555 1_555
H62 C71 1_555 1_555
H63 C71 1_555 1_555
C72 C71 1_555 1_555
H64 C72 1_555 1_555
H65 C72 1_555 1_555
H66 C72 1_555 1_555
C76 H74 1_555 1_555
H75 C76 1_555 1_555
H76 C76 1_555 1_555
C77 C76 1_555 1_555
N1 C77 1_555 1_555
C78 H77 1_555 1_555
H78 C78 1_555 1_555
H79 C78 1_555 1_555
C79 C78 1_555 1_555
N2 C79 1_555 1_555
N3 C80 1_555 1_555
C80 C81 1_555 1_555
C81 H80 1_555 1_555
H81 C81 1_555 1_555
H82 C81 1_555 1_555
C82 H83 1_555 1_555
H84 C82 1_555 1_555
Cl1 C82 1_555 1_555
Cl2 C82 1_555 1_555
C1B C2B 1_555 1_555
C2B H1B 1_555 1_555
C3B C2B 1_555 1_555
C4B C3B 1_555 1_555
H2B C4B 1_555 1_555
C5B C4B 1_555 1_555
C6B C1B 1_555 1_555
H3B C6B 1_555 1_555
C7B C3B 1_555 1_555
C8B C7B 1_555 1_555
H4B C8B 1_555 1_555
C9B C8B 1_555 1_555
C10B C9B 1_555 1_555
H5B C10B 1_555 1_555
C11B C10B 1_555 1_555
C12B C7B 1_555 1_555
H6B C12B 1_555 1_555
C13B C9B 1_555 1_555
H7B C13B 1_555 1_555
H8B C13B 1_555 1_555
C14B C13B 1_555 1_555
H9B C14B 1_555 1_555
H10B C14B 1_555 1_555
C15B C14B 1_555 1_555
H11B C15B 1_555 1_555
H12B C15B 1_555 1_555
H13B C15B 1_555 1_555
C16B C11B 1_555 1_555
C17B C16B 1_555 1_555
C18B C17B 1_555 1_555
C19B C18B 1_555 1_555
H14B C19B 1_555 1_555
C20B C19B 1_555 1_555
C21B C20B 1_555 1_555
H15B C21B 1_555 1_555
C22B C21B 1_555 1_555
C23B C18B 1_555 1_555
H16B C23B 1_555 1_555
C24B C20B 1_555 1_555
H17B C24B 1_555 1_555
H18B C24B 1_555 1_555
C25B C24B 1_555 1_555
H19B C25B 1_555 1_555
H20B C25B 1_555 1_555
C26B C25B 1_555 1_555
H21B C26B 1_555 1_555
H22B C26B 1_555 1_555
H23B C26B 1_555 1_555
C27B C22B 1_555 1_555
C28B C27B 1_555 1_555
H24B C28B 1_555 1_555
C29B C66 1_555 1_555
C30B C29B 1_555 1_555
H25B C30B 1_555 1_555
C31B C30B 1_555 1_555
C32B C27B 1_555 1_555
H26B C32B 1_555 1_555
C33B C31B 1_555 1_555
C34B C33B 1_555 1_555
H27B C34B 1_555 1_555
C35B C34B 1_555 1_555
C36B C35B 1_555 1_555
H28B C36B 1_555 1_555
C37B C36B 1_555 1_555
C38B C33B 1_555 1_555
H29B C38B 1_555 1_555
C39B C35B 1_555 1_555
H30B C39B 1_555 1_555
H31B C39B 1_555 1_555
C40B C39B 1_555 1_555
H32B C40B 1_555 1_555
H33B C40B 1_555 1_555
C41B C40B 1_555 1_555
H34B C41B 1_555 1_555
H35B C41B 1_555 1_555
H36B C41B 1_555 1_555
C42B C37B 1_555 1_555
C43B C42B 1_555 1_555
C44B C43B 1_555 1_555
C45B C44B 1_555 1_555
H37B C45B 1_555 1_555
C46B C45B 1_555 1_555
C47B C46B 1_555 1_555
H38B C47B 1_555 1_555
C48B C5B 1_555 1_555
C49B C44B 1_555 1_555
H39B C49B 1_555 1_555
C50B C46B 1_555 1_555
H40B C50B 1_555 1_555
H41B C50B 1_555 1_555
C51B C50B 1_555 1_555
H42B C51B 1_555 1_555
H43B C51B 1_555 1_555
C52B C51B 1_555 1_555
H44B C52B 1_555 1_555
H45B C52B 1_555 1_555
H46B C52B 1_555 1_555
C53B C1B 1_555 1_555
C54B C53B 1_555 1_555
H47B C54B 1_555 1_555
C55B C54B 1_555 1_555
C56B C55B 1_555 1_555
H48B C56B 1_555 1_555
C57B C56B 1_555 1_555
C58B C53B 1_555 1_555
H49B C58B 1_555 1_555
C59B C57B 1_555 1_555
H50B C59B 1_555 1_555
H51B C59B 1_555 1_555
C60B C59B 1_555 1_555
H52B C60B 1_555 1_555
H53B C60B 1_555 1_555
C61B C60B 1_555 1_555
H54B C61B 1_555 1_555
H55B C61B 1_555 1_555
H56B C61B 1_555 1_555
C62B C55B 1_555 1_555
C63B C62B 1_555 1_555
C64B C63B 1_555 1_555
C65B C64B 1_555 1_555
H57B C65B 1_555 1_555
C66B C29 1_555 1_555
C67B C66B 1_555 1_555
H58B C67B 1_555 1_555
C68B C67B 1_555 1_555
C69B C64B 1_555 1_555
H59B C69B 1_555 1_555
C70B C68B 1_555 1_555
H60B C70B 1_555 1_555
H61B C70B 1_555 1_555
C71B C70B 1_555 1_555
H62B C71B 1_555 1_555
H63B C71B 1_555 1_555
C72B C71B 1_555 1_555
H64B C72B 1_555 1_555
H65B C72B 1_555 1_555
H66B C72B 1_555 1_555
C5 C6 1_555 1_555
C11 C12 1_555 1_555
C22 C23 1_555 1_555
C31 C32 1_555 1_555
C37 C38 1_555 1_555
C47 C48 1_555 1_555
C48 C49 1_555 1_555
C57 C58 1_555 1_555
C68 C69 1_555 1_555
C5B C6B 1_555 1_555
C11B C12B 1_555 1_555
C22B C23B 1_555 1_555
C28B C29B 1_555 1_555
C31B C32B 1_555 1_555
C37B C38B 1_555 1_555
C47B C48B 1_555 1_555
C48B C49B 1_555 1_555
C57B C58B 1_555 1_555
C65B C66B 1_555 1_555
C68B C69B 1_555 1_555

#END
