
#######################################################################
#
#                 Cambridge Crystallographic Data Centre
#                                CCDC 
#
#######################################################################
#
# If this CIF has been generated from an entry in the Cambridge 
# Structural Database, then it will include bibliographic, chemical, 
# crystal, experimental, refinement or atomic coordinate data resulting 
# from the CCDC's data processing and validation procedures.
#
#######################################################################

data_YOHXEZ
_chemical_formula_moiety         'C17 H20 N6 Si1'
_chemical_name_systematic        
((1-(4-(Dimethylamino)phenyl)-4-(trimethylsilyl)-1H-1,2,3-triazol-5-yl)methylidene)propanedinitrile
_symmetry_cell_setting           triclinic
_symmetry_space_group_name_H-M   'P -1'
_symmetry_Int_Tables_number      2
_space_group_name_Hall           '-P 1'
loop_
_symmetry_equiv_pos_site_id
_symmetry_equiv_pos_as_xyz
1 x,y,z
2 -x,-y,-z
_cell_length_a                   6.4659(3)
_cell_length_b                   8.7955(5)
_cell_length_c                   16.9971(8)
_cell_angle_alpha                83.094(3)
_cell_angle_beta                 79.232(3)
_cell_angle_gamma                79.611(2)
_cell_volume                     930.296
_exptl_crystal_colour            red-brown
_exptl_crystal_description       needle
_chemical_melting_point          '154-156 deg.C'
_cell_formula_units_Z            2
_exptl_crystal_recrystallization_method 'hexane/ethyl acetate'
loop_
_atom_site_label
_atom_site_type_symbol
_atom_site_fract_x
_atom_site_fract_y
_atom_site_fract_z
Si1 Si 0.70015(17) -0.09195(11) 0.15360(6)
N1 N 0.2948(4) 0.2005(3) 0.30084(14)
N2 N 0.3302(5) 0.0691(3) 0.34992(15)
N3 N 0.4574(5) -0.0356(3) 0.30599(16)
N4 N -0.1585(6) 0.3344(6) 0.2005(2)
N5 N 0.2305(6) 0.5779(4) 0.00974(18)
N6 N -0.1732(5) 0.7372(3) 0.43379(17)
C1 C 0.5120(5) 0.0277(3) 0.22884(19)
C2 C 0.4045(5) 0.1804(3) 0.22517(16)
C3 C 0.3960(5) 0.2958(3) 0.15646(17)
C4 C 0.2171(5) 0.3763(3) 0.13380(16)
C5 C 0.0090(6) 0.3531(4) 0.1722(2)
C6 C 0.2262(5) 0.4898(4) 0.06466(18)
C7 C 0.5846(11) -0.2659(6) 0.1459(5)
C8 C 0.9636(9) -0.1335(9) 0.1835(4)
C9 C 0.7199(11) 0.0198(7) 0.0538(3)
C10 C 0.1741(5) 0.3387(3) 0.33431(16)
C11 C -0.0288(5) 0.3378(3) 0.37644(18)
C12 C -0.1448(5) 0.4702(4) 0.40959(18)
C13 C -0.0572(5) 0.6075(3) 0.40068(16)
C14 C 0.1503(5) 0.6053(3) 0.35783(18)
C15 C 0.2668(5) 0.4720(3) 0.32558(16)
C16 C -0.3910(6) 0.7394(4) 0.4744(2)
C17 C -0.0842(7) 0.8791(4) 0.4267(2)
H1 H 0.5270 0.3191 0.1242
H2 H 0.6788 -0.3293 0.1076
H3 H 0.4487 -0.2351 0.1287
H4 H 0.5664 -0.3240 0.1976
H5 H 1.0625 -0.1951 0.1457
H6 H 0.9517 -0.1896 0.2358
H7 H 1.0139 -0.0380 0.1856
H8 H 0.8162 -0.0407 0.0148
H9 H 0.7728 0.1138 0.0569
H10 H 0.5817 0.0450 0.0381
H11 H -0.0897 0.2444 0.3825
H12 H -0.2869 0.4691 0.4388
H13 H 0.2132 0.6980 0.3501
H14 H 0.4102 0.4705 0.2972
H15 H -0.4468 0.8396 0.4934
H16 H -0.3949 0.6616 0.5192
H17 H -0.4759 0.7182 0.4376
H18 H -0.1868 0.9583 0.4529
H19 H -0.0467 0.9130 0.3708
H20 H 0.0412 0.8595 0.4514
loop_
_geom_bond_atom_site_label_1
_geom_bond_atom_site_label_2
_geom_bond_site_symmetry_1
_geom_bond_site_symmetry_2
Si1 C1 1_555 1_555
N1 N2 1_555 1_555
N2 N3 1_555 1_555
N3 C1 1_555 1_555
N4 C5 1_555 1_555
N5 C6 1_555 1_555
N6 C13 1_555 1_555
C1 C2 1_555 1_555
C2 N1 1_555 1_555
C3 C2 1_555 1_555
C4 C3 1_555 1_555
C5 C4 1_555 1_555
C6 C4 1_555 1_555
C7 Si1 1_555 1_555
C8 Si1 1_555 1_555
C9 Si1 1_555 1_555
C10 N1 1_555 1_555
C11 C10 1_555 1_555
C12 C11 1_555 1_555
C13 C12 1_555 1_555
C14 C13 1_555 1_555
C15 C10 1_555 1_555
C16 N6 1_555 1_555
C17 N6 1_555 1_555
H1 C3 1_555 1_555
H2 C7 1_555 1_555
H3 C7 1_555 1_555
H4 C7 1_555 1_555
H5 C8 1_555 1_555
H6 C8 1_555 1_555
H7 C8 1_555 1_555
H8 C9 1_555 1_555
H9 C9 1_555 1_555
H10 C9 1_555 1_555
H11 C11 1_555 1_555
H12 C12 1_555 1_555
H13 C14 1_555 1_555
H14 C15 1_555 1_555
H15 C16 1_555 1_555
H16 C16 1_555 1_555
H17 C16 1_555 1_555
H18 C17 1_555 1_555
H19 C17 1_555 1_555
H20 C17 1_555 1_555
C14 C15 1_555 1_555

#END
