
#######################################################################
#
#                 Cambridge Crystallographic Data Centre
#                                CCDC 
#
#######################################################################
#
# If this CIF has been generated from an entry in the Cambridge 
# Structural Database, then it will include bibliographic, chemical, 
# crystal, experimental, refinement or atomic coordinate data resulting 
# from the CCDC's data processing and validation procedures.
#
#######################################################################

data_YOHYIF
_chemical_formula_moiety         'C21 H22 F3 N1 O3 S1'
_chemical_name_systematic        
N-(1-(1-Allyl-5-(trifluoromethyl)-1,3-dihydro-2-benzofuran-1-yl)ethyl)-4-methylbenzenesulfonamide
_symmetry_cell_setting           triclinic
_symmetry_space_group_name_H-M   'P -1'
_symmetry_Int_Tables_number      2
_space_group_name_Hall           '-P 1'
loop_
_symmetry_equiv_pos_site_id
_symmetry_equiv_pos_as_xyz
1 x,y,z
2 -x,-y,-z
_cell_length_a                   7.7908(2)
_cell_length_b                   10.7006(2)
_cell_length_c                   13.1090(9)
_cell_angle_alpha                101.633(7)
_cell_angle_beta                 99.189(7)
_cell_angle_gamma                99.533(7)
_cell_volume                     1034.31
_exptl_crystal_colour            colorless
_exptl_crystal_description       prism
_cell_formula_units_Z            2
loop_
_atom_site_label
_atom_site_type_symbol
_atom_site_fract_x
_atom_site_fract_y
_atom_site_fract_z
S1 S 0.44423(7) 1.07079(5) 0.34985(4)
O1 O 0.7733(2) 0.75645(17) 0.28658(13)
O2 O 0.3617(3) 1.0564(2) 0.24150(14)
O3 O 0.3365(2) 1.03965(18) 0.42422(14)
N1 N 0.5866(3) 0.97800(19) 0.35184(15)
H1 H 0.627(4) 0.971(3) 0.4135(15)
C1 C 0.7854(3) 0.8157(2) 0.12613(18)
C2 C 0.7077(3) 0.9690(2) 0.27616(19)
H2 H 0.6727 1.0182 0.2236
C3 C 0.5591(3) 1.2339(2) 0.39932(19)
C4 C 0.8601(4) 0.8337(3) -0.0408(2)
H3 H 0.8428 0.8639 -0.1027
C5 C 0.9172(3) 0.7459(2) 0.14316(18)
C6 C 0.9899(4) 0.7612(2) -0.02345(19)
C7 C 0.7566(4) 0.8608(2) 0.03414(19)
H4 H 0.6689 0.9086 0.0230
C8 C 0.6874(3) 0.8255(2) 0.21661(18)
C9 C 0.7370(3) 1.4928(2) 0.4806(2)
C10 C 1.0189(4) 0.7158(3) 0.0682(2)
H5 H 1.1046 0.6662 0.0789
C11 C 0.6352(4) 1.2779(3) 0.5062(2)
H6 H 0.6272 1.2214 0.5515
C12 C 0.7226(4) 1.4056(3) 0.5453(2)
H7 H 0.7736 1.4342 0.6172
C13 C 0.5732(4) 1.3184(3) 0.3323(2)
H8 H 0.5237 1.2893 0.2602
C14 C 0.4907(3) 0.7571(2) 0.1800(2)
H9 H 0.4368 0.7589 0.2419
H10 H 0.4303 0.8055 0.1358
C15 C 1.0975(5) 0.7279(3) -0.1063(2)
F1 F 1.1657(16) 0.6204(8) -0.1003(7)
F2 F 1.2377(15) 0.8150(6) -0.0973(9)
F3 F 1.0083(12) 0.7026(18) -0.2030(4)
C16 C 0.4631(4) 0.6191(3) 0.1192(2)
H11 H 0.5054 0.6044 0.0563
C17 C 0.9193(4) 0.7120(3) 0.2486(2)
H12 H 0.9058 0.6186 0.2407
H13 H 1.0302 0.7549 0.2974
C18 C 0.6615(4) 1.4463(3) 0.3735(2)
H14 H 0.6706 1.5026 0.3282
C19 C 0.8972(4) 1.0309(3) 0.3326(3)
H15 H 0.9028 1.1193 0.3688
H16 H 0.9729 1.0297 0.2815
H17 H 0.9359 0.9827 0.3832
C20 C 0.8311(4) 1.6320(3) 0.5242(3)
H18 H 0.7499 1.6883 0.5119
H19 H 0.9287 1.6506 0.4895
H20 H 0.8751 1.6463 0.5992
C21 C 0.3855(5) 0.5185(3) 0.1466(3)
H21 H 0.3413 0.5289 0.2089
H22 H 0.3738 0.4356 0.1040
F4? F 1.069(2) 0.7910(18) -0.1840(12)
F5? F 1.060(3) 0.6105(8) -0.1501(17)
F6? F 1.2658(12) 0.769(3) -0.0705(10)
loop_
_geom_bond_atom_site_label_1
_geom_bond_atom_site_label_2
_geom_bond_site_symmetry_1
_geom_bond_site_symmetry_2
S1 O2 1_555 1_555
O1 C8 1_555 1_555
O3 S1 1_555 1_555
N1 S1 1_555 1_555
H1 N1 1_555 1_555
C1 C5 1_555 1_555
C2 N1 1_555 1_555
H2 C2 1_555 1_555
C3 S1 1_555 1_555
C4 H3 1_555 1_555
C5 C10 1_555 1_555
C6 C4 1_555 1_555
C7 C1 1_555 1_555
H4 C7 1_555 1_555
C8 C1 1_555 1_555
C9 C12 1_555 1_555
C10 C6 1_555 1_555
H5 C10 1_555 1_555
C11 C3 1_555 1_555
H6 C11 1_555 1_555
C12 C11 1_555 1_555
H7 C12 1_555 1_555
C13 C3 1_555 1_555
H8 C13 1_555 1_555
C14 C8 1_555 1_555
H9 C14 1_555 1_555
H10 C14 1_555 1_555
C15 C6 1_555 1_555
F1 C15 1_555 1_555
F2 C15 1_555 1_555
F3 C15 1_555 1_555
C16 C14 1_555 1_555
H11 C16 1_555 1_555
C17 O1 1_555 1_555
H12 C17 1_555 1_555
H13 C17 1_555 1_555
C18 C9 1_555 1_555
H14 C18 1_555 1_555
C19 C2 1_555 1_555
H15 C19 1_555 1_555
H16 C19 1_555 1_555
H17 C19 1_555 1_555
C20 C9 1_555 1_555
H18 C20 1_555 1_555
H19 C20 1_555 1_555
H20 C20 1_555 1_555
C21 C16 1_555 1_555
H21 C21 1_555 1_555
H22 C21 1_555 1_555
C2 C8 1_555 1_555
C4 C7 1_555 1_555
C5 C17 1_555 1_555
C13 C18 1_555 1_555

#END
