
#######################################################################
#
#                 Cambridge Crystallographic Data Centre
#                                CCDC 
#
#######################################################################
#
# If this CIF has been generated from an entry in the Cambridge 
# Structural Database, then it will include bibliographic, chemical, 
# crystal, experimental, refinement or atomic coordinate data resulting 
# from the CCDC's data processing and validation procedures.
#
#######################################################################

data_YOJBUV
_chemical_formula_moiety         'C18 F10 S2'
_chemical_name_systematic        
1,2,3,4,6,7,8,9,10,12-Decafluorobenzo[b][1]benzothieno[2,3-f][1]benzothiophene
_symmetry_cell_setting           triclinic
_symmetry_space_group_name_H-M   'P -1'
_symmetry_Int_Tables_number      2
_space_group_name_Hall           '-P 1'
loop_
_symmetry_equiv_pos_site_id
_symmetry_equiv_pos_as_xyz
1 x,y,z
2 -x,-y,-z
_cell_length_a                   7.6817(7)
_cell_length_b                   7.7026(7)
_cell_length_c                   13.0640(11)
_cell_angle_alpha                84.422(4)
_cell_angle_beta                 88.023(4)
_cell_angle_gamma                70.592(4)
_cell_volume                     725.607
_exptl_crystal_colour            yellow
_exptl_crystal_description       wedge
_chemical_melting_point          '279 deg.C'
_cell_formula_units_Z            2
_exptl_crystal_recrystallization_method toluene
loop_
_atom_site_label
_atom_site_type_symbol
_atom_site_fract_x
_atom_site_fract_y
_atom_site_fract_z
S1 S -0.15029(5) 0.28458(5) 0.35759(3)
F1 F -0.03247(13) 0.85827(13) 0.44111(7)
C1 C -0.2177(2) 0.4820(2) 0.27280(12)
F2 F -0.33680(14) 0.34774(14) 0.14940(7)
C2 C -0.3040(2) 0.4945(2) 0.17971(13)
F3 F -0.43761(15) 0.67382(15) 0.02901(7)
C3 C -0.3542(2) 0.6575(2) 0.11841(12)
F4 F -0.36586(15) 0.96672(14) 0.08931(7)
C4 C -0.3167(2) 0.8083(2) 0.14959(13)
F5 F -0.19874(14) 0.94723(13) 0.26655(7)
C5 C -0.2297(2) 0.7970(2) 0.24152(12)
C6 C -0.1785(2) 0.6335(2) 0.30562(12)
C7 C -0.0875(2) 0.5849(2) 0.40517(12)
C8 C -0.0652(2) 0.3997(2) 0.44057(12)
C9 C -0.0186(2) 0.6820(2) 0.46705(12)
S1A S 0.15029(5) 0.71542(5) 0.64241(3)
F1A F 0.03247(13) 0.14173(13) 0.55889(7)
C1A C 0.2177(2) 0.5180(2) 0.72720(12)
F2A F 0.33680(14) 0.65226(14) 0.85060(7)
C2A C 0.3040(2) 0.5055(2) 0.82029(13)
F3A F 0.43761(15) 0.32618(15) 0.97099(7)
C3A C 0.3542(2) 0.3425(2) 0.88159(12)
F4A F 0.36586(15) 0.03328(14) 0.91069(7)
C4A C 0.3167(2) 0.1917(2) 0.85041(13)
F5A F 0.19874(14) 0.05277(13) 0.73345(7)
C5A C 0.2297(2) 0.2030(2) 0.75848(12)
C6A C 0.1785(2) 0.3665(2) 0.69438(12)
C7A C 0.0875(2) 0.4151(2) 0.59483(12)
C8A C 0.0652(2) 0.6003(2) 0.55943(12)
C9A C 0.0186(2) 0.3180(2) 0.53295(12)
S2 S 0.37762(5) 0.35460(5) 0.34958(3)
F6 F 0.44384(13) -0.31050(13) 0.44710(7)
C10 C 0.2961(2) 0.2339(2) 0.26884(12)
F7 F 0.18357(14) 0.48598(13) 0.14424(7)
C11 C 0.2079(2) 0.3098(2) 0.17670(13)
F8 F 0.05254(14) 0.27826(14) 0.03191(7)
C12 C 0.1409(2) 0.2058(2) 0.11975(12)
F9 F 0.09851(14) -0.07706(14) 0.09945(7)
C13 C 0.1642(2) 0.0236(2) 0.15456(13)
F10 F 0.26795(14) -0.22824(14) 0.27551(7)
C14 C 0.2523(2) -0.0532(2) 0.24620(12)
C15 C 0.3209(2) 0.0495(2) 0.30558(12)
C16 C 0.4128(2) 0.0047(2) 0.40502(12)
C17 C 0.4482(2) 0.1600(2) 0.43653(12)
C18 C 0.4678(2) -0.1549(2) 0.47106(12)
S2A S 0.62238(5) -0.35460(5) 0.65042(3)
F6A F 0.55616(13) 0.31050(13) 0.55290(7)
C10A C 0.7039(2) -0.2339(2) 0.73116(12)
F7A F 0.81643(14) -0.48598(13) 0.85576(7)
C11A C 0.7921(2) -0.3098(2) 0.82330(13)
F8A F 0.94746(14) -0.27826(14) 0.96809(7)
C12A C 0.8591(2) -0.2058(2) 0.88025(12)
F9A F 0.90149(14) 0.07706(14) 0.90055(7)
C13A C 0.8358(2) -0.0236(2) 0.84544(13)
F10A F 0.73205(14) 0.22824(14) 0.72449(7)
C14A C 0.7477(2) 0.0532(2) 0.75380(12)
C15A C 0.6791(2) -0.0495(2) 0.69442(12)
C16A C 0.5872(2) -0.0047(2) 0.59498(12)
C17A C 0.5518(2) -0.1600(2) 0.56347(12)
C18A C 0.5322(2) 0.1549(2) 0.52894(12)
loop_
_geom_bond_atom_site_label_1
_geom_bond_atom_site_label_2
_geom_bond_site_symmetry_1
_geom_bond_site_symmetry_2
S1 C1 1_555 1_555
F1 C9 1_555 1_555
C1 C2 1_555 1_555
F2 C2 1_555 1_555
C2 C3 1_555 1_555
F3 C3 1_555 1_555
C3 C4 1_555 1_555
F4 C4 1_555 1_555
C4 C5 1_555 1_555
F5 C5 1_555 1_555
C5 C6 1_555 1_555
C6 C1 1_555 1_555
C7 C6 1_555 1_555
C8 S1 1_555 1_555
C9 C7 1_555 1_555
S2 C10 1_555 1_555
F6 C18 1_555 1_555
C10 C11 1_555 1_555
F7 C11 1_555 1_555
C11 C12 1_555 1_555
F8 C12 1_555 1_555
C12 C13 1_555 1_555
F9 C13 1_555 1_555
C13 C14 1_555 1_555
F10 C14 1_555 1_555
C14 C15 1_555 1_555
C15 C10 1_555 1_555
C16 C15 1_555 1_555
C17 S2 1_555 1_555
C18 C16 1_555 1_555
S1A C1A 1_555 1_555
F1A C9A 1_555 1_555
C1A C2A 1_555 1_555
F2A C2A 1_555 1_555
C2A C3A 1_555 1_555
F3A C3A 1_555 1_555
C3A C4A 1_555 1_555
F4A C4A 1_555 1_555
C4A C5A 1_555 1_555
F5A C5A 1_555 1_555
C5A C6A 1_555 1_555
C6A C1A 1_555 1_555
C7A C6A 1_555 1_555
C8A C9 1_555 1_555
C9A C8 1_555 1_555
S2A C10A 1_555 1_555
F6A C18A 1_555 1_555
C10A C11A 1_555 1_555
F7A C11A 1_555 1_555
C11A C12A 1_555 1_555
F8A C12A 1_555 1_555
C12A C13A 1_555 1_555
F9A C13A 1_555 1_555
C13A C14A 1_555 1_555
F10A C14A 1_555 1_555
C14A C15A 1_555 1_555
C15A C10A 1_555 1_555
C16A C15A 1_555 1_555
C17A C18 1_555 1_555
C18A C17 1_555 1_555
C7 C8 1_555 1_555
C16 C17 1_555 1_555
S1A C8A 1_555 1_555
C7A C8A 1_555 1_555
C7A C9A 1_555 1_555
S2A C17A 1_555 1_555
C16A C17A 1_555 1_555
C16A C18A 1_555 1_555

#END
