
#######################################################################
#
#                 Cambridge Crystallographic Data Centre
#                                CCDC 
#
#######################################################################
#
# If this CIF has been generated from an entry in the Cambridge 
# Structural Database, then it will include bibliographic, chemical, 
# crystal, experimental, refinement or atomic coordinate data resulting 
# from the CCDC's data processing and validation procedures.
#
#######################################################################

data_YOJBAA
_chemical_formula_moiety         'C25 H29 N1 O1'
_chemical_name_systematic        
(S,S)-(o-(\a-Dimethylaminoethyl)phenyl)phenyl-2,4-dimethylphenylcarbinol
_symmetry_cell_setting           orthorhombic
_symmetry_space_group_name_H-M   'P 21 21 21'
_symmetry_Int_Tables_number      19
_space_group_name_Hall           'P 2ac 2ab'
loop_
_symmetry_equiv_pos_site_id
_symmetry_equiv_pos_as_xyz
1 x,y,z
2 1/2-x,-y,1/2+z
3 1/2+x,1/2-y,-z
4 -x,1/2+y,1/2-z
_cell_length_a                   8.315(2)
_cell_length_b                   8.367(3)
_cell_length_c                   30.239(8)
_cell_angle_alpha                90
_cell_angle_beta                 90
_cell_angle_gamma                90
_cell_volume                     2103.78
_chemical_melting_point          123deg.C
_cell_formula_units_Z            4
loop_
_atom_site_label
_atom_site_type_symbol
_atom_site_fract_x
_atom_site_fract_y
_atom_site_fract_z
O1 O 0.4141(5) 0.4398(6) 0.1694(1)
N1 N 0.6587(6) 0.5108(7) 0.2309(2)
C1 C 0.5010(6) 0.3856(7) 0.1308(2)
C2 C 0.6330(7) 0.2680(7) 0.1469(2)
C3 C 0.7574(7) 0.3185(7) 0.1764(2)
C4 C 0.8655(8) 0.2032(8) 0.1908(2)
C5 C 0.8549(8) 0.0449(9) 0.1789(2)
C6 C 0.7339(8) -0.0029(8) 0.1505(2)
C7 C 0.6261(7) 0.1092(7) 0.1349(2)
C8 C 0.7702(7) 0.4885(9) 0.1928(2)
C9 C 0.9445(8) 0.5425(10) 0.2012(2)
C10 C 0.6332(11) 0.6779(10) 0.2411(3)
C11 C 0.7066(8) 0.4249(11) 0.2709(2)
C12 C 0.5639(6) 0.5271(7) 0.1037(2)
C13 C 0.4666(7) 0.6590(7) 0.0936(2)
C14 C 0.5265(8) 0.7794(8) 0.0661(2)
C15 C 0.6814(8) 0.7741(8) 0.0480(2)
C16 C 0.7757(8) 0.6439(7) 0.0581(2)
C17 C 0.7187(7) 0.5215(8) 0.0847(2)
C18 C 0.2947(7) 0.6808(9) 0.1100(2)
C19 C 0.7401(10) 0.9106(9) 0.0200(2)
C20 C 0.3788(7) 0.2995(7) 0.1010(2)
C21 C 0.2330(8) 0.2436(9) 0.1178(2)
C22 C 0.1282(8) 0.1614(11) 0.0906(3)
C23 C 0.1664(9) 0.1302(10) 0.0471(3)
C24 C 0.3086(8) 0.1878(8) 0.0301(2)
C25 C 0.4149(7) 0.2719(8) 0.0568(2)
loop_
_geom_bond_atom_site_label_1
_geom_bond_atom_site_label_2
_geom_bond_site_symmetry_1
_geom_bond_site_symmetry_2
O1 C1 1_555 1_555
N1 C8 1_555 1_555
C1 C2 1_555 1_555
C2 C3 1_555 1_555
C3 C4 1_555 1_555
C4 C5 1_555 1_555
C5 C6 1_555 1_555
C6 C7 1_555 1_555
C7 C2 1_555 1_555
C8 C3 1_555 1_555
C9 C8 1_555 1_555
C10 N1 1_555 1_555
C11 N1 1_555 1_555
C12 C1 1_555 1_555
C13 C12 1_555 1_555
C14 C13 1_555 1_555
C15 C14 1_555 1_555
C16 C15 1_555 1_555
C17 C12 1_555 1_555
C18 C13 1_555 1_555
C19 C15 1_555 1_555
C20 C1 1_555 1_555
C21 C20 1_555 1_555
C22 C21 1_555 1_555
C23 C22 1_555 1_555
C24 C23 1_555 1_555
C25 C20 1_555 1_555
C16 C17 1_555 1_555
C24 C25 1_555 1_555

#END
