
#######################################################################
#
#                 Cambridge Crystallographic Data Centre
#                                CCDC 
#
#######################################################################
#
# If this CIF has been generated from an entry in the Cambridge 
# Structural Database, then it will include bibliographic, chemical, 
# crystal, experimental, refinement or atomic coordinate data resulting 
# from the CCDC's data processing and validation procedures.
#
#######################################################################

data_YOJCUW
_chemical_formula_moiety         'C38 H36 F6 S2'
_chemical_name_systematic        
3,9-bis(But-1-ynyl)-1,2,4,7,8,10-hexafluoro-6,12-dihexylbenzo[b][1]benzothieno[2,3-f][1]benzothiophene
_symmetry_cell_setting           monoclinic
_symmetry_space_group_name_H-M   'P 2/c'
_symmetry_Int_Tables_number      13
_space_group_name_Hall           '-P 2yc'
loop_
_symmetry_equiv_pos_site_id
_symmetry_equiv_pos_as_xyz
1 x,y,z
2 -x,y,1/2-z
3 -x,-y,-z
4 x,-y,1/2+z
_cell_length_a                   15.3542(3)
_cell_length_b                   4.90030(10)
_cell_length_c                   21.7359(4)
_cell_angle_alpha                90
_cell_angle_beta                 96.5090(10)
_cell_angle_gamma                90
_cell_volume                     1624.87
_exptl_crystal_colour            yellow
_exptl_crystal_description       'very thin needle'
_cell_formula_units_Z            2
loop_
_atom_site_label
_atom_site_type_symbol
_atom_site_fract_x
_atom_site_fract_y
_atom_site_fract_z
S1 S 0.80441(5) 0.39233(15) 0.45527(3)
F1 F 0.65664(12) 0.0371(4) 0.48263(9)
F2 F 0.81586(13) -0.4177(4) 0.64992(9)
F3 F 0.95306(12) -0.1220(4) 0.64019(9)
C1 C 0.8032(2) 0.1512(6) 0.51309(14)
C2 C 0.7302(2) -0.0022(7) 0.52187(15)
C3 C 0.7303(2) -0.1985(7) 0.56732(15)
C4 C 0.8095(2) -0.2303(7) 0.60575(14)
C5 C 0.8831(2) -0.0726(6) 0.59851(15)
C6 C 0.8837(2) 0.1202(6) 0.55132(14)
C7 C 0.9518(2) 0.3038(6) 0.53070(14)
C8 C 0.9152(2) 0.4611(6) 0.47944(14)
C9 C 0.6556(2) -0.3655(7) 0.57404(16)
C10 C 0.5939(2) -0.5121(7) 0.57729(16)
C11 C 0.5175(2) -0.6858(8) 0.58096(18)
H1 H 0.5369 -0.8599 0.6012
H2 H 0.4907 -0.7286 0.5385
C12 C 0.4486(3) -0.5565(9) 0.6166(2)
H3 H 0.4745 -0.5138 0.6588
H4 H 0.3997 -0.6841 0.6183
H5 H 0.4270 -0.3884 0.5957
C13 C 1.0405(2) 0.3425(6) 0.55183(13)
C14 C 1.0912(2) 0.1934(6) 0.60500(13)
H6 H 1.1534 0.1820 0.5973
H7 H 1.0684 0.0048 0.6064
C15 C 1.0862(2) 0.3297(7) 0.66835(14)
H8 H 1.1077 0.5198 0.6669
H9 H 1.0243 0.3359 0.6770
C16 C 1.1407(2) 0.1770(7) 0.72089(14)
H10 H 1.1325 0.2670 0.7606
H11 H 1.1179 -0.0116 0.7227
C17 C 1.2380(2) 0.1641(9) 0.71461(15)
H12 H 1.2603 0.3521 0.7104
H13 H 1.2467 0.0637 0.6762
C18 C 1.2918(3) 0.0260(9) 0.76927(17)
H14 H 1.2859 0.1322 0.8073
H15 H 1.2676 -0.1584 0.7749
C19 C 1.3874(3) 0.0006(12) 0.7611(2)
H16 H 1.3939 -0.1047 0.7236
H17 H 1.4182 -0.0928 0.7971
H18 H 1.4126 0.1829 0.7574
S1B S 1.19559(5) 0.60767(15) 0.54473(3)
F1B F 1.34336(12) 0.9629(4) 0.51737(9)
F2B F 1.18414(13) 1.4177(4) 0.35008(9)
F3B F 1.04694(12) 1.1220(4) 0.35981(9)
C1B C 1.1968(2) 0.8488(6) 0.48691(14)
C2B C 1.2698(2) 1.0022(7) 0.47813(15)
C3B C 1.2697(2) 1.1985(7) 0.43268(15)
C4B C 1.1905(2) 1.2303(7) 0.39425(14)
C5B C 1.1169(2) 1.0726(6) 0.40149(15)
C6B C 1.1163(2) 0.8798(6) 0.44868(14)
C7B C 1.0482(2) 0.6962(6) 0.46930(14)
C8B C 1.0848(2) 0.5389(6) 0.52056(14)
C9B C 1.3444(2) 1.3655(7) 0.42596(16)
C10B C 1.4061(2) 1.5121(7) 0.42271(16)
C11B C 1.4825(2) 1.6858(8) 0.41904(18)
H1B H 1.4631 1.8599 0.3988
H2B H 1.5093 1.7286 0.4615
C12B C 1.5514(3) 1.5565(9) 0.3834(2)
H3B H 1.5255 1.5138 0.3412
H4B H 1.6003 1.6841 0.3817
H5B H 1.5730 1.3884 0.4043
C13B C 0.9595(2) 0.6575(6) 0.44817(13)
C14B C 0.9088(2) 0.8066(6) 0.39500(13)
H6B H 0.8466 0.8180 0.4027
H7B H 0.9316 0.9952 0.3936
C15B C 0.9138(2) 0.6703(7) 0.33165(14)
H8B H 0.8923 0.4802 0.3331
H9B H 0.9757 0.6641 0.3230
C16B C 0.8593(2) 0.8230(7) 0.27911(14)
H10B H 0.8675 0.7330 0.2394
H11B H 0.8821 1.0116 0.2773
C17B C 0.7620(2) 0.8359(9) 0.28539(15)
H12B H 0.7397 0.6479 0.2896
H13B H 0.7533 0.9363 0.3238
C18B C 0.7082(3) 0.9740(9) 0.23073(17)
H14B H 0.7141 0.8678 0.1927
H15B H 0.7324 1.1584 0.2251
C19B C 0.6126(3) 0.9994(12) 0.2389(2)
H16B H 0.6061 1.1047 0.2764
H17B H 0.5818 1.0928 0.2029
H18B H 0.5874 0.8171 0.2426
loop_
_geom_bond_atom_site_label_1
_geom_bond_atom_site_label_2
_geom_bond_site_symmetry_1
_geom_bond_site_symmetry_2
S1 C1 1_555 1_555
F1 C2 1_555 1_555
F2 C4 1_555 1_555
F3 C5 1_555 1_555
C1 C2 1_555 1_555
C2 C3 1_555 1_555
C3 C4 1_555 1_555
C4 C5 1_555 1_555
C5 C6 1_555 1_555
C6 C1 1_555 1_555
C7 C6 1_555 1_555
C8 S1 1_555 1_555
C9 C3 1_555 1_555
C10 C9 1_555 1_555
C11 C10 1_555 1_555
H1 C11 1_555 1_555
H2 C11 1_555 1_555
C12 C11 1_555 1_555
H3 C12 1_555 1_555
H4 C12 1_555 1_555
H5 C12 1_555 1_555
C13 C7 1_555 1_555
C14 C13 1_555 1_555
H6 C14 1_555 1_555
H7 C14 1_555 1_555
C15 C14 1_555 1_555
H8 C15 1_555 1_555
H9 C15 1_555 1_555
C16 C15 1_555 1_555
H10 C16 1_555 1_555
H11 C16 1_555 1_555
C17 C16 1_555 1_555
H12 C17 1_555 1_555
H13 C17 1_555 1_555
C18 C17 1_555 1_555
H14 C18 1_555 1_555
H15 C18 1_555 1_555
C19 C18 1_555 1_555
H16 C19 1_555 1_555
H17 C19 1_555 1_555
H18 C19 1_555 1_555
S1B C1B 1_555 1_555
F1B C2B 1_555 1_555
F2B C4B 1_555 1_555
F3B C5B 1_555 1_555
C1B C2B 1_555 1_555
C2B C3B 1_555 1_555
C3B C4B 1_555 1_555
C4B C5B 1_555 1_555
C5B C6B 1_555 1_555
C6B C1B 1_555 1_555
C7B C6B 1_555 1_555
C8B C13 1_555 1_555
C9B C3B 1_555 1_555
C10B C9B 1_555 1_555
C11B C10B 1_555 1_555
H1B C11B 1_555 1_555
H2B C11B 1_555 1_555
C12B C11B 1_555 1_555
H3B C12B 1_555 1_555
H4B C12B 1_555 1_555
H5B C12B 1_555 1_555
C13B C8 1_555 1_555
C14B C13B 1_555 1_555
H6B C14B 1_555 1_555
H7B C14B 1_555 1_555
C15B C14B 1_555 1_555
H8B C15B 1_555 1_555
H9B C15B 1_555 1_555
C16B C15B 1_555 1_555
H10B C16B 1_555 1_555
H11B C16B 1_555 1_555
C17B C16B 1_555 1_555
H12B C17B 1_555 1_555
H13B C17B 1_555 1_555
C18B C17B 1_555 1_555
H14B C18B 1_555 1_555
H15B C18B 1_555 1_555
C19B C18B 1_555 1_555
H16B C19B 1_555 1_555
H17B C19B 1_555 1_555
H18B C19B 1_555 1_555
C7 C8 1_555 1_555
S1B C8B 1_555 1_555
C7B C8B 1_555 1_555
C7B C13B 1_555 1_555

#END
