
#######################################################################
#
#                 Cambridge Crystallographic Data Centre
#                                CCDC 
#
#######################################################################
#
# If this CIF has been generated from an entry in the Cambridge 
# Structural Database, then it will include bibliographic, chemical, 
# crystal, experimental, refinement or atomic coordinate data resulting 
# from the CCDC's data processing and validation procedures.
#
#######################################################################

data_YOJCEG
_chemical_formula_moiety         'C18 H2 F8 S2'
_chemical_name_systematic        
1,2,3,4,7,8,9,10-Octafluorobenzo[b][1]benzothieno[2,3-f][1]benzothiophene
_symmetry_cell_setting           monoclinic
_symmetry_space_group_name_H-M   'P 21/c'
_symmetry_Int_Tables_number      14
_space_group_name_Hall           '-P 2ybc'
loop_
_symmetry_equiv_pos_site_id
_symmetry_equiv_pos_as_xyz
1 x,y,z
2 -x,1/2+y,1/2-z
3 -x,-y,-z
4 x,1/2-y,1/2+z
_cell_length_a                   10.9828(7)
_cell_length_b                   4.5421(3)
_cell_length_c                   15.0414(9)
_cell_angle_alpha                90
_cell_angle_beta                 105.221(4)
_cell_angle_gamma                90
_cell_volume                     724.018
_exptl_crystal_colour            yellow
_exptl_crystal_description       flake
_chemical_melting_point          '295 deg.C'
_cell_formula_units_Z            2
loop_
_atom_site_label
_atom_site_type_symbol
_atom_site_fract_x
_atom_site_fract_y
_atom_site_fract_z
C1 C -0.0085(8) 0.4119(19) 1.0887(5)
H1 H -0.0143 0.3550 1.1482
C2 C 0.0848(7) 0.2937(19) 1.0508(5)
C3 C -0.0908(8) 0.612(2) 1.0372(5)
S1 S -0.21254(18) 0.7814(4) 1.07324(13)
C4 C -0.2572(7) 0.978(2) 0.9713(5)
C5 C 0.1815(7) 0.0841(18) 1.0887(5)
C6 C 0.2105(8) -0.0689(18) 1.1719(5)
C7 C 0.3058(8) -0.2642(19) 1.1944(5)
C8 C 0.3807(7) -0.3182(17) 1.1343(5)
C9 C -0.3543(8) 1.173(2) 0.9482(5)
F1 F 0.1370(4) -0.0259(10) 1.2311(3)
F2 F 0.3289(4) -0.4137(10) 1.2741(3)
F3 F 0.4734(4) -0.5121(11) 1.1591(4)
F4 F -0.4246(4) 1.2325(11) 1.0059(3)
C1B C 0.0085(8) 0.5881(19) 0.9113(5)
H1B H 0.0143 0.6450 0.8518
C2B C -0.0848(7) 0.7063(19) 0.9492(5)
C3B C 0.0908(8) 0.388(2) 0.9628(5)
S1B S 0.21254(18) 0.2186(4) 0.92676(13)
C4B C 0.2572(7) 0.022(2) 1.0287(5)
C5B C -0.1815(7) 0.9159(18) 0.9113(5)
C6B C -0.2105(8) 1.0689(18) 0.8281(5)
C7B C -0.3058(8) 1.2642(19) 0.8056(5)
C8B C -0.3807(7) 1.3182(17) 0.8657(5)
C9B C 0.3543(8) -0.173(2) 1.0518(5)
F1B F -0.1370(4) 1.0259(10) 0.7689(3)
F2B F -0.3289(4) 1.4137(10) 0.7259(3)
F3B F -0.4734(4) 1.5121(11) 0.8409(4)
F4B F 0.4246(4) -0.2325(11) 0.9941(3)
C10? C 0.068(5) 0.435(13) 0.939(2)
H2? H 0.1130 0.3796 0.8952
C11? C 0.099(4) 0.303(11) 1.026(2)
C12? C 0.023(4) 0.366(12) 1.085(2)
S2? S 0.0709(10) 0.185(3) 1.1903(7)
C13? C 0.193(4) 0.018(10) 1.156(2)
C14? C 0.199(4) 0.105(11) 1.068(2)
C15? C 0.298(4) -0.015(11) 1.037(2)
C16? C 0.376(4) -0.221(10) 1.084(2)
C17? C 0.365(3) -0.312(9) 1.1701(19)
C18? C 0.275(3) -0.184(9) 1.205(2)
F5? F 0.300(2) 0.051(6) 0.9494(14)
F6? F 0.468(2) -0.338(6) 1.0517(19)
F7? F 0.449(2) -0.496(6) 1.2194(17)
F8? F 0.268(2) -0.263(6) 1.2889(14)
loop_
_geom_bond_atom_site_label_1
_geom_bond_atom_site_label_2
_geom_bond_site_symmetry_1
_geom_bond_site_symmetry_2
C1 H1 1_555 1_555
C2 C1 1_555 1_555
C3 C1 1_555 1_555
S1 C3 1_555 1_555
C4 S1 1_555 1_555
C5 C2 1_555 1_555
C6 C5 1_555 1_555
C7 C6 1_555 1_555
C8 C7 1_555 1_555
C9 C4 1_555 1_555
F1 C6 1_555 1_555
F2 C7 1_555 1_555
F3 C8 1_555 1_555
F4 C9 1_555 1_555
C1B H1B 1_555 1_555
C2B C3 1_555 1_555
C3B C2 1_555 1_555
S1B C3B 1_555 1_555
C4B C5 1_555 1_555
C5B C4 1_555 1_555
C6B C5B 1_555 1_555
C7B C6B 1_555 1_555
C8B C9 1_555 1_555
C9B C8 1_555 1_555
F1B C6B 1_555 1_555
F2B C7B 1_555 1_555
F3B C8B 1_555 1_555
F4B C9B 1_555 1_555
C1B C2B 1_555 1_555
C1B C3B 1_555 1_555
C2B C5B 1_555 1_555
S1B C4B 1_555 1_555
C4B C9B 1_555 1_555
C7B C8B 1_555 1_555

#END
