
#######################################################################
#
#                 Cambridge Crystallographic Data Centre
#                                CCDC 
#
#######################################################################
#
# If this CIF has been generated from an entry in the Cambridge 
# Structural Database, then it will include bibliographic, chemical, 
# crystal, experimental, refinement or atomic coordinate data resulting 
# from the CCDC's data processing and validation procedures.
#
#######################################################################

data_YOJCOQ
_chemical_formula_moiety         'C42 H50 F8 S2'
_chemical_name_systematic        
1,2,3,4,7,8,9,10-Octafluoro-6,12-didodecanylbenzo[b][1]benzothieno[2,3-f][1]benzothiophene
_symmetry_cell_setting           triclinic
_symmetry_space_group_name_H-M   'P -1'
_symmetry_Int_Tables_number      2
_space_group_name_Hall           '-P 1'
loop_
_symmetry_equiv_pos_site_id
_symmetry_equiv_pos_as_xyz
1 x,y,z
2 -x,-y,-z
_cell_length_a                   4.6141(1)
_cell_length_b                   10.8580(2)
_cell_length_c                   19.0229(4)
_cell_angle_alpha                95.796(1)
_cell_angle_beta                 92.501(1)
_cell_angle_gamma                99.176(1)
_cell_volume                     934.306
_exptl_crystal_colour            colorless
_exptl_crystal_description       'thin needle'
_chemical_melting_point          '138 deg.C'
_cell_formula_units_Z            1
_exptl_crystal_recrystallization_method chloroform/methanol
loop_
_atom_site_label
_atom_site_type_symbol
_atom_site_fract_x
_atom_site_fract_y
_atom_site_fract_z
F1 F 0.6674(2) -0.00359(11) 0.06781(6)
F2 F 0.2804(3) 0.01259(11) 0.17236(7)
F3 F 0.1596(3) 0.23913(12) 0.22229(6)
F4 F 0.3902(2) 0.44567(10) 0.17260(6)
C1 C 1.1720(4) 0.43781(18) -0.05028(9)
C2 C 0.9926(4) 0.37560(17) -0.00277(9)
S1 S 0.95755(9) 0.21260(4) -0.00382(2)
C3 C 0.7219(4) 0.21591(18) 0.06414(10)
C4 C 0.5984(4) 0.10767(18) 0.09225(10)
C5 C 0.4082(4) 0.11527(19) 0.14511(10)
C6 C 0.3458(4) 0.23171(19) 0.17049(10)
C7 C 0.4706(4) 0.33998(18) 0.14315(10)
C8 C 0.6616(4) 0.33582(17) 0.08817(9)
C9 C 0.8217(4) 0.43204(18) 0.04734(9)
C10 C 1.3281(4) 0.35984(18) -0.10081(10)
H1 H 1.3709 0.2857 -0.0785
H2 H 1.5180 0.4098 -0.1106
C11 C 1.1458(4) 0.31539(18) -0.17112(10)
H3 H 0.9519 0.2693 -0.1610
H4 H 1.1117 0.3896 -0.1946
C12 C 1.2953(4) 0.23087(19) -0.22130(10)
H5 H 1.3720 0.1682 -0.1945
H6 H 1.4648 0.2823 -0.2403
C13 C 1.0905(4) 0.16218(18) -0.28304(9)
H7 H 0.9125 0.1168 -0.2641
H8 H 1.0275 0.2248 -0.3123
C14 C 1.2315(4) 0.06888(19) -0.33004(10)
H9 H 1.3792 0.1159 -0.3578
H10 H 1.3358 0.0191 -0.2996
C15 C 1.0101(4) -0.02048(18) -0.38078(10)
H11 H 0.8660 -0.0693 -0.3529
H12 H 0.9012 0.0295 -0.4101
C16 C 1.1501(4) -0.11125(18) -0.42949(10)
H13 H 1.2717 -0.1565 -0.4003
H14 H 1.2824 -0.0627 -0.4601
C17 C 0.9268(4) -0.20688(18) -0.47620(10)
H15 H 0.7974 -0.2567 -0.4455
H16 H 0.8021 -0.1615 -0.5045
C18 C 1.0647(4) -0.29612(18) -0.52625(10)
H17 H 1.1913 -0.3409 -0.4981
H18 H 1.1917 -0.2466 -0.5575
C19 C 0.8393(4) -0.39227(18) -0.57194(10)
H19 H 0.7132 -0.4421 -0.5406
H20 H 0.7117 -0.3473 -0.5997
C20 C 0.9747(4) -0.48145(19) -0.62262(10)
H21 H 1.1026 -0.4319 -0.6537
H22 H 1.0998 -0.5276 -0.5950
C21 C 0.7456(5) -0.5754(2) -0.66830(12)
H23 H 0.6230 -0.6269 -0.6379
H24 H 0.8444 -0.6294 -0.7003
H25 H 0.6218 -0.5303 -0.6961
F1A F 1.3326(2) 1.00359(11) -0.06781(6)
F2A F 1.7196(3) 0.98741(11) -0.17236(7)
F3A F 1.8404(3) 0.76087(12) -0.22229(6)
F4A F 1.6098(2) 0.55433(10) -0.17260(6)
C1A C 0.8280(4) 0.56219(18) 0.05028(9)
C2A C 1.0074(4) 0.62440(17) 0.00277(9)
S1A S 1.04245(9) 0.78740(4) 0.00382(2)
C3A C 1.2781(4) 0.78409(18) -0.06414(10)
C4A C 1.4016(4) 0.89233(18) -0.09225(10)
C5A C 1.5918(4) 0.88473(19) -0.14511(10)
C6A C 1.6542(4) 0.76829(19) -0.17049(10)
C7A C 1.5294(4) 0.66002(18) -0.14315(10)
C8A C 1.3384(4) 0.66418(17) -0.08817(9)
C9A C 1.1783(4) 0.56796(18) -0.04734(9)
C10A C 0.6719(4) 0.64016(18) 0.10081(10)
H1A H 0.6291 0.7143 0.0785
H2A H 0.4820 0.5902 0.1106
C11A C 0.8542(4) 0.68461(18) 0.17112(10)
H3A H 1.0481 0.7307 0.1610
H4A H 0.8883 0.6104 0.1946
C12A C 0.7047(4) 0.76913(19) 0.22130(10)
H5A H 0.6280 0.8318 0.1945
H6A H 0.5352 0.7177 0.2403
C13A C 0.9095(4) 0.83782(18) 0.28304(9)
H7A H 1.0875 0.8832 0.2641
H8A H 0.9725 0.7752 0.3123
C14A C 0.7685(4) 0.93112(19) 0.33004(10)
H9A H 0.6208 0.8841 0.3578
H10A H 0.6642 0.9809 0.2996
C15A C 0.9899(4) 1.02048(18) 0.38078(10)
H11A H 1.1340 1.0693 0.3529
H12A H 1.0988 0.9705 0.4101
C16A C 0.8499(4) 1.11125(18) 0.42949(10)
H13A H 0.7283 1.1565 0.4003
H14A H 0.7176 1.0627 0.4601
C17A C 1.0732(4) 1.20688(18) 0.47620(10)
H15A H 1.2026 1.2567 0.4455
H16A H 1.1979 1.1615 0.5045
C18A C 0.9353(4) 1.29612(18) 0.52625(10)
H17A H 0.8087 1.3409 0.4981
H18A H 0.8083 1.2466 0.5575
C19A C 1.1607(4) 1.39227(18) 0.57194(10)
H19A H 1.2868 1.4421 0.5406
H20A H 1.2883 1.3473 0.5997
C20A C 1.0253(4) 1.48145(19) 0.62262(10)
H21A H 0.8974 1.4319 0.6537
H22A H 0.9002 1.5276 0.5950
C21A C 1.2544(5) 1.5754(2) 0.66830(12)
H23A H 1.3770 1.6269 0.6379
H24A H 1.1556 1.6294 0.7003
H25A H 1.3782 1.5303 0.6961
loop_
_geom_bond_atom_site_label_1
_geom_bond_atom_site_label_2
_geom_bond_site_symmetry_1
_geom_bond_site_symmetry_2
F1 C4 1_555 1_555
F2 C5 1_555 1_555
F3 C6 1_555 1_555
F4 C7 1_555 1_555
C1 C2 1_555 1_555
C2 S1 1_555 1_555
S1 C3 1_555 1_555
C3 C4 1_555 1_555
C4 C5 1_555 1_555
C5 C6 1_555 1_555
C6 C7 1_555 1_555
C7 C8 1_555 1_555
C8 C3 1_555 1_555
C9 C2 1_555 1_555
C10 C1 1_555 1_555
H1 C10 1_555 1_555
H2 C10 1_555 1_555
C11 C10 1_555 1_555
H3 C11 1_555 1_555
H4 C11 1_555 1_555
C12 C11 1_555 1_555
H5 C12 1_555 1_555
H6 C12 1_555 1_555
C13 C12 1_555 1_555
H7 C13 1_555 1_555
H8 C13 1_555 1_555
C14 C13 1_555 1_555
H9 C14 1_555 1_555
H10 C14 1_555 1_555
C15 C14 1_555 1_555
H11 C15 1_555 1_555
H12 C15 1_555 1_555
C16 C15 1_555 1_555
H13 C16 1_555 1_555
H14 C16 1_555 1_555
C17 C16 1_555 1_555
H15 C17 1_555 1_555
H16 C17 1_555 1_555
C18 C17 1_555 1_555
H17 C18 1_555 1_555
H18 C18 1_555 1_555
C19 C18 1_555 1_555
H19 C19 1_555 1_555
H20 C19 1_555 1_555
C20 C19 1_555 1_555
H21 C20 1_555 1_555
H22 C20 1_555 1_555
C21 C20 1_555 1_555
H23 C21 1_555 1_555
H24 C21 1_555 1_555
H25 C21 1_555 1_555
F1A C4A 1_555 1_555
F2A C5A 1_555 1_555
F3A C6A 1_555 1_555
F4A C7A 1_555 1_555
C1A C9 1_555 1_555
C2A C1A 1_555 1_555
S1A C2A 1_555 1_555
C3A S1A 1_555 1_555
C4A C3A 1_555 1_555
C5A C4A 1_555 1_555
C6A C5A 1_555 1_555
C7A C6A 1_555 1_555
C8A C3A 1_555 1_555
C9A C1 1_555 1_555
C10A C1A 1_555 1_555
H1A C10A 1_555 1_555
H2A C10A 1_555 1_555
C11A C10A 1_555 1_555
H3A C11A 1_555 1_555
H4A C11A 1_555 1_555
C12A C11A 1_555 1_555
H5A C12A 1_555 1_555
H6A C12A 1_555 1_555
C13A C12A 1_555 1_555
H7A C13A 1_555 1_555
H8A C13A 1_555 1_555
C14A C13A 1_555 1_555
H9A C14A 1_555 1_555
H10A C14A 1_555 1_555
C15A C14A 1_555 1_555
H11A C15A 1_555 1_555
H12A C15A 1_555 1_555
C16A C15A 1_555 1_555
H13A C16A 1_555 1_555
H14A C16A 1_555 1_555
C17A C16A 1_555 1_555
H15A C17A 1_555 1_555
H16A C17A 1_555 1_555
C18A C17A 1_555 1_555
H17A C18A 1_555 1_555
H18A C18A 1_555 1_555
C19A C18A 1_555 1_555
H19A C19A 1_555 1_555
H20A C19A 1_555 1_555
C20A C19A 1_555 1_555
H21A C20A 1_555 1_555
H22A C20A 1_555 1_555
C21A C20A 1_555 1_555
H23A C21A 1_555 1_555
H24A C21A 1_555 1_555
H25A C21A 1_555 1_555
C8 C9 1_555 1_555
C2A C9A 1_555 1_555
C7A C8A 1_555 1_555
C8A C9A 1_555 1_555

#END
