
#######################################################################
#
#                 Cambridge Crystallographic Data Centre
#                                CCDC 
#
#######################################################################
#
# If this CIF has been generated from an entry in the Cambridge 
# Structural Database, then it will include bibliographic, chemical, 
# crystal, experimental, refinement or atomic coordinate data resulting 
# from the CCDC's data processing and validation procedures.
#
#######################################################################

data_YOJSOH
_chemical_formula_moiety         'C11 H11 Cl2 N1 O4'
_chemical_name_systematic        
2-(Dichloromethyl)-2-(4-nitrophenyl)-1,3-dioxane
_symmetry_cell_setting           monoclinic
_symmetry_space_group_name_H-M   'P 21/c'
_symmetry_Int_Tables_number      14
_space_group_name_Hall           '-P 2ybc'
loop_
_symmetry_equiv_pos_site_id
_symmetry_equiv_pos_as_xyz
1 x,y,z
2 -x,1/2+y,1/2-z
3 -x,-y,-z
4 x,1/2-y,1/2+z
_cell_length_a                   11.013(2)
_cell_length_b                   14.653(3)
_cell_length_c                   7.8693(16)
_cell_angle_alpha                90
_cell_angle_beta                 97.06(3)
_cell_angle_gamma                90
_cell_volume                     1260.27
_exptl_crystal_colour            colorless
_exptl_crystal_description       block
_cell_formula_units_Z            4
loop_
_atom_site_label
_atom_site_type_symbol
_atom_site_fract_x
_atom_site_fract_y
_atom_site_fract_z
C1 C 0.7449(3) 0.5587(2) 0.2026(3)
C2 C 0.7093(3) 0.5514(2) 0.0286(4)
H1 H 0.6334 0.5264 -0.0110
C3 C 0.7860(3) 0.5811(2) -0.0879(4)
H2 H 0.7632 0.5759 -0.2053
C4 C 0.8963(3) 0.6185(2) -0.0242(4)
C5 C 0.9336(3) 0.6287(3) 0.1476(4)
H3 H 1.0084 0.6556 0.1862
C6 C 0.8561(3) 0.5974(3) 0.2626(4)
H4 H 0.8794 0.6028 0.3799
C7 C 0.6584(3) 0.5263(2) 0.3305(3)
C8 C 0.6429(3) 0.3703(2) 0.2402(4)
H5 H 0.7003 0.3780 0.1570
H6 H 0.5841 0.3238 0.1979
C9 C 0.7107(3) 0.3407(3) 0.4099(5)
H7 H 0.6526 0.3247 0.4882
H8 H 0.7601 0.2873 0.3936
C10 C 0.7912(3) 0.4169(3) 0.4840(5)
H9 H 0.8269 0.4007 0.5989
H10 H 0.8574 0.4259 0.4149
C11 C 0.5699(3) 0.6005(2) 0.3794(4)
H11 H 0.5217 0.5746 0.4643
Cl1 Cl 0.46727(8) 0.63507(6) 0.19971(11)
Cl2 Cl 0.64805(10) 0.69701(6) 0.47165(13)
N1 N 0.9794(3) 0.6497(2) -0.1481(4)
O1 O 0.57999(18) 0.45599(13) 0.2618(2)
O2 O 0.7226(2) 0.50106(15) 0.4898(2)
O3 O 0.9484(3) 0.6373(3) -0.2984(3)
O4 O 1.0734(3) 0.6871(3) -0.0917(4)
loop_
_geom_bond_atom_site_label_1
_geom_bond_atom_site_label_2
_geom_bond_site_symmetry_1
_geom_bond_site_symmetry_2
C1 C2 1_555 1_555
C2 H1 1_555 1_555
C3 C2 1_555 1_555
H2 C3 1_555 1_555
C4 C3 1_555 1_555
C5 C4 1_555 1_555
H3 C5 1_555 1_555
C6 C1 1_555 1_555
H4 C6 1_555 1_555
C7 C1 1_555 1_555
C8 H5 1_555 1_555
H6 C8 1_555 1_555
C9 C8 1_555 1_555
H7 C9 1_555 1_555
H8 C9 1_555 1_555
C10 C9 1_555 1_555
H9 C10 1_555 1_555
H10 C10 1_555 1_555
C11 C7 1_555 1_555
H11 C11 1_555 1_555
Cl1 C11 1_555 1_555
Cl2 C11 1_555 1_555
N1 C4 1_555 1_555
O1 C7 1_555 1_555
O2 C7 1_555 1_555
O3 N1 1_555 1_555
O4 N1 1_555 1_555
C5 C6 1_555 1_555
C8 O1 1_555 1_555
C10 O2 1_555 1_555

#END
