
#######################################################################
#
#                 Cambridge Crystallographic Data Centre
#                                CCDC 
#
#######################################################################
#
# If this CIF has been generated from an entry in the Cambridge 
# Structural Database, then it will include bibliographic, chemical, 
# crystal, experimental, refinement or atomic coordinate data resulting 
# from the CCDC's data processing and validation procedures.
#
#######################################################################

data_YOKBOQ
_chemical_formula_moiety         'C34 H48 S2'
_chemical_name_systematic        
2,7-Didecyl-benzothieno(3,2-b)(1)benzothiophene
_symmetry_cell_setting           monoclinic
_symmetry_space_group_name_H-M   'P 21/a'
_symmetry_Int_Tables_number      14
_space_group_name_Hall           '-P 2yab'
loop_
_symmetry_equiv_pos_site_id
_symmetry_equiv_pos_as_xyz
1 x,y,z
2 1/2-x,1/2+y,-z
3 -x,-y,-z
4 1/2+x,1/2-y,z
_cell_length_a                   5.923(3)
_cell_length_b                   7.838(4)
_cell_length_c                   33.783(19)
_cell_angle_alpha                90
_cell_angle_beta                 93.727(2)
_cell_angle_gamma                90
_cell_volume                     1565.04
_exptl_crystal_colour            colorless
_exptl_crystal_description       Platelet
_cell_formula_units_Z            2
_exptl_crystal_recrystallization_method hexane
loop_
_atom_site_label
_atom_site_type_symbol
_atom_site_fract_x
_atom_site_fract_y
_atom_site_fract_z
S1 S 0.79401(10) 0.38749(8) 0.52673(2)
C1 C 0.5924(3) 0.4639(3) 0.49119(8)
C2 C 0.5795(4) 0.4679(3) 0.44917(8)
C3 C 0.7253(4) 0.4096(3) 0.42096(9)
C4 C 0.6727(5) 0.4358(3) 0.38126(9)
C5 C 0.4728(5) 0.5199(3) 0.36696(9)
C6 C 0.3233(4) 0.5769(3) 0.39456(9)
C7 C 0.6262(4) 0.4498(3) 0.56543(8)
C8 C 0.4284(6) 0.5582(4) 0.32323(10)
C9 C 0.2203(6) 0.4754(4) 0.30252(9)
C10 C 0.1772(6) 0.5335(4) 0.25984(10)
C11 C -0.0311(6) 0.4607(5) 0.23783(11)
C12 C -0.0735(7) 0.5295(5) 0.19609(11)
C13 C -0.2786(7) 0.4597(6) 0.17275(12)
C14 C -0.3196(8) 0.5330(6) 0.13142(13)
C15 C -0.5219(8) 0.4620(7) 0.10732(13)
C16 C -0.5598(10) 0.5362(8) 0.06596(15)
C17 C -0.7564(12) 0.4650(10) 0.04129(18)
H1 H 0.8625 0.3522 0.4291
H2 H 0.7742 0.3928 0.3625
H3 H 0.1844 0.6344 0.3859
H4 H 0.4157 0.6802 0.3200
H5 H 0.5605 0.5232 0.3099
H6 H 0.0898 0.5010 0.3169
H7 H 0.2387 0.3526 0.3030
H8 H 0.1644 0.6550 0.2597
H9 H 0.3078 0.5036 0.2456
H10 H -0.1603 0.4815 0.2526
H11 H -0.0140 0.3368 0.2362
H12 H -0.0915 0.6511 0.1977
H13 H 0.0580 0.5081 0.1815
H14 H -0.4093 0.4762 0.1874
H15 H -0.2589 0.3356 0.1703
H16 H -0.3380 0.6542 0.1339
H17 H -0.1868 0.5140 0.1169
H18 H -0.6559 0.4817 0.1216
H19 H -0.5052 0.3401 0.1051
H20 H -0.5767 0.6630 0.0678
H21 H -0.4200 0.5247 0.0516
H22 H -0.8946 0.4800 0.0554
H23 H -0.7802 0.5099 0.0159
H24 H -0.7380 0.3412 0.0393
S1B S 0.20599(10) 0.61251(8) 0.47327(2)
C1B C 0.4076(3) 0.5361(3) 0.50881(8)
C2B C 0.4205(4) 0.5321(3) 0.55083(8)
C3B C 0.2747(4) 0.5904(3) 0.57904(9)
C4B C 0.3273(5) 0.5642(3) 0.61874(9)
C5B C 0.5272(5) 0.4801(3) 0.63304(9)
C6B C 0.6767(4) 0.4231(3) 0.60544(9)
C7B C 0.3738(4) 0.5502(3) 0.43457(8)
C8B C 0.5716(6) 0.4418(4) 0.67677(10)
C9B C 0.7797(6) 0.5246(4) 0.69748(9)
C10B C 0.8228(6) 0.4665(4) 0.74016(10)
C11B C 1.0311(6) 0.5393(5) 0.76217(11)
C12B C 1.0735(7) 0.4705(5) 0.80391(11)
C13B C 1.2786(7) 0.5403(6) 0.82725(12)
C14B C 1.3196(8) 0.4670(6) 0.86858(13)
C15B C 1.5219(8) 0.5380(7) 0.89268(13)
C16B C 1.5598(10) 0.4638(8) 0.93404(15)
C17B C 1.7564(12) 0.5350(10) 0.95871(18)
H1B H 0.1375 0.6478 0.5709
H2B H 0.2258 0.6072 0.6375
H3B H 0.8156 0.3656 0.6141
H4B H 0.5843 0.3198 0.6800
H5B H 0.4395 0.4768 0.6901
H6B H 0.9102 0.4990 0.6831
H7B H 0.7613 0.6474 0.6970
H8B H 0.8356 0.3450 0.7403
H9B H 0.6922 0.4964 0.7544
H10B H 1.1603 0.5185 0.7474
H11B H 1.0140 0.6632 0.7638
H12B H 1.0915 0.3489 0.8023
H13B H 0.9420 0.4919 0.8185
H14B H 1.4093 0.5238 0.8126
H15B H 1.2589 0.6644 0.8297
H16B H 1.3380 0.3458 0.8661
H17B H 1.1868 0.4860 0.8831
H18B H 1.6559 0.5183 0.8784
H19B H 1.5052 0.6599 0.8949
H20B H 1.5767 0.3370 0.9322
H21B H 1.4200 0.4753 0.9484
H22B H 1.8946 0.5200 0.9446
H23B H 1.7802 0.4901 0.9841
H24B H 1.7380 0.6588 0.9607
loop_
_geom_bond_atom_site_label_1
_geom_bond_atom_site_label_2
_geom_bond_site_symmetry_1
_geom_bond_site_symmetry_2
S1 C1 1_555 1_555
C1 C2 1_555 1_555
C2 C3 1_555 1_555
C3 C4 1_555 1_555
C4 C5 1_555 1_555
C5 C6 1_555 1_555
C6 H3 1_555 1_555
C7 S1 1_555 1_555
C8 C5 1_555 1_555
C9 C8 1_555 1_555
C10 C9 1_555 1_555
C11 C10 1_555 1_555
C12 C11 1_555 1_555
C13 C12 1_555 1_555
C14 C13 1_555 1_555
C15 C14 1_555 1_555
C16 C15 1_555 1_555
C17 C16 1_555 1_555
H1 C3 1_555 1_555
H2 C4 1_555 1_555
H4 C8 1_555 1_555
H5 C8 1_555 1_555
H6 C9 1_555 1_555
H7 C9 1_555 1_555
H8 C10 1_555 1_555
H9 C10 1_555 1_555
H10 C11 1_555 1_555
H11 C11 1_555 1_555
H12 C12 1_555 1_555
H13 C12 1_555 1_555
H14 C13 1_555 1_555
H15 C13 1_555 1_555
H16 C14 1_555 1_555
H17 C14 1_555 1_555
H18 C15 1_555 1_555
H19 C15 1_555 1_555
H20 C16 1_555 1_555
H21 C16 1_555 1_555
H22 C17 1_555 1_555
H23 C17 1_555 1_555
H24 C17 1_555 1_555
S1B C1B 1_555 1_555
C1B C1 1_555 1_555
C2B C7 1_555 1_555
C3B C2B 1_555 1_555
C4B C3B 1_555 1_555
C5B C4B 1_555 1_555
C6B C7 1_555 1_555
C7B C2 1_555 1_555
C8B C5B 1_555 1_555
C9B C8B 1_555 1_555
C10B C9B 1_555 1_555
C11B C10B 1_555 1_555
C12B C11B 1_555 1_555
C13B C12B 1_555 1_555
C14B C13B 1_555 1_555
C15B C14B 1_555 1_555
C16B C15B 1_555 1_555
C17B C16B 1_555 1_555
H1B C3B 1_555 1_555
H2B C4B 1_555 1_555
H3B C6B 1_555 1_555
H4B C8B 1_555 1_555
H5B C8B 1_555 1_555
H6B C9B 1_555 1_555
H7B C9B 1_555 1_555
H8B C10B 1_555 1_555
H9B C10B 1_555 1_555
H10B C11B 1_555 1_555
H11B C11B 1_555 1_555
H12B C12B 1_555 1_555
H13B C12B 1_555 1_555
H14B C13B 1_555 1_555
H15B C13B 1_555 1_555
H16B C14B 1_555 1_555
H17B C14B 1_555 1_555
H18B C15B 1_555 1_555
H19B C15B 1_555 1_555
H20B C16B 1_555 1_555
H21B C16B 1_555 1_555
H22B C17B 1_555 1_555
H23B C17B 1_555 1_555
H24B C17B 1_555 1_555
C6 C7B 1_555 1_555
S1B C7B 1_555 1_555
C1B C2B 1_555 1_555
C5B C6B 1_555 1_555

#END
