
#######################################################################
#
#                 Cambridge Crystallographic Data Centre
#                                CCDC 
#
#######################################################################
#
# If this CIF has been generated from an entry in the Cambridge 
# Structural Database, then it will include bibliographic, chemical, 
# crystal, experimental, refinement or atomic coordinate data resulting 
# from the CCDC's data processing and validation procedures.
#
#######################################################################

data_YOKGAI
_chemical_formula_moiety         'C38 H28 N4 O2'
_chemical_name_systematic        
6-Benzoyl-4-imino-1,7-bis(4-methylphenyl)-2-oxo-7a-phenyl-4,7,7a,7b-tetrahydro-1H-cyclopropa[a]indolizine-1a,5(2H)-dicarbonitrile
_symmetry_cell_setting           orthorhombic
_symmetry_space_group_name_H-M   'P n a 21'
_symmetry_Int_Tables_number      33
_space_group_name_Hall           'P 2c -2n'
loop_
_symmetry_equiv_pos_site_id
_symmetry_equiv_pos_as_xyz
1 x,y,z
2 -x,-y,1/2+z
3 1/2+x,1/2-y,z
4 1/2-x,1/2+y,1/2+z
_cell_length_a                   11.3116(8)
_cell_length_b                   22.3565(18)
_cell_length_c                   12.2193(11)
_cell_angle_alpha                90
_cell_angle_beta                 90
_cell_angle_gamma                90
_cell_volume                     3090.11
_cell_formula_units_Z            4
loop_
_atom_site_label
_atom_site_type_symbol
_atom_site_fract_x
_atom_site_fract_y
_atom_site_fract_z
C1 C 0.83299(16) -0.02227(8) 0.47985(17)
H1 H 0.8284 0.0182 0.4967
C2 C 0.91940(19) -0.05671(10) 0.5275(2)
H2 H 0.9725 -0.0395 0.5764
C3 C 0.9274(2) -0.11607(10) 0.5032(2)
H3 H 0.9862 -0.1393 0.5350
C4 C 0.8485(2) -0.14158(9) 0.4317(2)
H4 H 0.8535 -0.1822 0.4160
C5 C 0.76237(17) -0.10730(9) 0.3833(2)
H5 H 0.7100 -0.1247 0.3341
C6 C 0.75293(14) -0.04677(7) 0.40747(15)
C7 C 0.65929(15) -0.01071(7) 0.35617(14)
C8 C 0.64140(13) 0.05273(7) 0.39435(13)
C9 C 0.68766(13) 0.10015(8) 0.34284(13)
C10 C 0.76098(17) 0.09187(8) 0.24769(16)
C11 C 0.65888(14) 0.16256(7) 0.37244(13)
C12 C 0.59937(13) 0.11875(6) 0.55219(12)
C13 C 0.55816(12) 0.06173(7) 0.49001(12)
H6 H 0.5660 0.0274 0.5393
C14 C 0.42963(13) 0.06535(7) 0.45195(14)
C15 C 0.33997(16) 0.04180(8) 0.51546(14)
H7 H 0.3587 0.0200 0.5780
C16 C 0.22276(16) 0.05015(10) 0.48723(18)
H8 H 0.1641 0.0345 0.5322
C17 C 0.19056(15) 0.08095(9) 0.39459(17)
C18 C 0.06206(17) 0.09065(12) 0.3636(2)
H9 H 0.0145 0.0594 0.3947
H10 H 0.0544 0.0900 0.2854
H11 H 0.0360 0.1287 0.3911
C19 C 0.27971(16) 0.10290(9) 0.33008(17)
H12 H 0.2606 0.1235 0.2664
C20 C 0.39700(15) 0.09511(8) 0.35727(16)
H13 H 0.4553 0.1101 0.3112
C21 C 0.71911(13) 0.10954(7) 0.60739(13)
C22 C 0.72525(16) 0.07045(8) 0.69544(15)
H14 H 0.6574 0.0506 0.7183
C23 C 0.8302(2) 0.06071(10) 0.74928(18)
H15 H 0.8328 0.0346 0.8084
C24 C 0.93204(18) 0.08978(9) 0.71553(19)
H16 H 1.0034 0.0826 0.7510
C25 C 0.92743(17) 0.12883(9) 0.63036(18)
H17 H 0.9956 0.1487 0.6083
C26 C 0.82128(14) 0.13932(7) 0.57597(14)
H18 H 0.8188 0.1664 0.5183
C27 C 0.50737(14) 0.20917(7) 0.48796(14)
C28 C 0.44777(14) 0.19342(7) 0.59380(13)
C29 C 0.32111(16) 0.20071(7) 0.59905(16)
C30 C 0.50949(13) 0.13885(7) 0.63749(13)
H19 H 0.4627 0.1084 0.6757
C31 C 0.53094(14) 0.19698(7) 0.69230(13)
H20 H 0.6082 0.2148 0.6761
C32 C 0.48837(14) 0.20757(7) 0.80657(13)
C33 C 0.53981(18) 0.17533(10) 0.88986(15)
H21 H 0.5950 0.1458 0.8735
C34 C 0.5101(2) 0.18649(11) 0.99786(17)
H22 H 0.5474 0.1650 1.0531
C35 C 0.4271(2) 0.22833(9) 1.02531(16)
C36 C 0.3937(3) 0.23987(14) 1.1433(2)
H23 H 0.4115 0.2051 1.1864
H24 H 0.3107 0.2484 1.1478
H25 H 0.4377 0.2734 1.1705
C37 C 0.37554(18) 0.26000(8) 0.94180(17)
H26 H 0.3188 0.2887 0.9583
C38 C 0.40586(16) 0.25027(8) 0.83376(15)
H27 H 0.3702 0.2728 0.7789
N1 N 0.81825(18) 0.08366(10) 0.17272(16)
N2 N 0.68198(17) 0.20370(9) 0.30602(15)
N3 N 0.59926(10) 0.16846(5) 0.47315(10)
N4 N 0.22118(15) 0.20447(8) 0.60043(17)
O1 O 0.59172(12) -0.02944(6) 0.28688(12)
O2 O 0.48105(12) 0.24890(5) 0.42662(10)
H28 H 0.654(2) 0.2390(13) 0.331(2)
loop_
_geom_bond_atom_site_label_1
_geom_bond_atom_site_label_2
_geom_bond_site_symmetry_1
_geom_bond_site_symmetry_2
C1 H1 1_555 1_555
C2 C1 1_555 1_555
H2 C2 1_555 1_555
C3 C2 1_555 1_555
H3 C3 1_555 1_555
C4 C3 1_555 1_555
H4 C4 1_555 1_555
C5 C4 1_555 1_555
H5 C5 1_555 1_555
C6 C1 1_555 1_555
C7 C6 1_555 1_555
C8 C7 1_555 1_555
C9 C8 1_555 1_555
C10 C9 1_555 1_555
C11 C9 1_555 1_555
C12 C13 1_555 1_555
C13 C8 1_555 1_555
H6 C13 1_555 1_555
C14 C13 1_555 1_555
C15 C14 1_555 1_555
H7 C15 1_555 1_555
C16 C15 1_555 1_555
H8 C16 1_555 1_555
C17 C16 1_555 1_555
C18 C17 1_555 1_555
H9 C18 1_555 1_555
H10 C18 1_555 1_555
H11 C18 1_555 1_555
C19 C17 1_555 1_555
H12 C19 1_555 1_555
C20 C14 1_555 1_555
H13 C20 1_555 1_555
C21 C12 1_555 1_555
C22 C21 1_555 1_555
H14 C22 1_555 1_555
C23 C22 1_555 1_555
H15 C23 1_555 1_555
C24 C23 1_555 1_555
H16 C24 1_555 1_555
C25 C24 1_555 1_555
H17 C25 1_555 1_555
C26 C21 1_555 1_555
H18 C26 1_555 1_555
C27 C28 1_555 1_555
C28 C29 1_555 1_555
C29 N4 1_555 1_555
C30 C12 1_555 1_555
H19 C30 1_555 1_555
C31 C28 1_555 1_555
H20 C31 1_555 1_555
C32 C31 1_555 1_555
C33 C32 1_555 1_555
H21 C33 1_555 1_555
C34 C33 1_555 1_555
H22 C34 1_555 1_555
C35 C34 1_555 1_555
C36 C35 1_555 1_555
H23 C36 1_555 1_555
H24 C36 1_555 1_555
H25 C36 1_555 1_555
C37 C35 1_555 1_555
H26 C37 1_555 1_555
C38 C32 1_555 1_555
H27 C38 1_555 1_555
N1 C10 1_555 1_555
N2 C11 1_555 1_555
N3 C11 1_555 1_555
O1 C7 1_555 1_555
O2 C27 1_555 1_555
H28 N2 1_555 1_555
C5 C6 1_555 1_555
C12 N3 1_555 1_555
C19 C20 1_555 1_555
C25 C26 1_555 1_555
C27 N3 1_555 1_555
C28 C30 1_555 1_555
C30 C31 1_555 1_555
C37 C38 1_555 1_555

#END
