
#######################################################################
#
#                 Cambridge Crystallographic Data Centre
#                                CCDC 
#
#######################################################################
#
# If this CIF has been generated from an entry in the Cambridge 
# Structural Database, then it will include bibliographic, chemical, 
# crystal, experimental, refinement or atomic coordinate data resulting 
# from the CCDC's data processing and validation procedures.
#
#######################################################################

data_YOKLAN
_chemical_formula_moiety         'C32 H42 O12,H2 O1'
_chemical_name_systematic        
'(7-(3-furyl)-4a-hydroxy-3-(2-(hydroxymethyl)-2-methyl-5-oxotetrahydrofuran-3-yl)-8-((2-hydroxy-3-methylpentanoyl)oxy)-3,7a-dimethyl-4-methylene-5-oxodecahydro-2H-indeno[5,6-b]furan-2-yl)acetic acid monohydrate'
_symmetry_cell_setting           orthorhombic
_symmetry_space_group_name_H-M   'P 21 21 21'
_symmetry_Int_Tables_number      19
_space_group_name_Hall           'P 2ac 2ab'
loop_
_symmetry_equiv_pos_site_id
_symmetry_equiv_pos_as_xyz
1 x,y,z
2 1/2-x,-y,1/2+z
3 1/2+x,1/2-y,-z
4 -x,1/2+y,1/2-z
_cell_length_a                   11.45602(10)
_cell_length_b                   12.86931(9)
_cell_length_c                   21.71467(16)
_cell_angle_alpha                90
_cell_angle_beta                 90
_cell_angle_gamma                90
_cell_volume                     3201.42
_cell_formula_units_Z            4
loop_
_atom_site_label
_atom_site_type_symbol
_atom_site_fract_x
_atom_site_fract_y
_atom_site_fract_z
O1 O 0.80231(13) 0.67713(10) 0.35554(7)
O2 O 0.59012(13) 0.80669(10) 0.36862(6)
O3 O 0.53986(13) 0.49924(12) 0.31518(7)
H1 H 0.4854 0.5078 0.2912
O4 O 0.59915(18) 1.04423(12) 0.28799(7)
H2 H 0.5537 1.0905 0.2980
O5 O 1.15119(17) 0.61991(16) 0.50051(8)
O6 O 1.07429(16) 0.46307(14) 0.48701(7)
O7 O 1.10800(18) 0.33990(15) 0.37895(9)
H3 H 1.1722 0.3518 0.3941
O8 O 0.59768(18) 0.83848(12) 0.26665(7)
O9 O 0.34466(17) 0.40020(13) 0.39789(11)
C1 C 0.59509(18) 0.69451(14) 0.36123(9)
H4 H 0.6038 0.6779 0.3174
C2 C 0.50277(18) 0.52479(15) 0.37665(10)
C3 C 0.48489(18) 0.64387(15) 0.38539(9)
C4 C 0.81517(19) 0.49785(15) 0.37636(9)
O10 O 0.2186(2) 0.90230(18) 0.40300(14)
C5 C 0.2958(2) 0.57099(19) 0.35955(12)
H5 H 0.2379 0.5870 0.3907
H6 H 0.2557 0.5498 0.3223
C6 C 0.60070(19) 0.86796(15) 0.31894(9)
C7 C 0.4656(2) 0.66823(18) 0.45390(9)
H7 H 0.5327 0.6466 0.4771
H8 H 0.3978 0.6317 0.4684
H9 H 0.4542 0.7416 0.4591
C8 C 0.70522(18) 0.66070(14) 0.39559(9)
H10 H 0.7147 0.7055 0.4317
C9 C 0.9740(2) 0.41384(19) 0.45570(11)
C10 C 0.8181(2) 0.57984(16) 0.32421(9)
H11 H 0.7502 0.5683 0.2976
C11 C 0.3728(2) 0.66646(17) 0.34687(10)
H12 H 0.3950 0.6643 0.3033
C12 C 0.9695(2) 0.59855(18) 0.44344(11)
H13 H 0.9889 0.6540 0.4150
H14 H 0.9066 0.6215 0.4701
C13 C 0.71307(18) 0.54412(14) 0.41727(9)
H15 H 0.7425 0.5457 0.4596
C14 C 0.8879(3) 0.3830(3) 0.50512(13)
H16 H 0.9263 0.3400 0.5350
H17 H 0.8246 0.3451 0.4868
H18 H 0.8582 0.4442 0.5249
C15 C 0.6201(2) 0.97854(16) 0.33926(9)
H19 H 0.5634 0.9952 0.3716
C16 C 0.5964(2) 0.48672(15) 0.41960(10)
C17 C 0.3153(2) 0.77011(18) 0.35843(12)
C18 C 0.9246(2) 0.5899(2) 0.28366(11)
H20 H 0.9905 0.6132 0.3081
H21 H 0.9440 0.5227 0.2662
C19 C 0.93632(19) 0.49930(15) 0.40904(9)
H22 H 0.9932 0.4943 0.3755
C20 C 1.0278(3) 0.3174(2) 0.42585(15)
H23 H 1.0669 0.2769 0.4574
H24 H 0.9657 0.2749 0.4089
C21 C 1.0740(2) 0.5665(2) 0.48025(10)
C22 C 0.3757(2) 0.48549(18) 0.38164(11)
C23 C 0.7894(2) 0.39093(17) 0.34918(11)
H25 H 0.7197 0.3943 0.3248
H26 H 0.7788 0.3417 0.3819
H27 H 0.8537 0.3695 0.3238
C24 C 0.2489(3) 0.8007(2) 0.40736(15)
H28 H 0.2272 0.7573 0.4396
C25 C 0.7428(2) 0.9909(2) 0.36566(11)
H29 H 0.7472 0.9462 0.4021
C26 C 0.8379(3) 0.9541(3) 0.32121(15)
H30 H 0.8132 0.8894 0.3024
H31 H 0.8468 1.0051 0.2887
C27 C 0.3244(3) 0.8600(2) 0.32135(17)
H32 H 0.3650 0.8647 0.2844
C28 C 0.5760(3) 0.4164(2) 0.46244(15)
H33 H 0.5016 0.3886 0.4669
H34 H 0.6361 0.3947 0.4882
C29 C 0.7609(4) 1.1021(3) 0.38782(18)
H35 H 0.7739 1.1467 0.3530
H36 H 0.8274 1.1048 0.4147
H37 H 0.6927 1.1249 0.4097
C30 C 0.2659(3) 0.9363(3) 0.3478(2)
H38 H 0.2576 1.0029 0.3318
C31 C 0.9551(4) 0.9375(5) 0.3519(3)
H39 H 1.0112 0.9157 0.3217
H40 H 0.9479 0.8850 0.3831
H41 H 0.9806 1.0014 0.3704
O11 O 0.8134(4) 0.6689(2) 0.20364(13)
O12 O 0.9838(4) 0.7295(3) 0.22315(16)
H42 H 0.9657 0.7686 0.1949
C32 C 0.9021(5) 0.6663(3) 0.23269(16)
O13 O 0.4607(5) 1.1982(3) 0.33166(16)
H43 H 0.511(2) 1.2516(17) 0.323(2)
H44 H 0.403(3) 1.203(3) 0.3092(19)
loop_
_geom_bond_atom_site_label_1
_geom_bond_atom_site_label_2
_geom_bond_site_symmetry_1
_geom_bond_site_symmetry_2
O1 C8 1_555 1_555
O2 C1 1_555 1_555
O3 H1 1_555 1_555
O4 H2 1_555 1_555
O5 C21 1_555 1_555
O6 C9 1_555 1_555
O7 H3 1_555 1_555
O8 C6 1_555 1_555
O9 C22 1_555 1_555
C1 H4 1_555 1_555
C2 O3 1_555 1_555
C3 C1 1_555 1_555
C4 C10 1_555 1_555
O10 C24 1_555 1_555
C5 H5 1_555 1_555
H6 C5 1_555 1_555
C6 O2 1_555 1_555
C7 C3 1_555 1_555
H7 C7 1_555 1_555
H8 C7 1_555 1_555
H9 C7 1_555 1_555
C8 C1 1_555 1_555
H10 C8 1_555 1_555
C9 C14 1_555 1_555
C10 O1 1_555 1_555
H11 C10 1_555 1_555
C11 C3 1_555 1_555
H12 C11 1_555 1_555
C12 H13 1_555 1_555
H14 C12 1_555 1_555
C13 C4 1_555 1_555
H15 C13 1_555 1_555
C14 H16 1_555 1_555
H17 C14 1_555 1_555
H18 C14 1_555 1_555
C15 O4 1_555 1_555
H19 C15 1_555 1_555
C16 C2 1_555 1_555
C17 C11 1_555 1_555
C18 C10 1_555 1_555
H20 C18 1_555 1_555
H21 C18 1_555 1_555
C19 C4 1_555 1_555
H22 C19 1_555 1_555
C20 O7 1_555 1_555
H23 C20 1_555 1_555
H24 C20 1_555 1_555
C21 O6 1_555 1_555
C22 C2 1_555 1_555
C23 C4 1_555 1_555
H25 C23 1_555 1_555
H26 C23 1_555 1_555
H27 C23 1_555 1_555
C24 C17 1_555 1_555
H28 C24 1_555 1_555
C25 C15 1_555 1_555
H29 C25 1_555 1_555
C26 C25 1_555 1_555
H30 C26 1_555 1_555
H31 C26 1_555 1_555
C27 C17 1_555 1_555
H32 C27 1_555 1_555
C28 C16 1_555 1_555
H33 C28 1_555 1_555
H34 C28 1_555 1_555
C29 C25 1_555 1_555
H35 C29 1_555 1_555
H36 C29 1_555 1_555
H37 C29 1_555 1_555
C30 O10 1_555 1_555
H38 C30 1_555 1_555
C31 C26 1_555 1_555
H39 C31 1_555 1_555
H40 C31 1_555 1_555
H41 C31 1_555 1_555
O11 C32 1_555 1_555
O12 H42 1_555 1_555
C32 C18 1_555 1_555
O13 H43 1_555 1_555
H44 O13 1_555 1_555
C2 C3 1_555 1_555
C5 C11 1_555 1_555
C5 C22 1_555 1_555
C6 C15 1_555 1_555
C8 C13 1_555 1_555
C9 C19 1_555 1_555
C9 C20 1_555 1_555
C12 C19 1_555 1_555
C12 C21 1_555 1_555
C13 C16 1_555 1_555
C27 C30 1_555 1_555
O12 C32 1_555 1_555

#END
