
#######################################################################
#
#                 Cambridge Crystallographic Data Centre
#                                CCDC 
#
#######################################################################
#
# If this CIF has been generated from an entry in the Cambridge 
# Structural Database, then it will include bibliographic, chemical, 
# crystal, experimental, refinement or atomic coordinate data resulting 
# from the CCDC's data processing and validation procedures.
#
#######################################################################

data_YOKNAO
_chemical_formula_moiety         'C19 H22 N2 O2'
_chemical_name_systematic        
N-(4-Nitrophenylmethylidene)-2,6-di-isopropylaniline
_symmetry_cell_setting           monoclinic
_symmetry_space_group_name_H-M   'P 21/c'
_symmetry_Int_Tables_number      14
_space_group_name_Hall           '-P 2ybc'
loop_
_symmetry_equiv_pos_site_id
_symmetry_equiv_pos_as_xyz
1 x,y,z
2 -x,1/2+y,1/2-z
3 -x,-y,-z
4 x,1/2-y,1/2+z
_cell_length_a                   8.4963(2)
_cell_length_b                   28.2166(7)
_cell_length_c                   8.1526(2)
_cell_angle_alpha                90
_cell_angle_beta                 117.122(2)
_cell_angle_gamma                90
_cell_volume                     1739.56
_cell_formula_units_Z            4
loop_
_atom_site_label
_atom_site_type_symbol
_atom_site_fract_x
_atom_site_fract_y
_atom_site_fract_z
C1 C 0.4413(2) 0.16012(6) 0.5586(2)
C2 C 0.4286(3) 0.18570(6) 0.6999(2)
C3 C 0.7365(3) 0.20533(7) 0.8206(3)
H1 H 0.8366 0.2203 0.9095
C4 C 0.5998(3) 0.15763(6) 0.5455(2)
C5 C 0.5796(3) 0.20779(7) 0.8301(3)
H2 H 0.5745 0.2246 0.9257
C6 C 0.7460(3) 0.18078(7) 0.6801(3)
H3 H 0.8530 0.1796 0.6749
C7 C 0.2563(3) 0.18741(7) 0.7121(3)
H4 H 0.1611 0.1814 0.5880
C8 C 0.6165(3) 0.13122(7) 0.3926(3)
H5 H 0.4970 0.1224 0.3007
C9 C 0.2200(4) 0.23532(9) 0.7722(4)
H6 H 0.3038 0.2410 0.8983
H7 H 0.1024 0.2357 0.7608
H8 H 0.2308 0.2596 0.6956
C10 C 0.7217(4) 0.08573(8) 0.4632(3)
H9 H 0.8396 0.0932 0.5543
H10 H 0.7263 0.0692 0.3626
H11 H 0.6656 0.0661 0.5173
C11 C 0.2501(4) 0.14776(10) 0.8346(4)
H12 H 0.2746 0.1181 0.7932
H13 H 0.1347 0.1466 0.8288
H14 H 0.3371 0.1535 0.9594
C12 C 0.6969(4) 0.16153(9) 0.2959(3)
H15 H 0.8193 0.1673 0.3781
H16 H 0.6349 0.1912 0.2603
H17 H 0.6872 0.1453 0.1883
N1 N 0.28410(19) 0.13966(5) 0.41817(19)
C13 C 0.2575(3) 0.09618(7) 0.4220(3)
H18 H 0.3420 0.0782 0.5168
C14 C -0.1979(3) 0.02665(6) 0.0327(2)
C15 C 0.0987(2) 0.07223(6) 0.2834(2)
C16 C -0.0222(3) 0.09584(6) 0.1271(3)
H19 H -0.0020 0.1272 0.1075
C17 C -0.1715(3) 0.07306(7) 0.0012(3)
H20 H -0.2530 0.0888 -0.1034
C18 C -0.0816(3) 0.00249(7) 0.1852(3)
H21 H -0.1030 -0.0289 0.2042
C19 C 0.0682(3) 0.02562(6) 0.3103(3)
H22 H 0.1495 0.0095 0.4139
O1 O -0.4539(3) 0.02221(7) -0.2401(3)
O2 O -0.3822(3) -0.03830(6) -0.0679(3)
N2 N -0.3561(3) 0.00175(7) -0.1014(3)
loop_
_geom_bond_atom_site_label_1
_geom_bond_atom_site_label_2
_geom_bond_site_symmetry_1
_geom_bond_site_symmetry_2
C1 C2 1_555 1_555
C2 C5 1_555 1_555
C3 H1 1_555 1_555
C4 C1 1_555 1_555
C5 C3 1_555 1_555
H2 C5 1_555 1_555
C6 C3 1_555 1_555
H3 C6 1_555 1_555
C7 C2 1_555 1_555
H4 C7 1_555 1_555
C8 C4 1_555 1_555
H5 C8 1_555 1_555
C9 C7 1_555 1_555
H6 C9 1_555 1_555
H7 C9 1_555 1_555
H8 C9 1_555 1_555
C10 C8 1_555 1_555
H9 C10 1_555 1_555
H10 C10 1_555 1_555
H11 C10 1_555 1_555
C11 C7 1_555 1_555
H12 C11 1_555 1_555
H13 C11 1_555 1_555
H14 C11 1_555 1_555
C12 C8 1_555 1_555
H15 C12 1_555 1_555
H16 C12 1_555 1_555
H17 C12 1_555 1_555
N1 C1 1_555 1_555
C13 N1 1_555 1_555
H18 C13 1_555 1_555
C14 C17 1_555 1_555
C15 C13 1_555 1_555
C16 C15 1_555 1_555
H19 C16 1_555 1_555
C17 C16 1_555 1_555
H20 C17 1_555 1_555
C18 C14 1_555 1_555
H21 C18 1_555 1_555
C19 C15 1_555 1_555
H22 C19 1_555 1_555
O1 N2 1_555 1_555
O2 N2 1_555 1_555
N2 C14 1_555 1_555
C4 C6 1_555 1_555
C18 C19 1_555 1_555

#END
