
#######################################################################
#
#                 Cambridge Crystallographic Data Centre
#                                CCDC 
#
#######################################################################
#
# If this CIF has been generated from an entry in the Cambridge 
# Structural Database, then it will include bibliographic, chemical, 
# crystal, experimental, refinement or atomic coordinate data resulting 
# from the CCDC's data processing and validation procedures.
#
#######################################################################

data_YOKTIC
_chemical_formula_moiety         'C8 H20 N1 1+,Br1 1-,C18 H8 Cl2 N6 O4,H2 O1'
_chemical_name_systematic        
'tetraethylammonium bromide 5,17-dichloro-2,8,14,20-tetraoxa-4,6,16,18,26,28-hexaazacalix(4)arene monohydrate'
_symmetry_cell_setting           orthorhombic
_symmetry_space_group_name_H-M   'P n m a'
_symmetry_Int_Tables_number      62
_space_group_name_Hall           '-P 2ac 2n'
loop_
_symmetry_equiv_pos_site_id
_symmetry_equiv_pos_as_xyz
1 x,y,z
2 1/2-x,-y,1/2+z
3 1/2+x,1/2-y,1/2-z
4 -x,1/2+y,-z
5 -x,-y,-z
6 1/2+x,y,1/2-z
7 1/2-x,1/2+y,1/2+z
8 x,1/2-y,z
_cell_length_a                   24.235(5)
_cell_length_b                   16.845(3)
_cell_length_c                   15.021(3)
_cell_angle_alpha                90
_cell_angle_beta                 90
_cell_angle_gamma                90
_cell_volume                     6132.15
_exptl_crystal_colour            'light yellow'
_exptl_crystal_description       block
_cell_formula_units_Z            8
_exptl_crystal_recrystallization_method n-hexane/dichloromethane
_exptl_crystal_preparation       fluorescent
loop_
_atom_site_label
_atom_site_type_symbol
_atom_site_fract_x
_atom_site_fract_y
_atom_site_fract_z
Br1 Br 0.29808(6) 0.2500 0.13401(10)
Br2 Br 0.19261(10) 0.2500 0.83748(13)
Cl1 Cl 0.31762(12) 0.2500 0.43557(18)
Cl2 Cl 0.35836(13) 0.2500 -0.34762(18)
O1 O 0.4288(2) 0.1136(3) 0.2178(3)
O3 O 0.4436(2) 0.1141(3) -0.1004(3)
N1 N 0.4337(3) 0.2500 0.2130(5)
N2 N 0.3791(2) 0.1795(4) 0.3185(4)
N3 N 0.4468(3) 0.2500 -0.0954(6)
N4 N 0.4035(2) 0.1792(4) -0.2133(4)
C1 C 0.4613(3) 0.1120(4) 0.1393(5)
C2 C 0.4364(3) 0.1215(4) 0.0593(5)
H1 H 0.3983 0.1337 0.0554
C3 C 0.4678(3) 0.1129(4) -0.0157(4)
C4 C 0.5240(3) 0.0949(5) -0.0112(5)
H2 H 0.5455 0.0888 -0.0637
C5 C 0.5472(3) 0.0861(5) 0.0715(5)
H3 H 0.5855 0.0747 0.0764
C6 C 0.5156(3) 0.0936(5) 0.1486(5)
H4 H 0.5315 0.0862 0.2058
C7 C 0.3644(4) 0.2500 0.3466(7)
C8 C 0.4133(3) 0.1852(5) 0.2496(5)
C9 C 0.4309(3) 0.1850(4) -0.1362(4)
C10 C 0.3938(4) 0.2500 -0.2460(6)
O1G O 0.4288(2) 0.3864(3) 0.2178(3)
O3G O 0.4436(2) 0.3859(3) -0.1004(3)
N2G N 0.3791(2) 0.3205(4) 0.3185(4)
N4G N 0.4035(2) 0.3208(4) -0.2133(4)
C1G C 0.4613(3) 0.3880(4) 0.1393(5)
C2G C 0.4364(3) 0.3785(4) 0.0593(5)
H1G H 0.3983 0.3663 0.0554
C3G C 0.4678(3) 0.3871(4) -0.0157(4)
C4G C 0.5240(3) 0.4051(5) -0.0112(5)
H2G H 0.5455 0.4112 -0.0637
C5G C 0.5472(3) 0.4139(5) 0.0715(5)
H3G H 0.5855 0.4253 0.0764
C6G C 0.5156(3) 0.4064(5) 0.1486(5)
H4G H 0.5315 0.4138 0.2058
C8G C 0.4133(3) 0.3148(5) 0.2496(5)
C9G C 0.4309(3) 0.3150(4) -0.1362(4)
Cl3 Cl 0.18206(13) 0.2500 1.3341(2)
Cl4 Cl 0.13289(15) 0.2500 0.55648(19)
O5 O 0.0679(2) 0.1145(3) 1.1198(3)
O6 O 0.0467(2) 0.1140(3) 0.8015(3)
N5 N 0.0643(4) 0.2500 1.1155(5)
N6 N 0.1203(2) 0.1785(4) 1.2177(4)
N7 N 0.0428(4) 0.2500 0.8066(5)
N8 N 0.0864(3) 0.1788(4) 0.6892(4)
C11 C -0.0214(3) 0.0961(4) 1.0544(5)
H5 H -0.0365 0.0896 1.1123
C12 C -0.0542(3) 0.0890(5) 0.9796(5)
H6 H -0.0926 0.0790 0.9859
C13 C -0.0315(3) 0.0964(5) 0.8959(5)
H7 H -0.0540 0.0905 0.8444
C14 C 0.0232(3) 0.1123(4) 0.8876(4)
C15 C 0.0572(3) 0.1214(5) 0.9615(5)
H8 H 0.0954 0.1333 0.9553
C16 C 0.0338(3) 0.1128(4) 1.0424(5)
C17 C 0.1353(4) 0.2500 1.2471(7)
C18 C 0.0853(3) 0.1850(5) 1.1516(5)
C19 C 0.0587(3) 0.1844(5) 0.7665(4)
C20 C 0.0982(5) 0.2500 0.6565(7)
O5G O 0.0679(2) 0.3855(3) 1.1198(3)
O6G O 0.0467(2) 0.3860(3) 0.8015(3)
N6G N 0.1203(2) 0.3215(4) 1.2177(4)
N8G N 0.0864(3) 0.3212(4) 0.6892(4)
C11G C -0.0214(3) 0.4039(4) 1.0544(5)
H5G H -0.0365 0.4104 1.1123
C12G C -0.0542(3) 0.4110(5) 0.9796(5)
H6G H -0.0926 0.4210 0.9859
C13G C -0.0315(3) 0.4036(5) 0.8959(5)
H7G H -0.0540 0.4095 0.8444
C14G C 0.0232(3) 0.3877(4) 0.8876(4)
C15G C 0.0572(3) 0.3786(5) 0.9615(5)
H8G H 0.0954 0.3667 0.9553
C16G C 0.0338(3) 0.3872(4) 1.0424(5)
C18G C 0.0853(3) 0.3150(5) 1.1516(5)
C19G C 0.0587(3) 0.3156(5) 0.7665(4)
O2 O 0.3173(8) 0.2500 -0.0783(13)
O4 O 0.1797(11) 0.2500 1.0389(16)
N9 N 0.2545(3) 0.5128(5) 0.2256(7)
C21 C 0.2212(5) 0.4589(9) 0.1730(12)
H9 H 0.1993 0.4254 0.2140
H10 H 0.2462 0.4234 0.1394
C22 C 0.1808(5) 0.4994(12) 0.1055(13)
H11 H 0.1602 0.4585 0.0731
H12 H 0.2020 0.5315 0.0631
H13 H 0.1550 0.5336 0.1379
C23 C 0.2175(5) 0.5635(9) 0.2821(10)
H14 H 0.1937 0.5960 0.2429
H15 H 0.2404 0.6000 0.3180
C24 C 0.1810(6) 0.5149(11) 0.3444(14)
H16 H 0.1578 0.5507 0.3796
H17 H 0.2043 0.4834 0.3844
H18 H 0.1575 0.4793 0.3093
C25 C 0.2867(4) 0.5699(6) 0.1683(8)
H19 H 0.2604 0.6014 0.1325
H20 H 0.3068 0.6072 0.2077
C26 C 0.3278(4) 0.5314(7) 0.1060(8)
H21 H 0.3468 0.5725 0.0715
H22 H 0.3084 0.4955 0.0653
H23 H 0.3549 0.5012 0.1407
C27 C 0.2914(4) 0.4638(6) 0.2830(7)
H24 H 0.2681 0.4278 0.3190
H25 H 0.3145 0.4303 0.2438
C28 C 0.3284(5) 0.5072(7) 0.3442(8)
H26 H 0.3506 0.4692 0.3782
H27 H 0.3063 0.5394 0.3852
H28 H 0.3529 0.5419 0.3097
loop_
_geom_bond_atom_site_label_1
_geom_bond_atom_site_label_2
_geom_bond_site_symmetry_1
_geom_bond_site_symmetry_2
Cl1 C7 1_555 1_555
Cl2 C10 1_555 1_555
Cl3 C17 1_555 1_555
Cl4 C20 1_555 1_555
O1 C1 1_555 1_555
O3 C3 1_555 1_555
O5 C16 1_555 1_555
O6 C14 1_555 1_555
N1 C8 1_555 1_555
N2 C7 1_555 1_555
N3 C9 1_555 1_555
N4 C9 1_555 1_555
N5 C18 1_555 1_555
N6 C17 1_555 1_555
N7 C19 1_555 1_555
N8 C19 1_555 1_555
N9 C21 1_555 1_555
C1 C2 1_555 1_555
C2 H1 1_555 1_555
C3 C2 1_555 1_555
C4 C3 1_555 1_555
H2 C4 1_555 1_555
C5 C4 1_555 1_555
H3 C5 1_555 1_555
C6 C1 1_555 1_555
H4 C6 1_555 1_555
C7 N2G 1_555 1_555
C8 O1 1_555 1_555
C9 O3 1_555 1_555
C10 N4 1_555 1_555
C11 H5 1_555 1_555
C12 C11 1_555 1_555
H6 C12 1_555 1_555
C13 C12 1_555 1_555
H7 C13 1_555 1_555
C14 C13 1_555 1_555
C15 C14 1_555 1_555
H8 C15 1_555 1_555
C16 C11 1_555 1_555
C17 N6G 1_555 1_555
C18 O5 1_555 1_555
C19 O6 1_555 1_555
C20 N8 1_555 1_555
C21 H9 1_555 1_555
H10 C21 1_555 1_555
C22 C21 1_555 1_555
H11 C22 1_555 1_555
H12 C22 1_555 1_555
H13 C22 1_555 1_555
C23 N9 1_555 1_555
H14 C23 1_555 1_555
H15 C23 1_555 1_555
C24 C23 1_555 1_555
H16 C24 1_555 1_555
H17 C24 1_555 1_555
H18 C24 1_555 1_555
C25 N9 1_555 1_555
H19 C25 1_555 1_555
H20 C25 1_555 1_555
C26 C25 1_555 1_555
H21 C26 1_555 1_555
H22 C26 1_555 1_555
H23 C26 1_555 1_555
C27 N9 1_555 1_555
H24 C27 1_555 1_555
H25 C27 1_555 1_555
C28 C27 1_555 1_555
H26 C28 1_555 1_555
H27 C28 1_555 1_555
H28 C28 1_555 1_555
O1G C1G 1_555 1_555
O3G C3G 1_555 1_555
O5G C16G 1_555 1_555
O6G C14G 1_555 1_555
N2G C8G 1_555 1_555
N4G C10 1_555 1_555
N6G C18G 1_555 1_555
N8G C20 1_555 1_555
C1G C2G 1_555 1_555
C2G H1G 1_555 1_555
C3G C2G 1_555 1_555
C4G C3G 1_555 1_555
H2G C4G 1_555 1_555
C5G C4G 1_555 1_555
H3G C5G 1_555 1_555
C6G C1G 1_555 1_555
H4G C6G 1_555 1_555
C8G N1 1_555 1_555
C9G N3 1_555 1_555
C11G H5G 1_555 1_555
C12G C11G 1_555 1_555
H6G C12G 1_555 1_555
C13G C12G 1_555 1_555
H7G C13G 1_555 1_555
C14G C13G 1_555 1_555
C15G C14G 1_555 1_555
H8G C15G 1_555 1_555
C16G C11G 1_555 1_555
C18G N5 1_555 1_555
C19G N7 1_555 1_555
N2 C8 1_555 1_555
N6 C18 1_555 1_555
C5 C6 1_555 1_555
C15 C16 1_555 1_555
O1G C8G 1_555 1_555
O3G C9G 1_555 1_555
O5G C18G 1_555 1_555
O6G C19G 1_555 1_555
N4G C9G 1_555 1_555
N8G C19G 1_555 1_555
C5G C6G 1_555 1_555
C15G C16G 1_555 1_555

#END
