
#######################################################################
#
#                 Cambridge Crystallographic Data Centre
#                                CCDC 
#
#######################################################################
#
# If this CIF has been generated from an entry in the Cambridge 
# Structural Database, then it will include bibliographic, chemical, 
# crystal, experimental, refinement or atomic coordinate data resulting 
# from the CCDC's data processing and validation procedures.
#
#######################################################################

data_YOKTEY
_chemical_formula_moiety         
'C8 H20 N1 1+,Cl1 1-,C18 H8 Cl2 N6 O4,1.5(H2 O1)'
_chemical_name_systematic        
'tetraethylammonium chloride 5,17-dichloro-2,8,14,20-tetraoxa-4,6,16,18,26,28-hexaazacalix(4)arene sesquihydrate'
_symmetry_cell_setting           orthorhombic
_symmetry_space_group_name_H-M   'P n m a'
_symmetry_Int_Tables_number      62
_space_group_name_Hall           '-P 2ac 2n'
loop_
_symmetry_equiv_pos_site_id
_symmetry_equiv_pos_as_xyz
1 x,y,z
2 1/2-x,-y,1/2+z
3 1/2+x,1/2-y,1/2-z
4 -x,1/2+y,-z
5 -x,-y,-z
6 1/2+x,y,1/2-z
7 1/2-x,1/2+y,1/2+z
8 x,1/2-y,z
_cell_length_a                   24.168(5)
_cell_length_b                   16.852(3)
_cell_length_c                   14.967(3)
_cell_angle_alpha                90
_cell_angle_beta                 90
_cell_angle_gamma                90
_cell_volume                     6095.75
_exptl_crystal_colour            colorless
_exptl_crystal_description       plate
_cell_formula_units_Z            8
_exptl_crystal_recrystallization_method n-hexane/dichloromethane
_exptl_crystal_preparation       fluorescent
loop_
_atom_site_label
_atom_site_type_symbol
_atom_site_fract_x
_atom_site_fract_y
_atom_site_fract_z
Cl1 Cl 0.18053(10) 0.2500 0.56929(14)
Cl2 Cl 0.13935(11) 0.2500 1.35603(15)
O1 O 0.07115(19) 0.1140(2) 0.7921(3)
O2 O 0.05389(18) 0.1144(2) 1.1106(3)
N1 N 0.0666(3) 0.2500 0.7973(4)
N2 N 0.1212(2) 0.1793(3) 0.6901(3)
N3 N 0.0503(3) 0.2500 1.1043(4)
N4 N 0.0933(2) 0.1795(3) 1.2226(3)
C1 C -0.0265(2) 0.0954(3) 1.0180(4)
H1 H -0.0488 0.0894 1.0698
C2 C -0.0485(3) 0.0865(4) 0.9342(5)
H2 H -0.0868 0.0749 0.9282
C3 C -0.0170(3) 0.0940(3) 0.8596(4)
H3 H -0.0326 0.0872 0.8019
C4 C 0.0380(2) 0.1117(3) 0.8700(4)
C5 C 0.0624(2) 0.1218(3) 0.9514(4)
H4 H 0.1006 0.1342 0.9566
C6 C 0.0295(2) 0.1132(3) 1.0251(4)
C7 C 0.0869(3) 0.1851(3) 0.7596(4)
C8 C 0.1356(4) 0.2500 0.6603(5)
C9 C 0.0661(2) 0.1851(3) 1.1459(3)
C10 C 0.1045(4) 0.2500 1.2558(5)
O1G O 0.07115(19) 0.3860(2) 0.7921(3)
O2G O 0.05389(18) 0.3856(2) 1.1106(3)
N2G N 0.1212(2) 0.3207(3) 0.6901(3)
N4G N 0.0933(2) 0.3205(3) 1.2226(3)
C1G C -0.0265(2) 0.4046(3) 1.0180(4)
H1G H -0.0488 0.4106 1.0698
C2G C -0.0485(3) 0.4135(4) 0.9342(5)
H2G H -0.0868 0.4251 0.9282
C3G C -0.0170(3) 0.4060(3) 0.8596(4)
H3G H -0.0326 0.4128 0.8019
C4G C 0.0380(2) 0.3883(3) 0.8700(4)
C5G C 0.0624(2) 0.3782(3) 0.9514(4)
H4G H 0.1006 0.3658 0.9566
C6G C 0.0295(2) 0.3868(3) 1.0251(4)
C7G C 0.0869(3) 0.3149(3) 0.7596(4)
C9G C 0.0661(2) 0.3149(3) 1.1459(3)
Cl3 Cl 0.31200(11) 0.2500 -0.34353(17)
Cl4 Cl 0.36461(11) 0.2500 0.43717(16)
O3 O 0.42729(19) 0.1146(2) -0.1292(3)
O4 O 0.44852(17) 0.1143(2) 0.1896(2)
N5 N 0.4296(3) 0.2500 -0.1215(5)
N6 N 0.3744(2) 0.1794(3) -0.2280(3)
N7 N 0.4531(3) 0.2500 0.1848(4)
N8 N 0.4102(2) 0.1799(3) 0.3030(3)
C11 C 0.5284(3) 0.0982(3) 0.0934(4)
H5 H 0.5519 0.0929 0.1439
C12 C 0.5489(2) 0.0915(4) 0.0087(4)
H6 H 0.5873 0.0812 0.0012
C13 C 0.5167(2) 0.0988(4) -0.0650(4)
H7 H 0.5321 0.0941 -0.1231
C14 C 0.4609(2) 0.1133(3) -0.0535(4)
C15 C 0.4378(2) 0.1223(3) 0.0317(4)
H8 H 0.3997 0.1344 0.0392
C16 C 0.4717(2) 0.1131(3) 0.1035(4)
C17 C 0.4100(2) 0.1847(4) -0.1604(4)
C18 C 0.3591(4) 0.2500 -0.2568(6)
C19 C 0.4371(2) 0.1852(4) 0.2258(3)
C20 C 0.3997(4) 0.2500 0.3366(5)
O3G O 0.42729(19) 0.3854(2) -0.1292(3)
O4G O 0.44852(17) 0.3857(2) 0.1896(2)
N6G N 0.3744(2) 0.3206(3) -0.2280(3)
N8G N 0.4102(2) 0.3201(3) 0.3030(3)
C11G C 0.5284(3) 0.4018(3) 0.0934(4)
H5G H 0.5519 0.4071 0.1439
C12G C 0.5489(2) 0.4085(4) 0.0087(4)
H6G H 0.5873 0.4188 0.0012
C13G C 0.5167(2) 0.4012(4) -0.0650(4)
H7G H 0.5321 0.4059 -0.1231
C14G C 0.4609(2) 0.3867(3) -0.0535(4)
C15G C 0.4378(2) 0.3777(3) 0.0317(4)
H8G H 0.3997 0.3656 0.0392
C16G C 0.4717(2) 0.3869(3) 0.1035(4)
C17G C 0.4100(2) 0.3153(4) -0.1604(4)
C19G C 0.4371(2) 0.3148(4) 0.2258(3)
Cl5 Cl 0.31007(10) 0.2500 0.14935(16)
Cl6 Cl 0.20070(13) 0.2500 0.8732(2)
O5 O 0.1796(3) 0.2500 1.0852(5)
O6 O 0.2034(4) -0.1521(5) 0.4732(5)
N9 N 0.25277(19) 0.0206(3) 0.2603(3)
C21 C 0.2145(3) -0.0282(4) 0.3183(5)
H9 H 0.2371 -0.0637 0.3561
H10 H 0.1914 -0.0620 0.2791
C22 C 0.1766(3) 0.0203(5) 0.3783(6)
H11 H 0.1533 -0.0156 0.4135
H12 H 0.1532 0.0547 0.3415
H13 H 0.1990 0.0529 0.4187
C23 C 0.2886(3) 0.0747(4) 0.3184(5)
H14 H 0.3123 0.1076 0.2792
H15 H 0.2643 0.1108 0.3526
C24 C 0.3250(3) 0.0297(5) 0.3829(5)
H16 H 0.3469 0.0674 0.4181
H17 H 0.3499 -0.0053 0.3495
H18 H 0.3019 -0.0021 0.4230
C25 C 0.2880(3) -0.0369(4) 0.2089(5)
H19 H 0.2634 -0.0726 0.1744
H20 H 0.3088 -0.0700 0.2519
C26 C 0.3290(3) 0.0015(5) 0.1444(5)
H21 H 0.3502 -0.0399 0.1137
H22 H 0.3544 0.0358 0.1779
H23 H 0.3088 0.0332 0.1003
C27 C 0.2212(3) 0.0758(4) 0.1985(5)
H24 H 0.2481 0.1074 0.1637
H25 H 0.1992 0.1131 0.2352
C28 C 0.1825(4) 0.0339(6) 0.1337(6)
H26 H 0.1637 0.0734 0.0964
H27 H 0.1549 0.0035 0.1674
H28 H 0.2038 -0.0022 0.0957
loop_
_geom_bond_atom_site_label_1
_geom_bond_atom_site_label_2
_geom_bond_site_symmetry_1
_geom_bond_site_symmetry_2
Cl1 C8 1_555 1_555
Cl2 C10 1_555 1_555
Cl3 C18 1_555 1_555
Cl4 C20 1_555 1_555
O1 C4 1_555 1_555
O2 C6 1_555 1_555
O3 C14 1_555 1_555
O4 C16 1_555 1_555
N1 C7 1_555 1_555
N2 C7 1_555 1_555
N3 C9 1_555 1_555
N4 C9 1_555 1_555
N5 C17 1_555 1_555
N6 C17 1_555 1_555
N7 C19 1_555 1_555
N8 C19 1_555 1_555
N9 C21 1_555 1_555
C1 H1 1_555 1_555
C2 C1 1_555 1_555
H2 C2 1_555 1_555
C3 C2 1_555 1_555
H3 C3 1_555 1_555
C4 C3 1_555 1_555
C5 C4 1_555 1_555
H4 C5 1_555 1_555
C6 C1 1_555 1_555
C7 O1 1_555 1_555
C8 N2 1_555 1_555
C9 O2 1_555 1_555
C10 N4 1_555 1_555
C11 H5 1_555 1_555
C12 C11 1_555 1_555
H6 C12 1_555 1_555
C13 C12 1_555 1_555
H7 C13 1_555 1_555
C14 C13 1_555 1_555
C15 C14 1_555 1_555
H8 C15 1_555 1_555
C16 C11 1_555 1_555
C17 O3 1_555 1_555
C18 N6 1_555 1_555
C19 O4 1_555 1_555
C20 N8 1_555 1_555
C21 H9 1_555 1_555
H10 C21 1_555 1_555
C22 C21 1_555 1_555
H11 C22 1_555 1_555
H12 C22 1_555 1_555
H13 C22 1_555 1_555
C23 N9 1_555 1_555
H14 C23 1_555 1_555
H15 C23 1_555 1_555
C24 C23 1_555 1_555
H16 C24 1_555 1_555
H17 C24 1_555 1_555
H18 C24 1_555 1_555
C25 N9 1_555 1_555
H19 C25 1_555 1_555
H20 C25 1_555 1_555
C26 C25 1_555 1_555
H21 C26 1_555 1_555
H22 C26 1_555 1_555
H23 C26 1_555 1_555
C27 N9 1_555 1_555
H24 C27 1_555 1_555
H25 C27 1_555 1_555
C28 C27 1_555 1_555
H26 C28 1_555 1_555
H27 C28 1_555 1_555
H28 C28 1_555 1_555
O1G C4G 1_555 1_555
O2G C6G 1_555 1_555
O3G C14G 1_555 1_555
O4G C16G 1_555 1_555
N2G C8 1_555 1_555
N4G C10 1_555 1_555
N6G C18 1_555 1_555
N8G C20 1_555 1_555
C1G H1G 1_555 1_555
C2G C1G 1_555 1_555
H2G C2G 1_555 1_555
C3G C2G 1_555 1_555
H3G C3G 1_555 1_555
C4G C3G 1_555 1_555
C5G C4G 1_555 1_555
H4G C5G 1_555 1_555
C6G C1G 1_555 1_555
C7G N1 1_555 1_555
C9G N3 1_555 1_555
C11G H5G 1_555 1_555
C12G C11G 1_555 1_555
H6G C12G 1_555 1_555
C13G C12G 1_555 1_555
H7G C13G 1_555 1_555
C14G C13G 1_555 1_555
C15G C14G 1_555 1_555
H8G C15G 1_555 1_555
C16G C11G 1_555 1_555
C17G N5 1_555 1_555
C19G N7 1_555 1_555
C5 C6 1_555 1_555
C15 C16 1_555 1_555
O1G C7G 1_555 1_555
O2G C9G 1_555 1_555
O3G C17G 1_555 1_555
O4G C19G 1_555 1_555
N2G C7G 1_555 1_555
N4G C9G 1_555 1_555
N6G C17G 1_555 1_555
N8G C19G 1_555 1_555
C5G C6G 1_555 1_555
C15G C16G 1_555 1_555

#END
