
#######################################################################
#
#                 Cambridge Crystallographic Data Centre
#                                CCDC 
#
#######################################################################
#
# If this CIF has been generated from an entry in the Cambridge 
# Structural Database, then it will include bibliographic, chemical, 
# crystal, experimental, refinement or atomic coordinate data resulting 
# from the CCDC's data processing and validation procedures.
#
#######################################################################

data_YOKVOL
_chemical_formula_moiety         'C40 H36 N4 O4'
_chemical_name_systematic        
2,7-dihexyl-4,9-bis(pyridin-4-ylethynyl)benzo[lmn][3,8]phenanthroline-1,3,6,8(2H,7H)-tetrone
_symmetry_cell_setting           triclinic
_symmetry_space_group_name_H-M   'P -1'
_symmetry_Int_Tables_number      2
_space_group_name_Hall           '-P 1'
loop_
_symmetry_equiv_pos_site_id
_symmetry_equiv_pos_as_xyz
1 x,y,z
2 -x,-y,-z
_cell_length_a                   5.0919(10)
_cell_length_b                   10.880(2)
_cell_length_c                   15.132(3)
_cell_angle_alpha                77.04(3)
_cell_angle_beta                 84.64(3)
_cell_angle_gamma                84.26(3)
_cell_volume                     810.679
_exptl_crystal_colour            yellow
_exptl_crystal_description       rod
_cell_formula_units_Z            1
loop_
_atom_site_label
_atom_site_type_symbol
_atom_site_fract_x
_atom_site_fract_y
_atom_site_fract_z
O1 O 0.3189(4) 1.1220(2) 0.72788(13)
O2 O -0.0687(4) 0.7984(2) 0.92162(14)
N1 N 0.1302(4) 0.9574(2) 0.82336(15)
N2 N -0.6643(5) 0.3681(2) 1.21725(18)
C1 C -0.5349(6) 0.3794(3) 1.1354(2)
H1 H -0.5806 0.3289 1.0963
C2 C -0.3384(5) 0.4605(3) 1.10441(19)
H2 H -0.2506 0.4641 1.0458
C3 C -0.2698(5) 0.5368(3) 1.15945(18)
C4 C -0.4005(6) 0.5244(3) 1.24534(19)
H3 H -0.3579 0.5730 1.2861
C5 C -0.5925(6) 0.4404(3) 1.2702(2)
H4 H -0.6804 0.4332 1.3291
C6 C -0.0801(5) 0.6282(3) 1.12754(18)
C7 C 0.0593(5) 0.7122(3) 1.09539(18)
C8 C 0.2294(5) 0.8140(2) 1.06954(18)
C9 C 0.0919(5) 0.8775(2) 0.90913(18)
C10 C 0.2537(5) 0.8913(2) 0.98268(18)
C11 C 0.4262(5) 0.9905(2) 0.96573(18)
C12 C 0.4531(5) 1.0696(2) 0.87778(18)
C13 C 0.2993(5) 1.0544(3) 0.80305(18)
C14 C 0.6217(5) 1.1649(3) 0.86192(19)
H5 H 0.6382 1.2182 0.8030
C15 C -0.0259(5) 0.9412(3) 0.74973(18)
H6 H -0.0821 1.0254 0.7129
H7 H -0.1872 0.8991 0.7767
C16 C 0.1321(6) 0.8628(3) 0.68825(19)
H8 H 0.2964 0.9034 0.6628
H9 H 0.1830 0.7776 0.7246
C17 C -0.0261(6) 0.8503(3) 0.61085(18)
H10 H -0.1911 0.8106 0.6366
H11 H -0.0763 0.9357 0.5746
C18 C 0.1253(6) 0.7720(3) 0.5487(2)
H12 H 0.2858 0.8144 0.5211
H13 H 0.1844 0.6886 0.5861
C19 C -0.0277(7) 0.7505(3) 0.4730(2)
H14 H -0.1839 0.7043 0.5002
H15 H -0.0927 0.8335 0.4366
C20 C 0.1334(8) 0.6771(4) 0.4112(2)
H16 H 0.0243 0.6663 0.3638
H17 H 0.1948 0.5938 0.4464
H18 H 0.2864 0.7231 0.3828
O1A O 0.6811(4) 0.8780(2) 1.27212(13)
O2A O 1.0687(4) 1.2016(2) 1.07838(14)
N1A N 0.8698(4) 1.0426(2) 1.17664(15)
N2A N 1.6643(5) 1.6319(2) 0.78275(18)
C1A C 1.5349(6) 1.6206(3) 0.8646(2)
H1A H 1.5806 1.6711 0.9037
C2A C 1.3384(5) 1.5395(3) 0.89559(19)
H2A H 1.2506 1.5359 0.9542
C3A C 1.2698(5) 1.4632(3) 0.84055(18)
C4A C 1.4005(6) 1.4756(3) 0.75466(19)
H3A H 1.3579 1.4270 0.7139
C5A C 1.5925(6) 1.5596(3) 0.7298(2)
H4A H 1.6804 1.5668 0.6709
C6A C 1.0801(5) 1.3718(3) 0.87246(18)
C7A C 0.9407(5) 1.2878(3) 0.90461(18)
C8A C 0.7706(5) 1.1860(2) 0.93046(18)
C9A C 0.9081(5) 1.1225(2) 1.09087(18)
C10A C 0.7463(5) 1.1087(2) 1.01732(18)
C11A C 0.5738(5) 1.0095(2) 1.03427(18)
C12A C 0.5469(5) 0.9304(2) 1.12222(18)
C13A C 0.7007(5) 0.9456(3) 1.19695(18)
C14A C 0.3783(5) 0.8351(3) 1.13808(19)
H5A H 0.3618 0.7818 1.1970
C15A C 1.0259(5) 1.0588(3) 1.25027(18)
H6A H 1.0821 0.9746 1.2871
H7A H 1.1872 1.1009 1.2233
C16A C 0.8679(6) 1.1372(3) 1.31175(19)
H8A H 0.7036 1.0966 1.3372
H9A H 0.8170 1.2224 1.2754
C17A C 1.0261(6) 1.1497(3) 1.38915(18)
H10A H 1.1911 1.1894 1.3634
H11A H 1.0763 1.0643 1.4254
C18A C 0.8747(6) 1.2280(3) 1.4513(2)
H12A H 0.7142 1.1856 1.4789
H13A H 0.8156 1.3114 1.4139
C19A C 1.0277(7) 1.2495(3) 1.5270(2)
H14A H 1.1839 1.2957 1.4998
H15A H 1.0927 1.1665 1.5634
C20A C 0.8666(8) 1.3229(4) 1.5888(2)
H16A H 0.9757 1.3337 1.6362
H17A H 0.8052 1.4062 1.5536
H18A H 0.7136 1.2769 1.6172
loop_
_geom_bond_atom_site_label_1
_geom_bond_atom_site_label_2
_geom_bond_site_symmetry_1
_geom_bond_site_symmetry_2
O1 C13 1_555 1_555
O2 C9 1_555 1_555
N1 C9 1_555 1_555
N2 C1 1_555 1_555
C1 H1 1_555 1_555
C2 C1 1_555 1_555
H2 C2 1_555 1_555
C3 C2 1_555 1_555
C4 C3 1_555 1_555
H3 C4 1_555 1_555
C5 N2 1_555 1_555
H4 C5 1_555 1_555
C6 C3 1_555 1_555
C7 C6 1_555 1_555
C8 C7 1_555 1_555
C9 C10 1_555 1_555
C10 C8 1_555 1_555
C11 C10 1_555 1_555
C12 C11 1_555 1_555
C13 N1 1_555 1_555
C14 C12 1_555 1_555
H5 C14 1_555 1_555
C15 N1 1_555 1_555
H6 C15 1_555 1_555
H7 C15 1_555 1_555
C16 C15 1_555 1_555
H8 C16 1_555 1_555
H9 C16 1_555 1_555
C17 C16 1_555 1_555
H10 C17 1_555 1_555
H11 C17 1_555 1_555
C18 C17 1_555 1_555
H12 C18 1_555 1_555
H13 C18 1_555 1_555
C19 C18 1_555 1_555
H14 C19 1_555 1_555
H15 C19 1_555 1_555
C20 C19 1_555 1_555
H16 C20 1_555 1_555
H17 C20 1_555 1_555
H18 C20 1_555 1_555
O1A C13A 1_555 1_555
O2A C9A 1_555 1_555
N1A C9A 1_555 1_555
N2A C1A 1_555 1_555
C1A H1A 1_555 1_555
C2A C1A 1_555 1_555
H2A C2A 1_555 1_555
C3A C2A 1_555 1_555
C4A C3A 1_555 1_555
H3A C4A 1_555 1_555
C5A N2A 1_555 1_555
H4A C5A 1_555 1_555
C6A C3A 1_555 1_555
C7A C6A 1_555 1_555
C8A C14 1_555 1_555
C9A C10A 1_555 1_555
C10A C8A 1_555 1_555
C11A C11 1_555 1_555
C12A C11A 1_555 1_555
C13A N1A 1_555 1_555
C14A C8 1_555 1_555
H5A C14A 1_555 1_555
C15A N1A 1_555 1_555
H6A C15A 1_555 1_555
H7A C15A 1_555 1_555
C16A C15A 1_555 1_555
H8A C16A 1_555 1_555
H9A C16A 1_555 1_555
C17A C16A 1_555 1_555
H10A C17A 1_555 1_555
H11A C17A 1_555 1_555
C18A C17A 1_555 1_555
H12A C18A 1_555 1_555
H13A C18A 1_555 1_555
C19A C18A 1_555 1_555
H14A C19A 1_555 1_555
H15A C19A 1_555 1_555
C20A C19A 1_555 1_555
H16A C20A 1_555 1_555
H17A C20A 1_555 1_555
H18A C20A 1_555 1_555
C4 C5 1_555 1_555
C12 C13 1_555 1_555
C4A C5A 1_555 1_555
C7A C8A 1_555 1_555
C10A C11A 1_555 1_555
C12A C13A 1_555 1_555
C12A C14A 1_555 1_555

#END
