
#######################################################################
#
#                 Cambridge Crystallographic Data Centre
#                                CCDC 
#
#######################################################################
#
# If this CIF has been generated from an entry in the Cambridge 
# Structural Database, then it will include bibliographic, chemical, 
# crystal, experimental, refinement or atomic coordinate data resulting 
# from the CCDC's data processing and validation procedures.
#
#######################################################################

data_YOKVEA
_chemical_formula_moiety         'C21 H22 O3'
_chemical_name_systematic        
1-phenyl-1,3,4,5a,6,7,8,9,10,10b-decahydro-7,10c-epoxy-2-oxabenzo[cd]cyclopenta[h]azulen-5(2aH)-one
_symmetry_cell_setting           monoclinic
_symmetry_space_group_name_H-M   'P 21/c'
_symmetry_Int_Tables_number      14
_space_group_name_Hall           '-P 2ybc'
loop_
_symmetry_equiv_pos_site_id
_symmetry_equiv_pos_as_xyz
1 x,y,z
2 -x,1/2+y,1/2-z
3 -x,-y,-z
4 x,1/2-y,1/2+z
_cell_length_a                   16.7628(12)
_cell_length_b                   11.9143(9)
_cell_length_c                   8.5713(6)
_cell_angle_alpha                90
_cell_angle_beta                 103.540(5)
_cell_angle_gamma                90
_cell_volume                     1664.26
_exptl_crystal_colour            white
_exptl_crystal_description       needle
_cell_formula_units_Z            4
loop_
_atom_site_label
_atom_site_type_symbol
_atom_site_fract_x
_atom_site_fract_y
_atom_site_fract_z
O1 O 0.35553(7) -0.02825(10) 0.36603(13)
C1 C 0.38505(11) 0.01383(16) 0.1265(2)
H1 H 0.3679 0.0521 0.0228
C2 C 0.25021(11) 0.09175(14) 0.2089(2)
H2 H 0.2373 0.1321 0.1065
C3 C 0.34223(11) 0.06301(14) 0.25099(19)
C4 C 0.32266(12) -0.12293(15) 0.2655(2)
H3 H 0.3394 -0.1944 0.3201
C5 C 0.23127(12) -0.11179(17) 0.2188(2)
C6 C 0.19803(11) -0.01118(16) 0.1926(2)
C7 C 0.10591(13) -0.0178(2) 0.1371(3)
H4 H 0.0796 0.0155 0.2154
H5 H 0.0868 0.0200 0.0351
C8 C 0.35787(13) -0.10931(17) 0.1151(3)
H6 H 0.4039 -0.1593 0.1190
H7 H 0.3163 -0.1234 0.0175
C9 C 0.16912(15) -0.2043(2) 0.1839(3)
H8 H 0.1679 -0.2462 0.2804
H9 H 0.1805 -0.2555 0.1038
C10 C 0.08882(18) -0.1416(3) 0.1210(5)
H10 H 0.0663 -0.1607 0.0093
H11 H 0.0492 -0.1625 0.1822
C11 C 0.19795(12) 0.13427(15) 0.4673(2)
C12 C 0.23455(14) 0.06356(16) 0.5919(2)
H12 H 0.2893 0.0433 0.6055
C13 C 0.11719(13) 0.16540(18) 0.4538(3)
H13 H 0.0925 0.2154 0.3737
C14 C 0.18930(18) 0.02291(18) 0.6963(3)
H14 H 0.2140 -0.0246 0.7798
C15 C 0.07234(15) 0.1234(2) 0.5574(3)
H15 H 0.0176 0.1438 0.5448
C16 C 0.10816(18) 0.0524(2) 0.6773(3)
H16 H 0.0780 0.0238 0.7465
O2 O 0.32642(8) 0.20329(11) 0.42920(15)
C17 C 0.24370(11) 0.17646(14) 0.3467(2)
H17 H 0.2169 0.2452 0.2975
C18 C 0.37876(11) 0.17094(15) 0.3269(2)
H18 H 0.3742 0.2276 0.2423
C19 C 0.46741(12) 0.16059(17) 0.4123(2)
H19 H 0.4740 0.1055 0.4977
H20 H 0.4882 0.2321 0.4587
C20 C 0.47842(12) 0.02133(19) 0.1936(2)
O3 O 0.52312(9) -0.05404(14) 0.17033(18)
C21 C 0.51387(12) 0.12355(19) 0.2871(2)
H21 H 0.5139 0.1849 0.2127
H22 H 0.5704 0.1082 0.3409
loop_
_geom_bond_atom_site_label_1
_geom_bond_atom_site_label_2
_geom_bond_site_symmetry_1
_geom_bond_site_symmetry_2
O1 C3 1_555 1_555
C1 H1 1_555 1_555
C2 H2 1_555 1_555
C3 C1 1_555 1_555
C4 O1 1_555 1_555
H3 C4 1_555 1_555
C5 C4 1_555 1_555
C6 C2 1_555 1_555
C7 C6 1_555 1_555
H4 C7 1_555 1_555
H5 C7 1_555 1_555
C8 C1 1_555 1_555
H6 C8 1_555 1_555
H7 C8 1_555 1_555
C9 C5 1_555 1_555
H8 C9 1_555 1_555
H9 C9 1_555 1_555
C10 C7 1_555 1_555
H10 C10 1_555 1_555
H11 C10 1_555 1_555
C11 C12 1_555 1_555
C12 H12 1_555 1_555
C13 C11 1_555 1_555
H13 C13 1_555 1_555
C14 C12 1_555 1_555
H14 C14 1_555 1_555
C15 C13 1_555 1_555
H15 C15 1_555 1_555
C16 C14 1_555 1_555
H16 C16 1_555 1_555
O2 C17 1_555 1_555
C17 C2 1_555 1_555
H17 C17 1_555 1_555
C18 C3 1_555 1_555
H18 C18 1_555 1_555
C19 C18 1_555 1_555
H19 C19 1_555 1_555
H20 C19 1_555 1_555
C20 C1 1_555 1_555
O3 C20 1_555 1_555
C21 C19 1_555 1_555
H21 C21 1_555 1_555
H22 C21 1_555 1_555
C2 C3 1_555 1_555
C4 C8 1_555 1_555
C5 C6 1_555 1_555
C9 C10 1_555 1_555
C11 C17 1_555 1_555
C15 C16 1_555 1_555
O2 C18 1_555 1_555
C20 C21 1_555 1_555

#END
