
#######################################################################
#
#                 Cambridge Crystallographic Data Centre
#                                CCDC 
#
#######################################################################
#
# If this CIF has been generated from an entry in the Cambridge 
# Structural Database, then it will include bibliographic, chemical, 
# crystal, experimental, refinement or atomic coordinate data resulting 
# from the CCDC's data processing and validation procedures.
#
#######################################################################

data_YOKWEB
_chemical_formula_moiety         'C20 H31 N1 O6'
_chemical_name_systematic        
'(S,R)-(2-(nitromethyl)-1-propylcyclopentyl)methyl 4,7,7-trimethyl-3-oxo-2-oxabicyclo[2.2.1]heptane-1-carboxylate'
_symmetry_cell_setting           orthorhombic
_symmetry_space_group_name_H-M   'P 21 21 21'
_symmetry_Int_Tables_number      19
_space_group_name_Hall           'P 2ac 2ab'
loop_
_symmetry_equiv_pos_site_id
_symmetry_equiv_pos_as_xyz
1 x,y,z
2 1/2-x,-y,1/2+z
3 1/2+x,1/2-y,-z
4 -x,1/2+y,1/2-z
_cell_length_a                   8.0020(18)
_cell_length_b                   8.0050(16)
_cell_length_c                   63.852(16)
_cell_angle_alpha                90
_cell_angle_beta                 90
_cell_angle_gamma                90
_cell_volume                     4090.1
_exptl_crystal_colour            colorless
_exptl_crystal_description       block
_cell_formula_units_Z            8
loop_
_atom_site_label
_atom_site_type_symbol
_atom_site_fract_x
_atom_site_fract_y
_atom_site_fract_z
O1 O 0.8824(6) 0.5872(6) 0.44999(8)
O4 O 1.2791(6) 0.7603(7) 0.43658(9)
O5 O 1.1376(7) 0.4680(7) 0.44727(10)
N2 N 0.5186(8) 0.8266(8) 0.48850(10)
C2 C 0.6279(8) 0.4270(8) 0.45623(10)
O8 O 1.4627(7) 0.9277(8) 0.42043(12)
C3 C 1.0967(8) 0.7594(9) 0.43812(10)
C5 C 0.5774(8) 0.4593(9) 0.43307(10)
H1 H 0.4555 0.4412 0.4318
H2 H 0.5994 0.5782 0.4298
C6 C 1.0468(8) 0.5868(9) 0.44523(11)
C8 C 0.5329(8) 0.5501(9) 0.47099(11)
H5 H 0.4196 0.5696 0.4648
C9 C 0.5709(10) 0.2489(9) 0.46427(13)
H6 H 0.5086 0.1891 0.4532
H7 H 0.6693 0.1810 0.4683
C10 C 1.1592(9) 0.9720(9) 0.41725(12)
O10 O 0.3868(8) 0.8804(10) 0.48259(12)
C13 C 1.0488(9) 0.8140(9) 0.41582(11)
C14 C 0.6174(10) 0.7206(9) 0.47353(11)
H8 H 0.7324 0.7053 0.4789
H9 H 0.6244 0.7769 0.4598
C20 C 0.5097(12) 0.4525(10) 0.49140(12)
H18 H 0.4213 0.5029 0.5002
H19 H 0.6151 0.4470 0.4995
C23 C 1.0524(10) 0.9073(9) 0.45245(11)
H23 H 1.1213 0.9079 0.4653
H24 H 0.9326 0.9071 0.4563
O11 O 0.5745(13) 0.8546(11) 0.50558(11)
C26 C 0.8163(9) 0.4335(9) 0.45901(11)
H27 H 0.8442 0.4285 0.4741
H28 H 0.8681 0.3359 0.4520
C27 C 0.8594(10) 0.8547(12) 0.41321(13)
H29 H 0.8374 0.8883 0.3987
H30 H 0.8288 0.9461 0.4227
H31 H 0.7931 0.7554 0.4166
C29 C 0.4577(14) 0.2790(10) 0.48345(14)
H35 H 0.3383 0.2778 0.4794
H36 H 0.4767 0.1928 0.4943
C32 C 0.6634(11) 0.3545(10) 0.41687(11)
H41 H 0.6428 0.2351 0.4200
H42 H 0.7853 0.3740 0.4177
C33 C 1.0966(11) 1.0566(10) 0.43774(14)
H43 H 0.9969 1.1265 0.4350
H44 H 1.1851 1.1272 0.4440
C34 C 1.1716(14) 1.0863(13) 0.39802(16)
H45 H 1.2456 1.1805 0.4012
H46 H 1.0602 1.1284 0.3944
H47 H 1.2168 1.0230 0.3862
C35 C 1.3199(10) 0.8909(10) 0.42390(14)
C38 C 1.1003(13) 0.6908(13) 0.39904(13)
H54 H 1.2194 0.6648 0.4005
H55 H 1.0801 0.7397 0.3852
H56 H 1.0347 0.5881 0.4005
C40 C 0.6038(16) 0.3927(15) 0.39458(13)
H60 H 0.6637 0.3212 0.3846
H61 H 0.6259 0.5102 0.3913
H62 H 0.4835 0.3710 0.3935
O2 O 0.3310(7) 0.6585(6) 0.29986(7)
O3 O 0.5036(7) 1.0587(6) 0.31268(8)
C1 C 0.4998(9) 0.8763(8) 0.31253(11)
O6 O 0.6673(8) 1.2475(7) 0.32797(11)
N1 N 0.5752(8) 0.2940(9) 0.26170(10)
O7 O 0.2113(7) 0.9116(7) 0.30281(11)
C4 C 0.1754(8) 0.4008(8) 0.29312(10)
O9 O 0.6330(9) 0.1614(8) 0.26749(11)
C7 C 0.1785(9) 0.5935(8) 0.29055(11)
H3 H 0.1742 0.6231 0.2755
H4 H 0.0799 0.6433 0.2975
C11 C 0.3318(10) 0.8213(9) 0.30478(11)
C12 C 0.5480(11) 0.8335(10) 0.33568(11)
C15 C 0.0001(9) 0.3471(10) 0.28458(12)
H10 H -0.0620 0.2839 0.2954
H11 H -0.0663 0.4467 0.2807
C16 C 0.4698(9) 0.3951(9) 0.27626(11)
H12 H 0.4556 0.5094 0.2706
H13 H 0.5249 0.4032 0.2901
C17 C 0.7065(11) 0.9444(10) 0.33434(13)
C18 C 0.2036(10) 0.3513(9) 0.31615(10)
H14 H 0.3219 0.3737 0.3197
H15 H 0.1854 0.2294 0.3175
C19 C 0.0918(10) 0.4409(10) 0.33245(12)
H16 H 0.1142 0.5625 0.3320
H17 H -0.0272 0.4231 0.3289
C21 C 0.7995(10) 0.8708(10) 0.31490(16)
H20 H 0.8726 0.9556 0.3083
H21 H 0.8677 0.7725 0.3188
C22 C 0.2985(9) 0.3102(8) 0.27857(10)
H22 H 0.3180 0.1963 0.2845
C24 C 0.6302(10) 1.1030(9) 0.32540(13)
C25 C 0.2060(10) 0.2881(10) 0.25763(12)
H25 H 0.2573 0.1991 0.2490
H26 H 0.2028 0.3935 0.2495
C28 C 0.1254(16) 0.3748(13) 0.35446(12)
H32 H 0.0538 0.4335 0.3645
H33 H 0.2429 0.3936 0.3581
H34 H 0.1012 0.2549 0.3549
C30 C 0.6542(9) 0.8206(10) 0.30009(12)
H37 H 0.6618 0.8798 0.2865
H38 H 0.6530 0.6986 0.2975
C31 C 0.0305(11) 0.2376(13) 0.26541(14)
H39 H -0.0548 0.2589 0.2545
H40 H 0.0275 0.1178 0.2692
O12 O 0.6053(11) 0.3490(11) 0.24453(10)
C36 C 0.5815(14) 0.6467(11) 0.33997(14)
H48 H 0.6106 0.6314 0.3548
H49 H 0.6742 0.6084 0.3312
H50 H 0.4810 0.5818 0.3367
C37 C 0.4168(14) 0.9016(13) 0.35113(13)
H51 H 0.3970 1.0203 0.3483
H52 H 0.4578 0.8886 0.3655
H53 H 0.3121 0.8395 0.3495
C39 C 0.8131(17) 0.9689(14) 0.35356(19)
H57 H 0.7446 1.0150 0.3649
H58 H 0.9044 1.0464 0.3503
H59 H 0.8597 0.8612 0.3579
loop_
_geom_bond_atom_site_label_1
_geom_bond_atom_site_label_2
_geom_bond_site_symmetry_1
_geom_bond_site_symmetry_2
O1 C6 1_555 1_555
O2 C7 1_555 1_555
O3 C1 1_555 1_555
O4 C3 1_555 1_555
C1 C11 1_555 1_555
O5 C6 1_555 1_555
O6 C24 1_555 1_555
N1 O9 1_555 1_555
O7 C11 1_555 1_555
N2 O10 1_555 1_555
C2 C5 1_555 1_555
O8 C35 1_555 1_555
C3 C6 1_555 1_555
C4 C7 1_555 1_555
C5 H1 1_555 1_555
H2 C5 1_555 1_555
C7 H3 1_555 1_555
H4 C7 1_555 1_555
C8 C2 1_555 1_555
H5 C8 1_555 1_555
C9 C2 1_555 1_555
H6 C9 1_555 1_555
H7 C9 1_555 1_555
C10 C13 1_555 1_555
C11 O2 1_555 1_555
C12 C1 1_555 1_555
C13 C3 1_555 1_555
C14 N2 1_555 1_555
H8 C14 1_555 1_555
H9 C14 1_555 1_555
C15 C4 1_555 1_555
H10 C15 1_555 1_555
H11 C15 1_555 1_555
C16 N1 1_555 1_555
H12 C16 1_555 1_555
H13 C16 1_555 1_555
C17 C12 1_555 1_555
C18 C4 1_555 1_555
H14 C18 1_555 1_555
H15 C18 1_555 1_555
C19 C18 1_555 1_555
H16 C19 1_555 1_555
H17 C19 1_555 1_555
C20 C8 1_555 1_555
H18 C20 1_555 1_555
H19 C20 1_555 1_555
C21 C17 1_555 1_555
H20 C21 1_555 1_555
H21 C21 1_555 1_555
C22 C4 1_555 1_555
H22 C22 1_555 1_555
C23 C3 1_555 1_555
H23 C23 1_555 1_555
H24 C23 1_555 1_555
C24 O3 1_555 1_555
O11 N2 1_555 1_555
C25 C22 1_555 1_555
H25 C25 1_555 1_555
H26 C25 1_555 1_555
C26 O1 1_555 1_555
H27 C26 1_555 1_555
H28 C26 1_555 1_555
C27 C13 1_555 1_555
H29 C27 1_555 1_555
H30 C27 1_555 1_555
H31 C27 1_555 1_555
C28 C19 1_555 1_555
H32 C28 1_555 1_555
H33 C28 1_555 1_555
H34 C28 1_555 1_555
C29 C9 1_555 1_555
H35 C29 1_555 1_555
H36 C29 1_555 1_555
C30 C1 1_555 1_555
H37 C30 1_555 1_555
H38 C30 1_555 1_555
C31 C15 1_555 1_555
H39 C31 1_555 1_555
H40 C31 1_555 1_555
C32 C5 1_555 1_555
H41 C32 1_555 1_555
H42 C32 1_555 1_555
C33 C10 1_555 1_555
H43 C33 1_555 1_555
H44 C33 1_555 1_555
O12 N1 1_555 1_555
C34 C10 1_555 1_555
H45 C34 1_555 1_555
H46 C34 1_555 1_555
H47 C34 1_555 1_555
C35 O4 1_555 1_555
C36 C12 1_555 1_555
H48 C36 1_555 1_555
H49 C36 1_555 1_555
H50 C36 1_555 1_555
C37 C12 1_555 1_555
H51 C37 1_555 1_555
H52 C37 1_555 1_555
H53 C37 1_555 1_555
C38 C13 1_555 1_555
H54 C38 1_555 1_555
H55 C38 1_555 1_555
H56 C38 1_555 1_555
C39 C17 1_555 1_555
H57 C39 1_555 1_555
H58 C39 1_555 1_555
H59 C39 1_555 1_555
C40 C32 1_555 1_555
H60 C40 1_555 1_555
H61 C40 1_555 1_555
H62 C40 1_555 1_555
C2 C26 1_555 1_555
C8 C14 1_555 1_555
C10 C35 1_555 1_555
C16 C22 1_555 1_555
C17 C24 1_555 1_555
C20 C29 1_555 1_555
C21 C30 1_555 1_555
C23 C33 1_555 1_555
C25 C31 1_555 1_555

#END
