
#######################################################################
#
#                 Cambridge Crystallographic Data Centre
#                                CCDC 
#
#######################################################################
#
# If this CIF has been generated from an entry in the Cambridge 
# Structural Database, then it will include bibliographic, chemical, 
# crystal, experimental, refinement or atomic coordinate data resulting 
# from the CCDC's data processing and validation procedures.
#
#######################################################################

data_YOKYUU
_chemical_formula_moiety         'C13 H7 F1 O2'
_chemical_name_systematic        2-Fluoro-6H-benzo[c]chromen-6-one
_symmetry_cell_setting           orthorhombic
_symmetry_space_group_name_H-M   'P n a 21'
_symmetry_Int_Tables_number      33
_space_group_name_Hall           'P 2c -2n'
loop_
_symmetry_equiv_pos_site_id
_symmetry_equiv_pos_as_xyz
1 x,y,z
2 -x,-y,1/2+z
3 1/2+x,1/2-y,z
4 1/2-x,1/2+y,1/2+z
_cell_length_a                   13.795(3)
_cell_length_b                   17.654(4)
_cell_length_c                   3.7688(8)
_cell_angle_alpha                90
_cell_angle_beta                 90
_cell_angle_gamma                90
_cell_volume                     917.842
_exptl_crystal_colour            colorless
_exptl_crystal_description       plate
_cell_formula_units_Z            4
loop_
_atom_site_label
_atom_site_type_symbol
_atom_site_fract_x
_atom_site_fract_y
_atom_site_fract_z
C1 C 0.74474(18) 0.57201(13) 1.0053(7)
C2 C 0.80474(18) 0.51355(13) 0.8956(7)
H1 H 0.7857 0.4621 0.9196
C3 C 0.89333(18) 0.53298(13) 0.7500(6)
H2 H 0.9361 0.4947 0.6666
C4 C 0.91940(17) 0.60870(12) 0.7266(6)
C5 C 1.04521(17) 0.69446(13) 0.5342(7)
C6 C 0.98481(18) 0.75775(12) 0.6569(7)
C7 C 1.02077(18) 0.83129(13) 0.6172(7)
H3 H 1.0830 0.8392 0.5156
C8 C 0.96614(19) 0.89221(13) 0.7252(7)
H4 H 0.9907 0.9422 0.7003
C9 C 0.87467(18) 0.88043(13) 0.8712(7)
H5 H 0.8370 0.9227 0.9440
C10 C 0.83793(18) 0.80835(13) 0.9117(7)
H6 H 0.7754 0.8013 1.0119
C11 C 0.89283(17) 0.74539(13) 0.8051(6)
C12 C 0.85912(17) 0.66698(12) 0.8405(6)
C13 C 0.76869(17) 0.64698(13) 0.9827(6)
H7 H 0.7249 0.6849 1.0619
F1 F 0.65714(10) 0.55307(8) 1.1476(4)
O1 O 1.12344(13) 0.70001(10) 0.3932(5)
O2 O 1.00984(12) 0.62255(9) 0.5792(5)
loop_
_geom_bond_atom_site_label_1
_geom_bond_atom_site_label_2
_geom_bond_site_symmetry_1
_geom_bond_site_symmetry_2
C1 C2 1_555 1_555
C2 H1 1_555 1_555
C3 C2 1_555 1_555
H2 C3 1_555 1_555
C4 C3 1_555 1_555
C5 C6 1_555 1_555
C6 C7 1_555 1_555
C7 H3 1_555 1_555
C8 C7 1_555 1_555
H4 C8 1_555 1_555
C9 C8 1_555 1_555
H5 C9 1_555 1_555
C10 C9 1_555 1_555
H6 C10 1_555 1_555
C11 C6 1_555 1_555
C12 C4 1_555 1_555
C13 C1 1_555 1_555
H7 C13 1_555 1_555
F1 C1 1_555 1_555
O1 C5 1_555 1_555
O2 C4 1_555 1_555
C5 O2 1_555 1_555
C10 C11 1_555 1_555
C11 C12 1_555 1_555
C12 C13 1_555 1_555

#END
