
#######################################################################
#
#                 Cambridge Crystallographic Data Centre
#                                CCDC 
#
#######################################################################
#
# If this CIF has been generated from an entry in the Cambridge 
# Structural Database, then it will include bibliographic, chemical, 
# crystal, experimental, refinement or atomic coordinate data resulting 
# from the CCDC's data processing and validation procedures.
#
#######################################################################

data_YOKYEE
_chemical_formula_moiety         'C14 H10 O3'
_chemical_name_systematic        3-Methoxy-6H-benzo[c]chromen-6-one
_symmetry_cell_setting           monoclinic
_symmetry_space_group_name_H-M   'P n'
_symmetry_Int_Tables_number      7
_space_group_name_Hall           'P -2yac'
loop_
_symmetry_equiv_pos_site_id
_symmetry_equiv_pos_as_xyz
1 x,y,z
2 1/2+x,-y,1/2+z
_cell_length_a                   16.0795(18)
_cell_length_b                   3.8084(4)
_cell_length_c                   16.6901(17)
_cell_angle_alpha                90
_cell_angle_beta                 96.927(3)
_cell_angle_gamma                90
_cell_volume                     1014.59
_exptl_crystal_colour            colorless
_exptl_crystal_description       block
_cell_formula_units_Z            4
loop_
_atom_site_label
_atom_site_type_symbol
_atom_site_fract_x
_atom_site_fract_y
_atom_site_fract_z
O1 O 0.7554(3) 0.2952(12) 0.1990(3)
C1 C 0.7490(4) 0.2641(16) 0.0587(4)
H1 H 0.8036 0.1648 0.0658
O2 O 0.7368(3) 0.2296(13) -0.0875(3)
C2 C 0.6319(4) 0.5215(16) 0.1193(4)
O3 O 0.7694(3) 0.2813(13) 0.3313(3)
C3 C 0.5201(4) 0.7923(17) 0.1945(4)
H2 H 0.4876 0.8536 0.1451
C4 C 0.5368(4) 0.7855(18) 0.3402(4)
H3 H 0.5158 0.8416 0.3894
C5 C 0.6433(4) 0.5408(16) 0.2675(4)
C6 C 0.7100(4) 0.3624(17) 0.1252(4)
C7 C 0.7071(4) 0.3129(17) -0.0178(4)
C8 C 0.5973(4) 0.6228(16) 0.1934(4)
C9 C 0.6264(4) 0.4697(18) -0.0259(4)
H4 H 0.5971 0.5054 -0.0781
C10 C 0.7257(3) 0.3663(15) 0.2707(4)
C11 C 0.5906(4) 0.5696(17) 0.0405(4)
H5 H 0.5366 0.6742 0.0336
C12 C 0.6129(4) 0.6194(17) 0.3405(4)
H6 H 0.6447 0.5583 0.3902
C13 C 0.4911(4) 0.8701(17) 0.2662(4)
H7 H 0.4385 0.9845 0.2657
C14 C 0.8186(4) 0.077(2) -0.0823(5)
H8 H 0.8581 0.2222 -0.0474
H9 H 0.8364 0.0649 -0.1364
H10 H 0.8172 -0.1599 -0.0597
C15 C 0.6717(3) 1.0061(16) 0.5712(4)
C16 C 0.5897(4) 0.9741(16) 0.6859(4)
C17 C 0.5326(4) 1.2471(16) 0.5554(4)
C18 C 0.8105(4) 0.7843(15) 0.5740(4)
C19 C 0.7368(4) 0.7308(16) 0.6897(4)
H11 H 0.7357 0.6506 0.7434
C20 C 0.4481(4) 1.2147(15) 0.6682(4)
H12 H 0.4035 1.3262 0.6352
O4 O 0.6056(3) 1.1753(12) 0.5248(3)
O5 O 0.8834(3) 0.7181(12) 0.5427(3)
C21 C 0.6669(4) 0.9017(15) 0.6499(4)
O6 O 0.4789(3) 1.3974(12) 0.5093(3)
C22 C 0.5232(4) 1.1473(15) 0.6373(4)
C23 C 0.8071(4) 0.6773(17) 0.6520(4)
H13 H 0.8544 0.5640 0.6805
C24 C 0.8886(4) 0.8284(17) 0.4616(4)
H14 H 0.8486 0.6938 0.4246
H15 H 0.9455 0.7879 0.4481
H16 H 0.8753 1.0791 0.4563
C25 C 0.7421(4) 0.9524(16) 0.5313(4)
H17 H 0.7433 1.0276 0.4772
C26 C 0.5039(4) 0.9582(17) 0.7944(4)
H18 H 0.4975 0.8940 0.8483
C27 C 0.5783(4) 0.8901(17) 0.7646(4)
H19 H 0.6227 0.7832 0.7987
C28 C 0.4378(4) 1.1205(18) 0.7466(4)
H20 H 0.3864 1.1658 0.7675
loop_
_geom_bond_atom_site_label_1
_geom_bond_atom_site_label_2
_geom_bond_site_symmetry_1
_geom_bond_site_symmetry_2
O1 C6 1_555 1_555
C1 H1 1_555 1_555
O2 C7 1_555 1_555
C2 C6 1_555 1_555
O3 C10 1_555 1_555
C3 H2 1_555 1_555
C4 H3 1_555 1_555
C5 C8 1_555 1_555
C6 C1 1_555 1_555
C7 C1 1_555 1_555
C8 C2 1_555 1_555
C9 C7 1_555 1_555
H4 C9 1_555 1_555
C10 O1 1_555 1_555
C11 C2 1_555 1_555
H5 C11 1_555 1_555
C12 C4 1_555 1_555
H6 C12 1_555 1_555
C13 C3 1_555 1_555
H7 C13 1_555 1_555
C14 O2 1_555 1_555
H8 C14 1_555 1_555
H9 C14 1_555 1_555
H10 C14 1_555 1_555
C15 O4 1_555 1_555
C16 C21 1_555 1_555
C17 O4 1_555 1_555
C18 O5 1_555 1_555
C19 H11 1_555 1_555
C20 H12 1_555 1_555
O5 C24 1_555 1_555
C21 C15 1_555 1_555
O6 C17 1_555 1_555
C22 C16 1_555 1_555
C23 C18 1_555 1_555
H13 C23 1_555 1_555
C24 H14 1_555 1_555
H15 C24 1_555 1_555
H16 C24 1_555 1_555
C25 C15 1_555 1_555
H17 C25 1_555 1_555
C26 H18 1_555 1_555
C27 C16 1_555 1_555
H19 C27 1_555 1_555
C28 C20 1_555 1_555
H20 C28 1_555 1_555
C3 C8 1_555 1_555
C4 C13 1_555 1_555
C5 C10 1_555 1_555
C5 C12 1_555 1_555
C9 C11 1_555 1_555
C17 C22 1_555 1_555
C18 C25 1_555 1_555
C19 C21 1_555 1_555
C19 C23 1_555 1_555
C20 C22 1_555 1_555
C26 C27 1_555 1_555
C26 C28 1_555 1_555

#END
