
#######################################################################
#
#                 Cambridge Crystallographic Data Centre
#                                CCDC 
#
#######################################################################
#
# If this CIF has been generated from an entry in the Cambridge 
# Structural Database, then it will include bibliographic, chemical, 
# crystal, experimental, refinement or atomic coordinate data resulting 
# from the CCDC's data processing and validation procedures.
#
#######################################################################

data_YOKYAA
_chemical_formula_moiety         'C14 H10 O3'
_chemical_name_systematic        2-Methoxy-6H-benzo[c]chromen-6-one
_symmetry_cell_setting           triclinic
_symmetry_space_group_name_H-M   'P -1'
_symmetry_Int_Tables_number      2
_space_group_name_Hall           '-P 1'
loop_
_symmetry_equiv_pos_site_id
_symmetry_equiv_pos_as_xyz
1 x,y,z
2 -x,-y,-z
_cell_length_a                   7.4113(6)
_cell_length_b                   10.7360(8)
_cell_length_c                   13.6758(10)
_cell_angle_alpha                83.117(2)
_cell_angle_beta                 84.142(2)
_cell_angle_gamma                73.882(2)
_cell_volume                     1035.14
_exptl_crystal_colour            colorless
_exptl_crystal_description       Plate
_cell_formula_units_Z            4
loop_
_atom_site_label
_atom_site_type_symbol
_atom_site_fract_x
_atom_site_fract_y
_atom_site_fract_z
O1 O 0.41468(15) 0.50712(10) 0.33431(8)
O2 O 0.51135(16) 0.30935(11) 0.28635(8)
O3 O 0.08288(16) 0.87285(10) 0.59517(8)
C1 C 0.4287(2) 0.37693(14) 0.35046(11)
C2 C 0.34453(19) 0.32878(13) 0.44422(10)
C3 C 0.3560(2) 0.19570(14) 0.46051(11)
H1 H 0.4163 0.1395 0.4113
C4 C 0.2801(2) 0.14566(14) 0.54776(12)
H2 H 0.2867 0.0555 0.5587
C5 C 0.1935(2) 0.22958(14) 0.61982(11)
H3 H 0.1417 0.1956 0.6802
C6 C 0.1818(2) 0.36126(13) 0.60472(11)
H4 H 0.1227 0.4166 0.6546
C7 C 0.25701(19) 0.41345(13) 0.51592(10)
C8 C 0.24777(19) 0.55176(13) 0.49446(10)
C9 C 0.1640(2) 0.64548(13) 0.56105(11)
H5 H 0.1109 0.6198 0.6239
C10 C 0.1589(2) 0.77513(13) 0.53490(11)
C11 C 0.2334(2) 0.81461(14) 0.44180(11)
H6 H 0.2264 0.9040 0.4238
C12 C 0.3169(2) 0.72346(14) 0.37642(11)
H7 H 0.3691 0.7495 0.3135
C13 C 0.32415(19) 0.59291(13) 0.40327(10)
C14 C 0.0114(2) 0.83543(15) 0.69195(12)
H8 H -0.0907 0.7954 0.6869
H9 H -0.0367 0.9126 0.7284
H10 H 0.1127 0.7727 0.7269
O4 O 0.11996(15) 0.63803(10) 0.17592(8)
O5 O 0.08555(16) 0.44455(11) 0.23292(8)
O6 O 0.34337(18) 0.99442(10) -0.09943(9)
C15 C 0.1329(2) 0.51158(14) 0.16274(11)
C16 C 0.20166(19) 0.46775(13) 0.06479(10)
C17 C 0.2062(2) 0.34000(13) 0.04918(11)
H11 H 0.1683 0.2842 0.1017
C18 C 0.2658(2) 0.29546(14) -0.04242(12)
H12 H 0.2687 0.2092 -0.0534
C19 C 0.3218(2) 0.37847(14) -0.11893(11)
H13 H 0.3629 0.3479 -0.1820
C20 C 0.3183(2) 0.50463(13) -0.10429(11)
H14 H 0.3575 0.5595 -0.1570
C21 C 0.25717(19) 0.55155(13) -0.01195(10)
C22 C 0.24528(19) 0.68460(13) 0.00809(10)
C23 C 0.3017(2) 0.77604(13) -0.06210(11)
H15 H 0.3492 0.7529 -0.1265
C24 C 0.2880(2) 0.89971(14) -0.03719(11)
C25 C 0.2144(2) 0.93599(14) 0.05705(12)
H16 H 0.2035 1.0215 0.0733
C26 C 0.1579(2) 0.84726(14) 0.12586(11)
H17 H 0.1074 0.8713 0.1897
C27 C 0.1754(2) 0.72204(13) 0.10127(11)
C28 C 0.4268(3) 0.96073(16) -0.19455(12)
H18 H 0.5362 0.8850 -0.1872
H19 H 0.4669 1.0344 -0.2302
H20 H 0.3345 0.9397 -0.2317
loop_
_geom_bond_atom_site_label_1
_geom_bond_atom_site_label_2
_geom_bond_site_symmetry_1
_geom_bond_site_symmetry_2
O1 C1 1_555 1_555
O2 C1 1_555 1_555
O3 C10 1_555 1_555
C1 C2 1_555 1_555
C2 C3 1_555 1_555
C3 H1 1_555 1_555
C4 C3 1_555 1_555
H2 C4 1_555 1_555
C5 C4 1_555 1_555
H3 C5 1_555 1_555
C6 C5 1_555 1_555
H4 C6 1_555 1_555
C7 C2 1_555 1_555
C8 C7 1_555 1_555
C9 C8 1_555 1_555
H5 C9 1_555 1_555
C10 C9 1_555 1_555
C11 C10 1_555 1_555
H6 C11 1_555 1_555
C12 C11 1_555 1_555
H7 C12 1_555 1_555
C13 O1 1_555 1_555
C14 O3 1_555 1_555
H8 C14 1_555 1_555
H9 C14 1_555 1_555
H10 C14 1_555 1_555
O4 C15 1_555 1_555
O5 C15 1_555 1_555
O6 C24 1_555 1_555
C15 C16 1_555 1_555
C16 C17 1_555 1_555
C17 H11 1_555 1_555
C18 C17 1_555 1_555
H12 C18 1_555 1_555
C19 C18 1_555 1_555
H13 C19 1_555 1_555
C20 C19 1_555 1_555
H14 C20 1_555 1_555
C21 C16 1_555 1_555
C22 C21 1_555 1_555
C23 C22 1_555 1_555
H15 C23 1_555 1_555
C24 C23 1_555 1_555
C25 C24 1_555 1_555
H16 C25 1_555 1_555
C26 C25 1_555 1_555
H17 C26 1_555 1_555
C27 O4 1_555 1_555
C28 O6 1_555 1_555
H18 C28 1_555 1_555
H19 C28 1_555 1_555
H20 C28 1_555 1_555
C6 C7 1_555 1_555
C8 C13 1_555 1_555
C12 C13 1_555 1_555
C20 C21 1_555 1_555
C22 C27 1_555 1_555
C26 C27 1_555 1_555

#END
