
#######################################################################
#
#                 Cambridge Crystallographic Data Centre
#                                CCDC 
#
#######################################################################
#
# If this CIF has been generated from an entry in the Cambridge 
# Structural Database, then it will include bibliographic, chemical, 
# crystal, experimental, refinement or atomic coordinate data resulting 
# from the CCDC's data processing and validation procedures.
#
#######################################################################

data_YOKZAB
_chemical_formula_moiety         'C11 H9 N1 O3'
_chemical_name_systematic        
3,3a-Dihydro-5H-pyrrolo[1,2-a][3,1]benzoxazine-1,5(2H)-dione
_symmetry_cell_setting           monoclinic
_symmetry_space_group_name_H-M   'P 21/c'
_symmetry_Int_Tables_number      14
_space_group_name_Hall           '-P 2ybc'
loop_
_symmetry_equiv_pos_site_id
_symmetry_equiv_pos_as_xyz
1 x,y,z
2 -x,1/2+y,1/2-z
3 -x,-y,-z
4 x,1/2-y,1/2+z
_cell_length_a                   8.9408(7)
_cell_length_b                   8.9435(6)
_cell_length_c                   11.8253(9)
_cell_angle_alpha                90
_cell_angle_beta                 112.029(2)
_cell_angle_gamma                90
_cell_volume                     876.543
_exptl_crystal_colour            colorless
_exptl_crystal_description       block
_cell_formula_units_Z            4
loop_
_atom_site_label
_atom_site_type_symbol
_atom_site_fract_x
_atom_site_fract_y
_atom_site_fract_z
N1 N 0.53529(12) 0.36379(12) 0.39268(10)
O1 O 0.21522(11) 0.58038(11) 0.11254(9)
O2 O 0.46969(11) 0.52965(11) 0.22350(8)
O3 O 0.65830(11) 0.30180(11) 0.59593(9)
C1 C 0.37478(15) 0.31984(14) 0.36296(11)
C2 C 0.32506(16) 0.21903(15) 0.43214(12)
H1 H 0.4010 0.1761 0.5044
C3 C 0.16246(16) 0.18276(15) 0.39327(12)
H2 H 0.1273 0.1158 0.4406
C4 C 0.04964(16) 0.24235(16) 0.28631(12)
H3 H -0.0607 0.2144 0.2602
C5 C 0.09949(16) 0.34254(15) 0.21840(12)
H4 H 0.0231 0.3839 0.1457
C6 C 0.26182(15) 0.38289(14) 0.25653(11)
C7 C 0.30971(15) 0.50260(14) 0.19029(11)
C8 C 0.57944(15) 0.41498(15) 0.29336(12)
H5 H 0.5823 0.3295 0.2397
C9 C 0.74695(15) 0.48207(16) 0.35549(13)
H6 H 0.7409 0.5923 0.3601
H7 H 0.8172 0.4559 0.3106
C10 C 0.81117(15) 0.41306(15) 0.48325(12)
H8 H 0.8888 0.3319 0.4886
H9 H 0.8658 0.4897 0.5455
C11 C 0.66430(15) 0.35213(14) 0.50216(12)
loop_
_geom_bond_atom_site_label_1
_geom_bond_atom_site_label_2
_geom_bond_site_symmetry_1
_geom_bond_site_symmetry_2
N1 C1 1_555 1_555
O1 C7 1_555 1_555
O2 C7 1_555 1_555
O3 C11 1_555 1_555
C1 C2 1_555 1_555
C2 H1 1_555 1_555
C3 C2 1_555 1_555
H2 C3 1_555 1_555
C4 C3 1_555 1_555
H3 C4 1_555 1_555
C5 C4 1_555 1_555
H4 C5 1_555 1_555
C6 C1 1_555 1_555
C7 C6 1_555 1_555
C8 N1 1_555 1_555
H5 C8 1_555 1_555
C9 C8 1_555 1_555
H6 C9 1_555 1_555
H7 C9 1_555 1_555
C10 C9 1_555 1_555
H8 C10 1_555 1_555
H9 C10 1_555 1_555
C11 N1 1_555 1_555
O2 C8 1_555 1_555
C5 C6 1_555 1_555
C10 C11 1_555 1_555

#END
