
#######################################################################
#
#                 Cambridge Crystallographic Data Centre
#                                CCDC 
#
#######################################################################
#
# If this CIF has been generated from an entry in the Cambridge 
# Structural Database, then it will include bibliographic, chemical, 
# crystal, experimental, refinement or atomic coordinate data resulting 
# from the CCDC's data processing and validation procedures.
#
#######################################################################

data_YOLHUE
_chemical_formula_moiety         'C20 H29 N1 O5 S1'
_chemical_name_systematic        
'Methyl 3-(7-((4-methylphenyl)sulfonyl)-1-oxa-7-azaspiro[4.6]undec-6-yl)propanoate'
_symmetry_cell_setting           triclinic
_symmetry_space_group_name_H-M   'P -1'
_symmetry_Int_Tables_number      2
_space_group_name_Hall           '-P 1'
loop_
_symmetry_equiv_pos_site_id
_symmetry_equiv_pos_as_xyz
1 x,y,z
2 -x,-y,-z
_cell_length_a                   9.4080(2)
_cell_length_b                   10.2172(2)
_cell_length_c                   11.8751(8)
_cell_angle_alpha                83.120(6)
_cell_angle_beta                 73.083(5)
_cell_angle_gamma                71.585(5)
_cell_volume                     1035.67
_exptl_crystal_colour            colorless
_exptl_crystal_description       prism
_cell_formula_units_Z            2
loop_
_atom_site_label
_atom_site_type_symbol
_atom_site_fract_x
_atom_site_fract_y
_atom_site_fract_z
S1 S 0.35377(9) 0.28705(9) 0.13764(7)
O1 O 0.6011(5) 0.2387(5) -0.3395(3)
O2 O 0.3502(3) 0.4239(3) 0.0922(3)
O3 O 0.2717(3) 0.2145(4) 0.0964(3)
O4 O 0.8256(4) 0.1073(4) -0.3100(3)
N1 N 0.5342(3) 0.1958(3) 0.1148(2)
C1 C 0.0623(6) 0.3475(5) 0.6613(4)
H1 H 0.1396 0.3190 0.7044
H2 H -0.0090 0.2936 0.6881
H3 H 0.0067 0.4434 0.6740
C2 C 0.1404(4) 0.3264(4) 0.5316(3)
C3 C 0.1094(5) 0.2366(4) 0.4706(4)
H4 H 0.0429 0.1854 0.5107
C4 C 0.1756(4) 0.2215(4) 0.3505(3)
H5 H 0.1521 0.1617 0.3105
C5 C 0.2768(4) 0.2955(3) 0.2900(3)
C6 C 0.6609(4) 0.2550(3) 0.0488(3)
H6 H 0.6100 0.3526 0.0342
C7 C 0.7383(4) 0.1920(4) -0.0728(3)
H7 H 0.8335 0.2166 -0.1083
H8 H 0.7650 0.0922 -0.0647
C8 C 0.6300(5) 0.2437(4) -0.1515(3)
H9 H 0.6014 0.3437 -0.1569
H10 H 0.5357 0.2177 -0.1157
C9 C 0.7000(6) 0.1881(5) -0.2746(4)
C10 C 0.6520(9) 0.1907(9) -0.4593(5)
H11 H 0.7456 0.2133 -0.5008
H12 H 0.5723 0.2346 -0.4986
H13 H 0.6715 0.0925 -0.4574
C11 C 0.2418(5) 0.3981(5) 0.4708(4)
H14 H 0.2650 0.4578 0.5112
C12 C 0.3104(5) 0.3842(4) 0.3517(4)
H15 H 0.3789 0.4339 0.3127
C13 C 0.5608(6) 0.0481(4) 0.1402(5)
H16 H 0.6350 -0.0036 0.0733
H17 H 0.4642 0.0253 0.1553
C14 C 0.7728(4) 0.2528(4) 0.1207(3)
C15 C 0.8861(5) 0.3363(5) 0.0545(4)
H18 H 0.9896 0.2757 0.0213
H19 H 0.8490 0.3948 -0.0079
C16 C 0.885(3) 0.421(3) 0.1501(15)
H20 H 0.9815 0.3843 0.1728
H21 H 0.8751 0.5157 0.1221
C17 C 0.759(2) 0.416(2) 0.2472(13)
H22 H 0.6876 0.5080 0.2628
H23 H 0.7957 0.3812 0.3164
O5 O 0.6794(3) 0.3292(3) 0.2251(2)
C18 C 0.8632(7) 0.1119(5) 0.1587(5)
H24 H 0.9234 0.0627 0.0870
H25 H 0.9376 0.1273 0.1936
C19 C 0.747(2) 0.0473(19) 0.2483(13)
H26 H 0.6557 0.1183 0.2887
H27 H 0.7943 -0.0111 0.3061
C20 C 0.7010(13) -0.0415(8) 0.1699(10)
H28 H 0.7845 -0.0701 0.0991
H29 H 0.6810 -0.1232 0.2138
C21? C 0.851(3) 0.456(3) 0.132(2)
H30? H 0.9355 0.4450 0.1664
H31? H 0.8340 0.5424 0.0871
C22? C 0.715(2) 0.4520(16) 0.220(2)
H32? H 0.7273 0.4658 0.2953
H33? H 0.6287 0.5278 0.2050
C23? C 0.790(2) 0.013(2) 0.2411(18)
H34? H 0.7907 0.0287 0.3198
H35? H 0.8587 -0.0795 0.2214
C24? C 0.6241(17) 0.0110(16) 0.2485(13)
H36? H 0.6179 -0.0810 0.2754
H37? H 0.5531 0.0734 0.3097
loop_
_geom_bond_atom_site_label_1
_geom_bond_atom_site_label_2
_geom_bond_site_symmetry_1
_geom_bond_site_symmetry_2
S1 O2 1_555 1_555
O1 C9 1_555 1_555
O3 S1 1_555 1_555
O4 C9 1_555 1_555
N1 S1 1_555 1_555
C1 H1 1_555 1_555
H2 C1 1_555 1_555
H3 C1 1_555 1_555
C2 C1 1_555 1_555
C3 C2 1_555 1_555
H4 C3 1_555 1_555
C4 C3 1_555 1_555
H5 C4 1_555 1_555
C5 S1 1_555 1_555
C6 N1 1_555 1_555
H6 C6 1_555 1_555
C7 C6 1_555 1_555
H7 C7 1_555 1_555
H8 C7 1_555 1_555
C8 C7 1_555 1_555
H9 C8 1_555 1_555
H10 C8 1_555 1_555
C9 C8 1_555 1_555
C10 O1 1_555 1_555
H11 C10 1_555 1_555
H12 C10 1_555 1_555
H13 C10 1_555 1_555
C11 C2 1_555 1_555
H14 C11 1_555 1_555
C12 C5 1_555 1_555
H15 C12 1_555 1_555
C13 N1 1_555 1_555
H16 C13 1_555 1_555
H17 C13 1_555 1_555
C14 C6 1_555 1_555
C15 C14 1_555 1_555
H18 C15 1_555 1_555
H19 C15 1_555 1_555
C16 C15 1_555 1_555
H20 C16 1_555 1_555
H21 C16 1_555 1_555
C17 C16 1_555 1_555
H22 C17 1_555 1_555
H23 C17 1_555 1_555
O5 C14 1_555 1_555
C18 C14 1_555 1_555
H24 C18 1_555 1_555
H25 C18 1_555 1_555
C19 C18 1_555 1_555
H26 C19 1_555 1_555
H27 C19 1_555 1_555
C20 C13 1_555 1_555
H28 C20 1_555 1_555
H29 C20 1_555 1_555
C4 C5 1_555 1_555
C11 C12 1_555 1_555
C17 O5 1_555 1_555
C19 C20 1_555 1_555

#END
