
#######################################################################
#
#                 Cambridge Crystallographic Data Centre
#                                CCDC 
#
#######################################################################
#
# If this CIF has been generated from an entry in the Cambridge 
# Structural Database, then it will include bibliographic, chemical, 
# crystal, experimental, refinement or atomic coordinate data resulting 
# from the CCDC's data processing and validation procedures.
#
#######################################################################

data_YOLHEO
_chemical_formula_moiety         'C17 H14 I1 N1 O3'
_chemical_name_systematic        
4-(Diphenylamino)-3-iodo-5-methoxyfuran-2(5H)-one
_symmetry_cell_setting           monoclinic
_symmetry_space_group_name_H-M   'P 21/c'
_symmetry_Int_Tables_number      14
_space_group_name_Hall           '-P 2ybc'
loop_
_symmetry_equiv_pos_site_id
_symmetry_equiv_pos_as_xyz
1 x,y,z
2 -x,1/2+y,1/2-z
3 -x,-y,-z
4 x,1/2-y,1/2+z
_cell_length_a                   9.686(2)
_cell_length_b                   15.550(3)
_cell_length_c                   11.253(2)
_cell_angle_alpha                90
_cell_angle_beta                 103.443(3)
_cell_angle_gamma                90
_cell_volume                     1648.46
_exptl_crystal_colour            colorless
_exptl_crystal_description       block
_cell_formula_units_Z            4
loop_
_atom_site_label
_atom_site_type_symbol
_atom_site_fract_x
_atom_site_fract_y
_atom_site_fract_z
I1 I 0.4350(3) 0.14725(15) 0.5908(2)
O1 O -0.033(2) 0.1154(12) 0.7358(17)
O2 O 0.081(2) 0.0076(14) 0.6518(19)
O3 O 0.306(3) -0.0335(18) 0.670(2)
N1 N 0.084(2) 0.2333(13) 0.5891(19)
C1 C 0.122(3) 0.1462(14) 0.605(3)
C2 C 0.248(3) 0.1131(16) 0.621(2)
C3 C 0.013(4) 0.089(2) 0.636(3)
H1 H -0.0685 0.0854 0.5653
C4 C 0.208(4) 0.020(2) 0.650(3)
C5 C -0.349(4) 0.307(2) 0.481(3)
H2 H -0.4464 0.3168 0.4568
C6 C -0.065(3) 0.259(2) 0.546(3)
C7 C 0.181(3) 0.3072(17) 0.600(3)
C8 C -0.124(3) 0.3168(15) 0.607(2)
H3 H -0.0649 0.3420 0.6753
C9 C 0.373(4) 0.430(2) 0.621(3)
H4 H 0.4379 0.4746 0.6261
C10 C 0.274(3) 0.3242(18) 0.711(3)
H5 H 0.2691 0.2917 0.7797
C11 C -0.147(3) 0.2223(17) 0.441(2)
H6 H -0.1125 0.1820 0.3936
C12 C -0.273(4) 0.3437(19) 0.576(3)
H7 H -0.3099 0.3841 0.6214
C13 C -0.284(4) 0.252(3) 0.414(4)
H8 H -0.3408 0.2329 0.3407
C14 C 0.188(4) 0.3568(18) 0.500(4)
H9 H 0.1231 0.3493 0.4257
C15 C 0.374(4) 0.390(2) 0.722(3)
H10 H 0.4372 0.4031 0.7953
C16 C 0.291(4) 0.416(3) 0.513(4)
H11 H 0.3036 0.4467 0.4455
C17 C -0.149(3) 0.066(2) 0.741(3)
H12 H -0.2215 0.0732 0.6679
H13 H -0.1849 0.0829 0.8105
H14 H -0.1212 0.0064 0.7499
loop_
_geom_bond_atom_site_label_1
_geom_bond_atom_site_label_2
_geom_bond_site_symmetry_1
_geom_bond_site_symmetry_2
I1 C2 1_555 1_555
O1 C3 1_555 1_555
O2 C3 1_555 1_555
O3 C4 1_555 1_555
N1 C1 1_555 1_555
C1 C2 1_555 1_555
C2 C4 1_555 1_555
C3 C1 1_555 1_555
H1 C3 1_555 1_555
C4 O2 1_555 1_555
C5 H2 1_555 1_555
C6 N1 1_555 1_555
C7 N1 1_555 1_555
C8 C6 1_555 1_555
H3 C8 1_555 1_555
C9 H4 1_555 1_555
C10 C7 1_555 1_555
H5 C10 1_555 1_555
C11 C6 1_555 1_555
H6 C11 1_555 1_555
C12 C5 1_555 1_555
H7 C12 1_555 1_555
C13 C5 1_555 1_555
H8 C13 1_555 1_555
C14 C7 1_555 1_555
H9 C14 1_555 1_555
C15 C9 1_555 1_555
H10 C15 1_555 1_555
C16 C9 1_555 1_555
H11 C16 1_555 1_555
C17 O1 1_555 1_555
H12 C17 1_555 1_555
H13 C17 1_555 1_555
H14 C17 1_555 1_555
C8 C12 1_555 1_555
C10 C15 1_555 1_555
C11 C13 1_555 1_555
C14 C16 1_555 1_555

#END
