
#######################################################################
#
#                 Cambridge Crystallographic Data Centre
#                                CCDC 
#
#######################################################################
#
# If this CIF has been generated from an entry in the Cambridge 
# Structural Database, then it will include bibliographic, chemical, 
# crystal, experimental, refinement or atomic coordinate data resulting 
# from the CCDC's data processing and validation procedures.
#
#######################################################################

data_YOLJAM
_chemical_formula_moiety         'C23 H21 N1 O4 S1'
_chemical_name_systematic        
12-((4-Methylphenyl)sulfonyl)-18-oxa-12-azapentacyclo[12.3.1.0^1,5^.0^5,13^.0^6,11^]octadeca-6,8,10,15-tetraen-17-one
_symmetry_cell_setting           monoclinic
_symmetry_space_group_name_H-M   'P 21/c'
_symmetry_Int_Tables_number      14
_space_group_name_Hall           '-P 2ybc'
loop_
_symmetry_equiv_pos_site_id
_symmetry_equiv_pos_as_xyz
1 x,y,z
2 -x,1/2+y,1/2-z
3 -x,-y,-z
4 x,1/2-y,1/2+z
_cell_length_a                   18.6690(13)
_cell_length_b                   14.1991(3)
_cell_length_c                   14.7583(3)
_cell_angle_alpha                90
_cell_angle_beta                 95.525(7)
_cell_angle_gamma                90
_cell_volume                     3894
_exptl_crystal_colour            colorless
_exptl_crystal_description       prism
_cell_formula_units_Z            8
loop_
_atom_site_label
_atom_site_type_symbol
_atom_site_fract_x
_atom_site_fract_y
_atom_site_fract_z
S1 S 0.27198(6) 0.59834(9) 1.04490(8)
O1 O 0.3905(2) 0.6151(3) 0.6585(3)
O2 O 0.29828(19) 0.4405(3) 0.7645(2)
O3 O 0.21056(18) 0.5414(3) 1.0180(2)
O4 O 0.26448(19) 0.6969(3) 1.0626(2)
N1 N 0.3230(2) 0.5885(3) 0.9620(3)
C1 C 0.3495(3) 0.5815(4) 0.7090(4)
C2 C 0.3659(3) 0.4879(4) 0.7585(3)
C3 C 0.3947(3) 0.5018(4) 0.8622(3)
C4 C 0.3245(3) 0.4993(4) 0.9111(3)
H1 H 0.3234 0.4436 0.9524
C5 C 0.3170(3) 0.5468(4) 1.1414(3)
C6 C 0.3109(3) 0.4496(4) 1.1546(4)
H2 H 0.2843 0.4119 1.1101
C7 C 0.3442(3) 0.4085(4) 1.2334(4)
H3 H 0.3404 0.3424 1.2419
C8 C 0.3830(3) 0.4625(5) 1.2998(4)
C9 C 0.4188(3) 0.4188(6) 1.3846(4)
H4 H 0.3957 0.3584 1.3956
H5 H 0.4142 0.4609 1.4363
H6 H 0.4698 0.4084 1.3775
C10 C 0.2642(3) 0.4937(4) 0.8307(3)
H7 H 0.2212 0.4594 0.8494
C11 C 0.4266(3) 0.5953(4) 0.8901(3)
C12 C 0.3863(3) 0.6428(4) 0.9497(3)
C13 C 0.3889(3) 0.5609(5) 1.2849(4)
H8 H 0.4152 0.5990 1.3294
C14 C 0.3565(3) 0.6019(4) 1.2059(4)
H9 H 0.3613 0.6676 1.1959
C15 C 0.4059(3) 0.7298(4) 0.9872(4)
H10 H 0.3772 0.7616 1.0272
C16 C 0.4705(3) 0.7680(4) 0.9625(4)
H11 H 0.4861 0.8274 0.9867
C17 C 0.5121(3) 0.7218(4) 0.9043(4)
H12 H 0.5558 0.7497 0.8894
C18 C 0.4913(3) 0.6356(4) 0.8673(4)
H13 H 0.5202 0.6041 0.8271
C19 C 0.4475(3) 0.4173(4) 0.8805(4)
H14 H 0.4978 0.4399 0.8885
H15 H 0.4370 0.3834 0.9363
C20 C 0.4361(3) 0.3530(4) 0.7984(4)
H16 H 0.3967 0.3077 0.8053
H17 H 0.4806 0.3177 0.7895
C21 C 0.4164(3) 0.4203(4) 0.7188(4)
H18 H 0.4594 0.4531 0.7002
H19 H 0.3922 0.3866 0.6656
C22 C 0.2431(3) 0.5880(4) 0.7924(4)
H20 H 0.2024 0.6200 0.8113
C23 C 0.2826(3) 0.6271(4) 0.7311(4)
H21 H 0.2673 0.6842 0.7018
S2 S 0.23499(8) 0.21993(11) 1.01414(12)
O5 O -0.0962(3) 0.3290(4) 1.1031(4)
O6 O 0.2491(2) 0.2837(4) 0.9473(3)
O7 O 0.2796(2) 0.2143(3) 1.0993(3)
O8 O 0.0106(2) 0.3926(3) 0.9349(3)
N2 N 0.1531(2) 0.2462(4) 1.0370(4)
C24 C 0.2138(3) -0.1713(4) 0.8488(4)
H22 H 0.1987 -0.1690 0.7834
H23 H 0.1791 -0.2083 0.8796
H24 H 0.2614 -0.2007 0.8588
C25 C 0.2174(3) -0.0729(4) 0.8866(4)
C26 C 0.1971(3) 0.0052(5) 0.8347(4)
H25 H 0.1777 -0.0027 0.7732
C27 C 0.2050(3) 0.0965(5) 0.8717(5)
H26 H 0.1936 0.1500 0.8343
C28 C 0.2293(3) 0.1081(4) 0.9629(5)
C29 C 0.1001(3) 0.2808(4) 0.9647(4)
H27 H 0.1167 0.2704 0.9031
C30 C 0.0285(3) 0.2293(4) 0.9747(4)
C31 C -0.0270(3) 0.3157(5) 0.9738(4)
C32 C -0.0407(4) 0.3458(5) 1.0688(5)
C33 C 0.2419(4) -0.0590(5) 0.9784(5)
H28 H 0.2552 -0.1121 1.0154
C34 C 0.2472(3) 0.0300(5) 1.0166(5)
H29 H 0.2631 0.0375 1.0793
C35 C 0.1145(4) 0.1850(4) 1.0958(4)
C36 C 0.1410(4) 0.1408(6) 1.1772(5)
H30 H 0.1895 0.1482 1.2022
C37 C 0.0915(4) 0.0844(6) 1.2200(6)
H31 H 0.1080 0.0506 1.2735
C38 C 0.0218(4) 0.0772(6) 1.1874(6)
H32 H -0.0102 0.0418 1.2204
C39 C -0.0042(3) 0.1210(5) 1.1054(5)
H33 H -0.0529 0.1135 1.0811
C40 C 0.0437(3) 0.1762(4) 1.0606(5)
C41 C -0.0019(4) 0.1719(5) 0.8910(5)
H34 H 0.0374 0.1550 0.8535
H35 H -0.0240 0.1130 0.9110
C42 C -0.0562(5) 0.2290(6) 0.8371(6)
H36 H -0.0922 0.1884 0.8024
H37 H -0.0334 0.2703 0.7940
C43 C -0.0916(4) 0.2881(6) 0.9088(5)
H38 H -0.1164 0.3442 0.8809
H39 H -0.1264 0.2501 0.9399
C44 C 0.0817(3) 0.3873(4) 0.9802(4)
H40 H 0.1155 0.4297 0.9509
C45 C 0.0809(4) 0.4096(5) 1.0796(5)
H41 H 0.1222 0.4367 1.1121
C46 C 0.0239(4) 0.3921(4) 1.1221(5)
H42 H 0.0229 0.4079 1.1845
loop_
_geom_bond_atom_site_label_1
_geom_bond_atom_site_label_2
_geom_bond_site_symmetry_1
_geom_bond_site_symmetry_2
S1 O3 1_555 1_555
O1 C1 1_555 1_555
O2 C2 1_555 1_555
O4 S1 1_555 1_555
N1 S1 1_555 1_555
C1 C2 1_555 1_555
C2 C3 1_555 1_555
C3 C4 1_555 1_555
C4 N1 1_555 1_555
H1 C4 1_555 1_555
C5 S1 1_555 1_555
C6 C5 1_555 1_555
H2 C6 1_555 1_555
C7 C6 1_555 1_555
H3 C7 1_555 1_555
C8 C7 1_555 1_555
C9 C8 1_555 1_555
H4 C9 1_555 1_555
H5 C9 1_555 1_555
H6 C9 1_555 1_555
C10 O2 1_555 1_555
H7 C10 1_555 1_555
C11 C3 1_555 1_555
C12 N1 1_555 1_555
C13 C8 1_555 1_555
H8 C13 1_555 1_555
C14 C5 1_555 1_555
H9 C14 1_555 1_555
C15 C12 1_555 1_555
H10 C15 1_555 1_555
C16 C15 1_555 1_555
H11 C16 1_555 1_555
C17 C16 1_555 1_555
H12 C17 1_555 1_555
C18 C11 1_555 1_555
H13 C18 1_555 1_555
C19 C3 1_555 1_555
H14 C19 1_555 1_555
H15 C19 1_555 1_555
C20 C19 1_555 1_555
H16 C20 1_555 1_555
H17 C20 1_555 1_555
C21 C2 1_555 1_555
H18 C21 1_555 1_555
H19 C21 1_555 1_555
C22 C10 1_555 1_555
H20 C22 1_555 1_555
C23 C1 1_555 1_555
H21 C23 1_555 1_555
S2 O6 1_555 1_555
O5 C32 1_555 1_555
O7 S2 1_555 1_555
O8 C31 1_555 1_555
N2 S2 1_555 1_555
C24 H22 1_555 1_555
H23 C24 1_555 1_555
H24 C24 1_555 1_555
C25 C24 1_555 1_555
C26 C25 1_555 1_555
H25 C26 1_555 1_555
C27 C26 1_555 1_555
H26 C27 1_555 1_555
C28 S2 1_555 1_555
C29 N2 1_555 1_555
H27 C29 1_555 1_555
C30 C29 1_555 1_555
C31 C30 1_555 1_555
C32 C31 1_555 1_555
C33 C25 1_555 1_555
H28 C33 1_555 1_555
C34 C28 1_555 1_555
H29 C34 1_555 1_555
C35 N2 1_555 1_555
C36 C35 1_555 1_555
H30 C36 1_555 1_555
C37 C36 1_555 1_555
H31 C37 1_555 1_555
C38 C37 1_555 1_555
H32 C38 1_555 1_555
C39 C38 1_555 1_555
H33 C39 1_555 1_555
C40 C30 1_555 1_555
C41 C30 1_555 1_555
H34 C41 1_555 1_555
H35 C41 1_555 1_555
C42 C41 1_555 1_555
H36 C42 1_555 1_555
H37 C42 1_555 1_555
C43 C31 1_555 1_555
H38 C43 1_555 1_555
H39 C43 1_555 1_555
C44 O8 1_555 1_555
H40 C44 1_555 1_555
C45 C44 1_555 1_555
H41 C45 1_555 1_555
C46 C32 1_555 1_555
H42 C46 1_555 1_555
C4 C10 1_555 1_555
C11 C12 1_555 1_555
C13 C14 1_555 1_555
C17 C18 1_555 1_555
C20 C21 1_555 1_555
C22 C23 1_555 1_555
C27 C28 1_555 1_555
C29 C44 1_555 1_555
C33 C34 1_555 1_555
C35 C40 1_555 1_555
C39 C40 1_555 1_555
C42 C43 1_555 1_555
C45 C46 1_555 1_555

#END
