
#######################################################################
#
#                 Cambridge Crystallographic Data Centre
#                                CCDC 
#
#######################################################################
#
# If this CIF has been generated from an entry in the Cambridge 
# Structural Database, then it will include bibliographic, chemical, 
# crystal, experimental, refinement or atomic coordinate data resulting 
# from the CCDC's data processing and validation procedures.
#
#######################################################################

data_YOLLIW
_chemical_compound_source        'Gentianella azurea'
_chemical_name_common            'Gentirigeoside A methanol solvate trihydrate'
_chemical_formula_moiety         'C36 H60 O12,0.5(C1 H4 O1),3(H2 O1)'
_chemical_name_systematic        
'20,24,25,28-tetrahydroxy-3-((3,4,5-trihydroxy-6-(hydroxymethyl)tetrahydro-2H-pyran-2-yl)oxy)-21,23-epoxydammaran-21-one methanol solvate trihydrate'
_symmetry_cell_setting           triclinic
_symmetry_space_group_name_H-M   'P 1'
_symmetry_Int_Tables_number      1
_space_group_name_Hall           'P 1'
loop_
_symmetry_equiv_pos_site_id
_symmetry_equiv_pos_as_xyz
1 x,y,z
_cell_length_a                   7.1558(3)
_cell_length_b                   12.8203(4)
_cell_length_c                   21.0330(7)
_cell_angle_alpha                85.657(2)
_cell_angle_beta                 88.636(2)
_cell_angle_gamma                77.863(2)
_cell_volume                     1880.95
_exptl_crystal_description       block
_cell_formula_units_Z            2
loop_
_atom_site_label
_atom_site_type_symbol
_atom_site_fract_x
_atom_site_fract_y
_atom_site_fract_z
O1 O 0.7403(3) -0.07049(17) 0.61639(10)
O2 O 0.7489(4) 0.35515(19) 0.12968(11)
H1 H 0.8293 0.3726 0.1035
O3 O 0.4064(4) 0.36724(19) 0.04208(12)
O4 O 0.6658(3) 0.27836(18) -0.00548(10)
O5 O 0.7814(4) 0.05763(19) -0.02950(11)
H2 H 0.8128 0.0128 0.0017
O6 O 1.1423(4) -0.0153(2) 0.01914(13)
H3 H 1.2573 -0.0474 0.0217
O7 O 0.7456(4) -0.26135(17) 0.57461(11)
H4 H 0.7042 -0.2207 0.6036
O8 O 0.5354(4) -0.16814(18) 0.70941(12)
H5 H 0.5633 -0.2284 0.7295
O9 O 0.6837(4) -0.1373(2) 0.83919(12)
H6 H 0.5946 -0.1691 0.8491
O10 O 0.6351(4) 0.0949(2) 0.84857(11)
H7 H 0.5158 0.1027 0.8470
O11 O 0.7778(3) 0.05191(16) 0.68468(10)
O12 O 0.7630(4) 0.27067(18) 0.68505(12)
H8 H 0.7975 0.3283 0.6898
C1 C 0.8363(5) 0.0774(2) 0.46022(15)
H9 H 0.9566 0.0967 0.4441
H10 H 0.7384 0.1444 0.4618
C2 C 0.8687(5) 0.0247(2) 0.52791(15)
H11 H 0.9771 -0.0377 0.5276
H12 H 0.9028 0.0763 0.5560
C3 C 0.6919(5) -0.0118(2) 0.55431(14)
H13 H 0.5881 0.0524 0.5604
C4 C 0.6169(4) -0.0872(2) 0.51256(14)
C5 C 0.5946(4) -0.0331(2) 0.44299(13)
H14 H 0.4958 0.0340 0.4470
C6 C 0.5068(5) -0.0957(2) 0.39699(15)
H15 H 0.4010 -0.1236 0.4186
H16 H 0.6046 -0.1573 0.3840
C7 C 0.4310(5) -0.0233(2) 0.33804(15)
H17 H 0.3276 0.0355 0.3513
H18 H 0.3752 -0.0651 0.3087
C8 C 0.5861(4) 0.0248(2) 0.30231(14)
C9 C 0.6968(4) 0.0773(2) 0.35053(14)
H19 H 0.5997 0.1385 0.3658
C10 C 0.7712(4) 0.0062(2) 0.41288(14)
C11 C 0.8506(5) 0.1294(2) 0.31619(15)
H20 H 0.9142 0.1635 0.3477
H21 H 0.9487 0.0730 0.2978
C12 C 0.7677(5) 0.2141(2) 0.26264(15)
H22 H 0.6833 0.2759 0.2812
H23 H 0.8729 0.2399 0.2392
C13 C 0.6544(4) 0.1649(2) 0.21695(14)
H24 H 0.7463 0.1047 0.1984
C14 C 0.4949(5) 0.1161(2) 0.25075(14)
C15 C 0.3976(5) 0.0809(3) 0.19364(15)
H25 H 0.2626 0.0788 0.2038
H26 H 0.4651 0.0092 0.1820
C16 C 0.4108(5) 0.1669(3) 0.13865(15)
H27 H 0.4598 0.1324 0.0993
H28 H 0.2831 0.2127 0.1298
C17 C 0.5487(5) 0.2347(2) 0.16029(14)
H29 H 0.4700 0.3008 0.1773
C18 C 0.7186(5) -0.0666(2) 0.26935(15)
H30 H 0.7576 -0.1280 0.3003
H31 H 0.8322 -0.0421 0.2525
H32 H 0.6504 -0.0877 0.2342
C19 C 0.9435(5) -0.0853(2) 0.39979(15)
H33 H 1.0208 -0.0616 0.3647
H34 H 0.8970 -0.1479 0.3881
H35 H 1.0217 -0.1043 0.4382
C20 C 0.6789(5) 0.2692(2) 0.10747(14)
C21 C 0.5629(5) 0.3105(2) 0.04611(15)
C22 C 0.8355(5) 0.1806(3) 0.08292(14)
H36 H 0.7969 0.1106 0.0878
H37 H 0.9567 0.1750 0.1059
C23 C 0.8565(5) 0.2162(3) 0.01236(14)
H38 H 0.9505 0.2641 0.0080
C24 C 0.9092(5) 0.1294(3) -0.03483(14)
H39 H 0.8891 0.1671 -0.0783
C25 C 1.1211(5) 0.0677(3) -0.03331(16)
C26 C 1.2607(6) 0.1385(4) -0.02797(19)
H40 H 1.2368 0.1746 0.0118
H41 H 1.2457 0.1921 -0.0643
H42 H 1.3911 0.0953 -0.0279
C27 C 1.1604(6) 0.0066(3) -0.09319(17)
H43 H 1.2888 -0.0390 -0.0910
H44 H 1.1520 0.0574 -0.1308
H45 H 1.0656 -0.0379 -0.0964
C28 C 0.4184(5) -0.0985(3) 0.53838(15)
H46 H 0.4258 -0.1173 0.5844
H47 H 0.3761 -0.1549 0.5172
H48 H 0.3269 -0.0306 0.5300
C29 C 0.7515(5) -0.1982(2) 0.51489(15)
H49 H 0.7174 -0.2383 0.4800
H50 H 0.8841 -0.1887 0.5070
C30 C 0.3440(5) 0.2040(2) 0.28015(15)
H51 H 0.4055 0.2394 0.3109
H52 H 0.2452 0.1717 0.3019
H53 H 0.2855 0.2567 0.2463
C31 C 0.6611(5) -0.0195(2) 0.66995(14)
H54 H 0.5267 0.0197 0.6617
C32 C 0.6680(5) -0.1062(2) 0.72414(14)
H55 H 0.7990 -0.1528 0.7257
C33 C 0.6230(5) -0.0575(3) 0.78854(14)
H56 H 0.4817 -0.0312 0.7922
C34 C 0.7205(5) 0.0348(3) 0.79765(15)
H57 H 0.8590 0.0061 0.8068
C35 C 0.7012(5) 0.1113(2) 0.73774(14)
H58 H 0.5627 0.1426 0.7301
C36 C 0.8063(5) 0.2006(3) 0.74135(15)
H59 H 0.7651 0.2400 0.7797
H60 H 0.9456 0.1715 0.7440
O13 O 0.7275(4) 0.57418(19) -0.12170(10)
H61 H 0.6645 0.6075 -0.1529
O14 O 0.6537(3) 0.60808(18) 0.04976(10)
O15 O 0.9968(3) 0.4395(2) 0.04890(12)
H62 H 1.1164 0.4206 0.0507
O16 O 0.3898(3) 0.68349(17) 0.10625(10)
O17 O 0.5173(3) 0.24709(18) 0.59146(11)
H63 H 0.5843 0.2569 0.6218
O18 O 0.2060(4) 0.14300(18) 0.65035(11)
O19 O 0.2271(3) 0.27715(18) 0.71033(10)
O20 O 0.2664(3) 0.55372(18) 0.73084(10)
H64 H 0.2001 0.5965 0.7038
O21 O 0.0965(4) 0.53613(18) 0.84282(11)
H65 H -0.0231 0.5447 0.8419
O22 O 0.1404(4) 0.8541(2) 0.14756(12)
H66 H 0.2195 0.8336 0.1186
O23 O 0.1820(4) 0.7490(2) -0.00709(13)
H67 H 0.1472 0.8129 0.0019
O24 O 0.4174(3) 0.7495(2) -0.12018(11)
H68 H 0.3080 0.7499 -0.1339
C37 C 0.4503(5) 0.6358(2) 0.04962(14)
H69 H 0.3953 0.5709 0.0460
C38 C 0.3845(5) 0.7190(3) -0.00568(15)
H70 H 0.4381 0.7838 -0.0003
C39 C 0.4603(5) 0.6714(3) -0.06788(15)
H71 H 0.3979 0.6104 -0.0749
C40 C 0.6751(5) 0.6307(2) -0.06570(14)
H72 H 0.7405 0.6924 -0.0660
C41 C 0.7314(5) 0.5558(2) -0.00593(14)
H73 H 0.6811 0.4891 -0.0087
C42 C 0.9459(5) 0.5269(3) 0.00197(15)
H74 H 1.0077 0.5070 -0.0393
H75 H 0.9920 0.5896 0.0152
C43 C 0.5217(4) 0.5207(2) 0.26294(14)
H76 H 0.6422 0.5072 0.2872
H77 H 0.4977 0.4505 0.2527
C44 C 0.5459(4) 0.5869(2) 0.20062(15)
H78 H 0.5812 0.6545 0.2106
H79 H 0.6512 0.5467 0.1751
C45 C 0.3654(5) 0.6122(2) 0.16201(14)
H80 H 0.3412 0.5440 0.1471
C46 C 0.1857(4) 0.6684(2) 0.19776(14)
C47 C 0.1736(4) 0.6030(2) 0.26349(13)
H81 H 0.1543 0.5319 0.2517
C48 C -0.0038(4) 0.6471(2) 0.30327(14)
H82 H 0.0129 0.7131 0.3219
H83 H -0.1171 0.6657 0.2753
C49 C -0.0373(4) 0.5654(3) 0.35671(14)
H84 H -0.0669 0.5026 0.3375
H85 H -0.1503 0.5975 0.3820
C50 C 0.1337(4) 0.5270(2) 0.40176(13)
C51 C 0.3188(4) 0.4919(2) 0.36028(13)
H86 H 0.2943 0.4304 0.3375
C52 C 0.3558(4) 0.5760(2) 0.30535(13)
C53 C 0.4935(4) 0.4437(2) 0.40194(14)
H87 H 0.5243 0.5002 0.4269
H88 H 0.6046 0.4186 0.3740
C54 C 0.4624(4) 0.3497(2) 0.44800(14)
H89 H 0.4491 0.2887 0.4235
H90 H 0.5740 0.3261 0.4764
C55 C 0.2830(4) 0.3847(2) 0.48754(13)
H91 H 0.3032 0.4465 0.5109
C56 C 0.1041(4) 0.4264(2) 0.44586(13)
C57 C -0.0518(5) 0.4439(3) 0.49828(14)
H92 H -0.1807 0.4514 0.4801
H93 H -0.0477 0.5083 0.5209
C58 C 0.0009(5) 0.3412(3) 0.54322(15)
H94 H -0.0638 0.2855 0.5298
H95 H -0.0380 0.3565 0.5876
C59 C 0.2217(5) 0.3034(2) 0.53821(14)
H96 H 0.2517 0.2308 0.5215
C60 C 0.1498(5) 0.6187(2) 0.44330(14)
H97 H 0.1361 0.6857 0.4164
H98 H 0.2750 0.6027 0.4640
H99 H 0.0488 0.6260 0.4759
C61 C 0.4140(4) 0.6741(2) 0.33130(14)
H100 H 0.4973 0.7032 0.3002
H101 H 0.4824 0.6524 0.3715
H102 H 0.2992 0.7289 0.3386
C62 C 0.3239(5) 0.2987(2) 0.60166(14)
C63 C 0.2423(5) 0.2289(3) 0.65383(15)
C64 C 0.2999(5) 0.4050(2) 0.63219(14)
H103 H 0.1771 0.4531 0.6197
H104 H 0.4058 0.4412 0.6196
C65 C 0.3033(5) 0.3738(2) 0.70377(14)
H105 H 0.4385 0.3572 0.7189
C66 C 0.1847(5) 0.4606(2) 0.74286(14)
H106 H 0.0501 0.4776 0.7272
C67 C 0.1828(5) 0.4365(2) 0.81594(15)
C68 C 0.3813(5) 0.3965(3) 0.84402(16)
H107 H 0.4656 0.4438 0.8278
H108 H 0.4330 0.3238 0.8318
H109 H 0.3732 0.3963 0.8906
C69 C 0.0524(6) 0.3597(3) 0.83512(17)
H110 H 0.0408 0.3527 0.8817
H111 H 0.1067 0.2894 0.8195
H112 H -0.0742 0.3873 0.8165
C70 C 0.0115(5) 0.6632(3) 0.15816(15)
H113 H -0.1021 0.7105 0.1748
H114 H -0.0080 0.5896 0.1608
H115 H 0.0330 0.6863 0.1136
C71 C 0.1903(5) 0.7865(2) 0.20508(15)
H116 H 0.1002 0.8133 0.2395
H117 H 0.3202 0.7911 0.2181
C72 C 0.0614(5) 0.3364(2) 0.40675(14)
H118 H 0.1071 0.2669 0.4300
H119 H 0.1269 0.3380 0.3653
H120 H -0.0766 0.3475 0.4001
O25 O 0.5907(4) 0.62749(18) 0.75728(11)
O26 O 0.0805(4) 0.7642(2) 0.81774(12)
O27 O 0.1432(4) 0.8775(2) 0.69777(13)
O28 O 0.7637(4) 0.4849(2) 0.66856(13)
O29 O 0.1242(4) 0.6956(2) 0.62997(13)
O30 O 0.5027(4) 0.6000(2) 0.57260(14)
O31 O 0.7863(5) 0.9306(3) 0.08768(18)
H121 H 0.8875 0.9087 0.0672
C73 C 0.6661(12) 0.8685(5) 0.0801(4)
H122 H 0.6403 0.8334 0.1214
H123 H 0.7216 0.8142 0.0508
H124 H 0.5465 0.9115 0.0624
loop_
_geom_bond_atom_site_label_1
_geom_bond_atom_site_label_2
_geom_bond_site_symmetry_1
_geom_bond_site_symmetry_2
O1 C3 1_555 1_555
O2 H1 1_555 1_555
O3 C21 1_555 1_555
O4 C21 1_555 1_555
O5 H2 1_555 1_555
O6 H3 1_555 1_555
O7 H4 1_555 1_555
O8 H5 1_555 1_555
O9 H6 1_555 1_555
O10 H7 1_555 1_555
O11 C31 1_555 1_555
O12 H8 1_555 1_555
C1 H9 1_555 1_555
H10 C1 1_555 1_555
C2 C1 1_555 1_555
H11 C2 1_555 1_555
H12 C2 1_555 1_555
C3 C2 1_555 1_555
H13 C3 1_555 1_555
C4 C3 1_555 1_555
C5 C4 1_555 1_555
H14 C5 1_555 1_555
C6 C5 1_555 1_555
H15 C6 1_555 1_555
H16 C6 1_555 1_555
C7 C6 1_555 1_555
H17 C7 1_555 1_555
H18 C7 1_555 1_555
C8 C7 1_555 1_555
C9 C8 1_555 1_555
H19 C9 1_555 1_555
C10 C1 1_555 1_555
C11 C9 1_555 1_555
H20 C11 1_555 1_555
H21 C11 1_555 1_555
C12 C11 1_555 1_555
H22 C12 1_555 1_555
H23 C12 1_555 1_555
C13 C12 1_555 1_555
H24 C13 1_555 1_555
C14 C8 1_555 1_555
C15 C14 1_555 1_555
H25 C15 1_555 1_555
H26 C15 1_555 1_555
C16 C15 1_555 1_555
H27 C16 1_555 1_555
H28 C16 1_555 1_555
C17 C13 1_555 1_555
H29 C17 1_555 1_555
C18 C8 1_555 1_555
H30 C18 1_555 1_555
H31 C18 1_555 1_555
H32 C18 1_555 1_555
C19 C10 1_555 1_555
H33 C19 1_555 1_555
H34 C19 1_555 1_555
H35 C19 1_555 1_555
C20 O2 1_555 1_555
C21 C20 1_555 1_555
C22 C20 1_555 1_555
H36 C22 1_555 1_555
H37 C22 1_555 1_555
C23 O4 1_555 1_555
H38 C23 1_555 1_555
C24 O5 1_555 1_555
H39 C24 1_555 1_555
C25 O6 1_555 1_555
C26 C25 1_555 1_555
H40 C26 1_555 1_555
H41 C26 1_555 1_555
H42 C26 1_555 1_555
C27 C25 1_555 1_555
H43 C27 1_555 1_555
H44 C27 1_555 1_555
H45 C27 1_555 1_555
C28 C4 1_555 1_555
H46 C28 1_555 1_555
H47 C28 1_555 1_555
H48 C28 1_555 1_555
C29 O7 1_555 1_555
H49 C29 1_555 1_555
H50 C29 1_555 1_555
C30 C14 1_555 1_555
H51 C30 1_555 1_555
H52 C30 1_555 1_555
H53 C30 1_555 1_555
C31 O1 1_555 1_555
H54 C31 1_555 1_555
C32 O8 1_555 1_555
H55 C32 1_555 1_555
C33 O9 1_555 1_555
H56 C33 1_555 1_555
C34 O10 1_555 1_555
H57 C34 1_555 1_555
C35 O11 1_555 1_555
H58 C35 1_555 1_555
C36 O12 1_555 1_555
H59 C36 1_555 1_555
H60 C36 1_555 1_555
O13 H61 1_555 1_555
O14 C37 1_555 1_555
O15 H62 1_555 1_555
O16 C37 1_555 1_555
O17 H63 1_555 1_555
O18 C63 1_555 1_555
O19 C63 1_555 1_555
O20 H64 1_555 1_555
O21 H65 1_555 1_555
O22 H66 1_555 1_555
O23 H67 1_555 1_555
O24 H68 1_555 1_555
C37 H69 1_555 1_555
C38 O23 1_555 1_555
H70 C38 1_555 1_555
C39 O24 1_555 1_555
H71 C39 1_555 1_555
C40 O13 1_555 1_555
H72 C40 1_555 1_555
C41 O14 1_555 1_555
H73 C41 1_555 1_555
C42 O15 1_555 1_555
H74 C42 1_555 1_555
H75 C42 1_555 1_555
C43 H76 1_555 1_555
H77 C43 1_555 1_555
C44 C43 1_555 1_555
H78 C44 1_555 1_555
H79 C44 1_555 1_555
C45 O16 1_555 1_555
H80 C45 1_555 1_555
C46 C45 1_555 1_555
C47 C46 1_555 1_555
H81 C47 1_555 1_555
C48 C47 1_555 1_555
H82 C48 1_555 1_555
H83 C48 1_555 1_555
C49 C48 1_555 1_555
H84 C49 1_555 1_555
H85 C49 1_555 1_555
C50 C49 1_555 1_555
C51 C50 1_555 1_555
H86 C51 1_555 1_555
C52 C43 1_555 1_555
C53 C51 1_555 1_555
H87 C53 1_555 1_555
H88 C53 1_555 1_555
C54 C53 1_555 1_555
H89 C54 1_555 1_555
H90 C54 1_555 1_555
C55 C54 1_555 1_555
H91 C55 1_555 1_555
C56 C50 1_555 1_555
C57 C56 1_555 1_555
H92 C57 1_555 1_555
H93 C57 1_555 1_555
C58 C57 1_555 1_555
H94 C58 1_555 1_555
H95 C58 1_555 1_555
C59 C55 1_555 1_555
H96 C59 1_555 1_555
C60 C50 1_555 1_555
H97 C60 1_555 1_555
H98 C60 1_555 1_555
H99 C60 1_555 1_555
C61 C52 1_555 1_555
H100 C61 1_555 1_555
H101 C61 1_555 1_555
H102 C61 1_555 1_555
C62 O17 1_555 1_555
C63 C62 1_555 1_555
C64 C62 1_555 1_555
H103 C64 1_555 1_555
H104 C64 1_555 1_555
C65 O19 1_555 1_555
H105 C65 1_555 1_555
C66 O20 1_555 1_555
H106 C66 1_555 1_555
C67 O21 1_555 1_555
C68 C67 1_555 1_555
H107 C68 1_555 1_555
H108 C68 1_555 1_555
H109 C68 1_555 1_555
C69 C67 1_555 1_555
H110 C69 1_555 1_555
H111 C69 1_555 1_555
H112 C69 1_555 1_555
C70 C46 1_555 1_555
H113 C70 1_555 1_555
H114 C70 1_555 1_555
H115 C70 1_555 1_555
C71 O22 1_555 1_555
H116 C71 1_555 1_555
H117 C71 1_555 1_555
C72 C56 1_555 1_555
H118 C72 1_555 1_555
H119 C72 1_555 1_555
H120 C72 1_555 1_555
O31 H121 1_555 1_555
C73 O31 1_555 1_555
H122 C73 1_555 1_555
H123 C73 1_555 1_555
H124 C73 1_555 1_555
C4 C29 1_555 1_555
C5 C10 1_555 1_555
C9 C10 1_555 1_555
C13 C14 1_555 1_555
C16 C17 1_555 1_555
C17 C20 1_555 1_555
C22 C23 1_555 1_555
C23 C24 1_555 1_555
C24 C25 1_555 1_555
C31 C32 1_555 1_555
C32 C33 1_555 1_555
C33 C34 1_555 1_555
C34 C35 1_555 1_555
C35 C36 1_555 1_555
C37 C38 1_555 1_555
C38 C39 1_555 1_555
C39 C40 1_555 1_555
C40 C41 1_555 1_555
C41 C42 1_555 1_555
C44 C45 1_555 1_555
C46 C71 1_555 1_555
C47 C52 1_555 1_555
C51 C52 1_555 1_555
C55 C56 1_555 1_555
C58 C59 1_555 1_555
C59 C62 1_555 1_555
C64 C65 1_555 1_555
C65 C66 1_555 1_555
C66 C67 1_555 1_555

#END
