
#######################################################################
#
#                 Cambridge Crystallographic Data Centre
#                                CCDC 
#
#######################################################################
#
# If this CIF has been generated from an entry in the Cambridge 
# Structural Database, then it will include bibliographic, chemical, 
# crystal, experimental, refinement or atomic coordinate data resulting 
# from the CCDC's data processing and validation procedures.
#
#######################################################################

data_YOLLUI
_chemical_compound_source        'Marine-Derived Fungus Beauveria felina EN-135'
_chemical_name_common            'Desmethylisaridin C1 monohydrate'
_chemical_formula_moiety         'C35 H53 N5 O7,H2 O1'
_chemical_name_systematic        
'3-benzyl-9,16-diisobutyl-6-isopropyl-5-methyldodecahydropyrrolo[1,2-d][1,4,7,10,13,16]oxapentaazacyclononadecine-1,4,7,10,14,17(11H,16H)-hexone depsipeptide monohydrate'
_symmetry_cell_setting           orthorhombic
_symmetry_space_group_name_H-M   'P 21 21 21'
_symmetry_Int_Tables_number      19
_space_group_name_Hall           'P 2ac 2ab'
loop_
_symmetry_equiv_pos_site_id
_symmetry_equiv_pos_as_xyz
1 x,y,z
2 1/2-x,-y,1/2+z
3 -x,1/2+y,1/2-z
4 1/2+x,1/2-y,-z
_cell_length_a                   9.3052(6)
_cell_length_b                   17.0969(11)
_cell_length_c                   23.5305(15)
_cell_angle_alpha                90
_cell_angle_beta                 90
_cell_angle_gamma                90
_cell_volume                     3743.47
_cell_formula_units_Z            4
loop_
_atom_site_label
_atom_site_type_symbol
_atom_site_fract_x
_atom_site_fract_y
_atom_site_fract_z
N1 N 0.1586(5) 0.1436(3) 0.64745(19)
N2 N 0.5955(5) 0.2907(3) 0.6121(2)
H1 H 0.5244 0.3190 0.6010
N3 N 0.4503(5) 0.4010(2) 0.67785(18)
H2 H 0.3769 0.3779 0.6632
N4 N 0.2057(5) 0.5084(3) 0.69699(19)
N5 N 0.0204(5) 0.3407(3) 0.6549(2)
H3 H -0.0639 0.3290 0.6672
O1 O 0.2412(4) 0.2969(2) 0.63534(19)
O2 O 0.0432(5) 0.1620(2) 0.56526(17)
O3 O 0.3854(4) 0.0801(2) 0.57799(17)
O4 O 0.3835(5) 0.1934(3) 0.5300(2)
O5 O 0.7455(4) 0.2621(3) 0.68347(19)
O6 O 0.5640(5) 0.5158(3) 0.6886(2)
O7 O -0.0026(5) 0.4649(3) 0.73170(19)
C1 C 0.1179(6) 0.2849(3) 0.6522(2)
C2 C 0.0732(6) 0.2049(3) 0.6742(2)
H4 H -0.0296 0.1960 0.6677
C3 C 0.1090(7) 0.1985(4) 0.7377(2)
H5 H 0.1607 0.2445 0.7504
H6 H 0.0218 0.1933 0.7600
C4 C 0.1997(8) 0.1276(4) 0.7435(3)
H7 H 0.2733 0.1358 0.7720
H8 H 0.1416 0.0831 0.7546
C5 C 0.2662(7) 0.1138(4) 0.6871(3)
H9 H 0.3561 0.1421 0.6835
H10 H 0.2838 0.0585 0.6809
C6 C 0.1397(6) 0.1295(3) 0.5914(2)
C7 C 0.2339(6) 0.0688(3) 0.5628(3)
H11 H 0.2243 0.0749 0.5216
C8 C 0.1995(6) -0.0169(3) 0.5781(3)
H12 H 0.2682 -0.0504 0.5589
H13 H 0.2134 -0.0237 0.6186
C9 C 0.0484(8) -0.0445(4) 0.5629(3)
H14 H 0.0231 -0.0247 0.5251
C10 C -0.0624(8) -0.0172(5) 0.6050(4)
H15 H -0.1530 -0.0416 0.5968
H16 H -0.0724 0.0386 0.6025
H17 H -0.0326 -0.0312 0.6427
C11 C 0.0484(10) -0.1339(4) 0.5614(4)
H18 H 0.0746 -0.1537 0.5982
H19 H 0.1164 -0.1517 0.5336
H20 H -0.0458 -0.1523 0.5516
C12 C 0.4452(7) 0.1462(4) 0.5588(2)
C13 C 0.5994(6) 0.1541(4) 0.5786(3)
H21 H 0.6590 0.1182 0.5570
H22 H 0.6053 0.1391 0.6182
C14 C 0.6583(6) 0.2366(4) 0.5718(3)
H23 H 0.7617 0.2356 0.5771
H24 H 0.6391 0.2548 0.5335
C15 C 0.6417(6) 0.2989(3) 0.6651(3)
C16 C 0.5621(6) 0.3531(3) 0.7051(2)
H25 H 0.6333 0.3894 0.7208
C17 C 0.5023(7) 0.3046(4) 0.7557(2)
H26 H 0.4389 0.2646 0.7407
H27 H 0.5822 0.2781 0.7740
C18 C 0.4216(7) 0.3501(4) 0.8004(2)
H28 H 0.3397 0.3758 0.7820
C19 C 0.3645(9) 0.2963(4) 0.8462(3)
H29 H 0.4424 0.2670 0.8623
H30 H 0.2956 0.2610 0.8300
H31 H 0.3191 0.3269 0.8753
C20 C 0.5155(10) 0.4126(5) 0.8269(3)
H32 H 0.4646 0.4371 0.8576
H33 H 0.5392 0.4512 0.7987
H34 H 0.6021 0.3892 0.8411
C21 C 0.4582(6) 0.4789(3) 0.6749(2)
C22 C 0.3181(6) 0.5188(3) 0.6534(2)
H35 H 0.2870 0.4925 0.6185
C23 C 0.3497(7) 0.6053(3) 0.6396(2)
H36 H 0.4124 0.6265 0.6693
C24 C 0.4308(8) 0.6081(4) 0.5825(3)
H37 H 0.3658 0.5957 0.5521
H38 H 0.5078 0.5708 0.5830
H39 H 0.4693 0.6596 0.5768
C25 C 0.2145(8) 0.6557(4) 0.6363(3)
H40 H 0.2393 0.7069 0.6227
H41 H 0.1720 0.6598 0.6733
H42 H 0.1471 0.6320 0.6106
C26 C 0.0836(6) 0.4672(3) 0.6918(2)
C27 C 0.0481(6) 0.4208(3) 0.6381(2)
H43 H 0.1288 0.4228 0.6114
C28 C -0.0898(7) 0.4519(3) 0.6095(3)
H44 H -0.1278 0.4114 0.5849
H45 H -0.1608 0.4618 0.6388
C29 C -0.0702(6) 0.5262(3) 0.5747(2)
C30 C 0.0308(8) 0.5284(4) 0.5305(3)
H46 H 0.0881 0.4850 0.5231
C31 C 0.0450(10) 0.5945(4) 0.4981(3)
H47 H 0.1102 0.5949 0.4681
C32 C -0.0355(10) 0.6602(5) 0.5092(3)
H48 H -0.0256 0.7047 0.4868
C33 C -0.1292(9) 0.6591(4) 0.5531(3)
H49 H -0.1833 0.7034 0.5614
C34 C -0.1451(8) 0.5918(4) 0.5861(3)
H50 H -0.2088 0.5922 0.6165
C35 C 0.2334(8) 0.5466(4) 0.7527(2)
H51 H 0.1745 0.5925 0.7562
H52 H 0.3329 0.5612 0.7551
H53 H 0.2109 0.5108 0.7829
O8 O 0.8661(6) 0.1237(3) 0.46747(18)
H54 H 0.8422 0.1565 0.4420
H55 H 0.9178 0.1467 0.4921
loop_
_geom_bond_atom_site_label_1
_geom_bond_atom_site_label_2
_geom_bond_site_symmetry_1
_geom_bond_site_symmetry_2
N1 C2 1_555 1_555
N2 H1 1_555 1_555
N3 H2 1_555 1_555
N4 C22 1_555 1_555
N5 H3 1_555 1_555
O1 C1 1_555 1_555
O2 C6 1_555 1_555
O3 C7 1_555 1_555
O4 C12 1_555 1_555
O5 C15 1_555 1_555
O6 C21 1_555 1_555
O7 C26 1_555 1_555
C1 N5 1_555 1_555
C2 C1 1_555 1_555
H4 C2 1_555 1_555
C3 C2 1_555 1_555
H5 C3 1_555 1_555
H6 C3 1_555 1_555
C4 C3 1_555 1_555
H7 C4 1_555 1_555
H8 C4 1_555 1_555
C5 N1 1_555 1_555
H9 C5 1_555 1_555
H10 C5 1_555 1_555
C6 N1 1_555 1_555
C7 C6 1_555 1_555
H11 C7 1_555 1_555
C8 C7 1_555 1_555
H12 C8 1_555 1_555
H13 C8 1_555 1_555
C9 C8 1_555 1_555
H14 C9 1_555 1_555
C10 C9 1_555 1_555
H15 C10 1_555 1_555
H16 C10 1_555 1_555
H17 C10 1_555 1_555
C11 C9 1_555 1_555
H18 C11 1_555 1_555
H19 C11 1_555 1_555
H20 C11 1_555 1_555
C12 O3 1_555 1_555
C13 C12 1_555 1_555
H21 C13 1_555 1_555
H22 C13 1_555 1_555
C14 N2 1_555 1_555
H23 C14 1_555 1_555
H24 C14 1_555 1_555
C15 N2 1_555 1_555
C16 N3 1_555 1_555
H25 C16 1_555 1_555
C17 C16 1_555 1_555
H26 C17 1_555 1_555
H27 C17 1_555 1_555
C18 C17 1_555 1_555
H28 C18 1_555 1_555
C19 C18 1_555 1_555
H29 C19 1_555 1_555
H30 C19 1_555 1_555
H31 C19 1_555 1_555
C20 C18 1_555 1_555
H32 C20 1_555 1_555
H33 C20 1_555 1_555
H34 C20 1_555 1_555
C21 N3 1_555 1_555
C22 C21 1_555 1_555
H35 C22 1_555 1_555
C23 C22 1_555 1_555
H36 C23 1_555 1_555
C24 C23 1_555 1_555
H37 C24 1_555 1_555
H38 C24 1_555 1_555
H39 C24 1_555 1_555
C25 C23 1_555 1_555
H40 C25 1_555 1_555
H41 C25 1_555 1_555
H42 C25 1_555 1_555
C26 N4 1_555 1_555
C27 N5 1_555 1_555
H43 C27 1_555 1_555
C28 C27 1_555 1_555
H44 C28 1_555 1_555
H45 C28 1_555 1_555
C29 C28 1_555 1_555
C30 C29 1_555 1_555
H46 C30 1_555 1_555
C31 C30 1_555 1_555
H47 C31 1_555 1_555
C32 C31 1_555 1_555
H48 C32 1_555 1_555
C33 C32 1_555 1_555
H49 C33 1_555 1_555
C34 C29 1_555 1_555
H50 C34 1_555 1_555
C35 N4 1_555 1_555
H51 C35 1_555 1_555
H52 C35 1_555 1_555
H53 C35 1_555 1_555
O8 H54 1_555 1_555
H55 O8 1_555 1_555
C4 C5 1_555 1_555
C13 C14 1_555 1_555
C15 C16 1_555 1_555
C26 C27 1_555 1_555
C33 C34 1_555 1_555

#END
