
#######################################################################
#
#                 Cambridge Crystallographic Data Centre
#                                CCDC 
#
#######################################################################
#
# If this CIF has been generated from an entry in the Cambridge 
# Structural Database, then it will include bibliographic, chemical, 
# crystal, experimental, refinement or atomic coordinate data resulting 
# from the CCDC's data processing and validation procedures.
#
#######################################################################

data_YOLMAP
_chemical_compound_source        'Marine-Derived Fungus Beauveria felina EN-135'
_chemical_name_common            'Isaridin G'
_chemical_formula_moiety         'C36 H55 N5 O8,H2 O1'
_chemical_name_systematic        
'3-(4-hydroxybenzyl)-9,16-diisobutyl-6-isopropyl-5,8-dimethyldodecahydropyrrolo[1,2-d][1,4,7,10,13,16]oxapentaazacyclononadecine-1,4,7,10,14,17(11H,16H)-hexone depsipeptide monohydrate'
_symmetry_cell_setting           orthorhombic
_symmetry_space_group_name_H-M   'P 21 21 21'
_symmetry_Int_Tables_number      19
_space_group_name_Hall           'P 2ac 2ab'
loop_
_symmetry_equiv_pos_site_id
_symmetry_equiv_pos_as_xyz
1 x,y,z
2 1/2-x,-y,1/2+z
3 -x,1/2+y,1/2-z
4 1/2+x,1/2-y,-z
_cell_length_a                   10.2134(9)
_cell_length_b                   15.7979(16)
_cell_length_c                   24.297(3)
_cell_angle_alpha                90
_cell_angle_beta                 90
_cell_angle_gamma                90
_cell_volume                     3920.33
_cell_formula_units_Z            4
loop_
_atom_site_label
_atom_site_type_symbol
_atom_site_fract_x
_atom_site_fract_y
_atom_site_fract_z
N1 N 0.5925(11) 0.2657(7) 0.0891(5)
N2 N 0.5034(9) 0.5987(7) 0.2213(4)
H1 H 0.4805 0.5701 0.1927
N3 N 0.2067(9) 0.6870(7) 0.2082(4)
N4 N 0.1426(9) 0.4930(7) 0.1564(4)
N5 N 0.3671(9) 0.3173(7) 0.1488(4)
H2 H 0.4368 0.2987 0.1645
O1 O 0.2449(9) 0.3198(7) 0.0730(3)
O2 O 0.7923(8) 0.3137(6) 0.1136(4)
O3 O 0.6961(8) 0.4767(6) 0.1309(3)
O4 O 0.6113(8) 0.3989(6) 0.2008(4)
O5 O 0.4637(9) 0.7149(6) 0.2715(4)
O6 O -0.0004(9) 0.6438(6) 0.2034(4)
O7 O 0.3615(8) 0.4903(5) 0.1472(3)
O8 O -0.0758(11) 0.5399(8) 0.3666(5)
H3 H -0.0552 0.5900 0.3684
C1 C 0.3488(14) 0.3047(10) 0.0945(6)
C2 C 0.4665(12) 0.2758(8) 0.0620(6)
H4 H 0.4777 0.3139 0.0305
C3 C 0.4413(14) 0.1849(9) 0.0398(6)
H5 H 0.3487 0.1712 0.0406
H6 H 0.4736 0.1787 0.0025
C4 C 0.5157(16) 0.1309(9) 0.0785(7)
H7 H 0.4628 0.1188 0.1107
H8 H 0.5379 0.0777 0.0609
C5 C 0.6358(14) 0.1754(9) 0.0950(6)
H9 H 0.7084 0.1623 0.0707
H10 H 0.6602 0.1623 0.1326
C6 C 0.6756(13) 0.3269(10) 0.0999(6)
C7 C 0.6336(12) 0.4206(8) 0.0916(5)
H11 H 0.5383 0.4251 0.0955
C8 C 0.6736(13) 0.4545(9) 0.0357(5)
H12 H 0.7684 0.4583 0.0345
H13 H 0.6468 0.4141 0.0078
C9 C 0.6175(14) 0.5395(10) 0.0214(6)
H14 H 0.6248 0.5756 0.0541
C10 C 0.4729(16) 0.5324(11) 0.0069(6)
H15 H 0.4626 0.4951 -0.0241
H16 H 0.4394 0.5873 -0.0023
H17 H 0.4256 0.5101 0.0378
C11 C 0.6943(17) 0.5821(10) -0.0253(6)
H18 H 0.7838 0.5896 -0.0142
H19 H 0.6562 0.6362 -0.0333
H20 H 0.6911 0.5471 -0.0576
C12 C 0.6705(11) 0.4602(9) 0.1837(6)
C13 C 0.7188(12) 0.5294(8) 0.2209(5)
H21 H 0.7556 0.5746 0.1987
H22 H 0.7878 0.5074 0.2443
C14 C 0.6075(11) 0.5652(9) 0.2571(5)
H23 H 0.5726 0.5209 0.2805
H24 H 0.6412 0.6100 0.2805
C15 C 0.4435(13) 0.6720(10) 0.2317(6)
C16 C 0.3431(11) 0.6963(8) 0.1877(5)
H25 H 0.3541 0.6574 0.1566
C17 C 0.3695(12) 0.7879(8) 0.1664(5)
H26 H 0.2988 0.8045 0.1420
H27 H 0.3694 0.8264 0.1975
C18 C 0.5016(14) 0.7964(9) 0.1353(6)
H28 H 0.5715 0.7786 0.1604
C19 C 0.5260(16) 0.8863(8) 0.1201(6)
H29 H 0.6067 0.8903 0.0999
H30 H 0.5318 0.9200 0.1528
H31 H 0.4554 0.9066 0.0976
C20 C 0.508(2) 0.7424(10) 0.0863(7)
H32 H 0.4366 0.7561 0.0621
H33 H 0.5015 0.6841 0.0971
H34 H 0.5894 0.7516 0.0676
C21 C 0.1134(13) 0.6404(9) 0.1845(6)
C22 C 0.1368(11) 0.5841(9) 0.1366(5)
H35 H 0.2237 0.5982 0.1221
C23 C 0.0410(12) 0.5929(9) 0.0895(5)
H36 H -0.0467 0.5804 0.1037
C24 C 0.0427(15) 0.6895(9) 0.0702(6)
H37 H 0.0041 0.7242 0.0983
H38 H -0.0063 0.6952 0.0367
H39 H 0.1315 0.7071 0.0641
C25 C 0.0671(14) 0.5345(9) 0.0417(5)
H40 H 0.1568 0.5398 0.0305
H41 H 0.0108 0.5493 0.0116
H42 H 0.0502 0.4771 0.0527
C26 C 0.2607(13) 0.4543(9) 0.1597(5)
C27 C 0.2669(12) 0.3632(8) 0.1815(5)
H43 H 0.1816 0.3359 0.1765
C28 C 0.3050(13) 0.3608(9) 0.2435(5)
H44 H 0.3124 0.3023 0.2552
H45 H 0.3900 0.3872 0.2481
C29 C 0.2058(14) 0.4060(10) 0.2803(5)
C30 C 0.1016(15) 0.3616(10) 0.3032(6)
H46 H 0.0936 0.3033 0.2990
C31 C 0.0105(16) 0.4077(11) 0.3324(6)
H47 H -0.0601 0.3796 0.3482
C32 C 0.0206(16) 0.4953(12) 0.3392(6)
C33 C 0.1295(14) 0.5388(10) 0.3201(5)
H48 H 0.1410 0.5961 0.3273
C34 C 0.2195(14) 0.4937(10) 0.2902(5)
H49 H 0.2920 0.5218 0.2759
C35 C 0.1711(14) 0.7446(8) 0.2539(5)
H50 H 0.1525 0.7999 0.2394
H51 H 0.2426 0.7482 0.2794
H52 H 0.0950 0.7231 0.2724
C36 C 0.0196(11) 0.4534(8) 0.1699(5)
H53 H 0.0129 0.4002 0.1510
H54 H -0.0511 0.4896 0.1588
H55 H 0.0151 0.4440 0.2089
O9 O 0.0225(10) 0.2142(6) 0.1024(5)
H56 H 0.0865 0.2460 0.0938
H57 H -0.0456 0.2448 0.1055
loop_
_geom_bond_atom_site_label_1
_geom_bond_atom_site_label_2
_geom_bond_site_symmetry_1
_geom_bond_site_symmetry_2
N1 C2 1_555 1_555
N2 H1 1_555 1_555
N3 C16 1_555 1_555
N4 C22 1_555 1_555
N5 H2 1_555 1_555
O1 C1 1_555 1_555
O2 C6 1_555 1_555
O3 C7 1_555 1_555
O4 C12 1_555 1_555
O5 C15 1_555 1_555
O6 C21 1_555 1_555
O7 C26 1_555 1_555
O8 H3 1_555 1_555
C1 N5 1_555 1_555
C2 C1 1_555 1_555
H4 C2 1_555 1_555
C3 C2 1_555 1_555
H5 C3 1_555 1_555
H6 C3 1_555 1_555
C4 C3 1_555 1_555
H7 C4 1_555 1_555
H8 C4 1_555 1_555
C5 N1 1_555 1_555
H9 C5 1_555 1_555
H10 C5 1_555 1_555
C6 N1 1_555 1_555
C7 C6 1_555 1_555
H11 C7 1_555 1_555
C8 C7 1_555 1_555
H12 C8 1_555 1_555
H13 C8 1_555 1_555
C9 C8 1_555 1_555
H14 C9 1_555 1_555
C10 C9 1_555 1_555
H15 C10 1_555 1_555
H16 C10 1_555 1_555
H17 C10 1_555 1_555
C11 C9 1_555 1_555
H18 C11 1_555 1_555
H19 C11 1_555 1_555
H20 C11 1_555 1_555
C12 O3 1_555 1_555
C13 C12 1_555 1_555
H21 C13 1_555 1_555
H22 C13 1_555 1_555
C14 N2 1_555 1_555
H23 C14 1_555 1_555
H24 C14 1_555 1_555
C15 N2 1_555 1_555
C16 C15 1_555 1_555
H25 C16 1_555 1_555
C17 C16 1_555 1_555
H26 C17 1_555 1_555
H27 C17 1_555 1_555
C18 C17 1_555 1_555
H28 C18 1_555 1_555
C19 C18 1_555 1_555
H29 C19 1_555 1_555
H30 C19 1_555 1_555
H31 C19 1_555 1_555
C20 C18 1_555 1_555
H32 C20 1_555 1_555
H33 C20 1_555 1_555
H34 C20 1_555 1_555
C21 N3 1_555 1_555
C22 C21 1_555 1_555
H35 C22 1_555 1_555
C23 C22 1_555 1_555
H36 C23 1_555 1_555
C24 C23 1_555 1_555
H37 C24 1_555 1_555
H38 C24 1_555 1_555
H39 C24 1_555 1_555
C25 C23 1_555 1_555
H40 C25 1_555 1_555
H41 C25 1_555 1_555
H42 C25 1_555 1_555
C26 N4 1_555 1_555
C27 N5 1_555 1_555
H43 C27 1_555 1_555
C28 C27 1_555 1_555
H44 C28 1_555 1_555
H45 C28 1_555 1_555
C29 C28 1_555 1_555
C30 C29 1_555 1_555
H46 C30 1_555 1_555
C31 C30 1_555 1_555
H47 C31 1_555 1_555
C32 O8 1_555 1_555
C33 C32 1_555 1_555
H48 C33 1_555 1_555
C34 C29 1_555 1_555
H49 C34 1_555 1_555
C35 N3 1_555 1_555
H50 C35 1_555 1_555
H51 C35 1_555 1_555
H52 C35 1_555 1_555
C36 N4 1_555 1_555
H53 C36 1_555 1_555
H54 C36 1_555 1_555
H55 C36 1_555 1_555
O9 H56 1_555 1_555
H57 O9 1_555 1_555
C4 C5 1_555 1_555
C13 C14 1_555 1_555
C26 C27 1_555 1_555
C31 C32 1_555 1_555
C33 C34 1_555 1_555

#END
