
#######################################################################
#
#                 Cambridge Crystallographic Data Centre
#                                CCDC 
#
#######################################################################
#
# If this CIF has been generated from an entry in the Cambridge 
# Structural Database, then it will include bibliographic, chemical, 
# crystal, experimental, refinement or atomic coordinate data resulting 
# from the CCDC's data processing and validation procedures.
#
#######################################################################

data_YOLQIB
_chemical_name_common            'Desmethylisaridin G acetonitrile solvate'
_chemical_formula_moiety         'C35 H53 N5 O8,C2 H3 N1'
_chemical_name_systematic        
'3-(4-Hydroxybenzyl)-9,16-di-isobutyl-6-isopropyl-5-methyldodecahydropyrrolo[1,2-d][1,4,7,10,13,16]oxapenta-azacyclononadecine-1,4,7,10,14,17(11H,16H)-hexone acetonitrile solvate'
_symmetry_cell_setting           monoclinic
_symmetry_space_group_name_H-M   'P 21'
_symmetry_Int_Tables_number      4
_space_group_name_Hall           'P 2yb'
loop_
_symmetry_equiv_pos_site_id
_symmetry_equiv_pos_as_xyz
1 x,y,z
2 -x,1/2+y,-z
_cell_length_a                   9.6584(4)
_cell_length_b                   19.8105(8)
_cell_length_c                   11.0401(6)
_cell_angle_alpha                90
_cell_angle_beta                 109.791(2)
_cell_angle_gamma                90
_cell_volume                     1987.62
_cell_formula_units_Z            2
loop_
_atom_site_label
_atom_site_type_symbol
_atom_site_fract_x
_atom_site_fract_y
_atom_site_fract_z
N1 N 0.4655(3) 0.69221(14) 0.9003(2)
N2 N -0.0482(10) 0.7701(5) 0.6221(12)
H1 H 0.0207 0.7649 0.5899
N3 N -0.0281(2) 0.66544(15) 0.4667(2)
H2 H 0.0652 0.6688 0.5056
N4 N 0.1504(2) 0.61669(11) 0.3270(2)
N5 N 0.4534(2) 0.69835(12) 0.56785(19)
H3 H 0.5446 0.7083 0.5843
O1 O 0.3495(4) 0.75255(17) 1.0080(3)
O2 O 0.2850(2) 0.84887(14) 0.8240(3)
O3 O 0.2239(3) 0.83237(18) 0.6118(3)
O4 O -0.2385(2) 0.7304(2) 0.6564(3)
O5 O -0.2097(2) 0.66257(17) 0.2753(2)
O6 O 0.3738(2) 0.57779(12) 0.4444(2)
O7 O 0.27509(18) 0.67137(13) 0.64803(17)
O8 O 0.6899(4) 0.98107(14) 0.3972(3)
H4 H 0.6599 1.0061 0.4421
C1 C 0.4043(3) 0.68347(14) 0.6641(2)
C2 C 0.5245(3) 0.68067(16) 0.7965(2)
H5 H 0.6023 0.7134 0.8014
C3 C 0.5885(4) 0.6093(2) 0.8243(3)
H6 H 0.5824 0.5863 0.7450
H7 H 0.6907 0.6107 0.8799
C4 C 0.4972(5) 0.5747(2) 0.8889(4)
H8 H 0.5511 0.5379 0.9422
H9 H 0.4081 0.5568 0.8262
C5 C 0.4609(5) 0.6294(2) 0.9712(3)
H10 H 0.3642 0.6224 0.9774
H11 H 0.5334 0.6304 1.0571
C6 C 0.4072(3) 0.74850(19) 0.9255(3)
C7 C 0.4219(3) 0.81230(18) 0.8519(3)
C8 C 0.5472(4) 0.8550(2) 0.9359(4)
H12 H 0.6257 0.8257 0.9870
H13 H 0.5132 0.8812 0.9945
C9 C 0.6092(17) 0.9038(8) 0.8566(16)
H14 H 0.6262 0.8774 0.7879
C10 C 0.5025(11) 0.9610(5) 0.7927(8)
H15 H 0.4759 0.9850 0.8571
H16 H 0.4156 0.9423 0.7305
H17 H 0.5490 0.9913 0.7506
C11 C 0.7575(18) 0.9305(11) 0.9429(19)
H18 H 0.7600 0.9787 0.9342
H19 H 0.8345 0.9105 0.9182
H20 H 0.7715 0.9193 1.0309
C12 C 0.1945(4) 0.85091(19) 0.7011(5)
C13 C 0.0489(9) 0.8838(5) 0.6698(11)
H21 H 0.0116 0.8973 0.5800
H22 H 0.0551 0.9234 0.7232
C14 C -0.0491(8) 0.8303(5) 0.6973(10)
H23 H -0.0137 0.8194 0.7883
H24 H -0.1488 0.8474 0.6751
C15 C -0.1470(3) 0.7252(2) 0.6030(4)
C16 C -0.1247(3) 0.6604(2) 0.5434(3)
H25 H -0.2210 0.6445 0.4871
C17 C -0.0639(5) 0.6084(3) 0.6535(4)
H26 H 0.0346 0.6222 0.7059
H27 H -0.1247 0.6098 0.7076
C18 C -0.0577(7) 0.5388(4) 0.6122(7)
H28 H 0.0057 0.5383 0.5593
C19 C -0.2037(10) 0.5134(5) 0.5311(12)
H29 H -0.2456 0.5437 0.4602
H30 H -0.2672 0.5106 0.5816
H31 H -0.1930 0.4694 0.4988
C20 C 0.0152(12) 0.4932(6) 0.7296(11)
H32 H 0.0070 0.4469 0.7027
H33 H -0.0331 0.4994 0.7919
H34 H 0.1172 0.5050 0.7675
C21 C -0.0797(3) 0.66493(16) 0.3381(3)
C22 C 0.0397(3) 0.66941(15) 0.2731(2)
H35 H 0.0888 0.7132 0.2956
C23 C -0.0290(3) 0.6660(2) 0.1245(3)
H36 H -0.1011 0.6292 0.1022
C24 C -0.1094(5) 0.7315(3) 0.0751(4)
H37 H -0.1488 0.7304 -0.0172
H38 H -0.0421 0.7686 0.1024
H39 H -0.1881 0.7369 0.1089
C25 C 0.0859(5) 0.6517(3) 0.0608(3)
H40 H 0.1432 0.6130 0.1006
H41 H 0.1494 0.6901 0.0710
H42 H 0.0374 0.6430 -0.0292
C26 C 0.2915(3) 0.62635(14) 0.4023(2)
C27 C 0.3536(3) 0.69786(14) 0.4356(2)
H43 H 0.2726 0.7293 0.4271
C28 C 0.4340(3) 0.71909(15) 0.3442(3)
H44 H 0.5120 0.6868 0.3518
H45 H 0.3654 0.7165 0.2567
C29 C 0.5004(3) 0.78909(15) 0.3655(3)
C30 C 0.4640(3) 0.83910(17) 0.4372(3)
H46 H 0.3972 0.8294 0.4788
C31 C 0.5245(4) 0.90330(17) 0.4487(3)
H47 H 0.4974 0.9358 0.4973
C32 C 0.6244(4) 0.91940(18) 0.3887(3)
C33 C 0.6628(5) 0.8699(2) 0.3164(4)
H48 H 0.7303 0.8797 0.2756
C34 C 0.6011(4) 0.80664(17) 0.3053(3)
H49 H 0.6274 0.7744 0.2558
C35 C 0.0967(4) 0.54702(17) 0.3038(3)
H50 H 0.1133 0.5247 0.3846
H51 H 0.1483 0.5235 0.2560
H52 H -0.0068 0.5472 0.2555
N7 N 0.1474(8) 0.9882(3) -0.0228(5)
C41 C 0.2371(8) 0.8860(3) 0.1234(6)
H65 H 0.1734 0.8777 0.1722
H66 H 0.3346 0.8957 0.1810
H67 H 0.2396 0.8468 0.0730
C42 C 0.1833(6) 0.9423(3) 0.0400(5)
N6? N -0.0808(10) 0.7860(6) 0.5594(14)
H53? H -0.0387 0.7790 0.5033
C36? C 0.583(3) 0.9222(12) 0.888(2)
H54? H 0.4940 0.9500 0.8548
C37? C 0.640(2) 0.9027(10) 0.7765(19)
H55? H 0.5614 0.9067 0.6955
H56? H 0.6752 0.8570 0.7880
H57? H 0.7188 0.9324 0.7772
C38? C 0.704(2) 0.9609(12) 0.988(3)
H58? H 0.7964 0.9518 0.9762
H59? H 0.7087 0.9470 1.0721
H60? H 0.6834 1.0084 0.9776
C39? C 0.0408(10) 0.8660(6) 0.7303(15)
H61? H 0.0308 0.8353 0.7952
H62? H 0.0397 0.9120 0.7603
C40? C -0.0819(9) 0.8553(5) 0.6037(12)
H63? H -0.1757 0.8647 0.6142
H64? H -0.0700 0.8862 0.5398
loop_
_geom_bond_atom_site_label_1
_geom_bond_atom_site_label_2
_geom_bond_site_symmetry_1
_geom_bond_site_symmetry_2
N1 C2 1_555 1_555
N2 H1 1_555 1_555
N3 H2 1_555 1_555
N4 C22 1_555 1_555
N5 H3 1_555 1_555
O1 C6 1_555 1_555
O2 C7 1_555 1_555
O3 C12 1_555 1_555
O4 C15 1_555 1_555
O5 C21 1_555 1_555
O6 C26 1_555 1_555
O7 C1 1_555 1_555
O8 H4 1_555 1_555
C1 N5 1_555 1_555
C2 C1 1_555 1_555
H5 C2 1_555 1_555
C3 C2 1_555 1_555
H6 C3 1_555 1_555
H7 C3 1_555 1_555
C4 C3 1_555 1_555
H8 C4 1_555 1_555
H9 C4 1_555 1_555
C5 N1 1_555 1_555
H10 C5 1_555 1_555
H11 C5 1_555 1_555
C6 N1 1_555 1_555
C7 C6 1_555 1_555
C8 C7 1_555 1_555
H12 C8 1_555 1_555
H13 C8 1_555 1_555
C9 C8 1_555 1_555
H14 C9 1_555 1_555
C10 C9 1_555 1_555
H15 C10 1_555 1_555
H16 C10 1_555 1_555
H17 C10 1_555 1_555
C11 C9 1_555 1_555
H18 C11 1_555 1_555
H19 C11 1_555 1_555
H20 C11 1_555 1_555
C12 O2 1_555 1_555
C13 C12 1_555 1_555
H21 C13 1_555 1_555
H22 C13 1_555 1_555
C14 N2 1_555 1_555
H23 C14 1_555 1_555
H24 C14 1_555 1_555
C15 N2 1_555 1_555
C16 N3 1_555 1_555
H25 C16 1_555 1_555
C17 C16 1_555 1_555
H26 C17 1_555 1_555
H27 C17 1_555 1_555
C18 C17 1_555 1_555
H28 C18 1_555 1_555
C19 C18 1_555 1_555
H29 C19 1_555 1_555
H30 C19 1_555 1_555
H31 C19 1_555 1_555
C20 C18 1_555 1_555
H32 C20 1_555 1_555
H33 C20 1_555 1_555
H34 C20 1_555 1_555
C21 N3 1_555 1_555
C22 C21 1_555 1_555
H35 C22 1_555 1_555
C23 C22 1_555 1_555
H36 C23 1_555 1_555
C24 C23 1_555 1_555
H37 C24 1_555 1_555
H38 C24 1_555 1_555
H39 C24 1_555 1_555
C25 C23 1_555 1_555
H40 C25 1_555 1_555
H41 C25 1_555 1_555
H42 C25 1_555 1_555
C26 N4 1_555 1_555
C27 N5 1_555 1_555
H43 C27 1_555 1_555
C28 C27 1_555 1_555
H44 C28 1_555 1_555
H45 C28 1_555 1_555
C29 C28 1_555 1_555
C30 C29 1_555 1_555
H46 C30 1_555 1_555
C31 C30 1_555 1_555
H47 C31 1_555 1_555
C32 O8 1_555 1_555
C33 C32 1_555 1_555
H48 C33 1_555 1_555
C34 C29 1_555 1_555
H49 C34 1_555 1_555
C35 N4 1_555 1_555
H50 C35 1_555 1_555
H51 C35 1_555 1_555
H52 C35 1_555 1_555
N7 C42 1_555 1_555
C41 H65 1_555 1_555
H66 C41 1_555 1_555
H67 C41 1_555 1_555
C42 C41 1_555 1_555
C4 C5 1_555 1_555
C13 C14 1_555 1_555
C15 C16 1_555 1_555
C26 C27 1_555 1_555
C31 C32 1_555 1_555
C33 C34 1_555 1_555

#END
