
#######################################################################
#
#                 Cambridge Crystallographic Data Centre
#                                CCDC 
#
#######################################################################
#
# If this CIF has been generated from an entry in the Cambridge 
# Structural Database, then it will include bibliographic, chemical, 
# crystal, experimental, refinement or atomic coordinate data resulting 
# from the CCDC's data processing and validation procedures.
#
#######################################################################

data_YOLSOJ
_chemical_formula_moiety         'C33 H44 Li1 N1 O3 Si1'
_chemical_name_systematic        
(1,1-Dimethyl-3,3-diphenyl-1,3-dihydro-2H-2,1-benzazasilol-2-yl)-tris(tetrahydrofuran)-lithium
_symmetry_cell_setting           orthorhombic
_symmetry_space_group_name_H-M   'P n a 21'
_symmetry_Int_Tables_number      33
_space_group_name_Hall           'P 2c -2n'
loop_
_symmetry_equiv_pos_site_id
_symmetry_equiv_pos_as_xyz
1 x,y,z
2 -x,-y,1/2+z
3 1/2+x,1/2-y,z
4 1/2-x,1/2+y,1/2+z
_cell_length_a                   18.7063(12)
_cell_length_b                   11.4184(7)
_cell_length_c                   13.9803(10)
_cell_angle_alpha                90
_cell_angle_beta                 90
_cell_angle_gamma                90
_cell_volume                     2986.14
_exptl_crystal_colour            'whitish colorless'
_exptl_crystal_description       plate
_cell_formula_units_Z            4
_chemical_properties_physical    Moisture-sensitive
_exptl_crystal_recrystallization_method tetrahydrofuran
loop_
_atom_site_label
_atom_site_type_symbol
_atom_site_fract_x
_atom_site_fract_y
_atom_site_fract_z
Li1 Li -0.16700(13) -1.1718(2) -0.12897(18)
C1 C -0.31764(7) -1.05643(11) -0.14613(9)
C2 C -0.35268(7) -0.93962(11) -0.11288(9)
C3 C -0.42596(7) -0.91498(13) -0.11550(11)
H1 H -0.4587 -0.9726 -0.1374
C4 C -0.45080(8) -0.80572(14) -0.08585(11)
H2 H -0.5006 -0.7893 -0.0872
C5 C -0.40310(10) -0.72067(14) -0.05431(11)
H3 H -0.4203 -0.6463 -0.0342
C6 C -0.33031(9) -0.74451(13) -0.05219(11)
H4 H -0.2979 -0.6860 -0.0309
C7 C -0.30427(7) -0.85414(11) -0.08116(9)
C8 C -0.15618(9) -0.91907(13) 0.01467(13)
H5 H -0.1822 -0.9587 0.0662
H6 H -0.1454 -0.8385 0.0339
H7 H -0.1115 -0.9609 0.0018
C9 C -0.15986(9) -0.82159(14) -0.18033(13)
H8 H -0.1134 -0.8579 -0.1932
H9 H -0.1526 -0.7446 -0.1510
H10 H -0.1862 -0.8125 -0.2405
C10 C -0.34060(7) -1.07418(11) -0.25167(10)
C11 C -0.29583(7) -1.03760(12) -0.32538(10)
H11 H -0.2501 -1.0063 -0.3105
C12 C -0.31703(8) -1.04619(12) -0.42050(10)
H12 H -0.2857 -1.0207 -0.4698
C13 C -0.38361(9) -1.09176(12) -0.44389(11)
H13 H -0.3982 -1.0967 -0.5089
C14 C -0.42870(8) -1.13013(13) -0.37142(11)
H14 H -0.4741 -1.1622 -0.3867
C15 C -0.40712(7) -1.12142(12) -0.27618(10)
H15 H -0.4382 -1.1481 -0.2270
C16 C -0.34306(6) -1.16172(11) -0.08617(10)
C17 C -0.32198(7) -1.27381(12) -0.11567(10)
H16 H -0.2985 -1.2828 -0.1755
C18 C -0.33465(8) -1.37214(13) -0.05956(12)
H17 H -0.3200 -1.4473 -0.0812
C19 C -0.36877(8) -1.36042(14) 0.02803(12)
H18 H -0.3764 -1.4270 0.0674
C20 C -0.39163(8) -1.25090(15) 0.05757(12)
H19 H -0.4157 -1.2427 0.1170
C21 C -0.37952(7) -1.15196(13) 0.00034(10)
H20 H -0.3964 -1.0776 0.0208
C22 C -0.07289(7) -1.25082(14) 0.04311(11)
H21 H -0.0438 -1.1788 0.0364
H22 H -0.0473 -1.3163 0.0117
C23 C -0.08573(8) -1.27822(13) 0.14793(10)
H23 H -0.0462 -1.2489 0.1884
H24 H -0.0916 -1.3634 0.1585
C24 C -0.15528(8) -1.21200(14) 0.16779(10)
H25 H -0.1814 -1.2465 0.2225
H26 H -0.1461 -1.1281 0.1807
C25 C -0.19603(7) -1.22859(12) 0.07476(10)
H27 H -0.2244 -1.3017 0.0767
H28 H -0.2288 -1.1619 0.0635
C26 C -0.11738(11) -1.40707(15) -0.18346(14)
H29 H -0.1350 -1.4415 -0.1229
H30 H -0.0682 -1.3775 -0.1729
C27 C -0.11776(14) -1.49819(18) -0.26205(18)
H31 H -0.1152 -1.5786 -0.2358
H32 H -0.0779 -1.4861 -0.3076
C28 C -0.19112(16) -1.4739(3) -0.3092(2)
H33 H -0.1928 -1.5032 -0.3758
H34 H -0.2308 -1.5091 -0.2721
C29 C -0.19319(11) -1.34280(18) -0.30559(13)
H35 H -0.1643 -1.3085 -0.3579
H36 H -0.2429 -1.3138 -0.3109
C30 C -0.07130(8) -1.10446(16) -0.28472(11)
H37 H -0.1175 -1.0758 -0.3102
H38 H -0.0617 -1.1833 -0.3113
C31 C -0.01118(8) -1.02035(16) -0.30942(12)
H39 H -0.0273 -0.9379 -0.3055
H40 H 0.0080 -1.0357 -0.3742
C32 C 0.04400(8) -1.04807(16) -0.23240(12)
H41 H 0.0719 -0.9774 -0.2154
H42 H 0.0772 -1.1102 -0.2540
C33 C -0.00079(8) -1.08974(15) -0.14784(11)
H43 H 0.0189 -1.1637 -0.1220
H44 H -0.0004 -1.0302 -0.0963
N1 N -0.23998(6) -1.04987(10) -0.13549(8)
O1 O -0.14234(5) -1.23459(10) 0.00038(7)
O2 O -0.16316(6) -1.31386(10) -0.21344(8)
O3 O -0.07244(5) -1.10771(11) -0.18181(8)
Si1 Si -0.21262(2) -0.91740(3) -0.09641(3)
H45? H -0.1141 -1.4135 -0.1130
H46? H -0.0689 -1.4016 -0.2116
C34? C -0.1543(12) -1.4293(18) -0.3462(16)
H47? H -0.1041 -1.4075 -0.3600
H48? H -0.1772 -1.4657 -0.4027
C35? C -0.1663(10) -1.5143(13) -0.2322(14)
H49? H -0.2162 -1.5184 -0.2089
H50? H -0.1431 -1.5922 -0.2318
H51? H -0.2434 -1.3687 -0.2978
H52? H -0.1928 -1.2728 -0.3473
loop_
_geom_bond_atom_site_label_1
_geom_bond_atom_site_label_2
_geom_bond_site_symmetry_1
_geom_bond_site_symmetry_2
Li1 N1 1_555 1_555
C1 C2 1_555 1_555
C2 C3 1_555 1_555
C3 H1 1_555 1_555
C4 C3 1_555 1_555
H2 C4 1_555 1_555
C5 C4 1_555 1_555
H3 C5 1_555 1_555
C6 C5 1_555 1_555
H4 C6 1_555 1_555
C7 C2 1_555 1_555
C8 H5 1_555 1_555
H6 C8 1_555 1_555
H7 C8 1_555 1_555
C9 H8 1_555 1_555
H9 C9 1_555 1_555
H10 C9 1_555 1_555
C10 C1 1_555 1_555
C11 C10 1_555 1_555
H11 C11 1_555 1_555
C12 C11 1_555 1_555
H12 C12 1_555 1_555
C13 C12 1_555 1_555
H13 C13 1_555 1_555
C14 C13 1_555 1_555
H14 C14 1_555 1_555
C15 C10 1_555 1_555
H15 C15 1_555 1_555
C16 C1 1_555 1_555
C17 C16 1_555 1_555
H16 C17 1_555 1_555
C18 C17 1_555 1_555
H17 C18 1_555 1_555
C19 C18 1_555 1_555
H18 C19 1_555 1_555
C20 C19 1_555 1_555
H19 C20 1_555 1_555
C21 C16 1_555 1_555
H20 C21 1_555 1_555
C22 H21 1_555 1_555
H22 C22 1_555 1_555
C23 C22 1_555 1_555
H23 C23 1_555 1_555
H24 C23 1_555 1_555
C24 C23 1_555 1_555
H25 C24 1_555 1_555
H26 C24 1_555 1_555
C25 C24 1_555 1_555
H27 C25 1_555 1_555
H28 C25 1_555 1_555
C26 H29 1_555 1_555
H30 C26 1_555 1_555
C27 C26 1_555 1_555
H31 C27 1_555 1_555
H32 C27 1_555 1_555
C28 C27 1_555 1_555
H33 C28 1_555 1_555
H34 C28 1_555 1_555
C29 C28 1_555 1_555
H35 C29 1_555 1_555
H36 C29 1_555 1_555
C30 H37 1_555 1_555
H38 C30 1_555 1_555
C31 C30 1_555 1_555
H39 C31 1_555 1_555
H40 C31 1_555 1_555
C32 C31 1_555 1_555
H41 C32 1_555 1_555
H42 C32 1_555 1_555
C33 C32 1_555 1_555
H43 C33 1_555 1_555
H44 C33 1_555 1_555
N1 C1 1_555 1_555
O1 Li1 1_555 1_555
O2 Li1 1_555 1_555
O3 Li1 1_555 1_555
Si1 C7 1_555 1_555
C6 C7 1_555 1_555
C8 Si1 1_555 1_555
C9 Si1 1_555 1_555
C14 C15 1_555 1_555
C20 C21 1_555 1_555
C22 O1 1_555 1_555
C25 O1 1_555 1_555
C26 O2 1_555 1_555
C29 O2 1_555 1_555
C30 O3 1_555 1_555
C33 O3 1_555 1_555
N1 Si1 1_555 1_555

#END
