
#######################################################################
#
#                 Cambridge Crystallographic Data Centre
#                                CCDC 
#
#######################################################################
#
# If this CIF has been generated from an entry in the Cambridge 
# Structural Database, then it will include bibliographic, chemical, 
# crystal, experimental, refinement or atomic coordinate data resulting 
# from the CCDC's data processing and validation procedures.
#
#######################################################################

data_YOLWON
_chemical_formula_moiety         'C36 H48 B1 N1 S4'
_chemical_name_systematic        
2,5,9,12-tetrapentylbisthieno[2',3':5,6;3'',2'':3,4][1,2]azaborinino[1,2-a]bisthieno[3,2-c:2',3'-e][1,2]azaborinine
_symmetry_cell_setting           triclinic
_symmetry_space_group_name_H-M   'P -1'
_symmetry_Int_Tables_number      2
_space_group_name_Hall           '-P 1'
loop_
_symmetry_equiv_pos_site_id
_symmetry_equiv_pos_as_xyz
1 x,y,z
2 -x,-y,-z
_cell_length_a                   8.4695(17)
_cell_length_b                   13.030(3)
_cell_length_c                   16.200(3)
_cell_angle_alpha                99.16(3)
_cell_angle_beta                 96.39(3)
_cell_angle_gamma                104.33(3)
_cell_volume                     1688.72
_exptl_crystal_colour            colorless
_exptl_crystal_description       prism
_cell_formula_units_Z            2
_exptl_crystal_recrystallization_method chloroform/methanol
loop_
_atom_site_label
_atom_site_type_symbol
_atom_site_fract_x
_atom_site_fract_y
_atom_site_fract_z
S1 S 0.27585(5) 1.17627(3) 0.41015(2)
S2 S 0.18536(5) 1.22201(3) 0.20824(2)
S3 S 0.31924(5) 0.69096(3) 0.00864(2)
S4 S 0.25105(5) 0.58432(3) 0.18759(2)
N1 N 0.25998(14) 0.93322(10) 0.16982(7)
B1 B 0.26565(19) 0.90038(13) 0.25273(10)
C1 C 0.30381(18) 1.08018(12) 0.46977(9)
C2 C 0.29994(18) 0.98612(12) 0.41867(9)
H1 H 0.3132 0.9245 0.4402
C3 C 0.27419(17) 0.98660(11) 0.32941(9)
C4 C 0.26122(18) 1.08720(11) 0.31680(9)
C5 C 0.23296(18) 1.10831(11) 0.23377(9)
C6 C 0.22651(17) 1.03294(11) 0.16190(9)
C7 C 0.17320(17) 1.06751(12) 0.08617(9)
H2 H 0.1576 1.0249 0.0311
C8 C 0.14735(17) 1.16714(13) 0.10111(9)
C9 C 0.35307(18) 0.80651(13) -0.03392(9)
C10 C 0.33143(17) 0.89129(12) 0.02021(9)
H3 H 0.3446 0.9613 0.0074
C11 C 0.28664(17) 0.86445(11) 0.09852(8)
C12 C 0.28179(18) 0.75806(12) 0.10192(9)
C13 C 0.26335(18) 0.71600(12) 0.17727(9)
C14 C 0.26091(17) 0.78258(12) 0.25266(9)
C15 C 0.24671(18) 0.72118(12) 0.31946(9)
H4 H 0.2422 0.7523 0.3760
C16 C 0.24029(18) 0.61550(13) 0.29506(9)
C17 C 0.32639(19) 1.10700(13) 0.56478(9)
H5 H 0.4128 1.1761 0.5849
H6 H 0.3661 1.0503 0.5877
C18 C 0.1698(2) 1.11658(14) 0.60003(10)
H7 H 0.0833 1.0474 0.5803
H8 H 0.1298 1.1733 0.5773
C19 C 0.1960(2) 1.14412(13) 0.69667(9)
H9 H 0.2907 1.2089 0.7164
H10 H 0.0970 1.1624 0.7150
C20 C 0.2283(2) 1.05384(14) 0.73862(10)
H11 H 0.3313 1.0387 0.7232
H12 H 0.1370 0.9877 0.7163
C21 C 0.2442(2) 1.07922(15) 0.83449(11)
H13 H 0.3372 1.1429 0.8573
H14 H 0.2632 1.0175 0.8576
H15 H 0.1423 1.0936 0.8504
C22 C 0.09518(19) 1.22906(14) 0.03727(10)
H16 H 0.0238 1.2716 0.0618
H17 H 0.0280 1.1770 -0.0131
C23 C 0.23762(19) 1.30547(13) 0.00885(10)
H18 H 0.3167 1.2653 -0.0096
H19 H 0.2964 1.3640 0.0573
C24 C 0.1769(2) 1.35496(13) -0.06399(10)
H20 H 0.0995 1.2968 -0.1074
H21 H 0.1152 1.4061 -0.0422
C25 C 0.3146(2) 1.41400(14) -0.10549(11)
H22 H 0.3779 1.3635 -0.1265
H23 H 0.3907 1.4735 -0.0626
C26 C 0.2506(3) 1.46028(16) -0.17886(11)
H24 H 0.1845 1.4011 -0.2241
H25 H 0.3440 1.5027 -0.2004
H26 H 0.1820 1.5068 -0.1592
C27 C 0.40004(19) 0.80623(14) -0.12055(9)
H27 H 0.4753 0.7595 -0.1287
H28 H 0.4621 0.8805 -0.1232
C28 C 0.25584(18) 0.76752(12) -0.19371(9)
H29 H 0.1997 0.6907 -0.1956
H30 H 0.1751 0.8099 -0.1841
C29 C 0.31404(18) 0.77970(12) -0.27823(9)
H31 H 0.3768 0.8557 -0.2745
H32 H 0.3903 0.7341 -0.2887
C30 C 0.1748(2) 0.74860(13) -0.35294(9)
H33 H 0.0915 0.7878 -0.3399
H34 H 0.1204 0.6703 -0.3614
C31 C 0.2353(2) 0.77424(14) -0.43439(10)
H35 H 0.2978 0.8503 -0.4248
H36 H 0.1404 0.7604 -0.4791
H37 H 0.3065 0.7284 -0.4516
C32 C 0.2277(2) 0.52953(13) 0.34787(11)
H38 H 0.1266 0.4705 0.3240
H39 H 0.2157 0.5607 0.4059
C33 C 0.3754(2) 0.48176(12) 0.35303(10)
H40 H 0.3543 0.4244 0.3870
H41 H 0.3839 0.4475 0.2952
C34 C 0.5393(2) 0.56263(12) 0.39159(10)
H42 H 0.5281 0.6034 0.4467
H43 H 0.5688 0.6147 0.3538
C35 C 0.6773(2) 0.50783(13) 0.40503(11)
H44 H 0.6487 0.4577 0.4444
H45 H 0.6842 0.4643 0.3502
C36 C 0.8445(2) 0.58533(16) 0.44011(12)
H46 H 0.8772 0.6325 0.4000
H47 H 0.9258 0.5446 0.4489
H48 H 0.8389 0.6292 0.4942
loop_
_geom_bond_atom_site_label_1
_geom_bond_atom_site_label_2
_geom_bond_site_symmetry_1
_geom_bond_site_symmetry_2
S1 C1 1_555 1_555
S2 C5 1_555 1_555
S3 C9 1_555 1_555
S4 C13 1_555 1_555
N1 B1 1_555 1_555
B1 C3 1_555 1_555
C1 C2 1_555 1_555
C2 H1 1_555 1_555
C3 C2 1_555 1_555
C4 S1 1_555 1_555
C5 C4 1_555 1_555
C6 N1 1_555 1_555
C7 C6 1_555 1_555
H2 C7 1_555 1_555
C8 S2 1_555 1_555
C9 C10 1_555 1_555
C10 H3 1_555 1_555
C11 N1 1_555 1_555
C12 S3 1_555 1_555
C13 C12 1_555 1_555
C14 B1 1_555 1_555
C15 C14 1_555 1_555
H4 C15 1_555 1_555
C16 S4 1_555 1_555
C17 C1 1_555 1_555
H5 C17 1_555 1_555
H6 C17 1_555 1_555
C18 C17 1_555 1_555
H7 C18 1_555 1_555
H8 C18 1_555 1_555
C19 C18 1_555 1_555
H9 C19 1_555 1_555
H10 C19 1_555 1_555
C20 C19 1_555 1_555
H11 C20 1_555 1_555
H12 C20 1_555 1_555
C21 C20 1_555 1_555
H13 C21 1_555 1_555
H14 C21 1_555 1_555
H15 C21 1_555 1_555
C22 C8 1_555 1_555
H16 C22 1_555 1_555
H17 C22 1_555 1_555
C23 C22 1_555 1_555
H18 C23 1_555 1_555
H19 C23 1_555 1_555
C24 C23 1_555 1_555
H20 C24 1_555 1_555
H21 C24 1_555 1_555
C25 C24 1_555 1_555
H22 C25 1_555 1_555
H23 C25 1_555 1_555
C26 C25 1_555 1_555
H24 C26 1_555 1_555
H25 C26 1_555 1_555
H26 C26 1_555 1_555
C27 C9 1_555 1_555
H27 C27 1_555 1_555
H28 C27 1_555 1_555
C28 C27 1_555 1_555
H29 C28 1_555 1_555
H30 C28 1_555 1_555
C29 C28 1_555 1_555
H31 C29 1_555 1_555
H32 C29 1_555 1_555
C30 C29 1_555 1_555
H33 C30 1_555 1_555
H34 C30 1_555 1_555
C31 C30 1_555 1_555
H35 C31 1_555 1_555
H36 C31 1_555 1_555
H37 C31 1_555 1_555
C32 C16 1_555 1_555
H38 C32 1_555 1_555
H39 C32 1_555 1_555
C33 C32 1_555 1_555
H40 C33 1_555 1_555
H41 C33 1_555 1_555
C34 C33 1_555 1_555
H42 C34 1_555 1_555
H43 C34 1_555 1_555
C35 C34 1_555 1_555
H44 C35 1_555 1_555
H45 C35 1_555 1_555
C36 C35 1_555 1_555
H46 C36 1_555 1_555
H47 C36 1_555 1_555
H48 C36 1_555 1_555
C3 C4 1_555 1_555
C5 C6 1_555 1_555
C7 C8 1_555 1_555
C10 C11 1_555 1_555
C11 C12 1_555 1_555
C13 C14 1_555 1_555
C15 C16 1_555 1_555

#END
