
#######################################################################
#
#                 Cambridge Crystallographic Data Centre
#                                CCDC 
#
#######################################################################
#
# If this CIF has been generated from an entry in the Cambridge 
# Structural Database, then it will include bibliographic, chemical, 
# crystal, experimental, refinement or atomic coordinate data resulting 
# from the CCDC's data processing and validation procedures.
#
#######################################################################

data_YOLWAZ
_chemical_formula_moiety         'C20 H16 B1 N1 S4'
_chemical_name_systematic        
2,5,9,12-tetramethylbisthieno[2',3':5,6;3'',2'':3,4][1,2]azaborinino[1,2-a]bisthieno[3,2-c:2',3'-e][1,2]azaborinine
_symmetry_cell_setting           monoclinic
_symmetry_space_group_name_H-M   'P 21/n'
_symmetry_Int_Tables_number      14
_space_group_name_Hall           '-P 2yn'
loop_
_symmetry_equiv_pos_site_id
_symmetry_equiv_pos_as_xyz
1 x,y,z
2 1/2-x,1/2+y,1/2-z
3 -x,-y,-z
4 1/2+x,1/2-y,1/2+z
_cell_length_a                   14.530(5)
_cell_length_b                   7.119(2)
_cell_length_c                   17.336(6)
_cell_angle_alpha                90
_cell_angle_beta                 92.113(5)
_cell_angle_gamma                90
_cell_volume                     1792
_exptl_crystal_colour            colorless
_exptl_crystal_description       plate
_cell_formula_units_Z            4
_exptl_crystal_recrystallization_method chloroform/methanol
loop_
_atom_site_label
_atom_site_type_symbol
_atom_site_fract_x
_atom_site_fract_y
_atom_site_fract_z
S1 S 1.09407(4) 0.15208(9) 0.28309(3)
S2 S 0.80466(4) 0.34600(10) -0.10309(3)
S3 S 0.89288(4) 0.21465(9) 0.37747(3)
S4 S 0.61086(4) 0.28529(9) 0.00208(3)
N1 N 0.81322(13) 0.2471(3) 0.15858(11)
C1 C 0.98586(16) 0.1842(3) 0.23960(13)
C2 C 0.98820(17) 0.1981(3) 0.16001(13)
C3 C 1.08120(17) 0.1776(4) 0.13554(14)
H1 H 1.0965 0.1808 0.0828
C4 C 1.14562(17) 0.1532(4) 0.19376(14)
C5 C 1.24785(17) 0.1343(4) 0.18785(15)
H2 H 1.2782 0.2467 0.2093
H3 H 1.2630 0.1205 0.1335
H4 H 1.2692 0.0234 0.2168
C6 C 0.90276(17) 0.2090(3) 0.27861(13)
C7 C 0.81871(16) 0.2449(3) 0.24021(13)
C8 C 0.74782(16) 0.2857(3) 0.29367(13)
H5 H 0.6865 0.3183 0.2781
C9 C 0.77783(17) 0.2726(3) 0.36874(14)
C10 C 0.72294(19) 0.3017(4) 0.43968(14)
H6 H 0.7106 0.1798 0.4635
H7 H 0.6645 0.3634 0.4252
H8 H 0.7580 0.3808 0.4765
C11 C 0.88947(17) 0.2738(3) 0.02791(13)
C12 C 0.95786(17) 0.2838(4) -0.03020(13)
H9 H 1.0217 0.2664 -0.0187
C13 C 0.92388(17) 0.3200(4) -0.10242(14)
C14 C 0.80256(17) 0.3047(3) -0.00509(13)
C15 C 0.97418(19) 0.3303(4) -0.17621(14)
H10 H 0.9661 0.2121 -0.2046
H11 H 1.0399 0.3515 -0.1645
H12 H 0.9495 0.4342 -0.2077
C16 C 0.72289(17) 0.2913(3) 0.03963(13)
C17 C 0.72638(16) 0.2543(3) 0.11824(13)
C18 C 0.63731(17) 0.2121(3) 0.14580(14)
H13 H 0.6271 0.1780 0.1978
C19 C 0.56846(17) 0.2252(3) 0.09073(14)
C20 C 0.46762(17) 0.1919(4) 0.09872(15)
H14 H 0.4347 0.3118 0.0949
H15 H 0.4572 0.1343 0.1490
H16 H 0.4450 0.1077 0.0575
B1 B 0.89860(18) 0.2382(4) 0.11453(15)
loop_
_geom_bond_atom_site_label_1
_geom_bond_atom_site_label_2
_geom_bond_site_symmetry_1
_geom_bond_site_symmetry_2
S1 C1 1_555 1_555
S2 C13 1_555 1_555
S3 C6 1_555 1_555
S4 C16 1_555 1_555
N1 C7 1_555 1_555
C1 C2 1_555 1_555
C2 C3 1_555 1_555
C3 H1 1_555 1_555
C4 S1 1_555 1_555
C5 C4 1_555 1_555
H2 C5 1_555 1_555
H3 C5 1_555 1_555
H4 C5 1_555 1_555
C6 C1 1_555 1_555
C7 C6 1_555 1_555
C8 C7 1_555 1_555
H5 C8 1_555 1_555
C9 S3 1_555 1_555
C10 C9 1_555 1_555
H6 C10 1_555 1_555
H7 C10 1_555 1_555
H8 C10 1_555 1_555
C11 C12 1_555 1_555
C12 H9 1_555 1_555
C13 C12 1_555 1_555
C14 S2 1_555 1_555
C15 C13 1_555 1_555
H10 C15 1_555 1_555
H11 C15 1_555 1_555
H12 C15 1_555 1_555
C16 C14 1_555 1_555
C17 N1 1_555 1_555
C18 C17 1_555 1_555
H13 C18 1_555 1_555
C19 S4 1_555 1_555
C20 C19 1_555 1_555
H14 C20 1_555 1_555
H15 C20 1_555 1_555
H16 C20 1_555 1_555
B1 N1 1_555 1_555
C2 B1 1_555 1_555
C3 C4 1_555 1_555
C8 C9 1_555 1_555
C11 C14 1_555 1_555
C11 B1 1_555 1_555
C16 C17 1_555 1_555
C18 C19 1_555 1_555

#END
