
#######################################################################
#
#                 Cambridge Crystallographic Data Centre
#                                CCDC 
#
#######################################################################
#
# If this CIF has been generated from an entry in the Cambridge 
# Structural Database, then it will include bibliographic, chemical, 
# crystal, experimental, refinement or atomic coordinate data resulting 
# from the CCDC's data processing and validation procedures.
#
#######################################################################

data_YOLWED
_chemical_formula_moiety         'C24 H24 B1 N1 S4'
_chemical_name_systematic        
2,5,9,12-tetraethylbisthieno[2',3':5,6;3'',2'':3,4][1,2]azaborinino[1,2-a]bisthieno[3,2-c:2',3'-e][1,2]azaborinine
_symmetry_cell_setting           triclinic
_symmetry_space_group_name_H-M   'P -1'
_symmetry_Int_Tables_number      2
_space_group_name_Hall           '-P 1'
loop_
_symmetry_equiv_pos_site_id
_symmetry_equiv_pos_as_xyz
1 x,y,z
2 -x,-y,-z
_cell_length_a                   9.989(2)
_cell_length_b                   11.179(2)
_cell_length_c                   11.299(2)
_cell_angle_alpha                74.02(3)
_cell_angle_beta                 81.77(3)
_cell_angle_gamma                72.90(3)
_cell_volume                     1156.69
_exptl_crystal_colour            colorless
_exptl_crystal_description       block
_cell_formula_units_Z            2
_exptl_crystal_recrystallization_method chloroform/methanol
loop_
_atom_site_label
_atom_site_type_symbol
_atom_site_fract_x
_atom_site_fract_y
_atom_site_fract_z
S1 S -0.19452(11) 0.56396(11) 0.86461(11)
S2 S 0.06564(12) 0.53429(11) 0.63455(10)
S3 S 0.39552(16) 0.95898(13) 0.89827(14)
S4 S 0.15814(17) 0.92446(13) 1.14767(13)
N1 N 0.0592(3) 0.7455(3) 0.9316(3)
C1 C -0.4455(6) 0.6644(6) 1.1591(5)
H1 H -0.4558 0.7558 1.1372
H2 H -0.3738 0.6222 1.2165
H3 H -0.5329 0.6475 1.1964
C2 C -0.4058(5) 0.6148(5) 1.0476(5)
H4 H -0.4784 0.6582 0.9898
H5 H -0.4003 0.5234 1.0697
C3 C -0.2660(4) 0.6344(4) 0.9846(4)
C4 C -0.1838(4) 0.6992(4) 1.0087(4)
H6 H -0.2082 0.7454 1.0690
C5 C -0.0544(4) 0.6907(3) 0.9326(3)
C6 C -0.0495(4) 0.6225(3) 0.8457(3)
C7 C 0.0565(4) 0.6134(3) 0.7489(3)
C8 C 0.1613(4) 0.6754(3) 0.7324(3)
C9 C 0.2475(4) 0.6567(4) 0.6227(4)
H7 H 0.3239 0.6912 0.5962
C10 C 0.2104(4) 0.5858(4) 0.5604(4)
C11 C 0.2767(6) 0.5521(5) 0.4396(4)
H8 H 0.2059 0.5843 0.3797
H9 H 0.3501 0.5956 0.4081
C12 C 0.3377(6) 0.4107(5) 0.4523(5)
H10 H 0.3828 0.3960 0.3747
H11 H 0.2642 0.3677 0.4765
H12 H 0.4053 0.3773 0.5138
C13 C 0.5819(8) 1.0681(7) 0.6319(6)
H13 H 0.5090 1.0892 0.5769
H14 H 0.6661 1.0836 0.5854
H15 H 0.5531 1.1209 0.6901
C14 C 0.6087(7) 0.9326(6) 0.6978(6)
H16 H 0.6787 0.9122 0.7568
H17 H 0.6449 0.8789 0.6399
C15 C 0.4704(5) 0.9039(5) 0.7669(5)
C16 C 0.3964(5) 0.8339(4) 0.7404(4)
H18 H 0.4197 0.7986 0.6723
C17 C 0.2776(4) 0.8172(4) 0.8255(4)
C18 C 0.2665(4) 0.8799(4) 0.9177(4)
C19 C 0.1671(5) 0.8679(4) 1.0182(4)
C20 C 0.0694(4) 0.7985(4) 1.0297(3)
C21 C -0.0052(5) 0.7869(4) 1.1479(4)
H19 H -0.0710 0.7393 1.1727
C22 C 0.0271(6) 0.8502(5) 1.2213(4)
C23 C -0.0538(13) 0.8444(12) 1.3488(8)
H20 H -0.1539 0.8746 1.3384
H21 H -0.0332 0.7557 1.3976
C24 C -0.0130(12) 0.9274(10) 1.4159(10)
H22 H -0.0391 1.0160 1.3702
H23 H 0.0866 0.8995 1.4234
H24 H -0.0607 0.9190 1.4966
B1 B 0.1667(4) 0.7464(4) 0.8286(4)
C25? C -0.0021(11) 0.8872(12) 1.3432(8)
H25? H 0.0736 0.8409 1.3973
H26? H -0.0180 0.9794 1.3320
C26? C -0.1343(12) 0.8451(12) 1.3913(11)
H27? H -0.2071 0.8931 1.3361
H28? H -0.1636 0.8609 1.4716
H29? H -0.1163 0.7546 1.3968
loop_
_geom_bond_atom_site_label_1
_geom_bond_atom_site_label_2
_geom_bond_site_symmetry_1
_geom_bond_site_symmetry_2
S1 C3 1_555 1_555
S2 C7 1_555 1_555
S3 C15 1_555 1_555
S4 C19 1_555 1_555
N1 C5 1_555 1_555
C1 H1 1_555 1_555
H2 C1 1_555 1_555
H3 C1 1_555 1_555
C2 C1 1_555 1_555
H4 C2 1_555 1_555
H5 C2 1_555 1_555
C3 C2 1_555 1_555
C4 C3 1_555 1_555
H6 C4 1_555 1_555
C5 C4 1_555 1_555
C6 S1 1_555 1_555
C7 C6 1_555 1_555
C8 C7 1_555 1_555
C9 C8 1_555 1_555
H7 C9 1_555 1_555
C10 S2 1_555 1_555
C11 C10 1_555 1_555
H8 C11 1_555 1_555
H9 C11 1_555 1_555
C12 C11 1_555 1_555
H10 C12 1_555 1_555
H11 C12 1_555 1_555
H12 C12 1_555 1_555
C13 H13 1_555 1_555
H14 C13 1_555 1_555
H15 C13 1_555 1_555
C14 C13 1_555 1_555
H16 C14 1_555 1_555
H17 C14 1_555 1_555
C15 C14 1_555 1_555
C16 C15 1_555 1_555
H18 C16 1_555 1_555
C17 C16 1_555 1_555
C18 S3 1_555 1_555
C19 C18 1_555 1_555
C20 N1 1_555 1_555
C21 C20 1_555 1_555
H19 C21 1_555 1_555
C22 S4 1_555 1_555
C23 C22 1_555 1_555
H20 C23 1_555 1_555
H21 C23 1_555 1_555
C24 C23 1_555 1_555
H22 C24 1_555 1_555
H23 C24 1_555 1_555
H24 C24 1_555 1_555
B1 N1 1_555 1_555
C5 C6 1_555 1_555
C8 B1 1_555 1_555
C9 C10 1_555 1_555
C17 C18 1_555 1_555
C17 B1 1_555 1_555
C19 C20 1_555 1_555
C21 C22 1_555 1_555

#END
