
#######################################################################
#
#                 Cambridge Crystallographic Data Centre
#                                CCDC 
#
#######################################################################
#
# If this CIF has been generated from an entry in the Cambridge 
# Structural Database, then it will include bibliographic, chemical, 
# crystal, experimental, refinement or atomic coordinate data resulting 
# from the CCDC's data processing and validation procedures.
#
#######################################################################

data_YOMGUD
_chemical_compound_source        'aerial parts of Caragana intermedia'
_chemical_name_common            
1,1,4,7-Tetramethyldecahydro-1H-cyclopropa[e]azulene-4,7-diol
_chemical_formula_moiety         'C15 H26 O2'
_chemical_name_systematic        (+)-3\a,9\b-Aromadendranediol
_chemical_properties_biological  'Anti-pyriculariaoryzae P-2b activity'
_symmetry_cell_setting           monoclinic
_symmetry_space_group_name_H-M   'P 21'
_symmetry_Int_Tables_number      4
_space_group_name_Hall           'P 2yb'
loop_
_symmetry_equiv_pos_site_id
_symmetry_equiv_pos_as_xyz
1 x,y,z
2 -x,1/2+y,-z
_cell_length_a                   9.690(2)
_cell_length_b                   16.796(4)
_cell_length_c                   9.698(4)
_cell_angle_alpha                90
_cell_angle_beta                 112.56(3)
_cell_angle_gamma                90
_cell_volume                     1457.6
_exptl_crystal_colour            colorless
_exptl_crystal_description       prismatic
_cell_formula_units_Z            4
loop_
_atom_site_label
_atom_site_type_symbol
_atom_site_fract_x
_atom_site_fract_y
_atom_site_fract_z
O1 O 1.5560(3) 0.8910(2) 0.2111(3)
H1 H 1.4765 0.8992 0.2203
O2 O 1.6346(4) 0.9437(3) -0.3699(4)
H2 H 1.5546 0.9509 -0.4399
C1 C 1.5565(5) 0.9265(3) -0.1671(5)
H3 H 1.4571 0.9155 -0.2431
C2 C 1.6333(6) 0.9848(4) -0.2368(5)
C3 C 1.5483(6) 1.0635(4) -0.2882(5)
H4 H 1.4497 1.0511 -0.3615
H5 H 1.5996 1.0942 -0.3389
C4 C 1.5288(6) 1.1172(3) -0.1681(6)
H6 H 1.6206 1.1167 -0.0797
H7 H 1.5115 1.1715 -0.2049
C5 C 1.4026(5) 1.0918(3) -0.1261(5)
H8 H 1.3045 1.1068 -0.2004
C6 C 1.4034(4) 1.0105(3) -0.0582(4)
H9 H 1.3064 0.9834 -0.0980
C7 C 1.5336(4) 0.9560(3) -0.0253(4)
H10 H 1.6237 0.9851 0.0370
C8 C 1.5282(5) 0.8779(3) 0.0552(4)
C9 C 1.6544(5) 0.8308(4) 0.0396(4)
H11 H 1.6451 0.7746 0.0575
H12 H 1.7505 0.8497 0.1091
C10 C 1.6371(6) 0.8453(4) -0.1213(5)
H13 H 1.5784 0.8033 -0.1857
H14 H 1.7342 0.8470 -0.1284
C11 C 1.7968(5) 1.0014(5) -0.1373(6)
H15 H 1.8375 1.0394 -0.1853
H16 H 1.8530 0.9528 -0.1211
H17 H 1.8025 1.0223 -0.0432
C12 C 1.4046(5) 1.0853(3) 0.0314(5)
C13 C 1.2610(6) 1.1051(3) 0.0489(7)
H18 H 1.2543 1.1616 0.0595
H19 H 1.2587 1.0789 0.1360
H20 H 1.1781 1.0873 -0.0377
C14 C 1.5437(6) 1.1083(3) 0.1650(5)
H21 H 1.5518 1.0753 0.2486
H22 H 1.5370 1.1631 0.1897
H23 H 1.6303 1.1009 0.1412
C15 C 1.3812(5) 0.8349(3) -0.0135(5)
H24 H 1.3039 0.8662 -0.0009
H25 H 1.3879 0.7843 0.0347
H26 H 1.3580 0.8268 -0.1180
O3 O 0.7905(3) 0.9548(2) 0.4475(3)
H27 H 0.7533 0.9221 0.3807
O4 O 1.3720(4) 0.8992(3) 0.3681(5)
H28 H 1.3532 0.9458 0.3429
C16 C 1.1670(5) 0.9182(3) 0.4431(5)
H29 H 1.2427 0.9293 0.5425
C17 C 1.2388(5) 0.8605(3) 0.3675(5)
C18 C 1.2887(6) 0.7821(4) 0.4529(6)
H30 H 1.3604 0.7947 0.5521
H31 H 1.3414 0.7515 0.4035
C19 C 1.1688(6) 0.7280(3) 0.4701(6)
H32 H 1.0807 0.7290 0.3781
H33 H 1.2058 0.6737 0.4862
C20 C 1.1251(5) 0.7526(3) 0.5986(5)
H34 H 1.1991 0.7376 0.6968
C21 C 1.0580(4) 0.8336(3) 0.5968(4)
H35 H 1.0970 0.8604 0.6940
C22 C 1.0264(4) 0.8896(3) 0.4665(4)
H36 H 0.9643 0.8607 0.3762
C23 C 0.9442(4) 0.9665(3) 0.4712(4)
C24 C 0.9614(5) 1.0152(4) 0.3461(5)
H37 H 0.9455 1.0714 0.3577
H38 H 0.8913 0.9976 0.2492
C25 C 1.1228(5) 0.9992(3) 0.3633(6)
H39 H 1.1884 1.0409 0.4220
H40 H 1.1299 0.9973 0.2662
C26 C 1.1362(6) 0.8432(5) 0.2025(5)
H41 H 1.1843 0.8057 0.1609
H42 H 1.1177 0.8918 0.1461
H43 H 1.0431 0.8215 0.1984
C27 C 0.9688(5) 0.7593(3) 0.5949(5)
C28 C 0.8342(5) 0.7366(3) 0.4573(6)
H44 H 0.7487 0.7663 0.4551
H45 H 0.8149 0.6807 0.4600
H46 H 0.8536 0.7485 0.3696
C29 C 0.9499(7) 0.7396(3) 0.7387(6)
H47 H 0.9449 0.6829 0.7482
H48 H 0.8593 0.7633 0.7376
H49 H 1.0334 0.7602 0.8216
C30 C 1.0136(5) 1.0103(3) 0.6186(5)
H50 H 1.0003 0.9797 0.6961
H51 H 0.9662 1.0612 0.6110
H52 H 1.1184 1.0178 0.6421
loop_
_geom_bond_atom_site_label_1
_geom_bond_atom_site_label_2
_geom_bond_site_symmetry_1
_geom_bond_site_symmetry_2
O1 H1 1_555 1_555
O2 H2 1_555 1_555
C1 H3 1_555 1_555
C2 O2 1_555 1_555
C3 C2 1_555 1_555
H4 C3 1_555 1_555
H5 C3 1_555 1_555
C4 C3 1_555 1_555
H6 C4 1_555 1_555
H7 C4 1_555 1_555
C5 C4 1_555 1_555
H8 C5 1_555 1_555
C6 C5 1_555 1_555
H9 C6 1_555 1_555
C7 C1 1_555 1_555
H10 C7 1_555 1_555
C8 O1 1_555 1_555
C9 C8 1_555 1_555
H11 C9 1_555 1_555
H12 C9 1_555 1_555
C10 C1 1_555 1_555
H13 C10 1_555 1_555
H14 C10 1_555 1_555
C11 C2 1_555 1_555
H15 C11 1_555 1_555
H16 C11 1_555 1_555
H17 C11 1_555 1_555
C12 C5 1_555 1_555
C13 C12 1_555 1_555
H18 C13 1_555 1_555
H19 C13 1_555 1_555
H20 C13 1_555 1_555
C14 C12 1_555 1_555
H21 C14 1_555 1_555
H22 C14 1_555 1_555
H23 C14 1_555 1_555
C15 C8 1_555 1_555
H24 C15 1_555 1_555
H25 C15 1_555 1_555
H26 C15 1_555 1_555
O3 H27 1_555 1_555
O4 H28 1_555 1_555
C16 H29 1_555 1_555
C17 O4 1_555 1_555
C18 C17 1_555 1_555
H30 C18 1_555 1_555
H31 C18 1_555 1_555
C19 C18 1_555 1_555
H32 C19 1_555 1_555
H33 C19 1_555 1_555
C20 C19 1_555 1_555
H34 C20 1_555 1_555
C21 C20 1_555 1_555
H35 C21 1_555 1_555
C22 C16 1_555 1_555
H36 C22 1_555 1_555
C23 O3 1_555 1_555
C24 C23 1_555 1_555
H37 C24 1_555 1_555
H38 C24 1_555 1_555
C25 C16 1_555 1_555
H39 C25 1_555 1_555
H40 C25 1_555 1_555
C26 C17 1_555 1_555
H41 C26 1_555 1_555
H42 C26 1_555 1_555
H43 C26 1_555 1_555
C27 C20 1_555 1_555
C28 C27 1_555 1_555
H44 C28 1_555 1_555
H45 C28 1_555 1_555
H46 C28 1_555 1_555
C29 C27 1_555 1_555
H47 C29 1_555 1_555
H48 C29 1_555 1_555
H49 C29 1_555 1_555
C30 C23 1_555 1_555
H50 C30 1_555 1_555
H51 C30 1_555 1_555
H52 C30 1_555 1_555
C1 C2 1_555 1_555
C6 C7 1_555 1_555
C6 C12 1_555 1_555
C7 C8 1_555 1_555
C9 C10 1_555 1_555
C16 C17 1_555 1_555
C21 C22 1_555 1_555
C21 C27 1_555 1_555
C22 C23 1_555 1_555
C24 C25 1_555 1_555

#END
