
#######################################################################
#
#                 Cambridge Crystallographic Data Centre
#                                CCDC 
#
#######################################################################
#
# If this CIF has been generated from an entry in the Cambridge 
# Structural Database, then it will include bibliographic, chemical, 
# crystal, experimental, refinement or atomic coordinate data resulting 
# from the CCDC's data processing and validation procedures.
#
#######################################################################

data_YOMMAP
_chemical_formula_moiety         'C8 H12 O4'
_chemical_name_systematic        'cis-Cyclohexane-1,4-dicarboxylic acid'
_symmetry_cell_setting           triclinic
_symmetry_space_group_name_H-M   'P -1'
_symmetry_Int_Tables_number      2
_space_group_name_Hall           '-P 1'
loop_
_symmetry_equiv_pos_site_id
_symmetry_equiv_pos_as_xyz
1 x,y,z
2 -x,-y,-z
_cell_length_a                   5.2912(6)
_cell_length_b                   6.2611(6)
_cell_length_c                   13.1851(18)
_cell_angle_alpha                82.505(10)
_cell_angle_beta                 80.309(11)
_cell_angle_gamma                81.875(10)
_cell_volume                     423.697
_exptl_crystal_colour            colorless
_exptl_crystal_description       plate
_cell_formula_units_Z            2
loop_
_atom_site_label
_atom_site_type_symbol
_atom_site_fract_x
_atom_site_fract_y
_atom_site_fract_z
O1 O 0.4359(3) 0.5154(3) 0.88398(12)
O2 O 0.2703(4) 0.2964(3) 1.01503(13)
O3 O 0.7370(4) -0.1284(3) 0.57741(15)
O4 O 0.8260(3) 0.2120(3) 0.55122(14)
C1 C 0.2929(4) 0.3798(3) 0.91784(16)
C2 C 0.1278(4) 0.2898(4) 0.85544(16)
H1 H -0.0488 0.3021 0.8932
C3 C 0.2176(4) 0.0476(3) 0.84796(17)
H2 H 0.2410 -0.0240 0.9161
H3 H 0.0853 -0.0174 0.8242
C4 C 0.1185(4) 0.4153(4) 0.74843(17)
H4 H -0.0264 0.3782 0.7208
H5 H 0.0878 0.5694 0.7557
C5 C 0.4695(4) 0.0121(3) 0.77409(16)
H6 H 0.5175 -0.1420 0.7694
H7 H 0.6056 0.0664 0.8006
C6 C 0.3638(4) 0.3713(4) 0.67093(17)
H8 H 0.3350 0.4396 0.6028
H9 H 0.5029 0.4346 0.6907
C7 C 0.4420(4) 0.1286(3) 0.66664(16)
H10 H 0.3028 0.0710 0.6423
C8 C 0.6862(4) 0.0769(4) 0.59270(16)
H11 H 0.369(7) 0.355(6) 1.048(3)
H12 H 0.898(8) -0.163(6) 0.526(3)
loop_
_geom_bond_atom_site_label_1
_geom_bond_atom_site_label_2
_geom_bond_site_symmetry_1
_geom_bond_site_symmetry_2
O1 C1 1_555 1_555
O2 C1 1_555 1_555
O3 C8 1_555 1_555
O4 C8 1_555 1_555
C1 C2 1_555 1_555
C2 H1 1_555 1_555
C3 C2 1_555 1_555
H2 C3 1_555 1_555
H3 C3 1_555 1_555
C4 C2 1_555 1_555
H4 C4 1_555 1_555
H5 C4 1_555 1_555
C5 C3 1_555 1_555
H6 C5 1_555 1_555
H7 C5 1_555 1_555
C6 C4 1_555 1_555
H8 C6 1_555 1_555
H9 C6 1_555 1_555
C7 C5 1_555 1_555
H10 C7 1_555 1_555
C8 C7 1_555 1_555
H11 O2 1_555 1_555
H12 O3 1_555 1_555
C6 C7 1_555 1_555

#END
