
#######################################################################
#
#                 Cambridge Crystallographic Data Centre
#                                CCDC 
#
#######################################################################
#
# If this CIF has been generated from an entry in the Cambridge 
# Structural Database, then it will include bibliographic, chemical, 
# crystal, experimental, refinement or atomic coordinate data resulting 
# from the CCDC's data processing and validation procedures.
#
#######################################################################

data_YOMNOE
_chemical_compound_source        'seeds of Annona reticulata'
_chemical_name_common            'Glabrin A'
_chemical_formula_moiety         'C33 H50 N6 O7,C1 H4 O1,H2 O1'
_chemical_name_systematic        
'Cyclo(prolyl-glycyl-leucyl-valyl-isoleucyl-tyrosine) methanol solvate monohydrate'
_symmetry_cell_setting           orthorhombic
_symmetry_space_group_name_H-M   'P 21 21 21'
_symmetry_Int_Tables_number      19
_space_group_name_Hall           'P 2ac 2ab'
loop_
_symmetry_equiv_pos_site_id
_symmetry_equiv_pos_as_xyz
1 x,y,z
2 1/2-x,-y,1/2+z
3 -x,1/2+y,1/2-z
4 1/2+x,1/2-y,-z
_cell_length_a                   9.915
_cell_length_b                   14.904
_cell_length_c                   25.957
_cell_angle_alpha                90
_cell_angle_beta                 90
_cell_angle_gamma                90
_cell_volume                     3835.75
_exptl_crystal_colour            colorless
_chemical_melting_point          225-226deg.C
_cell_formula_units_Z            4
_exptl_crystal_recrystallization_method methanol
loop_
_atom_site_label
_atom_site_type_symbol
_atom_site_fract_x
_atom_site_fract_y
_atom_site_fract_z
O1 O 0.404 -0.326 0.987
N1 N 0.763 -0.020 0.876
N2 N 0.496 0.066 0.979
O2 O 0.712 0.016 0.980
C1 C 0.603 0.026 1.002
O3 O 0.641 0.222 0.950
O4 O 0.429 -0.152 1.092
N3 N 0.623 -0.102 1.057
N4 N 0.677 -0.252 0.906
C2 C 0.659 -0.166 0.898
N5 N 0.686 0.157 0.874
N6 N 0.614 -0.276 1.008
C3 C 0.519 -0.303 0.973
C4 C 0.540 -0.167 1.071
C5 C 0.499 0.097 0.926
O5 O 0.550 -0.128 0.901
C6 C 0.706 0.006 0.832
C7 C 0.563 -0.310 0.917
O6 O 0.693 -0.044 0.794
C8 C 0.340 0.181 0.863
C9 C 0.658 0.101 0.828
C10 C 0.789 -0.112 0.887
C11 C 0.583 -0.264 1.062
C12 C 0.367 0.295 0.798
C13 C 0.594 -0.408 0.904
C14 C 0.397 0.261 0.846
C15 C 0.363 0.146 0.917
C16 C 0.701 -0.296 1.096
C17 C 0.279 0.251 0.766
C18 C 0.582 -0.008 1.057
C19 C 0.661 0.051 1.095
C20 C 0.614 0.163 0.918
O7 O 0.241 0.284 0.719
C21 C 0.622 -0.424 0.846
C22 C 0.729 0.151 0.784
C23 C 0.789 0.227 0.863
C24 C 0.255 0.134 0.830
C25 C 0.223 0.169 0.781
C26 C 0.845 0.196 0.811
C27 C 0.657 0.015 1.150
C28 C 0.611 0.147 1.091
C29 C 0.509 -0.389 0.812
C30 C 0.723 -0.397 1.087
C31 C 0.671 -0.275 1.153
C32 C 0.646 -0.525 0.837
C33 C 0.522 0.020 1.177
H1 H 0.786 0.025 0.901
H2 H 0.415 0.075 0.999
H3 H 0.713 -0.116 1.046
H4 H 0.766 -0.277 0.904
H5 H 0.704 -0.265 0.996
H6 H 0.511 0.049 0.902
H7 H 0.491 -0.289 0.896
H8 H 0.562 0.094 0.824
H9 H 0.835 -0.138 0.858
H10 H 0.845 -0.116 0.917
H11 H 0.509 -0.300 1.073
H12 H 0.409 0.349 0.786
H13 H 0.672 -0.426 0.923
H14 H 0.518 -0.444 0.913
H15 H 0.456 0.294 0.869
H16 H 0.292 0.105 0.925
H17 H 0.360 0.196 0.941
H18 H 0.782 -0.266 1.086
H19 H 0.490 -0.004 1.068
H20 H 0.754 0.049 1.084
H21 H 0.700 -0.389 0.836
H22 H 0.761 0.110 0.759
H23 H 0.671 0.195 0.769
H24 H 0.749 0.285 0.861
H25 H 0.857 0.227 0.890
H26 H 0.219 0.077 0.840
H27 H 0.162 0.138 0.759
H28 H 0.918 0.155 0.816
H29 H 0.876 0.246 0.792
H30 H 0.682 -0.048 1.149
H31 H 0.722 0.047 1.170
H32 H 0.662 0.184 1.114
H33 H 0.623 0.169 1.056
H34 H 0.517 0.150 1.100
H35 H 0.531 -0.398 0.776
H36 H 0.428 -0.421 0.820
H37 H 0.495 -0.326 0.818
H38 H 0.797 -0.417 1.108
H39 H 0.642 -0.428 1.098
H40 H 0.740 -0.409 1.052
H41 H 0.745 -0.295 1.174
H42 H 0.658 -0.212 1.157
H43 H 0.591 -0.307 1.163
H44 H 0.665 -0.536 0.802
H45 H 0.721 -0.544 0.858
H46 H 0.567 -0.557 0.848
H47 H 0.527 -0.004 1.212
H48 H 0.496 0.082 1.179
H49 H 0.456 -0.014 1.158
O8 O 1.000 0.050 0.997
C34 C 0.976 0.128 0.972
H50 H 0.999 0.178 0.993
H51 H 1.030 0.130 0.941
H52 H 0.882 0.132 0.963
O9 O 1.248 0.103 1.037
loop_
_geom_bond_atom_site_label_1
_geom_bond_atom_site_label_2
_geom_bond_site_symmetry_1
_geom_bond_site_symmetry_2
O1 C3 1_555 1_555
N1 C6 1_555 1_555
N2 C1 1_555 1_555
O2 C1 1_555 1_555
C1 C18 1_555 1_555
O3 C20 1_555 1_555
O4 C4 1_555 1_555
N3 C4 1_555 1_555
N4 C2 1_555 1_555
C2 O5 1_555 1_555
N5 C9 1_555 1_555
N6 C3 1_555 1_555
C3 C7 1_555 1_555
C4 C11 1_555 1_555
C5 N2 1_555 1_555
C6 O6 1_555 1_555
C7 N4 1_555 1_555
C8 C14 1_555 1_555
C9 C6 1_555 1_555
C10 N1 1_555 1_555
C11 N6 1_555 1_555
C12 C14 1_555 1_555
C13 C7 1_555 1_555
C14 H15 1_555 1_555
C15 C5 1_555 1_555
C16 C11 1_555 1_555
C17 C12 1_555 1_555
C18 N3 1_555 1_555
C19 C18 1_555 1_555
C20 N5 1_555 1_555
O7 C17 1_555 1_555
C21 C13 1_555 1_555
C22 C9 1_555 1_555
C23 N5 1_555 1_555
C24 C8 1_555 1_555
C25 C17 1_555 1_555
C26 C22 1_555 1_555
C27 C19 1_555 1_555
C28 C19 1_555 1_555
C29 C21 1_555 1_555
C30 C16 1_555 1_555
C31 C16 1_555 1_555
C32 C21 1_555 1_555
O8 C34 1_555 1_555
C33 C27 1_555 1_555
C34 H50 1_555 1_555
H1 N1 1_555 1_555
H2 N2 1_555 1_555
H3 N3 1_555 1_555
H4 N4 1_555 1_555
H5 N6 1_555 1_555
H6 C5 1_555 1_555
H7 C7 1_555 1_555
H8 C9 1_555 1_555
H9 C10 1_555 1_555
H10 C10 1_555 1_555
H11 C11 1_555 1_555
H12 C12 1_555 1_555
H13 C13 1_555 1_555
H14 C13 1_555 1_555
H16 C15 1_555 1_555
H17 C15 1_555 1_555
H18 C16 1_555 1_555
H19 C18 1_555 1_555
H20 C19 1_555 1_555
H21 C21 1_555 1_555
H22 C22 1_555 1_555
H23 C22 1_555 1_555
H24 C23 1_555 1_555
H25 C23 1_555 1_555
H26 C24 1_555 1_555
H27 C25 1_555 1_555
H28 C26 1_555 1_555
H29 C26 1_555 1_555
H30 C27 1_555 1_555
H31 C27 1_555 1_555
H32 C28 1_555 1_555
H33 C28 1_555 1_555
H34 C28 1_555 1_555
H35 C29 1_555 1_555
H36 C29 1_555 1_555
H37 C29 1_555 1_555
H38 C30 1_555 1_555
H39 C30 1_555 1_555
H40 C30 1_555 1_555
H41 C31 1_555 1_555
H42 C31 1_555 1_555
H43 C31 1_555 1_555
H44 C32 1_555 1_555
H45 C32 1_555 1_555
H46 C32 1_555 1_555
H47 C33 1_555 1_555
H48 C33 1_555 1_555
H49 C33 1_555 1_555
H51 C34 1_555 1_555
H52 C34 1_555 1_555
C2 C10 1_555 1_555
C5 C20 1_555 1_555
C8 C15 1_555 1_555
C23 C26 1_555 1_555
C24 C25 1_555 1_555

#END
