
#######################################################################
#
#                 Cambridge Crystallographic Data Centre
#                                CCDC 
#
#######################################################################
#
# If this CIF has been generated from an entry in the Cambridge 
# Structural Database, then it will include bibliographic, chemical, 
# crystal, experimental, refinement or atomic coordinate data resulting 
# from the CCDC's data processing and validation procedures.
#
#######################################################################

data_YOMQEX
_chemical_formula_moiety         'C22 H29 N1 O7'
_chemical_name_systematic        
'4-Ethyl 3,5-dimethyl 6-oxo-2-((S)-(1-phenylethyl)amino)-2-heptene-3,4,5-tricarboxylate'
_symmetry_cell_setting           monoclinic
_symmetry_space_group_name_H-M   'P 21'
_symmetry_Int_Tables_number      4
_space_group_name_Hall           'P 2yb'
loop_
_symmetry_equiv_pos_site_id
_symmetry_equiv_pos_as_xyz
1 x,y,z
2 -x,1/2+y,-z
_cell_length_a                   8.45670(10)
_cell_length_b                   8.48890(10)
_cell_length_c                   16.2377(2)
_cell_angle_alpha                90
_cell_angle_beta                 97.2340(10)
_cell_angle_gamma                90
_cell_volume                     1156.39
_exptl_crystal_colour            colorless
_cell_formula_units_Z            2
loop_
_atom_site_label
_atom_site_type_symbol
_atom_site_fract_x
_atom_site_fract_y
_atom_site_fract_z
N1 N 0.98459(19) -0.1809(2) 0.82567(9)
H1 H 1.0023 -0.2349 0.7830
O1 O 0.95422(16) -0.2052(2) 0.66142(8)
O2 O 0.4507(2) 0.1356(2) 0.61383(12)
O3 O 0.46734(16) -0.0905(2) 0.68441(10)
O4 O 0.93092(19) 0.3215(3) 0.80089(9)
O5 O 0.99822(18) 0.2899(2) 0.67425(9)
O6 O 0.5283(3) 0.3770(3) 0.76100(16)
C1 C 1.0854(2) -0.2170(3) 0.90337(11)
H2 H 1.0159 -0.2433 0.9453
C2 C 1.1840(3) -0.3617(3) 0.88911(17)
H3 H 1.1145 -0.4463 0.8687
H4 H 1.2449 -0.3926 0.9405
H5 H 1.2550 -0.3376 0.8491
C3 C 1.1907(2) -0.0795(3) 0.93573(11)
C4 C 1.2193(3) -0.0495(3) 1.01940(12)
H6 H 1.1715 -0.1122 1.0562
C5 C 1.3178(4) 0.0722(4) 1.04944(17)
H7 H 1.3356 0.0909 1.1063
C6 C 1.3895(3) 0.1659(4) 0.9966(2)
H8 H 1.4553 0.2484 1.0172
C7 C 1.3638(3) 0.1373(4) 0.91282(19)
H9 H 1.4126 0.1999 0.8764
C8 C 1.2647(3) 0.0149(4) 0.88283(14)
H10 H 1.2477 -0.0041 0.8260
C9 C 0.8674(2) -0.0730(2) 0.81323(10)
C10 C 0.8161(3) -0.0019(3) 0.89016(12)
H11 H 0.8776 -0.0469 0.9382
H12 H 0.7051 -0.0234 0.8918
H13 H 0.8329 0.1099 0.8897
C11 C 0.79791(19) -0.0317(2) 0.73426(10)
C12 C 0.8507(2) -0.1036(2) 0.66267(10)
O7 O 0.77025(17) -0.0489(2) 0.59091(8)
C13 C 0.6714(2) 0.0952(2) 0.72126(11)
H14 H 0.6389 0.1159 0.7761
C14 C 0.5198(2) 0.0509(3) 0.66540(12)
C15 C 0.3132(3) -0.1375(4) 0.64042(19)
H15 H 0.2395 -0.0499 0.6402
H16 H 0.2710 -0.2240 0.6700
C16 C 0.7279(2) 0.2542(3) 0.69027(13)
H17 H 0.7263 0.2491 0.6299
C17 C 0.8954(2) 0.2925(2) 0.72927(12)
C18 C 1.1602(3) 0.3336(5) 0.70496(18)
H18 H 1.2250 0.3279 0.6606
H19 H 1.2014 0.2627 0.7485
H20 H 1.1618 0.4392 0.7262
C19 C 0.8084(4) -0.1193(5) 0.51569(13)
H21 H 0.7450 -0.0717 0.4691
H22 H 0.7866 -0.2302 0.5165
H23 H 0.9194 -0.1030 0.5111
C20 C 0.6446(6) 0.5402(5) 0.6678(4)
H24 H 0.5726 0.6181 0.6844
H25 H 0.6237 0.5239 0.6090
H26 H 0.7524 0.5757 0.6819
C21 C 0.3230(4) -0.1861(6) 0.5547(3)
H27 H 0.2191 -0.2163 0.5288
H28 H 0.3945 -0.2738 0.5544
H29 H 0.3618 -0.0999 0.5246
C22 C 0.6219(3) 0.3903(3) 0.7114(2)
loop_
_geom_bond_atom_site_label_1
_geom_bond_atom_site_label_2
_geom_bond_site_symmetry_1
_geom_bond_site_symmetry_2
N1 H1 1_555 1_555
O1 C12 1_555 1_555
O2 C14 1_555 1_555
O3 C14 1_555 1_555
O4 C17 1_555 1_555
O5 C17 1_555 1_555
O6 C22 1_555 1_555
C1 N1 1_555 1_555
H2 C1 1_555 1_555
C2 C1 1_555 1_555
H3 C2 1_555 1_555
H4 C2 1_555 1_555
H5 C2 1_555 1_555
C3 C1 1_555 1_555
C4 C3 1_555 1_555
H6 C4 1_555 1_555
C5 C4 1_555 1_555
H7 C5 1_555 1_555
C6 C5 1_555 1_555
H8 C6 1_555 1_555
C7 C6 1_555 1_555
H9 C7 1_555 1_555
C8 C3 1_555 1_555
H10 C8 1_555 1_555
C9 N1 1_555 1_555
C10 C9 1_555 1_555
H11 C10 1_555 1_555
H12 C10 1_555 1_555
H13 C10 1_555 1_555
C11 C9 1_555 1_555
C12 C11 1_555 1_555
O7 C12 1_555 1_555
C13 C11 1_555 1_555
H14 C13 1_555 1_555
C14 C13 1_555 1_555
C15 O3 1_555 1_555
H15 C15 1_555 1_555
H16 C15 1_555 1_555
C16 C13 1_555 1_555
H17 C16 1_555 1_555
C17 C16 1_555 1_555
C18 O5 1_555 1_555
H18 C18 1_555 1_555
H19 C18 1_555 1_555
H20 C18 1_555 1_555
C19 O7 1_555 1_555
H21 C19 1_555 1_555
H22 C19 1_555 1_555
H23 C19 1_555 1_555
C20 H24 1_555 1_555
H25 C20 1_555 1_555
H26 C20 1_555 1_555
C21 C15 1_555 1_555
H27 C21 1_555 1_555
H28 C21 1_555 1_555
H29 C21 1_555 1_555
C22 C16 1_555 1_555
C7 C8 1_555 1_555
C20 C22 1_555 1_555

#END
