
#######################################################################
#
#                 Cambridge Crystallographic Data Centre
#                                CCDC 
#
#######################################################################
#
# If this CIF has been generated from an entry in the Cambridge 
# Structural Database, then it will include bibliographic, chemical, 
# crystal, experimental, refinement or atomic coordinate data resulting 
# from the CCDC's data processing and validation procedures.
#
#######################################################################

data_YOMYII
_chemical_formula_moiety         'C13 H17 N2 O3'
_chemical_name_systematic        
'2-(2-Hydroxyphenyl)-4,4,5,5-tetramethyl-4,5-dihydro-1H-imidazol-3-oxide-1-oxyl radical'
_symmetry_cell_setting           orthorhombic
_symmetry_space_group_name_H-M   'P b c a'
_symmetry_Int_Tables_number      61
_space_group_name_Hall           '-P 2ac 2ab'
loop_
_symmetry_equiv_pos_site_id
_symmetry_equiv_pos_as_xyz
1 x,y,z
2 1/2-x,-y,1/2+z
3 1/2+x,1/2-y,-z
4 -x,1/2+y,1/2-z
5 -x,-y,-z
6 1/2+x,y,1/2-z
7 1/2-x,1/2+y,z
8 x,1/2-y,1/2+z
_cell_length_a                   12.957(8)
_cell_length_b                   13.584(9)
_cell_length_c                   14.722(9)
_cell_angle_alpha                90
_cell_angle_beta                 90
_cell_angle_gamma                90
_cell_volume                     2591.19
_cell_formula_units_Z            8
loop_
_atom_site_label
_atom_site_type_symbol
_atom_site_fract_x
_atom_site_fract_y
_atom_site_fract_z
H1 H 0.0317 -0.2717 0.4231
O1 O 0.1064 0.0114 0.2474
O2 O -0.0730 -0.2385 0.3884
O3 O 0.1112 -0.2736 0.4431
N1 N 0.0384 -0.0540 0.2638
N2 N -0.0426 -0.1739 0.3288
C1 C 0.0321 -0.1091 0.3405
C2 C -0.0839 -0.1752 0.2339
C3 C -0.0510 -0.0725 0.2013
C4 C -0.0287 -0.2587 0.1858
H2 H -0.0556 -0.2633 0.1167
H3 H -0.0448 -0.3272 0.2202
H4 H 0.0534 -0.2452 0.1863
C5 C -0.1999 -0.1943 0.2358
H5 H -0.2294 -0.1952 0.1675
H6 H -0.2376 -0.1367 0.2738
H7 H -0.2147 -0.2645 0.2676
C6 C -0.0148 -0.0666 0.1036
H8 H -0.0793 -0.0799 0.0589
H9 H 0.0441 -0.1214 0.0919
H10 H 0.0164 0.0057 0.0906
C7 C -0.1288 0.0093 0.2203
H11 H -0.1954 0.000 0.1771
H12 H -0.0936 0.0799 0.2069
H13 H -0.1526 0.0060 0.2903
C8 C 0.0993 -0.0988 0.4192
C9 C 0.1378 -0.1806 0.4653
C10 C 0.2101 -0.1697 0.5332
H14 H 0.2371 -0.2258 0.5634
C11 C 0.2428 -0.0765 0.5568
H15 H 0.2932 -0.0692 0.6030
C12 C 0.2038 0.0064 0.5147
H16 H 0.2256 0.0701 0.5331
C13 C 0.1321 -0.0044 0.4448
H17 H 0.1056 0.0520 0.4147
loop_
_geom_bond_atom_site_label_1
_geom_bond_atom_site_label_2
_geom_bond_site_symmetry_1
_geom_bond_site_symmetry_2
H1 O3 1_555 1_555
O1 N1 1_555 1_555
O2 N2 1_555 1_555
O3 C9 1_555 1_555
N1 C1 1_555 1_555
N2 C1 1_555 1_555
C1 C8 1_555 1_555
C2 N2 1_555 1_555
C3 N1 1_555 1_555
C4 C2 1_555 1_555
H2 C4 1_555 1_555
H3 C4 1_555 1_555
H4 C4 1_555 1_555
C5 C2 1_555 1_555
H5 C5 1_555 1_555
H6 C5 1_555 1_555
H7 C5 1_555 1_555
C6 C3 1_555 1_555
H8 C6 1_555 1_555
H9 C6 1_555 1_555
H10 C6 1_555 1_555
C7 C3 1_555 1_555
H11 C7 1_555 1_555
H12 C7 1_555 1_555
H13 C7 1_555 1_555
C8 C9 1_555 1_555
C9 C10 1_555 1_555
C10 H14 1_555 1_555
C11 C10 1_555 1_555
H15 C11 1_555 1_555
C12 C11 1_555 1_555
H16 C12 1_555 1_555
C13 C8 1_555 1_555
H17 C13 1_555 1_555
C2 C3 1_555 1_555
C12 C13 1_555 1_555

#END
