
#######################################################################
#
#                 Cambridge Crystallographic Data Centre
#                                CCDC 
#
#######################################################################
#
# If this CIF has been generated from an entry in the Cambridge 
# Structural Database, then it will include bibliographic, chemical, 
# crystal, experimental, refinement or atomic coordinate data resulting 
# from the CCDC's data processing and validation procedures.
#
#######################################################################

data_YOMYOO
_chemical_formula_moiety         'C13 H17 N2 O3'
_chemical_name_systematic        
'2-(3-Hydroxyphenyl)-4,4,5,5-tetramethyl-4,5-dihydro-1H-imidazol-3-oxide-1-oxyl radical'
_symmetry_cell_setting           monoclinic
_symmetry_space_group_name_H-M   'C 2/c'
_symmetry_Int_Tables_number      15
_space_group_name_Hall           '-C 2yn'
loop_
_symmetry_equiv_pos_site_id
_symmetry_equiv_pos_as_xyz
1 x,y,z
2 -x,y,1/2-z
3 1/2+x,1/2+y,z
4 1/2-x,1/2+y,1/2-z
5 -x,-y,-z
6 x,-y,1/2+z
7 1/2-x,1/2-y,-z
8 1/2+x,1/2-y,1/2+z
_cell_length_a                   25.08(1)
_cell_length_b                   8.315(1)
_cell_length_c                   12.840(7)
_cell_angle_alpha                90
_cell_angle_beta                 105.35(3)
_cell_angle_gamma                90
_cell_volume                     2582.14
_exptl_crystal_colour            'dark blue'
_chemical_melting_point          149deg.C(dec.)
_cell_formula_units_Z            8
loop_
_atom_site_label
_atom_site_type_symbol
_atom_site_fract_x
_atom_site_fract_y
_atom_site_fract_z
O1 O 0.8069(1) -0.0690(3) 0.6362(2)
O2 O 0.79083(8) 0.4166(3) 0.4355(2)
O3 O 0.95581(8) 0.3007(3) 0.3553(2)
N1 N 0.8324(4) 0.4234(3) 0.3943(2)
N2 N 0.91118(9) 0.3721(3) 0.3602(2)
C1 C 0.8482(1) -0.0034(4) 0.5984(3)
C2 C 0.8385(1) 0.1183(4) 0.5221(2)
C3 C 0.8826(1) 0.1797(3) 0.4867(2)
C4 C 0.9353(1) 0.1156(4) 0.5279(2)
C5 C 0.9438(1) -0.0024(4) 0.6049(3)
C6 C 0.9014(1) -0.0617(4) 0.6408(3)
C7 C 0.8748(1) 0.3192(3) 0.4142(2)
C8 C 0.8371(1) 0.5555(4) 0.3173(2)
C9 C 0.7945(2) 0.5134(6) 0.2120(3)
C10 C 0.8254(2) 0.7139(4) 0.3616(4)
C11 C 0.8975(1) 0.5325(4) 0.3116(3)
C12 C 0.9393(2) 0.6447(6) 0.3883(5)
C13 C 0.9075(2) 0.5323(6) 0.2004(3)
H1 H 0.804 0.564 0.153
H2 H 0.759 0.549 0.215
H3 H 0.794 0.400 0.202
H4 H 0.789 0.712 0.372
H5 H 0.828 0.797 0.312
H6 H 0.852 0.733 0.429
H7 H 0.958 0.587 0.451
H8 H 0.965 0.683 0.352
H9 H 0.920 0.733 0.408
H10 H 0.874 0.512 0.148
H11 H 0.922 0.634 0.187
H12 H 0.934 0.451 0.197
H13 H 0.802 0.161 0.493
H14 H 0.966 0.156 0.502
H15 H 0.980 -0.045 0.634
H16 H 0.908 -0.140 0.694
H17 H 0.768 -0.018 0.602
loop_
_geom_bond_atom_site_label_1
_geom_bond_atom_site_label_2
_geom_bond_site_symmetry_1
_geom_bond_site_symmetry_2
O1 C1 1_555 1_555
O2 N1 1_555 1_555
O3 N2 1_555 1_555
N1 C7 1_555 1_555
N2 C7 1_555 1_555
C1 C2 1_555 1_555
C2 C3 1_555 1_555
C3 C4 1_555 1_555
C4 C5 1_555 1_555
C5 C6 1_555 1_555
C6 C1 1_555 1_555
C7 C3 1_555 1_555
C8 N1 1_555 1_555
C9 C8 1_555 1_555
C10 C8 1_555 1_555
C11 N2 1_555 1_555
C12 C11 1_555 1_555
C13 C11 1_555 1_555
H1 C9 1_555 1_555
H2 C9 1_555 1_555
H3 C9 1_555 1_555
H4 C10 1_555 1_555
H5 C10 1_555 1_555
H6 C10 1_555 1_555
H7 C12 1_555 1_555
H8 C12 1_555 1_555
H9 C12 1_555 1_555
H10 C13 1_555 1_555
H11 C13 1_555 1_555
H12 C13 1_555 1_555
H13 C2 1_555 1_555
H14 C4 1_555 1_555
H15 C5 1_555 1_555
H16 C6 1_555 1_555
H17 O1 1_555 1_555
C8 C11 1_555 1_555

#END
