
#######################################################################
#
#                 Cambridge Crystallographic Data Centre
#                                CCDC 
#
#######################################################################
#
# If this CIF has been generated from an entry in the Cambridge 
# Structural Database, then it will include bibliographic, chemical, 
# crystal, experimental, refinement or atomic coordinate data resulting 
# from the CCDC's data processing and validation procedures.
#
#######################################################################

data_YOMYUU
_chemical_formula_moiety         'C13 H17 N2 O4'
_chemical_name_systematic        
"2-(3',5'-Dihydroxyphenyl)-4,4,5,5-tetramethyl-4,5-dihydro-1H-imidazol-3-oxyl 1-oxide radical"
_symmetry_cell_setting           monoclinic
_symmetry_space_group_name_H-M   'P 21/n'
_symmetry_Int_Tables_number      14
_space_group_name_Hall           '-P 2yn'
loop_
_symmetry_equiv_pos_site_id
_symmetry_equiv_pos_as_xyz
1 x,y,z
2 1/2-x,1/2+y,1/2-z
3 -x,-y,-z
4 1/2+x,1/2-y,1/2+z
_cell_length_a                   6.988(1)
_cell_length_b                   19.803(2)
_cell_length_c                   9.806(1)
_cell_angle_alpha                90
_cell_angle_beta                 108.09
_cell_angle_gamma                90
_cell_volume                     1289.91
_exptl_crystal_colour            'dark blue'
_chemical_melting_point          158deg.C(dec.)
_cell_formula_units_Z            4
loop_
_atom_site_label
_atom_site_type_symbol
_atom_site_fract_x
_atom_site_fract_y
_atom_site_fract_z
O1 O 0.3053(4) -0.1299(1) 1.0538(2)
O2 O 0.7228(4) -0.1059(1) 0.7664(2)
O3 O 0.2463(4) 0.0560(1) 0.4913(2)
O4 O 0.0313(3) 0.0861(2) 0.8878(2)
N1 N 0.1710(4) 0.0827(2) 0.5830(3)
N2 N 0.0635(4) 0.0948(2) 0.7667(3)
C1 C 0.3499(5) -0.0938(2) 0.9486(3)
C2 C 0.2361(5) -0.0397(2) 0.8841(3)
C3 C 0.2889(5) -0.0042(2) 0.7768(3)
C4 C 0.4547(5) -0.0263(2) 0.7365(3)
C5 C 0.5633(5) -0.0813(2) 0.8027(3)
C6 C 0.5120(5) -0.1146(2) 0.9092(3)
C7 C 0.1775(5) 0.0551(2) 0.7110(3)
C8 C 0.0861(5) 0.1528(2) 0.5646(3)
C9 C -0.0320(6) 0.1664(2) 0.4090(4)
C10 C 0.2643(5) 0.2004(2) 0.6163(4)
C11 C -0.0451(5) 0.1487(2) 0.6661(3)
C12 C -0.0533(6) 0.2130(2) 0.7485(4)
C13 C -0.2557(5) 0.1214(2) 0.5934(4)
H1 H 0.177(5) -0.116(1) 1.068(3)
H2 H 0.737(5) -0.085(2) 0.687(3)
H3 H 0.117(5) -0.025(2) 0.909(3)
H4 H 0.495(5) -0.003(2) 0.665(3)
H5 H 0.589(5) -0.150(2) 0.955(3)
H6 H 0.071(5) 0.170(2) 0.356(3)
H7 H -0.086(5) 0.212(2) 0.409(3)
H8 H -0.126(5) 0.134(2) 0.367(4)
H9 H 0.358(5) 0.190(2) 0.722(3)
H10 H 0.354(5) 0.189(2) 0.560(4)
H11 H 0.220(5) 0.247(2) 0.608(4)
H12 H 0.085(5) 0.228(2) 0.815(3)
H13 H -0.113(5) 0.246(2) 0.680(3)
H14 H -0.129(5) 0.206(2) 0.808(3)
H15 H -0.327(5) 0.115(2) 0.666(3)
H16 H -0.343(5) 0.157(2) 0.527(3)
H17 H -0.254(5) 0.077(2) 0.544(3)
loop_
_geom_bond_atom_site_label_1
_geom_bond_atom_site_label_2
_geom_bond_site_symmetry_1
_geom_bond_site_symmetry_2
O1 C1 1_555 1_555
O2 C5 1_555 1_555
O3 N1 1_555 1_555
O4 N2 1_555 1_555
N1 C7 1_555 1_555
N2 C7 1_555 1_555
C1 C2 1_555 1_555
C2 C3 1_555 1_555
C3 C4 1_555 1_555
C4 C5 1_555 1_555
C5 C6 1_555 1_555
C6 C1 1_555 1_555
C7 C3 1_555 1_555
C8 N1 1_555 1_555
C9 C8 1_555 1_555
C10 C8 1_555 1_555
C11 N2 1_555 1_555
C12 C11 1_555 1_555
C13 C11 1_555 1_555
H1 O1 1_555 1_555
H2 O2 1_555 1_555
H3 C2 1_555 1_555
H4 C4 1_555 1_555
H5 C6 1_555 1_555
H6 C9 1_555 1_555
H7 C9 1_555 1_555
H8 C9 1_555 1_555
H9 C10 1_555 1_555
H10 C10 1_555 1_555
H11 C10 1_555 1_555
H12 C12 1_555 1_555
H13 C12 1_555 1_555
H14 C12 1_555 1_555
H15 C13 1_555 1_555
H16 C13 1_555 1_555
H17 C13 1_555 1_555
C8 C11 1_555 1_555

#END
