
#######################################################################
#
#                 Cambridge Crystallographic Data Centre
#                                CCDC 
#
#######################################################################
#
# If this CIF has been generated from an entry in the Cambridge 
# Structural Database, then it will include bibliographic, chemical, 
# crystal, experimental, refinement or atomic coordinate data resulting 
# from the CCDC's data processing and validation procedures.
#
#######################################################################

data_YONGUF01
_chemical_formula_moiety         'C19 H16 N2 O1'
_chemical_name_systematic        N'-(1-(2-naphthyl)ethylidene)benzohydrazide
_symmetry_cell_setting           monoclinic
_symmetry_space_group_name_H-M   'P 21/n'
_symmetry_Int_Tables_number      14
_space_group_name_Hall           '-P 2yn'
loop_
_symmetry_equiv_pos_site_id
_symmetry_equiv_pos_as_xyz
1 x,y,z
2 1/2-x,1/2+y,1/2-z
3 -x,-y,-z
4 1/2+x,1/2-y,1/2+z
_cell_length_a                   5.5829(3)
_cell_length_b                   7.8387(4)
_cell_length_c                   33.2247(17)
_cell_angle_alpha                90
_cell_angle_beta                 90.196(2)
_cell_angle_gamma                90
_cell_volume                     1453.99
_exptl_crystal_colour            colorless
_exptl_crystal_description       Prism
_cell_formula_units_Z            4
loop_
_atom_site_label
_atom_site_type_symbol
_atom_site_fract_x
_atom_site_fract_y
_atom_site_fract_z
N1 N 0.3831(2) 0.80412(17) 0.06547(3)
N2 N 0.4473(2) 0.80523(18) 0.10585(3)
C1 C 0.5395(2) 0.74309(19) 0.04102(4)
C2 C 0.4768(2) 0.75518(18) -0.00233(4)
C3 C 0.6204(3) 0.6861(2) -0.03148(4)
H1 H 0.7596 0.6296 -0.0238
C4 C 0.2655(3) 0.8419(2) -0.01470(4)
H2 H 0.1664 0.8902 0.0047
C5 C 0.2782(3) 0.8355(2) 0.13393(4)
C6 C 0.5634(3) 0.6983(2) -0.07284(4)
C7 C 0.3520(3) 0.78471(19) -0.08467(4)
C8 C 0.3694(3) 0.8483(2) 0.17638(4)
C9 C 0.2965(3) 0.7968(2) -0.12615(5)
H3 H 0.1583 0.8533 -0.1344
C10 C 0.2053(3) 0.8558(2) -0.05427(4)
H4 H 0.0656 0.9129 -0.0615
C11 C 0.5814(3) 0.7754(2) 0.18962(4)
H5 H 0.6764 0.7141 0.1718
C12 C 0.7098(3) 0.6247(3) -0.10280(5)
H6 H 0.8480 0.5663 -0.0953
C13 C 0.7718(3) 0.6631(2) 0.05360(5)
H7 H 0.8911 0.7503 0.0569
H8 H 0.8226 0.5838 0.0333
H9 H 0.7504 0.6041 0.0787
C14 C 0.4444(4) 0.7261(3) -0.15405(5)
H10 H 0.4075 0.7364 -0.1813
C15 C 0.2297(3) 0.9380(2) 0.20353(4)
H11 H 0.0859 0.9861 0.1951
C16 C 0.6510(3) 0.6383(3) -0.14235(5)
H12 H 0.7486 0.5890 -0.1617
C17 C 0.3023(3) 0.9565(3) 0.24299(5)
H13 H 0.2087 1.0183 0.2609
C18 C 0.6522(3) 0.7938(3) 0.22937(5)
H14 H 0.7949 0.7449 0.2382
O1 O 0.0652(2) 0.84888(19) 0.12618(3)
C19 C 0.5125(3) 0.8838(3) 0.25581(5)
H15 H 0.5606 0.8955 0.2825
H16 H 0.5994 0.8112 0.1119
loop_
_geom_bond_atom_site_label_1
_geom_bond_atom_site_label_2
_geom_bond_site_symmetry_1
_geom_bond_site_symmetry_2
N1 N2 1_555 1_555
N2 C5 1_555 1_555
C1 N1 1_555 1_555
C2 C1 1_555 1_555
C3 C2 1_555 1_555
H1 C3 1_555 1_555
C4 C2 1_555 1_555
H2 C4 1_555 1_555
C5 C8 1_555 1_555
C6 C3 1_555 1_555
C7 C6 1_555 1_555
C8 C11 1_555 1_555
C9 C7 1_555 1_555
H3 C9 1_555 1_555
C10 C4 1_555 1_555
H4 C10 1_555 1_555
C11 H5 1_555 1_555
C12 C6 1_555 1_555
H6 C12 1_555 1_555
C13 C1 1_555 1_555
H7 C13 1_555 1_555
H8 C13 1_555 1_555
H9 C13 1_555 1_555
C14 C9 1_555 1_555
H10 C14 1_555 1_555
C15 C8 1_555 1_555
H11 C15 1_555 1_555
C16 C12 1_555 1_555
H12 C16 1_555 1_555
C17 C15 1_555 1_555
H13 C17 1_555 1_555
C18 C11 1_555 1_555
H14 C18 1_555 1_555
O1 C5 1_555 1_555
C19 C17 1_555 1_555
H15 C19 1_555 1_555
H16 N2 1_555 1_555
C7 C10 1_555 1_555
C14 C16 1_555 1_555
C18 C19 1_555 1_555

#END
