
#######################################################################
#
#                 Cambridge Crystallographic Data Centre
#                                CCDC 
#
#######################################################################
#
# If this CIF has been generated from an entry in the Cambridge 
# Structural Database, then it will include bibliographic, chemical, 
# crystal, experimental, refinement or atomic coordinate data resulting 
# from the CCDC's data processing and validation procedures.
#
#######################################################################

data_YONKET01
_chemical_formula_moiety         'C10 H11 N4 O2 S1 1+,0.5(I2),I1 1-'
_chemical_name_systematic        
'4-(Pyrimidin-2(1H)-ylidenesulfamoyl)anilinium iodide hemikis(di-iodine)'
_symmetry_cell_setting           triclinic
_symmetry_space_group_name_H-M   'P -1'
_symmetry_Int_Tables_number      2
_space_group_name_Hall           '-P 1'
loop_
_symmetry_equiv_pos_site_id
_symmetry_equiv_pos_as_xyz
1 x,y,z
2 -x,-y,-z
_cell_length_a                   5.7879(14)
_cell_length_b                   11.983(3)
_cell_length_c                   12.568(3)
_cell_angle_alpha                61.725(3)
_cell_angle_beta                 87.456(2)
_cell_angle_gamma                76.227(2)
_cell_volume                     743.207
_exptl_crystal_colour            brown
_exptl_crystal_description       needle
_cell_formula_units_Z            2
_exptl_crystal_recrystallization_method methanol
loop_
_atom_site_label
_atom_site_type_symbol
_atom_site_fract_x
_atom_site_fract_y
_atom_site_fract_z
C1 C 0.8200(3) 0.90946(15) 0.44366(13)
C2 C 1.0053(3) 0.80912(17) 0.64342(14)
H1 H 0.991(6) 0.793(3) 0.723(3)
C3 C 1.2094(3) 0.75719(19) 0.60662(16)
H2 H 1.345(6) 0.697(3) 0.665(3)
C4 C 1.2045(3) 0.78529(19) 0.48513(16)
H3 H 1.332(6) 0.750(3) 0.462(3)
C5 C 0.6355(3) 0.92749(15) 0.18538(13)
C6 C 0.4569(3) 0.86101(17) 0.20598(14)
H4 H 0.347(6) 0.877(3) 0.247(3)
C7 C 0.4742(3) 0.77170(17) 0.16266(15)
H5 H 0.361(6) 0.721(3) 0.177(3)
C8 C 0.6655(3) 0.75565(15) 0.09616(13)
C9 C 0.8425(3) 0.82267(17) 0.07382(15)
H6 H 0.976(6) 0.811(3) 0.027(3)
C10 C 0.8283(3) 0.90808(17) 0.12087(14)
H7 H 0.933(7) 0.959(4) 0.099(3)
N1 N 0.8149(2) 0.88385(14) 0.56189(12)
H8 H 0.675(6) 0.920(3) 0.582(3)
N2 N 1.0181(3) 0.86019(16) 0.40422(13)
N3 N 0.6155(2) 0.98499(14) 0.37481(11)
N4 N 0.6803(3) 0.66813(15) 0.04408(13)
H9 H 0.670(6) 0.709(4) -0.031(3)
H10 H 0.561(6) 0.627(4) 0.065(3)
H11 H 0.815(6) 0.613(4) 0.063(3)
O1 O 0.7866(2) 1.11852(14) 0.17621(12)
O2 O 0.3585(2) 1.12661(13) 0.19276(11)
S1 S 0.60422(7) 1.04947(4) 0.23023(3)
I1 I 1.08752(3) 0.49567(2) 0.39747(2)
I1A I 0.91248(3) 0.50433(2) 0.60253(2)
I2 I 1.25918(2) 0.47639(2) 0.14582(2)
loop_
_geom_bond_atom_site_label_1
_geom_bond_atom_site_label_2
_geom_bond_site_symmetry_1
_geom_bond_site_symmetry_2
C1 N1 1_555 1_555
C2 H1 1_555 1_555
C3 C2 1_555 1_555
H2 C3 1_555 1_555
C4 C3 1_555 1_555
H3 C4 1_555 1_555
C5 C6 1_555 1_555
C6 H4 1_555 1_555
C7 C6 1_555 1_555
H5 C7 1_555 1_555
C8 C7 1_555 1_555
C9 C8 1_555 1_555
H6 C9 1_555 1_555
C10 C5 1_555 1_555
H7 C10 1_555 1_555
N1 C2 1_555 1_555
H8 N1 1_555 1_555
N2 C1 1_555 1_555
N3 C1 1_555 1_555
N4 C8 1_555 1_555
H9 N4 1_555 1_555
H10 N4 1_555 1_555
H11 N4 1_555 1_555
O1 S1 1_555 1_555
O2 S1 1_555 1_555
S1 C5 1_555 1_555
I1 I1A 1_555 1_555
C4 N2 1_555 1_555
C9 C10 1_555 1_555
N3 S1 1_555 1_555

#END
