
#######################################################################
#
#                 Cambridge Crystallographic Data Centre
#                                CCDC 
#
#######################################################################
#
# If this CIF has been generated from an entry in the Cambridge 
# Structural Database, then it will include bibliographic, chemical, 
# crystal, experimental, refinement or atomic coordinate data resulting 
# from the CCDC's data processing and validation procedures.
#
#######################################################################

data_YOPDOX
_chemical_formula_moiety         'C4 H10 N9 1+,N3 O4 1-'
_chemical_name_systematic        
'3,5-Diamino-N-amidino-1-guanyl-1,2,4-triazole dinitramide'
_symmetry_cell_setting           triclinic
_symmetry_space_group_name_H-M   'P -1'
_symmetry_Int_Tables_number      2
_space_group_name_Hall           '-P 1'
loop_
_symmetry_equiv_pos_site_id
_symmetry_equiv_pos_as_xyz
1 x,y,z
2 -x,-y,-z
_cell_length_a                   6.8858(6)
_cell_length_b                   7.1705(7)
_cell_length_c                   12.4774(12)
_cell_angle_alpha                90.933(2)
_cell_angle_beta                 92.849(2)
_cell_angle_gamma                117.2470(17)
_cell_volume                     546.503
_exptl_crystal_colour            yellow
_exptl_crystal_description       plate
_chemical_melting_point          '183 deg.C (dec.)'
_cell_formula_units_Z            2
_chemical_properties_physical    'impact-sensitive (greater than 60J)'
_exptl_crystal_recrystallization_method water
loop_
_atom_site_label
_atom_site_type_symbol
_atom_site_fract_x
_atom_site_fract_y
_atom_site_fract_z
N1 N -0.1867(2) 0.1260(2) 0.27149(12)
H1 H -0.257(3) 0.050(3) 0.3260(18)
H2 H -0.256(4) 0.099(3) 0.2073(18)
C1 C -0.0025(3) 0.3043(3) 0.28951(13)
N2 N 0.0821(3) 0.3714(2) 0.38783(12)
H3 H 0.016(3) 0.306(3) 0.4444(18)
H4 H 0.210(4) 0.486(4) 0.3944(17)
N3 N 0.1012(2) 0.4275(2) 0.20702(11)
C2 C 0.1293(3) 0.3411(3) 0.12021(13)
N4 N 0.0872(2) 0.1414(2) 0.10111(12)
H5 H 0.056(3) 0.058(3) 0.1525(18)
H6 H 0.136(3) 0.117(3) 0.0436(18)
N5 N 0.2145(2) 0.4672(2) 0.03494(11)
C3 C 0.3107(3) 0.6828(2) 0.02927(13)
N6 N 0.3255(3) 0.8128(2) 0.10946(12)
H7 H 0.396(4) 0.940(4) 0.1022(17)
H8 H 0.271(4) 0.767(3) 0.1700(18)
N7 N 0.3872(2) 0.7365(2) -0.06720(11)
C4 C 0.3377(3) 0.5456(2) -0.11844(13)
N8 N 0.3957(2) 0.5362(2) -0.21943(12)
H9 H 0.334(3) 0.419(4) -0.2527(17)
H10 H 0.446(4) 0.646(4) -0.2560(17)
N9 N 0.2361(2) 0.3779(2) -0.06267(11)
O1 O 0.9970(2) 1.2146(2) -0.37576(11)
O2 O 0.7287(2) 0.96157(19) -0.30268(10)
O3 O 0.5016(2) 0.76760(19) -0.60308(9)
O4 O 0.4622(2) 0.6781(2) -0.43743(10)
N10 N 0.7467(2) 0.9897(2) -0.48779(11)
N11 N 0.8219(2) 1.0513(2) -0.38208(11)
N12 N 0.5612(2) 0.8020(2) -0.50488(11)
loop_
_geom_bond_atom_site_label_1
_geom_bond_atom_site_label_2
_geom_bond_site_symmetry_1
_geom_bond_site_symmetry_2
N1 H1 1_555 1_555
H2 N1 1_555 1_555
O1 N11 1_555 1_555
C1 N1 1_555 1_555
O2 N11 1_555 1_555
N2 C1 1_555 1_555
H3 N2 1_555 1_555
H4 N2 1_555 1_555
O3 N12 1_555 1_555
N3 C1 1_555 1_555
O4 N12 1_555 1_555
C2 N3 1_555 1_555
N4 C2 1_555 1_555
H5 N4 1_555 1_555
H6 N4 1_555 1_555
N5 C2 1_555 1_555
C3 N5 1_555 1_555
N6 C3 1_555 1_555
H7 N6 1_555 1_555
H8 N6 1_555 1_555
N7 C3 1_555 1_555
C4 N7 1_555 1_555
N8 C4 1_555 1_555
H9 N8 1_555 1_555
H10 N8 1_555 1_555
N9 N5 1_555 1_555
N10 N11 1_555 1_555
N12 N10 1_555 1_555
C4 N9 1_555 1_555

#END
