
#######################################################################
#
#                 Cambridge Crystallographic Data Centre
#                                CCDC 
#
#######################################################################
#
# If this CIF has been generated from an entry in the Cambridge 
# Structural Database, then it will include bibliographic, chemical, 
# crystal, experimental, refinement or atomic coordinate data resulting 
# from the CCDC's data processing and validation procedures.
#
#######################################################################

data_YOPFIT
_chemical_formula_moiety         'C22 H18 F1 N1 O5 S1'
_chemical_name_systematic        
(3R,4R)-4-Fluoro-4-nitro-1,3-diphenyl-4-(phenylsulfonyl)butan-1-one
_symmetry_cell_setting           orthorhombic
_symmetry_space_group_name_H-M   'P 21 21 21'
_symmetry_Int_Tables_number      19
_space_group_name_Hall           'P 2ac 2ab'
loop_
_symmetry_equiv_pos_site_id
_symmetry_equiv_pos_as_xyz
1 x,y,z
2 1/2-x,-y,1/2+z
3 -x,1/2+y,1/2-z
4 1/2+x,1/2-y,-z
_cell_length_a                   5.8059(6)
_cell_length_b                   14.7745(15)
_cell_length_c                   22.698(2)
_cell_angle_alpha                90
_cell_angle_beta                 90
_cell_angle_gamma                90
_cell_volume                     1947.02
_cell_formula_units_Z            4
loop_
_atom_site_label
_atom_site_type_symbol
_atom_site_fract_x
_atom_site_fract_y
_atom_site_fract_z
C1 C 0.8130(2) 0.56988(2) 1.03490(13)
C2 C 0.9295(7) 0.5446(3) 0.97669(16)
H1 H 1.0998 0.5440 0.9832
C3 C 0.8739(8) 0.6183(3) 0.93083(17)
H2 H 0.7072 0.6171 0.9217
H3 H 0.9114 0.6785 0.9474
C4 C 1.0100(7) 0.6035(3) 0.87496(18)
C5 C 0.9150(7) 0.6373(3) 0.81789(17)
C6 C 0.6989(8) 0.6773(3) 0.81260(19)
H4 H 0.6045 0.6858 0.8463
C7 C 0.6222(8) 0.7051(3) 0.7566(2)
H5 H 0.4747 0.7322 0.7526
C8 C 0.7580(9) 0.6934(3) 0.7079(2)
H6 H 0.7046 0.7127 0.6704
C9 C 0.9723(9) 0.6534(3) 0.71306(19)
H7 H 1.0658 0.6452 0.6791
C10 C 1.0501(8) 0.6257(3) 0.76734(18)
H8 H 1.1976 0.5984 0.7706
C11 C 0.8574(7) 0.4514(3) 0.95607(16)
C12 C 1.0095(7) 0.3788(3) 0.96189(17)
H9 H 1.1575 0.3889 0.9785
C13 C 0.9494(9) 0.2927(3) 0.94392(19)
H10 H 1.0556 0.2442 0.9481
C14 C 0.7333(9) 0.2771(3) 0.9197(2)
H11 H 0.6896 0.2179 0.9079
C15 C 0.5822(8) 0.3488(3) 0.9130(2)
H12 H 0.4347 0.3385 0.8962
C16 C 0.6428(7) 0.4351(3) 0.93035(18)
H13 H 0.5380 0.4837 0.9248
F1 F 0.5845(4) 0.58736(19) 1.02812(11)
O1 O 1.1959(6) 0.5661(2) 0.87672(13)
C17 C 0.7798(8) 0.5379(3) 1.16039(19)
C18 C 0.5675(9) 0.5776(3) 1.1693(2)
H14 H 0.4568 0.5800 1.1385
C19 C 0.5194(12) 0.6143(8) 1.2246(3)
H15 H 0.3802 0.6466 1.2310
C20 C 0.6755(11) 0.6033(3) 1.2702(2)
H16 H 0.6362 0.6238 1.3086
C21 C 0.8873(11) 0.5633(4) 1.2610(2)
H17 H 0.9950 0.5582 1.2923
C22 C 0.9411(9) 0.5303(3) 1.2050(2)
H18 H 1.0864 0.5029 1.1976
N1 N 0.9223(2) 0.66015(5) 1.05889(7)
O2 O 0.6576(8) 0.4202(3) 1.0801(3)
O3 O 1.0744(6) 0.4538(2) 1.09293(17)
O4 O 1.1288(7) 0.6568(3) 1.0690(2)
O5 O 0.7972(15) 0.7231(4) 1.0662(4)
S1 S 0.8395(2) 0.48289(7) 1.09278(5)
C23? C 0.811(4) 0.6158(19) 1.1542(9)
C24? C 0.597(5) 0.642(2) 1.1753(12)
H19? H 0.5006 0.6806 1.1524
C25? C 0.526(7) 0.612(6) 1.2306(17)
H20? H 0.3676 0.6127 1.2413
C26? C 0.692(7) 0.581(4) 1.2695(15)
H21? H 0.6618 0.5803 1.3107
C27? C 0.901(7) 0.552(4) 1.2483(14)
H22? H 0.9993 0.5161 1.2725
C28? C 0.968(5) 0.575(3) 1.1916(11)
H23? H 1.1201 0.5621 1.1785
N2? N 0.803(2) 0.47681(4) 1.06857(5)
O6? O 0.792(8) 0.730(2) 1.066(2)
O7? O 1.144(4) 0.634(2) 1.0774(16)
O8? O 0.987(4) 0.442(2) 1.0894(18)
O9? O 0.629(6) 0.436(3) 1.080(3)
S2? S 0.9008(16) 0.6463(6) 1.0826(4)
loop_
_geom_bond_atom_site_label_1
_geom_bond_atom_site_label_2
_geom_bond_site_symmetry_1
_geom_bond_site_symmetry_2
C1 C2 1_555 1_555
C2 H1 1_555 1_555
C3 C2 1_555 1_555
H2 C3 1_555 1_555
H3 C3 1_555 1_555
C4 C3 1_555 1_555
C5 C4 1_555 1_555
C6 C5 1_555 1_555
H4 C6 1_555 1_555
C7 C6 1_555 1_555
H5 C7 1_555 1_555
C8 C7 1_555 1_555
H6 C8 1_555 1_555
C9 C8 1_555 1_555
H7 C9 1_555 1_555
C10 C5 1_555 1_555
H8 C10 1_555 1_555
C11 C2 1_555 1_555
C12 C11 1_555 1_555
H9 C12 1_555 1_555
C13 C12 1_555 1_555
H10 C13 1_555 1_555
C14 C13 1_555 1_555
H11 C14 1_555 1_555
C15 C14 1_555 1_555
H12 C15 1_555 1_555
C16 C11 1_555 1_555
H13 C16 1_555 1_555
F1 C1 1_555 1_555
O1 C4 1_555 1_555
C17 C18 1_555 1_555
C18 H14 1_555 1_555
C19 C18 1_555 1_555
H15 C19 1_555 1_555
C20 C19 1_555 1_555
H16 C20 1_555 1_555
C21 C20 1_555 1_555
H17 C21 1_555 1_555
C22 C17 1_555 1_555
H18 C22 1_555 1_555
N1 C1 1_555 1_555
O2 S1 1_555 1_555
O3 S1 1_555 1_555
O4 N1 1_555 1_555
O5 N1 1_555 1_555
S1 C1 1_555 1_555
C9 C10 1_555 1_555
C15 C16 1_555 1_555
C17 S1 1_555 1_555
C21 C22 1_555 1_555

#END
