
#######################################################################
#
#                 Cambridge Crystallographic Data Centre
#                                CCDC 
#
#######################################################################
#
# If this CIF has been generated from an entry in the Cambridge 
# Structural Database, then it will include bibliographic, chemical, 
# crystal, experimental, refinement or atomic coordinate data resulting 
# from the CCDC's data processing and validation procedures.
#
#######################################################################

data_YOPHOB
_chemical_formula_moiety         'C16 H24 O5'
_chemical_name_systematic        
4-Hydroxy-8-(methoxymethoxy)-9-methyl-6-methylenedecahydroazuleno[4,5-b]furan-2(3H)-one
_symmetry_cell_setting           monoclinic
_symmetry_space_group_name_H-M   'P 21'
_symmetry_Int_Tables_number      4
_space_group_name_Hall           'P 2yb'
loop_
_symmetry_equiv_pos_site_id
_symmetry_equiv_pos_as_xyz
1 x,y,z
2 -x,1/2+y,-z
_cell_length_a                   5.5216(11)
_cell_length_b                   12.957(3)
_cell_length_c                   10.914(2)
_cell_angle_alpha                90
_cell_angle_beta                 98.40(3)
_cell_angle_gamma                90
_cell_volume                     772.448
_exptl_crystal_colour            colorless
_chemical_melting_point          '115-117 deg.C'
_cell_formula_units_Z            2
loop_
_atom_site_label
_atom_site_type_symbol
_atom_site_fract_x
_atom_site_fract_y
_atom_site_fract_z
O1 O 0.5196(2) 0.63104(11) 0.79138(10)
O2 O 0.4918(2) 0.59255(10) 0.57978(10)
O3 O 1.1186(2) 0.57399(11) 0.08449(11)
H1 H 1.1769 0.5339 0.0385
O4 O 0.7711(2) 0.80903(11) 0.23066(11)
O5 O 0.7739(3) 0.93559(13) 0.09379(14)
C1 C 0.4357(3) 0.78164(15) 0.45000(16)
H2 H 0.2935 0.7384 0.4460
H3 H 0.4164 0.8280 0.3807
H4 H 0.4550 0.8206 0.5256
C2 C 0.6617(3) 0.71453(15) 0.44639(14)
H5 H 0.8026 0.7610 0.4503
C3 C 0.7173(3) 0.63808(15) 0.55376(14)
H6 H 0.8058 0.6717 0.6275
C4 C 0.8747(3) 0.55685(15) 0.50352(15)
H7 H 0.8791 0.4938 0.5516
H8 H 1.0407 0.5816 0.5040
C5 C 0.7455(3) 0.53937(14) 0.36988(15)
H9 H 0.5992 0.4981 0.3765
C6 C 0.8917(3) 0.47961(15) 0.28679(16)
C7 C 0.7878(3) 0.47104(15) 0.15008(17)
H10 H 0.6107 0.4678 0.1422
H11 H 0.8440 0.4069 0.1181
C8 C 0.8596(3) 0.56104(15) 0.06977(15)
H12 H 0.8020 0.5447 -0.0173
C9 C 0.7467(3) 0.66304(15) 0.09994(14)
H13 H 0.5684 0.6572 0.0796
C10 C 0.8296(4) 0.75633(16) 0.03262(16)
H14 H 1.0006 0.7505 0.0225
H15 H 0.7318 0.7646 -0.0482
C11 C 0.7899(4) 0.84457(16) 0.11674(16)
C12 C 0.8086(3) 0.69624(14) 0.23611(15)
H16 H 0.9815 0.6815 0.2654
C13 C 0.6526(3) 0.64970(14) 0.32563(13)
H17 H 0.4826 0.6448 0.2849
C14 C 0.5107(4) 0.55325(15) 0.70112(14)
H18 H 0.3714 0.5089 0.7070
H19 H 0.6575 0.5114 0.7180
C15 C 0.2907(4) 0.68274(18) 0.78802(18)
H20 H 0.2512 0.7182 0.7104
H21 H 0.3016 0.7317 0.8546
H22 H 0.1651 0.6332 0.7967
C16 C 1.0995(4) 0.43252(17) 0.33010(18)
H23 H 1.1600 0.4356 0.4141
H24 H 1.1850 0.3964 0.2765
loop_
_geom_bond_atom_site_label_1
_geom_bond_atom_site_label_2
_geom_bond_site_symmetry_1
_geom_bond_site_symmetry_2
O1 C14 1_555 1_555
O2 C3 1_555 1_555
O3 H1 1_555 1_555
O4 C11 1_555 1_555
O5 C11 1_555 1_555
C1 H2 1_555 1_555
H3 C1 1_555 1_555
H4 C1 1_555 1_555
C2 C1 1_555 1_555
H5 C2 1_555 1_555
C3 C2 1_555 1_555
H6 C3 1_555 1_555
C4 C3 1_555 1_555
H7 C4 1_555 1_555
H8 C4 1_555 1_555
C5 C4 1_555 1_555
H9 C5 1_555 1_555
C6 C5 1_555 1_555
C7 C6 1_555 1_555
H10 C7 1_555 1_555
H11 C7 1_555 1_555
C8 O3 1_555 1_555
H12 C8 1_555 1_555
C9 C8 1_555 1_555
H13 C9 1_555 1_555
C10 C9 1_555 1_555
H14 C10 1_555 1_555
H15 C10 1_555 1_555
C11 C10 1_555 1_555
C12 O4 1_555 1_555
H16 C12 1_555 1_555
C13 C2 1_555 1_555
H17 C13 1_555 1_555
C14 O2 1_555 1_555
H18 C14 1_555 1_555
H19 C14 1_555 1_555
C15 O1 1_555 1_555
H20 C15 1_555 1_555
H21 C15 1_555 1_555
H22 C15 1_555 1_555
C16 C6 1_555 1_555
H23 C16 1_555 1_555
H24 C16 1_555 1_555
C5 C13 1_555 1_555
C7 C8 1_555 1_555
C9 C12 1_555 1_555
C12 C13 1_555 1_555

#END
