
#######################################################################
#
#                 Cambridge Crystallographic Data Centre
#                                CCDC 
#
#######################################################################
#
# If this CIF has been generated from an entry in the Cambridge 
# Structural Database, then it will include bibliographic, chemical, 
# crystal, experimental, refinement or atomic coordinate data resulting 
# from the CCDC's data processing and validation procedures.
#
#######################################################################

data_YOPHIV
_chemical_formula_moiety         'C21 H26 O5'
_chemical_name_systematic        
'3-(Hydroxy-(2-oxotetrahydro-3-furanyl)methyl)-4-isopropenyl-2-methylcyclopentyl benzoate'
_symmetry_cell_setting           orthorhombic
_symmetry_space_group_name_H-M   'P 21 21 21'
_symmetry_Int_Tables_number      19
_space_group_name_Hall           'P 2ac 2ab'
loop_
_symmetry_equiv_pos_site_id
_symmetry_equiv_pos_as_xyz
1 x,y,z
2 1/2+x,1/2-y,-z
3 -x,1/2+y,1/2-z
4 1/2-x,-y,1/2+z
_cell_length_a                   6.1688(12)
_cell_length_b                   17.540(4)
_cell_length_c                   17.496(4)
_cell_angle_alpha                90
_cell_angle_beta                 90
_cell_angle_gamma                90
_cell_volume                     1893.08
_exptl_crystal_colour            colorless
_exptl_crystal_description       needle
_chemical_melting_point          '138-139 deg.C'
_cell_formula_units_Z            4
loop_
_atom_site_label
_atom_site_type_symbol
_atom_site_fract_x
_atom_site_fract_y
_atom_site_fract_z
O1 O 1.2241(2) 0.95387(9) 0.58004(9)
O2 O 1.2302(2) 0.94760(9) 0.74076(8)
O3 O 0.9113(2) 0.92144(9) 0.79408(7)
O4 O 0.8654(3) 0.87473(8) 0.34935(8)
O5 O 0.9609(3) 0.75417(8) 0.31875(9)
C1 C 0.9972(3) 0.96249(12) 0.59407(11)
H1 H 0.9686 1.0167 0.6087
C2 C 0.8722(3) 0.94490(10) 0.52074(10)
H2 H 0.7135 0.9463 0.5322
C3 C 0.9305(4) 0.86493(11) 0.48825(11)
H3 H 1.0466 0.8431 0.5216
C4 C 1.0311(4) 0.87895(12) 0.40882(11)
H4 H 1.1541 0.8433 0.3984
C5 C 1.1055(3) 0.96143(11) 0.41031(11)
H5 H 1.1216 0.9821 0.3580
H6 H 1.2447 0.9669 0.4379
C6 C 0.9199(3) 1.00078(11) 0.45334(10)
H7 H 0.7910 0.9978 0.4188
C7 C 0.7421(4) 0.80930(13) 0.48889(12)
H8 H 0.7887 0.7606 0.4669
H9 H 0.6224 0.8301 0.4586
H10 H 0.6936 0.8012 0.5416
C8 C 0.9443(4) 1.08393(11) 0.47373(11)
C9 C 1.1186(5) 1.12417(14) 0.45558(13)
H11 H 1.1227 1.1774 0.4657
H12 H 1.2396 1.0998 0.4325
C10 C 0.7502(4) 1.11979(13) 0.51019(14)
H13 H 0.7711 1.1751 0.5131
H14 H 0.7312 1.0991 0.5618
H15 H 0.6211 1.1086 0.4795
C11 C 0.9249(3) 0.91091(11) 0.65991(10)
H16 H 0.9537 0.8566 0.6456
C12 C 1.0431(3) 0.92862(11) 0.73347(11)
C13 C 0.6967(3) 0.89708(14) 0.76854(11)
H17 H 0.5816 0.9237 0.7976
H18 H 0.6785 0.8414 0.7753
C14 C 0.6878(3) 0.91856(12) 0.68422(11)
H19 H 0.6348 0.9714 0.6772
H20 H 0.5936 0.8832 0.6552
C15 C 0.8452(4) 0.80916(11) 0.31062(11)
C16 C 0.6600(4) 0.81235(12) 0.25601(11)
C17 C 0.6459(4) 0.75588(12) 0.19994(12)
H21 H 0.7541 0.7175 0.1967
C18 C 0.4745(4) 0.75596(13) 0.14920(12)
H22 H 0.4665 0.7181 0.1105
C19 C 0.3143(4) 0.81105(14) 0.15446(13)
H23 H 0.1960 0.8105 0.1197
C20 C 0.3261(4) 0.86714(14) 0.21050(13)
H24 H 0.2154 0.9046 0.2143
C21 C 0.4999(4) 0.86820(12) 0.26073(12)
H25 H 0.5098 0.9070 0.2984
H26 H 1.276(5) 0.9555(16) 0.6252(17)
loop_
_geom_bond_atom_site_label_1
_geom_bond_atom_site_label_2
_geom_bond_site_symmetry_1
_geom_bond_site_symmetry_2
O1 C1 1_555 1_555
O2 C12 1_555 1_555
O3 C12 1_555 1_555
O4 C4 1_555 1_555
O5 C15 1_555 1_555
C1 H1 1_555 1_555
C2 C1 1_555 1_555
H2 C2 1_555 1_555
C3 C2 1_555 1_555
H3 C3 1_555 1_555
C4 C3 1_555 1_555
H4 C4 1_555 1_555
C5 C4 1_555 1_555
H5 C5 1_555 1_555
H6 C5 1_555 1_555
C6 C2 1_555 1_555
H7 C6 1_555 1_555
C7 C3 1_555 1_555
H8 C7 1_555 1_555
H9 C7 1_555 1_555
H10 C7 1_555 1_555
C8 C6 1_555 1_555
C9 C8 1_555 1_555
H11 C9 1_555 1_555
H12 C9 1_555 1_555
C10 C8 1_555 1_555
H13 C10 1_555 1_555
H14 C10 1_555 1_555
H15 C10 1_555 1_555
C11 C1 1_555 1_555
H16 C11 1_555 1_555
C12 C11 1_555 1_555
C13 O3 1_555 1_555
H17 C13 1_555 1_555
H18 C13 1_555 1_555
C14 C11 1_555 1_555
H19 C14 1_555 1_555
H20 C14 1_555 1_555
C15 O4 1_555 1_555
C16 C15 1_555 1_555
C17 C16 1_555 1_555
H21 C17 1_555 1_555
C18 C17 1_555 1_555
H22 C18 1_555 1_555
C19 C18 1_555 1_555
H23 C19 1_555 1_555
C20 C19 1_555 1_555
H24 C20 1_555 1_555
C21 C16 1_555 1_555
H25 C21 1_555 1_555
H26 O1 1_555 1_555
C5 C6 1_555 1_555
C13 C14 1_555 1_555
C20 C21 1_555 1_555

#END
