
#######################################################################
#
#                 Cambridge Crystallographic Data Centre
#                                CCDC 
#
#######################################################################
#
# If this CIF has been generated from an entry in the Cambridge 
# Structural Database, then it will include bibliographic, chemical, 
# crystal, experimental, refinement or atomic coordinate data resulting 
# from the CCDC's data processing and validation procedures.
#
#######################################################################

data_YOPHER
_chemical_formula_moiety         'C16 H26 O5'
_chemical_name_systematic        
3-(Hydroxy-(5-isopropenyl-3-(methoxymethoxy)-2-methylcyclopentyl)methyl)dihydro-2(3H)-furanone
_symmetry_cell_setting           orthorhombic
_symmetry_space_group_name_H-M   'P 21 21 21'
_symmetry_Int_Tables_number      19
_space_group_name_Hall           'P 2ac 2ab'
loop_
_symmetry_equiv_pos_site_id
_symmetry_equiv_pos_as_xyz
1 x,y,z
2 1/2-x,-y,1/2+z
3 -x,1/2+y,1/2-z
4 1/2+x,1/2-y,-z
_cell_length_a                   9.5810(19)
_cell_length_b                   10.475(2)
_cell_length_c                   16.347(3)
_cell_angle_alpha                90
_cell_angle_beta                 90
_cell_angle_gamma                90
_cell_volume                     1640.6
_exptl_crystal_colour            colorless
_exptl_crystal_description       plate
_chemical_melting_point          '62-64 deg.C'
_cell_formula_units_Z            4
loop_
_atom_site_label
_atom_site_type_symbol
_atom_site_fract_x
_atom_site_fract_y
_atom_site_fract_z
O1 O 0.17364(15) 0.19125(13) 1.12554(8)
O2 O -0.00752(13) 0.26006(12) 1.05285(8)
O3 O 0.11137(11) 0.54145(11) 1.10366(6)
H1 H 0.0302 0.5660 1.1013
O4 O 0.33022(11) 0.90022(10) 0.90670(7)
O5 O 0.21156(15) 1.02415(13) 0.81176(9)
C1 C 0.3211(2) 0.2216(2) 1.13355(13)
H2 H 0.3774 0.1633 1.1013
H3 H 0.3503 0.2162 1.1903
C2 C 0.33566(18) 0.35699(17) 1.10199(11)
H4 H 0.4265 0.3708 1.0773
H5 H 0.3216 0.4189 1.1454
C3 C 0.21928(16) 0.36424(15) 1.03835(9)
H6 H 0.2553 0.3331 0.9859
C4 C 0.11420(18) 0.26985(16) 1.07056(10)
C5 C 0.15375(15) 0.49519(14) 1.02529(8)
H7 H 0.0711 0.4858 0.9905
C6 C 0.25442(14) 0.58867(14) 0.98495(8)
H8 H 0.3384 0.5904 1.0192
C7 C 0.20066(15) 0.72754(14) 0.98021(8)
H9 H 0.0985 0.7259 0.9774
C8 C 0.25795(15) 0.78055(14) 0.89802(9)
H10 H 0.1808 0.7907 0.8592
C9 C 0.35925(16) 0.68077(15) 0.86584(9)
H11 H 0.4526 0.6963 0.8865
H12 H 0.3618 0.6820 0.8065
C10 C 0.30327(15) 0.55231(14) 0.89710(9)
H13 H 0.3815 0.4924 0.9015
C11 C 0.19475(18) 0.49562(16) 0.83980(9)
C12 C 0.06818(18) 0.55143(18) 0.82434(11)
H14 H 0.0078 0.5152 0.7864
H15 H 0.0427 0.6256 0.8518
C13 C 0.2343(3) 0.3809(2) 0.79731(16)
H16 H 0.1575 0.3518 0.7645
H17 H 0.2587 0.3162 0.8363
H18 H 0.3130 0.3983 0.7627
C14 C 0.24400(18) 0.80588(17) 1.05460(9)
H19 H 0.2170 0.7618 1.1036
H20 H 0.1989 0.8877 1.0528
H21 H 0.3434 0.8175 1.0542
C15 C 0.24634(19) 1.00878(17) 0.89298(12)
H22 H 0.1615 1.0013 0.9250
H23 H 0.2959 1.0841 0.9117
C16 C 0.3305(3) 1.0475(2) 0.76126(12)
H24 H 0.3822 1.1185 0.7827
H25 H 0.3004 1.0667 0.7066
H26 H 0.3889 0.9731 0.7605
loop_
_geom_bond_atom_site_label_1
_geom_bond_atom_site_label_2
_geom_bond_site_symmetry_1
_geom_bond_site_symmetry_2
O1 C1 1_555 1_555
O2 C4 1_555 1_555
O3 H1 1_555 1_555
O4 C8 1_555 1_555
O5 C15 1_555 1_555
C1 H2 1_555 1_555
H3 C1 1_555 1_555
C2 C1 1_555 1_555
H4 C2 1_555 1_555
H5 C2 1_555 1_555
C3 C2 1_555 1_555
H6 C3 1_555 1_555
C4 O1 1_555 1_555
C5 O3 1_555 1_555
H7 C5 1_555 1_555
C6 C5 1_555 1_555
H8 C6 1_555 1_555
C7 C6 1_555 1_555
H9 C7 1_555 1_555
C8 C7 1_555 1_555
H10 C8 1_555 1_555
C9 C8 1_555 1_555
H11 C9 1_555 1_555
H12 C9 1_555 1_555
C10 C6 1_555 1_555
H13 C10 1_555 1_555
C11 C10 1_555 1_555
C12 C11 1_555 1_555
H14 C12 1_555 1_555
H15 C12 1_555 1_555
C13 C11 1_555 1_555
H16 C13 1_555 1_555
H17 C13 1_555 1_555
H18 C13 1_555 1_555
C14 C7 1_555 1_555
H19 C14 1_555 1_555
H20 C14 1_555 1_555
H21 C14 1_555 1_555
C15 O4 1_555 1_555
H22 C15 1_555 1_555
H23 C15 1_555 1_555
C16 O5 1_555 1_555
H24 C16 1_555 1_555
H25 C16 1_555 1_555
H26 C16 1_555 1_555
C3 C4 1_555 1_555
C3 C5 1_555 1_555
C9 C10 1_555 1_555

#END
