
#######################################################################
#
#                 Cambridge Crystallographic Data Centre
#                                CCDC 
#
#######################################################################
#
# If this CIF has been generated from an entry in the Cambridge 
# Structural Database, then it will include bibliographic, chemical, 
# crystal, experimental, refinement or atomic coordinate data resulting 
# from the CCDC's data processing and validation procedures.
#
#######################################################################

data_YOPNOI
_chemical_compound_source        
'Isolated from the flowers of Rhododendron molle.'
_chemical_name_common            '6-O-acetylrhodomollein XXI unknown solvate'
_chemical_formula_moiety         'C22 H35 Cl1 O7'
_chemical_name_systematic        
'2-chloro-3,5,10,14,16-pentahydroxygrayanotoxan-6-yl acetate unknown solvate'
_symmetry_cell_setting           monoclinic
_symmetry_space_group_name_H-M   'P 21'
_symmetry_Int_Tables_number      4
_space_group_name_Hall           'P 2yb'
loop_
_symmetry_equiv_pos_site_id
_symmetry_equiv_pos_as_xyz
1 x,y,z
2 -x,1/2+y,-z
_cell_length_a                   10.8838(2)
_cell_length_b                   56.5355(10)
_cell_length_c                   11.1692(2)
_cell_angle_alpha                90
_cell_angle_beta                 118.9220(10)
_cell_angle_gamma                90
_cell_volume                     6015.48
_exptl_crystal_colour            colorless
_exptl_crystal_description       block
_cell_formula_units_Z            10
loop_
_atom_site_label
_atom_site_type_symbol
_atom_site_fract_x
_atom_site_fract_y
_atom_site_fract_z
Cl1 Cl 0.66301(10) 0.303573(18) 0.76287(10)
O1 O 0.5202(3) 0.24191(5) 0.5898(3)
H1 H 0.4393 0.2478 0.5523
O2 O 0.7882(3) 0.21742(5) 0.8346(3)
H2 H 0.7028 0.2149 0.7802
O3 O 1.0399(3) 0.22603(5) 0.8567(3)
O4 O 1.2253(3) 0.24916(6) 0.9060(3)
O5 O 0.6734(3) 0.27450(5) 1.0224(3)
H3 H 0.6199 0.2721 1.0558
O6 O 1.1453(3) 0.28095(5) 1.1943(3)
H4 H 1.1467 0.2957 1.1873
O7 O 1.2758(3) 0.26580(5) 1.4539(3)
H5 H 1.2715 0.2740 1.3893
C1 C 0.7571(4) 0.25948(7) 0.8837(4)
H6 H 0.8301 0.2720 0.9280
C2 C 0.6340(4) 0.27163(7) 0.7594(4)
H7 H 0.5452 0.2687 0.7630
C3 C 0.6217(4) 0.26034(8) 0.6301(4)
H8 H 0.5942 0.2723 0.5556
C4 C 0.7686(4) 0.24989(7) 0.6719(4)
C5 C 0.8209(4) 0.24149(7) 0.8248(4)
C6 C 0.9799(4) 0.24330(7) 0.9139(4)
H9 H 1.0124 0.2596 0.9092
C7 C 1.0403(4) 0.23554(7) 1.0631(4)
H10 H 1.1435 0.2372 1.1060
H11 H 1.0208 0.2184 1.0619
C8 C 0.9950(4) 0.24735(7) 1.1625(4)
C9 C 0.8407(4) 0.24080(6) 1.1256(4)
H12 H 0.8322 0.2233 1.1121
C10 C 0.7169(4) 0.25202(7) 0.9929(4)
C11 C 0.8212(4) 0.24604(7) 1.2511(4)
H13 H 0.7197 0.2457 1.2223
H14 H 0.8669 0.2333 1.3194
C12 C 0.8817(4) 0.26989(8) 1.3194(4)
H15 H 0.8160 0.2826 1.2645
H16 H 0.8889 0.2701 1.4112
C13 C 1.0267(4) 0.27516(6) 1.3343(3)
H17 H 1.0606 0.2911 1.3766
C14 C 1.0173(4) 0.27397(7) 1.1912(4)
H18 H 0.9357 0.2833 1.1220
C15 C 1.0995(4) 0.23638(7) 1.3060(4)
H19 H 1.0550 0.2228 1.3262
H20 H 1.1856 0.2307 1.3060
C16 C 1.1365(4) 0.25601(7) 1.4149(4)
C17 C 1.1454(4) 0.24778(8) 1.5467(4)
H21 H 1.2305 0.2383 1.5976
H22 H 1.0628 0.2382 1.5269
H23 H 1.1487 0.2615 1.6016
C18 C 0.7606(4) 0.22977(8) 0.5758(4)
H24 H 0.7200 0.2358 0.4820
H25 H 0.7016 0.2170 0.5793
H26 H 0.8552 0.2237 0.6047
C19 C 0.8593(4) 0.27001(8) 0.6655(4)
H27 H 0.9516 0.2638 0.6864
H28 H 0.8707 0.2822 0.7325
H29 H 0.8137 0.2769 0.5735
C20 C 0.5918(4) 0.23505(8) 0.9405(4)
H30 H 0.5638 0.2329 1.0110
H31 H 0.6185 0.2197 0.9190
H32 H 0.5130 0.2416 0.8578
C21 C 1.1651(4) 0.23039(8) 0.8666(4)
C22 C 1.2178(4) 0.20964(8) 0.8224(4)
H33 H 1.3078 0.2136 0.8276
H34 H 1.1497 0.2055 0.7280
H35 H 1.2305 0.1962 0.8826
Cl2 Cl 0.38588(10) 0.195995(18) 0.33858(10)
O8 O 0.3700(3) 0.14352(5) 0.1022(3)
H36 H 0.2865 0.1424 0.0863
O9 O 0.6494(3) 0.12693(5) 0.3194(3)
H37 H 0.7233 0.1229 0.3186
O10 O 0.4778(3) 0.15054(5) 0.5694(3)
H38 H 0.4138 0.1589 0.5091
O11 O 0.8867(3) 0.15790(5) 0.3769(3)
O12 O 1.0060(3) 0.19086(6) 0.4804(3)
O13 O 0.9291(3) 0.17793(5) 0.7812(3)
H39 H 0.9144 0.1907 0.8103
O14 O 1.0885(3) 0.15078(6) 0.9954(3)
H40 H 1.0837 0.1606 0.9369
C23 C 0.5641(4) 0.15661(7) 0.4185(4)
H41 H 0.6097 0.1704 0.4806
C24 C 0.4214(4) 0.16596(7) 0.3042(4)
H42 H 0.3447 0.1553 0.2963
C25 C 0.4280(4) 0.16518(7) 0.1701(4)
H43 H 0.3764 0.1789 0.1104
C26 C 0.5847(4) 0.16653(7) 0.2133(4)
C27 C 0.6557(4) 0.15134(7) 0.3498(4)
C28 C 0.8055(4) 0.15927(7) 0.4493(4)
H44 H 0.8041 0.1760 0.4779
C29 C 0.8826(4) 0.14381(7) 0.5755(4)
H45 H 0.9791 0.1502 0.6273
H46 H 0.8910 0.1279 0.5427
C30 C 0.8303(4) 0.13992(7) 0.6800(4)
C31 C 0.6891(4) 0.12583(7) 0.6201(4)
H47 H 0.7029 0.1113 0.5771
C32 C 0.5481(4) 0.13741(7) 0.5090(4)
C33 C 0.6695(4) 0.11722(7) 0.7419(4)
H48 H 0.5710 0.1120 0.7060
H49 H 0.7303 0.1033 0.7836
C34 C 0.7032(4) 0.13570(8) 0.8538(4)
H50 H 0.6227 0.1467 0.8234
H51 H 0.7154 0.1276 0.9374
C35 C 0.8353(4) 0.14996(7) 0.8885(4)
H52 H 0.8509 0.1623 0.9585
C36 C 0.8182(4) 0.16155(7) 0.7556(4)
H53 H 0.7241 0.1692 0.7030
C37 C 0.9482(4) 0.12518(8) 0.7965(4)
H54 H 0.9213 0.1083 0.7871
H55 H 1.0368 0.1266 0.7924
C38 C 0.9679(4) 0.13504(8) 0.9336(4)
C39 C 0.9976(5) 0.11667(9) 1.0421(4)
H56 H 1.0843 0.1082 1.0628
H57 H 0.9195 0.1054 1.0088
H58 H 1.0083 0.1244 1.1251
C40 C 0.6135(4) 0.15698(9) 0.1002(4)
H59 H 0.5590 0.1661 0.0160
H60 H 0.5861 0.1403 0.0831
H61 H 0.7138 0.1585 0.1293
C41 C 0.6303(4) 0.19256(8) 0.2388(4)
H62 H 0.7292 0.1938 0.2621
H63 H 0.6183 0.1987 0.3146
H64 H 0.5725 0.2018 0.1561
C42 C 0.4504(4) 0.11696(7) 0.4252(4)
H65 H 0.4456 0.1053 0.4875
H66 H 0.4874 0.1095 0.3700
H67 H 0.3562 0.1232 0.3649
C43 C 0.9873(4) 0.17397(8) 0.4050(4)
C44 C 1.0654(6) 0.16906(10) 0.3305(7)
H68 H 1.0167 0.1764 0.2397
H69 H 1.0712 0.1519 0.3207
H70 H 1.1604 0.1756 0.3816
Cl3 Cl 0.20337(11) 0.395517(18) 0.17056(11)
O15 O 0.0728(3) 0.33040(5) 0.1488(3)
H71 H 0.0322 0.3351 0.1921
O16 O 0.3293(3) 0.31283(5) 0.1528(3)
H72 H 0.3473 0.3028 0.1080
O17 O 0.4977(3) 0.37096(5) 0.4248(3)
H73 H 0.5172 0.3689 0.5066
O18 O 0.3600(3) 0.32032(5) -0.0812(3)
O19 O 0.4064(4) 0.34424(6) -0.2128(3)
O20 O 0.6861(3) 0.37443(5) 0.1280(3)
H74 H 0.6864 0.3891 0.1172
O21 O 0.9575(3) 0.35999(6) 0.2652(3)
H75 H 0.9255 0.3735 0.2346
C45 C 0.3623(4) 0.35459(7) 0.2098(4)
H76 H 0.4010 0.3681 0.1809
C46 C 0.2258(4) 0.36383(7) 0.2030(4)
H77 H 0.2284 0.3604 0.2920
C47 C 0.1042(4) 0.35007(8) 0.0894(4)
H78 H 0.0199 0.3604 0.0399
C48 C 0.1578(4) 0.34136(7) -0.0082(4)
C49 C 0.3180(4) 0.33556(7) 0.0948(4)
C50 C 0.4153(4) 0.33779(8) 0.0319(4)
H79 H 0.4112 0.3541 -0.0041
C51 C 0.5654(4) 0.33032(7) 0.1224(4)
H80 H 0.6132 0.3313 0.0664
H81 H 0.5635 0.3134 0.1438
C52 C 0.6597(4) 0.34283(7) 0.2578(4)
C53 C 0.6190(4) 0.33821(7) 0.3732(4)
H82 H 0.6124 0.3206 0.3787
C54 C 0.4766(4) 0.34836(7) 0.3575(4)
C55 C 0.7433(4) 0.34596(8) 0.5126(4)
H83 H 0.7100 0.3470 0.5808
H84 H 0.8172 0.3337 0.5442
C56 C 0.8079(4) 0.36993(8) 0.5071(4)
H85 H 0.9004 0.3716 0.5902
H86 H 0.7468 0.3828 0.5085
C57 C 0.8276(4) 0.37317(8) 0.3803(4)
H87 H 0.8672 0.3891 0.3798
C58 C 0.6832(4) 0.36953(7) 0.2520(4)
H88 H 0.6086 0.3789 0.2580
C59 C 0.8121(4) 0.33226(7) 0.3094(4)
H89 H 0.8339 0.3204 0.3820
H90 H 0.8181 0.3245 0.2329
C60 C 0.9168(4) 0.35326(8) 0.3660(4)
C61 C 1.0539(4) 0.34770(9) 0.4922(5)
H91 H 1.0992 0.3343 0.4734
H92 H 1.0358 0.3436 0.5676
H93 H 1.1156 0.3616 0.5176
C62 C 0.0734(4) 0.32059(8) -0.0947(4)
H94 H -0.0269 0.3244 -0.1382
H95 H 0.0926 0.3066 -0.0365
H96 H 0.1001 0.3174 -0.1653
C63 C 0.1446(5) 0.36203(9) -0.1029(4)
H97 H 0.1732 0.3568 -0.1694
H98 H 0.2052 0.3751 -0.0484
H99 H 0.0469 0.3674 -0.1514
C64 C 0.4246(4) 0.33105(8) 0.4290(4)
H100 H 0.4922 0.3305 0.5269
H101 H 0.4151 0.3152 0.3895
H102 H 0.3332 0.3363 0.4161
C65 C 0.3667(4) 0.32548(8) -0.1936(4)
C66 C 0.3115(4) 0.30517(9) -0.2918(4)
H103 H 0.2090 0.3046 -0.3333
H104 H 0.3517 0.2904 -0.2428
H105 H 0.3378 0.3073 -0.3636
Cl4 Cl 0.77160(18) 0.50398(2) 0.30554(13)
O22 O 0.7300(3) 0.43929(5) 0.3931(3)
H106 H 0.6753 0.4338 0.4192
O23 O 0.7251(3) 0.42191(5) 0.1581(3)
H107 H 0.7461 0.4211 0.2409
O24 O 1.0032(3) 0.48146(6) 0.2253(3)
H108 H 1.0612 0.4826 0.3090
O25 O 0.4934(3) 0.42734(6) -0.0985(3)
O26 O 0.3629(3) 0.44921(7) -0.2867(3)
O27 O 0.6909(3) 0.48053(5) -0.2390(3)
H109 H 0.7017 0.4778 -0.3073
O28 O 0.8322(3) 0.46646(6) -0.3625(3)
H110 H 0.7926 0.4788 -0.3564
C67 C 0.7903(4) 0.46376(7) 0.1713(4)
H111 H 0.7572 0.4775 0.1071
C68 C 0.7884(5) 0.47239(7) 0.3026(4)
H112 H 0.8781 0.4675 0.3843
C69 C 0.6664(5) 0.45976(8) 0.3074(4)
H113 H 0.6193 0.4702 0.3453
C70 C 0.5654(4) 0.45257(8) 0.1578(4)
C71 C 0.6709(4) 0.44496(7) 0.1065(4)
C72 C 0.6088(4) 0.44449(8) -0.0485(4)
H114 H 0.5710 0.4605 -0.0868
C73 C 0.7047(4) 0.43609(8) -0.1020(4)
H115 H 0.6469 0.4348 -0.2026
H116 H 0.7346 0.4199 -0.0667
C74 C 0.8364(4) 0.44968(7) -0.0740(4)
C75 C 0.9575(4) 0.44705(7) 0.0758(4)
H117 H 0.9704 0.4297 0.0948
C76 C 0.9418(4) 0.45851(8) 0.1979(4)
C77 C 1.0947(4) 0.45605(9) 0.0833(4)
H118 H 1.1652 0.4583 0.1806
H119 H 1.1307 0.4437 0.0455
C78 C 1.0813(5) 0.47882(9) 0.0083(4)
H120 H 1.1648 0.4807 -0.0043
H121 H 1.0802 0.4922 0.0650
C79 C 0.9492(4) 0.48002(7) -0.1317(4)
H122 H 0.9437 0.4955 -0.1769
C80 C 0.8196(4) 0.47613(7) -0.1168(4)
H123 H 0.8247 0.4862 -0.0410
C81 C 0.8867(4) 0.43859(8) -0.1718(4)
H124 H 0.9629 0.4270 -0.1214
H125 H 0.8079 0.4303 -0.2488
C82 C 0.9404(4) 0.45926(8) -0.2262(4)
C83 C 1.0725(5) 0.45331(10) -0.2346(5)
H126 H 1.0498 0.4417 -0.3075
H127 H 1.1433 0.4467 -0.1471
H128 H 1.1093 0.4677 -0.2546
C84 C 0.4620(5) 0.43333(9) 0.1490(5)
H129 H 0.4203 0.4378 0.2064
H130 H 0.5120 0.4183 0.1813
H131 H 0.3878 0.4316 0.0539
C85 C 0.4790(5) 0.47436(10) 0.0791(5)
H132 H 0.4147 0.4699 -0.0160
H133 H 0.5425 0.4868 0.0810
H134 H 0.4248 0.4802 0.1222
C86 C 1.0262(5) 0.44252(10) 0.3212(4)
H135 H 1.1240 0.4419 0.3405
H136 H 0.9863 0.4265 0.3013
H137 H 1.0222 0.4488 0.4010
C87 C 0.3846(4) 0.43122(9) -0.2228(4)
C88 C 0.2920(5) 0.40897(11) -0.2711(6)
H138 H 0.2165 0.4113 -0.3651
H139 H 0.2514 0.4061 -0.2110
H140 H 0.3492 0.3953 -0.2680
Cl5 Cl 0.08808(12) 0.56263(2) 0.42413(12)
O29 O 0.2067(4) 0.49613(6) 0.4746(3)
H141 H 0.2758 0.4927 0.5505
O30 O 0.4611(3) 0.50751(5) 0.7074(3)
H142 H 0.4648 0.5091 0.7838
O31 O 0.1971(3) 0.55470(5) 0.7697(3)
H143 H 0.1625 0.5512 0.8202
O32 O 0.6647(3) 0.53530(5) 0.6707(3)
O33 O 0.7690(4) 0.57000(7) 0.6890(4)
O34 O 0.6151(3) 0.59598(5) 0.9081(3)
H144 H 0.5856 0.6099 0.8883
O35 O 0.7563(3) 0.59675(6) 1.1884(3)
H145 H 0.7418 0.6026 1.1136
C89 C 0.3137(4) 0.54236(7) 0.6546(4)
H146 H 0.3290 0.5598 0.6539
C90 C 0.1783(5) 0.53650(8) 0.5217(4)
H147 H 0.1134 0.5278 0.5462
C91 C 0.2192(5) 0.52004(9) 0.4405(4)
H148 H 0.1580 0.5228 0.3402
C92 C 0.3734(5) 0.52607(9) 0.4831(4)
C93 C 0.4348(4) 0.52996(7) 0.6410(4)
C94 C 0.5648(4) 0.54609(7) 0.7079(4)
H149 H 0.5399 0.5624 0.6693
C95 C 0.6373(4) 0.54699(7) 0.8624(4)
H150 H 0.7226 0.5568 0.8921
H151 H 0.6697 0.5307 0.8953
C96 C 0.5624(4) 0.55615(7) 0.9419(4)
C97 C 0.4397(4) 0.53942(7) 0.9271(4)
H152 H 0.4809 0.5232 0.9501
C98 C 0.2995(4) 0.53699(7) 0.7843(4)
C99 C 0.4010(4) 0.54571(7) 1.0380(4)
H153 H 0.4731 0.5391 1.1263
H154 H 0.3103 0.5381 1.0153
C100 C 0.3889(4) 0.57254(8) 1.0552(4)
H155 H 0.2980 0.5782 0.9806
H156 H 0.3895 0.5754 1.1429
C101 C 0.5079(4) 0.58687(8) 1.0535(4)
H157 H 0.4960 0.6042 1.0635
C102 C 0.5121(4) 0.58178(7) 0.9208(4)
H158 H 0.4171 0.5835 0.8389
C103 C 0.6797(4) 0.55650(8) 1.0952(4)
H159 H 0.6759 0.5418 1.1418
H160 H 0.7734 0.5576 1.1015
C104 C 0.6533(4) 0.57830(7) 1.1630(4)
C105 C 0.6718(4) 0.57330(8) 1.3049(4)
H161 H 0.7714 0.5707 1.3694
H162 H 0.6183 0.5591 1.3015
H163 H 0.6375 0.5868 1.3352
C106 C 0.4428(5) 0.50629(11) 0.4423(5)
H164 H 0.4461 0.4918 0.4917
H165 H 0.5385 0.5110 0.4657
H166 H 0.3881 0.5035 0.3436
C107 C 0.3801(5) 0.54928(9) 0.4123(5)
H167 H 0.4765 0.5519 0.4304
H168 H 0.3502 0.5626 0.4484
H169 H 0.3177 0.5480 0.3135
C108 C 0.2374(4) 0.51306(8) 0.7846(5)
H170 H 0.2259 0.5116 0.8661
H171 H 0.3003 0.5006 0.7855
H172 H 0.1457 0.5115 0.7024
C109 C 0.7573(4) 0.54942(9) 0.6609(4)
C110 C 0.8416(5) 0.53606(10) 0.6091(5)
H173 H 0.7963 0.5374 0.5093
H174 H 0.8470 0.5194 0.6347
H175 H 0.9365 0.5427 0.6495
loop_
_geom_bond_atom_site_label_1
_geom_bond_atom_site_label_2
_geom_bond_site_symmetry_1
_geom_bond_site_symmetry_2
Cl1 C2 1_555 1_555
O1 H1 1_555 1_555
O2 H2 1_555 1_555
O3 C6 1_555 1_555
O4 C21 1_555 1_555
O5 H3 1_555 1_555
O6 H4 1_555 1_555
O7 H5 1_555 1_555
C1 H6 1_555 1_555
C2 C1 1_555 1_555
H7 C2 1_555 1_555
C3 O1 1_555 1_555
H8 C3 1_555 1_555
C4 C3 1_555 1_555
C5 O2 1_555 1_555
C6 C5 1_555 1_555
H9 C6 1_555 1_555
C7 C6 1_555 1_555
H10 C7 1_555 1_555
H11 C7 1_555 1_555
C8 C7 1_555 1_555
C9 C8 1_555 1_555
H12 C9 1_555 1_555
C10 O5 1_555 1_555
C11 C9 1_555 1_555
H13 C11 1_555 1_555
H14 C11 1_555 1_555
C12 C11 1_555 1_555
H15 C12 1_555 1_555
H16 C12 1_555 1_555
C13 C12 1_555 1_555
H17 C13 1_555 1_555
C14 O6 1_555 1_555
H18 C14 1_555 1_555
C15 C8 1_555 1_555
H19 C15 1_555 1_555
H20 C15 1_555 1_555
C16 O7 1_555 1_555
C17 C16 1_555 1_555
H21 C17 1_555 1_555
H22 C17 1_555 1_555
H23 C17 1_555 1_555
C18 C4 1_555 1_555
H24 C18 1_555 1_555
H25 C18 1_555 1_555
H26 C18 1_555 1_555
C19 C4 1_555 1_555
H27 C19 1_555 1_555
H28 C19 1_555 1_555
H29 C19 1_555 1_555
C20 C10 1_555 1_555
H30 C20 1_555 1_555
H31 C20 1_555 1_555
H32 C20 1_555 1_555
C21 O3 1_555 1_555
C22 C21 1_555 1_555
H33 C22 1_555 1_555
H34 C22 1_555 1_555
H35 C22 1_555 1_555
Cl2 C24 1_555 1_555
O8 H36 1_555 1_555
O9 H37 1_555 1_555
O10 H38 1_555 1_555
O11 C28 1_555 1_555
O12 C43 1_555 1_555
O13 H39 1_555 1_555
O14 H40 1_555 1_555
C23 H41 1_555 1_555
C24 C23 1_555 1_555
H42 C24 1_555 1_555
C25 O8 1_555 1_555
H43 C25 1_555 1_555
C26 C25 1_555 1_555
C27 O9 1_555 1_555
C28 C27 1_555 1_555
H44 C28 1_555 1_555
C29 C28 1_555 1_555
H45 C29 1_555 1_555
H46 C29 1_555 1_555
C30 C29 1_555 1_555
C31 C30 1_555 1_555
H47 C31 1_555 1_555
C32 O10 1_555 1_555
C33 C31 1_555 1_555
H48 C33 1_555 1_555
H49 C33 1_555 1_555
C34 C33 1_555 1_555
H50 C34 1_555 1_555
H51 C34 1_555 1_555
C35 C34 1_555 1_555
H52 C35 1_555 1_555
C36 O13 1_555 1_555
H53 C36 1_555 1_555
C37 C30 1_555 1_555
H54 C37 1_555 1_555
H55 C37 1_555 1_555
C38 O14 1_555 1_555
C39 C38 1_555 1_555
H56 C39 1_555 1_555
H57 C39 1_555 1_555
H58 C39 1_555 1_555
C40 C26 1_555 1_555
H59 C40 1_555 1_555
H60 C40 1_555 1_555
H61 C40 1_555 1_555
C41 C26 1_555 1_555
H62 C41 1_555 1_555
H63 C41 1_555 1_555
H64 C41 1_555 1_555
C42 C32 1_555 1_555
H65 C42 1_555 1_555
H66 C42 1_555 1_555
H67 C42 1_555 1_555
C43 O11 1_555 1_555
C44 C43 1_555 1_555
H68 C44 1_555 1_555
H69 C44 1_555 1_555
H70 C44 1_555 1_555
Cl3 C46 1_555 1_555
O15 H71 1_555 1_555
O16 H72 1_555 1_555
O17 H73 1_555 1_555
O18 C50 1_555 1_555
O19 C65 1_555 1_555
O20 H74 1_555 1_555
O21 H75 1_555 1_555
C45 H76 1_555 1_555
C46 C45 1_555 1_555
H77 C46 1_555 1_555
C47 O15 1_555 1_555
H78 C47 1_555 1_555
C48 C47 1_555 1_555
C49 O16 1_555 1_555
C50 C49 1_555 1_555
H79 C50 1_555 1_555
C51 C50 1_555 1_555
H80 C51 1_555 1_555
H81 C51 1_555 1_555
C52 C51 1_555 1_555
C53 C52 1_555 1_555
H82 C53 1_555 1_555
C54 O17 1_555 1_555
C55 C53 1_555 1_555
H83 C55 1_555 1_555
H84 C55 1_555 1_555
C56 C55 1_555 1_555
H85 C56 1_555 1_555
H86 C56 1_555 1_555
C57 C56 1_555 1_555
H87 C57 1_555 1_555
C58 O20 1_555 1_555
H88 C58 1_555 1_555
C59 C52 1_555 1_555
H89 C59 1_555 1_555
H90 C59 1_555 1_555
C60 O21 1_555 1_555
C61 C60 1_555 1_555
H91 C61 1_555 1_555
H92 C61 1_555 1_555
H93 C61 1_555 1_555
C62 C48 1_555 1_555
H94 C62 1_555 1_555
H95 C62 1_555 1_555
H96 C62 1_555 1_555
C63 C48 1_555 1_555
H97 C63 1_555 1_555
H98 C63 1_555 1_555
H99 C63 1_555 1_555
C64 C54 1_555 1_555
H100 C64 1_555 1_555
H101 C64 1_555 1_555
H102 C64 1_555 1_555
C65 O18 1_555 1_555
C66 C65 1_555 1_555
H103 C66 1_555 1_555
H104 C66 1_555 1_555
H105 C66 1_555 1_555
Cl4 C68 1_555 1_555
O22 H106 1_555 1_555
O23 H107 1_555 1_555
O24 H108 1_555 1_555
O25 C72 1_555 1_555
O26 C87 1_555 1_555
O27 H109 1_555 1_555
O28 H110 1_555 1_555
C67 H111 1_555 1_555
C68 C67 1_555 1_555
H112 C68 1_555 1_555
C69 O22 1_555 1_555
H113 C69 1_555 1_555
C70 C69 1_555 1_555
C71 O23 1_555 1_555
C72 C71 1_555 1_555
H114 C72 1_555 1_555
C73 C72 1_555 1_555
H115 C73 1_555 1_555
H116 C73 1_555 1_555
C74 C73 1_555 1_555
C75 C74 1_555 1_555
H117 C75 1_555 1_555
C76 O24 1_555 1_555
C77 C75 1_555 1_555
H118 C77 1_555 1_555
H119 C77 1_555 1_555
C78 C77 1_555 1_555
H120 C78 1_555 1_555
H121 C78 1_555 1_555
C79 C78 1_555 1_555
H122 C79 1_555 1_555
C80 O27 1_555 1_555
H123 C80 1_555 1_555
C81 C74 1_555 1_555
H124 C81 1_555 1_555
H125 C81 1_555 1_555
C82 O28 1_555 1_555
C83 C82 1_555 1_555
H126 C83 1_555 1_555
H127 C83 1_555 1_555
H128 C83 1_555 1_555
C84 C70 1_555 1_555
H129 C84 1_555 1_555
H130 C84 1_555 1_555
H131 C84 1_555 1_555
C85 C70 1_555 1_555
H132 C85 1_555 1_555
H133 C85 1_555 1_555
H134 C85 1_555 1_555
C86 C76 1_555 1_555
H135 C86 1_555 1_555
H136 C86 1_555 1_555
H137 C86 1_555 1_555
C87 O25 1_555 1_555
C88 C87 1_555 1_555
H138 C88 1_555 1_555
H139 C88 1_555 1_555
H140 C88 1_555 1_555
Cl5 C90 1_555 1_555
O29 H141 1_555 1_555
O30 H142 1_555 1_555
O31 H143 1_555 1_555
O32 C94 1_555 1_555
O33 C109 1_555 1_555
O34 H144 1_555 1_555
O35 H145 1_555 1_555
C89 H146 1_555 1_555
C90 C89 1_555 1_555
H147 C90 1_555 1_555
C91 O29 1_555 1_555
H148 C91 1_555 1_555
C92 C91 1_555 1_555
C93 O30 1_555 1_555
C94 C93 1_555 1_555
H149 C94 1_555 1_555
C95 C94 1_555 1_555
H150 C95 1_555 1_555
H151 C95 1_555 1_555
C96 C95 1_555 1_555
C97 C96 1_555 1_555
H152 C97 1_555 1_555
C98 O31 1_555 1_555
C99 C97 1_555 1_555
H153 C99 1_555 1_555
H154 C99 1_555 1_555
C100 C99 1_555 1_555
H155 C100 1_555 1_555
H156 C100 1_555 1_555
C101 C100 1_555 1_555
H157 C101 1_555 1_555
C102 O34 1_555 1_555
H158 C102 1_555 1_555
C103 C96 1_555 1_555
H159 C103 1_555 1_555
H160 C103 1_555 1_555
C104 O35 1_555 1_555
C105 C104 1_555 1_555
H161 C105 1_555 1_555
H162 C105 1_555 1_555
H163 C105 1_555 1_555
C106 C92 1_555 1_555
H164 C106 1_555 1_555
H165 C106 1_555 1_555
H166 C106 1_555 1_555
C107 C92 1_555 1_555
H167 C107 1_555 1_555
H168 C107 1_555 1_555
H169 C107 1_555 1_555
C108 C98 1_555 1_555
H170 C108 1_555 1_555
H171 C108 1_555 1_555
H172 C108 1_555 1_555
C109 O32 1_555 1_555
C110 C109 1_555 1_555
H173 C110 1_555 1_555
H174 C110 1_555 1_555
H175 C110 1_555 1_555
C1 C5 1_555 1_555
C1 C10 1_555 1_555
C2 C3 1_555 1_555
C4 C5 1_555 1_555
C8 C14 1_555 1_555
C9 C10 1_555 1_555
C13 C14 1_555 1_555
C13 C16 1_555 1_555
C15 C16 1_555 1_555
C23 C27 1_555 1_555
C23 C32 1_555 1_555
C24 C25 1_555 1_555
C26 C27 1_555 1_555
C30 C36 1_555 1_555
C31 C32 1_555 1_555
C35 C36 1_555 1_555
C35 C38 1_555 1_555
C37 C38 1_555 1_555
C45 C49 1_555 1_555
C45 C54 1_555 1_555
C46 C47 1_555 1_555
C48 C49 1_555 1_555
C52 C58 1_555 1_555
C53 C54 1_555 1_555
C57 C58 1_555 1_555
C57 C60 1_555 1_555
C59 C60 1_555 1_555
C67 C71 1_555 1_555
C67 C76 1_555 1_555
C68 C69 1_555 1_555
C70 C71 1_555 1_555
C74 C80 1_555 1_555
C75 C76 1_555 1_555
C79 C80 1_555 1_555
C79 C82 1_555 1_555
C81 C82 1_555 1_555
C89 C93 1_555 1_555
C89 C98 1_555 1_555
C90 C91 1_555 1_555
C92 C93 1_555 1_555
C96 C102 1_555 1_555
C97 C98 1_555 1_555
C101 C102 1_555 1_555
C101 C104 1_555 1_555
C103 C104 1_555 1_555

#END
