
#######################################################################
#
#                 Cambridge Crystallographic Data Centre
#                                CCDC 
#
#######################################################################
#
# If this CIF has been generated from an entry in the Cambridge 
# Structural Database, then it will include bibliographic, chemical, 
# crystal, experimental, refinement or atomic coordinate data resulting 
# from the CCDC's data processing and validation procedures.
#
#######################################################################

data_YOPTUS
_chemical_formula_moiety         'C41 H58 O9'
_chemical_name_systematic        'Melianin A'
_symmetry_cell_setting           orthorhombic
_symmetry_space_group_name_H-M   'P 21 21 21'
_symmetry_Int_Tables_number      19
_space_group_name_Hall           'P 2ac 2ab'
loop_
_symmetry_equiv_pos_site_id
_symmetry_equiv_pos_as_xyz
1 x,y,z
2 1/2-x,-y,1/2+z
3 1/2+x,1/2-y,-z
4 -x,1/2+y,1/2-z
_cell_length_a                   15.3649(9)
_cell_length_b                   15.528(2)
_cell_length_c                   16.304(2)
_cell_angle_alpha                90
_cell_angle_beta                 90
_cell_angle_gamma                90
_cell_volume                     3889.91
_cell_formula_units_Z            4
loop_
_atom_site_label
_atom_site_type_symbol
_atom_site_fract_x
_atom_site_fract_y
_atom_site_fract_z
C1 C -0.4666(4) 0.5810(3) 0.5106(3)
C2 C -0.5470(4) 0.6364(4) 0.4886(4)
C3 C -0.5807(4) 0.6921(4) 0.5575(4)
C4 C -0.5109(4) 0.7481(4) 0.5988(4)
C5 C -0.4332(4) 0.6869(3) 0.6232(3)
C6 C -0.3631(4) 0.7310(3) 0.6749(3)
C7 C -0.3034(3) 0.6657(3) 0.7138(3)
C8 C -0.2583(3) 0.6068(3) 0.6516(3)
C9 C -0.3294(3) 0.5666(3) 0.5940(3)
C10 C -0.3930(4) 0.6317(3) 0.5534(3)
C11 C -0.2905(4) 0.5005(3) 0.5345(3)
C12 C -0.2104(3) 0.4522(3) 0.5655(3)
C13 C -0.2056(3) 0.4443(3) 0.6581(3)
C14 C -0.2098(3) 0.5351(3) 0.6954(3)
C15 C -0.1623(4) 0.5411(4) 0.7620(4)
C16 C -0.1113(4) 0.4596(4) 0.7772(4)
C17 C -0.1155(3) 0.4146(4) 0.6931(3)
C18 C -0.2788(4) 0.3869(4) 0.6918(4)
C19 C -0.3501(4) 0.6860(4) 0.4860(4)
C20 C -0.0920(4) 0.3191(4) 0.6948(4)
C21 C -0.0779(4) 0.2804(4) 0.6098(4)
C22 C -0.0100(5) 0.3004(4) 0.7434(4)
C23 C 0.0694(4) 0.3383(4) 0.7020(4)
C24 C 0.0770(4) 0.3030(4) 0.6152(4)
C25 C 0.1492(4) 0.3425(4) 0.5615(4)
C26 C 0.1351(5) 0.4371(5) 0.5482(5)
C27 C 0.1575(5) 0.2952(5) 0.4812(5)
C28 C -0.5496(5) 0.7888(4) 0.6757(4)
C29 C -0.4845(5) 0.8229(4) 0.5408(4)
C30 C -0.1887(4) 0.6605(4) 0.6069(4)
C31 C -0.3633(3) 0.6253(4) 0.8445(3)
C32 C -0.4268(5) 0.5653(5) 0.8843(4)
C33 C -0.5198(4) 0.4379(4) 0.5279(4)
C34 C -0.5475(5) 0.3729(4) 0.5883(5)
C35 C -0.7003(4) 0.6312(5) 0.6330(6)
C36 C -0.7214(4) 0.5818(4) 0.7087(5)
C37 C -0.6608(4) 0.5338(5) 0.7477(5)
C38 C -0.6799(6) 0.4852(6) 0.8162(6)
C39 C -0.7636(8) 0.4888(8) 0.8451(6)
C40 C -0.8295(5) 0.5412(6) 0.8052(7)
C41 C -0.8095(5) 0.5875(5) 0.7359(8)
O1 O -0.7487(7) 0.6958(9) 0.6235(9)
O2 O -0.4953(2) 0.5116(2) 0.5641(2)
O3 O -0.5183(4) 0.4278(3) 0.4548(3)
O4 O -0.0031(2) 0.3184(2) 0.5714(2)
O5 O 0.1442(3) 0.3141(3) 0.7491(3)
O6 O 0.2304(3) 0.3350(3) 0.6069(4)
O7 O -0.6166(2) 0.6363(3) 0.6202(3)
O8 O -0.3582(2) 0.6107(2) 0.7653(2)
O9 O -0.3240(3) 0.6801(3) 0.8804(3)
loop_
_geom_bond_atom_site_label_1
_geom_bond_atom_site_label_2
_geom_bond_site_symmetry_1
_geom_bond_site_symmetry_2
C1 C2 1_555 1_555
C2 C3 1_555 1_555
C3 C4 1_555 1_555
C4 C5 1_555 1_555
C5 C6 1_555 1_555
C6 C7 1_555 1_555
C7 C8 1_555 1_555
C8 C9 1_555 1_555
C9 C10 1_555 1_555
C10 C1 1_555 1_555
C11 C9 1_555 1_555
C12 C11 1_555 1_555
C13 C12 1_555 1_555
C14 C8 1_555 1_555
C15 C14 1_555 1_555
C16 C15 1_555 1_555
C17 C13 1_555 1_555
C18 C13 1_555 1_555
C19 C10 1_555 1_555
C20 C17 1_555 1_555
C21 C20 1_555 1_555
C22 C20 1_555 1_555
C23 C22 1_555 1_555
C24 C23 1_555 1_555
C25 C24 1_555 1_555
C26 C25 1_555 1_555
C27 C25 1_555 1_555
C28 C4 1_555 1_555
C29 C4 1_555 1_555
C30 C8 1_555 1_555
C31 C32 1_555 1_555
C33 C34 1_555 1_555
C35 C36 1_555 1_555
C36 C37 1_555 1_555
C37 C38 1_555 1_555
C38 C39 1_555 1_555
C39 C40 1_555 1_555
C40 C41 1_555 1_555
C41 C36 1_555 1_555
O1 C35 1_555 1_555
O2 C1 1_555 1_555
O3 C33 1_555 1_555
O4 C21 1_555 1_555
O5 C23 1_555 1_555
O6 C25 1_555 1_555
O7 C3 1_555 1_555
O8 C7 1_555 1_555
O9 C31 1_555 1_555
C5 C10 1_555 1_555
C13 C14 1_555 1_555
C16 C17 1_555 1_555
C24 O4 1_555 1_555
C31 O8 1_555 1_555
C33 O2 1_555 1_555
C35 O7 1_555 1_555

#END
