
#######################################################################
#
#                 Cambridge Crystallographic Data Centre
#                                CCDC 
#
#######################################################################
#
# If this CIF has been generated from an entry in the Cambridge 
# Structural Database, then it will include bibliographic, chemical, 
# crystal, experimental, refinement or atomic coordinate data resulting 
# from the CCDC's data processing and validation procedures.
#
#######################################################################

data_YOPYIN
_chemical_formula_moiety         'C22 H18 I1 N3 O4 S1'
_chemical_name_systematic        
5-(Iodomethyl)-1-((4-nitrophenyl)sulfonyl)-3,5-diphenyl-4,5-dihydro-1H-pyrazole
_symmetry_cell_setting           orthorhombic
_symmetry_space_group_name_H-M   'P 21 21 21'
_symmetry_Int_Tables_number      19
_space_group_name_Hall           'P 2ac 2ab'
loop_
_symmetry_equiv_pos_site_id
_symmetry_equiv_pos_as_xyz
1 x,y,z
2 1/2+x,1/2-y,-z
3 -x,1/2+y,1/2-z
4 1/2-x,-y,1/2+z
_cell_length_a                   7.7904(14)
_cell_length_b                   14.700(3)
_cell_length_c                   19.469(3)
_cell_angle_alpha                90
_cell_angle_beta                 90
_cell_angle_gamma                90
_cell_volume                     2229.57
_chemical_melting_point          '186-187 deg.C'
_cell_formula_units_Z            4
loop_
_atom_site_label
_atom_site_type_symbol
_atom_site_fract_x
_atom_site_fract_y
_atom_site_fract_z
I1 I 0.65267(6) 0.50426(4) 0.11748(2)
S1 S 0.3844(2) 0.66459(10) 0.26687(8)
O1 O -0.2935(10) 0.6607(4) 0.4714(3)
O2 O -0.3584(9) 0.7774(4) 0.4094(3)
O3 O 0.4981(6) 0.6094(3) 0.3061(2)
O4 O 0.4390(7) 0.7513(3) 0.2403(2)
N1 N -0.2624(10) 0.7151(4) 0.4264(4)
C1 C -0.0998(11) 0.7056(4) 0.3884(4)
C2 C 0.0335(12) 0.6581(5) 0.4169(4)
H1 H 0.0220 0.6331 0.4605
C3 C 0.1831(10) 0.6472(4) 0.3815(3)
H2 H 0.2738 0.6151 0.4010
C4 C 0.1992(10) 0.6846(4) 0.3159(3)
N2 N 0.3300(7) 0.6027(3) 0.1998(2)
N3 N 0.2366(6) 0.6461(3) 0.1482(2)
C5 C 0.1758(8) 0.5850(3) 0.1077(3)
C6 C 0.0839(7) 0.6083(4) 0.0445(3)
C7 C 0.0602(9) 0.6989(4) 0.0260(3)
H3 H 0.0976 0.7452 0.0549
C8 C -0.0193(9) 0.7198(4) -0.0357(3)
H4 H -0.0329 0.7803 -0.0486
C9 C -0.0778(8) 0.6521(4) -0.0778(3)
H5 H -0.1303 0.6666 -0.1193
C10 C -0.0588(8) 0.5627(4) -0.0586(3)
H6 H -0.1007 0.5166 -0.0867
C11 C 0.0219(8) 0.5410(4) 0.0020(3)
H7 H 0.0347 0.4803 0.0145
C12 C 0.2170(7) 0.4891(4) 0.1297(2)
H8 H 0.2897 0.4592 0.0961
H9 H 0.1129 0.4537 0.1355
C13 C 0.3111(6) 0.5005(4) 0.1983(2)
C14 C 0.4890(8) 0.4563(4) 0.1977(3)
H10 H 0.4754 0.3910 0.1928
H11 H 0.5442 0.4676 0.2415
C15 C 0.1983(7) 0.4677(3) 0.2578(3)
C16 C 0.2608(8) 0.4095(4) 0.3085(3)
H12 H 0.3718 0.3865 0.3059
C17 C 0.1539(10) 0.3867(4) 0.3630(4)
H13 H 0.1953 0.3488 0.3975
C18 C -0.0092(9) 0.4184(4) 0.3671(4)
H14 H -0.0787 0.4023 0.4040
C19 C -0.0714(9) 0.4745(4) 0.3162(3)
H15 H -0.1831 0.4966 0.3189
C20 C 0.0306(7) 0.4980(4) 0.2615(3)
H16 H -0.0134 0.5347 0.2268
C21 C 0.0627(11) 0.7341(4) 0.2877(4)
H17 H 0.0741 0.7608 0.2446
C22 C -0.0885(11) 0.7432(4) 0.3238(4)
H18 H -0.1812 0.7741 0.3049
loop_
_geom_bond_atom_site_label_1
_geom_bond_atom_site_label_2
_geom_bond_site_symmetry_1
_geom_bond_site_symmetry_2
I1 C14 1_555 1_555
S1 O3 1_555 1_555
O1 N1 1_555 1_555
O2 N1 1_555 1_555
O4 S1 1_555 1_555
N1 C1 1_555 1_555
C1 C2 1_555 1_555
C2 H1 1_555 1_555
C3 C2 1_555 1_555
H2 C3 1_555 1_555
C4 S1 1_555 1_555
N2 S1 1_555 1_555
N3 N2 1_555 1_555
C5 N3 1_555 1_555
C6 C5 1_555 1_555
C7 C6 1_555 1_555
H3 C7 1_555 1_555
C8 C7 1_555 1_555
H4 C8 1_555 1_555
C9 C8 1_555 1_555
H5 C9 1_555 1_555
C10 C9 1_555 1_555
H6 C10 1_555 1_555
C11 C6 1_555 1_555
H7 C11 1_555 1_555
C12 C5 1_555 1_555
H8 C12 1_555 1_555
H9 C12 1_555 1_555
C13 N2 1_555 1_555
C14 C13 1_555 1_555
H10 C14 1_555 1_555
H11 C14 1_555 1_555
C15 C13 1_555 1_555
C16 C15 1_555 1_555
H12 C16 1_555 1_555
C17 C16 1_555 1_555
H13 C17 1_555 1_555
C18 C17 1_555 1_555
H14 C18 1_555 1_555
C19 C18 1_555 1_555
H15 C19 1_555 1_555
C20 C15 1_555 1_555
H16 C20 1_555 1_555
C21 C4 1_555 1_555
H17 C21 1_555 1_555
C22 C1 1_555 1_555
H18 C22 1_555 1_555
C3 C4 1_555 1_555
C10 C11 1_555 1_555
C12 C13 1_555 1_555
C19 C20 1_555 1_555
C21 C22 1_555 1_555

#END
