
#######################################################################
#
#                 Cambridge Crystallographic Data Centre
#                                CCDC 
#
#######################################################################
#
# If this CIF has been generated from an entry in the Cambridge 
# Structural Database, then it will include bibliographic, chemical, 
# crystal, experimental, refinement or atomic coordinate data resulting 
# from the CCDC's data processing and validation procedures.
#
#######################################################################

data_YOPYUY
_chemical_formula_moiety         'C23 H37 N1 O3'
_chemical_name_systematic        
3\a-Hydroxy-4\b-(4-morpholinyl)-5\a-androstan-17-one
_symmetry_cell_setting           orthorhombic
_symmetry_space_group_name_H-M   'P 21 21 21'
_symmetry_Int_Tables_number      19
_space_group_name_Hall           'P 2ac 2ab'
loop_
_symmetry_equiv_pos_site_id
_symmetry_equiv_pos_as_xyz
1 x,y,z
2 1/2-x,-y,1/2+z
3 -x,1/2+y,1/2-z
4 1/2+x,1/2-y,-z
_cell_length_a                   8.3064(5)
_cell_length_b                   11.8271(7)
_cell_length_c                   21.4585(14)
_cell_angle_alpha                90
_cell_angle_beta                 90
_cell_angle_gamma                90
_cell_volume                     2108.1
_exptl_crystal_colour            colorless
_exptl_crystal_description       plate
_chemical_melting_point          '216-218 deg.C'
_cell_formula_units_Z            4
loop_
_atom_site_label
_atom_site_type_symbol
_atom_site_fract_x
_atom_site_fract_y
_atom_site_fract_z
C1 C 0.4815(3) 0.8343(2) 0.85255(13)
H1 H 0.3888 0.7949 0.8357
H2 H 0.4525 0.8616 0.8937
C2 C 0.5188(3) 0.9350(2) 0.81118(15)
H3 H 0.5349 0.9090 0.7688
H4 H 0.4274 0.9861 0.8113
C3 C 0.6673(3) 0.9983(2) 0.83261(14)
H5 H 0.6893 1.0604 0.8036
C4 C 0.8157(3) 0.92118(19) 0.83645(11)
H6 H 0.8981 0.9643 0.8588
C5 C 0.7750(3) 0.81850(19) 0.87806(10)
H7 H 0.7461 0.8524 0.9182
C6 C 0.9166(3) 0.7420(2) 0.89354(11)
H8 H 0.9478 0.7002 0.8566
H9 H 1.0076 0.7879 0.9063
C7 C 0.8746(3) 0.65935(19) 0.94535(11)
H10 H 0.8546 0.7011 0.9835
H11 H 0.9653 0.6094 0.9526
C8 C 0.7267(3) 0.58882(18) 0.92944(10)
H12 H 0.7512 0.5421 0.8929
C9 C 0.5834(3) 0.66660(18) 0.91355(10)
H13 H 0.5676 0.7143 0.9504
C10 C 0.6213(3) 0.74976(18) 0.85908(10)
C11 C 0.4250(3) 0.6005(2) 0.90551(12)
H14 H 0.3371 0.6540 0.9014
H15 H 0.4306 0.5573 0.8671
C12 C 0.3877(3) 0.5201(2) 0.95916(12)
H16 H 0.3659 0.5632 0.9967
H17 H 0.2926 0.4760 0.9493
C13 C 0.5294(3) 0.44155(19) 0.97018(11)
C14 C 0.6811(3) 0.51190(18) 0.98307(11)
H18 H 0.6550 0.5615 1.0182
C15 C 0.8021(3) 0.4246(2) 1.00780(14)
H19 H 0.8502 0.3818 0.9740
H20 H 0.8867 0.4607 1.0318
C16 C 0.6971(4) 0.3492(3) 1.04897(16)
H21 H 0.7245 0.2702 1.0429
H22 H 0.7121 0.3680 1.0926
C17 C 0.5253(4) 0.3712(2) 1.02936(13)
C18 C 0.5508(4) 0.3564(2) 0.91582(13)
H23 H 0.6285 0.3001 0.9274
H24 H 0.5877 0.3959 0.8794
H25 H 0.4496 0.3207 0.9070
C19 C 0.6446(3) 0.6861(2) 0.79713(11)
H26 H 0.5443 0.6529 0.7846
H27 H 0.7237 0.6277 0.8025
H28 H 0.6805 0.7381 0.7657
C20 C 0.8563(4) 0.9629(3) 0.72340(15)
H29 H 0.9027 1.0369 0.7310
H30 H 0.7410 0.9721 0.7182
C21 C 0.9272(5) 0.9136(5) 0.66494(15)
H31 H 0.8786 0.8403 0.6572
H32 H 0.9011 0.9623 0.6300
C22 C 1.1314(5) 0.8343(4) 0.71996(18)
H33 H 1.2475 0.8292 0.7240
H34 H 1.0898 0.7585 0.7138
C23 C 1.0617(4) 0.8830(5) 0.77897(15)
H35 H 1.0912 0.8355 0.8140
H36 H 1.1065 0.9576 0.7861
N1 N 0.8874(2) 0.89095(16) 0.77522(9)
O1 O 1.0931(3) 0.9009(2) 0.66826(9)
O2 O 0.6306(3) 1.04356(18) 0.89247(12)
H37 H 0.7070 1.0811 0.9050
O3 O 0.4062(3) 0.34138(15) 1.05773(10)
loop_
_geom_bond_atom_site_label_1
_geom_bond_atom_site_label_2
_geom_bond_site_symmetry_1
_geom_bond_site_symmetry_2
C1 H1 1_555 1_555
H2 C1 1_555 1_555
C2 C1 1_555 1_555
H3 C2 1_555 1_555
H4 C2 1_555 1_555
C3 C2 1_555 1_555
H5 C3 1_555 1_555
C4 C3 1_555 1_555
H6 C4 1_555 1_555
C5 C4 1_555 1_555
H7 C5 1_555 1_555
C6 C5 1_555 1_555
H8 C6 1_555 1_555
H9 C6 1_555 1_555
C7 C6 1_555 1_555
H10 C7 1_555 1_555
H11 C7 1_555 1_555
C8 C7 1_555 1_555
H12 C8 1_555 1_555
C9 C8 1_555 1_555
H13 C9 1_555 1_555
C10 C1 1_555 1_555
C11 C9 1_555 1_555
H14 C11 1_555 1_555
H15 C11 1_555 1_555
C12 C11 1_555 1_555
H16 C12 1_555 1_555
H17 C12 1_555 1_555
C13 C12 1_555 1_555
C14 C8 1_555 1_555
H18 C14 1_555 1_555
C15 C14 1_555 1_555
H19 C15 1_555 1_555
H20 C15 1_555 1_555
C16 C15 1_555 1_555
H21 C16 1_555 1_555
H22 C16 1_555 1_555
C17 C13 1_555 1_555
C18 C13 1_555 1_555
H23 C18 1_555 1_555
H24 C18 1_555 1_555
H25 C18 1_555 1_555
C19 C10 1_555 1_555
H26 C19 1_555 1_555
H27 C19 1_555 1_555
H28 C19 1_555 1_555
C20 H29 1_555 1_555
H30 C20 1_555 1_555
C21 C20 1_555 1_555
H31 C21 1_555 1_555
H32 C21 1_555 1_555
C22 H33 1_555 1_555
H34 C22 1_555 1_555
C23 C22 1_555 1_555
H35 C23 1_555 1_555
H36 C23 1_555 1_555
N1 C4 1_555 1_555
O1 C21 1_555 1_555
O2 C3 1_555 1_555
H37 O2 1_555 1_555
O3 C17 1_555 1_555
C5 C10 1_555 1_555
C9 C10 1_555 1_555
C13 C14 1_555 1_555
C16 C17 1_555 1_555
C20 N1 1_555 1_555
C22 O1 1_555 1_555
C23 N1 1_555 1_555

#END
