
#######################################################################
#
#                 Cambridge Crystallographic Data Centre
#                                CCDC 
#
#######################################################################
#
# If this CIF has been generated from an entry in the Cambridge 
# Structural Database, then it will include bibliographic, chemical, 
# crystal, experimental, refinement or atomic coordinate data resulting 
# from the CCDC's data processing and validation procedures.
#
#######################################################################

data_YOPYOS
_chemical_formula_moiety         'C23 H35 N1 O2'
_chemical_name_systematic        
4\a-(1-Pyrrolidinyl)-5\a-androstane-3,17-dione
_symmetry_cell_setting           orthorhombic
_symmetry_space_group_name_H-M   'P 21 21 21'
_symmetry_Int_Tables_number      19
_space_group_name_Hall           'P 2ac 2ab'
loop_
_symmetry_equiv_pos_site_id
_symmetry_equiv_pos_as_xyz
1 x,y,z
2 1/2-x,-y,1/2+z
3 -x,1/2+y,1/2-z
4 1/2+x,1/2-y,-z
_cell_length_a                   7.7287(7)
_cell_length_b                   8.6066(8)
_cell_length_c                   29.9778(16)
_cell_angle_alpha                90
_cell_angle_beta                 90
_cell_angle_gamma                90
_cell_volume                     1994.06
_exptl_crystal_colour            colorless
_exptl_crystal_description       block
_chemical_melting_point          '195-196 deg.C'
_cell_formula_units_Z            4
loop_
_atom_site_label
_atom_site_type_symbol
_atom_site_fract_x
_atom_site_fract_y
_atom_site_fract_z
C1 C 1.1337(4) 0.4470(4) 0.16204(10)
H1 H 1.1614 0.5104 0.1362
H2 H 1.2325 0.3809 0.1681
C2 C 1.1035(4) 0.5534(4) 0.20219(10)
H3 H 1.0889 0.4909 0.2289
H4 H 1.2035 0.6198 0.2064
C3 C 0.9465(4) 0.6513(4) 0.19523(8)
C4 C 0.7814(4) 0.5597(4) 0.18520(9)
H5 H 0.7608 0.4924 0.2110
C5 C 0.8171(4) 0.4503(3) 0.14493(9)
H6 H 0.8432 0.5184 0.1196
C6 C 0.9776(4) 0.3449(3) 0.15096(8)
C7 C 1.0096(4) 0.2609(3) 0.10557(8)
H7 H 1.0266 0.3437 0.0836
C8 C 0.8513(4) 0.1679(3) 0.08929(9)
H8 H 0.8308 0.0827 0.1103
C9 C 0.6905(4) 0.2703(4) 0.08828(10)
H9 H 0.5905 0.2057 0.0820
H10 H 0.7017 0.3445 0.0641
C10 C 0.6588(4) 0.3585(4) 0.13162(10)
H11 H 0.5616 0.4285 0.1278
H12 H 0.6299 0.2855 0.1551
C11 C 1.1759(4) 0.1638(4) 0.10454(9)
H13 H 1.2733 0.2303 0.1118
H14 H 1.1687 0.0839 0.1273
C12 C 1.2094(4) 0.0866(4) 0.05929(10)
H15 H 1.2345 0.1656 0.0371
H16 H 1.3092 0.0186 0.0615
C13 C 1.0522(4) -0.0069(3) 0.04481(9)
C14 C 0.8926(4) 0.0982(3) 0.04407(8)
H17 H 0.9239 0.1864 0.0250
C15 C 0.7592(5) 0.0062(4) 0.01770(10)
H18 H 0.6698 0.0735 0.0057
H19 H 0.7059 -0.0737 0.0359
C16 C 0.8694(5) -0.0647(4) -0.01955(11)
H20 H 0.8305 -0.1693 -0.0263
H21 H 0.8613 -0.0024 -0.0464
C17 C 1.0531(5) -0.0671(3) -0.00256(10)
C18 C 1.0282(5) -0.1536(3) 0.07421(9)
H22 H 0.9353 -0.2154 0.0625
H23 H 1.0014 -0.1228 0.1042
H24 H 1.1331 -0.2134 0.0741
C19 C 0.9518(5) 0.2261(4) 0.18853(9)
H25 H 1.0577 0.1704 0.1934
H26 H 0.8622 0.1544 0.1803
H27 H 0.9192 0.2792 0.2154
C20 C 0.5689(4) 0.7383(4) 0.21879(10)
H28 H 0.6669 0.7672 0.2372
H29 H 0.4894 0.6765 0.2365
C21 C 0.4792(7) 0.8816(5) 0.20046(13)
H30 H 0.3631 0.8904 0.2125
H31 H 0.5434 0.9747 0.2082
C22 C 0.4738(6) 0.8611(5) 0.15185(13)
H32 H 0.4885 0.9601 0.1368
H33 H 0.3642 0.8163 0.1427
C23 C 0.6182(5) 0.7551(4) 0.14107(9)
H34 H 0.5948 0.6975 0.1139
H35 H 0.7256 0.8120 0.1375
N1 N 0.6260(3) 0.6521(3) 0.17931(7)
O1 O 0.9502(3) 0.7927(3) 0.19648(7)
O2 O 1.1781(3) -0.1101(3) -0.02341(7)
loop_
_geom_bond_atom_site_label_1
_geom_bond_atom_site_label_2
_geom_bond_site_symmetry_1
_geom_bond_site_symmetry_2
C1 H1 1_555 1_555
H2 C1 1_555 1_555
C2 C1 1_555 1_555
H3 C2 1_555 1_555
H4 C2 1_555 1_555
C3 C2 1_555 1_555
C4 C3 1_555 1_555
H5 C4 1_555 1_555
C5 C4 1_555 1_555
H6 C5 1_555 1_555
C6 C1 1_555 1_555
C7 C6 1_555 1_555
H7 C7 1_555 1_555
C8 C7 1_555 1_555
H8 C8 1_555 1_555
C9 C8 1_555 1_555
H9 C9 1_555 1_555
H10 C9 1_555 1_555
C10 C5 1_555 1_555
H11 C10 1_555 1_555
H12 C10 1_555 1_555
C11 C7 1_555 1_555
H13 C11 1_555 1_555
H14 C11 1_555 1_555
C12 C11 1_555 1_555
H15 C12 1_555 1_555
H16 C12 1_555 1_555
C13 C12 1_555 1_555
C14 C8 1_555 1_555
H17 C14 1_555 1_555
C15 C14 1_555 1_555
H18 C15 1_555 1_555
H19 C15 1_555 1_555
C16 C15 1_555 1_555
H20 C16 1_555 1_555
H21 C16 1_555 1_555
C17 C13 1_555 1_555
C18 C13 1_555 1_555
H22 C18 1_555 1_555
H23 C18 1_555 1_555
H24 C18 1_555 1_555
C19 C6 1_555 1_555
H25 C19 1_555 1_555
H26 C19 1_555 1_555
H27 C19 1_555 1_555
C20 H28 1_555 1_555
H29 C20 1_555 1_555
C21 C20 1_555 1_555
H30 C21 1_555 1_555
H31 C21 1_555 1_555
C22 C21 1_555 1_555
H32 C22 1_555 1_555
H33 C22 1_555 1_555
C23 C22 1_555 1_555
H34 C23 1_555 1_555
H35 C23 1_555 1_555
N1 C4 1_555 1_555
O1 C3 1_555 1_555
O2 C17 1_555 1_555
C5 C6 1_555 1_555
C9 C10 1_555 1_555
C13 C14 1_555 1_555
C16 C17 1_555 1_555
C20 N1 1_555 1_555
C23 N1 1_555 1_555

#END
