
#######################################################################
#
#                 Cambridge Crystallographic Data Centre
#                                CCDC 
#
#######################################################################
#
# If this CIF has been generated from an entry in the Cambridge 
# Structural Database, then it will include bibliographic, chemical, 
# crystal, experimental, refinement or atomic coordinate data resulting 
# from the CCDC's data processing and validation procedures.
#
#######################################################################

data_YOQHAP
_chemical_formula_moiety         'C27 H34 N1 O2 1+,H2 O1,Br1 1-'
_chemical_name_systematic        
'1-(11-(2-Naphthylmethoxy)-11-oxoundecyl)pyridinium bromide monohydrate'
_symmetry_cell_setting           triclinic
_symmetry_space_group_name_H-M   'P -1'
_symmetry_Int_Tables_number      2
_space_group_name_Hall           '-P 1'
loop_
_symmetry_equiv_pos_site_id
_symmetry_equiv_pos_as_xyz
1 x,y,z
2 -x,-y,-z
_cell_length_a                   7.5480(11)
_cell_length_b                   8.2091(12)
_cell_length_c                   20.886(3)
_cell_angle_alpha                92.198(3)
_cell_angle_beta                 95.579(3)
_cell_angle_gamma                101.425(3)
_cell_volume                     1260.29
_exptl_crystal_colour            colorless
_exptl_crystal_description       needle
_cell_formula_units_Z            2
loop_
_atom_site_label
_atom_site_type_symbol
_atom_site_fract_x
_atom_site_fract_y
_atom_site_fract_z
Br1 Br 0.53918(2) 0.307268(19) 0.098089(8)
O1 O 0.2864(2) 0.56501(17) 0.03517(7)
H1 H 0.347(3) 0.510(3) 0.0502(12)
H2 H 0.331(3) 0.595(3) 0.0046(10)
O2 O 0.61840(17) 0.41209(14) 0.55464(6)
O3 O 0.72673(16) 0.37312(14) 0.46015(6)
N1 N 1.00092(19) 1.91292(16) 0.89853(6)
C1 C 0.7122(2) 0.46547(19) 0.51369(8)
C2 C 0.8213(2) 0.64012(19) 0.51401(8)
H3 H 0.7549 0.7053 0.4848
H4 H 0.9389 0.6368 0.4973
C3 C 0.8572(2) 0.72735(19) 0.58142(8)
H5 H 0.7479 0.6941 0.6043
H6 H 0.9586 0.6883 0.6057
C4 C 0.9043(2) 0.91680(19) 0.58182(8)
H7 H 0.8089 0.9563 0.5543
H8 H 1.0209 0.9516 0.5633
C5 C 0.9202(2) 0.99741(19) 0.64995(8)
H9 H 0.8098 0.9498 0.6703
H10 H 1.0256 0.9683 0.6756
C6 C 0.9431(2) 1.18628(19) 0.65270(8)
H11 H 0.8408 1.2168 0.6257
H12 H 1.0571 1.2355 0.6348
C7 C 0.9487(2) 1.25794(19) 0.72145(8)
H13 H 1.0535 1.2295 0.7478
H14 H 0.8369 1.2039 0.7396
C8 C 0.9643(2) 1.4467(2) 0.72737(8)
H15 H 1.0771 1.5023 0.7102
H16 H 0.8599 1.4767 0.7014
C9 C 0.9674(2) 1.50780(19) 0.79746(8)
H17 H 1.0730 1.4777 0.8227
H18 H 0.8562 1.4478 0.8144
C10 C 0.9783(2) 1.6945(2) 0.80867(8)
H19 H 1.0927 1.7573 0.7948
H20 H 0.8750 1.7281 0.7834
C11 C 0.9722(2) 1.73185(19) 0.88011(8)
H21 H 0.8527 1.6757 0.8923
H22 H 1.0669 1.6847 0.9048
C12 C 0.8659(2) 1.9943(2) 0.88286(8)
H23 H 0.7573 1.9373 0.8582
C13 C 0.8841(3) 2.1595(2) 0.90229(8)
H24 H 0.7885 2.2166 0.8914
C14 C 1.0438(3) 2.2415(2) 0.93791(8)
H25 H 1.0581 2.3552 0.9521
C15 C 1.1818(3) 2.1565(2) 0.95256(9)
H26 H 1.2926 2.2117 0.9763
C16 C 1.1576(2) 1.9910(2) 0.93246(8)
H27 H 1.2518 1.9317 0.9426
C17 C 0.6140(2) 0.20758(19) 0.45495(8)
H28 H 0.4899 0.2135 0.4651
H29 H 0.6651 0.1371 0.4863
C18 C 0.6056(2) 0.13178(19) 0.38783(8)
C19 C 0.5857(2) -0.03762(19) 0.37850(8)
H30 H 0.5828 -0.1042 0.4147
C20 C 0.5691(2) -0.11498(19) 0.31564(8)
C21 C 0.5491(2) -0.29043(19) 0.30503(8)
H31 H 0.5424 -0.3594 0.3406
C22 C 0.5395(2) -0.3600(2) 0.24388(8)
H32 H 0.5278 -0.4769 0.2373
C23 C 0.5469(2) -0.2597(2) 0.19042(8)
H33 H 0.5411 -0.3094 0.1482
C24 C 0.5624(2) -0.0909(2) 0.19905(8)
H34 H 0.5660 -0.0245 0.1628
C25 C 0.5731(2) -0.01439(19) 0.26208(8)
C26 C 0.5901(2) 0.16042(19) 0.27285(8)
H35 H 0.5905 0.2287 0.2371
C27 C 0.6059(2) 0.23143(19) 0.33396(8)
H36 H 0.6172 0.3484 0.3403
loop_
_geom_bond_atom_site_label_1
_geom_bond_atom_site_label_2
_geom_bond_site_symmetry_1
_geom_bond_site_symmetry_2
O1 H1 1_555 1_555
H2 O1 1_555 1_555
O2 C1 1_555 1_555
O3 C1 1_555 1_555
N1 C11 1_555 1_555
C1 C2 1_555 1_555
C2 H3 1_555 1_555
H4 C2 1_555 1_555
C3 C2 1_555 1_555
H5 C3 1_555 1_555
H6 C3 1_555 1_555
C4 C3 1_555 1_555
H7 C4 1_555 1_555
H8 C4 1_555 1_555
C5 C4 1_555 1_555
H9 C5 1_555 1_555
H10 C5 1_555 1_555
C6 C5 1_555 1_555
H11 C6 1_555 1_555
H12 C6 1_555 1_555
C7 C6 1_555 1_555
H13 C7 1_555 1_555
H14 C7 1_555 1_555
C8 C7 1_555 1_555
H15 C8 1_555 1_555
H16 C8 1_555 1_555
C9 C8 1_555 1_555
H17 C9 1_555 1_555
H18 C9 1_555 1_555
C10 C9 1_555 1_555
H19 C10 1_555 1_555
H20 C10 1_555 1_555
C11 C10 1_555 1_555
H21 C11 1_555 1_555
H22 C11 1_555 1_555
C12 N1 1_555 1_555
H23 C12 1_555 1_555
C13 C12 1_555 1_555
H24 C13 1_555 1_555
C14 C13 1_555 1_555
H25 C14 1_555 1_555
C15 C14 1_555 1_555
H26 C15 1_555 1_555
C16 N1 1_555 1_555
H27 C16 1_555 1_555
C17 O3 1_555 1_555
H28 C17 1_555 1_555
H29 C17 1_555 1_555
C18 C17 1_555 1_555
C19 C18 1_555 1_555
H30 C19 1_555 1_555
C20 C19 1_555 1_555
C21 C20 1_555 1_555
H31 C21 1_555 1_555
C22 C21 1_555 1_555
H32 C22 1_555 1_555
C23 C22 1_555 1_555
H33 C23 1_555 1_555
C24 C23 1_555 1_555
H34 C24 1_555 1_555
C25 C20 1_555 1_555
C26 C25 1_555 1_555
H35 C26 1_555 1_555
C27 C18 1_555 1_555
H36 C27 1_555 1_555
C15 C16 1_555 1_555
C24 C25 1_555 1_555
C26 C27 1_555 1_555

#END
