
#######################################################################
#
#                 Cambridge Crystallographic Data Centre
#                                CCDC 
#
#######################################################################
#
# If this CIF has been generated from an entry in the Cambridge 
# Structural Database, then it will include bibliographic, chemical, 
# crystal, experimental, refinement or atomic coordinate data resulting 
# from the CCDC's data processing and validation procedures.
#
#######################################################################

data_YOQVIK
_chemical_formula_moiety         'C12 H16 O4'
_chemical_name_systematic        
4-Hydroxy-5-(hydroxymethyl)-2,2-dimethyl-1a,2,3a,4-tetrahydro-1H,7H-cyclopropa[c][1]benzofuran-7-one
_symmetry_cell_setting           triclinic
_symmetry_space_group_name_H-M   'P -1'
_symmetry_Int_Tables_number      2
_space_group_name_Hall           '-P 1'
loop_
_symmetry_equiv_pos_site_id
_symmetry_equiv_pos_as_xyz
1 x,y,z
2 -x,-y,-z
_cell_length_a                   7.6126(3)
_cell_length_b                   8.8251(3)
_cell_length_c                   8.9510(4)
_cell_angle_alpha                71.6930(10)
_cell_angle_beta                 87.453(2)
_cell_angle_gamma                78.227(2)
_cell_volume                     558.775
_exptl_crystal_colour            colorless
_exptl_crystal_description       block
_chemical_melting_point          192-194deg.C
_cell_formula_units_Z            2
loop_
_atom_site_label
_atom_site_type_symbol
_atom_site_fract_x
_atom_site_fract_y
_atom_site_fract_z
C1 C 0.1512(3) 0.6038(3) 0.2885(3)
H1 H 0.0220 0.6390 0.2746
H2 H 0.2055 0.6809 0.2072
C2 C 0.2031(3) 0.6102(2) 0.4457(2)
C3 C 0.2916(3) 0.4795(2) 0.5559(3)
H3 H 0.3226 0.3825 0.5316
C4 C 0.3438(3) 0.4779(2) 0.7136(3)
C5 C 0.2899(3) 0.6379(2) 0.7391(3)
C6 C 0.2760(3) 0.7810(2) 0.5918(3)
H4 H 0.3947 0.7773 0.5445
C7 C 0.1453(3) 0.7757(2) 0.4718(3)
H5 H 0.1519 0.8626 0.3728
C8 C 0.1545(3) 0.6545(3) 0.8659(3)
H6 H 0.0500 0.7423 0.8367
H7 H 0.1331 0.5553 0.9434
C9 C 0.3316(3) 0.6986(2) 0.8707(3)
H8 H 0.4208 0.6305 0.9527
C10 C 0.3356(3) 0.8782(2) 0.7934(3)
C11 C 0.2344(4) 0.9861(3) 0.8843(3)
H9 H 0.2365 1.0980 0.8279
H10 H 0.2902 0.9571 0.9862
H11 H 0.1123 0.9718 0.8963
C12 C 0.5261(3) 0.9049(3) 0.7620(4)
H12 H 0.5838 0.8412 0.6976
H13 H 0.5914 0.8723 0.8600
H14 H 0.5238 1.0182 0.7084
O1 O 0.2007(2) 0.4505(2) 0.2663(2)
H15 H 0.1412 0.3883 0.3233
O2 O 0.4155(2) 0.35245(17) 0.8119(2)
O3 O -0.03481(18) 0.79012(16) 0.52508(19)
H16 H -0.0948 0.8778 0.4730
O4 O 0.23620(19) 0.92065(15) 0.64356(18)
loop_
_geom_bond_atom_site_label_1
_geom_bond_atom_site_label_2
_geom_bond_site_symmetry_1
_geom_bond_site_symmetry_2
C1 H1 1_555 1_555
H2 C1 1_555 1_555
C2 C1 1_555 1_555
C3 C2 1_555 1_555
H3 C3 1_555 1_555
C4 C3 1_555 1_555
C5 C4 1_555 1_555
C6 C5 1_555 1_555
H4 C6 1_555 1_555
C7 C2 1_555 1_555
H5 C7 1_555 1_555
C8 C5 1_555 1_555
H6 C8 1_555 1_555
H7 C8 1_555 1_555
C9 C5 1_555 1_555
H8 C9 1_555 1_555
C10 C9 1_555 1_555
C11 C10 1_555 1_555
H9 C11 1_555 1_555
H10 C11 1_555 1_555
H11 C11 1_555 1_555
C12 C10 1_555 1_555
H12 C12 1_555 1_555
H13 C12 1_555 1_555
H14 C12 1_555 1_555
O1 C1 1_555 1_555
H15 O1 1_555 1_555
O2 C4 1_555 1_555
O3 C7 1_555 1_555
H16 O3 1_555 1_555
O4 C6 1_555 1_555
C6 C7 1_555 1_555
C8 C9 1_555 1_555
C10 O4 1_555 1_555

#END
