
#######################################################################
#
#                 Cambridge Crystallographic Data Centre
#                                CCDC 
#
#######################################################################
#
# If this CIF has been generated from an entry in the Cambridge 
# Structural Database, then it will include bibliographic, chemical, 
# crystal, experimental, refinement or atomic coordinate data resulting 
# from the CCDC's data processing and validation procedures.
#
#######################################################################

data_YORLEX
_chemical_formula_moiety         'C27 H23 F3 N2 O4'
_chemical_name_systematic        
'Methyl cis-5-(4-methoxyphenyl)-3a,6-diphenyl-2-(trifluoromethyl)-3a,4,5,6-tetrahydroimidazo[1,5-b]isoxazole-3-carboxylate'
_symmetry_cell_setting           triclinic
_symmetry_space_group_name_H-M   'P -1'
_symmetry_Int_Tables_number      2
_space_group_name_Hall           '-P 1'
loop_
_symmetry_equiv_pos_site_id
_symmetry_equiv_pos_as_xyz
1 x,y,z
2 -x,-y,-z
_cell_length_a                   10.8599(13)
_cell_length_b                   10.9551(13)
_cell_length_c                   11.3368(13)
_cell_angle_alpha                90.300(2)
_cell_angle_beta                 110.034(2)
_cell_angle_gamma                106.2780(10)
_cell_volume                     1208.65
_chemical_melting_point          '107.0-107.7 deg.C'
_cell_formula_units_Z            2
_exptl_crystal_recrystallization_method 'dichloromethane/petroleum ether'
loop_
_atom_site_label
_atom_site_type_symbol
_atom_site_fract_x
_atom_site_fract_y
_atom_site_fract_z
C1 C 0.2421(4) 0.9087(3) 0.3203(3)
C2 C 0.3329(4) 0.9789(3) 0.2742(3)
C3 C 0.3304(3) 0.8990(3) 0.1627(3)
C4 C 0.4709(4) 0.8761(3) 0.1826(4)
H1 H 0.5056 0.9094 0.1173
H2 H 0.5384 0.9158 0.2646
C5 C 0.3409(3) 0.6971(3) 0.2385(3)
H3 H 0.3851 0.7278 0.3288
C6 C 0.1972(4) 0.9379(4) 0.4263(4)
C7 C 0.4250(4) 1.1090(3) 0.3272(4)
C8 C 0.5774(6) 1.2900(4) 0.2868(6)
H4 H 0.5227 1.3457 0.2852
H5 H 0.6254 1.3143 0.2294
H6 H 0.6426 1.2967 0.3708
C9 C 0.2647(3) 0.9374(3) 0.0330(3)
C10 C 0.2083(5) 1.0361(4) 0.0136(4)
H7 H 0.2081 1.0825 0.0824
C11 C 0.1515(5) 1.0680(5) -0.1072(5)
H8 H 0.1149 1.1362 -0.1185
C12 C 0.1492(5) 1.0011(6) -0.2077(5)
H9 H 0.1121 1.0237 -0.2884
C13 C 0.2020(5) 0.8981(6) -0.1917(5)
H10 H 0.1987 0.8501 -0.2612
C14 C 0.2592(4) 0.8683(4) -0.0716(4)
H11 H 0.2952 0.7997 -0.0605
C15 C 0.5534(4) 0.6885(3) 0.2104(4)
C16 C 0.5857(6) 0.6386(5) 0.1192(5)
H12 H 0.5330 0.6357 0.0344
C17 C 0.6987(7) 0.5916(6) 0.1534(8)
H13 H 0.7218 0.5599 0.0904
C18 C 0.7753(5) 0.5911(5) 0.2755(9)
C19 C 0.7445(5) 0.6417(6) 0.3607(7)
H14 H 0.7989 0.6452 0.4450
C20 C 0.6351(5) 0.6910(5) 0.3329(5)
H15 H 0.6171 0.7260 0.3979
C21 C 0.9166(14) 0.5009(8) 0.2386(9)
H16 H 0.8297 0.4657 0.1712
H17 H 0.9619 0.4361 0.2603
H18 H 0.9728 0.5711 0.2119
C22 C 0.2703(3) 0.5544(3) 0.2189(3)
C23 C 0.1739(4) 0.4959(4) 0.1043(4)
H19 H 0.1527 0.5437 0.0367
C24 C 0.1080(5) 0.3655(4) 0.0889(5)
H20 H 0.0423 0.3269 0.0110
C25 C 0.1374(6) 0.2938(4) 0.1847(7)
H21 H 0.0918 0.2066 0.1734
C26 C 0.2339(6) 0.3500(5) 0.2976(6)
H22 H 0.2566 0.2999 0.3628
C27 C 0.3003(5) 0.4818(4) 0.3186(5)
H23 H 0.3634 0.5198 0.3979
F1 F 0.0822(3) 0.8516(3) 0.4200(3)
F2 F 0.2919(3) 0.9393(4) 0.5371(3)
F3 F 0.1735(3) 1.0493(3) 0.4241(3)
N1 N 0.2425(3) 0.7679(3) 0.1735(3)
N2 N 0.4373(3) 0.7371(3) 0.1744(3)
O1 O 0.1763(2) 0.7884(2) 0.2624(2)
O2 O 0.4424(3) 1.1624(3) 0.4264(3)
O3 O 0.4889(3) 1.1589(3) 0.2489(3)
O4 O 0.8953(6) 0.5443(5) 0.3440(8)
loop_
_geom_bond_atom_site_label_1
_geom_bond_atom_site_label_2
_geom_bond_site_symmetry_1
_geom_bond_site_symmetry_2
C1 C2 1_555 1_555
C2 C3 1_555 1_555
C3 C4 1_555 1_555
C4 H1 1_555 1_555
H2 C4 1_555 1_555
C5 H3 1_555 1_555
C6 C1 1_555 1_555
C7 C2 1_555 1_555
C8 H4 1_555 1_555
H5 C8 1_555 1_555
H6 C8 1_555 1_555
C9 C3 1_555 1_555
C10 C9 1_555 1_555
H7 C10 1_555 1_555
C11 C10 1_555 1_555
H8 C11 1_555 1_555
C12 C11 1_555 1_555
H9 C12 1_555 1_555
C13 C12 1_555 1_555
H10 C13 1_555 1_555
C14 C9 1_555 1_555
H11 C14 1_555 1_555
C15 C16 1_555 1_555
C16 H12 1_555 1_555
C17 C16 1_555 1_555
H13 C17 1_555 1_555
C18 C17 1_555 1_555
C19 C18 1_555 1_555
H14 C19 1_555 1_555
C20 C15 1_555 1_555
H15 C20 1_555 1_555
C21 H16 1_555 1_555
H17 C21 1_555 1_555
H18 C21 1_555 1_555
C22 C5 1_555 1_555
C23 C22 1_555 1_555
H19 C23 1_555 1_555
C24 C23 1_555 1_555
H20 C24 1_555 1_555
C25 C24 1_555 1_555
H21 C25 1_555 1_555
C26 C25 1_555 1_555
H22 C26 1_555 1_555
C27 C22 1_555 1_555
H23 C27 1_555 1_555
F1 C6 1_555 1_555
F2 C6 1_555 1_555
F3 C6 1_555 1_555
N1 C3 1_555 1_555
N2 C4 1_555 1_555
O1 C1 1_555 1_555
O2 C7 1_555 1_555
O3 C7 1_555 1_555
O4 C18 1_555 1_555
C5 N1 1_555 1_555
C5 N2 1_555 1_555
C8 O3 1_555 1_555
C13 C14 1_555 1_555
C15 N2 1_555 1_555
C19 C20 1_555 1_555
C21 O4 1_555 1_555
C26 C27 1_555 1_555
N1 O1 1_555 1_555

#END
