
#######################################################################
#
#                 Cambridge Crystallographic Data Centre
#                                CCDC 
#
#######################################################################
#
# If this CIF has been generated from an entry in the Cambridge 
# Structural Database, then it will include bibliographic, chemical, 
# crystal, experimental, refinement or atomic coordinate data resulting 
# from the CCDC's data processing and validation procedures.
#
#######################################################################

data_YORQED
_chemical_formula_moiety         'C34 H25 Cl1 N2 O3'
_chemical_name_systematic        
'2-(1-(5-oxo-8,13-dihydro-5H-benzo[1,2]indolizino[8,7-b]indol-13b(7H)-yl)prop-1-en-2-yl)phenyl 4-chlorobenzoate'
_symmetry_cell_setting           monoclinic
_symmetry_space_group_name_H-M   'P 21'
_symmetry_Int_Tables_number      4
_space_group_name_Hall           'P 2yb'
loop_
_symmetry_equiv_pos_site_id
_symmetry_equiv_pos_as_xyz
1 x,y,z
2 -x,1/2+y,-z
_cell_length_a                   13.720(3)
_cell_length_b                   7.2534(18)
_cell_length_c                   14.954(4)
_cell_angle_alpha                90
_cell_angle_beta                 90.634(14)
_cell_angle_gamma                90
_cell_volume                     1488.08
_exptl_crystal_colour            colorless
_cell_formula_units_Z            2
loop_
_atom_site_label
_atom_site_type_symbol
_atom_site_fract_x
_atom_site_fract_y
_atom_site_fract_z
Cl1 Cl 0.30107(14) 0.3004(7) 0.62516(17)
N1 N 0.7830(3) 0.6203(7) 0.8334(3)
N2 N 0.6505(3) 0.1963(7) 0.8977(2)
H1 H 0.6878 0.1091 0.9166
O1 O 0.8028(3) 0.9008(8) 0.9029(3)
O2 O 0.7727(3) 0.0942(6) 0.6287(2)
O3 O 0.7802(4) 0.3580(9) 0.5504(3)
C1 C 0.8121(4) 0.7289(11) 0.9020(4)
C2 C 0.8539(4) 0.6114(9) 0.9711(4)
C3 C 0.9006(4) 0.6539(12) 1.0521(4)
H2 H 0.9115 0.7757 1.0688
C4 C 0.9301(5) 0.5107(15) 1.1062(4)
H3 H 0.9621 0.5365 1.1599
C5 C 0.9132(5) 0.3309(13) 1.0828(4)
H4 H 0.9328 0.2370 1.1213
C6 C 0.8671(4) 0.2862(10) 1.0022(3)
H5 H 0.8564 0.1641 0.9859
C7 C 0.8381(3) 0.4277(9) 0.9480(3)
C8 C 0.7859(4) 0.4213(8) 0.8564(3)
C9 C 0.6806(4) 0.3639(8) 0.8630(3)
C10 C 0.5492(4) 0.1943(10) 0.8963(3)
C11 C 0.4846(5) 0.0593(13) 0.9243(4)
H6 H 0.5062 -0.0526 0.9475
C12 C 0.3851(6) 0.1003(17) 0.9159(5)
H7 H 0.3399 0.0129 0.9341
C13 C 0.3521(6) 0.263(2) 0.8820(5)
H8 H 0.2853 0.2845 0.8786
C14 C 0.4150(5) 0.3967(14) 0.8527(4)
H9 H 0.3913 0.5059 0.8283
C15 C 0.5182(4) 0.3648(11) 0.8604(3)
C16 C 0.6021(4) 0.4665(10) 0.8383(3)
C17 C 0.6117(5) 0.6540(11) 0.7955(4)
H10 H 0.5951 0.7492 0.8383
H11 H 0.5673 0.6636 0.7448
C18 C 0.7154(4) 0.6808(10) 0.7647(4)
H12 H 0.7259 0.6107 0.7104
H13 H 0.7265 0.8100 0.7516
C19 C 0.8383(3) 0.2994(8) 0.7910(3)
H14 H 0.8210 0.1756 0.7938
C20 C 0.9053(4) 0.3382(9) 0.7299(3)
C21 C 0.9500(5) 0.5232(12) 0.7125(5)
H15 H 0.9466 0.5971 0.7657
H16 H 0.9150 0.5833 0.6648
H17 H 1.0169 0.5076 0.6960
C22 C 0.9387(4) 0.1813(9) 0.6703(3)
C23 C 1.0368(4) 0.1496(10) 0.6589(3)
H18 H 1.0819 0.2234 0.6889
C24 C 1.0697(5) 0.0099(11) 0.6038(4)
H19 H 1.1362 -0.0113 0.5982
C25 C 1.0048(5) -0.0959(11) 0.5580(4)
H20 H 1.0273 -0.1884 0.5204
C26 C 0.9069(5) -0.0683(10) 0.5662(4)
H21 H 0.8625 -0.1421 0.5353
C27 C 0.8746(4) 0.0732(9) 0.6220(3)
C28 C 0.7340(5) 0.2482(12) 0.5905(4)
C29 C 0.6264(4) 0.2548(11) 0.6024(4)
C30 C 0.5749(5) 0.1383(11) 0.6551(4)
H22 H 0.6078 0.0473 0.6872
C31 C 0.4748(5) 0.1518(14) 0.6620(4)
H23 H 0.4413 0.0688 0.6978
C32 C 0.4260(5) 0.2824(15) 0.6181(5)
C33 C 0.4752(6) 0.4077(18) 0.5680(6)
H24 H 0.4413 0.5009 0.5383
C34 C 0.5778(5) 0.3962(15) 0.5611(5)
H25 H 0.6119 0.4841 0.5287
loop_
_geom_bond_atom_site_label_1
_geom_bond_atom_site_label_2
_geom_bond_site_symmetry_1
_geom_bond_site_symmetry_2
Cl1 C32 1_555 1_555
N1 C1 1_555 1_555
N2 H1 1_555 1_555
O1 C1 1_555 1_555
O2 C27 1_555 1_555
O3 C28 1_555 1_555
C1 C2 1_555 1_555
C2 C3 1_555 1_555
C3 H2 1_555 1_555
C4 C3 1_555 1_555
H3 C4 1_555 1_555
C5 C4 1_555 1_555
H4 C5 1_555 1_555
C6 C5 1_555 1_555
H5 C6 1_555 1_555
C7 C2 1_555 1_555
C8 N1 1_555 1_555
C9 N2 1_555 1_555
C10 N2 1_555 1_555
C11 C10 1_555 1_555
H6 C11 1_555 1_555
C12 C11 1_555 1_555
H7 C12 1_555 1_555
C13 C12 1_555 1_555
H8 C13 1_555 1_555
C14 C13 1_555 1_555
H9 C14 1_555 1_555
C15 C10 1_555 1_555
C16 C9 1_555 1_555
C17 C16 1_555 1_555
H10 C17 1_555 1_555
H11 C17 1_555 1_555
C18 N1 1_555 1_555
H12 C18 1_555 1_555
H13 C18 1_555 1_555
C19 C8 1_555 1_555
H14 C19 1_555 1_555
C20 C19 1_555 1_555
C21 C20 1_555 1_555
H15 C21 1_555 1_555
H16 C21 1_555 1_555
H17 C21 1_555 1_555
C22 C20 1_555 1_555
C23 C22 1_555 1_555
H18 C23 1_555 1_555
C24 C23 1_555 1_555
H19 C24 1_555 1_555
C25 C24 1_555 1_555
H20 C25 1_555 1_555
C26 C25 1_555 1_555
H21 C26 1_555 1_555
C27 C22 1_555 1_555
C28 O2 1_555 1_555
C29 C28 1_555 1_555
C30 C29 1_555 1_555
H22 C30 1_555 1_555
C31 C30 1_555 1_555
H23 C31 1_555 1_555
C32 C31 1_555 1_555
C33 C32 1_555 1_555
H24 C33 1_555 1_555
C34 C29 1_555 1_555
H25 C34 1_555 1_555
C6 C7 1_555 1_555
C7 C8 1_555 1_555
C8 C9 1_555 1_555
C14 C15 1_555 1_555
C15 C16 1_555 1_555
C17 C18 1_555 1_555
C26 C27 1_555 1_555
C33 C34 1_555 1_555

#END
