
#######################################################################
#
#                 Cambridge Crystallographic Data Centre
#                                CCDC 
#
#######################################################################
#
# If this CIF has been generated from an entry in the Cambridge 
# Structural Database, then it will include bibliographic, chemical, 
# crystal, experimental, refinement or atomic coordinate data resulting 
# from the CCDC's data processing and validation procedures.
#
#######################################################################

data_YORRAA
_chemical_formula_moiety         'C24 H20 Br1 N1 O2'
_chemical_name_systematic        
4-((4-bromo-8-oxatetracyclo[7.7.1.0^2,7^.0^10,15^]heptadeca-2,4,6,10(15)-tetraen-16-yl)carbonyl)benzonitrile
_symmetry_cell_setting           orthorhombic
_symmetry_space_group_name_H-M   'P 21 21 21'
_symmetry_Int_Tables_number      19
_space_group_name_Hall           'P 2ac 2ab'
loop_
_symmetry_equiv_pos_site_id
_symmetry_equiv_pos_as_xyz
1 x,y,z
2 1/2-x,-y,1/2+z
3 1/2+x,1/2-y,-z
4 -x,1/2+y,1/2-z
_cell_length_a                   10.7032(12)
_cell_length_b                   14.9947(17)
_cell_length_c                   25.551(3)
_cell_angle_alpha                90
_cell_angle_beta                 90
_cell_angle_gamma                90
_cell_volume                     4100.71
_cell_formula_units_Z            8
loop_
_atom_site_label
_atom_site_type_symbol
_atom_site_fract_x
_atom_site_fract_y
_atom_site_fract_z
Br1 Br 0.63377(6) 0.79412(4) 0.11457(2)
C1 C 0.1490(6) 0.8567(5) 0.4016(2)
C2 C 0.1188(5) 0.8729(3) 0.34733(17)
C3 C -0.0046(5) 0.8826(3) 0.33256(18)
H1 H -0.0683 0.8764 0.3571
C4 C 0.2116(5) 0.8796(5) 0.3107(2)
H2 H 0.2947 0.8730 0.3206
C5 C -0.0321(4) 0.9014(3) 0.28127(17)
H3 H -0.1149 0.9091 0.2713
C6 C 0.1819(4) 0.8962(4) 0.25940(18)
H4 H 0.2452 0.8987 0.2345
C7 C 0.0608(4) 0.9089(3) 0.24438(16)
C8 C 0.0240(4) 0.9370(3) 0.18989(17)
C9 C 0.1217(4) 0.9398(2) 0.14667(14)
H5 H 0.2019 0.9559 0.1626
C10 C 0.0910(3) 1.0097(3) 0.10566(16)
C11 C 0.1090(6) 1.1048(3) 0.1222(2)
H6 H 0.1835 1.1092 0.1437
H7 H 0.0383 1.1234 0.1433
C12 C 0.1216(7) 1.1670(4) 0.0754(2)
H8 H 0.0984 1.2263 0.0870
H9 H 0.2094 1.1692 0.0661
C13 C 0.0552(7) 1.1496(4) 0.0300(2)
H10 H 0.0961 1.1809 0.0015
H11 H -0.0274 1.1754 0.0338
C14 C 0.0398(5) 1.0560(3) 0.01422(18)
H12 H 0.0994 1.0431 -0.0134
H13 H -0.0432 1.0488 -0.0004
C15 C 0.0567(4) 0.9881(3) 0.05694(18)
C16 C 0.0371(5) 0.8928(3) 0.04060(19)
H14 H -0.0390 0.8894 0.0194
C17 C 0.0235(5) 0.8298(3) 0.08695(19)
H15 H -0.0533 0.8421 0.1057
H16 H 0.0221 0.7684 0.0752
C18 C 0.1358(4) 0.8461(3) 0.12202(15)
H17 H 0.1379 0.8011 0.1498
C19 C 0.2538(5) 0.8403(3) 0.08995(17)
C20 C 0.2479(5) 0.8483(3) 0.03577(18)
C21 C 0.3569(7) 0.8414(3) 0.00618(18)
H18 H 0.3527 0.8488 -0.0299
C22 C 0.3701(4) 0.8229(2) 0.11222(16)
H19 H 0.3757 0.8155 0.1483
C23 C 0.4700(6) 0.8239(4) 0.0290(2)
H20 H 0.5413 0.8173 0.0086
C24 C 0.4766(5) 0.8163(3) 0.08251(19)
N1 N 0.1767(6) 0.8457(5) 0.4443(2)
O1 O -0.0843(3) 0.9559(3) 0.18168(12)
O2 O 0.1427(4) 0.8650(2) 0.00847(11)
Br2 Br 0.37273(6) -0.16401(4) 0.77384(3)
C25 C 0.8500(5) -0.0994(3) 0.4903(2)
C26 C 0.8830(5) -0.0799(3) 0.54387(16)
C27 C 0.7889(5) -0.0732(4) 0.58063(19)
H21 H 0.7063 -0.0832 0.5710
C28 C 1.0040(4) -0.0668(3) 0.55828(18)
H22 H 1.0675 -0.0730 0.5337
C29 C 0.8183(4) -0.0516(4) 0.63197(18)
H23 H 0.7547 -0.0471 0.6567
C30 C 1.0330(4) -0.0445(3) 0.60919(18)
H24 H 1.1159 -0.0346 0.6184
C31 C 0.9404(4) -0.0366(3) 0.64693(16)
C32 C 0.9758(4) -0.0063(3) 0.70018(16)
C33 C 0.8778(4) -0.0027(2) 0.74376(14)
H25 H 0.7971 0.0119 0.7278
C34 C 0.9076(3) 0.0684(3) 0.78388(16)
C35 C 0.9427(4) 0.0504(3) 0.83255(17)
C36 C 0.8887(4) 0.1635(3) 0.76539(16)
H26 H 0.9554 0.1791 0.7414
H27 H 0.8105 0.1672 0.7463
C37 C 0.9582(5) 0.1203(3) 0.87426(16)
H28 H 0.8989 0.1085 0.9021
H29 H 1.0415 0.1151 0.8890
C38 C 0.8866(9) 0.2294(3) 0.8088(2)
H30 H 0.9247 0.2836 0.7956
H31 H 0.7995 0.2432 0.8156
C39 C 0.9401(8) 0.2123(4) 0.8557(2)
H32 H 0.8907 0.2429 0.8820
H33 H 1.0216 0.2405 0.8554
C40 C 0.9614(4) -0.0444(3) 0.85047(19)
H34 H 1.0363 -0.0467 0.8725
C41 C 0.9777(5) -0.1104(3) 0.80552(19)
H35 H 1.0554 -0.0993 0.7871
H36 H 0.9784 -0.1712 0.8185
C42 C 0.8664(5) -0.0955(2) 0.76940(17)
H37 H 0.8668 -0.1413 0.7420
C43 C 0.7482(5) -0.1035(3) 0.80070(18)
C44 C 0.7482(5) -0.0892(3) 0.85435(19)
C45 C 0.6377(6) -0.0950(3) 0.88275(19)
H38 H 0.6389 -0.0842 0.9186
C46 C 0.5276(5) -0.1165(3) 0.8589(2)
H39 H 0.4545 -0.1207 0.8784
C47 C 0.6342(5) -0.1258(3) 0.77777(18)
H40 H 0.6317 -0.1370 0.7420
C48 C 0.5250(5) -0.1317(3) 0.8062(2)
N2 N 0.8258(4) -0.1115(3) 0.44814(18)
O3 O 1.0832(3) 0.0126(3) 0.70941(12)
O4 O 0.8543(4) -0.07108(19) 0.88199(12)
loop_
_geom_bond_atom_site_label_1
_geom_bond_atom_site_label_2
_geom_bond_site_symmetry_1
_geom_bond_site_symmetry_2
Br1 C24 1_555 1_555
C1 C2 1_555 1_555
C2 C3 1_555 1_555
C3 H1 1_555 1_555
C4 C2 1_555 1_555
H2 C4 1_555 1_555
C5 C3 1_555 1_555
H3 C5 1_555 1_555
C6 C4 1_555 1_555
H4 C6 1_555 1_555
C7 C5 1_555 1_555
C8 C7 1_555 1_555
C9 C8 1_555 1_555
H5 C9 1_555 1_555
C10 C9 1_555 1_555
C11 C10 1_555 1_555
H6 C11 1_555 1_555
H7 C11 1_555 1_555
C12 C11 1_555 1_555
H8 C12 1_555 1_555
H9 C12 1_555 1_555
C13 C12 1_555 1_555
H10 C13 1_555 1_555
H11 C13 1_555 1_555
C14 C13 1_555 1_555
H12 C14 1_555 1_555
H13 C14 1_555 1_555
C15 C10 1_555 1_555
C16 C15 1_555 1_555
H14 C16 1_555 1_555
C17 C16 1_555 1_555
H15 C17 1_555 1_555
H16 C17 1_555 1_555
C18 C9 1_555 1_555
H17 C18 1_555 1_555
C19 C18 1_555 1_555
C20 C19 1_555 1_555
C21 C20 1_555 1_555
H18 C21 1_555 1_555
C22 C19 1_555 1_555
H19 C22 1_555 1_555
C23 C21 1_555 1_555
H20 C23 1_555 1_555
C24 C22 1_555 1_555
N1 C1 1_555 1_555
O1 C8 1_555 1_555
O2 C16 1_555 1_555
Br2 C48 1_555 1_555
C25 C26 1_555 1_555
C26 C27 1_555 1_555
C27 H21 1_555 1_555
C28 C26 1_555 1_555
H22 C28 1_555 1_555
C29 C27 1_555 1_555
H23 C29 1_555 1_555
C30 C28 1_555 1_555
H24 C30 1_555 1_555
C31 C29 1_555 1_555
C32 C31 1_555 1_555
C33 C32 1_555 1_555
H25 C33 1_555 1_555
C34 C33 1_555 1_555
C35 C34 1_555 1_555
C36 C34 1_555 1_555
H26 C36 1_555 1_555
H27 C36 1_555 1_555
C37 C35 1_555 1_555
H28 C37 1_555 1_555
H29 C37 1_555 1_555
C38 C36 1_555 1_555
H30 C38 1_555 1_555
H31 C38 1_555 1_555
C39 C37 1_555 1_555
H32 C39 1_555 1_555
H33 C39 1_555 1_555
C40 C35 1_555 1_555
H34 C40 1_555 1_555
C41 C40 1_555 1_555
H35 C41 1_555 1_555
H36 C41 1_555 1_555
C42 C33 1_555 1_555
H37 C42 1_555 1_555
C43 C42 1_555 1_555
C44 C43 1_555 1_555
C45 C44 1_555 1_555
H38 C45 1_555 1_555
C46 C45 1_555 1_555
H39 C46 1_555 1_555
C47 C43 1_555 1_555
H40 C47 1_555 1_555
C48 C46 1_555 1_555
N2 C25 1_555 1_555
O3 C32 1_555 1_555
O4 C40 1_555 1_555
C6 C7 1_555 1_555
C14 C15 1_555 1_555
C17 C18 1_555 1_555
C20 O2 1_555 1_555
C23 C24 1_555 1_555
C30 C31 1_555 1_555
C38 C39 1_555 1_555
C41 C42 1_555 1_555
C44 O4 1_555 1_555
C47 C48 1_555 1_555

#END
