
#######################################################################
#
#                 Cambridge Crystallographic Data Centre
#                                CCDC 
#
#######################################################################
#
# If this CIF has been generated from an entry in the Cambridge 
# Structural Database, then it will include bibliographic, chemical, 
# crystal, experimental, refinement or atomic coordinate data resulting 
# from the CCDC's data processing and validation procedures.
#
#######################################################################

data_YORROM01
_chemical_formula_moiety         'C16 H16 N2 O4'
_chemical_name_systematic        
2-([2-(2-Hydroxy-3-methoxybenzylidene)hydrazin-1-ylidene]methyl)-6-methoxyphenol
_symmetry_cell_setting           monoclinic
_symmetry_space_group_name_H-M   'P 21/c'
_symmetry_Int_Tables_number      14
_space_group_name_Hall           '-P 2ybc'
loop_
_symmetry_equiv_pos_site_id
_symmetry_equiv_pos_as_xyz
1 x,y,z
2 -x,1/2+y,1/2-z
3 -x,-y,-z
4 x,1/2-y,1/2+z
_cell_length_a                   6.3095(14)
_cell_length_b                   17.405(4)
_cell_length_c                   13.606(3)
_cell_angle_alpha                90
_cell_angle_beta                 95.590(4)
_cell_angle_gamma                90
_cell_volume                     1487.06
_exptl_crystal_colour            yellow
_exptl_crystal_description       block
_cell_formula_units_Z            4
_exptl_crystal_recrystallization_method 'absolute ethanol'
loop_
_atom_site_label
_atom_site_type_symbol
_atom_site_fract_x
_atom_site_fract_y
_atom_site_fract_z
O1 O 1.1229(5) 0.30718(16) 0.11097(19)
O2 O 0.3751(4) 0.44682(15) 0.36771(19)
N1 N 0.6605(5) 0.39741(18) 0.2529(2)
N2 N 0.8399(5) 0.35841(17) 0.2254(2)
C1 C 1.1395(6) 0.28216(19) 0.2861(3)
O3 O 1.4697(4) 0.23030(15) 0.09342(18)
C2 C 1.4056(6) 0.2325(2) 0.1861(3)
O4 O 0.0317(4) 0.52385(14) 0.38754(18)
C3 C 0.0966(6) 0.5236(2) 0.2954(3)
C4 C 1.2189(6) 0.27497(19) 0.1943(3)
C5 C 0.2831(6) 0.4809(2) 0.2850(3)
C6 C -0.0034(6) 0.5612(2) 0.2144(3)
H1 H -0.1247 0.5904 0.2210
C7 C 0.3625(6) 0.4756(2) 0.1936(3)
C8 C 0.9494(6) 0.3256(2) 0.2985(3)
H2 H 0.9043 0.3300 0.3613
C9 C 0.2542(7) 0.5129(2) 0.1132(3)
H3 H 0.3043 0.5086 0.0514
C10 C 1.2488(6) 0.2463(2) 0.3685(3)
H4 H 1.1981 0.2512 0.4301
C11 C 1.5070(6) 0.1973(2) 0.2683(3)
H5 H 1.6292 0.1684 0.2627
C12 C 0.5516(6) 0.4314(2) 0.1809(3)
H6 H 0.5963 0.4273 0.1179
C13 C 1.4279(7) 0.2047(2) 0.3592(3)
H7 H 1.4980 0.1810 0.4144
C14 C -0.1522(6) 0.5682(2) 0.4042(3)
H8 H -0.1799 0.5635 0.4721
H9 H -0.2728 0.5497 0.3624
H10 H -0.1274 0.6211 0.3893
C15 C 0.0759(7) 0.5556(2) 0.1232(3)
H11 H 0.0079 0.5810 0.0688
C16 C 1.6443(6) 0.1816(2) 0.0767(3)
H12 H 1.6730 0.1854 0.0089
H13 H 1.6095 0.1294 0.0914
H14 H 1.7680 0.1972 0.1186
H15 H 0.490(8) 0.421(3) 0.349(4)
H16 H 1.007(7) 0.328(2) 0.131(3)
loop_
_geom_bond_atom_site_label_1
_geom_bond_atom_site_label_2
_geom_bond_site_symmetry_1
_geom_bond_site_symmetry_2
O1 C4 1_555 1_555
O2 C5 1_555 1_555
N1 N2 1_555 1_555
N2 C8 1_555 1_555
C1 C4 1_555 1_555
O3 C2 1_555 1_555
C2 C4 1_555 1_555
O4 C3 1_555 1_555
C3 C5 1_555 1_555
C5 C7 1_555 1_555
C6 C3 1_555 1_555
H1 C6 1_555 1_555
C7 C9 1_555 1_555
C8 C1 1_555 1_555
H2 C8 1_555 1_555
C9 H3 1_555 1_555
C10 C1 1_555 1_555
H4 C10 1_555 1_555
C11 C2 1_555 1_555
H5 C11 1_555 1_555
C12 N1 1_555 1_555
H6 C12 1_555 1_555
C13 C10 1_555 1_555
H7 C13 1_555 1_555
C14 O4 1_555 1_555
H8 C14 1_555 1_555
H9 C14 1_555 1_555
H10 C14 1_555 1_555
C15 C6 1_555 1_555
H11 C15 1_555 1_555
C16 O3 1_555 1_555
H12 C16 1_555 1_555
H13 C16 1_555 1_555
H14 C16 1_555 1_555
H15 O2 1_555 1_555
H16 O1 1_555 1_555
C7 C12 1_555 1_555
C9 C15 1_555 1_555
C11 C13 1_555 1_555

#END
