
#######################################################################
#
#                 Cambridge Crystallographic Data Centre
#                                CCDC 
#
#######################################################################
#
# If this CIF has been generated from an entry in the Cambridge 
# Structural Database, then it will include bibliographic, chemical, 
# crystal, experimental, refinement or atomic coordinate data resulting 
# from the CCDC's data processing and validation procedures.
#
#######################################################################

data_YORWOT
_chemical_formula_moiety         'C23 H20 B1 F2 N3 S1'
_chemical_name_systematic        
4-(1,1-Difluoro-2-phenyl-1,2-dihydro-10\l^5^,1\l^5^-[1,3,2]diazaborinino[6,1-b][1,3]benzothiazol-3-yl)-N,N-dimethylaniline
_symmetry_cell_setting           monoclinic
_symmetry_space_group_name_H-M   'P 21/c'
_symmetry_Int_Tables_number      14
_space_group_name_Hall           '-P 2ybc'
loop_
_symmetry_equiv_pos_site_id
_symmetry_equiv_pos_as_xyz
1 x,y,z
2 -x,1/2+y,1/2-z
3 -x,-y,-z
4 x,1/2-y,1/2+z
_cell_length_a                   12.1191(13)
_cell_length_b                   14.1236(14)
_cell_length_c                   11.9134(11)
_cell_angle_alpha                90
_cell_angle_beta                 100.907(2)
_cell_angle_gamma                90
_cell_volume                     2002.32
_cell_formula_units_Z            4
loop_
_atom_site_label
_atom_site_type_symbol
_atom_site_fract_x
_atom_site_fract_y
_atom_site_fract_z
B1 B 0.7825(3) 0.1022(3) 0.9604(3)
F1 F 0.84151(19) 0.1811(2) 0.93925(16)
F2 F 0.83828(18) 0.02193(19) 0.93867(15)
N1 N 0.77455(19) 0.10267(16) 1.08795(17)
N2 N 0.66395(19) 0.10207(16) 0.88825(17)
N3 N 0.1462(2) 0.20582(19) 0.6527(2)
S1 S 0.69343(7) 0.12544(6) 1.26955(6)
C1 C 0.9755(2) 0.0683(2) 1.1706(2)
H1 H 0.9953 0.0587 1.0998
C2 C 1.0543(3) 0.0616(2) 1.2682(2)
H2 H 1.1285 0.0484 1.2635
C3 C 1.0256(3) 0.0741(2) 1.3739(3)
H3 H 1.0806 0.0691 1.4396
C4 C 0.9166(3) 0.0939(2) 1.3831(2)
H4 H 0.8972 0.1020 1.4544
C5 C 0.8364(3) 0.1014(2) 1.2842(2)
C6 C 0.8657(2) 0.08972(19) 1.1777(2)
C7 C 0.6785(2) 0.1226(2) 1.1221(2)
C8 C 0.5786(2) 0.1381(2) 1.0458(2)
H5 H 0.5155 0.1574 1.0736
C9 C 0.5707(2) 0.12563(19) 0.9291(2)
C10 C 0.4618(2) 0.14132(19) 0.8539(2)
C11 C 0.3620(2) 0.1160(2) 0.8872(2)
H6 H 0.3655 0.0847 0.9564
C12 C 0.2587(2) 0.1355(2) 0.8220(2)
H7 H 0.1943 0.1163 0.8475
C13 C 0.2480(2) 0.1839(2) 0.7177(2)
C14 C 0.3494(3) 0.2088(2) 0.6838(2)
H8 H 0.3469 0.2405 0.6150
C15 C 0.4508(2) 0.1875(2) 0.7493(2)
H9 H 0.5156 0.2045 0.7231
C16 C 0.0439(2) 0.1861(2) 0.6940(3)
H10 H 0.0458 0.2181 0.7654
H11 H 0.0375 0.1191 0.7049
H12 H -0.0194 0.2079 0.6391
C17 C 0.1406(3) 0.2638(2) 0.5524(3)
H13 H 0.1793 0.2328 0.4995
H14 H 0.1754 0.3239 0.5738
H15 H 0.0634 0.2735 0.5171
C18 C 0.6569(2) 0.0668(2) 0.7740(2)
C19 C 0.6057(3) -0.0179(3) 0.7419(3)
H16 H 0.5722 -0.0520 0.7932
C20 C 0.6037(3) -0.0527(3) 0.6334(3)
H17 H 0.5694 -0.1106 0.6123
C21 C 0.6519(3) -0.0030(3) 0.5565(3)
H18 H 0.6496 -0.0265 0.4832
C22 C 0.7029(3) 0.0809(3) 0.5883(3)
H19 H 0.7349 0.1152 0.5359
C23 C 0.7080(3) 0.1161(2) 0.6974(2)
H20 H 0.7455 0.1725 0.7192
loop_
_geom_bond_atom_site_label_1
_geom_bond_atom_site_label_2
_geom_bond_site_symmetry_1
_geom_bond_site_symmetry_2
B1 F1 1_555 1_555
F2 B1 1_555 1_555
N1 B1 1_555 1_555
N2 B1 1_555 1_555
N3 C13 1_555 1_555
S1 C5 1_555 1_555
C1 H1 1_555 1_555
C2 C1 1_555 1_555
H2 C2 1_555 1_555
C3 C2 1_555 1_555
H3 C3 1_555 1_555
C4 C3 1_555 1_555
H4 C4 1_555 1_555
C5 C4 1_555 1_555
C6 N1 1_555 1_555
C7 N1 1_555 1_555
C8 C7 1_555 1_555
H5 C8 1_555 1_555
C9 N2 1_555 1_555
C10 C9 1_555 1_555
C11 C10 1_555 1_555
H6 C11 1_555 1_555
C12 C11 1_555 1_555
H7 C12 1_555 1_555
C13 C12 1_555 1_555
C14 C13 1_555 1_555
H8 C14 1_555 1_555
C15 C10 1_555 1_555
H9 C15 1_555 1_555
C16 N3 1_555 1_555
H10 C16 1_555 1_555
H11 C16 1_555 1_555
H12 C16 1_555 1_555
C17 N3 1_555 1_555
H13 C17 1_555 1_555
H14 C17 1_555 1_555
H15 C17 1_555 1_555
C18 N2 1_555 1_555
C19 C18 1_555 1_555
H16 C19 1_555 1_555
C20 C19 1_555 1_555
H17 C20 1_555 1_555
C21 C20 1_555 1_555
H18 C21 1_555 1_555
C22 C21 1_555 1_555
H19 C22 1_555 1_555
C23 C18 1_555 1_555
H20 C23 1_555 1_555
S1 C7 1_555 1_555
C1 C6 1_555 1_555
C5 C6 1_555 1_555
C8 C9 1_555 1_555
C14 C15 1_555 1_555
C22 C23 1_555 1_555

#END
