
#######################################################################
#
#                 Cambridge Crystallographic Data Centre
#                                CCDC 
#
#######################################################################
#
# If this CIF has been generated from an entry in the Cambridge 
# Structural Database, then it will include bibliographic, chemical, 
# crystal, experimental, refinement or atomic coordinate data resulting 
# from the CCDC's data processing and validation procedures.
#
#######################################################################

data_YORWEJ
_chemical_formula_moiety         'C25 H25 B1 F2 N4 S1'
_chemical_name_systematic        
4,4'-(1,1-Difluoro-1H-2\l^5^,1\l^5^-[1,3,2]diazaborinino[6,1-b][1,3]benzothiazole-2,3-diyl)bis(N,N-dimethylaniline)
_symmetry_cell_setting           monoclinic
_symmetry_space_group_name_H-M   'C 2/c'
_symmetry_Int_Tables_number      15
_space_group_name_Hall           '-C 2yn'
loop_
_symmetry_equiv_pos_site_id
_symmetry_equiv_pos_as_xyz
1 x,y,z
2 -x,y,1/2-z
3 1/2+x,1/2+y,z
4 1/2-x,1/2+y,1/2-z
5 -x,-y,-z
6 x,-y,1/2+z
7 1/2-x,1/2-y,-z
8 1/2+x,1/2-y,1/2+z
_cell_length_a                   20.6963(13)
_cell_length_b                   8.5511(6)
_cell_length_c                   27.318(2)
_cell_angle_alpha                90
_cell_angle_beta                 106.475(7)
_cell_angle_gamma                90
_cell_volume                     4636.14
_exptl_crystal_colour            yellow
_exptl_crystal_description       block
_cell_formula_units_Z            8
loop_
_atom_site_label
_atom_site_type_symbol
_atom_site_fract_x
_atom_site_fract_y
_atom_site_fract_z
S1 S 0.39338(4) 1.04402(11) 0.42936(3)
B1 B 0.41307(16) 0.6714(4) 0.34161(12)
F1 F 0.41522(8) 0.7065(2) 0.29246(6)
F2 F 0.36566(8) 0.5549(2) 0.33898(6)
N1 N 0.39167(10) 0.8206(3) 0.36592(8)
N2 N 0.48250(10) 0.6188(3) 0.37538(8)
C1 C 0.32634(15) 1.0359(4) 0.37405(12)
C2 C 0.27174(17) 1.1368(4) 0.35917(14)
H1 H 0.2675 1.2223 0.3791
C3 C 0.22441(17) 1.1052(5) 0.31395(16)
H2 H 0.1872 1.1708 0.3030
C4 C 0.23024(15) 0.9791(5) 0.28418(13)
H3 H 0.1973 0.9623 0.2535
C5 C 0.28442(14) 0.8762(4) 0.29907(11)
H4 H 0.2879 0.7898 0.2793
C6 C 0.33303(13) 0.9082(4) 0.34463(11)
C7 C 0.42829(14) 0.8770(4) 0.41109(11)
C8 C 0.48798(14) 0.8103(4) 0.43895(11)
H5 H 0.5109 0.8525 0.4705
C9 C 0.51440(13) 0.6808(4) 0.42067(10)
C10 C 0.57923(13) 0.6172(4) 0.45315(10)
C11 C 0.58544(14) 0.5797(4) 0.50371(11)
H6 H 0.5485 0.5944 0.5162
C12 C 0.64378(15) 0.5219(4) 0.53599(11)
H7 H 0.6452 0.4968 0.5694
C13 C 0.70133(15) 0.5001(4) 0.51953(12)
C14 C 0.69581(15) 0.5434(4) 0.46892(12)
H8 H 0.7334 0.5351 0.4568
C15 C 0.63635(14) 0.5978(4) 0.43672(12)
H9 H 0.6344 0.6223 0.4031
N3 N 0.75957(13) 0.4390(4) 0.55095(11)
C16 C 0.76057(18) 0.3718(6) 0.59885(14)
H10 H 0.7510 0.4511 0.6207
H11 H 0.8042 0.3279 0.6145
H12 H 0.7271 0.2909 0.5937
C17 C 0.81889(16) 0.4257(6) 0.53362(15)
H13 H 0.8098 0.3572 0.5046
H14 H 0.8552 0.3838 0.5606
H15 H 0.8312 0.5271 0.5241
C18 C 0.50858(13) 0.4793(3) 0.35755(10)
C19 C 0.49969(14) 0.3344(4) 0.37639(11)
H16 H 0.4771 0.3263 0.4013
C20 C 0.52355(15) 0.2007(4) 0.35917(12)
H17 H 0.5172 0.1043 0.3728
C21 C 0.55716(14) 0.2082(4) 0.32139(12)
C22 C 0.56502(14) 0.3554(4) 0.30254(12)
H18 H 0.5875 0.3651 0.2776
C23 C 0.54037(14) 0.4878(4) 0.31986(11)
H19 H 0.5454 0.5845 0.3058
N4 N 0.58061(14) 0.0757(3) 0.30354(12)
C24 C 0.5673(2) -0.0762(4) 0.31963(16)
H20 H 0.5937 -0.0928 0.3543
H21 H 0.5788 -0.1533 0.2980
H22 H 0.5203 -0.0848 0.3175
C25 C 0.61685(17) 0.0865(4) 0.26559(14)
H23 H 0.5888 0.1355 0.2354
H24 H 0.6290 -0.0165 0.2573
H25 H 0.6569 0.1478 0.2788
loop_
_geom_bond_atom_site_label_1
_geom_bond_atom_site_label_2
_geom_bond_site_symmetry_1
_geom_bond_site_symmetry_2
S1 C1 1_555 1_555
B1 F1 1_555 1_555
F2 B1 1_555 1_555
N1 B1 1_555 1_555
N2 B1 1_555 1_555
C1 C2 1_555 1_555
C2 H1 1_555 1_555
C3 C2 1_555 1_555
H2 C3 1_555 1_555
C4 C3 1_555 1_555
H3 C4 1_555 1_555
C5 C4 1_555 1_555
H4 C5 1_555 1_555
C6 N1 1_555 1_555
C7 S1 1_555 1_555
C8 C7 1_555 1_555
H5 C8 1_555 1_555
C9 N2 1_555 1_555
C10 C9 1_555 1_555
C11 C10 1_555 1_555
H6 C11 1_555 1_555
C12 C11 1_555 1_555
H7 C12 1_555 1_555
C13 C12 1_555 1_555
C14 C13 1_555 1_555
H8 C14 1_555 1_555
C15 C10 1_555 1_555
H9 C15 1_555 1_555
N3 C13 1_555 1_555
C16 N3 1_555 1_555
H10 C16 1_555 1_555
H11 C16 1_555 1_555
H12 C16 1_555 1_555
C17 N3 1_555 1_555
H13 C17 1_555 1_555
H14 C17 1_555 1_555
H15 C17 1_555 1_555
C18 N2 1_555 1_555
C19 C18 1_555 1_555
H16 C19 1_555 1_555
C20 C19 1_555 1_555
H17 C20 1_555 1_555
C21 C20 1_555 1_555
C22 C21 1_555 1_555
H18 C22 1_555 1_555
C23 C18 1_555 1_555
H19 C23 1_555 1_555
N4 C21 1_555 1_555
C24 N4 1_555 1_555
H20 C24 1_555 1_555
H21 C24 1_555 1_555
H22 C24 1_555 1_555
C25 N4 1_555 1_555
H23 C25 1_555 1_555
H24 C25 1_555 1_555
H25 C25 1_555 1_555
N1 C7 1_555 1_555
C1 C6 1_555 1_555
C5 C6 1_555 1_555
C8 C9 1_555 1_555
C14 C15 1_555 1_555
C22 C23 1_555 1_555

#END
