
#######################################################################
#
#                 Cambridge Crystallographic Data Centre
#                                CCDC 
#
#######################################################################
#
# If this CIF has been generated from an entry in the Cambridge 
# Structural Database, then it will include bibliographic, chemical, 
# crystal, experimental, refinement or atomic coordinate data resulting 
# from the CCDC's data processing and validation procedures.
#
#######################################################################

data_YORXEK
_chemical_formula_moiety         'C21 H15 B1 F2 N2 S1'
_chemical_name_systematic        
1,1-Difluoro-2,3-diphenyl-1,2-dihydro-10\l^5^,1\l^5^-[1,3,2]diazaborinino[6,1-b][1,3]benzothiazole
_symmetry_cell_setting           triclinic
_symmetry_space_group_name_H-M   'P -1'
_symmetry_Int_Tables_number      2
_space_group_name_Hall           '-P 1'
loop_
_symmetry_equiv_pos_site_id
_symmetry_equiv_pos_as_xyz
1 x,y,z
2 -x,-y,-z
_cell_length_a                   9.1766(9)
_cell_length_b                   9.2490(10)
_cell_length_c                   11.8304(13)
_cell_angle_alpha                109.989(10)
_cell_angle_beta                 96.898(9)
_cell_angle_gamma                99.154(9)
_cell_volume                     914.969
_exptl_crystal_colour            yellow
_exptl_crystal_description       block
_cell_formula_units_Z            2
loop_
_atom_site_label
_atom_site_type_symbol
_atom_site_fract_x
_atom_site_fract_y
_atom_site_fract_z
S1 S 0.54940(7) 0.31372(7) 1.07304(6)
B1 B 0.1108(3) 0.2251(3) 0.9127(3)
F1 F 0.09264(16) 0.31602(15) 0.84128(13)
F2 F 0.00100(15) 0.23792(17) 0.98416(13)
N1 N 0.2686(2) 0.2894(2) 0.99548(17)
N2 N 0.09919(19) 0.0533(2) 0.83115(16)
C1 C 0.4674(3) 0.4712(3) 1.1416(2)
C2 C 0.5354(3) 0.6142(3) 1.2340(2)
H1 H 0.6365 0.6359 1.2690
C3 C 0.4476(3) 0.7234(3) 1.2721(2)
H2 H 0.4904 0.8209 1.3333
C4 C 0.2962(3) 0.6898(3) 1.2204(2)
H3 H 0.2395 0.7651 1.2486
C5 C 0.2281(3) 0.5484(3) 1.1288(2)
H4 H 0.1268 0.5271 1.0944
C6 C 0.3159(3) 0.4378(3) 1.0891(2)
C7 C 0.3799(2) 0.2098(3) 0.9766(2)
C8 C 0.3572(2) 0.0588(3) 0.8892(2)
H5 H 0.4375 0.0088 0.8781
C9 C 0.2164(3) -0.0181(3) 0.8185(2)
C10 C 0.1967(2) -0.1815(3) 0.7310(2)
C11 C 0.2680(3) -0.2124(3) 0.6317(3)
H6 H 0.3249 -0.1293 0.6181
C12 C 0.2561(3) -0.3648(4) 0.5523(3)
H7 H 0.3031 -0.3837 0.4849
C13 C 0.1756(3) -0.4881(3) 0.5725(3)
H8 H 0.1678 -0.5908 0.5191
C14 C 0.1062(3) -0.4597(3) 0.6718(3)
H9 H 0.0523 -0.5437 0.6862
C15 C 0.1156(3) -0.3085(3) 0.7503(2)
H10 H 0.0672 -0.2907 0.8170
C16 C -0.0459(2) -0.0241(2) 0.7518(2)
C17 C -0.0721(3) -0.0197(3) 0.6375(2)
H11 H 0.0043 0.0291 0.6094
C18 C -0.2123(3) -0.0878(3) 0.5628(2)
H12 H -0.2293 -0.0854 0.4845
C19 C -0.3250(3) -0.1580(3) 0.6035(3)
H13 H -0.4186 -0.2049 0.5529
C20 C -0.3001(3) -0.1592(3) 0.7194(3)
H14 H -0.3773 -0.2062 0.7478
C21 C -0.1603(3) -0.0909(3) 0.7947(3)
H15 H -0.1442 -0.0903 0.8739
loop_
_geom_bond_atom_site_label_1
_geom_bond_atom_site_label_2
_geom_bond_site_symmetry_1
_geom_bond_site_symmetry_2
S1 C1 1_555 1_555
B1 F1 1_555 1_555
F2 B1 1_555 1_555
N1 B1 1_555 1_555
N2 B1 1_555 1_555
C1 C2 1_555 1_555
C2 H1 1_555 1_555
C3 C2 1_555 1_555
H2 C3 1_555 1_555
C4 C3 1_555 1_555
H3 C4 1_555 1_555
C5 C4 1_555 1_555
H4 C5 1_555 1_555
C6 N1 1_555 1_555
C7 S1 1_555 1_555
C8 C7 1_555 1_555
H5 C8 1_555 1_555
C9 N2 1_555 1_555
C10 C9 1_555 1_555
C11 C10 1_555 1_555
H6 C11 1_555 1_555
C12 C11 1_555 1_555
H7 C12 1_555 1_555
C13 C12 1_555 1_555
H8 C13 1_555 1_555
C14 C13 1_555 1_555
H9 C14 1_555 1_555
C15 C10 1_555 1_555
H10 C15 1_555 1_555
C16 N2 1_555 1_555
C17 C16 1_555 1_555
H11 C17 1_555 1_555
C18 C17 1_555 1_555
H12 C18 1_555 1_555
C19 C18 1_555 1_555
H13 C19 1_555 1_555
C20 C19 1_555 1_555
H14 C20 1_555 1_555
C21 C16 1_555 1_555
H15 C21 1_555 1_555
N1 C7 1_555 1_555
C1 C6 1_555 1_555
C5 C6 1_555 1_555
C8 C9 1_555 1_555
C14 C15 1_555 1_555
C20 C21 1_555 1_555

#END
