
#######################################################################
#
#                 Cambridge Crystallographic Data Centre
#                                CCDC 
#
#######################################################################
#
# If this CIF has been generated from an entry in the Cambridge 
# Structural Database, then it will include bibliographic, chemical, 
# crystal, experimental, refinement or atomic coordinate data resulting 
# from the CCDC's data processing and validation procedures.
#
#######################################################################

data_YORYAH01
_chemical_formula_moiety         'C28 H21 N1 O1'
_chemical_name_systematic        
2-(4'-Methoxybiphenyl-4-yl)-3,3-diphenylacrylonitrile
_symmetry_cell_setting           triclinic
_symmetry_space_group_name_H-M   'P -1'
_symmetry_Int_Tables_number      2
_space_group_name_Hall           '-P 1'
loop_
_symmetry_equiv_pos_site_id
_symmetry_equiv_pos_as_xyz
1 x,y,z
2 -x,-y,-z
_cell_length_a                   10.0340(3)
_cell_length_b                   10.1300(3)
_cell_length_c                   23.5530(6)
_cell_angle_alpha                77.824(2)
_cell_angle_beta                 84.358(2)
_cell_angle_gamma                65.810(3)
_cell_volume                     2134.5
_exptl_crystal_colour            colorless
_exptl_crystal_description       needle-like
_cell_formula_units_Z            4
loop_
_atom_site_label
_atom_site_type_symbol
_atom_site_fract_x
_atom_site_fract_y
_atom_site_fract_z
N1 N 0.11946(16) 0.05691(15) 0.21341(6)
C1 C 0.15696(16) 0.14919(15) 0.21371(6)
C2 C 0.23746(15) 0.34255(14) 0.17071(6)
C3 C 0.30094(17) 0.31397(17) 0.30340(7)
H1 H 0.3691 0.3378 0.2786
C4 C 0.25959(16) 0.47839(15) 0.17243(6)
C5 C 0.30472(17) 0.31016(18) 0.36205(7)
H2 H 0.3764 0.3304 0.3761
C6 C 0.19654(16) 0.28264(14) 0.28066(6)
O1 O 0.22929(18) 0.2579(2) 0.64067(6)
C7 C 0.09652(17) 0.25128(18) 0.37765(7)
H3 H 0.0252 0.2324 0.4021
C8 C 0.09343(17) 0.25342(18) 0.31914(7)
H4 H 0.0207 0.2349 0.3050
C9 C 0.15021(18) 0.59379(17) 0.19453(7)
H5 H 0.0639 0.5854 0.2091
C10 C 0.38654(17) 0.49358(16) 0.15040(7)
H6 H 0.4590 0.4184 0.1344
C11 C 0.20401(16) 0.27677(16) 0.40095(6)
C12 C 0.33190(17) 0.15344(18) 0.10630(7)
H7 H 0.3694 0.0796 0.1386
C13 C 0.08334(18) 0.3111(2) 0.49737(7)
H8 H -0.0059 0.3428 0.4795
C14 C 0.19933(15) 0.26618(14) 0.21917(6)
C15 C 0.20976(17) 0.26832(16) 0.46418(6)
C16 C 0.40624(19) 0.62061(18) 0.15211(7)
H9 H 0.4928 0.6292 0.1381
C17 C 0.25677(16) 0.29934(16) 0.11318(6)
C18 C 0.0844(2) 0.3085(2) 0.55634(7)
H10 H -0.0028 0.3383 0.5774
C19 C 0.34126(19) 0.2169(2) 0.49288(7)
H11 H 0.4287 0.1851 0.4721
C20 C 0.3442(2) 0.2124(2) 0.55171(8)
H12 H 0.4333 0.1762 0.5702
C21 C 0.2982(2) 0.73369(17) 0.17443(8)
H13 H 0.3119 0.8184 0.1757
C22 C 0.3509(2) 0.1180(2) 0.05158(9)
H14 H 0.4008 0.0204 0.0473
C23 C 0.1698(2) 0.72140(17) 0.19487(8)
H15 H 0.0958 0.7991 0.2090
C24 C 0.2030(2) 0.4067(2) 0.06405(8)
H16 H 0.1531 0.5046 0.0678
C25 C 0.2154(2) 0.2614(2) 0.58339(7)
C26 C 0.2223(3) 0.3705(3) 0.00978(8)
H17 H 0.1852 0.4438 -0.0227
C27 C 0.2963(2) 0.2264(3) 0.00348(9)
H18 H 0.3096 0.2022 -0.0332
C28 C 0.1009(3) 0.3142(3) 0.67405(9)
H19 H 0.0451 0.4154 0.6573
H20 H 0.1265 0.3078 0.7130
H21 H 0.0437 0.2578 0.6745
C29 C 0.72363(16) 0.25628(17) 0.43622(6)
C30 C 0.75192(16) 0.24155(16) 0.25351(6)
C31 C 0.59311(18) 0.05478(18) 0.22589(8)
H22 H 0.5546 0.1417 0.2404
C32 C 0.75586(15) 0.15316(15) 0.15855(6)
C33 C 0.6643(2) 0.37635(17) 0.33224(7)
H23 H 0.6119 0.4659 0.3442
C34 C 0.70179(16) 0.03620(16) 0.18309(7)
C35 C 0.72830(16) 0.24932(16) 0.37397(6)
C36 C 0.6771(2) 0.37217(17) 0.27390(7)
H24 H 0.6343 0.4594 0.2473
C37 C 0.81256(17) 0.11369(15) 0.29475(7)
H25 H 0.8618 0.0239 0.2827
C38 C 0.80084(17) 0.11792(16) 0.35308(7)
H26 H 0.8426 0.0303 0.3796
C39 C 0.77062(16) 0.24408(15) 0.19014(6)
C40 C 0.80763(19) 0.36389(17) 0.15948(7)
C41 C 0.78875(17) 0.17126(16) 0.09521(7)
O2 O 0.7156(2) 0.2940(2) 0.60961(6)
N2 N 0.8350(2) 0.46288(18) 0.13860(7)
C42 C 0.7202(2) 0.2728(2) 0.55387(8)
C43 C 0.7062(2) 0.2171(2) -0.00227(8)
H27 H 0.6319 0.2368 -0.0276
C44 C 0.92459(19) 0.1622(2) 0.07290(8)
H28 H 0.9989 0.1444 0.0978
C45 C 0.6907(2) 0.3970(2) 0.51152(8)
H29 H 0.6688 0.4873 0.5220
C46 C 0.7545(2) -0.09308(18) 0.16122(8)
H30 H 0.8259 -0.1077 0.1321
C47 C 0.9496(2) 0.1796(2) 0.01349(9)
H31 H 1.0413 0.1725 -0.0012
C48 C 0.6934(2) 0.3888(2) 0.45402(8)
H32 H 0.6745 0.4740 0.4261
C49 C 0.7514(2) 0.1341(2) 0.47968(8)
H33 H 0.7714 0.0437 0.4696
C50 C 0.7504(3) 0.1410(2) 0.53795(8)
H34 H 0.7702 0.0561 0.5662
C51 C 0.6805(2) 0.1976(2) 0.05690(8)
H35 H 0.5893 0.2022 0.0713
C52 C 0.5413(2) -0.0534(2) 0.24715(9)
H36 H 0.4696 -0.0396 0.2762
C53 C 0.8413(2) 0.2072(2) -0.02380(8)
H37 H 0.8592 0.2193 -0.0637
C54 C 0.7006(3) -0.2015(2) 0.18294(11)
H38 H 0.7367 -0.2881 0.1682
C55 C 0.5957(3) -0.1816(2) 0.22537(10)
H39 H 0.5609 -0.2546 0.2396
C56 C 0.7502(4) 0.1724(4) 0.65444(10)
H40 H 0.6823 0.1275 0.6551
H41 H 0.7449 0.2031 0.6908
H42 H 0.8474 0.1025 0.6485
loop_
_geom_bond_atom_site_label_1
_geom_bond_atom_site_label_2
_geom_bond_site_symmetry_1
_geom_bond_site_symmetry_2
N1 C1 1_555 1_555
C1 C14 1_555 1_555
C2 C4 1_555 1_555
C3 H1 1_555 1_555
C4 C9 1_555 1_555
C5 C3 1_555 1_555
H2 C5 1_555 1_555
C6 C3 1_555 1_555
O1 C25 1_555 1_555
C7 H3 1_555 1_555
C8 C6 1_555 1_555
H4 C8 1_555 1_555
C9 H5 1_555 1_555
C10 C4 1_555 1_555
H6 C10 1_555 1_555
C11 C5 1_555 1_555
C12 H7 1_555 1_555
C13 H8 1_555 1_555
C14 C2 1_555 1_555
C15 C11 1_555 1_555
C16 C10 1_555 1_555
H9 C16 1_555 1_555
C17 C2 1_555 1_555
C18 C13 1_555 1_555
H10 C18 1_555 1_555
C19 C15 1_555 1_555
H11 C19 1_555 1_555
C20 C19 1_555 1_555
H12 C20 1_555 1_555
C21 C16 1_555 1_555
H13 C21 1_555 1_555
C22 C12 1_555 1_555
H14 C22 1_555 1_555
C23 C9 1_555 1_555
H15 C23 1_555 1_555
C24 C17 1_555 1_555
H16 C24 1_555 1_555
C25 C18 1_555 1_555
C26 C24 1_555 1_555
H17 C26 1_555 1_555
C27 C22 1_555 1_555
H18 C27 1_555 1_555
C28 O1 1_555 1_555
H19 C28 1_555 1_555
H20 C28 1_555 1_555
H21 C28 1_555 1_555
C29 C35 1_555 1_555
C30 C36 1_555 1_555
C31 H22 1_555 1_555
C32 C34 1_555 1_555
C33 H23 1_555 1_555
C34 C31 1_555 1_555
C35 C33 1_555 1_555
C36 C33 1_555 1_555
H24 C36 1_555 1_555
C37 C30 1_555 1_555
H25 C37 1_555 1_555
C38 C35 1_555 1_555
H26 C38 1_555 1_555
C39 C30 1_555 1_555
C40 C39 1_555 1_555
C41 C32 1_555 1_555
O2 C42 1_555 1_555
N2 C40 1_555 1_555
C42 C45 1_555 1_555
C43 H27 1_555 1_555
C44 C41 1_555 1_555
H28 C44 1_555 1_555
C45 H29 1_555 1_555
C46 C34 1_555 1_555
H30 C46 1_555 1_555
C47 C44 1_555 1_555
H31 C47 1_555 1_555
C48 C29 1_555 1_555
H32 C48 1_555 1_555
C49 C29 1_555 1_555
H33 C49 1_555 1_555
C50 C42 1_555 1_555
H34 C50 1_555 1_555
C51 C41 1_555 1_555
H35 C51 1_555 1_555
C52 C31 1_555 1_555
H36 C52 1_555 1_555
C53 C43 1_555 1_555
H37 C53 1_555 1_555
C54 C46 1_555 1_555
H38 C54 1_555 1_555
C55 C52 1_555 1_555
H39 C55 1_555 1_555
C56 O2 1_555 1_555
H40 C56 1_555 1_555
H41 C56 1_555 1_555
H42 C56 1_555 1_555
C6 C14 1_555 1_555
C7 C8 1_555 1_555
C7 C11 1_555 1_555
C12 C17 1_555 1_555
C13 C15 1_555 1_555
C20 C25 1_555 1_555
C21 C23 1_555 1_555
C26 C27 1_555 1_555
C32 C39 1_555 1_555
C37 C38 1_555 1_555
C43 C51 1_555 1_555
C45 C48 1_555 1_555
C47 C53 1_555 1_555
C49 C50 1_555 1_555
C54 C55 1_555 1_555

#END
