
#######################################################################
#
#                 Cambridge Crystallographic Data Centre
#                                CCDC 
#
#######################################################################
#
# If this CIF has been generated from an entry in the Cambridge 
# Structural Database, then it will include bibliographic, chemical, 
# crystal, experimental, refinement or atomic coordinate data resulting 
# from the CCDC's data processing and validation procedures.
#
#######################################################################

data_YOSBOZ
_chemical_formula_moiety         'C20 H14 Br1 N1 O3'
_chemical_name_systematic        
1'-Allyl-5'-bromo-3-phenyl-5H-spiro[furan-2,3'-indole]-2',5(1'H)-dione
_symmetry_cell_setting           monoclinic
_symmetry_space_group_name_H-M   'P 21/c'
_symmetry_Int_Tables_number      14
_space_group_name_Hall           '-P 2ybc'
loop_
_symmetry_equiv_pos_site_id
_symmetry_equiv_pos_as_xyz
1 x,y,z
2 -x,1/2+y,1/2-z
3 -x,-y,-z
4 x,1/2-y,1/2+z
_cell_length_a                   10.8259(6)
_cell_length_b                   13.7106(4)
_cell_length_c                   15.0874(8)
_cell_angle_alpha                90
_cell_angle_beta                 129.379(3)
_cell_angle_gamma                90
_cell_volume                     1730.99
_exptl_crystal_colour            colorless
_exptl_crystal_description       block
_cell_formula_units_Z            4
loop_
_atom_site_label
_atom_site_type_symbol
_atom_site_fract_x
_atom_site_fract_y
_atom_site_fract_z
Br1 Br 0.68683(5) 0.43996(3) -0.07228(3)
O1 O 0.7791(3) 0.62192(18) 0.4105(2)
O2 O 0.8627(2) 0.67624(15) 0.31665(17)
O3 O 0.9272(3) 0.88793(16) 0.30975(19)
N1 N 0.9733(3) 0.81235(16) 0.1969(2)
C1 C 0.7848(4) 0.5571(2) 0.0129(3)
C2 C 0.8914(4) 0.6050(2) 0.0072(3)
H1 H 0.9158 0.5795 -0.0372
C3 C 0.9625(4) 0.6910(2) 0.0672(3)
H2 H 1.0351 0.7239 0.0644
C4 C 0.9219(3) 0.72608(19) 0.1314(2)
C5 C 0.8149(3) 0.67648(19) 0.1368(2)
C6 C 0.7441(4) 0.5914(2) 0.0771(2)
H3 H 0.6717 0.5583 0.0799
C7 C 0.7970(3) 0.7316(2) 0.2139(2)
C8 C 0.9066(3) 0.8218(2) 0.2485(2)
C9 C 1.0725(4) 0.8887(2) 0.2027(3)
H4 H 1.0627 0.9475 0.2335
H5 H 1.0328 0.9031 0.1257
C10 C 1.2479(4) 0.8608(3) 0.2763(3)
H6 H 1.2894 0.8208 0.3394
C11 C 1.3398(6) 0.8875(3) 0.2583(5)
H7 H 1.3024 0.9275 0.1960
H8 H 1.4460 0.8675 0.3070
C12 C 0.6301(3) 0.7586(2) 0.1683(2)
C13 C 0.6115(4) 0.7228(2) 0.2409(3)
H9 H 0.5204 0.7313 0.2339
C14 C 0.7515(4) 0.6685(2) 0.3325(3)
C15 C 0.5166(3) 0.8144(2) 0.0624(3)
C16 C 0.3622(4) 0.8322(2) 0.0239(3)
H10 H 0.3327 0.8091 0.0660
C17 C 0.2533(4) 0.8837(3) -0.0759(3)
H11 H 0.1511 0.8947 -0.1004
C18 C 0.2939(5) 0.9186(3) -0.1389(3)
H12 H 0.2196 0.9532 -0.2061
C19 C 0.4451(4) 0.9026(2) -0.1031(3)
H13 H 0.4731 0.9263 -0.1459
C20 C 0.5552(4) 0.8510(2) -0.0030(3)
H14 H 0.6572 0.8407 0.0208
loop_
_geom_bond_atom_site_label_1
_geom_bond_atom_site_label_2
_geom_bond_site_symmetry_1
_geom_bond_site_symmetry_2
Br1 C1 1_555 1_555
O1 C14 1_555 1_555
O2 C7 1_555 1_555
O3 C8 1_555 1_555
N1 C4 1_555 1_555
C1 C2 1_555 1_555
C2 H1 1_555 1_555
C3 C2 1_555 1_555
H2 C3 1_555 1_555
C4 C3 1_555 1_555
C5 C4 1_555 1_555
C6 C1 1_555 1_555
H3 C6 1_555 1_555
C7 C5 1_555 1_555
C8 N1 1_555 1_555
C9 N1 1_555 1_555
H4 C9 1_555 1_555
H5 C9 1_555 1_555
C10 C9 1_555 1_555
H6 C10 1_555 1_555
C11 C10 1_555 1_555
H7 C11 1_555 1_555
H8 C11 1_555 1_555
C12 C7 1_555 1_555
C13 C12 1_555 1_555
H9 C13 1_555 1_555
C14 O2 1_555 1_555
C15 C12 1_555 1_555
C16 C15 1_555 1_555
H10 C16 1_555 1_555
C17 C16 1_555 1_555
H11 C17 1_555 1_555
C18 C17 1_555 1_555
H12 C18 1_555 1_555
C19 C18 1_555 1_555
H13 C19 1_555 1_555
C20 C15 1_555 1_555
H14 C20 1_555 1_555
C5 C6 1_555 1_555
C7 C8 1_555 1_555
C13 C14 1_555 1_555
C19 C20 1_555 1_555

#END
