
#######################################################################
#
#                 Cambridge Crystallographic Data Centre
#                                CCDC 
#
#######################################################################
#
# If this CIF has been generated from an entry in the Cambridge 
# Structural Database, then it will include bibliographic, chemical, 
# crystal, experimental, refinement or atomic coordinate data resulting 
# from the CCDC's data processing and validation procedures.
#
#######################################################################

data_YOSCAM
_chemical_formula_moiety         'C29 H23 N3 O5,C1 H2 Cl2'
_chemical_name_systematic        
'19-(2,6-Dimethoxyphenyl)-1,16-dimethyl-7,10,19-triazahexacyclo[14.5.1.0^2,15^.0^3,8^.0^9,14^.0^17,21^]docosa-2(15),3,5,7,9,11,13-heptaene-18,20,22-trione dichloromethane solvate'
_symmetry_cell_setting           triclinic
_symmetry_space_group_name_H-M   'P -1'
_symmetry_Int_Tables_number      2
_space_group_name_Hall           '-P 1'
loop_
_symmetry_equiv_pos_site_id
_symmetry_equiv_pos_as_xyz
1 x,y,z
2 -x,-y,-z
_cell_length_a                   9.067(2)
_cell_length_b                   12.470(3)
_cell_length_c                   13.647(3)
_cell_angle_alpha                63.737(4)
_cell_angle_beta                 85.712(4)
_cell_angle_gamma                73.393(4)
_cell_volume                     1323.6
_exptl_crystal_colour            colorless
_exptl_crystal_description       plate
_cell_formula_units_Z            2
_exptl_crystal_recrystallization_method dichloromethane
loop_
_atom_site_label
_atom_site_type_symbol
_atom_site_fract_x
_atom_site_fract_y
_atom_site_fract_z
O1 O 0.56334(13) 0.35580(11) 0.54253(9)
O2 O 0.26816(13) 0.57894(11) 0.13093(9)
O3 O -0.03312(13) 0.42076(11) 0.41177(9)
O4 O 0.06209(13) 0.31684(11) 0.21970(9)
O5 O -0.09548(14) 0.73604(11) 0.14524(10)
N1 N 0.09077(15) 0.50808(13) 0.25468(11)
N2 N 0.49771(16) 0.07041(13) 0.23902(11)
N3 N 0.33161(16) -0.02859(13) 0.41225(11)
C1 C 0.46986(19) 0.36422(15) 0.47953(13)
C2 C 0.47083(18) 0.41244(15) 0.35413(13)
C3 C 0.31351(18) 0.51666(15) 0.32542(12)
H1 H 0.3281 0.5956 0.3199
C4 C 0.22797(18) 0.54042(15) 0.22346(13)
C5 C 0.07394(18) 0.45920(15) 0.36741(13)
C6 C 0.21119(18) 0.46375(15) 0.42047(13)
H2 H 0.1778 0.5187 0.4583
C7 C 0.31518(18) 0.33167(15) 0.50026(13)
C8 C 0.34839(18) 0.25241(15) 0.43759(13)
C9 C 0.43848(18) 0.29944(15) 0.35266(13)
C10 C 0.48845(18) 0.24314(15) 0.27990(13)
C11 C 0.57024(18) 0.29233(16) 0.18607(13)
H3 H 0.5946 0.3681 0.1671
C12 C 0.61446(19) 0.23048(16) 0.12238(14)
H4 H 0.6697 0.2622 0.0589
C13 C 0.5763(2) 0.11962(17) 0.15312(14)
H5 H 0.6090 0.0765 0.1093
C14 C 0.45300(18) 0.13124(15) 0.30243(13)
C15 C 0.36097(18) 0.07982(15) 0.39422(13)
C16 C 0.2399(2) -0.07144(16) 0.49120(14)
H6 H 0.2208 -0.1479 0.5055
C17 C 0.1694(2) -0.01095(17) 0.55473(14)
H7 H 0.1011 -0.0442 0.6084
C18 C 0.19973(19) 0.09642(16) 0.53885(13)
H8 H 0.1529 0.1388 0.5814
C19 C 0.30164(18) 0.14379(15) 0.45832(13)
C20 C 0.60971(19) 0.45599(17) 0.30369(14)
H9 H 0.6308 0.5075 0.3351
H10 H 0.5890 0.5052 0.2244
H11 H 0.6994 0.3835 0.3189
C21 C 0.2736(2) 0.28091(16) 0.61854(13)
H12 H 0.3372 0.1947 0.6588
H13 H 0.1644 0.2831 0.6220
H14 H 0.2921 0.3320 0.6514
C22 C -0.02412(18) 0.52835(16) 0.17699(13)
C23 C -0.03688(18) 0.43076(16) 0.15789(13)
C24 C -0.14434(19) 0.45411(16) 0.07813(13)
H15 H -0.1528 0.3886 0.0630
C25 C -0.23861(19) 0.57401(17) 0.02120(13)
H16 H -0.3118 0.5898 -0.0333
C26 C -0.2300(2) 0.67162(17) 0.04092(14)
H17 H -0.2977 0.7528 0.0019
C27 C -0.12002(19) 0.64873(16) 0.11903(13)
C28 C 0.0408(2) 0.21429(16) 0.20787(15)
H18 H 0.1119 0.1367 0.2600
H19 H 0.0615 0.2248 0.1331
H20 H -0.0656 0.2108 0.2224
C29 C -0.1793(2) 0.86251(18) 0.08002(18)
H21 H -0.1486 0.9166 0.1042
H22 H -0.2900 0.8721 0.0879
H23 H -0.1568 0.8858 0.0031
Cl1 Cl 0.10742(7) -0.10136(7) 0.24028(5)
Cl2 Cl 0.38468(7) -0.16540(5) 0.13226(4)
C30 C 0.3049(2) -0.11442(19) 0.23088(15)
H24 H 0.3591 -0.1740 0.3031
H25 H 0.3210 -0.0323 0.2116
loop_
_geom_bond_atom_site_label_1
_geom_bond_atom_site_label_2
_geom_bond_site_symmetry_1
_geom_bond_site_symmetry_2
O1 C1 1_555 1_555
O2 C4 1_555 1_555
O3 C5 1_555 1_555
O4 C23 1_555 1_555
O5 C27 1_555 1_555
N1 C4 1_555 1_555
N2 C13 1_555 1_555
N3 C15 1_555 1_555
C1 C2 1_555 1_555
C2 C3 1_555 1_555
C3 H1 1_555 1_555
C4 C3 1_555 1_555
C5 N1 1_555 1_555
C6 C3 1_555 1_555
H2 C6 1_555 1_555
C7 C1 1_555 1_555
C8 C7 1_555 1_555
C9 C2 1_555 1_555
C10 C9 1_555 1_555
C11 C10 1_555 1_555
H3 C11 1_555 1_555
C12 C11 1_555 1_555
H4 C12 1_555 1_555
C13 C12 1_555 1_555
H5 C13 1_555 1_555
C14 N2 1_555 1_555
C15 C14 1_555 1_555
C16 N3 1_555 1_555
H6 C16 1_555 1_555
C17 C16 1_555 1_555
H7 C17 1_555 1_555
C18 C17 1_555 1_555
H8 C18 1_555 1_555
C19 C8 1_555 1_555
C20 C2 1_555 1_555
H9 C20 1_555 1_555
H10 C20 1_555 1_555
H11 C20 1_555 1_555
C21 C7 1_555 1_555
H12 C21 1_555 1_555
H13 C21 1_555 1_555
H14 C21 1_555 1_555
C22 N1 1_555 1_555
C23 C22 1_555 1_555
C24 C23 1_555 1_555
H15 C24 1_555 1_555
C25 C24 1_555 1_555
H16 C25 1_555 1_555
C26 C25 1_555 1_555
H17 C26 1_555 1_555
C27 C22 1_555 1_555
C28 O4 1_555 1_555
H18 C28 1_555 1_555
H19 C28 1_555 1_555
H20 C28 1_555 1_555
C29 O5 1_555 1_555
H21 C29 1_555 1_555
H22 C29 1_555 1_555
H23 C29 1_555 1_555
Cl1 C30 1_555 1_555
Cl2 C30 1_555 1_555
C30 H24 1_555 1_555
H25 C30 1_555 1_555
C5 C6 1_555 1_555
C6 C7 1_555 1_555
C8 C9 1_555 1_555
C10 C14 1_555 1_555
C15 C19 1_555 1_555
C18 C19 1_555 1_555
C26 C27 1_555 1_555

#END
