
#######################################################################
#
#                 Cambridge Crystallographic Data Centre
#                                CCDC 
#
#######################################################################
#
# If this CIF has been generated from an entry in the Cambridge 
# Structural Database, then it will include bibliographic, chemical, 
# crystal, experimental, refinement or atomic coordinate data resulting 
# from the CCDC's data processing and validation procedures.
#
#######################################################################

data_YOSCIU
_chemical_formula_moiety         'C29 H23 N3 O5,C2 H3 N1'
_chemical_name_systematic        
'19-(2,6-Dimethoxyphenyl)-1,16-dimethyl-4,13,19-triazahexacyclo[14.5.1.0^2,15^.0^3,8^.0^9,14^.0^17,21^]docosa-2(15),3,5,7,9,11,13-heptaene-18,20,22-trione acetonitrile solvate'
_symmetry_cell_setting           monoclinic
_symmetry_space_group_name_H-M   'P 21/c'
_symmetry_Int_Tables_number      14
_space_group_name_Hall           '-P 2ybc'
loop_
_symmetry_equiv_pos_site_id
_symmetry_equiv_pos_as_xyz
1 x,y,z
2 -x,1/2+y,1/2-z
3 -x,-y,-z
4 x,1/2-y,1/2+z
_cell_length_a                   17.478(2)
_cell_length_b                   15.8115(19)
_cell_length_c                   9.5216(12)
_cell_angle_alpha                90
_cell_angle_beta                 100.376(3)
_cell_angle_gamma                90
_cell_volume                     2588.3
_exptl_crystal_colour            colorless
_exptl_crystal_description       plate
_cell_formula_units_Z            4
_exptl_crystal_recrystallization_method acetonitrile
loop_
_atom_site_label
_atom_site_type_symbol
_atom_site_fract_x
_atom_site_fract_y
_atom_site_fract_z
O1 O 0.16170(6) 0.72431(7) 0.64444(11)
O2 O 0.27486(6) 0.44865(7) 0.98181(11)
O3 O 0.37885(6) 0.47259(7) 0.57549(11)
O4 O 0.26087(6) 0.31939(7) 0.60566(11)
O5 O 0.45151(6) 0.40333(7) 0.98723(11)
N1 N 0.33050(7) 0.44143(8) 0.77951(13)
N2 N 0.06096(8) 0.46551(8) 0.83778(13)
N3 N 0.17350(7) 0.47553(8) 0.32312(13)
C1 C 0.18853(9) 0.65461(10) 0.66386(15)
C2 C 0.18484(9) 0.59175(9) 0.78730(15)
C3 C 0.27371(9) 0.57097(10) 0.82531(15)
H1 H 0.3010 0.6125 0.8963
C4 C 0.29115(8) 0.48175(10) 0.87655(15)
C5 C 0.34218(8) 0.49303(10) 0.66621(15)
C6 C 0.30422(9) 0.57730(10) 0.68283(15)
H2 H 0.3434 0.6239 0.6880
C7 C 0.23057(9) 0.59846(9) 0.56766(16)
C8 C 0.17278(8) 0.52554(9) 0.56168(15)
C9 C 0.14586(8) 0.52209(9) 0.68865(15)
C10 C 0.08615(9) 0.46380(9) 0.71034(16)
C11 C 0.00322(9) 0.41358(11) 0.85263(17)
H3 H -0.0159 0.4153 0.9399
C12 C -0.03114(9) 0.35654(10) 0.74793(18)
H4 H -0.0715 0.3198 0.7650
C13 C -0.00559(9) 0.35449(10) 0.62021(17)
H5 H -0.0281 0.3159 0.5479
C14 C 0.05415(9) 0.40966(10) 0.59592(16)
C15 C 0.08281(9) 0.41319(9) 0.46192(16)
C16 C 0.05322(9) 0.36173(10) 0.34368(16)
H6 H 0.0123 0.3230 0.3490
C17 C 0.08363(10) 0.36781(10) 0.22119(16)
H7 H 0.0641 0.3334 0.1409
C18 C 0.14390(10) 0.42536(10) 0.21565(16)
H8 H 0.1647 0.4286 0.1302
C19 C 0.14312(9) 0.46999(9) 0.44507(15)
C20 C 0.14972(9) 0.62498(10) 0.91019(16)
H9 H 0.1766 0.6770 0.9470
H10 H 0.1553 0.5825 0.9863
H11 H 0.0944 0.6370 0.8771
C21 C 0.24780(9) 0.63904(10) 0.43326(16)
H12 H 0.1989 0.6556 0.3719
H13 H 0.2754 0.5986 0.3823
H14 H 0.2803 0.6892 0.4583
C22 C 0.35642(9) 0.35549(9) 0.79981(15)
C23 C 0.31803(9) 0.29217(10) 0.71233(15)
C24 C 0.33847(9) 0.20801(10) 0.74043(16)
H15 H 0.3134 0.1642 0.6810
C25 C 0.39593(9) 0.18905(10) 0.85621(16)
H16 H 0.4084 0.1314 0.8775
C26 C 0.43602(9) 0.25153(10) 0.94239(16)
H17 H 0.4761 0.2370 1.0200
C27 C 0.41633(9) 0.33563(10) 0.91273(16)
C28 C 0.22485(9) 0.25696(10) 0.50647(16)
H18 H 0.1943 0.2850 0.4231
H19 H 0.1906 0.2214 0.5523
H20 H 0.2650 0.2218 0.4761
C29 C 0.51686(9) 0.38560(11) 1.09732(16)
H21 H 0.5554 0.3527 1.0574
H22 H 0.4996 0.3531 1.1735
H23 H 0.5403 0.4389 1.1364
N4 N 0.37889(10) 0.71642(11) 0.19940(19)
C30 C 0.39822(10) 0.64938(13) 0.22992(19)
C31 C 0.42379(12) 0.56337(12) 0.2690(2)
H24 H 0.4037 0.5249 0.1904
H25 H 0.4041 0.5462 0.3548
H26 H 0.4808 0.5613 0.2881
loop_
_geom_bond_atom_site_label_1
_geom_bond_atom_site_label_2
_geom_bond_site_symmetry_1
_geom_bond_site_symmetry_2
O1 C1 1_555 1_555
O2 C4 1_555 1_555
O3 C5 1_555 1_555
O4 C23 1_555 1_555
O5 C27 1_555 1_555
N1 C4 1_555 1_555
N2 C10 1_555 1_555
N3 C18 1_555 1_555
C1 C2 1_555 1_555
C2 C3 1_555 1_555
C3 H1 1_555 1_555
C4 C3 1_555 1_555
C5 N1 1_555 1_555
C6 C3 1_555 1_555
H2 C6 1_555 1_555
C7 C1 1_555 1_555
C8 C7 1_555 1_555
C9 C2 1_555 1_555
C10 C9 1_555 1_555
C11 N2 1_555 1_555
H3 C11 1_555 1_555
C12 C11 1_555 1_555
H4 C12 1_555 1_555
C13 C12 1_555 1_555
H5 C13 1_555 1_555
C14 C10 1_555 1_555
C15 C14 1_555 1_555
C16 C15 1_555 1_555
H6 C16 1_555 1_555
C17 C16 1_555 1_555
H7 C17 1_555 1_555
C18 C17 1_555 1_555
H8 C18 1_555 1_555
C19 N3 1_555 1_555
C20 C2 1_555 1_555
H9 C20 1_555 1_555
H10 C20 1_555 1_555
H11 C20 1_555 1_555
C21 C7 1_555 1_555
H12 C21 1_555 1_555
H13 C21 1_555 1_555
H14 C21 1_555 1_555
C22 N1 1_555 1_555
C23 C22 1_555 1_555
C24 C23 1_555 1_555
H15 C24 1_555 1_555
C25 C24 1_555 1_555
H16 C25 1_555 1_555
C26 C25 1_555 1_555
H17 C26 1_555 1_555
C27 C22 1_555 1_555
C28 O4 1_555 1_555
H18 C28 1_555 1_555
H19 C28 1_555 1_555
H20 C28 1_555 1_555
C29 O5 1_555 1_555
H21 C29 1_555 1_555
H22 C29 1_555 1_555
H23 C29 1_555 1_555
N4 C30 1_555 1_555
C30 C31 1_555 1_555
C31 H24 1_555 1_555
H25 C31 1_555 1_555
H26 C31 1_555 1_555
C5 C6 1_555 1_555
C6 C7 1_555 1_555
C8 C9 1_555 1_555
C8 C19 1_555 1_555
C13 C14 1_555 1_555
C15 C19 1_555 1_555
C26 C27 1_555 1_555

#END
