
#######################################################################
#
#                 Cambridge Crystallographic Data Centre
#                                CCDC 
#
#######################################################################
#
# If this CIF has been generated from an entry in the Cambridge 
# Structural Database, then it will include bibliographic, chemical, 
# crystal, experimental, refinement or atomic coordinate data resulting 
# from the CCDC's data processing and validation procedures.
#
#######################################################################

data_YOSQAA
_chemical_formula_moiety         'C20 H23 N1 O6 S2'
_chemical_name_systematic        
'Dimethyl 2-(7-(diethylamino)-2-oxo-2H-chromen-3-yl)-1,3-dithiolane-4,5-dicarboxylate'
_symmetry_cell_setting           monoclinic
_symmetry_space_group_name_H-M   'P 21'
_symmetry_Int_Tables_number      4
_space_group_name_Hall           'P 2yb'
loop_
_symmetry_equiv_pos_site_id
_symmetry_equiv_pos_as_xyz
1 x,y,z
2 -x,1/2+y,-z
_cell_length_a                   9.1418(9)
_cell_length_b                   9.3880(10)
_cell_length_c                   12.6939(13)
_cell_angle_alpha                90
_cell_angle_beta                 110.690(2)
_cell_angle_gamma                90
_cell_volume                     1019.17
_exptl_crystal_colour            green
_exptl_crystal_description       prismatic
_cell_formula_units_Z            2
loop_
_atom_site_label
_atom_site_type_symbol
_atom_site_fract_x
_atom_site_fract_y
_atom_site_fract_z
S1 S 1.09432(10) 0.63250(11) 0.73667(8)
S2 S 0.82267(12) 0.82511(11) 0.69937(8)
N1 N 0.4202(4) 0.0581(3) 0.8710(3)
O1 O 1.0832(3) 0.4643(3) 0.9375(2)
O2 O 0.8697(3) 0.3367(3) 0.90477(19)
O3 O 1.2048(3) 0.6112(4) 0.5439(2)
O4 O 1.0295(3) 0.7603(3) 0.4293(2)
O5 O 0.8199(3) 0.5461(3) 0.4791(3)
O6 O 0.6157(3) 0.6554(4) 0.4991(2)
C1 C 1.0346(4) 0.7475(4) 0.6130(3)
H1 H 1.0835 0.8404 0.6380
C2 C 0.8591(4) 0.7710(4) 0.5743(3)
H2 H 0.8332 0.8515 0.5218
C3 C 0.9414(4) 0.6897(4) 0.7922(3)
H3 H 0.9940 0.7338 0.8659
C4 C 0.8503(4) 0.5629(4) 0.8093(3)
C5 C 0.9442(4) 0.4569(4) 0.8869(3)
C6 C 0.7099(4) 0.3191(4) 0.8578(3)
C7 C 0.6186(4) 0.4238(4) 0.7861(3)
C8 C 0.6949(4) 0.5457(4) 0.7629(3)
H4 H 0.6354 0.6152 0.7143
C9 C 0.6493(4) 0.1975(4) 0.8854(3)
H5 H 0.7152 0.1294 0.9316
C10 C 0.4853(4) 0.1761(4) 0.8431(3)
C11 C 0.3923(4) 0.2830(4) 0.7728(3)
H6 H 0.2842 0.2724 0.7449
C12 C 0.4563(4) 0.4008(4) 0.7448(3)
H7 H 0.3911 0.4681 0.6972
C13 C 1.0992(4) 0.6936(4) 0.5263(3)
C14 C 1.1005(6) 0.7415(5) 0.3463(3)
H8 H 1.2055 0.7775 0.3748
H9 H 1.0414 0.7925 0.2792
H10 H 1.1022 0.6421 0.3293
C15 C 0.7655(4) 0.6436(4) 0.5137(3)
C16 C 0.5155(5) 0.5413(7) 0.4397(4)
H11 H 0.5171 0.5353 0.3646
H12 H 0.4106 0.5592 0.4365
H13 H 0.5519 0.4531 0.4784
C17 C 0.2525(4) 0.0301(4) 0.8263(3)
H14 H 0.2355 -0.0720 0.8186
H15 H 0.2081 0.0720 0.7519
C18 C 0.1689(5) 0.0884(6) 0.8994(4)
H16 H 0.2166 0.0521 0.9745
H17 H 0.0611 0.0600 0.8698
H18 H 0.1755 0.1905 0.9008
C19 C 0.5138(5) -0.0533(5) 0.9437(3)
H19 H 0.4544 -0.0963 0.9853
H20 H 0.6071 -0.0112 0.9976
C20 C 0.5603(7) -0.1662(6) 0.8789(4)
H21 H 0.4697 -0.1985 0.8182
H22 H 0.6063 -0.2447 0.9279
H23 H 0.6350 -0.1280 0.8490
loop_
_geom_bond_atom_site_label_1
_geom_bond_atom_site_label_2
_geom_bond_site_symmetry_1
_geom_bond_site_symmetry_2
S1 C1 1_555 1_555
S2 C2 1_555 1_555
N1 C10 1_555 1_555
O1 C5 1_555 1_555
O2 C5 1_555 1_555
O3 C13 1_555 1_555
O4 C13 1_555 1_555
O5 C15 1_555 1_555
O6 C15 1_555 1_555
C1 H1 1_555 1_555
C2 C1 1_555 1_555
H2 C2 1_555 1_555
C3 S1 1_555 1_555
H3 C3 1_555 1_555
C4 C3 1_555 1_555
C5 C4 1_555 1_555
C6 O2 1_555 1_555
C7 C6 1_555 1_555
C8 C4 1_555 1_555
H4 C8 1_555 1_555
C9 C6 1_555 1_555
H5 C9 1_555 1_555
C10 C9 1_555 1_555
C11 C10 1_555 1_555
H6 C11 1_555 1_555
C12 C7 1_555 1_555
H7 C12 1_555 1_555
C13 C1 1_555 1_555
C14 O4 1_555 1_555
H8 C14 1_555 1_555
H9 C14 1_555 1_555
H10 C14 1_555 1_555
C15 C2 1_555 1_555
C16 O6 1_555 1_555
H11 C16 1_555 1_555
H12 C16 1_555 1_555
H13 C16 1_555 1_555
C17 N1 1_555 1_555
H14 C17 1_555 1_555
H15 C17 1_555 1_555
C18 C17 1_555 1_555
H16 C18 1_555 1_555
H17 C18 1_555 1_555
H18 C18 1_555 1_555
C19 N1 1_555 1_555
H19 C19 1_555 1_555
H20 C19 1_555 1_555
C20 C19 1_555 1_555
H21 C20 1_555 1_555
H22 C20 1_555 1_555
H23 C20 1_555 1_555
S2 C3 1_555 1_555
C7 C8 1_555 1_555
C11 C12 1_555 1_555

#END
