
#######################################################################
#
#                 Cambridge Crystallographic Data Centre
#                                CCDC 
#
#######################################################################
#
# If this CIF has been generated from an entry in the Cambridge 
# Structural Database, then it will include bibliographic, chemical, 
# crystal, experimental, refinement or atomic coordinate data resulting 
# from the CCDC's data processing and validation procedures.
#
#######################################################################

data_YOTJUN
_chemical_formula_moiety         'C15 H14 N2 O2'
_chemical_name_systematic        
2-Methoxy-6-(6-methyl-1H-benzimidazol-2-yl)phenol
_symmetry_cell_setting           monoclinic
_symmetry_space_group_name_H-M   'C 2/c'
_symmetry_Int_Tables_number      15
_space_group_name_Hall           '-C 2yn'
loop_
_symmetry_equiv_pos_site_id
_symmetry_equiv_pos_as_xyz
1 x,y,z
2 -x,y,1/2-z
3 1/2+x,1/2+y,z
4 1/2-x,1/2+y,1/2-z
5 -x,-y,-z
6 x,-y,1/2+z
7 1/2-x,1/2-y,-z
8 1/2+x,1/2-y,1/2+z
_cell_length_a                   17.986(3)
_cell_length_b                   11.4452(16)
_cell_length_c                   13.4105(19)
_cell_angle_alpha                90
_cell_angle_beta                 104.216(2)
_cell_angle_gamma                90
_cell_volume                     2676.06
_exptl_crystal_colour            yellow
_exptl_crystal_description       block
_cell_formula_units_Z            8
loop_
_atom_site_label
_atom_site_type_symbol
_atom_site_fract_x
_atom_site_fract_y
_atom_site_fract_z
O1 O 0.34998(10) 0.96117(16) 0.14576(12)
H1 H 0.3809 0.9222 0.1879
O2 O 0.23740(12) 1.0753(2) 0.03072(14)
N1 N 0.39603(12) 0.94335(19) 0.46813(14)
H2 H 0.3689 0.9806 0.5087
N2 N 0.42667(11) 0.89053(17) 0.32288(14)
C1 C 0.31924(14) 1.0273(2) 0.30233(18)
C2 C 0.30615(14) 1.0242(2) 0.19534(18)
C3 C 0.24529(16) 1.0877(2) 0.1342(2)
C4 C 0.20037(17) 1.1559(3) 0.1795(2)
H3 H 0.1605 1.1992 0.1389
C5 C 0.21404(19) 1.1607(3) 0.2856(3)
H4 H 0.1834 1.2075 0.3158
C6 C 0.27225(17) 1.0974(3) 0.3463(2)
H5 H 0.2807 1.1009 0.4175
C7 C 0.38041(14) 0.9559(2) 0.36368(17)
C8 C 0.1738(2) 1.1332(4) -0.0374(3)
H6 H 0.1748 1.1176 -0.1074
H7 H 0.1776 1.2158 -0.0251
H8 H 0.1266 1.1047 -0.0252
C9 C 0.45596(15) 0.8650(2) 0.49645(19)
C10 C 0.47445(14) 0.8322(2) 0.40546(19)
C11 C 0.53215(16) 0.7501(3) 0.4079(2)
H9 H 0.5454 0.7270 0.3480
C12 C 0.49349(18) 0.8175(3) 0.5915(2)
H10 H 0.4807 0.8398 0.6519
C13 C 0.56835(19) 0.7052(3) 0.5008(3)
H11 H 0.6072 0.6509 0.5033
C14 C 0.55061(19) 0.7359(3) 0.5920(3)
C15 C 0.5957(3) 0.6706(5) 0.6876(3)
H12 H 0.5797 0.6974 0.7469
H13 H 0.6495 0.6854 0.6969
H14 H 0.5861 0.5883 0.6788
C16? C 0.55061(19) 0.7359(3) 0.5920(3)
C17? C 0.56835(19) 0.7052(3) 0.5008(3)
C18? C 0.6306(6) 0.6287(11) 0.5397(9)
H15? H 0.5769 0.7018 0.6536
H16? H 0.6136 0.5648 0.5748
H17? H 0.6707 0.6703 0.5868
H18? H 0.6498 0.5992 0.4838
loop_
_geom_bond_atom_site_label_1
_geom_bond_atom_site_label_2
_geom_bond_site_symmetry_1
_geom_bond_site_symmetry_2
O1 H1 1_555 1_555
O2 C3 1_555 1_555
N1 H2 1_555 1_555
N2 C7 1_555 1_555
C1 C2 1_555 1_555
C2 O1 1_555 1_555
C3 C2 1_555 1_555
C4 C3 1_555 1_555
H3 C4 1_555 1_555
C5 C4 1_555 1_555
H4 C5 1_555 1_555
C6 C1 1_555 1_555
H5 C6 1_555 1_555
C7 N1 1_555 1_555
C8 O2 1_555 1_555
H6 C8 1_555 1_555
H7 C8 1_555 1_555
H8 C8 1_555 1_555
C9 N1 1_555 1_555
C10 N2 1_555 1_555
C11 C10 1_555 1_555
H9 C11 1_555 1_555
C12 C9 1_555 1_555
H10 C12 1_555 1_555
C13 C11 1_555 1_555
H11 C13 1_555 1_555
C14 C12 1_555 1_555
C15 C14 1_555 1_555
H12 C15 1_555 1_555
H13 C15 1_555 1_555
H14 C15 1_555 1_555
C1 C7 1_555 1_555
C5 C6 1_555 1_555
C9 C10 1_555 1_555
C13 C14 1_555 1_555

#END
