
#######################################################################
#
#                 Cambridge Crystallographic Data Centre
#                                CCDC 
#
#######################################################################
#
# If this CIF has been generated from an entry in the Cambridge 
# Structural Database, then it will include bibliographic, chemical, 
# crystal, experimental, refinement or atomic coordinate data resulting 
# from the CCDC's data processing and validation procedures.
#
#######################################################################

data_YOTKIC
_chemical_formula_moiety         'C25 H18 O2 S1,C4 H8 O2'
_chemical_name_systematic        
"1,1'-(2-Thienylmethylene)-bis(2-naphthol) ethyl acetate solvate"
_symmetry_cell_setting           monoclinic
_symmetry_space_group_name_H-M   'P 21/c'
_symmetry_Int_Tables_number      14
_space_group_name_Hall           '-P 2ybc'
loop_
_symmetry_equiv_pos_site_id
_symmetry_equiv_pos_as_xyz
1 x,y,z
2 -x,1/2+y,1/2-z
3 -x,-y,-z
4 x,1/2-y,1/2+z
_cell_length_a                   13.425(3)
_cell_length_b                   21.613(4)
_cell_length_c                   8.417(2)
_cell_angle_alpha                90
_cell_angle_beta                 98.808(15)
_cell_angle_gamma                90
_cell_volume                     2413.43
_exptl_crystal_colour            colorless
_exptl_crystal_description       prism
_cell_formula_units_Z            4
_exptl_crystal_recrystallization_method 'ethyl acetate'
loop_
_atom_site_label
_atom_site_type_symbol
_atom_site_fract_x
_atom_site_fract_y
_atom_site_fract_z
C1 C 0.31470(16) 0.04909(9) 0.4961(3)
H1 H 0.3802 0.0292 0.4957
C2 C 0.33844(16) 0.10811(9) 0.5991(3)
C3 C 0.28873(17) 0.16412(10) 0.5686(3)
C4 C 0.3180(2) 0.21791(11) 0.6593(3)
H2 H 0.2841 0.2550 0.6336
C5 C 0.3952(2) 0.21569(12) 0.7836(3)
H3 H 0.4135 0.2513 0.8429
C6 C 0.44799(18) 0.16039(11) 0.8243(3)
C7 C 0.5277(2) 0.15747(14) 0.9552(3)
H4 H 0.5437 0.1925 1.0180
C8 C 0.5814(2) 0.10479(15) 0.9913(3)
H5 H 0.6350 0.1043 1.0757
C9 C 0.55585(19) 0.05109(13) 0.9008(3)
H6 H 0.5928 0.0150 0.9252
C10 C 0.47685(17) 0.05134(11) 0.7766(3)
H7 H 0.4598 0.0149 0.7204
C11 C 0.42030(16) 0.10589(10) 0.7312(3)
C12 C 0.25054(15) 0.00026(9) 0.5662(2)
C13 C 0.16002(16) 0.01613(10) 0.6138(3)
C14 C 0.09914(18) -0.02789(11) 0.6780(3)
H8 H 0.0391 -0.0155 0.7108
C15 C 0.12767(18) -0.08802(12) 0.6921(3)
H9 H 0.0871 -0.1164 0.7350
C16 C 0.21813(17) -0.10821(10) 0.6425(3)
C17 C 0.2476(2) -0.17108(11) 0.6544(3)
H10 H 0.2070 -0.1995 0.6972
C18 C 0.3338(2) -0.19076(12) 0.6049(4)
H11 H 0.3524 -0.2322 0.6154
C19 C 0.3948(2) -0.14842(12) 0.5376(4)
H12 H 0.4534 -0.1620 0.5022
C20 C 0.36867(17) -0.08722(11) 0.5238(3)
H13 H 0.4100 -0.0601 0.4781
C21 C 0.28040(16) -0.06379(10) 0.5769(2)
C22 C 0.27474(17) 0.06136(10) 0.3198(3)
C23 C 0.18677(18) 0.04016(11) 0.2295(3)
H14 H 0.1395 0.0154 0.2693
C24 C 0.1777(2) 0.06118(15) 0.0666(3)
H15 H 0.1230 0.0516 -0.0113
C25 C 0.2557(2) 0.09609(14) 0.0369(3)
H16 H 0.2609 0.1133 -0.0628
O1 O 0.20776(13) 0.17382(8) 0.4507(2)
H25 H 0.1819 0.1373 0.4077
O2 O 0.12727(13) 0.07581(8) 0.5945(2)
H26 H 0.0650 0.0833 0.6207
S1 S 0.34342(5) 0.10506(3) 0.20365(8)
C26 C 0.8122(2) 0.13551(18) 0.8359(4)
H17 H 0.7999 0.0928 0.8580
H18 H 0.7565 0.1516 0.7623
H19 H 0.8195 0.1587 0.9343
C27 C 0.9068(2) 0.14072(14) 0.7629(3)
C28 C 1.0195(3) 0.20912(15) 0.6570(5)
H20 H 1.0131 0.1888 0.5531
H21 H 1.0775 0.1919 0.7256
C29 C 1.0330(3) 0.27622(15) 0.6379(5)
H22 H 1.0927 0.2836 0.5909
H23 H 1.0394 0.2959 0.7412
H24 H 0.9756 0.2928 0.5691
O3 O 0.95846(15) 0.09760(9) 0.7375(3)
O4 O 0.92817(15) 0.19908(10) 0.7291(3)
loop_
_geom_bond_atom_site_label_1
_geom_bond_atom_site_label_2
_geom_bond_site_symmetry_1
_geom_bond_site_symmetry_2
C1 H1 1_555 1_555
C2 C1 1_555 1_555
C3 C2 1_555 1_555
C4 C3 1_555 1_555
H2 C4 1_555 1_555
C5 C4 1_555 1_555
H3 C5 1_555 1_555
C6 C5 1_555 1_555
C7 C6 1_555 1_555
H4 C7 1_555 1_555
C8 C7 1_555 1_555
H5 C8 1_555 1_555
C9 C8 1_555 1_555
H6 C9 1_555 1_555
C10 C9 1_555 1_555
H7 C10 1_555 1_555
C11 C2 1_555 1_555
C12 C1 1_555 1_555
C13 C12 1_555 1_555
C14 C13 1_555 1_555
H8 C14 1_555 1_555
C15 C14 1_555 1_555
H9 C15 1_555 1_555
C16 C15 1_555 1_555
C17 C16 1_555 1_555
H10 C17 1_555 1_555
C18 C17 1_555 1_555
H11 C18 1_555 1_555
C19 C18 1_555 1_555
H12 C19 1_555 1_555
C20 C19 1_555 1_555
H13 C20 1_555 1_555
C21 C12 1_555 1_555
C22 C1 1_555 1_555
C23 C22 1_555 1_555
H14 C23 1_555 1_555
C24 C23 1_555 1_555
H15 C24 1_555 1_555
C25 C24 1_555 1_555
H16 C25 1_555 1_555
C26 H17 1_555 1_555
H18 C26 1_555 1_555
H19 C26 1_555 1_555
C27 C26 1_555 1_555
C28 H20 1_555 1_555
H21 C28 1_555 1_555
C29 C28 1_555 1_555
H22 C29 1_555 1_555
H23 C29 1_555 1_555
H24 C29 1_555 1_555
O1 C3 1_555 1_555
H25 O1 1_555 1_555
O2 C13 1_555 1_555
H26 O2 1_555 1_555
O3 C27 1_555 1_555
O4 C27 1_555 1_555
S1 C22 1_555 1_555
C6 C11 1_555 1_555
C10 C11 1_555 1_555
C16 C21 1_555 1_555
C20 C21 1_555 1_555
C25 S1 1_555 1_555
C28 O4 1_555 1_555

#END
