
#######################################################################
#
#                 Cambridge Crystallographic Data Centre
#                                CCDC 
#
#######################################################################
#
# If this CIF has been generated from an entry in the Cambridge 
# Structural Database, then it will include bibliographic, chemical, 
# crystal, experimental, refinement or atomic coordinate data resulting 
# from the CCDC's data processing and validation procedures.
#
#######################################################################

data_YOTPON
_chemical_compound_source        'bark of Walsura pinnata Hassk'
_chemical_name_common            'Pinnatane A'
_chemical_formula_moiety         'C30 H48 O3'
_chemical_name_systematic        
'10-Hydroxy-2,2,6a,9,9,12b,14a-heptamethyl-1,3,4,5,6,6a,6b,7,9,10,11,12,12a,12b,13,14,14a,14b-octadecahydro-4a(2H)-picenecarboxylic acid'
_symmetry_cell_setting           orthorhombic
_symmetry_space_group_name_H-M   'P 21 21 21'
_symmetry_Int_Tables_number      19
_space_group_name_Hall           'P 2ac 2ab'
loop_
_symmetry_equiv_pos_site_id
_symmetry_equiv_pos_as_xyz
1 x,y,z
2 1/2-x,-y,1/2+z
3 -x,1/2+y,1/2-z
4 1/2+x,1/2-y,-z
_cell_length_a                   7.3761(2)
_cell_length_b                   16.3585(4)
_cell_length_c                   20.7032(5)
_cell_angle_alpha                90
_cell_angle_beta                 90
_cell_angle_gamma                90
_cell_volume                     2498.09
_exptl_crystal_colour            colorless
_cell_formula_units_Z            4
loop_
_atom_site_label
_atom_site_type_symbol
_atom_site_fract_x
_atom_site_fract_y
_atom_site_fract_z
O1 O 0.0192(2) 1.08616(9) -0.04603(8)
H1 H 0.022(5) 1.1379(6) -0.0479(15)
O2 O 0.2787(2) 1.10407(8) 0.00673(6)
O3 O 0.5137(2) 0.74943(9) 0.43439(7)
H2 H 0.590(3) 0.7286(16) 0.4595(11)
C1 C 0.1662(3) 1.05839(11) -0.01560(9)
C2 C 0.1730(3) 0.96355(11) -0.01453(9)
C3 C 0.1421(3) 0.93705(12) -0.08573(9)
H3 H 0.1447 0.8766 -0.0884
H4 H 0.0208 0.9556 -0.0999
C4 C 0.2849(3) 0.97201(13) -0.13099(10)
H5 H 0.2695 1.0321 -0.1333
H6 H 0.2650 0.9497 -0.1749
C5 C 0.4827(3) 0.95261(13) -0.10968(9)
C6 C 0.4780(3) 0.90007(12) -0.04821(9)
H7 H 0.6042 0.8920 -0.0332
H8 H 0.4290 0.8456 -0.0596
C7 C 0.3656(3) 0.93451(11) 0.00866(9)
H9 H 0.4306 0.9844 0.0242
C8 C 0.5911(3) 1.03113(14) -0.09846(11)
H10 H 0.5294 1.0649 -0.0661
H11 H 0.6005 1.0616 -0.1391
H12 H 0.7129 1.0172 -0.0830
C9 C 0.5782(4) 0.90337(16) -0.16263(10)
H13 H 0.5127 0.8521 -0.1699
H14 H 0.7028 0.8913 -0.1492
H15 H 0.5802 0.9352 -0.2027
C10 C 0.3632(3) 0.87291(11) 0.06662(9)
C11 C 0.3079(3) 0.78698(11) 0.04270(9)
H16 H 0.4104 0.7616 0.0203
H17 H 0.2051 0.7918 0.0129
H18 H 0.2729 0.7531 0.0797
C12 C 0.2315(3) 0.90314(11) 0.12067(8)
C13 C 0.0361(3) 0.89617(12) 0.09446(9)
H19 H -0.0464 0.9250 0.1245
H20 H 0.0009 0.8378 0.0943
C14 C 0.0073(3) 0.93116(12) 0.02569(9)
H21 H -0.0805 0.9767 0.0294
H22 H -0.0520 0.8880 -0.0003
C15 C 0.2605(3) 0.99440(11) 0.13609(9)
H23 H 0.2138 1.0063 0.1794
H24 H 0.1958 1.0278 0.1043
H25 H 0.3902 1.0071 0.1344
C16 C 0.2508(3) 0.84795(11) 0.18263(9)
H26 H 0.2122 0.7920 0.1688
C17 C 0.4463(3) 0.83731(11) 0.20946(9)
C18 C 0.5718(3) 0.81296(12) 0.15331(9)
H27 H 0.6988 0.8135 0.1688
H28 H 0.5427 0.7563 0.1400
C19 C 0.5566(3) 0.86876(12) 0.09454(9)
H29 H 0.6402 0.8489 0.0606
H30 H 0.5955 0.9245 0.1069
C20 C 0.5197(3) 0.91447(11) 0.24330(10)
H31 H 0.4518 0.9239 0.2833
H32 H 0.5057 0.9617 0.2146
H33 H 0.6484 0.9068 0.2535
C21 C 0.4437(3) 0.76507(11) 0.25864(9)
H34 H 0.4314 0.7139 0.2325
C22 C 0.2839(3) 0.76640(11) 0.30481(9)
C23 C 0.1435(3) 0.81574(12) 0.29524(9)
H35 H 0.0502 0.8161 0.3269
C24 C 0.1219(3) 0.87123(12) 0.23765(9)
H36 H 0.1461 0.9283 0.2509
H37 H -0.0047 0.8682 0.2220
C25 C 0.6225(3) 0.75728(12) 0.29622(10)
H38 H 0.7252 0.7543 0.2656
H39 H 0.6397 0.8060 0.3239
C26 C 0.6192(3) 0.68067(12) 0.33802(10)
H40 H 0.5993 0.6321 0.3104
H41 H 0.7377 0.6742 0.3599
C27 C 0.4700(3) 0.68582(11) 0.38820(9)
H42 H 0.4658 0.6325 0.4118
C28 C 0.2819(3) 0.70122(11) 0.35883(9)
C29 C 0.1487(3) 0.72131(13) 0.41332(9)
H43 H 0.1724 0.7766 0.4294
H44 H 0.1641 0.6820 0.4486
H45 H 0.0243 0.7182 0.3969
C30 C 0.2190(3) 0.62008(12) 0.32797(10)
H46 H 0.3000 0.6059 0.2922
H47 H 0.0950 0.6263 0.3117
H48 H 0.2221 0.5766 0.3605
loop_
_geom_bond_atom_site_label_1
_geom_bond_atom_site_label_2
_geom_bond_site_symmetry_1
_geom_bond_site_symmetry_2
O1 H1 1_555 1_555
O2 C1 1_555 1_555
O3 H2 1_555 1_555
C1 O1 1_555 1_555
C2 C1 1_555 1_555
C3 C2 1_555 1_555
H3 C3 1_555 1_555
H4 C3 1_555 1_555
C4 C3 1_555 1_555
H5 C4 1_555 1_555
H6 C4 1_555 1_555
C5 C4 1_555 1_555
C6 C5 1_555 1_555
H7 C6 1_555 1_555
H8 C6 1_555 1_555
C7 C2 1_555 1_555
H9 C7 1_555 1_555
C8 C5 1_555 1_555
H10 C8 1_555 1_555
H11 C8 1_555 1_555
H12 C8 1_555 1_555
C9 C5 1_555 1_555
H13 C9 1_555 1_555
H14 C9 1_555 1_555
H15 C9 1_555 1_555
C10 C7 1_555 1_555
C11 C10 1_555 1_555
H16 C11 1_555 1_555
H17 C11 1_555 1_555
H18 C11 1_555 1_555
C12 C10 1_555 1_555
C13 C12 1_555 1_555
H19 C13 1_555 1_555
H20 C13 1_555 1_555
C14 C2 1_555 1_555
H21 C14 1_555 1_555
H22 C14 1_555 1_555
C15 C12 1_555 1_555
H23 C15 1_555 1_555
H24 C15 1_555 1_555
H25 C15 1_555 1_555
C16 C12 1_555 1_555
H26 C16 1_555 1_555
C17 C16 1_555 1_555
C18 C17 1_555 1_555
H27 C18 1_555 1_555
H28 C18 1_555 1_555
C19 C10 1_555 1_555
H29 C19 1_555 1_555
H30 C19 1_555 1_555
C20 C17 1_555 1_555
H31 C20 1_555 1_555
H32 C20 1_555 1_555
H33 C20 1_555 1_555
C21 C17 1_555 1_555
H34 C21 1_555 1_555
C22 C21 1_555 1_555
C23 C22 1_555 1_555
H35 C23 1_555 1_555
C24 C16 1_555 1_555
H36 C24 1_555 1_555
H37 C24 1_555 1_555
C25 C21 1_555 1_555
H38 C25 1_555 1_555
H39 C25 1_555 1_555
C26 C25 1_555 1_555
H40 C26 1_555 1_555
H41 C26 1_555 1_555
C27 O3 1_555 1_555
H42 C27 1_555 1_555
C28 C22 1_555 1_555
C29 C28 1_555 1_555
H43 C29 1_555 1_555
H44 C29 1_555 1_555
H45 C29 1_555 1_555
C30 C28 1_555 1_555
H46 C30 1_555 1_555
H47 C30 1_555 1_555
H48 C30 1_555 1_555
C6 C7 1_555 1_555
C13 C14 1_555 1_555
C18 C19 1_555 1_555
C23 C24 1_555 1_555
C26 C27 1_555 1_555
C27 C28 1_555 1_555

#END
