
#######################################################################
#
#                 Cambridge Crystallographic Data Centre
#                                CCDC 
#
#######################################################################
#
# If this CIF has been generated from an entry in the Cambridge 
# Structural Database, then it will include bibliographic, chemical, 
# crystal, experimental, refinement or atomic coordinate data resulting 
# from the CCDC's data processing and validation procedures.
#
#######################################################################

data_YOTREF
_chemical_name_common            
1,1',2,2'-Tetramethyl-3,3'-(4-methoxybenzylidene)-di-1H-indole
_chemical_formula_moiety         'C28 H28 N2 O1'
_chemical_name_systematic        
3,3'-((4-Methoxyphenyl)methylene)bis(1,2-dimethyl-1H-indole)
_symmetry_cell_setting           monoclinic
_symmetry_space_group_name_H-M   'P 21/n'
_symmetry_Int_Tables_number      14
_space_group_name_Hall           '-P 2yn'
loop_
_symmetry_equiv_pos_site_id
_symmetry_equiv_pos_as_xyz
1 x,y,z
2 1/2-x,1/2+y,1/2-z
3 -x,-y,-z
4 1/2+x,1/2-y,1/2+z
_cell_length_a                   10.6647(8)
_cell_length_b                   13.2088(10)
_cell_length_c                   16.1494(13)
_cell_angle_alpha                90
_cell_angle_beta                 97.1740(10)
_cell_angle_gamma                90
_cell_volume                     2257.12
_exptl_crystal_colour            colorless
_exptl_crystal_description       prism
_cell_formula_units_Z            4
_exptl_crystal_recrystallization_method chloroform/hexane
loop_
_atom_site_label
_atom_site_type_symbol
_atom_site_fract_x
_atom_site_fract_y
_atom_site_fract_z
N1 N 0.63286(14) 0.32330(11) 0.89904(8)
N2 N 0.23060(12) 0.47645(10) 0.62297(8)
O1 O 0.73808(18) 0.09952(13) 0.43460(10)
C1 C 0.54764(14) 0.35901(11) 0.67122(9)
H1 H 0.5937 0.4226 0.6671
C2 C 0.59177(14) 0.28915(11) 0.60516(9)
C3 C 0.72045(16) 0.27569(12) 0.60290(11)
H2 H 0.7776 0.3097 0.6414
C4 C 0.76556(18) 0.21341(14) 0.54521(12)
H3 H 0.8522 0.2066 0.5446
C5 C 0.6831(2) 0.16106(14) 0.48826(12)
C6 C 0.5550(2) 0.17324(15) 0.48860(12)
H4 H 0.4984 0.1387 0.4502
C7 C 0.51073(17) 0.23765(13) 0.54694(11)
H5 H 0.4240 0.2460 0.5464
C8 C 0.6598(4) 0.0526(3) 0.36972(17)
H6 H 0.7107 0.0159 0.3349
H7 H 0.6113 0.1031 0.3371
H8 H 0.6036 0.0066 0.3927
C9 C 0.58732(14) 0.32027(11) 0.75930(9)
C10 C 0.62303(14) 0.21961(11) 0.78731(10)
C11 C 0.63396(15) 0.12468(12) 0.74924(10)
H9 H 0.6147 0.1177 0.6918
C12 C 0.67336(16) 0.04226(12) 0.79772(11)
H10 H 0.6806 -0.0203 0.7724
C13 C 0.70262(16) 0.05046(13) 0.88377(11)
H11 H 0.7297 -0.0065 0.9148
C14 C 0.69222(16) 0.14123(14) 0.92376(11)
H12 H 0.7117 0.1467 0.9813
C15 C 0.65141(14) 0.22480(12) 0.87502(10)
C16 C 0.59485(15) 0.38016(12) 0.82871(10)
C17 C 0.6468(2) 0.35910(17) 0.98459(12)
H13 H 0.6664 0.3030 1.0218
H14 H 0.5693 0.3901 0.9960
H15 H 0.7139 0.4079 0.9926
C18 C 0.5666(2) 0.49042(14) 0.83534(13)
H16 H 0.6390 0.5245 0.8638
H17 H 0.4958 0.4992 0.8660
H18 H 0.5467 0.5185 0.7804
C19 C 0.40945(14) 0.38686(11) 0.65659(9)
C20 C 0.30467(14) 0.32631(11) 0.67439(9)
C21 C 0.29216(16) 0.22881(12) 0.70659(10)
H19 H 0.3633 0.1891 0.7218
C22 C 0.17413(17) 0.19248(14) 0.71551(11)
H20 H 0.1659 0.1277 0.7368
C23 C 0.06594(17) 0.25115(15) 0.69312(12)
H21 H -0.0130 0.2249 0.7000
C24 C 0.07467(16) 0.34710(14) 0.66114(11)
H22 H 0.0028 0.3859 0.6458
C25 C 0.19443(15) 0.38423(12) 0.65254(9)
C26 C 0.36095(14) 0.47703(11) 0.62486(9)
C27 C 0.14395(17) 0.55850(14) 0.59566(12)
H23 H 0.0825 0.5654 0.6340
H24 H 0.1018 0.5437 0.5410
H25 H 0.1904 0.6206 0.5940
C28 C 0.42723(17) 0.56692(13) 0.59485(11)
H26 H 0.4049 0.6263 0.6240
H27 H 0.4025 0.5756 0.5361
H28 H 0.5169 0.5566 0.6051
loop_
_geom_bond_atom_site_label_1
_geom_bond_atom_site_label_2
_geom_bond_site_symmetry_1
_geom_bond_site_symmetry_2
N1 C15 1_555 1_555
N2 C25 1_555 1_555
O1 C5 1_555 1_555
C1 H1 1_555 1_555
C2 C1 1_555 1_555
C3 C2 1_555 1_555
H2 C3 1_555 1_555
C4 C3 1_555 1_555
H3 C4 1_555 1_555
C5 C4 1_555 1_555
C6 C5 1_555 1_555
H4 C6 1_555 1_555
C7 C2 1_555 1_555
H5 C7 1_555 1_555
C8 O1 1_555 1_555
H6 C8 1_555 1_555
H7 C8 1_555 1_555
H8 C8 1_555 1_555
C9 C1 1_555 1_555
C10 C9 1_555 1_555
C11 C10 1_555 1_555
H9 C11 1_555 1_555
C12 C11 1_555 1_555
H10 C12 1_555 1_555
C13 C12 1_555 1_555
H11 C13 1_555 1_555
C14 C13 1_555 1_555
H12 C14 1_555 1_555
C15 C10 1_555 1_555
C16 N1 1_555 1_555
C17 N1 1_555 1_555
H13 C17 1_555 1_555
H14 C17 1_555 1_555
H15 C17 1_555 1_555
C18 C16 1_555 1_555
H16 C18 1_555 1_555
H17 C18 1_555 1_555
H18 C18 1_555 1_555
C19 C1 1_555 1_555
C20 C19 1_555 1_555
C21 C20 1_555 1_555
H19 C21 1_555 1_555
C22 C21 1_555 1_555
H20 C22 1_555 1_555
C23 C22 1_555 1_555
H21 C23 1_555 1_555
C24 C23 1_555 1_555
H22 C24 1_555 1_555
C25 C20 1_555 1_555
C26 N2 1_555 1_555
C27 N2 1_555 1_555
H23 C27 1_555 1_555
H24 C27 1_555 1_555
H25 C27 1_555 1_555
C28 C26 1_555 1_555
H26 C28 1_555 1_555
H27 C28 1_555 1_555
H28 C28 1_555 1_555
C6 C7 1_555 1_555
C9 C16 1_555 1_555
C14 C15 1_555 1_555
C19 C26 1_555 1_555
C24 C25 1_555 1_555

#END
