
#######################################################################
#
#                 Cambridge Crystallographic Data Centre
#                                CCDC 
#
#######################################################################
#
# If this CIF has been generated from an entry in the Cambridge 
# Structural Database, then it will include bibliographic, chemical, 
# crystal, experimental, refinement or atomic coordinate data resulting 
# from the CCDC's data processing and validation procedures.
#
#######################################################################

data_YOTRUV
_chemical_formula_moiety         '2(C9 H7 N2 O4 1+),O4 S1 2-,H2 O1'
_chemical_name_systematic        
'bis(5,6-Dicarboxybenzimidazolium) sulfate monohydrate'
_symmetry_cell_setting           orthorhombic
_symmetry_space_group_name_H-M   'P b c n'
_symmetry_Int_Tables_number      60
_space_group_name_Hall           '-P 2n 2ab'
loop_
_symmetry_equiv_pos_site_id
_symmetry_equiv_pos_as_xyz
1 x,y,z
2 1/2-x,1/2-y,1/2+z
3 1/2+x,1/2-y,-z
4 -x,y,1/2-z
5 -x,-y,-z
6 1/2+x,1/2+y,1/2-z
7 1/2-x,1/2+y,z
8 x,-y,1/2+z
_cell_length_a                   14.691(3)
_cell_length_b                   7.7968(17)
_cell_length_c                   17.983(4)
_cell_angle_alpha                90
_cell_angle_beta                 90
_cell_angle_gamma                90
_cell_volume                     2059.82
_exptl_crystal_colour            colorless
_exptl_crystal_description       block
_cell_formula_units_Z            4
loop_
_atom_site_label
_atom_site_type_symbol
_atom_site_fract_x
_atom_site_fract_y
_atom_site_fract_z
O1 O 0.35417(10) 0.1890(2) 0.09502(8)
H1 H 0.3685 0.1903 0.1408
O2 O 0.22201(11) 0.2483(3) 0.15019(8)
O3 O 0.00994(12) 0.3035(2) 0.08983(10)
O4 O 0.08286(11) 0.05673(19) 0.07644(9)
H2 H 0.0465 0.0172 0.1089
N1 N 0.29633(11) 0.4817(2) -0.16017(8)
H3 H 0.3535 0.4982 -0.1718
N2 N 0.15053(11) 0.5073(2) -0.17520(9)
H4 H 0.0969 0.5355 -0.1962
C1 C 0.26786(14) 0.2354(2) 0.09487(10)
C2 C 0.23266(12) 0.2806(2) 0.01950(9)
C3 C 0.29283(11) 0.3365(2) -0.03408(10)
H5 H 0.3554 0.3271 -0.0276
C4 C 0.25595(12) 0.4077(2) -0.09819(9)
C5 C 0.23151(14) 0.5390(3) -0.20452(11)
H6 H 0.2413 0.5936 -0.2498
C6 C 0.16218(12) 0.4236(2) -0.10814(10)
C7 C 0.10081(12) 0.3636(2) -0.05544(10)
H7 H 0.0383 0.3721 -0.0626
C8 C 0.13689(12) 0.2909(2) 0.00784(10)
C9 C 0.07088(12) 0.2201(3) 0.06351(11)
S1 S 0.0000 -0.14201(8) 0.2500
O5 O 0.07896(13) -0.2429(2) 0.22937(9)
O6 O -0.02520(10) -0.0310(2) 0.18688(9)
O5C O -0.07896(13) -0.2429(2) 0.27063(9)
O6C O 0.02520(10) -0.0310(2) 0.31312(9)
O7 O 0.0000 0.3439(3) 0.2500
H8 H -0.024(5) 0.266(8) 0.286(3)
H8C H 0.024(5) 0.266(8) 0.214(3)
loop_
_geom_bond_atom_site_label_1
_geom_bond_atom_site_label_2
_geom_bond_site_symmetry_1
_geom_bond_site_symmetry_2
O1 H1 1_555 1_555
O2 C1 1_555 1_555
O3 C9 1_555 1_555
O4 H2 1_555 1_555
N1 H3 1_555 1_555
N2 H4 1_555 1_555
C1 O1 1_555 1_555
C2 C1 1_555 1_555
C3 C2 1_555 1_555
H5 C3 1_555 1_555
C4 N1 1_555 1_555
C5 N1 1_555 1_555
H6 C5 1_555 1_555
C6 N2 1_555 1_555
C7 C6 1_555 1_555
H7 C7 1_555 1_555
C8 C2 1_555 1_555
C9 O4 1_555 1_555
S1 O5 1_555 1_555
O6 S1 1_555 1_555
O7 H8 1_555 1_555
O5C S1 1_555 1_555
O6C S1 1_555 1_555
H8C O7 1_555 1_555
N2 C5 1_555 1_555
C3 C4 1_555 1_555
C4 C6 1_555 1_555
C7 C8 1_555 1_555
C8 C9 1_555 1_555

#END
