
#######################################################################
#
#                 Cambridge Crystallographic Data Centre
#                                CCDC 
#
#######################################################################
#
# If this CIF has been generated from an entry in the Cambridge 
# Structural Database, then it will include bibliographic, chemical, 
# crystal, experimental, refinement or atomic coordinate data resulting 
# from the CCDC's data processing and validation procedures.
#
#######################################################################

data_YOTSEG
_chemical_name_common            
'4-Formylphenyl 2,3,4,6-tetra-O-acetyl-beta-D-allopyranoside'
_chemical_formula_moiety         'C21 H24 O11'
_chemical_name_systematic        
'2-(Acetoxymethyl)-6-(4-formylphenoxy)-tetrahydro-2H-pyran-3,4,5-triyl triacetate'
_symmetry_cell_setting           monoclinic
_symmetry_space_group_name_H-M   'P 21'
_symmetry_Int_Tables_number      4
_space_group_name_Hall           'P 2yb'
loop_
_symmetry_equiv_pos_site_id
_symmetry_equiv_pos_as_xyz
1 x,y,z
2 -x,1/2+y,-z
_cell_length_a                   7.056(4)
_cell_length_b                   17.758(6)
_cell_length_c                   9.129(3)
_cell_angle_alpha                90
_cell_angle_beta                 102.80(4)
_cell_angle_gamma                90
_cell_volume                     1115.44
_exptl_crystal_colour            colorless
_exptl_crystal_description       block
_chemical_melting_point          '408-409 K'
_cell_formula_units_Z            2
_exptl_crystal_recrystallization_method ethanol
loop_
_atom_site_label
_atom_site_type_symbol
_atom_site_fract_x
_atom_site_fract_y
_atom_site_fract_z
O1 O 0.4950(3) 0.63276(10) 0.1617(2)
O2 O 0.2064(3) 0.55171(14) -0.0604(2)
O3 O 0.3692(5) 0.62506(18) -0.1903(3)
O4 O 0.2271(3) 0.48018(11) 0.2871(2)
O5 O -0.0540(3) 0.52455(15) 0.3289(4)
O6 O 0.5256(3) 0.54679(12) 0.5011(2)
O7 O 0.3283(4) 0.48347(14) 0.6212(3)
O8 O 0.5465(3) 0.69998(12) 0.5428(2)
O9 O 0.2909(5) 0.7687(2) 0.5597(4)
O10 O 0.6171(3) 0.74339(10) 0.2628(2)
O11 O 1.2834(4) 0.88786(18) -0.0222(3)
C1 C 0.5854(4) 0.66770(14) 0.2979(3)
H1 H 0.7070 0.6424 0.3454
C2 C 0.4428(4) 0.67009(15) 0.4018(3)
H2 H 0.3343 0.7036 0.3589
C3 C 0.3648(4) 0.59176(16) 0.4229(3)
H3 H 0.2627 0.5944 0.4801
C4 C 0.2873(4) 0.55657(15) 0.2697(3)
H4 H 0.1757 0.5858 0.2156
C5 C 0.4441(4) 0.55511(15) 0.1781(3)
H5 H 0.5581 0.5283 0.2352
C6 C 0.3858(4) 0.52131(17) 0.0245(3)
H6 H 0.4876 0.5304 -0.0293
H7 H 0.3723 0.4673 0.0338
C7 C 0.2171(6) 0.6017(2) -0.1706(4)
C8 C 0.0234(7) 0.6216(3) -0.2607(5)
H8 H 0.0274 0.6713 -0.3014
H9 H -0.0694 0.6204 -0.1981
H10 H -0.0141 0.5862 -0.3412
C9 C 0.0503(4) 0.47285(19) 0.3242(4)
C10 C 0.0162(6) 0.3927(2) 0.3635(5)
H11 H 0.0886 0.3821 0.4634
H12 H 0.0578 0.3596 0.2937
H13 H -0.1198 0.3851 0.3586
C11 C 0.4840(5) 0.49291(18) 0.5944(3)
C12 C 0.6629(7) 0.4484(3) 0.6583(6)
H14 H 0.7167 0.4648 0.7591
H15 H 0.7566 0.4557 0.5978
H16 H 0.6303 0.3959 0.6590
C13 C 0.4540(5) 0.75101(18) 0.6110(4)
C14 C 0.5769(7) 0.7780(3) 0.7549(5)
H17 H 0.5345 0.8273 0.7771
H18 H 0.7100 0.7804 0.7465
H19 H 0.5656 0.7439 0.8341
C15 C 0.7685(4) 0.75945(14) 0.1960(3)
C16 C 0.8011(4) 0.83541(16) 0.1761(3)
H20 H 0.7223 0.8714 0.2069
C17 C 0.9503(4) 0.85760(16) 0.1108(3)
H21 H 0.9704 0.9085 0.0961
C18 C 1.0703(4) 0.80472(17) 0.0669(3)
C19 C 1.0361(4) 0.72875(17) 0.0863(3)
H22 H 1.1167 0.6930 0.0568
C20 C 0.8838(4) 0.70516(16) 0.1487(3)
H23 H 0.8594 0.6542 0.1587
C21 C 1.2373(5) 0.8255(2) 0.0018(4)
H24 H 1.3126 0.7864 -0.0224
loop_
_geom_bond_atom_site_label_1
_geom_bond_atom_site_label_2
_geom_bond_site_symmetry_1
_geom_bond_site_symmetry_2
O1 C1 1_555 1_555
O2 C6 1_555 1_555
O3 C7 1_555 1_555
O4 C4 1_555 1_555
O5 C9 1_555 1_555
O6 C3 1_555 1_555
O7 C11 1_555 1_555
O8 C2 1_555 1_555
O9 C13 1_555 1_555
O10 C1 1_555 1_555
O11 C21 1_555 1_555
C1 H1 1_555 1_555
C2 C1 1_555 1_555
H2 C2 1_555 1_555
C3 C2 1_555 1_555
H3 C3 1_555 1_555
C4 C3 1_555 1_555
H4 C4 1_555 1_555
C5 O1 1_555 1_555
H5 C5 1_555 1_555
C6 C5 1_555 1_555
H6 C6 1_555 1_555
H7 C6 1_555 1_555
C7 O2 1_555 1_555
C8 C7 1_555 1_555
H8 C8 1_555 1_555
H9 C8 1_555 1_555
H10 C8 1_555 1_555
C9 O4 1_555 1_555
C10 C9 1_555 1_555
H11 C10 1_555 1_555
H12 C10 1_555 1_555
H13 C10 1_555 1_555
C11 O6 1_555 1_555
C12 C11 1_555 1_555
H14 C12 1_555 1_555
H15 C12 1_555 1_555
H16 C12 1_555 1_555
C13 O8 1_555 1_555
C14 C13 1_555 1_555
H17 C14 1_555 1_555
H18 C14 1_555 1_555
H19 C14 1_555 1_555
C15 O10 1_555 1_555
C16 C15 1_555 1_555
H20 C16 1_555 1_555
C17 C16 1_555 1_555
H21 C17 1_555 1_555
C18 C17 1_555 1_555
C19 C18 1_555 1_555
H22 C19 1_555 1_555
C20 C15 1_555 1_555
H23 C20 1_555 1_555
C21 C18 1_555 1_555
H24 C21 1_555 1_555
C4 C5 1_555 1_555
C19 C20 1_555 1_555

#END
