
#######################################################################
#
#                 Cambridge Crystallographic Data Centre
#                                CCDC 
#
#######################################################################
#
# If this CIF has been generated from an entry in the Cambridge 
# Structural Database, then it will include bibliographic, chemical, 
# crystal, experimental, refinement or atomic coordinate data resulting 
# from the CCDC's data processing and validation procedures.
#
#######################################################################

data_YOTSAC
_chemical_formula_moiety         'C60 H70 N2 O10,4(C2 H3 N1)'
_chemical_name_systematic        
'5,11,17,23-Tetra-t-butyl-25,27-bis[2-(4-nitrophenoxy)ethoxy]calix[4]arene-26,28-diol acetonitrile solvate'
_symmetry_cell_setting           triclinic
_symmetry_space_group_name_H-M   'P -1'
_symmetry_Int_Tables_number      2
_space_group_name_Hall           '-P 1'
loop_
_symmetry_equiv_pos_site_id
_symmetry_equiv_pos_as_xyz
1 x,y,z
2 -x,-y,-z
_cell_length_a                   13.195(3)
_cell_length_b                   13.388(3)
_cell_length_c                   19.692(5)
_cell_angle_alpha                71.978(3)
_cell_angle_beta                 84.022(3)
_cell_angle_gamma                82.230(3)
_cell_volume                     3270.46
_exptl_crystal_colour            colorless
_exptl_crystal_description       block
_chemical_melting_point          '397-399 K'
_cell_formula_units_Z            2
_exptl_crystal_recrystallization_method acetonitrile
loop_
_atom_site_label
_atom_site_type_symbol
_atom_site_fract_x
_atom_site_fract_y
_atom_site_fract_z
C1 C 0.2547(7) 0.3466(10) 0.8947(5)
H1 H 0.2256 0.3367 0.9428
H2 H 0.2453 0.2872 0.8795
H3 H 0.2213 0.4099 0.8635
C2 C 0.3929(11) 0.4421(10) 0.9200(6)
H4 H 0.4656 0.4430 0.9201
H5 H 0.3626 0.4301 0.9679
H6 H 0.3636 0.5088 0.8901
C3 C 0.4147(10) 0.2469(7) 0.9405(5)
H7 H 0.4877 0.2435 0.9416
H8 H 0.3988 0.1930 0.9217
H9 H 0.3834 0.2361 0.9881
C4 C 0.3731(5) 0.3569(5) 0.8920(3)
C5 C 0.4236(4) 0.3688(4) 0.8157(3)
C6 C 0.3685(4) 0.3745(4) 0.7580(3)
H10 H 0.2978 0.3740 0.7649
C7 C 0.4149(4) 0.3810(4) 0.6897(3)
C8 C 0.5219(4) 0.3828(4) 0.6790(2)
C9 C 0.5803(4) 0.3783(4) 0.7355(3)
C10 C 0.5309(4) 0.3711(4) 0.8028(3)
H11 H 0.5698 0.3677 0.8404
C11 C 0.6975(4) 0.3713(4) 0.7274(3)
H12 H 0.7194 0.4094 0.6787
H13 H 0.7218 0.4040 0.7594
C12 C 0.7438(3) 0.2563(4) 0.7448(3)
C13 C 0.7655(3) 0.2053(4) 0.6906(2)
C14 C 0.7975(3) 0.0963(4) 0.7087(3)
C15 C 0.8073(3) 0.0420(4) 0.7807(3)
H14 H 0.8274 -0.0303 0.7932
C16 C 0.7887(4) 0.0896(4) 0.8355(3)
C17 C 0.7542(4) 0.1987(4) 0.8148(3)
H15 H 0.7381 0.2324 0.8500
C18 C 0.8001(4) 0.0302(4) 0.9147(3)
C19 C 0.6944(5) 0.0345(6) 0.9561(3)
H16 H 0.6659 0.1069 0.9476
H17 H 0.7022 0.0024 1.0064
H18 H 0.6494 -0.0029 0.9400
C20 C 0.8751(5) 0.0844(6) 0.9452(3)
H19 H 0.9420 0.0787 0.9214
H20 H 0.8790 0.0502 0.9956
H21 H 0.8502 0.1577 0.9371
C21 C 0.8431(6) -0.0850(5) 0.9263(3)
H22 H 0.7986 -0.1193 0.9073
H23 H 0.8476 -0.1200 0.9766
H24 H 0.9101 -0.0883 0.9024
C22 C 0.8396(4) 0.2765(4) 0.5701(3)
H25 H 0.8345 0.2354 0.5380
H26 H 0.9016 0.2491 0.5953
C23 C 0.8444(4) 0.3907(4) 0.5278(3)
H27 H 0.8990 0.3969 0.4902
H28 H 0.7802 0.4200 0.5058
C24 C 0.8708(3) 0.5528(4) 0.5498(3)
C25 C 0.8717(5) 0.6058(5) 0.6011(3)
H29 H 0.8677 0.5678 0.6494
C26 C 0.8784(5) 0.7130(5) 0.5813(3)
H30 H 0.8787 0.7473 0.6157
C27 C 0.8846(4) 0.7684(4) 0.5092(3)
C28 C 0.8843(4) 0.7170(4) 0.4582(3)
H31 H 0.8900 0.7550 0.4099
C29 C 0.8755(4) 0.6102(4) 0.4779(3)
H32 H 0.8727 0.5769 0.4432
C30 C 0.8120(3) 0.0326(4) 0.6552(3)
H33 H 0.8727 -0.0178 0.6652
H34 H 0.8221 0.0799 0.6071
C31 C 0.7182(3) -0.0269(4) 0.6594(2)
C32 C 0.6346(4) 0.0221(4) 0.6168(2)
C33 C 0.5466(4) -0.0287(4) 0.6241(2)
C34 C 0.5401(4) -0.1265(4) 0.6752(3)
H35 H 0.4806 -0.1592 0.6805
C35 C 0.6199(4) -0.1770(4) 0.7186(3)
C36 C 0.7094(4) -0.1248(4) 0.7083(3)
H36 H 0.7644 -0.1581 0.7358
C37 C 0.6147(5) -0.2837(4) 0.7760(3)
C38 C 0.6961(6) -0.3656(5) 0.7568(4)
H37 H 0.6818 -0.3745 0.7123
H38 H 0.6947 -0.4319 0.7938
H39 H 0.7626 -0.3417 0.7522
C39 C 0.6358(6) -0.2736(5) 0.8489(3)
H40 H 0.7029 -0.2519 0.8461
H41 H 0.6321 -0.3406 0.8849
H42 H 0.5855 -0.2219 0.8611
C40 C 0.5086(5) -0.3241(6) 0.7832(4)
H43 H 0.4562 -0.2715 0.7918
H44 H 0.5065 -0.3879 0.8225
H45 H 0.4971 -0.3382 0.7399
C41 C 0.4530(4) 0.0235(4) 0.5799(3)
H46 H 0.4764 0.0657 0.5327
H47 H 0.4163 -0.0311 0.5741
C42 C 0.3802(3) 0.0938(4) 0.6162(3)
C43 C 0.3087(4) 0.0466(4) 0.6706(3)
H48 H 0.3024 -0.0250 0.6812
C44 C 0.2465(4) 0.1071(4) 0.7093(3)
C45 C 0.2605(4) 0.2121(4) 0.6934(3)
H49 H 0.2208 0.2516 0.7198
C46 C 0.3309(3) 0.2633(4) 0.6397(2)
C47 C 0.3896(3) 0.2003(4) 0.6010(2)
C48 C 0.1656(4) 0.0584(5) 0.7686(3)
C49 C 0.1701(7) -0.0603(6) 0.7842(5)
H50 H 0.1507 -0.0758 0.7432
H51 H 0.1237 -0.0880 0.8246
H52 H 0.2385 -0.0922 0.7946
C50 C 0.0580(5) 0.1101(7) 0.7444(4)
H53 H 0.0553 0.1855 0.7333
H54 H 0.0073 0.0845 0.7823
H55 H 0.0446 0.0925 0.7028
C51 C 0.1810(5) 0.0845(6) 0.8371(3)
H56 H 0.2480 0.0550 0.8529
H57 H 0.1301 0.0550 0.8737
H58 H 0.1744 0.1597 0.8277
C52 C 0.3504(4) 0.3764(4) 0.6306(3)
H59 H 0.2854 0.4196 0.6321
H60 H 0.3859 0.4050 0.5843
C53 C 0.4231(4) 0.2907(5) 0.4771(3)
H61 H 0.3676 0.3462 0.4771
H62 H 0.3975 0.2360 0.4630
C54 C 0.5112(4) 0.3343(4) 0.4267(3)
H63 H 0.4889 0.3668 0.3787
H64 H 0.5384 0.3871 0.4420
C55 C 0.6794(4) 0.2639(4) 0.3893(3)
C56 C 0.6960(4) 0.3571(4) 0.3360(3)
H65 H 0.6447 0.4135 0.3263
C57 C 0.7906(5) 0.3650(5) 0.2974(4)
H66 H 0.8027 0.4267 0.2611
C58 C 0.8660(4) 0.2816(4) 0.3128(3)
C59 C 0.8509(4) 0.1895(4) 0.3659(3)
H67 H 0.9027 0.1336 0.3756
C60 C 0.7566(4) 0.1811(4) 0.4049(3)
H68 H 0.7456 0.1196 0.4417
N1 N 0.9639(4) 0.2891(4) 0.2696(3)
N2 N 0.8937(4) 0.8818(4) 0.4872(3)
O1 O 0.6488(2) 0.1190(3) 0.56909(18)
H81 H 0.5930 0.1536 0.5602
O2 O 0.5649(3) 0.3939(3) 0.61067(17)
H82 H 0.6211 0.3589 0.6125
O3 O 0.4624(2) 0.2478(3) 0.54692(16)
O4 O 0.7515(2) 0.2675(2) 0.62072(16)
O5 O 0.8632(3) 0.4473(3) 0.57552(17)
O6 O 0.5876(2) 0.2470(3) 0.42839(18)
O7 O 0.9145(6) 0.9262(4) 0.4246(3)
O8 O 0.8850(6) 0.9283(4) 0.5324(3)
O9 O 1.0274(4) 0.2139(5) 0.2778(4)
O10 O 0.9803(4) 0.3736(5) 0.2274(4)
C61 C 1.0401(8) 0.6203(8) 0.1833(6)
H69 H 1.0938 0.5636 0.1852
H70 H 1.0696 0.6843 0.1777
H71 H 0.9998 0.6295 0.1435
C62 C 0.9756(6) 0.5953(7) 0.2489(6)
N3 N 0.9248(6) 0.5756(7) 0.3004(5)
C63 C 0.7033(10) 0.2776(8) 1.0540(4)
H72 H 0.7504 0.2147 1.0597
H73 H 0.6344 0.2588 1.0645
H74 H 0.7179 0.3141 1.0862
C64 C 0.7141(6) 0.3450(6) 0.9816(4)
N5 N 0.7228(7) 0.3959(6) 0.9247(4)
C65 C 0.5154(4) 0.0915(5) 0.7801(3)
H75 H 0.4639 0.1254 0.7469
H76 H 0.5748 0.0659 0.7553
H77 H 0.5338 0.1413 0.8015
C66 C 0.4757(5) 0.0040(5) 0.8351(4)
N4 N 0.4436(6) -0.0641(6) 0.8780(5)
C67 C 1.0242(10) 0.3631(11) 0.0428(9)
C68 C 1.1128(8) 0.3882(10) 0.0768(6)
H78 H 1.1753 0.3493 0.0652
H79 H 1.0995 0.3686 0.1278
H80 H 1.1194 0.4625 0.0587
N6 N 0.9436(18) 0.342(2) 0.031(2)
C69? C 0.443(2) 0.382(3) 0.9414(12)
C70? C 0.321(3) 0.2532(16) 0.9184(16)
C71? C 0.2903(18) 0.4530(16) 0.8839(13)
H83? H 0.4054 0.3841 0.9854
H84? H 0.4680 0.4496 0.9180
H85? H 0.5007 0.3285 0.9515
H86? H 0.2713 0.2549 0.8857
H87? H 0.2878 0.2466 0.9651
H88? H 0.3721 0.1940 0.9208
H89? H 0.3229 0.5170 0.8691
H90? H 0.2522 0.4472 0.9289
H91? H 0.2448 0.4545 0.8486
loop_
_geom_bond_atom_site_label_1
_geom_bond_atom_site_label_2
_geom_bond_site_symmetry_1
_geom_bond_site_symmetry_2
C1 H1 1_555 1_555
H2 C1 1_555 1_555
H3 C1 1_555 1_555
C2 H4 1_555 1_555
H5 C2 1_555 1_555
H6 C2 1_555 1_555
C3 H7 1_555 1_555
H8 C3 1_555 1_555
H9 C3 1_555 1_555
C4 C1 1_555 1_555
C5 C4 1_555 1_555
C6 C5 1_555 1_555
H10 C6 1_555 1_555
C7 C6 1_555 1_555
C8 C7 1_555 1_555
C9 C8 1_555 1_555
C10 C5 1_555 1_555
H11 C10 1_555 1_555
C11 C9 1_555 1_555
H12 C11 1_555 1_555
H13 C11 1_555 1_555
C12 C11 1_555 1_555
C13 C12 1_555 1_555
C14 C13 1_555 1_555
C15 C14 1_555 1_555
H14 C15 1_555 1_555
C16 C15 1_555 1_555
C17 C12 1_555 1_555
H15 C17 1_555 1_555
C18 C16 1_555 1_555
C19 C18 1_555 1_555
H16 C19 1_555 1_555
H17 C19 1_555 1_555
H18 C19 1_555 1_555
C20 C18 1_555 1_555
H19 C20 1_555 1_555
H20 C20 1_555 1_555
H21 C20 1_555 1_555
C21 C18 1_555 1_555
H22 C21 1_555 1_555
H23 C21 1_555 1_555
H24 C21 1_555 1_555
C22 H25 1_555 1_555
H26 C22 1_555 1_555
C23 C22 1_555 1_555
H27 C23 1_555 1_555
H28 C23 1_555 1_555
C24 C25 1_555 1_555
C25 H29 1_555 1_555
C26 C25 1_555 1_555
H30 C26 1_555 1_555
C27 C26 1_555 1_555
C28 C27 1_555 1_555
H31 C28 1_555 1_555
C29 C24 1_555 1_555
H32 C29 1_555 1_555
C30 C14 1_555 1_555
H33 C30 1_555 1_555
H34 C30 1_555 1_555
C31 C30 1_555 1_555
C32 C31 1_555 1_555
C33 C32 1_555 1_555
C34 C33 1_555 1_555
H35 C34 1_555 1_555
C35 C34 1_555 1_555
C36 C31 1_555 1_555
H36 C36 1_555 1_555
C37 C35 1_555 1_555
C38 C37 1_555 1_555
H37 C38 1_555 1_555
H38 C38 1_555 1_555
H39 C38 1_555 1_555
C39 C37 1_555 1_555
H40 C39 1_555 1_555
H41 C39 1_555 1_555
H42 C39 1_555 1_555
C40 C37 1_555 1_555
H43 C40 1_555 1_555
H44 C40 1_555 1_555
H45 C40 1_555 1_555
C41 C33 1_555 1_555
H46 C41 1_555 1_555
H47 C41 1_555 1_555
C42 C41 1_555 1_555
C43 C42 1_555 1_555
H48 C43 1_555 1_555
C44 C43 1_555 1_555
C45 C44 1_555 1_555
H49 C45 1_555 1_555
C46 C45 1_555 1_555
C47 C42 1_555 1_555
C48 C44 1_555 1_555
C49 C48 1_555 1_555
H50 C49 1_555 1_555
H51 C49 1_555 1_555
H52 C49 1_555 1_555
C50 C48 1_555 1_555
H53 C50 1_555 1_555
H54 C50 1_555 1_555
H55 C50 1_555 1_555
C51 C48 1_555 1_555
H56 C51 1_555 1_555
H57 C51 1_555 1_555
H58 C51 1_555 1_555
C52 C7 1_555 1_555
H59 C52 1_555 1_555
H60 C52 1_555 1_555
C53 H61 1_555 1_555
H62 C53 1_555 1_555
C54 C53 1_555 1_555
H63 C54 1_555 1_555
H64 C54 1_555 1_555
C55 C56 1_555 1_555
C56 H65 1_555 1_555
C57 C56 1_555 1_555
H66 C57 1_555 1_555
C58 C57 1_555 1_555
C59 C58 1_555 1_555
H67 C59 1_555 1_555
C60 C55 1_555 1_555
H68 C60 1_555 1_555
C61 H69 1_555 1_555
H70 C61 1_555 1_555
H71 C61 1_555 1_555
C62 C61 1_555 1_555
C63 H72 1_555 1_555
H73 C63 1_555 1_555
H74 C63 1_555 1_555
C64 C63 1_555 1_555
C65 H75 1_555 1_555
H76 C65 1_555 1_555
H77 C65 1_555 1_555
C66 C65 1_555 1_555
C67 C68 1_555 1_555
C68 H78 1_555 1_555
H79 C68 1_555 1_555
H80 C68 1_555 1_555
N1 C58 1_555 1_555
N2 C27 1_555 1_555
N3 C62 1_555 1_555
N4 C66 1_555 1_555
N5 C64 1_555 1_555
N6 C67 1_555 1_555
O1 C32 1_555 1_555
H81 O1 1_555 1_555
O2 C8 1_555 1_555
H82 O2 1_555 1_555
O3 C47 1_555 1_555
O4 C13 1_555 1_555
O5 C23 1_555 1_555
O6 C54 1_555 1_555
O7 N2 1_555 1_555
O8 N2 1_555 1_555
O9 N1 1_555 1_555
O10 N1 1_555 1_555
C2 C4 1_555 1_555
C3 C4 1_555 1_555
C9 C10 1_555 1_555
C16 C17 1_555 1_555
C22 O4 1_555 1_555
C24 O5 1_555 1_555
C28 C29 1_555 1_555
C35 C36 1_555 1_555
C46 C47 1_555 1_555
C46 C52 1_555 1_555
C53 O3 1_555 1_555
C55 O6 1_555 1_555
C59 C60 1_555 1_555

#END
