
#######################################################################
#
#                 Cambridge Crystallographic Data Centre
#                                CCDC 
#
#######################################################################
#
# If this CIF has been generated from an entry in the Cambridge 
# Structural Database, then it will include bibliographic, chemical, 
# crystal, experimental, refinement or atomic coordinate data resulting 
# from the CCDC's data processing and validation procedures.
#
#######################################################################

data_YOTTIL
_chemical_formula_moiety         'C11 H14 N2 O1'
_chemical_name_systematic        
2,2,7-Trimethyl-2,3-dihydroquinazolin-4(1H)-one
_symmetry_cell_setting           orthorhombic
_symmetry_space_group_name_H-M   'P b c a'
_symmetry_Int_Tables_number      61
_space_group_name_Hall           '-P 2ac 2ab'
loop_
_symmetry_equiv_pos_site_id
_symmetry_equiv_pos_as_xyz
1 x,y,z
2 1/2-x,-y,1/2+z
3 -x,1/2+y,1/2-z
4 1/2+x,1/2-y,-z
5 -x,-y,-z
6 1/2+x,y,1/2-z
7 x,1/2-y,1/2+z
8 1/2-x,1/2+y,z
_cell_length_a                   19.538(4)
_cell_length_b                   10.104(2)
_cell_length_c                   20.735(4)
_cell_angle_alpha                90
_cell_angle_beta                 90
_cell_angle_gamma                90
_cell_volume                     4093.34
_exptl_crystal_colour            colorless
_exptl_crystal_description       rhombic
_chemical_melting_point          539-540K
_cell_formula_units_Z            16
_exptl_crystal_recrystallization_method 'ethanol/ethyl acetate'
loop_
_atom_site_label
_atom_site_type_symbol
_atom_site_fract_x
_atom_site_fract_y
_atom_site_fract_z
O1 O 0.12627(5) 0.35620(10) 0.25627(5)
N1 N -0.01899(6) 0.63561(12) 0.26515(5)
N2 N 0.05728(6) 0.50293(12) 0.20547(6)
C1 C 0.01921(7) 0.61666(14) 0.32076(6)
C2 C 0.00343(7) 0.67890(14) 0.37919(7)
H1 H -0.0325 0.7392 0.3807
C3 C 0.04036(8) 0.65240(15) 0.43478(7)
C4 C 0.09473(8) 0.56177(16) 0.43222(7)
H2 H 0.1201 0.5440 0.4692
C5 C 0.11057(8) 0.49918(15) 0.37522(7)
H3 H 0.1464 0.4386 0.3740
C6 C 0.07354(7) 0.52554(13) 0.31920(6)
C7 C 0.08837(7) 0.45605(13) 0.25853(6)
C8 C 0.01727(7) 0.62612(14) 0.20330(6)
C9 C -0.03515(8) 0.61367(16) 0.14934(7)
H4 H -0.0645 0.5394 0.1577
H5 H -0.0119 0.6008 0.1090
H6 H -0.0621 0.6930 0.1473
C10 C 0.06439(7) 0.74473(15) 0.19217(7)
H7 H 0.0374 0.8237 0.1883
H8 H 0.0901 0.7315 0.1533
H9 H 0.0952 0.7534 0.2280
C11 C 0.02288(9) 0.72142(19) 0.49722(7)
H10 H -0.0050 0.7975 0.4883
H11 H 0.0643 0.7490 0.5183
H12 H -0.0017 0.6617 0.5248
H25 H -0.0488(7) 0.7022(12) 0.2664(8)
H26 H 0.0715(9) 0.4736(18) 0.1667(6)
O2 O 0.12436(5) 0.41999(10) 0.08661(5)
N3 N 0.27303(6) 0.14582(12) 0.08958(6)
N4 N 0.18129(6) 0.25660(11) 0.13865(6)
C12 C 0.25326(7) 0.19204(14) 0.02964(6)
C13 C 0.28991(7) 0.16131(14) -0.02662(7)
H13 H 0.3286 0.1079 -0.0238
C14 C 0.26961(7) 0.20891(15) -0.08615(7)
C15 C 0.21162(7) 0.29057(15) -0.09035(7)
H14 H 0.1971 0.3218 -0.1303
C16 C 0.17618(7) 0.32435(14) -0.03528(7)
H15 H 0.1382 0.3796 -0.0383
C17 C 0.19642(7) 0.27684(14) 0.02505(7)
C18 C 0.16363(7) 0.32180(13) 0.08495(6)
C19 C 0.21890(7) 0.13021(14) 0.13797(7)
C20 C 0.16986(8) 0.01709(14) 0.12152(7)
H16 H 0.1342 0.0131 0.1533
H17 H 0.1945 -0.0651 0.1212
H18 H 0.1501 0.0322 0.0798
C21 C 0.25077(8) 0.10928(16) 0.20382(7)
H19 H 0.2808 0.1818 0.2135
H20 H 0.2763 0.0281 0.2038
H21 H 0.2153 0.1047 0.2358
C22 C 0.30798(8) 0.17113(17) -0.14637(7)
H22 H 0.3335 0.2460 -0.1617
H23 H 0.2761 0.1436 -0.1789
H24 H 0.3388 0.0998 -0.1369
H27 H 0.3037(7) 0.0800(13) 0.0885(8)
H28 H 0.1643(9) 0.2814(18) 0.1770(6)
loop_
_geom_bond_atom_site_label_1
_geom_bond_atom_site_label_2
_geom_bond_site_symmetry_1
_geom_bond_site_symmetry_2
O1 C7 1_555 1_555
O2 C18 1_555 1_555
N1 C1 1_555 1_555
N2 C7 1_555 1_555
N3 C12 1_555 1_555
N4 C18 1_555 1_555
C1 C2 1_555 1_555
C2 H1 1_555 1_555
C3 C2 1_555 1_555
C4 C3 1_555 1_555
H2 C4 1_555 1_555
C5 C4 1_555 1_555
H3 C5 1_555 1_555
C6 C1 1_555 1_555
C7 C6 1_555 1_555
C8 N1 1_555 1_555
C9 C8 1_555 1_555
H4 C9 1_555 1_555
H5 C9 1_555 1_555
H6 C9 1_555 1_555
C10 C8 1_555 1_555
H7 C10 1_555 1_555
H8 C10 1_555 1_555
H9 C10 1_555 1_555
C11 C3 1_555 1_555
H10 C11 1_555 1_555
H11 C11 1_555 1_555
H12 C11 1_555 1_555
C12 C13 1_555 1_555
C13 H13 1_555 1_555
C14 C13 1_555 1_555
C15 C14 1_555 1_555
H14 C15 1_555 1_555
C16 C15 1_555 1_555
H15 C16 1_555 1_555
C17 C12 1_555 1_555
C18 C17 1_555 1_555
C19 N3 1_555 1_555
C20 C19 1_555 1_555
H16 C20 1_555 1_555
H17 C20 1_555 1_555
H18 C20 1_555 1_555
C21 C19 1_555 1_555
H19 C21 1_555 1_555
H20 C21 1_555 1_555
H21 C21 1_555 1_555
C22 C14 1_555 1_555
H22 C22 1_555 1_555
H23 C22 1_555 1_555
H24 C22 1_555 1_555
H25 N1 1_555 1_555
H26 N2 1_555 1_555
H27 N3 1_555 1_555
H28 N4 1_555 1_555
N2 C8 1_555 1_555
N4 C19 1_555 1_555
C5 C6 1_555 1_555
C16 C17 1_555 1_555

#END
