
#######################################################################
#
#                 Cambridge Crystallographic Data Centre
#                                CCDC 
#
#######################################################################
#
# If this CIF has been generated from an entry in the Cambridge 
# Structural Database, then it will include bibliographic, chemical, 
# crystal, experimental, refinement or atomic coordinate data resulting 
# from the CCDC's data processing and validation procedures.
#
#######################################################################

data_YOTVUZ
_chemical_formula_moiety         'C20 H13 F1 N2 O1'
_chemical_name_systematic        
4-(4-Fluorophenyl)-2-oxo-1,2,5,6-tetrahydrobenzo[h]quinoline-3-carbonitrile
_symmetry_cell_setting           triclinic
_symmetry_space_group_name_H-M   'P -1'
_symmetry_Int_Tables_number      2
_space_group_name_Hall           '-P 1'
loop_
_symmetry_equiv_pos_site_id
_symmetry_equiv_pos_as_xyz
1 x,y,z
2 -x,-y,-z
_cell_length_a                   8.116(10)
_cell_length_b                   9.278(12)
_cell_length_c                   11.263(14)
_cell_angle_alpha                98.674(19)
_cell_angle_beta                 105.095(17)
_cell_angle_gamma                104.846(18)
_cell_volume                     769.706
_exptl_crystal_colour            colorless
_exptl_crystal_description       block
_cell_formula_units_Z            2
loop_
_atom_site_label
_atom_site_type_symbol
_atom_site_fract_x
_atom_site_fract_y
_atom_site_fract_z
F1 F 0.2899(2) 0.4261(2) -0.18711(16)
N1 N 0.2029(3) 0.1315(2) 0.45914(18)
H1 H 0.1926 0.0948 0.5235
N2 N -0.2136(3) 0.1660(3) 0.0916(2)
O1 O -0.100(2) 0.0203(19) 0.3604(16)
C1 C 0.0482(3) 0.1170(3) 0.3667(2)
C2 C 0.0742(3) 0.1847(3) 0.2646(2)
C3 C 0.2423(3) 0.2493(3) 0.2576(2)
C4 C 0.3947(3) 0.2594(3) 0.3564(2)
C5 C 0.3716(3) 0.1991(3) 0.4576(2)
C6 C 0.5250(3) 0.2014(3) 0.5626(2)
C7 C 0.5053(4) 0.1393(3) 0.6645(2)
H2 H 0.3908 0.0975 0.6694
C8 C 0.6514(4) 0.1387(3) 0.7579(2)
H3 H 0.6354 0.0973 0.8259
C9 C 0.8191(4) 0.1978(3) 0.7521(3)
H4 H 0.9181 0.1954 0.8149
C10 C 0.8420(4) 0.2613(4) 0.6529(3)
H5 H 0.9575 0.3021 0.6496
C11 C 0.6977(4) 0.2660(3) 0.5580(2)
C12 C 0.7237(10) 0.3759(13) 0.4687(7)
H6 H 0.7097 0.4729 0.5027
H7 H 0.8432 0.3954 0.4608
C13 C 0.5852(10) 0.3014(12) 0.3417(7)
H8 H 0.6068 0.2095 0.3046
H9 H 0.5936 0.3710 0.2858
C14 C 0.2601(3) 0.3026(3) 0.1417(2)
C15 C 0.2276(4) 0.4341(3) 0.1176(3)
H10 H 0.1976 0.4956 0.1764
C16 C 0.2388(4) 0.4774(4) 0.0065(3)
H11 H 0.2165 0.5671 -0.0098
C17 C 0.2827(4) 0.3865(4) -0.0771(3)
C18 C 0.3162(4) 0.2565(4) -0.0566(3)
H12 H 0.3456 0.1957 -0.1163
C19 C 0.3064(4) 0.2146(4) 0.0539(3)
H13 H 0.3314 0.1256 0.0696
C20 C -0.0853(4) 0.1739(3) 0.1674(2)
C21? C 0.7151(13) 0.2943(16) 0.4310(10)
C22? C 0.5770(13) 0.3675(14) 0.3755(13)
H14? H 0.8345 0.3611 0.4429
H15? H 0.6964 0.1979 0.3740
H16? H 0.5955 0.4640 0.4323
H17? H 0.5872 0.3880 0.2953
O2? O -0.101(3) 0.0761(19) 0.3875(16)
loop_
_geom_bond_atom_site_label_1
_geom_bond_atom_site_label_2
_geom_bond_site_symmetry_1
_geom_bond_site_symmetry_2
F1 C17 1_555 1_555
N1 H1 1_555 1_555
N2 C20 1_555 1_555
O1 C1 1_555 1_555
C1 N1 1_555 1_555
C2 C1 1_555 1_555
C3 C2 1_555 1_555
C4 C3 1_555 1_555
C5 N1 1_555 1_555
C6 C5 1_555 1_555
C7 C6 1_555 1_555
H2 C7 1_555 1_555
C8 C7 1_555 1_555
H3 C8 1_555 1_555
C9 C8 1_555 1_555
H4 C9 1_555 1_555
C10 C9 1_555 1_555
H5 C10 1_555 1_555
C11 C6 1_555 1_555
C12 C11 1_555 1_555
H6 C12 1_555 1_555
H7 C12 1_555 1_555
C13 C4 1_555 1_555
H8 C13 1_555 1_555
H9 C13 1_555 1_555
C14 C3 1_555 1_555
C15 C14 1_555 1_555
H10 C15 1_555 1_555
C16 C15 1_555 1_555
H11 C16 1_555 1_555
C17 C16 1_555 1_555
C18 C17 1_555 1_555
H12 C18 1_555 1_555
C19 C14 1_555 1_555
H13 C19 1_555 1_555
C20 C2 1_555 1_555
C4 C5 1_555 1_555
C10 C11 1_555 1_555
C12 C13 1_555 1_555
C18 C19 1_555 1_555

#END
