
#######################################################################
#
#                 Cambridge Crystallographic Data Centre
#                                CCDC 
#
#######################################################################
#
# If this CIF has been generated from an entry in the Cambridge 
# Structural Database, then it will include bibliographic, chemical, 
# crystal, experimental, refinement or atomic coordinate data resulting 
# from the CCDC's data processing and validation procedures.
#
#######################################################################

data_YOTXIP
_chemical_compound_source        'bark of Buddleja davidii'
_chemical_formula_moiety         'C18 H28 O4'
_chemical_name_systematic        
2\a-Acetoxy-5\a-methoxycaryophyll-8(15)-en-3-one
_symmetry_cell_setting           orthorhombic
_symmetry_space_group_name_H-M   'P 21 21 21'
_symmetry_Int_Tables_number      19
_space_group_name_Hall           'P 2ac 2ab'
loop_
_symmetry_equiv_pos_site_id
_symmetry_equiv_pos_as_xyz
1 x,y,z
2 1/2-x,-y,1/2+z
3 -x,1/2+y,1/2-z
4 1/2+x,1/2-y,-z
_cell_length_a                   9.2924(19)
_cell_length_b                   17.858(4)
_cell_length_c                   21.451(4)
_cell_angle_alpha                90
_cell_angle_beta                 90
_cell_angle_gamma                90
_cell_volume                     3559.66
_exptl_crystal_colour            colorless
_exptl_crystal_description       plate
_cell_formula_units_Z            8
loop_
_atom_site_label
_atom_site_type_symbol
_atom_site_fract_x
_atom_site_fract_y
_atom_site_fract_z
O1 O 0.5582(3) 0.12567(11) 0.81709(10)
O2 O 0.7395(3) 0.20496(12) 0.83806(13)
O3 O 0.6143(3) 0.17341(12) 0.69939(10)
O4 O 0.4326(3) 0.42123(11) 0.71852(11)
C1 C 0.0120(5) 0.2194(2) 0.6862(2)
H1 H -0.0571 0.2055 0.7154
H2 H -0.0153 0.2311 0.6457
C2 C 0.1489(4) 0.22230(19) 0.70240(18)
C3 C 0.1944(4) 0.20341(18) 0.76783(17)
H3 H 0.2034 0.2496 0.7922
C4 C 0.3297(4) 0.15383(17) 0.77841(15)
H4 H 0.3386 0.1188 0.7434
C5 C 0.4763(4) 0.18797(15) 0.79133(15)
H5 H 0.4674 0.2278 0.8225
C6 C 0.5546(4) 0.21756(17) 0.73375(15)
C7 C 0.5603(4) 0.30145(16) 0.72253(16)
H6 H 0.6109 0.3225 0.7586
C8 C 0.4135(4) 0.34110(16) 0.72065(16)
H7 H 0.3590 0.3280 0.7582
C9 C 0.3222(4) 0.32443(19) 0.66349(18)
H8 H 0.3793 0.3358 0.6269
H9 H 0.2412 0.3587 0.6637
C10 C 0.2631(4) 0.24503(19) 0.65604(16)
H10 H 0.2234 0.2402 0.6144
H11 H 0.3427 0.2101 0.6593
C11 C 0.1069(4) 0.1455(2) 0.80510(18)
H12 H 0.0552 0.1101 0.7791
H13 H 0.0434 0.1676 0.8359
C12 C 0.2483(4) 0.11359(18) 0.83302(16)
C13 C 0.2632(4) 0.02850(17) 0.83394(17)
H14 H 0.1978 0.0079 0.8640
H15 H 0.3600 0.0153 0.8450
H16 H 0.2412 0.0088 0.7934
C14 C 0.2787(5) 0.1458(2) 0.89726(17)
H17 H 0.3761 0.1347 0.9089
H18 H 0.2140 0.1239 0.9270
H19 H 0.2651 0.1990 0.8964
C15 C 0.6904(4) 0.14231(19) 0.83953(16)
C16 C 0.7598(4) 0.07496(18) 0.86604(17)
H20 H 0.7709 0.0811 0.9102
H21 H 0.8527 0.0682 0.8472
H22 H 0.7010 0.0319 0.8579
C17 C 0.6540(4) 0.31971(19) 0.6662(2)
H23 H 0.6494 0.3725 0.6579
H24 H 0.6198 0.2925 0.6306
H25 H 0.7518 0.3057 0.6748
C18 C 0.4817(5) 0.45335(18) 0.77483(17)
H26 H 0.5807 0.4400 0.7814
H27 H 0.4246 0.4350 0.8089
H28 H 0.4732 0.5069 0.7725
O5 O 0.8704(3) 0.08791(11) 0.03030(10)
O6 O 0.8493(3) 0.16830(12) 0.11031(12)
O7 O 0.5906(3) 0.12357(12) 0.00668(11)
O8 O 0.4325(3) 0.03567(13) 0.20611(11)
C19 C 0.4679(5) -0.1737(2) 0.00807(18)
H29 H 0.3720 -0.1800 -0.0032
H30 H 0.5337 -0.2121 0.0014
C20 C 0.5109(4) -0.10977(19) 0.03360(16)
C21 C 0.6660(4) -0.09676(17) 0.05160(15)
H31 H 0.6735 -0.0954 0.0972
C22 C 0.7481(4) -0.02867(16) 0.02388(14)
H32 H 0.7126 -0.0188 -0.0183
C23 C 0.7560(4) 0.04451(16) 0.05969(15)
H33 H 0.7796 0.0348 0.1035
C24 C 0.6160(4) 0.09050(17) 0.05509(16)
C25 C 0.5209(4) 0.09690(19) 0.11215(17)
H34 H 0.5758 0.1268 0.1422
C26 C 0.4905(4) 0.02218(17) 0.14503(15)
H35 H 0.5805 -0.0060 0.1489
C27 C 0.3779(4) -0.0270(2) 0.11343(17)
H36 H 0.2858 -0.0016 0.1162
H37 H 0.3699 -0.0731 0.1370
C28 C 0.4044(4) -0.0475(2) 0.04438(16)
H38 H 0.3133 -0.0618 0.0258
H39 H 0.4382 -0.0032 0.0227
C29 C 0.7857(4) -0.14730(18) 0.02549(18)
H40 H 0.7620 -0.1700 -0.0143
H41 H 0.8193 -0.1847 0.0549
C30 C 0.8868(4) -0.07856(17) 0.01989(16)
C31 C 0.9849(4) -0.0714(2) 0.07619(16)
H42 H 1.0303 -0.0232 0.0759
H43 H 1.0572 -0.1098 0.0747
H44 H 0.9292 -0.0769 0.1136
C32 C 0.9716(5) -0.0720(2) -0.04019(17)
H45 H 1.0432 -0.1107 -0.0417
H46 H 1.0177 -0.0239 -0.0419
H47 H 0.9076 -0.0772 -0.0751
C33 C 0.9055(4) 0.15150(17) 0.06118(16)
C34 C 1.0164(5) 0.19589(19) 0.0281(2)
H48 H 0.9948 0.2482 0.0321
H49 H 1.0171 0.1823 -0.0152
H50 H 1.1091 0.1859 0.0460
C35 C 0.3847(5) 0.1418(2) 0.0989(2)
H51 H 0.3342 0.1197 0.0644
H52 H 0.4102 0.1924 0.0887
H53 H 0.3241 0.1415 0.1351
C36 C 0.5340(5) 0.0672(2) 0.24869(17)
H54 H 0.5556 0.1176 0.2365
H55 H 0.6207 0.0379 0.2482
H56 H 0.4940 0.0671 0.2899
loop_
_geom_bond_atom_site_label_1
_geom_bond_atom_site_label_2
_geom_bond_site_symmetry_1
_geom_bond_site_symmetry_2
O1 C5 1_555 1_555
O2 C15 1_555 1_555
O3 C6 1_555 1_555
O4 C8 1_555 1_555
O5 C23 1_555 1_555
O6 C33 1_555 1_555
O7 C24 1_555 1_555
O8 C26 1_555 1_555
C1 H1 1_555 1_555
H2 C1 1_555 1_555
C2 C1 1_555 1_555
C3 C2 1_555 1_555
H3 C3 1_555 1_555
C4 C3 1_555 1_555
H4 C4 1_555 1_555
C5 C4 1_555 1_555
H5 C5 1_555 1_555
C6 C5 1_555 1_555
C7 C6 1_555 1_555
H6 C7 1_555 1_555
C8 C7 1_555 1_555
H7 C8 1_555 1_555
C9 C8 1_555 1_555
H8 C9 1_555 1_555
H9 C9 1_555 1_555
C10 C2 1_555 1_555
H10 C10 1_555 1_555
H11 C10 1_555 1_555
C11 C3 1_555 1_555
H12 C11 1_555 1_555
H13 C11 1_555 1_555
C12 C4 1_555 1_555
C13 C12 1_555 1_555
H14 C13 1_555 1_555
H15 C13 1_555 1_555
H16 C13 1_555 1_555
C14 C12 1_555 1_555
H17 C14 1_555 1_555
H18 C14 1_555 1_555
H19 C14 1_555 1_555
C15 O1 1_555 1_555
C16 C15 1_555 1_555
H20 C16 1_555 1_555
H21 C16 1_555 1_555
H22 C16 1_555 1_555
C17 C7 1_555 1_555
H23 C17 1_555 1_555
H24 C17 1_555 1_555
H25 C17 1_555 1_555
C18 O4 1_555 1_555
H26 C18 1_555 1_555
H27 C18 1_555 1_555
H28 C18 1_555 1_555
C19 H29 1_555 1_555
H30 C19 1_555 1_555
C20 C19 1_555 1_555
C21 C20 1_555 1_555
H31 C21 1_555 1_555
C22 C21 1_555 1_555
H32 C22 1_555 1_555
C23 C22 1_555 1_555
H33 C23 1_555 1_555
C24 C23 1_555 1_555
C25 C24 1_555 1_555
H34 C25 1_555 1_555
C26 C25 1_555 1_555
H35 C26 1_555 1_555
C27 C26 1_555 1_555
H36 C27 1_555 1_555
H37 C27 1_555 1_555
C28 C20 1_555 1_555
H38 C28 1_555 1_555
H39 C28 1_555 1_555
C29 C21 1_555 1_555
H40 C29 1_555 1_555
H41 C29 1_555 1_555
C30 C22 1_555 1_555
C31 C30 1_555 1_555
H42 C31 1_555 1_555
H43 C31 1_555 1_555
H44 C31 1_555 1_555
C32 C30 1_555 1_555
H45 C32 1_555 1_555
H46 C32 1_555 1_555
H47 C32 1_555 1_555
C33 O5 1_555 1_555
C34 C33 1_555 1_555
H48 C34 1_555 1_555
H49 C34 1_555 1_555
H50 C34 1_555 1_555
C35 C25 1_555 1_555
H51 C35 1_555 1_555
H52 C35 1_555 1_555
H53 C35 1_555 1_555
C36 O8 1_555 1_555
H54 C36 1_555 1_555
H55 C36 1_555 1_555
H56 C36 1_555 1_555
C9 C10 1_555 1_555
C11 C12 1_555 1_555
C27 C28 1_555 1_555
C29 C30 1_555 1_555

#END
