
#######################################################################
#
#                 Cambridge Crystallographic Data Centre
#                                CCDC 
#
#######################################################################
#
# If this CIF has been generated from an entry in the Cambridge 
# Structural Database, then it will include bibliographic, chemical, 
# crystal, experimental, refinement or atomic coordinate data resulting 
# from the CCDC's data processing and validation procedures.
#
#######################################################################

data_YOTZOX
_chemical_formula_moiety         'C15 H12 I2 N2 O3'
_chemical_name_systematic        
N'-(2-Hydroxy-3,5-diiodobenzylidene)-2-methoxybenzohydrazide
_symmetry_cell_setting           orthorhombic
_symmetry_space_group_name_H-M   'P n a 21'
_symmetry_Int_Tables_number      33
_space_group_name_Hall           'P 2c -2n'
loop_
_symmetry_equiv_pos_site_id
_symmetry_equiv_pos_as_xyz
1 x,y,z
2 -x,-y,1/2+z
3 1/2-x,1/2+y,1/2+z
4 1/2+x,1/2-y,z
_cell_length_a                   16.073(2)
_cell_length_b                   15.628(2)
_cell_length_c                   13.2840(10)
_cell_angle_alpha                90
_cell_angle_beta                 90
_cell_angle_gamma                90
_cell_volume                     3336.79
_exptl_crystal_colour            colorless
_exptl_crystal_description       block
_cell_formula_units_Z            8
loop_
_atom_site_label
_atom_site_type_symbol
_atom_site_fract_x
_atom_site_fract_y
_atom_site_fract_z
I1 I 0.40540(3) 0.37109(4) 0.59648(6)
I2 I 0.75672(4) 0.29448(4) 0.71249(6)
O1 O 0.4652(3) 0.5530(4) 0.6664(5)
H1 H 0.4752 0.5974 0.6971
O2 O 0.4563(4) 0.7984(3) 0.7103(6)
O3 O 0.7003(4) 0.8732(4) 0.7109(6)
N1 N 0.5663(4) 0.6711(4) 0.7246(6)
N2 N 0.5871(4) 0.7542(4) 0.7391(6)
C1 C 0.6078(4) 0.5270(5) 0.7135(7)
C2 C 0.5299(5) 0.4972(5) 0.6787(6)
C3 C 0.5183(5) 0.4121(5) 0.6577(7)
C4 C 0.5820(5) 0.3546(5) 0.6660(6)
H2 H 0.5740 0.2974 0.6493
C5 C 0.6582(5) 0.3831(5) 0.6994(6)
C6 C 0.6718(5) 0.4676(5) 0.7198(7)
H3 H 0.7248 0.4856 0.7381
C7 C 0.6248(5) 0.6155(5) 0.7341(6)
H4 H 0.6777 0.6325 0.7541
C8 C 0.5297(5) 0.8171(5) 0.7244(6)
C9 C 0.5589(5) 0.9062(5) 0.7306(6)
C10 C 0.6422(5) 0.9340(5) 0.7234(7)
C11 C 0.6607(7) 1.0209(6) 0.7251(8)
H5 H 0.7154 1.0391 0.7171
C12 C 0.6000(9) 1.0786(6) 0.7381(7)
H6 H 0.6137 1.1362 0.7431
C13 C 0.5176(8) 1.0543(7) 0.7445(7)
H7 H 0.4758 1.0950 0.7518
C14 C 0.4986(6) 0.9687(6) 0.7397(6)
H8 H 0.4430 0.9522 0.7428
C15 C 0.7849(5) 0.8953(7) 0.6937(8)
H9 H 0.8055 0.9276 0.7499
H10 H 0.7890 0.9292 0.6336
H11 H 0.8173 0.8441 0.6860
H24 H 0.639(2) 0.770(5) 0.754(7)
I3 I 0.81885(3) 0.63308(4) 0.55553(6)
I4 I 0.46921(4) 0.71070(4) 0.43332(6)
O4 O 0.7606(3) 0.4525(4) 0.4793(5)
H12 H 0.7425 0.4041 0.4890
O5 O 0.7669(3) 0.2033(4) 0.4301(7)
O6 O 0.5224(3) 0.1360(3) 0.4748(5)
N3 N 0.6578(4) 0.3339(4) 0.4300(5)
N4 N 0.6348(4) 0.2499(4) 0.4275(6)
C16 C 0.6177(4) 0.4794(5) 0.4342(6)
C17 C 0.6962(5) 0.5073(5) 0.4661(6)
C18 C 0.7075(4) 0.5914(5) 0.4888(6)
C19 C 0.6443(5) 0.6517(5) 0.4757(6)
H13 H 0.6537 0.7094 0.4883
C20 C 0.5680(5) 0.6235(5) 0.4438(7)
C21 C 0.5548(5) 0.5392(5) 0.4207(6)
H14 H 0.5035 0.5219 0.3958
C22 C 0.6016(5) 0.3892(5) 0.4185(7)
H15 H 0.5486 0.3717 0.3996
C23 C 0.6933(5) 0.1877(5) 0.4350(7)
C24 C 0.6631(5) 0.0984(5) 0.4467(6)
C25 C 0.5797(5) 0.0735(5) 0.4667(6)
C26 C 0.5616(6) -0.0131(6) 0.4790(7)
H16 H 0.5075 -0.0300 0.4938
C27 C 0.6220(8) -0.0729(6) 0.4696(8)
H17 H 0.6084 -0.1304 0.4766
C28 C 0.7045(7) -0.0501(6) 0.4495(7)
H18 H 0.7460 -0.0913 0.4437
C29 C 0.7219(6) 0.0346(5) 0.4387(6)
H19 H 0.7766 0.0503 0.4252
C30 C 0.4365(5) 0.1115(6) 0.4888(7)
H20 H 0.4293 0.0880 0.5550
H21 H 0.4215 0.0694 0.4394
H22 H 0.4015 0.1609 0.4813
H23 H 0.5807(15) 0.237(5) 0.435(7)
loop_
_geom_bond_atom_site_label_1
_geom_bond_atom_site_label_2
_geom_bond_site_symmetry_1
_geom_bond_site_symmetry_2
I1 C3 1_555 1_555
I2 C5 1_555 1_555
O1 H1 1_555 1_555
O2 C8 1_555 1_555
O3 C10 1_555 1_555
N1 N2 1_555 1_555
N2 C8 1_555 1_555
C1 C2 1_555 1_555
C2 O1 1_555 1_555
C3 C2 1_555 1_555
C4 C3 1_555 1_555
H2 C4 1_555 1_555
C5 C4 1_555 1_555
C6 C1 1_555 1_555
H3 C6 1_555 1_555
C7 N1 1_555 1_555
H4 C7 1_555 1_555
C8 C9 1_555 1_555
C9 C10 1_555 1_555
C10 C11 1_555 1_555
C11 H5 1_555 1_555
C12 C11 1_555 1_555
H6 C12 1_555 1_555
C13 C12 1_555 1_555
H7 C13 1_555 1_555
C14 C9 1_555 1_555
H8 C14 1_555 1_555
C15 O3 1_555 1_555
H9 C15 1_555 1_555
H10 C15 1_555 1_555
H11 C15 1_555 1_555
I3 C18 1_555 1_555
I4 C20 1_555 1_555
O4 H12 1_555 1_555
O5 C23 1_555 1_555
O6 C25 1_555 1_555
N3 N4 1_555 1_555
N4 C23 1_555 1_555
C16 C17 1_555 1_555
C17 O4 1_555 1_555
C18 C17 1_555 1_555
C19 C18 1_555 1_555
H13 C19 1_555 1_555
C20 C19 1_555 1_555
C21 C16 1_555 1_555
H14 C21 1_555 1_555
C22 N3 1_555 1_555
H15 C22 1_555 1_555
C23 C24 1_555 1_555
C24 C25 1_555 1_555
C25 C26 1_555 1_555
C26 H16 1_555 1_555
C27 C26 1_555 1_555
H17 C27 1_555 1_555
C28 C27 1_555 1_555
H18 C28 1_555 1_555
C29 C24 1_555 1_555
H19 C29 1_555 1_555
C30 O6 1_555 1_555
H20 C30 1_555 1_555
H21 C30 1_555 1_555
H22 C30 1_555 1_555
H23 N4 1_555 1_555
H24 N2 1_555 1_555
C1 C7 1_555 1_555
C5 C6 1_555 1_555
C13 C14 1_555 1_555
C16 C22 1_555 1_555
C20 C21 1_555 1_555
C28 C29 1_555 1_555

#END
