
#######################################################################
#
#                 Cambridge Crystallographic Data Centre
#                                CCDC 
#
#######################################################################
#
# If this CIF has been generated from an entry in the Cambridge 
# Structural Database, then it will include bibliographic, chemical, 
# crystal, experimental, refinement or atomic coordinate data resulting 
# from the CCDC's data processing and validation procedures.
#
#######################################################################

data_YOTZUD
_chemical_formula_moiety         'C11 H12 N4 O1'
_chemical_name_systematic        
3-(3-(2-Pyridinyl)-1H-pyrazol-1-yl)propanamide
_symmetry_cell_setting           triclinic
_symmetry_space_group_name_H-M   'P -1'
_symmetry_Int_Tables_number      2
_space_group_name_Hall           '-P 1'
loop_
_symmetry_equiv_pos_site_id
_symmetry_equiv_pos_as_xyz
1 x,y,z
2 -x,-y,-z
_cell_length_a                   7.7446(15)
_cell_length_b                   8.3517(17)
_cell_length_c                   8.4804(17)
_cell_angle_alpha                97.99(3)
_cell_angle_beta                 98.95(3)
_cell_angle_gamma                90.40(3)
_cell_volume                     536.349
_exptl_crystal_colour            colorless
_exptl_crystal_description       block
_chemical_melting_point          '427 K'
_cell_formula_units_Z            2
_exptl_crystal_recrystallization_method ethanol
loop_
_atom_site_label
_atom_site_type_symbol
_atom_site_fract_x
_atom_site_fract_y
_atom_site_fract_z
N1 N 0.41230(16) 0.30020(14) 0.39463(14)
H1 H 0.5037 0.3623 0.4058
H2 H 0.4039 0.2110 0.3293
O1 O 0.28772(12) 0.46829(11) 0.57395(12)
C1 C 0.28366(17) 0.34222(15) 0.47849(14)
C2 C 0.13022(19) 0.22241(18) 0.44677(16)
H3 H 0.0683 0.2257 0.3387
H4 H 0.1748 0.1145 0.4503
C3 C 0.00195(18) 0.25207(18) 0.56416(17)
H5 H -0.0373 0.3623 0.5664
H6 H -0.0994 0.1801 0.5266
N2 N 0.07610(14) 0.22676(13) 0.72718(13)
C4 C 0.0879(2) 0.33312(17) 0.86282(18)
H7 H 0.0518 0.4395 0.8703
C5 C 0.1622(2) 0.25694(17) 0.98736(17)
H8 H 0.1874 0.2996 1.0959
C6 C 0.19232(15) 0.09985(15) 0.91577(15)
N3 N 0.13956(14) 0.08220(13) 0.75618(13)
C7 C 0.26942(15) -0.03550(14) 0.99317(15)
C8 C 0.28816(18) -0.18581(16) 0.90392(18)
H9 H 0.2547 -0.2021 0.7926
C9 C 0.3569(2) -0.30988(17) 0.9829(2)
H10 H 0.3706 -0.4110 0.9253
C10 C 0.4054(2) -0.28298(19) 1.1479(2)
H11 H 0.4498 -0.3655 1.2041
C11 C 0.3862(2) -0.13031(19) 1.22693(19)
H12 H 0.4210 -0.1116 1.3381
N4 N 0.32045(15) -0.00708(14) 1.15354(14)
loop_
_geom_bond_atom_site_label_1
_geom_bond_atom_site_label_2
_geom_bond_site_symmetry_1
_geom_bond_site_symmetry_2
N1 H1 1_555 1_555
H2 N1 1_555 1_555
O1 C1 1_555 1_555
C1 N1 1_555 1_555
C2 C1 1_555 1_555
H3 C2 1_555 1_555
H4 C2 1_555 1_555
C3 C2 1_555 1_555
H5 C3 1_555 1_555
H6 C3 1_555 1_555
N2 C3 1_555 1_555
C4 N2 1_555 1_555
H7 C4 1_555 1_555
C5 C4 1_555 1_555
H8 C5 1_555 1_555
C6 C5 1_555 1_555
N3 N2 1_555 1_555
C7 C6 1_555 1_555
C8 C7 1_555 1_555
H9 C8 1_555 1_555
C9 C8 1_555 1_555
H10 C9 1_555 1_555
C10 C9 1_555 1_555
H11 C10 1_555 1_555
C11 C10 1_555 1_555
H12 C11 1_555 1_555
N4 C7 1_555 1_555
C6 N3 1_555 1_555
C11 N4 1_555 1_555

#END
