
#######################################################################
#
#                 Cambridge Crystallographic Data Centre
#                                CCDC 
#
#######################################################################
#
# If this CIF has been generated from an entry in the Cambridge 
# Structural Database, then it will include bibliographic, chemical, 
# crystal, experimental, refinement or atomic coordinate data resulting 
# from the CCDC's data processing and validation procedures.
#
#######################################################################

data_YOVBOB
_chemical_name_common            
'1,6-Hexanediaminium bis(2-pyridinecarboxylate)'
_chemical_formula_moiety         'C6 H18 N2 2+,2(C6 H4 N1 O2 1-)'
_chemical_name_systematic        
'Hexane-1,6-diammonium bis(pyridine-2-carboxylate)'
_symmetry_cell_setting           monoclinic
_symmetry_space_group_name_H-M   'P 21/c'
_symmetry_Int_Tables_number      14
_space_group_name_Hall           '-P 2ybc'
loop_
_symmetry_equiv_pos_site_id
_symmetry_equiv_pos_as_xyz
1 x,y,z
2 -x,1/2+y,1/2-z
3 -x,-y,-z
4 x,1/2-y,1/2+z
_cell_length_a                   9.8182(7)
_cell_length_b                   9.1569(7)
_cell_length_c                   21.6423(17)
_cell_angle_alpha                90
_cell_angle_beta                 99.038(2)
_cell_angle_gamma                90
_cell_volume                     1921.58
_exptl_crystal_colour            colorless
_exptl_crystal_description       block
_cell_formula_units_Z            4
_exptl_crystal_recrystallization_method ethanol
loop_
_atom_site_label
_atom_site_type_symbol
_atom_site_fract_x
_atom_site_fract_y
_atom_site_fract_z
O1 O 0.39197(19) 0.3983(2) 0.43294(9)
O2 O 0.3440(2) 0.1705(2) 0.40142(11)
N1 N 0.5671(2) 0.4287(2) 0.34905(10)
C1 C 0.6534(3) 0.4405(4) 0.30699(15)
H1 H 0.704(3) 0.538(3) 0.3085(12)
C2 C 0.6711(3) 0.3335(4) 0.26461(16)
H2 H 0.739(3) 0.351(3) 0.2336(14)
C3 C 0.5975(4) 0.2072(4) 0.26545(16)
H3 H 0.605(3) 0.128(3) 0.2356(13)
C4 C 0.5110(3) 0.1905(3) 0.30952(14)
H4 H 0.458(2) 0.099(3) 0.3141(12)
C5 C 0.4980(3) 0.3030(3) 0.35030(12)
C6 C 0.4034(3) 0.2901(3) 0.39927(14)
O3 O 0.1328(2) 0.4425(2) 0.07130(9)
O4 O 0.2162(2) 0.2478(2) 0.12601(10)
N2 N 0.0026(2) 0.5187(3) 0.16852(11)
C7 C -0.0394(4) 0.5760(4) 0.21915(18)
H5 H -0.127(3) 0.630(3) 0.2088(13)
C8 C 0.0265(4) 0.5565(4) 0.27899(17)
H6 H -0.010(3) 0.603(3) 0.3131(14)
C9 C 0.1416(4) 0.4708(4) 0.28807(15)
H7 H 0.195(3) 0.456(3) 0.3287(12)
C10 C 0.1851(3) 0.4064(3) 0.23713(14)
H8 H 0.268(3) 0.344(3) 0.2409(13)
C11 C 0.1141(3) 0.4333(3) 0.17813(13)
C12 C 0.1582(3) 0.3693(3) 0.12002(14)
N3 N 0.4265(3) 0.1748(3) 0.06174(13)
H9 H 0.334(3) 0.200(3) 0.0800(14)
H10 H 0.467(3) 0.090(3) 0.0830(15)
H11 H 0.415(3) 0.154(3) 0.0194(16)
N4 N 1.1032(3) 0.3355(3) -0.04832(13)
H12 H 1.046(3) 0.403(3) -0.0754(12)
H13 H 1.117(3) 0.372(3) -0.0007(16)
H14 H 1.196(4) 0.333(3) -0.0672(15)
C13 C 0.5150(3) 0.3063(4) 0.07920(18)
H15 H 0.500(3) 0.334(3) 0.1259(15)
H16 H 0.475(3) 0.388(3) 0.0459(14)
C14 C 0.6652(4) 0.2789(4) 0.07806(17)
H17 H 0.718(3) 0.372(3) 0.0970(13)
H18 H 0.697(3) 0.194(3) 0.1038(14)
C15 C 0.6995(3) 0.2449(4) 0.01361(16)
H19 H 0.654(3) 0.150(3) -0.0029(13)
H20 H 0.654(3) 0.336(3) -0.0184(14)
C16 C 0.8544(3) 0.2304(4) 0.01326(16)
H21 H 0.895(3) 0.153(3) 0.0455(12)
H22 H 0.898(2) 0.328(3) 0.0250(12)
C17 C 0.8877(3) 0.1893(4) -0.05053(16)
H23 H 0.841(3) 0.261(3) -0.0839(13)
H24 H 0.851(3) 0.083(3) -0.0641(14)
C18 C 1.0393(4) 0.1871(4) -0.05523(19)
H25 H 1.054(3) 0.150(3) -0.1001(15)
H26 H 1.088(3) 0.123(3) -0.0212(15)
loop_
_geom_bond_atom_site_label_1
_geom_bond_atom_site_label_2
_geom_bond_site_symmetry_1
_geom_bond_site_symmetry_2
O1 C6 1_555 1_555
O2 C6 1_555 1_555
N1 C1 1_555 1_555
C1 H1 1_555 1_555
C2 C1 1_555 1_555
H2 C2 1_555 1_555
C3 C2 1_555 1_555
H3 C3 1_555 1_555
C4 C3 1_555 1_555
H4 C4 1_555 1_555
C5 N1 1_555 1_555
C6 C5 1_555 1_555
O3 C12 1_555 1_555
O4 C12 1_555 1_555
N2 C7 1_555 1_555
C7 H5 1_555 1_555
C8 C7 1_555 1_555
H6 C8 1_555 1_555
C9 C8 1_555 1_555
H7 C9 1_555 1_555
C10 C9 1_555 1_555
H8 C10 1_555 1_555
C11 N2 1_555 1_555
C12 C11 1_555 1_555
N3 H9 1_555 1_555
H10 N3 1_555 1_555
H11 N3 1_555 1_555
N4 H12 1_555 1_555
H13 N4 1_555 1_555
H14 N4 1_555 1_555
C13 N3 1_555 1_555
H15 C13 1_555 1_555
H16 C13 1_555 1_555
C14 C13 1_555 1_555
H17 C14 1_555 1_555
H18 C14 1_555 1_555
C15 C14 1_555 1_555
H19 C15 1_555 1_555
H20 C15 1_555 1_555
C16 C15 1_555 1_555
H21 C16 1_555 1_555
H22 C16 1_555 1_555
C17 C16 1_555 1_555
H23 C17 1_555 1_555
H24 C17 1_555 1_555
C18 N4 1_555 1_555
H25 C18 1_555 1_555
H26 C18 1_555 1_555
C4 C5 1_555 1_555
C10 C11 1_555 1_555
C17 C18 1_555 1_555

#END
