
#######################################################################
#
#                 Cambridge Crystallographic Data Centre
#                                CCDC 
#
#######################################################################
#
# If this CIF has been generated from an entry in the Cambridge 
# Structural Database, then it will include bibliographic, chemical, 
# crystal, experimental, refinement or atomic coordinate data resulting 
# from the CCDC's data processing and validation procedures.
#
#######################################################################

data_YOVCUI
_chemical_formula_moiety         'C9 H8 Cl1 N1 O4'
_chemical_name_systematic        '4-Nitrobenzyl 2-chloroacetate'
_symmetry_cell_setting           monoclinic
_symmetry_space_group_name_H-M   'C 2/c'
_symmetry_Int_Tables_number      15
_space_group_name_Hall           '-C 2yn'
loop_
_symmetry_equiv_pos_site_id
_symmetry_equiv_pos_as_xyz
1 x,y,z
2 -x,y,1/2-z
3 1/2+x,1/2+y,z
4 1/2-x,1/2+y,1/2-z
5 -x,-y,-z
6 x,-y,1/2+z
7 1/2-x,1/2-y,-z
8 1/2+x,1/2-y,1/2+z
_cell_length_a                   13.636(3)
_cell_length_b                   8.1570(16)
_cell_length_c                   18.878(4)
_cell_angle_alpha                90
_cell_angle_beta                 108.30(3)
_cell_angle_gamma                90
_cell_volume                     1993.58
_exptl_crystal_colour            colorless
_exptl_crystal_description       block
_cell_formula_units_Z            8
_exptl_crystal_recrystallization_method dichloromethane
loop_
_atom_site_label
_atom_site_type_symbol
_atom_site_fract_x
_atom_site_fract_y
_atom_site_fract_z
Cl1 Cl 0.85639(10) 0.10201(17) 0.74171(7)
O1 O 0.6449(2) 0.0812(4) 0.75755(16)
O2 O 0.6848(2) 0.2403(4) 0.86053(15)
O3 O 0.6555(4) -0.3688(5) 1.1134(2)
O4 O 0.6159(3) -0.5146(4) 1.0154(2)
N1 N 0.6314(3) -0.3823(5) 1.0467(2)
C1 C 0.8107(3) 0.2211(5) 0.8028(3)
H1 H 0.8582 0.2114 0.8531
H2 H 0.8085 0.3355 0.7883
C2 C 0.7037(3) 0.1679(5) 0.8022(2)
C3 C 0.5855(3) 0.2023(5) 0.8709(2)
H3 H 0.5334 0.1868 0.8228
H4 H 0.5641 0.2927 0.8961
C4 C 0.5956(3) 0.0483(5) 0.9169(2)
C5 C 0.6365(3) 0.0540(5) 0.9945(2)
H5 H 0.6568 0.1545 1.0177
C6 C 0.6476(3) -0.0835(5) 1.0369(2)
H6 H 0.6741 -0.0768 1.0886
C7 C 0.6192(3) -0.2331(5) 1.0024(2)
C8 C 0.5789(3) -0.2437(5) 0.9254(2)
H7 H 0.5596 -0.3446 0.9023
C9 C 0.5679(3) -0.1045(5) 0.8843(2)
H8 H 0.5411 -0.1116 0.8326
loop_
_geom_bond_atom_site_label_1
_geom_bond_atom_site_label_2
_geom_bond_site_symmetry_1
_geom_bond_site_symmetry_2
Cl1 C1 1_555 1_555
O1 C2 1_555 1_555
O2 C2 1_555 1_555
O3 N1 1_555 1_555
O4 N1 1_555 1_555
N1 C7 1_555 1_555
C1 H1 1_555 1_555
H2 C1 1_555 1_555
C2 C1 1_555 1_555
C3 O2 1_555 1_555
H3 C3 1_555 1_555
H4 C3 1_555 1_555
C4 C3 1_555 1_555
C5 C4 1_555 1_555
H5 C5 1_555 1_555
C6 C5 1_555 1_555
H6 C6 1_555 1_555
C7 C6 1_555 1_555
C8 C7 1_555 1_555
H7 C8 1_555 1_555
C9 C4 1_555 1_555
H8 C9 1_555 1_555
C8 C9 1_555 1_555

#END
