
#######################################################################
#
#                 Cambridge Crystallographic Data Centre
#                                CCDC 
#
#######################################################################
#
# If this CIF has been generated from an entry in the Cambridge 
# Structural Database, then it will include bibliographic, chemical, 
# crystal, experimental, refinement or atomic coordinate data resulting 
# from the CCDC's data processing and validation procedures.
#
#######################################################################

data_YOVDUJ
_chemical_formula_moiety         'C11 H11 N2 O2 S1 1+,Cl1 O4 1-'
_chemical_name_systematic        '2-(Benzenesulfonamido)pyridinium perchlorate'
_symmetry_cell_setting           triclinic
_symmetry_space_group_name_H-M   'P -1'
_symmetry_Int_Tables_number      2
_space_group_name_Hall           '-P 1'
loop_
_symmetry_equiv_pos_site_id
_symmetry_equiv_pos_as_xyz
1 x,y,z
2 -x,-y,-z
_cell_length_a                   5.6594(11)
_cell_length_b                   7.5996(15)
_cell_length_c                   16.157(3)
_cell_angle_alpha                83.21(3)
_cell_angle_beta                 83.70(3)
_cell_angle_gamma                73.84(3)
_cell_volume                     660.607
_exptl_crystal_colour            colorless
_exptl_crystal_description       needle
_cell_formula_units_Z            2
loop_
_atom_site_label
_atom_site_type_symbol
_atom_site_fract_x
_atom_site_fract_y
_atom_site_fract_z
S1 S 0.22811(8) 0.24398(6) 0.16564(3)
O1 O 0.3752(3) 0.36817(19) 0.13565(8)
O2 O -0.0260(2) 0.2927(2) 0.14890(8)
N1 N 0.5339(3) 0.3703(2) 0.28668(10)
N2 N 0.2351(3) 0.2162(2) 0.26820(9)
C1 C 0.6774(3) 0.4261(3) 0.33434(12)
H1 H 0.7775 0.5030 0.3096
C2 C 0.6782(4) 0.3717(3) 0.41768(12)
H2 H 0.7815 0.4072 0.4513
C3 C 0.5244(4) 0.2628(3) 0.45284(12)
H3 H 0.5208 0.2255 0.5111
C4 C 0.3781(4) 0.2091(3) 0.40365(11)
H4 H 0.2729 0.1353 0.4276
C5 C 0.3861(3) 0.2644(3) 0.31822(11)
C6 C 0.3713(3) 0.0251(2) 0.13242(11)
C7 C 0.6069(3) -0.0679(3) 0.15558(11)
H5 H 0.6874 -0.0172 0.1915
C8 C 0.7216(4) -0.2369(3) 0.12480(11)
H6 H 0.8823 -0.3031 0.1397
C9 C 0.6018(4) -0.3089(3) 0.07244(12)
H7 H 0.6818 -0.4241 0.0514
C10 C 0.3665(4) -0.2150(3) 0.05020(12)
H8 H 0.2865 -0.2659 0.0142
C11 C 0.2487(3) -0.0472(3) 0.08060(11)
H9 H 0.0869 0.0175 0.0663
H10 H 0.536(4) 0.398(3) 0.2358(15)
H11 H 0.152(4) 0.150(3) 0.2905(14)
Cl1 Cl 0.06395(8) -0.20083(6) 0.34300(3)
O3 O 0.0680(3) -0.3209(2) 0.28027(10)
O4 O -0.0763(2) -0.01507(19) 0.31513(9)
O5 O 0.3112(3) -0.1954(2) 0.35352(9)
O6 O -0.0508(3) -0.2619(3) 0.42029(10)
loop_
_geom_bond_atom_site_label_1
_geom_bond_atom_site_label_2
_geom_bond_site_symmetry_1
_geom_bond_site_symmetry_2
S1 O1 1_555 1_555
O2 S1 1_555 1_555
N1 C1 1_555 1_555
N2 S1 1_555 1_555
C1 H1 1_555 1_555
C2 C1 1_555 1_555
H2 C2 1_555 1_555
C3 C2 1_555 1_555
H3 C3 1_555 1_555
C4 C3 1_555 1_555
H4 C4 1_555 1_555
C5 N1 1_555 1_555
C6 S1 1_555 1_555
C7 C6 1_555 1_555
H5 C7 1_555 1_555
C8 C7 1_555 1_555
H6 C8 1_555 1_555
C9 C8 1_555 1_555
H7 C9 1_555 1_555
C10 C9 1_555 1_555
H8 C10 1_555 1_555
C11 C6 1_555 1_555
H9 C11 1_555 1_555
H10 N1 1_555 1_555
H11 N2 1_555 1_555
Cl1 O3 1_555 1_555
O4 Cl1 1_555 1_555
O5 Cl1 1_555 1_555
O6 Cl1 1_555 1_555
N2 C5 1_555 1_555
C4 C5 1_555 1_555
C10 C11 1_555 1_555

#END
