
#######################################################################
#
#                 Cambridge Crystallographic Data Centre
#                                CCDC 
#
#######################################################################
#
# If this CIF has been generated from an entry in the Cambridge 
# Structural Database, then it will include bibliographic, chemical, 
# crystal, experimental, refinement or atomic coordinate data resulting 
# from the CCDC's data processing and validation procedures.
#
#######################################################################

data_YOVDET
_chemical_formula_moiety         'C24 H28 N6 O2 S2'
_chemical_name_systematic        
2,6-bis(2-hydroxyethyl)-8b,8c-diphenylhexahydro-1H,5H-2,3a,4a,6,7a,8a-hexaazacyclopenta[def]fluorene-4,8-dithione
_symmetry_cell_setting           monoclinic
_symmetry_space_group_name_H-M   'P 21/c'
_symmetry_Int_Tables_number      14
_space_group_name_Hall           '-P 2ybc'
loop_
_symmetry_equiv_pos_site_id
_symmetry_equiv_pos_as_xyz
1 x,y,z
2 -x,1/2+y,1/2-z
3 -x,-y,-z
4 x,1/2-y,1/2+z
_cell_length_a                   10.8207(3)
_cell_length_b                   11.9259(3)
_cell_length_c                   18.7222(5)
_cell_angle_alpha                90
_cell_angle_beta                 95.9170(10)
_cell_angle_gamma                90
_cell_volume                     2403.16
_exptl_crystal_colour            colorless
_exptl_crystal_description       block
_cell_formula_units_Z            4
_exptl_crystal_recrystallization_method dichloromethane
loop_
_atom_site_label
_atom_site_type_symbol
_atom_site_fract_x
_atom_site_fract_y
_atom_site_fract_z
C1 C -0.12009(19) 0.06722(19) 0.17347(12)
H1 H -0.1247 0.1295 0.2064
H2 H -0.1835 0.0784 0.1336
C2 C 0.00508(18) 0.06743(18) 0.14581(10)
H3 H 0.0141 0.0001 0.1177
H4 H 0.0113 0.1316 0.1146
C3 C 0.22092(19) 0.02137(15) 0.18881(10)
H5 H 0.2027 -0.0508 0.1663
H6 H 0.2735 0.0084 0.2332
C4 C 0.12806(17) 0.18506(15) 0.23345(9)
H7 H 0.1770 0.1812 0.2798
H8 H 0.0491 0.2199 0.2403
C5 C 0.27962(17) 0.08201(15) 0.06750(10)
C6 C 0.14142(15) 0.32561(14) 0.13366(9)
C7 C 0.31088(15) 0.20650(13) 0.16475(9)
C8 C 0.41469(15) 0.21794(15) 0.22511(9)
C9 C 0.51836(17) 0.14859(17) 0.22663(11)
H9 H 0.5209 0.0914 0.1930
C10 C 0.61795(18) 0.1651(2) 0.27853(13)
H10 H 0.6882 0.1201 0.2790
C11 C 0.6129(2) 0.2475(2) 0.32904(13)
H11 H 0.6794 0.2575 0.3641
C12 C 0.5107(2) 0.31542(19) 0.32845(12)
H12 H 0.5079 0.3709 0.3632
C13 C 0.41094(18) 0.30164(16) 0.27611(10)
H13 H 0.3420 0.3484 0.2754
C14 C 0.32978(15) 0.26964(13) 0.09338(9)
C15 C 0.45229(15) 0.33084(15) 0.09195(9)
C16 C 0.55620(18) 0.27555(18) 0.07309(12)
H14 H 0.5494 0.2025 0.0557
C17 C 0.67082(19) 0.3290(2) 0.08007(13)
H15 H 0.7408 0.2914 0.0676
C18 C 0.68142(19) 0.4367(2) 0.10520(13)
H16 H 0.7589 0.4712 0.1107
C19 C 0.5778(2) 0.49443(19) 0.12239(12)
H17 H 0.5848 0.5682 0.1384
C20 C 0.46311(17) 0.44085(16) 0.11538(11)
H18 H 0.3929 0.4793 0.1266
C21 C 0.28287(19) 0.22150(17) -0.03467(10)
H19 H 0.3540 0.2611 -0.0498
H20 H 0.2662 0.1576 -0.0663
C22 C 0.19164(19) 0.38613(15) 0.01067(11)
H21 H 0.1156 0.4296 0.0086
H22 H 0.2573 0.4354 -0.0019
C23 C 0.0576(2) 0.23381(17) -0.04220(12)
H23 H 0.0491 0.2073 0.0060
H24 H 0.0610 0.1686 -0.0729
C24 C -0.0547(2) 0.3012(2) -0.06773(14)
H25 H -0.1281 0.2574 -0.0610
H26 H -0.0563 0.3676 -0.0379
N1 N 0.10632(14) 0.07216(13) 0.20529(8)
N2 N 0.28966(13) 0.09106(11) 0.14054(8)
N3 N 0.19398(12) 0.25404(12) 0.18405(7)
N4 N 0.31342(14) 0.18107(12) 0.03940(8)
N5 N 0.22274(13) 0.34526(12) 0.08454(8)
N6 N 0.17545(15) 0.29589(13) -0.04166(8)
O1 O -0.14482(17) -0.03208(18) 0.20862(11)
H27 H -0.087(2) -0.045(3) 0.2388(15)
O2 O -0.0615(2) 0.33480(17) -0.13943(11)
H28 H -0.033(3) 0.3995(15) -0.1335(19)
S1 S 0.24080(7) -0.03339(4) 0.02083(3)
S2 S 0.00120(4) 0.38457(5) 0.13406(3)
loop_
_geom_bond_atom_site_label_1
_geom_bond_atom_site_label_2
_geom_bond_site_symmetry_1
_geom_bond_site_symmetry_2
C1 H1 1_555 1_555
H2 C1 1_555 1_555
C2 C1 1_555 1_555
H3 C2 1_555 1_555
H4 C2 1_555 1_555
C3 H5 1_555 1_555
H6 C3 1_555 1_555
C4 H7 1_555 1_555
H8 C4 1_555 1_555
C5 N2 1_555 1_555
C6 N3 1_555 1_555
C7 C8 1_555 1_555
C8 C9 1_555 1_555
C9 H9 1_555 1_555
C10 C9 1_555 1_555
H10 C10 1_555 1_555
C11 C10 1_555 1_555
H11 C11 1_555 1_555
C12 C11 1_555 1_555
H12 C12 1_555 1_555
C13 C8 1_555 1_555
H13 C13 1_555 1_555
C14 C7 1_555 1_555
C15 C14 1_555 1_555
C16 C15 1_555 1_555
H14 C16 1_555 1_555
C17 C16 1_555 1_555
H15 C17 1_555 1_555
C18 C17 1_555 1_555
H16 C18 1_555 1_555
C19 C18 1_555 1_555
H17 C19 1_555 1_555
C20 C15 1_555 1_555
H18 C20 1_555 1_555
C21 H19 1_555 1_555
H20 C21 1_555 1_555
C22 H21 1_555 1_555
H22 C22 1_555 1_555
C23 H23 1_555 1_555
H24 C23 1_555 1_555
C24 C23 1_555 1_555
H25 C24 1_555 1_555
H26 C24 1_555 1_555
N1 C2 1_555 1_555
N2 C3 1_555 1_555
N3 C4 1_555 1_555
N4 C5 1_555 1_555
N5 C6 1_555 1_555
N6 C21 1_555 1_555
O1 C1 1_555 1_555
H27 O1 1_555 1_555
O2 C24 1_555 1_555
H28 O2 1_555 1_555
S1 C5 1_555 1_555
S2 C6 1_555 1_555
C3 N1 1_555 1_555
C4 N1 1_555 1_555
C7 N2 1_555 1_555
C7 N3 1_555 1_555
C12 C13 1_555 1_555
C14 N4 1_555 1_555
C14 N5 1_555 1_555
C19 C20 1_555 1_555
C21 N4 1_555 1_555
C22 N5 1_555 1_555
C22 N6 1_555 1_555
C23 N6 1_555 1_555

#END
