
#######################################################################
#
#                 Cambridge Crystallographic Data Centre
#                                CCDC 
#
#######################################################################
#
# If this CIF has been generated from an entry in the Cambridge 
# Structural Database, then it will include bibliographic, chemical, 
# crystal, experimental, refinement or atomic coordinate data resulting 
# from the CCDC's data processing and validation procedures.
#
#######################################################################

data_YOVJAV
_chemical_formula_moiety         'C13 H17 N3 S1'
_chemical_name_systematic        5-(4-Pentylphenyl)-1,3,4-thiadiazol-2-amine
_symmetry_cell_setting           monoclinic
_symmetry_space_group_name_H-M   'P 21/c'
_symmetry_Int_Tables_number      14
_space_group_name_Hall           '-P 2ybc'
loop_
_symmetry_equiv_pos_site_id
_symmetry_equiv_pos_as_xyz
1 x,y,z
2 -x,1/2+y,1/2-z
3 -x,-y,-z
4 x,1/2-y,1/2+z
_cell_length_a                   14.012(3)
_cell_length_b                   9.1300(18)
_cell_length_c                   10.938(2)
_cell_angle_alpha                90
_cell_angle_beta                 100.64(3)
_cell_angle_gamma                90
_cell_volume                     1375.24
_exptl_crystal_colour            colorless
_exptl_crystal_description       block
_chemical_melting_point          '563 K'
_cell_formula_units_Z            4
_exptl_crystal_recrystallization_method acetone
loop_
_atom_site_label
_atom_site_type_symbol
_atom_site_fract_x
_atom_site_fract_y
_atom_site_fract_z
S1 S 0.10971(8) 0.15085(11) 0.16795(8)
N1 N 0.0965(2) 0.1921(3) -0.0647(2)
N2 N 0.0606(2) 0.3197(3) -0.0202(2)
N3 N 0.0292(3) 0.4194(3) 0.1651(2)
H1 H 0.0054 0.4985 0.1290
H2 H 0.0321 0.4085 0.2438
C1 C 0.4434(5) -0.9308(7) 0.1391(6)
H3 H 0.4664 -0.9713 0.2201
H4 H 0.4927 -0.9409 0.0892
H5 H 0.3860 -0.9820 0.1001
C2 C 0.4207(5) -0.7748(8) 0.1509(7)
H6 H 0.4800 -0.7243 0.1875
H7 H 0.3761 -0.7660 0.2085
C3 C 0.3778(5) -0.6986(7) 0.0342(7)
H8 H 0.3235 -0.7561 -0.0083
H9 H 0.4259 -0.6949 -0.0191
C4 C 0.3422(5) -0.5426(6) 0.0510(5)
H10 H 0.3003 -0.5452 0.1123
H11 H 0.3981 -0.4828 0.0851
C5 C 0.2901(4) -0.4706(5) -0.0597(4)
H12 H 0.2378 -0.5344 -0.0983
H13 H 0.3340 -0.4591 -0.1180
C6 C 0.2473(3) -0.3212(4) -0.0391(4)
C7 C 0.1937(3) -0.3008(4) 0.0533(4)
H14 H 0.1831 -0.3795 0.1031
C8 C 0.1557(3) -0.1657(4) 0.0731(4)
H15 H 0.1218 -0.1544 0.1380
C9 C 0.1665(3) -0.0480(4) 0.0002(3)
C10 C 0.2190(3) -0.0673(4) -0.0951(3)
H16 H 0.2275 0.0106 -0.1467
C11 C 0.2583(3) -0.2025(5) -0.1123(4)
H17 H 0.2935 -0.2138 -0.1759
C12 C 0.1252(3) 0.0956(4) 0.0207(3)
C13 C 0.0617(3) 0.3139(4) 0.0991(3)
loop_
_geom_bond_atom_site_label_1
_geom_bond_atom_site_label_2
_geom_bond_site_symmetry_1
_geom_bond_site_symmetry_2
S1 C12 1_555 1_555
N1 N2 1_555 1_555
N2 C13 1_555 1_555
N3 H1 1_555 1_555
H2 N3 1_555 1_555
C1 H3 1_555 1_555
H4 C1 1_555 1_555
H5 C1 1_555 1_555
C2 C1 1_555 1_555
H6 C2 1_555 1_555
H7 C2 1_555 1_555
C3 C2 1_555 1_555
H8 C3 1_555 1_555
H9 C3 1_555 1_555
C4 C3 1_555 1_555
H10 C4 1_555 1_555
H11 C4 1_555 1_555
C5 C4 1_555 1_555
H12 C5 1_555 1_555
H13 C5 1_555 1_555
C6 C5 1_555 1_555
C7 C6 1_555 1_555
H14 C7 1_555 1_555
C8 C7 1_555 1_555
H15 C8 1_555 1_555
C9 C8 1_555 1_555
C10 C9 1_555 1_555
H16 C10 1_555 1_555
C11 C6 1_555 1_555
H17 C11 1_555 1_555
C12 N1 1_555 1_555
C13 S1 1_555 1_555
N3 C13 1_555 1_555
C9 C12 1_555 1_555
C10 C11 1_555 1_555

#END
