
#######################################################################
#
#                 Cambridge Crystallographic Data Centre
#                                CCDC 
#
#######################################################################
#
# If this CIF has been generated from an entry in the Cambridge 
# Structural Database, then it will include bibliographic, chemical, 
# crystal, experimental, refinement or atomic coordinate data resulting 
# from the CCDC's data processing and validation procedures.
#
#######################################################################

data_YOVKAW
_chemical_name_common            
1-(N-Hydroxyethanimidoyl)-N-(2-methoxyphenyl)cyclopropanecarboxamide
_chemical_formula_moiety         'C13 H16 N2 O3'
_chemical_name_systematic        
1-(1-(Hydroxyimino)ethyl)-N-(2-methoxyphenyl)cyclopropanecarboxamide
_symmetry_cell_setting           monoclinic
_symmetry_space_group_name_H-M   'P 21/c'
_symmetry_Int_Tables_number      14
_space_group_name_Hall           '-P 2ybc'
loop_
_symmetry_equiv_pos_site_id
_symmetry_equiv_pos_as_xyz
1 x,y,z
2 -x,1/2+y,1/2-z
3 -x,-y,-z
4 x,1/2-y,1/2+z
_cell_length_a                   16.062(6)
_cell_length_b                   5.483(2)
_cell_length_c                   14.250(6)
_cell_angle_alpha                90
_cell_angle_beta                 100.055(6)
_cell_angle_gamma                90
_cell_volume                     1235.69
_exptl_crystal_colour            colorless
_exptl_crystal_description       block
_cell_formula_units_Z            4
loop_
_atom_site_label
_atom_site_type_symbol
_atom_site_fract_x
_atom_site_fract_y
_atom_site_fract_z
C1 C 0.3277(2) -0.2371(7) 1.1123(2)
H1 H 0.2878 -0.2249 1.1550
H2 H 0.3826 -0.1874 1.1447
H3 H 0.3303 -0.4029 1.0914
C2 C 0.3509(2) -0.0767(6) 0.9634(2)
C3 C 0.4169(2) -0.2323(6) 0.9573(3)
H4 H 0.4305 -0.3561 1.0020
C4 C 0.4628(2) -0.2049(7) 0.8849(3)
H5 H 0.5075 -0.3099 0.8812
C5 C 0.4432(2) -0.0246(6) 0.8182(2)
H6 H 0.4745 -0.0076 0.7696
C6 C 0.3768(2) 0.1321(6) 0.8233(2)
H7 H 0.3637 0.2548 0.7781
C7 C 0.3297(2) 0.1078(5) 0.8954(2)
C8 C 0.21464(19) 0.4042(5) 0.8447(2)
C9 C 0.14682(19) 0.5534(5) 0.8782(2)
C10 C 0.0684(2) 0.5852(6) 0.8000(2)
H8 H 0.0671 0.4975 0.7406
H9 H 0.0139 0.6022 0.8198
C11 C 0.1292(2) 0.7886(6) 0.8211(2)
H10 H 0.1116 0.9299 0.8537
H11 H 0.1647 0.8252 0.7745
C12 C 0.13045(19) 0.5525(5) 0.9782(2)
C13 C 0.0787(2) 0.7537(6) 1.0116(3)
H12 H 0.0740 0.7263 1.0770
H13 H 0.0233 0.7553 0.9731
H14 H 0.1059 0.9076 1.0059
N1 N 0.16185(17) 0.3782(4) 1.03227(17)
O1 O 0.30181(15) -0.0837(4) 1.03230(16)
O2 O 0.22453(15) 0.4164(4) 0.76124(15)
O3 O 0.14111(17) 0.3914(4) 1.12368(16)
H15 H 0.176(2) 0.300(7) 1.159(3)
N2 N 0.26309(17) 0.2616(4) 0.90914(18)
H16 H 0.2470(19) 0.254(6) 0.9632(16)
loop_
_geom_bond_atom_site_label_1
_geom_bond_atom_site_label_2
_geom_bond_site_symmetry_1
_geom_bond_site_symmetry_2
C1 H1 1_555 1_555
H2 C1 1_555 1_555
H3 C1 1_555 1_555
C2 C3 1_555 1_555
C3 H4 1_555 1_555
C4 C3 1_555 1_555
H5 C4 1_555 1_555
C5 C4 1_555 1_555
H6 C5 1_555 1_555
C6 C5 1_555 1_555
H7 C6 1_555 1_555
C7 C2 1_555 1_555
C8 C9 1_555 1_555
C9 C10 1_555 1_555
C10 H8 1_555 1_555
H9 C10 1_555 1_555
C11 C9 1_555 1_555
H10 C11 1_555 1_555
H11 C11 1_555 1_555
C12 C9 1_555 1_555
C13 C12 1_555 1_555
H12 C13 1_555 1_555
H13 C13 1_555 1_555
H14 C13 1_555 1_555
N1 C12 1_555 1_555
O1 C1 1_555 1_555
O2 C8 1_555 1_555
O3 N1 1_555 1_555
H15 O3 1_555 1_555
N2 C7 1_555 1_555
H16 N2 1_555 1_555
C2 O1 1_555 1_555
C6 C7 1_555 1_555
C8 N2 1_555 1_555
C10 C11 1_555 1_555

#END
