
#######################################################################
#
#                 Cambridge Crystallographic Data Centre
#                                CCDC 
#
#######################################################################
#
# If this CIF has been generated from an entry in the Cambridge 
# Structural Database, then it will include bibliographic, chemical, 
# crystal, experimental, refinement or atomic coordinate data resulting 
# from the CCDC's data processing and validation procedures.
#
#######################################################################

data_YOVKIF
_chemical_formula_moiety         'C16 H16 F2 O4 S1'
_chemical_name_systematic        2,2'-sulfonylbis(1-(3-fluorophenyl)ethanol)
_symmetry_cell_setting           monoclinic
_symmetry_space_group_name_H-M   'P 21'
_symmetry_Int_Tables_number      4
_space_group_name_Hall           'P 2yb'
loop_
_symmetry_equiv_pos_site_id
_symmetry_equiv_pos_as_xyz
1 x,y,z
2 -x,1/2+y,-z
_cell_length_a                   8.9107(6)
_cell_length_b                   9.4405(4)
_cell_length_c                   10.0078(6)
_cell_angle_alpha                90
_cell_angle_beta                 112.775(7)
_cell_angle_gamma                90
_cell_volume                     776.232
_exptl_crystal_colour            colorless
_exptl_crystal_description       block
_cell_formula_units_Z            2
loop_
_atom_site_label
_atom_site_type_symbol
_atom_site_fract_x
_atom_site_fract_y
_atom_site_fract_z
S1 S 0.29812(10) 0.00303(8) 0.48525(8)
F1 F -0.2186(4) 0.4281(3) -0.0922(3)
F2 F 0.4824(4) 0.1883(3) 1.2132(3)
O1 O 0.0987(3) 0.2670(3) 0.5284(3)
H1 H 0.0201 0.3145 0.5247
O2 O 0.4970(4) 0.2404(3) 0.7151(4)
H2 H 0.5789 0.2726 0.7077
O3 O 0.1533(3) -0.0841(3) 0.4334(3)
O4 O 0.4384(3) -0.0485(3) 0.4608(3)
C1 C 0.2447(4) 0.1708(4) 0.3972(4)
H3 H 0.3285 0.2387 0.4494
H4 H 0.2435 0.1623 0.3002
C2 C 0.0812(4) 0.2287(4) 0.3861(4)
H5 H -0.0013 0.1541 0.3500
C3 C 0.0326(4) 0.3529(4) 0.2822(3)
C4 C 0.0923(4) 0.4868(4) 0.3245(4)
H6 H 0.1656 0.5017 0.4192
C5 C 0.0458(5) 0.6004(4) 0.2292(5)
H7 H 0.0867 0.6906 0.2597
C6 C -0.0607(5) 0.5781(5) 0.0901(5)
H8 H -0.0937 0.6530 0.0248
C7 C -0.1178(5) 0.4458(5) 0.0482(4)
C8 C -0.0768(4) 0.3336(4) 0.1404(4)
H9 H -0.1217 0.2448 0.1088
C9 C 0.3553(4) 0.0235(4) 0.6754(3)
H10 H 0.2735 0.0802 0.6923
H11 H 0.3570 -0.0690 0.7182
C10 C 0.5206(4) 0.0932(5) 0.7512(4)
H12 H 0.5988 0.0530 0.7147
C11 C 0.5803(4) 0.0709(4) 0.9127(4)
C12 C 0.7048(4) -0.0224(4) 0.9835(4)
H13 H 0.7566 -0.0705 0.9323
C13 C 0.7528(5) -0.0444(4) 1.1317(5)
H14 H 0.8373 -0.1072 1.1786
C14 C 0.6803(5) 0.0224(4) 1.2084(4)
H15 H 0.7116 0.0049 1.3070
C15 C 0.5589(5) 0.1172(4) 1.1384(4)
C16 C 0.5074(5) 0.1422(4) 0.9925(4)
H16 H 0.4240 0.2066 0.9475
loop_
_geom_bond_atom_site_label_1
_geom_bond_atom_site_label_2
_geom_bond_site_symmetry_1
_geom_bond_site_symmetry_2
S1 O3 1_555 1_555
F1 C7 1_555 1_555
F2 C15 1_555 1_555
O1 H1 1_555 1_555
O2 H2 1_555 1_555
O4 S1 1_555 1_555
C1 S1 1_555 1_555
H3 C1 1_555 1_555
H4 C1 1_555 1_555
C2 O1 1_555 1_555
H5 C2 1_555 1_555
C3 C2 1_555 1_555
C4 C3 1_555 1_555
H6 C4 1_555 1_555
C5 C4 1_555 1_555
H7 C5 1_555 1_555
C6 C5 1_555 1_555
H8 C6 1_555 1_555
C7 C6 1_555 1_555
C8 C3 1_555 1_555
H9 C8 1_555 1_555
C9 S1 1_555 1_555
H10 C9 1_555 1_555
H11 C9 1_555 1_555
C10 O2 1_555 1_555
H12 C10 1_555 1_555
C11 C10 1_555 1_555
C12 C11 1_555 1_555
H13 C12 1_555 1_555
C13 C12 1_555 1_555
H14 C13 1_555 1_555
C14 C13 1_555 1_555
H15 C14 1_555 1_555
C15 C14 1_555 1_555
C16 C11 1_555 1_555
H16 C16 1_555 1_555
C1 C2 1_555 1_555
C7 C8 1_555 1_555
C9 C10 1_555 1_555
C15 C16 1_555 1_555

#END
