
#######################################################################
#
#                 Cambridge Crystallographic Data Centre
#                                CCDC 
#
#######################################################################
#
# If this CIF has been generated from an entry in the Cambridge 
# Structural Database, then it will include bibliographic, chemical, 
# crystal, experimental, refinement or atomic coordinate data resulting 
# from the CCDC's data processing and validation procedures.
#
#######################################################################

data_YOVLOM
_chemical_formula_moiety         'C10 H17 O3 1-,C8 H12 N1 1+'
_chemical_name_systematic        
'(R)-(+)-1-Phenylethanaminium 3-hydroxy-6-methylnon-8-enoate'
_symmetry_cell_setting           triclinic
_symmetry_space_group_name_H-M   'P 1'
_symmetry_Int_Tables_number      1
_space_group_name_Hall           'P 1'
loop_
_symmetry_equiv_pos_site_id
_symmetry_equiv_pos_as_xyz
1 x,y,z
_cell_length_a                   5.8126(9)
_cell_length_b                   12.6069(19)
_cell_length_c                   13.068(2)
_cell_angle_alpha                102.911(2)
_cell_angle_beta                 92.604(2)
_cell_angle_gamma                90.251(2)
_cell_volume                     932.331
_exptl_crystal_colour            colorless
_exptl_crystal_description       needle
_cell_formula_units_Z            2
loop_
_atom_site_label
_atom_site_type_symbol
_atom_site_fract_x
_atom_site_fract_y
_atom_site_fract_z
O1 O -0.8702(3) -0.96529(14) -0.46996(14)
O2 O -1.1505(3) -1.03240(14) -0.39494(14)
O3 O -1.5935(3) -0.81389(15) -0.51043(15)
H1 H -1.7050 -0.8541 -0.5040
C1 C -1.0804(4) -0.97838(18) -0.45702(19)
C2 C -1.2588(4) -0.9273(2) -0.5190(2)
H2 H -1.1799 -0.8958 -0.5712
H3 H -1.3663 -0.9850 -0.5581
C3 C -1.3962(4) -0.8390(2) -0.4506(2)
H4 H -1.4508 -0.8671 -0.3901
C4 C -1.2578(4) -0.7353(2) -0.4080(2)
H5 H -1.2084 -0.7055 -0.4675
H6 H -1.1176 -0.7527 -0.3694
C5 C -1.3917(5) -0.6492(2) -0.3349(2)
H7 H -1.4455 -0.6805 -0.2770
H8 H -1.5298 -0.6311 -0.3745
C6 C -1.2579(5) -0.5442(2) -0.2873(2)
H9 H -1.1927 -0.5173 -0.3465
C7 C -1.4137(6) -0.4568(3) -0.2307(3)
H10 H -1.5447 -0.4491 -0.2795
H11 H -1.4773 -0.4818 -0.1710
C8 C -1.3056(7) -0.3483(3) -0.1901(3)
H12 H -1.2337 -0.3171 -0.2405
C9 C -1.2961(8) -0.2908(3) -0.0954(3)
H13 H -1.3647 -0.3174 -0.0412
H14 H -1.2207 -0.2217 -0.0796
C10 C -1.0603(7) -0.5626(3) -0.2163(4)
H15 H -1.1179 -0.5931 -0.1595
H16 H -0.9804 -0.4932 -0.1864
H17 H -0.9530 -0.6135 -0.2566
O4 O -1.3493(3) -1.47806(14) -0.54205(14)
O5 O -1.0677(3) -1.58097(14) -0.61392(14)
O6 O -0.6228(3) -1.30840(14) -0.49891(15)
H18 H -0.5117 -1.3514 -0.5047
C11 C -1.1390(4) -1.49696(19) -0.55317(19)
C12 C -0.9608(4) -1.4168(2) -0.49139(19)
H19 H -1.0399 -1.3604 -0.4404
H20 H -0.8558 -1.4557 -0.4509
C13 C -0.8195(4) -1.36184(19) -0.5595(2)
H21 H -0.7645 -1.4187 -0.6192
C14 C -0.9538(4) -1.2780(2) -0.6040(2)
H22 H -1.0920 -1.3137 -0.6445
H23 H -1.0069 -1.2210 -0.5451
C15 C -0.8155(5) -1.2245(2) -0.6746(2)
H24 H -0.7504 -1.2825 -0.7292
H25 H -0.6847 -1.1840 -0.6320
C16 C -0.9468(5) -1.1468(2) -0.7290(2)
H26 H -1.0286 -1.0945 -0.6740
C17 C -0.7832(7) -1.0810(3) -0.7788(3)
H27 H -0.6716 -1.0424 -0.7233
H28 H -0.6951 -1.1323 -0.8307
C18 C -0.8888(8) -1.0001(3) -0.8319(3)
H29 H -0.9974 -0.9525 -0.7940
C19 C -0.8480(10) -0.9877(4) -0.9247(3)
H30 H -0.7407 -1.0333 -0.9658
H31 H -0.9251 -0.9330 -0.9521
C20 C -1.1273(7) -1.2056(3) -0.8089(3)
H32 H -1.0530 -1.2601 -0.8623
H33 H -1.2068 -1.1531 -0.8427
H34 H -1.2390 -1.2417 -0.7736
N1 N -0.6349(3) -0.65685(16) 0.37010(15)
H35 H -0.7723 -0.6235 0.3837
H36 H -0.5188 -0.6064 0.3863
H37 H -0.6149 -0.7074 0.4096
C21 C -0.6328(4) -0.71156(19) 0.25582(19)
H38 H -0.7693 -0.7621 0.2393
C22 C -0.4177(5) -0.7804(2) 0.2357(2)
H39 H -0.2804 -0.7340 0.2571
H40 H -0.4146 -0.8147 0.1607
H41 H -0.4199 -0.8369 0.2764
C23 C -0.6617(4) -0.6278(2) 0.18992(19)
C24 C -0.4845(5) -0.5545(2) 0.1859(2)
H42 H -0.3440 -0.5560 0.2256
C25 C -0.5138(6) -0.4795(2) 0.1241(2)
H43 H -0.3932 -0.4291 0.1217
C26 C -0.7183(6) -0.4771(3) 0.0654(2)
H44 H -0.7365 -0.4258 0.0224
C27 C -0.8921(6) -0.5482(3) 0.0694(2)
H45 H -1.0325 -0.5462 0.0298
C28 C -0.8639(5) -0.6241(2) 0.1316(2)
H46 H -0.9856 -0.6739 0.1339
N2 N -0.5842(3) -1.09828(15) -0.37534(14)
H47 H -0.6095 -1.1672 -0.4140
H48 H -0.4444 -1.0737 -0.3895
H49 H -0.6963 -1.0541 -0.3922
C29 C -0.5881(4) -1.09802(19) -0.26117(19)
H50 H -0.4498 -1.1383 -0.2431
C30 C -0.7996(5) -1.1598(2) -0.2408(2)
H51 H -0.9384 -1.1260 -0.2637
H52 H -0.8036 -1.1577 -0.1655
H53 H -0.7933 -1.2356 -0.2800
C31 C -0.5665(4) -0.9832(2) -0.19639(18)
C32 C -0.7434(5) -0.9097(2) -0.1970(2)
H54 H -0.8809 -0.9319 -0.2385
C33 C -0.7209(5) -0.8041(2) -0.1375(2)
H55 H -0.8433 -0.7545 -0.1380
C34 C -0.5210(6) -0.7708(3) -0.0774(2)
H56 H -0.5060 -0.6985 -0.0365
C35 C -0.3453(5) -0.8421(3) -0.0770(2)
H57 H -0.2071 -0.8192 -0.0362
C36 C -0.3681(5) -0.9480(3) -0.1360(2)
H58 H -0.2451 -0.9972 -0.1349
loop_
_geom_bond_atom_site_label_1
_geom_bond_atom_site_label_2
_geom_bond_site_symmetry_1
_geom_bond_site_symmetry_2
O1 C1 1_555 1_555
O2 C1 1_555 1_555
O3 H1 1_555 1_555
C1 C2 1_555 1_555
C2 H2 1_555 1_555
H3 C2 1_555 1_555
C3 O3 1_555 1_555
H4 C3 1_555 1_555
C4 C3 1_555 1_555
H5 C4 1_555 1_555
H6 C4 1_555 1_555
C5 C4 1_555 1_555
H7 C5 1_555 1_555
H8 C5 1_555 1_555
C6 C5 1_555 1_555
H9 C6 1_555 1_555
C7 C6 1_555 1_555
H10 C7 1_555 1_555
H11 C7 1_555 1_555
C8 C7 1_555 1_555
H12 C8 1_555 1_555
C9 C8 1_555 1_555
H13 C9 1_555 1_555
H14 C9 1_555 1_555
C10 C6 1_555 1_555
H15 C10 1_555 1_555
H16 C10 1_555 1_555
H17 C10 1_555 1_555
O4 C11 1_555 1_555
O5 C11 1_555 1_555
O6 H18 1_555 1_555
C11 C12 1_555 1_555
C12 H19 1_555 1_555
H20 C12 1_555 1_555
C13 O6 1_555 1_555
H21 C13 1_555 1_555
C14 C13 1_555 1_555
H22 C14 1_555 1_555
H23 C14 1_555 1_555
C15 C14 1_555 1_555
H24 C15 1_555 1_555
H25 C15 1_555 1_555
C16 C15 1_555 1_555
H26 C16 1_555 1_555
C17 C16 1_555 1_555
H27 C17 1_555 1_555
H28 C17 1_555 1_555
C18 C17 1_555 1_555
H29 C18 1_555 1_555
C19 C18 1_555 1_555
H30 C19 1_555 1_555
H31 C19 1_555 1_555
C20 C16 1_555 1_555
H32 C20 1_555 1_555
H33 C20 1_555 1_555
H34 C20 1_555 1_555
N1 H35 1_555 1_555
H36 N1 1_555 1_555
H37 N1 1_555 1_555
C21 N1 1_555 1_555
H38 C21 1_555 1_555
C22 C21 1_555 1_555
H39 C22 1_555 1_555
H40 C22 1_555 1_555
H41 C22 1_555 1_555
C23 C21 1_555 1_555
C24 C23 1_555 1_555
H42 C24 1_555 1_555
C25 C24 1_555 1_555
H43 C25 1_555 1_555
C26 C25 1_555 1_555
H44 C26 1_555 1_555
C27 C26 1_555 1_555
H45 C27 1_555 1_555
C28 C23 1_555 1_555
H46 C28 1_555 1_555
N2 H47 1_555 1_555
H48 N2 1_555 1_555
H49 N2 1_555 1_555
C29 N2 1_555 1_555
H50 C29 1_555 1_555
C30 C29 1_555 1_555
H51 C30 1_555 1_555
H52 C30 1_555 1_555
H53 C30 1_555 1_555
C31 C29 1_555 1_555
C32 C31 1_555 1_555
H54 C32 1_555 1_555
C33 C32 1_555 1_555
H55 C33 1_555 1_555
C34 C33 1_555 1_555
H56 C34 1_555 1_555
C35 C34 1_555 1_555
H57 C35 1_555 1_555
C36 C31 1_555 1_555
H58 C36 1_555 1_555
C2 C3 1_555 1_555
C12 C13 1_555 1_555
C27 C28 1_555 1_555
C35 C36 1_555 1_555

#END
