
#######################################################################
#
#                 Cambridge Crystallographic Data Centre
#                                CCDC 
#
#######################################################################
#
# If this CIF has been generated from an entry in the Cambridge 
# Structural Database, then it will include bibliographic, chemical, 
# crystal, experimental, refinement or atomic coordinate data resulting 
# from the CCDC's data processing and validation procedures.
#
#######################################################################

data_YOVNEE
_chemical_formula_moiety         'C19 H14 O4'
_chemical_name_systematic        
'Methyl 3-(2-(1-oxo-1H-isochromen-3-yl)phenyl)acrylate'
_symmetry_cell_setting           triclinic
_symmetry_space_group_name_H-M   'P -1'
_symmetry_Int_Tables_number      2
_space_group_name_Hall           '-P 1'
loop_
_symmetry_equiv_pos_site_id
_symmetry_equiv_pos_as_xyz
1 x,y,z
2 -x,-y,-z
_cell_length_a                   7.334(5)
_cell_length_b                   11.646(11)
_cell_length_c                   17.387(11)
_cell_angle_alpha                87.438(12)
_cell_angle_beta                 82.139(12)
_cell_angle_gamma                81.481(12)
_cell_volume                     1454.42
_exptl_crystal_colour            colorless
_exptl_crystal_description       block
_cell_formula_units_Z            4
loop_
_atom_site_label
_atom_site_type_symbol
_atom_site_fract_x
_atom_site_fract_y
_atom_site_fract_z
C1 C 0.0869(6) 0.0914(4) 0.1307(3)
C2 C 0.0281(6) 0.1800(4) 0.0739(3)
C3 C 0.0513(6) 0.1534(4) -0.0043(3)
H1 H 0.1077 0.0781 -0.0205
C4 C -0.0071(6) 0.2358(4) -0.0581(3)
H2 H 0.0046 0.2166 -0.1112
C5 C -0.0829(6) 0.3468(4) -0.0349(3)
H3 H -0.1181 0.4045 -0.0726
C6 C -0.1078(6) 0.3741(4) 0.0431(2)
H4 H -0.1612 0.4503 0.0586
C7 C -0.0548(6) 0.2905(4) 0.0987(2)
C8 C -0.0861(6) 0.3125(4) 0.1809(2)
H5 H -0.1463 0.3865 0.1983
C9 C -0.0326(6) 0.2318(4) 0.2326(3)
C10 C -0.0616(6) 0.2369(4) 0.3181(2)
C11 C -0.1102(6) 0.1410(4) 0.3619(3)
H6 H -0.1192 0.0723 0.3361
C12 C -0.1460(7) 0.1426(5) 0.4423(3)
H7 H -0.1776 0.0757 0.4713
C13 C -0.1345(6) 0.2444(4) 0.4797(3)
H8 H -0.1623 0.2477 0.5346
C14 C -0.0831(6) 0.3403(4) 0.4373(3)
H9 H -0.0746 0.4085 0.4638
C15 C -0.0432(6) 0.3395(4) 0.3562(2)
C16 C 0.0280(6) 0.4391(4) 0.3139(3)
H10 H 0.0858 0.4262 0.2621
C17 C 0.0207(6) 0.5451(4) 0.3400(3)
H11 H -0.0379 0.5636 0.3910
C18 C 0.1037(6) 0.6340(4) 0.2898(3)
C19 C 0.1696(8) 0.8278(4) 0.2838(3)
H12 H 0.2919 0.8007 0.2552
H13 H 0.1805 0.8895 0.3187
H14 H 0.0830 0.8580 0.2470
O1 O 0.0543(4) 0.1222(3) 0.20862(16)
O2 O 0.1598(5) -0.0063(3) 0.11718(18)
O3 O 0.1000(5) 0.7314(3) 0.32915(18)
O4 O 0.1679(5) 0.6236(3) 0.22158(17)
C20 C 0.4643(7) 0.4064(4) 0.3603(2)
C21 C 0.4170(6) 0.3184(4) 0.4185(2)
C22 C 0.4009(7) 0.3421(4) 0.4971(2)
H15 H 0.4189 0.4162 0.5129
C23 C 0.3587(6) 0.2578(4) 0.5519(3)
H16 H 0.3467 0.2743 0.6055
C24 C 0.3333(7) 0.1487(4) 0.5297(3)
H17 H 0.3057 0.0909 0.5681
C25 C 0.3481(6) 0.1241(4) 0.4512(2)
H18 H 0.3289 0.0498 0.4361
C26 C 0.3910(6) 0.2080(4) 0.3950(2)
C27 C 0.4060(6) 0.1886(4) 0.3126(2)
H19 H 0.3820 0.1166 0.2954
C28 C 0.4532(6) 0.2703(4) 0.2602(3)
C29 C 0.4702(6) 0.2664(4) 0.1749(2)
C30 C 0.4085(6) 0.3663(4) 0.1333(3)
H20 H 0.3627 0.4364 0.1599
C31 C 0.4136(6) 0.3640(4) 0.0533(2)
H21 H 0.3704 0.4324 0.0255
C32 C 0.4813(6) 0.2626(4) 0.0137(3)
H22 H 0.4857 0.2614 -0.0412
C33 C 0.5419(6) 0.1636(4) 0.0545(3)
H23 H 0.5885 0.0943 0.0272
C34 C 0.5368(6) 0.1624(4) 0.1352(2)
C35 C 0.6071(6) 0.0547(4) 0.1752(2)
H24 H 0.6767 0.0606 0.2167
C36 C 0.5796(6) -0.0513(4) 0.1571(2)
H25 H 0.5144 -0.0594 0.1145
C37 C 0.6478(6) -0.1555(4) 0.2014(2)
C38 C 0.6568(8) -0.3617(4) 0.2106(3)
H26 H 0.7928 -0.3785 0.2053
H27 H 0.6078 -0.4234 0.1868
H28 H 0.6067 -0.3577 0.2658
O5 O 0.4863(4) 0.3773(3) 0.28310(16)
O6 O 0.4910(5) 0.5035(3) 0.37312(18)
O7 O 0.6023(4) -0.2513(3) 0.17206(17)
O8 O 0.7305(5) -0.1591(3) 0.25718(18)
loop_
_geom_bond_atom_site_label_1
_geom_bond_atom_site_label_2
_geom_bond_site_symmetry_1
_geom_bond_site_symmetry_2
C1 C2 1_555 1_555
C2 C3 1_555 1_555
C3 H1 1_555 1_555
C4 C3 1_555 1_555
H2 C4 1_555 1_555
C5 C4 1_555 1_555
H3 C5 1_555 1_555
C6 C5 1_555 1_555
H4 C6 1_555 1_555
C7 C2 1_555 1_555
C8 C7 1_555 1_555
H5 C8 1_555 1_555
C9 C8 1_555 1_555
C10 C9 1_555 1_555
C11 C10 1_555 1_555
H6 C11 1_555 1_555
C12 C11 1_555 1_555
H7 C12 1_555 1_555
C13 C12 1_555 1_555
H8 C13 1_555 1_555
C14 C13 1_555 1_555
H9 C14 1_555 1_555
C15 C10 1_555 1_555
C16 C15 1_555 1_555
H10 C16 1_555 1_555
C17 C16 1_555 1_555
H11 C17 1_555 1_555
C18 C17 1_555 1_555
C19 H12 1_555 1_555
H13 C19 1_555 1_555
H14 C19 1_555 1_555
O1 C1 1_555 1_555
O2 C1 1_555 1_555
O3 C18 1_555 1_555
O4 C18 1_555 1_555
C20 C21 1_555 1_555
C21 C22 1_555 1_555
C22 H15 1_555 1_555
C23 C22 1_555 1_555
H16 C23 1_555 1_555
C24 C23 1_555 1_555
H17 C24 1_555 1_555
C25 C24 1_555 1_555
H18 C25 1_555 1_555
C26 C21 1_555 1_555
C27 C26 1_555 1_555
H19 C27 1_555 1_555
C28 C27 1_555 1_555
C29 C28 1_555 1_555
C30 C29 1_555 1_555
H20 C30 1_555 1_555
C31 C30 1_555 1_555
H21 C31 1_555 1_555
C32 C31 1_555 1_555
H22 C32 1_555 1_555
C33 C32 1_555 1_555
H23 C33 1_555 1_555
C34 C29 1_555 1_555
C35 C34 1_555 1_555
H24 C35 1_555 1_555
C36 C35 1_555 1_555
H25 C36 1_555 1_555
C37 C36 1_555 1_555
C38 H26 1_555 1_555
H27 C38 1_555 1_555
H28 C38 1_555 1_555
O5 C20 1_555 1_555
O6 C20 1_555 1_555
O7 C37 1_555 1_555
O8 C37 1_555 1_555
C6 C7 1_555 1_555
C9 O1 1_555 1_555
C14 C15 1_555 1_555
C19 O3 1_555 1_555
C25 C26 1_555 1_555
C28 O5 1_555 1_555
C33 C34 1_555 1_555
C38 O7 1_555 1_555

#END
