
#######################################################################
#
#                 Cambridge Crystallographic Data Centre
#                                CCDC 
#
#######################################################################
#
# If this CIF has been generated from an entry in the Cambridge 
# Structural Database, then it will include bibliographic, chemical, 
# crystal, experimental, refinement or atomic coordinate data resulting 
# from the CCDC's data processing and validation procedures.
#
#######################################################################

data_YOVNAA
_chemical_formula_moiety         'C22 H20 O6'
_chemical_name_systematic        
"Dimethyl 2,2'-(6,12-dihydroisochromeno[4,3-c]isochromene-6,12-diyl)diacetate"
_symmetry_cell_setting           monoclinic
_symmetry_space_group_name_H-M   'P 21/c'
_symmetry_Int_Tables_number      14
_space_group_name_Hall           '-P 2ybc'
loop_
_symmetry_equiv_pos_site_id
_symmetry_equiv_pos_as_xyz
1 x,y,z
2 -x,1/2+y,1/2-z
3 -x,-y,-z
4 x,1/2-y,1/2+z
_cell_length_a                   9.9407(14)
_cell_length_b                   14.417(2)
_cell_length_c                   6.4365(12)
_cell_angle_alpha                90
_cell_angle_beta                 97.175(6)
_cell_angle_gamma                90
_cell_volume                     915.224
_exptl_crystal_colour            colorless
_exptl_crystal_description       prism
_cell_formula_units_Z            2
loop_
_atom_site_label
_atom_site_type_symbol
_atom_site_fract_x
_atom_site_fract_y
_atom_site_fract_z
O1 O 0.17745(8) 0.48432(6) 0.61476(12)
O2 O 0.47648(10) 0.60355(8) 0.67397(16)
O3 O 0.38127(9) 0.64953(7) 0.35561(15)
C1 C 0.05796(10) 0.47949(7) 0.47853(17)
C2 C 0.06281(11) 0.42669(7) 0.28754(17)
C3 C 0.18393(11) 0.39636(8) 0.21798(18)
H1 H 0.2687 0.4086 0.2990
C4 C 0.17890(12) 0.34825(8) 0.02930(19)
H2 H 0.2605 0.3263 -0.0161
C5 C 0.05547(13) 0.33202(8) -0.09339(19)
H3 H 0.0531 0.2996 -0.2223
C6 C -0.06484(12) 0.36358(8) -0.02606(18)
H4 H -0.1489 0.3537 -0.1109
C7 C -0.06194(11) 0.40937(8) 0.16460(17)
C8 C 0.19227(11) 0.56473(8) 0.74907(17)
H5 H 0.2631 0.5510 0.8695
C9 C 0.24081(12) 0.64680(8) 0.62620(19)
H6 H 0.1744 0.6583 0.5010
H7 H 0.2448 0.7031 0.7149
C10 C 0.37903(12) 0.62991(8) 0.5577(2)
C11 C 0.51044(15) 0.63794(12) 0.2761(2)
H8 H 0.5771 0.6806 0.3491
H9 H 0.4997 0.6514 0.1257
H10 H 0.5419 0.5739 0.2996
O1B O -0.17745(8) 0.51568(6) 0.38524(12)
O2B O -0.47648(10) 0.39645(8) 0.32603(16)
O3B O -0.38127(9) 0.35047(7) 0.64439(15)
C1B C -0.05796(10) 0.52051(7) 0.52147(17)
C2B C -0.06281(11) 0.57331(7) 0.71246(17)
C3B C -0.18393(11) 0.60364(8) 0.78202(18)
H1B H -0.2687 0.5914 0.7010
C4B C -0.17890(12) 0.65175(8) 0.97070(19)
H2B H -0.2605 0.6737 1.0161
C5B C -0.05547(13) 0.66798(8) 1.09339(19)
H3B H -0.0531 0.7004 1.2223
C6B C 0.06484(12) 0.63642(8) 1.02606(18)
H4B H 0.1489 0.6463 1.1109
C7B C 0.06194(11) 0.59063(8) 0.83540(17)
C8B C -0.19227(11) 0.43527(8) 0.25093(17)
H5B H -0.2631 0.4490 0.1305
C9B C -0.24081(12) 0.35320(8) 0.37380(19)
H6B H -0.1744 0.3417 0.4990
H7B H -0.2448 0.2969 0.2851
C10B C -0.37903(12) 0.37009(8) 0.4423(2)
C11B C -0.51044(15) 0.36206(12) 0.7239(2)
H8B H -0.5771 0.3194 0.6509
H9B H -0.4997 0.3486 0.8743
H10B H -0.5419 0.4261 0.7004
loop_
_geom_bond_atom_site_label_1
_geom_bond_atom_site_label_2
_geom_bond_site_symmetry_1
_geom_bond_site_symmetry_2
O1 C1 1_555 1_555
O2 C10 1_555 1_555
O3 C10 1_555 1_555
C1 C2 1_555 1_555
C2 C3 1_555 1_555
C3 H1 1_555 1_555
C4 C3 1_555 1_555
H2 C4 1_555 1_555
C5 C4 1_555 1_555
H3 C5 1_555 1_555
C6 C5 1_555 1_555
H4 C6 1_555 1_555
C7 C2 1_555 1_555
C8 O1 1_555 1_555
H5 C8 1_555 1_555
C9 C8 1_555 1_555
H6 C9 1_555 1_555
H7 C9 1_555 1_555
C10 C9 1_555 1_555
C11 O3 1_555 1_555
H8 C11 1_555 1_555
H9 C11 1_555 1_555
H10 C11 1_555 1_555
O1B C1B 1_555 1_555
O2B C10B 1_555 1_555
O3B C10B 1_555 1_555
C1B C1 1_555 1_555
C2B C1B 1_555 1_555
C3B C2B 1_555 1_555
H1B C3B 1_555 1_555
C4B C3B 1_555 1_555
H2B C4B 1_555 1_555
C5B C4B 1_555 1_555
H3B C5B 1_555 1_555
C6B C5B 1_555 1_555
H4B C6B 1_555 1_555
C7B C8 1_555 1_555
C8B C7 1_555 1_555
H5B C8B 1_555 1_555
C9B C8B 1_555 1_555
H6B C9B 1_555 1_555
H7B C9B 1_555 1_555
C10B C9B 1_555 1_555
C11B O3B 1_555 1_555
H8B C11B 1_555 1_555
H9B C11B 1_555 1_555
H10B C11B 1_555 1_555
C6 C7 1_555 1_555
O1B C8B 1_555 1_555
C2B C7B 1_555 1_555
C6B C7B 1_555 1_555

#END
