
#######################################################################
#
#                 Cambridge Crystallographic Data Centre
#                                CCDC 
#
#######################################################################
#
# If this CIF has been generated from an entry in the Cambridge 
# Structural Database, then it will include bibliographic, chemical, 
# crystal, experimental, refinement or atomic coordinate data resulting 
# from the CCDC's data processing and validation procedures.
#
#######################################################################

data_YOVPUU
_chemical_formula_moiety         'C17 H26 N1 O5 P1'
_chemical_name_systematic        
'3-(1-Hydroxy-6-methoxy)indole-O,O-n-dibutyl phosphate'
_symmetry_cell_setting           monoclinic
_symmetry_space_group_name_H-M   'C c'
_symmetry_Int_Tables_number      9
_space_group_name_Hall           'C -2yc'
loop_
_symmetry_equiv_pos_site_id
_symmetry_equiv_pos_as_xyz
1 x,y,z
2 x,-y,1/2+z
3 1/2+x,1/2+y,z
4 1/2+x,1/2-y,1/2+z
_cell_length_a                   12.389(9)
_cell_length_b                   12.610(5)
_cell_length_c                   12.571(4)
_cell_angle_alpha                90
_cell_angle_beta                 101.27(2)
_cell_angle_gamma                90
_cell_volume                     1926.04
_exptl_crystal_colour            yellow
_cell_formula_units_Z            4
loop_
_atom_site_label
_atom_site_type_symbol
_atom_site_fract_x
_atom_site_fract_y
_atom_site_fract_z
P1 P 0.160 0.0499(3) 0.093
O1 O 0.155(1) 0.131(1) -0.0019(9)
O2 O 0.037(1) 0.012(1) 0.0679(7)
O3 O 0.2436(9) -0.034(1) 0.0939(8)
O4 O 0.3120(6) 0.1768(6) 0.4822(5)
O5 O -0.0217(8) 0.4544(9) 0.3889(8)
N1 N 0.2431(7) 0.1686(6) 0.3811(6)
C1 C 0.1761(8) 0.1198(8) 0.2148(8)
C2 C 0.2569(8) 0.1019(9) 0.3013(8)
C3 C 0.253(2) 0.180(2) -0.024(2)
C4 C 0.228(3) 0.237(4) -0.118(3)
C5 C 0.124(4) 0.282(4) -0.163(3)
C6 C 0.143(5) 0.278 -0.288(4)
C7 C -0.005(2) -0.046(2) -0.027(2)
C8 C -0.103(2) 0.040(2) -0.110(2)
C9 C -0.123(5) -0.003(6) -0.220(5)
C10 C -0.195(3) 0.063(3) -0.281(3)
C11 C 0.1109(8) 0.2060 0.2413(7)
C12 C 0.1576(8) 0.2351(8) 0.3496(8)
C13 C 0.1164(7) 0.3169(8) 0.4032(7)
C14 C 0.029(1) 0.371(1) 0.349(1)
C15 C -0.0214(9) 0.344(1) 0.2421(9)
C16 C 0.0203(9) 0.2646(9) 0.1884(9)
C17 C 0.028(1) 0.492(1) 0.496(1)
loop_
_geom_bond_atom_site_label_1
_geom_bond_atom_site_label_2
_geom_bond_site_symmetry_1
_geom_bond_site_symmetry_2
P1 O1 1_555 1_555
O1 C3 1_555 1_555
O2 P1 1_555 1_555
O3 P1 1_555 1_555
O4 N1 1_555 1_555
O5 C14 1_555 1_555
N1 C2 1_555 1_555
C1 P1 1_555 1_555
C2 C1 1_555 1_555
C3 C4 1_555 1_555
C4 C5 1_555 1_555
C5 C6 1_555 1_555
C7 O2 1_555 1_555
C8 C7 1_555 1_555
C9 C8 1_555 1_555
C10 C9 1_555 1_555
C11 C1 1_555 1_555
C12 N1 1_555 1_555
C13 C12 1_555 1_555
C14 C13 1_555 1_555
C15 C14 1_555 1_555
C16 C11 1_555 1_555
C17 O5 1_555 1_555
C11 C12 1_555 1_555
C15 C16 1_555 1_555

#END
