
#######################################################################
#
#                 Cambridge Crystallographic Data Centre
#                                CCDC 
#
#######################################################################
#
# If this CIF has been generated from an entry in the Cambridge 
# Structural Database, then it will include bibliographic, chemical, 
# crystal, experimental, refinement or atomic coordinate data resulting 
# from the CCDC's data processing and validation procedures.
#
#######################################################################

data_YOVROS
_chemical_formula_moiety         'C98 H126 O6'
_chemical_name_systematic        
7,14-bis(3',4',5'-tris(Octyloxy)biphenyl-4-yl)acenaphtho[1,2-k]fluoranthene
_symmetry_cell_setting           triclinic
_symmetry_space_group_name_H-M   'P -1'
_symmetry_Int_Tables_number      2
_space_group_name_Hall           '-P 1'
loop_
_symmetry_equiv_pos_site_id
_symmetry_equiv_pos_as_xyz
1 x,y,z
2 -x,-y,-z
_cell_length_a                   10.3348(10)
_cell_length_b                   19.1818(18)
_cell_length_c                   22.503(2)
_cell_angle_alpha                80.708(3)
_cell_angle_beta                 78.639(2)
_cell_angle_gamma                78.993(2)
_cell_volume                     4257.43
_exptl_crystal_colour            green
_exptl_crystal_description       sheets
_cell_formula_units_Z            2
_exptl_crystal_recrystallization_method chloroform/ethanol
_exptl_crystal_preparation       Luminescent
loop_
_atom_site_label
_atom_site_type_symbol
_atom_site_fract_x
_atom_site_fract_y
_atom_site_fract_z
O1 O 0.4810(4) 0.2615(2) 0.39900(17)
O2 O 0.6268(4) 0.1351(2) 0.42545(17)
O3 O 0.8654(4) 0.0930(2) 0.3571(2)
C1 C 0.6354(5) 0.2880(3) 0.3044(2)
H1 H 0.5826 0.3315 0.2937
C2 C 0.7556(6) 0.2653(3) 0.2668(2)
C3 C 0.6737(6) 0.1803(3) 0.3750(3)
C4 C 0.9380(5) 0.3136(3) 0.1898(2)
H2 H 0.9998 0.2856 0.2124
C5 C 0.9816(5) 0.5129(3) 0.0600(2)
C6 C 0.5960(5) 0.2449(3) 0.3578(2)
C7 C 0.8024(6) 0.3116(3) 0.2095(2)
C8 C 1.0407(5) 0.5610(3) 0.0109(2)
C9 C 0.9442(5) 0.4513(3) 0.0500(2)
C10 C 0.9821(5) 0.3564(3) 0.1373(2)
H3 H 1.0734 0.3559 0.1245
C11 C 1.0723(6) 0.6195(3) 0.0378(3)
C12 C 0.8923(5) 0.4003(3) 0.1030(2)
C13 C 0.7940(6) 0.1578(3) 0.3368(3)
C14 C 1.0260(6) 0.6072(3) 0.1015(3)
C15 C 0.9190(5) 0.5256(3) 0.1784(2)
H4 H 0.8829 0.4837 0.1911
C16 C 1.0327(6) 0.6522(4) 0.1427(3)
C17 C 0.4013(6) 0.3310(3) 0.3891(3)
H5 H 0.3616 0.3355 0.3528
H6 H 0.4558 0.3682 0.3842
C18 C 0.7588(6) 0.3975(3) 0.1217(2)
H7 H 0.6975 0.4259 0.0990
C19 C 0.8342(6) 0.2013(3) 0.2834(3)
H8 H 0.9152 0.1872 0.2586
C20 C 0.9715(5) 0.5438(3) 0.1177(3)
C21 C 0.7127(5) 0.3537(3) 0.1736(2)
H9 H 0.6216 0.3522 0.1848
C22 C 0.3499(6) 0.3341(4) 0.5037(3)
H10 H 0.4251 0.2952 0.5046
H11 H 0.3834 0.3783 0.5025
C23 C 0.9213(7) 0.5717(4) 0.2204(3)
H12 H 0.8843 0.5598 0.2611
C24 C 0.2939(6) 0.3371(4) 0.4451(2)
H13 H 0.2428 0.2985 0.4499
H14 H 0.2333 0.3819 0.4391
C25 C 0.6756(7) 0.1400(3) 0.4799(3)
H15 H 0.6372 0.1855 0.4947
H16 H 0.7722 0.1365 0.4714
C26 C 0.9745(7) 0.6326(4) 0.2048(3)
H17 H 0.9732 0.6616 0.2344
C27 C 0.2515(7) 0.3237(4) 0.5612(3)
H18 H 0.2287 0.2762 0.5655
H19 H 0.1704 0.3580 0.5575
C28 C 0.2988(8) 0.3319(4) 0.6186(3)
H20 H 0.2311 0.3204 0.6535
H21 H 0.3072 0.3816 0.6174
C29 C 1.1316(6) 0.6790(4) 0.0159(3)
H22 H 1.1644 0.6885 -0.0256
C30 C 1.0956(8) 0.7129(4) 0.1186(3)
H23 H 1.1055 0.7441 0.1444
C31 C 0.9885(7) 0.0665(4) 0.3173(5)
H24 H 0.9703 0.0674 0.2765
H25 H 1.0540 0.0975 0.3147
C32 C 1.1423(8) 0.7251(4) 0.0562(3)
H26 H 1.1821 0.7654 0.0407
C33 C 0.4315(9) 0.2853(4) 0.6280(3)
H27 H 0.4272 0.2362 0.6241
H28 H 0.5017 0.3010 0.5961
C34 C 0.4675(9) 0.2874(5) 0.6892(3)
H29 H 0.4661 0.3369 0.6943
H30 H 0.4005 0.2687 0.7211
C35 C 0.6356(12) 0.0789(5) 0.5275(3)
H31 H 0.5389 0.0829 0.5355
H32 H 0.6644 0.0821 0.5654
C36 C 1.1661(12) -0.0220(9) 0.2880(9)
H33 H 1.2009 0.0221 0.2723
H34 H 1.2339 -0.0535 0.3084
C37 C 0.699(3) 0.0054(6) 0.5060(6)
H35 H 0.6234 -0.0133 0.4984
H36 H 0.7506 0.0174 0.4660
C38 C 1.2923(17) -0.0623(8) 0.1923(9)
H37 H 1.3235 -0.0165 0.1823
H38 H 1.3582 -0.0957 0.2125
C39 C 0.8133(12) -0.1147(7) 0.5026(6)
H39 H 0.7657 -0.1505 0.5286
H40 H 0.7916 -0.1108 0.4620
C40 C 1.0401(11) -0.0030(5) 0.3396(6)
H41 H 0.9760 -0.0350 0.3436
H42 H 1.0669 -0.0048 0.3789
C41 C 0.7620(15) -0.0427(11) 0.5270(7)
H43 H 0.7135 -0.0542 0.5678
H44 H 0.8413 -0.0258 0.5321
C42 C 0.6007(12) 0.2458(6) 0.6966(5)
H45 H 0.6183 0.2491 0.7363
H46 H 0.6679 0.2647 0.6658
H47 H 0.6023 0.1966 0.6926
C43 C 0.9532(10) -0.1393(6) 0.4992(5)
H48 H 0.9723 -0.1486 0.5405
H49 H 0.9996 -0.1007 0.4779
C44 C 1.0135(13) -0.2060(6) 0.4682(7)
H50 H 1.1015 -0.2236 0.4788
H51 H 0.9586 -0.2427 0.4850
C45 C 1.1580(13) -0.0532(6) 0.2377(8)
H52 H 1.0894 -0.0237 0.2166
H53 H 1.1315 -0.0998 0.2516
C46 C 1.026(2) -0.1975(7) 0.4050(8)
H54 H 1.0647 -0.2424 0.3902
H55 H 1.0826 -0.1626 0.3874
H56 H 0.9393 -0.1817 0.3937
C47 C 1.2850(19) -0.0866(11) 0.1387(9)
H57 H 1.2062 -0.0595 0.1236
H58 H 1.2726 -0.1363 0.1482
C48 C 1.404(2) -0.0815(11) 0.0884(11)
H59 H 1.4277 -0.0341 0.0835
H60 H 1.4796 -0.1161 0.0995
C49 C 1.378(2) -0.0942(13) 0.0339(10)
H61 H 1.4554 -0.0906 0.0029
H62 H 1.3038 -0.0595 0.0224
H63 H 1.3558 -0.1414 0.0385
O1A O 1.5190(4) 0.7385(2) -0.39900(17)
O2A O 1.3732(4) 0.8649(2) -0.42545(17)
O3A O 1.1346(4) 0.9070(2) -0.3571(2)
C1A C 1.3646(5) 0.7120(3) -0.3044(2)
H1A H 1.4174 0.6685 -0.2937
C2A C 1.2444(6) 0.7347(3) -0.2668(2)
C3A C 1.3263(6) 0.8197(3) -0.3750(3)
C4A C 1.0620(5) 0.6864(3) -0.1898(2)
H2A H 1.0002 0.7144 -0.2124
C5A C 1.0184(5) 0.4871(3) -0.0600(2)
C6A C 1.4040(5) 0.7551(3) -0.3578(2)
C7A C 1.1976(6) 0.6884(3) -0.2095(2)
C8A C 0.9593(5) 0.4390(3) -0.0109(2)
C9A C 1.0558(5) 0.5487(3) -0.0500(2)
C10A C 1.0179(5) 0.6436(3) -0.1373(2)
H3A H 0.9266 0.6441 -0.1245
C11A C 0.9277(6) 0.3805(3) -0.0378(3)
C12A C 1.1077(5) 0.5997(3) -0.1030(2)
C13A C 1.2060(6) 0.8422(3) -0.3368(3)
C14A C 0.9740(6) 0.3928(3) -0.1015(3)
C15A C 1.0810(5) 0.4744(3) -0.1784(2)
H4A H 1.1171 0.5163 -0.1911
C16A C 0.9673(6) 0.3478(4) -0.1427(3)
C17A C 1.5987(6) 0.6690(3) -0.3891(3)
H5A H 1.6384 0.6645 -0.3528
H6A H 1.5442 0.6318 -0.3842
C18A C 1.2412(6) 0.6025(3) -0.1217(2)
H7A H 1.3025 0.5741 -0.0990
C19A C 1.1658(6) 0.7987(3) -0.2834(3)
H8A H 1.0848 0.8128 -0.2586
C20A C 1.0285(5) 0.4562(3) -0.1177(3)
C21A C 1.2873(5) 0.6463(3) -0.1736(2)
H9A H 1.3784 0.6478 -0.1848
C22A C 1.6501(6) 0.6659(4) -0.5037(3)
H10A H 1.5749 0.7048 -0.5046
H11A H 1.6166 0.6217 -0.5025
C23A C 1.0787(7) 0.4283(4) -0.2204(3)
H12A H 1.1157 0.4402 -0.2611
C24A C 1.7061(6) 0.6629(4) -0.4451(2)
H13A H 1.7572 0.7015 -0.4499
H14A H 1.7667 0.6181 -0.4391
C25A C 1.3244(7) 0.8600(3) -0.4799(3)
H15A H 1.3628 0.8145 -0.4947
H16A H 1.2278 0.8635 -0.4714
C26A C 1.0255(7) 0.3674(4) -0.2048(3)
H17A H 1.0268 0.3384 -0.2344
C27A C 1.7485(7) 0.6763(4) -0.5612(3)
H18A H 1.7713 0.7238 -0.5655
H19A H 1.8296 0.6420 -0.5575
C28A C 1.7012(8) 0.6681(4) -0.6186(3)
H20A H 1.7689 0.6796 -0.6535
H21A H 1.6928 0.6184 -0.6174
C29A C 0.8684(6) 0.3210(4) -0.0159(3)
H22A H 0.8356 0.3115 0.0256
C30A C 0.9044(8) 0.2871(4) -0.1186(3)
H23A H 0.8945 0.2559 -0.1444
C31A C 1.0115(7) 0.9335(4) -0.3173(5)
H24A H 1.0297 0.9326 -0.2765
H25A H 0.9460 0.9025 -0.3147
C32A C 0.8577(8) 0.2749(4) -0.0562(3)
H26A H 0.8179 0.2346 -0.0407
C33A C 1.5685(9) 0.7147(4) -0.6280(3)
H27A H 1.5728 0.7638 -0.6241
H28A H 1.4983 0.6990 -0.5961
C34A C 1.5325(9) 0.7126(5) -0.6892(3)
H29A H 1.5339 0.6631 -0.6943
H30A H 1.5995 0.7313 -0.7211
C35A C 1.3644(12) 0.9211(5) -0.5275(3)
H31A H 1.4611 0.9171 -0.5355
H32A H 1.3356 0.9179 -0.5654
C36A C 0.8339(12) 1.0220(9) -0.2880(9)
H33A H 0.7991 0.9779 -0.2723
H34A H 0.7661 1.0535 -0.3084
C37A C 1.301(3) 0.9946(6) -0.5060(6)
H35A H 1.3766 1.0133 -0.4984
H36A H 1.2494 0.9826 -0.4660
C38A C 0.7077(17) 1.0623(8) -0.1923(9)
H37A H 0.6765 1.0165 -0.1823
H38A H 0.6418 1.0957 -0.2125
C39A C 1.1867(12) 1.1147(7) -0.5026(6)
H39A H 1.2343 1.1505 -0.5286
H40A H 1.2084 1.1108 -0.4620
C40A C 0.9599(11) 1.0030(5) -0.3396(6)
H41A H 1.0240 1.0350 -0.3436
H42A H 0.9331 1.0048 -0.3789
C41A C 1.2380(15) 1.0427(11) -0.5270(7)
H43A H 1.2865 1.0542 -0.5678
H44A H 1.1587 1.0258 -0.5321
C42A C 1.3993(12) 0.7542(6) -0.6966(5)
H45A H 1.3817 0.7509 -0.7363
H46A H 1.3321 0.7353 -0.6658
H47A H 1.3977 0.8034 -0.6926
C43A C 1.0468(10) 1.1393(6) -0.4992(5)
H48A H 1.0277 1.1486 -0.5405
H49A H 1.0004 1.1007 -0.4779
C44A C 0.9865(13) 1.2060(6) -0.4682(7)
H50A H 0.8985 1.2236 -0.4788
H51A H 1.0414 1.2427 -0.4850
C45A C 0.8420(13) 1.0532(6) -0.2377(8)
H52A H 0.9106 1.0237 -0.2166
H53A H 0.8685 1.0998 -0.2516
C46A C 0.974(2) 1.1975(7) -0.4050(8)
H54A H 0.9353 1.2424 -0.3902
H55A H 0.9174 1.1626 -0.3874
H56A H 1.0607 1.1817 -0.3937
C47A C 0.7150(19) 1.0866(11) -0.1387(9)
H57A H 0.7938 1.0595 -0.1236
H58A H 0.7274 1.1363 -0.1482
C48A C 0.596(2) 1.0815(11) -0.0884(11)
H59A H 0.5723 1.0341 -0.0835
H60A H 0.5204 1.1161 -0.0995
C49A C 0.622(2) 1.0942(13) -0.0339(10)
H61A H 0.5446 1.0906 -0.0029
H62A H 0.6962 1.0595 -0.0224
H63A H 0.6442 1.1414 -0.0385
O4 O 0.7024(4) -0.1557(2) 0.70400(19)
O5 O 0.5600(4) -0.2447(2) 0.79563(17)
O6 O 0.6483(4) -0.3844(2) 0.81331(17)
C50 C 1.0161(5) -0.3653(3) 0.6379(2)
C51 C 0.7405(5) -0.2287(3) 0.7110(3)
C52 C 1.5195(5) -0.4943(3) 0.3713(2)
C53 C 1.3732(5) -0.4669(3) 0.5310(2)
C54 C 0.6735(6) -0.2723(3) 0.7578(3)
C55 C 1.0236(5) -0.4333(3) 0.6223(2)
H64 H 0.9518 -0.4578 0.6367
C56 C 1.2448(5) -0.4301(3) 0.5641(2)
C57 C 0.8328(5) -0.3759(3) 0.7280(2)
H65 H 0.8642 -0.4248 0.7342
C58 C 0.8980(5) -0.3321(3) 0.6804(2)
C59 C 1.1245(5) -0.3291(3) 0.6141(2)
H66 H 1.1211 -0.2830 0.6230
C60 C 0.7205(5) -0.3454(3) 0.7660(3)
C61 C 1.3978(5) -0.4689(3) 0.4677(2)
C62 C 1.3886(5) -0.4586(3) 0.3649(2)
C63 C 1.2365(5) -0.3613(3) 0.5774(2)
H67 H 1.3072 -0.3364 0.5616
C64 C 1.1353(5) -0.4652(3) 0.5858(2)
H68 H 1.1376 -0.5106 0.5757
C65 C 1.3092(5) -0.4422(3) 0.4213(3)
C66 C 0.8521(5) -0.2592(3) 0.6726(3)
H69 H 0.8967 -0.2301 0.6413
C67 C 1.5235(5) -0.5018(3) 0.4377(2)
C68 C 1.6075(6) -0.5118(3) 0.3198(3)
H70 H 1.6943 -0.5350 0.3225
C69 C 1.1801(6) -0.4089(3) 0.4222(3)
H71 H 1.1254 -0.3973 0.4585
C70 C 0.7130(6) -0.4509(3) 0.8401(3)
H72 H 0.7930 -0.4442 0.8536
H73 H 0.7388 -0.4848 0.8106
C71 C 1.3427(6) -0.4413(3) 0.3088(3)
C72 C 0.5725(6) -0.1305(3) 0.6854(3)
H74 H 0.5069 -0.1581 0.7098
H75 H 0.5782 -0.1358 0.6428
C73 C 1.4374(7) -0.4599(4) 0.2569(3)
H76 H 1.4131 -0.4488 0.2184
C74 C 0.5553(7) -0.4266(4) 0.9395(3)
H77 H 0.5194 -0.3814 0.9177
H78 H 0.4814 -0.4450 0.9671
C75 C 1.5645(6) -0.4942(3) 0.2626(3)
H79 H 1.6242 -0.5063 0.2276
C76 C 0.6162(7) -0.4788(4) 0.8939(3)
H80 H 0.6622 -0.5216 0.9150
H81 H 0.5444 -0.4925 0.8787
C77 C 0.5822(7) -0.2198(4) 0.8478(3)
H82 H 0.6269 -0.1784 0.8359
H83 H 0.6383 -0.2569 0.8703
C78 C 0.5321(6) -0.0528(3) 0.6945(3)
H84 H 0.5960 -0.0255 0.6680
H85 H 0.5348 -0.0478 0.7364
C79 C 1.2096(6) -0.4079(4) 0.3111(3)
H86 H 1.1735 -0.3961 0.2754
C80 C 1.1318(6) -0.3924(4) 0.3657(3)
H87 H 1.0435 -0.3701 0.3658
C81 C 0.6505(8) -0.4132(4) 0.9758(4)
H88 H 0.7252 -0.3954 0.9483
H89 H 0.6853 -0.4582 0.9983
C82 C 0.3941(7) -0.0226(4) 0.6809(4)
H90 H 0.3916 -0.0299 0.6395
H91 H 0.3311 -0.0497 0.7082
C83 C 0.4471(9) -0.2000(5) 0.8874(3)
H92 H 0.4065 -0.2428 0.8999
H93 H 0.4619 -0.1844 0.9241
C84 C 0.5871(9) -0.3588(5) 1.0215(4)
H94 H 0.5594 -0.3128 0.9986
H95 H 0.5074 -0.3745 1.0464
C85 C 0.3543(11) -0.1458(6) 0.8602(4)
H96 H 0.3463 -0.1597 0.8217
H97 H 0.3927 -0.1021 0.8508
C86 C 0.2144(12) -0.1283(9) 0.8960(5)
H98 H 0.2150 -0.1592 0.9346
H99 H 0.2081 -0.0800 0.9055
C87 C 0.3469(11) 0.0555(5) 0.6868(6)
H100 H 0.2689 0.0721 0.6673
H101 H 0.4166 0.0823 0.6653
C88 C 0.6748(12) -0.3494(7) 1.0615(6)
H102 H 0.7595 -0.3429 1.0355
H103 H 0.6912 -0.3948 1.0871
C89 C 0.311(2) 0.0712(8) 0.7534(10)
H104 H 0.2847 0.0286 0.7787
H105 H 0.3916 0.0792 0.7654
C90 C 0.217(4) 0.125(3) 0.766(4)
H106 H 0.2320 0.1655 0.7349
H107 H 0.1319 0.1126 0.7636
C91 C 0.208(5) 0.1450(19) 0.816(4)
H108 H 0.1575 0.1933 0.8142
H109 H 0.2975 0.1485 0.8209
C92 C 0.149(3) 0.1051(10) 0.8723(11)
H110 H 0.1502 0.1289 0.9064
H111 H 0.1988 0.0576 0.8771
H112 H 0.0577 0.1026 0.8702
C93 C -0.0258(15) -0.1187(10) 0.9222(8)
H113 H -0.0108 -0.1284 0.9642
H114 H -0.0642 -0.0685 0.9150
C94 C -0.1179(16) -0.1573(12) 0.9172(10)
H115 H -0.0755 -0.2072 0.9207
H116 H -0.1364 -0.1447 0.8758
C95 C -0.2420(18) -0.1540(12) 0.9563(8)
H117 H -0.2934 -0.1853 0.9454
H118 H -0.2895 -0.1058 0.9526
H119 H -0.2282 -0.1687 0.9977
C96 C 0.1062(14) -0.1296(11) 0.8820(7)
H120 H 0.1145 -0.1757 0.8680
H121 H 0.0991 -0.0941 0.8463
C97 C 0.536(2) -0.2998(11) 1.1330(9)
H122 H 0.4972 -0.2681 1.1631
H123 H 0.5464 -0.3484 1.1526
H124 H 0.4779 -0.2943 1.1035
C98 C 0.6404(18) -0.2860(10) 1.1085(8)
H125 H 0.7038 -0.2928 1.1363
H126 H 0.6344 -0.2379 1.0865
O4A O 2.2976(4) -0.8443(2) 0.29600(19)
O5A O 2.4400(4) -0.7553(2) 0.20437(17)
O6A O 2.3517(4) -0.6156(2) 0.18669(17)
C50A C 1.9839(5) -0.6347(3) 0.3621(2)
C51A C 2.2595(5) -0.7713(3) 0.2890(3)
C52A C 1.4805(5) -0.5057(3) 0.6287(2)
C53A C 1.6268(5) -0.5331(3) 0.4690(2)
C54A C 2.3265(6) -0.7277(3) 0.2422(3)
C55A C 1.9764(5) -0.5667(3) 0.3777(2)
H64A H 2.0482 -0.5422 0.3633
C56A C 1.7552(5) -0.5699(3) 0.4359(2)
C57A C 2.1672(5) -0.6241(3) 0.2720(2)
H65A H 2.1358 -0.5752 0.2658
C58A C 2.1020(5) -0.6679(3) 0.3196(2)
C59A C 1.8755(5) -0.6709(3) 0.3859(2)
H66A H 1.8789 -0.7170 0.3770
C60A C 2.2795(5) -0.6546(3) 0.2340(3)
C61A C 1.6022(5) -0.5311(3) 0.5323(2)
C62A C 1.6114(5) -0.5414(3) 0.6351(2)
C63A C 1.7635(5) -0.6387(3) 0.4226(2)
H67A H 1.6928 -0.6636 0.4384
C64A C 1.8647(5) -0.5348(3) 0.4142(2)
H68A H 1.8624 -0.4894 0.4243
C65A C 1.6908(5) -0.5578(3) 0.5787(3)
C66A C 2.1479(5) -0.7408(3) 0.3274(3)
H69A H 2.1033 -0.7699 0.3587
C67A C 1.4765(5) -0.4982(3) 0.5623(2)
C68A C 1.3925(6) -0.4882(3) 0.6802(3)
H70A H 1.3057 -0.4650 0.6775
C69A C 1.8199(6) -0.5911(3) 0.5778(3)
H71A H 1.8746 -0.6027 0.5415
C70A C 2.2870(6) -0.5491(3) 0.1599(3)
H72A H 2.2070 -0.5558 0.1464
H73A H 2.2612 -0.5152 0.1894
C71A C 1.6573(6) -0.5587(3) 0.6912(3)
C72A C 2.4275(6) -0.8695(3) 0.3146(3)
H74A H 2.4931 -0.8419 0.2902
H75A H 2.4218 -0.8642 0.3572
C73A C 1.5626(7) -0.5401(4) 0.7431(3)
H76A H 1.5869 -0.5512 0.7816
C74A C 2.4447(7) -0.5734(4) 0.0605(3)
H77A H 2.4806 -0.6186 0.0823
H78A H 2.5186 -0.5550 0.0329
C75A C 1.4355(6) -0.5058(3) 0.7374(3)
H79A H 1.3758 -0.4937 0.7724
C76A C 2.3838(7) -0.5212(4) 0.1061(3)
H80A H 2.3378 -0.4784 0.0850
H81A H 2.4556 -0.5075 0.1213
C77A C 2.4178(7) -0.7802(4) 0.1522(3)
H82A H 2.3731 -0.8216 0.1641
H83A H 2.3617 -0.7431 0.1297
C78A C 2.4679(6) -0.9472(3) 0.3055(3)
H84A H 2.4040 -0.9745 0.3320
H85A H 2.4652 -0.9522 0.2636
C79A C 1.7904(6) -0.5921(4) 0.6889(3)
H86A H 1.8265 -0.6039 0.7246
C80A C 1.8682(6) -0.6076(4) 0.6343(3)
H87A H 1.9565 -0.6299 0.6342
C81A C 2.3495(8) -0.5868(4) 0.0242(4)
H88A H 2.2748 -0.6046 0.0517
H89A H 2.3147 -0.5418 0.0017
C82A C 2.6059(7) -0.9774(4) 0.3191(4)
H90A H 2.6084 -0.9701 0.3605
H91A H 2.6689 -0.9503 0.2918
C83A C 2.5529(9) -0.8000(5) 0.1126(3)
H92A H 2.5935 -0.7572 0.1001
H93A H 2.5381 -0.8156 0.0759
C84A C 2.4129(9) -0.6412(5) -0.0215(4)
H94A H 2.4406 -0.6872 0.0014
H95A H 2.4926 -0.6255 -0.0464
C85A C 2.6457(11) -0.8542(6) 0.1398(4)
H96A H 2.6537 -0.8403 0.1783
H97A H 2.6073 -0.8979 0.1492
C86A C 2.7856(12) -0.8717(9) 0.1040(5)
H98A H 2.7850 -0.8408 0.0654
H99A H 2.7919 -0.9200 0.0945
C87A C 2.6531(11) -1.0555(5) 0.3132(6)
H100A H 2.7311 -1.0721 0.3327
H101A H 2.5834 -1.0823 0.3347
C88A C 2.3252(12) -0.6506(7) -0.0615(6)
H102A H 2.2405 -0.6571 -0.0355
H103A H 2.3088 -0.6052 -0.0871
C89A C 2.689(2) -1.0712(8) 0.2466(10)
H104A H 2.7153 -1.0286 0.2213
H105A H 2.6084 -1.0792 0.2346
C90A C 2.783(4) -1.125(3) 0.234(4)
H106A H 2.7680 -1.1655 0.2651
H107A H 2.8681 -1.1126 0.2364
C91A C 2.792(5) -1.1450(19) 0.184(4)
H108A H 2.8425 -1.1933 0.1858
H109A H 2.7025 -1.1485 0.1791
C92A C 2.851(3) -1.1051(10) 0.1277(11)
H110A H 2.8498 -1.1289 0.0936
H111A H 2.8012 -1.0576 0.1229
H112A H 2.9423 -1.1026 0.1298
C93A C 3.0258(15) -0.8813(10) 0.0778(8)
H113A H 3.0108 -0.8716 0.0358
H114A H 3.0642 -0.9315 0.0850
C94A C 3.1179(16) -0.8427(12) 0.0828(10)
H115A H 3.0755 -0.7928 0.0793
H116A H 3.1364 -0.8553 0.1242
C95A C 3.2420(18) -0.8460(12) 0.0437(8)
H117A H 3.2934 -0.8147 0.0546
H118A H 3.2895 -0.8942 0.0474
H119A H 3.2282 -0.8313 0.0023
C96A C 2.8938(14) -0.8704(11) 0.1180(7)
H120A H 2.8855 -0.8243 0.1320
H121A H 2.9009 -0.9059 0.1537
C97A C 2.464(2) -0.7002(11) -0.1330(9)
H122A H 2.5028 -0.7319 -0.1631
H123A H 2.4536 -0.6516 -0.1526
H124A H 2.5221 -0.7057 -0.1035
C98A C 2.3596(18) -0.7140(10) -0.1085(8)
H125A H 2.2962 -0.7072 -0.1363
H126A H 2.3656 -0.7621 -0.0865
loop_
_geom_bond_atom_site_label_1
_geom_bond_atom_site_label_2
_geom_bond_site_symmetry_1
_geom_bond_site_symmetry_2
O1 C6 1_555 1_555
O2 C3 1_555 1_555
O3 C13 1_555 1_555
C1 H1 1_555 1_555
C2 C1 1_555 1_555
C3 C6 1_555 1_555
C4 H2 1_555 1_555
C5 C8 1_555 1_555
C6 C1 1_555 1_555
C7 C2 1_555 1_555
C8 C11 1_555 1_555
C9 C5 1_555 1_555
C10 C4 1_555 1_555
H3 C10 1_555 1_555
C11 C14 1_555 1_555
C12 C9 1_555 1_555
C13 C3 1_555 1_555
C14 C16 1_555 1_555
C15 H4 1_555 1_555
C16 C26 1_555 1_555
C17 O1 1_555 1_555
H5 C17 1_555 1_555
H6 C17 1_555 1_555
C18 C12 1_555 1_555
H7 C18 1_555 1_555
C19 C2 1_555 1_555
H8 C19 1_555 1_555
C20 C5 1_555 1_555
C21 C7 1_555 1_555
H9 C21 1_555 1_555
C22 H10 1_555 1_555
H11 C22 1_555 1_555
C23 C15 1_555 1_555
H12 C23 1_555 1_555
C24 C17 1_555 1_555
H13 C24 1_555 1_555
H14 C24 1_555 1_555
C25 O2 1_555 1_555
H15 C25 1_555 1_555
H16 C25 1_555 1_555
C26 C23 1_555 1_555
H17 C26 1_555 1_555
C27 C22 1_555 1_555
H18 C27 1_555 1_555
H19 C27 1_555 1_555
C28 C27 1_555 1_555
H20 C28 1_555 1_555
H21 C28 1_555 1_555
C29 C11 1_555 1_555
H22 C29 1_555 1_555
C30 C16 1_555 1_555
H23 C30 1_555 1_555
C31 O3 1_555 1_555
H24 C31 1_555 1_555
H25 C31 1_555 1_555
C32 C29 1_555 1_555
H26 C32 1_555 1_555
C33 C28 1_555 1_555
H27 C33 1_555 1_555
H28 C33 1_555 1_555
C34 C33 1_555 1_555
H29 C34 1_555 1_555
H30 C34 1_555 1_555
C35 C25 1_555 1_555
H31 C35 1_555 1_555
H32 C35 1_555 1_555
C36 H33 1_555 1_555
H34 C36 1_555 1_555
C37 C35 1_555 1_555
H35 C37 1_555 1_555
H36 C37 1_555 1_555
C38 H37 1_555 1_555
H38 C38 1_555 1_555
C39 H39 1_555 1_555
H40 C39 1_555 1_555
C40 C31 1_555 1_555
H41 C40 1_555 1_555
H42 C40 1_555 1_555
C41 C37 1_555 1_555
H43 C41 1_555 1_555
H44 C41 1_555 1_555
C42 C34 1_555 1_555
H45 C42 1_555 1_555
H46 C42 1_555 1_555
H47 C42 1_555 1_555
C43 C39 1_555 1_555
H48 C43 1_555 1_555
H49 C43 1_555 1_555
C44 C43 1_555 1_555
H50 C44 1_555 1_555
H51 C44 1_555 1_555
C45 C36 1_555 1_555
H52 C45 1_555 1_555
H53 C45 1_555 1_555
C46 C44 1_555 1_555
H54 C46 1_555 1_555
H55 C46 1_555 1_555
H56 C46 1_555 1_555
C47 C38 1_555 1_555
H57 C47 1_555 1_555
H58 C47 1_555 1_555
C48 C47 1_555 1_555
H59 C48 1_555 1_555
H60 C48 1_555 1_555
C49 C48 1_555 1_555
H61 C49 1_555 1_555
H62 C49 1_555 1_555
H63 C49 1_555 1_555
O4 C51 1_555 1_555
O5 C54 1_555 1_555
O6 C60 1_555 1_555
C50 C55 1_555 1_555
C51 C54 1_555 1_555
C52 C62 1_555 1_555
C53 C56 1_555 1_555
C54 C60 1_555 1_555
C55 H64 1_555 1_555
C56 C63 1_555 1_555
C57 H65 1_555 1_555
C58 C50 1_555 1_555
C59 C50 1_555 1_555
H66 C59 1_555 1_555
C60 C57 1_555 1_555
C61 C53 1_555 1_555
C62 C65 1_555 1_555
C63 C59 1_555 1_555
H67 C63 1_555 1_555
C64 C55 1_555 1_555
H68 C64 1_555 1_555
C65 C61 1_555 1_555
C66 C51 1_555 1_555
H69 C66 1_555 1_555
C67 C52 1_555 1_555
C68 C52 1_555 1_555
H70 C68 1_555 1_555
C69 C65 1_555 1_555
H71 C69 1_555 1_555
C70 O6 1_555 1_555
H72 C70 1_555 1_555
H73 C70 1_555 1_555
C71 C62 1_555 1_555
C72 O4 1_555 1_555
H74 C72 1_555 1_555
H75 C72 1_555 1_555
C73 C71 1_555 1_555
H76 C73 1_555 1_555
C74 H77 1_555 1_555
H78 C74 1_555 1_555
C75 C68 1_555 1_555
H79 C75 1_555 1_555
C76 C70 1_555 1_555
H80 C76 1_555 1_555
H81 C76 1_555 1_555
C77 O5 1_555 1_555
H82 C77 1_555 1_555
H83 C77 1_555 1_555
C78 C72 1_555 1_555
H84 C78 1_555 1_555
H85 C78 1_555 1_555
C79 C71 1_555 1_555
H86 C79 1_555 1_555
C80 C69 1_555 1_555
H87 C80 1_555 1_555
C81 C74 1_555 1_555
H88 C81 1_555 1_555
H89 C81 1_555 1_555
C82 C78 1_555 1_555
H90 C82 1_555 1_555
H91 C82 1_555 1_555
C83 C77 1_555 1_555
H92 C83 1_555 1_555
H93 C83 1_555 1_555
C84 C81 1_555 1_555
H94 C84 1_555 1_555
H95 C84 1_555 1_555
C85 C83 1_555 1_555
H96 C85 1_555 1_555
H97 C85 1_555 1_555
C86 C85 1_555 1_555
H98 C86 1_555 1_555
H99 C86 1_555 1_555
C87 C82 1_555 1_555
H100 C87 1_555 1_555
H101 C87 1_555 1_555
C88 C84 1_555 1_555
H102 C88 1_555 1_555
H103 C88 1_555 1_555
C89 C87 1_555 1_555
H104 C89 1_555 1_555
H105 C89 1_555 1_555
C90 C89 1_555 1_555
H106 C90 1_555 1_555
H107 C90 1_555 1_555
C91 C90 1_555 1_555
H108 C91 1_555 1_555
H109 C91 1_555 1_555
C92 C91 1_555 1_555
H110 C92 1_555 1_555
H111 C92 1_555 1_555
H112 C92 1_555 1_555
C93 H113 1_555 1_555
H114 C93 1_555 1_555
C94 C93 1_555 1_555
H115 C94 1_555 1_555
H116 C94 1_555 1_555
C95 C94 1_555 1_555
H117 C95 1_555 1_555
H118 C95 1_555 1_555
H119 C95 1_555 1_555
C96 C86 1_555 1_555
H120 C96 1_555 1_555
H121 C96 1_555 1_555
C97 H122 1_555 1_555
H123 C97 1_555 1_555
H124 C97 1_555 1_555
C98 C88 1_555 1_555
H125 C98 1_555 1_555
H126 C98 1_555 1_555
O1A C6A 1_555 1_555
O2A C3A 1_555 1_555
O3A C13A 1_555 1_555
C1A H1A 1_555 1_555
C2A C1A 1_555 1_555
C3A C6A 1_555 1_555
C4A H2A 1_555 1_555
C5A C8A 1_555 1_555
C6A C1A 1_555 1_555
C7A C2A 1_555 1_555
C8A C9 1_555 1_555
C9A C8 1_555 1_555
C10A C4A 1_555 1_555
H3A C10A 1_555 1_555
C11A C8A 1_555 1_555
C12A C9A 1_555 1_555
C13A C3A 1_555 1_555
C14A C11A 1_555 1_555
C15A H4A 1_555 1_555
C16A C14A 1_555 1_555
C17A O1A 1_555 1_555
H5A C17A 1_555 1_555
H6A C17A 1_555 1_555
C18A C12A 1_555 1_555
H7A C18A 1_555 1_555
C19A C2A 1_555 1_555
H8A C19A 1_555 1_555
C20A C5A 1_555 1_555
C21A C7A 1_555 1_555
H9A C21A 1_555 1_555
C22A H10A 1_555 1_555
H11A C22A 1_555 1_555
C23A C15A 1_555 1_555
H12A C23A 1_555 1_555
C24A C17A 1_555 1_555
H13A C24A 1_555 1_555
H14A C24A 1_555 1_555
C25A O2A 1_555 1_555
H15A C25A 1_555 1_555
H16A C25A 1_555 1_555
C26A C16A 1_555 1_555
H17A C26A 1_555 1_555
C27A C22A 1_555 1_555
H18A C27A 1_555 1_555
H19A C27A 1_555 1_555
C28A C27A 1_555 1_555
H20A C28A 1_555 1_555
H21A C28A 1_555 1_555
C29A C11A 1_555 1_555
H22A C29A 1_555 1_555
C30A C16A 1_555 1_555
H23A C30A 1_555 1_555
C31A O3A 1_555 1_555
H24A C31A 1_555 1_555
H25A C31A 1_555 1_555
C32A C29A 1_555 1_555
H26A C32A 1_555 1_555
C33A C28A 1_555 1_555
H27A C33A 1_555 1_555
H28A C33A 1_555 1_555
C34A C33A 1_555 1_555
H29A C34A 1_555 1_555
H30A C34A 1_555 1_555
C35A C25A 1_555 1_555
H31A C35A 1_555 1_555
H32A C35A 1_555 1_555
C36A H33A 1_555 1_555
H34A C36A 1_555 1_555
C37A C35A 1_555 1_555
H35A C37A 1_555 1_555
H36A C37A 1_555 1_555
C38A H37A 1_555 1_555
H38A C38A 1_555 1_555
C39A H39A 1_555 1_555
H40A C39A 1_555 1_555
C40A C31A 1_555 1_555
H41A C40A 1_555 1_555
H42A C40A 1_555 1_555
C41A C37A 1_555 1_555
H43A C41A 1_555 1_555
H44A C41A 1_555 1_555
C42A C34A 1_555 1_555
H45A C42A 1_555 1_555
H46A C42A 1_555 1_555
H47A C42A 1_555 1_555
C43A C39A 1_555 1_555
H48A C43A 1_555 1_555
H49A C43A 1_555 1_555
C44A C43A 1_555 1_555
H50A C44A 1_555 1_555
H51A C44A 1_555 1_555
C45A C36A 1_555 1_555
H52A C45A 1_555 1_555
H53A C45A 1_555 1_555
C46A C44A 1_555 1_555
H54A C46A 1_555 1_555
H55A C46A 1_555 1_555
H56A C46A 1_555 1_555
C47A C38A 1_555 1_555
H57A C47A 1_555 1_555
H58A C47A 1_555 1_555
C48A C47A 1_555 1_555
H59A C48A 1_555 1_555
H60A C48A 1_555 1_555
C49A C48A 1_555 1_555
H61A C49A 1_555 1_555
H62A C49A 1_555 1_555
H63A C49A 1_555 1_555
O4A C51A 1_555 1_555
O5A C54A 1_555 1_555
O6A C60A 1_555 1_555
C50A C55A 1_555 1_555
C51A C54A 1_555 1_555
C52A C62A 1_555 1_555
C53A C67 1_555 1_555
C54A C60A 1_555 1_555
C55A H64A 1_555 1_555
C56A C53A 1_555 1_555
C57A H65A 1_555 1_555
C58A C50A 1_555 1_555
C59A C50A 1_555 1_555
H66A C59A 1_555 1_555
C60A C57A 1_555 1_555
C61A C53A 1_555 1_555
C62A C65A 1_555 1_555
C63A C56A 1_555 1_555
H67A C63A 1_555 1_555
C64A C55A 1_555 1_555
H68A C64A 1_555 1_555
C65A C61A 1_555 1_555
C66A C51A 1_555 1_555
H69A C66A 1_555 1_555
C67A C53 1_555 1_555
C68A C52A 1_555 1_555
H70A C68A 1_555 1_555
C69A C65A 1_555 1_555
H71A C69A 1_555 1_555
C70A O6A 1_555 1_555
H72A C70A 1_555 1_555
H73A C70A 1_555 1_555
C71A C62A 1_555 1_555
C72A O4A 1_555 1_555
H74A C72A 1_555 1_555
H75A C72A 1_555 1_555
C73A C71A 1_555 1_555
H76A C73A 1_555 1_555
C74A H77A 1_555 1_555
H78A C74A 1_555 1_555
C75A C68A 1_555 1_555
H79A C75A 1_555 1_555
C76A C70A 1_555 1_555
H80A C76A 1_555 1_555
H81A C76A 1_555 1_555
C77A O5A 1_555 1_555
H82A C77A 1_555 1_555
H83A C77A 1_555 1_555
C78A C72A 1_555 1_555
H84A C78A 1_555 1_555
H85A C78A 1_555 1_555
C79A C71A 1_555 1_555
H86A C79A 1_555 1_555
C80A C69A 1_555 1_555
H87A C80A 1_555 1_555
C81A C74A 1_555 1_555
H88A C81A 1_555 1_555
H89A C81A 1_555 1_555
C82A C78A 1_555 1_555
H90A C82A 1_555 1_555
H91A C82A 1_555 1_555
C83A C77A 1_555 1_555
H92A C83A 1_555 1_555
H93A C83A 1_555 1_555
C84A C81A 1_555 1_555
H94A C84A 1_555 1_555
H95A C84A 1_555 1_555
C85A C83A 1_555 1_555
H96A C85A 1_555 1_555
H97A C85A 1_555 1_555
C86A C85A 1_555 1_555
H98A C86A 1_555 1_555
H99A C86A 1_555 1_555
C87A C82A 1_555 1_555
H100A C87A 1_555 1_555
H101A C87A 1_555 1_555
C88A C84A 1_555 1_555
H102A C88A 1_555 1_555
H103A C88A 1_555 1_555
C89A C87A 1_555 1_555
H104A C89A 1_555 1_555
H105A C89A 1_555 1_555
C90A C89A 1_555 1_555
H106A C90A 1_555 1_555
H107A C90A 1_555 1_555
C91A C90A 1_555 1_555
H108A C91A 1_555 1_555
H109A C91A 1_555 1_555
C92A C91A 1_555 1_555
H110A C92A 1_555 1_555
H111A C92A 1_555 1_555
H112A C92A 1_555 1_555
C93A H113A 1_555 1_555
H114A C93A 1_555 1_555
C94A C93A 1_555 1_555
H115A C94A 1_555 1_555
H116A C94A 1_555 1_555
C95A C94A 1_555 1_555
H117A C95A 1_555 1_555
H118A C95A 1_555 1_555
H119A C95A 1_555 1_555
C96A C86A 1_555 1_555
H120A C96A 1_555 1_555
H121A C96A 1_555 1_555
C97A H122A 1_555 1_555
H123A C97A 1_555 1_555
H124A C97A 1_555 1_555
C98A C88A 1_555 1_555
H125A C98A 1_555 1_555
H126A C98A 1_555 1_555
C4 C7 1_555 1_555
C10 C12 1_555 1_555
C13 C19 1_555 1_555
C14 C20 1_555 1_555
C15 C20 1_555 1_555
C18 C21 1_555 1_555
C22 C24 1_555 1_555
C30 C32 1_555 1_555
C36 C40 1_555 1_555
C38 C45 1_555 1_555
C39 C41 1_555 1_555
C56 C64 1_555 1_555
C57 C58 1_555 1_555
C58 C66 1_555 1_555
C61 C67 1_555 1_555
C73 C75 1_555 1_555
C74 C76 1_555 1_555
C79 C80 1_555 1_555
C93 C96 1_555 1_555
C97 C98 1_555 1_555
C4A C7A 1_555 1_555
C5A C9A 1_555 1_555
C10A C12A 1_555 1_555
C13A C19A 1_555 1_555
C14A C20A 1_555 1_555
C15A C20A 1_555 1_555
C18A C21A 1_555 1_555
C22A C24A 1_555 1_555
C23A C26A 1_555 1_555
C30A C32A 1_555 1_555
C36A C40A 1_555 1_555
C38A C45A 1_555 1_555
C39A C41A 1_555 1_555
C52A C67A 1_555 1_555
C56A C64A 1_555 1_555
C57A C58A 1_555 1_555
C58A C66A 1_555 1_555
C59A C63A 1_555 1_555
C61A C67A 1_555 1_555
C73A C75A 1_555 1_555
C74A C76A 1_555 1_555
C79A C80A 1_555 1_555
C93A C96A 1_555 1_555
C97A C98A 1_555 1_555

#END
