
#######################################################################
#
#                 Cambridge Crystallographic Data Centre
#                                CCDC 
#
#######################################################################
#
# If this CIF has been generated from an entry in the Cambridge 
# Structural Database, then it will include bibliographic, chemical, 
# crystal, experimental, refinement or atomic coordinate data resulting 
# from the CCDC's data processing and validation procedures.
#
#######################################################################

data_YOVYAL
_chemical_formula_moiety         'C30 H23 Br1 N2 O3 S1'
_chemical_name_systematic        
4-bromo-N-(2,5-diphenyl-1H-pyrrol-3-yl)-N-((4-methylphenyl)sulfonyl)benzamide
_symmetry_cell_setting           monoclinic
_symmetry_space_group_name_H-M   'P 21/c'
_symmetry_Int_Tables_number      14
_space_group_name_Hall           '-P 2ybc'
loop_
_symmetry_equiv_pos_site_id
_symmetry_equiv_pos_as_xyz
1 x,y,z
2 -x,1/2+y,1/2-z
3 -x,-y,-z
4 x,1/2-y,1/2+z
_cell_length_a                   15.2526(8)
_cell_length_b                   8.7689(4)
_cell_length_c                   19.1451(11)
_cell_angle_alpha                90
_cell_angle_beta                 90.857(5)
_cell_angle_gamma                90
_cell_volume                     2560.34
_cell_formula_units_Z            4
loop_
_atom_site_label
_atom_site_type_symbol
_atom_site_fract_x
_atom_site_fract_y
_atom_site_fract_z
Br1 Br -0.01366(3) 0.61772(5) 0.73768(2)
C1 C 0.2986(2) 0.7610(3) 0.53283(17)
C2 C 0.3279(2) 0.8944(3) 0.56481(17)
C3 C 0.3996(2) 0.8592(3) 0.60914(17)
H1 H 0.4315 0.9290 0.6377
C4 C 0.4150(2) 0.7049(3) 0.60340(17)
C5 C 0.4847(2) 0.6103(3) 0.63414(18)
C6 C 0.5260(2) 0.6543(4) 0.69644(19)
H2 H 0.5077 0.7443 0.7197
C7 C 0.5932(2) 0.5677(4) 0.7244(2)
H3 H 0.6210 0.5989 0.7668
C8 C 0.6206(3) 0.4356(4) 0.6915(2)
H4 H 0.6670 0.3765 0.7111
C9 C 0.5797(2) 0.3906(4) 0.6297(2)
H5 H 0.5978 0.3002 0.6067
C10 C 0.5126(2) 0.4779(4) 0.60190(19)
H6 H 0.4849 0.4464 0.5596
C11 C 0.2213(2) 0.7251(4) 0.48978(18)
C12 C 0.1763(2) 0.5883(4) 0.5003(2)
H7 H 0.1975 0.5173 0.5340
C13 C 0.1015(2) 0.5558(4) 0.4623(2)
H8 H 0.0721 0.4616 0.4691
C14 C 0.0685(3) 0.6597(5) 0.4140(2)
H9 H 0.0160 0.6380 0.3885
C15 C 0.1124(2) 0.7942(5) 0.4033(2)
H10 H 0.0902 0.8656 0.3701
C16 C 0.1883(2) 0.8262(4) 0.44011(18)
H11 H 0.2185 0.9189 0.4315
C17 C 0.1982(2) 1.0658(4) 0.56109(18)
C18 C 0.1500(2) 0.9571(3) 0.60717(18)
C19 C 0.1828(2) 0.9041(4) 0.67021(18)
H12 H 0.2392 0.9353 0.6863
C20 C 0.1333(2) 0.8052(4) 0.71002(19)
H13 H 0.1550 0.7698 0.7539
C21 C 0.0520(2) 0.7588(4) 0.68527(19)
C22 C 0.0174(2) 0.8126(4) 0.6234(2)
H14 H -0.0391 0.7816 0.6076
C23 C 0.0671(2) 0.9130(4) 0.58478(19)
H15 H 0.0440 0.9525 0.5421
C24 C 0.3288(2) 1.1506(3) 0.42692(19)
C25 C 0.2619(2) 1.2317(4) 0.3940(2)
H16 H 0.2304 1.3077 0.4186
C26 C 0.2418(3) 1.2002(4) 0.3251(2)
H17 H 0.1961 1.2554 0.3023
C27 C 0.2871(3) 1.0889(5) 0.2883(2)
C28 C 0.3545(3) 1.0112(4) 0.3225(2)
H18 H 0.3867 0.9363 0.2978
C29 C 0.3757(2) 1.0406(4) 0.3915(2)
H19 H 0.4217 0.9862 0.4144
C30 C 0.2675(3) 1.0603(6) 0.2111(2)
H20 H 0.2061 1.0855 0.2007
H21 H 0.2780 0.9527 0.2002
H22 H 0.3057 1.1244 0.1827
N1 N 0.35305(18) 0.6490(3) 0.55783(16)
N2 N 0.28958(17) 1.0433(3) 0.55689(14)
O1 O 0.16101(16) 1.1658(3) 0.52885(14)
O2 O 0.44011(15) 1.1359(2) 0.53059(14)
O3 O 0.31945(16) 1.3215(2) 0.53822(13)
S1 S 0.35115(6) 1.17683(9) 0.51581(5)
H23 H 0.347(2) 0.566(4) 0.5476(18)
loop_
_geom_bond_atom_site_label_1
_geom_bond_atom_site_label_2
_geom_bond_site_symmetry_1
_geom_bond_site_symmetry_2
Br1 C21 1_555 1_555
C1 C2 1_555 1_555
C2 C3 1_555 1_555
C3 H1 1_555 1_555
C4 C3 1_555 1_555
C5 C4 1_555 1_555
C6 C5 1_555 1_555
H2 C6 1_555 1_555
C7 C6 1_555 1_555
H3 C7 1_555 1_555
C8 C7 1_555 1_555
H4 C8 1_555 1_555
C9 C8 1_555 1_555
H5 C9 1_555 1_555
C10 C5 1_555 1_555
H6 C10 1_555 1_555
C11 C1 1_555 1_555
C12 C11 1_555 1_555
H7 C12 1_555 1_555
C13 C12 1_555 1_555
H8 C13 1_555 1_555
C14 C13 1_555 1_555
H9 C14 1_555 1_555
C15 C14 1_555 1_555
H10 C15 1_555 1_555
C16 C11 1_555 1_555
H11 C16 1_555 1_555
C17 C18 1_555 1_555
C18 C19 1_555 1_555
C19 H12 1_555 1_555
C20 C19 1_555 1_555
H13 C20 1_555 1_555
C21 C20 1_555 1_555
C22 C21 1_555 1_555
H14 C22 1_555 1_555
C23 C18 1_555 1_555
H15 C23 1_555 1_555
C24 C25 1_555 1_555
C25 H16 1_555 1_555
C26 C25 1_555 1_555
H17 C26 1_555 1_555
C27 C26 1_555 1_555
C28 C27 1_555 1_555
H18 C28 1_555 1_555
C29 C24 1_555 1_555
H19 C29 1_555 1_555
C30 C27 1_555 1_555
H20 C30 1_555 1_555
H21 C30 1_555 1_555
H22 C30 1_555 1_555
N1 C1 1_555 1_555
N2 C2 1_555 1_555
O1 C17 1_555 1_555
O2 S1 1_555 1_555
O3 S1 1_555 1_555
S1 C24 1_555 1_555
H23 N1 1_555 1_555
C4 N1 1_555 1_555
C9 C10 1_555 1_555
C15 C16 1_555 1_555
C17 N2 1_555 1_555
C22 C23 1_555 1_555
C28 C29 1_555 1_555
N2 S1 1_555 1_555

#END
