
#######################################################################
#
#                 Cambridge Crystallographic Data Centre
#                                CCDC 
#
#######################################################################
#
# If this CIF has been generated from an entry in the Cambridge 
# Structural Database, then it will include bibliographic, chemical, 
# crystal, experimental, refinement or atomic coordinate data resulting 
# from the CCDC's data processing and validation procedures.
#
#######################################################################

data_YOVZIT
_chemical_name_common            
6-phenyl-4-(4-methoxycarbonylphenyl)-2,2'-bipyridine
_chemical_formula_moiety         'C24 H18 N2 O2'
_chemical_name_systematic        
"Methyl 4-(6-phenyl-2,2'-bipyridin-4-yl)benzoate"
_symmetry_cell_setting           orthorhombic
_symmetry_space_group_name_H-M   'P b c n'
_symmetry_Int_Tables_number      60
_space_group_name_Hall           '-P 2n 2ab'
loop_
_symmetry_equiv_pos_site_id
_symmetry_equiv_pos_as_xyz
1 x,y,z
2 1/2-x,1/2-y,1/2+z
3 -x,y,1/2-z
4 1/2+x,1/2-y,-z
5 -x,-y,-z
6 1/2+x,1/2+y,1/2-z
7 x,-y,1/2+z
8 1/2-x,1/2+y,z
_cell_length_a                   28.8215(18)
_cell_length_b                   6.9172(4)
_cell_length_c                   18.2398(11)
_cell_angle_alpha                90
_cell_angle_beta                 90
_cell_angle_gamma                90
_cell_volume                     3636.36
_exptl_crystal_colour            colorless
_exptl_crystal_description       plate
_cell_formula_units_Z            8
loop_
_atom_site_label
_atom_site_type_symbol
_atom_site_fract_x
_atom_site_fract_y
_atom_site_fract_z
N1 N 0.83644(3) 0.54659(11) 0.45146(4)
C1 C 0.81543(3) 0.71143(13) 0.43128(5)
H1 H 0.8196(5) 0.750(2) 0.3804(8)
C2 C 0.78791(3) 0.82149(13) 0.47813(5)
H2 H 0.7729(5) 0.939(2) 0.4607(8)
C3 C 0.78291(3) 0.76060(13) 0.55030(5)
H3 H 0.7650(5) 0.835(2) 0.5853(7)
C4 C 0.80504(3) 0.59244(12) 0.57264(5)
H4 H 0.8036(5) 0.548(2) 0.6236(8)
C5 C 0.83084(3) 0.48767(12) 0.52132(4)
N2 N 0.83957(3) 0.22436(10) 0.60628(4)
C6 C 0.85292(3) 0.30109(12) 0.54193(4)
C7 C 0.88494(3) 0.21214(12) 0.49562(5)
H5 H 0.8924(5) 0.2739(19) 0.4489(7)
C8 C 0.90465(3) 0.03535(12) 0.51611(5)
C9 C 0.89089(3) -0.04314(12) 0.58316(5)
H6 H 0.9034(4) -0.1665(19) 0.6013(7)
C10 C 0.85819(3) 0.05418(12) 0.62641(4)
C11 C 0.84081(3) -0.02762(12) 0.69668(5)
C12 C 0.79742(3) 0.02991(13) 0.72335(5)
H7 H 0.7794(5) 0.124(2) 0.6956(7)
C13 C 0.77991(3) -0.04734(13) 0.78822(5)
H8 H 0.7489(5) -0.011(2) 0.8046(8)
C14 C 0.80588(3) -0.18056(13) 0.82787(5)
H9 H 0.7940(5) -0.233(2) 0.8751(8)
C15 C 0.84903(4) -0.23782(14) 0.80185(5)
H10 H 0.8679(5) -0.330(2) 0.8306(8)
C16 C 0.86645(3) -0.16330(13) 0.73642(5)
H11 H 0.8965(6) -0.203(2) 0.7190(8)
C17 C 0.93863(3) -0.06405(12) 0.46779(5)
C18 C 0.94712(3) -0.26278(13) 0.47493(5)
H12 H 0.9296(5) -0.3399(19) 0.5105(7)
C19 C 0.97945(3) -0.35404(13) 0.43028(5)
H13 H 0.9859(5) -0.495(2) 0.4362(8)
C20 C 1.00392(3) -0.25005(12) 0.37749(5)
C21 C 0.99557(3) -0.05234(12) 0.36918(5)
H14 H 1.0127(5) 0.022(2) 0.3313(8)
C22 C 0.96325(3) 0.03842(12) 0.41421(5)
H15 H 0.9584(5) 0.177(2) 0.4084(8)
C23 C 1.03835(3) -0.35579(13) 0.33163(5)
O1 O 1.04813(3) -0.52500(11) 0.33977(5)
O2 O 1.05722(2) -0.24301(10) 0.28013(4)
C24 C 1.09081(3) -0.33601(16) 0.23308(5)
H16 H 1.0990(6) -0.234(2) 0.1959(9)
H17 H 1.0760(5) -0.448(2) 0.2090(8)
H18 H 1.1175(5) -0.377(2) 0.2623(7)
loop_
_geom_bond_atom_site_label_1
_geom_bond_atom_site_label_2
_geom_bond_site_symmetry_1
_geom_bond_site_symmetry_2
N1 C1 1_555 1_555
C1 H1 1_555 1_555
C2 C1 1_555 1_555
H2 C2 1_555 1_555
C3 C2 1_555 1_555
H3 C3 1_555 1_555
C4 C3 1_555 1_555
H4 C4 1_555 1_555
C5 N1 1_555 1_555
N2 C6 1_555 1_555
C6 C5 1_555 1_555
C7 C6 1_555 1_555
H5 C7 1_555 1_555
C8 C7 1_555 1_555
C9 C8 1_555 1_555
H6 C9 1_555 1_555
C10 N2 1_555 1_555
C11 C10 1_555 1_555
C12 C11 1_555 1_555
H7 C12 1_555 1_555
C13 C12 1_555 1_555
H8 C13 1_555 1_555
C14 C13 1_555 1_555
H9 C14 1_555 1_555
C15 C14 1_555 1_555
H10 C15 1_555 1_555
C16 C11 1_555 1_555
H11 C16 1_555 1_555
C17 C8 1_555 1_555
C18 C17 1_555 1_555
H12 C18 1_555 1_555
C19 C18 1_555 1_555
H13 C19 1_555 1_555
C20 C19 1_555 1_555
C21 C20 1_555 1_555
H14 C21 1_555 1_555
C22 C17 1_555 1_555
H15 C22 1_555 1_555
C23 C20 1_555 1_555
O1 C23 1_555 1_555
O2 C23 1_555 1_555
C24 O2 1_555 1_555
H16 C24 1_555 1_555
H17 C24 1_555 1_555
H18 C24 1_555 1_555
C4 C5 1_555 1_555
C9 C10 1_555 1_555
C15 C16 1_555 1_555
C21 C22 1_555 1_555

#END
