
#######################################################################
#
#                 Cambridge Crystallographic Data Centre
#                                CCDC 
#
#######################################################################
#
# If this CIF has been generated from an entry in the Cambridge 
# Structural Database, then it will include bibliographic, chemical, 
# crystal, experimental, refinement or atomic coordinate data resulting 
# from the CCDC's data processing and validation procedures.
#
#######################################################################

data_YOVZEP
_chemical_formula_moiety         'C12 H10 N4 O1'
_chemical_name_systematic        N'-(3-Pyridinylmethylene)isonicotinohydrazide
_symmetry_cell_setting           monoclinic
_symmetry_space_group_name_H-M   'P 21/c'
_symmetry_Int_Tables_number      14
_space_group_name_Hall           '-P 2ybc'
loop_
_symmetry_equiv_pos_site_id
_symmetry_equiv_pos_as_xyz
1 x,y,z
2 -x,1/2+y,1/2-z
3 -x,-y,-z
4 x,1/2-y,1/2+z
_cell_length_a                   12.810(3)
_cell_length_b                   8.2966(16)
_cell_length_c                   10.503(2)
_cell_angle_alpha                90
_cell_angle_beta                 107.128(4)
_cell_angle_gamma                90
_cell_volume                     1066.75
_exptl_crystal_colour            yellow
_exptl_crystal_description       slice
_cell_formula_units_Z            4
loop_
_atom_site_label
_atom_site_type_symbol
_atom_site_fract_x
_atom_site_fract_y
_atom_site_fract_z
C1 C 0.87362(17) 0.4878(3) 0.6532(2)
H1 H 0.8525 0.4094 0.7040
C2 C 0.97530(19) 0.5605(4) 0.6976(3)
H2 H 1.0217 0.5265 0.7790
C3 C 0.9438(2) 0.7162(3) 0.5168(3)
H3 H 0.9667 0.7956 0.4686
C4 C 0.84150(18) 0.6509(3) 0.4614(2)
H4 H 0.7983 0.6846 0.3781
C5 C 0.80437(15) 0.5351(2) 0.53114(19)
C6 C 0.69365(15) 0.4618(2) 0.46852(19)
C7 C 0.51687(15) 0.2445(2) 0.59818(19)
H5 H 0.5556 0.2625 0.6869
C8 C 0.41962(14) 0.1423(2) 0.56756(18)
C9 C 0.35733(15) 0.1012(2) 0.43919(18)
H6 H 0.3747 0.1418 0.3654
C10 C 0.26965(16) -0.0004(3) 0.4236(2)
H7 H 0.2271 -0.0304 0.3389
C11 C 0.24567(16) -0.0573(3) 0.5349(2)
H8 H 0.1855 -0.1247 0.5227
C12 C 0.38969(15) 0.0765(2) 0.67278(19)
H9 H 0.4320 0.1019 0.7587
N1 N 1.01155(17) 0.6746(3) 0.6331(3)
N2 N 0.64737(12) 0.39309(19) 0.55518(15)
H10 H 0.6782 0.4013 0.6395
N3 N 0.55029(12) 0.30953(19) 0.50796(15)
N4 N 0.30414(13) -0.0210(2) 0.65930(16)
O1 O 0.65205(12) 0.4651(2) 0.34865(14)
loop_
_geom_bond_atom_site_label_1
_geom_bond_atom_site_label_2
_geom_bond_site_symmetry_1
_geom_bond_site_symmetry_2
C1 H1 1_555 1_555
C2 C1 1_555 1_555
H2 C2 1_555 1_555
C3 H3 1_555 1_555
C4 C3 1_555 1_555
H4 C4 1_555 1_555
C5 C1 1_555 1_555
C6 C5 1_555 1_555
C7 H5 1_555 1_555
C8 C7 1_555 1_555
C9 C8 1_555 1_555
H6 C9 1_555 1_555
C10 C9 1_555 1_555
H7 C10 1_555 1_555
C11 C10 1_555 1_555
H8 C11 1_555 1_555
C12 C8 1_555 1_555
H9 C12 1_555 1_555
N1 C2 1_555 1_555
N2 C6 1_555 1_555
H10 N2 1_555 1_555
N3 C7 1_555 1_555
N4 C11 1_555 1_555
O1 C6 1_555 1_555
C3 N1 1_555 1_555
C4 C5 1_555 1_555
C12 N4 1_555 1_555
N2 N3 1_555 1_555

#END
