
#######################################################################
#
#                 Cambridge Crystallographic Data Centre
#                                CCDC 
#
#######################################################################
#
# If this CIF has been generated from an entry in the Cambridge 
# Structural Database, then it will include bibliographic, chemical, 
# crystal, experimental, refinement or atomic coordinate data resulting 
# from the CCDC's data processing and validation procedures.
#
#######################################################################

data_YOWFOH
_chemical_formula_moiety         'C21 H19 N1 O5 S1'
_chemical_name_systematic        
'ethyl 10-methyl-7-oxo-9-phenyl-7,10-dihydro-10aH-pyrido[1,2-b][1,2]benzothiazole-10a-carboxylate 5,5-dioxide'
_symmetry_cell_setting           orthorhombic
_symmetry_space_group_name_H-M   'P 21 21 21'
_symmetry_Int_Tables_number      19
_space_group_name_Hall           'P 2ac 2ab'
loop_
_symmetry_equiv_pos_site_id
_symmetry_equiv_pos_as_xyz
1 x,y,z
2 1/2-x,-y,1/2+z
3 -x,1/2+y,1/2-z
4 1/2+x,1/2-y,-z
_cell_length_a                   10.7604(10)
_cell_length_b                   13.0757(12)
_cell_length_c                   13.6073(11)
_cell_angle_alpha                90
_cell_angle_beta                 90
_cell_angle_gamma                90
_cell_volume                     1914.54
_exptl_crystal_colour            colorless
_exptl_crystal_description       block
_cell_formula_units_Z            4
loop_
_atom_site_label
_atom_site_type_symbol
_atom_site_fract_x
_atom_site_fract_y
_atom_site_fract_z
C1 C 0.7824(3) 0.0678(3) 0.6486(3)
C2 C 0.8014(4) 0.1226(3) 0.5548(3)
H1 H 0.7492 0.1064 0.5007
C3 C 0.8896(4) 0.1942(3) 0.5429(3)
C4 C 0.9738(4) 0.2205(3) 0.6293(3)
H2 H 1.0046 0.2921 0.6201
C5 C 0.8931(4) 0.2178(3) 0.7220(3)
C6 C 0.9598(4) 0.2305(3) 0.8197(3)
C7 C 1.0419(4) 0.3074(3) 0.8439(3)
H3 H 1.0675 0.356 0.7961
C8 C 1.0868(4) 0.3125(3) 0.9397(3)
H4 H 1.145 0.3641 0.9568
C9 C 1.0475(4) 0.2427(3) 1.0117(3)
H5 H 1.0774 0.2482 1.0772
C10 C 0.9650(4) 0.1660(3) 0.9866(3)
H6 H 0.9369 0.1182 1.0342
C11 C 0.9247(4) 0.1609(3) 0.8905(3)
C12 C 0.9122(4) 0.2418(3) 0.4457(3)
C13 C 0.9554(4) 0.3419(3) 0.4377(3)
H7 H 0.9748 0.3794 0.4955
C14 C 0.9704(4) 0.3878(3) 0.3463(3)
H8 H 0.9979 0.4567 0.342
C15 C 0.9453(4) 0.3329(3) 0.2616(3)
H9 H 0.9573 0.3635 0.199
C16 C 0.9024(4) 0.2328(3) 0.2685(3)
H10 H 0.8843 0.1952 0.2105
C17 C 0.8860(4) 0.1880(3) 0.3594(3)
H11 H 0.8565 0.1196 0.3634
C18 C 1.0857(4) 0.1501(3) 0.6349(3)
H12 H 1.0575 0.0793 0.6423
H13 H 1.1371 0.1691 0.6914
H14 H 1.1347 0.1564 0.5745
C19 C 0.7872(4) 0.2991(3) 0.7200(3)
C20 C 0.7127(6) 0.4560(4) 0.6563(4)
H15 H 0.7023 0.4897 0.7209
H16 H 0.6324 0.4246 0.6372
C21 C 0.7528(6) 0.5319(4) 0.5808(5)
H17 H 0.8301 0.5648 0.6021
H18 H 0.688 0.5839 0.5726
H19 H 0.7666 0.4969 0.518
N1 N 0.8364(3) 0.1148(2) 0.7291(2)
O1 O 0.7257(2) -0.01234(18) 0.65658(19)
O2 O 0.6953(3) 0.2914(2) 0.7701(2)
O3 O 0.8115(3) 0.3766(2) 0.6616(2)
O4 O 0.8900(3) -0.03213(18) 0.8457(2)
O5 O 0.7049(2) 0.06868(19) 0.87986(18)
S1 S 0.82850(9) 0.06486(6) 0.84214(6)
loop_
_geom_bond_atom_site_label_1
_geom_bond_atom_site_label_2
_geom_bond_site_symmetry_1
_geom_bond_site_symmetry_2
C1 C2 1_555 1_555
C2 H1 1_555 1_555
C3 C2 1_555 1_555
C4 C3 1_555 1_555
H2 C4 1_555 1_555
C5 C4 1_555 1_555
C6 C5 1_555 1_555
C7 C6 1_555 1_555
H3 C7 1_555 1_555
C8 C7 1_555 1_555
H4 C8 1_555 1_555
C9 C8 1_555 1_555
H5 C9 1_555 1_555
C10 C9 1_555 1_555
H6 C10 1_555 1_555
C11 C6 1_555 1_555
C12 C3 1_555 1_555
C13 C12 1_555 1_555
H7 C13 1_555 1_555
C14 C13 1_555 1_555
H8 C14 1_555 1_555
C15 C14 1_555 1_555
H9 C15 1_555 1_555
C16 C15 1_555 1_555
H10 C16 1_555 1_555
C17 C12 1_555 1_555
H11 C17 1_555 1_555
C18 C4 1_555 1_555
H12 C18 1_555 1_555
H13 C18 1_555 1_555
H14 C18 1_555 1_555
C19 C5 1_555 1_555
C20 H15 1_555 1_555
H16 C20 1_555 1_555
C21 C20 1_555 1_555
H17 C21 1_555 1_555
H18 C21 1_555 1_555
H19 C21 1_555 1_555
N1 C1 1_555 1_555
O1 C1 1_555 1_555
O2 C19 1_555 1_555
O3 C19 1_555 1_555
O4 S1 1_555 1_555
O5 S1 1_555 1_555
S1 C11 1_555 1_555
C5 N1 1_555 1_555
C10 C11 1_555 1_555
C16 C17 1_555 1_555
C20 O3 1_555 1_555
N1 S1 1_555 1_555

#END
