
#######################################################################
#
#                 Cambridge Crystallographic Data Centre
#                                CCDC 
#
#######################################################################
#
# If this CIF has been generated from an entry in the Cambridge 
# Structural Database, then it will include bibliographic, chemical, 
# crystal, experimental, refinement or atomic coordinate data resulting 
# from the CCDC's data processing and validation procedures.
#
#######################################################################

data_YOWGEY
_chemical_formula_moiety         'C30 H26 Br1 Cl1 N2 O4'
_chemical_name_systematic        
"t-butyl 1-benzyl-5-bromo-3'-chloro-2,6'-dioxo-4'-phenyl-1,2,3',6'-tetrahydro-1'H-spiro[indole-3,2'-pyridine]-1'-carboxylate"
_symmetry_cell_setting           monoclinic
_symmetry_space_group_name_H-M   'P 21'
_symmetry_Int_Tables_number      4
_space_group_name_Hall           'P 2yb'
loop_
_symmetry_equiv_pos_site_id
_symmetry_equiv_pos_as_xyz
1 x,y,z
2 -x,1/2+y,-z
_cell_length_a                   10.5289(5)
_cell_length_b                   9.4847(5)
_cell_length_c                   14.0510(7)
_cell_angle_alpha                90
_cell_angle_beta                 108.4158(18)
_cell_angle_gamma                90
_cell_volume                     1331.32
_exptl_crystal_colour            colorless
_exptl_crystal_description       block
_cell_formula_units_Z            2
loop_
_atom_site_label
_atom_site_type_symbol
_atom_site_fract_x
_atom_site_fract_y
_atom_site_fract_z
Br1 Br -0.37076(3) 1.00120(4) 0.68880(3)
C1 C 0.2316(3) 0.6608(4) 0.6633(3)
C2 C 0.2701(3) 0.7109(4) 0.5768(3)
H1 H 0.3313 0.655 0.5559
C3 C 0.2251(3) 0.8290(4) 0.5260(2)
C4 C 0.1147(3) 0.9077(4) 0.5517(2)
H2 H 0.1191 1.0095 0.5343
C5 C 0.1299(3) 0.8967(3) 0.6639(2)
C6 C 0.2554(3) 0.9885(4) 0.7169(2)
C7 C 0.0721(3) 1.1077(4) 0.7286(2)
C8 C -0.0074(3) 1.2095(4) 0.7524(3)
H3 H 0.0279 1.2989 0.778
C9 C -0.1406(3) 1.1756(4) 0.7373(3)
H4 H -0.1979 1.2429 0.7528
C10 C -0.1911(3) 1.0449(4) 0.6999(3)
C11 C -0.1132(3) 0.9439(4) 0.6727(3)
H5 H -0.1496 0.8557 0.6451
C12 C 0.0200(3) 0.9777(4) 0.6876(2)
C13 C 0.1214(3) 0.7093(4) 0.7872(3)
C14 C 0.1235(4) 0.8088(4) 0.9494(3)
C15 C -0.0237(13) 0.8207(15) 0.9273(11)
H6 H -0.0558 0.9069 0.8888
H7 H -0.0448 0.8242 0.9904
H8 H -0.0677 0.7387 0.8882
C16 C 0.2018(17) 0.9341(12) 1.0057(8)
H9 H 0.1753 1.0194 0.9649
H10 H 0.2978 0.9174 1.0196
H11 H 0.1827 0.9463 1.0691
C17 C 0.1802(12) 0.6718(12) 1.0075(11)
H12 H 0.1786 0.6797 1.0766
H13 H 0.2726 0.6578 1.0079
H14 H 0.1254 0.5913 0.9747
C18 C 0.2793(4) 0.8893(4) 0.4503(3)
C19 C 0.4068(4) 0.8505(4) 0.4491(3)
H15 H 0.4577 0.7847 0.497
C20 C 0.4598(4) 0.9064(5) 0.3794(3)
H16 H 0.5468 0.8791 0.3799
C21 C 0.3879(4) 1.0011(7) 0.3091(3)
H17 H 0.4245 1.0383 0.2606
C22 C 0.2616(4) 1.0425(4) 0.3092(3)
H18 H 0.2121 1.1087 0.261
C23 C 0.2076(4) 0.9879(5) 0.3791(3)
H19 H 0.1212 1.0173 0.3789
C24 C 0.2999(3) 1.2330(4) 0.7842(3)
H20 H 0.2525 1.3226 0.7596
H21 H 0.3788 1.2283 0.7603
C25 C 0.3471(3) 1.2338(4) 0.8974(3)
C26 C 0.4424(4) 1.1367(4) 0.9505(3)
H22 H 0.4759 1.0678 0.9156
C27 C 0.4883(4) 1.1406(5) 1.0547(3)
H23 H 0.5527 1.0736 1.0907
C28 C 0.4412(4) 1.2408(4) 1.1063(3)
H24 H 0.4743 1.2438 1.1775
C29 C 0.3457(4) 1.3369(4) 1.0541(3)
H25 H 0.3116 1.4048 1.0894
C30 C 0.2997(3) 1.3336(4) 0.9497(3)
H26 H 0.2351 1.4006 0.914
Cl1 Cl -0.04520(8) 0.83676(10) 0.47489(6)
N1 N 0.1466(3) 0.7491(3) 0.6964(2)
N2 N 0.2098(3) 1.1142(3) 0.7407(2)
O1 O 0.2752(3) 0.5520(3) 0.7062(2)
O2 O 0.3710(2) 0.9565(2) 0.72975(19)
O3 O 0.0756(3) 0.5967(3) 0.7979(2)
O4 O 0.1550(2) 0.8141(3) 0.85253(18)
C31? C -0.022(2) 0.760(3) 0.9313(17)
H27? H -0.0279 0.6584 0.9189
H28? H -0.081 0.8097 0.8729
H29? H -0.0482 0.7817 0.9906
C32? C 0.1299(18) 0.9659(13) 0.9816(11)
H30? H 0.1152 0.9729 1.0469
H31? H 0.0605 1.0193 0.9316
H32? H 0.2182 1.0045 0.9866
C33? C 0.220(2) 0.719(2) 1.0165(15)
H33? H 0.2035 0.6213 0.9938
H34? H 0.2128 0.7279 1.0841
H35? H 0.3101 0.7472 1.0176
loop_
_geom_bond_atom_site_label_1
_geom_bond_atom_site_label_2
_geom_bond_site_symmetry_1
_geom_bond_site_symmetry_2
Br1 C10 1_555 1_555
C1 C2 1_555 1_555
C2 H1 1_555 1_555
C3 C2 1_555 1_555
C4 C3 1_555 1_555
H2 C4 1_555 1_555
C5 C4 1_555 1_555
C6 C5 1_555 1_555
C7 C8 1_555 1_555
C8 H3 1_555 1_555
C9 C8 1_555 1_555
H4 C9 1_555 1_555
C10 C9 1_555 1_555
C11 C10 1_555 1_555
H5 C11 1_555 1_555
C12 C5 1_555 1_555
C13 N1 1_555 1_555
C14 C15 1_555 1_555
C15 H6 1_555 1_555
H7 C15 1_555 1_555
H8 C15 1_555 1_555
C16 C14 1_555 1_555
H9 C16 1_555 1_555
H10 C16 1_555 1_555
H11 C16 1_555 1_555
C17 C14 1_555 1_555
H12 C17 1_555 1_555
H13 C17 1_555 1_555
H14 C17 1_555 1_555
C18 C3 1_555 1_555
C19 C18 1_555 1_555
H15 C19 1_555 1_555
C20 C19 1_555 1_555
H16 C20 1_555 1_555
C21 C20 1_555 1_555
H17 C21 1_555 1_555
C22 C21 1_555 1_555
H18 C22 1_555 1_555
C23 C18 1_555 1_555
H19 C23 1_555 1_555
C24 H20 1_555 1_555
H21 C24 1_555 1_555
C25 C24 1_555 1_555
C26 C25 1_555 1_555
H22 C26 1_555 1_555
C27 C26 1_555 1_555
H23 C27 1_555 1_555
C28 C27 1_555 1_555
H24 C28 1_555 1_555
C29 C28 1_555 1_555
H25 C29 1_555 1_555
C30 C25 1_555 1_555
H26 C30 1_555 1_555
Cl1 C4 1_555 1_555
N1 C1 1_555 1_555
N2 C6 1_555 1_555
O1 C1 1_555 1_555
O2 C6 1_555 1_555
O3 C13 1_555 1_555
O4 C13 1_555 1_555
C5 N1 1_555 1_555
C7 C12 1_555 1_555
C7 N2 1_555 1_555
C11 C12 1_555 1_555
C14 O4 1_555 1_555
C22 C23 1_555 1_555
C24 N2 1_555 1_555
C29 C30 1_555 1_555

#END
