
#######################################################################
#
#                 Cambridge Crystallographic Data Centre
#                                CCDC 
#
#######################################################################
#
# If this CIF has been generated from an entry in the Cambridge 
# Structural Database, then it will include bibliographic, chemical, 
# crystal, experimental, refinement or atomic coordinate data resulting 
# from the CCDC's data processing and validation procedures.
#
#######################################################################

data_YOWJAX
_chemical_formula_moiety         'C36 H44 N4 S4,2(C1 H4 O1)'
_chemical_name_systematic        
'2,2,10,10,18,18,26,26-octamethyl-6,14,22,30-tetrathia-33,34,35,36-tetraazanonacyclo[25.5.1.1^3,9^.1^11,17^.1^19,25^.0^4,8^.0^12,16^.0^20,24^.0^28,32^]hexatriaconta-1(32),3,8,11,16,19,24,27-octaene methanol solvate'
_symmetry_cell_setting           monoclinic
_symmetry_space_group_name_H-M   'P 21/c'
_symmetry_Int_Tables_number      14
_space_group_name_Hall           '-P 2ybc'
loop_
_symmetry_equiv_pos_site_id
_symmetry_equiv_pos_as_xyz
1 x,y,z
2 -x,1/2+y,1/2-z
3 -x,-y,-z
4 x,1/2-y,1/2+z
_cell_length_a                   9.4899(8)
_cell_length_b                   9.8650(9)
_cell_length_c                   19.7002(15)
_cell_angle_alpha                90
_cell_angle_beta                 97.554(2)
_cell_angle_gamma                90
_cell_volume                     1828.28
_exptl_crystal_colour            colorless
_exptl_crystal_description       prisms
_cell_formula_units_Z            2
loop_
_atom_site_label
_atom_site_type_symbol
_atom_site_fract_x
_atom_site_fract_y
_atom_site_fract_z
C1 C 0.3800(2) 0.52890(18) 0.34656(9)
C2 C 0.2410(2) 0.48935(19) 0.33011(9)
C3 C 0.2262(2) 0.35743(19) 0.35723(9)
C4 C 0.3565(2) 0.31702(18) 0.39035(9)
C5 C 0.4038(2) 0.19083(18) 0.43062(9)
C6 C 0.3845(2) 0.21190(18) 0.50558(9)
C7 C 0.2757(2) 0.17961(19) 0.54263(9)
C8 C 0.3118(2) 0.22853(18) 0.61035(9)
C9 C 0.4411(2) 0.29156(18) 0.61406(9)
C10 C 0.5380(2) 0.35052(19) 0.67414(9)
C11 C 0.1096(2) 0.5490(2) 0.29059(11)
H1 H 0.1218 0.5606 0.2418
H2 H 0.0876 0.6382 0.3096
C12 C 0.0819(2) 0.2942(2) 0.34263(12)
H3 H 0.0469 0.2657 0.3856
H4 H 0.0843 0.2141 0.3125
C13 C 0.5598(2) 0.1570(2) 0.42411(10)
H5 H 0.5718 0.1495 0.3756
H6 H 0.5856 0.0708 0.4472
H7 H 0.6214 0.2292 0.4454
C14 C 0.3141(2) 0.06971(19) 0.40166(10)
H8 H 0.2140 0.0863 0.4063
H9 H 0.3465 -0.0125 0.4270
H10 H 0.3244 0.0579 0.3532
C15 C 0.1388(2) 0.1033(2) 0.52839(11)
H11 H 0.1561 0.0087 0.5148
H12 H 0.0743 0.1474 0.4913
C16 C 0.2081(2) 0.1992(2) 0.65969(11)
H13 H 0.1733 0.2844 0.6782
H14 H 0.2528 0.1429 0.6983
C17 C 0.4483(2) 0.3956(2) 0.72953(10)
H15 H 0.5087 0.4444 0.7657
H16 H 0.4073 0.3157 0.7491
H17 H 0.3718 0.4553 0.7091
C18 C 0.6424(2) 0.2401(2) 0.70462(11)
H18 H 0.7040 0.2136 0.6707
H19 H 0.5888 0.1609 0.7170
H20 H 0.7007 0.2754 0.7455
N1 N 0.44846(17) 0.42287(15) 0.38288(8)
N2 N 0.48405(17) 0.28007(16) 0.55034(8)
H21 H 0.538(3) 0.426(2) 0.4038(11)
H22 H 0.559(3) 0.319(3) 0.5383(12)
S1 S -0.03116(6) 0.42719(7) 0.29989(4)
S2 S 0.06201(6) 0.10722(7) 0.60945(3)
C1B C 0.6200(2) 0.47110(18) 0.65344(9)
C2B C 0.7590(2) 0.51065(19) 0.66989(9)
C3B C 0.7738(2) 0.64257(19) 0.64277(9)
C4B C 0.6435(2) 0.68298(18) 0.60965(9)
C5B C 0.5962(2) 0.80917(18) 0.56938(9)
C6B C 0.6155(2) 0.78810(18) 0.49442(9)
C7B C 0.7243(2) 0.82039(19) 0.45737(9)
C8B C 0.6882(2) 0.77147(18) 0.38965(9)
C9B C 0.5589(2) 0.70844(18) 0.38594(9)
C10B C 0.4620(2) 0.64948(19) 0.32586(9)
C11B C 0.8904(2) 0.4510(2) 0.70941(11)
H1B H 0.8782 0.4394 0.7582
H2B H 0.9124 0.3618 0.6904
C12B C 0.9181(2) 0.7058(2) 0.65737(12)
H3B H 0.9531 0.7343 0.6144
H4B H 0.9157 0.7859 0.6875
C13B C 0.4402(2) 0.8430(2) 0.57589(10)
H5B H 0.4282 0.8505 0.6244
H6B H 0.4144 0.9292 0.5528
H7B H 0.3786 0.7708 0.5546
C14B C 0.6859(2) 0.93029(19) 0.59834(10)
H8B H 0.7860 0.9137 0.5937
H9B H 0.6535 1.0125 0.5730
H10B H 0.6756 0.9421 0.6468
C15B C 0.8612(2) 0.8967(2) 0.47161(11)
H11B H 0.8439 0.9913 0.4852
H12B H 0.9257 0.8526 0.5087
C16B C 0.7919(2) 0.8008(2) 0.34031(11)
H13B H 0.8267 0.7156 0.3218
H14B H 0.7472 0.8571 0.3017
C17B C 0.5517(2) 0.6044(2) 0.27047(10)
H15B H 0.4913 0.5556 0.2343
H16B H 0.5927 0.6843 0.2509
H17B H 0.6282 0.5447 0.2909
C18B C 0.3576(2) 0.7599(2) 0.29538(11)
H18B H 0.2960 0.7864 0.3293
H19B H 0.4112 0.8391 0.2830
H20B H 0.2993 0.7246 0.2545
N1B N 0.55154(17) 0.57713(15) 0.61712(8)
N2B N 0.51595(17) 0.71993(16) 0.44966(8)
H21B H 0.462(3) 0.574(2) 0.5962(11)
H22B H 0.441(3) 0.681(3) 0.4617(12)
S1B S 1.03116(6) 0.57281(7) 0.70011(4)
S2B S 0.93799(6) 0.89278(7) 0.39055(3)
C19 C 0.8431(3) 0.4155(4) 0.4987(2)
H23 H 0.8878 0.4587 0.4621
H24 H 0.8528 0.3169 0.4957
H25 H 0.8898 0.4469 0.5433
O1 O 0.69916(16) 0.44986(16) 0.49165(8)
H26 H 0.685(5) 0.533(5) 0.511(2)
loop_
_geom_bond_atom_site_label_1
_geom_bond_atom_site_label_2
_geom_bond_site_symmetry_1
_geom_bond_site_symmetry_2
C1 C2 1_555 1_555
C2 C3 1_555 1_555
C3 C4 1_555 1_555
C4 C5 1_555 1_555
C5 C6 1_555 1_555
C6 C7 1_555 1_555
C7 C8 1_555 1_555
C8 C9 1_555 1_555
C9 C10 1_555 1_555
C10 C17 1_555 1_555
C11 C2 1_555 1_555
H1 C11 1_555 1_555
H2 C11 1_555 1_555
C12 C3 1_555 1_555
H3 C12 1_555 1_555
H4 C12 1_555 1_555
C13 C5 1_555 1_555
H5 C13 1_555 1_555
H6 C13 1_555 1_555
H7 C13 1_555 1_555
C14 C5 1_555 1_555
H8 C14 1_555 1_555
H9 C14 1_555 1_555
H10 C14 1_555 1_555
C15 C7 1_555 1_555
H11 C15 1_555 1_555
H12 C15 1_555 1_555
C16 C8 1_555 1_555
H13 C16 1_555 1_555
H14 C16 1_555 1_555
C17 H15 1_555 1_555
H16 C17 1_555 1_555
H17 C17 1_555 1_555
C18 C10 1_555 1_555
H18 C18 1_555 1_555
H19 C18 1_555 1_555
H20 C18 1_555 1_555
N1 C1 1_555 1_555
N2 C6 1_555 1_555
H21 N1 1_555 1_555
H22 N2 1_555 1_555
S1 C11 1_555 1_555
S2 C15 1_555 1_555
C19 H23 1_555 1_555
H24 C19 1_555 1_555
H25 C19 1_555 1_555
O1 C19 1_555 1_555
H26 O1 1_555 1_555
C1B C10 1_555 1_555
C2B C1B 1_555 1_555
C3B C2B 1_555 1_555
C4B C3B 1_555 1_555
C5B C4B 1_555 1_555
C6B C5B 1_555 1_555
C7B C6B 1_555 1_555
C8B C7B 1_555 1_555
C9B C8B 1_555 1_555
C10B C1 1_555 1_555
C11B C2B 1_555 1_555
H1B C11B 1_555 1_555
H2B C11B 1_555 1_555
C12B C3B 1_555 1_555
H3B C12B 1_555 1_555
H4B C12B 1_555 1_555
C13B C5B 1_555 1_555
H5B C13B 1_555 1_555
H6B C13B 1_555 1_555
H7B C13B 1_555 1_555
C14B C5B 1_555 1_555
H8B C14B 1_555 1_555
H9B C14B 1_555 1_555
H10B C14B 1_555 1_555
C15B C7B 1_555 1_555
H11B C15B 1_555 1_555
H12B C15B 1_555 1_555
C16B C8B 1_555 1_555
H13B C16B 1_555 1_555
H14B C16B 1_555 1_555
C17B C10B 1_555 1_555
H15B C17B 1_555 1_555
H16B C17B 1_555 1_555
H17B C17B 1_555 1_555
C18B C10B 1_555 1_555
H18B C18B 1_555 1_555
H19B C18B 1_555 1_555
H20B C18B 1_555 1_555
N1B C1B 1_555 1_555
N2B C6B 1_555 1_555
H21B N1B 1_555 1_555
H22B N2B 1_555 1_555
S1B C11B 1_555 1_555
S2B C15B 1_555 1_555
C4 N1 1_555 1_555
C9 N2 1_555 1_555
C12 S1 1_555 1_555
C16 S2 1_555 1_555
C4B N1B 1_555 1_555
C9B C10B 1_555 1_555
C9B N2B 1_555 1_555
C12B S1B 1_555 1_555
C16B S2B 1_555 1_555

#END
