
#######################################################################
#
#                 Cambridge Crystallographic Data Centre
#                                CCDC 
#
#######################################################################
#
# If this CIF has been generated from an entry in the Cambridge 
# Structural Database, then it will include bibliographic, chemical, 
# crystal, experimental, refinement or atomic coordinate data resulting 
# from the CCDC's data processing and validation procedures.
#
#######################################################################

data_YOWNAA
_chemical_formula_moiety         'C32 H24 N4 O6,H2 O1'
_chemical_name_systematic        
'13,21-Dioxa-3,31,37,38-tetraazaheptacyclo-[31.3.1.1^15,19^.0^4,12^.0^5,10^.0^22,30^.0^24,29^]octatriaconta-1(37),5,7,9,15(38),16,18,24,26,28,33,35-dodecaene-2,14,20,32-tetrone monohydrate'
_chemical_properties_biological  
'evaluated for antibacterial and antifungal activities'
_symmetry_cell_setting           monoclinic
_symmetry_space_group_name_H-M   'P 21'
_symmetry_Int_Tables_number      4
_space_group_name_Hall           'P 2yb'
loop_
_symmetry_equiv_pos_site_id
_symmetry_equiv_pos_as_xyz
1 x,y,z
2 -x,1/2+y,-z
_cell_length_a                   11.2202(19)
_cell_length_b                   10.2220(17)
_cell_length_c                   12.165(2)
_cell_angle_alpha                90
_cell_angle_beta                 95.851(3)
_cell_angle_gamma                90
_cell_volume                     1387.97
_exptl_crystal_colour            colorless
_exptl_crystal_description       block
_chemical_melting_point          '188-190 deg.C'
_cell_formula_units_Z            2
loop_
_atom_site_label
_atom_site_type_symbol
_atom_site_fract_x
_atom_site_fract_y
_atom_site_fract_z
O1 O 0.4360(2) 0.7163(2) 0.16208(16)
O2 O 0.27562(15) 0.3456(2) 0.61024(13)
O3 O -0.03210(15) 0.33672(18) 0.35099(14)
O4 O -0.21309(18) 0.3853(2) 0.40320(17)
O5 O 0.11505(15) 0.5749(2) 0.05298(13)
O6 O -0.02606(19) 0.6257(3) -0.08253(16)
N1 N 0.34070(19) 0.5197(2) 0.14316(16)
H1 H 0.304(3) 0.461(3) 0.179(2)
N2 N 0.33999(16) 0.49886(19) 0.36204(15)
N3 N 0.20076(19) 0.3090(2) 0.43258(17)
H2 H 0.202(2) 0.336(3) 0.360(2)
N4 N -0.06411(17) 0.5070(2) 0.18118(16)
C1 C 0.3931(2) 0.6189(2) 0.2012(2)
C2 C 0.3988(2) 0.6012(2) 0.32478(19)
C3 C 0.4606(2) 0.6897(3) 0.3936(2)
H3 H 0.4999 0.7601 0.3650
C4 C 0.4632(3) 0.6719(3) 0.5069(2)
H4 H 0.5044 0.7302 0.5556
C5 C 0.4039(2) 0.5666(3) 0.5461(2)
H5 H 0.4049 0.5522 0.6217
C6 C 0.34275(19) 0.4825(2) 0.47097(18)
C7 C 0.27038(19) 0.3720(2) 0.51204(19)
C8 C 0.1195(2) 0.2055(3) 0.4558(2)
H6 H 0.1400 0.1781 0.5326
C9 C -0.0152(2) 0.2436(3) 0.4421(2)
H7 H -0.0398 0.2812 0.5104
C10 C -0.0806(3) 0.1161(3) 0.4129(2)
H8 H -0.1038 0.0735 0.4787
H9 H -0.1517 0.1314 0.3622
C11 C 0.0091(2) 0.0348(3) 0.3594(2)
C12 C -0.0077(3) -0.0794(3) 0.2982(2)
H10 H -0.0841 -0.1142 0.2820
C13 C 0.0900(3) -0.1405(3) 0.2621(3)
H11 H 0.0796 -0.2173 0.2214
C14 C 0.2035(3) -0.0893(3) 0.2855(3)
H12 H 0.2686 -0.1315 0.2598
C15 C 0.2211(3) 0.0239(3) 0.3466(2)
H13 H 0.2976 0.0583 0.3628
C16 C 0.1229(2) 0.0851(3) 0.38314(19)
C17 C -0.1359(2) 0.4023(3) 0.3438(2)
C18 C -0.1482(2) 0.5006(3) 0.2519(2)
C19 C -0.2497(2) 0.5796(3) 0.2438(2)
H14 H -0.3047 0.5736 0.2958
C20 C -0.2674(3) 0.6668(3) 0.1575(3)
H15 H -0.3339 0.7216 0.1507
C21 C -0.1848(3) 0.6713(3) 0.0817(2)
H16 H -0.1960 0.7270 0.0211
C22 C -0.0844(2) 0.5915(3) 0.0966(2)
C23 C 0.0032(3) 0.5978(3) 0.0125(2)
C24 C 0.2026(2) 0.5753(3) -0.0269(2)
H17 H 0.1700 0.5267 -0.0925
C25 C 0.2411(3) 0.7107(3) -0.0626(3)
H18 H 0.1886 0.7435 -0.1247
H19 H 0.2438 0.7730 -0.0022
C26 C 0.3646(2) 0.6815(3) -0.0947(2)
C27 C 0.4336(3) 0.7503(3) -0.1637(2)
H20 H 0.4044 0.8263 -0.1987
C28 C 0.5459(3) 0.7040(3) -0.1794(2)
H21 H 0.5927 0.7497 -0.2253
C29 C 0.5898(3) 0.5919(4) -0.1285(2)
H22 H 0.6662 0.5629 -0.1396
C30 C 0.5212(3) 0.5209(3) -0.0603(2)
H23 H 0.5500 0.4437 -0.0270
C31 C 0.4096(2) 0.5681(3) -0.04347(19)
C32 C 0.3181(2) 0.5065(3) 0.02355(18)
H24 H 0.3121 0.4132 0.0053
O7 O 0.15790(17) 0.3303(2) 0.18977(15)
H25 H 0.102(3) 0.379(3) 0.185(3)
H26 H 0.121(3) 0.258(3) 0.171(2)
loop_
_geom_bond_atom_site_label_1
_geom_bond_atom_site_label_2
_geom_bond_site_symmetry_1
_geom_bond_site_symmetry_2
O1 C1 1_555 1_555
O2 C7 1_555 1_555
O3 C9 1_555 1_555
O4 C17 1_555 1_555
O5 C23 1_555 1_555
O6 C23 1_555 1_555
N1 H1 1_555 1_555
N2 C2 1_555 1_555
N3 H2 1_555 1_555
N4 C18 1_555 1_555
C1 N1 1_555 1_555
C2 C1 1_555 1_555
C3 C2 1_555 1_555
H3 C3 1_555 1_555
C4 C3 1_555 1_555
H4 C4 1_555 1_555
C5 C4 1_555 1_555
H5 C5 1_555 1_555
C6 N2 1_555 1_555
C7 N3 1_555 1_555
C8 N3 1_555 1_555
H6 C8 1_555 1_555
C9 C8 1_555 1_555
H7 C9 1_555 1_555
C10 C9 1_555 1_555
H8 C10 1_555 1_555
H9 C10 1_555 1_555
C11 C10 1_555 1_555
C12 C11 1_555 1_555
H10 C12 1_555 1_555
C13 C12 1_555 1_555
H11 C13 1_555 1_555
C14 C13 1_555 1_555
H12 C14 1_555 1_555
C15 C14 1_555 1_555
H13 C15 1_555 1_555
C16 C8 1_555 1_555
C17 O3 1_555 1_555
C18 C17 1_555 1_555
C19 C18 1_555 1_555
H14 C19 1_555 1_555
C20 C19 1_555 1_555
H15 C20 1_555 1_555
C21 C20 1_555 1_555
H16 C21 1_555 1_555
C22 N4 1_555 1_555
C23 C22 1_555 1_555
C24 O5 1_555 1_555
H17 C24 1_555 1_555
C25 C24 1_555 1_555
H18 C25 1_555 1_555
H19 C25 1_555 1_555
C26 C25 1_555 1_555
C27 C26 1_555 1_555
H20 C27 1_555 1_555
C28 C27 1_555 1_555
H21 C28 1_555 1_555
C29 C28 1_555 1_555
H22 C29 1_555 1_555
C30 C29 1_555 1_555
H23 C30 1_555 1_555
C31 C26 1_555 1_555
C32 N1 1_555 1_555
H24 C32 1_555 1_555
O7 H25 1_555 1_555
H26 O7 1_555 1_555
C5 C6 1_555 1_555
C6 C7 1_555 1_555
C11 C16 1_555 1_555
C15 C16 1_555 1_555
C21 C22 1_555 1_555
C24 C32 1_555 1_555
C30 C31 1_555 1_555
C31 C32 1_555 1_555

#END
