
#######################################################################
#
#                 Cambridge Crystallographic Data Centre
#                                CCDC 
#
#######################################################################
#
# If this CIF has been generated from an entry in the Cambridge 
# Structural Database, then it will include bibliographic, chemical, 
# crystal, experimental, refinement or atomic coordinate data resulting 
# from the CCDC's data processing and validation procedures.
#
#######################################################################

data_YOWSOT
_chemical_compound_source        'stem bark of Beilschmiedia anacardioides'
_chemical_name_common            
'4beta-Hydroxy-11-n-octyltetracyclo(5.4.2.0$3,13!.0$10,12!)trideca-5,8-diene-6-carboxylic acid hemihydrate'
_chemical_formula_moiety         'C22 H32 O3,0.5(H2 O1)'
_chemical_name_systematic        'Beilschmiedic acid A hemihydrate'
_chemical_properties_biological  
'tested for antibacterial activity against five strains of microbes'
_symmetry_cell_setting           monoclinic
_symmetry_space_group_name_H-M   'C 2/c'
_symmetry_Int_Tables_number      15
_space_group_name_Hall           '-C 2yn'
loop_
_symmetry_equiv_pos_site_id
_symmetry_equiv_pos_as_xyz
1 x,y,z
2 -x,y,1/2-z
3 1/2+x,1/2+y,z
4 1/2-x,1/2+y,1/2-z
5 -x,-y,-z
6 x,-y,1/2+z
7 1/2-x,1/2-y,-z
8 1/2+x,1/2-y,1/2+z
_cell_length_a                   54.3315(12)
_cell_length_b                   7.8948(2)
_cell_length_c                   9.6160(2)
_cell_angle_alpha                90
_cell_angle_beta                 100.0883(14)
_cell_angle_gamma                90
_cell_volume                     4060.88
_exptl_crystal_colour            colorless
_cell_formula_units_Z            8
_exptl_crystal_recrystallization_method dichloromethane/methanol
loop_
_atom_site_label
_atom_site_type_symbol
_atom_site_fract_x
_atom_site_fract_y
_atom_site_fract_z
O1 O 0.04294(2) -0.16581(13) 0.02678(12)
O2 O 0.02022(2) -0.02461(14) 0.16011(11)
H1 H 0.0149(4) -0.127(3) 0.177(2)
O3 O 0.029147(18) 0.51898(14) -0.07246(11)
H2 H 0.0296(4) 0.628(3) -0.061(2)
C1 C 0.04795(3) 0.13163(17) 0.04416(14)
C2 C 0.03737(3) 0.27693(18) 0.07378(14)
H4 H 0.0230 0.2709 0.1172
C3 C 0.04681(2) 0.44934(17) 0.04279(14)
H5 H 0.0473 0.5230 0.1278
C4 C 0.07291(3) 0.43622(17) 0.00856(14)
H6 H 0.0844 0.4060 0.0981
C5 C 0.08458(3) 0.58627(18) -0.05622(15)
H7 H 0.0726 0.6375 -0.1342
H8 H 0.0903 0.6741 0.0157
C6 C 0.10661(3) 0.50619(19) -0.11078(15)
H9 H 0.1117 0.5694 -0.1912
C7 C 0.12904(3) 0.44500(19) 0.00090(16)
H10 H 0.1265 0.4714 0.0991
C8 C 0.12205(3) 0.2567(2) -0.03988(16)
H11 H 0.1348 0.2060 -0.0910
C9 C 0.11647(3) 0.1372(2) 0.07128(17)
H12 H 0.1299 0.1034 0.1426
C10 C 0.09402(3) 0.0755(2) 0.07702(17)
H13 H 0.0924 -0.0020 0.1505
C11 C 0.07077(3) 0.12180(18) -0.02722(15)
H14 H 0.0678 0.0327 -0.1022
C12 C 0.03689(3) -0.03350(18) 0.07525(15)
C13 C 0.07424(3) 0.29155(18) -0.09671(14)
H15 H 0.0604 0.3066 -0.1792
C14 C 0.09914(3) 0.31762(18) -0.14679(15)
H16 H 0.0992 0.2841 -0.2470
C15 C 0.15450(3) 0.5040(2) -0.02403(16)
H17 H 0.1555 0.6284 -0.0113
H18 H 0.1559 0.4795 -0.1234
C16 C 0.17676(3) 0.4236(2) 0.07193(16)
H19 H 0.1759 0.2991 0.0602
H20 H 0.1758 0.4496 0.1715
C17 C 0.20178(3) 0.4863(2) 0.04038(17)
H21 H 0.2026 0.4596 -0.0593
H22 H 0.2024 0.6111 0.0505
C18 C 0.22466(3) 0.4120(2) 0.13369(17)
H23 H 0.2244 0.2873 0.1226
H24 H 0.2239 0.4376 0.2336
C19 C 0.24917(3) 0.4801(2) 0.09924(17)
H25 H 0.2498 0.4543 -0.0008
H26 H 0.2493 0.6049 0.1096
C20 C 0.27242(3) 0.4089(2) 0.19092(17)
H27 H 0.2723 0.2841 0.1808
H28 H 0.2718 0.4351 0.2910
C21 C 0.29669(3) 0.4779(2) 0.15484(19)
H29 H 0.2972 0.4518 0.0547
H30 H 0.2968 0.6027 0.1651
C22 C 0.32001(3) 0.4064(3) 0.2465(2)
H31 H 0.3201 0.4375 0.3453
H32 H 0.3349 0.4529 0.2157
H33 H 0.3200 0.2827 0.2377
O4 O 0.0000 -0.30540(18) 0.2500
H3 H 0.0094(3) -0.376(2) 0.3085(18)
H3A H -0.0094(3) -0.376(2) 0.1915(18)
loop_
_geom_bond_atom_site_label_1
_geom_bond_atom_site_label_2
_geom_bond_site_symmetry_1
_geom_bond_site_symmetry_2
O1 C12 1_555 1_555
O2 H1 1_555 1_555
O3 H2 1_555 1_555
O4 H3 1_555 1_555
C1 C2 1_555 1_555
C2 H4 1_555 1_555
C3 O3 1_555 1_555
H5 C3 1_555 1_555
C4 C3 1_555 1_555
H6 C4 1_555 1_555
C5 C4 1_555 1_555
H7 C5 1_555 1_555
H8 C5 1_555 1_555
C6 C5 1_555 1_555
H9 C6 1_555 1_555
C7 C6 1_555 1_555
H10 C7 1_555 1_555
C8 C7 1_555 1_555
H11 C8 1_555 1_555
C9 C8 1_555 1_555
H12 C9 1_555 1_555
C10 C9 1_555 1_555
H13 C10 1_555 1_555
C11 C1 1_555 1_555
H14 C11 1_555 1_555
C12 O2 1_555 1_555
C13 C4 1_555 1_555
H15 C13 1_555 1_555
C14 C6 1_555 1_555
H16 C14 1_555 1_555
C15 C7 1_555 1_555
H17 C15 1_555 1_555
H18 C15 1_555 1_555
C16 C15 1_555 1_555
H19 C16 1_555 1_555
H20 C16 1_555 1_555
C17 C16 1_555 1_555
H21 C17 1_555 1_555
H22 C17 1_555 1_555
C18 C17 1_555 1_555
H23 C18 1_555 1_555
H24 C18 1_555 1_555
C19 C18 1_555 1_555
H25 C19 1_555 1_555
H26 C19 1_555 1_555
C20 C19 1_555 1_555
H27 C20 1_555 1_555
H28 C20 1_555 1_555
C21 C20 1_555 1_555
H29 C21 1_555 1_555
H30 C21 1_555 1_555
C22 C21 1_555 1_555
H31 C22 1_555 1_555
H32 C22 1_555 1_555
H33 C22 1_555 1_555
H3A O4 1_555 1_555
C1 C12 1_555 1_555
C2 C3 1_555 1_555
C8 C14 1_555 1_555
C10 C11 1_555 1_555
C11 C13 1_555 1_555
C13 C14 1_555 1_555

#END
