
#######################################################################
#
#                 Cambridge Crystallographic Data Centre
#                                CCDC 
#
#######################################################################
#
# If this CIF has been generated from an entry in the Cambridge 
# Structural Database, then it will include bibliographic, chemical, 
# crystal, experimental, refinement or atomic coordinate data resulting 
# from the CCDC's data processing and validation procedures.
#
#######################################################################

data_YOWTOU
_chemical_formula_moiety         '2(C9 H11 Cl1 N3 1+),O4 S1 2-,8(H2 O1)'
_chemical_name_systematic        
'bis(5-Ammonio-4-chloro-2,7-dimethyl-1H-benzimidazole) sulfate octahydrate'
_symmetry_cell_setting           triclinic
_symmetry_space_group_name_H-M   'P -1'
_symmetry_Int_Tables_number      2
_space_group_name_Hall           '-P 1'
loop_
_symmetry_equiv_pos_site_id
_symmetry_equiv_pos_as_xyz
1 x,y,z
2 -x,-y,-z
_cell_length_a                   10.2210(7)
_cell_length_b                   10.5600(4)
_cell_length_c                   13.2480(8)
_cell_angle_alpha                99.978(5)
_cell_angle_beta                 101.364(5)
_cell_angle_gamma                94.278(5)
_cell_volume                     1371.89
_exptl_crystal_colour            colorless
_exptl_crystal_description       block
_cell_formula_units_Z            2
loop_
_atom_site_label
_atom_site_type_symbol
_atom_site_fract_x
_atom_site_fract_y
_atom_site_fract_z
S1 S 0.41033(11) 0.05846(10) 0.79222(9)
O1 O 0.2818(3) 0.0201(3) 0.8184(3)
O4 O 0.4525(3) 0.1967(3) 0.8363(3)
O5 O 0.3950(3) 0.0349(3) 0.6767(3)
O6 O 0.5138(3) -0.0185(3) 0.8365(3)
Cl1 Cl -0.28401(11) 0.31341(11) 0.26954(10)
N1 N 0.0567(4) 0.6856(3) 0.4194(3)
N3 N -0.1509(4) 0.6081(3) 0.3506(3)
H6 H -0.2359 0.6045 0.3266
C2 C -0.0675(4) 0.7157(4) 0.3902(3)
N5 N -0.0554(4) 0.1548(4) 0.3208(3)
H7 H 0.0188 0.1164 0.3357
H8 H -0.0946 0.1278 0.2535
H9 H -0.1117 0.1347 0.3605
C4 C -0.0222(4) 0.2868(4) 0.3408(3)
C5 C 0.1549(4) 0.4701(4) 0.4128(3)
C8 C 0.3012(4) 0.5232(4) 0.4577(4)
H16 H 0.3370 0.5602 0.4062
H17 H 0.3517 0.4543 0.4760
H18 H 0.3074 0.5885 0.5192
C9 C -0.0788(4) 0.5024(4) 0.3544(3)
C13 C -0.1063(5) 0.8477(4) 0.4049(4)
H23 H -0.1778 0.8550 0.3479
H24 H -0.0302 0.9078 0.4070
H25 H -0.1359 0.8667 0.4698
C15 C 0.1127(4) 0.3387(4) 0.3847(3)
H26 H 0.1769 0.2816 0.3950
C16 C -0.1189(4) 0.3707(4) 0.3246(3)
C17 C 0.0539(4) 0.5507(4) 0.3975(3)
Cl2 Cl 1.22806(11) 0.70107(11) 0.21590(10)
N2 N 1.1223(4) 0.3983(3) 0.1451(3)
H3 H 1.2076 0.4095 0.1698
C1 C 0.9107(5) 0.4358(4) 0.0926(3)
N4 N 0.9197(4) 0.3027(4) 0.0754(3)
C3 C 0.8025(4) 0.5066(5) 0.0725(3)
C6 C 0.6644(4) 0.4430(4) 0.0232(3)
H10 H 0.6692 0.3578 -0.0143
H11 H 0.6205 0.4932 -0.0245
H12 H 0.6144 0.4370 0.0768
C7 C 1.0990(5) 0.1571(5) 0.1028(4)
H13 H 1.0250 0.0899 0.0837
H14 H 1.1524 0.1520 0.1700
H15 H 1.1532 0.1466 0.0511
C10 C 1.0665(4) 0.6300(4) 0.1631(3)
C11 C 1.0397(4) 0.4961(4) 0.1367(3)
C12 C 0.8306(5) 0.6396(5) 0.1003(4)
H19 H 0.7598 0.6895 0.0890
N6 N 0.9786(4) 0.8374(4) 0.1660(4)
H20 H 0.8998 0.8678 0.1493
H21 H 1.0341 0.8650 0.1284
H22 H 1.0137 0.8656 0.2340
C14 C 1.0476(4) 0.2842(4) 0.1083(3)
C18 C 0.9608(5) 0.7036(4) 0.1450(4)
O2 O 0.7236(3) 0.1315(3) 0.5056(3)
H1 H 0.6416 0.1417 0.5193
H2 H 0.6980 0.0961 0.4387
O3 O 0.4825(3) 0.1930(3) 0.5529(3)
H4 H 0.4531 0.1342 0.5865
H5 H 0.4980 0.2711 0.5973
O7 O 0.5756(3) 0.6209(3) 0.2866(3)
H27 H 0.5180 0.5609 0.2624
H28 H 0.5673 0.6585 0.2446
O8 O 0.3962(3) 0.3902(3) 0.2145(3)
H29 H 0.3977 0.3571 0.2575
H30 H 0.4022 0.3224 0.1544
O9 O 0.4315(4) 0.2169(3) 0.0537(3)
H31 H 0.4730 0.1730 0.0753
H32 H 0.4425 0.2077 0.0054
O10 O 0.7353(3) 0.0967(3) 0.0089(3)
H33 H 0.6802 0.0697 -0.0330
H34 H 0.7150 0.0561 0.0517
O11 O 0.1829(3) 0.0134(3) 0.3406(3)
H35 H 0.2583 0.0084 0.3028
H36 H 0.2262 -0.0154 0.3856
O12 O 0.4035(4) 0.1820(3) 0.3273(3)
H37 H 0.4942 0.1891 0.3176
H38 H 0.3855 0.2077 0.3959
loop_
_geom_bond_atom_site_label_1
_geom_bond_atom_site_label_2
_geom_bond_site_symmetry_1
_geom_bond_site_symmetry_2
S1 O1 1_555 1_555
Cl1 C16 1_555 1_555
Cl2 C10 1_555 1_555
O2 H1 1_555 1_555
H2 O2 1_555 1_555
N1 C2 1_555 1_555
N2 H3 1_555 1_555
O3 H4 1_555 1_555
H5 O3 1_555 1_555
N3 H6 1_555 1_555
O4 S1 1_555 1_555
C1 N4 1_555 1_555
C2 N3 1_555 1_555
N4 C14 1_555 1_555
N5 H7 1_555 1_555
H8 N5 1_555 1_555
H9 N5 1_555 1_555
C3 C1 1_555 1_555
C4 N5 1_555 1_555
C5 C8 1_555 1_555
C6 C3 1_555 1_555
H10 C6 1_555 1_555
H11 C6 1_555 1_555
H12 C6 1_555 1_555
C7 H13 1_555 1_555
H14 C7 1_555 1_555
H15 C7 1_555 1_555
C8 H16 1_555 1_555
H17 C8 1_555 1_555
H18 C8 1_555 1_555
C9 N3 1_555 1_555
C10 C11 1_555 1_555
C11 N2 1_555 1_555
C12 C3 1_555 1_555
H19 C12 1_555 1_555
N6 H20 1_555 1_555
H21 N6 1_555 1_555
H22 N6 1_555 1_555
C13 C2 1_555 1_555
H23 C13 1_555 1_555
H24 C13 1_555 1_555
H25 C13 1_555 1_555
C14 N2 1_555 1_555
C15 C4 1_555 1_555
H26 C15 1_555 1_555
C16 C4 1_555 1_555
C17 N1 1_555 1_555
C18 C10 1_555 1_555
O5 S1 1_555 1_555
O6 S1 1_555 1_555
O7 H27 1_555 1_555
H28 O7 1_555 1_555
O8 H29 1_555 1_555
H30 O8 1_555 1_555
O9 H31 1_555 1_555
H32 O9 1_555 1_555
O10 H33 1_555 1_555
H34 O10 1_555 1_555
O11 H35 1_555 1_555
H36 O11 1_555 1_555
O12 H37 1_555 1_555
H38 O12 1_555 1_555
C1 C11 1_555 1_555
C5 C15 1_555 1_555
C5 C17 1_555 1_555
C7 C14 1_555 1_555
C9 C16 1_555 1_555
C9 C17 1_555 1_555
C12 C18 1_555 1_555
N6 C18 1_555 1_555

#END
