
#######################################################################
#
#                 Cambridge Crystallographic Data Centre
#                                CCDC 
#
#######################################################################
#
# If this CIF has been generated from an entry in the Cambridge 
# Structural Database, then it will include bibliographic, chemical, 
# crystal, experimental, refinement or atomic coordinate data resulting 
# from the CCDC's data processing and validation procedures.
#
#######################################################################

data_YOWYOY
_chemical_name_common            'Coumarin 314'
_chemical_formula_moiety         'C18 H19 N1 O4'
_chemical_name_systematic        
'Ethyl 2,3,6,7-tetrahydro-11-oxo-1H,5H,11H-(1)benzopyrano(6,7,8-ij)quinolizine-10-carboxylate'
_symmetry_cell_setting           monoclinic
_symmetry_space_group_name_H-M   'P 21/n'
_symmetry_Int_Tables_number      14
_space_group_name_Hall           '-P 2yn'
loop_
_symmetry_equiv_pos_site_id
_symmetry_equiv_pos_as_xyz
1 x,y,z
2 1/2-x,1/2+y,1/2-z
3 -x,-y,-z
4 1/2+x,1/2-y,1/2+z
_cell_length_a                   8.532(1)
_cell_length_b                   14.946(1)
_cell_length_c                   12.022(1)
_cell_angle_alpha                90
_cell_angle_beta                 95.24(1)
_cell_angle_gamma                90
_cell_volume                     1526.63
_exptl_crystal_colour            yellow
_cell_formula_units_Z            4
loop_
_atom_site_label
_atom_site_type_symbol
_atom_site_fract_x
_atom_site_fract_y
_atom_site_fract_z
O1 O -0.2312(1) 0.1083(1) 0.0191(1)
C1 C -0.2392(2) 0.2009(1) 0.0053(1)
C2 C -0.1502(2) 0.2540(1) 0.0902(1)
C3 C -0.0671(2) 0.2127(1) 0.1785(1)
C4 C 0.0235(2) 0.0727(1) 0.2784(1)
C5 C 0.0250(2) -0.0186(1) 0.2837(1)
C6 C -0.0593(2) -0.0694(1) 0.1962(1)
C7 C -0.1466(2) -0.0252(1) 0.1074(1)
C8 C -0.1454(2) 0.0670(1) 0.1070(1)
C9 C -0.0616(2) 0.1190(1) 0.1902(1)
O2 O -0.3204(2) 0.2260(1) -0.0756(1)
C10 C 0.1137(3) -0.0692(1) 0.3777(2)
C11 C 0.1837(2) -0.1533(1) 0.3314(2)
C12 C 0.0537(2) -0.2109(1) 0.2774(2)
N1 N -0.0550(2) -0.1606(1) 0.2002(1)
C13 C -0.1526(2) -0.2159(1) 0.1208(2)
C14 C -0.2936(2) -0.1661(1) 0.0693(2)
C15 C -0.2428(2) -0.0784(1) 0.0190(2)
C16 C -0.1489(2) 0.3518(1) 0.0759(1)
O3 O -0.1926(3) 0.3904(1) -0.0076(2)
O4 O -0.0859(1) 0.3945(1) 0.1654(1)
C17 C -0.0802(3) 0.4914(1) 0.1615(2)
C18 C 0.0134(3) 0.5231(1) 0.2643(2)
H1 H -0.0142(20) 0.2462(11) 0.2358(14)
H2 H 0.0783(19) 0.1041(11) 0.3346(14)
H3 H 0.0394(23) -0.0853(13) 0.4387(17)
H4 H 0.1884(23) -0.0332(13) 0.4134(16)
H5 H 0.2416(23) -0.1866(13) 0.3949(16)
H6 H 0.2569(23) -0.1365(13) 0.2740(16)
H7 H -0.0072(23) -0.2353(13) 0.3365(16)
H8 H 0.0942(22) -0.2576(14) 0.2323(16)
H9 H -0.1840(23) -0.2662(14) 0.1656(15)
H10 H -0.0859(23) -0.2362(13) 0.0611(16)
H11 H -0.3702(21) -0.1531(11) 0.1238(14)
H12 H -0.3506(22) -0.2017(13) 0.0115(16)
H13 H -0.1809(24) -0.0878(14) -0.0455(17)
H14 H -0.3322(25) -0.0434(14) -0.0070(17)
H15 H -0.1845(34) 0.5120(21) 0.1506(24)
H16 H -0.0338(24) 0.5033(14) 0.0959(17)
H17 H 0.0147(35) 0.5872(21) 0.2673(23)
H18 H -0.0260(30) 0.4949(18) 0.3325(23)
H19 H 0.1211(32) 0.5061(20) 0.2673(22)
loop_
_geom_bond_atom_site_label_1
_geom_bond_atom_site_label_2
_geom_bond_site_symmetry_1
_geom_bond_site_symmetry_2
O1 C1 1_555 1_555
C1 C2 1_555 1_555
C2 C3 1_555 1_555
C3 C9 1_555 1_555
C4 C5 1_555 1_555
C5 C6 1_555 1_555
C6 C7 1_555 1_555
C7 C8 1_555 1_555
C8 O1 1_555 1_555
C9 C4 1_555 1_555
O2 C1 1_555 1_555
C10 C5 1_555 1_555
C11 C10 1_555 1_555
C12 C11 1_555 1_555
N1 C6 1_555 1_555
C13 N1 1_555 1_555
C14 C13 1_555 1_555
C15 C7 1_555 1_555
C16 C2 1_555 1_555
O3 C16 1_555 1_555
O4 C16 1_555 1_555
C17 O4 1_555 1_555
C18 C17 1_555 1_555
H1 C3 1_555 1_555
H2 C4 1_555 1_555
H3 C10 1_555 1_555
H4 C10 1_555 1_555
H5 C11 1_555 1_555
H6 C11 1_555 1_555
H7 C12 1_555 1_555
H8 C12 1_555 1_555
H9 C13 1_555 1_555
H10 C13 1_555 1_555
H11 C14 1_555 1_555
H12 C14 1_555 1_555
H13 C15 1_555 1_555
H14 C15 1_555 1_555
H15 C17 1_555 1_555
H16 C17 1_555 1_555
H17 C18 1_555 1_555
H18 C18 1_555 1_555
H19 C18 1_555 1_555
C8 C9 1_555 1_555
C12 N1 1_555 1_555
C14 C15 1_555 1_555

#END
