
#######################################################################
#
#                 Cambridge Crystallographic Data Centre
#                                CCDC 
#
#######################################################################
#
# If this CIF has been generated from an entry in the Cambridge 
# Structural Database, then it will include bibliographic, chemical, 
# crystal, experimental, refinement or atomic coordinate data resulting 
# from the CCDC's data processing and validation procedures.
#
#######################################################################

data_YOXJIE01
_chemical_formula_moiety         'C32 H44 N2 O6'
_chemical_name_systematic        
2,4-bis(4-(N,N-di-n-butylamino)-2,6-dihydroxyphenyl)squaraine
_symmetry_cell_setting           triclinic
_symmetry_space_group_name_H-M   'P -1'
_symmetry_Int_Tables_number      2
_space_group_name_Hall           '-P 1'
loop_
_symmetry_equiv_pos_site_id
_symmetry_equiv_pos_as_xyz
1 x,y,z
2 -x,-y,-z
_cell_length_a                   5.226(1)
_cell_length_b                   10.949(2)
_cell_length_c                   13.701(2)
_cell_angle_alpha                77.27(3)
_cell_angle_beta                 79.54(1)
_cell_angle_gamma                76.57(2)
_cell_volume                     736.727
_exptl_crystal_colour            blue
_exptl_crystal_description       needle
_cell_formula_units_Z            1
loop_
_atom_site_label
_atom_site_type_symbol
_atom_site_fract_x
_atom_site_fract_y
_atom_site_fract_z
O1 O 0.8875(7) -0.1830(3) 0.5956(2)
C1 C 0.9500(9) -0.0818(4) 0.5427(3)
C2 C 0.8194(9) 0.0539(3) 0.5313(3)
C3 C 0.5869(9) 0.1254(4) 0.5737(3)
C4 C 0.3903(10) 0.0666(3) 0.6469(3)
C5 C 0.1664(10) 0.1366(4) 0.6903(3)
H1 H 0.0501 0.0941 0.7409
C6 C 0.1007(10) 0.2732(4) 0.6620(3)
C7 C 0.2904(9) 0.3333(3) 0.5895(3)
H2 H 0.2562 0.4239 0.5709
C8 C 0.5179(9) 0.2643(4) 0.5468(3)
O2 O 0.4254(7) -0.0630(2) 0.6775(2)
H3 H 0.608(11) -0.110(4) 0.650(3)
O3 O 0.6822(7) 0.3323(2) 0.4798(2)
H4 H 0.856(11) 0.278(4) 0.450(3)
N1 N -0.1266(7) 0.3399(3) 0.7056(2)
C9 C -0.2282(9) 0.4783(3) 0.6719(3)
H5 H -0.4004 0.4900 0.6471
H6 H -0.1022 0.5120 0.6148
C10 C -0.2660(10) 0.5554(4) 0.7564(3)
H7 H -0.3904 0.5205 0.8135
H8 H -0.3496 0.6450 0.7309
C11 C -0.0076(9) 0.5549(4) 0.7961(3)
H9 H 0.0773 0.4655 0.8215
H10 H 0.1166 0.5910 0.7395
C12 C -0.0545(13) 0.6318(5) 0.8808(4)
H11 H -0.1228 0.7221 0.8544
H12 H 0.1133 0.6233 0.9064
H13 H -0.1841 0.5993 0.9357
C13 C -0.3077(9) 0.2744(4) 0.7838(3)
H14 H -0.3233 0.1956 0.7632
H15 H -0.4861 0.3304 0.7881
C14 C -0.2173(9) 0.2385(4) 0.8894(3)
H16 H -0.0282 0.1948 0.8836
H17 H -0.2325 0.3175 0.9158
C15 C -0.3829(11) 0.1513(4) 0.9638(3)
H18 H -0.3632 0.0713 0.9383
H19 H -0.5726 0.1940 0.9679
C16 C -0.2992(12) 0.1182(4) 1.0708(3)
H20 H -0.1106 0.0776 1.0670
H21 H -0.4053 0.0594 1.1151
H22 H -0.3289 0.1967 1.0981
O1A O 1.1125(7) 0.1830(3) 0.4044(2)
C1A C 1.0500(9) 0.0818(4) 0.4573(3)
C2A C 1.1806(9) -0.0539(3) 0.4687(3)
C3A C 1.4131(9) -0.1254(4) 0.4263(3)
C4A C 1.6097(10) -0.0666(3) 0.3531(3)
C5A C 1.8336(10) -0.1366(4) 0.3097(3)
H1A H 1.9499 -0.0941 0.2591
C6A C 1.8993(10) -0.2732(4) 0.3380(3)
C7A C 1.7096(9) -0.3333(3) 0.4105(3)
H2A H 1.7438 -0.4239 0.4291
C8A C 1.4821(9) -0.2643(4) 0.4532(3)
O2A O 1.5746(7) 0.0630(2) 0.3225(2)
H3A H 1.392(11) 0.110(4) 0.350(3)
O3A O 1.3178(7) -0.3323(2) 0.5202(2)
H4A H 1.144(11) -0.278(4) 0.550(3)
N1A N 2.1266(7) -0.3399(3) 0.2944(2)
C9A C 2.2282(9) -0.4783(3) 0.3281(3)
H5A H 2.4004 -0.4900 0.3529
H6A H 2.1022 -0.5120 0.3852
C10A C 2.2660(10) -0.5554(4) 0.2436(3)
H7A H 2.3904 -0.5205 0.1865
H8A H 2.3496 -0.6450 0.2691
C11A C 2.0076(9) -0.5549(4) 0.2039(3)
H9A H 1.9227 -0.4655 0.1785
H10A H 1.8834 -0.5910 0.2605
C12A C 2.0545(13) -0.6318(5) 0.1192(4)
H11A H 2.1228 -0.7221 0.1456
H12A H 1.8867 -0.6233 0.0936
H13A H 2.1841 -0.5993 0.0643
C13A C 2.3077(9) -0.2744(4) 0.2162(3)
H14A H 2.3233 -0.1956 0.2368
H15A H 2.4861 -0.3304 0.2119
C14A C 2.2173(9) -0.2385(4) 0.1106(3)
H16A H 2.0282 -0.1948 0.1164
H17A H 2.2325 -0.3175 0.0842
C15A C 2.3829(11) -0.1513(4) 0.0362(3)
H18A H 2.3632 -0.0713 0.0617
H19A H 2.5726 -0.1940 0.0321
C16A C 2.2992(12) -0.1182(4) -0.0708(3)
H20A H 2.1106 -0.0776 -0.0670
H21A H 2.4053 -0.0594 -0.1151
H22A H 2.3289 -0.1967 -0.0981
loop_
_geom_bond_atom_site_label_1
_geom_bond_atom_site_label_2
_geom_bond_site_symmetry_1
_geom_bond_site_symmetry_2
O1 C1 1_555 1_555
C1 C2 1_555 1_555
C2 C3 1_555 1_555
C3 C4 1_555 1_555
C4 C5 1_555 1_555
C5 H1 1_555 1_555
C6 C5 1_555 1_555
C7 C6 1_555 1_555
H2 C7 1_555 1_555
C8 C3 1_555 1_555
O2 C4 1_555 1_555
H3 O2 1_555 1_555
O3 C8 1_555 1_555
H4 O3 1_555 1_555
N1 C6 1_555 1_555
C9 N1 1_555 1_555
H5 C9 1_555 1_555
H6 C9 1_555 1_555
C10 C9 1_555 1_555
H7 C10 1_555 1_555
H8 C10 1_555 1_555
C11 C10 1_555 1_555
H9 C11 1_555 1_555
H10 C11 1_555 1_555
C12 C11 1_555 1_555
H11 C12 1_555 1_555
H12 C12 1_555 1_555
H13 C12 1_555 1_555
C13 N1 1_555 1_555
H14 C13 1_555 1_555
H15 C13 1_555 1_555
C14 C13 1_555 1_555
H16 C14 1_555 1_555
H17 C14 1_555 1_555
C15 C14 1_555 1_555
H18 C15 1_555 1_555
H19 C15 1_555 1_555
C16 C15 1_555 1_555
H20 C16 1_555 1_555
H21 C16 1_555 1_555
H22 C16 1_555 1_555
O1A C1A 1_555 1_555
C1A C2 1_555 1_555
C2A C1 1_555 1_555
C3A C2A 1_555 1_555
C4A C3A 1_555 1_555
C5A C4A 1_555 1_555
H1A C5A 1_555 1_555
C6A C5A 1_555 1_555
C7A C6A 1_555 1_555
H2A C7A 1_555 1_555
C8A C3A 1_555 1_555
O2A C4A 1_555 1_555
H3A O2A 1_555 1_555
O3A C8A 1_555 1_555
H4A O3A 1_555 1_555
N1A C6A 1_555 1_555
C9A N1A 1_555 1_555
H5A C9A 1_555 1_555
H6A C9A 1_555 1_555
C10A C9A 1_555 1_555
H7A C10A 1_555 1_555
H8A C10A 1_555 1_555
C11A C10A 1_555 1_555
H9A C11A 1_555 1_555
H10A C11A 1_555 1_555
C12A C11A 1_555 1_555
H11A C12A 1_555 1_555
H12A C12A 1_555 1_555
H13A C12A 1_555 1_555
C13A N1A 1_555 1_555
H14A C13A 1_555 1_555
H15A C13A 1_555 1_555
C14A C13A 1_555 1_555
H16A C14A 1_555 1_555
H17A C14A 1_555 1_555
C15A C14A 1_555 1_555
H18A C15A 1_555 1_555
H19A C15A 1_555 1_555
C16A C15A 1_555 1_555
H20A C16A 1_555 1_555
H21A C16A 1_555 1_555
H22A C16A 1_555 1_555
C7 C8 1_555 1_555
C1A C2A 1_555 1_555
C7A C8A 1_555 1_555

#END
