
#######################################################################
#
#                 Cambridge Crystallographic Data Centre
#                                CCDC 
#
#######################################################################
#
# If this CIF has been generated from an entry in the Cambridge 
# Structural Database, then it will include bibliographic, chemical, 
# crystal, experimental, refinement or atomic coordinate data resulting 
# from the CCDC's data processing and validation procedures.
#
#######################################################################

data_YOXROS
_chemical_formula_moiety         'C15 H18 N2 O2 Si1'
_chemical_name_systematic        
4-Cyano-5-trimethylsiloxy-benzo(f)bicyclo(3.3.0)octan-8-one
_symmetry_cell_setting           triclinic
_symmetry_space_group_name_H-M   'P -1'
_symmetry_Int_Tables_number      2
_space_group_name_Hall           '-P 1'
loop_
_symmetry_equiv_pos_site_id
_symmetry_equiv_pos_as_xyz
1 x,y,z
2 -x,-y,-z
_cell_length_a                   6.9385(9)
_cell_length_b                   10.090(1)
_cell_length_c                   10.9895(9)
_cell_angle_alpha                91.59(1)
_cell_angle_beta                 90.98(1)
_cell_angle_gamma                92.96(1)
_cell_volume                     767.914
_chemical_melting_point          103-104deg.C
_cell_formula_units_Z            2
loop_
_atom_site_label
_atom_site_type_symbol
_atom_site_fract_x
_atom_site_fract_y
_atom_site_fract_z
Si1 Si 0.7820(1) 0.23633(8) 0.99414(6)
O1 O 1.2474(3) 0.2500(2) 0.6410(2)
O2 O 0.6987(2) 0.1842(2) 0.8572(1)
N1 N 0.9650(3) 0.1684(2) 0.7233(2)
N2 N 0.6792(4) 0.1889(3) 0.4301(2)
C1 C 1.0858(4) 0.2655(3) 0.6795(2)
C2 C 0.9691(4) 0.0283(3) 0.6881(3)
C3 C 0.7568(4) -0.0176(3) 0.6684(3)
C4 C 0.6514(4) 0.1122(2) 0.6531(2)
C5 C 0.7684(3) 0.2103(2) 0.7401(2)
C6 C 0.7869(4) 0.3555(2) 0.7107(2)
C7 C 0.6486(4) 0.4497(3) 0.7092(3)
C8 C 0.7072(5) 0.5778(3) 0.6789(3)
C9 C 0.8981(5) 0.6106(3) 0.6511(3)
C10 C 1.0356(5) 0.5166(3) 0.6515(3)
C11 C 0.9764(4) 0.3889(3) 0.6804(2)
C12 C 0.6651(4) 0.1568(3) 0.5272(2)
C13 C 0.7439(9) 0.4150(5) 1.0197(5)
C14 C 0.6336(7) 0.1340(6) 1.0981(3)
C15 C 1.0409(5) 0.2071(4) 1.0149(3)
H1 H 1.032(5) -0.028(3) 0.750(3)
H2 H 1.045(4) 0.026(3) 0.617(3)
H3 H 0.707(4) -0.054(3) 0.740(3)
H4 H 0.727(4) -0.081(3) 0.597(3)
H5 H 0.516(4) 0.104(2) 0.676(2)
H6 H 0.523(4) 0.424(3) 0.729(3)
H7 H 0.615(5) 0.645(3) 0.677(3)
H8 H 0.931(5) 0.701(3) 0.637(3)
H9 H 1.171(5) 0.538(3) 0.630(3)
H10 H 0.769(7) 0.441(5) 1.102(5)
H11 H 0.781(9) 0.474(6) 0.964(5)
H12 H 0.609(9) 0.411(6) 1.017(5)
H13 H 0.507(6) 0.164(4) 1.082(4)
H14 H 0.61(1) 0.054(6) 1.082(6)
H15 H 0.657(6) 0.168(4) 1.171(4)
H16 H 1.067(6) 0.118(4) 1.005(3)
H17 H 1.121(5) 0.263(3) 0.965(3)
H18 H 1.077(6) 0.232(4) 1.097(4)
loop_
_geom_bond_atom_site_label_1
_geom_bond_atom_site_label_2
_geom_bond_site_symmetry_1
_geom_bond_site_symmetry_2
Si1 O2 1_555 1_555
O1 C1 1_555 1_555
O2 C5 1_555 1_555
N1 C1 1_555 1_555
N2 C12 1_555 1_555
C1 C11 1_555 1_555
C2 N1 1_555 1_555
C3 C2 1_555 1_555
C4 C3 1_555 1_555
C5 N1 1_555 1_555
C6 C5 1_555 1_555
C7 C6 1_555 1_555
C8 C7 1_555 1_555
C9 C8 1_555 1_555
C10 C9 1_555 1_555
C11 C6 1_555 1_555
C12 C4 1_555 1_555
C13 Si1 1_555 1_555
C14 Si1 1_555 1_555
C15 Si1 1_555 1_555
H1 C2 1_555 1_555
H2 C2 1_555 1_555
H3 C3 1_555 1_555
H4 C3 1_555 1_555
H5 C4 1_555 1_555
H6 C7 1_555 1_555
H7 C8 1_555 1_555
H8 C9 1_555 1_555
H9 C10 1_555 1_555
H10 C13 1_555 1_555
H11 C13 1_555 1_555
H12 C13 1_555 1_555
H13 C14 1_555 1_555
H14 C14 1_555 1_555
H15 C14 1_555 1_555
H16 C15 1_555 1_555
H17 C15 1_555 1_555
H18 C15 1_555 1_555
C4 C5 1_555 1_555
C10 C11 1_555 1_555

#END
