
#######################################################################
#
#                 Cambridge Crystallographic Data Centre
#                                CCDC 
#
#######################################################################
#
# If this CIF has been generated from an entry in the Cambridge 
# Structural Database, then it will include bibliographic, chemical, 
# crystal, experimental, refinement or atomic coordinate data resulting 
# from the CCDC's data processing and validation procedures.
#
#######################################################################

data_YOXTIQ
_chemical_formula_moiety         'C20 H15 Br1 N4,0.5(C6 H12)'
_chemical_name_systematic        
'2-(3-(4-bromophenyl)-4-imino-3,4-dihydroquinazolin-2-yl)aniline cyclohexane'
_symmetry_cell_setting           monoclinic
_symmetry_space_group_name_H-M   'P 21/c'
_symmetry_Int_Tables_number      14
_space_group_name_Hall           '-P 2ybc'
loop_
_symmetry_equiv_pos_site_id
_symmetry_equiv_pos_as_xyz
1 x,y,z
2 -x,1/2+y,1/2-z
3 -x,-y,-z
4 x,1/2-y,1/2+z
_cell_length_a                   13.680(4)
_cell_length_b                   17.357(6)
_cell_length_c                   8.158(2)
_cell_angle_alpha                90
_cell_angle_beta                 97.15(2)
_cell_angle_gamma                90
_cell_volume                     1922
_exptl_crystal_colour            yellow
_exptl_crystal_description       prism
_cell_formula_units_Z            4
loop_
_atom_site_label
_atom_site_type_symbol
_atom_site_fract_x
_atom_site_fract_y
_atom_site_fract_z
Br1 Br 0.33394(4) 0.31431(5) 0.06058(9)
N1 N 0.8979(3) 0.4219(3) 0.4229(5)
N2 N 0.7719(3) 0.3542(3) 0.2617(5)
N3 N 0.6990(8) 0.3890(6) 0.6427(13)
H1 H 0.7195 0.4007 0.7489
H2 H 0.6406 0.3645 0.6356
N4 N 0.8014(3) 0.2539(3) 0.0984(6)
H3 H 0.7843 0.2111 0.1505
C1 C 0.9656(4) 0.3718(3) 0.3660(6)
C2 C 1.0651(4) 0.3831(4) 0.4182(7)
H4 H 1.0850 0.4238 0.4887
C3 C 1.1336(4) 0.3351(4) 0.3669(7)
H5 H 1.2001 0.3438 0.4008
C4 C 1.1054(4) 0.2731(4) 0.2646(8)
H6 H 1.1524 0.2393 0.2333
C5 C 1.0080(4) 0.2622(4) 0.2101(8)
H7 H 0.9887 0.2214 0.1396
C6 C 0.9372(4) 0.3117(4) 0.2594(6)
C7 C 0.8340(4) 0.3011(3) 0.1991(7)
C8 C 0.8070(4) 0.4121(3) 0.3711(6)
C9 C 0.6679(4) 0.3454(3) 0.2115(6)
C10 C 0.6176(4) 0.2902(4) 0.2861(7)
H8 H 0.6505 0.2590 0.3678
C11 C 0.5180(4) 0.2807(4) 0.2401(7)
H9 H 0.4833 0.2432 0.2903
C12 C 0.4708(4) 0.3270(4) 0.1199(7)
C13 C 0.5207(4) 0.3819(4) 0.0428(7)
H10 H 0.4879 0.4128 -0.0395
C14 C 0.6206(4) 0.3904(4) 0.0897(7)
H11 H 0.6557 0.4270 0.0379
C15 C 0.7342(4) 0.4653(4) 0.4260(8)
C16 C 0.7158(4) 0.5337(4) 0.3374(10)
H12 H 0.7498 0.5451 0.2443
C17 C 0.6484(6) 0.5850(5) 0.3847(13)
H13 H 0.6333 0.6292 0.3224
C18 C 0.6040(7) 0.5721(8) 0.5199(16)
H14 H 0.5612 0.6091 0.5525
C19 C 0.6198(7) 0.5064(8) 0.6109(13)
H15 H 0.5870 0.4972 0.7023
C20 C 0.6873(5) 0.4532(5) 0.5615(10)
C21 C 1.0767(11) 0.5344(7) 0.0999(11)
H19 H 1.1202 0.5774 0.1319
H20 H 1.0927 0.4926 0.1778
C22 C 0.9719(11) 0.5580(7) 0.0984(16)
H21 H 0.9622 0.5809 0.2036
H22 H 0.9543 0.5957 0.0121
C23 C 0.9117(7) 0.4910(5) 0.0690(10)
H23 H 0.8433 0.5032 0.0778
H24 H 0.9331 0.4509 0.1484
C21B C 0.9233(11) 0.4656(7) -0.0999(11)
H19B H 0.8798 0.4226 -0.1319
H20B H 0.9073 0.5074 -0.1778
C22B C 1.0281(11) 0.4420(7) -0.0984(16)
H21B H 1.0378 0.4191 -0.2036
H22B H 1.0457 0.4043 -0.0121
C23B C 1.0883(7) 0.5090(5) -0.0690(10)
H23B H 1.1567 0.4968 -0.0778
H24B H 1.0669 0.5491 -0.1484
N5? N 0.7581(13) 0.5448(10) 0.2051(18)
H16? H 0.7096 0.5537 0.1222
H17? H 0.7905 0.5897 0.2239
H18? H 0.7011 0.4070 0.6248
loop_
_geom_bond_atom_site_label_1
_geom_bond_atom_site_label_2
_geom_bond_site_symmetry_1
_geom_bond_site_symmetry_2
Br1 C12 1_555 1_555
N1 C1 1_555 1_555
N2 C7 1_555 1_555
N3 H1 1_555 1_555
H2 N3 1_555 1_555
N4 H3 1_555 1_555
C1 C2 1_555 1_555
C2 H4 1_555 1_555
C3 C2 1_555 1_555
H5 C3 1_555 1_555
C4 C3 1_555 1_555
H6 C4 1_555 1_555
C5 C4 1_555 1_555
H7 C5 1_555 1_555
C6 C1 1_555 1_555
C7 N4 1_555 1_555
C8 N1 1_555 1_555
C9 N2 1_555 1_555
C10 C9 1_555 1_555
H8 C10 1_555 1_555
C11 C10 1_555 1_555
H9 C11 1_555 1_555
C12 C11 1_555 1_555
C13 C12 1_555 1_555
H10 C13 1_555 1_555
C14 C9 1_555 1_555
H11 C14 1_555 1_555
C15 C8 1_555 1_555
C16 C15 1_555 1_555
H12 C16 1_555 1_555
C17 C16 1_555 1_555
H13 C17 1_555 1_555
C18 C17 1_555 1_555
H14 C18 1_555 1_555
C19 C18 1_555 1_555
H15 C19 1_555 1_555
C20 N3 1_555 1_555
C21 H19 1_555 1_555
H20 C21 1_555 1_555
C22 C21 1_555 1_555
H21 C22 1_555 1_555
H22 C22 1_555 1_555
C23 C22 1_555 1_555
H23 C23 1_555 1_555
H24 C23 1_555 1_555
C21B C23 1_555 1_555
H19B C21B 1_555 1_555
H20B C21B 1_555 1_555
C22B C21B 1_555 1_555
H21B C22B 1_555 1_555
H22B C22B 1_555 1_555
C23B C21 1_555 1_555
H23B C23B 1_555 1_555
H24B C23B 1_555 1_555
N2 C8 1_555 1_555
C5 C6 1_555 1_555
C6 C7 1_555 1_555
C13 C14 1_555 1_555
C15 C20 1_555 1_555
C19 C20 1_555 1_555
C22B C23B 1_555 1_555

#END
