
#######################################################################
#
#                 Cambridge Crystallographic Data Centre
#                                CCDC 
#
#######################################################################
#
# If this CIF has been generated from an entry in the Cambridge 
# Structural Database, then it will include bibliographic, chemical, 
# crystal, experimental, refinement or atomic coordinate data resulting 
# from the CCDC's data processing and validation procedures.
#
#######################################################################

data_YOYFAU
_chemical_name_common            
"1,1'-(1,4-Butanediyl)bis(2-ethyl-1H-benzimidazole) monohydrate"
_chemical_formula_moiety         'C22 H26 N4,H2 O1'
_chemical_name_systematic        
'1,4-bis(2-Ethyl-1H-benzimidazol-1-yl)butane monohydrate'
_symmetry_cell_setting           monoclinic
_symmetry_space_group_name_H-M   'C 2/c'
_symmetry_Int_Tables_number      15
_space_group_name_Hall           '-C 2yn'
loop_
_symmetry_equiv_pos_site_id
_symmetry_equiv_pos_as_xyz
1 x,y,z
2 -x,y,1/2-z
3 1/2+x,1/2+y,z
4 1/2-x,1/2+y,1/2-z
5 -x,-y,-z
6 x,-y,1/2+z
7 1/2-x,1/2-y,-z
8 1/2+x,1/2-y,1/2+z
_cell_length_a                   16.604(10)
_cell_length_b                   8.722(7)
_cell_length_c                   15.858(9)
_cell_angle_alpha                90
_cell_angle_beta                 114.37(2)
_cell_angle_gamma                90
_cell_volume                     2091.93
_exptl_crystal_colour            colorless
_exptl_crystal_description       block
_cell_formula_units_Z            4
_exptl_crystal_recrystallization_method ethanol/water
loop_
_atom_site_label
_atom_site_type_symbol
_atom_site_fract_x
_atom_site_fract_y
_atom_site_fract_z
N1 N 0.18355(11) 0.3407(2) 0.55902(12)
N2 N 0.32626(11) 0.3031(2) 0.64781(12)
C1 C 0.27926(15) 0.1724(3) 0.64937(14)
C2 C 0.26701(13) 0.4000(3) 0.59406(14)
C3 C 0.18943(14) 0.1950(3) 0.59462(15)
C4 C 0.28563(17) 0.5585(3) 0.57392(19)
H1 H 0.2458 0.6281 0.5855
H2 H 0.2738 0.5660 0.5088
C5 C 0.10215(14) 0.4100(3) 0.49215(15)
H3 H 0.0695 0.3339 0.4461
H4 H 0.1171 0.4931 0.4606
C6 C 0.04372(14) 0.4712(4) 0.53664(15)
H5 H 0.0738 0.5545 0.5783
H6 H 0.0325 0.3907 0.5726
C7 C 0.1264(2) 0.0837(4) 0.5860(2)
H7 H 0.0666 0.0995 0.5493
C8 C 0.3082(2) 0.0348(4) 0.69630(17)
H8 H 0.3680 0.0172 0.7321
C9 C 0.1562(3) -0.0505(4) 0.6340(2)
H9 H 0.1159 -0.1270 0.6304
C10 C 0.2459(3) -0.0743(4) 0.6880(2)
H10 H 0.2640 -0.1667 0.7194
C11 C 0.3802(2) 0.6085(5) 0.6313(3)
H11 H 0.3882 0.7120 0.6155
H12 H 0.4201 0.5421 0.6188
H13 H 0.3922 0.6031 0.6959
N1D N -0.18355(11) 0.6593(2) 0.44098(12)
N2D N -0.32626(11) 0.6969(2) 0.35219(12)
C1D C -0.27926(15) 0.8276(3) 0.35063(14)
C2D C -0.26701(13) 0.6000(3) 0.40594(14)
C3D C -0.18943(14) 0.8050(3) 0.40538(15)
C4D C -0.28563(17) 0.4415(3) 0.42608(19)
H1D H -0.2458 0.3719 0.4145
H2D H -0.2738 0.4340 0.4912
C5D C -0.10215(14) 0.5900(3) 0.50785(15)
H3D H -0.0695 0.6661 0.5539
H4D H -0.1171 0.5069 0.5394
C6D C -0.04372(14) 0.5288(4) 0.46336(15)
H5D H -0.0738 0.4455 0.4217
H6D H -0.0325 0.6093 0.4274
C7D C -0.1264(2) 0.9163(4) 0.4140(2)
H7D H -0.0666 0.9005 0.4507
C8D C -0.3082(2) 0.9652(4) 0.30370(17)
H8D H -0.3680 0.9828 0.2679
C9D C -0.1562(3) 1.0505(4) 0.3660(2)
H9D H -0.1159 1.1270 0.3696
C10D C -0.2459(3) 1.0743(4) 0.3120(2)
H10D H -0.2640 1.1667 0.2806
C11D C -0.3802(2) 0.3915(5) 0.3687(3)
H11D H -0.3882 0.2880 0.3845
H12D H -0.4201 0.4579 0.3812
H13D H -0.3922 0.3969 0.3041
O1 O 0.5000 0.2153(7) 0.7500
loop_
_geom_bond_atom_site_label_1
_geom_bond_atom_site_label_2
_geom_bond_site_symmetry_1
_geom_bond_site_symmetry_2
N1 C2 1_555 1_555
N2 C1 1_555 1_555
C1 C3 1_555 1_555
C2 N2 1_555 1_555
C3 N1 1_555 1_555
C4 C2 1_555 1_555
H1 C4 1_555 1_555
H2 C4 1_555 1_555
C5 N1 1_555 1_555
H3 C5 1_555 1_555
H4 C5 1_555 1_555
C6 C5 1_555 1_555
H5 C6 1_555 1_555
H6 C6 1_555 1_555
C7 C3 1_555 1_555
H7 C7 1_555 1_555
C8 C1 1_555 1_555
H8 C8 1_555 1_555
C9 C7 1_555 1_555
H9 C9 1_555 1_555
C10 C8 1_555 1_555
H10 C10 1_555 1_555
C11 C4 1_555 1_555
H11 C11 1_555 1_555
H12 C11 1_555 1_555
H13 C11 1_555 1_555
N1D C2D 1_555 1_555
N2D C1D 1_555 1_555
C1D C3D 1_555 1_555
C2D N2D 1_555 1_555
C3D N1D 1_555 1_555
C4D C2D 1_555 1_555
H1D C4D 1_555 1_555
H2D C4D 1_555 1_555
C5D N1D 1_555 1_555
H3D C5D 1_555 1_555
H4D C5D 1_555 1_555
C6D C6 1_555 1_555
H5D C6D 1_555 1_555
H6D C6D 1_555 1_555
C7D C3D 1_555 1_555
H7D C7D 1_555 1_555
C8D C1D 1_555 1_555
H8D C8D 1_555 1_555
C9D C7D 1_555 1_555
H9D C9D 1_555 1_555
C10D C8D 1_555 1_555
H10D C10D 1_555 1_555
C11D C4D 1_555 1_555
H11D C11D 1_555 1_555
H12D C11D 1_555 1_555
H13D C11D 1_555 1_555
C9 C10 1_555 1_555
C5D C6D 1_555 1_555
C9D C10D 1_555 1_555

#END
