
#######################################################################
#
#                 Cambridge Crystallographic Data Centre
#                                CCDC 
#
#######################################################################
#
# If this CIF has been generated from an entry in the Cambridge 
# Structural Database, then it will include bibliographic, chemical, 
# crystal, experimental, refinement or atomic coordinate data resulting 
# from the CCDC's data processing and validation procedures.
#
#######################################################################

data_YOYHIE
_chemical_formula_moiety         'C16 H18 Cl3 N3 O3'
_chemical_name_systematic        
'(Z)-2-Ethoxyethyl 2-cyano-3-(2-(2,4,6-trichlorophenyl)hydrazino)-2-pentenoate'
_chemical_properties_biological  
'Limited herbicidal activity. Some inhibition of three of four plants tested for postemergence treatment, and one of four plants with preemergence treatment. Some plant growh regulation and fungicidal activity, with activity against five fungal strains tested. Anti-tumour activity against two cell lines tested'
_symmetry_cell_setting           triclinic
_symmetry_space_group_name_H-M   'P -1'
_symmetry_Int_Tables_number      2
_space_group_name_Hall           '-P 1'
loop_
_symmetry_equiv_pos_site_id
_symmetry_equiv_pos_as_xyz
1 x,y,z
2 -x,-y,-z
_cell_length_a                   7.989(4)
_cell_length_b                   8.260(5)
_cell_length_c                   15.020(8)
_cell_angle_alpha                80.453(9)
_cell_angle_beta                 89.270(10)
_cell_angle_gamma                79.573(9)
_cell_volume                     961.136
_chemical_melting_point          '101-102 deg.C'
_cell_formula_units_Z            2
loop_
_atom_site_label
_atom_site_type_symbol
_atom_site_fract_x
_atom_site_fract_y
_atom_site_fract_z
Cl1 Cl 0.38049(15) 1.06835(12) 0.38529(7)
Cl2 Cl 0.1833(2) 0.55366(18) 0.60120(8)
Cl3 Cl 0.37598(16) 0.48105(13) 0.26818(8)
O1 O 0.1436(3) 0.7720(3) -0.07509(16)
O2 O 0.0828(3) 0.7997(3) 0.06870(17)
O3 O -0.0413(3) 0.9528(3) -0.23913(18)
N1 N 0.4258(4) 0.8523(4) 0.24790(19)
H1 H 0.5040 0.9118 0.2463
N2 N 0.3519(4) 0.8276(4) 0.16926(19)
H2 H 0.2443 0.8279 0.1676
N3 N 0.5417(4) 0.7842(5) -0.1275(2)
C1 C 0.3433(5) 0.8649(4) 0.4013(2)
C2 C 0.2897(5) 0.7988(5) 0.4850(3)
H3 H 0.2759 0.8611 0.5317
C3 C 0.2572(6) 0.6386(6) 0.4980(3)
C4 C 0.2809(5) 0.5455(5) 0.4308(3)
H4 H 0.2581 0.4375 0.4403
C5 C 0.3391(5) 0.6123(5) 0.3480(3)
C6 C 0.3676(4) 0.7762(4) 0.3301(2)
C7 C 0.4434(4) 0.8034(4) 0.0964(2)
C8 C 0.6338(4) 0.7913(4) 0.1025(2)
H5 H 0.6596 0.8591 0.1456
H6 H 0.6745 0.8363 0.0441
C9 C 0.7271(5) 0.6145(5) 0.1308(4)
H7 H 0.6973 0.5737 0.1915
H8 H 0.8476 0.6124 0.1281
H9 H 0.6958 0.5450 0.0910
C10 C 0.3664(4) 0.7884(4) 0.0172(2)
C11 C 0.4656(5) 0.7820(5) -0.0622(3)
C12 C 0.1863(5) 0.7874(4) 0.0084(2)
C13 C -0.0328(4) 0.7715(5) -0.0943(3)
H10 H -0.1055 0.8630 -0.0720
H11 H -0.0643 0.6675 -0.0654
C14 C -0.0520(5) 0.7905(5) -0.1944(3)
H12 H 0.0361 0.7107 -0.2166
H13 H -0.1612 0.7647 -0.2088
C15 C 0.1169(6) 0.9721(7) -0.2727(4)
H14 H 0.1555 0.8864 -0.3091
H15 H 0.1969 0.9557 -0.2226
C16 C 0.1181(6) 1.1343(7) -0.3270(4)
H16 H 0.0523 1.1450 -0.3814
H17 H 0.2332 1.1450 -0.3421
H18 H 0.0697 1.2202 -0.2934
loop_
_geom_bond_atom_site_label_1
_geom_bond_atom_site_label_2
_geom_bond_site_symmetry_1
_geom_bond_site_symmetry_2
Cl1 C1 1_555 1_555
Cl2 C3 1_555 1_555
Cl3 C5 1_555 1_555
O1 C12 1_555 1_555
O2 C12 1_555 1_555
O3 C14 1_555 1_555
N1 H1 1_555 1_555
N2 N1 1_555 1_555
H2 N2 1_555 1_555
N3 C11 1_555 1_555
C1 C2 1_555 1_555
C2 H3 1_555 1_555
C3 C2 1_555 1_555
C4 C3 1_555 1_555
H4 C4 1_555 1_555
C5 C4 1_555 1_555
C6 N1 1_555 1_555
C7 N2 1_555 1_555
C8 C7 1_555 1_555
H5 C8 1_555 1_555
H6 C8 1_555 1_555
C9 C8 1_555 1_555
H7 C9 1_555 1_555
H8 C9 1_555 1_555
H9 C9 1_555 1_555
C10 C7 1_555 1_555
C11 C10 1_555 1_555
C12 C10 1_555 1_555
C13 O1 1_555 1_555
H10 C13 1_555 1_555
H11 C13 1_555 1_555
C14 C13 1_555 1_555
H12 C14 1_555 1_555
H13 C14 1_555 1_555
C15 O3 1_555 1_555
H14 C15 1_555 1_555
H15 C15 1_555 1_555
C16 C15 1_555 1_555
H16 C16 1_555 1_555
H17 C16 1_555 1_555
H18 C16 1_555 1_555
C1 C6 1_555 1_555
C5 C6 1_555 1_555

#END
