
#######################################################################
#
#                 Cambridge Crystallographic Data Centre
#                                CCDC 
#
#######################################################################
#
# If this CIF has been generated from an entry in the Cambridge 
# Structural Database, then it will include bibliographic, chemical, 
# crystal, experimental, refinement or atomic coordinate data resulting 
# from the CCDC's data processing and validation procedures.
#
#######################################################################

data_YOYHOK
_chemical_formula_moiety         'C17 H23 N3 O3 S1'
_chemical_name_systematic        
'2-Ethoxyethyl 5-amino-1-(2,4-dimethylphenyl)-3-(methylthio)-1H-pyrazole-4-carboxylate'
_chemical_properties_biological  
'Very limited herbicidal activity. Some inhibition of one of four plants tested for postemergence treatment, and none of the four plants with preemergence treatment. Some plant growh regulation and fungicidal activity, with activity against five fungal strains tested. Anti-tumour activity against two cell lines tested'
_symmetry_cell_setting           orthorhombic
_symmetry_space_group_name_H-M   'P 21 21 21'
_symmetry_Int_Tables_number      19
_space_group_name_Hall           'P 2ac 2ab'
loop_
_symmetry_equiv_pos_site_id
_symmetry_equiv_pos_as_xyz
1 x,y,z
2 1/2-x,-y,1/2+z
3 -x,1/2+y,1/2-z
4 1/2+x,1/2-y,-z
_cell_length_a                   11.2274(19)
_cell_length_b                   11.3180(19)
_cell_length_c                   14.224(2)
_cell_angle_alpha                90
_cell_angle_beta                 90
_cell_angle_gamma                90
_cell_volume                     1807.47
_chemical_melting_point          '105-107 deg.C'
_cell_formula_units_Z            4
loop_
_atom_site_label
_atom_site_type_symbol
_atom_site_fract_x
_atom_site_fract_y
_atom_site_fract_z
S1 S 0.98086(5) 0.53977(7) 0.17545(5)
O1 O 0.95570(15) 0.33930(17) 0.02590(13)
O2 O 0.78088(14) 0.31361(14) -0.04962(11)
O3 O 0.81389(15) 0.06388(14) -0.00370(12)
N1 N 0.75268(17) 0.60818(17) 0.16683(13)
N2 N 0.64873(17) 0.57542(17) 0.11935(14)
N3 N 0.57909(18) 0.4372(2) 0.00765(16)
H1 H 0.5043(11) 0.4618(18) 0.0140(17)
H2 H 0.5873(19) 0.3651(12) -0.0167(16)
C1 C 0.5411(2) 0.64099(19) 0.13342(16)
C2 C 0.5081(3) 0.7240(2) 0.06652(17)
H3 H 0.5551 0.7357 0.0135
C3 C 0.4055(3) 0.7891(2) 0.07877(18)
H4 H 0.3834 0.8445 0.0338
C4 C 0.3355(2) 0.7725(2) 0.15750(18)
C5 C 0.3709(2) 0.6908(2) 0.22344(18)
H5 H 0.3248 0.6808 0.2771
C6 C 0.4737(2) 0.6223(2) 0.21291(16)
C7 C 0.2219(3) 0.8420(3) 0.1708(2)
H6 H 0.2053 0.8496 0.2368
H7 H 0.1572 0.8015 0.1406
H8 H 0.2309 0.9191 0.1436
C8 C 0.5078(3) 0.5304(3) 0.2831(2)
H9 H 0.5926 0.5315 0.2920
H10 H 0.4838 0.4540 0.2607
H11 H 0.4689 0.5465 0.3419
C9 C 0.6669(2) 0.48294(19) 0.06060(15)
C10 C 0.78761(19) 0.4532(2) 0.06780(15)
C11 C 0.83359(19) 0.5342(2) 0.13551(14)
C12 C 0.9655(3) 0.6515(3) 0.26459(19)
H12 H 0.9010 0.6310 0.3058
H13 H 0.9492 0.7263 0.2354
H14 H 1.0380 0.6568 0.3001
C13 C 0.8521(2) 0.3643(2) 0.01606(16)
C14 C 0.8291(2) 0.2241(2) -0.11075(17)
H15 H 0.9142 0.2169 -0.1007
H16 H 0.8159 0.2459 -0.1759
C15 C 0.7694(2) 0.1085(2) -0.09035(18)
H17 H 0.6839 0.1197 -0.0862
H18 H 0.7856 0.0528 -0.1406
C16 C 0.7481(3) -0.0349(2) 0.02878(19)
H19 H 0.7514 -0.0979 -0.0173
H20 H 0.6654 -0.0129 0.0377
C17 C 0.7998(3) -0.0762(3) 0.1195(2)
H21 H 0.7937 -0.0143 0.1654
H22 H 0.8820 -0.0964 0.1104
H23 H 0.7569 -0.1444 0.1410
loop_
_geom_bond_atom_site_label_1
_geom_bond_atom_site_label_2
_geom_bond_site_symmetry_1
_geom_bond_site_symmetry_2
S1 C11 1_555 1_555
O1 C13 1_555 1_555
O2 C13 1_555 1_555
O3 C15 1_555 1_555
N1 N2 1_555 1_555
N2 C1 1_555 1_555
N3 H1 1_555 1_555
H2 N3 1_555 1_555
C1 C2 1_555 1_555
C2 H3 1_555 1_555
C3 C2 1_555 1_555
H4 C3 1_555 1_555
C4 C3 1_555 1_555
C5 C4 1_555 1_555
H5 C5 1_555 1_555
C6 C1 1_555 1_555
C7 C4 1_555 1_555
H6 C7 1_555 1_555
H7 C7 1_555 1_555
H8 C7 1_555 1_555
C8 C6 1_555 1_555
H9 C8 1_555 1_555
H10 C8 1_555 1_555
H11 C8 1_555 1_555
C9 N2 1_555 1_555
C10 C9 1_555 1_555
C11 N1 1_555 1_555
C12 S1 1_555 1_555
H12 C12 1_555 1_555
H13 C12 1_555 1_555
H14 C12 1_555 1_555
C13 C10 1_555 1_555
C14 O2 1_555 1_555
H15 C14 1_555 1_555
H16 C14 1_555 1_555
C15 C14 1_555 1_555
H17 C15 1_555 1_555
H18 C15 1_555 1_555
C16 O3 1_555 1_555
H19 C16 1_555 1_555
H20 C16 1_555 1_555
C17 C16 1_555 1_555
H21 C17 1_555 1_555
H22 C17 1_555 1_555
H23 C17 1_555 1_555
N3 C9 1_555 1_555
C5 C6 1_555 1_555
C10 C11 1_555 1_555

#END
