
#######################################################################
#
#                 Cambridge Crystallographic Data Centre
#                                CCDC 
#
#######################################################################
#
# If this CIF has been generated from an entry in the Cambridge 
# Structural Database, then it will include bibliographic, chemical, 
# crystal, experimental, refinement or atomic coordinate data resulting 
# from the CCDC's data processing and validation procedures.
#
#######################################################################

data_YOYREJ
_chemical_formula_moiety         'C14 H20 N3 O2 P1 S2'
_chemical_name_systematic        
N-(2-(N-Phenylthiazol-4-one))imino-O-ethyl-N-isopropylaminothiophosphate
_chemical_properties_biological  'possible herbicidal activity'
_symmetry_cell_setting           monoclinic
_symmetry_space_group_name_H-M   'P 21/c'
_symmetry_Int_Tables_number      14
_space_group_name_Hall           '-P 2ybc'
loop_
_symmetry_equiv_pos_site_id
_symmetry_equiv_pos_as_xyz
1 x,y,z
2 -x,1/2+y,1/2-z
3 -x,-y,-z
4 x,1/2-y,1/2+z
_cell_length_a                   10.825(2)
_cell_length_b                   10.511(2)
_cell_length_c                   16.402(1)
_cell_angle_alpha                90
_cell_angle_beta                 102.12(1)
_cell_angle_gamma                90
_cell_volume                     1824.65
_exptl_crystal_colour            colorless
_cell_formula_units_Z            4
loop_
_atom_site_label
_atom_site_type_symbol
_atom_site_fract_x
_atom_site_fract_y
_atom_site_fract_z
P1 P 0.7828(5) 0.2552(2) 0.2726(4)
S1 S 0.7413(4) 0.4230(2) 0.3067(2)
S2 S 0.5099(2) 0.2172(2) 0.3243(1)
N1 N 0.7506(5) 0.1339(5) 0.3304(3)
C1 C 0.6438(7) 0.1181(6) 0.3486(4)
N2 N 0.6173(5) 0.0120(5) 0.3925(3)
C2 C 0.4939(7) -0.0044(7) 0.4016(4)
O1 O 0.4573(4) -0.0962(5) 0.4329(3)
C3 C 0.4153(7) 0.1081(9) 0.3686(5)
C4 C 0.7144(6) -0.0762(6) 0.4290(4)
C5 C 0.7083(8) -0.2014(8) 0.4046(4)
C6 C 0.8002(9) -0.2858(8) 0.4441(5)
C7 C 0.8951(8) -0.2456(9) 0.5058(5)
C8 C 0.9022(7) -0.1216(8) 0.5309(5)
C9 C 0.8109(7) -0.0361(7) 0.4921(5)
O2 O 0.9287(2) 0.2273(2) 0.2841(1)
C10 C 1.004(7) 0.326(2) 0.251(4)
C11 C 1.1284(9) 0.290(1) 0.2663(7)
N3 N 0.7210(5) 0.2252(6) 0.1762(3)
C12 C 0.7322(8) 0.1069(7) 0.1309(5)
C13 C 0.609(7) 0.035(5) 0.114(6)
C14 C 0.773(6) 0.138(4) 0.049(5)
H1 H 0.390(6) 0.138(7) 0.428(4)
H2 H 0.353(6) 0.079(6) 0.333(4)
H3 H 0.647(5) -0.222(5) 0.369(3)
H4 H 0.797(6) -0.364(6) 0.425(4)
H5 H 0.955(7) -0.304(7) 0.538(5)
H6 H 0.970(8) -0.093(9) 0.594(6)
H7 H 0.805(6) 0.059(6) 0.509(4)
H8? H 0.600(3) 0.265(4) 0.160(2)
loop_
_geom_bond_atom_site_label_1
_geom_bond_atom_site_label_2
_geom_bond_site_symmetry_1
_geom_bond_site_symmetry_2
P1 S1 1_555 1_555
S2 C1 1_555 1_555
N1 P1 1_555 1_555
C1 N1 1_555 1_555
N2 C1 1_555 1_555
C2 N2 1_555 1_555
O1 C2 1_555 1_555
C3 S2 1_555 1_555
C4 N2 1_555 1_555
C5 C4 1_555 1_555
C6 C5 1_555 1_555
C7 C6 1_555 1_555
C8 C7 1_555 1_555
C9 C4 1_555 1_555
O2 P1 1_555 1_555
C10 O2 1_555 1_555
C11 C10 1_555 1_555
N3 P1 1_555 1_555
C12 N3 1_555 1_555
C13 C12 1_555 1_555
C14 C12 1_555 1_555
H1 C3 1_555 1_555
H2 C3 1_555 1_555
H3 C5 1_555 1_555
H4 C6 1_555 1_555
H5 C7 1_555 1_555
H6 C8 1_555 1_555
H7 C9 1_555 1_555
C2 C3 1_555 1_555
C8 C9 1_555 1_555

#END
