
#######################################################################
#
#                 Cambridge Crystallographic Data Centre
#                                CCDC 
#
#######################################################################
#
# If this CIF has been generated from an entry in the Cambridge 
# Structural Database, then it will include bibliographic, chemical, 
# crystal, experimental, refinement or atomic coordinate data resulting 
# from the CCDC's data processing and validation procedures.
#
#######################################################################

data_YOYXAL02
_chemical_formula_moiety         'C11 H11 N3 O1'
_chemical_name_systematic        
1,2,3,4-tetrahydro-6H-pyrimido[2,1-b]quinazolin-6-one
_symmetry_cell_setting           monoclinic
_symmetry_space_group_name_H-M   'P 21/n'
_symmetry_Int_Tables_number      14
_space_group_name_Hall           '-P 2yn'
loop_
_symmetry_equiv_pos_site_id
_symmetry_equiv_pos_as_xyz
1 x,y,z
2 1/2-x,1/2+y,1/2-z
3 -x,-y,-z
4 1/2+x,1/2-y,1/2+z
_cell_length_a                   5.8439(12)
_cell_length_b                   14.232(3)
_cell_length_c                   11.097(2)
_cell_angle_alpha                90
_cell_angle_beta                 93.330(3)
_cell_angle_gamma                90
_cell_volume                     921.383
_exptl_crystal_colour            colorless
_exptl_crystal_description       block
_cell_formula_units_Z            4
loop_
_atom_site_label
_atom_site_type_symbol
_atom_site_fract_x
_atom_site_fract_y
_atom_site_fract_z
C1 C -0.0980(2) 0.14767(7) 0.11549(10)
C2 C -0.2794(2) 0.21106(9) 0.09577(12)
H1 H -0.3927 0.2147 0.1510
C3 C -0.2917(2) 0.26771(9) -0.00388(13)
H2 H -0.4147 0.3085 -0.0179
C4 C -0.1172(2) 0.26344(9) -0.08429(12)
H3 H -0.1205 0.3041 -0.1500
C5 C 0.0592(2) 0.20033(9) -0.06822(11)
H4 H 0.1724 0.1982 -0.1237
C6 C 0.07082(19) 0.13883(8) 0.03120(10)
C7 C -0.0775(2) 0.09190(8) 0.22496(11)
C8 C 0.25729(19) 0.02131(7) 0.14019(10)
C9 C 0.4735(3) -0.10082(10) 0.25881(12)
H5 H 0.6383 -0.1069 0.2728
H6 H 0.4089 -0.1632 0.2472
C10 C 0.3733(5) -0.05420(19) 0.3661(2)
H7 H 0.3907 -0.0950 0.4360
H8 H 0.4535 0.0041 0.3848
C11 C 0.1246(11) -0.0348(4) 0.3367(5)
H9 H 0.0441 -0.0928 0.3165
H10 H 0.0560 -0.0066 0.4056
N1 N 0.10851(18) 0.03043(7) 0.23250(9)
N2 N 0.24462(17) 0.07372(7) 0.04252(8)
N3 N 0.42120(19) -0.04396(7) 0.15228(10)
H11 H 0.514(3) -0.0500(10) 0.0920(15)
O1 O -0.20594(19) 0.09707(7) 0.30817(9)
H12? H 0.5960 -0.0718 0.3085
H13? H 0.5258 -0.1623 0.2345
C12? C 0.2625(6) -0.1110(2) 0.3333(3)
H14? H 0.1481 -0.1500 0.2909
H15? H 0.3046 -0.1399 0.4105
C13? C 0.1691(18) -0.0139(5) 0.3516(7)
H16? H 0.0341 -0.0175 0.3982
H17? H 0.2829 0.0241 0.3961
loop_
_geom_bond_atom_site_label_1
_geom_bond_atom_site_label_2
_geom_bond_site_symmetry_1
_geom_bond_site_symmetry_2
C1 C2 1_555 1_555
C2 H1 1_555 1_555
C3 C2 1_555 1_555
H2 C3 1_555 1_555
C4 C3 1_555 1_555
H3 C4 1_555 1_555
C5 C4 1_555 1_555
H4 C5 1_555 1_555
C6 C1 1_555 1_555
C7 C1 1_555 1_555
C8 N1 1_555 1_555
C9 H5 1_555 1_555
H6 C9 1_555 1_555
C10 C9 1_555 1_555
H7 C10 1_555 1_555
H8 C10 1_555 1_555
C11 C10 1_555 1_555
H9 C11 1_555 1_555
H10 C11 1_555 1_555
N1 C7 1_555 1_555
N2 C6 1_555 1_555
N3 C8 1_555 1_555
H11 N3 1_555 1_555
O1 C7 1_555 1_555
C5 C6 1_555 1_555
C8 N2 1_555 1_555
C9 N3 1_555 1_555
C11 N1 1_555 1_555

#END
