
#######################################################################
#
#                 Cambridge Crystallographic Data Centre
#                                CCDC 
#
#######################################################################
#
# If this CIF has been generated from an entry in the Cambridge 
# Structural Database, then it will include bibliographic, chemical, 
# crystal, experimental, refinement or atomic coordinate data resulting 
# from the CCDC's data processing and validation procedures.
#
#######################################################################

data_YOZHAY
_chemical_formula_moiety         'C20 H17 Br2 N3 O4'
_chemical_name_systematic        
1,4-bis(5-bromo-2-furyl)-6-hexyl-5H-pyrrolo[3,4-d]pyridazine-5,7(6H)-dione
_symmetry_cell_setting           triclinic
_symmetry_space_group_name_H-M   'P -1'
_symmetry_Int_Tables_number      2
_space_group_name_Hall           '-P 1'
loop_
_symmetry_equiv_pos_site_id
_symmetry_equiv_pos_as_xyz
1 x,y,z
2 -x,-y,-z
_cell_length_a                   7.4179(4)
_cell_length_b                   13.6320(7)
_cell_length_c                   19.6368(10)
_cell_angle_alpha                93.074(2)
_cell_angle_beta                 95.716(2)
_cell_angle_gamma                95.691(2)
_cell_volume                     1962.03
_exptl_crystal_colour            'yellow orange'
_exptl_crystal_description       'prism fragment'
_cell_formula_units_Z            4
loop_
_atom_site_label
_atom_site_type_symbol
_atom_site_fract_x
_atom_site_fract_y
_atom_site_fract_z
Br1 Br 0.71910(3) 0.32693(2) -0.16170(2)
Br2 Br 1.27460(2) 0.15166(2) 0.35450(2)
O1 O 0.54262(19) -0.15445(10) -0.06633(7)
O2 O 0.8305(2) -0.23265(11) 0.13570(7)
O3 O 0.75913(18) 0.18100(10) -0.07292(6)
O4 O 1.10078(17) 0.07708(10) 0.22976(6)
N1 N 0.8890(2) 0.11463(12) 0.04180(8)
N2 N 0.9572(2) 0.09411(12) 0.10339(8)
N3 N 0.6696(2) -0.21544(12) 0.03161(8)
C1 C 0.6756(3) 0.19959(15) -0.13489(9)
C2 C 0.5746(3) 0.11897(15) -0.16631(9)
C3 C 0.5967(3) 0.04235(15) -0.12116(9)
C4 C 0.7079(2) 0.08222(14) -0.06493(9)
C5 C 0.7796(2) 0.04599(14) -0.00043(9)
C6 C 0.7491(2) -0.05005(13) 0.02034(8)
C7 C 0.6401(2) -0.14250(14) -0.01312(9)
C8 C 0.7824(2) -0.18137(14) 0.09060(9)
C9 C 0.8276(2) -0.07271(14) 0.08358(9)
C10 C 0.9279(2) 0.00268(14) 0.12697(9)
C11 C 1.0012(2) -0.00700(14) 0.19727(9)
C12 C 0.9860(3) -0.07881(15) 0.24221(9)
C13 C 1.0776(3) -0.03945(16) 0.30629(10)
C14 C 1.1437(2) 0.05330(15) 0.29518(9)
C15 C 0.5931(3) -0.31880(15) 0.01740(11)
C16 C 0.6770(3) -0.36927(16) -0.04090(11)
C17 C 0.8839(3) -0.36336(16) -0.03153(10)
C18 C 0.9563(3) -0.42088(17) -0.08965(11)
C19 C 1.1627(3) -0.41754(17) -0.08465(11)
C20 C 1.2238(3) -0.48388(18) -0.14078(12)
H1 H 0.507(3) 0.1180(19) -0.2053(14)
H2 H 0.546(4) -0.022(2) -0.1279(13)
H3 H 0.922(4) -0.140(2) 0.2334(13)
H4 H 1.088(3) -0.067(2) 0.3452(14)
H5 H 0.460(4) -0.3192(19) 0.0081(13)
H6 H 0.616(3) -0.350(2) 0.0566(14)
H7 H 0.630(3) -0.438(2) -0.0434(13)
H8 H 0.637(3) -0.3442(19) -0.0818(14)
H9 H 0.923(3) -0.389(2) 0.0115(13)
H10 H 0.934(3) -0.295(2) -0.0306(13)
H11 H 0.904(3) -0.488(2) -0.0895(13)
H12 H 0.910(3) -0.3976(19) -0.1334(13)
H13 H 1.208(3) -0.4405(19) -0.0380(13)
H14 H 1.213(3) -0.348(2) -0.0875(13)
H15 H 1.175(3) -0.553(2) -0.1366(13)
H16 H 1.353(4) -0.4812(19) -0.1404(13)
H17 H 1.179(3) -0.4699(19) -0.1860(13)
Br3 Br 0.44653(3) -0.33253(2) 0.50607(2)
Br4 Br 1.25596(3) 0.33695(2) 0.71926(2)
O5 O 0.62611(19) 0.03545(11) 0.27896(7)
O6 O 0.93855(19) 0.32391(11) 0.37249(7)
O7 O 0.59812(18) -0.15241(10) 0.47393(6)
O8 O 1.08107(18) 0.24697(10) 0.60052(6)
N4 N 0.7852(2) 0.01762(13) 0.50773(8)
N5 N 0.8848(2) 0.09909(13) 0.53318(8)
N6 N 0.7811(2) 0.18816(12) 0.31067(7)
C21 C 0.4825(3) -0.23173(14) 0.44732(9)
C22 C 0.4135(3) -0.22024(16) 0.38246(10)
C23 C 0.4926(3) -0.12568(15) 0.36638(10)
C24 C 0.6033(2) -0.08680(14) 0.42257(9)
C25 C 0.7156(2) 0.00626(14) 0.44080(9)
C26 C 0.7534(2) 0.08244(14) 0.39805(8)
C27 C 0.7079(2) 0.09388(14) 0.32268(9)
C28 C 0.8688(2) 0.23957(14) 0.36955(9)
C29 C 0.8549(2) 0.16916(14) 0.42534(9)
C30 C 0.9214(2) 0.17714(14) 0.49490(9)
C31 C 1.0265(2) 0.26193(15) 0.53264(9)
C32 C 1.0827(3) 0.35636(16) 0.51904(10)
C33 C 1.1766(3) 0.40341(16) 0.58068(10)
C34 C 1.1719(3) 0.33378(15) 0.62733(9)
C35 C 0.7617(3) 0.23089(16) 0.24348(9)
C36 C 0.5804(3) 0.27382(15) 0.22993(9)
C37 C 0.5526(3) 0.35476(15) 0.28342(10)
C38 C 0.3746(3) 0.40053(16) 0.26897(10)
C39 C 0.3361(3) 0.46819(18) 0.32918(11)
C40 C 0.1656(3) 0.51967(19) 0.31554(14)
H18 H 0.328(4) -0.260(2) 0.3562(13)
H19 H 0.467(3) -0.0967(19) 0.3244(13)
H20 H 1.058(3) 0.385(2) 0.4780(13)
H21 H 1.227(3) 0.470(2) 0.5887(13)
H22 H 0.772(3) 0.179(2) 0.2136(13)
H23 H 0.861(4) 0.284(2) 0.2441(13)
H24 H 0.480(3) 0.217(2) 0.2272(13)
H25 H 0.575(3) 0.2984(19) 0.1848(13)
H26 H 0.557(3) 0.3271(19) 0.3288(13)
H27 H 0.656(3) 0.407(2) 0.2856(13)
H28 H 0.276(4) 0.351(2) 0.2612(13)
H29 H 0.379(3) 0.4399(19) 0.2298(13)
H30 H 0.323(3) 0.429(2) 0.3724(13)
H31 H 0.435(4) 0.517(2) 0.3424(13)
H32 H 0.171(4) 0.551(2) 0.2778(14)
H33 H 0.146(3) 0.563(2) 0.3559(14)
H34 H 0.059(4) 0.470(2) 0.3027(13)
loop_
_geom_bond_atom_site_label_1
_geom_bond_atom_site_label_2
_geom_bond_site_symmetry_1
_geom_bond_site_symmetry_2
Br1 C1 1_555 1_555
Br2 C14 1_555 1_555
O1 C7 1_555 1_555
O2 C8 1_555 1_555
O3 C1 1_555 1_555
O4 C11 1_555 1_555
N1 N2 1_555 1_555
N2 C10 1_555 1_555
N3 C7 1_555 1_555
C1 C2 1_555 1_555
C2 C3 1_555 1_555
C3 C4 1_555 1_555
C4 O3 1_555 1_555
C5 N1 1_555 1_555
C6 C5 1_555 1_555
C7 C6 1_555 1_555
C8 N3 1_555 1_555
C9 C6 1_555 1_555
C10 C9 1_555 1_555
C11 C10 1_555 1_555
C12 C11 1_555 1_555
C13 C12 1_555 1_555
C14 O4 1_555 1_555
C15 N3 1_555 1_555
C16 C15 1_555 1_555
C17 C16 1_555 1_555
C18 C17 1_555 1_555
C19 C18 1_555 1_555
C20 C19 1_555 1_555
H1 C2 1_555 1_555
H2 C3 1_555 1_555
H3 C12 1_555 1_555
H4 C13 1_555 1_555
H5 C15 1_555 1_555
H6 C15 1_555 1_555
H7 C16 1_555 1_555
H8 C16 1_555 1_555
H9 C17 1_555 1_555
H10 C17 1_555 1_555
H11 C18 1_555 1_555
H12 C18 1_555 1_555
H13 C19 1_555 1_555
H14 C19 1_555 1_555
H15 C20 1_555 1_555
H16 C20 1_555 1_555
H17 C20 1_555 1_555
Br3 C21 1_555 1_555
Br4 C34 1_555 1_555
O5 C27 1_555 1_555
O6 C28 1_555 1_555
O7 C21 1_555 1_555
O8 C31 1_555 1_555
N4 N5 1_555 1_555
N5 C30 1_555 1_555
N6 C27 1_555 1_555
C21 C22 1_555 1_555
C22 C23 1_555 1_555
C23 C24 1_555 1_555
C24 O7 1_555 1_555
C25 N4 1_555 1_555
C26 C25 1_555 1_555
C27 C26 1_555 1_555
C28 N6 1_555 1_555
C29 C26 1_555 1_555
C30 C29 1_555 1_555
C31 C30 1_555 1_555
C32 C31 1_555 1_555
C33 C32 1_555 1_555
C34 O8 1_555 1_555
C35 N6 1_555 1_555
C36 C35 1_555 1_555
C37 C36 1_555 1_555
C38 C37 1_555 1_555
C39 C38 1_555 1_555
C40 C39 1_555 1_555
H18 C22 1_555 1_555
H19 C23 1_555 1_555
H20 C32 1_555 1_555
H21 C33 1_555 1_555
H22 C35 1_555 1_555
H23 C35 1_555 1_555
H24 C36 1_555 1_555
H25 C36 1_555 1_555
H26 C37 1_555 1_555
H27 C37 1_555 1_555
H28 C38 1_555 1_555
H29 C38 1_555 1_555
H30 C39 1_555 1_555
H31 C39 1_555 1_555
H32 C40 1_555 1_555
H33 C40 1_555 1_555
H34 C40 1_555 1_555
C4 C5 1_555 1_555
C8 C9 1_555 1_555
C13 C14 1_555 1_555
C24 C25 1_555 1_555
C28 C29 1_555 1_555
C33 C34 1_555 1_555

#END
