
#######################################################################
#
#                 Cambridge Crystallographic Data Centre
#                                CCDC 
#
#######################################################################
#
# If this CIF has been generated from an entry in the Cambridge 
# Structural Database, then it will include bibliographic, chemical, 
# crystal, experimental, refinement or atomic coordinate data resulting 
# from the CCDC's data processing and validation procedures.
#
#######################################################################

data_YOZLUW
_chemical_formula_moiety         'C18 H18 I4 O4'
_chemical_name_systematic        
3,3',5,5'-tetraiodo-2,2',6,6'-tetramethoxy-4,4'-dimethylbiphenyl
_symmetry_cell_setting           monoclinic
_symmetry_space_group_name_H-M   'C c'
_symmetry_Int_Tables_number      9
_space_group_name_Hall           'C -2yc'
loop_
_symmetry_equiv_pos_site_id
_symmetry_equiv_pos_as_xyz
1 x,y,z
2 x,-y,1/2+z
3 1/2+x,1/2+y,z
4 1/2+x,1/2-y,1/2+z
_cell_length_a                   12.997(6)
_cell_length_b                   13.035(6)
_cell_length_c                   13.301(6)
_cell_angle_alpha                90
_cell_angle_beta                 91.472(5)
_cell_angle_gamma                90
_cell_volume                     2252.66
_cell_formula_units_Z            4
loop_
_atom_site_label
_atom_site_type_symbol
_atom_site_fract_x
_atom_site_fract_y
_atom_site_fract_z
I1 I 0.45580(4) 0.21355(4) 0.10124(4)
I2 I 0.92251(4) 0.15593(5) 0.09199(4)
I3 I 0.70224(5) 0.53789(4) -0.41011(4)
I4 I 0.65873(4) 0.08116(4) -0.51563(4)
O1 O 0.5024(4) 0.2563(4) -0.1226(4)
O2 O 0.8663(4) 0.2037(4) -0.1326(4)
O3 O 0.7134(4) 0.4318(4) -0.1993(4)
O4 O 0.6520(4) 0.0801(4) -0.2798(4)
C1 C 0.6914(6) 0.1941(6) 0.0817(6)
C2 C 0.7794(5) 0.1899(5) 0.0244(6)
C3 C 0.7768(5) 0.2059(5) -0.0802(6)
C4 C 0.6839(6) 0.2315(5) -0.1294(5)
C5 C 0.5952(5) 0.2361(5) -0.0745(5)
C6 C 0.5995(6) 0.2161(6) 0.0307(6)
C7 C 0.6830(5) 0.2558(6) -0.2387(5)
C8 C 0.6993(6) 0.3552(6) -0.2717(6)
C9 C 0.6936(5) 0.3806(6) -0.3729(5)
C10 C 0.6822(6) 0.3046(7) -0.4494(6)
C11 C 0.6695(6) 0.2043(5) -0.4127(5)
C12 C 0.6660(6) 0.1803(5) -0.3111(6)
C13 C 0.6782(7) 0.3270(6) -0.5584(7)
H1 H 0.7442 0.3089 -0.5877
H2 H 0.6648 0.4002 -0.5688
H3 H 0.6231 0.2867 -0.5909
C14 C 0.6974(6) 0.1777(6) 0.1933(6)
H4 H 0.7346 0.2349 0.2252
H5 H 0.7338 0.1134 0.2080
H6 H 0.6276 0.1740 0.2194
C15 C 0.8203(6) 0.4541(6) -0.1789(6)
H7 H 0.8530 0.3953 -0.1453
H8 H 0.8261 0.5145 -0.1353
H9 H 0.8546 0.4679 -0.2423
C16 C 0.5451(6) 0.0542(6) -0.2705(7)
H10 H 0.5154 0.0954 -0.2170
H11 H 0.5389 -0.0188 -0.2540
H12 H 0.5083 0.0682 -0.3342
C17 C 0.8920(6) 0.1047(6) -0.1726(7)
H13 H 0.8822 0.0521 -0.1210
H14 H 0.9639 0.1047 -0.1928
H15 H 0.8472 0.0898 -0.2312
C18 C 0.4734(5) 0.3630(5) -0.1212(6)
H16 H 0.4664 0.3856 -0.0515
H17 H 0.4076 0.3718 -0.1578
H18 H 0.5264 0.4039 -0.1535
loop_
_geom_bond_atom_site_label_1
_geom_bond_atom_site_label_2
_geom_bond_site_symmetry_1
_geom_bond_site_symmetry_2
I1 C6 1_555 1_555
I2 C2 1_555 1_555
I3 C9 1_555 1_555
I4 C11 1_555 1_555
O1 C5 1_555 1_555
O2 C3 1_555 1_555
O3 C8 1_555 1_555
O4 C12 1_555 1_555
C1 C2 1_555 1_555
C2 C3 1_555 1_555
C3 C4 1_555 1_555
C4 C5 1_555 1_555
C5 C6 1_555 1_555
C6 C1 1_555 1_555
C7 C4 1_555 1_555
C8 C7 1_555 1_555
C9 C8 1_555 1_555
C10 C9 1_555 1_555
C11 C10 1_555 1_555
C12 C7 1_555 1_555
C13 C10 1_555 1_555
H1 C13 1_555 1_555
H2 C13 1_555 1_555
H3 C13 1_555 1_555
C14 C1 1_555 1_555
H4 C14 1_555 1_555
H5 C14 1_555 1_555
H6 C14 1_555 1_555
C15 O3 1_555 1_555
H7 C15 1_555 1_555
H8 C15 1_555 1_555
H9 C15 1_555 1_555
C16 O4 1_555 1_555
H10 C16 1_555 1_555
H11 C16 1_555 1_555
H12 C16 1_555 1_555
C17 O2 1_555 1_555
H13 C17 1_555 1_555
H14 C17 1_555 1_555
H15 C17 1_555 1_555
C18 O1 1_555 1_555
H16 C18 1_555 1_555
H17 C18 1_555 1_555
H18 C18 1_555 1_555
C11 C12 1_555 1_555

#END
