
#######################################################################
#
#                 Cambridge Crystallographic Data Centre
#                                CCDC 
#
#######################################################################
#
# If this CIF has been generated from an entry in the Cambridge 
# Structural Database, then it will include bibliographic, chemical, 
# crystal, experimental, refinement or atomic coordinate data resulting 
# from the CCDC's data processing and validation procedures.
#
#######################################################################

data_YOZLAC
_chemical_formula_moiety         'C12 F6 I4'
_chemical_name_systematic        
2,2',4,4',6,6'-hexafluoro-3,3',5,5'-tetraiodobiphenyl
_symmetry_cell_setting           orthorhombic
_symmetry_space_group_name_H-M   'P 21 21 2'
_symmetry_Int_Tables_number      18
_space_group_name_Hall           'P 2 2ab'
loop_
_symmetry_equiv_pos_site_id
_symmetry_equiv_pos_as_xyz
1 x,y,z
2 -x,-y,z
3 1/2+x,1/2-y,-z
4 1/2-x,1/2+y,-z
_cell_length_a                   8.067(8)
_cell_length_b                   23.10(2)
_cell_length_c                   4.340(4)
_cell_angle_alpha                90
_cell_angle_beta                 90
_cell_angle_gamma                90
_cell_volume                     808.749
_cell_formula_units_Z            2
loop_
_atom_site_label
_atom_site_type_symbol
_atom_site_fract_x
_atom_site_fract_y
_atom_site_fract_z
I1 I -0.46238(3) 0.876310(9) 1.69249(5)
I2 I 0.15217(3) 0.802118(8) 1.01890(5)
F1 F -0.1895(2) 0.79970(8) 1.3636(5)
F2 F -0.2744(2) 0.99559(8) 1.5993(5)
F3 F 0.2095(2) 0.93736(8) 1.0905(5)
C1 C -0.13913(18) 0.85411(5) 1.3557(4)
C2 C -0.2363(2) 0.89738(6) 1.4857(4)
C3 C -0.1823(2) 0.95450(6) 1.4809(5)
C4 C -0.0311(2) 0.96836(6) 1.3460(6)
C5 C 0.0660(2) 0.92510(7) 1.2160(6)
C6 C 0.01204(19) 0.86797(6) 1.2208(5)
I1A I 0.46238(3) 1.123690(9) 1.69249(5)
I2A I -0.15217(3) 1.197882(8) 1.01890(5)
F1A F 0.1895(2) 1.20030(8) 1.3636(5)
F2A F 0.2744(2) 1.00441(8) 1.5993(5)
F3A F -0.2095(2) 1.06264(8) 1.0905(5)
C1A C 0.13913(18) 1.14589(5) 1.3557(4)
C2A C 0.2363(2) 1.10262(6) 1.4857(4)
C3A C 0.1823(2) 1.04550(6) 1.4809(5)
C4A C 0.0311(2) 1.03164(6) 1.3460(6)
C5A C -0.0660(2) 1.07490(7) 1.2160(6)
C6A C -0.01204(19) 1.13203(6) 1.2208(5)
loop_
_geom_bond_atom_site_label_1
_geom_bond_atom_site_label_2
_geom_bond_site_symmetry_1
_geom_bond_site_symmetry_2
I1 C2 1_555 1_555
I2 C6 1_555 1_555
F1 C1 1_555 1_555
F2 C3 1_555 1_555
F3 C5 1_555 1_555
C1 C2 1_555 1_555
C2 C3 1_555 1_555
C3 C4 1_555 1_555
C4 C5 1_555 1_555
C5 C6 1_555 1_555
C6 C1 1_555 1_555
I1A C2A 1_555 1_555
I2A C6A 1_555 1_555
F1A C1A 1_555 1_555
F2A C3A 1_555 1_555
F3A C5A 1_555 1_555
C1A C2A 1_555 1_555
C2A C3A 1_555 1_555
C3A C4A 1_555 1_555
C4A C4 1_555 1_555
C5A C4A 1_555 1_555
C6A C1A 1_555 1_555
C5A C6A 1_555 1_555

#END
