
#######################################################################
#
#                 Cambridge Crystallographic Data Centre
#                                CCDC 
#
#######################################################################
#
# If this CIF has been generated from an entry in the Cambridge 
# Structural Database, then it will include bibliographic, chemical, 
# crystal, experimental, refinement or atomic coordinate data resulting 
# from the CCDC's data processing and validation procedures.
#
#######################################################################

data_YOZZAQ01
_chemical_formula_moiety         'C6 H4 Cl1 N1 O2'
_chemical_name_systematic        '3-chloroisonicotinic acid'
_symmetry_cell_setting           triclinic
_symmetry_space_group_name_H-M   'P -1'
_symmetry_Int_Tables_number      2
_space_group_name_Hall           '-P 1'
loop_
_symmetry_equiv_pos_site_id
_symmetry_equiv_pos_as_xyz
1 x,y,z
2 -x,-y,-z
_cell_length_a                   7.1603(2)
_cell_length_b                   7.2376(2)
_cell_length_c                   7.4950(3)
_cell_angle_alpha                63.2313(14)
_cell_angle_beta                 69.7053(14)
_cell_angle_gamma                64.9840(15)
_cell_volume                     308.331
_exptl_crystal_colour            colorless
_exptl_crystal_description       needle
_cell_formula_units_Z            2
loop_
_atom_site_label
_atom_site_type_symbol
_atom_site_fract_x
_atom_site_fract_y
_atom_site_fract_z
Cl1 Cl 0.32204(6) 0.08476(6) 0.76652(5)
O1 O 0.22648(17) 0.31940(17) 1.04009(16)
O2 O 0.26293(18) 0.65172(18) 0.90414(16)
H1 H 0.2591 0.6293 1.0253
N1 N 0.23714(19) 0.6112(2) 0.27746(18)
C1 C 0.2696(2) 0.4087(2) 0.4130(2)
H2 H 0.2915 0.2948 0.3700
C2 C 0.2431(2) 0.4836(2) 0.8960(2)
C3 C 0.2063(2) 0.7733(2) 0.3370(2)
H3 H 0.1826 0.9183 0.2410
C4 C 0.2727(2) 0.3563(2) 0.6155(2)
C5 C 0.2083(2) 0.7335(2) 0.5355(2)
H4 H 0.1870 0.8509 0.5733
C6 C 0.2413(2) 0.5222(2) 0.6804(2)
loop_
_geom_bond_atom_site_label_1
_geom_bond_atom_site_label_2
_geom_bond_site_symmetry_1
_geom_bond_site_symmetry_2
Cl1 C4 1_555 1_555
O1 C2 1_555 1_555
O2 H1 1_555 1_555
N1 C1 1_555 1_555
C1 H2 1_555 1_555
C2 O2 1_555 1_555
C3 N1 1_555 1_555
H3 C3 1_555 1_555
C4 C1 1_555 1_555
C5 C3 1_555 1_555
H4 C5 1_555 1_555
C6 C2 1_555 1_555
C4 C6 1_555 1_555
C5 C6 1_555 1_555

#END
