
#######################################################################
#
#                 Cambridge Crystallographic Data Centre
#                                CCDC 
#
#######################################################################
#
# If this CIF has been generated from an entry in the Cambridge 
# Structural Database, then it will include bibliographic, chemical, 
# crystal, experimental, refinement or atomic coordinate data resulting 
# from the CCDC's data processing and validation procedures.
#
#######################################################################

data_YUBCAZ
_chemical_formula_moiety         'C18 H22 N4 O4 2+,2(Cl1 1-),3(H2 O1)'
_chemical_name_systematic        
"2,11-Diaza(3.3)pyridinophane-N,N'-diacetic acid dihydrochloride trihydrate"
_symmetry_cell_setting           triclinic
_symmetry_space_group_name_H-M   'P -1'
_symmetry_Int_Tables_number      2
_space_group_name_Hall           '-P 1'
loop_
_symmetry_equiv_pos_site_id
_symmetry_equiv_pos_as_xyz
1 x,y,z
2 -x,-y,-z
_cell_length_a                   10.201(1)
_cell_length_b                   13.267(3)
_cell_length_c                   8.612(6)
_cell_angle_alpha                97.676(2)
_cell_angle_beta                 105.821(1)
_cell_angle_gamma                86.363(7)
_cell_volume                     1110.87
_exptl_crystal_colour            white
_cell_formula_units_Z            2
loop_
_atom_site_label
_atom_site_type_symbol
_atom_site_fract_x
_atom_site_fract_y
_atom_site_fract_z
Cl1 Cl 0.70427(8) 0.11518(7) 0.4225(1)
Cl2 Cl 1.07492(8) 0.37760(6) 0.68742(9)
O1 O 0.6312(2) 0.3991(2) 0.9450(3)
O2 O 0.5747(2) 0.4081(2) 0.6818(3)
O3 O 1.5489(2) 0.1217(2) 0.8079(3)
O4 O 1.4517(2) 0.1425(2) 0.5481(3)
N1 N 1.1663(2) 0.3356(2) 1.0502(3)
N2 N 0.8831(2) 0.2966(2) 0.9311(3)
N3 N 1.2946(2) 0.1810(2) 0.8837(3)
N4 N 1.0708(2) 0.1312(2) 0.9904(3)
C1 C 1.2681(3) 0.3674(3) 1.3747(4)
C2 C 1.1325(3) 0.3878(2) 1.3061(3)
C3 C 1.0802(3) 0.3696(2) 1.1415(3)
C4 C 0.9319(3) 0.3820(2) 1.0541(4)
C5 C 0.8479(3) 0.2082(2) 0.9942(4)
C6 C 0.9749(3) 0.1490(2) 1.0728(3)
C7 C 1.0000(3) 0.1158(2) 1.2226(4)
C8 C 1.1237(3) 0.0689(2) 1.2868(4)
C9 C 1.2226(3) 0.0576(2) 1.2035(4)
C10 C 1.1949(3) 0.0902(2) 1.0527(4)
C11 C 1.2967(3) 0.0861(2) 0.9533(4)
C12 C 1.3734(3) 0.2621(3) 0.9926(4)
C13 C 1.2981(3) 0.3109(2) 1.1129(4)
C14 C 1.3516(3) 0.3272(3) 1.2782(4)
C15 C 0.7820(3) 0.3258(2) 0.7883(3)
C16 C 0.6549(3) 0.3811(2) 0.8163(4)
C17 C 1.3107(3) 0.1687(3) 0.7202(4)
C18 C 1.4526(3) 0.1412(2) 0.7017(4)
H1 H 1.305 0.381 1.489
H2 H 1.075 0.415 1.373
H3 H 0.880 0.388 1.131
H4 H 0.920 0.442 1.003
H5 H 0.793 0.165 0.907
H6 H 0.799 0.230 1.073
H7 H 0.933 0.125 1.281
H8 H 1.141 0.044 1.389
H9 H 1.309 0.027 1.250
H10 H 1.385 0.074 1.021
H11 H 1.275 0.032 0.867
H12 H 1.388 0.312 0.930
H13 H 1.459 0.235 1.050
H14 H 1.445 0.311 1.326
H15 H 0.755 0.266 0.716
H16 H 0.825 0.369 0.739
H17 H 1.283 0.231 0.677
H18 H 1.252 0.117 0.658
H19 H 1.129(4) 0.322(3) 0.940(5)
H20 H 1.054(4) 0.149(3) 0.894(5)
H21 H 0.515(4) 0.440(3) 0.701(5)
H22 H 1.527(4) 0.134(3) 0.534(5)
O5 O 0.9998(2) 0.1465(2) 0.6584(2)
H23 H 0.923(4) 0.136(3) 0.602(5)
H24 H 1.022(4) 0.207(3) 0.650(5)
O6 O 0.8067(3) 0.3343(2) 0.3879(3)
H25 H 0.760(4) 0.271(3) 0.398(5)
H26 H 0.877(4) 0.354(3) 0.471(5)
O7 O 0.6126(3) 0.4719(2) 0.2553(3)
H27 H 0.619(4) 0.477(3) 0.166(5)
H28 H 0.667(4) 0.444(3) 0.307(5)
loop_
_geom_bond_atom_site_label_1
_geom_bond_atom_site_label_2
_geom_bond_site_symmetry_1
_geom_bond_site_symmetry_2
O1 C16 1_555 1_555
O2 C16 1_555 1_555
O3 C18 1_555 1_555
O4 C18 1_555 1_555
N1 C3 1_555 1_555
N2 C4 1_555 1_555
N3 C11 1_555 1_555
N4 C6 1_555 1_555
C1 C2 1_555 1_555
C2 C3 1_555 1_555
C3 C4 1_555 1_555
C4 H3 1_555 1_555
C5 N2 1_555 1_555
C6 C5 1_555 1_555
C7 C6 1_555 1_555
C8 C7 1_555 1_555
C9 C8 1_555 1_555
C10 N4 1_555 1_555
C11 C10 1_555 1_555
C12 N3 1_555 1_555
C13 N1 1_555 1_555
C14 C1 1_555 1_555
C15 N2 1_555 1_555
C16 C15 1_555 1_555
C17 N3 1_555 1_555
C18 C17 1_555 1_555
H1 C1 1_555 1_555
H2 C2 1_555 1_555
H4 C4 1_555 1_555
H5 C5 1_555 1_555
H6 C5 1_555 1_555
H7 C7 1_555 1_555
H8 C8 1_555 1_555
H9 C9 1_555 1_555
H10 C11 1_555 1_555
H11 C11 1_555 1_555
H12 C12 1_555 1_555
H13 C12 1_555 1_555
H14 C14 1_555 1_555
H15 C15 1_555 1_555
H16 C15 1_555 1_555
H17 C17 1_555 1_555
H18 C17 1_555 1_555
H19 N1 1_555 1_555
H20 N4 1_555 1_555
H21 O2 1_555 1_555
H22 O4 1_555 1_555
O5 H23 1_555 1_555
H24 O5 1_555 1_555
O6 H25 1_555 1_555
H26 O6 1_555 1_555
O7 H27 1_555 1_555
H28 O7 1_555 1_555
C9 C10 1_555 1_555
C12 C13 1_555 1_555
C13 C14 1_555 1_555

#END
