
#######################################################################
#
#                 Cambridge Crystallographic Data Centre
#                                CCDC 
#
#######################################################################
#
# If this CIF has been generated from an entry in the Cambridge 
# Structural Database, then it will include bibliographic, chemical, 
# crystal, experimental, refinement or atomic coordinate data resulting 
# from the CCDC's data processing and validation procedures.
#
#######################################################################

data_YUBHUA
_chemical_formula_moiety         'C40 H38 N4 O8,C1 H1 Cl3'
_chemical_name_systematic        
'Diethyl 1,4-dimethoxy-6,13-dioxo-8,11-diphenyl-5,7,12,14-tetrahydro-5a,6a,12a,13a-tetraazabenzo[5,6]azuleno[2,1,8-ija]benzo[f]azulene-13b,13c-dicarboxylate chloroform solvate'
_symmetry_cell_setting           triclinic
_symmetry_space_group_name_H-M   'P -1'
_symmetry_Int_Tables_number      2
_space_group_name_Hall           '-P 1'
loop_
_symmetry_equiv_pos_site_id
_symmetry_equiv_pos_as_xyz
1 x,y,z
2 -x,-y,-z
_cell_length_a                   10.0139(7)
_cell_length_b                   11.6798(9)
_cell_length_c                   17.7036(13)
_cell_angle_alpha                82.3600(10)
_cell_angle_beta                 87.0380(10)
_cell_angle_gamma                69.4400(10)
_cell_volume                     1921.49
_cell_formula_units_Z            2
loop_
_atom_site_label
_atom_site_type_symbol
_atom_site_fract_x
_atom_site_fract_y
_atom_site_fract_z
C1 C 0.7136(3) 0.8896(2) 0.58406(13)
H1 H 0.7752 0.9352 0.5939
H2 H 0.7483 0.8071 0.6128
H3 H 0.6158 0.9337 0.6001
C2 C 0.6670(2) 0.9878(2) 0.45598(12)
C3 C 0.6203(2) 1.1036(2) 0.47936(14)
H4 H 0.6164 1.1118 0.5322
C4 C 0.5788(2) 1.2081(2) 0.42615(13)
H5 H 0.5426 1.2875 0.4428
C5 C 0.5899(2) 1.1971(2) 0.34903(13)
C6 C 0.6358(2) 1.0796(2) 0.32445(12)
C7 C 0.6700(2) 0.97469(19) 0.37837(12)
C8 C 0.5211(3) 1.4153(2) 0.31603(16)
H6 H 0.4297 1.4351 0.3434
H7 H 0.5123 1.4761 0.2710
H8 H 0.5949 1.4172 0.3496
C9 C 0.6549(2) 1.0707(2) 0.23973(12)
H9 H 0.6312 1.1551 0.2126
H10 H 0.7568 1.0254 0.2296
C10 C 0.7151(2) 0.8464(2) 0.35456(12)
H11 H 0.8092 0.8274 0.3289
H12 H 0.7257 0.7858 0.4007
C11 C 0.4222(2) 1.06713(19) 0.20189(12)
C12 C 0.5243(2) 0.76778(18) 0.32360(12)
C13 C 0.6070(2) 0.87807(19) 0.22358(12)
C14 C 0.7458(2) 0.8076(2) 0.18307(13)
C15 C 0.8699(7) 0.8003(8) 0.0616(4)
H13 H 0.8401 0.8249 0.0077
H14 H 0.8991 0.7095 0.0724
C16 C 0.9911(5) 0.8397(5) 0.0752(4)
H15 H 0.9599 0.9299 0.0675
H16 H 1.0688 0.8057 0.0396
H17 H 1.0248 0.8097 0.1276
C17 C 0.4706(2) 0.85637(18) 0.19835(12)
C18 C 0.4914(2) 0.8034(2) 0.12157(12)
C19 C 0.4577(3) 0.8522(2) -0.01214(13)
H18 H 0.5521 0.7863 -0.0143
H19 H 0.4575 0.9229 -0.0499
C20 C 0.3442(4) 0.8060(3) -0.03124(16)
H20 H 0.3471 0.7341 0.0050
H21 H 0.3599 0.7826 -0.0830
H22 H 0.2508 0.8710 -0.0283
C21 C 0.3141(2) 0.74755(19) 0.26518(13)
H23 H 0.3284 0.6678 0.2970
H24 H 0.2861 0.7402 0.2137
C22 C 0.2124(2) 1.0037(2) 0.18945(13)
H25 H 0.1978 0.9571 0.1497
H26 H 0.1649 1.0925 0.1722
C23 C 0.1911(2) 0.84707(19) 0.29914(12)
C24 C 0.1415(2) 0.97013(19) 0.26307(12)
C25 C 0.0294(2) 1.06036(19) 0.29581(13)
C26 C -0.0248(2) 1.0281(2) 0.36658(14)
H27 H -0.0957 1.0898 0.3911
C27 C 0.0229(2) 0.9079(2) 0.40143(14)
H28 H -0.0156 0.8882 0.4495
C28 C 0.1265(2) 0.8155(2) 0.36716(13)
C29 C -0.0380(2) 1.1898(2) 0.25821(14)
C30 C -0.0582(3) 1.2889(2) 0.29904(17)
H29 H -0.0250 1.2741 0.3500
C31 C -0.1266(3) 1.4092(2) 0.2659(2)
H30 H -0.1389 1.4760 0.2941
C32 C -0.1768(3) 1.4318(2) 0.1923(2)
H31 H -0.2232 1.5141 0.1698
C33 C -0.1595(3) 1.3350(2) 0.15151(18)
H32 H -0.1952 1.3506 0.1011
C34 C -0.0896(2) 1.2142(2) 0.18402(15)
H33 H -0.0770 1.1480 0.1553
C35 C 0.1580(2) 0.6847(2) 0.40223(13)
C36 C 0.2344(3) 0.6379(3) 0.46859(17)
H34 H 0.2707 0.6889 0.4926
C37 C 0.2591(4) 0.5177(3) 0.50091(17)
H35 H 0.3130 0.4868 0.5465
C38 C 0.2069(3) 0.4435(2) 0.46805(15)
H36 H 0.2247 0.3608 0.4902
C39 C 0.1285(3) 0.4891(2) 0.40272(16)
H37 H 0.0907 0.4379 0.3799
C40 C 0.1036(3) 0.6088(2) 0.36949(14)
H38 H 0.0491 0.6392 0.3241
N1 N 0.61312(19) 0.83311(16) 0.30325(10)
N2 N 0.56942(18) 1.01012(15) 0.20745(10)
N3 N 0.45047(18) 0.76884(15) 0.25900(10)
N4 N 0.36446(18) 0.97830(15) 0.19660(10)
O1 O 0.71550(17) 0.87927(14) 0.50473(8)
O2 O 0.55941(18) 1.29566(14) 0.29297(10)
O3 O 0.51087(17) 0.71693(14) 0.38640(8)
O4 O 0.35702(17) 1.17660(13) 0.20061(9)
O5 O 0.83443(18) 0.71687(15) 0.21273(10)
O6 O 0.75075(18) 0.85870(15) 0.11178(9)
O7 O 0.55727(18) 0.69762(14) 0.11580(9)
O8 O 0.43355(18) 0.89082(14) 0.06438(8)
C43 C 0.2779(3) 0.4402(2) 0.12279(16)
H44 H 0.309(3) 0.358(3) 0.1401(15)
Cl1 Cl 0.16173(11) 0.52287(10) 0.18758(6)
Cl2 Cl 0.41864(10) 0.49557(9) 0.10456(6)
Cl3 Cl 0.18965(15) 0.45085(11) 0.03798(6)
C41? C 0.8792(10) 0.7796(10) 0.0760(5)
H39? H 0.8768 0.6954 0.0771
H40? H 0.9658 0.7745 0.1028
C42? C 0.8784(10) 0.8391(8) -0.0049(4)
H41? H 0.7886 0.8494 -0.0293
H42? H 0.9585 0.7868 -0.0331
H43? H 0.8877 0.9199 -0.0051
loop_
_geom_bond_atom_site_label_1
_geom_bond_atom_site_label_2
_geom_bond_site_symmetry_1
_geom_bond_site_symmetry_2
C1 H1 1_555 1_555
H2 C1 1_555 1_555
H3 C1 1_555 1_555
C2 C3 1_555 1_555
C3 H4 1_555 1_555
C4 C3 1_555 1_555
H5 C4 1_555 1_555
C5 C4 1_555 1_555
C6 C5 1_555 1_555
C7 C2 1_555 1_555
C8 H6 1_555 1_555
H7 C8 1_555 1_555
H8 C8 1_555 1_555
C9 C6 1_555 1_555
H9 C9 1_555 1_555
H10 C9 1_555 1_555
C10 C7 1_555 1_555
H11 C10 1_555 1_555
H12 C10 1_555 1_555
C11 N2 1_555 1_555
C12 N1 1_555 1_555
C13 C14 1_555 1_555
C14 O5 1_555 1_555
C15 H13 1_555 1_555
H14 C15 1_555 1_555
C16 C15 1_555 1_555
H15 C16 1_555 1_555
H16 C16 1_555 1_555
H17 C16 1_555 1_555
C17 C13 1_555 1_555
C18 C17 1_555 1_555
C19 H18 1_555 1_555
H19 C19 1_555 1_555
C20 C19 1_555 1_555
H20 C20 1_555 1_555
H21 C20 1_555 1_555
H22 C20 1_555 1_555
C21 H23 1_555 1_555
H24 C21 1_555 1_555
C22 H25 1_555 1_555
H26 C22 1_555 1_555
C23 C21 1_555 1_555
C24 C22 1_555 1_555
C25 C24 1_555 1_555
C26 C25 1_555 1_555
H27 C26 1_555 1_555
C27 C26 1_555 1_555
H28 C27 1_555 1_555
C28 C23 1_555 1_555
C29 C25 1_555 1_555
C30 C29 1_555 1_555
H29 C30 1_555 1_555
C31 C30 1_555 1_555
H30 C31 1_555 1_555
C32 C31 1_555 1_555
H31 C32 1_555 1_555
C33 C32 1_555 1_555
H32 C33 1_555 1_555
C34 C29 1_555 1_555
H33 C34 1_555 1_555
C35 C28 1_555 1_555
C36 C35 1_555 1_555
H34 C36 1_555 1_555
C37 C36 1_555 1_555
H35 C37 1_555 1_555
C38 C37 1_555 1_555
H36 C38 1_555 1_555
C39 C38 1_555 1_555
H37 C39 1_555 1_555
C40 C35 1_555 1_555
H38 C40 1_555 1_555
N1 C10 1_555 1_555
N2 C9 1_555 1_555
N3 C12 1_555 1_555
N4 C11 1_555 1_555
O1 C1 1_555 1_555
O2 C5 1_555 1_555
O3 C12 1_555 1_555
O4 C11 1_555 1_555
O6 C14 1_555 1_555
O7 C18 1_555 1_555
O8 C18 1_555 1_555
C43 H44 1_555 1_555
Cl1 C43 1_555 1_555
Cl2 C43 1_555 1_555
Cl3 C43 1_555 1_555
C2 O1 1_555 1_555
C6 C7 1_555 1_555
C8 O2 1_555 1_555
C13 N1 1_555 1_555
C13 N2 1_555 1_555
C15 O6 1_555 1_555
C17 N3 1_555 1_555
C17 N4 1_555 1_555
C19 O8 1_555 1_555
C21 N3 1_555 1_555
C22 N4 1_555 1_555
C23 C24 1_555 1_555
C27 C28 1_555 1_555
C33 C34 1_555 1_555
C39 C40 1_555 1_555

#END
