
#######################################################################
#
#                 Cambridge Crystallographic Data Centre
#                                CCDC 
#
#######################################################################
#
# If this CIF has been generated from an entry in the Cambridge 
# Structural Database, then it will include bibliographic, chemical, 
# crystal, experimental, refinement or atomic coordinate data resulting 
# from the CCDC's data processing and validation procedures.
#
#######################################################################

data_YUBJUC
_chemical_formula_moiety         'C40 H38 N4 O8,0.5(C4 H8 O2)'
_chemical_name_systematic        
'Diethyl 1,4-dimethoxy-6,13-dioxo-8,11-diphenyl-5,7,12,14-tetrahydro-5a,6a,12a,13a-tetraazabenzo[5,6]azuleno[2,1,8-ija]benzo[f]azulene-13b,13c-dicarboxylate ethyl acetate solvate'
_symmetry_cell_setting           monoclinic
_symmetry_space_group_name_H-M   'P 21/c'
_symmetry_Int_Tables_number      14
_space_group_name_Hall           '-P 2ybc'
loop_
_symmetry_equiv_pos_site_id
_symmetry_equiv_pos_as_xyz
1 x,y,z
2 -x,1/2+y,1/2-z
3 -x,-y,-z
4 x,1/2-y,1/2+z
_cell_length_a                   13.3706(17)
_cell_length_b                   24.587(3)
_cell_length_c                   13.4860(17)
_cell_angle_alpha                90
_cell_angle_beta                 117.750(2)
_cell_angle_gamma                90
_cell_volume                     3923.53
_exptl_crystal_colour            colorless
_exptl_crystal_description       block
_cell_formula_units_Z            4
loop_
_atom_site_label
_atom_site_type_symbol
_atom_site_fract_x
_atom_site_fract_y
_atom_site_fract_z
C1 C 0.7688(3) 0.53005(17) 0.4897(3)
H1 H 0.8185 0.5395 0.5662
H2 H 0.8076 0.5347 0.4456
H3 H 0.7457 0.4928 0.4859
C2 C 0.4301(3) 0.55342(17) 0.7571(3)
H4 H 0.4253 0.5160 0.7348
H5 H 0.3724 0.5610 0.7786
H6 H 0.5030 0.5602 0.8195
C3 C 0.6098(2) 0.56581(12) 0.5045(2)
C4 C 0.6284(3) 0.53286(12) 0.5935(2)
H7 H 0.6846 0.5065 0.6169
C5 C 0.5639(3) 0.53864(12) 0.6487(2)
H8 H 0.5767 0.5161 0.7087
C6 C 0.4803(2) 0.57806(12) 0.6145(2)
C7 C 0.4588(2) 0.61116(11) 0.5231(2)
C8 C 0.5228(2) 0.60475(11) 0.4660(2)
C9 C 0.5011(2) 0.63860(12) 0.3641(2)
H9 H 0.5199 0.6762 0.3871
H10 H 0.5509 0.6262 0.3346
C10 C 0.3701(2) 0.65538(11) 0.4902(2)
H11 H 0.3372 0.6538 0.5408
H12 H 0.4074 0.6903 0.5010
C11 C 0.3462(2) 0.60111(10) 0.1864(2)
C12 C 0.1910(2) 0.61720(11) 0.3458(2)
C13 C 0.2964(2) 0.66677(10) 0.2804(2)
C14 C 0.1874(2) 0.64426(10) 0.1780(2)
C15 C 0.1660(2) 0.57304(12) 0.0293(2)
H13 H 0.1856 0.5356 0.0535
H14 H 0.1869 0.5799 -0.0295
C16 C 0.0626(2) 0.56778(11) 0.1751(2)
H15 H 0.0158 0.5581 0.2099
H16 H 0.1122 0.5374 0.1839
C17 C 0.0389(2) 0.57976(10) -0.0191(2)
C18 C -0.0115(2) 0.57874(11) 0.0524(2)
C19 C -0.1286(2) 0.58660(11) 0.0089(2)
C20 C -0.1923(3) 0.59440(13) -0.1053(3)
H17 H -0.2700 0.5993 -0.1352
C21 C -0.1442(3) 0.59511(13) -0.1758(2)
H18 H -0.1898 0.6006 -0.2521
C22 C -0.0282(2) 0.58783(11) -0.1351(2)
C23 C 0.0151(3) 0.58809(12) -0.2189(2)
C24 C -0.0181(4) 0.62876(16) -0.2995(3)
H19 H -0.0634 0.6571 -0.2978
C25 C 0.0153(5) 0.6274(2) -0.3814(4)
H20 H -0.0072 0.6552 -0.4342
C26 C 0.0808(4) 0.5862(2) -0.3871(4)
H21 H 0.1030 0.5857 -0.4429
C27 C 0.1131(3) 0.54547(18) -0.3085(3)
H22 H 0.1574 0.5170 -0.3116
C28 C 0.0812(3) 0.54623(13) -0.2258(3)
H23 H 0.1041 0.5183 -0.1733
C29 C -0.1885(2) 0.58735(12) 0.0786(3)
C30 C -0.1516(3) 0.61860(16) 0.1740(3)
H24 H -0.0861 0.6392 0.1982
C31 C -0.2120(4) 0.6194(2) 0.2341(4)
H25 H -0.1862 0.6399 0.2993
C32 C -0.3101(4) 0.5897(2) 0.1976(4)
H26 H -0.3513 0.5911 0.2372
C33 C -0.3475(3) 0.55815(18) 0.1032(4)
H27 H -0.4133 0.5378 0.0793
C34 C -0.2870(3) 0.55677(14) 0.0442(3)
H28 H -0.3121 0.5352 -0.0195
C35 C 0.3172(3) 0.72794(12) 0.2730(3)
C36 C 0.1124(2) 0.69031(12) 0.1034(2)
O1 O 0.0404(11) 0.7082(5) 0.1254(14)
O2 O 0.1488(9) 0.7059(4) 0.0300(8)
C37 C 0.1135(12) 0.7577(5) -0.0293(11)
H29 H 0.1134 0.7852 0.0222
H30 H 0.1683 0.7686 -0.0537
C38 C 0.0054(15) 0.7557(6) -0.1232(10)
H31 H 0.0102 0.7375 -0.1838
H32 H -0.0221 0.7921 -0.1457
H33 H -0.0455 0.7363 -0.1041
N1 N 0.38485(18) 0.63609(9) 0.27506(18)
N2 N 0.23191(18) 0.60891(8) 0.12362(18)
N3 N 0.27898(18) 0.65284(9) 0.37551(18)
N4 N 0.13040(19) 0.61578(10) 0.23104(19)
O3 O 0.67237(18) 0.56415(10) 0.44745(19)
O4 O 0.4149(2) 0.58728(9) 0.66687(18)
O5 O 0.40283(17) 0.56880(8) 0.16533(17)
O6 O 0.16813(19) 0.59194(9) 0.40990(17)
C39 C 0.290(2) 0.8154(4) 0.3246(16)
H34 H 0.2156 0.8319 0.2835
H35 H 0.3327 0.8237 0.2852
C40 C 0.347(2) 0.8385(7) 0.4368(19)
H36 H 0.3068 0.8284 0.4776
H37 H 0.3480 0.8774 0.4318
H38 H 0.4226 0.8250 0.4750
O7 O 0.369(2) 0.7460(6) 0.227(2)
O8 O 0.277(2) 0.7569(4) 0.3277(14)
C45 C 0.7618(14) 0.7581(7) 0.0417(15)
H49 H 0.7512 0.7259 -0.0022
H50 H 0.8379 0.7592 0.1013
H51 H 0.7478 0.7896 -0.0050
C46 C 0.6806(17) 0.7562(7) 0.0923(16)
C47 C 0.6210(14) 0.7690(9) 0.2363(13)
H52 H 0.5640 0.7411 0.2004
H53 H 0.5839 0.8042 0.2192
C48 C 0.6836(11) 0.7597(5) 0.3643(12)
H54 H 0.6956 0.7214 0.3798
H55 H 0.6382 0.7738 0.3964
H56 H 0.7551 0.7781 0.3962
O13 O 0.5808(18) 0.7472(11) 0.0135(19)
O14 O 0.7060(17) 0.7682(11) 0.1973(16)
O9? O 0.0634(14) 0.7235(5) 0.1304(13)
O10? O 0.1047(10) 0.6928(3) 0.0048(6)
C41? C 0.0306(13) 0.7353(4) -0.0649(10)
H39? H -0.0181 0.7201 -0.1382
H40? H -0.0173 0.7469 -0.0326
C42? C 0.0844(18) 0.7807(7) -0.0788(18)
H41? H 0.1475 0.7902 -0.0083
H42? H 0.0323 0.8106 -0.1050
H43? H 0.1106 0.7729 -0.1325
C43? C 0.388(4) 0.8345(13) 0.467(2)
H44? H 0.3425 0.8205 0.4992
H45? H 0.3886 0.8735 0.4703
H46? H 0.4642 0.8212 0.5095
C44? C 0.341(2) 0.8163(5) 0.3481(15)
H47? H 0.2726 0.8362 0.3009
H48? H 0.3955 0.8222 0.3205
O11? O 0.3290(18) 0.7430(8) 0.1921(10)
O12? O 0.3172(17) 0.7591(5) 0.3483(11)
loop_
_geom_bond_atom_site_label_1
_geom_bond_atom_site_label_2
_geom_bond_site_symmetry_1
_geom_bond_site_symmetry_2
C1 H1 1_555 1_555
H2 C1 1_555 1_555
H3 C1 1_555 1_555
C2 H4 1_555 1_555
H5 C2 1_555 1_555
H6 C2 1_555 1_555
C3 C4 1_555 1_555
C4 H7 1_555 1_555
C5 C4 1_555 1_555
H8 C5 1_555 1_555
C6 C5 1_555 1_555
C7 C6 1_555 1_555
C8 C3 1_555 1_555
C9 C8 1_555 1_555
H9 C9 1_555 1_555
H10 C9 1_555 1_555
C10 C7 1_555 1_555
H11 C10 1_555 1_555
H12 C10 1_555 1_555
C11 N1 1_555 1_555
C12 N3 1_555 1_555
C13 C14 1_555 1_555
C14 C36 1_555 1_555
C15 H13 1_555 1_555
H14 C15 1_555 1_555
C16 H15 1_555 1_555
H16 C16 1_555 1_555
C17 C15 1_555 1_555
C18 C16 1_555 1_555
C19 C18 1_555 1_555
C20 C19 1_555 1_555
H17 C20 1_555 1_555
C21 C20 1_555 1_555
H18 C21 1_555 1_555
C22 C17 1_555 1_555
C23 C22 1_555 1_555
C24 C23 1_555 1_555
H19 C24 1_555 1_555
C25 C24 1_555 1_555
H20 C25 1_555 1_555
C26 C25 1_555 1_555
H21 C26 1_555 1_555
C27 C26 1_555 1_555
H22 C27 1_555 1_555
C28 C23 1_555 1_555
H23 C28 1_555 1_555
C29 C19 1_555 1_555
C30 C29 1_555 1_555
H24 C30 1_555 1_555
C31 C30 1_555 1_555
H25 C31 1_555 1_555
C32 C31 1_555 1_555
H26 C32 1_555 1_555
C33 C32 1_555 1_555
H27 C33 1_555 1_555
C34 C29 1_555 1_555
H28 C34 1_555 1_555
C35 C13 1_555 1_555
C36 O1 1_555 1_555
O2 C36 1_555 1_555
C37 O2 1_555 1_555
H29 C37 1_555 1_555
H30 C37 1_555 1_555
C38 C37 1_555 1_555
H31 C38 1_555 1_555
H32 C38 1_555 1_555
H33 C38 1_555 1_555
N1 C9 1_555 1_555
N2 C11 1_555 1_555
N3 C10 1_555 1_555
N4 C12 1_555 1_555
O3 C1 1_555 1_555
O4 C2 1_555 1_555
O5 C11 1_555 1_555
O6 C12 1_555 1_555
C39 H34 1_555 1_555
H35 C39 1_555 1_555
C40 C39 1_555 1_555
H36 C40 1_555 1_555
H37 C40 1_555 1_555
H38 C40 1_555 1_555
O7 C35 1_555 1_555
O8 C35 1_555 1_555
C45 H49 1_555 1_555
H50 C45 1_555 1_555
H51 C45 1_555 1_555
C46 C45 1_555 1_555
C47 H52 1_555 1_555
H53 C47 1_555 1_555
C48 C47 1_555 1_555
H54 C48 1_555 1_555
H55 C48 1_555 1_555
H56 C48 1_555 1_555
O13 C46 1_555 1_555
O14 C46 1_555 1_555
C3 O3 1_555 1_555
C6 O4 1_555 1_555
C7 C8 1_555 1_555
C13 N1 1_555 1_555
C13 N3 1_555 1_555
C14 N2 1_555 1_555
C14 N4 1_555 1_555
C15 N2 1_555 1_555
C16 N4 1_555 1_555
C17 C18 1_555 1_555
C21 C22 1_555 1_555
C27 C28 1_555 1_555
C33 C34 1_555 1_555
C39 O8 1_555 1_555
C47 O14 1_555 1_555

#END
