
#######################################################################
#
#                 Cambridge Crystallographic Data Centre
#                                CCDC 
#
#######################################################################
#
# If this CIF has been generated from an entry in the Cambridge 
# Structural Database, then it will include bibliographic, chemical, 
# crystal, experimental, refinement or atomic coordinate data resulting 
# from the CCDC's data processing and validation procedures.
#
#######################################################################

data_YUBJAI
_chemical_formula_moiety         'C40 H38 N4 O8,C1 H2 Cl2'
_chemical_name_systematic        
'Diethyl 1,4-dimethoxy-6,13-dioxo-8,11-diphenyl-5,7,12,14-tetrahydro-5a,6a,12a,13a-tetraazabenzo[5,6]azuleno[2,1,8-ija]benzo[f]azulene-13b,13c-dicarboxylate dichloromethane solvate'
_symmetry_cell_setting           triclinic
_symmetry_space_group_name_H-M   'P -1'
_symmetry_Int_Tables_number      2
_space_group_name_Hall           '-P 1'
loop_
_symmetry_equiv_pos_site_id
_symmetry_equiv_pos_as_xyz
1 x,y,z
2 -x,-y,-z
_cell_length_a                   11.2616(7)
_cell_length_b                   12.4270(8)
_cell_length_c                   15.9572(10)
_cell_angle_alpha                68.1700(10)
_cell_angle_beta                 74.5220(10)
_cell_angle_gamma                65.9000(10)
_cell_volume                     1874.82
_exptl_crystal_colour            colorless
_exptl_crystal_description       block
_cell_formula_units_Z            2
loop_
_atom_site_label
_atom_site_type_symbol
_atom_site_fract_x
_atom_site_fract_y
_atom_site_fract_z
C1 C -0.2963(3) 0.9487(3) 0.1815(2)
H1 H -0.3437 1.0310 0.1786
C2 C -0.3620(3) 0.8679(3) 0.1923(2)
H2 H -0.4530 0.8964 0.1960
C3 C -0.2886(3) 0.7452(3) 0.1974(2)
H3 H -0.3318 0.6918 0.2049
C4 C -0.1521(3) 0.6996(3) 0.19157(19)
C5 C -0.0892(3) 0.7811(3) 0.18043(18)
H4 H 0.0018 0.7526 0.1764
C6 C -0.1603(3) 0.9043(3) 0.17524(19)
H5 H -0.1166 0.9573 0.1675
C7 C -0.0794(3) 0.5690(3) 0.18996(19)
C8 C -0.1120(3) 0.5329(3) 0.1279(2)
H6 H -0.1745 0.5908 0.0902
C9 C -0.0549(3) 0.4156(3) 0.1210(2)
H7 H -0.0775 0.3960 0.0779
C10 C 0.0366(3) 0.3250(3) 0.17760(19)
C11 C 0.0729(3) 0.3577(3) 0.24067(18)
C12 C 0.0149(3) 0.4790(2) 0.24694(18)
C13 C 0.0854(3) 0.1983(3) 0.1692(2)
C14 C 0.1370(3) 0.1797(3) 0.0842(2)
H8 H 0.1438 0.2466 0.0338
C15 C 0.1786(4) 0.0633(3) 0.0727(2)
H9 H 0.2084 0.0538 0.0148
C16 C 0.1755(3) -0.0381(3) 0.1479(2)
H10 H 0.2085 -0.1169 0.1414
C17 C 0.1230(4) -0.0210(3) 0.2323(2)
H11 H 0.1183 -0.0886 0.2826
C18 C 0.0771(3) 0.0952(3) 0.2434(2)
H12 H 0.0403 0.1050 0.3008
C19 C 0.1648(3) 0.2551(2) 0.30658(18)
H13 H 0.1135 0.2358 0.3659
H14 H 0.1999 0.1820 0.2865
C20 C 0.0386(3) 0.5102(2) 0.32405(18)
H15 H -0.0096 0.5974 0.3169
H16 H 0.0010 0.4645 0.3813
C21 C 0.3958(3) 0.2481(2) 0.26712(17)
C22 C 0.2431(3) 0.5638(3) 0.28114(18)
C23 C 0.2592(3) 0.3606(2) 0.36772(17)
C24 C 0.2162(3) 0.3134(2) 0.47157(18)
C25 C 0.1852(3) 0.1469(3) 0.59716(19)
H17 H 0.0965 0.1941 0.6179
H18 H 0.2453 0.1493 0.6296
C26 C 0.1972(4) 0.0166(3) 0.6143(2)
H19 H 0.1416 0.0150 0.5788
H20 H 0.1710 -0.0187 0.6779
H21 H 0.2867 -0.0305 0.5974
C27 C 0.3989(3) 0.3732(2) 0.34571(18)
C28 C 0.4602(3) 0.3406(2) 0.43141(18)
C29 C 0.5416(3) 0.1811(3) 0.5622(2)
H22 H 0.4768 0.2264 0.6022
H23 H 0.6223 0.1971 0.5527
C30 C 0.5654(4) 0.0460(3) 0.6038(2)
H24 H 0.4851 0.0311 0.6127
H25 H 0.5962 0.0180 0.6615
H26 H 0.6303 0.0019 0.5640
C31 C 0.4758(3) 0.5524(3) 0.24581(18)
H27 H 0.5416 0.5225 0.2856
H28 H 0.4387 0.6416 0.2321
C32 C 0.6028(3) 0.2905(2) 0.24176(18)
H29 H 0.6475 0.2145 0.2253
H30 H 0.6537 0.2904 0.2822
C33 C 0.6026(3) 0.3986(3) 0.15555(18)
C34 C 0.5427(3) 0.5210(3) 0.15776(18)
C35 C 0.5499(3) 0.6173(3) 0.07743(19)
C36 C 0.6156(3) 0.5913(3) -0.0037(2)
H31 H 0.6190 0.6555 -0.0571
C37 C 0.6760(3) 0.4702(3) -0.00543(19)
H32 H 0.7213 0.4532 -0.0596
C38 C 0.6692(3) 0.3738(3) 0.07374(19)
C39 C 0.8096(3) 0.2236(3) -0.0022(2)
H33 H 0.7581 0.2588 -0.0513
H34 H 0.8478 0.1357 0.0095
H35 H 0.8782 0.2578 -0.0186
C40 C 0.4984(4) 0.8342(3) 0.0041(2)
H36 H 0.5889 0.8251 -0.0183
H37 H 0.4536 0.9114 0.0176
H38 H 0.4583 0.8328 -0.0414
N1 N 0.2745(2) 0.2799(2) 0.31741(15)
N2 N 0.4746(2) 0.2894(2) 0.29203(15)
N3 N 0.3718(2) 0.5014(2) 0.29485(15)
N4 N 0.1744(2) 0.4852(2) 0.33114(15)
O1 O 0.43026(19) 0.19050(17) 0.21286(12)
O2 O 0.19760(19) 0.66995(17) 0.23476(13)
O3 O 0.1890(2) 0.37677(18) 0.52040(13)
O4 O 0.2174(2) 0.19867(17) 0.49866(13)
O5 O 0.4729(2) 0.41590(18) 0.45539(13)
O6 O 0.4940(2) 0.22016(18) 0.47485(13)
O7 O 0.7277(2) 0.25125(19) 0.07767(14)
O8 O 0.4900(2) 0.73480(18) 0.08510(13)
C41 C 0.2402(3) 0.6061(3) 0.5384(2)
H39 H 0.3331 0.5873 0.5159
H40 H 0.2244 0.5285 0.5678
Cl1 Cl 0.19822(15) 0.68564(15) 0.61948(9)
Cl2 Cl 0.15188(14) 0.69021(12) 0.44798(9)
C42? C 0.109(2) 0.791(3) 0.4998(14)
H41? H 0.0270 0.7751 0.5171
H42? H 0.0879 0.8798 0.4819
Cl3? Cl 0.195(2) 0.7216(19) 0.5933(10)
Cl4? Cl 0.1960(16) 0.7386(14) 0.4096(9)
loop_
_geom_bond_atom_site_label_1
_geom_bond_atom_site_label_2
_geom_bond_site_symmetry_1
_geom_bond_site_symmetry_2
C1 H1 1_555 1_555
C2 C1 1_555 1_555
H2 C2 1_555 1_555
C3 C2 1_555 1_555
H3 C3 1_555 1_555
C4 C3 1_555 1_555
C5 C4 1_555 1_555
H4 C5 1_555 1_555
C6 C1 1_555 1_555
H5 C6 1_555 1_555
C7 C4 1_555 1_555
C8 C7 1_555 1_555
H6 C8 1_555 1_555
C9 C8 1_555 1_555
H7 C9 1_555 1_555
C10 C9 1_555 1_555
C11 C10 1_555 1_555
C12 C7 1_555 1_555
C13 C10 1_555 1_555
C14 C13 1_555 1_555
H8 C14 1_555 1_555
C15 C14 1_555 1_555
H9 C15 1_555 1_555
C16 C15 1_555 1_555
H10 C16 1_555 1_555
C17 C16 1_555 1_555
H11 C17 1_555 1_555
C18 C13 1_555 1_555
H12 C18 1_555 1_555
C19 C11 1_555 1_555
H13 C19 1_555 1_555
H14 C19 1_555 1_555
C20 C12 1_555 1_555
H15 C20 1_555 1_555
H16 C20 1_555 1_555
C21 N1 1_555 1_555
C22 N3 1_555 1_555
C23 C24 1_555 1_555
C24 O3 1_555 1_555
C25 H17 1_555 1_555
H18 C25 1_555 1_555
C26 C25 1_555 1_555
H19 C26 1_555 1_555
H20 C26 1_555 1_555
H21 C26 1_555 1_555
C27 C23 1_555 1_555
C28 C27 1_555 1_555
C29 H22 1_555 1_555
H23 C29 1_555 1_555
C30 C29 1_555 1_555
H24 C30 1_555 1_555
H25 C30 1_555 1_555
H26 C30 1_555 1_555
C31 H27 1_555 1_555
H28 C31 1_555 1_555
C32 H29 1_555 1_555
H30 C32 1_555 1_555
C33 C32 1_555 1_555
C34 C31 1_555 1_555
C35 C34 1_555 1_555
C36 C35 1_555 1_555
H31 C36 1_555 1_555
C37 C36 1_555 1_555
H32 C37 1_555 1_555
C38 C33 1_555 1_555
C39 H33 1_555 1_555
H34 C39 1_555 1_555
H35 C39 1_555 1_555
C40 H36 1_555 1_555
H37 C40 1_555 1_555
H38 C40 1_555 1_555
N1 C19 1_555 1_555
N2 C21 1_555 1_555
N3 C27 1_555 1_555
N4 C20 1_555 1_555
O1 C21 1_555 1_555
O2 C22 1_555 1_555
O4 C24 1_555 1_555
O5 C28 1_555 1_555
O6 C28 1_555 1_555
O7 C38 1_555 1_555
O8 C35 1_555 1_555
C41 H39 1_555 1_555
H40 C41 1_555 1_555
Cl1 C41 1_555 1_555
Cl2 C41 1_555 1_555
C5 C6 1_555 1_555
C11 C12 1_555 1_555
C17 C18 1_555 1_555
C22 N4 1_555 1_555
C23 N1 1_555 1_555
C23 N4 1_555 1_555
C25 O4 1_555 1_555
C27 N2 1_555 1_555
C29 O6 1_555 1_555
C31 N3 1_555 1_555
C32 N2 1_555 1_555
C33 C34 1_555 1_555
C37 C38 1_555 1_555
C39 O7 1_555 1_555
C40 O8 1_555 1_555

#END
