
#######################################################################
#
#                 Cambridge Crystallographic Data Centre
#                                CCDC 
#
#######################################################################
#
# If this CIF has been generated from an entry in the Cambridge 
# Structural Database, then it will include bibliographic, chemical, 
# crystal, experimental, refinement or atomic coordinate data resulting 
# from the CCDC's data processing and validation procedures.
#
#######################################################################

data_YUBJOW
_chemical_formula_moiety         'C40 H38 N4 O8,0.75(C4 H8 O2)'
_chemical_name_systematic        
'Diethyl 1,4-dimethoxy-6,13-dioxo-8,11-diphenyl-5,7,12,14-tetrahydro-5a,6a,12a,13a-tetraazabenzo[5,6]azuleno[2,1,8-ija]benzo[f]azulene-13b,13c-dicarboxylate ethyl acetate solvate'
_symmetry_cell_setting           triclinic
_symmetry_space_group_name_H-M   'P -1'
_symmetry_Int_Tables_number      2
_space_group_name_Hall           '-P 1'
loop_
_symmetry_equiv_pos_site_id
_symmetry_equiv_pos_as_xyz
1 x,y,z
2 -x,-y,-z
_cell_length_a                   9.9019(12)
_cell_length_b                   14.5729(18)
_cell_length_c                   27.372(3)
_cell_angle_alpha                94.424(2)
_cell_angle_beta                 97.048(2)
_cell_angle_gamma                100.801(2)
_cell_volume                     3830.11
_exptl_crystal_colour            colorless
_exptl_crystal_description       block
_cell_formula_units_Z            4
loop_
_atom_site_label
_atom_site_type_symbol
_atom_site_fract_x
_atom_site_fract_y
_atom_site_fract_z
C1 C 0.9995(2) 0.10364(17) 0.22702(8)
C2 C 0.6739(2) 0.10909(17) 0.15150(8)
C3 C 0.9117(2) 0.17584(17) 0.16002(8)
C4 C 0.8888(2) 0.06580(16) 0.14565(8)
C5 C 0.9895(2) 0.23686(17) 0.12455(9)
C6 C 1.1990(3) 0.2681(2) 0.08955(10)
H1 H 1.1950 0.3356 0.0911
H2 H 1.1607 0.2387 0.0556
C7 C 1.3444(3) 0.2565(3) 0.10197(12)
H3 H 1.3849 0.2923 0.1339
H4 H 1.3985 0.2797 0.0762
H5 H 1.3460 0.1899 0.1040
C8 C 0.9449(2) 0.04313(16) 0.09673(8)
C9 C 1.1159(3) -0.0139(2) 0.05760(10)
H6 H 1.1400 0.0433 0.0406
H7 H 1.0460 -0.0605 0.0349
C10 C 1.2426(3) -0.0532(2) 0.07145(12)
H8 H 1.3120 -0.0060 0.0933
H9 H 1.2811 -0.0702 0.0415
H10 H 1.2179 -0.1091 0.0887
C11 C 1.0090(2) 0.27404(17) 0.24137(9)
H11 H 1.0324 0.3282 0.2221
H12 H 1.0881 0.2767 0.2677
C12 C 0.7423(2) 0.27922(17) 0.18067(9)
H13 H 0.6467 0.2838 0.1670
H14 H 0.8068 0.3326 0.1705
C13 C 0.9044(3) -0.06108(17) 0.20159(9)
H15 H 0.8180 -0.0618 0.2165
H16 H 0.9737 -0.0796 0.2262
C14 C 0.6643(3) -0.06054(17) 0.13200(9)
H17 H 0.5872 -0.0685 0.1044
H18 H 0.6236 -0.0756 0.1624
C15 C 0.8810(2) 0.28374(16) 0.26552(9)
C16 C 0.8893(2) 0.28780(16) 0.31696(9)
C17 C 0.7735(3) 0.29813(17) 0.33951(9)
H19 H 0.7788 0.3007 0.3745
C18 C 0.6503(3) 0.30467(18) 0.31078(9)
H20 H 0.5725 0.3136 0.3264
C19 C 0.6399(2) 0.29832(17) 0.25982(9)
C20 C 0.7552(2) 0.28789(16) 0.23651(9)
C21 C 1.0252(3) 0.2756(2) 0.39426(9)
H21 H 1.0051 0.3327 0.4107
H22 H 1.1194 0.2689 0.4070
H23 H 0.9582 0.2209 0.4008
C22 C 0.3961(3) 0.2474(2) 0.23982(12)
H24 H 0.4103 0.1827 0.2409
H25 H 0.3202 0.2491 0.2136
H26 H 0.3726 0.2701 0.2717
C23 C 0.8756(3) -0.12930(17) 0.15556(9)
C24 C 0.7583(3) -0.12858(17) 0.12108(9)
C25 C 0.7267(3) -0.19235(18) 0.07832(9)
C26 C 0.8122(3) -0.25702(19) 0.07160(10)
H27 H 0.7898 -0.3025 0.0435
C27 C 0.9296(3) -0.25585(19) 0.10530(11)
H28 H 0.9868 -0.3001 0.0997
C28 C 0.9646(3) -0.19144(18) 0.14688(9)
C29 C 0.6037(3) -0.19464(19) 0.04040(9)
C30 C 0.5947(3) -0.1199(2) 0.01230(9)
H29 H 0.6675 -0.0659 0.0173
C31 C 0.4797(3) -0.1238(2) -0.02315(10)
H30 H 0.4753 -0.0730 -0.0426
C32 C 0.3731(3) -0.2003(2) -0.03018(11)
H31 H 0.2940 -0.2021 -0.0540
C33 C 0.3810(4) -0.2742(3) -0.00265(14)
H32 H 0.3069 -0.3272 -0.0074
C34 C 0.4959(4) -0.2723(2) 0.03207(13)
H33 H 0.5008 -0.3247 0.0503
C35 C 1.0968(3) -0.18620(18) 0.18113(9)
C36 C 1.1235(3) -0.26351(19) 0.20394(10)
H34 H 1.0573 -0.3209 0.1979
C37 C 1.2466(3) -0.2582(2) 0.23578(11)
H35 H 1.2629 -0.3115 0.2517
C38 C 1.3445(3) -0.1762(2) 0.24418(11)
H36 H 1.4286 -0.1731 0.2656
C39 C 1.3200(3) -0.0982(2) 0.22125(10)
H37 H 1.3878 -0.0416 0.2267
C40 C 1.1959(3) -0.10289(18) 0.19028(10)
H38 H 1.1786 -0.0489 0.1752
N1 N 0.9920(2) 0.18754(14) 0.20865(7)
N2 N 0.9570(2) 0.03289(14) 0.18874(7)
N3 N 0.7723(2) 0.19188(14) 0.15920(7)
N4 N 0.7394(2) 0.03772(14) 0.13866(7)
O1 O 1.03874(18) 0.09327(12) 0.26967(6)
O2 O 0.55084(17) 0.10118(13) 0.15440(6)
O3 O 0.93838(19) 0.28926(13) 0.09961(7)
O4 O 1.11814(17) 0.22254(12) 0.12563(6)
O5 O 0.8878(2) 0.05912(14) 0.05797(6)
O6 O 1.05981(18) 0.00892(12) 0.10310(6)
O7 O 1.01472(17) 0.28188(13) 0.34256(6)
O8 O 0.51967(18) 0.30564(14) 0.23014(6)
C41 C 0.7654(2) 0.73876(15) 0.46149(8)
C42 C 0.4830(2) 0.75677(15) 0.36581(8)
C43 C 0.6955(2) 0.84195(15) 0.40768(8)
C44 C 0.7183(2) 0.75262(15) 0.37641(8)
C45 C 0.7668(2) 0.93497(15) 0.39044(8)
C46 C 0.7536(3) 1.03789(17) 0.32835(9)
H39 H 0.8436 1.0288 0.3185
H40 H 0.7703 1.0954 0.3518
C47 C 0.6542(3) 1.04618(19) 0.28372(10)
H41 H 0.6457 0.9916 0.2595
H42 H 0.6888 1.1036 0.2689
H43 H 0.5630 1.0488 0.2936
C48 C 0.8344(2) 0.77353(16) 0.34340(8)
C49 C 1.0768(3) 0.7941(2) 0.34163(12)
H44 H 1.0520 0.7652 0.3070
H45 H 1.1542 0.7675 0.3574
C50 C 1.1233(3) 0.8982(2) 0.34199(11)
H46 H 1.0503 0.9237 0.3233
H47 H 1.2083 0.9113 0.3267
H48 H 1.1415 0.9275 0.3762
C51 C 0.7342(2) 0.89276(15) 0.49888(8)
H49 H 0.7530 0.9584 0.4905
H50 H 0.8033 0.8883 0.5275
C52 C 0.4741(2) 0.89028(15) 0.42806(8)
H51 H 0.3777 0.8820 0.4112
H52 H 0.5202 0.9563 0.4267
C53 C 0.7535(2) 0.59545(15) 0.40456(8)
H53 H 0.8030 0.5751 0.4342
H54 H 0.8088 0.5891 0.3771
C54 C 0.5582(2) 0.62613(16) 0.31924(8)
H55 H 0.6414 0.6177 0.3041
H56 H 0.4814 0.6230 0.2920
C55 C 0.5904(2) 0.87194(14) 0.51451(8)
C56 C 0.5803(2) 0.85736(15) 0.56404(8)
C57 C 0.4518(2) 0.84209(16) 0.58049(8)
H57 H 0.4453 0.8305 0.6139
C58 C 0.3324(2) 0.84375(16) 0.54832(9)
H58 H 0.2446 0.8338 0.5598
C59 C 0.3413(2) 0.85982(15) 0.49960(8)
C60 C 0.4701(2) 0.87267(14) 0.48191(8)
C61 C 0.6990(3) 0.85540(18) 0.64513(9)
H59 H 0.6601 0.9077 0.6582
H60 H 0.7933 0.8598 0.6623
H61 H 0.6408 0.7958 0.6504
C62 C 0.0960(2) 0.85489(17) 0.48329(9)
H62 H 0.0686 0.7903 0.4915
H63 H 0.0268 0.8677 0.4573
H64 H 0.1020 0.8987 0.5128
C63 C 0.6124(2) 0.52974(15) 0.39086(8)
C64 C 0.5196(2) 0.54438(15) 0.34981(8)
C65 C 0.3902(2) 0.48435(16) 0.33657(9)
C66 C 0.3514(3) 0.41235(16) 0.36602(9)
H65 H 0.2623 0.3726 0.3582
C67 C 0.4402(3) 0.39800(16) 0.40621(9)
H66 H 0.4109 0.3488 0.4257
C68 C 0.5728(2) 0.45442(16) 0.41898(8)
C69 C 0.2924(3) 0.49158(16) 0.29155(10)
C70 C 0.1604(3) 0.50840(18) 0.29581(12)
H67 H 0.1323 0.5172 0.3275
C71 C 0.0684(3) 0.51235(19) 0.25265(14)
H68 H -0.0213 0.5248 0.2555
C72 C 0.1073(4) 0.4984(2) 0.20638(13)
H69 H 0.0444 0.5004 0.1775
C73 C 0.2376(4) 0.4815(2) 0.20227(12)
H70 H 0.2649 0.4725 0.1705
C74 C 0.3295(3) 0.47765(17) 0.24416(10)
H71 H 0.4190 0.4654 0.2407
C75 C 0.6632(2) 0.43068(15) 0.46214(9)
C76 C 0.8023(2) 0.42347(15) 0.46076(9)
H72 H 0.8431 0.4367 0.4318
C77 C 0.8809(3) 0.39747(16) 0.50080(9)
H73 H 0.9745 0.3924 0.4991
C78 C 0.8226(3) 0.37884(17) 0.54344(10)
H74 H 0.8763 0.3614 0.5711
C79 C 0.6854(3) 0.38570(18) 0.54558(10)
H75 H 0.6457 0.3734 0.5749
C80 C 0.6060(3) 0.41048(16) 0.50522(9)
H76 H 0.5118 0.4138 0.5069
N5 N 0.75530(18) 0.83145(13) 0.45699(7)
N6 N 0.74734(19) 0.69384(13) 0.41464(7)
N7 N 0.54618(18) 0.82896(13) 0.40111(7)
N8 N 0.58674(19) 0.71964(13) 0.34623(7)
O9 O 0.78979(17) 0.70501(11) 0.49992(6)
O10 O 0.35904(16) 0.72937(11) 0.35275(6)
O11 O 0.87844(17) 0.97921(11) 0.40938(6)
O12 O 0.68947(17) 0.95651(12) 0.35130(6)
O13 O 0.81280(19) 0.79156(17) 0.30170(7)
O14 O 0.95624(16) 0.77108(12) 0.36819(7)
O15 O 0.70333(17) 0.85954(13) 0.59371(6)
O16 O 0.22905(16) 0.86647(12) 0.46610(6)
C81 C 0.6427(14) 0.4755(6) 0.0838(3)
H77 H 0.6775 0.5090 0.0568
H78 H 0.5414 0.4678 0.0804
H79 H 0.6680 0.4135 0.0825
C82 C 0.7060(7) 0.5306(4) 0.1325(2)
O17 O 0.8100(6) 0.5260(4) 0.1585(2)
O18 O 0.6178(7) 0.5832(5) 0.14377(18)
C83 C 0.6707(6) 0.6425(6) 0.1909(2)
H80 H 0.7645 0.6797 0.1896
H81 H 0.6760 0.6032 0.2187
C84 C 0.5694(12) 0.7063(8) 0.1973(5)
H82 H 0.5685 0.7466 0.1702
H83 H 0.5975 0.7454 0.2290
H84 H 0.4763 0.6683 0.1968
C85? C 0.6068(16) 0.6951(9) 0.1958(6)
H85? H 0.5201 0.6840 0.2102
H86? H 0.5942 0.7285 0.1663
H87? H 0.6810 0.7331 0.2201
C86? C 0.6448(9) 0.6031(9) 0.1815(4)
O19? O 0.7306(10) 0.5761(7) 0.2105(3)
O20? O 0.5787(13) 0.5616(9) 0.1380(5)
C87? C 0.6131(14) 0.4751(9) 0.1241(6)
H88? H 0.5379 0.4378 0.0992
H89? H 0.6215 0.4396 0.1534
C88? C 0.7487(15) 0.4887(12) 0.1026(7)
H90? H 0.7337 0.5082 0.0692
H91? H 0.7821 0.4295 0.1010
H92? H 0.8179 0.5372 0.1236
C89? C 0.2527(10) 0.6214(7) 0.0987(3)
H93? H 0.3497 0.6217 0.1114
H94? H 0.1964 0.6146 0.1258
H95? H 0.2464 0.6806 0.0846
C90? C 0.2018(8) 0.5437(6) 0.0608(3)
O21? O 0.2660(8) 0.4833(5) 0.0488(3)
O22? O 0.0786(8) 0.5438(7) 0.0359(4)
C91? C 0.0247(14) 0.4736(8) -0.0043(5)
H96? H -0.0149 0.4145 0.0088
H97? H 0.1015 0.4617 -0.0223
C92? C -0.086(2) 0.5014(13) -0.0399(7)
H98? H -0.1652 0.5091 -0.0228
H99? H -0.1169 0.4524 -0.0677
H100? H -0.0482 0.5608 -0.0523
loop_
_geom_bond_atom_site_label_1
_geom_bond_atom_site_label_2
_geom_bond_site_symmetry_1
_geom_bond_site_symmetry_2
C1 N1 1_555 1_555
C2 N3 1_555 1_555
C3 C4 1_555 1_555
C4 C8 1_555 1_555
C5 C3 1_555 1_555
C6 H1 1_555 1_555
H2 C6 1_555 1_555
C7 C6 1_555 1_555
H3 C7 1_555 1_555
H4 C7 1_555 1_555
H5 C7 1_555 1_555
C8 O5 1_555 1_555
C9 H6 1_555 1_555
H7 C9 1_555 1_555
C10 C9 1_555 1_555
H8 C10 1_555 1_555
H9 C10 1_555 1_555
H10 C10 1_555 1_555
C11 H11 1_555 1_555
H12 C11 1_555 1_555
C12 H13 1_555 1_555
H14 C12 1_555 1_555
C13 H15 1_555 1_555
H16 C13 1_555 1_555
C14 H17 1_555 1_555
H18 C14 1_555 1_555
C15 C11 1_555 1_555
C16 C15 1_555 1_555
C17 C16 1_555 1_555
H19 C17 1_555 1_555
C18 C17 1_555 1_555
H20 C18 1_555 1_555
C19 C18 1_555 1_555
C20 C12 1_555 1_555
C21 H21 1_555 1_555
H22 C21 1_555 1_555
H23 C21 1_555 1_555
C22 H24 1_555 1_555
H25 C22 1_555 1_555
H26 C22 1_555 1_555
C23 C13 1_555 1_555
C24 C14 1_555 1_555
C25 C24 1_555 1_555
C26 C25 1_555 1_555
H27 C26 1_555 1_555
C27 C26 1_555 1_555
H28 C27 1_555 1_555
C28 C23 1_555 1_555
C29 C25 1_555 1_555
C30 C29 1_555 1_555
H29 C30 1_555 1_555
C31 C30 1_555 1_555
H30 C31 1_555 1_555
C32 C31 1_555 1_555
H31 C32 1_555 1_555
C33 C32 1_555 1_555
H32 C33 1_555 1_555
C34 C29 1_555 1_555
H33 C34 1_555 1_555
C35 C28 1_555 1_555
C36 C35 1_555 1_555
H34 C36 1_555 1_555
C37 C36 1_555 1_555
H35 C37 1_555 1_555
C38 C37 1_555 1_555
H36 C38 1_555 1_555
C39 C38 1_555 1_555
H37 C39 1_555 1_555
C40 C35 1_555 1_555
H38 C40 1_555 1_555
N1 C3 1_555 1_555
N2 C1 1_555 1_555
N3 C3 1_555 1_555
N4 C2 1_555 1_555
O1 C1 1_555 1_555
O2 C2 1_555 1_555
O3 C5 1_555 1_555
O4 C5 1_555 1_555
O6 C8 1_555 1_555
O7 C16 1_555 1_555
O8 C19 1_555 1_555
C41 N5 1_555 1_555
C42 N7 1_555 1_555
C43 C44 1_555 1_555
C44 C48 1_555 1_555
C45 C43 1_555 1_555
C46 H39 1_555 1_555
H40 C46 1_555 1_555
C47 C46 1_555 1_555
H41 C47 1_555 1_555
H42 C47 1_555 1_555
H43 C47 1_555 1_555
C48 O13 1_555 1_555
C49 H44 1_555 1_555
H45 C49 1_555 1_555
C50 C49 1_555 1_555
H46 C50 1_555 1_555
H47 C50 1_555 1_555
H48 C50 1_555 1_555
C51 H49 1_555 1_555
H50 C51 1_555 1_555
C52 H51 1_555 1_555
H52 C52 1_555 1_555
C53 H53 1_555 1_555
H54 C53 1_555 1_555
C54 H55 1_555 1_555
H56 C54 1_555 1_555
C55 C51 1_555 1_555
C56 C55 1_555 1_555
C57 C56 1_555 1_555
H57 C57 1_555 1_555
C58 C57 1_555 1_555
H58 C58 1_555 1_555
C59 C58 1_555 1_555
C60 C52 1_555 1_555
C61 H59 1_555 1_555
H60 C61 1_555 1_555
H61 C61 1_555 1_555
C62 H62 1_555 1_555
H63 C62 1_555 1_555
H64 C62 1_555 1_555
C63 C53 1_555 1_555
C64 C54 1_555 1_555
C65 C64 1_555 1_555
C66 C65 1_555 1_555
H65 C66 1_555 1_555
C67 C66 1_555 1_555
H66 C67 1_555 1_555
C68 C63 1_555 1_555
C69 C65 1_555 1_555
C70 C69 1_555 1_555
H67 C70 1_555 1_555
C71 C70 1_555 1_555
H68 C71 1_555 1_555
C72 C71 1_555 1_555
H69 C72 1_555 1_555
C73 C72 1_555 1_555
H70 C73 1_555 1_555
C74 C69 1_555 1_555
H71 C74 1_555 1_555
C75 C68 1_555 1_555
C76 C75 1_555 1_555
H72 C76 1_555 1_555
C77 C76 1_555 1_555
H73 C77 1_555 1_555
C78 C77 1_555 1_555
H74 C78 1_555 1_555
C79 C78 1_555 1_555
H75 C79 1_555 1_555
C80 C75 1_555 1_555
H76 C80 1_555 1_555
N5 C43 1_555 1_555
N6 C41 1_555 1_555
N7 C43 1_555 1_555
N8 C42 1_555 1_555
O9 C41 1_555 1_555
O10 C42 1_555 1_555
O11 C45 1_555 1_555
O12 C45 1_555 1_555
O14 C48 1_555 1_555
O15 C56 1_555 1_555
O16 C59 1_555 1_555
C81 H77 1_555 1_555
H78 C81 1_555 1_555
H79 C81 1_555 1_555
C82 C81 1_555 1_555
O17 C82 1_555 1_555
O18 C82 1_555 1_555
C83 O18 1_555 1_555
H80 C83 1_555 1_555
H81 C83 1_555 1_555
C84 C83 1_555 1_555
H82 C84 1_555 1_555
H83 C84 1_555 1_555
H84 C84 1_555 1_555
C4 N2 1_555 1_555
C4 N4 1_555 1_555
C6 O4 1_555 1_555
C9 O6 1_555 1_555
C11 N1 1_555 1_555
C12 N3 1_555 1_555
C13 N2 1_555 1_555
C14 N4 1_555 1_555
C15 C20 1_555 1_555
C19 C20 1_555 1_555
C21 O7 1_555 1_555
C22 O8 1_555 1_555
C23 C24 1_555 1_555
C27 C28 1_555 1_555
C33 C34 1_555 1_555
C39 C40 1_555 1_555
C44 N6 1_555 1_555
C44 N8 1_555 1_555
C46 O12 1_555 1_555
C49 O14 1_555 1_555
C51 N5 1_555 1_555
C52 N7 1_555 1_555
C53 N6 1_555 1_555
C54 N8 1_555 1_555
C55 C60 1_555 1_555
C59 C60 1_555 1_555
C61 O15 1_555 1_555
C62 O16 1_555 1_555
C63 C64 1_555 1_555
C67 C68 1_555 1_555
C73 C74 1_555 1_555
C79 C80 1_555 1_555

#END
