
#######################################################################
#
#                 Cambridge Crystallographic Data Centre
#                                CCDC 
#
#######################################################################
#
# If this CIF has been generated from an entry in the Cambridge 
# Structural Database, then it will include bibliographic, chemical, 
# crystal, experimental, refinement or atomic coordinate data resulting 
# from the CCDC's data processing and validation procedures.
#
#######################################################################

data_YUBKAJ
_chemical_formula_moiety         
'2(C16 H36 N1 1+),2(C69 H81 N9 O9),O4 S1 2-,2(C3 H7 N1 O1),H2 O1'
_chemical_name_systematic        
'bis(Tetra-n-butylammonium) bis(N^1^,N^3^,N^5^-tris(4-(3-(4-(hexyloxy)phenyl)ureido)phenyl)-N^1^,N^3^,N^5^-trimethylbenzene-1,3,5-tricarboxamide ) sulfate clathrate N,N-dimethylformamide solvate monohydrate'
_symmetry_cell_setting           triclinic
_symmetry_space_group_name_H-M   'P -1'
_symmetry_Int_Tables_number      2
_space_group_name_Hall           '-P 1'
loop_
_symmetry_equiv_pos_site_id
_symmetry_equiv_pos_as_xyz
1 x,y,z
2 -x,-y,-z
_cell_length_a                   19.215(4)
_cell_length_b                   19.831(4)
_cell_length_c                   25.531(5)
_cell_angle_alpha                86.249(6)
_cell_angle_beta                 85.246(10)
_cell_angle_gamma                63.011(7)
_cell_volume                     8635.08
_exptl_crystal_colour            colorless
_cell_formula_units_Z            2
loop_
_atom_site_label
_atom_site_type_symbol
_atom_site_fract_x
_atom_site_fract_y
_atom_site_fract_z
S1 S 0.16277(5) 0.16681(5) 0.18125(4)
O1 O 0.23100(15) 0.17409(15) 0.15529(10)
O2 O 0.16211(17) 0.17313(18) 0.23815(11)
O3 O 0.09000(15) 0.22705(15) 0.16076(10)
O4 O 0.16822(16) 0.09251(16) 0.16893(12)
C1 C 0.0723(2) 0.1036(2) 0.49161(15)
H1 H 0.0476 0.0721 0.4883
C2 C 0.1525(3) 0.0709(2) 0.49826(15)
C3 C 0.1876(3) 0.1175(3) 0.50364(16)
H2 H 0.2422 0.0954 0.5083
C4 C 0.1446(3) 0.1957(3) 0.50234(16)
C5 C 0.0645(3) 0.2280(3) 0.49549(16)
H3 H 0.0346 0.2815 0.4947
C6 C 0.0280(2) 0.1823(2) 0.48985(15)
C7 C 0.1989(2) -0.0131(2) 0.50363(16)
C8 C 0.3176(3) -0.1275(3) 0.4812(2)
H4 H 0.3244 -0.1380 0.5190
H5 H 0.3685 -0.1405 0.4627
H6 H 0.2946 -0.1579 0.4682
C9 C 0.2792(3) -0.0106(3) 0.42392(17)
C10 C 0.3481(3) -0.0040(3) 0.41533(19)
H7 H 0.3860 -0.0238 0.4410
C11 C 0.3626(3) 0.0311(3) 0.36972(19)
H8 H 0.4098 0.0356 0.3646
C12 C 0.3076(2) 0.0596(3) 0.33171(16)
C13 C 0.2391(2) 0.0516(3) 0.34073(16)
H9 H 0.2010 0.0707 0.3151
C14 C 0.2255(3) 0.0166(2) 0.38604(16)
H10 H 0.1787 0.0112 0.3911
C15 C 0.3804(2) 0.1053(2) 0.26462(16)
C16 C 0.4262(2) 0.1511(2) 0.18233(16)
C17 C 0.4866(3) 0.1612(4) 0.19946(19)
H11 H 0.4926 0.1610 0.2361
C18 C 0.5388(3) 0.1717(4) 0.1633(2)
H12 H 0.5808 0.1781 0.1754
C19 C 0.5312(3) 0.1729(3) 0.11025(18)
C20 C 0.4714(3) 0.1624(3) 0.09299(18)
H13 H 0.4661 0.1616 0.0564
C21 C 0.4188(3) 0.1529(3) 0.12934(18)
H14 H 0.3763 0.1475 0.1172
C22 C 0.5844(5) 0.1810(6) 0.0225(2)
H15 H 0.5303 0.2057 0.0108
H16 H 0.6088 0.1269 0.0135
C23 C 0.6310(5) 0.2190(6) -0.0039(3)
H17 H 0.6782 0.2049 0.0158
H18 H 0.6486 0.1999 -0.0399
C24 C 0.5875(7) 0.3011(6) -0.0071(4)
H19 H 0.5595 0.3167 0.0278
H20 H 0.6270 0.3204 -0.0105
C25 C 0.5312(7) 0.3435(8) -0.0455(6)
H21 H 0.5560 0.3264 -0.0809
H22 H 0.4868 0.3310 -0.0398
C26 C 0.5020(17) 0.4216(11) -0.0449(7)
H23 H 0.4465 0.4391 -0.0325
H24 H 0.5274 0.4292 -0.0152
C27 C 0.4996(17) 0.4728(12) -0.0783(8)
H25 H 0.4548 0.5210 -0.0690
H26 H 0.4940 0.4590 -0.1134
H27 H 0.5480 0.4778 -0.0784
C28 C 0.1854(3) 0.2424(3) 0.51203(18)
C29 C 0.2113(4) 0.3503(3) 0.4895(2)
H28 H 0.2184 0.3479 0.5273
H29 H 0.1770 0.4026 0.4786
H30 H 0.2623 0.3331 0.4701
C30 C 0.1450(3) 0.3106(3) 0.42748(17)
C31 C 0.0825(4) 0.3772(3) 0.41350(19)
H31 H 0.0601 0.4173 0.4375
C32 C 0.0517(4) 0.3868(3) 0.36467(19)
H32 H 0.0085 0.4333 0.3556
C33 C 0.0840(3) 0.3284(2) 0.32892(16)
C34 C 0.1487(3) 0.2621(2) 0.34351(17)
H33 H 0.1722 0.2219 0.3196
C35 C 0.1793(3) 0.2534(3) 0.39195(17)
H34 H 0.2240 0.2081 0.4008
C36 C -0.0060(3) 0.3894(3) 0.25622(17)
C37 C -0.0666(2) 0.4239(2) 0.16946(16)
C38 C -0.1177(3) 0.5000(3) 0.17803(18)
H35 H -0.1181 0.5215 0.2103
C39 C -0.1675(3) 0.5441(3) 0.14007(18)
H36 H -0.2026 0.5955 0.1466
C40 C -0.1670(2) 0.5139(2) 0.09223(17)
C41 C -0.1167(2) 0.4391(2) 0.08318(17)
H37 H -0.1154 0.4181 0.0505
C42 C -0.0677(2) 0.3944(2) 0.12199(16)
H38 H -0.0342 0.3425 0.1158
C43 C -0.2258(3) 0.5321(2) 0.00985(17)
H39 H -0.2403 0.4905 0.0183
H40 H -0.1747 0.5112 -0.0104
C44 C -0.2871(3) 0.5935(3) -0.02229(18)
H41 H -0.2708 0.6336 -0.0321
H42 H -0.3372 0.6165 -0.0009
C45 C -0.2991(3) 0.5626(3) -0.07179(19)
H43 H -0.2486 0.5394 -0.0927
H44 H -0.3144 0.5219 -0.0615
C46 C -0.3600(3) 0.6204(3) -0.1064(2)
H45 H -0.3439 0.6600 -0.1182
H46 H -0.4104 0.6449 -0.0855
C47 C -0.3721(4) 0.5862(4) -0.1544(3)
H47 H -0.3204 0.5606 -0.1738
H48 H -0.3869 0.5462 -0.1414
C48 C -0.4283(6) 0.6331(7) -0.1931(4)
H49 H -0.4268 0.6014 -0.2215
H50 H -0.4146 0.6728 -0.2077
H51 H -0.4811 0.6565 -0.1760
C49 C -0.0589(3) 0.2192(2) 0.48635(16)
C50 C -0.1750(3) 0.2261(3) 0.44867(18)
H52 H -0.2001 0.2567 0.4796
H53 H -0.1879 0.1836 0.4494
H54 H -0.1938 0.2575 0.4167
C51 C -0.0446(2) 0.1565(2) 0.40313(15)
C52 C -0.0471(2) 0.0910(2) 0.39013(15)
H55 H -0.0757 0.0712 0.4127
C53 C -0.0082(2) 0.0540(2) 0.34462(16)
H56 H -0.0102 0.0090 0.3361
C54 C 0.0343(2) 0.0830(2) 0.31104(15)
C55 C 0.0359(2) 0.1491(2) 0.32468(15)
H57 H 0.0646 0.1692 0.3025
C56 C -0.0036(2) 0.1858(2) 0.37005(16)
H58 H -0.0025 0.2313 0.3785
C57 C 0.0731(2) -0.0088(2) 0.23920(15)
C58 C 0.1077(2) -0.0693(2) 0.15226(15)
C59 C 0.0605(2) -0.1061(2) 0.15693(16)
H59 H 0.0232 -0.0965 0.1859
C60 C 0.0677(2) -0.1563(2) 0.11972(16)
H60 H 0.0366 -0.1825 0.1240
C61 C 0.1198(2) -0.1697(2) 0.07591(16)
C62 C 0.1658(2) -0.1319(2) 0.07039(16)
H61 H 0.2010 -0.1396 0.0404
C63 C 0.1601(2) -0.0830(2) 0.10864(15)
H62 H 0.1927 -0.0584 0.1050
C64 C 0.1735(3) -0.2360(3) -0.00417(18)
H63 H 0.2282 -0.2577 0.0062
H64 H 0.1618 -0.1887 -0.0251
C65 C 0.1626(3) -0.2919(3) -0.0362(2)
H65 H 0.1729 -0.3382 -0.0143
H66 H 0.1076 -0.2694 -0.0460
C66 C 0.2150(8) -0.3128(8) -0.0844(4)
H67 H 0.2167 -0.3616 -0.0926
H68 H 0.1817 -0.2761 -0.1108
C67 C 0.2761(6) -0.3210(9) -0.0991(4)
H69 H 0.3083 -0.3510 -0.0698
H70 H 0.2717 -0.2697 -0.0963
C68 C 0.3318(5) -0.3502(5) -0.1457(3)
H71 H 0.3840 -0.3856 -0.1335
H72 H 0.3142 -0.3790 -0.1669
C69 C 0.3388(5) -0.2916(4) -0.1784(3)
H73 H 0.3757 -0.3143 -0.2085
H74 H 0.3579 -0.2638 -0.1580
H75 H 0.2875 -0.2566 -0.1911
O5 O 0.17939(18) -0.04985(17) 0.53721(11)
O6 O 0.44170(17) 0.08195(18) 0.28731(11)
O7 O 0.5837(2) 0.1879(3) 0.07779(14)
O8 O 0.2259(2) 0.2264(2) 0.55026(13)
O9 O -0.0512(2) 0.44708(19) 0.27913(12)
O10 O -0.22015(18) 0.56328(17) 0.05746(11)
O11 O -0.10020(18) 0.26800(18) 0.51847(11)
O12 O 0.04842(18) -0.05149(16) 0.26125(11)
O13 O 0.12089(18) -0.22062(16) 0.04152(11)
N1 N 0.2653(2) -0.0467(2) 0.47203(14)
N2 N 0.3155(2) 0.0975(2) 0.28489(13)
H76 H 0.2739 0.1188 0.2662
N3 N 0.3681(2) 0.1423(2) 0.21667(13)
H77 H 0.3202 0.1624 0.2060
N4 N 0.1758(2) 0.3013(2) 0.47853(14)
N5 N 0.0568(2) 0.3312(2) 0.27911(13)
H78 H 0.0831 0.2907 0.2602
N6 N -0.0125(2) 0.3751(2) 0.20559(13)
H79 H 0.0209 0.3302 0.1942
N7 N -0.0897(2) 0.1970(2) 0.44895(13)
N8 N 0.0749(2) 0.04977(19) 0.26384(12)
H80 H 0.1050 0.0688 0.2483
N9 N 0.10234(19) -0.01558(18) 0.18832(12)
H81 H 0.1198 0.0170 0.1766
C70 C 0.1332(2) 0.1540(2) -0.14817(15)
H82 H 0.0945 0.1374 -0.1512
C71 C 0.1108(2) 0.2313(2) -0.14461(14)
C72 C 0.1679(2) 0.2549(2) -0.14009(14)
H83 H 0.1531 0.3072 -0.1370
C73 C 0.2465(2) 0.2026(2) -0.13998(14)
C74 C 0.2684(2) 0.1257(2) -0.14393(15)
H84 H 0.3221 0.0900 -0.1443
C75 C 0.2116(2) 0.1013(2) -0.14731(15)
C76 C 0.2358(2) 0.0185(2) -0.15226(16)
C77 C 0.2266(3) -0.0961(2) -0.12098(18)
H85 H 0.2396 -0.1094 -0.1580
H86 H 0.1825 -0.1058 -0.1078
H87 H 0.2720 -0.1268 -0.1004
C78 C 0.1670(2) 0.0182(2) -0.06643(15)
C79 C 0.0910(2) 0.0296(2) -0.05243(16)
H88 H 0.0637 0.0166 -0.0761
C80 C 0.0542(2) 0.0597(2) -0.00432(16)
H89 H 0.0022 0.0675 0.0046
C81 C 0.0942(2) 0.0785(2) 0.03069(15)
C82 C 0.1708(2) 0.0660(2) 0.01618(16)
H90 H 0.1986 0.0786 0.0398
C83 C 0.2070(2) 0.0360(2) -0.03130(16)
H91 H 0.2593 0.0275 -0.0401
C84 C -0.0077(2) 0.1242(2) 0.10597(17)
C85 C -0.0779(2) 0.1720(2) 0.19174(16)
C86 C -0.1015(2) 0.1163(2) 0.20468(17)
H92 H -0.0804 0.0719 0.1846
C87 C -0.1555(3) 0.1242(3) 0.24648(18)
H93 H -0.1709 0.0853 0.2548
C88 C -0.1865(3) 0.1881(3) 0.27582(18)
C89 C -0.1629(3) 0.2438(3) 0.26378(19)
H94 H -0.1836 0.2877 0.2843
C90 C -0.1093(3) 0.2360(3) 0.22213(18)
H95 H -0.0937 0.2748 0.2142
C91 C -0.2624(5) 0.1418(4) 0.3339(3)
H96 H -0.2428 0.1038 0.3061
H97 H -0.2346 0.1166 0.3659
C92 C -0.3286(9) 0.1600(10) 0.3428(14)
H98 H -0.3361 0.1767 0.3794
H99 H -0.3294 0.1103 0.3460
C93 C -0.4056(6) 0.2086(7) 0.3230(7)
H100 H -0.4099 0.2602 0.3175
H101 H -0.4067 0.1906 0.2880
C94 C -0.4712(8) 0.2149(12) 0.3519(9)
H102 H -0.4575 0.1610 0.3600
H103 H -0.4651 0.2341 0.3852
C95 C -0.5418(5) 0.2421(8) 0.3516(4)
H104 H -0.5495 0.2270 0.3172
H105 H -0.5574 0.2970 0.3472
C96 C -0.6056(5) 0.2407(6) 0.3842(4)
H106 H -0.6548 0.2718 0.3675
H107 H -0.6075 0.2609 0.4186
H108 H -0.5982 0.1885 0.3888
C97 C 0.3066(2) 0.2313(2) -0.13962(15)
C98 C 0.4210(2) 0.2284(3) -0.10362(18)
H109 H 0.4357 0.2394 -0.1397
H110 H 0.4675 0.1904 -0.0869
H111 H 0.3982 0.2748 -0.0836
C99 C 0.3541(2) 0.1588(2) -0.05761(15)
C100 C 0.2970(2) 0.1980(2) -0.01907(15)
H112 H 0.2632 0.2504 -0.0241
C101 C 0.2897(2) 0.1599(2) 0.02701(15)
H113 H 0.2503 0.1865 0.0533
C102 C 0.3392(2) 0.0831(2) 0.03525(15)
C103 C 0.3976(2) 0.0439(2) -0.00326(15)
H114 H 0.4320 -0.0083 0.0018
C104 C 0.4044(2) 0.0828(2) -0.04912(16)
H115 H 0.4445 0.0568 -0.0752
C105 C 0.3529(2) -0.0249(2) 0.09773(16)
C106 C 0.3328(3) -0.0979(3) 0.17663(19)
C107 C 0.2974(3) -0.0852(3) 0.22759(19)
H116 H 0.2620 -0.0353 0.2378
C108 C 0.3143(4) -0.1455(5) 0.2630(3)
H117 H 0.2904 -0.1370 0.2976
C109 C 0.3661(4) -0.2188(5) 0.2483(4)
C110 C 0.3998(4) -0.2305(4) 0.1981(4)
H118 H 0.4351 -0.2805 0.1881
C111 C 0.3834(3) -0.1711(3) 0.1619(3)
H119 H 0.4066 -0.1803 0.1271
C112 C 0.0257(2) 0.2853(2) -0.14957(15)
C113 C -0.0966(2) 0.3844(2) -0.11258(17)
H120 H -0.1122 0.3894 -0.1488
H121 H -0.1092 0.4345 -0.1000
H122 H -0.1248 0.3619 -0.0900
C114 C 0.0227(2) 0.3336(2) -0.06272(15)
C115 C 0.0399(2) 0.2732(2) -0.02710(15)
H123 H 0.0290 0.2328 -0.0345
C116 C 0.0730(2) 0.2717(2) 0.01928(15)
H124 H 0.0854 0.2298 0.0434
C117 C 0.0884(2) 0.3315(2) 0.03111(14)
C118 C 0.0696(2) 0.3929(2) -0.00411(15)
H125 H 0.0792 0.4340 0.0037
C119 C 0.0368(2) 0.3937(2) -0.05073(15)
H126 H 0.0238 0.4358 -0.0747
C120 C 0.1316(2) 0.3768(2) 0.10546(15)
C121 C 0.1777(2) 0.3862(2) 0.19230(15)
C122 C 0.2369(3) 0.3473(3) 0.22626(17)
H127 H 0.2713 0.2953 0.2208
C123 C 0.2470(3) 0.3826(3) 0.26796(17)
H128 H 0.2877 0.3551 0.2910
C124 C 0.1975(3) 0.4583(2) 0.27569(16)
C125 C 0.1368(3) 0.4972(3) 0.24268(16)
H129 H 0.1018 0.5488 0.2486
C126 C 0.1267(2) 0.4615(2) 0.20130(16)
H130 H 0.0849 0.4886 0.1790
C127 C 0.2590(3) 0.4618(3) 0.35353(18)
H131 H 0.3122 0.4343 0.3366
H132 H 0.2454 0.4248 0.3740
C128 C 0.2559(3) 0.5217(3) 0.3894(2)
H133 H 0.2677 0.5590 0.3679
H134 H 0.2020 0.5488 0.4054
C129 C 0.3120(4) 0.4899(4) 0.4326(2)
H135 H 0.3653 0.4578 0.4172
H136 H 0.2963 0.4578 0.4571
C130 C 0.3130(4) 0.5548(4) 0.4632(3)
H137 H 0.3293 0.5864 0.4385
H138 H 0.2594 0.5874 0.4778
C131 C 0.3686(7) 0.5243(6) 0.5080(4)
H139 H 0.4211 0.4870 0.4945
H140 H 0.3487 0.4988 0.5355
C132 C 0.3740(7) 0.5923(8) 0.5315(7)
H141 H 0.4108 0.5737 0.5595
H142 H 0.3222 0.6279 0.5459
H143 H 0.3923 0.6181 0.5037
O14 O -0.00773(16) 0.28208(16) -0.18795(11)
O15 O 0.10886(17) 0.44279(15) 0.09073(10)
O16 O 0.20394(18) 0.50013(17) 0.31486(11)
O17 O 0.30504(16) 0.28132(16) -0.17182(11)
O18 O 0.40527(17) -0.07694(17) 0.07372(11)
O19 O 0.3757(3) -0.2743(5) 0.2858(4)
O20 O 0.28078(19) -0.01635(17) -0.18938(12)
O21 O -0.05297(17) 0.10306(17) 0.09076(12)
O22 O -0.2424(2) 0.2017(2) 0.31725(14)
N10 N -0.01173(18) 0.33545(18) -0.11113(12)
N11 N 0.12373(19) 0.32296(18) 0.07883(12)
H144 H 0.1433 0.2772 0.0935
N12 N 0.1696(2) 0.34636(19) 0.15111(12)
H145 H 0.1911 0.2967 0.1550
N13 N 0.36338(18) 0.19929(18) -0.10472(12)
N14 N 0.32599(19) 0.05051(19) 0.08345(12)
H146 H 0.2966 0.0827 0.1076
N15 N 0.3130(2) -0.0335(2) 0.14309(13)
H147 H 0.2694 0.0065 0.1522
N16 N 0.20494(19) -0.01515(18) -0.11607(13)
N17 N 0.06285(19) 0.11090(18) 0.08004(13)
H148 H 0.0927 0.1245 0.0966
N18 N -0.0212(2) 0.1646(2) 0.15061(14)
H149 H 0.0078 0.1879 0.1538
C133 C 0.4367(10) -0.3599(9) 0.2620(6)
H150 H 0.4888 -0.3637 0.2505
H151 H 0.4146 -0.3729 0.2328
C134 C 0.4398(12) -0.4138(12) 0.3176(9)
H152 H 0.4709 -0.4064 0.3437
H153 H 0.3862 -0.3987 0.3335
C135 C 0.479(2) -0.5004(18) 0.3019(12)
H154 H 0.4334 -0.5013 0.2873
H155 H 0.5114 -0.4975 0.2704
C136 C 0.5223(13) -0.5794(13) 0.3150(10)
H156 H 0.5265 -0.6097 0.2845
H157 H 0.4944 -0.5936 0.3447
C137 C 0.612(2) -0.655(2) 0.3904(14)
H158 H 0.6622 -0.6995 0.3943
H159 H 0.5713 -0.6710 0.3864
H160 H 0.5982 -0.6241 0.4216
C138 C 0.6182(17) -0.5996(16) 0.3331(11)
H161 H 0.6227 -0.5538 0.3416
H162 H 0.6601 -0.6295 0.3068
N19 N 0.0827(2) -0.24808(19) 0.31534(12)
C139 C 0.1176(3) -0.2465(3) 0.25911(16)
H163 H 0.0792 -0.2427 0.2341
H164 H 0.1249 -0.2001 0.2541
C140 C 0.1941(3) -0.3133(3) 0.24524(18)
H165 H 0.1866 -0.3595 0.2459
H166 H 0.2322 -0.3205 0.2715
C141 C 0.2260(3) -0.3010(4) 0.1909(2)
H167 H 0.1852 -0.2887 0.1656
H168 H 0.2369 -0.2568 0.1915
C142 C 0.2986(5) -0.3673(5) 0.1719(3)
H169 H 0.3151 -0.3556 0.1365
H170 H 0.2883 -0.4113 0.1708
H171 H 0.3401 -0.3786 0.1958
C143 C 0.0664(3) -0.3164(2) 0.32147(17)
H172 H 0.0358 -0.3151 0.2918
H173 H 0.1171 -0.3626 0.3184
C144 C 0.0230(3) -0.3234(3) 0.37225(17)
H174 H -0.0298 -0.2799 0.3747
H175 H 0.0515 -0.3226 0.4026
C145 C 0.0157(3) -0.3967(3) 0.37428(19)
H176 H -0.0081 -0.3994 0.3420
H177 H 0.0686 -0.4400 0.3747
C146 C -0.0330(3) -0.4040(3) 0.4215(2)
H178 H -0.0358 -0.4520 0.4207
H179 H -0.0859 -0.3619 0.4210
H180 H -0.0090 -0.4028 0.4536
C147 C 0.0069(3) -0.1747(2) 0.32307(18)
H181 H -0.0129 -0.1741 0.3602
H182 H 0.0198 -0.1318 0.3173
C148 C -0.0584(3) -0.1610(3) 0.28881(19)
H183 H -0.0730 -0.2029 0.2945
H184 H -0.0401 -0.1604 0.2514
C149 C -0.1299(3) -0.0864(3) 0.3005(2)
H185 H -0.1139 -0.0453 0.2965
H186 H -0.1682 -0.0767 0.2738
C150 C -0.1697(4) -0.0826(4) 0.3539(2)
H187 H -0.2145 -0.0325 0.3581
H188 H -0.1328 -0.0912 0.3808
H189 H -0.1880 -0.1215 0.3579
C151 C 0.1375(3) -0.2517(3) 0.35513(17)
H190 H 0.1802 -0.3041 0.3568
H191 H 0.1087 -0.2413 0.3900
C152 C 0.1740(3) -0.1979(3) 0.34539(18)
H192 H 0.1365 -0.1506 0.3280
H193 H 0.2214 -0.2213 0.3214
C153 C 0.1962(3) -0.1788(3) 0.39633(18)
H194 H 0.2363 -0.1607 0.3884
H195 H 0.2190 -0.2250 0.4192
C154 C 0.1240(3) -0.1172(3) 0.4255(2)
H196 H 0.1393 -0.1067 0.4585
H197 H 0.0841 -0.1350 0.4332
H198 H 0.1027 -0.0709 0.4034
N20 N 0.3796(3) 0.1853(3) 0.6499(2)
C155 C 0.2979(3) 0.1974(3) 0.6710(2)
H199 H 0.2685 0.1963 0.6413
H200 H 0.3032 0.1551 0.6957
C156 C 0.2512(3) 0.2715(3) 0.6988(2)
H201 H 0.2493 0.3141 0.6755
H202 H 0.2770 0.2710 0.7310
C157 C 0.1682(3) 0.2823(3) 0.71352(19)
H203 H 0.1436 0.2809 0.6813
H204 H 0.1707 0.2399 0.7373
C158 C 0.1194(4) 0.3543(3) 0.7396(2)
H205 H 0.0668 0.3589 0.7481
H206 H 0.1161 0.3966 0.7161
H207 H 0.1428 0.3554 0.7720
C159 C 0.4286(4) 0.1910(6) 0.6914(3)
H208 H 0.4069 0.2447 0.7008
H209 H 0.4823 0.1755 0.6757
C160 C 0.4336(4) 0.1439(5) 0.7415(3)
H210 H 0.4045 0.1789 0.7703
H211 H 0.4063 0.1129 0.7368
C161 C 0.5089(3) 0.0955(3) 0.7575(2)
H212 H 0.5374 0.1258 0.7607
H213 H 0.5372 0.0583 0.7298
C162 C 0.5107(3) 0.0529(3) 0.80901(19)
H214 H 0.5059 0.0071 0.8027
H215 H 0.4672 0.0852 0.8328
H216 H 0.5603 0.0389 0.8250
C163 C 0.3736(4) 0.2396(4) 0.6047(3)
H217 H 0.3391 0.2360 0.5795
H218 H 0.3471 0.2914 0.6183
C164 C 0.4460(4) 0.2306(5) 0.5755(3)
H219 H 0.4659 0.1855 0.5535
H220 H 0.4860 0.2219 0.6007
C165 C 0.4336(6) 0.3009(6) 0.5399(4)
H221 H 0.3874 0.3139 0.5194
H222 H 0.4205 0.3438 0.5630
C166 C 0.4949(6) 0.2959(6) 0.5047(5)
H223 H 0.4785 0.3430 0.4835
H224 H 0.5095 0.2534 0.4816
H225 H 0.5401 0.2878 0.5243
C167 C 0.4213(6) 0.1034(6) 0.6327(5)
H226 H 0.4754 0.0925 0.6202
H227 H 0.4249 0.0704 0.6642
C168 C 0.3882(7) 0.0813(5) 0.5927(5)
H228 H 0.3879 0.1098 0.5593
H229 H 0.3337 0.0915 0.6035
C169 C 0.4388(7) -0.0023(7) 0.5857(5)
H230 H 0.4897 -0.0120 0.5672
H231 H 0.4485 -0.0301 0.6201
C170 C 0.4002(6) -0.0215(9) 0.5589(5)
H232 H 0.4353 -0.0678 0.5405
H233 H 0.3729 0.0190 0.5330
H234 H 0.3618 -0.0308 0.5818
N21 N -0.1652(4) 0.4513(3) 0.4075(3)
C171 C -0.1304(5) 0.4316(5) 0.4539(4)
H235 H -0.1105 0.3799 0.4650
C172 C -0.1607(6) 0.3947(5) 0.3736(4)
H236 H -0.1315 0.3445 0.3901
H237 H -0.1339 0.3981 0.3399
H238 H -0.2136 0.4026 0.3677
C173 C -0.1919(5) 0.5266(4) 0.3847(3)
H239 H -0.2153 0.5297 0.3514
H240 H -0.1475 0.5384 0.3783
H241 H -0.2310 0.5631 0.4090
O23 O -0.1220(5) 0.4752(5) 0.4837(3)
N22 N 0.3289(6) 0.4545(7) 0.7753(5)
C174 C 0.3508(9) 0.3923(10) 0.7496(6)
H242 H 0.3754 0.3452 0.7683
C175 C 0.2811(9) 0.5195(12) 0.7524(9)
H243 H 0.3120 0.5407 0.7314
H244 H 0.2483 0.5552 0.7794
H245 H 0.2478 0.5106 0.7295
C176 C 0.3603(7) 0.4369(7) 0.8284(6)
H246 H 0.3905 0.3820 0.8334
H247 H 0.3168 0.4561 0.8551
H248 H 0.3941 0.4612 0.8317
O24 O 0.3406(4) 0.3915(5) 0.6988(3)
O25 O 0.3794(3) -0.0027(4) -0.2753(2)
H249 H 0.423(2) -0.033(4) -0.266(3)
H250 H 0.346(3) 0.002(5) -0.251(2)
C177? C 0.4633(18) -0.0390(10) 0.5418(7)
H251? H 0.4951 -0.0931 0.5498
H252? H 0.4951 -0.0195 0.5201
H253? H 0.4182 -0.0320 0.5227
C178? C 0.4336(10) -0.3227(10) 0.2996(7)
H254? H 0.4479 -0.3046 0.3303
H255? H 0.4744 -0.3301 0.2712
C179? C 0.4398(12) -0.4138(12) 0.3176(9)
H256? H 0.4182 -0.4119 0.3544
H257? H 0.4052 -0.4226 0.2953
C180? C 0.5174(14) -0.4800(14) 0.3140(10)
H258? H 0.5575 -0.4632 0.3193
H259? H 0.5271 -0.4994 0.2780
C181? C 0.5280(15) -0.5464(15) 0.3543(11)
H260? H 0.4925 -0.5689 0.3493
H261? H 0.5236 -0.5322 0.3913
C182? C 0.6182(17) -0.5996(16) 0.3331(11)
H262? H 0.6546 -0.5771 0.3348
H263? H 0.6242 -0.6234 0.2990
C183? C 0.4336(10) -0.3227(10) 0.2996(7)
H264? H 0.4719 -0.3022 0.3001
H265? H 0.4538 -0.3620 0.2727
C184? C 0.4318(10) -0.3631(10) 0.3552(7)
H266? H 0.4442 -0.3379 0.3826
H267? H 0.3788 -0.3587 0.3640
C185? C 0.4927(16) -0.4481(15) 0.3537(12)
H268? H 0.5243 -0.4470 0.3820
H269? H 0.5225 -0.4441 0.3211
C186? C 0.5280(15) -0.5464(15) 0.3543(11)
H270? H 0.5217 -0.5632 0.3910
H271? H 0.4935 -0.5573 0.3332
C187? C 0.6182(17) -0.5996(16) 0.3331(11)
H272? H 0.6546 -0.5771 0.3348
H273? H 0.6242 -0.6234 0.2990
loop_
_geom_bond_atom_site_label_1
_geom_bond_atom_site_label_2
_geom_bond_site_symmetry_1
_geom_bond_site_symmetry_2
S1 O1 1_555 1_555
O2 S1 1_555 1_555
O3 S1 1_555 1_555
O4 S1 1_555 1_555
C1 H1 1_555 1_555
C2 C1 1_555 1_555
C3 C2 1_555 1_555
H2 C3 1_555 1_555
C4 C3 1_555 1_555
C5 C4 1_555 1_555
H3 C5 1_555 1_555
C6 C1 1_555 1_555
C7 C2 1_555 1_555
C8 H4 1_555 1_555
H5 C8 1_555 1_555
H6 C8 1_555 1_555
C9 C10 1_555 1_555
C10 H7 1_555 1_555
C11 C10 1_555 1_555
H8 C11 1_555 1_555
C12 C11 1_555 1_555
C13 C12 1_555 1_555
H9 C13 1_555 1_555
C14 C9 1_555 1_555
H10 C14 1_555 1_555
C15 O6 1_555 1_555
C16 C17 1_555 1_555
C17 H11 1_555 1_555
C18 C17 1_555 1_555
H12 C18 1_555 1_555
C19 C18 1_555 1_555
C20 C19 1_555 1_555
H13 C20 1_555 1_555
C21 C16 1_555 1_555
H14 C21 1_555 1_555
C22 H15 1_555 1_555
H16 C22 1_555 1_555
C23 C22 1_555 1_555
H17 C23 1_555 1_555
H18 C23 1_555 1_555
C24 C23 1_555 1_555
H19 C24 1_555 1_555
H20 C24 1_555 1_555
C25 C24 1_555 1_555
H21 C25 1_555 1_555
H22 C25 1_555 1_555
C26 C25 1_555 1_555
H23 C26 1_555 1_555
H24 C26 1_555 1_555
C27 C26 1_555 1_555
H25 C27 1_555 1_555
H26 C27 1_555 1_555
H27 C27 1_555 1_555
C28 C4 1_555 1_555
C29 H28 1_555 1_555
H29 C29 1_555 1_555
H30 C29 1_555 1_555
C30 C31 1_555 1_555
C31 H31 1_555 1_555
C32 C31 1_555 1_555
H32 C32 1_555 1_555
C33 C32 1_555 1_555
C34 C33 1_555 1_555
H33 C34 1_555 1_555
C35 C30 1_555 1_555
H34 C35 1_555 1_555
C36 O9 1_555 1_555
C37 C38 1_555 1_555
C38 H35 1_555 1_555
C39 C38 1_555 1_555
H36 C39 1_555 1_555
C40 C39 1_555 1_555
C41 C40 1_555 1_555
H37 C41 1_555 1_555
C42 C37 1_555 1_555
H38 C42 1_555 1_555
C43 H39 1_555 1_555
H40 C43 1_555 1_555
C44 C43 1_555 1_555
H41 C44 1_555 1_555
H42 C44 1_555 1_555
C45 C44 1_555 1_555
H43 C45 1_555 1_555
H44 C45 1_555 1_555
C46 C45 1_555 1_555
H45 C46 1_555 1_555
H46 C46 1_555 1_555
C47 C46 1_555 1_555
H47 C47 1_555 1_555
H48 C47 1_555 1_555
C48 C47 1_555 1_555
H49 C48 1_555 1_555
H50 C48 1_555 1_555
H51 C48 1_555 1_555
C49 C6 1_555 1_555
C50 H52 1_555 1_555
H53 C50 1_555 1_555
H54 C50 1_555 1_555
C51 C52 1_555 1_555
C52 H55 1_555 1_555
C53 C52 1_555 1_555
H56 C53 1_555 1_555
C54 C53 1_555 1_555
C55 C54 1_555 1_555
H57 C55 1_555 1_555
C56 C51 1_555 1_555
H58 C56 1_555 1_555
C57 O12 1_555 1_555
C58 C59 1_555 1_555
C59 H59 1_555 1_555
C60 C59 1_555 1_555
H60 C60 1_555 1_555
C61 C60 1_555 1_555
C62 C61 1_555 1_555
H61 C62 1_555 1_555
C63 C58 1_555 1_555
H62 C63 1_555 1_555
C64 H63 1_555 1_555
H64 C64 1_555 1_555
C65 C64 1_555 1_555
H65 C65 1_555 1_555
H66 C65 1_555 1_555
C66 C65 1_555 1_555
H67 C66 1_555 1_555
H68 C66 1_555 1_555
C67 C66 1_555 1_555
H69 C67 1_555 1_555
H70 C67 1_555 1_555
C68 C67 1_555 1_555
H71 C68 1_555 1_555
H72 C68 1_555 1_555
C69 C68 1_555 1_555
H73 C69 1_555 1_555
H74 C69 1_555 1_555
H75 C69 1_555 1_555
O5 C7 1_555 1_555
O7 C19 1_555 1_555
O8 C28 1_555 1_555
O10 C40 1_555 1_555
O11 C49 1_555 1_555
O13 C61 1_555 1_555
N1 C7 1_555 1_555
N2 C12 1_555 1_555
H76 N2 1_555 1_555
N3 C15 1_555 1_555
H77 N3 1_555 1_555
N4 C28 1_555 1_555
N5 C33 1_555 1_555
H78 N5 1_555 1_555
N6 C36 1_555 1_555
H79 N6 1_555 1_555
N7 C49 1_555 1_555
N8 C54 1_555 1_555
H80 N8 1_555 1_555
N9 C57 1_555 1_555
H81 N9 1_555 1_555
C70 H82 1_555 1_555
C71 C70 1_555 1_555
C72 C71 1_555 1_555
H83 C72 1_555 1_555
C73 C72 1_555 1_555
C74 C73 1_555 1_555
H84 C74 1_555 1_555
C75 C70 1_555 1_555
C76 C75 1_555 1_555
C77 H85 1_555 1_555
H86 C77 1_555 1_555
H87 C77 1_555 1_555
C78 C79 1_555 1_555
C79 H88 1_555 1_555
C80 C79 1_555 1_555
H89 C80 1_555 1_555
C81 C80 1_555 1_555
C82 C81 1_555 1_555
H90 C82 1_555 1_555
C83 C78 1_555 1_555
H91 C83 1_555 1_555
C84 O21 1_555 1_555
C85 C86 1_555 1_555
C86 H92 1_555 1_555
C87 C86 1_555 1_555
H93 C87 1_555 1_555
C88 C87 1_555 1_555
C89 C88 1_555 1_555
H94 C89 1_555 1_555
C90 C85 1_555 1_555
H95 C90 1_555 1_555
C91 H96 1_555 1_555
H97 C91 1_555 1_555
C92 C91 1_555 1_555
H98 C92 1_555 1_555
H99 C92 1_555 1_555
C93 C92 1_555 1_555
H100 C93 1_555 1_555
H101 C93 1_555 1_555
C94 C93 1_555 1_555
H102 C94 1_555 1_555
H103 C94 1_555 1_555
C95 C94 1_555 1_555
H104 C95 1_555 1_555
H105 C95 1_555 1_555
C96 C95 1_555 1_555
H106 C96 1_555 1_555
H107 C96 1_555 1_555
H108 C96 1_555 1_555
C97 C73 1_555 1_555
C98 H109 1_555 1_555
H110 C98 1_555 1_555
H111 C98 1_555 1_555
C99 C100 1_555 1_555
C100 H112 1_555 1_555
C101 C100 1_555 1_555
H113 C101 1_555 1_555
C102 C101 1_555 1_555
C103 C102 1_555 1_555
H114 C103 1_555 1_555
C104 C99 1_555 1_555
H115 C104 1_555 1_555
C105 O18 1_555 1_555
C106 C107 1_555 1_555
C107 H116 1_555 1_555
C108 C107 1_555 1_555
H117 C108 1_555 1_555
C109 C108 1_555 1_555
C110 C109 1_555 1_555
H118 C110 1_555 1_555
C111 C106 1_555 1_555
H119 C111 1_555 1_555
C112 C71 1_555 1_555
C113 H120 1_555 1_555
H121 C113 1_555 1_555
H122 C113 1_555 1_555
C114 C115 1_555 1_555
C115 H123 1_555 1_555
C116 C115 1_555 1_555
H124 C116 1_555 1_555
C117 C116 1_555 1_555
C118 C117 1_555 1_555
H125 C118 1_555 1_555
C119 C114 1_555 1_555
H126 C119 1_555 1_555
C120 O15 1_555 1_555
C121 C122 1_555 1_555
C122 H127 1_555 1_555
C123 C122 1_555 1_555
H128 C123 1_555 1_555
C124 C123 1_555 1_555
C125 C124 1_555 1_555
H129 C125 1_555 1_555
C126 C121 1_555 1_555
H130 C126 1_555 1_555
C127 H131 1_555 1_555
H132 C127 1_555 1_555
C128 C127 1_555 1_555
H133 C128 1_555 1_555
H134 C128 1_555 1_555
C129 C128 1_555 1_555
H135 C129 1_555 1_555
H136 C129 1_555 1_555
C130 C129 1_555 1_555
H137 C130 1_555 1_555
H138 C130 1_555 1_555
C131 C130 1_555 1_555
H139 C131 1_555 1_555
H140 C131 1_555 1_555
C132 C131 1_555 1_555
H141 C132 1_555 1_555
H142 C132 1_555 1_555
H143 C132 1_555 1_555
O14 C112 1_555 1_555
O16 C124 1_555 1_555
O17 C97 1_555 1_555
O19 C109 1_555 1_555
O20 C76 1_555 1_555
O22 C88 1_555 1_555
N10 C112 1_555 1_555
N11 C117 1_555 1_555
H144 N11 1_555 1_555
N12 C120 1_555 1_555
H145 N12 1_555 1_555
N13 C97 1_555 1_555
N14 C102 1_555 1_555
H146 N14 1_555 1_555
N15 C105 1_555 1_555
H147 N15 1_555 1_555
N16 C76 1_555 1_555
N17 C81 1_555 1_555
H148 N17 1_555 1_555
N18 C84 1_555 1_555
H149 N18 1_555 1_555
C133 O19 1_555 1_555
H150 C133 1_555 1_555
H151 C133 1_555 1_555
C134 C133 1_555 1_555
H152 C134 1_555 1_555
H153 C134 1_555 1_555
C135 C134 1_555 1_555
H154 C135 1_555 1_555
H155 C135 1_555 1_555
C136 C135 1_555 1_555
H156 C136 1_555 1_555
H157 C136 1_555 1_555
C137 H158 1_555 1_555
H159 C137 1_555 1_555
H160 C137 1_555 1_555
C138 C136 1_555 1_555
H161 C138 1_555 1_555
H162 C138 1_555 1_555
N19 C139 1_555 1_555
C139 H163 1_555 1_555
H164 C139 1_555 1_555
C140 C139 1_555 1_555
H165 C140 1_555 1_555
H166 C140 1_555 1_555
C141 C140 1_555 1_555
H167 C141 1_555 1_555
H168 C141 1_555 1_555
C142 C141 1_555 1_555
H169 C142 1_555 1_555
H170 C142 1_555 1_555
H171 C142 1_555 1_555
C143 N19 1_555 1_555
H172 C143 1_555 1_555
H173 C143 1_555 1_555
C144 C143 1_555 1_555
H174 C144 1_555 1_555
H175 C144 1_555 1_555
C145 C144 1_555 1_555
H176 C145 1_555 1_555
H177 C145 1_555 1_555
C146 C145 1_555 1_555
H178 C146 1_555 1_555
H179 C146 1_555 1_555
H180 C146 1_555 1_555
C147 N19 1_555 1_555
H181 C147 1_555 1_555
H182 C147 1_555 1_555
C148 C147 1_555 1_555
H183 C148 1_555 1_555
H184 C148 1_555 1_555
C149 C148 1_555 1_555
H185 C149 1_555 1_555
H186 C149 1_555 1_555
C150 C149 1_555 1_555
H187 C150 1_555 1_555
H188 C150 1_555 1_555
H189 C150 1_555 1_555
C151 N19 1_555 1_555
H190 C151 1_555 1_555
H191 C151 1_555 1_555
C152 C151 1_555 1_555
H192 C152 1_555 1_555
H193 C152 1_555 1_555
C153 C152 1_555 1_555
H194 C153 1_555 1_555
H195 C153 1_555 1_555
C154 C153 1_555 1_555
H196 C154 1_555 1_555
H197 C154 1_555 1_555
H198 C154 1_555 1_555
N20 C155 1_555 1_555
C155 H199 1_555 1_555
H200 C155 1_555 1_555
C156 C155 1_555 1_555
H201 C156 1_555 1_555
H202 C156 1_555 1_555
C157 C156 1_555 1_555
H203 C157 1_555 1_555
H204 C157 1_555 1_555
C158 C157 1_555 1_555
H205 C158 1_555 1_555
H206 C158 1_555 1_555
H207 C158 1_555 1_555
C159 N20 1_555 1_555
H208 C159 1_555 1_555
H209 C159 1_555 1_555
C160 C159 1_555 1_555
H210 C160 1_555 1_555
H211 C160 1_555 1_555
C161 C160 1_555 1_555
H212 C161 1_555 1_555
H213 C161 1_555 1_555
C162 C161 1_555 1_555
H214 C162 1_555 1_555
H215 C162 1_555 1_555
H216 C162 1_555 1_555
C163 N20 1_555 1_555
H217 C163 1_555 1_555
H218 C163 1_555 1_555
C164 C163 1_555 1_555
H219 C164 1_555 1_555
H220 C164 1_555 1_555
C165 C164 1_555 1_555
H221 C165 1_555 1_555
H222 C165 1_555 1_555
C166 C165 1_555 1_555
H223 C166 1_555 1_555
H224 C166 1_555 1_555
H225 C166 1_555 1_555
C167 N20 1_555 1_555
H226 C167 1_555 1_555
H227 C167 1_555 1_555
C168 C167 1_555 1_555
H228 C168 1_555 1_555
H229 C168 1_555 1_555
C169 C168 1_555 1_555
H230 C169 1_555 1_555
H231 C169 1_555 1_555
C170 C169 1_555 1_555
H232 C170 1_555 1_555
H233 C170 1_555 1_555
H234 C170 1_555 1_555
N21 C171 1_555 1_555
C171 H235 1_555 1_555
C172 N21 1_555 1_555
H236 C172 1_555 1_555
H237 C172 1_555 1_555
H238 C172 1_555 1_555
C173 N21 1_555 1_555
H239 C173 1_555 1_555
H240 C173 1_555 1_555
H241 C173 1_555 1_555
O23 C171 1_555 1_555
N22 C174 1_555 1_555
C174 H242 1_555 1_555
C175 N22 1_555 1_555
H243 C175 1_555 1_555
H244 C175 1_555 1_555
H245 C175 1_555 1_555
C176 N22 1_555 1_555
H246 C176 1_555 1_555
H247 C176 1_555 1_555
H248 C176 1_555 1_555
O24 C174 1_555 1_555
O25 H249 1_555 1_555
H250 O25 1_555 1_555
C5 C6 1_555 1_555
C8 N1 1_555 1_555
C9 N1 1_555 1_555
C13 C14 1_555 1_555
C15 N2 1_555 1_555
C16 N3 1_555 1_555
C20 C21 1_555 1_555
C22 O7 1_555 1_555
C29 N4 1_555 1_555
C30 N4 1_555 1_555
C34 C35 1_555 1_555
C36 N5 1_555 1_555
C37 N6 1_555 1_555
C41 C42 1_555 1_555
C43 O10 1_555 1_555
C50 N7 1_555 1_555
C51 N7 1_555 1_555
C55 C56 1_555 1_555
C57 N8 1_555 1_555
C58 N9 1_555 1_555
C62 C63 1_555 1_555
C64 O13 1_555 1_555
C74 C75 1_555 1_555
C77 N16 1_555 1_555
C78 N16 1_555 1_555
C82 C83 1_555 1_555
C84 N17 1_555 1_555
C85 N18 1_555 1_555
C89 C90 1_555 1_555
C91 O22 1_555 1_555
C98 N13 1_555 1_555
C99 N13 1_555 1_555
C103 C104 1_555 1_555
C105 N14 1_555 1_555
C106 N15 1_555 1_555
C110 C111 1_555 1_555
C113 N10 1_555 1_555
C114 N10 1_555 1_555
C118 C119 1_555 1_555
C120 N11 1_555 1_555
C121 N12 1_555 1_555
C125 C126 1_555 1_555
C127 O16 1_555 1_555
C137 C138 1_555 1_555

#END
