
#######################################################################
#
#                 Cambridge Crystallographic Data Centre
#                                CCDC 
#
#######################################################################
#
# If this CIF has been generated from an entry in the Cambridge 
# Structural Database, then it will include bibliographic, chemical, 
# crystal, experimental, refinement or atomic coordinate data resulting 
# from the CCDC's data processing and validation procedures.
#
#######################################################################

data_YUBKIR
_chemical_formula_moiety         
'2(C16 H36 N1 1+),2(C54 H42 F9 N9 O6),2(H2 O4 P1 1-),C3 H7 N1 O1,H2 O1'
_chemical_name_systematic        
'bis(Tetra-n-butylammonium) bis(N^1^,N^3^,N^5^-trimethyl-N^1^,N^3^,N^5^-tris(4-(3-(4-(trifluoromethyl)phenyl)ureido)phenyl)-benzene-1,3,5-tricarboxamide) bis(dihydrogen phosphate) clathrate N,N-dimethylformamide solvate monohydrate'
_symmetry_cell_setting           triclinic
_symmetry_space_group_name_H-M   'P -1'
_symmetry_Int_Tables_number      2
_space_group_name_Hall           '-P 1'
loop_
_symmetry_equiv_pos_site_id
_symmetry_equiv_pos_as_xyz
1 x,y,z
2 -x,-y,-z
_cell_length_a                   18.8176(5)
_cell_length_b                   19.9552(5)
_cell_length_c                   26.3802(7)
_cell_angle_alpha                84.2870(10)
_cell_angle_beta                 84.232(2)
_cell_angle_gamma                66.1840(10)
_cell_volume                     8997.65
_cell_formula_units_Z            2
loop_
_atom_site_label
_atom_site_type_symbol
_atom_site_fract_x
_atom_site_fract_y
_atom_site_fract_z
P1 P 0.86196(12) 0.30218(9) 0.73259(6)
O1 O 0.8987(3) 0.2194(2) 0.71715(16)
H1 H 0.8687 0.2127 0.6986
O2 O 0.7840(3) 0.3132(3) 0.76245(18)
O3 O 0.9177(3) 0.3104(3) 0.7652(2)
O4 O 0.8480(4) 0.3531(3) 0.6843(2)
H2 H 0.8163 0.3465 0.6672
P2 P 0.71971(11) 0.21563(9) 0.69086(7)
O5 O 0.8030(3) 0.1872(3) 0.67289(18)
O6 O 0.6805(4) 0.1633(3) 0.6895(2)
O7 O 0.6735(3) 0.2849(3) 0.6553(2)
H3 H 0.6910 0.3172 0.6566
O8 O 0.7110(3) 0.2402(3) 0.7457(2)
H4 H 0.7276 0.2735 0.7457
C1 C 0.9021(7) 0.3503(5) 0.8966(3)
C2 C 1.0389(7) 0.2844(5) 0.9061(3)
H5 H 1.0882 0.2513 0.8931
C3 C 0.7655(7) 0.4104(6) 0.8741(4)
C4 C 0.9756(6) 0.3069(5) 0.8773(3)
H6 H 0.9824 0.2923 0.8434
C5 C 1.2221(7) 0.3259(5) 0.8837(5)
H7 H 1.2609 0.2772 0.8843
C6 C 1.0310(8) 0.3096(6) 0.9537(4)
C7 C 0.6404(7) 0.4567(5) 0.8336(4)
C8 C 1.1701(10) 0.2886(7) 0.9674(5)
H8 H 0.7435 0.3749 0.8128
C9 C 0.8964(13) -0.1276(12) 0.8417(8)
F1 F 0.8664(9) -0.1387(8) 0.7989(4)
F2 F 0.8434(8) -0.1053(7) 0.8762(5)
F3 F 0.9567(6) -0.1842(7) 0.8520(6)
C10 C 1.1670(8) 0.3439(5) 0.9231(4)
C11 C 0.8949(8) 0.3748(6) 0.9457(4)
H9 H 0.8454 0.4058 0.9599
C12 C 0.6047(7) 0.4457(6) 0.7966(4)
H10 H 0.6314 0.4057 0.7756
C13 C 0.5291(8) 0.4918(7) 0.7882(5)
H11 H 0.5058 0.4860 0.7596
C14 C 0.9593(9) 0.3538(7) 0.9729(4)
H12 H 0.9538 0.3705 1.0062
C15 C 0.5983(8) 0.5102(8) 0.8679(7)
H13 H 0.6212 0.5163 0.8967
C16 C 0.5213(10) 0.5542(9) 0.8581(7)
H14 H 0.4920 0.5925 0.8799
C17 C 0.4877(8) 0.5447(9) 0.8196(7)
C18 C 1.0982(11) 0.2414(9) 1.0313(4)
H15 H 1.0544 0.2264 1.0323
H16 H 1.0922 0.2699 1.0608
H17 H 1.1470 0.1976 1.0325
C19 C 1.1235(5) 0.2080(4) 0.7828(3)
C20 C 0.9800(6) 0.0491(5) 0.7968(3)
C21 C 1.0657(5) 0.1157(4) 0.7936(3)
C22 C 1.1113(6) 0.2784(5) 0.7615(3)
H18 H 1.0629 0.3081 0.7476
C23 C 1.1953(5) 0.1668(4) 0.8030(4)
H19 H 1.2056 0.1185 0.8176
C24 C 0.9228(8) 0.0422(5) 0.7706(4)
H20 H 0.8996 0.0771 0.7435
C25 C 1.1696(8) 0.4446(5) 0.8437(5)
H21 H 1.1707 0.4791 0.8164
C26 C 1.2372(6) 0.2655(5) 0.7798(4)
C27 C 1.2250(8) 0.3728(5) 0.8439(5)
H22 H 1.0220 0.2184 0.7714
C28 C 0.9267(11) -0.0625(7) 0.8235(5)
C29 C 0.9875(11) -0.0588(7) 0.8486(5)
H23 H 1.0109 -0.0951 0.8748
C30 C 1.1670(7) 0.3052(5) 0.7603(3)
H24 H 1.1568 0.3533 0.7454
C31 C 0.9004(8) -0.0134(6) 0.7832(4)
H25 H 0.8642 -0.0187 0.7629
C32 C 1.0141(9) -0.0035(6) 0.8361(5)
H26 H 1.0546 -0.0013 0.8537
C33 C 1.2506(6) 0.1939(5) 0.8024(4)
H27 H 1.2986 0.1651 0.8170
C34 C 1.3653(10) 0.2641(10) 0.7380(8)
H28 H 1.3449 0.2747 0.7041
H29 H 1.3932 0.2110 0.7443
H30 H 1.4011 0.2883 0.7397
C35 C 1.2888(10) 0.3517(7) 0.8028(6)
H31 H 0.9622 0.1458 0.7596
C36 C 0.9733(4) 0.4213(4) 0.5249(3)
H32 H 1.0077 0.4425 0.5325
C37 C 0.9309(4) 0.3979(3) 0.5648(3)
C38 C 0.8788(4) 0.3695(4) 0.5518(3)
H33 H 0.8492 0.3544 0.5782
C39 C 0.9138(5) 0.3851(5) 0.4630(3)
C40 C 0.8693(5) 0.3630(5) 0.5020(3)
H34 H 0.8333 0.3440 0.4938
C41 C 0.9822(7) 0.4658(4) 0.7265(3)
C42 C 0.9714(5) 0.4371(5) 0.6388(3)
C43 C 0.9568(5) 0.4564(5) 0.7770(3)
H35 H 0.9291 0.4257 0.7854
C44 C 0.9647(5) 0.4132(4) 0.4751(3)
H36 H 0.9948 0.4274 0.4485
C45 C 0.9711(7) 0.4907(5) 0.8149(4)
H37 H 0.9547 0.4829 0.8494
C46 C 1.1096(8) 0.4183(5) 0.9229(4)
H38 H 1.0705 0.4335 0.9500
C47 C 1.1126(8) 0.4656(5) 0.8835(5)
C48 C 1.0097(8) 0.5370(5) 0.8022(5)
C49 C 1.0214(8) 0.5105(5) 0.7149(4)
H39 H 1.0394 0.5172 0.6806
C50 C 1.0540(9) 0.5444(5) 0.8856(5)
C51 C 1.0351(9) 0.5466(6) 0.7534(5)
H40 H 1.0622 0.5778 0.7452
C52 C 0.9006(11) 0.3804(10) 0.4040(7)
C53 C 0.9711(12) 0.6586(5) 0.8418(7)
H41 H 1.0037 0.6861 0.8314
H42 H 0.9469 0.6711 0.8761
H43 H 0.9306 0.6713 0.8177
N1 N 0.7198(5) 0.4101(4) 0.8394(3)
N2 N 0.8413(5) 0.3677(4) 0.8657(3)
H44 H 0.8542 0.3478 0.8360
N3 N 1.0994(9) 0.2853(5) 0.9853(3)
N4 N 1.0631(4) 0.1849(3) 0.7825(2)
N5 N 0.9999(4) 0.1088(3) 0.7831(3)
N6 N 1.2998(7) 0.2921(5) 0.7774(4)
N7 N 0.9381(4) 0.3985(4) 0.6159(2)
H45 H 0.9194 0.3712 0.6365
N8 N 0.9642(5) 0.4273(3) 0.6913(3)
H46 H 0.9466 0.3939 0.7040
N9 N 1.0212(7) 0.5768(4) 0.8420(4)
O9 O 0.7403(5) 0.4472(5) 0.9133(3)
O10 O 1.2286(6) 0.2543(4) 0.9885(3)
O11 O 1.0029(4) 0.4743(4) 0.6164(2)
O12 O 1.3298(8) 0.3876(6) 0.7908(5)
O13 O 1.0447(7) 0.5764(4) 0.9240(4)
F4 F 0.3666(8) 0.6357(8) 0.8440(6)
F5 F 0.4046(11) 0.6492(11) 0.7691(7)
F6 F 0.3637(7) 0.5594(7) 0.7890(4)
F7 F 0.9674(4) 0.3624(3) 0.3794(2)
F8 F 0.8620(6) 0.3404(6) 0.4035(4)
F9 F 0.8485(5) 0.4522(5) 0.3885(3)
O14 O 1.1248(5) 0.0645(3) 0.8108(3)
C54 C 0.3998(17) 0.5947(17) 0.8054(11)
O15 O 0.7270(4) 0.3842(3) 0.62948(15)
H47 H 0.7049 0.4329 0.6375
H48 H 0.7346 0.3860 0.5925
C55 C 0.5495(17) 0.2193(17) 0.4204(11)
H49 H 0.5238 0.1953 0.4455
H50 H 0.6003 0.1830 0.4085
H51 H 0.5172 0.2406 0.3913
C56 C 0.558(3) 0.262(3) 0.4377(17)
H52 H 0.5755 0.2918 0.4117
H53 H 0.5966 0.2405 0.4637
C57 C 0.2509(18) 0.3117(18) 0.6308(12)
H54 H 0.3054 0.2950 0.6176
H55 H 0.2452 0.2760 0.6575
H56 H 0.2349 0.3595 0.6453
N10 N 0.3195(5) 0.3905(3) 0.4754(3)
C58 C 0.2977(7) 0.3463(9) 0.5199(4)
H57 H 0.3099 0.2976 0.5071
H58 H 0.3354 0.3382 0.5458
C59 C 0.2457(8) 0.3622(10) 0.4153(6)
H59 H 0.2928 0.3375 0.3928
H60 H 0.2408 0.3252 0.4418
C60 C 0.1519(9) 0.3634(7) 0.3541(6)
H61 H 0.1798 0.3633 0.3207
H62 H 0.0961 0.3922 0.3511
H63 H 0.1606 0.3129 0.3664
C61 C 0.3929(9) 0.3401(8) 0.4492(6)
H64 H 0.3845 0.2955 0.4439
H65 H 0.3968 0.3639 0.4149
C62 C 0.2552(9) 0.4226(7) 0.4408(5)
H66 H 0.2666 0.4565 0.4144
H67 H 0.2062 0.4510 0.4604
C63 C 0.2270(10) 0.3647(6) 0.5464(6)
H68 H 0.1893 0.3705 0.5210
H69 H 0.2134 0.4142 0.5582
C64 C 0.1760(9) 0.3907(17) 0.3845(5)
H70 H 0.1317 0.4099 0.4101
H71 H 0.1790 0.4346 0.3650
C65 C 0.2075(11) 0.3180(11) 0.5942(7)
H72 H 0.1520 0.3425 0.6061
H73 H 0.2166 0.2686 0.5840
C66 C 0.4632(18) 0.3166(14) 0.4670(8)
H74 H 0.4593 0.2895 0.5000
H75 H 0.4680 0.3616 0.4758
C67 C 0.3333(9) 0.4454(6) 0.5053(5)
C68 C 0.3735(11) 0.5486(8) 0.5085(5)
H76 H 0.3318 0.5689 0.5356
H77 H 0.4221 0.5179 0.5251
C69 C 0.3485(9) 0.4937(11) 0.4717(4)
H78 H 0.3020 0.5240 0.4527
H79 H 0.3920 0.4681 0.4469
C70 C 0.3845(9) 0.6089(7) 0.4775(5)
H80 H 0.4342 0.5898 0.4571
H81 H 0.3848 0.6452 0.4998
H82 H 0.3419 0.6321 0.4547
C71 C 0.7695(10) 0.1227(10) 0.3011(7)
H83 H 0.7464 0.1767 0.3025
H84 H 0.7273 0.1054 0.3111
C72 C 0.7977(11) 0.1047(11) 0.2434(7)
H85 H 0.8444 0.1155 0.2339
H86 H 0.8125 0.0517 0.2399
C73 C 0.7344(19) 0.1494(19) 0.2071(12)
H87 H 0.6876 0.1390 0.2173
H88 H 0.7202 0.2022 0.2107
C74 C 0.759(3) 0.133(3) 0.151(2)
H89 H 0.8127 0.1276 0.1430
H90 H 0.7247 0.1739 0.1288
H91 H 0.7538 0.0878 0.1439
C75 C 0.7920(12) 0.1197(12) 0.4892(8)
H92 H 0.7412 0.1160 0.4886
H93 H 0.8199 0.0833 0.5163
C76 C 0.7754(18) 0.1838(18) 0.5069(12)
H94 H 0.8216 0.1953 0.5025
H95 H 0.7587 0.1823 0.5433
H96 H 0.7333 0.2216 0.4882
N11 N 0.8260(4) 0.0928(4) 0.3389(3)
C77 C 0.8617(7) 0.0089(6) 0.3342(5)
H97 H 0.8763 -0.0003 0.2977
H98 H 0.9104 -0.0121 0.3523
C78 C 0.8142(6) -0.0311(5) 0.3534(4)
H99 H 0.7591 -0.0006 0.3470
H100 H 0.8180 -0.0414 0.3907
C79 C 0.8399(8) -0.1022(6) 0.3281(4)
H101 H 0.8956 -0.1318 0.3333
H102 H 0.8341 -0.0918 0.2909
C80 C 0.7909(12) -0.1475(7) 0.3503(4)
H103 H 0.7361 -0.1141 0.3557
H104 H 0.8104 -0.1729 0.3830
H105 H 0.7954 -0.1836 0.3262
C81 C 0.8938(8) 0.1128(8) 0.3237(5)
H106 H 0.9298 0.0966 0.3516
H107 H 0.9223 0.0871 0.2930
C82 C 0.8029(15) 0.1086(9) 0.3911(6)
H108 H 0.7820 0.1628 0.3903
H109 H 0.7569 0.0960 0.3983
C83 C 0.8696(10) 0.1885(11) 0.3133(7)
H110 H 0.8511 0.2148 0.3450
H111 H 0.8273 0.2073 0.2895
C84 C 0.9523(13) 0.1986(15) 0.2856(13)
H112 H 0.9975 0.1708 0.3062
H113 H 0.9646 0.1811 0.2507
C85 C 0.8401(13) 0.0867(13) 0.4355(9)
H114 H 0.8864 0.0990 0.4310
H115 H 0.8593 0.0325 0.4398
C86 C 0.9338(17) 0.2734(18) 0.2844(12)
H116 H 0.9793 0.2833 0.2707
H117 H 0.9188 0.2901 0.3191
H118 H 0.8905 0.2997 0.2626
C87 C 0.9138(4) 0.0310(4) 0.6093(3)
C88 C 0.6699(4) -0.1583(3) 0.6306(3)
H119 H 0.7225 -0.1830 0.6183
C89 C 0.8338(4) -0.0322(3) 0.6555(2)
C90 C 0.8769(4) -0.1027(4) 0.6408(3)
H120 H 0.9207 -0.1122 0.6170
C91 C 0.8561(4) -0.1594(4) 0.6609(3)
H121 H 0.8868 -0.2076 0.6508
C92 C 0.9815(4) 0.1794(4) 0.5908(3)
H122 H 0.9539 0.2032 0.6205
C93 C 0.7688(4) -0.0209(4) 0.6898(3)
H123 H 0.7370 0.0275 0.6991
C94 C 1.0745(4) 0.1701(3) 0.5194(3)
C95 C 0.7928(4) -0.1486(4) 0.6947(3)
C96 C 0.9705(4) 0.1199(4) 0.5763(2)
C97 C 0.7498(4) -0.0779(4) 0.7101(3)
H124 H 0.7073 -0.0692 0.7349
C98 C 1.1264(4) 0.1990(4) 0.4872(3)
C99 C 0.6487(4) -0.1627(3) 0.6820(3)
C100 C 0.7065(5) -0.2114(4) 0.7194(3)
H125 H 0.8765 0.1348 0.6261
C101 C 1.0126(5) 0.0853(5) 0.5330(3)
H126 H 1.0058 0.0442 0.5225
C102 C 1.0642(5) 0.1105(4) 0.5052(3)
H127 H 1.0929 0.0863 0.4759
C103 C 1.0329(4) 0.2051(4) 0.5621(3)
H128 H 1.0393 0.2467 0.5720
C104 C 0.8336(6) -0.2611(5) 0.7516(4)
H129 H 0.8862 -0.2725 0.7358
H130 H 0.8245 -0.3064 0.7579
H131 H 0.8282 -0.2390 0.7841
C105 C 0.5158(4) -0.0818(4) 0.6658(3)
C106 C 0.5727(4) -0.1258(4) 0.6997(3)
H132 H 0.5583 -0.1300 0.7351
C107 C 0.4737(5) 0.0210(5) 0.7427(4)
C108 C 0.5037(5) 0.0628(4) 0.7073(4)
H133 H 0.4879 0.0734 0.6733
C109 C 0.4335(5) -0.0438(5) 0.6862(4)
H134 H 0.7155 0.1579 0.7994
C110 C 0.5779(6) 0.0760(5) 0.7724(3)
C111 C 0.5565(6) 0.0880(4) 0.7226(3)
H135 H 0.5783 0.1142 0.6984
C112 C 0.6696(9) 0.0913(6) 0.8275(4)
C113 C 0.4965(7) 0.0095(6) 0.7923(4)
H136 H 0.4755 -0.0171 0.8167
C114 C 0.8764(15) 0.1214(10) 0.9327(7)
C115 C 0.5485(8) 0.0352(6) 0.8076(4)
H137 H 0.5640 0.0252 0.8417
C116 C 0.8056(9) 0.1749(7) 0.8584(4)
H138 H 0.7920 0.2119 0.8312
C117 C 0.8588(11) 0.1746(8) 0.8914(6)
H139 H 0.8824 0.2089 0.8863
C118 C 0.3404(7) 0.0240(9) 0.7516(5)
H140 H 0.3118 0.0740 0.7373
H141 H 0.3434 0.0248 0.7884
H142 H 0.3134 -0.0072 0.7456
C119 C 0.7711(9) 0.1244(6) 0.8626(4)
C120 C 0.7940(12) 0.0702(8) 0.9029(5)
H143 H 0.7726 0.0341 0.9082
C121 C 0.8482(16) 0.0702(11) 0.9349(8)
H144 H 0.8663 0.0307 0.9601
C122 C 0.6361(4) -0.1176(4) 0.5403(3)
H145 H 0.5635 0.3128 0.6487
C123 C 0.6130(4) -0.1173(3) 0.5970(3)
H146 H 0.6033 0.1942 0.6312
C124 C 0.5209(4) 0.1371(4) 0.5601(3)
H147 H 0.4716 0.1765 0.5566
C125 C 0.5025(4) 0.2720(3) 0.6136(3)
C126 C 0.6643(4) 0.0209(4) 0.5693(3)
H148 H 0.7135 -0.0188 0.5729
C127 C 0.5751(4) 0.1441(3) 0.5888(3)
C128 C 0.6103(4) 0.0140(3) 0.5403(3)
C129 C 0.4651(4) 0.3976(4) 0.6435(3)
C130 C 0.5387(4) 0.0730(4) 0.5366(3)
H149 H 0.5007 0.0690 0.5172
C131 C 0.5371(4) -0.0795(4) 0.6148(3)
H150 H 0.4991 -0.0515 0.5914
C132 C 0.4986(5) 0.4469(4) 0.6502(3)
H151 H 0.5535 0.4293 0.6515
C133 C 0.3400(5) 0.4966(4) 0.6484(3)
H152 H 0.2850 0.5135 0.6487
C134 C 0.3851(4) 0.4239(4) 0.6429(3)
H153 H 0.3612 0.3912 0.6386
C135 C 0.6474(4) 0.0849(3) 0.5930(3)
H154 H 0.6853 0.0888 0.6124
C136 C 0.3735(5) 0.5470(4) 0.6537(3)
C137 C 0.4544(5) 0.5193(4) 0.6549(3)
H155 H 0.4788 0.5516 0.6591
C138 C 0.3250(6) 0.6243(6) 0.6554(4)
C139 C 0.6525(5) -0.0523(4) 0.4612(3)
H156 H 0.6476 -0.0932 0.4463
H157 H 0.7072 -0.0585 0.4579
H158 H 0.6208 -0.0059 0.4433
N12 N 0.9163(4) 0.0994(3) 0.6059(2)
N13 N 0.8496(3) 0.0300(3) 0.6393(2)
H159 H 0.8152 0.0725 0.6492
N14 N 0.7765(4) -0.2096(3) 0.7174(2)
N15 N 0.6326(5) 0.1030(4) 0.7841(3)
H160 H 0.6441 0.1313 0.7598
N16 N 0.4194(4) -0.0055(4) 0.7269(3)
N17 N 0.7195(7) 0.1294(5) 0.8260(3)
N18 N 0.5647(3) 0.2067(3) 0.6143(2)
N19 N 0.6262(3) -0.0512(3) 0.5144(2)
N20 N 0.5162(4) 0.3228(3) 0.6396(2)
O16 O 0.9621(3) -0.0219(3) 0.58791(19)
O17 O 0.6864(4) -0.2530(3) 0.7505(2)
O18 O 0.3815(4) -0.0508(5) 0.6637(3)
O19 O 0.6618(9) 0.0520(6) 0.8641(3)
O20 O 0.6596(3) -0.1744(3) 0.5182(2)
O21 O 0.4441(3) 0.2863(3) 0.5918(2)
F10 F 0.2903(5) 0.6567(5) 0.6146(3)
F11 F 0.2642(5) 0.6374(5) 0.6904(3)
F12 F 0.3621(5) 0.6659(5) 0.6669(3)
F13 F 1.1896(2) 0.1453(2) 0.46708(18)
F14 F 1.0922(3) 0.2424(2) 0.44714(19)
F15 F 1.1510(3) 0.2402(3) 0.5122(2)
F16 F 0.9388(9) 0.1809(9) 0.9755(6)
F17 F 0.9196(10) 0.0967(9) 1.0149(7)
F18 F 1.0025(12) 0.0824(11) 0.9610(7)
C140 C 0.9421(11) 0.1172(11) 0.9669(7)
O22 O 0.6422(5) 0.5212(4) 0.6682(3)
N21 N 0.6725(6) 0.5735(5) 0.7311(4)
C141 C 0.6860(8) 0.5214(6) 0.7011(5)
H161 H 0.7334 0.4794 0.7043
C142 C 0.5977(9) 0.6406(7) 0.7300(7)
H162 H 0.5629 0.6341 0.7075
H163 H 0.6086 0.6835 0.7173
H164 H 0.5726 0.6480 0.7646
C143 C 0.7258(8) 0.5703(8) 0.7673(5)
H165 H 0.7724 0.5246 0.7646
H166 H 0.7010 0.5719 0.8019
H167 H 0.7406 0.6123 0.7602
F19? F 0.9112(9) -0.1468(8) 0.8858(4)
F20? F 0.9342(8) -0.1802(7) 0.8086(5)
F21? F 0.8210(6) -0.1013(7) 0.8328(6)
C144? C 0.589(3) 0.187(3) 0.2337(14)
H168? H 0.5338 0.1946 0.2352
H169? H 0.6206 0.1406 0.2180
H170? H 0.5962 0.2276 0.2131
C145? C 0.612(2) 0.184(2) 0.2851(13)
H171? H 0.6186 0.2300 0.2882
H172? H 0.5674 0.1851 0.3087
C146? C 0.681(4) 0.125(3) 0.305(5)
H173? H 0.6601 0.0953 0.3300
H174? H 0.7063 0.0938 0.2764
C147? C 0.7438(13) 0.1297(12) 0.3300(10)
H175? H 0.7207 0.1375 0.3655
H176? H 0.7410 0.1786 0.3162
loop_
_geom_bond_atom_site_label_1
_geom_bond_atom_site_label_2
_geom_bond_site_symmetry_1
_geom_bond_site_symmetry_2
P1 O1 1_555 1_555
O1 H1 1_555 1_555
O2 P1 1_555 1_555
O3 P1 1_555 1_555
O4 P1 1_555 1_555
H2 O4 1_555 1_555
P2 O5 1_555 1_555
O6 P2 1_555 1_555
O7 P2 1_555 1_555
H3 O7 1_555 1_555
O8 P2 1_555 1_555
H4 O8 1_555 1_555
C1 C4 1_555 1_555
C2 H5 1_555 1_555
C3 N1 1_555 1_555
C4 C2 1_555 1_555
H6 C4 1_555 1_555
C5 H7 1_555 1_555
C6 C2 1_555 1_555
C7 C12 1_555 1_555
C8 C10 1_555 1_555
H8 N1 1_555 1_555
C9 F1 1_555 1_555
F2 C9 1_555 1_555
F3 C9 1_555 1_555
C10 C5 1_555 1_555
C11 C1 1_555 1_555
H9 C11 1_555 1_555
C12 H10 1_555 1_555
C13 C12 1_555 1_555
H11 C13 1_555 1_555
C14 C6 1_555 1_555
H12 C14 1_555 1_555
C15 C7 1_555 1_555
H13 C15 1_555 1_555
C16 C15 1_555 1_555
H14 C16 1_555 1_555
C17 C13 1_555 1_555
C18 H15 1_555 1_555
H16 C18 1_555 1_555
H17 C18 1_555 1_555
C19 C22 1_555 1_555
C20 C24 1_555 1_555
C21 N4 1_555 1_555
C22 H18 1_555 1_555
C23 C19 1_555 1_555
H19 C23 1_555 1_555
C24 H20 1_555 1_555
C25 H21 1_555 1_555
C26 C30 1_555 1_555
C27 C5 1_555 1_555
H22 N4 1_555 1_555
C28 C9 1_555 1_555
C29 C28 1_555 1_555
H23 C29 1_555 1_555
C30 C22 1_555 1_555
H24 C30 1_555 1_555
C31 C24 1_555 1_555
H25 C31 1_555 1_555
C32 C20 1_555 1_555
H26 C32 1_555 1_555
C33 C23 1_555 1_555
H27 C33 1_555 1_555
C34 H28 1_555 1_555
H29 C34 1_555 1_555
H30 C34 1_555 1_555
C35 C27 1_555 1_555
H31 N5 1_555 1_555
C36 H32 1_555 1_555
C37 C36 1_555 1_555
C38 C37 1_555 1_555
H33 C38 1_555 1_555
C39 C40 1_555 1_555
C40 C38 1_555 1_555
H34 C40 1_555 1_555
C41 C43 1_555 1_555
C42 N7 1_555 1_555
C43 H35 1_555 1_555
C44 C36 1_555 1_555
H36 C44 1_555 1_555
C45 C43 1_555 1_555
H37 C45 1_555 1_555
C46 C10 1_555 1_555
H38 C46 1_555 1_555
C47 C25 1_555 1_555
C48 C45 1_555 1_555
C49 C41 1_555 1_555
H39 C49 1_555 1_555
C50 C47 1_555 1_555
C51 C48 1_555 1_555
H40 C51 1_555 1_555
C52 C39 1_555 1_555
C53 H41 1_555 1_555
H42 C53 1_555 1_555
H43 C53 1_555 1_555
N1 C7 1_555 1_555
N2 C1 1_555 1_555
H44 N2 1_555 1_555
N3 C6 1_555 1_555
N4 C19 1_555 1_555
N5 C20 1_555 1_555
N6 C26 1_555 1_555
N7 C37 1_555 1_555
H45 N7 1_555 1_555
N8 C41 1_555 1_555
H46 N8 1_555 1_555
N9 C48 1_555 1_555
O9 C3 1_555 1_555
O10 C8 1_555 1_555
O11 C42 1_555 1_555
O12 C35 1_555 1_555
O13 C50 1_555 1_555
F4 C54 1_555 1_555
F5 C54 1_555 1_555
F6 C54 1_555 1_555
F7 C52 1_555 1_555
F8 C52 1_555 1_555
F9 C52 1_555 1_555
O14 C21 1_555 1_555
C54 C17 1_555 1_555
O15 H47 1_555 1_555
H48 O15 1_555 1_555
C55 H49 1_555 1_555
H50 C55 1_555 1_555
H51 C55 1_555 1_555
C56 C55 1_555 1_555
H52 C56 1_555 1_555
H53 C56 1_555 1_555
C57 H54 1_555 1_555
H55 C57 1_555 1_555
H56 C57 1_555 1_555
N10 C58 1_555 1_555
C58 H57 1_555 1_555
H58 C58 1_555 1_555
C59 H59 1_555 1_555
H60 C59 1_555 1_555
C60 H61 1_555 1_555
H62 C60 1_555 1_555
H63 C60 1_555 1_555
C61 N10 1_555 1_555
H64 C61 1_555 1_555
H65 C61 1_555 1_555
C62 N10 1_555 1_555
H66 C62 1_555 1_555
H67 C62 1_555 1_555
C63 C58 1_555 1_555
H68 C63 1_555 1_555
H69 C63 1_555 1_555
C64 C59 1_555 1_555
H70 C64 1_555 1_555
H71 C64 1_555 1_555
C65 C57 1_555 1_555
H72 C65 1_555 1_555
H73 C65 1_555 1_555
C66 C56 1_555 1_555
H74 C66 1_555 1_555
H75 C66 1_555 1_555
C67 N10 1_555 1_555
C68 H76 1_555 1_555
H77 C68 1_555 1_555
C69 C67 1_555 1_555
H78 C69 1_555 1_555
H79 C69 1_555 1_555
C70 C68 1_555 1_555
H80 C70 1_555 1_555
H81 C70 1_555 1_555
H82 C70 1_555 1_555
C71 H83 1_555 1_555
H84 C71 1_555 1_555
C72 C71 1_555 1_555
H85 C72 1_555 1_555
H86 C72 1_555 1_555
C73 C72 1_555 1_555
H87 C73 1_555 1_555
H88 C73 1_555 1_555
C74 C73 1_555 1_555
H89 C74 1_555 1_555
H90 C74 1_555 1_555
H91 C74 1_555 1_555
C75 H92 1_555 1_555
H93 C75 1_555 1_555
C76 C75 1_555 1_555
H94 C76 1_555 1_555
H95 C76 1_555 1_555
H96 C76 1_555 1_555
N11 C71 1_555 1_555
C77 N11 1_555 1_555
H97 C77 1_555 1_555
H98 C77 1_555 1_555
C78 C77 1_555 1_555
H99 C78 1_555 1_555
H100 C78 1_555 1_555
C79 C78 1_555 1_555
H101 C79 1_555 1_555
H102 C79 1_555 1_555
C80 C79 1_555 1_555
H103 C80 1_555 1_555
H104 C80 1_555 1_555
H105 C80 1_555 1_555
C81 N11 1_555 1_555
H106 C81 1_555 1_555
H107 C81 1_555 1_555
C82 N11 1_555 1_555
H108 C82 1_555 1_555
H109 C82 1_555 1_555
C83 C81 1_555 1_555
H110 C83 1_555 1_555
H111 C83 1_555 1_555
C84 C83 1_555 1_555
H112 C84 1_555 1_555
H113 C84 1_555 1_555
C85 C75 1_555 1_555
H114 C85 1_555 1_555
H115 C85 1_555 1_555
C86 C84 1_555 1_555
H116 C86 1_555 1_555
H117 C86 1_555 1_555
H118 C86 1_555 1_555
C87 N12 1_555 1_555
C88 H119 1_555 1_555
C89 C90 1_555 1_555
C90 H120 1_555 1_555
C91 C90 1_555 1_555
H121 C91 1_555 1_555
C92 H122 1_555 1_555
C93 C89 1_555 1_555
H123 C93 1_555 1_555
C94 C98 1_555 1_555
C95 C91 1_555 1_555
C96 C92 1_555 1_555
C97 C93 1_555 1_555
H124 C97 1_555 1_555
C98 F13 1_555 1_555
C99 C88 1_555 1_555
C100 C99 1_555 1_555
H125 N12 1_555 1_555
C101 C96 1_555 1_555
H126 C101 1_555 1_555
C102 C94 1_555 1_555
H127 C102 1_555 1_555
C103 C92 1_555 1_555
H128 C103 1_555 1_555
C104 H129 1_555 1_555
H130 C104 1_555 1_555
H131 C104 1_555 1_555
C105 C106 1_555 1_555
C106 C99 1_555 1_555
H132 C106 1_555 1_555
C107 C108 1_555 1_555
C108 H133 1_555 1_555
C109 C105 1_555 1_555
H134 N17 1_555 1_555
C110 C111 1_555 1_555
C111 C108 1_555 1_555
H135 C111 1_555 1_555
C112 N15 1_555 1_555
C113 C107 1_555 1_555
H136 C113 1_555 1_555
C114 C117 1_555 1_555
C115 C110 1_555 1_555
H137 C115 1_555 1_555
C116 H138 1_555 1_555
C117 C116 1_555 1_555
H139 C117 1_555 1_555
C118 H140 1_555 1_555
H141 C118 1_555 1_555
H142 C118 1_555 1_555
C119 C116 1_555 1_555
C120 C119 1_555 1_555
H143 C120 1_555 1_555
C121 C114 1_555 1_555
H144 C121 1_555 1_555
C122 C123 1_555 1_555
H145 N20 1_555 1_555
C123 C88 1_555 1_555
H146 N18 1_555 1_555
C124 H147 1_555 1_555
C125 N18 1_555 1_555
C126 H148 1_555 1_555
C127 C124 1_555 1_555
C128 C126 1_555 1_555
C129 C132 1_555 1_555
C130 C124 1_555 1_555
H149 C130 1_555 1_555
C131 C105 1_555 1_555
H150 C131 1_555 1_555
C132 H151 1_555 1_555
C133 H152 1_555 1_555
C134 C129 1_555 1_555
H153 C134 1_555 1_555
C135 C126 1_555 1_555
H154 C135 1_555 1_555
C136 C133 1_555 1_555
C137 C132 1_555 1_555
H155 C137 1_555 1_555
C138 C136 1_555 1_555
C139 H156 1_555 1_555
H157 C139 1_555 1_555
H158 C139 1_555 1_555
N12 C96 1_555 1_555
N13 C87 1_555 1_555
H159 N13 1_555 1_555
N14 C95 1_555 1_555
N15 C110 1_555 1_555
H160 N15 1_555 1_555
N16 C107 1_555 1_555
N17 C112 1_555 1_555
N18 C127 1_555 1_555
N19 C122 1_555 1_555
N20 C125 1_555 1_555
O16 C87 1_555 1_555
O17 C100 1_555 1_555
O18 C109 1_555 1_555
O19 C112 1_555 1_555
O20 C122 1_555 1_555
O21 C125 1_555 1_555
F10 C138 1_555 1_555
F11 C138 1_555 1_555
F12 C138 1_555 1_555
F14 C98 1_555 1_555
F15 C98 1_555 1_555
F16 C140 1_555 1_555
F17 C140 1_555 1_555
F18 C140 1_555 1_555
C140 C114 1_555 1_555
O22 C141 1_555 1_555
N21 C141 1_555 1_555
C141 H161 1_555 1_555
C142 N21 1_555 1_555
H162 C142 1_555 1_555
H163 C142 1_555 1_555
H164 C142 1_555 1_555
C143 N21 1_555 1_555
H165 C143 1_555 1_555
H166 C143 1_555 1_555
H167 C143 1_555 1_555
C3 N2 1_555 1_555
C8 N3 1_555 1_555
C11 C14 1_555 1_555
C16 C17 1_555 1_555
C18 N3 1_555 1_555
C21 N5 1_555 1_555
C25 C27 1_555 1_555
C26 C33 1_555 1_555
C28 C31 1_555 1_555
C29 C32 1_555 1_555
C34 N6 1_555 1_555
C35 N6 1_555 1_555
C39 C44 1_555 1_555
C42 N8 1_555 1_555
C46 C47 1_555 1_555
C49 C51 1_555 1_555
C50 N9 1_555 1_555
C53 N9 1_555 1_555
C59 C62 1_555 1_555
C60 C64 1_555 1_555
C61 C66 1_555 1_555
C63 C65 1_555 1_555
C68 C69 1_555 1_555
C82 C85 1_555 1_555
C89 N13 1_555 1_555
C94 C103 1_555 1_555
C95 C97 1_555 1_555
C100 N14 1_555 1_555
C101 C102 1_555 1_555
C104 N14 1_555 1_555
C109 N16 1_555 1_555
C113 C115 1_555 1_555
C118 N16 1_555 1_555
C119 N17 1_555 1_555
C120 C121 1_555 1_555
C123 C131 1_555 1_555
C127 C135 1_555 1_555
C128 C130 1_555 1_555
C128 N19 1_555 1_555
C129 N20 1_555 1_555
C133 C134 1_555 1_555
C136 C137 1_555 1_555
C139 N19 1_555 1_555

#END
