
#######################################################################
#
#                 Cambridge Crystallographic Data Centre
#                                CCDC 
#
#######################################################################
#
# If this CIF has been generated from an entry in the Cambridge 
# Structural Database, then it will include bibliographic, chemical, 
# crystal, experimental, refinement or atomic coordinate data resulting 
# from the CCDC's data processing and validation procedures.
#
#######################################################################

data_YUBKOX
_chemical_formula_moiety         
'2(C16 H36 N1 1+),2(C54 H42 F9 N9 O6),O4 S1 2-,2(C2 H3 N1)'
_chemical_name_systematic        
'bis(Tetra-n-butylammonium) bis(N^1^,N^3^,N^5^-trimethyl-N^1^,N^3^,N^5^-tris(4-(3-(4-(trifluoromethyl)phenyl)ureido)phenyl)-benzene-1,3,5-tricarboxamide) sulfate clathrate acetonitrile solvate'
_symmetry_cell_setting           triclinic
_symmetry_space_group_name_H-M   'P -1'
_symmetry_Int_Tables_number      2
_space_group_name_Hall           '-P 1'
loop_
_symmetry_equiv_pos_site_id
_symmetry_equiv_pos_as_xyz
1 x,y,z
2 -x,-y,-z
_cell_length_a                   16.2475(4)
_cell_length_b                   19.7117(4)
_cell_length_c                   27.3218(7)
_cell_angle_alpha                106.0560(10)
_cell_angle_beta                 92.0230(10)
_cell_angle_gamma                113.7790(10)
_cell_volume                     7587.06
_cell_formula_units_Z            2
loop_
_atom_site_label
_atom_site_type_symbol
_atom_site_fract_x
_atom_site_fract_y
_atom_site_fract_z
S1 S 0.31166(7) 0.37976(6) 0.71938(4)
O1 O 0.4088(2) 0.4003(2) 0.71763(13)
O2 O 0.2697(2) 0.3877(2) 0.67373(13)
O3 O 0.2657(3) 0.2972(2) 0.71737(17)
O4 O 0.3008(3) 0.4303(3) 0.76649(14)
O5 O 0.2828(3) 0.1385(2) 0.35195(14)
O6 O 0.5269(3) 0.5681(2) 0.61496(15)
O7 O 0.3602(3) -0.0635(2) 0.46323(17)
O8 O -0.0023(2) 0.1532(2) 0.58203(14)
O9 O 0.6650(3) 0.2292(2) 0.45004(15)
O10 O 0.4846(4) 0.1906(3) 0.74554(19)
N1 N 0.3230(3) 0.2535(2) 0.41562(15)
N2 N 0.4477(3) 0.4470(2) 0.62251(15)
H1 H 0.4321 0.4223 0.6454
N3 N 0.5021(3) 0.5556(3) 0.69447(16)
H2 H 0.4768 0.5205 0.7101
N4 N 0.2510(3) -0.0284(2) 0.49578(19)
N5 N 0.1532(3) 0.2056(2) 0.60632(16)
H3 H 0.1995 0.2477 0.6266
N6 N 0.0771(3) 0.2765(2) 0.63938(16)
H4 H 0.1332 0.3123 0.6525
N7 N 0.6563(3) 0.2433(3) 0.53489(18)
N8 N 0.4552(4) 0.2598(3) 0.69804(17)
H5 H 0.4267 0.2893 0.6976
N9 N 0.3846(4) 0.2444(3) 0.7663(2)
H6 H 0.3462 0.2572 0.7517
F1 F -0.1480(5) 0.4570(4) 0.7437(3)
F2 F -0.2192(5) 0.4086(4) 0.6671(3)
F3 F -0.2586(8) 0.3404(6) 0.7141(4)
F4 F 0.3178(6) 0.3005(5) 0.9986(2)
F5 F 0.3064(6) 0.1852(4) 0.9807(2)
F6 F 0.4365(5) 0.2826(4) 1.0041(2)
C1 C 0.4693(3) 0.2020(3) 0.44431(19)
H7 H 0.5009 0.2498 0.4374
C2 C 0.3748(3) 0.1585(3) 0.42799(18)
C3 C 0.3224(3) 0.1833(3) 0.39569(19)
C4 C 0.2721(4) 0.2800(3) 0.3858(2)
H8 H 0.2490 0.2430 0.3507
H9 H 0.3125 0.3318 0.3842
H10 H 0.2207 0.2830 0.4025
C5 C 0.3580(3) 0.3016(3) 0.46912(19)
C6 C 0.4339(3) 0.3731(3) 0.48086(18)
H11 H 0.4643 0.3879 0.4539
C7 C 0.4658(3) 0.4228(3) 0.53070(18)
H12 H 0.5175 0.4716 0.5380
C8 C 0.4218(3) 0.4010(3) 0.57062(18)
C9 C 0.3464(3) 0.3278(3) 0.5590(2)
H13 H 0.3166 0.3118 0.5858
C10 C 0.3157(3) 0.2789(3) 0.5083(2)
H14 H 0.254(4) 0.224(3) 0.502(2)
C11 C 0.4952(3) 0.5270(3) 0.6414(2)
C12 C 0.5447(4) 0.6339(4) 0.7262(2)
C13 C 0.5816(5) 0.6955(4) 0.7069(3)
H15 H 0.5791 0.6863 0.6708
C14 C 0.6225(6) 0.7714(4) 0.7413(3)
H16 H 0.6504 0.8136 0.7281
C15 C 0.6240(5) 0.7878(4) 0.7949(3)
C16 C 0.5839(5) 0.7233(4) 0.8118(3)
H17 H 0.5837 0.7313 0.8477
C17 C 0.5449(4) 0.6491(4) 0.7784(2)
H18 H 0.5171 0.6067 0.7915
C18 C 0.6650(8) 0.8677(6) 0.8303(4)
F7 F 0.6825(6) 0.9212(5) 0.8053(3)
F8 F 0.7494(5) 0.8860(5) 0.8564(3)
F9 F 0.6157(5) 0.8805(5) 0.8652(3)
C19 C 0.3293(3) 0.0905(3) 0.43990(19)
H19 H 0.2651 0.0619 0.4295
C20 C 0.3779(4) 0.0634(3) 0.46745(19)
C21 C 0.3298(4) -0.0144(3) 0.4756(2)
C22 C 0.1989(5) -0.1070(3) 0.4990(3)
H20 H 0.1379 -0.1134 0.5059
H21 H 0.2305 -0.1142 0.5271
H22 H 0.1936 -0.1461 0.4663
C23 C 0.2259(4) 0.0316(3) 0.5222(2)
C24 C 0.2856(4) 0.0926(3) 0.5662(2)
H23 H 0.3428 0.0947 0.5775
C25 C 0.2588(4) 0.1491(3) 0.5925(2)
H24 H 0.2986 0.1910 0.6216
C26 C 0.1736(3) 0.1454(3) 0.57664(19)
C27 C 0.1154(3) 0.0853(3) 0.53363(19)
H25 H 0.0575 0.0824 0.5227
C28 C 0.1434(4) 0.0293(3) 0.5068(2)
H26 H 0.1043 -0.0115 0.4770
C29 C 0.0685(3) 0.2059(3) 0.60717(18)
C30 C 0.0067(4) 0.2980(4) 0.6538(2)
C31 C 0.0303(5) 0.3770(4) 0.6782(3)
H27 H 0.0924 0.4135 0.6837
C32 C -0.0320(6) 0.4033(6) 0.6943(3)
H28 H -0.0150 0.4578 0.7082
C33 C -0.1224(6) 0.3491(7) 0.6904(3)
C34 C -0.1466(5) 0.2718(6) 0.6671(3)
H29 H -0.2087 0.2358 0.6627
C35 C -0.0835(4) 0.2433(4) 0.6494(2)
H30 H -0.1011 0.1888 0.6349
C36 C -0.1809(6) 0.3913(6) 0.7046(4)
C37 C 0.4709(4) 0.1047(3) 0.48208(19)
H31 H 0.5039 0.0857 0.4997
C38 C 0.5164(3) 0.1731(3) 0.4713(2)
C39 C 0.6198(4) 0.2183(3) 0.4841(2)
C40 C 0.7561(4) 0.2817(4) 0.5504(3)
H32 H 0.7846 0.2677 0.5205
H33 H 0.7730 0.2643 0.5778
H34 H 0.7770 0.3385 0.5630
C41 C 0.6030(4) 0.2443(3) 0.5758(2)
C42 C 0.5614(4) 0.2950(3) 0.5863(2)
H35 H 0.5663 0.3277 0.5657
C43 C 0.5137(5) 0.2977(4) 0.6262(2)
H36 H 0.4846 0.3318 0.6326
C44 C 0.5066(4) 0.2516(3) 0.6580(2)
C45 C 0.5478(5) 0.2010(4) 0.6472(2)
H37 H 0.5436 0.1690 0.6682
C46 C 0.5941(5) 0.1968(4) 0.6068(2)
H38 H 0.6207 0.1609 0.5995
C47 C 0.4436(5) 0.2280(4) 0.7376(2)
C48 C 0.3777(5) 0.2434(4) 0.8181(3)
C49 C 0.3280(7) 0.2796(5) 0.8444(3)
H39 H 0.2983 0.3015 0.8272
C50 C 0.3207(9) 0.2845(6) 0.8953(4)
H40 H 0.2879 0.3110 0.9135
C51 C 0.3622(6) 0.2497(5) 0.9197(3)
C52 C 0.4060(6) 0.2089(6) 0.8915(4)
H41 H 0.4308 0.1822 0.9069
C53 C 0.4136(6) 0.2068(6) 0.8429(3)
H42 H 0.4450 0.1790 0.8246
C54 C 0.3579(9) 0.2538(6) 0.9747(4)
N10 N 1.0958(13) 0.9723(11) 0.1816(8)
C56 C 1.1108(12) 1.0355(11) 0.2096(7)
C57 C 1.1283(8) 1.1151(7) 0.2464(5)
H43 H 1.1610 1.1555 0.2308
H44 H 1.1652 1.1250 0.2789
H45 H 1.0700 1.1163 0.2532
O11 O 0.9463(4) 0.2844(3) 0.0673(2)
O12 O 1.0350(3) 0.7645(3) 0.22461(19)
O13 O 0.5703(4) 0.1922(3) -0.04114(16)
O14 O 0.6761(3) 0.3327(2) 0.29857(15)
O15 O 0.8900(3) 0.4879(4) -0.04776(19)
O16 O 0.4184(3) 0.4561(3) 0.10065(16)
N11 N 0.9864(3) 0.4041(3) 0.12430(18)
N12 N 0.9026(3) 0.6563(3) 0.21561(17)
H46 H 0.8456 0.6413 0.2207
N13 N 0.9101(3) 0.7770(3) 0.25534(19)
H47 H 0.8504 0.7509 0.2511
N14 N 0.5686(4) 0.2063(3) 0.0434(2)
N15 N 0.6784(3) 0.4096(2) 0.24951(16)
H48 H 0.6924 0.4585 0.2517
N16 N 0.7057(3) 0.4613(2) 0.33699(16)
H49 H 0.7147 0.5045 0.3300
N17 N 0.7741(3) 0.5119(3) -0.01909(18)
N18 N 0.5650(3) 0.5258(3) 0.14007(16)
H50 H 0.5988 0.5529 0.1708
N19 N 0.4527(3) 0.5149(3) 0.18838(18)
H51 H 0.4942 0.5570 0.2117
F16 F 1.1234(3) 1.1180(2) 0.41783(16)
F17 F 0.9841(3) 1.1006(3) 0.4196(2)
F18 F 1.0541(3) 1.1431(2) 0.36223(17)
F19 F 0.1734(4) 0.3284(6) 0.3079(3)
F20 F 0.1006(4) 0.3885(5) 0.2909(3)
F21 F 0.0811(4) 0.2847(5) 0.2391(3)
C58 C 0.8764(4) 0.4095(4) 0.0318(2)
H52 H 0.9368 0.4488 0.0366
C59 C 0.8598(4) 0.3501(4) 0.0539(2)
C60 C 0.9329(4) 0.3418(4) 0.0824(2)
C61 C 1.0629(5) 0.4010(5) 0.1512(3)
H53 H 1.0774 0.3604 0.1289
H54 H 1.0467 0.3888 0.1830
H55 H 1.1161 0.4517 0.1599
C62 C 0.9652(4) 0.4690(4) 0.14716(19)
C63 C 0.8863(4) 0.4571(4) 0.1678(2)
H56 H 0.8451 0.4060 0.1667
C64 C 0.8673(4) 0.5214(3) 0.1903(2)
H57 H 0.8127 0.5134 0.2043
C65 C 0.9277(4) 0.5966(3) 0.1924(2)
C66 C 1.0078(4) 0.6071(4) 0.1715(2)
H58 H 1.0503 0.6579 0.1727
C67 C 1.0237(4) 0.5434(4) 0.1493(2)
H59 H 1.0776 0.5509 0.1347
C68 C 0.9558(4) 0.7361(4) 0.2316(2)
C69 C 0.9473(4) 0.8573(4) 0.2863(2)
C70 C 0.8871(4) 0.8860(4) 0.3090(3)
H60 H 0.8237 0.8524 0.3019
C71 C 0.9173(4) 0.9615(4) 0.3414(3)
H61 H 0.8752 0.9800 0.3562
C72 C 1.0082(4) 1.0094(4) 0.3520(3)
C73 C 1.0696(4) 0.9823(4) 0.3297(3)
H62 H 1.1327 1.0167 0.3368
C74 C 1.0407(5) 0.9074(4) 0.2980(3)
H63 H 1.0835 0.8894 0.2840
C75 C 1.0422(4) 1.0914(4) 0.3883(3)
C76 C 0.7716(4) 0.2918(3) 0.0462(2)
H64 H 0.7597 0.2509 0.0607
C77 C 0.7007(4) 0.2938(4) 0.0170(2)
C78 C 0.6069(5) 0.2262(4) 0.0039(3)
C79 C 0.4812(6) 0.1323(5) 0.0306(3)
H65 H 0.4322 0.1449 0.0441
H66 H 0.4898 0.0961 0.0464
H67 H 0.4647 0.1077 -0.0070
C80 C 0.5965(4) 0.2569(3) 0.0966(2)
C81 C 0.6092(4) 0.2303(4) 0.1371(2)
H68 H 0.5978 0.1770 0.1298
C82 C 0.6374(4) 0.2782(3) 0.1867(2)
H69 H 0.6474 0.2585 0.2133
C83 C 0.6516(4) 0.3556(3) 0.1990(2)
C84 C 0.6374(3) 0.3835(3) 0.1593(2)
H70 H 0.6474 0.4365 0.1669
C85 C 0.6084(4) 0.3334(3) 0.1086(2)
H71 H 0.5966 0.3521 0.0819
C86 C 0.6852(3) 0.3956(3) 0.2951(2)
C87 C 0.7137(3) 0.4669(3) 0.38940(19)
C88 C 0.7436(3) 0.5408(3) 0.4248(2)
H72 H 0.7585 0.5844 0.4127
C89 C 0.7521(4) 0.5525(3) 0.4766(2)
H73 H 0.7694 0.6035 0.5000
C90 C 0.7356(3) 0.4894(4) 0.4957(2)
C91 C 0.7061(4) 0.4167(3) 0.4612(2)
H74 H 0.6939 0.3739 0.4738
C92 C 0.6929(4) 0.4026(3) 0.4083(2)
H75 H 0.6705 0.3508 0.3851
C93 C 0.7514(4) 0.5051(4) 0.5518(2)
F22 F 0.6881(4) 0.5227(5) 0.5760(3)
F23 F 0.8331(4) 0.5663(4) 0.5766(3)
F24 F 0.7519(5) 0.4438(3) 0.5649(3)
C94 C 0.7184(4) 0.3528(4) -0.00456(19)
H76 H 0.6702 0.3532 -0.0250
C95 C 0.8067(4) 0.4120(4) 0.0033(2)
C96 C 0.8281(4) 0.4752(4) -0.0229(2)
C97 C 0.7885(5) 0.5681(5) -0.0480(3)
H77 H 0.8207 0.5565 -0.0765
H78 H 0.8250 0.6214 -0.0248
H79 H 0.7294 0.5636 -0.0618
C98 C 0.7186(4) 0.5145(4) 0.0210(2)
C99 C 0.7589(4) 0.5434(4) 0.0717(2)
H80 H 0.8230 0.5614 0.0805
C100 C 0.7060(4) 0.5462(4) 0.1103(2)
H81 H 0.7343 0.5663 0.1455
C101 C 0.6135(4) 0.5205(4) 0.09845(19)
C102 C 0.5712(4) 0.4891(4) 0.0461(2)
H82 H 0.5070 0.4696 0.0371
C103 C 0.6248(4) 0.4874(4) 0.0084(2)
H83 H 0.5973 0.4673 -0.0269
C104 C 0.4745(4) 0.4954(4) 0.1396(2)
C105 C 0.3703(4) 0.4741(4) 0.2048(2)
C106 C 0.3619(4) 0.5071(5) 0.2560(2)
H84 H 0.4063 0.5574 0.2763
C107 C 0.2903(5) 0.4670(5) 0.2765(3)
H85 H 0.2852 0.4900 0.3111
C108 C 0.2231(5) 0.3921(5) 0.2477(3)
C109 C 0.2309(4) 0.3628(5) 0.1968(3)
H86 H 0.1848 0.3135 0.1762
C110 C 0.3024(4) 0.4019(5) 0.1746(2)
H87 H 0.3054 0.3800 0.1394
C111 C 0.1472(5) 0.3488(7) 0.2714(3)
N20 N 0.8950(15) 1.0536(13) 0.2392(9)
C112 C 0.8721(15) 0.9874(14) 0.2041(9)
C113 C 0.8556(14) 0.9165(11) 0.1744(8)
H88 H 0.8737 0.8895 0.1948
H89 H 0.8906 0.9202 0.1459
H90 H 0.7904 0.8872 0.1603
N21 N 0.5596(8) 0.1136(7) 0.2406(4)
C114 C 0.5410(7) 0.1424(6) 0.2767(4)
C115 C 0.5225(6) 0.1816(5) 0.3250(4)
H91 H 0.5515 0.2382 0.3313
H92 H 0.5469 0.1695 0.3532
H93 H 0.4564 0.1637 0.3234
N22 N 0.8581(4) 0.2463(4) 0.3443(2)
C116 C 1.0194(8) 0.2887(7) 0.5170(5)
H94 H 0.9926 0.3227 0.5356
H95 H 1.0818 0.3068 0.5344
H96 H 0.9827 0.2349 0.5165
C117 C 1.0212(6) 0.2909(6) 0.4667(4)
H97 H 1.0535 0.2600 0.4497
H98 H 1.0578 0.3457 0.4682
C118 C 0.9287(5) 0.2605(5) 0.4323(4)
H99 H 0.8876 0.2088 0.4346
H100 H 0.9005 0.2967 0.4451
C119 C 0.9383(5) 0.2533(5) 0.3772(3)
H101 H 0.9496 0.2067 0.3620
H102 H 0.9926 0.2997 0.3762
C120 C 0.8823(7) 0.2373(7) 0.2904(4)
H103 H 0.8952 0.1908 0.2803
H104 H 0.9403 0.2831 0.2933
C121 C 0.8159(10) 0.2290(9) 0.2446(5)
H105 H 0.7697 0.1739 0.2324
H106 H 0.7833 0.2611 0.2589
C122 C 0.8483(14) 0.2493(12) 0.1983(7)
H107 H 0.8024 0.2556 0.1774
H108 H 0.9068 0.2968 0.2072
C123 C 0.665(3) 0.008(2) 0.3559(15)
H109 H 0.7188 0.0268 0.3818
H110 H 0.6440 -0.0480 0.3380
H111 H 0.6159 0.0164 0.3730
C124 C 0.857(2) 0.194(2) 0.1784(14)
H112 H 0.8126 0.1500 0.1876
H113 H 0.9188 0.2017 0.1895
H114 H 0.8461 0.1826 0.1409
C125 C 0.6824(18) 0.0417(15) 0.3264(10)
H115 H 0.6387 0.0648 0.3257
H116 H 0.6696 0.0024 0.2920
C126 C 0.7690(10) 0.1008(9) 0.3311(7)
H117 H 0.7906 0.0913 0.2975
H118 H 0.8113 0.0984 0.3568
C127 C 0.7725(6) 0.1814(9) 0.3472(4)
H119 H 0.7217 0.1802 0.3254
H120 H 0.7613 0.1937 0.3833
C128 C 0.8395(8) 0.3133(5) 0.3615(5)
H121 H 0.8191 0.3163 0.3954
H122 H 0.7892 0.3074 0.3367
C129 C 0.9267(16) 0.3925(14) 0.3666(10)
H123 H 0.9820 0.3836 0.3706
H124 H 0.9239 0.4048 0.3340
C130 C 0.9365(19) 0.4592(17) 0.4087(11)
H125 H 0.8815 0.4676 0.4024
H126 H 0.9319 0.4426 0.4399
C131 C 1.010(2) 0.5328(18) 0.4227(12)
H127 H 1.0420 0.5384 0.3933
H128 H 1.0518 0.5385 0.4518
H129 H 0.9875 0.5731 0.4328
N23 N 0.7777(8) 0.1724(6) 0.8720(5)
C132 C 1.1070(17) 0.2515(15) 0.9282(10)
H130 H 1.1341 0.2562 0.8972
H131 H 1.0827 0.1969 0.9277
H132 H 1.1537 0.2848 0.9590
C133 C 0.6462(12) 0.2875(10) 0.8516(7)
H133 H 0.6234 0.2975 0.8848
H134 H 0.5919 0.2633 0.8243
C134 C 0.6699(11) 0.2318(8) 0.8502(6)
H135 H 0.7063 0.2345 0.8219
H136 H 0.6111 0.1857 0.8342
C135 C 0.7075(10) 0.2033(9) 0.8764(6)
H137 H 0.6542 0.1599 0.8817
H138 H 0.7302 0.2444 0.9106
C136 C 0.6389(16) 0.0423(12) 0.6782(9)
H139 H 0.5929 0.0598 0.6910
H140 H 0.6099 -0.0145 0.6613
H141 H 0.6670 0.0683 0.6533
C137 C 0.7097(14) 0.0623(12) 0.7219(8)
H142 H 0.7684 0.0971 0.7147
H143 H 0.7143 0.0133 0.7208
C138 C 0.7035(12) 0.0999(14) 0.7764(6)
H144 H 0.6795 0.1387 0.7762
H145 H 0.6580 0.0592 0.7883
C139 C 0.7846(12) 0.1379(12) 0.8132(6)
H146 H 0.8282 0.1814 0.8027
H147 H 0.8113 0.1003 0.8111
C140 C 0.7408(11) 0.0951(8) 0.8897(6)
H148 H 0.6780 0.0595 0.8712
H149 H 0.7799 0.0675 0.8802
C141 C 0.7409(12) 0.1151(11) 0.9472(7)
H150 H 0.8023 0.1560 0.9649
H151 H 0.6972 0.1383 0.9554
C142 C 0.7190(17) 0.0541(14) 0.9685(9)
H152 H 0.6651 0.0084 0.9459
H153 H 0.7704 0.0391 0.9677
C143 C 0.701(2) 0.0685(19) 1.0169(12)
H154 H 0.7460 0.1206 1.0382
H155 H 0.7050 0.0292 1.0313
H156 H 0.6398 0.0661 1.0167
C144 C 1.0326(14) 0.2761(12) 0.9295(8)
H157 H 1.0302 0.2952 0.9667
H158 H 1.0568 0.3233 0.9184
C145 C 0.9370(15) 0.2344(13) 0.9046(9)
H159 H 0.9450 0.2183 0.8681
H160 H 0.9195 0.1863 0.9144
C146 C 0.8527(9) 0.2345(8) 0.8976(5)
H161 H 0.8399 0.2541 0.9325
H162 H 0.8601 0.2746 0.8808
C147 C 0.6983(19) 0.3648(15) 0.8473(10)
H163 H 0.7400 0.3991 0.8798
H164 H 0.6565 0.3867 0.8400
H165 H 0.7335 0.3607 0.8191
F10? F -0.1732(7) 0.4200(6) 0.7549(4)
F11? F -0.2528(7) 0.3655(6) 0.6800(4)
F12? F -0.2671(10) 0.2963(9) 0.7291(6)
F13? F 0.6826(6) 0.8706(5) 0.8793(3)
F14? F 0.6157(5) 0.9057(5) 0.8282(3)
F15? F 0.7494(5) 0.9113(5) 0.8194(3)
C55? C -0.2063(19) 0.3549(15) 0.7199(10)
F25? F 0.8273(4) 0.4992(5) 0.5690(3)
F26? F 0.6823(4) 0.4556(4) 0.5684(3)
F27? F 0.7635(5) 0.5781(3) 0.5801(3)
N24? N 0.6973(8) 0.1651(6) 0.8320(4)
C148? C 0.7988(11) 0.1892(12) 0.8440(9)
H166? H 0.8076 0.1407 0.8327
H167? H 0.8281 0.2204 0.8214
C149? C 0.5419(9) 0.0690(8) 0.8477(6)
H168? H 0.5235 0.1123 0.8595
H169? H 0.5201 0.0442 0.8101
C150? C 0.6461(8) 0.1028(8) 0.8579(5)
H170? H 0.6637 0.0592 0.8460
H171? H 0.6671 0.1265 0.8957
H172? H 0.7358 0.3902 0.8822
H173? H 0.7247 0.4013 0.8274
C151? C 0.7151(14) 0.2929(11) 0.8222(8)
H174? H 0.6642 0.2570 0.7933
H175? H 0.7715 0.3100 0.8071
C152? C 0.723(2) 0.2502(8) 0.8542(10)
H176? H 0.6868 0.2570 0.8818
H177? H 0.7880 0.2754 0.8712
C153? C 0.6596(12) 0.0267(12) 0.6916(8)
H178? H 0.7103 0.0649 0.6806
H179? H 0.6628 -0.0241 0.6784
C154? C 0.6791(11) 0.0509(10) 0.7482(7)
H180? H 0.7413 0.0575 0.7592
H181? H 0.6354 0.0095 0.7604
C155? C 0.6720(12) 0.1267(9) 0.7725(6)
H182? H 0.6083 0.1175 0.7624
H183? H 0.7112 0.1653 0.7567
C156? C 0.4076(16) -0.0113(14) 0.8747(9)
H184? H 0.3936 0.0318 0.8726
H185? H 0.3914 -0.0230 0.9066
H186? H 0.3726 -0.0578 0.8449
C157? C 0.4962(14) 0.0091(12) 0.8748(8)
H187? H 0.5047 -0.0385 0.8580
H188? H 0.5276 0.0304 0.9111
C158? C 0.6330(13) 0.3625(11) 0.8519(8)
H189? H 0.6002 0.3551 0.8187
H190? H 0.6395 0.4115 0.8771
H191? H 0.5986 0.3187 0.8644
C159? C 0.5762(15) 0.0182(14) 0.6654(9)
H192? H 0.5257 -0.0297 0.6666
H193? H 0.5816 0.0151 0.6293
H194? H 0.5644 0.0634 0.6822
H195? H 1.0423 0.2548 0.9564
H196? H 1.0481 0.3318 0.9449
H197? H 1.0716 0.2697 0.9037
H198? H 0.8613 0.2893 0.9058
H199? H 0.8167 0.2123 0.9224
loop_
_geom_bond_atom_site_label_1
_geom_bond_atom_site_label_2
_geom_bond_site_symmetry_1
_geom_bond_site_symmetry_2
S1 O1 1_555 1_555
O2 S1 1_555 1_555
O3 S1 1_555 1_555
O4 S1 1_555 1_555
O5 C3 1_555 1_555
O6 C11 1_555 1_555
O7 C21 1_555 1_555
O8 C29 1_555 1_555
O9 C39 1_555 1_555
O10 C47 1_555 1_555
N1 C3 1_555 1_555
N2 H1 1_555 1_555
N3 H2 1_555 1_555
N4 C21 1_555 1_555
N5 H3 1_555 1_555
N6 H4 1_555 1_555
N7 C39 1_555 1_555
N8 H5 1_555 1_555
N9 H6 1_555 1_555
F1 C36 1_555 1_555
F2 C36 1_555 1_555
F3 C36 1_555 1_555
F4 C54 1_555 1_555
F5 C54 1_555 1_555
F6 C54 1_555 1_555
C1 H7 1_555 1_555
C2 C1 1_555 1_555
C3 C2 1_555 1_555
C4 N1 1_555 1_555
H8 C4 1_555 1_555
H9 C4 1_555 1_555
H10 C4 1_555 1_555
C5 N1 1_555 1_555
C6 C5 1_555 1_555
H11 C6 1_555 1_555
C7 C6 1_555 1_555
H12 C7 1_555 1_555
C8 N2 1_555 1_555
C9 C8 1_555 1_555
H13 C9 1_555 1_555
C10 C5 1_555 1_555
H14 C10 1_555 1_555
C11 N2 1_555 1_555
C12 N3 1_555 1_555
C13 C12 1_555 1_555
H15 C13 1_555 1_555
C14 C13 1_555 1_555
H16 C14 1_555 1_555
C15 C14 1_555 1_555
C16 C15 1_555 1_555
H17 C16 1_555 1_555
C17 C12 1_555 1_555
H18 C17 1_555 1_555
C18 C15 1_555 1_555
F7 C18 1_555 1_555
F8 C18 1_555 1_555
F9 C18 1_555 1_555
C19 C2 1_555 1_555
H19 C19 1_555 1_555
C20 C19 1_555 1_555
C21 C20 1_555 1_555
C22 N4 1_555 1_555
H20 C22 1_555 1_555
H21 C22 1_555 1_555
H22 C22 1_555 1_555
C23 N4 1_555 1_555
C24 C23 1_555 1_555
H23 C24 1_555 1_555
C25 C24 1_555 1_555
H24 C25 1_555 1_555
C26 N5 1_555 1_555
C27 C26 1_555 1_555
H25 C27 1_555 1_555
C28 C23 1_555 1_555
H26 C28 1_555 1_555
C29 N5 1_555 1_555
C30 N6 1_555 1_555
C31 C30 1_555 1_555
H27 C31 1_555 1_555
C32 C31 1_555 1_555
H28 C32 1_555 1_555
C33 C32 1_555 1_555
C34 C33 1_555 1_555
H29 C34 1_555 1_555
C35 C30 1_555 1_555
H30 C35 1_555 1_555
C36 C33 1_555 1_555
C37 C20 1_555 1_555
H31 C37 1_555 1_555
C38 C1 1_555 1_555
C39 C38 1_555 1_555
C40 N7 1_555 1_555
H32 C40 1_555 1_555
H33 C40 1_555 1_555
H34 C40 1_555 1_555
C41 N7 1_555 1_555
C42 C41 1_555 1_555
H35 C42 1_555 1_555
C43 C42 1_555 1_555
H36 C43 1_555 1_555
C44 N8 1_555 1_555
C45 C44 1_555 1_555
H37 C45 1_555 1_555
C46 C41 1_555 1_555
H38 C46 1_555 1_555
C47 N8 1_555 1_555
C48 N9 1_555 1_555
C49 C48 1_555 1_555
H39 C49 1_555 1_555
C50 C49 1_555 1_555
H40 C50 1_555 1_555
C51 C50 1_555 1_555
C52 C51 1_555 1_555
H41 C52 1_555 1_555
C53 C48 1_555 1_555
H42 C53 1_555 1_555
C54 C51 1_555 1_555
N10 C56 1_555 1_555
C56 C57 1_555 1_555
C57 H43 1_555 1_555
H44 C57 1_555 1_555
H45 C57 1_555 1_555
O11 C60 1_555 1_555
O12 C68 1_555 1_555
O13 C78 1_555 1_555
O14 C86 1_555 1_555
O15 C96 1_555 1_555
O16 C104 1_555 1_555
N11 C60 1_555 1_555
N12 H46 1_555 1_555
N13 H47 1_555 1_555
N14 C78 1_555 1_555
N15 H48 1_555 1_555
N16 H49 1_555 1_555
N17 C96 1_555 1_555
N18 H50 1_555 1_555
N19 H51 1_555 1_555
F16 C75 1_555 1_555
F17 C75 1_555 1_555
F18 C75 1_555 1_555
F19 C111 1_555 1_555
F20 C111 1_555 1_555
F21 C111 1_555 1_555
C58 H52 1_555 1_555
C59 C58 1_555 1_555
C60 C59 1_555 1_555
C61 N11 1_555 1_555
H53 C61 1_555 1_555
H54 C61 1_555 1_555
H55 C61 1_555 1_555
C62 N11 1_555 1_555
C63 C62 1_555 1_555
H56 C63 1_555 1_555
C64 C63 1_555 1_555
H57 C64 1_555 1_555
C65 N12 1_555 1_555
C66 C65 1_555 1_555
H58 C66 1_555 1_555
C67 C62 1_555 1_555
H59 C67 1_555 1_555
C68 N12 1_555 1_555
C69 N13 1_555 1_555
C70 C69 1_555 1_555
H60 C70 1_555 1_555
C71 C70 1_555 1_555
H61 C71 1_555 1_555
C72 C71 1_555 1_555
C73 C72 1_555 1_555
H62 C73 1_555 1_555
C74 C69 1_555 1_555
H63 C74 1_555 1_555
C75 C72 1_555 1_555
C76 C59 1_555 1_555
H64 C76 1_555 1_555
C77 C76 1_555 1_555
C78 C77 1_555 1_555
C79 N14 1_555 1_555
H65 C79 1_555 1_555
H66 C79 1_555 1_555
H67 C79 1_555 1_555
C80 N14 1_555 1_555
C81 C80 1_555 1_555
H68 C81 1_555 1_555
C82 C81 1_555 1_555
H69 C82 1_555 1_555
C83 N15 1_555 1_555
C84 C83 1_555 1_555
H70 C84 1_555 1_555
C85 C80 1_555 1_555
H71 C85 1_555 1_555
C86 N15 1_555 1_555
C87 N16 1_555 1_555
C88 C87 1_555 1_555
H72 C88 1_555 1_555
C89 C88 1_555 1_555
H73 C89 1_555 1_555
C90 C89 1_555 1_555
C91 C90 1_555 1_555
H74 C91 1_555 1_555
C92 C87 1_555 1_555
H75 C92 1_555 1_555
C93 C90 1_555 1_555
F22 C93 1_555 1_555
F23 C93 1_555 1_555
F24 C93 1_555 1_555
C94 C77 1_555 1_555
H76 C94 1_555 1_555
C95 C58 1_555 1_555
C96 C95 1_555 1_555
C97 N17 1_555 1_555
H77 C97 1_555 1_555
H78 C97 1_555 1_555
H79 C97 1_555 1_555
C98 N17 1_555 1_555
C99 C98 1_555 1_555
H80 C99 1_555 1_555
C100 C99 1_555 1_555
H81 C100 1_555 1_555
C101 N18 1_555 1_555
C102 C101 1_555 1_555
H82 C102 1_555 1_555
C103 C98 1_555 1_555
H83 C103 1_555 1_555
C104 N18 1_555 1_555
C105 N19 1_555 1_555
C106 C105 1_555 1_555
H84 C106 1_555 1_555
C107 C106 1_555 1_555
H85 C107 1_555 1_555
C108 C107 1_555 1_555
C109 C108 1_555 1_555
H86 C109 1_555 1_555
C110 C105 1_555 1_555
H87 C110 1_555 1_555
C111 C108 1_555 1_555
N20 C112 1_555 1_555
C112 C113 1_555 1_555
C113 H88 1_555 1_555
H89 C113 1_555 1_555
H90 C113 1_555 1_555
N21 C114 1_555 1_555
C114 C115 1_555 1_555
C115 H91 1_555 1_555
H92 C115 1_555 1_555
H93 C115 1_555 1_555
N22 C119 1_555 1_555
C116 H94 1_555 1_555
H95 C116 1_555 1_555
H96 C116 1_555 1_555
C117 C116 1_555 1_555
H97 C117 1_555 1_555
H98 C117 1_555 1_555
C118 C117 1_555 1_555
H99 C118 1_555 1_555
H100 C118 1_555 1_555
C119 C118 1_555 1_555
H101 C119 1_555 1_555
H102 C119 1_555 1_555
C120 N22 1_555 1_555
H103 C120 1_555 1_555
H104 C120 1_555 1_555
C121 C120 1_555 1_555
H105 C121 1_555 1_555
H106 C121 1_555 1_555
C122 C121 1_555 1_555
H107 C122 1_555 1_555
H108 C122 1_555 1_555
C123 H109 1_555 1_555
H110 C123 1_555 1_555
H111 C123 1_555 1_555
C124 C122 1_555 1_555
H112 C124 1_555 1_555
H113 C124 1_555 1_555
H114 C124 1_555 1_555
C125 C123 1_555 1_555
H115 C125 1_555 1_555
H116 C125 1_555 1_555
C126 C125 1_555 1_555
H117 C126 1_555 1_555
H118 C126 1_555 1_555
C127 N22 1_555 1_555
H119 C127 1_555 1_555
H120 C127 1_555 1_555
C128 N22 1_555 1_555
H121 C128 1_555 1_555
H122 C128 1_555 1_555
C129 C128 1_555 1_555
H123 C129 1_555 1_555
H124 C129 1_555 1_555
C130 C129 1_555 1_555
H125 C130 1_555 1_555
H126 C130 1_555 1_555
C131 C130 1_555 1_555
H127 C131 1_555 1_555
H128 C131 1_555 1_555
H129 C131 1_555 1_555
N23 C135 1_555 1_555
C132 H130 1_555 1_555
H131 C132 1_555 1_555
H132 C132 1_555 1_555
C133 H133 1_555 1_555
H134 C133 1_555 1_555
C134 C133 1_555 1_555
H135 C134 1_555 1_555
H136 C134 1_555 1_555
C135 C134 1_555 1_555
H137 C135 1_555 1_555
H138 C135 1_555 1_555
C136 H139 1_555 1_555
H140 C136 1_555 1_555
H141 C136 1_555 1_555
C137 C136 1_555 1_555
H142 C137 1_555 1_555
H143 C137 1_555 1_555
C138 C137 1_555 1_555
H144 C138 1_555 1_555
H145 C138 1_555 1_555
C139 N23 1_555 1_555
H146 C139 1_555 1_555
H147 C139 1_555 1_555
C140 N23 1_555 1_555
H148 C140 1_555 1_555
H149 C140 1_555 1_555
C141 C140 1_555 1_555
H150 C141 1_555 1_555
H151 C141 1_555 1_555
C142 C141 1_555 1_555
H152 C142 1_555 1_555
H153 C142 1_555 1_555
C143 C142 1_555 1_555
H154 C143 1_555 1_555
H155 C143 1_555 1_555
H156 C143 1_555 1_555
C144 C132 1_555 1_555
H157 C144 1_555 1_555
H158 C144 1_555 1_555
C145 C144 1_555 1_555
H159 C145 1_555 1_555
H160 C145 1_555 1_555
C146 N23 1_555 1_555
H161 C146 1_555 1_555
H162 C146 1_555 1_555
C147 C133 1_555 1_555
H163 C147 1_555 1_555
H164 C147 1_555 1_555
H165 C147 1_555 1_555
N3 C11 1_555 1_555
N6 C29 1_555 1_555
N9 C47 1_555 1_555
C7 C8 1_555 1_555
C9 C10 1_555 1_555
C16 C17 1_555 1_555
C25 C26 1_555 1_555
C27 C28 1_555 1_555
C34 C35 1_555 1_555
C37 C38 1_555 1_555
C43 C44 1_555 1_555
C45 C46 1_555 1_555
C52 C53 1_555 1_555
N13 C68 1_555 1_555
N16 C86 1_555 1_555
N19 C104 1_555 1_555
C64 C65 1_555 1_555
C66 C67 1_555 1_555
C73 C74 1_555 1_555
C82 C83 1_555 1_555
C84 C85 1_555 1_555
C91 C92 1_555 1_555
C94 C95 1_555 1_555
C100 C101 1_555 1_555
C102 C103 1_555 1_555
C109 C110 1_555 1_555
C126 C127 1_555 1_555
C138 C139 1_555 1_555
C145 C146 1_555 1_555

#END
