
#######################################################################
#
#                 Cambridge Crystallographic Data Centre
#                                CCDC 
#
#######################################################################
#
# If this CIF has been generated from an entry in the Cambridge 
# Structural Database, then it will include bibliographic, chemical, 
# crystal, experimental, refinement or atomic coordinate data resulting 
# from the CCDC's data processing and validation procedures.
#
#######################################################################

data_YUBKEN
_chemical_formula_moiety         
'4(C16 H36 N1 1+),4(C56 H65 N8 O7 1+),4(O4 S1 2-),0.5(C2 H3 N1),2.5(H2 O1)'
_chemical_name_systematic        
'tetrakis(Tetra-n-butylammonium) tetrakis(N1-(4-ammoniophenyl)-N^3^,N^5^-bis(4-(3-(4-(hexyloxy)phenyl)ureido)phenyl)-N^1^,N^3^,N^5^-trimethylbenzene-1,3,5-tricarboxamide) tetrakis(sulfate) clathrate acetonitrile solvate hydrate'
_symmetry_cell_setting           triclinic
_symmetry_space_group_name_H-M   'P -1'
_symmetry_Int_Tables_number      2
_space_group_name_Hall           '-P 1'
loop_
_symmetry_equiv_pos_site_id
_symmetry_equiv_pos_as_xyz
1 x,y,z
2 -x,-y,-z
_cell_length_a                   20.1340(10)
_cell_length_b                   27.5737(14)
_cell_length_c                   28.9786(15)
_cell_angle_alpha                80.108(3)
_cell_angle_beta                 72.165(3)
_cell_angle_gamma                73.660(3)
_cell_volume                     14631.6
_exptl_crystal_colour            colorless
_exptl_crystal_description       Rod
_cell_formula_units_Z            2
loop_
_atom_site_label
_atom_site_type_symbol
_atom_site_fract_x
_atom_site_fract_y
_atom_site_fract_z
S1 S 0.29640(4) 0.16126(3) 0.82696(3)
O1 O 0.36658(13) 0.12880(9) 0.80314(9)
O2 O 0.25281(13) 0.17957(10) 0.79174(9)
O3 O 0.25693(12) 0.13273(8) 0.86841(9)
O4 O 0.31042(14) 0.20429(9) 0.84254(10)
S2 S 0.27511(4) 0.34665(3) 0.69600(3)
O5 O 0.21636(14) 0.33331(11) 0.73734(9)
O6 O 0.24416(14) 0.37437(9) 0.65695(9)
O7 O 0.32883(15) 0.30048(10) 0.67909(11)
O8 O 0.31083(15) 0.37730(11) 0.71240(10)
S3 S 0.43475(4) 0.31814(3) 0.81699(3)
O9 O 0.38247(13) 0.35296(8) 0.79283(8)
O10 O 0.40051(12) 0.27859(8) 0.84833(8)
O11 O 0.45518(12) 0.34587(8) 0.84743(8)
O12 O 0.49929(12) 0.29421(8) 0.78039(8)
S4 S 0.53019(4) 0.17563(3) 0.68161(3)
O13 O 0.59101(13) 0.14572(9) 0.64646(8)
O14 O 0.48177(13) 0.14369(8) 0.71104(9)
O15 O 0.48859(13) 0.21743(8) 0.65481(8)
O16 O 0.55714(13) 0.19673(9) 0.71352(8)
O17 O 0.21974(13) 0.58754(8) 0.88675(9)
O18 O 0.27704(14) 0.35816(8) 1.00542(8)
O19 O 0.41361(14) 0.02972(8) 1.06336(9)
O20 O 0.5153(2) 0.18323(12) 1.13353(10)
O21 O 0.70581(14) 0.30620(10) 0.83814(9)
O22 O 0.83176(14) 0.36687(10) 0.61368(9)
O23 O 0.71651(15) 0.05686(10) 0.97365(10)
N1 N 0.33207(15) 0.38142(9) 0.92618(9)
H1 H 0.3665 0.3704 0.8997
N2 N 0.33166(15) 0.29860(9) 0.95039(9)
H2 H 0.3523 0.2957 0.9201
N3 N 0.34133(17) 0.10897(10) 1.06090(11)
N4 N 0.55786(18) 0.23295(11) 1.06662(11)
N5 N 0.58994(15) 0.29648(10) 0.86723(10)
H3 H 0.5480 0.3055 0.8618
N6 N 0.63391(16) 0.31986(11) 0.78700(10)
H4 H 0.5949 0.3138 0.7850
N7 N 0.66285(16) 0.07085(10) 0.91282(10)
N8 N 0.46631(15) 0.18489(9) 0.80836(9)
H5 H 0.4954 0.1922 0.7773
H6 H 0.4376 0.1652 0.8071
H7 H 0.4395 0.2119 0.8214
C1 C 0.1806(7) 0.8120(4) 0.7678(5)
H8 H 0.2229 0.8229 0.7461
H9 H 0.1449 0.8413 0.7826
H10 H 0.1598 0.7970 0.7490
C2 C 0.2032(5) 0.7723(3) 0.8079(3)
H11 H 0.2522 0.7514 0.7946
H12 H 0.2044 0.7898 0.8347
C3 C 0.1509(4) 0.73808(19) 0.8280(2)
H13 H 0.1498 0.7209 0.8010
H14 H 0.1019 0.7594 0.8409
C4 C 0.1705(3) 0.69758(17) 0.8685(2)
H15 H 0.2214 0.6789 0.8571
H16 H 0.1655 0.7146 0.8973
C5 C 0.1238(2) 0.66039(14) 0.88345(17)
H17 H 0.1202 0.6492 0.8538
H18 H 0.0747 0.6779 0.9013
C6 C 0.1512(2) 0.61409(13) 0.91511(14)
H19 H 0.1563 0.6244 0.9447
H20 H 0.1171 0.5920 0.9253
C7 C 0.24461(19) 0.53748(12) 0.90123(12)
C8 C 0.21338(19) 0.51168(12) 0.94441(12)
H21 H 0.1722 0.5291 0.9671
C9 C 0.24267(19) 0.46001(12) 0.95427(12)
H22 H 0.2213 0.4426 0.9839
C10 C 0.30181(18) 0.43398(11) 0.92185(11)
C11 C 0.33394(18) 0.46055(12) 0.87884(12)
H23 H 0.3756 0.4433 0.8563
C12 C 0.30521(19) 0.51189(12) 0.86906(12)
H24 H 0.3275 0.5296 0.8399
C13 C 0.31052(18) 0.34679(11) 0.96408(12)
C14 C 0.32804(18) 0.25292(11) 0.98034(12)
C15 C 0.3064(2) 0.24936(13) 1.03110(12)
H25 H 0.2893 0.2793 1.0476
C16 C 0.3097(2) 0.20212(12) 1.05754(13)
H26 H 0.2949 0.1999 1.0921
C17 C 0.3343(2) 0.15878(12) 1.03418(13)
C18 C 0.3526(2) 0.16245(12) 0.98365(13)
H27 H 0.3677 0.1326 0.9672
C19 C 0.3490(2) 0.20907(12) 0.95737(13)
H28 H 0.3610 0.2112 0.9228
C20 C 0.2770(2) 0.08906(15) 1.07895(17)
H29 H 0.2854 0.0594 1.1024
H30 H 0.2663 0.0791 1.0516
H31 H 0.2362 0.1153 1.0949
C21 C 0.4068(2) 0.07573(12) 1.05536(12)
C22 C 0.4708(2) 0.09807(12) 1.04138(12)
C23 C 0.4724(2) 0.13484(12) 1.06803(13)
H32 H 0.4315 0.1474 1.0936
C24 C 0.5337(2) 0.15345(13) 1.05758(13)
C25 C 0.5932(2) 0.13437(13) 1.02101(13)
H33 H 0.6351 0.1468 1.0138
C26 C 0.5927(2) 0.09687(12) 0.99439(12)
C27 C 0.5312(2) 0.07901(12) 1.00444(12)
H34 H 0.5304 0.0538 0.9861
C28 C 0.5647(3) 0.26821(16) 1.09709(15)
H35 H 0.6055 0.2830 1.0797
H36 H 0.5725 0.2497 1.1278
H37 H 0.5205 0.2954 1.1040
C29 C 0.5345(2) 0.19121(15) 1.08893(14)
C30 C 0.5663(2) 0.24961(12) 1.01583(13)
C31 C 0.5083(2) 0.26090(12) 0.99572(13)
H38 H 0.4622 0.2580 1.0158
C32 C 0.5178(2) 0.27609(12) 0.94706(13)
H39 H 0.4781 0.2832 0.9337
C33 C 0.58535(18) 0.28133(11) 0.91659(12)
C34 C 0.6429(2) 0.27098(13) 0.93688(13)
H40 H 0.6888 0.2748 0.9172
C35 C 0.6325(2) 0.25493(13) 0.98638(13)
H41 H 0.6720 0.2475 1.0000
C36 C 0.64825(19) 0.30727(12) 0.83137(13)
C37 C 0.68571(19) 0.33089(13) 0.74314(13)
C38 C 0.7301(2) 0.36225(14) 0.74071(14)
H42 H 0.7274 0.3763 0.7692
C39 C 0.7781(2) 0.37316(14) 0.69710(14)
H43 H 0.8084 0.3946 0.6957
C40 C 0.7824(2) 0.35289(13) 0.65515(13)
C41 C 0.7388(2) 0.32157(13) 0.65735(13)
H44 H 0.7417 0.3074 0.6289
C42 C 0.6908(2) 0.31069(13) 0.70081(13)
H45 H 0.6607 0.2891 0.7020
C43 C 0.8455(2) 0.34300(15) 0.57007(13)
H46 H 0.8002 0.3483 0.5609
H47 H 0.8660 0.3060 0.5753
C44 C 0.8984(2) 0.36722(17) 0.53035(15)
H48 H 0.8793 0.4045 0.5284
H49 H 0.9443 0.3595 0.5392
C45 C 0.9132(2) 0.34954(17) 0.48101(15)
H50 H 0.8665 0.3525 0.4747
H51 H 0.9378 0.3729 0.4562
C46 C 0.9576(3) 0.29653(18) 0.47372(18)
H52 H 0.9313 0.2725 0.4960
H53 H 1.0030 0.2923 0.4824
C47 C 0.9756(4) 0.2834(3) 0.4215(2)
H54 H 0.9300 0.2900 0.4124
H55 H 1.0040 0.3065 0.3997
C48 C 1.0164(5) 0.2300(3) 0.4127(4)
H56 H 1.0295 0.2261 0.3778
H57 H 0.9863 0.2068 0.4308
H58 H 1.0601 0.2222 0.4236
C49 C 0.6619(2) 0.07386(12) 0.95952(13)
C50 C 0.7297(2) 0.04374(13) 0.88068(14)
H59 H 0.7184 0.0248 0.8595
H60 H 0.7590 0.0200 0.9003
H61 H 0.7565 0.0682 0.8606
C51 C 0.60703(18) 0.09950(12) 0.89075(12)
C52 C 0.5806(2) 0.07528(12) 0.86532(13)
H62 H 0.5951 0.0394 0.8654
C53 C 0.53225(19) 0.10355(12) 0.83933(12)
H63 H 0.5135 0.0870 0.8219
C54 C 0.51187(18) 0.15554(11) 0.83905(11)
C55 C 0.53631(19) 0.18017(12) 0.86588(12)
H64 H 0.5202 0.2160 0.8666
C56 C 0.58441(19) 0.15219(12) 0.89162(12)
H65 H 0.6020 0.1688 0.9099
O24 O 0.5420(4) -0.08937(13) 0.60859(18)
O25 O 0.51013(16) 0.14238(9) 0.50406(9)
O26 O 0.45515(15) 0.47297(9) 0.44943(9)
O27 O 0.7204(2) 0.32033(14) 0.35192(12)
O28 O 0.81401(18) 0.18960(15) 0.62855(15)
O29 O 0.84078(15) 0.13236(10) 0.84276(12)
O30 O 0.73325(14) 0.44303(10) 0.50131(9)
N9 N 0.5425(2) 0.11464(11) 0.57544(11)
H66 H 0.5520 0.1247 0.5964
N10 N 0.49718(16) 0.19852(10) 0.55790(10)
H67 H 0.4982 0.1987 0.5869
N11 N 0.43219(17) 0.39490(11) 0.46371(11)
N12 N 0.7620(2) 0.26907(13) 0.41181(14)
N13 N 0.71074(18) 0.19174(12) 0.60969(14)
H68 H 0.6737 0.1829 0.6215
N14 N 0.71669(19) 0.17309(13) 0.68800(15)
H69 H 0.6684 0.1811 0.6913
N15 N 0.65182(15) 0.42334(10) 0.57065(10)
N16 N 0.46058(15) 0.31031(10) 0.69284(9)
H70 H 0.4741 0.3025 0.7206
H71 H 0.4211 0.3277 0.6982
H72 H 0.4664 0.2788 0.6842
C57 C 0.2975(10) -0.1586(7) 0.6514(7)
H73 H 0.2946 -0.1254 0.6324
H74 H 0.3013 -0.1557 0.6837
H75 H 0.2541 -0.1700 0.6549
C58 C 0.3676(9) -0.1992(6) 0.6238(6)
H76 H 0.3799 -0.1882 0.5885
H77 H 0.3559 -0.2326 0.6281
C59 C 0.4369(6) -0.2058(4) 0.6437(4)
H78 H 0.4249 -0.2165 0.6790
H79 H 0.4772 -0.2325 0.6270
C60 C 0.4586(5) -0.1584(3) 0.6349(3)
H80 H 0.4198 -0.1324 0.6538
H81 H 0.4667 -0.1461 0.5999
C61 C 0.5259(4) -0.1657(2) 0.6495(3)
H82 H 0.5667 -0.1866 0.6265
H83 H 0.5208 -0.1839 0.6824
C62 C 0.5407(4) -0.1150(2) 0.6493(3)
H84 H 0.5029 -0.0959 0.6752
H85 H 0.5876 -0.1204 0.6563
C63 C 0.5423(5) -0.03957(18) 0.6019(2)
C64 C 0.5546(3) -0.01511(15) 0.63420(15)
H86 H 0.5630 -0.0330 0.6637
C65 C 0.5549(2) 0.03547(14) 0.62438(14)
H87 H 0.5631 0.0520 0.6476
C66 C 0.5436(3) 0.06278(15) 0.58182(15)
C67 C 0.5295(7) 0.0379(2) 0.5497(2)
H88 H 0.5182 0.0560 0.5210
C68 C 0.5318(8) -0.0123(2) 0.5591(3)
H89 H 0.5259 -0.0294 0.5353
C69 C 0.5156(2) 0.15127(13) 0.54282(13)
C70 C 0.47859(19) 0.24568(12) 0.53201(12)
C71 C 0.4550(2) 0.28745(13) 0.55865(13)
H90 H 0.4488 0.2827 0.5928
C72 C 0.4405(2) 0.33615(14) 0.53579(14)
H91 H 0.4245 0.3645 0.5544
C73 C 0.4490(2) 0.34376(13) 0.48653(13)
C74 C 0.4685(2) 0.30217(14) 0.46026(13)
H92 H 0.4715 0.3073 0.4265
C75 C 0.4837(2) 0.25314(13) 0.48223(13)
H93 H 0.4976 0.2249 0.4637
C76 C 0.3554(2) 0.41654(15) 0.46700(16)
H94 H 0.3478 0.4526 0.4550
H95 H 0.3271 0.4130 0.5010
H96 H 0.3403 0.3985 0.4472
C77 C 0.4761(2) 0.42685(13) 0.45734(12)
C78 C 0.5519(2) 0.40310(12) 0.45998(12)
C79 C 0.57753(19) 0.42156(12) 0.49140(12)
H97 H 0.5464 0.4468 0.5120
C80 C 0.64961(19) 0.40251(12) 0.49240(12)
C81 C 0.6940(2) 0.36593(13) 0.46212(13)
H98 H 0.7427 0.3531 0.4628
C82 C 0.6690(2) 0.34751(13) 0.43063(13)
C83 C 0.5975(2) 0.36710(13) 0.42955(13)
H99 H 0.5801 0.3555 0.4076
C84 C 0.7183(2) 0.31119(17) 0.39502(16)
C85 C 0.8165(3) 0.23660(19) 0.3767(2)
H100 H 0.8612 0.2253 0.3867
H101 H 0.8254 0.2556 0.3445
H102 H 0.7996 0.2070 0.3752
C86 C 0.7487(2) 0.24974(15) 0.46296(17)
C87 C 0.8001(2) 0.24374(17) 0.48656(19)
H103 H 0.8438 0.2530 0.4692
C88 C 0.7909(2) 0.22468(17) 0.5349(2)
H104 H 0.8274 0.2211 0.5504
C89 C 0.7262(2) 0.21059(14) 0.56071(17)
C90 C 0.6748(2) 0.21633(15) 0.53585(16)
H105 H 0.6312 0.2068 0.5527
C91 C 0.6848(2) 0.23524(15) 0.48804(16)
H106 H 0.6489 0.2385 0.4720
C92 C 0.7527(2) 0.18538(16) 0.64153(19)
C93 C 0.7485(2) 0.16406(15) 0.72734(19)
C94 C 0.8174(2) 0.13313(16) 0.72397(19)
H107 H 0.8448 0.1186 0.6944
C95 C 0.8463(2) 0.12336(16) 0.76279(18)
H108 H 0.8932 0.1020 0.7600
C96 C 0.8070(2) 0.14475(15) 0.80614(17)
C97 C 0.7388(2) 0.17595(14) 0.80945(18)
H109 H 0.7118 0.1911 0.8387
C98 C 0.7098(2) 0.18510(16) 0.77057(18)
H110 H 0.6627 0.2061 0.7735
C99 C 0.8030(2) 0.15371(15) 0.88808(17)
H111 H 0.7564 0.1442 0.9017
H112 H 0.7935 0.1912 0.8832
C100 C 0.8494(2) 0.13317(16) 0.92226(17)
H113 H 0.8968 0.1412 0.9074
H114 H 0.8573 0.0958 0.9276
C101 C 0.8148(3) 0.15569(17) 0.97088(19)
H115 H 0.8012 0.1932 0.9650
H116 H 0.7702 0.1442 0.9873
C102 C 0.8636(3) 0.14091(19) 1.0041(2)
H117 H 0.9092 0.1506 0.9867
H118 H 0.8751 0.1035 1.0111
C103 C 0.8328(6) 0.1647(2) 1.0523(3)
H119 H 0.7947 0.1481 1.0729
H120 H 0.8715 0.1565 1.0688
C104 C 0.8017(6) 0.2210(3) 1.0507(4)
H121 H 0.8403 0.2383 1.0449
H122 H 0.7663 0.2295 1.0818
H123 H 0.7781 0.2320 1.0244
C105 C 0.68153(19) 0.42463(12) 0.52189(12)
C106 C 0.6750(2) 0.45132(13) 0.59920(13)
H124 H 0.6792 0.4311 0.6299
H125 H 0.6394 0.4836 0.6060
H126 H 0.7217 0.4579 0.5807
C107 C 0.60023(18) 0.39522(11) 0.59730(11)
C108 C 0.61486(19) 0.34314(12) 0.59415(12)
H127 H 0.6568 0.3269 0.5711
C109 C 0.56825(18) 0.31509(11) 0.62462(11)
H128 H 0.5780 0.2796 0.6228
C110 C 0.50710(17) 0.33971(11) 0.65783(11)
C111 C 0.49055(19) 0.39143(12) 0.65946(12)
H129 H 0.4472 0.4080 0.6812
C112 C 0.53753(19) 0.41922(12) 0.62920(12)
H130 H 0.5266 0.4549 0.6304
O31 O 0.2995(4) 0.6435(2) 0.7478(2)
H131 H 0.2778 0.6352 0.7810
H132 H 0.3223 0.6133 0.7311
O32 O 1.0642(2) 0.57793(14) 0.38060(15)
H133 H 1.0270 0.5743 0.4106
H134 H 1.1053 0.5820 0.3888
O33 O 0.5469(5) 0.85786(18) 0.76856(18)
H135 H 0.5425 0.8924 0.7521
H136 H 0.5435 0.8373 0.7447
N17 N 0.86117(15) 0.47989(10) 0.36029(9)
C113 C 1.0736(2) 0.48386(18) 0.25686(16)
H137 H 1.1032 0.4992 0.2277
H138 H 1.0366 0.4733 0.2482
H139 H 1.1040 0.4542 0.2706
C114 C 1.0379(2) 0.52217(15) 0.29395(14)
H140 H 1.0130 0.5540 0.2784
H141 H 1.0752 0.5299 0.3052
C115 C 0.9835(2) 0.50291(15) 0.33789(13)
H142 H 1.0026 0.4663 0.3464
H143 H 0.9763 0.5213 0.3662
C116 C 0.91168(19) 0.51093(13) 0.32666(12)
H144 H 0.8866 0.5473 0.3280
H145 H 0.9215 0.5028 0.2929
C117 C 0.8564(2) 0.48260(12) 0.41330(11)
H146 H 0.8245 0.4611 0.4340
H147 H 0.9049 0.4677 0.4182
C118 C 0.8292(2) 0.53490(13) 0.43082(12)
H148 H 0.7780 0.5483 0.4312
H149 H 0.8569 0.5581 0.4082
C119 C 0.8371(2) 0.53306(14) 0.48214(13)
H150 H 0.8102 0.5660 0.4954
H151 H 0.8148 0.5065 0.5034
C120 C 0.9141(2) 0.52237(19) 0.48437(17)
H152 H 0.9147 0.5217 0.5181
H153 H 0.9364 0.5490 0.4642
H154 H 0.9410 0.4894 0.4722
C121 C 0.8885(2) 0.42437(12) 0.35128(12)
H155 H 0.8571 0.4052 0.3763
H156 H 0.9373 0.4122 0.3561
C122 C 0.8922(2) 0.41152(13) 0.30149(13)
H157 H 0.8466 0.4289 0.2932
H158 H 0.9318 0.4235 0.2765
C123 C 0.9051(3) 0.35466(16) 0.30163(16)
H159 H 0.8677 0.3425 0.3286
H160 H 0.9524 0.3378 0.3077
C124 C 0.9035(3) 0.33964(18) 0.25397(17)
H161 H 0.9105 0.3028 0.2562
H162 H 0.9422 0.3499 0.2274
H163 H 0.8570 0.3566 0.2476
C125 C 0.78747(18) 0.50137(12) 0.35061(12)
H164 H 0.7677 0.5360 0.3615
H165 H 0.7940 0.5045 0.3150
C126 C 0.73281(19) 0.47022(12) 0.37532(12)
H166 H 0.7366 0.4578 0.4088
H167 H 0.7435 0.4403 0.3572
C127 C 0.6565(2) 0.50131(13) 0.37754(13)
H168 H 0.6550 0.5185 0.3448
H169 H 0.6239 0.4781 0.3866
C128 C 0.6295(2) 0.54072(14) 0.41363(14)
H170 H 0.5788 0.5572 0.4160
H171 H 0.6579 0.5662 0.4027
H172 H 0.6343 0.5243 0.4456
N18 N 0.5483(5) 0.4379(3) 0.0931(3)
C129 C 0.5493(7) 0.4234(5) 0.1828(4)
H173 H 0.5907 0.3962 0.1879
H174 H 0.5047 0.4145 0.2029
H175 H 0.5519 0.4552 0.1921
C130 C 0.5503(5) 0.4297(3) 0.1305(4)
N19 N 0.23882(16) 0.99050(10) 0.89046(10)
C131 C 0.3995(2) 1.04674(14) 0.92579(14)
H176 H 0.4398 1.0611 0.9239
H177 H 0.3829 1.0309 0.9588
H178 H 0.3600 1.0738 0.9180
C132 C 0.4241(2) 1.00713(12) 0.88978(13)
H179 H 0.4689 0.9830 0.8944
H180 H 0.4351 1.0241 0.8563
C133 C 0.3676(2) 0.97737(12) 0.89534(13)
H181 H 0.3902 0.9467 0.8775
H182 H 0.3486 0.9663 0.9302
C134 C 0.3063(2) 1.01029(12) 0.87552(13)
H183 H 0.3235 1.0138 0.8395
H184 H 0.2936 1.0446 0.8866
C135 C 0.2042(2) 0.99107(12) 0.94473(13)
H185 H 0.1588 0.9801 0.9524
H186 H 0.2365 0.9656 0.9617
C136 C 0.1872(3) 1.04133(16) 0.96537(17)
H187 H 0.1676 1.0691 0.9429
H188 H 0.2320 1.0473 0.9681
C137 C 0.1331(3) 1.04193(18) 1.01501(17)
H189 H 0.1484 1.0104 1.0353
H190 H 0.1325 1.0710 1.0311
C138 C 0.0582(3) 1.0460(3) 1.0122(3)
H191 H 0.0254 1.0459 1.0451
H192 H 0.0583 1.0171 0.9966
H193 H 0.0421 1.0777 0.9930
C139 C 0.2569(2) 0.93593(13) 0.87925(13)
H194 H 0.2877 0.9149 0.8998
H195 H 0.2116 0.9246 0.8891
C140 C 0.2944(3) 0.92517(17) 0.82711(15)
H196 H 0.3384 0.9381 0.8157
H197 H 0.2624 0.9427 0.8062
C141 C 0.3147(4) 0.8670(2) 0.8233(2)
H198 H 0.3437 0.8498 0.8462
H199 H 0.2700 0.8549 0.8335
C142 C 0.3556(4) 0.8520(3) 0.7739(3)
H200 H 0.3612 0.8156 0.7733
H201 H 0.4031 0.8591 0.7653
H202 H 0.3295 0.8712 0.7504
C143 C 0.1871(2) 1.02524(14) 0.86253(14)
H203 H 0.1746 1.0599 0.8727
H204 H 0.2128 1.0268 0.8274
C144 C 0.1177(2) 1.00989(14) 0.86920(14)
H205 H 0.1285 0.9785 0.8532
H206 H 0.0952 1.0027 0.9043
C145 C 0.0658(2) 1.05182(17) 0.84740(17)
H207 H 0.0504 1.0815 0.8664
H208 H 0.0912 1.0623 0.8137
C146 C 0.0000(3) 1.03660(19) 0.8465(2)
H209 H -0.0315 1.0654 0.8325
H210 H -0.0259 1.0264 0.8797
H211 H 0.0146 1.0081 0.8266
N20 N 0.35778(16) 0.45894(11) 0.06280(11)
C147 C 0.3070(3) 0.64044(17) -0.0141(2)
H212 H 0.2758 0.6643 -0.0323
H213 H 0.3572 0.6352 -0.0338
H214 H 0.3018 0.6543 0.0162
C148 C 0.2858(2) 0.59018(15) -0.00203(17)
H215 H 0.2906 0.5765 -0.0326
H216 H 0.2347 0.5958 0.0172
C149 C 0.3322(2) 0.55175(14) 0.02670(15)
H217 H 0.3292 0.5661 0.0565
H218 H 0.3830 0.5449 0.0069
C150 C 0.3085(2) 0.50217(14) 0.04082(14)
H219 H 0.2603 0.5087 0.0644
H220 H 0.3037 0.4913 0.0114
C151 C 0.3221(2) 0.41442(14) 0.07544(14)
H221 H 0.2751 0.4246 0.0997
H222 H 0.3122 0.4085 0.0457
C152 C 0.3634(2) 0.36469(16) 0.09522(16)
H223 H 0.3889 0.3711 0.1170
H224 H 0.3997 0.3465 0.0681
C153 C 0.3100(3) 0.33163(17) 0.12401(18)
H225 H 0.2784 0.3478 0.1537
H226 H 0.2791 0.3303 0.1037
C154 C 0.3478(4) 0.2787(2) 0.1383(2)
H227 H 0.3122 0.2590 0.1550
H228 H 0.3761 0.2797 0.1601
H229 H 0.3798 0.2628 0.1090
C155 C 0.2516(2) 0.51709(17) 0.23366(15)
H230 H 0.2650 0.5282 0.2592
H231 H 0.2310 0.4877 0.2468
H232 H 0.2159 0.5448 0.2222
C156 C 0.3176(2) 0.50250(16) 0.19166(14)
H233 H 0.3528 0.4737 0.2032
H234 H 0.3403 0.5315 0.1800
C157 C 0.2996(2) 0.48739(16) 0.14945(14)
H235 H 0.2775 0.4581 0.1607
H236 H 0.2646 0.5160 0.1376
C158 C 0.3675(2) 0.47342(16) 0.10850(14)
H237 H 0.4015 0.4446 0.1211
H238 H 0.3901 0.5025 0.0991
C159 C 0.4321(2) 0.44442(15) 0.02826(15)
H239 H 0.4564 0.4719 0.0251
H240 H 0.4600 0.4135 0.0431
C160 C 0.4353(2) 0.43462(15) -0.02210(15)
H241 H 0.4112 0.4660 -0.0387
H242 H 0.4097 0.4080 -0.0198
C161 C 0.5136(2) 0.41744(16) -0.05139(16)
H243 H 0.5415 0.4392 -0.0458
H244 H 0.5335 0.3822 -0.0392
C162 C 0.5237(2) 0.41945(16) -0.10541(15)
H245 H 0.5749 0.4074 -0.1218
H246 H 0.5061 0.4545 -0.1182
H247 H 0.4967 0.3977 -0.1114
O34? O 0.04945(15) 0.23524(10) 1.09629(9)
O35? O -0.00033(14) 0.19139(10) 0.89798(9)
O36? O -0.0102(2) 0.22647(14) 0.59613(12)
O37? O 0.0522(2) 0.01647(15) 0.70039(16)
O38? O 0.46791(14) -0.03252(8) 0.75446(9)
O39? O 0.77690(19) -0.03807(12) 0.78466(19)
O40? O 0.2408(4) 0.1044(3) 0.50253(15)
N21? N 0.11134(15) 0.17603(10) 0.91008(10)
H248? H 0.1557 0.1671 0.8959
N22? N 0.10083(15) 0.17864(11) 0.83326(10)
H249? H 0.1425 0.1793 0.8268
N23? N -0.0241(2) 0.22510(13) 0.67654(14)
N24? N 0.1666(2) -0.00400(13) 0.70538(13)
N25? N 0.39432(16) 0.04762(10) 0.74468(10)
H250? H 0.3881 0.0793 0.7550
N26? N 0.50770(17) 0.03904(10) 0.75001(11)
H251? H 0.5007 0.0708 0.7393
N27? N 0.30081(18) 0.13466(13) 0.53906(11)
N28? N 0.33977(15) 0.20023(10) 0.70126(10)
H252? H 0.3775 0.1863 0.7049
H253? H 0.3314 0.2354 0.6987
H254? H 0.3079 0.1932 0.7308
C163? C 0.1340(8) 0.3202(5) 1.2994(5)
H255? H 0.1657 0.3041 1.3203
H256? H 0.0860 0.3144 1.3150
H257? H 0.1306 0.3568 1.2941
C164? C 0.1645(9) 0.2976(6) 1.2504(6)
H258? H 0.2046 0.2675 1.2526
H259? H 0.1842 0.3229 1.2252
C165? C 0.1055(5) 0.2814(4) 1.2346(3)
H260? H 0.0849 0.2572 1.2607
H261? H 0.0662 0.3119 1.2320
C166? C 0.1326(4) 0.2572(4) 1.1868(3)
H262? H 0.1604 0.2220 1.1924
H263? H 0.1659 0.2760 1.1632
C167? C 0.0742(3) 0.2560(2) 1.16409(18)
H264? H 0.0392 0.2386 1.1879
H265? H 0.0481 0.2912 1.1563
C168? C 0.1052(3) 0.22882(19) 1.11823(16)
H266? H 0.1444 0.2432 1.0957
H267? H 0.1251 0.1923 1.1263
C169? C 0.0676(2) 0.21813(13) 1.05108(13)
C170? C 0.0126(2) 0.22924(13) 1.02833(13)
H268? H -0.0342 0.2472 1.0447
C171? C 0.02401(19) 0.21492(12) 0.98306(13)
H269? H -0.0147 0.2223 0.9687
C172? C 0.09293(18) 0.18941(12) 0.95801(12)
C173? C 0.14827(19) 0.17820(12) 0.98032(12)
H270? H 0.1951 0.1603 0.9639
C174? C 0.1359(2) 0.19287(13) 1.02666(13)
H271? H 0.1743 0.1855 1.0413
C175? C 0.06507(19) 0.18313(12) 0.88188(12)
C176? C 0.06746(19) 0.18918(12) 0.79525(13)
C177? C -0.0026(2) 0.18595(13) 0.80141(14)
H272? H -0.0305 0.1756 0.8325
C178? C -0.0315(2) 0.19794(13) 0.76188(14)
H273? H -0.0795 0.1960 0.7664
C179? C 0.0078(2) 0.21243(13) 0.71658(14)
C180? C 0.0782(2) 0.21558(13) 0.70999(14)
H274? H 0.1057 0.2260 0.6787
C181? C 0.1080(2) 0.20346(12) 0.74903(13)
H275? H 0.1563 0.2049 0.7443
C182? C -0.0902(2) 0.26518(17) 0.6808(2)
H276? H -0.1244 0.2541 0.6697
H277? H -0.0794 0.2959 0.6607
H278? H -0.1113 0.2725 0.7149
C183? C 0.0095(3) 0.20710(17) 0.63278(17)
C184? C 0.0702(3) 0.16074(17) 0.63007(15)
C185? C 0.0653(3) 0.11734(16) 0.66273(15)
H279? H 0.0231 0.1174 0.6889
C186? C 0.1212(3) 0.07453(17) 0.65712(16)
C187? C 0.1838(3) 0.07396(17) 0.61853(15)
H280? H 0.2233 0.0450 0.6153
C188? C 0.1870(3) 0.11695(18) 0.58498(15)
C189? C 0.1306(3) 0.15936(18) 0.59111(15)
H281? H 0.1332 0.1883 0.5681
C190? C 0.1098(3) 0.02724(18) 0.69011(18)
C191? C 0.2250(2) 0.01211(15) 0.71065(14)
C192? C 0.2944(2) -0.01927(14) 0.69879(14)
H282? H 0.3030 -0.0488 0.6831
C193? C 0.3510(2) -0.00869(13) 0.70921(14)
H283? H 0.3977 -0.0308 0.7007
C194? C 0.3395(2) 0.03481(12) 0.73241(12)
C195? C 0.2717(2) 0.06787(13) 0.74139(13)
H284? H 0.2640 0.0986 0.7550
C196? C 0.2149(2) 0.05712(14) 0.73102(13)
H285? H 0.1689 0.0803 0.7377
C197? C 0.4579(2) 0.01380(12) 0.75021(12)
C198? C 0.5770(2) 0.01675(13) 0.75667(14)
C199? C 0.6300(2) 0.04276(14) 0.73509(17)
H286? H 0.6199 0.0728 0.7142
C200? C 0.6972(2) 0.02623(15) 0.7431(2)
H287? H 0.7329 0.0447 0.7280
C201? C 0.7122(2) -0.01797(16) 0.7737(2)
C202? C 0.6594(2) -0.04441(14) 0.79486(17)
H288? H 0.6698 -0.0749 0.8151
C203? C 0.5925(2) -0.02729(13) 0.78710(14)
H289? H 0.5566 -0.0455 0.8025
C204? C 0.8336(3) -0.0121(2) 0.7642(4)
H290? H 0.8162 0.0243 0.7702
H291? H 0.8532 -0.0148 0.7288
C205? C 0.8920(6) -0.0405(4) 0.7919(4)
H292? H 0.9175 -0.0741 0.7777
H293? H 0.8684 -0.0484 0.8263
C206? C 0.2475(3) 0.11663(18) 0.53955(15)
C207? C 0.3558(3) 0.1402(3) 0.49294(18)
H294? H 0.4037 0.1277 0.4984
H295? H 0.3487 0.1760 0.4803
H296? H 0.3517 0.1204 0.4693
C208? C 0.3092(2) 0.15052(15) 0.58145(13)
C209? C 0.3540(3) 0.11906(14) 0.60695(14)
H297? H 0.3780 0.0858 0.5977
C210? C 0.3649(2) 0.13498(13) 0.64608(13)
H298? H 0.3971 0.1132 0.6632
C211? C 0.32861(19) 0.18298(13) 0.66006(12)
C212? C 0.2822(3) 0.21341(17) 0.63569(16)
H299? H 0.2558 0.2459 0.6460
C213? C 0.2729(3) 0.19745(19) 0.59602(18)
H300? H 0.2410 0.2193 0.5788
C214? C 0.1545(3) -0.05212(17) 0.73297(19)
H301? H 0.2008 -0.0768 0.7308
H302? H 0.1247 -0.0652 0.7193
H303? H 0.1298 -0.0464 0.7671
O41? O 0.2485(2) 0.26863(13) 0.44927(11)
O42? O 0.02436(13) 0.33615(10) 0.65945(9)
O43? O -0.13345(13) 0.30830(9) 0.97651(8)
O44? O -0.16154(13) 0.52587(9) 0.87822(9)
O45? O 0.28305(13) 0.53659(8) 0.75516(9)
O46? O 0.62040(15) 0.52701(10) 0.69959(10)
O47? O -0.00565(14) 0.43643(9) 1.04059(8)
N29? N 0.36724(15) 0.46080(9) 0.75403(10)
H304? H 0.3709 0.4313 0.7659
N30? N 0.24816(14) 0.46144(9) 0.77237(9)
H305? H 0.2624 0.4302 0.7625
N31? N -0.04900(15) 0.53794(10) 0.85429(10)
N32? N -0.11589(15) 0.31717(10) 0.89440(10)
N33? N 0.08263(15) 0.34533(11) 0.71299(10)
H306? H 0.1250 0.3391 0.7164
N34? N 0.14209(15) 0.34123(10) 0.63227(10)
H307? H 0.1774 0.3511 0.6394
N35? N 0.08479(16) 0.37469(11) 1.00176(10)
N36? N 0.26328(15) 0.30617(9) 0.82080(9)
H308? H 0.2707 0.2726 0.8245
H309? H 0.3014 0.3225 0.8130
H310? H 0.2419 0.3186 0.7957
C215? C 0.9167(2) 0.61140(15) 0.58016(16)
H311? H 0.9196 0.6421 0.5577
H312? H 0.9527 0.5823 0.5650
H313? H 0.9261 0.6157 0.6103
C216? C 0.8422(2) 0.60229(14) 0.59169(15)
H314? H 0.8064 0.6319 0.6070
H315? H 0.8323 0.6000 0.5608
C217? C 0.8323(2) 0.55467(15) 0.62522(15)
H316? H 0.8396 0.5578 0.6567
H317? H 0.8699 0.5253 0.6108
C218? C 0.7589(2) 0.54394(16) 0.63470(15)
H318? H 0.7597 0.5097 0.6522
H319? H 0.7498 0.5437 0.6031
C219? C 0.6975(2) 0.58242(17) 0.66432(18)
H320? H 0.7056 0.5813 0.6965
H321? H 0.6987 0.6168 0.6477
C220? C 0.6233(2) 0.57449(16) 0.67211(17)
H322? H 0.5862 0.6021 0.6899
H323? H 0.6142 0.5747 0.6404
C221? C 0.5566(2) 0.51280(14) 0.71114(14)
C222? C 0.4972(2) 0.54086(14) 0.69499(13)
H324? H 0.4997 0.5714 0.6743
C223? C 0.4348(2) 0.52429(13) 0.70909(12)
H325? H 0.3946 0.5433 0.6978
C224? C 0.43016(18) 0.47983(12) 0.73984(11)
C225? C 0.48916(19) 0.45194(13) 0.75564(12)
H326? H 0.4867 0.4215 0.7764
C226? C 0.5523(2) 0.46869(14) 0.74103(14)
H327? H 0.5929 0.4494 0.7519
C227? C 0.29871(18) 0.49031(11) 0.75999(11)
C228? C 0.17386(18) 0.48112(11) 0.79354(11)
C229? C 0.14860(19) 0.52352(12) 0.81991(11)
H328? H 0.1814 0.5407 0.8233
C230? C 0.07598(19) 0.54036(12) 0.84108(12)
H329? H 0.0591 0.5691 0.8592
C231? C 0.02729(17) 0.51600(11) 0.83638(11)
C232? C 0.05270(18) 0.47268(11) 0.81161(11)
H330? H 0.0199 0.4549 0.8092
C233? C 0.12557(18) 0.45527(12) 0.79042(11)
H331? H 0.1426 0.4255 0.7737
C234? C -0.0768(2) 0.58986(12) 0.83537(13)
H332? H -0.1230 0.6047 0.8578
H333? H -0.0836 0.5896 0.8033
H334? H -0.0425 0.6101 0.8323
C235? C -0.09750(18) 0.51039(12) 0.87783(12)
C236? C -0.07305(18) 0.46149(12) 0.90642(12)
C237? C -0.09738(18) 0.41947(12) 0.90416(12)
H335? H -0.1258 0.4214 0.8828
C238? C -0.07995(18) 0.37465(12) 0.93336(11)
C239? C -0.03885(18) 0.37237(12) 0.96433(12)
H336? H -0.0261 0.3417 0.9838
C240? C -0.01560(18) 0.41464(12) 0.96745(11)
C241? C -0.03262(18) 0.45934(12) 0.93817(12)
H337? H -0.0167 0.4881 0.9399
C242? C 0.02248(19) 0.41081(12) 1.00547(12)
C243? C 0.1143(2) 0.36151(17) 1.04345(14)
H338? H 0.1520 0.3299 1.0390
H339? H 0.0760 0.3570 1.0731
H340? H 0.1348 0.3888 1.0463
C244? C 0.12861(18) 0.35710(12) 0.95520(11)
C245? C 0.15632(18) 0.39110(12) 0.91848(12)
H341? H 0.1448 0.4260 0.9234
C246? C 0.20081(18) 0.37428(12) 0.87450(12)
H342? H 0.2211 0.3973 0.8495
C247? C 0.21549(17) 0.32407(11) 0.86721(11)
C248? C 0.1882(2) 0.28949(13) 0.90372(13)
H343? H 0.1992 0.2547 0.8985
C249? C 0.1443(2) 0.30672(13) 0.94804(13)
H344? H 0.1252 0.2835 0.9735
C250? C 0.2797(8) 0.2577(5) 0.3493(5)
H345? H 0.3112 0.2414 0.3189
H346? H 0.3077 0.2750 0.3599
C251? C 0.2587(5) 0.2169(3) 0.3871(3)
H347? H 0.3022 0.1925 0.3936
H348? H 0.2321 0.1984 0.3756
C252? C 0.2117(3) 0.2410(2) 0.4330(2)
H349? H 0.1673 0.2641 0.4266
H350? H 0.1977 0.2142 0.4587
C253? C 0.2162(2) 0.28825(15) 0.49384(14)
C254? C 0.1475(2) 0.28811(13) 0.52099(13)
H351? H 0.1181 0.2754 0.5083
C255? C 0.1199(2) 0.30607(12) 0.56659(13)
H352? H 0.0722 0.3053 0.5851
C256? C 0.16247(19) 0.32527(12) 0.58518(12)
C257? C 0.2313(2) 0.32670(15) 0.55707(14)
H353? H 0.2603 0.3407 0.5690
C258? C 0.2585(3) 0.30809(17) 0.51209(15)
H354? H 0.3062 0.3088 0.4935
C259? C 0.07872(19) 0.34040(12) 0.66744(12)
C260? C 0.03021(18) 0.33942(12) 0.75710(12)
C261? C 0.05392(18) 0.32439(12) 0.79911(12)
H355? H 0.1035 0.3191 0.7968
C262? C 0.00639(18) 0.31709(12) 0.84378(12)
H356? H 0.0235 0.3059 0.8719
C263? C -0.06651(18) 0.32602(12) 0.84802(12)
C264? C -0.09061(19) 0.34135(13) 0.80670(13)
H357? H -0.1404 0.3473 0.8094
C265? C -0.0427(2) 0.34813(13) 0.76116(13)
H358? H -0.0598 0.3587 0.7330
C266? C -0.11057(18) 0.32988(12) 0.93642(12)
C267? C -0.1542(2) 0.27755(13) 0.89903(13)
H359? H -0.1936 0.2800 0.9291
H360? H -0.1208 0.2440 0.8999
H361? H -0.1739 0.2822 0.8711
loop_
_geom_bond_atom_site_label_1
_geom_bond_atom_site_label_2
_geom_bond_site_symmetry_1
_geom_bond_site_symmetry_2
S1 O1 1_555 1_555
O2 S1 1_555 1_555
O3 S1 1_555 1_555
O4 S1 1_555 1_555
S2 O5 1_555 1_555
O6 S2 1_555 1_555
O7 S2 1_555 1_555
O8 S2 1_555 1_555
S3 O9 1_555 1_555
O10 S3 1_555 1_555
O11 S3 1_555 1_555
O12 S3 1_555 1_555
S4 O13 1_555 1_555
O14 S4 1_555 1_555
O15 S4 1_555 1_555
O16 S4 1_555 1_555
O17 C6 1_555 1_555
O18 C13 1_555 1_555
O19 C21 1_555 1_555
O20 C29 1_555 1_555
O21 C36 1_555 1_555
O22 C40 1_555 1_555
O23 C49 1_555 1_555
N1 H1 1_555 1_555
N2 H2 1_555 1_555
N3 C17 1_555 1_555
N4 C28 1_555 1_555
N5 H3 1_555 1_555
N6 H4 1_555 1_555
N7 C49 1_555 1_555
N8 H5 1_555 1_555
H6 N8 1_555 1_555
H7 N8 1_555 1_555
C1 H8 1_555 1_555
H9 C1 1_555 1_555
H10 C1 1_555 1_555
C2 C1 1_555 1_555
H11 C2 1_555 1_555
H12 C2 1_555 1_555
C3 C2 1_555 1_555
H13 C3 1_555 1_555
H14 C3 1_555 1_555
C4 C3 1_555 1_555
H15 C4 1_555 1_555
H16 C4 1_555 1_555
C5 C4 1_555 1_555
H17 C5 1_555 1_555
H18 C5 1_555 1_555
C6 C5 1_555 1_555
H19 C6 1_555 1_555
H20 C6 1_555 1_555
C7 O17 1_555 1_555
C8 C7 1_555 1_555
H21 C8 1_555 1_555
C9 C8 1_555 1_555
H22 C9 1_555 1_555
C10 N1 1_555 1_555
C11 C10 1_555 1_555
H23 C11 1_555 1_555
C12 C7 1_555 1_555
H24 C12 1_555 1_555
C13 N1 1_555 1_555
C14 N2 1_555 1_555
C15 C14 1_555 1_555
H25 C15 1_555 1_555
C16 C15 1_555 1_555
H26 C16 1_555 1_555
C17 C16 1_555 1_555
C18 C17 1_555 1_555
H27 C18 1_555 1_555
C19 C14 1_555 1_555
H28 C19 1_555 1_555
C20 N3 1_555 1_555
H29 C20 1_555 1_555
H30 C20 1_555 1_555
H31 C20 1_555 1_555
C21 N3 1_555 1_555
C22 C21 1_555 1_555
C23 C22 1_555 1_555
H32 C23 1_555 1_555
C24 C23 1_555 1_555
C25 C24 1_555 1_555
H33 C25 1_555 1_555
C26 C25 1_555 1_555
C27 C22 1_555 1_555
H34 C27 1_555 1_555
C28 H35 1_555 1_555
H36 C28 1_555 1_555
H37 C28 1_555 1_555
C29 N4 1_555 1_555
C30 N4 1_555 1_555
C31 C30 1_555 1_555
H38 C31 1_555 1_555
C32 C31 1_555 1_555
H39 C32 1_555 1_555
C33 N5 1_555 1_555
C34 C33 1_555 1_555
H40 C34 1_555 1_555
C35 C30 1_555 1_555
H41 C35 1_555 1_555
C36 N5 1_555 1_555
C37 N6 1_555 1_555
C38 C37 1_555 1_555
H42 C38 1_555 1_555
C39 C38 1_555 1_555
H43 C39 1_555 1_555
C40 C39 1_555 1_555
C41 C40 1_555 1_555
H44 C41 1_555 1_555
C42 C37 1_555 1_555
H45 C42 1_555 1_555
C43 O22 1_555 1_555
H46 C43 1_555 1_555
H47 C43 1_555 1_555
C44 C43 1_555 1_555
H48 C44 1_555 1_555
H49 C44 1_555 1_555
C45 C44 1_555 1_555
H50 C45 1_555 1_555
H51 C45 1_555 1_555
C46 C45 1_555 1_555
H52 C46 1_555 1_555
H53 C46 1_555 1_555
C47 C46 1_555 1_555
H54 C47 1_555 1_555
H55 C47 1_555 1_555
C48 C47 1_555 1_555
H56 C48 1_555 1_555
H57 C48 1_555 1_555
H58 C48 1_555 1_555
C49 C26 1_555 1_555
C50 N7 1_555 1_555
H59 C50 1_555 1_555
H60 C50 1_555 1_555
H61 C50 1_555 1_555
C51 N7 1_555 1_555
C52 C51 1_555 1_555
H62 C52 1_555 1_555
C53 C52 1_555 1_555
H63 C53 1_555 1_555
C54 N8 1_555 1_555
C55 C54 1_555 1_555
H64 C55 1_555 1_555
C56 C51 1_555 1_555
H65 C56 1_555 1_555
O24 C62 1_555 1_555
O25 C69 1_555 1_555
O26 C77 1_555 1_555
O27 C84 1_555 1_555
O28 C92 1_555 1_555
O29 C96 1_555 1_555
O30 C105 1_555 1_555
N9 H66 1_555 1_555
N10 H67 1_555 1_555
N11 C73 1_555 1_555
N12 C84 1_555 1_555
N13 H68 1_555 1_555
N14 H69 1_555 1_555
N15 C105 1_555 1_555
N16 H70 1_555 1_555
H71 N16 1_555 1_555
H72 N16 1_555 1_555
C57 H73 1_555 1_555
H74 C57 1_555 1_555
H75 C57 1_555 1_555
C58 C57 1_555 1_555
H76 C58 1_555 1_555
H77 C58 1_555 1_555
C59 C58 1_555 1_555
H78 C59 1_555 1_555
H79 C59 1_555 1_555
C60 C59 1_555 1_555
H80 C60 1_555 1_555
H81 C60 1_555 1_555
C61 C60 1_555 1_555
H82 C61 1_555 1_555
H83 C61 1_555 1_555
C62 C61 1_555 1_555
H84 C62 1_555 1_555
H85 C62 1_555 1_555
C63 O24 1_555 1_555
C64 C63 1_555 1_555
H86 C64 1_555 1_555
C65 C64 1_555 1_555
H87 C65 1_555 1_555
C66 N9 1_555 1_555
C67 C66 1_555 1_555
H88 C67 1_555 1_555
C68 C63 1_555 1_555
H89 C68 1_555 1_555
C69 N9 1_555 1_555
C70 N10 1_555 1_555
C71 C70 1_555 1_555
H90 C71 1_555 1_555
C72 C71 1_555 1_555
H91 C72 1_555 1_555
C73 C72 1_555 1_555
C74 C73 1_555 1_555
H92 C74 1_555 1_555
C75 C70 1_555 1_555
H93 C75 1_555 1_555
C76 N11 1_555 1_555
H94 C76 1_555 1_555
H95 C76 1_555 1_555
H96 C76 1_555 1_555
C77 N11 1_555 1_555
C78 C77 1_555 1_555
C79 C78 1_555 1_555
H97 C79 1_555 1_555
C80 C79 1_555 1_555
C81 C80 1_555 1_555
H98 C81 1_555 1_555
C82 C81 1_555 1_555
C83 C78 1_555 1_555
H99 C83 1_555 1_555
C84 C82 1_555 1_555
C85 N12 1_555 1_555
H100 C85 1_555 1_555
H101 C85 1_555 1_555
H102 C85 1_555 1_555
C86 N12 1_555 1_555
C87 C86 1_555 1_555
H103 C87 1_555 1_555
C88 C87 1_555 1_555
H104 C88 1_555 1_555
C89 N13 1_555 1_555
C90 C89 1_555 1_555
H105 C90 1_555 1_555
C91 C86 1_555 1_555
H106 C91 1_555 1_555
C92 N13 1_555 1_555
C93 N14 1_555 1_555
C94 C93 1_555 1_555
H107 C94 1_555 1_555
C95 C94 1_555 1_555
H108 C95 1_555 1_555
C96 C95 1_555 1_555
C97 C96 1_555 1_555
H109 C97 1_555 1_555
C98 C93 1_555 1_555
H110 C98 1_555 1_555
C99 O29 1_555 1_555
H111 C99 1_555 1_555
H112 C99 1_555 1_555
C100 C99 1_555 1_555
H113 C100 1_555 1_555
H114 C100 1_555 1_555
C101 C100 1_555 1_555
H115 C101 1_555 1_555
H116 C101 1_555 1_555
C102 C101 1_555 1_555
H117 C102 1_555 1_555
H118 C102 1_555 1_555
C103 C102 1_555 1_555
H119 C103 1_555 1_555
H120 C103 1_555 1_555
C104 C103 1_555 1_555
H121 C104 1_555 1_555
H122 C104 1_555 1_555
H123 C104 1_555 1_555
C105 C80 1_555 1_555
C106 N15 1_555 1_555
H124 C106 1_555 1_555
H125 C106 1_555 1_555
H126 C106 1_555 1_555
C107 N15 1_555 1_555
C108 C107 1_555 1_555
H127 C108 1_555 1_555
C109 C108 1_555 1_555
H128 C109 1_555 1_555
C110 N16 1_555 1_555
C111 C110 1_555 1_555
H129 C111 1_555 1_555
C112 C107 1_555 1_555
H130 C112 1_555 1_555
O31 H131 1_555 1_555
H132 O31 1_555 1_555
O32 H133 1_555 1_555
H134 O32 1_555 1_555
O33 H135 1_555 1_555
H136 O33 1_555 1_555
N17 C116 1_555 1_555
C113 H137 1_555 1_555
H138 C113 1_555 1_555
H139 C113 1_555 1_555
C114 C113 1_555 1_555
H140 C114 1_555 1_555
H141 C114 1_555 1_555
C115 C114 1_555 1_555
H142 C115 1_555 1_555
H143 C115 1_555 1_555
C116 C115 1_555 1_555
H144 C116 1_555 1_555
H145 C116 1_555 1_555
C117 N17 1_555 1_555
H146 C117 1_555 1_555
H147 C117 1_555 1_555
C118 C117 1_555 1_555
H148 C118 1_555 1_555
H149 C118 1_555 1_555
C119 C118 1_555 1_555
H150 C119 1_555 1_555
H151 C119 1_555 1_555
C120 C119 1_555 1_555
H152 C120 1_555 1_555
H153 C120 1_555 1_555
H154 C120 1_555 1_555
C121 N17 1_555 1_555
H155 C121 1_555 1_555
H156 C121 1_555 1_555
C122 C121 1_555 1_555
H157 C122 1_555 1_555
H158 C122 1_555 1_555
C123 C122 1_555 1_555
H159 C123 1_555 1_555
H160 C123 1_555 1_555
C124 C123 1_555 1_555
H161 C124 1_555 1_555
H162 C124 1_555 1_555
H163 C124 1_555 1_555
C125 N17 1_555 1_555
H164 C125 1_555 1_555
H165 C125 1_555 1_555
C126 C125 1_555 1_555
H166 C126 1_555 1_555
H167 C126 1_555 1_555
C127 C126 1_555 1_555
H168 C127 1_555 1_555
H169 C127 1_555 1_555
C128 C127 1_555 1_555
H170 C128 1_555 1_555
H171 C128 1_555 1_555
H172 C128 1_555 1_555
N18 C130 1_555 1_555
C129 H173 1_555 1_555
H174 C129 1_555 1_555
H175 C129 1_555 1_555
C130 C129 1_555 1_555
N19 C134 1_555 1_555
C131 H176 1_555 1_555
H177 C131 1_555 1_555
H178 C131 1_555 1_555
C132 C131 1_555 1_555
H179 C132 1_555 1_555
H180 C132 1_555 1_555
C133 C132 1_555 1_555
H181 C133 1_555 1_555
H182 C133 1_555 1_555
C134 C133 1_555 1_555
H183 C134 1_555 1_555
H184 C134 1_555 1_555
C135 N19 1_555 1_555
H185 C135 1_555 1_555
H186 C135 1_555 1_555
C136 C135 1_555 1_555
H187 C136 1_555 1_555
H188 C136 1_555 1_555
C137 C136 1_555 1_555
H189 C137 1_555 1_555
H190 C137 1_555 1_555
C138 C137 1_555 1_555
H191 C138 1_555 1_555
H192 C138 1_555 1_555
H193 C138 1_555 1_555
C139 N19 1_555 1_555
H194 C139 1_555 1_555
H195 C139 1_555 1_555
C140 C139 1_555 1_555
H196 C140 1_555 1_555
H197 C140 1_555 1_555
C141 C140 1_555 1_555
H198 C141 1_555 1_555
H199 C141 1_555 1_555
C142 C141 1_555 1_555
H200 C142 1_555 1_555
H201 C142 1_555 1_555
H202 C142 1_555 1_555
C143 N19 1_555 1_555
H203 C143 1_555 1_555
H204 C143 1_555 1_555
C144 C143 1_555 1_555
H205 C144 1_555 1_555
H206 C144 1_555 1_555
C145 C144 1_555 1_555
H207 C145 1_555 1_555
H208 C145 1_555 1_555
C146 C145 1_555 1_555
H209 C146 1_555 1_555
H210 C146 1_555 1_555
H211 C146 1_555 1_555
N20 C150 1_555 1_555
C147 H212 1_555 1_555
H213 C147 1_555 1_555
H214 C147 1_555 1_555
C148 C147 1_555 1_555
H215 C148 1_555 1_555
H216 C148 1_555 1_555
C149 C148 1_555 1_555
H217 C149 1_555 1_555
H218 C149 1_555 1_555
C150 C149 1_555 1_555
H219 C150 1_555 1_555
H220 C150 1_555 1_555
C151 N20 1_555 1_555
H221 C151 1_555 1_555
H222 C151 1_555 1_555
C152 C151 1_555 1_555
H223 C152 1_555 1_555
H224 C152 1_555 1_555
C153 C152 1_555 1_555
H225 C153 1_555 1_555
H226 C153 1_555 1_555
C154 C153 1_555 1_555
H227 C154 1_555 1_555
H228 C154 1_555 1_555
H229 C154 1_555 1_555
C155 H230 1_555 1_555
H231 C155 1_555 1_555
H232 C155 1_555 1_555
C156 C155 1_555 1_555
H233 C156 1_555 1_555
H234 C156 1_555 1_555
C157 C156 1_555 1_555
H235 C157 1_555 1_555
H236 C157 1_555 1_555
C158 N20 1_555 1_555
H237 C158 1_555 1_555
H238 C158 1_555 1_555
C159 N20 1_555 1_555
H239 C159 1_555 1_555
H240 C159 1_555 1_555
C160 C159 1_555 1_555
H241 C160 1_555 1_555
H242 C160 1_555 1_555
C161 C160 1_555 1_555
H243 C161 1_555 1_555
H244 C161 1_555 1_555
C162 C161 1_555 1_555
H245 C162 1_555 1_555
H246 C162 1_555 1_555
H247 C162 1_555 1_555
N2 C13 1_555 1_555
N6 C36 1_555 1_555
C9 C10 1_555 1_555
C11 C12 1_555 1_555
C18 C19 1_555 1_555
C24 C29 1_555 1_555
C26 C27 1_555 1_555
C32 C33 1_555 1_555
C34 C35 1_555 1_555
C41 C42 1_555 1_555
C53 C54 1_555 1_555
C55 C56 1_555 1_555
N10 C69 1_555 1_555
N14 C92 1_555 1_555
C65 C66 1_555 1_555
C67 C68 1_555 1_555
C74 C75 1_555 1_555
C82 C83 1_555 1_555
C88 C89 1_555 1_555
C90 C91 1_555 1_555
C97 C98 1_555 1_555
C109 C110 1_555 1_555
C111 C112 1_555 1_555
C157 C158 1_555 1_555

#END
