
#######################################################################
#
#                 Cambridge Crystallographic Data Centre
#                                CCDC 
#
#######################################################################
#
# If this CIF has been generated from an entry in the Cambridge 
# Structural Database, then it will include bibliographic, chemical, 
# crystal, experimental, refinement or atomic coordinate data resulting 
# from the CCDC's data processing and validation procedures.
#
#######################################################################

data_YUBPOC
_chemical_formula_moiety         'C26 H19 F6 N5 O1 S1,C2 H6 O1'
_chemical_name_systematic        
'2-((3,5-bis(trifluoromethyl)phenyl)(3-oxo-2,5-diphenyl-2,3-dihydro-1H-pyrazol-4-yl)methylene)-N-methylhydrazinecarbothioamide ethanol solvate'
_symmetry_cell_setting           monoclinic
_symmetry_space_group_name_H-M   'P 21/c'
_symmetry_Int_Tables_number      14
_space_group_name_Hall           '-P 2ybc'
loop_
_symmetry_equiv_pos_site_id
_symmetry_equiv_pos_as_xyz
1 x,y,z
2 -x,1/2+y,1/2-z
3 -x,-y,-z
4 x,1/2-y,1/2+z
_cell_length_a                   8.2512(3)
_cell_length_b                   30.1101(10)
_cell_length_c                   11.6340(5)
_cell_angle_alpha                90
_cell_angle_beta                 102.2120(10)
_cell_angle_gamma                90
_cell_volume                     2825
_exptl_crystal_colour            colorless
_cell_formula_units_Z            4
loop_
_atom_site_label
_atom_site_type_symbol
_atom_site_fract_x
_atom_site_fract_y
_atom_site_fract_z
S1 S 0.94907(16) 0.29998(4) 0.98755(12)
F1 F 0.0875(5) 0.09157(13) 0.6041(5)
F2 F 0.1825(5) 0.03005(15) 0.5813(4)
F3 F 0.0842(5) 0.04188(19) 0.7232(4)
F4 F 0.7350(8) -0.01169(15) 0.8400(5)
F5 F 0.8729(5) 0.03499(12) 0.9413(5)
F6 F 0.6861(6) 0.0041(2) 0.9969(5)
O1 O 0.4715(3) 0.27567(8) 0.7688(2)
N1 N 0.4370(4) 0.26303(9) 0.5678(2)
N2 N 0.4462(4) 0.22623(10) 0.4981(3)
N3 N 0.6967(4) 0.19196(10) 0.8868(3)
N4 N 0.7645(4) 0.23380(11) 0.8881(3)
N5 N 0.9075(5) 0.22050(14) 1.0755(3)
C1 C 0.3850(6) 0.34123(13) 0.5774(4)
H1 H 0.4738 0.3436 0.6413
C2 C 0.2893(8) 0.37807(15) 0.5360(4)
H2 H 0.3129 0.4053 0.5735
C3 C 0.1596(7) 0.37467(16) 0.4401(5)
H3 H 0.0956 0.3995 0.4135
C4 C 0.1251(6) 0.33516(16) 0.3842(4)
H4 H 0.0389 0.3332 0.3184
C5 C 0.2175(5) 0.29765(14) 0.4245(3)
H5 H 0.1934 0.2705 0.3866
C6 C 0.3455(5) 0.30124(11) 0.5216(3)
C7 C 0.4848(4) 0.25051(11) 0.6852(3)
C8 C 0.5378(4) 0.20532(11) 0.6857(3)
C9 C 0.5102(4) 0.19200(11) 0.5679(3)
C10 C 0.5279(5) 0.14838(12) 0.5151(3)
C11 C 0.4005(6) 0.13296(13) 0.4256(3)
H6 H 0.3122 0.1514 0.3936
C12 C 0.4063(7) 0.08985(15) 0.3846(4)
H7 H 0.3216 0.0795 0.3248
C13 C 0.5360(7) 0.06240(15) 0.4317(4)
H8 H 0.5372 0.0333 0.4050
C14 C 0.6644(6) 0.07760(14) 0.5181(4)
H9 H 0.7529 0.0590 0.5488
C15 C 0.6616(5) 0.12075(13) 0.5595(3)
H10 H 0.7492 0.1312 0.6171
C16 C 0.5953(4) 0.17874(11) 0.7911(3)
C17 C 0.5408(4) 0.13182(11) 0.7935(3)
C18 C 0.3860(5) 0.11877(12) 0.7303(3)
H11 H 0.3128 0.1398 0.6901
C19 C 0.3408(5) 0.07434(13) 0.7273(4)
C20 C 0.4488(6) 0.04266(13) 0.7858(4)
H12 H 0.4182 0.0129 0.7830
C21 C 0.6026(5) 0.05574(13) 0.8482(4)
C22 C 0.6480(5) 0.09990(12) 0.8532(3)
H13 H 0.7512 0.1084 0.8968
C23 C 0.8714(5) 0.24854(13) 0.9872(3)
C24 C 1.0294(6) 0.2298(2) 1.1833(4)
H14 H 1.0362 0.2050 1.2358
H15 H 0.9964 0.2558 1.2204
H16 H 1.1359 0.2349 1.1647
C25 C 0.1753(6) 0.06011(17) 0.6592(5)
C26 C 0.7227(8) 0.02148(15) 0.9065(6)
H17 H 0.715(5) 0.2539(11) 0.840(3)
H18 H 0.447(6) 0.2293(17) 0.4242(14)
H19 H 0.861(5) 0.1947(7) 1.069(4)
O2 O 0.7924(6) 0.34822(19) 0.7254(5)
H20 H 0.7011 0.3363 0.7080
C27 C 0.7737(13) 0.3949(2) 0.7132(12)
H21 H 0.7021 0.4064 0.7624
H22 H 0.7294 0.4032 0.6321
C28 C 0.9470(13) 0.4107(4) 0.7536(12)
H23 H 0.9494 0.4425 0.7499
H24 H 1.0150 0.3985 0.7038
H25 H 0.9886 0.4012 0.8332
loop_
_geom_bond_atom_site_label_1
_geom_bond_atom_site_label_2
_geom_bond_site_symmetry_1
_geom_bond_site_symmetry_2
S1 C23 1_555 1_555
F1 C25 1_555 1_555
F2 C25 1_555 1_555
F3 C25 1_555 1_555
F4 C26 1_555 1_555
F5 C26 1_555 1_555
F6 C26 1_555 1_555
O1 C7 1_555 1_555
N1 N2 1_555 1_555
N2 C9 1_555 1_555
N3 N4 1_555 1_555
N4 C23 1_555 1_555
N5 C23 1_555 1_555
C1 H1 1_555 1_555
C2 C1 1_555 1_555
H2 C2 1_555 1_555
C3 C2 1_555 1_555
H3 C3 1_555 1_555
C4 C3 1_555 1_555
H4 C4 1_555 1_555
C5 C4 1_555 1_555
H5 C5 1_555 1_555
C6 N1 1_555 1_555
C7 N1 1_555 1_555
C8 C7 1_555 1_555
C9 C8 1_555 1_555
C10 C9 1_555 1_555
C11 C10 1_555 1_555
H6 C11 1_555 1_555
C12 C11 1_555 1_555
H7 C12 1_555 1_555
C13 C12 1_555 1_555
H8 C13 1_555 1_555
C14 C13 1_555 1_555
H9 C14 1_555 1_555
C15 C10 1_555 1_555
H10 C15 1_555 1_555
C16 N3 1_555 1_555
C17 C16 1_555 1_555
C18 C17 1_555 1_555
H11 C18 1_555 1_555
C19 C18 1_555 1_555
C20 C19 1_555 1_555
H12 C20 1_555 1_555
C21 C20 1_555 1_555
C22 C17 1_555 1_555
H13 C22 1_555 1_555
C24 N5 1_555 1_555
H14 C24 1_555 1_555
H15 C24 1_555 1_555
H16 C24 1_555 1_555
C25 C19 1_555 1_555
C26 C21 1_555 1_555
H17 N4 1_555 1_555
H18 N2 1_555 1_555
H19 N5 1_555 1_555
O2 H20 1_555 1_555
C27 O2 1_555 1_555
H21 C27 1_555 1_555
H22 C27 1_555 1_555
C28 C27 1_555 1_555
H23 C28 1_555 1_555
H24 C28 1_555 1_555
H25 C28 1_555 1_555
C1 C6 1_555 1_555
C5 C6 1_555 1_555
C8 C16 1_555 1_555
C14 C15 1_555 1_555
C21 C22 1_555 1_555

#END
