
#######################################################################
#
#                 Cambridge Crystallographic Data Centre
#                                CCDC 
#
#######################################################################
#
# If this CIF has been generated from an entry in the Cambridge 
# Structural Database, then it will include bibliographic, chemical, 
# crystal, experimental, refinement or atomic coordinate data resulting 
# from the CCDC's data processing and validation procedures.
#
#######################################################################

data_YUCHUA
_chemical_name_common            
'2,4-Hexadiyne-1,6-diammonium bis((E,E)-hexa-2,4-dienoate)'
_chemical_formula_moiety         'C6 H10 N2 2+,2(C6 H7 O2 1-)'
_chemical_name_systematic        '2,4-Hexadiyne-1,6-diammonium disorbate'
_symmetry_cell_setting           triclinic
_symmetry_space_group_name_H-M   'P -1'
_symmetry_Int_Tables_number      2
_space_group_name_Hall           '-P 1'
loop_
_symmetry_equiv_pos_site_id
_symmetry_equiv_pos_as_xyz
1 x,y,z
2 -x,-y,-z
_cell_length_a                   5.537(3)
_cell_length_b                   8.051(4)
_cell_length_c                   21.720(6)
_cell_angle_alpha                96.29(3)
_cell_angle_beta                 93.14(3)
_cell_angle_gamma                104.47(4)
_cell_volume                     928.484
_exptl_crystal_colour            colorless
_exptl_crystal_description       plate
_cell_formula_units_Z            2
loop_
_atom_site_label
_atom_site_type_symbol
_atom_site_fract_x
_atom_site_fract_y
_atom_site_fract_z
O1 O 0.7282(4) 0.6788(3) 0.20500(11)
O4 O 0.4935(5) 0.7444(3) 0.27870(12)
C4 C 0.9341(7) 0.9486(4) 0.35015(16)
H9 H 0.7813 0.9513 0.3655
C5 C 0.7003(7) 0.7536(4) 0.25736(17)
C7 C 0.9304(7) 0.8588(5) 0.29567(17)
H11 H 1.0835 0.8609 0.2797
C10 C 1.1604(8) 1.0440(5) 0.38794(18)
H12 H 1.3125 1.0445 0.3717
C12 C 1.1675(8) 1.1295(5) 0.4432(2)
H15 H 1.0152 1.1322 0.4588
C17 C 1.4010(9) 1.2234(6) 0.4833(2)
H19 H 1.5446 1.2179 0.4611
H20 H 1.4083 1.1702 0.5206
H21 H 1.3997 1.3421 0.4939
O2 O 0.8704(4) 0.8182(3) 0.81109(12)
O3 O 0.6814(4) 0.9998(3) 0.85906(12)
C1 C 0.4658(7) 0.8198(5) 0.77025(17)
H7 H 0.3351 0.8722 0.7752
C2 C 0.4365(7) 0.6980(5) 0.72314(16)
H8 H 0.5673 0.6465 0.7168
C3 C 0.6853(6) 0.8820(4) 0.81616(17)
C6 C 0.2140(7) 0.6385(5) 0.68030(17)
H10 H 0.0891 0.6965 0.6849
C16 C 0.1743(8) 0.5089(5) 0.63529(18)
H18 H 0.3016 0.4536 0.6294
C18 C -0.0607(9) 0.4439(6) 0.5929(2)
H22 H -0.1424 0.3282 0.5998
H23 H -0.0202 0.4441 0.5505
H24 H -0.1702 0.5176 0.6012
N1 N 1.1301(5) 0.5305(4) 0.19784(12)
H1 H 0.9862 0.5559 0.2054
H2 H 1.2531 0.5996 0.2238
H3 H 1.1186 0.4209 0.2032
N2 N 0.2437(5) 0.0761(4) -0.12223(12)
H4 H 0.2513 0.1729 -0.1391
H5 H 0.1207 -0.0089 -0.1424
H6 H 0.3885 0.0477 -0.1250
C8 C 0.4140(8) 0.2113(5) -0.01752(17)
C9 C 0.5890(7) 0.2938(5) 0.01599(17)
C11 C 0.1951(7) 0.1035(5) -0.05617(16)
H13 H 0.0579 0.1580 -0.0528
H14 H 0.1445 -0.0077 -0.0409
C13 C 0.9692(7) 0.4606(5) 0.08993(17)
C14 C 1.1837(7) 0.5556(5) 0.13305(16)
H16 H 1.2202 0.6778 0.1287
H17 H 1.3296 0.5151 0.1231
C15 C 0.7927(8) 0.3856(5) 0.05545(17)
loop_
_geom_bond_atom_site_label_1
_geom_bond_atom_site_label_2
_geom_bond_site_symmetry_1
_geom_bond_site_symmetry_2
O1 C5 1_555 1_555
O2 C3 1_555 1_555
O3 C3 1_555 1_555
N1 H1 1_555 1_555
H2 N1 1_555 1_555
H3 N1 1_555 1_555
N2 H4 1_555 1_555
H5 N2 1_555 1_555
H6 N2 1_555 1_555
O4 C5 1_555 1_555
C1 H7 1_555 1_555
C2 C1 1_555 1_555
H8 C2 1_555 1_555
C3 C1 1_555 1_555
C4 H9 1_555 1_555
C5 C7 1_555 1_555
C6 C2 1_555 1_555
H10 C6 1_555 1_555
C7 C4 1_555 1_555
H11 C7 1_555 1_555
C8 C9 1_555 1_555
C9 C15 1_555 1_555
C10 C4 1_555 1_555
H12 C10 1_555 1_555
C11 N2 1_555 1_555
H13 C11 1_555 1_555
H14 C11 1_555 1_555
C12 C10 1_555 1_555
H15 C12 1_555 1_555
C13 C14 1_555 1_555
C14 N1 1_555 1_555
H16 C14 1_555 1_555
H17 C14 1_555 1_555
C15 C13 1_555 1_555
C16 C6 1_555 1_555
H18 C16 1_555 1_555
C17 C12 1_555 1_555
H19 C17 1_555 1_555
H20 C17 1_555 1_555
H21 C17 1_555 1_555
C18 C16 1_555 1_555
H22 C18 1_555 1_555
H23 C18 1_555 1_555
H24 C18 1_555 1_555
C8 C11 1_555 1_555

#END
