
#######################################################################
#
#                 Cambridge Crystallographic Data Centre
#                                CCDC 
#
#######################################################################
#
# If this CIF has been generated from an entry in the Cambridge 
# Structural Database, then it will include bibliographic, chemical, 
# crystal, experimental, refinement or atomic coordinate data resulting 
# from the CCDC's data processing and validation procedures.
#
#######################################################################

data_YUCJIR
_chemical_formula_moiety         'C15 H14 Cl1 F6 N1 O1'
_chemical_name_systematic        
2-chloro-N-(3,3,3-trifluoro-1-(2-(4,4,4-trifluorobutyl)phenyl)prop-1-en-1-yl)acetamide
_symmetry_cell_setting           orthorhombic
_symmetry_space_group_name_H-M   'P b c a'
_symmetry_Int_Tables_number      61
_space_group_name_Hall           '-P 2ac 2ab'
loop_
_symmetry_equiv_pos_site_id
_symmetry_equiv_pos_as_xyz
1 x,y,z
2 1/2-x,-y,1/2+z
3 -x,1/2+y,1/2-z
4 1/2+x,1/2-y,-z
5 -x,-y,-z
6 1/2+x,y,1/2-z
7 x,1/2-y,1/2+z
8 1/2-x,1/2+y,z
_cell_length_a                   9.641(2)
_cell_length_b                   16.884(3)
_cell_length_c                   20.557(4)
_cell_angle_alpha                90
_cell_angle_beta                 90
_cell_angle_gamma                90
_cell_volume                     3346.24
_exptl_crystal_description       block
_cell_formula_units_Z            8
loop_
_atom_site_label
_atom_site_type_symbol
_atom_site_fract_x
_atom_site_fract_y
_atom_site_fract_z
Cl1 Cl 0.58984(12) 0.22930(7) 0.31439(7)
O1 O 0.54493(19) 0.36811(14) 0.23014(11)
C1 C 0.9105(3) 0.48568(17) 0.15135(14)
N1 N 0.7732(2) 0.39480(14) 0.21291(12)
H1 H 0.8548 0.3790 0.2239
C2 C 0.7681(3) 0.45985(17) 0.17045(13)
C3 C 0.6663(3) 0.35384(18) 0.23875(14)
C4 C 0.9107(3) 0.3812(2) 0.0638(2)
H2 H 0.8710 0.3440 0.0946
H3 H 0.8343 0.4050 0.0401
C5 C 0.9961(4) 0.3358(2) 0.01690(18)
H4 H 1.0753 0.3131 0.0392
H5 H 1.0304 0.3711 -0.0166
F1 F 0.9118(3) 0.16039(18) -0.08366(15)
C6 C 0.9823(3) 0.44605(19) 0.10224(15)
C7 C 0.6506(3) 0.4933(2) 0.15100(17)
H6 H 0.5676 0.4734 0.1672
F2 F 0.5221(3) 0.5825(2) 0.09163(19)
C8 C 1.1183(3) 0.4693(3) 0.0900(2)
H7 H 1.1689 0.4440 0.0576
C9 C 0.9112(4) 0.2700(2) -0.0142(2)
H8 H 0.8705 0.2381 0.0201
H9 H 0.8357 0.2938 -0.0385
C10 C 1.1081(4) 0.5671(3) 0.1739(2)
H10 H 1.1505 0.6067 0.1983
C11 C 0.9725(4) 0.5458(2) 0.18652(18)
H11 H 0.9227 0.5720 0.2187
F3 F 1.0893(3) 0.1786(2) -0.0274(2)
F4 F 0.7269(4) 0.5614(2) 0.05860(17)
C12 C 1.1794(4) 0.5295(3) 0.1256(2)
H12 H 1.2701 0.5446 0.1164
C13 C 0.6445(4) 0.5603(3) 0.1051(2)
C14 C 0.9889(4) 0.2176(3) -0.0580(2)
F5 F 1.0494(6) 0.2529(2) -0.10624(19)
F6 F 0.6869(5) 0.6302(2) 0.1344(3)
C15 C 0.7177(4) 0.2856(3) 0.2786(3)
H13 H 0.7780 0.3059 0.3125
H14 H 0.7731 0.2515 0.2509
loop_
_geom_bond_atom_site_label_1
_geom_bond_atom_site_label_2
_geom_bond_site_symmetry_1
_geom_bond_site_symmetry_2
Cl1 C15 1_555 1_555
O1 C3 1_555 1_555
C1 C2 1_555 1_555
N1 H1 1_555 1_555
C2 N1 1_555 1_555
C3 N1 1_555 1_555
C4 H2 1_555 1_555
H3 C4 1_555 1_555
C5 C4 1_555 1_555
H4 C5 1_555 1_555
H5 C5 1_555 1_555
F1 C14 1_555 1_555
C6 C1 1_555 1_555
C7 C2 1_555 1_555
H6 C7 1_555 1_555
F2 C13 1_555 1_555
C8 C6 1_555 1_555
H7 C8 1_555 1_555
C9 C5 1_555 1_555
H8 C9 1_555 1_555
H9 C9 1_555 1_555
C10 H10 1_555 1_555
C11 C1 1_555 1_555
H11 C11 1_555 1_555
F3 C14 1_555 1_555
F4 C13 1_555 1_555
C12 C8 1_555 1_555
H12 C12 1_555 1_555
C13 C7 1_555 1_555
C14 C9 1_555 1_555
F5 C14 1_555 1_555
F6 C13 1_555 1_555
C15 C3 1_555 1_555
H13 C15 1_555 1_555
H14 C15 1_555 1_555
C4 C6 1_555 1_555
C10 C11 1_555 1_555
C10 C12 1_555 1_555

#END
