
#######################################################################
#
#                 Cambridge Crystallographic Data Centre
#                                CCDC 
#
#######################################################################
#
# If this CIF has been generated from an entry in the Cambridge 
# Structural Database, then it will include bibliographic, chemical, 
# crystal, experimental, refinement or atomic coordinate data resulting 
# from the CCDC's data processing and validation procedures.
#
#######################################################################

data_YUCMEQ
_chemical_formula_moiety         'C17 H14 O4'
_chemical_name_systematic        '1-oxo-1-phenylpropan-2-yl oxo(phenyl)acetate'
_symmetry_cell_setting           monoclinic
_symmetry_space_group_name_H-M   'P 21/n'
_symmetry_Int_Tables_number      14
_space_group_name_Hall           '-P 2yn'
loop_
_symmetry_equiv_pos_site_id
_symmetry_equiv_pos_as_xyz
1 x,y,z
2 1/2-x,1/2+y,1/2-z
3 -x,-y,-z
4 1/2+x,1/2-y,1/2+z
_cell_length_a                   7.761(5)
_cell_length_b                   9.020(6)
_cell_length_c                   21.077(13)
_cell_angle_alpha                90
_cell_angle_beta                 97.965(11)
_cell_angle_gamma                90
_cell_volume                     1461.24
_exptl_crystal_colour            colorless
_exptl_crystal_description       plate
_cell_formula_units_Z            4
loop_
_atom_site_label
_atom_site_type_symbol
_atom_site_fract_x
_atom_site_fract_y
_atom_site_fract_z
C1 C 0.7057(3) 0.3934(3) 0.06063(11)
C2 C 0.7686(3) 0.4811(3) 0.01496(12)
H1 H 0.8067 0.5770 0.0251
C3 C 0.6492(3) 0.2520(3) 0.04446(13)
H2 H 0.6062 0.1926 0.0747
C4 C 0.7744(4) 0.4253(3) -0.04578(13)
H3 H 0.8159 0.4838 -0.0767
C5 C 0.6558(4) 0.1979(3) -0.01610(15)
H4 H 0.6171 0.1024 -0.0268
C6 C 0.7193(4) 0.2847(3) -0.06029(14)
H5 H 0.7250 0.2472 -0.1011
C7 C 0.9929(3) 1.0166(2) 0.14233(12)
C8 C 1.0700(4) 1.0840(3) 0.09474(13)
H6 H 1.0335 1.0595 0.0521
C9 C 1.0479(3) 1.0546(3) 0.20566(13)
H7 H 0.9977 1.0100 0.2384
C10 C 1.1992(4) 1.1861(3) 0.10926(18)
H8 H 1.2510 1.2302 0.0768
C11 C 1.2522(4) 1.2235(4) 0.1718(2)
H9 H 1.3399 1.2934 0.1817
C12 C 1.1778(4) 1.1591(4) 0.21982(17)
H10 H 1.2144 1.1856 0.2622
O1 O 0.6816(2) 0.70045(18) 0.15382(8)
C13 C 0.8554(3) 0.9042(3) 0.12342(12)
O2 O 0.8178(3) 0.8662(2) 0.06803(9)
C14 C 0.7586(3) 0.8407(3) 0.17497(12)
H11 H 0.8390 0.8269 0.2147
O3 O 0.6378(3) 0.3807(2) 0.16644(9)
C15 C 0.7021(3) 0.4486(3) 0.12570(12)
O4 O 0.9485(3) 0.6023(2) 0.15736(9)
C16 C 0.7934(4) 0.5927(3) 0.14622(11)
C17 C 0.6111(4) 0.9408(3) 0.18716(15)
H12 H 0.5295 0.9495 0.1487
H13 H 0.6562 1.0370 0.1999
H14 H 0.5538 0.8995 0.2206
loop_
_geom_bond_atom_site_label_1
_geom_bond_atom_site_label_2
_geom_bond_site_symmetry_1
_geom_bond_site_symmetry_2
C1 C2 1_555 1_555
C2 H1 1_555 1_555
C3 C1 1_555 1_555
H2 C3 1_555 1_555
C4 C2 1_555 1_555
H3 C4 1_555 1_555
C5 C3 1_555 1_555
H4 C5 1_555 1_555
C6 C4 1_555 1_555
H5 C6 1_555 1_555
C7 C8 1_555 1_555
C8 H6 1_555 1_555
C9 C7 1_555 1_555
H7 C9 1_555 1_555
C10 C8 1_555 1_555
H8 C10 1_555 1_555
C11 C10 1_555 1_555
H9 C11 1_555 1_555
C12 C9 1_555 1_555
H10 C12 1_555 1_555
O1 C14 1_555 1_555
C13 C7 1_555 1_555
O2 C13 1_555 1_555
C14 C13 1_555 1_555
H11 C14 1_555 1_555
O3 C15 1_555 1_555
C15 C1 1_555 1_555
O4 C16 1_555 1_555
C16 O1 1_555 1_555
C17 C14 1_555 1_555
H12 C17 1_555 1_555
H13 C17 1_555 1_555
H14 C17 1_555 1_555
C5 C6 1_555 1_555
C11 C12 1_555 1_555
C15 C16 1_555 1_555

#END
