
#######################################################################
#
#                 Cambridge Crystallographic Data Centre
#                                CCDC 
#
#######################################################################
#
# If this CIF has been generated from an entry in the Cambridge 
# Structural Database, then it will include bibliographic, chemical, 
# crystal, experimental, refinement or atomic coordinate data resulting 
# from the CCDC's data processing and validation procedures.
#
#######################################################################

data_YUCSUK01
_chemical_formula_moiety         'C27 H26 Br1 N3 O4,C2 H6 O1'
_chemical_name_systematic        
'Methyl (R)-8-((4-bromophenylamino)carbonyl)-2,3,4,5-tetrahydro-4-(2-phenylethyl)-3-oxo-1H-1,4-benzodiazepine-2-acetate ethanol solvate'
_symmetry_cell_setting           monoclinic
_symmetry_space_group_name_H-M   'P 21'
_symmetry_Int_Tables_number      4
_space_group_name_Hall           'P 2yb'
loop_
_symmetry_equiv_pos_site_id
_symmetry_equiv_pos_as_xyz
1 x,y,z
2 -x,1/2+y,-z
_cell_length_a                   10.596(2)
_cell_length_b                   9.586(2)
_cell_length_c                   14.793(3)
_cell_angle_alpha                90
_cell_angle_beta                 92.57(3)
_cell_angle_gamma                90
_cell_volume                     1501.06
_cell_formula_units_Z            2
loop_
_atom_site_label
_atom_site_type_symbol
_atom_site_fract_x
_atom_site_fract_y
_atom_site_fract_z
Br1 Br 0.3419(2) 0.2991(3) 0.4540(1)
O1 O 1.3476(6) 0.0996(9) 1.1373(5)
O2 O 1.5821(6) 0.3099(11) 1.0839(6)
O3 O 1.6363(7) 0.0868(10) 1.0607(6)
O4 O 0.8549(7) 0.1502(9) 0.7442(5)
N1 N 1.2210(7) 0.2889(11) 1.1420(5)
N2 N 0.7264(7) 0.3328(10) 0.7702(5)
N3 N 1.2387(6) 0.2260(10) 0.9404(5)
C1 C 1.3060(9) 0.2082(12) 1.1011(7)
C2 C 1.3412(7) 0.2529(12) 1.0076(6)
C3 C 0.8276(8) 0.2489(12) 0.7891(7)
C4 C 1.1150(7) 0.2788(12) 0.9446(6)
C5 C 1.0313(8) 0.2437(11) 0.8739(6)
C6 C 0.9074(7) 0.2923(14) 0.8705(5)
C7 C 0.8680(8) 0.3756(12) 0.9408(7)
C8 C 0.9528(9) 0.4094(12) 1.0111(6)
C9 C 1.0748(8) 0.3618(11) 1.0146(6)
C10 C 1.1602(10) 0.4084(12) 1.0954(7)
C11 C 1.1719(8) 0.2534(15) 1.2338(6)
C12 C 1.0444(9) 0.1867(17) 1.2260(7)
C13 C 0.9937(10) 0.1477(17) 1.3143(8)
C14 C 0.9658(19) 0.0080(2) 1.3319(13)
C15 C 0.9199(19) -0.0230(3) 1.4147(14)
C16 C 0.9072(19) 0.0730(4) 1.4808(13)
C17 C 0.9180(2) 0.2080(3) 1.4581(17)
C18 C 0.9691(18) 0.2430(2) 1.3763(11)
C19 C 1.4570(8) 0.1671(13) 0.9812(7)
C20 C 1.5630(10) 0.2006(15) 1.0473(8)
C21 C 1.7425(11) 0.1079(19) 1.1265(11)
C22 C 0.6370(8) 0.3201(15) 0.6943(6)
C23 C 0.6486(12) 0.2270(2) 0.6298(9)
C24 C 0.5610(13) 0.2200(2) 0.5584(9)
C25 C 0.4647(11) 0.3050(2) 0.5512(7)
C26 C 0.4471(12) 0.4071(17) 0.6192(9)
C27 C 0.5344(11) 0.4087(15) 0.6910(9)
H1 H 0.7396(7) 0.4308(10) 0.7855(5)
H2 H 1.3623(7) 0.3524(12) 1.0079(6)
H3 H 1.2401(6) 0.1310(10) 0.9026(5)
H4 H 1.0583(8) 0.1864(11) 0.8278(6)
H5 H 0.7853(8) 0.4082(12) 0.9406(7)
H6 H 0.9263(9) 0.4663(12) 1.0575(6)
H7 H 1.2247(10) 0.4709(12) 1.0745(7)
H8 H 1.1102(10) 0.4594(12) 1.1377(7)
H9 H 1.2307(8) 0.1904(15) 1.2651(6)
H10 H 1.1671(8) 0.3379(15) 1.2695(6)
H11 H 0.9859(9) 0.2506(17) 1.1953(7)
H12 H 1.0494(9) 0.1036(17) 1.1889(7)
H13 H 0.9779(19) -0.0610(2) 1.2892(13)
H14 H 0.8961(19) -0.1140(3) 1.4260(14)
H15 H 0.8919(19) 0.0460(4) 1.5398(13)
H16 H 0.8910(2) 0.2780(3) 1.4967(17)
H17 H 0.9870(18) 0.3360(2) 1.3646(11)
H18 H 1.4377(8) 0.0701(13) 0.9938(7)
H19 H 1.4798(8) 0.1929(13) 0.9215(7)
H20 H 1.8100(5) 0.1540(11) 1.0970(3)
H21 H 1.7710(7) 0.0190(2) 1.1490(6)
H22 H 1.7160(3) 0.1640(11) 1.1760(4)
H23 H 0.7164(12) 0.1650(2) 0.6325(9)
H24 H 0.5705(13) 0.1530(2) 0.5139(9)
H25 H 0.3800(12) 0.4697(17) 0.6154(9)
H26 H 0.5239(11) 0.4708(15) 0.7384(9)
O5 O 0.2656(8) -0.0031(11) 0.8109(5)
C28 C 0.3260(3) 0.0310(4) 0.7217(18)
C29 C 0.2200(3) 0.0940(4) 0.6693(18)
H27 H 0.3160(8) -0.0652(11) 0.8455(5)
H28 H 0.3960(4) 0.0960(4) 0.7307(18)
H29 H 0.3560(3) -0.0530(4) 0.6927(18)
H30 H 0.2310(2) 0.0790(4) 0.6059(8)
H31 H 0.2200(3) 0.1930(4) 0.6815(18)
H32 H 0.1420(3) 0.0540(4) 0.6864(18)
C30? C 0.2930(4) -0.0300(7) 0.7080(2)
C31? C 0.4250(4) -0.0420(5) 0.7040(3)
H33? H 0.2520(4) -0.1150(7) 0.6860(2)
H34? H 0.2620(4) 0.0480(7) 0.6710(2)
H35? H 0.4530(4) 0.0110(5) 0.6540(3)
H36? H 0.4510(4) -0.1380(5) 0.6980(3)
H37? H 0.4620(4) -0.0050(5) 0.7600(3)
loop_
_geom_bond_atom_site_label_1
_geom_bond_atom_site_label_2
_geom_bond_site_symmetry_1
_geom_bond_site_symmetry_2
Br1 C25 1_555 1_555
O1 C1 1_555 1_555
O2 C20 1_555 1_555
O3 C20 1_555 1_555
O4 C3 1_555 1_555
N1 C1 1_555 1_555
N2 C3 1_555 1_555
N3 C2 1_555 1_555
C1 C2 1_555 1_555
C2 C19 1_555 1_555
C3 C6 1_555 1_555
C4 N3 1_555 1_555
C5 C4 1_555 1_555
C6 C5 1_555 1_555
C7 C6 1_555 1_555
C8 C7 1_555 1_555
C9 C4 1_555 1_555
C10 N1 1_555 1_555
C11 N1 1_555 1_555
C12 C11 1_555 1_555
C13 C12 1_555 1_555
C14 C13 1_555 1_555
C15 C14 1_555 1_555
C16 C15 1_555 1_555
C17 C16 1_555 1_555
C18 C13 1_555 1_555
C19 C20 1_555 1_555
C21 O3 1_555 1_555
C22 N2 1_555 1_555
C23 C22 1_555 1_555
C24 C23 1_555 1_555
C25 C24 1_555 1_555
C26 C25 1_555 1_555
C27 C22 1_555 1_555
H1 N2 1_555 1_555
H2 C2 1_555 1_555
H3 N3 1_555 1_555
H4 C5 1_555 1_555
H5 C7 1_555 1_555
H6 C8 1_555 1_555
H7 C10 1_555 1_555
H8 C10 1_555 1_555
H9 C11 1_555 1_555
H10 C11 1_555 1_555
H11 C12 1_555 1_555
H12 C12 1_555 1_555
H13 C14 1_555 1_555
H14 C15 1_555 1_555
H15 C16 1_555 1_555
H16 C17 1_555 1_555
H17 C18 1_555 1_555
H18 C19 1_555 1_555
H19 C19 1_555 1_555
H20 C21 1_555 1_555
H21 C21 1_555 1_555
H22 C21 1_555 1_555
H23 C23 1_555 1_555
H24 C24 1_555 1_555
H25 C26 1_555 1_555
H26 C27 1_555 1_555
O5 C28 1_555 1_555
C28 C29 1_555 1_555
C29 H30 1_555 1_555
H27 O5 1_555 1_555
H28 C28 1_555 1_555
H29 C28 1_555 1_555
H31 C29 1_555 1_555
H32 C29 1_555 1_555
C8 C9 1_555 1_555
C9 C10 1_555 1_555
C17 C18 1_555 1_555
C26 C27 1_555 1_555

#END
