
#######################################################################
#
#                 Cambridge Crystallographic Data Centre
#                                CCDC 
#
#######################################################################
#
# If this CIF has been generated from an entry in the Cambridge 
# Structural Database, then it will include bibliographic, chemical, 
# crystal, experimental, refinement or atomic coordinate data resulting 
# from the CCDC's data processing and validation procedures.
#
#######################################################################

data_YUCVAU
_chemical_formula_moiety         'C14 H10 O4 S2,C13 H14 N2'
_chemical_name_systematic        
"2,2'-Dithiodibenzoic acid 1,3-bis(4-pyridyl)propane"
_symmetry_cell_setting           monoclinic
_symmetry_space_group_name_H-M   'P 21/c'
_symmetry_Int_Tables_number      14
_space_group_name_Hall           '-P 2ybc'
loop_
_symmetry_equiv_pos_site_id
_symmetry_equiv_pos_as_xyz
1 x,y,z
2 -x,1/2+y,1/2-z
3 -x,-y,-z
4 x,1/2-y,1/2+z
_cell_length_a                   20.9613(13)
_cell_length_b                   9.3021(5)
_cell_length_c                   13.3790(8)
_cell_angle_alpha                90
_cell_angle_beta                 100.3990(10)
_cell_angle_gamma                90
_cell_volume                     2565.84
_exptl_crystal_colour            'pale yellow'
_exptl_crystal_description       block
_cell_formula_units_Z            4
loop_
_atom_site_label
_atom_site_type_symbol
_atom_site_fract_x
_atom_site_fract_y
_atom_site_fract_z
S1 S 0.79794(3) 0.50222(6) 0.43112(4)
S2 S 0.69963(3) 0.52406(7) 0.41760(5)
O1 O 0.97759(7) 0.25743(17) 0.48239(12)
H1 H 1.0009 0.2826 0.4425
O2 O 0.92221(7) 0.45284(17) 0.42348(12)
O3 O 0.57347(9) 0.5632(2) 0.37477(19)
O4 O 0.52542(9) 0.7740(2) 0.3773(2)
H2 H 0.4955 0.7319 0.3411
C14 C 0.88198(9) 0.3087(2) 0.54383(14)
C15 C 0.82086(9) 0.3749(2) 0.53162(14)
C16 C 0.77903(11) 0.3373(2) 0.59685(16)
H17 H 0.7383 0.3801 0.5896
C17 C 0.79756(11) 0.2367(2) 0.67258(16)
H18 H 0.7690 0.2121 0.7155
C18 C 0.85734(11) 0.1725(2) 0.68548(16)
H19 H 0.8696 0.1059 0.7372
C19 C 0.89902(10) 0.2081(2) 0.62092(14)
H20 H 0.9394 0.1640 0.6290
C20 C 0.92901(9) 0.3468(2) 0.47711(14)
C21 C 0.62873(10) 0.7470(2) 0.47683(18)
C22 C 0.68896(10) 0.6785(2) 0.49235(16)
C23 C 0.73932(10) 0.7353(2) 0.56369(16)
H21 H 0.7797 0.6908 0.5748
C24 C 0.72980(13) 0.8566(3) 0.61777(19)
H22 H 0.7637 0.8927 0.6656
C25 C 0.67106(14) 0.9249(3) 0.6021(2)
H23 H 0.6651 1.0074 0.6386
C26 C 0.62084(13) 0.8701(3) 0.5317(2)
H24 H 0.5809 0.9165 0.5208
C27 C 0.57309(11) 0.6861(3) 0.4040(2)
N1 N 0.04598(8) 0.32215(19) 0.34271(12)
N2 N 0.42580(10) 0.6473(3) 0.26945(19)
C1 C 0.12821(10) 0.4185(2) 0.07801(15)
H3 H 0.0963 0.4699 0.0295
H4 H 0.1380 0.3292 0.0465
C2 C 0.19002(10) 0.5090(2) 0.10170(15)
H5 H 0.2047 0.5316 0.0387
H6 H 0.1804 0.5988 0.1327
C3 C 0.24366(10) 0.4326(2) 0.17221(16)
H7 H 0.2280 0.4102 0.2343
H8 H 0.2517 0.3419 0.1409
C4 C 0.03926(10) 0.4510(2) 0.29882(16)
H9 H 0.0158 0.5208 0.3264
C5 C 0.06527(10) 0.4862(2) 0.21468(16)
H10 H 0.0598 0.5783 0.1875
C6 C 0.09958(9) 0.3845(2) 0.17048(14)
C7 C 0.10602(10) 0.2502(2) 0.21587(16)
H11 H 0.1282 0.1776 0.1889
C8 C 0.07943(10) 0.2245(2) 0.30104(17)
H12 H 0.0852 0.1341 0.3310
C9 C 0.41408(13) 0.5147(3) 0.2988(3)
H13 H 0.4468 0.4670 0.3427
C10 C 0.35668(12) 0.4449(3) 0.2680(2)
H14 H 0.3508 0.3532 0.2925
C11 C 0.30750(10) 0.5092(2) 0.20091(16)
C12 C 0.32103(11) 0.6430(3) 0.16628(19)
H15 H 0.2903 0.6898 0.1185
C13 C 0.37976(12) 0.7081(3) 0.2018(2)
H16 H 0.3874 0.7987 0.1771
loop_
_geom_bond_atom_site_label_1
_geom_bond_atom_site_label_2
_geom_bond_site_symmetry_1
_geom_bond_site_symmetry_2
S1 S2 1_555 1_555
S2 C22 1_555 1_555
O1 H1 1_555 1_555
O2 C20 1_555 1_555
O3 C27 1_555 1_555
O4 H2 1_555 1_555
N1 C4 1_555 1_555
N2 C9 1_555 1_555
C1 H3 1_555 1_555
H4 C1 1_555 1_555
C2 C1 1_555 1_555
H5 C2 1_555 1_555
H6 C2 1_555 1_555
C3 C2 1_555 1_555
H7 C3 1_555 1_555
H8 C3 1_555 1_555
C4 H9 1_555 1_555
C5 C4 1_555 1_555
H10 C5 1_555 1_555
C6 C1 1_555 1_555
C7 C6 1_555 1_555
H11 C7 1_555 1_555
C8 N1 1_555 1_555
H12 C8 1_555 1_555
C9 H13 1_555 1_555
C10 C9 1_555 1_555
H14 C10 1_555 1_555
C11 C3 1_555 1_555
C12 C11 1_555 1_555
H15 C12 1_555 1_555
C13 N2 1_555 1_555
H16 C13 1_555 1_555
C14 C15 1_555 1_555
C15 S1 1_555 1_555
C16 C15 1_555 1_555
H17 C16 1_555 1_555
C17 C16 1_555 1_555
H18 C17 1_555 1_555
C18 C17 1_555 1_555
H19 C18 1_555 1_555
C19 C14 1_555 1_555
H20 C19 1_555 1_555
C20 O1 1_555 1_555
C21 C22 1_555 1_555
C22 C23 1_555 1_555
C23 H21 1_555 1_555
C24 C23 1_555 1_555
H22 C24 1_555 1_555
C25 C24 1_555 1_555
H23 C25 1_555 1_555
C26 C21 1_555 1_555
H24 C26 1_555 1_555
C27 O4 1_555 1_555
C5 C6 1_555 1_555
C7 C8 1_555 1_555
C10 C11 1_555 1_555
C12 C13 1_555 1_555
C14 C20 1_555 1_555
C18 C19 1_555 1_555
C21 C27 1_555 1_555
C25 C26 1_555 1_555

#END
