
#######################################################################
#
#                 Cambridge Crystallographic Data Centre
#                                CCDC 
#
#######################################################################
#
# If this CIF has been generated from an entry in the Cambridge 
# Structural Database, then it will include bibliographic, chemical, 
# crystal, experimental, refinement or atomic coordinate data resulting 
# from the CCDC's data processing and validation procedures.
#
#######################################################################

data_YUCVOH
_chemical_formula_moiety         'C26 H26 Cl3 F3 N2 O6'
_chemical_name_systematic        
3-Acetoxy-N-(N'-methyl-N'-(2,2,2-trichloroethoxycarbonylamine)ethyl)-4-(4-methoxyphenyl)-1,3,4,5-tetrahydro-6-trifluoromethyl-2H-benzazepin-2-one
_symmetry_cell_setting           orthorhombic
_symmetry_space_group_name_H-M   'P 21 21 21'
_symmetry_Int_Tables_number      19
_space_group_name_Hall           'P 2ac 2ab'
loop_
_symmetry_equiv_pos_site_id
_symmetry_equiv_pos_as_xyz
1 x,y,z
2 1/2-x,-y,1/2+z
3 1/2+x,1/2-y,-z
4 -x,1/2+y,1/2-z
_cell_length_a                   19.60(2)
_cell_length_b                   13.916(9)
_cell_length_c                   10.574(5)
_cell_angle_alpha                90
_cell_angle_beta                 90
_cell_angle_gamma                90
_cell_volume                     2884.1
_cell_formula_units_Z            4
loop_
_atom_site_label
_atom_site_type_symbol
_atom_site_fract_x
_atom_site_fract_y
_atom_site_fract_z
N1 N 0.2749(4) 0.2765(7) 0.1859(7)
C1 C 0.2152(5) 0.2939(7) 0.1252(9)
O1 O 0.1662(3) 0.3308(5) 0.1762(6)
C2 C 0.2118(5) 0.2644(8) -0.0154(9)
C3 C 0.2039(5) 0.1575(8) -0.0362(9)
C4 C 0.2490(5) 0.1020(8) 0.0572(9)
C5 C 0.3766(5) 0.0968(8) 0.006(1)
C6 C 0.4408(5) 0.1366(8) 0.018(1)
C7 C 0.4501(5) 0.2203(8) 0.085(1)
C8 C 0.3956(5) 0.2663(8) 0.1406(9)
C9 C 0.3307(5) 0.2278(7) 0.1305(8)
C10 C 0.3210(5) 0.1422(8) 0.0643(8)
C11 C 0.1307(5) 0.1208(8) -0.0313(9)
C12 C 0.0942(5) 0.1242(8) 0.079(1)
C13 C 0.0262(5) 0.0911(8) 0.082(1)
C14 C -0.0014(5) 0.0504(9) -0.022(1)
C15 C 0.0350(6) 0.044(1) -0.133(1)
C16 C 0.1009(6) 0.0773(8) -0.133(1)
O2 O -0.0681(4) 0.0156(7) -0.0305(8)
C17 C -0.1106(6) 0.031(1) 0.078(1)
O3 O 0.1590(3) 0.3150(5) -0.0785(6)
C18 C 0.1701(5) 0.4078(8) -0.094(1)
O4 O 0.2187(4) 0.4514(6) -0.0582(8)
C19 C 0.1104(6) 0.454(1) -0.162(1)
C20 C 0.2780(5) 0.3012(8) 0.3225(9)
C21 C 0.2464(5) 0.2230(8) 0.3999(9)
N2 N 0.2439(4) 0.2477(8) 0.5343(7)
C22 C 0.1856(6) 0.299(1) 0.583(1)
C23 C 0.2945(5) 0.2260(9) 0.6139(9)
O5 O 0.2963(4) 0.2428(7) 0.7253(6)
O6 O 0.3458(4) 0.1791(6) 0.5522(7)
C24 C 0.4071(6) 0.167(1) 0.622(1)
C25 C 0.4594(6) 0.2367(9) 0.580(1)
Cl1 Cl 0.4810(2) 0.2203(4) 0.4184(3)
Cl2 Cl 0.5342(2) 0.2135(3) 0.6710(3)
Cl3 Cl 0.4327(2) 0.3542(3) 0.6007(4)
F1 F 0.4271(4) -0.0160(6) -0.1274(8)
F2 F 0.3548(4) -0.0677(5) 0.0107(7)
F3 F 0.3209(3) 0.0080(5) -0.1523(6)
C26 C 0.3697(6) 0.0069(8) -0.064(1)
H1 H 0.2548 0.2815 -0.0503
H2 H 0.2183 0.1455 -0.1208
H3 H 0.2512 0.0366 0.0315
H4 H 0.2288 0.1058 0.1389
H5 H 0.4788 0.1060 -0.0211
H6 H 0.4946 0.2469 0.0928
H7 H 0.4025 0.3245 0.1863
H8 H 0.1146 0.1492 0.1532
H9 H -0.0001 0.0974 0.1564
H10 H 0.0149 0.0171 -0.2073
H11 H 0.1291 0.0696 -0.2089
H12 H -0.1541 0.0052 0.0608
H13 H -0.0905 0.0006 0.1480
H14 H -0.1139 0.0982 0.0918
H15 H 0.1189 0.5197 -0.1731
H16 H 0.1048 0.4234 -0.2422
H17 H 0.0703 0.4445 -0.1131
H18 H 0.3244 0.3092 0.3464
H19 H 0.2541 0.3598 0.3360
H20 H 0.2726 0.1662 0.3899
H21 H 0.2012 0.2123 0.3705
H22 H 0.1542 0.3092 0.5163
H23 H 0.1649 0.2613 0.6473
H24 H 0.2003 0.3583 0.6166
H25 H 0.3979 0.1762 0.7088
H26 H 0.4238 0.1037 0.6082
loop_
_geom_bond_atom_site_label_1
_geom_bond_atom_site_label_2
_geom_bond_site_symmetry_1
_geom_bond_site_symmetry_2
N1 C1 1_555 1_555
C1 O1 1_555 1_555
C2 C1 1_555 1_555
C3 C2 1_555 1_555
C4 C3 1_555 1_555
C5 C6 1_555 1_555
C6 C7 1_555 1_555
C7 C8 1_555 1_555
C8 C9 1_555 1_555
C9 N1 1_555 1_555
C10 C4 1_555 1_555
C11 C3 1_555 1_555
C12 C11 1_555 1_555
C13 C12 1_555 1_555
C14 C13 1_555 1_555
C15 C14 1_555 1_555
C16 C11 1_555 1_555
O2 C14 1_555 1_555
C17 O2 1_555 1_555
O3 C2 1_555 1_555
C18 O3 1_555 1_555
O4 C18 1_555 1_555
C19 C18 1_555 1_555
C20 N1 1_555 1_555
C21 C20 1_555 1_555
N2 C21 1_555 1_555
C22 N2 1_555 1_555
C23 N2 1_555 1_555
O5 C23 1_555 1_555
O6 C23 1_555 1_555
C24 O6 1_555 1_555
C25 C24 1_555 1_555
Cl1 C25 1_555 1_555
Cl2 C25 1_555 1_555
Cl3 C25 1_555 1_555
F1 C26 1_555 1_555
F2 C26 1_555 1_555
F3 C26 1_555 1_555
C26 C5 1_555 1_555
H1 C2 1_555 1_555
H2 C3 1_555 1_555
H3 C4 1_555 1_555
H4 C4 1_555 1_555
H5 C6 1_555 1_555
H6 C7 1_555 1_555
H7 C8 1_555 1_555
H8 C12 1_555 1_555
H9 C13 1_555 1_555
H10 C15 1_555 1_555
H11 C16 1_555 1_555
H12 C17 1_555 1_555
H13 C17 1_555 1_555
H14 C17 1_555 1_555
H15 C19 1_555 1_555
H16 C19 1_555 1_555
H17 C19 1_555 1_555
H18 C20 1_555 1_555
H19 C20 1_555 1_555
H20 C21 1_555 1_555
H21 C21 1_555 1_555
H22 C22 1_555 1_555
H23 C22 1_555 1_555
H24 C22 1_555 1_555
H25 C24 1_555 1_555
H26 C24 1_555 1_555
C5 C10 1_555 1_555
C9 C10 1_555 1_555
C15 C16 1_555 1_555

#END
