
#######################################################################
#
#                 Cambridge Crystallographic Data Centre
#                                CCDC 
#
#######################################################################
#
# If this CIF has been generated from an entry in the Cambridge 
# Structural Database, then it will include bibliographic, chemical, 
# crystal, experimental, refinement or atomic coordinate data resulting 
# from the CCDC's data processing and validation procedures.
#
#######################################################################

data_YUCVUN
_chemical_formula_moiety         'C22 H25 F3 N2 O3'
_chemical_name_systematic        
N-(N',N'-Dimethylamine)ethyl-3-hydroxy-4-(4-methoxyphenyl)-1,3,4,5-tetrahydro-6-trifluoromethyl-2H-benzazepin-2-one
_symmetry_cell_setting           orthorhombic
_symmetry_space_group_name_H-M   'P 21 21 21'
_symmetry_Int_Tables_number      19
_space_group_name_Hall           'P 2ac 2ab'
loop_
_symmetry_equiv_pos_site_id
_symmetry_equiv_pos_as_xyz
1 x,y,z
2 1/2-x,-y,1/2+z
3 1/2+x,1/2-y,-z
4 -x,1/2+y,1/2-z
_cell_length_a                   10.365(2)
_cell_length_b                   13.149(1)
_cell_length_c                   15.690(2)
_cell_angle_alpha                90
_cell_angle_beta                 90
_cell_angle_gamma                90
_cell_volume                     2138.38
_cell_formula_units_Z            4
loop_
_atom_site_label
_atom_site_type_symbol
_atom_site_fract_x
_atom_site_fract_y
_atom_site_fract_z
N1 N 0.7541(8) 0.9094(7) 0.4198(5)
C1 C 0.715(1) 0.8174(8) 0.4539(6)
O1 O 0.6162(7) 0.7769(6) 0.4338(4)
C2 C 0.807(1) 0.7731(7) 0.5205(6)
C3 C 0.8015(9) 0.8267(7) 0.6048(6)
O2 O 0.7789(8) 0.6666(5) 0.5281(5)
C4 C 0.814(1) 0.9425(7) 0.5925(6)
C5 C 1.036(1) 1.0073(7) 0.5406(7)
C6 C 1.113(1) 1.0340(8) 0.4691(9)
C7 C 1.073(1) 1.0207(8) 0.3903(8)
C8 C 0.954(1) 0.9806(8) 0.3748(7)
C9 C 0.875(1) 0.9553(7) 0.4393(5)
C10 C 0.9099(9) 0.9699(6) 0.5243(6)
C11 C 0.6780(9) 0.8015(7) 0.6553(6)
C12 C 0.685(1) 0.7299(8) 0.7210(6)
C13 C 0.575(1) 0.701(1) 0.7648(7)
C14 C 0.458(1) 0.7440(9) 0.7456(7)
C15 C 0.446(1) 0.8146(8) 0.6819(6)
C16 C 0.557(1) 0.8415(8) 0.6373(6)
O3 O 0.3534(8) 0.7083(8) 0.7937(6)
C17 C 0.233(1) 0.758(1) 0.7846(9)
C18 C 0.671(1) 0.9633(9) 0.3577(7)
C19 C 0.652(1) 1.073(1) 0.3729(9)
N2 N 0.601(1) 1.0913(9) 0.4588(7)
C20 C 0.474(2) 1.077(1) 0.4747(9)
C21 C 0.623(1) 1.194(1) 0.4813(9)
C22 C 1.079(1) 1.0196(8) 0.6317(9)
F1 F 1.0653(7) 0.9379(5) 0.6778(4)
F2 F 1.0186(7) 1.0947(4) 0.6725(4)
F3 F 1.2064(7) 1.0465(6) 0.6331(6)
H1 H 0.7686 0.7023 0.7365
H2 H 0.8934 0.7829 0.5005
H3 H 0.8712 0.8032 0.6388
H4 H 0.8406 0.9728 0.6447
H5 H 0.7315 0.9694 0.5771
H6 H 1.2004 1.0609 0.4813
H7 H 1.1282 1.0436 0.3416
H8 H 0.9271 0.9670 0.3147
H9 H 0.5787 0.6480 0.8071
H10 H 0.3638 0.8442 0.6685
H11 H 0.5521 0.8887 0.5902
H12 H 0.1653 0.7310 0.8169
H13 H 0.2403 0.8306 0.7983
H14 H 0.2048 0.7577 0.7242
H15 H 0.7033 0.9526 0.3012
H16 H 0.5855 0.9325 0.3597
loop_
_geom_bond_atom_site_label_1
_geom_bond_atom_site_label_2
_geom_bond_site_symmetry_1
_geom_bond_site_symmetry_2
N1 C1 1_555 1_555
C1 O1 1_555 1_555
C2 C1 1_555 1_555
C3 C2 1_555 1_555
O2 C2 1_555 1_555
C4 C3 1_555 1_555
C5 C6 1_555 1_555
C6 C7 1_555 1_555
C7 C8 1_555 1_555
C8 C9 1_555 1_555
C9 N1 1_555 1_555
C10 C4 1_555 1_555
C11 C3 1_555 1_555
C12 C11 1_555 1_555
C13 C12 1_555 1_555
C14 C13 1_555 1_555
C15 C14 1_555 1_555
C16 C11 1_555 1_555
O3 C14 1_555 1_555
C17 O3 1_555 1_555
C18 N1 1_555 1_555
C19 C18 1_555 1_555
N2 C19 1_555 1_555
C20 N2 1_555 1_555
C21 N2 1_555 1_555
C22 C5 1_555 1_555
F1 C22 1_555 1_555
F2 C22 1_555 1_555
F3 C22 1_555 1_555
H1 C12 1_555 1_555
H2 C2 1_555 1_555
H3 C3 1_555 1_555
H4 C4 1_555 1_555
H5 C4 1_555 1_555
H6 C6 1_555 1_555
H7 C7 1_555 1_555
H8 C8 1_555 1_555
H9 C13 1_555 1_555
H10 C15 1_555 1_555
H11 C16 1_555 1_555
H12 C17 1_555 1_555
H13 C17 1_555 1_555
H14 C17 1_555 1_555
H15 C18 1_555 1_555
H16 C18 1_555 1_555
C5 C10 1_555 1_555
C9 C10 1_555 1_555
C15 C16 1_555 1_555

#END
