
#######################################################################
#
#                 Cambridge Crystallographic Data Centre
#                                CCDC 
#
#######################################################################
#
# If this CIF has been generated from an entry in the Cambridge 
# Structural Database, then it will include bibliographic, chemical, 
# crystal, experimental, refinement or atomic coordinate data resulting 
# from the CCDC's data processing and validation procedures.
#
#######################################################################

data_YUDGUB
_chemical_formula_moiety         'C16 H17 N1 O2 S1'
_chemical_name_systematic        'butyl 3-(2-phenyl-1,3-thiazol-5-yl)acrylate'
_symmetry_cell_setting           monoclinic
_symmetry_space_group_name_H-M   'P 21/n'
_symmetry_Int_Tables_number      14
_space_group_name_Hall           '-P 2yn'
loop_
_symmetry_equiv_pos_site_id
_symmetry_equiv_pos_as_xyz
1 x,y,z
2 1/2-x,1/2+y,1/2-z
3 -x,-y,-z
4 1/2+x,1/2-y,1/2+z
_cell_length_a                   14.3451(14)
_cell_length_b                   5.6024(4)
_cell_length_c                   19.171(2)
_cell_angle_alpha                90
_cell_angle_beta                 110.010(11)
_cell_angle_gamma                90
_cell_volume                     1447.71
_cell_formula_units_Z            4
loop_
_atom_site_label
_atom_site_type_symbol
_atom_site_fract_x
_atom_site_fract_y
_atom_site_fract_z
C1 C 0.39092(15) 0.5696(4) 0.84101(13)
C2 C 0.42410(16) 0.7547(4) 0.89247(14)
H1 H 0.4577 0.8873 0.8812
C3 C 0.40832(17) 0.7459(4) 0.95963(14)
H2 H 0.4309 0.8727 0.9942
C4 C 0.35992(16) 0.5537(4) 0.97660(14)
H3 H 0.3499 0.5481 1.0230
C5 C 0.32576(17) 0.3684(4) 0.92610(14)
H4 H 0.2919 0.2367 0.9376
C6 C 0.34156(16) 0.3774(4) 0.85909(14)
H5 H 0.3184 0.2505 0.8246
C7 C 0.40927(15) 0.5796(4) 0.77045(13)
C8 C 0.46823(16) 0.7030(4) 0.68476(13)
H6 H 0.5038 0.8062 0.6635
C9 C 0.42045(15) 0.5047(4) 0.64838(12)
C10 C 0.41938(15) 0.4087(4) 0.57793(12)
H7 H 0.4470 0.5028 0.5486
C11 C 0.38178(15) 0.1957(4) 0.55186(13)
H8 H 0.3544 0.1013 0.5812
C12 C 0.38037(15) 0.0995(4) 0.48060(13)
C13 C 0.31380(16) -0.2202(4) 0.39483(13)
H9 H 0.3753 -0.3064 0.3978
H10 H 0.2987 -0.1027 0.3539
C14 C 0.22925(16) -0.3926(4) 0.38145(13)
H11 H 0.1680 -0.3026 0.3766
H12 H 0.2432 -0.5001 0.4248
C15 C 0.21250(16) -0.5412(4) 0.31211(12)
H13 H 0.2754 -0.6207 0.3152
H14 H 0.1932 -0.4345 0.2683
C16 C 0.13245(17) -0.7296(4) 0.30155(14)
H15 H 0.1520 -0.8384 0.3441
H16 H 0.1241 -0.8200 0.2560
H17 H 0.0697 -0.6518 0.2977
N1 N 0.46226(13) 0.7454(3) 0.75352(11)
O1 O 0.32592(11) -0.1006(3) 0.46461(8)
O2 O 0.42155(11) 0.1862(3) 0.44030(9)
S1 S 0.36266(4) 0.36292(10) 0.70269(3)
loop_
_geom_bond_atom_site_label_1
_geom_bond_atom_site_label_2
_geom_bond_site_symmetry_1
_geom_bond_site_symmetry_2
C1 C2 1_555 1_555
C2 H1 1_555 1_555
C3 C2 1_555 1_555
H2 C3 1_555 1_555
C4 C3 1_555 1_555
H3 C4 1_555 1_555
C5 C4 1_555 1_555
H4 C5 1_555 1_555
C6 C1 1_555 1_555
H5 C6 1_555 1_555
C7 C1 1_555 1_555
C8 H6 1_555 1_555
C9 C8 1_555 1_555
C10 C9 1_555 1_555
H7 C10 1_555 1_555
C11 C10 1_555 1_555
H8 C11 1_555 1_555
C12 C11 1_555 1_555
C13 H9 1_555 1_555
H10 C13 1_555 1_555
C14 C13 1_555 1_555
H11 C14 1_555 1_555
H12 C14 1_555 1_555
C15 C14 1_555 1_555
H13 C15 1_555 1_555
H14 C15 1_555 1_555
C16 C15 1_555 1_555
H15 C16 1_555 1_555
H16 C16 1_555 1_555
H17 C16 1_555 1_555
N1 C7 1_555 1_555
O1 C12 1_555 1_555
O2 C12 1_555 1_555
S1 C7 1_555 1_555
C5 C6 1_555 1_555
C8 N1 1_555 1_555
C9 S1 1_555 1_555
C13 O1 1_555 1_555

#END
