
#######################################################################
#
#                 Cambridge Crystallographic Data Centre
#                                CCDC 
#
#######################################################################
#
# If this CIF has been generated from an entry in the Cambridge 
# Structural Database, then it will include bibliographic, chemical, 
# crystal, experimental, refinement or atomic coordinate data resulting 
# from the CCDC's data processing and validation procedures.
#
#######################################################################

data_YUDHAH
_chemical_formula_moiety         'C22 H22 N2 O4'
_chemical_name_systematic        
1-(4-((4-Methoxyphenyl)amino)-2-((4-methoxyphenyl)imino)-6-methyl-2H-pyran-3-yl)ethanone
_symmetry_cell_setting           monoclinic
_symmetry_space_group_name_H-M   'P 21/c'
_symmetry_Int_Tables_number      14
_space_group_name_Hall           '-P 2ybc'
loop_
_symmetry_equiv_pos_site_id
_symmetry_equiv_pos_as_xyz
1 x,y,z
2 -x,1/2+y,1/2-z
3 -x,-y,-z
4 x,1/2-y,1/2+z
_cell_length_a                   10.9714(13)
_cell_length_b                   20.036(2)
_cell_length_c                   9.5699(12)
_cell_angle_alpha                90
_cell_angle_beta                 112.140(2)
_cell_angle_gamma                90
_cell_volume                     1948.57
_exptl_crystal_colour            yellow
_exptl_crystal_description       block
_chemical_melting_point          128-130deg.C
_cell_formula_units_Z            4
loop_
_atom_site_label
_atom_site_type_symbol
_atom_site_fract_x
_atom_site_fract_y
_atom_site_fract_z
O1 O 0.28039(17) 0.30786(8) 0.6603(2)
O2 O 0.3312(2) -0.12315(8) 0.6774(2)
O3 O 0.38656(19) 0.60901(9) 0.7102(2)
N1 N 0.1565(2) 0.36685(10) 0.7625(2)
O4 O -0.0148(2) 0.19081(10) 0.8354(3)
C1 C 0.1313(3) 0.24699(11) 0.7487(3)
C2 C 0.3325(3) 0.24959(12) 0.6367(3)
N2 N 0.1523(2) 0.12795(10) 0.7577(3)
H1 H 0.0939 0.1278 0.7976
C3 C 0.1995(3) 0.06431(12) 0.7331(3)
C4 C 0.1859(2) 0.30985(12) 0.7264(3)
C5 C 0.1363(3) 0.48042(12) 0.6756(3)
H2 H 0.0455 0.4750 0.6387
C6 C 0.1893(3) 0.18742(12) 0.7253(3)
C7 C 0.3230(3) 0.55062(12) 0.7176(3)
C8 C 0.2842(3) -0.06090(12) 0.6881(3)
C9 C 0.2920(3) 0.19110(12) 0.6671(3)
H3 H 0.3304 0.1521 0.6506
C10 C 0.2165(3) 0.42665(11) 0.7440(3)
C11 C 0.4037(3) 0.49861(13) 0.7908(3)
H4 H 0.4944 0.5048 0.8324
C12 C 0.1883(3) 0.54196(12) 0.6609(3)
H5 H 0.1327 0.5771 0.6133
C13 C 0.2085(3) -0.02322(13) 0.5667(3)
H6 H 0.1857 -0.0396 0.4692
C14 C 0.3510(3) 0.43758(12) 0.8028(3)
H7 H 0.4071 0.4028 0.8516
C15 C 0.1664(3) 0.03911(13) 0.5903(3)
H8 H 0.1147 0.0645 0.5079
C16 C 0.3190(3) -0.03532(14) 0.8325(3)
H9 H 0.3718 -0.0603 0.9150
C17 C 0.4376(3) 0.26127(13) 0.5771(3)
H10 H 0.4477 0.3084 0.5664
H11 H 0.4141 0.2400 0.4806
H12 H 0.5190 0.2430 0.6459
C18 C 0.2765(3) 0.02636(14) 0.8546(3)
H13 H 0.2995 0.0429 0.9520
C19 C -0.0572(3) 0.30500(16) 0.8014(5)
H14 H -0.1254 0.2929 0.8365
H15 H -0.0959 0.3235 0.7017
H16 H -0.0005 0.3375 0.8682
C20 C 0.0211(3) 0.24439(13) 0.7976(3)
C21 C 0.3103(4) 0.66093(15) 0.6205(4)
H17 H 0.3654 0.6988 0.6260
H18 H 0.2428 0.6733 0.6567
H19 H 0.2704 0.6462 0.5178
C22 C 0.3016(4) -0.14918(14) 0.5312(4)
H20 H 0.3396 -0.1928 0.5384
H21 H 0.3372 -0.1203 0.4760
H22 H 0.2079 -0.1521 0.4796
loop_
_geom_bond_atom_site_label_1
_geom_bond_atom_site_label_2
_geom_bond_site_symmetry_1
_geom_bond_site_symmetry_2
O1 C2 1_555 1_555
O2 C8 1_555 1_555
O3 C7 1_555 1_555
N1 C4 1_555 1_555
O4 C20 1_555 1_555
C1 C4 1_555 1_555
C2 C9 1_555 1_555
N2 H1 1_555 1_555
C3 N2 1_555 1_555
C4 O1 1_555 1_555
C5 H2 1_555 1_555
C6 C1 1_555 1_555
C7 C11 1_555 1_555
C8 C13 1_555 1_555
C9 C6 1_555 1_555
H3 C9 1_555 1_555
C10 N1 1_555 1_555
C11 H4 1_555 1_555
C12 C5 1_555 1_555
H5 C12 1_555 1_555
C13 H6 1_555 1_555
C14 C10 1_555 1_555
H7 C14 1_555 1_555
C15 C3 1_555 1_555
H8 C15 1_555 1_555
C16 C8 1_555 1_555
H9 C16 1_555 1_555
C17 C2 1_555 1_555
H10 C17 1_555 1_555
H11 C17 1_555 1_555
H12 C17 1_555 1_555
C18 C3 1_555 1_555
H13 C18 1_555 1_555
C19 H14 1_555 1_555
H15 C19 1_555 1_555
H16 C19 1_555 1_555
C20 C1 1_555 1_555
C21 O3 1_555 1_555
H17 C21 1_555 1_555
H18 C21 1_555 1_555
H19 C21 1_555 1_555
C22 O2 1_555 1_555
H20 C22 1_555 1_555
H21 C22 1_555 1_555
H22 C22 1_555 1_555
N2 C6 1_555 1_555
C5 C10 1_555 1_555
C7 C12 1_555 1_555
C11 C14 1_555 1_555
C13 C15 1_555 1_555
C16 C18 1_555 1_555
C19 C20 1_555 1_555

#END
