
#######################################################################
#
#                 Cambridge Crystallographic Data Centre
#                                CCDC 
#
#######################################################################
#
# If this CIF has been generated from an entry in the Cambridge 
# Structural Database, then it will include bibliographic, chemical, 
# crystal, experimental, refinement or atomic coordinate data resulting 
# from the CCDC's data processing and validation procedures.
#
#######################################################################

data_YUDJEN
_chemical_formula_moiety         'C23 H17 I1 N2 O2,0.5(C1 H2 Cl2)'
_chemical_name_systematic        
'N-(4-Iodo-3-phenylisoquinolin-1-yl)-N-(4-methoxyphenyl)formamide dichloromethane solvate'
_symmetry_cell_setting           monoclinic
_symmetry_space_group_name_H-M   'C 2/c'
_symmetry_Int_Tables_number      15
_space_group_name_Hall           '-C 2yn'
loop_
_symmetry_equiv_pos_site_id
_symmetry_equiv_pos_as_xyz
1 x,y,z
2 -x,y,1/2-z
3 1/2+x,1/2+y,z
4 1/2-x,1/2+y,1/2-z
5 -x,-y,-z
6 x,-y,1/2+z
7 1/2-x,1/2-y,-z
8 1/2+x,1/2-y,1/2+z
_cell_length_a                   19.2562(6)
_cell_length_b                   8.9218(3)
_cell_length_c                   25.6901(8)
_cell_angle_alpha                90
_cell_angle_beta                 92.4340(10)
_cell_angle_gamma                90
_cell_volume                     4409.58
_cell_formula_units_Z            8
loop_
_atom_site_label
_atom_site_type_symbol
_atom_site_fract_x
_atom_site_fract_y
_atom_site_fract_z
I1 I 0.343338(14) 0.03219(3) 1.100617(8)
N1 N 0.42397(14) 0.2594(3) 0.88115(10)
N2 N 0.38882(14) 0.2984(3) 0.96494(9)
O1 O 0.47058(18) 0.4655(3) 0.84332(12)
O2 O 0.27180(15) 0.1016(4) 0.69950(10)
C1 C 0.40876(16) 0.1994(3) 0.93129(11)
C2 C 0.41685(16) 0.0440(3) 0.94156(12)
C3 C 0.43885(19) -0.0604(4) 0.90416(14)
H1 H 0.4504 -0.0275 0.8713
C4 C 0.4431(2) -0.2092(4) 0.91622(16)
H2 H 0.4568 -0.2777 0.8914
C5 C 0.4268(2) -0.2590(4) 0.96606(17)
H3 H 0.4296 -0.3607 0.9739
C6 C 0.4070(2) -0.1609(4) 1.00301(15)
H4 H 0.3973 -0.1962 1.0360
C7 C 0.40095(17) -0.0056(4) 0.99219(13)
C8 C 0.37807(16) 0.1045(4) 1.02815(11)
C9 C 0.37394(16) 0.2524(4) 1.01411(11)
C10 C 0.34915(16) 0.3769(4) 1.04769(12)
C11 C 0.2952(2) 0.4666(4) 1.02908(16)
H5 H 0.2750 0.4499 0.9961
C12 C 0.2713(2) 0.5819(5) 1.0598(2)
H6 H 0.2346 0.6414 1.0473
C13 C 0.3010(2) 0.6091(5) 1.10831(17)
H7 H 0.2839 0.6853 1.1289
C14 C 0.3560(2) 0.5236(4) 1.12639(16)
H8 H 0.3772 0.5441 1.1588
C15 C 0.38011(18) 0.4067(4) 1.09656(13)
H9 H 0.4170 0.3481 1.1092
C16 C 0.38341(16) 0.2150(4) 0.83537(11)
C17 C 0.31336(18) 0.1890(4) 0.83768(12)
H10 H 0.2921 0.1970 0.8694
C18 C 0.27390(19) 0.1509(5) 0.79302(14)
H11 H 0.2264 0.1338 0.7949
C19 C 0.30517(19) 0.1386(4) 0.74611(12)
C20 C 0.37540(19) 0.1652(5) 0.74363(13)
H12 H 0.3966 0.1583 0.7119
C21 C 0.41450(18) 0.2021(5) 0.78830(13)
H13 H 0.4620 0.2182 0.7865
C22 C 0.4637(2) 0.3858(4) 0.88062(14)
H14 H 0.4874 0.4128 0.9115
C23 C 0.1990(3) 0.0874(8) 0.69834(19)
H15 H 0.1862 0.0105 0.7222
H16 H 0.1824 0.0612 0.6638
H17 H 0.1787 0.1809 0.7082
C24 C 0.5000 0.3151(8) 0.2500
H18 H 0.4771 0.3792 0.2744
Cl1 Cl 0.43869(12) 0.2113(3) 0.21672(9)
H18A H 0.5229 0.3792 0.2256
Cl1A Cl 0.56131(12) 0.2113(3) 0.28328(9)
loop_
_geom_bond_atom_site_label_1
_geom_bond_atom_site_label_2
_geom_bond_site_symmetry_1
_geom_bond_site_symmetry_2
I1 C8 1_555 1_555
N1 C1 1_555 1_555
N2 C1 1_555 1_555
O1 C22 1_555 1_555
O2 C19 1_555 1_555
C1 C2 1_555 1_555
C2 C3 1_555 1_555
C3 H1 1_555 1_555
C4 C3 1_555 1_555
H2 C4 1_555 1_555
C5 C4 1_555 1_555
H3 C5 1_555 1_555
C6 C5 1_555 1_555
H4 C6 1_555 1_555
C7 C2 1_555 1_555
C8 C7 1_555 1_555
C9 N2 1_555 1_555
C10 C9 1_555 1_555
C11 C10 1_555 1_555
H5 C11 1_555 1_555
C12 C11 1_555 1_555
H6 C12 1_555 1_555
C13 C12 1_555 1_555
H7 C13 1_555 1_555
C14 C13 1_555 1_555
H8 C14 1_555 1_555
C15 C10 1_555 1_555
H9 C15 1_555 1_555
C16 N1 1_555 1_555
C17 C16 1_555 1_555
H10 C17 1_555 1_555
C18 C17 1_555 1_555
H11 C18 1_555 1_555
C19 C18 1_555 1_555
C20 C19 1_555 1_555
H12 C20 1_555 1_555
C21 C16 1_555 1_555
H13 C21 1_555 1_555
C22 N1 1_555 1_555
H14 C22 1_555 1_555
C23 O2 1_555 1_555
H15 C23 1_555 1_555
H16 C23 1_555 1_555
H17 C23 1_555 1_555
C24 H18 1_555 1_555
Cl1 C24 1_555 1_555
H18A C24 1_555 1_555
Cl1A C24 1_555 1_555
C6 C7 1_555 1_555
C8 C9 1_555 1_555
C14 C15 1_555 1_555
C20 C21 1_555 1_555

#END
