
#######################################################################
#
#                 Cambridge Crystallographic Data Centre
#                                CCDC 
#
#######################################################################
#
# If this CIF has been generated from an entry in the Cambridge 
# Structural Database, then it will include bibliographic, chemical, 
# crystal, experimental, refinement or atomic coordinate data resulting 
# from the CCDC's data processing and validation procedures.
#
#######################################################################

data_YUDKIS
_chemical_formula_moiety         'C17 H16 N2 O6'
_chemical_name_systematic        
6,8-Dimethyl-1,13-dinitro-7,8-dihydro-6H-dibenzo[f,h][1,5]dioxonine
_symmetry_cell_setting           orthorhombic
_symmetry_space_group_name_H-M   'P 21 21 21'
_symmetry_Int_Tables_number      19
_space_group_name_Hall           'P 2ac 2ab'
loop_
_symmetry_equiv_pos_site_id
_symmetry_equiv_pos_as_xyz
1 x,y,z
2 1/2-x,-y,1/2+z
3 -x,1/2+y,1/2-z
4 1/2+x,1/2-y,-z
_cell_length_a                   8.3892(7)
_cell_length_b                   12.8437(11)
_cell_length_c                   15.4809(14)
_cell_angle_alpha                90
_cell_angle_beta                 90
_cell_angle_gamma                90
_cell_volume                     1668.04
_exptl_crystal_colour            yellow
_exptl_crystal_description       block
_cell_formula_units_Z            4
loop_
_atom_site_label
_atom_site_type_symbol
_atom_site_fract_x
_atom_site_fract_y
_atom_site_fract_z
C1 C -0.0770(4) 0.9438(3) 0.0853(2)
C2 C -0.1501(4) 0.8557(3) 0.1197(2)
H1 H -0.1622 0.8495 0.1805
C3 C -0.2050(5) 0.7776(3) 0.0667(3)
H2 H -0.2556 0.7184 0.0911
C4 C -0.1872(5) 0.7847(3) -0.0203(3)
H3 H -0.2257 0.7310 -0.0570
C5 C -0.1123(4) 0.8709(3) -0.0546(2)
C6 C -0.0555(4) 0.9531(2) -0.00416(19)
C7 C 0.0332(4) 1.0463(2) -0.03640(18)
C8 C -0.0269(5) 1.1250(3) -0.0882(2)
C9 C 0.0653(7) 1.2078(3) -0.1156(2)
H4 H 0.0199 1.2608 -0.1507
C10 C 0.2186(7) 1.2131(3) -0.0926(3)
H5 H 0.2831 1.2685 -0.1134
C11 C 0.2846(5) 1.1382(3) -0.0386(3)
H6 H 0.3927 1.1439 -0.0209
C12 C 0.1929(4) 1.0552(3) -0.0105(2)
C13 C 0.4904(5) 0.9743(4) 0.1248(4)
H7 H 0.4980 0.8990 0.1153
H8 H 0.5386 0.9919 0.1806
H9 H 0.5469 1.0110 0.0785
C14 C 0.3169(4) 1.0066(3) 0.1248(2)
H10 H 0.3101 1.0838 0.1322
C15 C 0.2181(5) 0.9550(3) 0.1930(2)
H11 H 0.2812 0.9531 0.2470
H12 H 0.1993 0.8820 0.1751
C16 C 0.0574(5) 1.0043(3) 0.2132(2)
H13 H -0.0061 0.9538 0.2483
C17 C 0.0684(7) 1.1032(5) 0.2617(3)
H14 H 0.1243 1.0912 0.3163
H15 H -0.0391 1.1294 0.2735
H16 H 0.1272 1.1545 0.2273
N1 N -0.0858(4) 0.8697(3) -0.1473(2)
N2 N -0.1934(5) 1.1254(3) -0.1145(2)
O1 O 0.2523(3) 0.97821(19) 0.03983(16)
O2 O -0.0293(3) 1.02580(18) 0.13409(14)
O3 O 0.0349(6) 0.9068(4) -0.1758(2)
O4 O -0.1729(7) 0.8199(4) -0.1925(2)
O5 O -0.2381(7) 1.1868(4) -0.1660(4)
O6 O -0.2859(5) 1.0743(5) -0.0778(5)
loop_
_geom_bond_atom_site_label_1
_geom_bond_atom_site_label_2
_geom_bond_site_symmetry_1
_geom_bond_site_symmetry_2
C1 C2 1_555 1_555
C2 H1 1_555 1_555
C3 C2 1_555 1_555
H2 C3 1_555 1_555
C4 C3 1_555 1_555
H3 C4 1_555 1_555
C5 C4 1_555 1_555
C6 C1 1_555 1_555
C7 C6 1_555 1_555
C8 C7 1_555 1_555
C9 C8 1_555 1_555
H4 C9 1_555 1_555
C10 C9 1_555 1_555
H5 C10 1_555 1_555
C11 C10 1_555 1_555
H6 C11 1_555 1_555
C12 C7 1_555 1_555
C13 H7 1_555 1_555
H8 C13 1_555 1_555
H9 C13 1_555 1_555
C14 C13 1_555 1_555
H10 C14 1_555 1_555
C15 C14 1_555 1_555
H11 C15 1_555 1_555
H12 C15 1_555 1_555
C16 C15 1_555 1_555
H13 C16 1_555 1_555
C17 C16 1_555 1_555
H14 C17 1_555 1_555
H15 C17 1_555 1_555
H16 C17 1_555 1_555
N1 C5 1_555 1_555
N2 C8 1_555 1_555
O1 C12 1_555 1_555
O2 C1 1_555 1_555
O3 N1 1_555 1_555
O4 N1 1_555 1_555
O5 N2 1_555 1_555
O6 N2 1_555 1_555
C5 C6 1_555 1_555
C11 C12 1_555 1_555
C14 O1 1_555 1_555
C16 O2 1_555 1_555

#END
