
#######################################################################
#
#                 Cambridge Crystallographic Data Centre
#                                CCDC 
#
#######################################################################
#
# If this CIF has been generated from an entry in the Cambridge 
# Structural Database, then it will include bibliographic, chemical, 
# crystal, experimental, refinement or atomic coordinate data resulting 
# from the CCDC's data processing and validation procedures.
#
#######################################################################

data_YUDPIX
_chemical_formula_moiety         'C76 H50 K2 N10 O8,12(H2 O1)'
_chemical_name_systematic        
"bis(\m~2~-2,2'-Azanediyldibenzoato-O,O'O',O'')-tetrakis(1,10-phenanthroline)-di-potassium dodecahydrate"
_symmetry_cell_setting           triclinic
_symmetry_space_group_name_H-M   'P -1'
_symmetry_Int_Tables_number      2
_space_group_name_Hall           '-P 1'
loop_
_symmetry_equiv_pos_site_id
_symmetry_equiv_pos_as_xyz
1 x,y,z
2 -x,-y,-z
_cell_length_a                   11.9819(9)
_cell_length_b                   12.9683(10)
_cell_length_c                   13.9756(11)
_cell_angle_alpha                67.6010(10)
_cell_angle_beta                 70.8260(10)
_cell_angle_gamma                69.1710(10)
_cell_volume                     1829.17
_cell_formula_units_Z            1
loop_
_atom_site_label
_atom_site_type_symbol
_atom_site_fract_x
_atom_site_fract_y
_atom_site_fract_z
K1 K 0.08879(6) 0.62539(5) 0.42645(5)
C1 C 0.3835(4) 0.5806(5) 0.2632(4)
H1 H 0.3391 0.6367 0.2142
C2 C 0.5074(5) 0.5333(6) 0.2256(5)
H2 H 0.5441 0.5575 0.1539
C3 C 0.5731(5) 0.4514(6) 0.2959(6)
H3 H 0.6561 0.4190 0.2729
C4 C 0.5154(4) 0.4152(4) 0.4046(5)
C5 C 0.5773(5) 0.3274(5) 0.4842(6)
H4 H 0.6601 0.2922 0.4642
C6 C 0.5207(5) 0.2951(5) 0.5841(6)
H5 H 0.5646 0.2393 0.6335
C7 C 0.3931(4) 0.3441(4) 0.6184(4)
C8 C 0.3277(5) 0.3091(4) 0.7236(4)
H6 H 0.3680 0.2523 0.7751
C9 C 0.2052(5) 0.3580(4) 0.7504(4)
H7 H 0.1606 0.3334 0.8194
C10 C 0.1479(4) 0.4458(3) 0.6724(3)
H8 H 0.0645 0.4795 0.6915
C11 C 0.3276(4) 0.4332(3) 0.5446(3)
C12 C 0.3902(4) 0.4685(4) 0.4349(4)
C13 C 0.0016(4) 0.7220(4) 0.6573(3)
H9 H -0.0394 0.6644 0.6851
C14 C 0.0041(5) 0.7750(5) 0.7264(4)
H10 H -0.0334 0.7524 0.7981
C15 C 0.0629(5) 0.8607(5) 0.6869(5)
H11 H 0.0667 0.8966 0.7316
C16 C 0.1171(4) 0.8938(4) 0.5788(4)
C17 C 0.1787(4) 0.9850(4) 0.5308(6)
H12 H 0.1832 1.0235 0.5730
C18 C 0.2290(5) 1.0150(4) 0.4276(6)
H13 H 0.2693 1.0732 0.3989
C19 C 0.2221(4) 0.9596(4) 0.3609(5)
C20 C 0.2733(6) 0.9909(5) 0.2517(5)
H14 H 0.3167 1.0468 0.2217
C21 C 0.2592(8) 0.9396(6) 0.1904(5)
H15 H 0.2913 0.9608 0.1176
C22 C 0.1950(7) 0.8529(5) 0.2382(4)
H16 H 0.1835 0.8200 0.1947
C23 C 0.1618(4) 0.8701(3) 0.4032(4)
C24 C 0.1097(3) 0.8356(3) 0.5148(3)
C25 C -0.1024(4) 0.3402(3) 0.8445(3)
C26 C -0.1490(3) 0.4346(3) 0.8979(3)
C27 C -0.1249(4) 0.4065(4) 0.9972(3)
H17 H -0.0830 0.3312 1.0281
C28 C -0.1612(5) 0.4871(4) 1.0513(3)
H18 H -0.1431 0.4663 1.1171
C29 C -0.2244(4) 0.5985(4) 1.0065(3)
H19 H -0.2496 0.6531 1.0425
C30 C -0.2509(4) 0.6300(4) 0.9078(3)
H20 H -0.2935 0.7055 0.8785
C31 C -0.2141(3) 0.5494(4) 0.8520(3)
C32 C -0.3147(3) 0.6770(3) 0.6992(3)
C33 C -0.4296(4) 0.7266(4) 0.7547(4)
H21 H -0.4497 0.6994 0.8284
C34 C -0.5136(4) 0.8155(4) 0.7012(4)
H22 H -0.5895 0.8474 0.7394
C35 C -0.4863(4) 0.8572(4) 0.5927(4)
H23 H -0.5439 0.9158 0.5572
C36 C -0.3730(4) 0.8115(3) 0.5366(3)
H24 H -0.3541 0.8412 0.4630
C37 C -0.2850(3) 0.7209(3) 0.5879(3)
C38 C -0.1635(3) 0.6783(3) 0.5205(3)
N1 N 0.3252(3) 0.5513(3) 0.3630(3)
N2 N 0.2063(3) 0.4842(3) 0.5719(2)
N3 N 0.0537(3) 0.7483(3) 0.5547(3)
N4 N 0.1505(4) 0.8165(3) 0.3416(3)
N5 N -0.2332(3) 0.5810(3) 0.7509(2)
H25 H -0.1776 0.5316 0.7098
O1 O -0.1016(2) 0.3673(2) 0.74739(18)
O2 O -0.0648(4) 0.2385(3) 0.8991(2)
O3 O -0.1271(2) 0.7433(2) 0.43077(19)
O4 O -0.0961(2) 0.57684(19) 0.55685(18)
K1A K -0.08879(6) 0.37461(5) 0.57355(5)
C1A C -0.3835(4) 0.4194(5) 0.7368(4)
H1A H -0.3391 0.3633 0.7858
C2A C -0.5074(5) 0.4667(6) 0.7744(5)
H2A H -0.5441 0.4425 0.8461
C3A C -0.5731(5) 0.5486(6) 0.7041(6)
H3A H -0.6561 0.5810 0.7271
C4A C -0.5154(4) 0.5848(4) 0.5954(5)
C5A C -0.5773(5) 0.6726(5) 0.5158(6)
H4A H -0.6601 0.7078 0.5358
C6A C -0.5207(5) 0.7049(5) 0.4159(6)
H5A H -0.5646 0.7607 0.3665
C7A C -0.3931(4) 0.6559(4) 0.3816(4)
C8A C -0.3277(5) 0.6909(4) 0.2764(4)
H6A H -0.3680 0.7477 0.2249
C9A C -0.2052(5) 0.6420(4) 0.2496(4)
H7A H -0.1606 0.6666 0.1806
C10A C -0.1479(4) 0.5542(3) 0.3276(3)
H8A H -0.0645 0.5205 0.3085
C11A C -0.3276(4) 0.5668(3) 0.4554(3)
C12A C -0.3902(4) 0.5315(4) 0.5651(4)
C13A C -0.0016(4) 0.2780(4) 0.3427(3)
H9A H 0.0394 0.3356 0.3149
C14A C -0.0041(5) 0.2250(5) 0.2736(4)
H10A H 0.0334 0.2476 0.2019
C15A C -0.0629(5) 0.1393(5) 0.3131(5)
H11A H -0.0667 0.1034 0.2684
C16A C -0.1171(4) 0.1062(4) 0.4212(4)
C17A C -0.1787(4) 0.0150(4) 0.4692(6)
H12A H -0.1832 -0.0235 0.4270
C18A C -0.2290(5) -0.0150(4) 0.5724(6)
H13A H -0.2693 -0.0732 0.6011
C19A C -0.2221(4) 0.0404(4) 0.6391(5)
C20A C -0.2733(6) 0.0091(5) 0.7483(5)
H14A H -0.3167 -0.0468 0.7783
C21A C -0.2592(8) 0.0604(6) 0.8096(5)
H15A H -0.2913 0.0392 0.8824
C22A C -0.1950(7) 0.1471(5) 0.7618(4)
H16A H -0.1835 0.1800 0.8053
C23A C -0.1618(4) 0.1299(3) 0.5968(4)
C24A C -0.1097(3) 0.1644(3) 0.4852(3)
C25A C 0.1024(4) 0.6598(3) 0.1555(3)
C26A C 0.1490(3) 0.5654(3) 0.1021(3)
C27A C 0.1249(4) 0.5935(4) 0.0028(3)
H17A H 0.0830 0.6688 -0.0281
C28A C 0.1612(5) 0.5129(4) -0.0513(3)
H18A H 0.1431 0.5337 -0.1171
C29A C 0.2244(4) 0.4015(4) -0.0065(3)
H19A H 0.2496 0.3469 -0.0425
C30A C 0.2509(4) 0.3700(4) 0.0922(3)
H20A H 0.2935 0.2945 0.1215
C31A C 0.2141(3) 0.4506(4) 0.1480(3)
C32A C 0.3147(3) 0.3230(3) 0.3008(3)
C33A C 0.4296(4) 0.2734(4) 0.2453(4)
H21A H 0.4497 0.3006 0.1716
C34A C 0.5136(4) 0.1845(4) 0.2988(4)
H22A H 0.5895 0.1526 0.2606
C35A C 0.4863(4) 0.1428(4) 0.4073(4)
H23A H 0.5439 0.0842 0.4428
C36A C 0.3730(4) 0.1885(3) 0.4634(3)
H24A H 0.3541 0.1588 0.5370
C37A C 0.2850(3) 0.2791(3) 0.4121(3)
C38A C 0.1635(3) 0.3217(3) 0.4795(3)
N1A N -0.3252(3) 0.4487(3) 0.6370(3)
N2A N -0.2063(3) 0.5158(3) 0.4281(2)
N3A N -0.0537(3) 0.2517(3) 0.4453(3)
N4A N -0.1505(4) 0.1835(3) 0.6584(3)
N5A N 0.2332(3) 0.4190(3) 0.2491(2)
H25A H 0.1776 0.4684 0.2902
O1A O 0.1016(2) 0.6327(2) 0.25261(18)
O2A O 0.0648(4) 0.7615(3) 0.1009(2)
O3A O 0.1271(2) 0.2567(2) 0.56923(19)
O4A O 0.0961(2) 0.42316(19) 0.44315(18)
O5 O 0.1056(6) 0.1011(3) 0.7825(3)
H26 H 0.0928 0.1182 0.7234
H27 H 0.1655 0.1114 0.7900
O6 O 0.5348(13) 0.8626(8) 0.9766(10)
H28 H 0.5861 0.8340 1.0148
H29 H 0.4836 0.9262 0.9772
O7 O 0.5000 0.5000 0.0000
O8 O 0.3756(9) 0.7610(13) 1.0005(6)
H30 H 0.4386 0.7797 0.9885
H31 H 0.3773 0.7018 0.9910
O9 O 0.0214(11) 0.0900(6) 0.0741(6)
H32 H 0.0421 0.0275 0.1222
H33 H 0.0782 0.1208 0.0314
O10 O 0.780(2) 0.078(3) 0.0768(11)
H34 H 0.8223 0.1023 0.0978
H35 H 0.8174 0.0466 0.0275
O11 O 0.646(2) 0.9305(9) 0.0830(9)
H36 H 0.5747 0.9563 0.0577
H37 H 0.6277 0.9164 0.1404
loop_
_geom_bond_atom_site_label_1
_geom_bond_atom_site_label_2
_geom_bond_site_symmetry_1
_geom_bond_site_symmetry_2
K1 N1 1_555 1_555
C1 H1 1_555 1_555
C2 C1 1_555 1_555
H2 C2 1_555 1_555
C3 C2 1_555 1_555
H3 C3 1_555 1_555
C4 C3 1_555 1_555
C5 C4 1_555 1_555
H4 C5 1_555 1_555
C6 C5 1_555 1_555
H5 C6 1_555 1_555
C7 C6 1_555 1_555
C8 C7 1_555 1_555
H6 C8 1_555 1_555
C9 C8 1_555 1_555
H7 C9 1_555 1_555
C10 C9 1_555 1_555
H8 C10 1_555 1_555
C11 C7 1_555 1_555
C12 C4 1_555 1_555
C13 H9 1_555 1_555
C14 C13 1_555 1_555
H10 C14 1_555 1_555
C15 C14 1_555 1_555
H11 C15 1_555 1_555
C16 C15 1_555 1_555
C17 C16 1_555 1_555
H12 C17 1_555 1_555
C18 C17 1_555 1_555
H13 C18 1_555 1_555
C19 C18 1_555 1_555
C20 C19 1_555 1_555
H14 C20 1_555 1_555
C21 C20 1_555 1_555
H15 C21 1_555 1_555
C22 C21 1_555 1_555
H16 C22 1_555 1_555
C23 C19 1_555 1_555
C24 C16 1_555 1_555
C25 C26 1_555 1_555
C26 C27 1_555 1_555
C27 H17 1_555 1_555
C28 C27 1_555 1_555
H18 C28 1_555 1_555
C29 C28 1_555 1_555
H19 C29 1_555 1_555
C30 C29 1_555 1_555
H20 C30 1_555 1_555
C31 C26 1_555 1_555
C32 C33 1_555 1_555
C33 H21 1_555 1_555
C34 C33 1_555 1_555
H22 C34 1_555 1_555
C35 C34 1_555 1_555
H23 C35 1_555 1_555
C36 C35 1_555 1_555
H24 C36 1_555 1_555
C37 C32 1_555 1_555
C38 C37 1_555 1_555
N1 C1 1_555 1_555
N2 K1 1_555 1_555
N3 K1 1_555 1_555
N4 K1 1_555 1_555
N5 C31 1_555 1_555
H25 N5 1_555 1_555
O1 C25 1_555 1_555
O2 C25 1_555 1_555
O3 K1 1_555 1_555
O4 K1 1_555 1_555
O5 H26 1_555 1_555
H27 O5 1_555 1_555
O6 H28 1_555 1_555
H29 O6 1_555 1_555
O8 H30 1_555 1_555
H31 O8 1_555 1_555
O9 H32 1_555 1_555
H33 O9 1_555 1_555
O10 H34 1_555 1_555
H35 O10 1_555 1_555
O11 H36 1_555 1_555
H37 O11 1_555 1_555
K1A O1 1_555 1_555
C1A H1A 1_555 1_555
C2A C1A 1_555 1_555
H2A C2A 1_555 1_555
C3A C2A 1_555 1_555
H3A C3A 1_555 1_555
C4A C3A 1_555 1_555
C5A C4A 1_555 1_555
H4A C5A 1_555 1_555
C6A C5A 1_555 1_555
H5A C6A 1_555 1_555
C7A C6A 1_555 1_555
C8A C7A 1_555 1_555
H6A C8A 1_555 1_555
C9A C8A 1_555 1_555
H7A C9A 1_555 1_555
C10A C9A 1_555 1_555
H8A C10A 1_555 1_555
C11A C7A 1_555 1_555
C12A C4A 1_555 1_555
C13A H9A 1_555 1_555
C14A C13A 1_555 1_555
H10A C14A 1_555 1_555
C15A C14A 1_555 1_555
H11A C15A 1_555 1_555
C16A C15A 1_555 1_555
C17A C16A 1_555 1_555
H12A C17A 1_555 1_555
C18A C17A 1_555 1_555
H13A C18A 1_555 1_555
C19A C18A 1_555 1_555
C20A C19A 1_555 1_555
H14A C20A 1_555 1_555
C21A C20A 1_555 1_555
H15A C21A 1_555 1_555
C22A C21A 1_555 1_555
H16A C22A 1_555 1_555
C23A C19A 1_555 1_555
C24A C16A 1_555 1_555
C25A C26A 1_555 1_555
C26A C27A 1_555 1_555
C27A H17A 1_555 1_555
C28A C27A 1_555 1_555
H18A C28A 1_555 1_555
C29A C28A 1_555 1_555
H19A C29A 1_555 1_555
C30A C29A 1_555 1_555
H20A C30A 1_555 1_555
C31A C26A 1_555 1_555
C32A C33A 1_555 1_555
C33A H21A 1_555 1_555
C34A C33A 1_555 1_555
H22A C34A 1_555 1_555
C35A C34A 1_555 1_555
H23A C35A 1_555 1_555
C36A C35A 1_555 1_555
H24A C36A 1_555 1_555
C37A C32A 1_555 1_555
C38A C37A 1_555 1_555
N1A K1A 1_555 1_555
N2A K1A 1_555 1_555
N3A K1A 1_555 1_555
N4A K1A 1_555 1_555
N5A C31A 1_555 1_555
H25A N5A 1_555 1_555
O1A K1 1_555 1_555
O2A C25A 1_555 1_555
O3A K1A 1_555 1_555
O4A K1 1_555 1_555
C10 N2 1_555 1_555
C11 C12 1_555 1_555
C11 N2 1_555 1_555
C12 N1 1_555 1_555
C13 N3 1_555 1_555
C22 N4 1_555 1_555
C23 C24 1_555 1_555
C23 N4 1_555 1_555
C24 N3 1_555 1_555
C30 C31 1_555 1_555
C32 N5 1_555 1_555
C36 C37 1_555 1_555
C38 O3 1_555 1_555
C38 O4 1_555 1_555
O4 K1A 1_555 1_555
K1A O4A 1_555 1_555
C1A N1A 1_555 1_555
C10A N2A 1_555 1_555
C11A C12A 1_555 1_555
C11A N2A 1_555 1_555
C12A N1A 1_555 1_555
C13A N3A 1_555 1_555
C22A N4A 1_555 1_555
C23A C24A 1_555 1_555
C23A N4A 1_555 1_555
C24A N3A 1_555 1_555
C25A O1A 1_555 1_555
C30A C31A 1_555 1_555
C32A N5A 1_555 1_555
C36A C37A 1_555 1_555
C38A O3A 1_555 1_555
C38A O4A 1_555 1_555

#END
