
#######################################################################
#
#                 Cambridge Crystallographic Data Centre
#                                CCDC 
#
#######################################################################
#
# If this CIF has been generated from an entry in the Cambridge 
# Structural Database, then it will include bibliographic, chemical, 
# crystal, experimental, refinement or atomic coordinate data resulting 
# from the CCDC's data processing and validation procedures.
#
#######################################################################

data_YUDWOL
_chemical_formula_moiety         'C19 H17 Br1 Cl1 N1 O3'
_chemical_name_systematic        
6'-(4-Bromophenyl)-5-chloro-4'-hydroxy-1-methyl-3',4',5',6'-tetrahydrospiro[indole-3,2'-pyran]-2(1H)-one
_symmetry_cell_setting           triclinic
_symmetry_space_group_name_H-M   'P -1'
_symmetry_Int_Tables_number      2
_space_group_name_Hall           '-P 1'
loop_
_symmetry_equiv_pos_site_id
_symmetry_equiv_pos_as_xyz
1 x,y,z
2 -x,-y,-z
_cell_length_a                   7.6245(9)
_cell_length_b                   10.3617(12)
_cell_length_c                   11.7154(14)
_cell_angle_alpha                92.7930(16)
_cell_angle_beta                 106.4322(14)
_cell_angle_gamma                93.7434(16)
_cell_volume                     883.665
_exptl_crystal_colour            colorless
_exptl_crystal_description       plate
_cell_formula_units_Z            2
_exptl_crystal_recrystallization_method ethanol
loop_
_atom_site_label
_atom_site_type_symbol
_atom_site_fract_x
_atom_site_fract_y
_atom_site_fract_z
Br1 Br 1.34831(4) 0.21145(3) 1.03729(3)
Cl1 Cl 0.19002(9) 0.70417(7) 0.83344(7)
O1 O 0.3450(3) 0.17225(18) 0.41867(17)
O2 O 0.4893(2) 0.26915(17) 0.68495(16)
O3 O 0.2311(2) -0.02650(18) 0.53272(17)
N1 N 0.2856(3) 0.3855(2) 0.43088(19)
C1 C 0.3153(3) 0.2679(2) 0.4739(2)
C2 C 0.2103(4) 0.6750(3) 0.6069(3)
H1 H 0.1932 0.7649 0.6043
C3 C 0.3089(3) 0.2758(2) 0.6062(2)
C4 C 0.2849(4) 0.4147(3) 0.3105(2)
H2 H 0.3123 0.3377 0.2688
H3 H 0.3782 0.4858 0.3143
H4 H 0.1638 0.4404 0.2672
C5 C 0.2643(3) 0.4144(2) 0.6214(2)
C6 C 0.2299(4) 0.6051(3) 0.5067(3)
H5 H 0.2249 0.6454 0.4349
C7 C 0.2565(3) 0.4752(2) 0.5163(2)
C8 C 1.1014(4) 0.1884(3) 0.9393(2)
C9 C 1.0333(4) 0.0685(3) 0.8800(2)
C10 C 0.4284(4) 0.0466(3) 0.7317(3)
C11 C 0.7478(3) 0.1592(2) 0.7834(2)
C12 C 0.5589(3) 0.1424(2) 0.6946(2)
C13 C 0.8182(4) 0.2776(3) 0.8469(3)
C14 C 0.2434(3) 0.4819(2) 0.7194(2)
H6 H 0.2472 0.4412 0.7909
C15 C 0.1691(3) 0.1751(2) 0.6299(2)
C16 C 0.8577(4) 0.0544(3) 0.8018(2)
C17 C 0.2160(3) 0.6138(3) 0.7093(3)
C18 C 0.2360(3) 0.0397(2) 0.6435(2)
C19 C 0.9950(4) 0.2928(3) 0.9244(3)
H7 H 0.420(4) 0.069(3) 0.8104(19)
H8 H 0.460(4) -0.041(2) 0.730(3)
H9 H 0.569(4) 0.119(3) 0.615(3)
H10 H 1.039(4) 0.3752(18) 0.966(2)
H11 H 0.808(4) -0.0282(17) 0.761(2)
H12 H 1.113(3) 0.000(2) 0.890(3)
H13 H 0.748(4) 0.351(2) 0.840(3)
H14 H 0.147(4) -0.012(3) 0.671(3)
H15 H 0.145(4) 0.202(3) 0.704(2)
H16 H 0.052(3) 0.175(3) 0.569(2)
H17 H 0.281(4) 0.032(2) 0.490(2)
loop_
_geom_bond_atom_site_label_1
_geom_bond_atom_site_label_2
_geom_bond_site_symmetry_1
_geom_bond_site_symmetry_2
Br1 C8 1_555 1_555
Cl1 C17 1_555 1_555
O1 C1 1_555 1_555
O2 C3 1_555 1_555
O3 C18 1_555 1_555
N1 C1 1_555 1_555
C1 C3 1_555 1_555
C2 H1 1_555 1_555
C3 C5 1_555 1_555
C4 N1 1_555 1_555
H2 C4 1_555 1_555
H3 C4 1_555 1_555
H4 C4 1_555 1_555
C5 C7 1_555 1_555
C6 C2 1_555 1_555
H5 C6 1_555 1_555
C7 N1 1_555 1_555
C8 C9 1_555 1_555
C9 C16 1_555 1_555
C10 C12 1_555 1_555
C11 C12 1_555 1_555
C12 O2 1_555 1_555
C13 C11 1_555 1_555
C14 C5 1_555 1_555
H6 C14 1_555 1_555
C15 C3 1_555 1_555
C16 C11 1_555 1_555
C17 C2 1_555 1_555
C18 C10 1_555 1_555
C19 C8 1_555 1_555
H7 C10 1_555 1_555
H8 C10 1_555 1_555
H9 C12 1_555 1_555
H10 C19 1_555 1_555
H11 C16 1_555 1_555
H12 C9 1_555 1_555
H13 C13 1_555 1_555
H14 C18 1_555 1_555
H15 C15 1_555 1_555
H16 C15 1_555 1_555
H17 O3 1_555 1_555
C6 C7 1_555 1_555
C13 C19 1_555 1_555
C14 C17 1_555 1_555
C15 C18 1_555 1_555

#END
