
#######################################################################
#
#                 Cambridge Crystallographic Data Centre
#                                CCDC 
#
#######################################################################
#
# If this CIF has been generated from an entry in the Cambridge 
# Structural Database, then it will include bibliographic, chemical, 
# crystal, experimental, refinement or atomic coordinate data resulting 
# from the CCDC's data processing and validation procedures.
#
#######################################################################

data_YUDWUR
_chemical_formula_moiety         'C20 H20 Br1 N1 O4'
_chemical_name_systematic        
6'-(4-Bromophenyl)-4'-hydroxy-5-methoxy-1-methyl-3',4',5',6'-tetrahydrospiro[indole-3,2'-pyran]-2(1H)-one
_symmetry_cell_setting           triclinic
_symmetry_space_group_name_H-M   'P -1'
_symmetry_Int_Tables_number      2
_space_group_name_Hall           '-P 1'
loop_
_symmetry_equiv_pos_site_id
_symmetry_equiv_pos_as_xyz
1 x,y,z
2 -x,-y,-z
_cell_length_a                   7.737(2)
_cell_length_b                   10.668(3)
_cell_length_c                   11.524(3)
_cell_angle_alpha                95.567(4)
_cell_angle_beta                 108.801(4)
_cell_angle_gamma                95.300(4)
_cell_volume                     888.424
_exptl_crystal_colour            colorless
_exptl_crystal_description       prism
_cell_formula_units_Z            2
_exptl_crystal_recrystallization_method ethanol
loop_
_atom_site_label
_atom_site_type_symbol
_atom_site_fract_x
_atom_site_fract_y
_atom_site_fract_z
Br1 Br 1.37852(3) 0.76242(2) 1.03565(2)
O1 O 0.2323(2) 0.48069(15) 0.52049(15)
O2 O 0.3312(2) 0.67715(15) 0.40718(15)
O3 O 0.4960(2) 0.77972(13) 0.68793(14)
O4 O 0.1996(2) 1.16372(14) 0.83356(14)
C1 C 0.2743(3) 0.9131(2) 0.3072(2)
H1 H 0.3034 0.8380 0.2613
H2 H 0.3660 0.9886 0.3149
H3 H 0.1477 0.9316 0.2610
N1 N 0.2825(3) 0.88569(17) 0.42976(17)
C2 C 0.1743(3) 0.6786(2) 0.6245(2)
C3 C 0.2097(3) 1.1662(2) 0.6232(2)
H4 H 0.1901 1.2566 0.6237
C4 C 0.2285(3) 1.0984(2) 0.5177(2)
H5 H 0.2213 1.1395 0.4431
C5 C 0.2695(3) 0.91439(19) 0.62635(19)
C6 C 0.3112(3) 0.7714(2) 0.4693(2)
C7 C 0.2414(3) 0.5483(2) 0.6363(2)
C8 C 0.3121(3) 0.78037(19) 0.60547(19)
C9 C 0.1627(3) 1.2924(2) 0.8373(2)
H6 H 0.0468 1.2987 0.7686
H7 H 0.2675 1.3476 0.8275
H8 H 0.1481 1.3210 0.9185
C10 C 0.2570(3) 0.9734(2) 0.52166(19)
C11 C 1.0190(3) 0.8275(2) 0.9265(2)
H9 H 1.0740 0.9142 0.9686
C12 C 0.7578(3) 0.6828(2) 0.78778(19)
C13 C 0.4365(3) 0.5623(2) 0.7297(2)
C14 C 0.2516(3) 0.9793(2) 0.7299(2)
H10 H 0.2617 0.9377 0.8046
C15 C 0.8357(3) 0.8041(2) 0.8495(2)
H11 H 0.7597 0.8746 0.8385
C16 C 1.0460(3) 0.6049(2) 0.8889(2)
H12 H 1.1198 0.5336 0.9058
C17 C 0.8646(3) 0.5829(2) 0.8105(2)
H13 H 0.8099 0.4956 0.7700
C18 C 0.5646(3) 0.65784(19) 0.6950(2)
C19 C 1.1232(3) 0.7278(2) 0.94340(19)
C20 C 0.2186(3) 1.1066(2) 0.7269(2)
H14 H 0.159(3) 0.500(2) 0.670(2)
H15 H 0.055(2) 0.670(2) 0.5578(17)
H16 H 0.441(4) 0.596(2) 0.8135(12)
H17 H 0.159(3) 0.711(2) 0.7028(14)
H18 H 0.488(3) 0.4813(14) 0.728(2)
H19 H 0.274(4) 0.534(2) 0.473(2)
H20 H 0.573(4) 0.628(2) 0.6136(14)
loop_
_geom_bond_atom_site_label_1
_geom_bond_atom_site_label_2
_geom_bond_site_symmetry_1
_geom_bond_site_symmetry_2
Br1 C19 1_555 1_555
O1 C7 1_555 1_555
O2 C6 1_555 1_555
O3 C8 1_555 1_555
O4 C9 1_555 1_555
C1 H1 1_555 1_555
H2 C1 1_555 1_555
H3 C1 1_555 1_555
N1 C1 1_555 1_555
C2 C7 1_555 1_555
C3 H4 1_555 1_555
C4 C3 1_555 1_555
H5 C4 1_555 1_555
C5 C8 1_555 1_555
C6 N1 1_555 1_555
C7 C13 1_555 1_555
C8 C2 1_555 1_555
C9 H6 1_555 1_555
H7 C9 1_555 1_555
H8 C9 1_555 1_555
C10 N1 1_555 1_555
C11 H9 1_555 1_555
C12 C15 1_555 1_555
C13 C18 1_555 1_555
C14 C5 1_555 1_555
H10 C14 1_555 1_555
C15 C11 1_555 1_555
H11 C15 1_555 1_555
C16 H12 1_555 1_555
C17 C12 1_555 1_555
H13 C17 1_555 1_555
C18 O3 1_555 1_555
C19 C11 1_555 1_555
C20 O4 1_555 1_555
H14 C7 1_555 1_555
H15 C2 1_555 1_555
H16 C13 1_555 1_555
H17 C2 1_555 1_555
H18 C13 1_555 1_555
H19 O1 1_555 1_555
H20 C18 1_555 1_555
C3 C20 1_555 1_555
C4 C10 1_555 1_555
C5 C10 1_555 1_555
C6 C8 1_555 1_555
C12 C18 1_555 1_555
C14 C20 1_555 1_555
C16 C17 1_555 1_555
C16 C19 1_555 1_555

#END
