
#######################################################################
#
#                 Cambridge Crystallographic Data Centre
#                                CCDC 
#
#######################################################################
#
# If this CIF has been generated from an entry in the Cambridge 
# Structural Database, then it will include bibliographic, chemical, 
# crystal, experimental, refinement or atomic coordinate data resulting 
# from the CCDC's data processing and validation procedures.
#
#######################################################################

data_YUFHUE
_chemical_formula_moiety         'C12 H22 O2'
_chemical_name_systematic        '(E)-dodec-2-enoic acid'
_symmetry_cell_setting           triclinic
_symmetry_space_group_name_H-M   'P -1'
_symmetry_Int_Tables_number      2
_space_group_name_Hall           '-P 1'
loop_
_symmetry_equiv_pos_site_id
_symmetry_equiv_pos_as_xyz
1 x,y,z
2 -x,-y,-z
_cell_length_a                   4.6475(2)
_cell_length_b                   5.4169(2)
_cell_length_c                   24.7041(10)
_cell_angle_alpha                91.547(2)
_cell_angle_beta                 91.788(2)
_cell_angle_gamma                102.3158(19)
_cell_volume                     606.958
_exptl_crystal_colour            colorless
_exptl_crystal_description       plate
_cell_formula_units_Z            2
loop_
_atom_site_label
_atom_site_type_symbol
_atom_site_fract_x
_atom_site_fract_y
_atom_site_fract_z
C1 C 0.7187(3) 1.2963(3) 0.03952(6)
C2 C 0.8819(3) 1.1356(3) 0.06965(6)
H1 H 0.9763 1.0250 0.0497
C3 C 0.9029(3) 1.1384(3) 0.12290(6)
H2 H 0.8092 1.2517 0.1421
C4 C 1.0622(4) 0.9777(3) 0.15566(7)
H3 H 1.2230 1.0881 0.1778
H4 H 1.1523 0.8714 0.1309
C5 C 0.8573(3) 0.8076(3) 0.19299(6)
H5 H 0.7510 0.9129 0.2148
H6 H 0.7090 0.6858 0.1706
C6 C 1.0184(3) 0.6615(3) 0.23115(6)
H7 H 1.1303 0.5606 0.2094
H8 H 1.1618 0.7832 0.2545
C7 C 0.8121(4) 0.4855(3) 0.26692(6)
H9 H 0.6701 0.3631 0.2435
H10 H 0.6985 0.5865 0.2882
C8 C 0.9696(4) 0.3400(3) 0.30579(6)
H11 H 1.0830 0.2386 0.2846
H12 H 1.1115 0.4622 0.3293
C9 C 0.7607(4) 0.1648(3) 0.34138(7)
H13 H 0.6186 0.0429 0.3178
H14 H 0.6474 0.2664 0.3626
C10 C 0.9160(4) 0.0181(3) 0.38039(7)
H15 H 1.0257 -0.0866 0.3592
H16 H 1.0612 0.1398 0.4035
C11 C 0.7074(4) -0.1519(4) 0.41657(8)
H17 H 0.5556 -0.2675 0.3936
H18 H 0.6057 -0.0462 0.4393
C12 C 0.8622(5) -0.3083(4) 0.45332(8)
H19 H 0.9605 -0.4159 0.4311
H20 H 0.7169 -0.4145 0.4755
H21 H 1.0089 -0.1952 0.4770
O1 O 0.5999(3) 1.4499(2) 0.06736(5)
H22 H 0.5041 1.5251 0.0464
O2 O 0.7029(3) 1.2789(2) -0.01126(4)
loop_
_geom_bond_atom_site_label_1
_geom_bond_atom_site_label_2
_geom_bond_site_symmetry_1
_geom_bond_site_symmetry_2
C1 C2 1_555 1_555
C2 H1 1_555 1_555
C3 C2 1_555 1_555
H2 C3 1_555 1_555
C4 C3 1_555 1_555
H3 C4 1_555 1_555
H4 C4 1_555 1_555
C5 C4 1_555 1_555
H5 C5 1_555 1_555
H6 C5 1_555 1_555
C6 C5 1_555 1_555
H7 C6 1_555 1_555
H8 C6 1_555 1_555
C7 C6 1_555 1_555
H9 C7 1_555 1_555
H10 C7 1_555 1_555
C8 C7 1_555 1_555
H11 C8 1_555 1_555
H12 C8 1_555 1_555
C9 C8 1_555 1_555
H13 C9 1_555 1_555
H14 C9 1_555 1_555
C10 C9 1_555 1_555
H15 C10 1_555 1_555
H16 C10 1_555 1_555
C11 C10 1_555 1_555
H17 C11 1_555 1_555
H18 C11 1_555 1_555
C12 C11 1_555 1_555
H19 C12 1_555 1_555
H20 C12 1_555 1_555
H21 C12 1_555 1_555
O1 C1 1_555 1_555
H22 O1 1_555 1_555
O2 C1 1_555 1_555

#END
