
#######################################################################
#
#                 Cambridge Crystallographic Data Centre
#                                CCDC 
#
#######################################################################
#
# If this CIF has been generated from an entry in the Cambridge 
# Structural Database, then it will include bibliographic, chemical, 
# crystal, experimental, refinement or atomic coordinate data resulting 
# from the CCDC's data processing and validation procedures.
#
#######################################################################

data_YUFQOH01
_chemical_name_common            "quercetin sesquikis(4,4'-bipyridine)"
_chemical_formula_moiety         'C15 H10 O7,1.5(C10 H8 N2)'
_chemical_name_systematic        
"2-(3,4-dihydroxyphenyl)-3,5,7-trihydroxy-4H-chromen-4-one sesquikis(4,4'-bipyridine)"
_chemical_properties_biological  
'antibacterial properties against S. aureus and E. coli'
_symmetry_cell_setting           triclinic
_symmetry_space_group_name_H-M   'P -1'
_symmetry_Int_Tables_number      2
_space_group_name_Hall           '-P 1'
loop_
_symmetry_equiv_pos_site_id
_symmetry_equiv_pos_as_xyz
1 x,y,z
2 -x,-y,-z
_cell_length_a                   9.8554(6)
_cell_length_b                   10.8071(10)
_cell_length_c                   13.0414(9)
_cell_angle_alpha                99.877(7)
_cell_angle_beta                 94.907(5)
_cell_angle_gamma                106.385(6)
_cell_volume                     1299.61
_exptl_crystal_colour            yellow
_exptl_crystal_description       cuboid
_cell_formula_units_Z            2
loop_
_atom_site_label
_atom_site_type_symbol
_atom_site_fract_x
_atom_site_fract_y
_atom_site_fract_z
C1 C 0.8076(5) 0.4876(6) 0.5267(5)
H1 H 0.8966 0.5338 0.5655
C2 C 0.6953(4) 0.5359(4) 0.5456(4)
H2 H 0.7109 0.6121 0.5963
C3 C 0.6703(5) 0.3192(5) 0.4047(4)
H3 H 0.6581 0.2418 0.3560
C4 C 0.5521(4) 0.3635(5) 0.4175(4)
H4 H 0.4653 0.3177 0.3755
N1 N 0.7979(4) 0.3803(5) 0.4574(4)
C5 C 0.5620(3) 0.4749(4) 0.4918(3)
C1A C 0.1924(5) 0.5124(6) 0.4733(5)
H1A H 0.1034 0.4662 0.4345
C2A C 0.3047(4) 0.4641(4) 0.4544(4)
H2A H 0.2891 0.3879 0.4037
C3A C 0.3297(5) 0.6808(5) 0.5953(4)
H3A H 0.3419 0.7582 0.6440
C4A C 0.4479(4) 0.6365(5) 0.5825(4)
H4A H 0.5347 0.6823 0.6245
N1A N 0.2021(4) 0.6197(5) 0.5426(4)
C5A C 0.4380(3) 0.5251(4) 0.5082(3)
C6 C 0.6057(3) 0.3528(3) 0.7912(3)
H5 H 0.5883 0.2726 0.7447
C7 C 0.5000(3) 0.4142(3) 0.7916(2)
H6 H 0.4149 0.3757 0.7459
C8 C 0.3271(3) 0.7818(3) 0.9331(3)
H7 H 0.3485 0.8658 0.9745
C9 C 0.2707(2) 0.5395(3) 0.8170(2)
H8 H 0.2460 0.4554 0.7753
C10 C 0.5210(2) 0.5319(2) 0.85951(17)
C11 C 0.1690(3) 0.6039(3) 0.8292(2)
H9 H 0.0764 0.5602 0.7957
C12 C 0.4085(2) 0.5991(2) 0.86629(17)
C13 C 0.6527(2) 0.5849(3) 0.92075(19)
H10 H 0.6745 0.6664 0.9661
C14 C 0.7521(2) 0.5173(3) 0.9149(2)
H11 H 0.8401 0.5559 0.9572
N2 N 0.7303(2) 0.4013(2) 0.85316(17)
N3 N 0.1951(2) 0.7238(2) 0.88550(15)
C15 C 0.4354(3) 0.7241(3) 0.9248(3)
H12 H 0.5271 0.7702 0.9590
C16 C -0.0142(2) 0.2487(2) 0.79462(14)
O1 O 0.14287(15) 0.16318(17) 0.89322(10)
H13 H 0.0871 0.1696 0.9356
O2 O -0.06368(16) 0.28356(18) 0.88546(10)
H14 H -0.1264 0.3177 0.8740
C17 C 0.04449(19) 0.1635(2) 0.25460(14)
H15 H -0.0272 0.2017 0.2686
C18 C 0.23152(19) 0.0750(2) 0.31625(14)
C19 C 0.12094(19) 0.1300(2) 0.33347(14)
C20 C 0.0785(2) 0.1380(2) 0.15367(14)
C21 C 0.1865(2) 0.0806(2) 0.13211(15)
H16 H 0.2066 0.0633 0.0637
C22 C 0.09240(19) 0.1871(2) 0.80008(14)
C23 C 0.2622(2) 0.0498(2) 0.21153(15)
C24 C 0.15925(19) 0.1337(2) 0.51791(14)
C25 C 0.2689(2) 0.0820(2) 0.50512(15)
O3 O 0.00983(15) 0.16695(18) 0.07141(10)
H17 H -0.0545 0.1955 0.0908
C26 C 0.10206(19) 0.1732(2) 0.61397(14)
O4 O 0.08537(13) 0.15540(15) 0.43183(9)
O5 O 0.40842(16) -0.00357(19) 0.39214(11)
C27 C 0.3080(2) 0.0466(2) 0.40271(15)
O6 O 0.34481(18) 0.0612(2) 0.58853(11)
H18 H 0.4162 0.0440 0.5704
C28 C -0.0052(2) 0.2337(2) 0.60941(15)
H19 H -0.0389 0.2492 0.5455
C29 C -0.0621(2) 0.2711(2) 0.69866(15)
H20 H -0.1333 0.3118 0.6942
O7 O 0.36777(16) -0.00415(19) 0.19051(11)
H21 H 0.4041 -0.0172 0.2450
C30 C 0.14961(19) 0.1498(2) 0.71133(14)
H22 H 0.2205 0.1088 0.7160
loop_
_geom_bond_atom_site_label_1
_geom_bond_atom_site_label_2
_geom_bond_site_symmetry_1
_geom_bond_site_symmetry_2
C1 H1 1_555 1_555
C2 C1 1_555 1_555
H2 C2 1_555 1_555
C3 H3 1_555 1_555
C4 C3 1_555 1_555
H4 C4 1_555 1_555
N1 C1 1_555 1_555
C5 C2 1_555 1_555
C6 H5 1_555 1_555
C7 C6 1_555 1_555
H6 C7 1_555 1_555
C8 H7 1_555 1_555
C9 H8 1_555 1_555
C10 C7 1_555 1_555
C11 C9 1_555 1_555
H9 C11 1_555 1_555
C12 C9 1_555 1_555
C13 C10 1_555 1_555
H10 C13 1_555 1_555
C14 C13 1_555 1_555
H11 C14 1_555 1_555
N2 C6 1_555 1_555
N3 C8 1_555 1_555
C15 C8 1_555 1_555
H12 C15 1_555 1_555
C16 O2 1_555 1_555
O1 H13 1_555 1_555
O2 H14 1_555 1_555
C17 H15 1_555 1_555
C18 C19 1_555 1_555
C19 C17 1_555 1_555
C20 C17 1_555 1_555
C21 C20 1_555 1_555
H16 C21 1_555 1_555
C22 C16 1_555 1_555
C23 C18 1_555 1_555
C24 C25 1_555 1_555
C25 C27 1_555 1_555
O3 C20 1_555 1_555
H17 O3 1_555 1_555
C26 C24 1_555 1_555
O4 C19 1_555 1_555
O5 C27 1_555 1_555
C27 C18 1_555 1_555
O6 C25 1_555 1_555
H18 O6 1_555 1_555
C28 C26 1_555 1_555
H19 C28 1_555 1_555
C29 C16 1_555 1_555
H20 C29 1_555 1_555
O7 C23 1_555 1_555
H21 O7 1_555 1_555
C30 C22 1_555 1_555
H22 C30 1_555 1_555
C1A H1A 1_555 1_555
C2A C1A 1_555 1_555
H2A C2A 1_555 1_555
C3A H3A 1_555 1_555
C4A C3A 1_555 1_555
H4A C4A 1_555 1_555
N1A C1A 1_555 1_555
C5A C5 1_555 1_555
C3 N1 1_555 1_555
C4 C5 1_555 1_555
C10 C12 1_555 1_555
C11 N3 1_555 1_555
C12 C15 1_555 1_555
C14 N2 1_555 1_555
O1 C22 1_555 1_555
C21 C23 1_555 1_555
C24 O4 1_555 1_555
C26 C30 1_555 1_555
C28 C29 1_555 1_555
C2A C5A 1_555 1_555
C3A N1A 1_555 1_555
C4A C5A 1_555 1_555

#END
