
#######################################################################
#
#                 Cambridge Crystallographic Data Centre
#                                CCDC 
#
#######################################################################
#
# If this CIF has been generated from an entry in the Cambridge 
# Structural Database, then it will include bibliographic, chemical, 
# crystal, experimental, refinement or atomic coordinate data resulting 
# from the CCDC's data processing and validation procedures.
#
#######################################################################

data_YUFVUS
_chemical_formula_moiety         'C21 H17 Br1 F3 N1 O2'
_chemical_name_systematic        
1-(3a-(1-(4-bromophenyl)prop-2-en-1-yl)-2,3,3a,8a-tetrahydro-8H-furo[2,3-b]indol-8-yl)-2,2,2-trifluoroethanone
_symmetry_cell_setting           orthorhombic
_symmetry_space_group_name_H-M   'P 21 21 21'
_symmetry_Int_Tables_number      19
_space_group_name_Hall           'P 2ac 2ab'
loop_
_symmetry_equiv_pos_site_id
_symmetry_equiv_pos_as_xyz
1 x,y,z
2 1/2-x,-y,1/2+z
3 -x,1/2+y,1/2-z
4 1/2+x,1/2-y,-z
_cell_length_a                   9.1964(10)
_cell_length_b                   13.4028(16)
_cell_length_c                   15.6110(17)
_cell_angle_alpha                90
_cell_angle_beta                 90
_cell_angle_gamma                90
_cell_volume                     1924.17
_exptl_crystal_colour            colorless
_exptl_crystal_description       prismatic
_cell_formula_units_Z            4
loop_
_atom_site_label
_atom_site_type_symbol
_atom_site_fract_x
_atom_site_fract_y
_atom_site_fract_z
Br1 Br 0.82869(7) 0.21879(4) -0.00335(4)
F1 F 0.5221(3) 0.6041(2) -0.19030(14)
F2 F 0.7019(3) 0.5876(2) -0.10502(16)
F3 F 0.5964(3) 0.7285(2) -0.11745(16)
N1 N 0.4979(3) 0.6320(2) 0.0365(2)
O1 O 0.5683(4) 0.8019(2) 0.04892(17)
O2 O 0.3704(4) 0.5432(3) -0.0615(2)
C1 C 0.4932(4) 0.6365(3) 0.1832(2)
C2 C 0.4319(5) 0.6214(3) 0.2633(3)
H1 H 0.4789 0.6436 0.3125
C3 C 0.2981(6) 0.5722(3) 0.2689(3)
H2 H 0.2551 0.5618 0.3221
C4 C 0.2307(5) 0.5396(4) 0.1961(4)
H3 H 0.1425 0.5062 0.2011
C5 C 0.2878(5) 0.5541(3) 0.1162(3)
H4 H 0.2406 0.5315 0.0672
C6 C 0.4191(4) 0.6041(3) 0.1118(3)
C7 C 0.6130(4) 0.7028(3) 0.0620(2)
H5 H 0.7033 0.6890 0.0308
C8 C 0.5459(5) 0.8494(3) 0.1301(3)
H6 H 0.4448 0.8448 0.1472
H7 H 0.5732 0.9193 0.1273
C9 C 0.6412(4) 0.7944(3) 0.1920(2)
H8 H 0.6037 0.7990 0.2499
H9 H 0.7399 0.8199 0.1909
C10 C 0.6348(4) 0.6874(3) 0.1589(2)
C11 C 0.7746(4) 0.6275(3) 0.1797(2)
H10 H 0.8562 0.6673 0.1582
C12 C 0.7971(5) 0.6175(3) 0.2742(3)
H11 H 0.7320 0.5778 0.3045
C13 C 0.9016(6) 0.6605(4) 0.3171(3)
H12 H 0.9686 0.7007 0.2889
H13 H 0.9090 0.6509 0.3760
C14 C 0.4699(5) 0.5987(3) -0.0440(3)
C15 C 0.5728(5) 0.6309(4) -0.1150(3)
C16 C 0.7829(4) 0.5270(3) 0.1341(2)
C17 C 0.8819(5) 0.5126(3) 0.0701(3)
H14 H 0.9411 0.5658 0.0542
C18 C 0.8983(5) 0.4221(4) 0.0276(2)
H15 H 0.9670 0.4142 -0.0155
C19 C 0.8091(6) 0.3447(3) 0.0517(3)
C20 C 0.7090(5) 0.3565(3) 0.1159(3)
H16 H 0.6497 0.3034 0.1318
C21 C 0.6967(5) 0.4470(3) 0.1567(3)
H17 H 0.6289 0.4544 0.2005
loop_
_geom_bond_atom_site_label_1
_geom_bond_atom_site_label_2
_geom_bond_site_symmetry_1
_geom_bond_site_symmetry_2
Br1 C19 1_555 1_555
F1 C15 1_555 1_555
F2 C15 1_555 1_555
F3 C15 1_555 1_555
N1 C6 1_555 1_555
O1 C7 1_555 1_555
O2 C14 1_555 1_555
C1 C2 1_555 1_555
C2 H1 1_555 1_555
C3 C2 1_555 1_555
H2 C3 1_555 1_555
C4 C3 1_555 1_555
H3 C4 1_555 1_555
C5 C4 1_555 1_555
H4 C5 1_555 1_555
C6 C1 1_555 1_555
C7 N1 1_555 1_555
H5 C7 1_555 1_555
C8 O1 1_555 1_555
H6 C8 1_555 1_555
H7 C8 1_555 1_555
C9 C8 1_555 1_555
H8 C9 1_555 1_555
H9 C9 1_555 1_555
C10 C1 1_555 1_555
C11 C10 1_555 1_555
H10 C11 1_555 1_555
C12 C11 1_555 1_555
H11 C12 1_555 1_555
C13 C12 1_555 1_555
H12 C13 1_555 1_555
H13 C13 1_555 1_555
C14 N1 1_555 1_555
C15 C14 1_555 1_555
C16 C11 1_555 1_555
C17 C16 1_555 1_555
H14 C17 1_555 1_555
C18 C17 1_555 1_555
H15 C18 1_555 1_555
C19 C18 1_555 1_555
C20 C19 1_555 1_555
H16 C20 1_555 1_555
C21 C16 1_555 1_555
H17 C21 1_555 1_555
C5 C6 1_555 1_555
C7 C10 1_555 1_555
C9 C10 1_555 1_555
C20 C21 1_555 1_555

#END
