
#######################################################################
#
#                 Cambridge Crystallographic Data Centre
#                                CCDC 
#
#######################################################################
#
# If this CIF has been generated from an entry in the Cambridge 
# Structural Database, then it will include bibliographic, chemical, 
# crystal, experimental, refinement or atomic coordinate data resulting 
# from the CCDC's data processing and validation procedures.
#
#######################################################################

data_YUFZAA
_chemical_formula_moiety         'C10 H14 O1 S2'
_chemical_name_systematic        
(1,3-Dithiopropylene)methylenecyclohexan-2-one
_symmetry_cell_setting           orthorhombic
_symmetry_space_group_name_H-M   'P 21 21 21'
_symmetry_Int_Tables_number      19
_space_group_name_Hall           'P 2ac 2ab'
loop_
_symmetry_equiv_pos_site_id
_symmetry_equiv_pos_as_xyz
1 x,y,z
2 1/2-x,-y,1/2+z
3 1/2+x,1/2-y,-z
4 -x,1/2+y,1/2-z
_cell_length_a                   6.443(3)
_cell_length_b                   8.980(4)
_cell_length_c                   18.213(7)
_cell_angle_alpha                90
_cell_angle_beta                 90
_cell_angle_gamma                90
_cell_volume                     1053.77
_cell_formula_units_Z            4
loop_
_atom_site_label
_atom_site_type_symbol
_atom_site_fract_x
_atom_site_fract_y
_atom_site_fract_z
S1 S 0.3544(1) 0.3709(1) 0.1957(1)
S2 S -0.0466(2) 0.2006(1) 0.1830(1)
O1 O 0.3535(4) 0.5734(3) 0.0880(1)
C1 C 0.1234(5) 0.3369(4) 0.1468(2)
C2 C -0.0018(7) 0.2269(4) 0.2803(2)
C3 C 0.2106(7) 0.1755(5) 0.3052(2)
C4 C 0.3770(6) 0.2033(4) 0.2494(2)
C5 C 0.0707(6) 0.4059(4) 0.0830(2)
C6 C 0.2089(7) 0.5210(4) 0.0525(2)
C7 C 0.1669(7) 0.5804(4) -0.0237(2)
C8 C -0.0055(8) 0.5050(5) -0.0661(2)
C9 C -0.1875(7) 0.4734(5) -0.0176(2)
C10 C -0.1289(6) 0.3656(4) 0.0429(2)
loop_
_geom_bond_atom_site_label_1
_geom_bond_atom_site_label_2
_geom_bond_site_symmetry_1
_geom_bond_site_symmetry_2
S1 C1 1_555 1_555
S2 C1 1_555 1_555
O1 C6 1_555 1_555
C1 C5 1_555 1_555
C2 S2 1_555 1_555
C3 C2 1_555 1_555
C4 S1 1_555 1_555
C5 C6 1_555 1_555
C6 C7 1_555 1_555
C7 C8 1_555 1_555
C8 C9 1_555 1_555
C9 C10 1_555 1_555
C10 C5 1_555 1_555
C3 C4 1_555 1_555

#END
