
#######################################################################
#
#                 Cambridge Crystallographic Data Centre
#                                CCDC 
#
#######################################################################
#
# If this CIF has been generated from an entry in the Cambridge 
# Structural Database, then it will include bibliographic, chemical, 
# crystal, experimental, refinement or atomic coordinate data resulting 
# from the CCDC's data processing and validation procedures.
#
#######################################################################

data_YUFZAB
_chemical_formula_moiety         'C31 H40 N4 O2'
_chemical_name_systematic        
1-(2-pyridyl)-2-(2,6-diisopropylphenyl)-2-((2,6-diisopropylphenyl)carbamoyl)urea
_symmetry_cell_setting           monoclinic
_symmetry_space_group_name_H-M   'P 21/n'
_symmetry_Int_Tables_number      14
_space_group_name_Hall           '-P 2yn'
loop_
_symmetry_equiv_pos_site_id
_symmetry_equiv_pos_as_xyz
1 x,y,z
2 1/2-x,1/2+y,1/2-z
3 -x,-y,-z
4 1/2+x,1/2-y,1/2+z
_cell_length_a                   9.010(3)
_cell_length_b                   35.705(11)
_cell_length_c                   9.730(3)
_cell_angle_alpha                90
_cell_angle_beta                 109.797(5)
_cell_angle_gamma                90
_cell_volume                     2945.16
_exptl_crystal_colour            colorless
_exptl_crystal_description       prism
_cell_formula_units_Z            4
loop_
_atom_site_label
_atom_site_type_symbol
_atom_site_fract_x
_atom_site_fract_y
_atom_site_fract_z
N1 N 0.0612(3) 0.05369(7) -0.2951(3)
N2 N 0.2032(3) 0.09058(6) -0.1076(3)
H1 H 0.261(3) 0.0710(6) -0.090(3)
N3 N 0.3738(2) 0.11569(6) 0.1075(2)
N4 N 0.3404(3) 0.17349(7) 0.2086(3)
H2 H 0.265(3) 0.1748(7) 0.124(2)
O1 O 0.1645(2) 0.14929(5) -0.0433(2)
O2 O 0.5543(2) 0.13717(5) 0.3166(2)
C1 C -0.0602(5) 0.04842(11) -0.4208(4)
H3 H -0.0710 0.0249 -0.4638
C2 C -0.1667(4) 0.07480(12) -0.4885(4)
H4 H -0.2482 0.0696 -0.5751
C3 C -0.1515(4) 0.10879(10) -0.4270(4)
H5 H -0.2229 0.1277 -0.4707
C4 C -0.0302(4) 0.11557(9) -0.2995(3)
H6 H -0.0181 0.1390 -0.2557
C5 C 0.0728(3) 0.08720(8) -0.2375(3)
C6 C 0.2410(3) 0.12050(8) -0.0167(3)
C7 C 0.4567(3) 0.08029(7) 0.1350(3)
C8 C 0.4082(3) 0.05287(8) 0.2121(3)
C9 C 0.4889(4) 0.01917(8) 0.2383(4)
H7 H 0.4574 0.0002 0.2879
C10 C 0.6140(5) 0.01345(10) 0.1923(4)
H8 H 0.6677 -0.0092 0.2121
C11 C 0.6613(4) 0.04051(10) 0.1178(4)
H9 H 0.7469 0.0361 0.0872
C12 C 0.5830(4) 0.07489(8) 0.0865(3)
C13 C 0.2725(4) 0.05855(9) 0.2682(4)
H10 H 0.2343 0.0843 0.2444
C14 C 0.1352(5) 0.03205(11) 0.1925(5)
H11 H 0.1035 0.0354 0.0887
H12 H 0.0480 0.0376 0.2248
H13 H 0.1683 0.0066 0.2168
C15 C 0.3253(5) 0.05426(11) 0.4339(4)
H14 H 0.4100 0.0714 0.4789
H15 H 0.3608 0.0291 0.4603
H16 H 0.2384 0.0596 0.4667
C16 C 0.6378(4) 0.10460(9) 0.0035(4)
H17 H 0.5590 0.1247 -0.0217
C17 C 0.6509(6) 0.08929(12) -0.1396(5)
H18 H 0.5511 0.0790 -0.1985
H19 H 0.7299 0.0700 -0.1178
H20 H 0.6798 0.1092 -0.1918
C18 C 0.7948(5) 0.12155(11) 0.1002(5)
H21 H 0.7835 0.1311 0.1883
H22 H 0.8242 0.1416 0.0486
H23 H 0.8751 0.1026 0.1241
C19 C 0.4318(4) 0.14331(8) 0.2202(3)
C20 C 0.3833(3) 0.20514(8) 0.3052(4)
C21 C 0.4110(4) 0.23875(9) 0.2481(4)
C22 C 0.4480(5) 0.26992(10) 0.3410(6)
H24 H 0.4672 0.2929 0.3056
C23 C 0.4558(5) 0.26676(13) 0.4814(6)
H25 H 0.4827 0.2876 0.5423
C24 C 0.4250(5) 0.23368(13) 0.5353(5)
H26 H 0.4302 0.2323 0.6322
C25 C 0.3856(4) 0.20171(10) 0.4475(5)
C26 C 0.4034(5) 0.24150(10) 0.0899(5)
H27 H 0.3245 0.2232 0.0351
C27 C 0.5578(6) 0.22913(13) 0.0782(5)
H28 H 0.5524 0.2304 -0.0220
H29 H 0.5794 0.2038 0.1126
H30 H 0.6406 0.2452 0.1364
C28 C 0.3498(5) 0.27937(12) 0.0183(5)
H31 H 0.3466 0.2786 -0.0813
H32 H 0.4226 0.2984 0.0702
H33 H 0.2466 0.2850 0.0209
C29 C 0.3360(6) 0.16577(11) 0.5023(5)
H34 H 0.3913 0.1451 0.4744
C30 C 0.1572(6) 0.15900(12) 0.4289(6)
H35 H 0.1286 0.1359 0.4640
H36 H 0.1319 0.1576 0.3250
H37 H 0.0998 0.1793 0.4522
C31 C 0.3758(7) 0.16422(14) 0.6651(5)
H38 H 0.4871 0.1681 0.7119
H39 H 0.3470 0.1402 0.6923
H40 H 0.3189 0.1834 0.6952
loop_
_geom_bond_atom_site_label_1
_geom_bond_atom_site_label_2
_geom_bond_site_symmetry_1
_geom_bond_site_symmetry_2
N1 C1 1_555 1_555
N2 H1 1_555 1_555
N3 C6 1_555 1_555
N4 H2 1_555 1_555
O1 C6 1_555 1_555
O2 C19 1_555 1_555
C1 H3 1_555 1_555
C2 C1 1_555 1_555
H4 C2 1_555 1_555
C3 C2 1_555 1_555
H5 C3 1_555 1_555
C4 C3 1_555 1_555
H6 C4 1_555 1_555
C5 N1 1_555 1_555
C6 N2 1_555 1_555
C7 N3 1_555 1_555
C8 C7 1_555 1_555
C9 C8 1_555 1_555
H7 C9 1_555 1_555
C10 C9 1_555 1_555
H8 C10 1_555 1_555
C11 C10 1_555 1_555
H9 C11 1_555 1_555
C12 C7 1_555 1_555
C13 C8 1_555 1_555
H10 C13 1_555 1_555
C14 C13 1_555 1_555
H11 C14 1_555 1_555
H12 C14 1_555 1_555
H13 C14 1_555 1_555
C15 C13 1_555 1_555
H14 C15 1_555 1_555
H15 C15 1_555 1_555
H16 C15 1_555 1_555
C16 C12 1_555 1_555
H17 C16 1_555 1_555
C17 C16 1_555 1_555
H18 C17 1_555 1_555
H19 C17 1_555 1_555
H20 C17 1_555 1_555
C18 C16 1_555 1_555
H21 C18 1_555 1_555
H22 C18 1_555 1_555
H23 C18 1_555 1_555
C19 N3 1_555 1_555
C20 N4 1_555 1_555
C21 C20 1_555 1_555
C22 C21 1_555 1_555
H24 C22 1_555 1_555
C23 C22 1_555 1_555
H25 C23 1_555 1_555
C24 C23 1_555 1_555
H26 C24 1_555 1_555
C25 C20 1_555 1_555
C26 C21 1_555 1_555
H27 C26 1_555 1_555
C27 C26 1_555 1_555
H28 C27 1_555 1_555
H29 C27 1_555 1_555
H30 C27 1_555 1_555
C28 C26 1_555 1_555
H31 C28 1_555 1_555
H32 C28 1_555 1_555
H33 C28 1_555 1_555
C29 C25 1_555 1_555
H34 C29 1_555 1_555
C30 C29 1_555 1_555
H35 C30 1_555 1_555
H36 C30 1_555 1_555
H37 C30 1_555 1_555
C31 C29 1_555 1_555
H38 C31 1_555 1_555
H39 C31 1_555 1_555
H40 C31 1_555 1_555
N2 C5 1_555 1_555
N4 C19 1_555 1_555
C4 C5 1_555 1_555
C11 C12 1_555 1_555
C24 C25 1_555 1_555

#END
