
#######################################################################
#
#                 Cambridge Crystallographic Data Centre
#                                CCDC 
#
#######################################################################
#
# If this CIF has been generated from an entry in the Cambridge 
# Structural Database, then it will include bibliographic, chemical, 
# crystal, experimental, refinement or atomic coordinate data resulting 
# from the CCDC's data processing and validation procedures.
#
#######################################################################

data_YUGDOV
_chemical_formula_moiety         'C56 H32 N6'
_chemical_name_systematic        
(4s,6s)-2,4,5,6-tetrakis(9H-Carbazol-9-yl)isophthalonitrile
_symmetry_cell_setting           triclinic
_symmetry_space_group_name_H-M   'P -1'
_symmetry_Int_Tables_number      2
_space_group_name_Hall           '-P 1'
loop_
_symmetry_equiv_pos_site_id
_symmetry_equiv_pos_as_xyz
1 x,y,z
2 -x,-y,-z
_cell_length_a                   9.0000(18)
_cell_length_b                   19.580(4)
_cell_length_c                   23.930(5)
_cell_angle_alpha                77.99(3)
_cell_angle_beta                 83.67(3)
_cell_angle_gamma                89.86(3)
_cell_volume                     4098.58
_exptl_crystal_colour            yellow
_exptl_crystal_description       block
_cell_formula_units_Z            4
_exptl_crystal_recrystallization_method Sublimation
_exptl_crystal_preparation       Luminescent
loop_
_atom_site_label
_atom_site_type_symbol
_atom_site_fract_x
_atom_site_fract_y
_atom_site_fract_z
N1 N 0.5657(5) 0.6123(2) 0.20429(18)
N2 N 0.8881(4) 0.43522(19) 0.43872(17)
N3 N 0.6736(4) 0.54805(16) 0.34126(15)
N4 N 0.8621(4) 0.51846(16) 0.15144(14)
N5 N 1.0500(3) 0.41039(16) 0.19933(14)
N6 N 1.0422(4) 0.37184(16) 0.32157(14)
C1 C 0.8588(4) 0.46059(19) 0.33007(17)
C2 C 0.7668(4) 0.51306(19) 0.30637(18)
C3 C 1.0497(4) 0.3385(2) 0.20073(18)
C4 C 0.9553(4) 0.44464(19) 0.23503(17)
C5 C 0.4942(4) 0.5682(2) 0.41062(17)
C6 C 0.8726(4) 0.4464(2) 0.3911(2)
C7 C 0.8657(4) 0.4985(2) 0.21104(17)
C8 C 1.1965(5) 0.3646(2) 0.30863(18)
C9 C 0.5603(4) 0.5164(2) 0.38442(17)
C10 C 0.6769(4) 0.61956(19) 0.34015(18)
C11 C 1.2462(5) 0.3894(2) 0.13691(19)
C12 C 0.5092(5) 0.4475(2) 0.39904(18)
H1 H 0.5537 0.4136 0.3811
C13 C 1.1675(5) 0.3240(2) 0.16189(19)
C14 C 1.1698(4) 0.4419(2) 0.15994(17)
C15 C 0.7688(5) 0.6718(2) 0.3049(2)
H2 H 0.8408 0.6616 0.2770
C16 C 0.5695(4) 0.6339(2) 0.38250(18)
C17 C 0.7690(4) 0.53092(19) 0.24688(17)
C18 C 0.8376(4) 0.5146(2) 0.05811(18)
C19 C 0.9521(4) 0.42513(19) 0.29517(17)
C20 C 0.6579(5) 0.5777(2) 0.22307(19)
C21 C 1.2216(5) 0.5101(2) 0.14805(19)
H3 H 1.1706 0.5442 0.1639
C22 C 0.3763(5) 0.5506(2) 0.45353(19)
H4 H 0.3317 0.5842 0.4718
C23 C 0.3903(5) 0.4314(2) 0.4410(2)
H5 H 0.3519 0.3859 0.4511
C24 C 0.5524(5) 0.7017(2) 0.3901(2)
H6 H 0.4813 0.7122 0.4182
C25 C 0.9841(5) 0.3102(2) 0.35999(18)
C26 C 0.8726(5) 0.5863(2) 0.06070(18)
C27 C 1.2359(6) 0.2983(2) 0.3382(2)
C28 C 0.7889(4) 0.4050(2) 0.1271(2)
H7 H 0.7777 0.3796 0.1648
C29 C 0.9510(5) 0.2862(2) 0.23244(19)
H8 H 0.8720 0.2963 0.2577
C30 C 0.8295(4) 0.4750(2) 0.11455(18)
C31 C 0.8382(6) 0.2937(2) 0.38389(19)
H9 H 0.7609 0.3243 0.3752
C32 C 1.3762(5) 0.4071(3) 0.0997(2)
H10 H 1.4262 0.3737 0.0827
C33 C 0.8896(5) 0.5868(2) 0.11781(18)
C34 C 0.9327(5) 0.6464(2) 0.1350(2)
H11 H 0.9452 0.6459 0.1731
C35 C 0.9749(6) 0.2196(2) 0.2249(2)
H12 H 0.9126 0.1837 0.2466
C36 C 0.7655(5) 0.3741(2) 0.0820(2)
H13 H 0.7399 0.3268 0.0893
C37 C 0.8133(5) 0.4824(3) 0.0139(2)
H14 H 0.8198 0.5080 -0.0237
C38 C 0.7497(5) 0.7390(2) 0.3128(2)
H15 H 0.8089 0.7750 0.2895
C39 C 1.1862(6) 0.2557(3) 0.1549(2)
H16 H 1.2639 0.2449 0.1294
C40 C 0.3265(5) 0.4818(3) 0.4685(2)
H17 H 0.2484 0.4690 0.4977
C41 C 1.3005(5) 0.4121(3) 0.27589(19)
H18 H 1.2738 0.4569 0.2590
C42 C 1.3528(5) 0.5259(3) 0.1115(2)
H19 H 1.3902 0.5716 0.1023
C43 C 1.1004(6) 0.2646(2) 0.3702(2)
C44 C 0.7794(5) 0.4122(3) 0.0257(2)
H20 H 0.7657 0.3900 -0.0042
C45 C 0.6443(5) 0.7538(2) 0.3547(2)
H21 H 0.6344 0.7997 0.3594
C46 C 0.8957(5) 0.6477(3) 0.0194(2)
H22 H 0.8838 0.6484 -0.0189
C47 C 0.9361(7) 0.7070(3) 0.0360(3)
H23 H 0.9504 0.7485 0.0087
C48 C 1.4297(5) 0.4749(3) 0.0884(2)
H24 H 1.5190 0.4867 0.0648
C49 C 1.4472(6) 0.3902(4) 0.2692(3)
H25 H 1.5196 0.4198 0.2456
C50 C 1.0876(7) 0.2040(3) 0.1864(3)
H26 H 1.0979 0.1583 0.1813
C51 C 0.9564(6) 0.7068(2) 0.0929(2)
H27 H 0.9863 0.7477 0.1027
C52 C 1.3834(7) 0.2787(3) 0.3322(3)
H28 H 1.4122 0.2353 0.3514
C53 C 0.8124(7) 0.2298(3) 0.4213(2)
H29 H 0.7162 0.2174 0.4390
C54 C 1.0688(8) 0.1993(3) 0.4068(3)
H30 H 1.1436 0.1667 0.4135
C55 C 0.9258(10) 0.1845(3) 0.4324(3)
H31 H 0.9054 0.1423 0.4584
C56 C 1.4868(7) 0.3245(4) 0.2974(3)
H32 H 1.5858 0.3111 0.2926
N7 N 0.6296(5) 0.16427(19) 0.55811(18)
N8 N 0.9428(5) 0.2140(2) 0.7961(2)
N9 N 0.8358(4) 0.22445(16) 0.65816(14)
N10 N 0.6427(4) 0.09385(16) 0.84625(14)
N11 N 0.4566(3) 0.01219(15) 0.79569(14)
N12 N 0.4700(4) 0.03852(17) 0.67255(15)
C57 C 0.6531(4) 0.13082(19) 0.66683(17)
C58 C 0.7407(4) 0.1562(2) 0.75123(17)
C59 C 0.5532(4) 0.06440(19) 0.76094(17)
C60 C 0.6427(4) 0.10488(19) 0.78660(17)
C61 C 0.8247(5) 0.2947(2) 0.66156(18)
C62 C 0.5588(4) 0.07643(19) 0.70068(16)
C63 C 0.4576(5) -0.0591(2) 0.79432(18)
C64 C 0.7441(4) 0.17014(19) 0.69199(18)
C65 C 0.6437(5) 0.1498(2) 0.6063(2)
C66 C 0.9460(5) 0.2186(2) 0.61319(18)
C67 C 0.2636(5) -0.0407(2) 0.85909(19)
C68 C 0.5248(5) 0.0009(2) 0.63113(18)
C69 C 0.6743(4) 0.0312(2) 0.88345(18)
C70 C 0.6640(4) 0.0437(2) 0.93901(19)
C71 C 0.2862(5) 0.0848(2) 0.84840(19)
H33 H 0.3378 0.1268 0.8332
C72 C 0.9244(5) 0.3343(2) 0.61700(18)
C73 C 0.3149(4) 0.0257(2) 0.68486(19)
C74 C 1.0054(5) 0.1595(2) 0.59829(19)
H34 H 0.9687 0.1153 0.6169
C75 C 0.6126(5) 0.1456(2) 0.87916(19)
C76 C 0.8504(6) 0.1896(2) 0.7769(2)
C77 C 0.3372(4) 0.0234(2) 0.83551(18)
C78 C 0.7152(5) -0.0323(2) 0.87091(19)
H35 H 0.7263 -0.0390 0.8333
C79 C 0.6284(5) 0.1155(2) 0.93634(19)
C80 C 1.0010(5) 0.2858(2) 0.58662(19)
C81 C 0.4054(5) -0.0360(2) 0.6173(2)
C82 C 0.5571(5) -0.0944(2) 0.7624(2)
H36 H 0.6346 -0.0710 0.7367
C83 C 0.6884(5) -0.0113(2) 0.9843(2)
H37 H 0.6801 -0.0046 1.0218
C84 C 0.7338(5) 0.3258(2) 0.6982(2)
H38 H 0.6656 0.2995 0.7265
C85 C 0.3411(5) -0.0934(2) 0.83390(19)
C86 C 0.2124(5) 0.0545(2) 0.7202(2)
H39 H 0.2403 0.0888 0.7390
C87 C 0.5677(6) 0.2137(2) 0.8619(2)
H40 H 0.5549 0.2325 0.8238
C88 C 0.7460(5) 0.3972(2) 0.6922(2)
H41 H 0.6872 0.4192 0.7175
C89 C 0.2734(5) -0.0207(2) 0.6522(2)
C90 C 0.6696(5) -0.0041(2) 0.6061(2)
H42 H 0.7494 0.0185 0.6167
C91 C 0.9331(5) 0.4063(2) 0.6115(2)
H43 H 0.9984 0.4334 0.5826
C92 C 0.1236(6) -0.0435(3) 0.6589(2)
H44 H 0.0930 -0.0752 0.6382
C93 C 0.3251(6) -0.1656(3) 0.8408(2)
H45 H 0.2483 -0.1897 0.8665
C94 C 0.7388(5) -0.0853(2) 0.9166(2)
H46 H 0.7649 -0.1291 0.9098
C95 C 0.7247(5) -0.0751(3) 0.9729(2)
H47 H 0.7402 -0.1120 1.0030
C96 C 0.0653(5) 0.0297(3) 0.7264(2)
H48 H -0.0060 0.0460 0.7514
C97 C 1.1164(5) 0.2934(3) 0.5422(2)
H49 H 1.1533 0.3375 0.5235
C98 C 0.5753(7) -0.0779(3) 0.5488(2)
H50 H 0.5928 -0.1028 0.5197
C99 C 0.4221(7) -0.2008(3) 0.8099(3)
H51 H 0.4121 -0.2490 0.8150
C100 C 0.6040(6) 0.1559(3) 0.9777(2)
H52 H 0.6159 0.1372 1.0159
C101 C 0.1550(5) 0.0822(3) 0.8849(2)
H53 H 0.1156 0.1232 0.8934
C102 C 0.0818(6) 0.0190(3) 0.9088(2)
H54 H -0.0050 0.0183 0.9339
C103 C 0.6905(6) -0.0441(2) 0.5646(2)
H55 H 0.7866 -0.0481 0.5470
C104 C 0.4340(7) -0.0753(2) 0.5756(2)
H56 H 0.3565 -0.1002 0.5657
C105 C 1.1218(5) 0.1682(3) 0.5546(2)
H57 H 1.1656 0.1291 0.5438
C106 C 0.1334(5) -0.0420(3) 0.8964(2)
H58 H 0.0824 -0.0839 0.9126
C107 C 0.8445(5) 0.4369(2) 0.6490(2)
H59 H 0.8503 0.4850 0.6456
C108 C 0.5360(6) -0.1655(2) 0.7707(2)
H60 H 0.5996 -0.1906 0.7495
C109 C 1.1747(6) 0.2350(3) 0.5263(2)
H61 H 1.2510 0.2397 0.4961
C110 C 0.5616(7) 0.2245(3) 0.9609(3)
H62 H 0.5454 0.2523 0.9881
C111 C 0.5431(7) 0.2520(3) 0.9040(3)
H63 H 0.5131 0.2980 0.8938
C112 C 0.0238(6) -0.0183(3) 0.6963(3)
H64 H -0.0752 -0.0341 0.7015
loop_
_geom_bond_atom_site_label_1
_geom_bond_atom_site_label_2
_geom_bond_site_symmetry_1
_geom_bond_site_symmetry_2
N1 C20 1_555 1_555
N2 C6 1_555 1_555
N3 C2 1_555 1_555
N4 C7 1_555 1_555
N5 C3 1_555 1_555
N6 C8 1_555 1_555
C1 C2 1_555 1_555
C2 C17 1_555 1_555
C3 C13 1_555 1_555
C4 N5 1_555 1_555
C5 C9 1_555 1_555
C6 C1 1_555 1_555
C7 C4 1_555 1_555
C8 C27 1_555 1_555
C9 N3 1_555 1_555
C10 N3 1_555 1_555
C11 C13 1_555 1_555
C12 C9 1_555 1_555
H1 C12 1_555 1_555
C13 C39 1_555 1_555
C14 N5 1_555 1_555
C15 C10 1_555 1_555
H2 C15 1_555 1_555
C16 C5 1_555 1_555
C17 C7 1_555 1_555
C18 C26 1_555 1_555
C19 N6 1_555 1_555
C20 C17 1_555 1_555
C21 C14 1_555 1_555
H3 C21 1_555 1_555
C22 C5 1_555 1_555
H4 C22 1_555 1_555
C23 C12 1_555 1_555
H5 C23 1_555 1_555
C24 C16 1_555 1_555
H6 C24 1_555 1_555
C25 N6 1_555 1_555
C26 C33 1_555 1_555
C27 C43 1_555 1_555
C28 H7 1_555 1_555
C29 C3 1_555 1_555
H8 C29 1_555 1_555
C30 N4 1_555 1_555
C31 C25 1_555 1_555
H9 C31 1_555 1_555
C32 C11 1_555 1_555
H10 C32 1_555 1_555
C33 N4 1_555 1_555
C34 C33 1_555 1_555
H11 C34 1_555 1_555
C35 C29 1_555 1_555
H12 C35 1_555 1_555
C36 C28 1_555 1_555
H13 C36 1_555 1_555
C37 C18 1_555 1_555
H14 C37 1_555 1_555
C38 C15 1_555 1_555
H15 C38 1_555 1_555
C39 H16 1_555 1_555
C40 C22 1_555 1_555
H17 C40 1_555 1_555
C41 C8 1_555 1_555
H18 C41 1_555 1_555
C42 C21 1_555 1_555
H19 C42 1_555 1_555
C43 C25 1_555 1_555
C44 C36 1_555 1_555
H20 C44 1_555 1_555
C45 C24 1_555 1_555
H21 C45 1_555 1_555
C46 C26 1_555 1_555
H22 C46 1_555 1_555
C47 C46 1_555 1_555
H23 C47 1_555 1_555
C48 C32 1_555 1_555
H24 C48 1_555 1_555
C49 C41 1_555 1_555
H25 C49 1_555 1_555
C50 C35 1_555 1_555
H26 C50 1_555 1_555
C51 C34 1_555 1_555
H27 C51 1_555 1_555
C52 C27 1_555 1_555
H28 C52 1_555 1_555
C53 C31 1_555 1_555
H29 C53 1_555 1_555
C54 C43 1_555 1_555
H30 C54 1_555 1_555
C55 C53 1_555 1_555
H31 C55 1_555 1_555
C56 C49 1_555 1_555
H32 C56 1_555 1_555
N7 C65 1_555 1_555
N8 C76 1_555 1_555
N9 C61 1_555 1_555
N10 C60 1_555 1_555
N11 C59 1_555 1_555
N12 C62 1_555 1_555
C57 C62 1_555 1_555
C58 C60 1_555 1_555
C59 C60 1_555 1_555
C61 C72 1_555 1_555
C62 C59 1_555 1_555
C63 N11 1_555 1_555
C64 N9 1_555 1_555
C65 C57 1_555 1_555
C66 N9 1_555 1_555
C67 C77 1_555 1_555
C68 N12 1_555 1_555
C69 N10 1_555 1_555
C70 C69 1_555 1_555
C71 H33 1_555 1_555
C72 C80 1_555 1_555
C73 N12 1_555 1_555
C74 C66 1_555 1_555
H34 C74 1_555 1_555
C75 N10 1_555 1_555
C76 C58 1_555 1_555
C77 N11 1_555 1_555
C78 C69 1_555 1_555
H35 C78 1_555 1_555
C79 C70 1_555 1_555
C80 C66 1_555 1_555
C81 C68 1_555 1_555
C82 C63 1_555 1_555
H36 C82 1_555 1_555
C83 C70 1_555 1_555
H37 C83 1_555 1_555
C84 C61 1_555 1_555
H38 C84 1_555 1_555
C85 C63 1_555 1_555
C86 C73 1_555 1_555
H39 C86 1_555 1_555
C87 C75 1_555 1_555
H40 C87 1_555 1_555
C88 C84 1_555 1_555
H41 C88 1_555 1_555
C89 C73 1_555 1_555
C90 C68 1_555 1_555
H42 C90 1_555 1_555
C91 C72 1_555 1_555
H43 C91 1_555 1_555
C92 C89 1_555 1_555
H44 C92 1_555 1_555
C93 C85 1_555 1_555
H45 C93 1_555 1_555
C94 C78 1_555 1_555
H46 C94 1_555 1_555
C95 C83 1_555 1_555
H47 C95 1_555 1_555
C96 C86 1_555 1_555
H48 C96 1_555 1_555
C97 C80 1_555 1_555
H49 C97 1_555 1_555
C98 H50 1_555 1_555
C99 C93 1_555 1_555
H51 C99 1_555 1_555
C100 C79 1_555 1_555
H52 C100 1_555 1_555
C101 C71 1_555 1_555
H53 C101 1_555 1_555
C102 C101 1_555 1_555
H54 C102 1_555 1_555
C103 C90 1_555 1_555
H55 C103 1_555 1_555
C104 C81 1_555 1_555
H56 C104 1_555 1_555
C105 C74 1_555 1_555
H57 C105 1_555 1_555
C106 C67 1_555 1_555
H58 C106 1_555 1_555
C107 C88 1_555 1_555
H59 C107 1_555 1_555
C108 C82 1_555 1_555
H60 C108 1_555 1_555
C109 C97 1_555 1_555
H61 C109 1_555 1_555
C110 C100 1_555 1_555
H62 C110 1_555 1_555
C111 C87 1_555 1_555
H63 C111 1_555 1_555
C112 C92 1_555 1_555
H64 C112 1_555 1_555
C1 C19 1_555 1_555
C4 C19 1_555 1_555
C10 C16 1_555 1_555
C11 C14 1_555 1_555
C18 C30 1_555 1_555
C23 C40 1_555 1_555
C28 C30 1_555 1_555
C37 C44 1_555 1_555
C38 C45 1_555 1_555
C39 C50 1_555 1_555
C42 C48 1_555 1_555
C47 C51 1_555 1_555
C52 C56 1_555 1_555
C54 C55 1_555 1_555
C57 C64 1_555 1_555
C58 C64 1_555 1_555
C67 C85 1_555 1_555
C71 C77 1_555 1_555
C75 C79 1_555 1_555
C81 C89 1_555 1_555
C91 C107 1_555 1_555
C94 C95 1_555 1_555
C96 C112 1_555 1_555
C98 C103 1_555 1_555
C98 C104 1_555 1_555
C99 C108 1_555 1_555
C102 C106 1_555 1_555
C105 C109 1_555 1_555
C110 C111 1_555 1_555

#END
