
#######################################################################
#
#                 Cambridge Crystallographic Data Centre
#                                CCDC 
#
#######################################################################
#
# If this CIF has been generated from an entry in the Cambridge 
# Structural Database, then it will include bibliographic, chemical, 
# crystal, experimental, refinement or atomic coordinate data resulting 
# from the CCDC's data processing and validation procedures.
#
#######################################################################

data_YUGHUE
_chemical_formula_moiety         'C20 H15 Br1 F3 N1 O2'
_chemical_name_systematic        
6-(4-Bromophenyl)-2-hydroxy-4-(4-methylphenyl)-2-(trifluoromethyl)-3,4-dihydro-2H-pyran-5-carbonitrile
_symmetry_cell_setting           monoclinic
_symmetry_space_group_name_H-M   'P 21'
_symmetry_Int_Tables_number      4
_space_group_name_Hall           'P 2yb'
loop_
_symmetry_equiv_pos_site_id
_symmetry_equiv_pos_as_xyz
1 x,y,z
2 -x,1/2+y,-z
_cell_length_a                   12.306(2)
_cell_length_b                   11.433(2)
_cell_length_c                   14.660(3)
_cell_angle_alpha                90
_cell_angle_beta                 112.875(2)
_cell_angle_gamma                90
_cell_volume                     1900.37
_exptl_crystal_colour            yellow
_exptl_crystal_description       block
_cell_formula_units_Z            4
loop_
_atom_site_label
_atom_site_type_symbol
_atom_site_fract_x
_atom_site_fract_y
_atom_site_fract_z
Br1 Br -0.39629(7) 0.66737(5) -0.02720(5)
F1 F -0.1728(4) 0.0229(4) 0.3004(3)
F2 F -0.1937(4) -0.1453(3) 0.2328(3)
F3 F -0.3305(3) -0.0179(4) 0.1773(3)
O1 O -0.2103(3) -0.0461(3) 0.0547(3)
H1 H -0.1654 -0.0961 0.0493
O2 O -0.1930(3) 0.1308(3) 0.1302(2)
N1 N 0.0567(4) 0.2905(4) -0.0184(3)
C1 C 0.5385(4) 0.0811(5) 0.3500(4)
H2 H 0.5542 0.0694 0.4188
H3 H 0.5696 0.1554 0.3414
H4 H 0.5754 0.0199 0.3274
C2 C 0.4071(5) 0.0786(5) 0.2910(4)
C3 C 0.3511(5) -0.0233(5) 0.2497(4)
H5 H 0.3958 -0.0912 0.2597
C4 C 0.2326(5) -0.0301(4) 0.1943(4)
H6 H 0.1996 -0.1010 0.1660
C5 C 0.1615(4) 0.0672(4) 0.1800(3)
C6 C 0.2162(5) 0.1719(5) 0.2213(3)
H7 H 0.1716 0.2398 0.2119
C7 C 0.3349(5) 0.1757(5) 0.2757(4)
H8 H 0.3687 0.2466 0.3036
C8 C 0.0300(4) 0.0570(4) 0.1245(3)
H9 H 0.0167 0.0031 0.0693
C9 C -0.0264(4) 0.0026(4) 0.1898(3)
H10 H -0.0030 -0.0789 0.2014
H11 H 0.0025 0.0422 0.2533
C10 C -0.1579(5) 0.0099(4) 0.1448(4)
C11 C -0.2141(5) -0.0329(5) 0.2140(5)
C12 C -0.1341(5) 0.2003(4) 0.0885(3)
C13 C -0.0341(4) 0.1687(4) 0.0812(3)
C14 C 0.0142(5) 0.2390(4) 0.0269(4)
C15 C -0.1987(5) 0.3132(4) 0.0560(3)
C16 C -0.3176(5) 0.3152(4) 0.0072(4)
H12 H -0.3588 0.2450 -0.0089
C17 C -0.3794(5) 0.4200(5) -0.0192(4)
H13 H -0.4608 0.4207 -0.0533
C18 C -0.3154(5) 0.5238(5) 0.0071(4)
C19 C -0.1961(5) 0.5235(4) 0.0565(4)
H14 H -0.1548 0.5936 0.0735
C20 C -0.1374(5) 0.4185(4) 0.0812(4)
H15 H -0.0559 0.4179 0.1150
Br2 Br 1.54540(6) 0.98448(7) 0.84486(6)
F4 F 0.8442(4) 1.0452(4) 0.8020(3)
F5 F 0.7029(3) 1.1406(3) 0.6958(3)
F6 F 0.8763(3) 1.2119(3) 0.7508(3)
O3 O 0.8065(3) 1.1265(3) 0.5584(3)
H16 H 0.8636 1.1659 0.5617
O4 O 0.9629(3) 1.0352(3) 0.6821(2)
N2 N 1.0320(4) 0.7885(4) 0.4492(4)
C21 C 0.6148(7) 0.4116(5) 0.4799(5)
H17 H 0.5809 0.4021 0.5284
H18 H 0.6757 0.3544 0.4909
H19 H 0.5547 0.4013 0.4149
C22 C 0.6660(6) 0.5310(5) 0.4885(4)
C23 C 0.5981(5) 0.6244(5) 0.4431(5)
H20 H 0.5184 0.6131 0.4049
C24 C 0.6453(5) 0.7363(5) 0.4526(4)
H21 H 0.5971 0.7984 0.4196
C25 C 0.7630(5) 0.7568(4) 0.5103(4)
C26 C 0.8325(5) 0.6626(5) 0.5562(3)
H22 H 0.9123 0.6731 0.5944
C27 C 0.7824(5) 0.5519(5) 0.5450(4)
H23 H 0.8301 0.4893 0.5774
C28 C 0.8088(4) 0.8827(4) 0.5275(4)
H24 H 0.7701 0.9264 0.4658
C29 C 0.7753(5) 0.9391(4) 0.6073(4)
H25 H 0.6908 0.9519 0.5818
H26 H 0.7965 0.8875 0.6640
C30 C 0.8382(4) 1.0532(4) 0.6381(4)
C31 C 0.8158(6) 1.1137(6) 0.7238(5)
C32 C 1.0093(4) 0.9609(4) 0.6337(3)
C33 C 0.9397(4) 0.8936(4) 0.5578(3)
C34 C 0.9940(5) 0.8344(4) 0.4994(4)
C35 C 1.1388(4) 0.9662(4) 0.6768(3)
C36 C 1.1954(5) 1.0732(4) 0.7040(4)
H27 H 1.1508 1.1414 0.6908
C37 C 1.3153(5) 1.0802(5) 0.7497(4)
H28 H 1.3523 1.1527 0.7644
C38 C 1.3805(4) 0.9790(5) 0.7738(4)
C39 C 1.3267(5) 0.8714(5) 0.7488(4)
H29 H 1.3719 0.8035 0.7646
C40 C 1.2062(5) 0.8643(4) 0.7005(4)
H30 H 1.1698 0.7918 0.6836
loop_
_geom_bond_atom_site_label_1
_geom_bond_atom_site_label_2
_geom_bond_site_symmetry_1
_geom_bond_site_symmetry_2
Br1 C18 1_555 1_555
F1 C11 1_555 1_555
F2 C11 1_555 1_555
F3 C11 1_555 1_555
O1 H1 1_555 1_555
O2 C10 1_555 1_555
N1 C14 1_555 1_555
C1 H2 1_555 1_555
H3 C1 1_555 1_555
H4 C1 1_555 1_555
C2 C1 1_555 1_555
C3 C2 1_555 1_555
H5 C3 1_555 1_555
C4 C3 1_555 1_555
H6 C4 1_555 1_555
C5 C4 1_555 1_555
C6 C5 1_555 1_555
H7 C6 1_555 1_555
C7 C2 1_555 1_555
H8 C7 1_555 1_555
C8 C5 1_555 1_555
H9 C8 1_555 1_555
C9 C8 1_555 1_555
H10 C9 1_555 1_555
H11 C9 1_555 1_555
C10 O1 1_555 1_555
C11 C10 1_555 1_555
C12 O2 1_555 1_555
C13 C8 1_555 1_555
C14 C13 1_555 1_555
C15 C12 1_555 1_555
C16 C15 1_555 1_555
H12 C16 1_555 1_555
C17 C16 1_555 1_555
H13 C17 1_555 1_555
C18 C17 1_555 1_555
C19 C18 1_555 1_555
H14 C19 1_555 1_555
C20 C15 1_555 1_555
H15 C20 1_555 1_555
Br2 C38 1_555 1_555
F4 C31 1_555 1_555
F5 C31 1_555 1_555
F6 C31 1_555 1_555
O3 H16 1_555 1_555
O4 C30 1_555 1_555
N2 C34 1_555 1_555
C21 H17 1_555 1_555
H18 C21 1_555 1_555
H19 C21 1_555 1_555
C22 C21 1_555 1_555
C23 C22 1_555 1_555
H20 C23 1_555 1_555
C24 C23 1_555 1_555
H21 C24 1_555 1_555
C25 C24 1_555 1_555
C26 C25 1_555 1_555
H22 C26 1_555 1_555
C27 C22 1_555 1_555
H23 C27 1_555 1_555
C28 C25 1_555 1_555
H24 C28 1_555 1_555
C29 C28 1_555 1_555
H25 C29 1_555 1_555
H26 C29 1_555 1_555
C30 O3 1_555 1_555
C31 C30 1_555 1_555
C32 O4 1_555 1_555
C33 C28 1_555 1_555
C34 C33 1_555 1_555
C35 C32 1_555 1_555
C36 C35 1_555 1_555
H27 C36 1_555 1_555
C37 C36 1_555 1_555
H28 C37 1_555 1_555
C38 C37 1_555 1_555
C39 C38 1_555 1_555
H29 C39 1_555 1_555
C40 C35 1_555 1_555
H30 C40 1_555 1_555
C6 C7 1_555 1_555
C9 C10 1_555 1_555
C12 C13 1_555 1_555
C19 C20 1_555 1_555
C26 C27 1_555 1_555
C29 C30 1_555 1_555
C32 C33 1_555 1_555
C39 C40 1_555 1_555

#END
