
#######################################################################
#
#                 Cambridge Crystallographic Data Centre
#                                CCDC 
#
#######################################################################
#
# If this CIF has been generated from an entry in the Cambridge 
# Structural Database, then it will include bibliographic, chemical, 
# crystal, experimental, refinement or atomic coordinate data resulting 
# from the CCDC's data processing and validation procedures.
#
#######################################################################

data_YUGJAM
_chemical_formula_moiety         'C11 H15 N3 O4 S1'
_chemical_name_systematic        
N-((Diethylamino)methylene)-4-nitrobenzenesulfonamide
_symmetry_cell_setting           triclinic
_symmetry_space_group_name_H-M   'P -1'
_symmetry_Int_Tables_number      2
_space_group_name_Hall           '-P 1'
loop_
_symmetry_equiv_pos_site_id
_symmetry_equiv_pos_as_xyz
1 x,y,z
2 -x,-y,-z
_cell_length_a                   6.366(5)
_cell_length_b                   10.293(5)
_cell_length_c                   12.008(5)
_cell_angle_alpha                115.154(5)
_cell_angle_beta                 102.366(5)
_cell_angle_gamma                92.033(5)
_cell_volume                     688.53
_exptl_crystal_colour            yellow
_exptl_crystal_description       needle
_cell_formula_units_Z            2
loop_
_atom_site_label
_atom_site_type_symbol
_atom_site_fract_x
_atom_site_fract_y
_atom_site_fract_z
S1 S 0.21423(7) 0.21426(5) -0.00795(4)
O1 O 0.3110(2) 0.09361(15) -0.08237(12)
O2 O 0.0379(2) 0.25925(16) -0.07239(13)
N1 N 0.1394(2) 0.19529(15) 0.10488(14)
N2 N 0.2204(3) 0.09944(16) 0.24810(14)
C1 C 0.2461(3) 0.11199(18) 0.14804(16)
O3 O 0.8696(3) 0.83484(18) 0.36023(19)
O4 O 1.1057(3) 0.6896(2) 0.32815(17)
N3 N 0.9197(3) 0.71428(19) 0.31138(16)
C2 C 0.5352(3) 0.6197(2) 0.20057(19)
C3 C 0.6377(3) 0.3391(2) 0.10505(18)
C4 C 0.7458(3) 0.5925(2) 0.22816(16)
C5 C 0.7998(3) 0.4543(2) 0.18054(19)
C6 C 0.3517(4) 0.0098(2) 0.2946(2)
C7 C 0.0669(4) 0.1765(3) 0.3177(2)
C8 C 0.4243(3) 0.36446(18) 0.07842(16)
C9 C 0.3726(3) 0.5044(2) 0.12413(19)
C10 C 0.1551(6) 0.3299(3) 0.4091(3)
H1 H 0.2753 0.3325 0.4742
H2 H 0.0436 0.3768 0.4472
H3 H 0.2032 0.3793 0.3649
C11 C 0.5343(4) 0.0977(4) 0.4076(3)
H4 H 0.6176 0.1623 0.3893
H5 H 0.6258 0.0345 0.4277
H6 H 0.4771 0.1531 0.4788
H7 H 0.351(3) 0.054(2) 0.1046(19)
H8 H 0.234(4) 0.521(2) 0.105(2)
H9 H 0.944(4) 0.443(3) 0.196(2)
H10 H 0.674(4) 0.245(3) 0.074(2)
H11 H 0.503(4) 0.719(3) 0.232(2)
H12 H -0.067(4) 0.168(2) 0.251(2)
H13 H 0.405(4) -0.059(3) 0.222(3)
H14 H 0.256(4) -0.045(3) 0.315(2)
H15 H 0.019(4) 0.115(3) 0.364(3)
loop_
_geom_bond_atom_site_label_1
_geom_bond_atom_site_label_2
_geom_bond_site_symmetry_1
_geom_bond_site_symmetry_2
S1 O1 1_555 1_555
O2 S1 1_555 1_555
N1 S1 1_555 1_555
N2 C1 1_555 1_555
C1 N1 1_555 1_555
O3 N3 1_555 1_555
O4 N3 1_555 1_555
N3 C4 1_555 1_555
C2 C4 1_555 1_555
C3 C5 1_555 1_555
C4 C5 1_555 1_555
C5 H9 1_555 1_555
C6 N2 1_555 1_555
C7 N2 1_555 1_555
C8 S1 1_555 1_555
C9 C2 1_555 1_555
C10 C7 1_555 1_555
H1 C10 1_555 1_555
H2 C10 1_555 1_555
H3 C10 1_555 1_555
C11 C6 1_555 1_555
H4 C11 1_555 1_555
H5 C11 1_555 1_555
H6 C11 1_555 1_555
H7 C1 1_555 1_555
H8 C9 1_555 1_555
H10 C3 1_555 1_555
H11 C2 1_555 1_555
H12 C7 1_555 1_555
H13 C6 1_555 1_555
H14 C6 1_555 1_555
H15 C7 1_555 1_555
C3 C8 1_555 1_555
C8 C9 1_555 1_555

#END
