
#######################################################################
#
#                 Cambridge Crystallographic Data Centre
#                                CCDC 
#
#######################################################################
#
# If this CIF has been generated from an entry in the Cambridge 
# Structural Database, then it will include bibliographic, chemical, 
# crystal, experimental, refinement or atomic coordinate data resulting 
# from the CCDC's data processing and validation procedures.
#
#######################################################################

data_YUGKAN
_chemical_formula_moiety         'C27 H53 N2 1+,Cl1 O4 1-'
_chemical_name_systematic        '1,3-Didodecyl-1H-imidazol-3-ium perchlorate'
_symmetry_cell_setting           monoclinic
_symmetry_space_group_name_H-M   'P 21/n'
_symmetry_Int_Tables_number      14
_space_group_name_Hall           '-P 2yn'
loop_
_symmetry_equiv_pos_site_id
_symmetry_equiv_pos_as_xyz
1 x,y,z
2 1/2-x,1/2+y,1/2-z
3 -x,-y,-z
4 1/2+x,1/2-y,1/2+z
_cell_length_a                   7.6633(6)
_cell_length_b                   10.1450(5)
_cell_length_c                   38.800(3)
_cell_angle_alpha                90
_cell_angle_beta                 90.678(7)
_cell_angle_gamma                90
_cell_volume                     3016.26
_exptl_crystal_colour            colorless
_exptl_crystal_description       plate
_cell_formula_units_Z            4
loop_
_atom_site_label
_atom_site_type_symbol
_atom_site_fract_x
_atom_site_fract_y
_atom_site_fract_z
Cl1 Cl 0.43377(6) 0.74163(5) 0.283255(13)
O1 O 0.3890(3) 0.86103(16) 0.29966(5)
O2 O 0.5775(2) 0.6805(2) 0.30033(4)
O3 O 0.2872(2) 0.65769(18) 0.28406(6)
O4 O 0.4822(3) 0.7695(2) 0.24840(4)
N1 N 0.5361(2) 0.33512(15) 0.25040(4)
N2 N 0.3908(2) 0.24259(16) 0.29089(4)
C1 C 0.4173(3) 0.3547(2) 0.27428(5)
H1 H 0.3602 0.4359 0.2788
C2 C 0.4962(3) 0.1483(2) 0.27697(5)
H2 H 0.5037 0.0587 0.2839
C3 C 0.5870(3) 0.2055(2) 0.25178(5)
H3 H 0.6708 0.1642 0.2375
C4 C 0.6071(3) 0.4335(2) 0.22659(5)
H4 H 0.7351 0.4391 0.2301
H5 H 0.5569 0.5209 0.2320
C5 C 0.5683(3) 0.4009(2) 0.18935(5)
H6 H 0.4409 0.4067 0.1850
H7 H 0.6052 0.3092 0.1846
C6 C 0.6621(3) 0.4941(2) 0.16518(5)
H8 H 0.6264 0.5856 0.1704
H9 H 0.7893 0.4873 0.1696
C7 C 0.6259(3) 0.4669(2) 0.12740(5)
H10 H 0.4995 0.4784 0.1228
H11 H 0.6555 0.3739 0.1225
C8 C 0.7262(3) 0.5548(2) 0.10299(5)
H12 H 0.6997 0.6480 0.1084
H13 H 0.8528 0.5411 0.1070
C9 C 0.6848(3) 0.5300(2) 0.06527(5)
H14 H 0.7084 0.4361 0.0601
H15 H 0.5588 0.5457 0.0612
C10 C 0.7875(3) 0.6148(2) 0.04063(5)
H16 H 0.9134 0.5970 0.0442
H17 H 0.7667 0.7087 0.0462
C11 C 0.7413(3) 0.5921(2) 0.00287(5)
H18 H 0.7617 0.4982 -0.0027
H19 H 0.6154 0.6101 -0.0007
C12 C 0.8440(3) 0.6764(2) -0.02172(5)
H20 H 0.8256 0.7702 -0.0157
H21 H 0.9697 0.6570 -0.0184
C13 C 0.7976(3) 0.6574(2) -0.05923(5)
H22 H 0.6718 0.6764 -0.0626
H23 H 0.8172 0.5639 -0.0654
C14 C 0.9015(4) 0.7439(3) -0.08327(6)
H24 H 0.8846 0.8371 -0.0765
H25 H 1.0270 0.7231 -0.0802
C15 C 0.8543(5) 0.7293(4) -0.12043(7)
H26 H 0.9252 0.7897 -0.1341
H27 H 0.7304 0.7502 -0.1239
H28 H 0.8762 0.6384 -0.1277
C16 C 0.2758(3) 0.2238(2) 0.32049(5)
H29 H 0.2598 0.1283 0.3246
H30 H 0.1599 0.2624 0.3151
C17 C 0.3493(3) 0.2874(2) 0.35272(5)
H31 H 0.3502 0.3842 0.3496
H32 H 0.4716 0.2582 0.3561
C18 C 0.2467(3) 0.2544(2) 0.38486(5)
H33 H 0.1213 0.2716 0.3804
H34 H 0.2601 0.1593 0.3900
C19 C 0.3056(3) 0.3336(2) 0.41611(5)
H35 H 0.2899 0.4285 0.4109
H36 H 0.4319 0.3181 0.4200
C20 C 0.2098(3) 0.3018(2) 0.44913(5)
H37 H 0.2338 0.2090 0.4555
H38 H 0.0827 0.3103 0.4448
C21 C 0.2615(3) 0.3903(2) 0.47915(5)
H39 H 0.3891 0.3830 0.4830
H40 H 0.2358 0.4828 0.4727
C22 C 0.1705(3) 0.3595(2) 0.51269(5)
H41 H 0.1972 0.2674 0.5193
H42 H 0.0428 0.3660 0.5089
C23 C 0.2222(3) 0.4498(2) 0.54234(5)
H43 H 0.3503 0.4446 0.5458
H44 H 0.1934 0.5417 0.5358
C24 C 0.1347(3) 0.4183(2) 0.57622(5)
H45 H 0.0070 0.4283 0.5731
H46 H 0.1580 0.3249 0.5821
C25 C 0.1934(3) 0.5037(2) 0.60626(5)
H47 H 0.3206 0.4916 0.6098
H48 H 0.1734 0.5972 0.6001
C26 C 0.1029(3) 0.4755(2) 0.63992(5)
H49 H 0.1237 0.3822 0.6463
H50 H -0.0244 0.4871 0.6365
C27 C 0.1627(4) 0.5625(3) 0.66956(6)
H51 H 0.0910 0.5449 0.6898
H52 H 0.1505 0.6553 0.6629
H53 H 0.2853 0.5437 0.6751
loop_
_geom_bond_atom_site_label_1
_geom_bond_atom_site_label_2
_geom_bond_site_symmetry_1
_geom_bond_site_symmetry_2
Cl1 O1 1_555 1_555
O2 Cl1 1_555 1_555
O3 Cl1 1_555 1_555
O4 Cl1 1_555 1_555
N1 C1 1_555 1_555
N2 C1 1_555 1_555
C1 H1 1_555 1_555
C2 N2 1_555 1_555
H2 C2 1_555 1_555
C3 N1 1_555 1_555
H3 C3 1_555 1_555
C4 N1 1_555 1_555
H4 C4 1_555 1_555
H5 C4 1_555 1_555
C5 C4 1_555 1_555
H6 C5 1_555 1_555
H7 C5 1_555 1_555
C6 C5 1_555 1_555
H8 C6 1_555 1_555
H9 C6 1_555 1_555
C7 C6 1_555 1_555
H10 C7 1_555 1_555
H11 C7 1_555 1_555
C8 C7 1_555 1_555
H12 C8 1_555 1_555
H13 C8 1_555 1_555
C9 C8 1_555 1_555
H14 C9 1_555 1_555
H15 C9 1_555 1_555
C10 C9 1_555 1_555
H16 C10 1_555 1_555
H17 C10 1_555 1_555
C11 C10 1_555 1_555
H18 C11 1_555 1_555
H19 C11 1_555 1_555
C12 C11 1_555 1_555
H20 C12 1_555 1_555
H21 C12 1_555 1_555
C13 C12 1_555 1_555
H22 C13 1_555 1_555
H23 C13 1_555 1_555
C14 C13 1_555 1_555
H24 C14 1_555 1_555
H25 C14 1_555 1_555
C15 C14 1_555 1_555
H26 C15 1_555 1_555
H27 C15 1_555 1_555
H28 C15 1_555 1_555
C16 N2 1_555 1_555
H29 C16 1_555 1_555
H30 C16 1_555 1_555
C17 C16 1_555 1_555
H31 C17 1_555 1_555
H32 C17 1_555 1_555
C18 C17 1_555 1_555
H33 C18 1_555 1_555
H34 C18 1_555 1_555
C19 C18 1_555 1_555
H35 C19 1_555 1_555
H36 C19 1_555 1_555
C20 C19 1_555 1_555
H37 C20 1_555 1_555
H38 C20 1_555 1_555
C21 C20 1_555 1_555
H39 C21 1_555 1_555
H40 C21 1_555 1_555
C22 C21 1_555 1_555
H41 C22 1_555 1_555
H42 C22 1_555 1_555
C23 C22 1_555 1_555
H43 C23 1_555 1_555
H44 C23 1_555 1_555
C24 C23 1_555 1_555
H45 C24 1_555 1_555
H46 C24 1_555 1_555
C25 C24 1_555 1_555
H47 C25 1_555 1_555
H48 C25 1_555 1_555
C26 C25 1_555 1_555
H49 C26 1_555 1_555
H50 C26 1_555 1_555
C27 C26 1_555 1_555
H51 C27 1_555 1_555
H52 C27 1_555 1_555
H53 C27 1_555 1_555
C2 C3 1_555 1_555

#END
