
#######################################################################
#
#                 Cambridge Crystallographic Data Centre
#                                CCDC 
#
#######################################################################
#
# If this CIF has been generated from an entry in the Cambridge 
# Structural Database, then it will include bibliographic, chemical, 
# crystal, experimental, refinement or atomic coordinate data resulting 
# from the CCDC's data processing and validation procedures.
#
#######################################################################

data_YUGNAP
_chemical_formula_moiety         'C20 H40 I2 O5 Sr1'
_chemical_name_systematic        Di-iodo-pentakis(tetrahydrofuran-O)-strontium
_symmetry_cell_setting           tetragonal
_symmetry_space_group_name_H-M   'P 43 21 2'
_symmetry_Int_Tables_number      96
_space_group_name_Hall           'P 4nw 2abw'
loop_
_symmetry_equiv_pos_site_id
_symmetry_equiv_pos_as_xyz
1 x,y,z
2 1/2-y,1/2+x,3/4+z
3 1/2+x,1/2-y,1/4-z
4 -x,-y,1/2+z
5 y,x,-z
6 1/2+y,1/2-x,1/4+z
7 1/2-x,1/2+y,3/4-z
8 -y,-x,1/2-z
_cell_length_a                   8.8510(10)
_cell_length_b                   8.8510(10)
_cell_length_c                   35.353(7)
_cell_angle_alpha                90
_cell_angle_beta                 90
_cell_angle_gamma                90
_cell_volume                     2769.56
_exptl_crystal_colour            colorless
_cell_formula_units_Z            4
loop_
_atom_site_label
_atom_site_type_symbol
_atom_site_fract_x
_atom_site_fract_y
_atom_site_fract_z
Sr1 Sr 0.0496 0.0496 0.0000
I1 I -0.1713(2) 0.2766(2) 0.0454(1)
O1 O -0.1600 -0.1600 0.0000
O2 O 0.0826(25) -0.1257(21) 0.0595(3)
O3 O 0.2638(21) 0.1543(21) 0.0398(3)
C1 C -0.2750(39) -0.1871(34) 0.0280(7)
C2 C -0.3701(27) -0.3006(38) 0.0200(5)
C3 C 0.1178(30) -0.2850(30) 0.0582(6)
C4 C 0.1186(51) -0.3338(35) 0.0949(8)
C5 C 0.0912(50) -0.2038(49) 0.1193(7)
C6 C 0.0569(41) -0.0739(31) 0.0973(5)
C7 C 0.3990(36) 0.0832(34) 0.0509(7)
C8 C 0.4359(35) 0.1621(33) 0.0881(6)
C9 C 0.3834(45) 0.3110(31) 0.0831(8)
C10 C 0.2702(37) 0.3143(39) 0.0510(9)
H1 H -0.3334 -0.0963 0.0307
H2 H -0.2258 -0.2098 0.0515
H3 H -0.3628 -0.3993 0.0311
H4 H -0.4703 -0.2858 0.0103
H5 H 0.2151 -0.3006 0.0469
H6 H 0.0425 -0.3384 0.0439
H7 H 0.0404 -0.4076 0.0985
H8 H 0.2148 -0.3780 0.1007
H9 H 0.1799 -0.1844 0.1341
H10 H 0.0078 -0.2254 0.1358
H11 H -0.0463 -0.0434 0.1008
H12 H 0.1227 0.0087 0.1035
H13 H 0.3841 -0.0232 0.0547
H14 H 0.4774 0.0988 0.0326
H15 H 0.5428 0.1612 0.0926
H16 H 0.3847 0.1141 0.1088
H17 H 0.3359 0.3452 0.1059
H18 H 0.4669 0.3760 0.0771
H19 H 0.3048 0.3767 0.0305
H20 H 0.1733 0.3496 0.0595
I1D I 0.2766(2) -0.1713(2) -0.0454(1)
O2D O -0.1257(21) 0.0826(25) -0.0595(3)
O3D O 0.1543(21) 0.2638(21) -0.0398(3)
C1D C -0.1871(34) -0.2750(39) -0.0280(7)
C2D C -0.3006(38) -0.3701(27) -0.0200(5)
C3D C -0.2850(30) 0.1178(30) -0.0582(6)
C6D C -0.0739(31) 0.0569(41) -0.0973(5)
C7D C 0.0832(34) 0.3990(36) -0.0509(7)
C10D C 0.3143(39) 0.2702(37) -0.0510(9)
H1D H -0.0963 -0.3334 -0.0307
H2D H -0.2098 -0.2258 -0.0515
H3D H -0.3993 -0.3628 -0.0311
H4D H -0.2858 -0.4703 -0.0103
C4D C -0.3338(35) 0.1186(51) -0.0949(8)
H5D H -0.3006 0.2151 -0.0469
H6D H -0.3384 0.0425 -0.0439
C5D C -0.2038(49) 0.0912(50) -0.1193(7)
H11D H -0.0434 -0.0463 -0.1008
H12D H 0.0087 0.1227 -0.1035
C8D C 0.1621(33) 0.4359(35) -0.0881(6)
H13D H -0.0232 0.3841 -0.0547
H14D H 0.0988 0.4774 -0.0326
C9D C 0.3110(31) 0.3834(45) -0.0831(8)
H19D H 0.3767 0.3048 -0.0305
H20D H 0.3496 0.1733 -0.0595
H7D H -0.4076 0.0404 -0.0985
H8D H -0.3780 0.2148 -0.1007
H9D H -0.1844 0.1799 -0.1341
H10D H -0.2254 0.0078 -0.1358
H15D H 0.1612 0.5428 -0.0926
H16D H 0.1141 0.3847 -0.1088
H17D H 0.3452 0.3359 -0.1059
H18D H 0.3760 0.4669 -0.0771
loop_
_geom_bond_atom_site_label_1
_geom_bond_atom_site_label_2
_geom_bond_site_symmetry_1
_geom_bond_site_symmetry_2
Sr1 I1 1_555 1_555
O1 Sr1 1_555 1_555
O2 Sr1 1_555 1_555
O3 Sr1 1_555 1_555
C1 O1 1_555 1_555
C2 C1 1_555 1_555
C3 O2 1_555 1_555
C4 C3 1_555 1_555
C5 C4 1_555 1_555
C6 O2 1_555 1_555
C7 O3 1_555 1_555
C8 C7 1_555 1_555
C9 C8 1_555 1_555
C10 O3 1_555 1_555
H1 C1 1_555 1_555
H2 C1 1_555 1_555
H3 C2 1_555 1_555
H4 C2 1_555 1_555
H5 C3 1_555 1_555
H6 C3 1_555 1_555
H7 C4 1_555 1_555
H8 C4 1_555 1_555
H9 C5 1_555 1_555
H10 C5 1_555 1_555
H11 C6 1_555 1_555
H12 C6 1_555 1_555
H13 C7 1_555 1_555
H14 C7 1_555 1_555
H15 C8 1_555 1_555
H16 C8 1_555 1_555
H17 C9 1_555 1_555
H18 C9 1_555 1_555
H19 C10 1_555 1_555
H20 C10 1_555 1_555
I1D Sr1 1_555 1_555
O2D Sr1 1_555 1_555
O3D Sr1 1_555 1_555
C1D O1 1_555 1_555
C2D C2 1_555 1_555
C3D O2D 1_555 1_555
C6D O2D 1_555 1_555
C7D O3D 1_555 1_555
C10D O3D 1_555 1_555
H1D C1D 1_555 1_555
H2D C1D 1_555 1_555
H3D C2D 1_555 1_555
H4D C2D 1_555 1_555
C4D C3D 1_555 1_555
H5D C3D 1_555 1_555
H6D C3D 1_555 1_555
C5D C6D 1_555 1_555
H11D C6D 1_555 1_555
H12D C6D 1_555 1_555
C8D C7D 1_555 1_555
H13D C7D 1_555 1_555
H14D C7D 1_555 1_555
C9D C10D 1_555 1_555
H19D C10D 1_555 1_555
H20D C10D 1_555 1_555
H7D C4D 1_555 1_555
H8D C4D 1_555 1_555
H9D C5D 1_555 1_555
H10D C5D 1_555 1_555
H15D C8D 1_555 1_555
H16D C8D 1_555 1_555
H17D C9D 1_555 1_555
H18D C9D 1_555 1_555
C5 C6 1_555 1_555
C9 C10 1_555 1_555
C1D C2D 1_555 1_555
C4D C5D 1_555 1_555
C8D C9D 1_555 1_555

#END
