
#######################################################################
#
#                 Cambridge Crystallographic Data Centre
#                                CCDC 
#
#######################################################################
#
# If this CIF has been generated from an entry in the Cambridge 
# Structural Database, then it will include bibliographic, chemical, 
# crystal, experimental, refinement or atomic coordinate data resulting 
# from the CCDC's data processing and validation procedures.
#
#######################################################################

data_YUGQIB
_chemical_formula_moiety         'C31 H32 O7'
_chemical_name_systematic        
'3-(5-Allyl-3-(benzyloxy)-4-hydroxytetrahydrofuran-2-yl)propane-1,2-diyl dibenzoate'
_symmetry_cell_setting           monoclinic
_symmetry_space_group_name_H-M   'P 21'
_symmetry_Int_Tables_number      4
_space_group_name_Hall           'P 2yb'
loop_
_symmetry_equiv_pos_site_id
_symmetry_equiv_pos_as_xyz
1 x,y,z
2 -x,1/2+y,-z
_cell_length_a                   6.07630(10)
_cell_length_b                   19.8560(3)
_cell_length_c                   11.4812(2)
_cell_angle_alpha                90
_cell_angle_beta                 104.1360(10)
_cell_angle_gamma                90
_cell_volume                     1343.27
_cell_formula_units_Z            2
loop_
_atom_site_label
_atom_site_type_symbol
_atom_site_fract_x
_atom_site_fract_y
_atom_site_fract_z
O1 O 0.33687(14) 0.54978(4) 0.11600(8)
C1 C 0.2838(2) 0.49810(6) 0.19266(11)
H1 H 0.2840 0.5185 0.2724
C2 C 0.0410(2) 0.47847(7) 0.12977(11)
H2 H -0.0385 0.4571 0.1869
C3 C -0.0650(2) 0.54704(7) 0.08522(12)
H3 H -0.1604 0.5435 0.0011
C4 C 0.1410(2) 0.59353(7) 0.09077(12)
H4 H 0.1543 0.6252 0.1598
C5 C 0.4603(2) 0.44266(7) 0.21139(12)
H5 H 0.6119 0.4618 0.2478
H6 H 0.4644 0.4228 0.1328
C6 C 0.4062(2) 0.38818(7) 0.29263(11)
H7 H 0.2443 0.3739 0.2628
C7 C 0.5590(2) 0.32754(7) 0.30178(13)
H8 H 0.5523 0.3099 0.2203
H9 H 0.7177 0.3409 0.3387
O2 O 0.49060(16) 0.27528(5) 0.37366(9)
C8 C 0.2962(2) 0.24282(7) 0.32184(12)
O3 O 0.18742(19) 0.25416(6) 0.22122(9)
C9 C 0.2326(2) 0.19227(7) 0.40348(13)
C10 C 0.3785(3) 0.17271(8) 0.51102(14)
H10 H 0.5267 0.1913 0.5348
C11 C 0.3077(3) 0.12602(9) 0.58358(16)
H11 H 0.4070 0.1129 0.6575
C12 C 0.0929(3) 0.09847(9) 0.54877(16)
H12 H 0.0450 0.0663 0.5987
C13 C -0.0514(3) 0.11743(9) 0.44227(16)
H13 H -0.1988 0.0982 0.4187
C14 C 0.0167(3) 0.16463(8) 0.36864(14)
H14 H -0.0838 0.1778 0.2951
O4 O 0.44001(14) 0.41700(5) 0.41242(8)
C15 C 0.2605(7) 0.4196(5) 0.4610(5)
O5 O 0.0699(8) 0.4036(3) 0.4111(7)
C16 C 0.3233(2) 0.44908(7) 0.58430(11)
C17 C 0.5200(2) 0.48674(7) 0.62392(12)
H15 H 0.6227 0.4921 0.5741
C18 C 0.5659(3) 0.51649(8) 0.73652(14)
H16 H 0.6990 0.5429 0.7636
C19 C 0.4169(3) 0.50767(8) 0.80970(13)
H17 H 0.4500 0.5274 0.8874
C20 C 0.2214(3) 0.47045(8) 0.77036(14)
H18 H 0.1199 0.4649 0.8208
C21 C 0.1728(2) 0.44122(8) 0.65776(13)
H19 H 0.0374 0.4159 0.6304
O6 O 0.04826(16) 0.43450(5) 0.03294(9)
C22 C -0.1343(2) 0.38748(8) 0.00595(13)
H20 H -0.2811 0.4117 -0.0137
H21 H -0.1297 0.3583 0.0764
C23 C -0.1121(2) 0.34529(7) -0.09930(13)
C24 C 0.0826(3) 0.30885(9) -0.09583(16)
H22 H 0.2047 0.3105 -0.0261
C25 C 0.1019(3) 0.27002(10) -0.19258(19)
H23 H 0.2365 0.2448 -0.1887
C26 C -0.0728(4) 0.26759(9) -0.29467(17)
H24 H -0.0588 0.2411 -0.3614
C27 C -0.2672(3) 0.30365(9) -0.29944(16)
H25 H -0.3880 0.3023 -0.3698
C28 C -0.2879(3) 0.34204(8) -0.20180(15)
H26 H -0.4240 0.3664 -0.2053
O7 O -0.19158(17) 0.57463(5) 0.16222(10)
H27 H -0.321(3) 0.5665(10) 0.1399(18)
C29 C 0.1345(2) 0.63430(8) -0.02102(14)
H28 H 0.1316 0.6033 -0.0889
H29 H -0.0067 0.6613 -0.0409
C30 C 0.3341(3) 0.68044(7) -0.00633(15)
H30 H 0.3603 0.7112 0.0590
C31 C 0.4758(3) 0.68203(9) -0.07583(17)
H31 H 0.4560 0.6521 -0.1422
H32 H 0.5985 0.7131 -0.0599
C32? C 0.2699(9) 0.4123(5) 0.4676(5)
O8? O 0.0989(8) 0.3811(3) 0.4264(8)
loop_
_geom_bond_atom_site_label_1
_geom_bond_atom_site_label_2
_geom_bond_site_symmetry_1
_geom_bond_site_symmetry_2
O1 C1 1_555 1_555
C1 H1 1_555 1_555
C2 C1 1_555 1_555
H2 C2 1_555 1_555
C3 C2 1_555 1_555
H3 C3 1_555 1_555
C4 O1 1_555 1_555
H4 C4 1_555 1_555
C5 C1 1_555 1_555
H5 C5 1_555 1_555
H6 C5 1_555 1_555
C6 C5 1_555 1_555
H7 C6 1_555 1_555
C7 C6 1_555 1_555
H8 C7 1_555 1_555
H9 C7 1_555 1_555
O2 C7 1_555 1_555
C8 O2 1_555 1_555
O3 C8 1_555 1_555
C9 C8 1_555 1_555
C10 C9 1_555 1_555
H10 C10 1_555 1_555
C11 C10 1_555 1_555
H11 C11 1_555 1_555
C12 C11 1_555 1_555
H12 C12 1_555 1_555
C13 C12 1_555 1_555
H13 C13 1_555 1_555
C14 C9 1_555 1_555
H14 C14 1_555 1_555
O4 C6 1_555 1_555
C15 O4 1_555 1_555
O5 C15 1_555 1_555
C16 C15 1_555 1_555
C17 C16 1_555 1_555
H15 C17 1_555 1_555
C18 C17 1_555 1_555
H16 C18 1_555 1_555
C19 C18 1_555 1_555
H17 C19 1_555 1_555
C20 C19 1_555 1_555
H18 C20 1_555 1_555
C21 C16 1_555 1_555
H19 C21 1_555 1_555
O6 C2 1_555 1_555
C22 O6 1_555 1_555
H20 C22 1_555 1_555
H21 C22 1_555 1_555
C23 C22 1_555 1_555
C24 C23 1_555 1_555
H22 C24 1_555 1_555
C25 C24 1_555 1_555
H23 C25 1_555 1_555
C26 C25 1_555 1_555
H24 C26 1_555 1_555
C27 C26 1_555 1_555
H25 C27 1_555 1_555
C28 C23 1_555 1_555
H26 C28 1_555 1_555
O7 C3 1_555 1_555
H27 O7 1_555 1_555
C29 C4 1_555 1_555
H28 C29 1_555 1_555
H29 C29 1_555 1_555
C30 C29 1_555 1_555
H30 C30 1_555 1_555
C31 C30 1_555 1_555
H31 C31 1_555 1_555
H32 C31 1_555 1_555
C3 C4 1_555 1_555
C13 C14 1_555 1_555
C20 C21 1_555 1_555
C27 C28 1_555 1_555

#END
