
#######################################################################
#
#                 Cambridge Crystallographic Data Centre
#                                CCDC 
#
#######################################################################
#
# If this CIF has been generated from an entry in the Cambridge 
# Structural Database, then it will include bibliographic, chemical, 
# crystal, experimental, refinement or atomic coordinate data resulting 
# from the CCDC's data processing and validation procedures.
#
#######################################################################

data_YUHCOU
_chemical_formula_moiety         'C13 H16 N2 O1'
_chemical_name_systematic        2-(4,5-Diethyl-1H-imidazol-2-yl)phenol
_symmetry_cell_setting           monoclinic
_symmetry_space_group_name_H-M   'C c'
_symmetry_Int_Tables_number      9
_space_group_name_Hall           'C -2yc'
loop_
_symmetry_equiv_pos_site_id
_symmetry_equiv_pos_as_xyz
1 x,y,z
2 x,-y,1/2+z
3 1/2+x,1/2+y,z
4 1/2+x,1/2-y,1/2+z
_cell_length_a                   13.748(3)
_cell_length_b                   20.316(4)
_cell_length_c                   13.030(3)
_cell_angle_alpha                90
_cell_angle_beta                 99.34(3)
_cell_angle_gamma                90
_cell_volume                     3591.09
_exptl_crystal_colour            colorless
_exptl_crystal_description       block
_chemical_melting_point          '154-155 deg.C'
_cell_formula_units_Z            12
loop_
_atom_site_label
_atom_site_type_symbol
_atom_site_fract_x
_atom_site_fract_y
_atom_site_fract_z
C1 C 0.4274(3) -0.05657(18) 0.9413(3)
H1 H 0.4153 -0.0534 1.0109
C2 C 0.3936(2) -0.02140(19) 0.7621(3)
C3 C 0.4607(3) -0.0678(2) 0.7391(3)
H2 H 0.4725 -0.0718 0.6696
C5 C 0.3082(2) 0.03528(18) 0.8906(3)
C6 C 0.5107(3) -0.1082(2) 0.8150(3)
H3 H 0.5558 -0.1399 0.7971
C7 C 0.1478(3) 0.1749(2) 0.8256(3)
H4 H 0.1101 0.1947 0.8765
H5 H 0.0996 0.1567 0.7679
C10 C 0.2221(2) 0.10037(18) 0.9784(3)
C12 C 0.2082(3) 0.12004(19) 0.8769(3)
C18 C 0.1854(3) 0.1280(2) 1.0722(3)
H11 H 0.1798 0.0919 1.1219
H12 H 0.1189 0.1468 1.0504
C21 C 0.2534(3) 0.1812(2) 1.1266(3)
H16 H 0.3196 0.1629 1.1478
H17 H 0.2277 0.1967 1.1882
H18 H 0.2566 0.2181 1.0788
O2 O 0.34584(17) 0.01741(14) 0.68473(16)
H23 H 0.3077 0.0432 0.7093
N3 N 0.2629(2) 0.07878(16) 0.8224(2)
N4 N 0.2852(2) 0.04757(14) 0.9866(2)
H26 H 0.3070 0.0255 1.0438
C36 C 0.3766(2) -0.01496(18) 0.8658(3)
C37 C 0.4953(3) -0.1027(2) 0.9174(3)
H42 H 0.5304 -0.1299 0.9701
C39 C 0.2061(4) 0.2287(2) 0.7829(5)
H46 H 0.1610 0.2629 0.7506
H47 H 0.2422 0.2100 0.7308
H48 H 0.2530 0.2479 0.8397
C4 C -0.1140(2) -0.10255(18) 0.2378(3)
C8 C 0.0557(3) 0.02244(19) 0.5095(3)
C9 C 0.0416(2) 0.01307(18) 0.4008(3)
C11 C 0.1204(3) 0.07019(19) 0.5569(3)
H6 H 0.1309 0.0751 0.6304
C13 C -0.1264(2) -0.12116(18) 0.3360(3)
C14 C 0.1697(3) 0.1107(2) 0.4961(3)
H7 H 0.2132 0.1437 0.5282
C15 C -0.0246(2) -0.03794(17) 0.3540(3)
C16 C 0.0922(3) 0.05465(19) 0.3419(3)
H8 H 0.0830 0.0497 0.2685
C17 C -0.1546(3) -0.1307(2) 0.1323(3)
H9 H -0.1665 -0.0943 0.0814
H10 H -0.2189 -0.1519 0.1359
C19 C -0.1881(3) -0.17603(19) 0.3671(3)
H13 H -0.2431 -0.1846 0.3097
H14 H -0.2169 -0.1620 0.4285
C20 C 0.1557(3) 0.1032(2) 0.3894(3)
H15 H 0.1894 0.1312 0.3484
C22 C -0.0869(3) -0.18081(19) 0.0941(3)
H19 H -0.0243 -0.1597 0.0868
H20 H -0.1181 -0.1981 0.0265
H21 H -0.0746 -0.2170 0.1442
O3 O 0.00710(19) -0.01572(13) 0.57175(19)
H24 H -0.0294 -0.0427 0.5348
N5 N -0.0702(2) -0.08082(15) 0.4079(2)
N6 N -0.0494(2) -0.05049(15) 0.2508(2)
H27 H -0.0276 -0.0289 0.2006
C38 C -0.1307(7) -0.2395(4) 0.3932(15)
H43 H -0.1751 -0.2735 0.4123
H44 H -0.0774 -0.2318 0.4517
H45 H -0.1027 -0.2541 0.3325
O1 O 0.66824(18) 0.01100(13) 0.57226(18)
H22 H 0.6315 0.0384 0.5954
N1 N 0.5932(2) 0.07972(15) 0.7065(2)
N2 N 0.6159(2) 0.05437(15) 0.8737(2)
H25 H 0.6382 0.0345 0.9328
C23 C 0.5491(3) 0.10568(19) 0.8604(3)
C24 C 0.7197(3) -0.0239(2) 0.6531(3)
C25 C 0.5358(3) 0.12016(19) 0.7573(3)
C26 C 0.6412(2) 0.03987(18) 0.7790(2)
C27 C 0.7082(3) -0.01243(19) 0.7573(3)
C28 C 0.7627(3) -0.05023(18) 0.8361(3)
H28 H 0.7560 -0.0427 0.9065
C29 C 0.8368(3) -0.1087(2) 0.7100(3)
H29 H 0.8809 -0.1417 0.6939
C30 C 0.4723(3) 0.1736(2) 0.7007(3)
H30 H 0.4217 0.1869 0.7427
H31 H 0.4379 0.1560 0.6336
C31 C 0.8268(3) -0.09877(19) 0.8123(3)
H32 H 0.8632 -0.1247 0.8659
C32 C 0.5074(3) 0.1344(2) 0.9507(3)
H33 H 0.4951 0.0982 0.9977
H34 H 0.4430 0.1551 0.9238
C33 C 0.7847(3) -0.0724(2) 0.6301(3)
H35 H 0.7929 -0.0803 0.5602
C34 C 0.5732(3) 0.1854(2) 1.0132(3)
H36 H 0.6368 0.1653 1.0411
H37 H 0.5415 0.2012 1.0707
H38 H 0.5836 0.2224 0.9681
C35 C 0.5325(4) 0.2341(2) 0.6798(4)
H39 H 0.5660 0.2521 0.7460
H40 H 0.4885 0.2675 0.6433
H41 H 0.5817 0.2214 0.6368
C40? C -0.1355(19) -0.2283(13) 0.439(3)
H49? H -0.1830 -0.2620 0.4521
H50? H -0.1058 -0.2080 0.5047
H51? H -0.0838 -0.2487 0.4058
loop_
_geom_bond_atom_site_label_1
_geom_bond_atom_site_label_2
_geom_bond_site_symmetry_1
_geom_bond_site_symmetry_2
C1 H1 1_555 1_555
C2 C3 1_555 1_555
C3 H2 1_555 1_555
C4 C13 1_555 1_555
C5 N3 1_555 1_555
C6 C3 1_555 1_555
H3 C6 1_555 1_555
C7 H4 1_555 1_555
H5 C7 1_555 1_555
C8 C9 1_555 1_555
C9 C15 1_555 1_555
C10 C12 1_555 1_555
C11 C8 1_555 1_555
H6 C11 1_555 1_555
C12 C7 1_555 1_555
C13 C19 1_555 1_555
C14 C11 1_555 1_555
H7 C14 1_555 1_555
C15 N5 1_555 1_555
C16 C9 1_555 1_555
H8 C16 1_555 1_555
C17 C4 1_555 1_555
H9 C17 1_555 1_555
H10 C17 1_555 1_555
C18 C10 1_555 1_555
H11 C18 1_555 1_555
H12 C18 1_555 1_555
C19 H13 1_555 1_555
H14 C19 1_555 1_555
C20 C14 1_555 1_555
H15 C20 1_555 1_555
C21 C18 1_555 1_555
H16 C21 1_555 1_555
H17 C21 1_555 1_555
H18 C21 1_555 1_555
C22 C17 1_555 1_555
H19 C22 1_555 1_555
H20 C22 1_555 1_555
H21 C22 1_555 1_555
O1 H22 1_555 1_555
O2 C2 1_555 1_555
H23 O2 1_555 1_555
O3 C8 1_555 1_555
H24 O3 1_555 1_555
N1 C25 1_555 1_555
N2 H25 1_555 1_555
N3 C12 1_555 1_555
N4 C5 1_555 1_555
H26 N4 1_555 1_555
N5 C13 1_555 1_555
N6 C4 1_555 1_555
H27 N6 1_555 1_555
C23 N2 1_555 1_555
C24 O1 1_555 1_555
C25 C23 1_555 1_555
C26 N1 1_555 1_555
C27 C24 1_555 1_555
C28 C27 1_555 1_555
H28 C28 1_555 1_555
C29 H29 1_555 1_555
C30 C25 1_555 1_555
H30 C30 1_555 1_555
H31 C30 1_555 1_555
C31 C28 1_555 1_555
H32 C31 1_555 1_555
C32 C23 1_555 1_555
H33 C32 1_555 1_555
H34 C32 1_555 1_555
C33 C24 1_555 1_555
H35 C33 1_555 1_555
C34 C32 1_555 1_555
H36 C34 1_555 1_555
H37 C34 1_555 1_555
H38 C34 1_555 1_555
C35 C30 1_555 1_555
H39 C35 1_555 1_555
H40 C35 1_555 1_555
H41 C35 1_555 1_555
C36 C1 1_555 1_555
C37 C1 1_555 1_555
H42 C37 1_555 1_555
C38 C19 1_555 1_555
H43 C38 1_555 1_555
H44 C38 1_555 1_555
H45 C38 1_555 1_555
C39 C7 1_555 1_555
H46 C39 1_555 1_555
H47 C39 1_555 1_555
H48 C39 1_555 1_555
C2 C36 1_555 1_555
C5 C36 1_555 1_555
C6 C37 1_555 1_555
C10 N4 1_555 1_555
C15 N6 1_555 1_555
C16 C20 1_555 1_555
N2 C26 1_555 1_555
C26 C27 1_555 1_555
C29 C31 1_555 1_555
C29 C33 1_555 1_555

#END
