
#######################################################################
#
#                 Cambridge Crystallographic Data Centre
#                                CCDC 
#
#######################################################################
#
# If this CIF has been generated from an entry in the Cambridge 
# Structural Database, then it will include bibliographic, chemical, 
# crystal, experimental, refinement or atomic coordinate data resulting 
# from the CCDC's data processing and validation procedures.
#
#######################################################################

data_YUJREC
_chemical_formula_moiety         'C32 H38 B20'
_chemical_name_systematic        
1,1'-(pentacene-6,13-diyldi(ethyne-2,1-diyl))bis(2-methyl-1,2-dicarba-closo-dodecaborane(10))
_symmetry_cell_setting           triclinic
_symmetry_space_group_name_H-M   'P -1'
_symmetry_Int_Tables_number      2
_space_group_name_Hall           '-P 1'
loop_
_symmetry_equiv_pos_site_id
_symmetry_equiv_pos_as_xyz
1 x,y,z
2 -x,-y,-z
_cell_length_a                   11.066(8)
_cell_length_b                   13.248(4)
_cell_length_c                   14.418(5)
_cell_angle_alpha                114.692(5)
_cell_angle_beta                 103.244(7)
_cell_angle_gamma                94.149(7)
_cell_volume                     1835.31
_exptl_crystal_colour            black
_exptl_crystal_description       block
_cell_formula_units_Z            2
loop_
_atom_site_label
_atom_site_type_symbol
_atom_site_fract_x
_atom_site_fract_y
_atom_site_fract_z
B1 B 0.1953(3) 0.4871(3) 0.5778(2)
H1 H 0.1927 0.5324 0.5272
B2 B 0.0591(3) 0.4008(3) 0.5686(2)
H2 H -0.0348 0.3895 0.5120
B3 B 0.1063(3) 0.2871(3) 0.5941(2)
H3 H 0.0438 0.2016 0.5551
B4 B 0.2745(3) 0.3039(3) 0.6197(2)
H4 H 0.3234 0.2298 0.5964
B5 B 0.2954(3) 0.5456(3) 0.7097(2)
H5 H 0.3586 0.6306 0.7473
B6 B 0.1278(3) 0.5294(3) 0.6844(2)
H6 H 0.0791 0.6037 0.7057
B7 B 0.0750(3) 0.4070(3) 0.6957(2)
H7 H -0.0089 0.4007 0.7255
B8 B 0.2077(3) 0.3462(3) 0.7264(2)
H8 H 0.2118 0.2994 0.7759
B9 B 0.3434(3) 0.4324(3) 0.7359(2)
H9 H 0.4381 0.4428 0.7912
B10 B 0.2200(3) 0.4956(3) 0.7820(2)
H10 H 0.2323 0.5484 0.8689
B11 B 0.3859(4) -0.1377(3) -0.2738(3)
H11 H 0.4020 -0.1746 -0.2159
B12 B 0.2343(3) -0.1579(3) -0.3603(2)
H12 H 0.1494 -0.2096 -0.3606
B13 B 0.2228(3) -0.0353(3) -0.3797(2)
H13 H 0.1307 -0.0060 -0.3927
B14 B 0.3675(3) 0.0621(3) -0.3051(2)
H14 H 0.3716 0.1558 -0.2677
B15 B 0.3565(3) -0.2198(3) -0.4118(2)
H15 H 0.3532 -0.3134 -0.4470
B16 B 0.2551(3) -0.1568(3) -0.4777(2)
H16 H 0.1841 -0.2088 -0.5572
B17 B 0.3377(3) -0.0202(3) -0.4429(2)
H17 H 0.3220 0.0190 -0.4990
B18 B 0.4881(3) -0.0001(3) -0.3570(2)
H18 H 0.5731 0.0531 -0.3548
B19 B 0.5007(3) -0.1228(3) -0.3380(2)
H19 H 0.5933 -0.1508 -0.3233
B20 B 0.4190(3) -0.1355(3) -0.4646(2)
H20 H 0.4565 -0.1730 -0.5351
C1 C 0.1819(2) 0.3433(2) 0.53086(17)
C2 C 0.3210(2) 0.4275(2) 0.61303(18)
C3 C 0.4280(3) 0.4300(3) 0.5657(2)
H21 H 0.4930 0.3940 0.5916
H22 H 0.4645 0.5087 0.5867
H23 H 0.3963 0.3890 0.4878
C4 C 0.1751(2) 0.2831(2) 0.41978(18)
C5 C 0.1723(2) 0.2424(2) 0.32836(18)
C6 C 0.1787(2) 0.1967(2) 0.22071(17)
C7 C 0.2176(2) 0.2720(2) 0.18240(18)
C8 C 0.2362(2) 0.3905(2) 0.24164(18)
H24 H 0.2252 0.4210 0.3110
C9 C 0.2700(2) 0.4641(2) 0.20214(18)
C10 C 0.2828(3) 0.5836(2) 0.25905(19)
H25 H 0.2714 0.6154 0.3283
C11 C 0.3108(3) 0.6529(2) 0.2163(2)
H26 H 0.3180 0.7323 0.2552
C12 C 0.3295(3) 0.6068(2) 0.1132(2)
H27 H 0.3480 0.6560 0.0836
C13 C 0.3214(3) 0.4940(2) 0.05673(19)
H28 H 0.3361 0.4653 -0.0112
C14 C 0.2910(2) 0.4179(2) 0.09809(18)
C15 C 0.2764(2) 0.3021(2) 0.04045(19)
H29 H 0.2930 0.2725 -0.0268
C16 C 0.2375(2) 0.2265(2) 0.07817(18)
C17 C 0.2147(2) 0.1079(2) 0.01623(17)
C18 C 0.1678(2) 0.0323(2) 0.05197(17)
C19 C 0.1396(2) -0.0856(2) -0.01073(18)
H30 H 0.1498 -0.1157 -0.0803
C20 C 0.0974(2) -0.1593(2) 0.02531(18)
C21 C 0.0690(2) -0.2787(2) -0.03781(19)
H31 H 0.0789 -0.3096 -0.1075
C22 C 0.0280(3) -0.3493(2) -0.0006(2)
H32 H 0.0106 -0.4288 -0.0438
C23 C 0.0109(3) -0.3045(2) 0.10361(19)
H33 H -0.0188 -0.3546 0.1287
C24 C 0.0367(3) -0.1916(2) 0.16672(19)
H34 H 0.0251 -0.1634 0.2358
C25 C 0.0814(2) -0.1132(2) 0.13116(18)
C26 C 0.1084(2) 0.0024(2) 0.19358(18)
H35 H 0.0979 0.0318 0.2630
C27 C 0.1511(2) 0.0780(2) 0.15736(17)
C28 C 0.2422(2) 0.0618(2) -0.08405(18)
C29 C 0.2690(3) 0.0225(2) -0.16566(19)
C30 C 0.3076(2) -0.0278(2) -0.26158(18)
C31 C 0.4625(3) -0.0061(2) -0.24817(19)
C32 C 0.5498(3) 0.0665(3) -0.1370(2)
H36 H 0.5877 0.1381 -0.1326
H37 H 0.6168 0.0265 -0.1214
H38 H 0.5015 0.0818 -0.0851
loop_
_geom_bond_atom_site_label_1
_geom_bond_atom_site_label_2
_geom_bond_site_symmetry_1
_geom_bond_site_symmetry_2
B1 H1 1_555 1_555
B2 B1 1_555 1_555
H2 B2 1_555 1_555
B3 B2 1_555 1_555
H3 B3 1_555 1_555
B4 B3 1_555 1_555
H4 B4 1_555 1_555
B5 B1 1_555 1_555
H5 B5 1_555 1_555
B6 B1 1_555 1_555
H6 B6 1_555 1_555
B7 B2 1_555 1_555
H7 B7 1_555 1_555
B8 B3 1_555 1_555
H8 B8 1_555 1_555
B9 B4 1_555 1_555
H9 B9 1_555 1_555
B10 B5 1_555 1_555
H10 B10 1_555 1_555
B11 H11 1_555 1_555
B12 B11 1_555 1_555
H12 B12 1_555 1_555
B13 B12 1_555 1_555
H13 B13 1_555 1_555
B14 B13 1_555 1_555
H14 B14 1_555 1_555
B15 B11 1_555 1_555
H15 B15 1_555 1_555
B16 B12 1_555 1_555
H16 B16 1_555 1_555
B17 B13 1_555 1_555
H17 B17 1_555 1_555
B18 B14 1_555 1_555
H18 B18 1_555 1_555
B19 B11 1_555 1_555
H19 B19 1_555 1_555
B20 B15 1_555 1_555
H20 B20 1_555 1_555
C1 B1 1_555 1_555
C2 B1 1_555 1_555
C3 C2 1_555 1_555
H21 C3 1_555 1_555
H22 C3 1_555 1_555
H23 C3 1_555 1_555
C4 C1 1_555 1_555
C5 C4 1_555 1_555
C6 C5 1_555 1_555
C7 C6 1_555 1_555
C8 C7 1_555 1_555
H24 C8 1_555 1_555
C9 C8 1_555 1_555
C10 C9 1_555 1_555
H25 C10 1_555 1_555
C11 C10 1_555 1_555
H26 C11 1_555 1_555
C12 C11 1_555 1_555
H27 C12 1_555 1_555
C13 C12 1_555 1_555
H28 C13 1_555 1_555
C14 C9 1_555 1_555
C15 C14 1_555 1_555
H29 C15 1_555 1_555
C16 C7 1_555 1_555
C17 C16 1_555 1_555
C18 C17 1_555 1_555
C19 C18 1_555 1_555
H30 C19 1_555 1_555
C20 C19 1_555 1_555
C21 C20 1_555 1_555
H31 C21 1_555 1_555
C22 C21 1_555 1_555
H32 C22 1_555 1_555
C23 C22 1_555 1_555
H33 C23 1_555 1_555
C24 C23 1_555 1_555
H34 C24 1_555 1_555
C25 C20 1_555 1_555
C26 C25 1_555 1_555
H35 C26 1_555 1_555
C27 C6 1_555 1_555
C28 C17 1_555 1_555
C29 C28 1_555 1_555
C30 B11 1_555 1_555
C31 B11 1_555 1_555
C32 C31 1_555 1_555
H36 C32 1_555 1_555
H37 C32 1_555 1_555
H38 C32 1_555 1_555
B2 B6 1_555 1_555
B2 C1 1_555 1_555
B3 B7 1_555 1_555
B3 C1 1_555 1_555
B4 B8 1_555 1_555
B4 C1 1_555 1_555
B4 C2 1_555 1_555
B5 B6 1_555 1_555
B5 B9 1_555 1_555
B5 C2 1_555 1_555
B6 B7 1_555 1_555
B6 B10 1_555 1_555
B7 B8 1_555 1_555
B7 B10 1_555 1_555
B8 B9 1_555 1_555
B8 B10 1_555 1_555
B9 B10 1_555 1_555
B9 C2 1_555 1_555
B12 B15 1_555 1_555
B12 C30 1_555 1_555
B13 B16 1_555 1_555
B13 C30 1_555 1_555
B14 B17 1_555 1_555
B14 C30 1_555 1_555
B14 C31 1_555 1_555
B15 B16 1_555 1_555
B15 B19 1_555 1_555
B16 B17 1_555 1_555
B16 B20 1_555 1_555
B17 B18 1_555 1_555
B17 B20 1_555 1_555
B18 B19 1_555 1_555
B18 B20 1_555 1_555
B18 C31 1_555 1_555
B19 B20 1_555 1_555
B19 C31 1_555 1_555
C1 C2 1_555 1_555
C13 C14 1_555 1_555
C15 C16 1_555 1_555
C18 C27 1_555 1_555
C24 C25 1_555 1_555
C26 C27 1_555 1_555
C29 C30 1_555 1_555
C30 C31 1_555 1_555

#END
