
#######################################################################
#
#                 Cambridge Crystallographic Data Centre
#                                CCDC 
#
#######################################################################
#
# If this CIF has been generated from an entry in the Cambridge 
# Structural Database, then it will include bibliographic, chemical, 
# crystal, experimental, refinement or atomic coordinate data resulting 
# from the CCDC's data processing and validation procedures.
#
#######################################################################

data_YUJRIG
_chemical_formula_moiety         'C34 H42 B20'
_chemical_name_systematic        
1,1'-(pentacene-6,13-diyldi(ethyne-2,1-diyl))bis(2-ethyl-1,2-dicarba-closo-dodecaborane(10))
_symmetry_cell_setting           monoclinic
_symmetry_space_group_name_H-M   'C 2/c'
_symmetry_Int_Tables_number      15
_space_group_name_Hall           '-C 2yn'
loop_
_symmetry_equiv_pos_site_id
_symmetry_equiv_pos_as_xyz
1 x,y,z
2 -x,y,1/2-z
3 1/2+x,1/2+y,z
4 1/2-x,1/2+y,1/2-z
5 -x,-y,-z
6 x,-y,1/2+z
7 1/2-x,1/2-y,-z
8 1/2+x,1/2-y,1/2+z
_cell_length_a                   20.184(3)
_cell_length_b                   14.426(2)
_cell_length_c                   14.526(2)
_cell_angle_alpha                90
_cell_angle_beta                 118.624(3)
_cell_angle_gamma                90
_cell_volume                     3712.67
_exptl_crystal_colour            black
_exptl_crystal_description       block
_cell_formula_units_Z            4
loop_
_atom_site_label
_atom_site_type_symbol
_atom_site_fract_x
_atom_site_fract_y
_atom_site_fract_z
C1 C 0.11446(14) 0.83691(16) 0.17309(18)
C2 C 0.19361(14) 0.84181(16) 0.28944(17)
C3 C 0.22622(16) 0.74958(17) 0.3429(2)
H1 H 0.2018 0.7321 0.3854
H2 H 0.2132 0.7015 0.2882
C4 C 0.31104(17) 0.7493(2) 0.4132(2)
H3 H 0.3362 0.7590 0.3706
H4 H 0.3267 0.6895 0.4493
H5 H 0.3251 0.7991 0.4651
C5 C 0.08386(15) 0.74690(17) 0.13322(18)
C6 C 0.05696(14) 0.67414(17) 0.09625(18)
C7 C 0.02690(14) 0.58636(16) 0.04882(18)
C8 C -0.01585(13) 0.58199(16) -0.06155(18)
C9 C -0.03439(14) 0.66183(17) -0.12444(18)
H6 H -0.0174 0.7205 -0.0918
C10 C -0.07675(14) 0.65737(16) -0.23265(18)
C11 C -0.09864(16) 0.73894(18) -0.2964(2)
H7 H -0.0834 0.7979 -0.2640
C12 C -0.14011(16) 0.73385(19) -0.4006(2)
H8 H -0.1549 0.7890 -0.4413
C13 C -0.16222(16) 0.6462(2) -0.4509(2)
H9 H -0.1907 0.6433 -0.5252
C14 C -0.14328(15) 0.56687(19) -0.39457(19)
H10 H -0.1584 0.5090 -0.4297
C15 C -0.10098(14) 0.56908(17) -0.28331(18)
C16 C -0.08293(14) 0.48975(17) -0.22237(18)
H11 H -0.0983 0.4312 -0.2560
C17 C -0.04230(14) 0.49313(16) -0.11170(18)
B1 B 0.19867(18) 0.8658(2) 0.1762(2)
H12 H 0.2290 0.8212 0.1452
B2 B 0.11234(17) 0.92347(19) 0.0917(2)
H13 H 0.0860 0.9176 0.0043
B3 B 0.05659(19) 0.9284(2) 0.1567(2)
H14 H -0.0065 0.9258 0.1118
B4 B 0.10824(18) 0.8736(2) 0.2814(2)
H15 H 0.0795 0.8341 0.3186
B5 B 0.24741(19) 0.9337(2) 0.2914(2)
H16 H 0.3106 0.9353 0.3362
B6 B 0.19584(18) 0.9876(2) 0.1669(2)
H17 H 0.2250 1.0255 0.1291
B7 B 0.10815(18) 1.0265(2) 0.1550(2)
H18 H 0.0792 1.0902 0.1093
B8 B 0.10593(19) 0.9958(2) 0.2728(2)
H19 H 0.0757 1.0388 0.3052
B9 B 0.19216(18) 0.9375(2) 0.3565(2)
H20 H 0.2190 0.9410 0.4441
B10 B 0.19134(19) 1.0325(2) 0.2780(2)
H21 H 0.2174 1.1008 0.3137
C1D C -0.11446(14) 0.16309(16) -0.17309(18)
C2D C -0.19361(14) 0.15819(16) -0.28944(17)
C3D C -0.22622(16) 0.25042(17) -0.3429(2)
H1D H -0.2018 0.2679 -0.3854
H2D H -0.2132 0.2985 -0.2882
C4D C -0.31104(17) 0.2507(2) -0.4132(2)
H3D H -0.3362 0.2410 -0.3706
H4D H -0.3267 0.3105 -0.4493
H5D H -0.3251 0.2009 -0.4651
C5D C -0.08386(15) 0.25310(17) -0.13322(18)
C6D C -0.05696(14) 0.32586(17) -0.09625(18)
C7D C -0.02690(14) 0.41364(16) -0.04882(18)
C8D C 0.01585(13) 0.41801(16) 0.06155(18)
C9D C 0.03439(14) 0.33817(17) 0.12444(18)
H6D H 0.0174 0.2795 0.0918
C10D C 0.07675(14) 0.34263(16) 0.23265(18)
C11D C 0.09864(16) 0.26106(18) 0.2964(2)
H7D H 0.0834 0.2021 0.2640
C12D C 0.14011(16) 0.26615(19) 0.4006(2)
H8D H 0.1549 0.2110 0.4413
C13D C 0.16222(16) 0.3538(2) 0.4509(2)
H9D H 0.1907 0.3567 0.5252
C14D C 0.14328(15) 0.43313(19) 0.39457(19)
H10D H 0.1584 0.4910 0.4297
C15D C 0.10098(14) 0.43092(17) 0.28331(18)
C16D C 0.08293(14) 0.51025(17) 0.22237(18)
H11D H 0.0983 0.5688 0.2560
C17D C 0.04230(14) 0.50687(16) 0.11170(18)
B1D B -0.19867(18) 0.1342(2) -0.1762(2)
H12D H -0.2290 0.1788 -0.1452
B2D B -0.11234(17) 0.07653(19) -0.0917(2)
H13D H -0.0860 0.0824 -0.0043
B3D B -0.05659(19) 0.0716(2) -0.1567(2)
H14D H 0.0065 0.0742 -0.1118
B4D B -0.10824(18) 0.1264(2) -0.2814(2)
H15D H -0.0795 0.1659 -0.3186
B5D B -0.24741(19) 0.0663(2) -0.2914(2)
H16D H -0.3106 0.0647 -0.3362
B6D B -0.19584(18) 0.0124(2) -0.1669(2)
H17D H -0.2250 -0.0255 -0.1291
B7D B -0.10815(18) -0.0265(2) -0.1550(2)
H18D H -0.0792 -0.0902 -0.1093
B8D B -0.10593(19) 0.0042(2) -0.2728(2)
H19D H -0.0757 -0.0388 -0.3052
B9D B -0.19216(18) 0.0625(2) -0.3565(2)
H20D H -0.2190 0.0590 -0.4441
B10D B -0.19134(19) -0.0325(2) -0.2780(2)
H21D H -0.2174 -0.1008 -0.3137
loop_
_geom_bond_atom_site_label_1
_geom_bond_atom_site_label_2
_geom_bond_site_symmetry_1
_geom_bond_site_symmetry_2
C1 C2 1_555 1_555
C2 C3 1_555 1_555
C3 H1 1_555 1_555
H2 C3 1_555 1_555
C4 C3 1_555 1_555
H3 C4 1_555 1_555
H4 C4 1_555 1_555
H5 C4 1_555 1_555
C5 C1 1_555 1_555
C6 C5 1_555 1_555
C7 C6 1_555 1_555
C8 C7 1_555 1_555
C9 C8 1_555 1_555
H6 C9 1_555 1_555
C10 C9 1_555 1_555
C11 C10 1_555 1_555
H7 C11 1_555 1_555
C12 C11 1_555 1_555
H8 C12 1_555 1_555
C13 C12 1_555 1_555
H9 C13 1_555 1_555
C14 C13 1_555 1_555
H10 C14 1_555 1_555
C15 C10 1_555 1_555
C16 C15 1_555 1_555
H11 C16 1_555 1_555
C17 C8 1_555 1_555
B1 C1 1_555 1_555
H12 B1 1_555 1_555
B2 C1 1_555 1_555
H13 B2 1_555 1_555
B3 C1 1_555 1_555
H14 B3 1_555 1_555
B4 C1 1_555 1_555
H15 B4 1_555 1_555
B5 C2 1_555 1_555
H16 B5 1_555 1_555
B6 B1 1_555 1_555
H17 B6 1_555 1_555
B7 B2 1_555 1_555
H18 B7 1_555 1_555
B8 B3 1_555 1_555
H19 B8 1_555 1_555
B9 C2 1_555 1_555
H20 B9 1_555 1_555
B10 B5 1_555 1_555
H21 B10 1_555 1_555
C1D C2D 1_555 1_555
C2D C3D 1_555 1_555
C3D H1D 1_555 1_555
H2D C3D 1_555 1_555
C4D C3D 1_555 1_555
H3D C4D 1_555 1_555
H4D C4D 1_555 1_555
H5D C4D 1_555 1_555
C5D C1D 1_555 1_555
C6D C5D 1_555 1_555
C7D C17 1_555 1_555
C8D C7D 1_555 1_555
C9D C8D 1_555 1_555
H6D C9D 1_555 1_555
C10D C9D 1_555 1_555
C11D C10D 1_555 1_555
H7D C11D 1_555 1_555
C12D C11D 1_555 1_555
H8D C12D 1_555 1_555
C13D C12D 1_555 1_555
H9D C13D 1_555 1_555
C14D C13D 1_555 1_555
H10D C14D 1_555 1_555
C15D C10D 1_555 1_555
C16D C15D 1_555 1_555
H11D C16D 1_555 1_555
C17D C7 1_555 1_555
B1D C1D 1_555 1_555
H12D B1D 1_555 1_555
B2D C1D 1_555 1_555
H13D B2D 1_555 1_555
B3D C1D 1_555 1_555
H14D B3D 1_555 1_555
B4D C1D 1_555 1_555
H15D B4D 1_555 1_555
B5D C2D 1_555 1_555
H16D B5D 1_555 1_555
B6D B1D 1_555 1_555
H17D B6D 1_555 1_555
B7D B2D 1_555 1_555
H18D B7D 1_555 1_555
B8D B3D 1_555 1_555
H19D B8D 1_555 1_555
B9D C2D 1_555 1_555
H20D B9D 1_555 1_555
B10D B5D 1_555 1_555
H21D B10D 1_555 1_555
C2 B1 1_555 1_555
C2 B4 1_555 1_555
C14 C15 1_555 1_555
C16 C17 1_555 1_555
B1 B2 1_555 1_555
B1 B5 1_555 1_555
B2 B3 1_555 1_555
B2 B6 1_555 1_555
B3 B4 1_555 1_555
B3 B7 1_555 1_555
B4 B8 1_555 1_555
B4 B9 1_555 1_555
B5 B6 1_555 1_555
B5 B9 1_555 1_555
B6 B7 1_555 1_555
B6 B10 1_555 1_555
B7 B8 1_555 1_555
B7 B10 1_555 1_555
B8 B9 1_555 1_555
B8 B10 1_555 1_555
B9 B10 1_555 1_555
C2D B1D 1_555 1_555
C2D B4D 1_555 1_555
C6D C7D 1_555 1_555
C8D C17D 1_555 1_555
C14D C15D 1_555 1_555
C16D C17D 1_555 1_555
B1D B2D 1_555 1_555
B1D B5D 1_555 1_555
B2D B3D 1_555 1_555
B2D B6D 1_555 1_555
B3D B4D 1_555 1_555
B3D B7D 1_555 1_555
B4D B8D 1_555 1_555
B4D B9D 1_555 1_555
B5D B6D 1_555 1_555
B5D B9D 1_555 1_555
B6D B7D 1_555 1_555
B6D B10D 1_555 1_555
B7D B8D 1_555 1_555
B7D B10D 1_555 1_555
B8D B9D 1_555 1_555
B8D B10D 1_555 1_555
B9D B10D 1_555 1_555

#END
