
#######################################################################
#
#                 Cambridge Crystallographic Data Centre
#                                CCDC 
#
#######################################################################
#
# If this CIF has been generated from an entry in the Cambridge 
# Structural Database, then it will include bibliographic, chemical, 
# crystal, experimental, refinement or atomic coordinate data resulting 
# from the CCDC's data processing and validation procedures.
#
#######################################################################

data_YUJTII
_chemical_formula_moiety         'C24 H24 N4 2+,C10 H4 O8 2-'
_chemical_name_systematic        
"1,1'-(1,4-phenylenebis(methylene))bis(2-methyl-1H-3,1-benzimidazol-3-ium) 2,5-dicarboxyterephthalate"
_symmetry_cell_setting           triclinic
_symmetry_space_group_name_H-M   'P -1'
_symmetry_Int_Tables_number      2
_space_group_name_Hall           '-P 1'
loop_
_symmetry_equiv_pos_site_id
_symmetry_equiv_pos_as_xyz
1 x,y,z
2 -x,-y,-z
_cell_length_a                   7.0252(14)
_cell_length_b                   9.6065(19)
_cell_length_c                   10.749(2)
_cell_angle_alpha                97.47(3)
_cell_angle_beta                 92.10(3)
_cell_angle_gamma                91.01(3)
_cell_volume                     718.601
_exptl_crystal_colour            colorless
_exptl_crystal_description       block
_cell_formula_units_Z            1
loop_
_atom_site_label
_atom_site_type_symbol
_atom_site_fract_x
_atom_site_fract_y
_atom_site_fract_z
N1 N 0.2212(2) 0.06232(17) 0.79318(14)
N2 N 0.3087(2) 0.15494(19) 0.98210(16)
H1 H 0.3494 0.2152 1.0440
C1 C 0.1994(3) -0.0425(2) 0.87027(18)
C2 C 0.1737(3) 0.0476(3) 0.65769(18)
H2 H 0.1106 0.1316 0.6384
H3 H 0.0848 -0.0310 0.6362
C3 C 0.4831(3) -0.0708(2) 0.60264(19)
H4 H 0.4728 -0.1189 0.6719
C4 C 0.3456(3) 0.0244(2) 0.57772(17)
C5 C 0.3639(3) 0.0953(2) 0.47462(19)
H5 H 0.2730 0.1599 0.4569
C6 C 0.2550(3) 0.0176(2) 0.99053(19)
C7 C 0.2879(3) 0.1793(2) 0.86453(19)
C8 C 0.2491(3) -0.0576(3) 1.0923(2)
H6 H 0.2858 -0.0170 1.1731
C9 C 0.1339(3) -0.1812(2) 0.8457(2)
H7 H 0.0947 -0.2218 0.7654
C10 C 0.1302(4) -0.2546(3) 0.9470(3)
H8 H 0.0887 -0.3480 0.9344
C11 C 0.3337(4) 0.3135(3) 0.8184(3)
H9 H 0.3653 0.3837 0.8884
H10 H 0.2255 0.3425 0.7719
H11 H 0.4402 0.3015 0.7648
C12 C 0.1864(4) -0.1946(3) 1.0676(3)
H12 H 0.1813 -0.2486 1.1332
N1A N 0.7788(2) -0.06232(17) 0.20682(14)
N2A N 0.6913(2) -0.15494(19) 0.01790(16)
H1A H 0.6506 -0.2152 -0.0440
C1A C 0.8006(3) 0.0425(2) 0.12973(18)
C2A C 0.8263(3) -0.0476(3) 0.34231(18)
H2A H 0.8894 -0.1316 0.3616
H3A H 0.9152 0.0310 0.3638
C3A C 0.5169(3) 0.0708(2) 0.39736(19)
H4A H 0.5272 0.1189 0.3281
C4A C 0.6544(3) -0.0244(2) 0.42228(17)
C5A C 0.6361(3) -0.0953(2) 0.52538(19)
H5A H 0.7270 -0.1599 0.5431
C6A C 0.7450(3) -0.0176(2) 0.00947(19)
C7A C 0.7121(3) -0.1793(2) 0.13547(19)
C8A C 0.7509(3) 0.0576(3) -0.0923(2)
H6A H 0.7142 0.0170 -0.1731
C9A C 0.8661(3) 0.1812(2) 0.1543(2)
H7A H 0.9053 0.2218 0.2346
C10A C 0.8698(4) 0.2546(3) 0.0530(3)
H8A H 0.9113 0.3480 0.0656
C11A C 0.6663(4) -0.3135(3) 0.1816(3)
H9A H 0.6347 -0.3837 0.1116
H10A H 0.7745 -0.3425 0.2281
H11A H 0.5598 -0.3015 0.2352
C12A C 0.8136(4) 0.1946(3) -0.0676(3)
H12A H 0.8187 0.2486 -0.1332
C13 C 0.3210(3) 0.5553(2) 0.46863(18)
C14 C 0.5927(3) 0.4177(2) 0.41231(19)
H13 H 0.6575 0.3619 0.3512
C15 C 0.4173(3) 0.4674(2) 0.37738(18)
O1 O 0.4260(3) 0.30993(19) 0.19114(15)
C16 C 0.3496(3) 0.4156(2) 0.24267(19)
O2 O 0.2248(3) 0.48155(18) 0.18857(15)
O3 O 0.0656(3) 0.6378(2) 0.34097(17)
H14 H 0.1229 0.5845 0.2903
C17 C 0.1353(3) 0.6313(2) 0.4527(2)
O4 O 0.0589(2) 0.6892(2) 0.54410(17)
C13A C 0.6790(3) 0.4447(2) 0.53137(18)
C14A C 0.4073(3) 0.5823(2) 0.58769(19)
H13A H 0.3425 0.6381 0.6488
C15A C 0.5827(3) 0.5326(2) 0.62262(18)
O1A O 0.5740(3) 0.69007(19) 0.80886(15)
C16A C 0.6504(3) 0.5844(2) 0.75733(19)
O2A O 0.7752(3) 0.51845(18) 0.81143(15)
O3A O 0.9344(3) 0.3622(2) 0.65903(17)
H14A H 0.8771 0.4155 0.7097
C17A C 0.8647(3) 0.3687(2) 0.5473(2)
O4A O 0.9411(2) 0.3108(2) 0.45590(17)
loop_
_geom_bond_atom_site_label_1
_geom_bond_atom_site_label_2
_geom_bond_site_symmetry_1
_geom_bond_site_symmetry_2
N1 C1 1_555 1_555
N2 H1 1_555 1_555
C1 C6 1_555 1_555
C2 N1 1_555 1_555
H2 C2 1_555 1_555
H3 C2 1_555 1_555
C3 H4 1_555 1_555
C4 C2 1_555 1_555
C5 C4 1_555 1_555
H5 C5 1_555 1_555
C6 N2 1_555 1_555
C7 N1 1_555 1_555
C8 C6 1_555 1_555
H6 C8 1_555 1_555
C9 C1 1_555 1_555
H7 C9 1_555 1_555
C10 C9 1_555 1_555
H8 C10 1_555 1_555
C11 C7 1_555 1_555
H9 C11 1_555 1_555
H10 C11 1_555 1_555
H11 C11 1_555 1_555
C12 C8 1_555 1_555
H12 C12 1_555 1_555
C13 C15 1_555 1_555
C14 H13 1_555 1_555
C15 C14 1_555 1_555
O1 C16 1_555 1_555
C16 C15 1_555 1_555
O2 C16 1_555 1_555
O3 H14 1_555 1_555
C17 C13 1_555 1_555
O4 C17 1_555 1_555
N1A C1A 1_555 1_555
N2A H1A 1_555 1_555
C1A C6A 1_555 1_555
C2A N1A 1_555 1_555
H2A C2A 1_555 1_555
H3A C2A 1_555 1_555
C3A C5 1_555 1_555
H4A C3A 1_555 1_555
C4A C2A 1_555 1_555
C5A C3 1_555 1_555
H5A C5A 1_555 1_555
C6A N2A 1_555 1_555
C7A N1A 1_555 1_555
C8A C6A 1_555 1_555
H6A C8A 1_555 1_555
C9A C1A 1_555 1_555
H7A C9A 1_555 1_555
C10A C9A 1_555 1_555
H8A C10A 1_555 1_555
C11A C7A 1_555 1_555
H9A C11A 1_555 1_555
H10A C11A 1_555 1_555
H11A C11A 1_555 1_555
C12A C8A 1_555 1_555
H12A C12A 1_555 1_555
C13A C14 1_555 1_555
C14A C13 1_555 1_555
H13A C14A 1_555 1_555
C15A C13A 1_555 1_555
O1A C16A 1_555 1_555
C16A C15A 1_555 1_555
O2A C16A 1_555 1_555
O3A H14A 1_555 1_555
C17A C13A 1_555 1_555
O4A C17A 1_555 1_555
N2 C7 1_555 1_555
C3 C4 1_555 1_555
C10 C12 1_555 1_555
O3 C17 1_555 1_555
N2A C7A 1_555 1_555
C3A C4A 1_555 1_555
C4A C5A 1_555 1_555
C10A C12A 1_555 1_555
C14A C15A 1_555 1_555
O3A C17A 1_555 1_555

#END
