
#######################################################################
#
#                 Cambridge Crystallographic Data Centre
#                                CCDC 
#
#######################################################################
#
# If this CIF has been generated from an entry in the Cambridge 
# Structural Database, then it will include bibliographic, chemical, 
# crystal, experimental, refinement or atomic coordinate data resulting 
# from the CCDC's data processing and validation procedures.
#
#######################################################################

data_YUJTII01
_chemical_formula_moiety         'C24 H24 N4 2+,C10 H4 O8 2-'
_chemical_name_systematic        
"1,1'-[1,4-phenylenebis(methylene)]bis(2-methyl-1H-benzimidazol-3-ium) 2,5-dicarboxyterephthalate"
_symmetry_cell_setting           triclinic
_symmetry_space_group_name_H-M   'P -1'
_symmetry_Int_Tables_number      2
_space_group_name_Hall           '-P 1'
loop_
_symmetry_equiv_pos_site_id
_symmetry_equiv_pos_as_xyz
1 x,y,z
2 -x,-y,-z
_cell_length_a                   6.9857(5)
_cell_length_b                   9.4468(6)
_cell_length_c                   10.8032(7)
_cell_angle_alpha                97.504(5)
_cell_angle_beta                 91.771(5)
_cell_angle_gamma                91.271(5)
_cell_volume                     706.24
_exptl_crystal_colour            colorless
_exptl_crystal_description       block
_cell_formula_units_Z            1
loop_
_atom_site_label
_atom_site_type_symbol
_atom_site_fract_x
_atom_site_fract_y
_atom_site_fract_z
O1 O 0.4314(3) 0.31407(18) 0.18860(14)
O2 O 0.2161(2) 0.48197(17) 0.19227(14)
O3 O 0.9484(2) 0.31414(18) 0.44859(15)
O4 O 0.9414(3) 0.35970(18) 0.65266(15)
H1 H 0.8866 0.4147 0.7042
C1 C 0.3483(3) 0.4178(2) 0.2435(2)
C2 C 0.5956(3) 0.4199(2) 0.4105(2)
H2 H 0.6621 0.3663 0.3482
C3 C 0.6821(3) 0.4453(2) 0.5290(2)
C4 C 0.8712(3) 0.3699(2) 0.5416(2)
C5 C 0.4166(3) 0.4688(2) 0.3778(2)
O1A O 0.5686(3) 0.68593(18) 0.81140(14)
O2A O 0.7839(2) 0.51803(17) 0.80773(14)
O3A O 0.0516(2) 0.68586(18) 0.55141(15)
O4A O 0.0586(3) 0.64030(18) 0.34734(15)
H1A H 0.1134 0.5853 0.2958
C1A C 0.6517(3) 0.5822(2) 0.7565(2)
C2A C 0.4044(3) 0.5801(2) 0.5895(2)
H2A H 0.3379 0.6337 0.6518
C3A C 0.3179(3) 0.5547(2) 0.4710(2)
C4A C 0.1288(3) 0.6301(2) 0.4584(2)
C5A C 0.5834(3) 0.5312(2) 0.6222(2)
N1 N 0.3122(3) 0.1565(2) 0.98090(16)
H3 H 0.3542 0.2193 1.0410
N2 N 0.2216(3) 0.05665(19) 0.79416(16)
C6 C 0.1987(3) -0.0473(2) 0.8738(2)
C7 C 0.4865(3) -0.0740(2) 0.6015(2)
H4 H 0.4780 -0.1237 0.6700
C8 C 0.1718(3) 0.0396(3) 0.65950(19)
H5 H 0.1038 0.1229 0.6405
H6 H 0.0861 -0.0429 0.6392
C9 C 0.2558(3) 0.0177(2) 0.99274(19)
C10 C 0.3448(3) 0.0208(2) 0.57827(19)
C11 C 0.2494(3) -0.0555(3) 1.0961(2)
H7 H 0.2874 -0.0121 1.1755
C12 C 0.6401(3) -0.0955(2) 0.5239(2)
H8 H 0.7333 -0.1601 0.5401
C13 C 0.2913(3) 0.1775(2) 0.8625(2)
C14 C 0.1264(4) -0.2608(3) 0.9554(2)
H9 H 0.0841 -0.3558 0.9452
C15 C 0.1302(3) -0.1886(2) 0.8521(2)
H10 H 0.0895 -0.2316 0.7730
C16 C 0.1843(4) -0.1954(3) 1.0752(2)
H11 H 0.1786 -0.2479 1.1421
C17 C 0.3403(4) 0.3119(3) 0.8129(2)
H12 H 0.3654 0.3866 0.8811
H13 H 0.2351 0.3375 0.7618
H14 H 0.4521 0.2989 0.7637
N1A N 0.6878(3) -0.1565(2) 0.01910(16)
H3A H 0.6458 -0.2193 -0.0410
N2A N 0.7784(3) -0.05665(19) 0.20584(16)
C6A C 0.8013(3) 0.0473(2) 0.1262(2)
C7A C 0.5135(3) 0.0740(2) 0.3985(2)
H4A H 0.5220 0.1237 0.3300
C8A C 0.8282(3) -0.0396(3) 0.34050(19)
H5A H 0.8962 -0.1229 0.3595
H6A H 0.9139 0.0429 0.3608
C9A C 0.7442(3) -0.0177(2) 0.00726(19)
C10A C 0.6552(3) -0.0208(2) 0.42173(19)
C11A C 0.7506(3) 0.0555(3) -0.0961(2)
H7A H 0.7126 0.0121 -0.1755
C12A C 0.3599(3) 0.0955(2) 0.4761(2)
H8A H 0.2667 0.1601 0.4599
C13A C 0.7087(3) -0.1775(2) 0.1375(2)
C14A C 0.8736(4) 0.2608(3) 0.0446(2)
H9A H 0.9159 0.3558 0.0548
C15A C 0.8698(3) 0.1886(2) 0.1479(2)
H10A H 0.9105 0.2316 0.2270
C16A C 0.8157(4) 0.1954(3) -0.0752(2)
H11A H 0.8214 0.2479 -0.1421
C17A C 0.6597(4) -0.3119(3) 0.1871(2)
H12A H 0.6346 -0.3866 0.1189
H13A H 0.7649 -0.3375 0.2382
H14A H 0.5479 -0.2989 0.2363
loop_
_geom_bond_atom_site_label_1
_geom_bond_atom_site_label_2
_geom_bond_site_symmetry_1
_geom_bond_site_symmetry_2
O1 C1 1_555 1_555
O2 C1 1_555 1_555
O3 C4 1_555 1_555
O4 H1 1_555 1_555
C1 C5 1_555 1_555
C2 H2 1_555 1_555
C3 C2 1_555 1_555
C4 O4 1_555 1_555
C5 C2 1_555 1_555
N1 H3 1_555 1_555
N2 C6 1_555 1_555
C6 C9 1_555 1_555
C7 H4 1_555 1_555
C8 N2 1_555 1_555
H5 C8 1_555 1_555
H6 C8 1_555 1_555
C9 N1 1_555 1_555
C10 C7 1_555 1_555
C11 C9 1_555 1_555
H7 C11 1_555 1_555
C12 C7 1_555 1_555
H8 C12 1_555 1_555
C13 N1 1_555 1_555
C14 H9 1_555 1_555
C15 C6 1_555 1_555
H10 C15 1_555 1_555
C16 C11 1_555 1_555
H11 C16 1_555 1_555
C17 C13 1_555 1_555
H12 C17 1_555 1_555
H13 C17 1_555 1_555
H14 C17 1_555 1_555
O1A C1A 1_555 1_555
O2A C1A 1_555 1_555
O3A C4A 1_555 1_555
O4A H1A 1_555 1_555
C1A C5A 1_555 1_555
C2A H2A 1_555 1_555
C3A C5 1_555 1_555
C4A O4A 1_555 1_555
C5A C3 1_555 1_555
N1A H3A 1_555 1_555
N2A C6A 1_555 1_555
C6A C9A 1_555 1_555
C7A H4A 1_555 1_555
C8A N2A 1_555 1_555
H5A C8A 1_555 1_555
H6A C8A 1_555 1_555
C9A N1A 1_555 1_555
C10A C12 1_555 1_555
C11A C9A 1_555 1_555
H7A C11A 1_555 1_555
C12A C10 1_555 1_555
H8A C12A 1_555 1_555
C13A N1A 1_555 1_555
C14A H9A 1_555 1_555
C15A C6A 1_555 1_555
H10A C15A 1_555 1_555
C16A C11A 1_555 1_555
H11A C16A 1_555 1_555
C17A C13A 1_555 1_555
H12A C17A 1_555 1_555
H13A C17A 1_555 1_555
H14A C17A 1_555 1_555
C3 C4 1_555 1_555
N2 C13 1_555 1_555
C8 C10 1_555 1_555
C14 C15 1_555 1_555
C14 C16 1_555 1_555
C2A C3A 1_555 1_555
C2A C5A 1_555 1_555
C3A C4A 1_555 1_555
N2A C13A 1_555 1_555
C7A C10A 1_555 1_555
C7A C12A 1_555 1_555
C8A C10A 1_555 1_555
C14A C15A 1_555 1_555
C14A C16A 1_555 1_555

#END
