
#######################################################################
#
#                 Cambridge Crystallographic Data Centre
#                                CCDC 
#
#######################################################################
#
# If this CIF has been generated from an entry in the Cambridge 
# Structural Database, then it will include bibliographic, chemical, 
# crystal, experimental, refinement or atomic coordinate data resulting 
# from the CCDC's data processing and validation procedures.
#
#######################################################################

data_YUJYAE
_chemical_name_common            
"(2R)-(1,4:3,6-Dianhydro-D-mannitol-2-yl)-2-nitromethyl-1,4:3,6-dianhydro-D-glucitol 5,5'-dinitrate"
_chemical_formula_moiety         'C13 H17 N3 O14'
_chemical_name_systematic        
"3,3'-Dihydroxy-3-(nitromethyl)dodecahydro-2,3'-bifuro[3,2-b]furan-6,6'-diyl dinitrate"
_symmetry_cell_setting           orthorhombic
_symmetry_space_group_name_H-M   'P 21 21 21'
_symmetry_Int_Tables_number      19
_space_group_name_Hall           'P 2ac 2ab'
loop_
_symmetry_equiv_pos_site_id
_symmetry_equiv_pos_as_xyz
1 x,y,z
2 1/2-x,-y,1/2+z
3 -x,1/2+y,1/2-z
4 1/2+x,1/2-y,-z
_cell_length_a                   9.0163(18)
_cell_length_b                   9.6196(19)
_cell_length_c                   20.156(4)
_cell_angle_alpha                90
_cell_angle_beta                 90
_cell_angle_gamma                90
_cell_volume                     1748.19
_exptl_crystal_colour            colorless
_exptl_crystal_description       prismatic
_chemical_melting_point          '184-186 deg.C'
_cell_formula_units_Z            4
loop_
_atom_site_label
_atom_site_type_symbol
_atom_site_fract_x
_atom_site_fract_y
_atom_site_fract_z
C1 C 0.6209(3) 0.1857(3) 0.30745(12)
H1 H 0.5239 0.1675 0.2885
H2 H 0.6895 0.1153 0.2918
C2 C 0.6744(3) 0.3294(3) 0.28813(12)
C3 C 0.7635(3) 0.3766(3) 0.35041(11)
H3 H 0.8692 0.3861 0.3400
C4 C 0.7387(3) 0.2622(3) 0.40095(12)
H4 H 0.8267 0.2035 0.4066
C5 C 0.6983(3) 0.3383(3) 0.46421(12)
H5 H 0.7869 0.3616 0.4901
C6 C 0.6224(4) 0.4686(3) 0.43790(12)
H6 H 0.5194 0.4504 0.4271
H7 H 0.6270 0.5435 0.4701
C7 C 0.7694(3) 0.3367(3) 0.22553(11)
H8 H 0.8078 0.4316 0.2214
C8 C 0.7046(3) 0.2935(3) 0.15804(13)
C9 C 0.8481(3) 0.2736(3) 0.11836(13)
H9 H 0.8353 0.2118 0.0801
C10 C 0.9575(3) 0.2156(3) 0.16985(13)
H10 H 0.9731 0.1156 0.1634
C11 C 1.1028(3) 0.2977(3) 0.15765(13)
H11 H 1.1852 0.2358 0.1461
C12 C 1.0638(4) 0.3934(4) 0.10143(14)
H12 H 1.1099 0.4835 0.1080
H13 H 1.0988 0.3551 0.0597
C13 C 0.5975(3) 0.4005(3) 0.13133(12)
H14 H 0.5188 0.4155 0.1634
H15 H 0.6490 0.4880 0.1250
O1 O 0.6134(2) 0.1845(2) 0.37860(8)
O2 O 0.5499(2) 0.4196(3) 0.27804(10)
H16 H 0.566(4) 0.481(4) 0.3012(15)
O3 O 0.5883(2) 0.2672(2) 0.50476(9)
O4 O 0.7066(2) 0.50238(19) 0.37898(8)
O5 O 0.89440(19) 0.24358(19) 0.23410(8)
O6 O 0.6264(2) 0.1652(2) 0.16211(9)
H17 H 0.688(3) 0.097(3) 0.1647(16)
O7 O 1.1397(2) 0.3870(2) 0.21364(9)
O8 O 0.9060(2) 0.4072(2) 0.10028(8)
O9 O 0.7682(2) 0.1104(3) 0.52448(10)
O10 O 0.5441(2) 0.0769(3) 0.55980(10)
O11 O 1.2084(3) 0.3893(3) 0.31671(10)
O12 O 1.2171(3) 0.1935(3) 0.26411(12)
O13 O 0.6153(3) 0.3440(3) 0.01960(10)
O14 O 0.4001(3) 0.3334(3) 0.06325(11)
N1 N 0.6404(3) 0.1415(3) 0.53208(11)
N2 N 1.1928(3) 0.3151(4) 0.26858(14)
N3 N 0.5313(3) 0.3548(3) 0.06672(12)
loop_
_geom_bond_atom_site_label_1
_geom_bond_atom_site_label_2
_geom_bond_site_symmetry_1
_geom_bond_site_symmetry_2
C1 H1 1_555 1_555
H2 C1 1_555 1_555
C2 C1 1_555 1_555
C3 C2 1_555 1_555
H3 C3 1_555 1_555
C4 C3 1_555 1_555
H4 C4 1_555 1_555
C5 C4 1_555 1_555
H5 C5 1_555 1_555
C6 C5 1_555 1_555
H6 C6 1_555 1_555
H7 C6 1_555 1_555
C7 C2 1_555 1_555
H8 C7 1_555 1_555
C8 C7 1_555 1_555
C9 C8 1_555 1_555
H9 C9 1_555 1_555
C10 C9 1_555 1_555
H10 C10 1_555 1_555
C11 C10 1_555 1_555
H11 C11 1_555 1_555
C12 C11 1_555 1_555
H12 C12 1_555 1_555
H13 C12 1_555 1_555
C13 C8 1_555 1_555
H14 C13 1_555 1_555
H15 C13 1_555 1_555
O1 C1 1_555 1_555
O2 C2 1_555 1_555
H16 O2 1_555 1_555
O3 C5 1_555 1_555
O4 C3 1_555 1_555
O5 C7 1_555 1_555
O6 C8 1_555 1_555
H17 O6 1_555 1_555
O7 C11 1_555 1_555
O8 C9 1_555 1_555
O9 N1 1_555 1_555
O10 N1 1_555 1_555
O11 N2 1_555 1_555
O12 N2 1_555 1_555
O13 N3 1_555 1_555
O14 N3 1_555 1_555
N1 O3 1_555 1_555
N2 O7 1_555 1_555
N3 C13 1_555 1_555
C4 O1 1_555 1_555
C6 O4 1_555 1_555
C10 O5 1_555 1_555
C12 O8 1_555 1_555

#END
