
#######################################################################
#
#                 Cambridge Crystallographic Data Centre
#                                CCDC 
#
#######################################################################
#
# If this CIF has been generated from an entry in the Cambridge 
# Structural Database, then it will include bibliographic, chemical, 
# crystal, experimental, refinement or atomic coordinate data resulting 
# from the CCDC's data processing and validation procedures.
#
#######################################################################

data_YUJYEI
_chemical_name_common            
"(2S)-(1,4:3,6-Dianhydro-D-mannitol-2-yl)-2-nitroethyl-1,4:3,6-dianhydro-D-mannitol 5,5'-dinitrate"
_chemical_formula_moiety         'C14 H19 N3 O14'
_chemical_name_systematic        
"3,3'-Dihydroxy-3-(1-nitroethyl)dodecahydro-2,3'-bifuro[3,2-b]furan-6,6'-diyl dinitrate"
_symmetry_cell_setting           monoclinic
_symmetry_space_group_name_H-M   'P 21'
_symmetry_Int_Tables_number      4
_space_group_name_Hall           'P 2yb'
loop_
_symmetry_equiv_pos_site_id
_symmetry_equiv_pos_as_xyz
1 x,y,z
2 -x,1/2+y,-z
_cell_length_a                   11.795(2)
_cell_length_b                   6.4386(13)
_cell_length_c                   13.180(3)
_cell_angle_alpha                90
_cell_angle_beta                 112.08(3)
_cell_angle_gamma                90
_cell_volume                     927.524
_exptl_crystal_colour            colorless
_exptl_crystal_description       prismatic
_chemical_melting_point          '192-193 deg.C'
_cell_formula_units_Z            2
loop_
_atom_site_label
_atom_site_type_symbol
_atom_site_fract_x
_atom_site_fract_y
_atom_site_fract_z
O1 O 0.1615(2) 0.3251(4) 0.2905(2)
O2 O 0.0102(2) 0.0929(5) 0.0824(2)
O3 O 0.1381(2) -0.1454(4) 0.2386(2)
O4 O 0.37073(19) 0.1381(4) 0.34734(19)
O5 O 0.4860(3) 0.4084(6) 0.3684(3)
O6 O 0.3976(3) 0.3611(6) 0.4838(2)
O7 O -0.1785(2) 0.1675(4) 0.23976(19)
O8 O -0.1468(2) -0.2557(4) 0.1720(2)
O9 O -0.3634(3) -0.2360(6) 0.1724(3)
O10 O -0.2179(3) -0.0483(6) 0.3917(2)
O11 O -0.0486(4) 0.0547(11) 0.5202(3)
O12 O -0.1942(4) 0.2830(8) 0.4479(3)
O13 O -0.4114(3) -0.3236(9) -0.0712(5)
O14 O -0.2547(4) -0.4926(6) -0.0568(4)
N1 N 0.4212(2) 0.3156(6) 0.4059(2)
N2 N -0.1486(4) 0.1139(9) 0.4585(3)
N3 N -0.3051(3) -0.3344(5) -0.0483(3)
C1 C 0.0354(3) 0.3530(6) 0.2209(3)
H1 H 0.0279 0.4443 0.1601
H2 H -0.0105 0.4117 0.2616
C2 C -0.0109(2) 0.1340(5) 0.1797(2)
C3 C 0.0696(3) -0.0034(5) 0.2772(2)
H3 H 0.0215 -0.0743 0.3133
C4 C 0.1630(3) 0.1465(5) 0.3535(3)
H4 H 0.1440 0.1806 0.4179
C5 C 0.2857(3) 0.0310(6) 0.3854(3)
H5 H 0.3221 0.0056 0.4644
C6 C 0.2543(3) -0.1712(6) 0.3219(3)
H6 H 0.3146 -0.2023 0.2904
H7 H 0.2529 -0.2846 0.3698
C7 C -0.1495(2) 0.1203(5) 0.1464(2)
H8 H -0.1878 0.2250 0.0899
C8 C -0.2136(3) -0.0909(5) 0.1062(3)
C9 C -0.3345(3) -0.0558(7) 0.1245(3)
H9 H -0.4017 -0.0163 0.0566
C10 C -0.3042(3) 0.1177(7) 0.2108(3)
H10 H -0.3559 0.2398 0.1820
C11 C -0.3289(3) 0.0221(9) 0.3075(3)
H11 H -0.3745 0.1172 0.3362
C12 C -0.4021(4) -0.1696(9) 0.2576(4)
H12 H -0.3871 -0.2776 0.3124
H13 H -0.4889 -0.1380 0.2281
C13 C -0.2282(3) -0.1405(6) -0.0126(3)
H14 H -0.1467 -0.1733 -0.0117
C14 C -0.2824(5) 0.0247(8) -0.0985(3)
H15 H -0.2859 -0.0256 -0.1682
H16 H -0.2323 0.1470 -0.0790
H17 H -0.3635 0.0578 -0.1029
H18 H 0.059(5) 0.008(11) 0.096(4)
H19 H -0.198(8) -0.304(16) 0.210(6)
loop_
_geom_bond_atom_site_label_1
_geom_bond_atom_site_label_2
_geom_bond_site_symmetry_1
_geom_bond_site_symmetry_2
O1 C1 1_555 1_555
O2 C2 1_555 1_555
O3 C3 1_555 1_555
O4 N1 1_555 1_555
O5 N1 1_555 1_555
O6 N1 1_555 1_555
O7 C7 1_555 1_555
O8 C8 1_555 1_555
O9 C9 1_555 1_555
O10 N2 1_555 1_555
O11 N2 1_555 1_555
O12 N2 1_555 1_555
O13 N3 1_555 1_555
O14 N3 1_555 1_555
N3 C13 1_555 1_555
C1 H1 1_555 1_555
H2 C1 1_555 1_555
C2 C1 1_555 1_555
C3 C2 1_555 1_555
H3 C3 1_555 1_555
C4 O1 1_555 1_555
H4 C4 1_555 1_555
C5 O4 1_555 1_555
H5 C5 1_555 1_555
C6 O3 1_555 1_555
H6 C6 1_555 1_555
H7 C6 1_555 1_555
C7 C2 1_555 1_555
H8 C7 1_555 1_555
C8 C7 1_555 1_555
C9 C8 1_555 1_555
H9 C9 1_555 1_555
C10 O7 1_555 1_555
H10 C10 1_555 1_555
C11 O10 1_555 1_555
H11 C11 1_555 1_555
C12 O9 1_555 1_555
H12 C12 1_555 1_555
H13 C12 1_555 1_555
C13 C8 1_555 1_555
H14 C13 1_555 1_555
C14 C13 1_555 1_555
H15 C14 1_555 1_555
H16 C14 1_555 1_555
H17 C14 1_555 1_555
H18 O2 1_555 1_555
H19 O8 1_555 1_555
C3 C4 1_555 1_555
C4 C5 1_555 1_555
C5 C6 1_555 1_555
C9 C10 1_555 1_555
C10 C11 1_555 1_555
C11 C12 1_555 1_555

#END
