
#######################################################################
#
#                 Cambridge Crystallographic Data Centre
#                                CCDC 
#
#######################################################################
#
# If this CIF has been generated from an entry in the Cambridge 
# Structural Database, then it will include bibliographic, chemical, 
# crystal, experimental, refinement or atomic coordinate data resulting 
# from the CCDC's data processing and validation procedures.
#
#######################################################################

data_YUJZEK
_chemical_formula_moiety         'C70 H66'
_chemical_name_systematic        
3,8-bis(3,5-di-t-butylphenyl)-1,2,6,7-tetraphenyldicyclopenta[a,g]-s-indacene
_symmetry_cell_setting           triclinic
_symmetry_space_group_name_H-M   'P -1'
_symmetry_Int_Tables_number      2
_space_group_name_Hall           '-P 1'
loop_
_symmetry_equiv_pos_site_id
_symmetry_equiv_pos_as_xyz
1 x,y,z
2 -x,-y,-z
_cell_length_a                   12.8654(8)
_cell_length_b                   18.9405(10)
_cell_length_c                   24.2937(14)
_cell_angle_alpha                111.777(4)
_cell_angle_beta                 90.520(5)
_cell_angle_gamma                90.037(5)
_cell_volume                     5497.07
_exptl_crystal_colour            'dull reddish brown'
_exptl_crystal_description       plate
_cell_formula_units_Z            4
loop_
_atom_site_label
_atom_site_type_symbol
_atom_site_fract_x
_atom_site_fract_y
_atom_site_fract_z
C1 C 0.6285(8) 0.0856(4) -0.2161(4)
H1 H 0.6437 0.0608 -0.1880
H2 H 0.6704 0.0623 -0.2517
H3 H 0.5546 0.0794 -0.2269
C2 C 0.6549(6) 0.1702(4) -0.1874(4)
C3 C 0.5951(5) 0.2060(4) -0.1295(3)
C4 C 0.5354(5) 0.2717(3) -0.1169(3)
H4 H 0.5339 0.2965 -0.1445
C5 C 0.4787(5) 0.3014(3) -0.0656(3)
C6 C 0.4175(5) 0.3713(3) -0.0529(3)
C7 C 0.4023(5) 0.4272(3) 0.0010(3)
C8 C 0.4203(5) 0.4506(3) 0.0641(3)
C9 C 0.3589(5) 0.5167(3) 0.0917(3)
C10 C 0.3538(5) 0.5519(4) 0.1526(3)
H5 H 0.3115 0.5954 0.1703
C11 C 0.4124(5) 0.5219(3) 0.1878(3)
C12 C 0.4304(6) 0.5452(4) 0.2513(3)
C13 C 0.4067(6) 0.5980(4) 0.3050(3)
C14 C 0.4752(7) 0.5828(4) 0.3505(3)
C15 C 0.4720(8) 0.6272(4) 0.4145(4)
C16 C 0.5612(9) 0.6560(4) 0.4483(4)
H6 H 0.6271 0.6462 0.4296
C17 C 0.5563(11) 0.6983(5) 0.5082(4)
H7 H 0.6180 0.7168 0.5308
C18 C 0.4620(11) 0.7132(5) 0.5344(4)
H8 H 0.4585 0.7431 0.5756
C19 C 0.6289(7) 0.2085(4) -0.2311(4)
H9 H 0.6636 0.1816 -0.2688
H10 H 0.6527 0.2615 -0.2148
H11 H 0.5535 0.2071 -0.2377
C20 C 0.7707(7) 0.1814(6) -0.1724(5)
H12 H 0.7894 0.1552 -0.1457
H13 H 0.7860 0.2358 -0.1529
H14 H 0.8110 0.1604 -0.2089
C21 C 0.5995(6) 0.1729(4) -0.0869(4)
H15 H 0.6434 0.1303 -0.0937
C22 C 0.5425(5) 0.1997(4) -0.0352(3)
C23 C 0.4806(5) 0.2638(3) -0.0251(3)
H16 H 0.4392 0.2823 0.0095
C24 C 0.3596(5) 0.3932(3) -0.0990(3)
C25 C 0.3487(5) 0.3428(3) -0.1620(3)
C26 C 0.3708(5) 0.3675(4) -0.2077(3)
H17 H 0.3961 0.4179 -0.1981
C27 C 0.3574(6) 0.3219(4) -0.2659(3)
H18 H 0.3759 0.3401 -0.2961
C28 C 0.3168(6) 0.2489(4) -0.2812(3)
H19 H 0.3050 0.2175 -0.3215
C29 C 0.2936(6) 0.2226(4) -0.2359(3)
H20 H 0.2678 0.1724 -0.2456
C30 C 0.3080(5) 0.2689(3) -0.1779(3)
H21 H 0.2902 0.2507 -0.1476
C31 C 0.3158(5) 0.4634(3) -0.0715(3)
C32 C 0.3371(5) 0.4862(3) -0.0083(3)
C33 C 0.3341(6) 0.6619(4) 0.3188(3)
C34 C 0.2348(6) 0.6513(4) 0.2940(3)
H22 H 0.2149 0.6021 0.2671
C35 C 0.1638(6) 0.7103(4) 0.3072(3)
C36 C 0.1951(7) 0.7811(4) 0.3484(3)
H23 H 0.1468 0.8218 0.3596
C37 C 0.2947(7) 0.7942(4) 0.3738(3)
C38 C 0.3623(7) 0.7340(4) 0.3591(3)
H24 H 0.4297 0.7416 0.3767
C39 C 0.3222(10) 0.8730(5) 0.4208(4)
C40 C 0.2848(10) 0.9359(5) 0.4049(5)
H25 H 0.3239 0.9374 0.3709
H26 H 0.2948 0.9840 0.4386
H27 H 0.2108 0.9286 0.3945
C41 C 0.0546(6) 0.6944(5) 0.2784(4)
C42 C -0.0088(8) 0.7684(5) 0.2944(5)
H28 H -0.0142 0.7926 0.3376
H29 H -0.0786 0.7565 0.2769
H30 H 0.0261 0.8032 0.2790
C43 C 0.0619(7) 0.6583(5) 0.2119(4)
H31 H 0.1020 0.6915 0.1971
H32 H -0.0081 0.6509 0.1944
H33 H 0.0966 0.6090 0.2009
C44 C -0.0036(8) 0.6411(5) 0.3021(4)
H34 H 0.0283 0.5906 0.2867
H35 H -0.0765 0.6371 0.2894
H36 H 0.0003 0.6615 0.3455
C45 C 0.3685(11) 0.6857(6) 0.5025(4)
H37 H 0.3032 0.6962 0.5217
C46 C 0.3750(8) 0.6425(4) 0.4415(4)
H38 H 0.3136 0.6238 0.4188
C47 C 0.5396(6) 0.5233(4) 0.3232(3)
C48 C 0.5147(6) 0.4961(4) 0.2594(3)
C49 C 0.5410(6) 0.4447(4) 0.2066(3)
H39 H 0.5908 0.4055 0.2000
C50 C 0.4791(5) 0.4593(3) 0.1597(3)
C51 C 0.4816(5) 0.4229(3) 0.0997(3)
H40 H 0.5242 0.3795 0.0822
C52 C 0.6241(4) 0.4890(3) 0.3484(2)
C53 C 0.6050(5) 0.4704(3) 0.3976(2)
H41 H 0.5377 0.4774 0.4145
C54 C 0.6845(6) 0.4414(3) 0.4221(2)
H42 H 0.6715 0.4286 0.4557
C55 C 0.7830(6) 0.4311(3) 0.3974(3)
H43 H 0.8374 0.4113 0.4142
C56 C 0.8021(5) 0.4498(3) 0.3482(3)
H44 H 0.8694 0.4428 0.3313
C57 C 0.7226(5) 0.4787(3) 0.3237(2)
H45 H 0.7356 0.4915 0.2901
C58 C 0.3115(5) 0.5376(3) 0.0451(3)
H46 H 0.2691 0.5808 0.0515
C59 C 0.2514(5) 0.5081(3) -0.0968(3)
C60 C 0.2595(5) 0.5878(3) -0.0719(3)
H47 H 0.3054 0.6113 -0.0394
C61 C 0.2004(6) 0.6324(4) -0.0947(3)
H48 H 0.2069 0.6862 -0.0777
C62 C 0.1328(6) 0.5996(4) -0.1416(3)
H49 H 0.0927 0.6304 -0.1569
C63 C 0.1239(6) 0.5212(4) -0.1664(3)
H50 H 0.0774 0.4981 -0.1987
C64 C 0.1824(6) 0.4763(4) -0.1443(3)
H51 H 0.1755 0.4226 -0.1618
C65 C 0.4569(10) 0.1786(8) 0.0500(6)
H52 H 0.4587 0.2329 0.0747
H53 H 0.4603 0.1487 0.0754
H54 H 0.3922 0.1666 0.0267
C66 C 0.5383(12) 0.0703(5) -0.0288(6)
H55 H 0.4746 0.0598 -0.0529
H56 H 0.5365 0.0422 -0.0021
H57 H 0.5987 0.0543 -0.0547
C67 C 0.6530(9) 0.1727(8) 0.0367(7)
H58 H 0.7049 0.1540 0.0054
H59 H 0.6601 0.1454 0.0638
H60 H 0.6640 0.2272 0.0587
C68 C 0.2569(14) 0.8785(7) 0.4783(5)
H61 H 0.1829 0.8710 0.4679
H62 H 0.2675 0.9287 0.5095
H63 H 0.2806 0.8391 0.4926
C69 C 0.4336(12) 0.8778(7) 0.4378(7)
H64 H 0.4536 0.8317 0.4445
H65 H 0.4452 0.9223 0.4743
H66 H 0.4757 0.8826 0.4060
C70 C 0.5465(5) 0.1597(4) 0.0096(3)
C74 C -0.0355(6) -0.3353(4) 0.0242(3)
C75 C -0.0405(5) -0.2949(3) -0.0212(3)
C76 C 0.0200(5) -0.2311(3) -0.0132(3)
H76 H 0.0658 -0.2124 0.0200
C77 C 0.0147(5) -0.1941(3) -0.0533(3)
C78 C 0.0752(5) -0.1237(3) -0.0420(3)
C79 C 0.0969(5) -0.0678(3) 0.0114(3)
C80 C 0.0911(5) -0.0455(3) 0.0755(3)
C81 C 0.0361(5) -0.0741(3) 0.1124(3)
H77 H -0.0091 -0.1166 0.0961
C82 C 0.0496(5) -0.0388(3) 0.1726(3)
C83 C -0.0044(6) -0.0520(4) 0.2212(3)
H78 H -0.0550 -0.0905 0.2165
C84 C 0.0298(6) -0.0006(4) 0.2733(3)
C85 C 0.0137(7) 0.0274(4) 0.3362(3)
C86 C 0.0800(7) 0.0879(4) 0.3626(3)
C87 C 0.0927(7) 0.1359(4) 0.4259(4)
C88 C 0.0091(8) 0.1681(5) 0.4614(4)
H79 H -0.0591 0.1572 0.4451
C89 C 0.0216(9) 0.2157(5) 0.5200(4)
H80 H -0.0373 0.2368 0.5436
C90 C 0.1206(9) 0.2324(5) 0.5438(4)
H81 H 0.1293 0.2662 0.5838
C91 C 0.1409(6) -0.2444(4) -0.2727(3)
H82 H 0.1461 -0.2760 -0.3134
C92 C 0.1015(6) -0.1709(4) -0.2558(3)
H83 H 0.0779 -0.1524 -0.2851
C93 C 0.0968(5) -0.1258(4) -0.1974(3)
H84 H 0.0712 -0.0755 -0.1868
C94 C 0.1280(5) -0.1506(3) -0.1530(3)
C95 C 0.1244(5) -0.1016(3) -0.0892(3)
C96 C 0.1724(5) -0.0328(3) -0.0629(3)
C97 C 0.1610(5) -0.0100(3) 0.0005(3)
C98 C 0.1565(5) 0.0190(3) 0.1014(3)
C99 C 0.1718(5) 0.0522(3) 0.1613(3)
H85 H 0.2174 0.0945 0.1774
C100 C 0.1196(5) 0.0233(3) 0.1985(3)
C101 C 0.1113(6) 0.0474(4) 0.2628(3)
C102 C 0.1414(6) 0.1016(4) 0.3142(3)
C103 C -0.0648(7) -0.0055(4) 0.3646(4)
C104 C -0.0400(8) -0.0246(4) 0.4129(4)
H86 H 0.0281 -0.0156 0.4295
C105 C -0.1159(9) -0.0573(5) 0.4371(4)
H87 H -0.0992 -0.0713 0.4699
C106 C -0.2160(9) -0.0692(5) 0.4128(4)
H88 H -0.2685 -0.0896 0.4300
C107 C -0.2382(9) -0.0521(5) 0.3656(4)
H89 H -0.3059 -0.0623 0.3485
C108 C -0.1648(8) -0.0198(4) 0.3410(4)
H90 H -0.1827 -0.0072 0.3077
C109 C 0.1924(8) 0.1527(4) 0.4506(4)
H91 H 0.2510 0.1314 0.4267
C110 C 0.2075(9) 0.2007(5) 0.5104(4)
H92 H 0.2753 0.2111 0.5274
C111 C 0.2122(6) 0.1659(4) 0.3237(3)
C112 C 0.3078(6) 0.1558(4) 0.2967(3)
H93 H 0.3290 0.1057 0.2730
C113 C 0.3740(6) 0.2160(4) 0.3030(3)
C114 C 0.3404(6) 0.2890(4) 0.3388(3)
H94 H 0.3849 0.3312 0.3443
C115 C 0.2451(6) 0.3018(4) 0.3663(3)
C116 C 0.1811(6) 0.2390(4) 0.3585(3)
H95 H 0.1154 0.2465 0.3773
C117 C 0.2044(7) 0.3811(4) 0.4049(4)
C118 C 0.1765(8) 0.3850(5) 0.4658(4)
H96 H 0.1256 0.3451 0.4626
H97 H 0.1465 0.4349 0.4883
H98 H 0.2391 0.3776 0.4862
C119 C 0.1069(8) 0.3985(5) 0.3740(5)
H99 H 0.1256 0.3970 0.3346
H100 H 0.0806 0.4491 0.3979
H101 H 0.0530 0.3603 0.3702
C120 C 0.2853(8) 0.4441(4) 0.4115(4)
H102 H 0.3500 0.4328 0.4281
H103 H 0.2584 0.4932 0.4380
H104 H 0.2989 0.4463 0.3725
C121 C 0.4773(6) 0.2020(4) 0.2701(3)
C122 C 0.4564(7) 0.1624(5) 0.2040(3)
H105 H 0.4198 0.1143 0.1966
H106 H 0.5225 0.1523 0.1828
H107 H 0.4135 0.1952 0.1899
C123 C 0.5372(7) 0.2752(5) 0.2817(4)
H108 H 0.4959 0.3092 0.2681
H109 H 0.6030 0.2637 0.2601
H110 H 0.5516 0.3001 0.3242
C124 C 0.5471(7) 0.1500(5) 0.2906(4)
H111 H 0.5611 0.1745 0.3332
H112 H 0.6129 0.1413 0.2691
H113 H 0.5118 0.1013 0.2825
C125 C 0.1967(5) 0.0402(3) 0.0531(3)
H114 H 0.2408 0.0824 0.0580
C126 C -0.0252(12) -0.4286(7) -0.0174(6)
H115 H -0.0886 -0.4460 -0.0414
H116 H -0.0159 -0.4573 0.0085
H117 H 0.0348 -0.4367 -0.0436
C127 C -0.1047(5) -0.3221(3) -0.0705(3)
H118 H -0.1466 -0.3655 -0.0760
C128 C -0.1106(5) -0.2881(3) -0.1129(3)
C129 C -0.1816(6) -0.3229(4) -0.1680(3)
C130 C -0.1696(6) -0.2817(4) -0.2112(4)
H119 H -0.1905 -0.2285 -0.1917
H120 H -0.2138 -0.3064 -0.2462
H121 H -0.0969 -0.2839 -0.2233
C131 C -0.2940(7) -0.3169(5) -0.1482(4)
H122 H -0.3025 -0.3430 -0.1204
H123 H -0.3394 -0.3407 -0.1827
H124 H -0.3125 -0.2632 -0.1286
C132 C -0.1538(8) -0.4069(4) -0.2007(4)
H125 H -0.0818 -0.4107 -0.2143
H126 H -0.2006 -0.4293 -0.2349
H127 H -0.1612 -0.4343 -0.1737
C133 C -0.0514(5) -0.2242(3) -0.1028(3)
H128 H -0.0553 -0.1994 -0.1304
C134 C 0.2319(5) 0.0127(3) -0.0903(3)
C135 C 0.2242(5) 0.0924(3) -0.0658(3)
H129 H 0.1808 0.1164 -0.0327
C136 C 0.2801(5) 0.1355(4) -0.0904(3)
H130 H 0.2743 0.1893 -0.0740
C137 C 0.3433(6) 0.1027(4) -0.1375(3)
H131 H 0.3814 0.1333 -0.1536
C138 C 0.3519(6) 0.0241(4) -0.1618(4)
H132 H 0.3953 0.0006 -0.1951
C139 C 0.2964(6) -0.0202(4) -0.1373(3)
H133 H 0.3035 -0.0739 -0.1535
C140 C 0.1657(5) -0.2258(3) -0.1706(3)
H134 H 0.1866 -0.2453 -0.1415
C141 C 0.1723(6) -0.2705(4) -0.2293(3)
H135 H 0.1991 -0.3206 -0.2404
C142 C -0.1288(11) -0.3229(9) 0.0554(7)
H136 H -0.1377 -0.2683 0.0775
H137 H -0.1271 -0.3496 0.0831
H138 H -0.1870 -0.3422 0.0275
C143 C 0.0627(11) -0.3176(10) 0.0581(8)
H139 H 0.1211 -0.3260 0.0307
H140 H 0.0701 -0.3507 0.0807
H141 H 0.0625 -0.2644 0.0854
C71? C 0.6328(13) 0.1044(11) 0.0046(10)
H67? H 0.6235 0.0596 -0.0319
H68? H 0.6316 0.0889 0.0388
H69? H 0.6997 0.1287 0.0036
C72? C 0.5693(18) 0.2228(9) 0.0739(7)
H70? H 0.6302 0.2530 0.0722
H71? H 0.5828 0.1979 0.1021
H72? H 0.5089 0.2562 0.0868
C73? C 0.4401(12) 0.1337(13) 0.0215(11)
H73? H 0.3908 0.1758 0.0305
H74? H 0.4450 0.1175 0.0554
H75? H 0.4160 0.0911 -0.0136
C144? C 0.0660(13) -0.3641(12) 0.0311(10)
H142? H 0.0891 -0.4005 -0.0072
H143? H 0.0619 -0.3895 0.0596
H144? H 0.1157 -0.3218 0.0457
C145? C -0.0523(13) -0.2650(8) 0.0935(7)
H145? H 0.0076 -0.2304 0.1033
H146? H -0.0584 -0.2884 0.1232
H147? H -0.1157 -0.2365 0.0933
C146? C -0.1230(13) -0.3870(10) 0.0204(9)
H148? H -0.1880 -0.3581 0.0285
H149? H -0.1129 -0.4107 0.0497
H150? H -0.1263 -0.4264 -0.0195
loop_
_geom_bond_atom_site_label_1
_geom_bond_atom_site_label_2
_geom_bond_site_symmetry_1
_geom_bond_site_symmetry_2
C1 H1 1_555 1_555
H2 C1 1_555 1_555
H3 C1 1_555 1_555
C2 C1 1_555 1_555
C3 C2 1_555 1_555
C4 C3 1_555 1_555
H4 C4 1_555 1_555
C5 C4 1_555 1_555
C6 C5 1_555 1_555
C7 C6 1_555 1_555
C8 C7 1_555 1_555
C9 C8 1_555 1_555
C10 C9 1_555 1_555
H5 C10 1_555 1_555
C11 C10 1_555 1_555
C12 C11 1_555 1_555
C13 C12 1_555 1_555
C14 C13 1_555 1_555
C15 C14 1_555 1_555
C16 C15 1_555 1_555
H6 C16 1_555 1_555
C17 C16 1_555 1_555
H7 C17 1_555 1_555
C18 C17 1_555 1_555
H8 C18 1_555 1_555
C19 C2 1_555 1_555
H9 C19 1_555 1_555
H10 C19 1_555 1_555
H11 C19 1_555 1_555
C20 C2 1_555 1_555
H12 C20 1_555 1_555
H13 C20 1_555 1_555
H14 C20 1_555 1_555
C21 C3 1_555 1_555
H15 C21 1_555 1_555
C22 C21 1_555 1_555
C23 C5 1_555 1_555
H16 C23 1_555 1_555
C24 C6 1_555 1_555
C25 C24 1_555 1_555
C26 C25 1_555 1_555
H17 C26 1_555 1_555
C27 C26 1_555 1_555
H18 C27 1_555 1_555
C28 C27 1_555 1_555
H19 C28 1_555 1_555
C29 C28 1_555 1_555
H20 C29 1_555 1_555
C30 C25 1_555 1_555
H21 C30 1_555 1_555
C31 C24 1_555 1_555
C32 C7 1_555 1_555
C33 C13 1_555 1_555
C34 C33 1_555 1_555
H22 C34 1_555 1_555
C35 C34 1_555 1_555
C36 C35 1_555 1_555
H23 C36 1_555 1_555
C37 C36 1_555 1_555
C38 C33 1_555 1_555
H24 C38 1_555 1_555
C39 C37 1_555 1_555
C40 C39 1_555 1_555
H25 C40 1_555 1_555
H26 C40 1_555 1_555
H27 C40 1_555 1_555
C41 C35 1_555 1_555
C42 C41 1_555 1_555
H28 C42 1_555 1_555
H29 C42 1_555 1_555
H30 C42 1_555 1_555
C43 C41 1_555 1_555
H31 C43 1_555 1_555
H32 C43 1_555 1_555
H33 C43 1_555 1_555
C44 C41 1_555 1_555
H34 C44 1_555 1_555
H35 C44 1_555 1_555
H36 C44 1_555 1_555
C45 C18 1_555 1_555
H37 C45 1_555 1_555
C46 C15 1_555 1_555
H38 C46 1_555 1_555
C47 C14 1_555 1_555
C48 C12 1_555 1_555
C49 C48 1_555 1_555
H39 C49 1_555 1_555
C50 C11 1_555 1_555
C51 C8 1_555 1_555
H40 C51 1_555 1_555
C52 C47 1_555 1_555
C53 C52 1_555 1_555
H41 C53 1_555 1_555
C54 C53 1_555 1_555
H42 C54 1_555 1_555
C55 C54 1_555 1_555
H43 C55 1_555 1_555
C56 C55 1_555 1_555
H44 C56 1_555 1_555
C57 C52 1_555 1_555
H45 C57 1_555 1_555
C58 C9 1_555 1_555
H46 C58 1_555 1_555
C59 C31 1_555 1_555
C60 C59 1_555 1_555
H47 C60 1_555 1_555
C61 C60 1_555 1_555
H48 C61 1_555 1_555
C62 C61 1_555 1_555
H49 C62 1_555 1_555
C63 C62 1_555 1_555
H50 C63 1_555 1_555
C64 C59 1_555 1_555
H51 C64 1_555 1_555
C65 H52 1_555 1_555
H53 C65 1_555 1_555
H54 C65 1_555 1_555
C66 H55 1_555 1_555
H56 C66 1_555 1_555
H57 C66 1_555 1_555
C67 H58 1_555 1_555
H59 C67 1_555 1_555
H60 C67 1_555 1_555
C68 C39 1_555 1_555
H61 C68 1_555 1_555
H62 C68 1_555 1_555
H63 C68 1_555 1_555
C69 C39 1_555 1_555
H64 C69 1_555 1_555
H65 C69 1_555 1_555
H66 C69 1_555 1_555
C70 C22 1_555 1_555
C74 C75 1_555 1_555
C75 C76 1_555 1_555
C76 H76 1_555 1_555
C77 C76 1_555 1_555
C78 C77 1_555 1_555
C79 C78 1_555 1_555
C80 C79 1_555 1_555
C81 C80 1_555 1_555
H77 C81 1_555 1_555
C82 C81 1_555 1_555
C83 C82 1_555 1_555
H78 C83 1_555 1_555
C84 C83 1_555 1_555
C85 C84 1_555 1_555
C86 C85 1_555 1_555
C87 C86 1_555 1_555
C88 C87 1_555 1_555
H79 C88 1_555 1_555
C89 C88 1_555 1_555
H80 C89 1_555 1_555
C90 C89 1_555 1_555
H81 C90 1_555 1_555
C91 H82 1_555 1_555
C92 C91 1_555 1_555
H83 C92 1_555 1_555
C93 C92 1_555 1_555
H84 C93 1_555 1_555
C94 C93 1_555 1_555
C95 C78 1_555 1_555
C96 C95 1_555 1_555
C97 C79 1_555 1_555
C98 C80 1_555 1_555
C99 C98 1_555 1_555
H85 C99 1_555 1_555
C100 C82 1_555 1_555
C101 C84 1_555 1_555
C102 C86 1_555 1_555
C103 C85 1_555 1_555
C104 C103 1_555 1_555
H86 C104 1_555 1_555
C105 C104 1_555 1_555
H87 C105 1_555 1_555
C106 C105 1_555 1_555
H88 C106 1_555 1_555
C107 C106 1_555 1_555
H89 C107 1_555 1_555
C108 C103 1_555 1_555
H90 C108 1_555 1_555
C109 C87 1_555 1_555
H91 C109 1_555 1_555
C110 C90 1_555 1_555
H92 C110 1_555 1_555
C111 C102 1_555 1_555
C112 C111 1_555 1_555
H93 C112 1_555 1_555
C113 C112 1_555 1_555
C114 C113 1_555 1_555
H94 C114 1_555 1_555
C115 C114 1_555 1_555
C116 C111 1_555 1_555
H95 C116 1_555 1_555
C117 C115 1_555 1_555
C118 C117 1_555 1_555
H96 C118 1_555 1_555
H97 C118 1_555 1_555
H98 C118 1_555 1_555
C119 C117 1_555 1_555
H99 C119 1_555 1_555
H100 C119 1_555 1_555
H101 C119 1_555 1_555
C120 C117 1_555 1_555
H102 C120 1_555 1_555
H103 C120 1_555 1_555
H104 C120 1_555 1_555
C121 C113 1_555 1_555
C122 C121 1_555 1_555
H105 C122 1_555 1_555
H106 C122 1_555 1_555
H107 C122 1_555 1_555
C123 C121 1_555 1_555
H108 C123 1_555 1_555
H109 C123 1_555 1_555
H110 C123 1_555 1_555
C124 C121 1_555 1_555
H111 C124 1_555 1_555
H112 C124 1_555 1_555
H113 C124 1_555 1_555
C125 C97 1_555 1_555
H114 C125 1_555 1_555
C126 C74 1_555 1_555
H115 C126 1_555 1_555
H116 C126 1_555 1_555
H117 C126 1_555 1_555
C127 C75 1_555 1_555
H118 C127 1_555 1_555
C128 C127 1_555 1_555
C129 C128 1_555 1_555
C130 C129 1_555 1_555
H119 C130 1_555 1_555
H120 C130 1_555 1_555
H121 C130 1_555 1_555
C131 C129 1_555 1_555
H122 C131 1_555 1_555
H123 C131 1_555 1_555
H124 C131 1_555 1_555
C132 C129 1_555 1_555
H125 C132 1_555 1_555
H126 C132 1_555 1_555
H127 C132 1_555 1_555
C133 C77 1_555 1_555
H128 C133 1_555 1_555
C134 C96 1_555 1_555
C135 C134 1_555 1_555
H129 C135 1_555 1_555
C136 C135 1_555 1_555
H130 C136 1_555 1_555
C137 C136 1_555 1_555
H131 C137 1_555 1_555
C138 C137 1_555 1_555
H132 C138 1_555 1_555
C139 C134 1_555 1_555
H133 C139 1_555 1_555
C140 C94 1_555 1_555
H134 C140 1_555 1_555
C141 C91 1_555 1_555
H135 C141 1_555 1_555
C142 C74 1_555 1_555
H136 C142 1_555 1_555
H137 C142 1_555 1_555
H138 C142 1_555 1_555
C143 C74 1_555 1_555
H139 C143 1_555 1_555
H140 C143 1_555 1_555
H141 C143 1_555 1_555
C22 C23 1_555 1_555
C29 C30 1_555 1_555
C31 C32 1_555 1_555
C32 C58 1_555 1_555
C37 C38 1_555 1_555
C45 C46 1_555 1_555
C47 C48 1_555 1_555
C49 C50 1_555 1_555
C50 C51 1_555 1_555
C56 C57 1_555 1_555
C63 C64 1_555 1_555
C65 C70 1_555 1_555
C66 C70 1_555 1_555
C67 C70 1_555 1_555
C94 C95 1_555 1_555
C96 C97 1_555 1_555
C98 C125 1_555 1_555
C99 C100 1_555 1_555
C100 C101 1_555 1_555
C101 C102 1_555 1_555
C107 C108 1_555 1_555
C109 C110 1_555 1_555
C115 C116 1_555 1_555
C128 C133 1_555 1_555
C138 C139 1_555 1_555
C140 C141 1_555 1_555

#END
