
#######################################################################
#
#                 Cambridge Crystallographic Data Centre
#                                CCDC 
#
#######################################################################
#
# If this CIF has been generated from an entry in the Cambridge 
# Structural Database, then it will include bibliographic, chemical, 
# crystal, experimental, refinement or atomic coordinate data resulting 
# from the CCDC's data processing and validation procedures.
#
#######################################################################

data_YUJZUZ
_chemical_formula_moiety         'C17 H14 O3'
_chemical_name_systematic        
5-Hydroxy-3-methyl-4,5-diphenylfuran-2(5H)-one
_symmetry_cell_setting           orthorhombic
_symmetry_space_group_name_H-M   'F d d 2'
_symmetry_Int_Tables_number      43
_space_group_name_Hall           'F 2 -2d'
loop_
_symmetry_equiv_pos_site_id
_symmetry_equiv_pos_as_xyz
1 x,y,z
2 -x,-y,z
3 1/4+x,1/4-y,1/4+z
4 1/4-x,1/4+y,1/4+z
5 x,1/2+y,1/2+z
6 -x,1/2-y,1/2+z
7 1/4+x,3/4-y,3/4+z
8 1/4-x,3/4+y,3/4+z
9 1/2+x,y,1/2+z
10 1/2-x,-y,1/2+z
11 3/4+x,1/4-y,3/4+z
12 3/4-x,1/4+y,3/4+z
13 1/2+x,1/2+y,z
14 1/2-x,1/2-y,z
15 3/4+x,3/4-y,1/4+z
16 3/4-x,3/4+y,1/4+z
_cell_length_a                   18.2631(19)
_cell_length_b                   35.999(3)
_cell_length_c                   8.2668(7)
_cell_angle_alpha                90
_cell_angle_beta                 90
_cell_angle_gamma                90
_cell_volume                     5435.04
_exptl_crystal_colour            colorless
_exptl_crystal_description       block
_chemical_melting_point          '169-171 deg.C'
_cell_formula_units_Z            16
loop_
_atom_site_label
_atom_site_type_symbol
_atom_site_fract_x
_atom_site_fract_y
_atom_site_fract_z
O1 O 0.23420(8) 0.10095(4) 0.84735(19)
O2 O 0.11229(9) 0.09524(4) 0.8397(2)
O3 O 0.33052(9) 0.08276(4) 1.01271(18)
H1 H 0.3374 0.1057 1.0238
C1 C 0.17168(12) 0.08094(6) 0.8544(3)
C2 C 0.18873(12) 0.04112(6) 0.8759(3)
C3 C 0.26207(11) 0.03765(5) 0.8741(3)
C4 C 0.29718(11) 0.07599(5) 0.8646(3)
C5 C 0.34642(12) 0.08160(5) 0.7182(3)
C6 C 0.31571(13) 0.08656(6) 0.5665(3)
H2 H 0.2640 0.0874 0.5553
C7 C 0.35981(13) 0.09038(7) 0.4305(3)
H3 H 0.3383 0.0941 0.3271
C8 C 0.43516(13) 0.08874(6) 0.4465(3)
H4 H 0.4656 0.0910 0.3539
C9 C 0.46593(13) 0.08372(7) 0.5977(3)
H5 H 0.5177 0.0826 0.6086
C10 C 0.42185(13) 0.08026(7) 0.7335(3)
H6 H 0.4434 0.0770 0.8370
C11 C 0.30584(12) 0.00333(6) 0.8795(3)
C12 C 0.37136(13) 0.00127(7) 0.9656(3)
H7 H 0.3895 0.0226 1.0203
C13 C 0.41054(15) -0.03208(7) 0.9718(4)
H8 H 0.4542 -0.0336 1.0340
C14 C 0.38616(14) -0.06275(7) 0.8882(3)
H9 H 0.4130 -0.0853 0.8927
C15 C 0.32250(15) -0.06063(6) 0.7975(3)
H10 H 0.3063 -0.0816 0.7379
C16 C 0.28271(13) -0.02816(6) 0.7935(3)
H11 H 0.2389 -0.0271 0.7317
C17 C 0.12894(13) 0.01362(7) 0.9048(3)
H12 H 0.1500 -0.0113 0.9153
H13 H 0.0947 0.0140 0.8136
H14 H 0.1029 0.0201 1.0045
loop_
_geom_bond_atom_site_label_1
_geom_bond_atom_site_label_2
_geom_bond_site_symmetry_1
_geom_bond_site_symmetry_2
O1 C1 1_555 1_555
O2 C1 1_555 1_555
O3 H1 1_555 1_555
C1 C2 1_555 1_555
C2 C3 1_555 1_555
C3 C4 1_555 1_555
C4 O1 1_555 1_555
C5 C4 1_555 1_555
C6 C5 1_555 1_555
H2 C6 1_555 1_555
C7 C6 1_555 1_555
H3 C7 1_555 1_555
C8 C7 1_555 1_555
H4 C8 1_555 1_555
C9 C8 1_555 1_555
H5 C9 1_555 1_555
C10 C5 1_555 1_555
H6 C10 1_555 1_555
C11 C3 1_555 1_555
C12 C11 1_555 1_555
H7 C12 1_555 1_555
C13 C12 1_555 1_555
H8 C13 1_555 1_555
C14 C13 1_555 1_555
H9 C14 1_555 1_555
C15 C14 1_555 1_555
H10 C15 1_555 1_555
C16 C11 1_555 1_555
H11 C16 1_555 1_555
C17 C2 1_555 1_555
H12 C17 1_555 1_555
H13 C17 1_555 1_555
H14 C17 1_555 1_555
O3 C4 1_555 1_555
C9 C10 1_555 1_555
C15 C16 1_555 1_555

#END
