
#######################################################################
#
#                 Cambridge Crystallographic Data Centre
#                                CCDC 
#
#######################################################################
#
# If this CIF has been generated from an entry in the Cambridge 
# Structural Database, then it will include bibliographic, chemical, 
# crystal, experimental, refinement or atomic coordinate data resulting 
# from the CCDC's data processing and validation procedures.
#
#######################################################################

data_YUKBAI
_chemical_formula_moiety         'C34 H28 O4'
_chemical_name_systematic        
3-Methyl-5-((2-oxo-4,5-diphenyltetrahydrofuran-3-yl)methyl)-4,5-diphenylfuran-2(5H)-one
_symmetry_cell_setting           triclinic
_symmetry_space_group_name_H-M   'P -1'
_symmetry_Int_Tables_number      2
_space_group_name_Hall           '-P 1'
loop_
_symmetry_equiv_pos_site_id
_symmetry_equiv_pos_as_xyz
1 x,y,z
2 -x,-y,-z
_cell_length_a                   9.3062(5)
_cell_length_b                   9.7502(5)
_cell_length_c                   15.4367(8)
_cell_angle_alpha                82.6350(10)
_cell_angle_beta                 83.4040(10)
_cell_angle_gamma                71.6410(10)
_cell_volume                     1314.29
_exptl_crystal_colour            colorless
_exptl_crystal_description       block
_chemical_melting_point          '174-176 deg.C'
_cell_formula_units_Z            2
loop_
_atom_site_label
_atom_site_type_symbol
_atom_site_fract_x
_atom_site_fract_y
_atom_site_fract_z
O1 O 0.94524(15) 1.00755(13) 0.17331(8)
O2 O 0.82791(17) 1.12799(15) 0.28781(10)
O3 O 0.41271(15) 0.96780(13) 0.19631(8)
O4 O 0.33619(17) 1.07345(15) 0.06431(8)
C1 C 0.8249(2) 1.05544(18) 0.23134(12)
C2 C 0.6938(2) 1.00553(19) 0.21184(12)
H1 H 0.6276 1.0857 0.1737
C3 C 0.7735(2) 0.87889(18) 0.15469(11)
H2 H 0.7038 0.8768 0.1105
C4 C 0.9035(2) 0.93288(19) 0.10837(12)
H3 H 0.8603 1.0077 0.0598
C5 C 1.0424(2) 0.82460(19) 0.06953(12)
C6 C 1.1883(2) 0.8088(2) 0.09032(13)
H4 H 1.2028 0.8581 0.1363
C7 C 1.3131(3) 0.7211(2) 0.04420(15)
H5 H 1.4128 0.7126 0.0578
C8 C 1.2931(3) 0.6465(2) -0.02117(15)
H6 H 1.3788 0.5869 -0.0528
C9 C 1.1487(3) 0.6586(2) -0.04042(14)
H7 H 1.1346 0.6055 -0.0845
C10 C 1.0233(3) 0.7481(2) 0.00437(13)
H8 H 0.9239 0.7569 -0.0098
C11 C 0.8218(2) 0.73215(18) 0.20732(11)
C12 C 0.9421(2) 0.69232(19) 0.26106(12)
H9 H 0.9978 0.7579 0.2642
C13 C 0.9811(3) 0.5585(2) 0.30979(13)
H10 H 1.0629 0.5332 0.3463
C14 C 0.9020(3) 0.4614(2) 0.30562(15)
H11 H 0.9297 0.3692 0.3387
C15 C 0.7828(3) 0.4990(2) 0.25337(15)
H12 H 0.7280 0.4326 0.2505
C16 C 0.7422(3) 0.6335(2) 0.20468(13)
H13 H 0.6591 0.6586 0.1691
C17 C 0.5958(2) 0.97646(19) 0.29375(11)
H14 H 0.6077 1.0327 0.3400
H15 H 0.6334 0.8722 0.3150
C18 C 0.4263(2) 1.01572(18) 0.27996(11)
C19 C 0.3544(2) 1.18001(18) 0.26590(11)
C20 C 0.3138(2) 1.21860(19) 0.18413(12)
C21 C 0.3522(2) 1.0859(2) 0.13875(12)
C22 C 0.3383(2) 0.94526(18) 0.35180(11)
C23 C 0.1919(2) 0.9484(2) 0.33955(12)
H16 H 0.1508 0.9874 0.2849
C24 C 0.1051(3) 0.8954(2) 0.40610(13)
H17 H 0.0052 0.8976 0.3969
C25 C 0.1640(3) 0.8391(2) 0.48637(13)
H18 H 0.1039 0.8037 0.5324
C26 C 0.3090(3) 0.8345(2) 0.49911(13)
H19 H 0.3496 0.7953 0.5539
C27 C 0.3967(2) 0.88705(19) 0.43211(12)
H20 H 0.4972 0.8832 0.4412
C28 C 0.3421(2) 1.27575(19) 0.33542(12)
C29 C 0.2670(2) 1.2576(2) 0.41733(12)
H21 H 0.2228 1.1810 0.4301
C30 C 0.2561(3) 1.3503(2) 0.48060(14)
H22 H 0.2042 1.3373 0.5362
C31 C 0.3208(3) 1.4615(2) 0.46283(16)
H23 H 0.3142 1.5240 0.5065
C32 C 0.3944(3) 1.4817(2) 0.38215(17)
H24 H 0.4374 1.5592 0.3699
C33 C 0.4064(2) 1.3895(2) 0.31853(15)
H25 H 0.4585 1.4035 0.2631
C34 C 0.2403(3) 1.3639(2) 0.13778(14)
H26 H 0.2234 1.4391 0.1776
H27 H 0.1427 1.3656 0.1189
H28 H 0.3065 1.3824 0.0865
loop_
_geom_bond_atom_site_label_1
_geom_bond_atom_site_label_2
_geom_bond_site_symmetry_1
_geom_bond_site_symmetry_2
O1 C1 1_555 1_555
O2 C1 1_555 1_555
O3 C18 1_555 1_555
O4 C21 1_555 1_555
C1 C2 1_555 1_555
C2 H1 1_555 1_555
C3 C2 1_555 1_555
H2 C3 1_555 1_555
C4 O1 1_555 1_555
H3 C4 1_555 1_555
C5 C4 1_555 1_555
C6 C5 1_555 1_555
H4 C6 1_555 1_555
C7 C6 1_555 1_555
H5 C7 1_555 1_555
C8 C7 1_555 1_555
H6 C8 1_555 1_555
C9 C8 1_555 1_555
H7 C9 1_555 1_555
C10 C5 1_555 1_555
H8 C10 1_555 1_555
C11 C3 1_555 1_555
C12 C11 1_555 1_555
H9 C12 1_555 1_555
C13 C12 1_555 1_555
H10 C13 1_555 1_555
C14 C13 1_555 1_555
H11 C14 1_555 1_555
C15 C14 1_555 1_555
H12 C15 1_555 1_555
C16 C11 1_555 1_555
H13 C16 1_555 1_555
C17 C2 1_555 1_555
H14 C17 1_555 1_555
H15 C17 1_555 1_555
C18 C17 1_555 1_555
C19 C18 1_555 1_555
C20 C19 1_555 1_555
C21 O3 1_555 1_555
C22 C18 1_555 1_555
C23 C22 1_555 1_555
H16 C23 1_555 1_555
C24 C23 1_555 1_555
H17 C24 1_555 1_555
C25 C24 1_555 1_555
H18 C25 1_555 1_555
C26 C25 1_555 1_555
H19 C26 1_555 1_555
C27 C22 1_555 1_555
H20 C27 1_555 1_555
C28 C19 1_555 1_555
C29 C28 1_555 1_555
H21 C29 1_555 1_555
C30 C29 1_555 1_555
H22 C30 1_555 1_555
C31 C30 1_555 1_555
H23 C31 1_555 1_555
C32 C31 1_555 1_555
H24 C32 1_555 1_555
C33 C28 1_555 1_555
H25 C33 1_555 1_555
C34 C20 1_555 1_555
H26 C34 1_555 1_555
H27 C34 1_555 1_555
H28 C34 1_555 1_555
C3 C4 1_555 1_555
C9 C10 1_555 1_555
C15 C16 1_555 1_555
C20 C21 1_555 1_555
C26 C27 1_555 1_555
C32 C33 1_555 1_555

#END
