
#######################################################################
#
#                 Cambridge Crystallographic Data Centre
#                                CCDC 
#
#######################################################################
#
# If this CIF has been generated from an entry in the Cambridge 
# Structural Database, then it will include bibliographic, chemical, 
# crystal, experimental, refinement or atomic coordinate data resulting 
# from the CCDC's data processing and validation procedures.
#
#######################################################################

data_YUKKOG
_chemical_formula_moiety         'C24 H29 N1 O4'
_chemical_name_systematic        
'dimethyl 4,7-dimethyl-5-(methyl(1-phenylethyl)amino)-1,3-dihydro-2H-indene-2,2-dicarboxylate'
_symmetry_cell_setting           triclinic
_symmetry_space_group_name_H-M   'P -1'
_symmetry_Int_Tables_number      2
_space_group_name_Hall           '-P 1'
loop_
_symmetry_equiv_pos_site_id
_symmetry_equiv_pos_as_xyz
1 x,y,z
2 -x,-y,-z
_cell_length_a                   10.2796(11)
_cell_length_b                   10.8516(11)
_cell_length_c                   11.1212(11)
_cell_angle_alpha                106.824(2)
_cell_angle_beta                 107.776(2)
_cell_angle_gamma                97.152(2)
_cell_volume                     1099.51
_exptl_crystal_colour            colorless
_exptl_crystal_description       prismatic
_cell_formula_units_Z            2
loop_
_atom_site_label
_atom_site_type_symbol
_atom_site_fract_x
_atom_site_fract_y
_atom_site_fract_z
O1 O 0.35019(19) 1.05375(17) 0.9672(2)
O2 O 0.50206(17) 1.24572(15) 1.03544(14)
O3 O 0.4440(2) 1.35345(18) 0.7715(2)
O4 O 0.27672(17) 1.32119(14) 0.85277(17)
C1 C 0.2968(2) 0.93551(18) 0.62126(19)
C2 C 0.2478(2) 1.0445(2) 0.6986(2)
H1 H 0.1907 1.0116 0.7430
H2 H 0.1928 1.0848 0.6397
C3 C 0.3845(2) 1.14589(19) 0.8039(2)
C4 C 0.5061(2) 1.1022(2) 0.7604(2)
H3 H 0.5435 1.1632 0.7237
H4 H 0.5814 1.0984 0.8362
C5 C 0.44102(19) 0.96781(18) 0.65529(18)
C6 C 0.5087(2) 0.88145(19) 0.59271(19)
C7 C 0.4249(2) 0.7640(2) 0.4958(2)
H5 H 0.4671 0.7041 0.4520
C8 C 0.2794(2) 0.7309(2) 0.4603(2)
C9 C 0.2122(2) 0.8161(2) 0.5246(2)
C10 C 0.0560(2) 0.7847(3) 0.4898(3)
H6 H 0.0346 0.8271 0.5677
H7 H 0.0213 0.6906 0.4607
H8 H 0.0123 0.8162 0.4188
C11 C 0.6651(2) 0.9153(2) 0.6291(2)
H9 H 0.7103 0.9047 0.7136
H10 H 0.6954 1.0054 0.6365
H11 H 0.6898 0.8575 0.5605
N1 N 0.1886(3) 0.6186(2) 0.3436(3)
C12 C 0.2419(4) 0.4978(3) 0.3341(4)
H12 H 0.3272 0.5086 0.3126
C13 C 0.1255(3) 0.3850(2) 0.2149(3)
C14 C 0.1527(3) 0.3064(2) 0.1077(3)
H13 H 0.2377 0.3305 0.0976
C15 C 0.0567(3) 0.1933(3) 0.0158(3)
H14 H 0.0774 0.1411 -0.0553
C16 C -0.0684(3) 0.1575(2) 0.0284(3)
H15 H -0.1327 0.0798 -0.0327
C17 C -0.0991(3) 0.2357(3) 0.1306(3)
H16 H -0.1857 0.2123 0.1380
C18 C -0.0035(3) 0.3492(2) 0.2234(3)
H17 H -0.0264 0.4022 0.2924
C19 C 0.1542(3) 0.6418(2) 0.2117(2)
H18 H 0.1192 0.7206 0.2188
H19 H 0.0840 0.5676 0.1421
H20 H 0.2375 0.6522 0.1899
C20 C 0.2772(4) 0.4780(2) 0.4675(3)
H21 H 0.3502 0.5513 0.5350
H22 H 0.3087 0.3975 0.4612
H23 H 0.1952 0.4725 0.4917
C21 C 0.4069(2) 1.14066(19) 0.9433(2)
C22 C 0.5345(3) 1.2560(3) 1.1737(3)
H24 H 0.4491 1.2437 1.1915
H25 H 0.5931 1.3419 1.2313
H26 H 0.5831 1.1891 1.1905
C23 C 0.3756(2) 1.2854(2) 0.8065(2)
C24 C 0.2587(3) 1.4528(2) 0.8667(3)
H27 H 0.3435 1.5157 0.9304
H28 H 0.1825 1.4664 0.8980
H29 H 0.2380 1.4646 0.7811
N2? N 0.2132(7) 0.5748(6) 0.4031(6)
C25? C 0.2067(7) 0.5363(7) 0.2645(8)
H30? H 0.3024 0.5385 0.2648
H31? H 0.2261 0.7224 0.2554
H32? H 0.3696 0.4804 0.4686
H33? H 0.2772 0.5011 0.5585
H34? H 0.2276 0.7232 0.2550
H35? H 0.1326 0.6161 0.1156
H36? H 0.0735 0.6565 0.2321
loop_
_geom_bond_atom_site_label_1
_geom_bond_atom_site_label_2
_geom_bond_site_symmetry_1
_geom_bond_site_symmetry_2
O1 C21 1_555 1_555
O2 C21 1_555 1_555
O3 C23 1_555 1_555
O4 C23 1_555 1_555
C1 C2 1_555 1_555
C2 H1 1_555 1_555
H2 C2 1_555 1_555
C3 C2 1_555 1_555
C4 C3 1_555 1_555
H3 C4 1_555 1_555
H4 C4 1_555 1_555
C5 C1 1_555 1_555
C6 C5 1_555 1_555
C7 C6 1_555 1_555
H5 C7 1_555 1_555
C8 C7 1_555 1_555
C9 C1 1_555 1_555
C10 C9 1_555 1_555
H6 C10 1_555 1_555
H7 C10 1_555 1_555
H8 C10 1_555 1_555
C11 C6 1_555 1_555
H9 C11 1_555 1_555
H10 C11 1_555 1_555
H11 C11 1_555 1_555
N1 C8 1_555 1_555
C12 N1 1_555 1_555
H12 C12 1_555 1_555
C13 C12 1_555 1_555
C14 C13 1_555 1_555
H13 C14 1_555 1_555
C15 C14 1_555 1_555
H14 C15 1_555 1_555
C16 C15 1_555 1_555
H15 C16 1_555 1_555
C17 C16 1_555 1_555
H16 C17 1_555 1_555
C18 C13 1_555 1_555
H17 C18 1_555 1_555
C19 N1 1_555 1_555
H18 C19 1_555 1_555
H19 C19 1_555 1_555
H20 C19 1_555 1_555
C20 C12 1_555 1_555
H21 C20 1_555 1_555
H22 C20 1_555 1_555
H23 C20 1_555 1_555
C21 C3 1_555 1_555
C22 O2 1_555 1_555
H24 C22 1_555 1_555
H25 C22 1_555 1_555
H26 C22 1_555 1_555
C23 C3 1_555 1_555
C24 O4 1_555 1_555
H27 C24 1_555 1_555
H28 C24 1_555 1_555
H29 C24 1_555 1_555
C4 C5 1_555 1_555
C8 C9 1_555 1_555
C17 C18 1_555 1_555

#END
