
#######################################################################
#
#                 Cambridge Crystallographic Data Centre
#                                CCDC 
#
#######################################################################
#
# If this CIF has been generated from an entry in the Cambridge 
# Structural Database, then it will include bibliographic, chemical, 
# crystal, experimental, refinement or atomic coordinate data resulting 
# from the CCDC's data processing and validation procedures.
#
#######################################################################

data_YUKLUL
_chemical_formula_moiety         'C23 H29 N2 O2 1+,Br1 1-,C2 H6 O1,H2 O1'
_chemical_name_systematic        
'(1R*,5S*,7R*)-5-(3-Methoxyphenyl)-2-methyl-7-((phenylcarbonyl)amino)-2-azabicyclo(3.3.1)nonane hydrobromide ethanol solvate monohydrate'
_symmetry_cell_setting           orthorhombic
_symmetry_space_group_name_H-M   'P b c n'
_symmetry_Int_Tables_number      60
_space_group_name_Hall           '-P 2n 2ab'
loop_
_symmetry_equiv_pos_site_id
_symmetry_equiv_pos_as_xyz
1 x,y,z
2 1/2-x,1/2-y,1/2+z
3 1/2+x,1/2-y,-z
4 -x,y,1/2-z
5 -x,-y,-z
6 1/2+x,1/2+y,1/2-z
7 1/2-x,1/2+y,z
8 x,-y,1/2+z
_cell_length_a                   20.661(3)
_cell_length_b                   18.448(3)
_cell_length_c                   13.172(2)
_cell_angle_alpha                90
_cell_angle_beta                 90
_cell_angle_gamma                90
_cell_volume                     5020.56
_exptl_crystal_colour            colorless
_chemical_melting_point          '181-183 deg.C'
_cell_formula_units_Z            8
loop_
_atom_site_label
_atom_site_type_symbol
_atom_site_fract_x
_atom_site_fract_y
_atom_site_fract_z
Br1 Br 0.1012(1) 0.2538(1) -0.3997(1)
C1 C 0.1829(3) 0.2288(3) -0.1208(4)
N1 N 0.1381(2) 0.1843(3) -0.1867(4)
C2 C 0.0739(3) 0.1705(4) -0.1412(5)
C3 C 0.1687(3) 0.1159(3) -0.2260(4)
C4 C 0.2357(3) 0.1288(3) -0.2708(4)
C5 C 0.2803(3) 0.1776(3) -0.2053(4)
C6 C 0.3010(3) 0.1412(3) -0.1036(4)
C7 C 0.2475(3) 0.1292(3) -0.0269(3)
C8 C 0.2006(3) 0.1940(3) -0.0193(4)
C9 C 0.2431(3) 0.2462(3) -0.1813(4)
N2 N 0.2768(2) 0.1167(3) 0.0729(3)
C10 C 0.2495(3) 0.0764(3) 0.1451(4)
O1 O 0.1973(2) 0.0445(2) 0.1341(3)
C11 C 0.2856(3) 0.0716(3) 0.2446(4)
C12 C 0.2499(3) 0.0620(3) 0.3328(4)
C13 C 0.2800(4) 0.0584(3) 0.4264(5)
C14 C 0.3456(4) 0.0636(4) 0.4320(5)
C15 C 0.3820(4) 0.0709(4) 0.3449(5)
C16 C 0.3520(3) 0.0763(3) 0.2504(5)
C17 C 0.3430(3) 0.1919(3) -0.2648(4)
C18 C 0.3781(3) 0.1353(3) -0.3061(4)
C19 C 0.4355(3) 0.1463(3) -0.3582(4)
O2 O 0.4646(2) 0.0848(2) -0.3944(3)
C20 C 0.5252(3) 0.0935(4) -0.4451(6)
C21 C 0.4589(3) 0.2155(4) -0.3720(5)
C22 C 0.4248(3) 0.2724(4) -0.3300(5)
C23 C 0.3676(3) 0.2616(3) -0.2775(4)
H1 H 0.1610(3) 0.2747(3) -0.1060(4)
H2 H 0.1304(2) 0.2120(3) -0.2426(4)
H3 H 0.0559(3) 0.2153(4) -0.1171(5)
H4 H 0.0783(3) 0.1373(4) -0.0854(5)
H5 H 0.0457(3) 0.1499(4) -0.1914(5)
H6 H 0.1410(3) 0.0950(3) -0.2776(4)
H7 H 0.1722(3) 0.0813(3) -0.1709(4)
H8 H 0.2308(3) 0.1509(3) -0.3372(4)
H9 H 0.2567(3) 0.0823(3) -0.2804(4)
H10 H 0.3205(3) 0.0947(3) -0.1191(4)
H11 H 0.3341(3) 0.1711(3) -0.0723(4)
H12 H 0.2229(3) 0.0859(3) -0.0464(3)
H13 H 0.1612(3) 0.1778(3) 0.0135(4)
H14 H 0.2201(3) 0.2306(3) 0.0238(4)
H15 H 0.2704(3) 0.2789(3) -0.1427(4)
H16 H 0.2311(3) 0.2702(3) -0.2440(4)
H17 H 0.3136(2) 0.1365(3) 0.0856(3)
H18 H 0.2051(3) 0.0579(3) 0.3289(4)
H19 H 0.2555(4) 0.0524(3) 0.4851(5)
H20 H 0.3660(4) 0.0623(4) 0.4949(5)
H21 H 0.4269(4) 0.0721(4) 0.3492(5)
H22 H 0.3765(3) 0.0830(3) 0.1920(5)
H23 H 0.3627(3) 0.0883(3) -0.2986(4)
H24 H 0.5408(3) 0.0471(4) -0.4669(6)
H25 H 0.5559(3) 0.1150(4) -0.3994(6)
H26 H 0.5195(3) 0.1244(4) -0.5031(6)
H27 H 0.4968(3) 0.2236(4) -0.4085(5)
H28 H 0.4406(3) 0.3193(4) -0.3373(5)
H29 H 0.3455(3) 0.3011(3) -0.2505(4)
O3 O 0.1103(3) 0.0154(3) -0.0197(4)
C24 C 0.0888(4) -0.0568(4) -0.0129(7)
C25 C 0.0532(5) -0.0776(7) -0.1042(9)
H30 H 0.1301(3) 0.0262(3) 0.0321(4)
H31 H 0.0610(4) -0.0622(4) 0.0460(7)
H32 H 0.1257(4) -0.0887(4) -0.0043(7)
H33 H 0.0389(5) -0.1269(7) -0.0980(9)
H34 H 0.0809(5) -0.0731(7) -0.1624(9)
H35 H 0.0163(5) -0.0464(7) -0.1122(9)
O4 O 0.0000 0.3406(24) -0.2500
loop_
_geom_bond_atom_site_label_1
_geom_bond_atom_site_label_2
_geom_bond_site_symmetry_1
_geom_bond_site_symmetry_2
C1 N1 1_555 1_555
N1 C2 1_555 1_555
C2 H3 1_555 1_555
C3 N1 1_555 1_555
C4 C3 1_555 1_555
C5 C4 1_555 1_555
C6 C5 1_555 1_555
C7 C6 1_555 1_555
C8 C1 1_555 1_555
C9 C1 1_555 1_555
N2 C7 1_555 1_555
C10 N2 1_555 1_555
O1 C10 1_555 1_555
C11 C10 1_555 1_555
C12 C11 1_555 1_555
C13 C12 1_555 1_555
C14 C13 1_555 1_555
C15 C14 1_555 1_555
C16 C11 1_555 1_555
C17 C5 1_555 1_555
C18 C17 1_555 1_555
C19 C18 1_555 1_555
O2 C19 1_555 1_555
C20 O2 1_555 1_555
C21 C19 1_555 1_555
C22 C21 1_555 1_555
C23 C17 1_555 1_555
O3 C24 1_555 1_555
C24 C25 1_555 1_555
C25 H33 1_555 1_555
H1 C1 1_555 1_555
H2 N1 1_555 1_555
H4 C2 1_555 1_555
H5 C2 1_555 1_555
H6 C3 1_555 1_555
H7 C3 1_555 1_555
H8 C4 1_555 1_555
H9 C4 1_555 1_555
H10 C6 1_555 1_555
H11 C6 1_555 1_555
H12 C7 1_555 1_555
H13 C8 1_555 1_555
H14 C8 1_555 1_555
H15 C9 1_555 1_555
H16 C9 1_555 1_555
H17 N2 1_555 1_555
H18 C12 1_555 1_555
H19 C13 1_555 1_555
H20 C14 1_555 1_555
H21 C15 1_555 1_555
H22 C16 1_555 1_555
H23 C18 1_555 1_555
H24 C20 1_555 1_555
H25 C20 1_555 1_555
H26 C20 1_555 1_555
H27 C21 1_555 1_555
H28 C22 1_555 1_555
H29 C23 1_555 1_555
H30 O3 1_555 1_555
H31 C24 1_555 1_555
H32 C24 1_555 1_555
H34 C25 1_555 1_555
H35 C25 1_555 1_555
C5 C9 1_555 1_555
C7 C8 1_555 1_555
C15 C16 1_555 1_555
C22 C23 1_555 1_555

#END
