
#######################################################################
#
#                 Cambridge Crystallographic Data Centre
#                                CCDC 
#
#######################################################################
#
# If this CIF has been generated from an entry in the Cambridge 
# Structural Database, then it will include bibliographic, chemical, 
# crystal, experimental, refinement or atomic coordinate data resulting 
# from the CCDC's data processing and validation procedures.
#
#######################################################################

data_YUKLIB
_chemical_formula_moiety         'C16 H12 Cl1 N1 O1'
_chemical_name_systematic        
1a-(4-chlorophenyl)-1,1a,2,7b-tetrahydro-3H-cyclopropa[c]isoquinolin-3-one
_symmetry_cell_setting           orthorhombic
_symmetry_space_group_name_H-M   'P 21 21 21'
_symmetry_Int_Tables_number      19
_space_group_name_Hall           'P 2ac 2ab'
loop_
_symmetry_equiv_pos_site_id
_symmetry_equiv_pos_as_xyz
1 x,y,z
2 1/2-x,-y,1/2+z
3 -x,1/2+y,1/2-z
4 1/2+x,1/2-y,-z
_cell_length_a                   9.3918(9)
_cell_length_b                   13.5329(15)
_cell_length_c                   51.624(5)
_cell_angle_alpha                90
_cell_angle_beta                 90
_cell_angle_gamma                90
_cell_volume                     6561.32
_exptl_crystal_colour            colorless
_exptl_crystal_description       prism
_cell_formula_units_Z            20
loop_
_atom_site_label
_atom_site_type_symbol
_atom_site_fract_x
_atom_site_fract_y
_atom_site_fract_z
Cl1 Cl 0.10701(6) -0.17518(4) 0.753411(11)
O1 O 0.62112(15) 0.34547(10) 0.79335(3)
N1 N 0.48702(19) 0.24506(13) 0.76830(3)
H1 H 0.541(2) 0.2002(16) 0.7730(4)
C1 C 0.2916(2) 0.31314(15) 0.74065(4)
H2 H 0.1923 0.2964 0.7352
C2 C 0.4076(2) 0.27633(15) 0.72280(4)
H3 H 0.3783 0.2410 0.7069
H4 H 0.4941 0.3175 0.7209
C3 C 0.3838(2) 0.22538(14) 0.74838(4)
C4 C 0.5181(2) 0.33414(15) 0.77857(4)
C5 C 0.4196(2) 0.41713(15) 0.77292(4)
C6 C 0.4362(2) 0.50554(15) 0.78665(4)
H5 H 0.5134 0.5131 0.7984
C7 C 0.3402(2) 0.58204(16) 0.78315(4)
H6 H 0.3521 0.6425 0.7922
C8 C 0.2265(2) 0.56981(16) 0.76628(4)
H7 H 0.1593 0.6217 0.7642
C9 C 0.2101(2) 0.48289(16) 0.75254(4)
H8 H 0.1319 0.4756 0.7410
C10 C 0.3066(2) 0.40631(15) 0.75539(4)
C11 C 0.3168(2) 0.12532(15) 0.74959(4)
C12 C 0.2225(2) 0.09418(16) 0.73022(4)
H9 H 0.2029 0.1367 0.7160
C13 C 0.1575(2) 0.00273(15) 0.73137(4)
H10 H 0.0945 -0.0180 0.7180
C14 C 0.1858(2) -0.05796(15) 0.75223(4)
C15 C 0.2769(2) -0.02995(15) 0.77169(4)
H11 H 0.2950 -0.0728 0.7859
C16 C 0.3420(2) 0.06176(15) 0.77032(4)
H12 H 0.4049 0.0817 0.7838
Cl2 Cl 1.02670(7) 0.63391(4) 0.860007(11)
O2 O 0.64493(15) 0.09459(10) 0.79993(3)
N2 N 0.82244(19) 0.20312(13) 0.80649(3)
H13 H 0.768(2) 0.2460(17) 0.8007(4)
C17 C 1.0661(2) 0.14966(15) 0.82046(4)
H14 H 1.1423 0.1690 0.8330
C18 C 1.0787(2) 0.19226(16) 0.79348(4)
H15 H 1.1621 0.2346 0.7897
H16 H 1.0464 0.1508 0.7788
C19 C 0.9675(2) 0.23235(15) 0.81143(4)
C20 C 0.7715(2) 0.11129(15) 0.80660(4)
C21 C 0.8654(2) 0.03052(15) 0.81564(4)
C22 C 0.8108(2) -0.06537(15) 0.81724(4)
H17 H 0.7173 -0.0790 0.8112
C23 C 0.8929(3) -0.14051(17) 0.82759(5)
H18 H 0.8564 -0.2059 0.8285
C24 C 1.0294(3) -0.11973(18) 0.83662(5)
H19 H 1.0854 -0.1710 0.8440
C25 C 1.0840(3) -0.02514(17) 0.83501(5)
H20 H 1.1767 -0.0116 0.8415
C26 C 1.0041(2) 0.05031(15) 0.82402(4)
C27 C 0.9812(2) 0.33269(15) 0.82321(4)
C28 C 1.1090(2) 0.38415(17) 0.82217(4)
H21 H 1.1880 0.3557 0.8134
C29 C 1.1236(3) 0.47588(17) 0.83358(4)
H22 H 1.2122 0.5096 0.8330
C30 C 1.0082(2) 0.51768(15) 0.84574(4)
C31 C 0.8799(2) 0.46952(16) 0.84703(4)
H23 H 0.8007 0.4995 0.8554
C32 C 0.8673(2) 0.37651(16) 0.83598(4)
H24 H 0.7794 0.3422 0.8372
Cl3 Cl 0.51310(7) 1.01474(4) 0.631198(12)
O3 O 0.56671(16) 0.38292(11) 0.67483(3)
N3 N 0.49531(19) 0.52104(13) 0.65423(3)
H25 H 0.467(2) 0.5404(16) 0.6696(4)
C33 C 0.4371(2) 0.51585(15) 0.60683(4)
H26 H 0.4488 0.5577 0.5910
C34 C 0.2978(2) 0.52979(16) 0.62132(4)
H27 H 0.2275 0.5766 0.6140
H28 H 0.2561 0.4714 0.6300
C35 C 0.4336(2) 0.57209(15) 0.63235(4)
C36 C 0.5401(2) 0.42538(15) 0.65439(4)
C37 C 0.5600(2) 0.37576(15) 0.62890(4)
C38 C 0.6298(2) 0.28512(15) 0.62807(4)
H29 H 0.6624 0.2554 0.6437
C39 C 0.6520(2) 0.23794(16) 0.60454(4)
H30 H 0.6996 0.1760 0.6040
C40 C 0.6047(2) 0.28132(16) 0.58207(4)
H31 H 0.6204 0.2490 0.5660
C41 C 0.5344(2) 0.37139(15) 0.58249(4)
H32 H 0.5021 0.4003 0.5668
C42 C 0.5111(2) 0.41956(15) 0.60605(4)
C43 C 0.4549(2) 0.68229(15) 0.63232(4)
C44 C 0.4137(2) 0.73832(16) 0.61094(4)
H33 H 0.3727 0.7061 0.5964
C45 C 0.4312(2) 0.84009(16) 0.61047(4)
H34 H 0.4031 0.8773 0.5957
C46 C 0.4900(2) 0.88625(15) 0.63169(4)
C47 C 0.5299(2) 0.83365(16) 0.65332(4)
H35 H 0.5689 0.8667 0.6679
C48 C 0.5126(2) 0.73163(16) 0.65352(4)
H36 H 0.5406 0.6950 0.6684
Cl4 Cl 0.16110(7) 0.02127(4) 0.585845(11)
O4 O 0.24725(15) 0.64921(10) 0.55592(3)
N4 N 0.12667(19) 0.50497(13) 0.55653(3)
H37 H 0.189(3) 0.4819(17) 0.5476(4)
C49 C -0.1126(2) 0.48989(16) 0.57744(4)
H38 H -0.1653 0.4446 0.5894
C50 C -0.1324(2) 0.47049(17) 0.54866(4)
H39 H -0.1977 0.4165 0.5435
H40 H -0.1318 0.5281 0.5368
C51 C 0.0052(2) 0.44255(15) 0.56150(4)
C52 C 0.1408(2) 0.60100(15) 0.56287(4)
C53 C 0.0276(2) 0.64638(15) 0.57906(4)
C54 C 0.0453(2) 0.74358(15) 0.58754(4)
H41 H 0.1257 0.7805 0.5820
C55 C -0.0532(2) 0.78658(16) 0.60400(4)
H42 H -0.0409 0.8528 0.6097
C56 C -0.1700(3) 0.73196(17) 0.61208(4)
H43 H -0.2378 0.7611 0.6234
C57 C -0.1888(2) 0.63517(16) 0.60383(4)
H44 H -0.2684 0.5982 0.6098
C58 C -0.0917(2) 0.59193(15) 0.58685(4)
C59 C 0.0448(2) 0.33715(15) 0.56675(4)
C60 C -0.0334(2) 0.25831(16) 0.55670(4)
H45 H -0.1119 0.2711 0.5456
C61 C 0.0020(2) 0.16195(16) 0.56267(4)
H46 H -0.0527 0.1088 0.5560
C62 C 0.1171(3) 0.14358(16) 0.57838(4)
C63 C 0.1990(3) 0.21914(17) 0.58818(4)
H47 H 0.2796 0.2054 0.5987
C64 C 0.1615(2) 0.31594(16) 0.58236(4)
H48 H 0.2166 0.3687 0.5892
Cl5 Cl 0.66589(8) 1.03129(5) 0.554761(15)
O5 O 0.36572(16) 0.42823(10) 0.52794(3)
N5 N 0.4526(2) 0.57935(13) 0.51822(3)
H49 H 0.389(3) 0.6030(17) 0.5275(4)
C65 C 0.6446(2) 0.59961(16) 0.48479(4)
H50 H 0.7313 0.6406 0.4814
C66 C 0.5066(3) 0.63874(17) 0.47349(4)
H51 H 0.5112 0.7002 0.4631
H52 H 0.4356 0.5899 0.4674
C67 C 0.5311(2) 0.64699(15) 0.50214(4)
C68 C 0.4555(2) 0.47988(16) 0.51663(4)
C69 C 0.5752(2) 0.43450(16) 0.50205(4)
C70 C 0.5980(2) 0.33320(17) 0.50417(4)
H53 H 0.5345 0.2941 0.5142
C71 C 0.7128(3) 0.28883(18) 0.49179(4)
H54 H 0.7275 0.2196 0.4932
C72 C 0.8054(3) 0.34640(19) 0.47741(4)
H55 H 0.8839 0.3164 0.4689
C73 C 0.7846(2) 0.44728(18) 0.47536(4)
H56 H 0.8497 0.4861 0.4656
C74 C 0.6692(2) 0.49238(16) 0.48745(4)
C75 C 0.5642(2) 0.74281(16) 0.51509(4)
C76 C 0.5605(3) 0.83147(17) 0.50142(4)
H57 H 0.5348 0.8313 0.4836
C77 C 0.5938(3) 0.91976(17) 0.51344(5)
H58 H 0.5918 0.9799 0.5040
C78 C 0.6299(2) 0.91960(17) 0.53923(5)
C79 C 0.6359(3) 0.83316(18) 0.55321(5)
H59 H 0.6623 0.8340 0.5710
C80 C 0.6027(3) 0.74479(17) 0.54102(4)
H60 H 0.6065 0.6848 0.5506
loop_
_geom_bond_atom_site_label_1
_geom_bond_atom_site_label_2
_geom_bond_site_symmetry_1
_geom_bond_site_symmetry_2
Cl1 C14 1_555 1_555
O1 C4 1_555 1_555
N1 H1 1_555 1_555
C1 H2 1_555 1_555
C2 C1 1_555 1_555
H3 C2 1_555 1_555
H4 C2 1_555 1_555
C3 N1 1_555 1_555
C4 N1 1_555 1_555
C5 C4 1_555 1_555
C6 C5 1_555 1_555
H5 C6 1_555 1_555
C7 C6 1_555 1_555
H6 C7 1_555 1_555
C8 C7 1_555 1_555
H7 C8 1_555 1_555
C9 C8 1_555 1_555
H8 C9 1_555 1_555
C10 C1 1_555 1_555
C11 C3 1_555 1_555
C12 C11 1_555 1_555
H9 C12 1_555 1_555
C13 C12 1_555 1_555
H10 C13 1_555 1_555
C14 C13 1_555 1_555
C15 C14 1_555 1_555
H11 C15 1_555 1_555
C16 C11 1_555 1_555
H12 C16 1_555 1_555
Cl2 C30 1_555 1_555
O2 C20 1_555 1_555
N2 H13 1_555 1_555
C17 H14 1_555 1_555
C18 C17 1_555 1_555
H15 C18 1_555 1_555
H16 C18 1_555 1_555
C19 N2 1_555 1_555
C20 N2 1_555 1_555
C21 C20 1_555 1_555
C22 C21 1_555 1_555
H17 C22 1_555 1_555
C23 C22 1_555 1_555
H18 C23 1_555 1_555
C24 C23 1_555 1_555
H19 C24 1_555 1_555
C25 C24 1_555 1_555
H20 C25 1_555 1_555
C26 C17 1_555 1_555
C27 C19 1_555 1_555
C28 C27 1_555 1_555
H21 C28 1_555 1_555
C29 C28 1_555 1_555
H22 C29 1_555 1_555
C30 C29 1_555 1_555
C31 C30 1_555 1_555
H23 C31 1_555 1_555
C32 C27 1_555 1_555
H24 C32 1_555 1_555
Cl3 C46 1_555 1_555
O3 C36 1_555 1_555
N3 H25 1_555 1_555
C33 H26 1_555 1_555
C34 C33 1_555 1_555
H27 C34 1_555 1_555
H28 C34 1_555 1_555
C35 N3 1_555 1_555
C36 N3 1_555 1_555
C37 C36 1_555 1_555
C38 C37 1_555 1_555
H29 C38 1_555 1_555
C39 C38 1_555 1_555
H30 C39 1_555 1_555
C40 C39 1_555 1_555
H31 C40 1_555 1_555
C41 C40 1_555 1_555
H32 C41 1_555 1_555
C42 C33 1_555 1_555
C43 C35 1_555 1_555
C44 C43 1_555 1_555
H33 C44 1_555 1_555
C45 C44 1_555 1_555
H34 C45 1_555 1_555
C46 C45 1_555 1_555
C47 C46 1_555 1_555
H35 C47 1_555 1_555
C48 C43 1_555 1_555
H36 C48 1_555 1_555
Cl4 C62 1_555 1_555
O4 C52 1_555 1_555
N4 H37 1_555 1_555
C49 H38 1_555 1_555
C50 C49 1_555 1_555
H39 C50 1_555 1_555
H40 C50 1_555 1_555
C51 N4 1_555 1_555
C52 N4 1_555 1_555
C53 C52 1_555 1_555
C54 C53 1_555 1_555
H41 C54 1_555 1_555
C55 C54 1_555 1_555
H42 C55 1_555 1_555
C56 C55 1_555 1_555
H43 C56 1_555 1_555
C57 C56 1_555 1_555
H44 C57 1_555 1_555
C58 C49 1_555 1_555
C59 C51 1_555 1_555
C60 C59 1_555 1_555
H45 C60 1_555 1_555
C61 C60 1_555 1_555
H46 C61 1_555 1_555
C62 C61 1_555 1_555
C63 C62 1_555 1_555
H47 C63 1_555 1_555
C64 C59 1_555 1_555
H48 C64 1_555 1_555
Cl5 C78 1_555 1_555
O5 C68 1_555 1_555
N5 H49 1_555 1_555
C65 H50 1_555 1_555
C66 C65 1_555 1_555
H51 C66 1_555 1_555
H52 C66 1_555 1_555
C67 N5 1_555 1_555
C68 N5 1_555 1_555
C69 C68 1_555 1_555
C70 C69 1_555 1_555
H53 C70 1_555 1_555
C71 C70 1_555 1_555
H54 C71 1_555 1_555
C72 C71 1_555 1_555
H55 C72 1_555 1_555
C73 C72 1_555 1_555
H56 C73 1_555 1_555
C74 C65 1_555 1_555
C75 C67 1_555 1_555
C76 C75 1_555 1_555
H57 C76 1_555 1_555
C77 C76 1_555 1_555
H58 C77 1_555 1_555
C78 C77 1_555 1_555
C79 C78 1_555 1_555
H59 C79 1_555 1_555
C80 C75 1_555 1_555
H60 C80 1_555 1_555
C1 C3 1_555 1_555
C2 C3 1_555 1_555
C5 C10 1_555 1_555
C9 C10 1_555 1_555
C15 C16 1_555 1_555
C17 C19 1_555 1_555
C18 C19 1_555 1_555
C21 C26 1_555 1_555
C25 C26 1_555 1_555
C31 C32 1_555 1_555
C33 C35 1_555 1_555
C34 C35 1_555 1_555
C37 C42 1_555 1_555
C41 C42 1_555 1_555
C47 C48 1_555 1_555
C49 C51 1_555 1_555
C50 C51 1_555 1_555
C53 C58 1_555 1_555
C57 C58 1_555 1_555
C63 C64 1_555 1_555
C65 C67 1_555 1_555
C66 C67 1_555 1_555
C69 C74 1_555 1_555
C73 C74 1_555 1_555
C79 C80 1_555 1_555

#END
