
#######################################################################
#
#                 Cambridge Crystallographic Data Centre
#                                CCDC 
#
#######################################################################
#
# If this CIF has been generated from an entry in the Cambridge 
# Structural Database, then it will include bibliographic, chemical, 
# crystal, experimental, refinement or atomic coordinate data resulting 
# from the CCDC's data processing and validation procedures.
#
#######################################################################

data_YUKLUN
_chemical_formula_moiety         'C17 H17 N1 O4 S1'
_chemical_name_systematic        
N-(6-methoxy-3-methylene-2,3-dihydro-1-benzofuran-2-yl)-4-methylbenzenesulfonamide
_symmetry_cell_setting           monoclinic
_symmetry_space_group_name_H-M   'P 21/c'
_symmetry_Int_Tables_number      14
_space_group_name_Hall           '-P 2ybc'
loop_
_symmetry_equiv_pos_site_id
_symmetry_equiv_pos_as_xyz
1 x,y,z
2 -x,1/2+y,1/2-z
3 -x,-y,-z
4 x,1/2-y,1/2+z
_cell_length_a                   5.275(4)
_cell_length_b                   16.655(13)
_cell_length_c                   37.01(3)
_cell_angle_alpha                90
_cell_angle_beta                 92.547(11)
_cell_angle_gamma                90
_cell_volume                     3248.31
_exptl_crystal_colour            colorless
_exptl_crystal_description       prism
_cell_formula_units_Z            8
loop_
_atom_site_label
_atom_site_type_symbol
_atom_site_fract_x
_atom_site_fract_y
_atom_site_fract_z
C1 C 0.9117(15) 0.3354(4) 0.3776(2)
C2 C 1.0959(14) 0.2760(5) 0.3789(2)
H1 H 1.2393 0.2804 0.3952
C3 C 1.0693(15) 0.2102(5) 0.3562(2)
H2 H 1.1959 0.1696 0.3574
C4 C 0.8654(17) 0.2017(5) 0.3320(2)
C5 C 0.8341(14) 0.1298(4) 0.3071(2)
H3 H 0.6761 0.1353 0.2923
H4 H 0.8279 0.0807 0.3216
H5 H 0.9780 0.1271 0.2913
C6 C 0.6811(14) 0.2628(5) 0.3315(2)
H6 H 0.5363 0.2581 0.3154
C7 C 0.7043(14) 0.3296(5) 0.3537(2)
H7 H 0.5795 0.3708 0.3525
C8 C 0.7603(14) 0.3460(5) 0.4621(2)
H8 H 0.9438 0.3332 0.4671
C9 C 0.6369(13) 0.3642(5) 0.4983(2)
C10 C 0.6983(13) 0.4247(5) 0.5202(2)
H9 H 0.6144 0.4311 0.5422
H10 H 0.8263 0.4616 0.5140
C11 C 0.4479(13) 0.3012(4) 0.5027(2)
C12 C 0.4522(13) 0.2515(5) 0.4727(2)
C13 C 0.2974(13) 0.1859(4) 0.4683(2)
H11 H 0.3020 0.1521 0.4477
C14 C 0.1341(13) 0.1720(4) 0.4958(2)
C15 C 0.1206(13) 0.2207(5) 0.5264(2)
H12 H 0.0055 0.2088 0.5447
C16 C 0.2808(13) 0.2873(4) 0.5294(2)
H13 H 0.2742 0.3224 0.5496
C17 C -0.1890(13) 0.0828(4) 0.5177(2)
H14 H -0.2794 0.0335 0.5105
H15 H -0.3112 0.1266 0.5200
H16 H -0.0973 0.0743 0.5410
N1 N 0.7406(10) 0.4098(3) 0.43709(17)
H17 H 0.6166 0.4448 0.4387
O1 O 1.1899(9) 0.4188(3) 0.42143(14)
O2 O 0.8468(9) 0.4904(3) 0.38565(14)
O3 O 0.6314(9) 0.2743(3) 0.44879(12)
O4 O -0.0107(9) 0.1033(3) 0.49068(13)
S1 S 0.9398(4) 0.42039(13) 0.40539(6)
C18 C 1.3481(13) 0.3572(4) 0.25090(19)
C19 C 1.1646(13) 0.3655(5) 0.2763(2)
H18 H 1.0469 0.3234 0.2798
C20 C 1.1527(15) 0.4354(6) 0.2965(2)
H19 H 1.0244 0.4414 0.3135
C21 C 1.3250(17) 0.4961(5) 0.2920(2)
C22 C 1.3189(18) 0.5697(5) 0.3159(3)
H20 H 1.1760 0.5657 0.3319
H21 H 1.2988 0.6178 0.3008
H22 H 1.4779 0.5733 0.3306
C23 C 1.5029(16) 0.4873(5) 0.2665(3)
H23 H 1.6200 0.5297 0.2631
C24 C 1.5183(14) 0.4192(5) 0.2457(2)
H24 H 1.6430 0.4148 0.2280
C25 C 1.1491(15) 0.3083(5) 0.1634(2)
H25 H 1.3270 0.3121 0.1553
C26 C 0.9764(15) 0.2738(5) 0.1332(2)
C27 C 1.0003(15) 0.2005(5) 0.1204(2)
H26 H 0.8886 0.1821 0.1013
H27 H 1.1292 0.1661 0.1302
C28 C 0.8035(15) 0.3374(5) 0.1238(2)
C29 C 0.8537(16) 0.4031(6) 0.1462(2)
C30 C 0.7240(16) 0.4746(5) 0.1442(2)
H28 H 0.7626 0.5174 0.1605
C31 C 0.5372(16) 0.4810(6) 0.1177(3)
C32 C 0.4726(13) 0.4161(6) 0.0953(2)
H29 H 0.3358 0.4208 0.0778
C33 C 0.6066(16) 0.3452(5) 0.0984(2)
H30 H 0.5626 0.3014 0.0829
C34 C 0.2398(15) 0.5690(4) 0.0875(2)
H31 H 0.1734 0.6237 0.0897
H32 H 0.1003 0.5304 0.0889
H33 H 0.3202 0.5632 0.0643
N2 N 1.1438(10) 0.2616(3) 0.19569(17)
H34 H 1.0137 0.2295 0.1986
O5 O 1.3105(8) 0.2005(3) 0.25191(13)
O6 O 1.6046(8) 0.2654(3) 0.20996(13)
O7 O 1.0511(10) 0.3893(3) 0.17107(14)
O8 O 0.4206(11) 0.5543(3) 0.11599(15)
S2 S 1.3694(4) 0.26503(12) 0.22758(6)
loop_
_geom_bond_atom_site_label_1
_geom_bond_atom_site_label_2
_geom_bond_site_symmetry_1
_geom_bond_site_symmetry_2
C1 C2 1_555 1_555
C2 H1 1_555 1_555
C3 C2 1_555 1_555
H2 C3 1_555 1_555
C4 C3 1_555 1_555
C5 C4 1_555 1_555
H3 C5 1_555 1_555
H4 C5 1_555 1_555
H5 C5 1_555 1_555
C6 C4 1_555 1_555
H6 C6 1_555 1_555
C7 C1 1_555 1_555
H7 C7 1_555 1_555
C8 H8 1_555 1_555
C9 C8 1_555 1_555
C10 C9 1_555 1_555
H9 C10 1_555 1_555
H10 C10 1_555 1_555
C11 C9 1_555 1_555
C12 C11 1_555 1_555
C13 C12 1_555 1_555
H11 C13 1_555 1_555
C14 C13 1_555 1_555
C15 C14 1_555 1_555
H12 C15 1_555 1_555
C16 C11 1_555 1_555
H13 C16 1_555 1_555
C17 H14 1_555 1_555
H15 C17 1_555 1_555
H16 C17 1_555 1_555
N1 C8 1_555 1_555
H17 N1 1_555 1_555
O1 S1 1_555 1_555
O2 S1 1_555 1_555
O3 C8 1_555 1_555
O4 C14 1_555 1_555
S1 C1 1_555 1_555
C18 C19 1_555 1_555
C19 H18 1_555 1_555
C20 C19 1_555 1_555
H19 C20 1_555 1_555
C21 C20 1_555 1_555
C22 C21 1_555 1_555
H20 C22 1_555 1_555
H21 C22 1_555 1_555
H22 C22 1_555 1_555
C23 C21 1_555 1_555
H23 C23 1_555 1_555
C24 C18 1_555 1_555
H24 C24 1_555 1_555
C25 H25 1_555 1_555
C26 C25 1_555 1_555
C27 C26 1_555 1_555
H26 C27 1_555 1_555
H27 C27 1_555 1_555
C28 C26 1_555 1_555
C29 C28 1_555 1_555
C30 C29 1_555 1_555
H28 C30 1_555 1_555
C31 C30 1_555 1_555
C32 C31 1_555 1_555
H29 C32 1_555 1_555
C33 C28 1_555 1_555
H30 C33 1_555 1_555
C34 H31 1_555 1_555
H32 C34 1_555 1_555
H33 C34 1_555 1_555
N2 C25 1_555 1_555
H34 N2 1_555 1_555
O5 S2 1_555 1_555
O6 S2 1_555 1_555
O7 C25 1_555 1_555
O8 C31 1_555 1_555
S2 C18 1_555 1_555
C6 C7 1_555 1_555
C12 O3 1_555 1_555
C15 C16 1_555 1_555
C17 O4 1_555 1_555
N1 S1 1_555 1_555
C23 C24 1_555 1_555
C29 O7 1_555 1_555
C32 C33 1_555 1_555
C34 O8 1_555 1_555
N2 S2 1_555 1_555

#END
