
#######################################################################
#
#                 Cambridge Crystallographic Data Centre
#                                CCDC 
#
#######################################################################
#
# If this CIF has been generated from an entry in the Cambridge 
# Structural Database, then it will include bibliographic, chemical, 
# crystal, experimental, refinement or atomic coordinate data resulting 
# from the CCDC's data processing and validation procedures.
#
#######################################################################

data_YUKMIA
_chemical_formula_moiety         'C22 H22 N2 O1'
_chemical_name_systematic        
3-(1,2,3,4,5,6-Hexahydro-2-methyl-1,5-methano-2-azocino(4,3-b)quinolin-5-yl)phenol
_symmetry_cell_setting           triclinic
_symmetry_space_group_name_H-M   'P -1'
_symmetry_Int_Tables_number      2
_space_group_name_Hall           '-P 1'
loop_
_symmetry_equiv_pos_site_id
_symmetry_equiv_pos_as_xyz
1 x,y,z
2 -x,-y,-z
_cell_length_a                   11.017(2)
_cell_length_b                   13.115(3)
_cell_length_c                   13.129(3)
_cell_angle_alpha                85.09(3)
_cell_angle_beta                 75.13(3)
_cell_angle_gamma                70.46(3)
_cell_volume                     1727.86
_exptl_crystal_colour            colorless
_chemical_melting_point          '219-221 deg.C'
_cell_formula_units_Z            4
loop_
_atom_site_label
_atom_site_type_symbol
_atom_site_fract_x
_atom_site_fract_y
_atom_site_fract_z
O1 O 0.9087(4) 0.6559(3) 0.9653(3)
C1 C 0.9580(6) 0.7229(5) 1.0052(5)
C2 C 0.8705(6) 0.8091(5) 1.0658(5)
C3 C 0.9142(6) 0.8772(5) 1.1123(5)
C4 C 1.0511(6) 0.8557(5) 1.0952(5)
C5 C 1.1383(6) 0.7681(5) 1.0336(5)
C6 C 1.0942(6) 0.7018(5) 0.9871(5)
C7 C 0.7723(6) 1.1341(5) 1.2848(6)
N1 N 0.7182(6) 1.0841(5) 1.3831(5)
C8 C 0.6319(8) 1.1610(6) 1.4645(6)
C9 C 0.6552(7) 1.0096(5) 1.3635(5)
C10 C 0.7495(6) 0.9237(5) 1.2831(5)
C11 C 0.8136(6) 0.9713(5) 1.1810(5)
C12 C 0.7078(6) 1.0371(5) 1.1200(5)
C13 C 0.6294(6) 1.1506(5) 1.1578(5)
N2 N 0.5292(5) 1.2018(4) 1.1123(4)
C14 C 0.4587(6) 1.3087(5) 1.1370(5)
C15 C 0.3477(6) 1.3614(5) 1.0940(5)
C16 C 0.2755(8) 1.4656(6) 1.1165(6)
C17 C 0.3105(8) 1.5246(6) 1.1825(7)
C18 C 0.4164(8) 1.4763(5) 1.2258(6)
C19 C 0.4899(6) 1.3666(5) 1.2061(5)
C20 C 0.5961(6) 1.3092(5) 1.2511(5)
C21 C 0.6642(6) 1.2024(5) 1.2311(5)
C22 C 0.8765(6) 1.0481(5) 1.2121(5)
H1 H 0.9675(58) 0.6373(46) 0.8925(49)
H2 H 0.7798(6) 0.8225(5) 1.0762(5)
H3 H 1.0834(6) 0.8999(5) 1.1251(5)
H4 H 1.2291(6) 0.7538(5) 1.0234(5)
H5 H 1.1540(6) 0.6442(5) 0.9446(5)
H6 H 0.8154(6) 1.1821(5) 1.3029(6)
H7 H 0.6764(8) 1.2093(6) 1.4756(6)
H8 H 0.6099(8) 1.1231(6) 1.5287(6)
H9 H 0.5522(8) 1.2018(6) 1.4433(6)
H10 H 0.5773(7) 1.0493(5) 1.3378(5)
H11 H 0.6262(7) 0.9747(5) 1.4291(5)
H12 H 0.7009(6) 0.8805(5) 1.2663(5)
H13 H 0.8189(6) 0.8761(5) 1.3144(5)
H14 H 0.7525(6) 1.0401(5) 1.0464(5)
H15 H 0.6460(6) 0.9979(5) 1.1239(5)
H16 H 0.3245(6) 1.3234(5) 1.0496(5)
H17 H 0.2024(8) 1.4988(6) 1.0884(6)
H18 H 0.2612(8) 1.5970(6) 1.1967(7)
H19 H 0.4397(8) 1.5161(5) 1.2684(6)
H20 H 0.6207(6) 1.3454(5) 1.2961(5)
H21 H 0.9459(6) 1.0078(5) 1.2470(5)
H22 H 0.9163(6) 1.0813(5) 1.1494(5)
O2 O 0.4857(5) 1.1072(4) 0.9442(4)
C23 C 0.5917(6) 1.0975(5) 0.8589(5)
C24 C 0.6544(6) 0.9994(5) 0.8060(5)
C25 C 0.7594(6) 0.9867(5) 0.7172(5)
C26 C 0.7972(6) 1.0766(5) 0.6824(5)
C27 C 0.7331(7) 1.1738(5) 0.7356(5)
C28 C 0.6310(6) 1.1858(5) 0.8229(5)
C29 C 1.0001(6) 0.7725(5) 0.5104(5)
N3 N 0.8993(5) 0.7465(4) 0.4742(4)
C30 C 0.9517(7) 0.6539(5) 0.4028(6)
C31 C 0.7911(7) 0.7366(5) 0.5616(5)
C32 C 0.7276(6) 0.8401(5) 0.6262(5)
C33 C 0.8295(6) 0.8764(4) 0.6624(5)
C34 C 0.8942(6) 0.7928(5) 0.7415(5)
C35 C 1.0085(6) 0.6942(5) 0.6923(5)
N4 N 1.0506(5) 0.6184(4) 0.7599(4)
C36 C 1.1626(6) 0.5311(5) 0.7246(5)
C37 C 1.2080(7) 0.4495(5) 0.7955(5)
C38 C 1.3212(7) 0.3661(5) 0.7643(6)
C39 C 1.3943(7) 0.3598(6) 0.6598(6)
C40 C 1.3549(7) 0.4347(5) 0.5863(6)
C41 C 1.2351(6) 0.5235(5) 0.6184(5)
C42 C 1.1805(6) 0.6037(5) 0.5484(5)
C43 C 1.0677(6) 0.6884(5) 0.5820(5)
C44 C 0.9386(6) 0.8809(5) 0.5646(5)
H23 H 0.5109(64) 1.1356(52) 1.0062(54)
H24 H 0.6255(6) 0.9407(5) 0.8306(5)
H25 H 0.8662(6) 1.0716(5) 0.6228(5)
H26 H 0.7606(7) 1.2330(5) 0.7109(5)
H27 H 0.5890(6) 1.2521(5) 0.8573(5)
H28 H 1.0686(6) 0.7790(5) 0.4481(5)
H29 H 0.8799(7) 0.6418(5) 0.3825(6)
H30 H 0.9969(7) 0.5908(5) 0.4379(6)
H31 H 1.0128(7) 0.6683(5) 0.3413(6)
H32 H 0.8251(7) 0.6765(5) 0.6062(5)
H33 H 0.7248(7) 0.7218(5) 0.5343(5)
H34 H 0.6625(6) 0.8290(5) 0.6877(5)
H35 H 0.6814(6) 0.8973(5) 0.5844(5)
H36 H 0.9261(6) 0.8299(5) 0.7844(5)
H37 H 0.8258(6) 0.7681(5) 0.7881(5)
H38 H 1.1593(7) 0.4529(5) 0.8652(5)
H39 H 1.3504(7) 0.3130(5) 0.8123(6)
H40 H 1.4726(7) 0.3023(6) 0.6396(6)
H41 H 1.4047(7) 0.4283(5) 0.5168(6)
H42 H 1.2232(6) 0.5983(5) 0.4771(5)
H43 H 0.9013(6) 0.9355(5) 0.5164(5)
H44 H 1.0063(6) 0.9009(5) 0.5849(5)
loop_
_geom_bond_atom_site_label_1
_geom_bond_atom_site_label_2
_geom_bond_site_symmetry_1
_geom_bond_site_symmetry_2
O1 C1 1_555 1_555
C1 C2 1_555 1_555
C2 C3 1_555 1_555
C3 C4 1_555 1_555
C4 C5 1_555 1_555
C5 C6 1_555 1_555
C6 C1 1_555 1_555
C7 N1 1_555 1_555
N1 C8 1_555 1_555
C8 H7 1_555 1_555
C9 N1 1_555 1_555
C10 C9 1_555 1_555
C11 C3 1_555 1_555
C12 C11 1_555 1_555
C13 C12 1_555 1_555
N2 C13 1_555 1_555
C14 N2 1_555 1_555
C15 C14 1_555 1_555
C16 C15 1_555 1_555
C17 C16 1_555 1_555
C18 C17 1_555 1_555
C19 C14 1_555 1_555
C20 C19 1_555 1_555
C21 C7 1_555 1_555
C22 C7 1_555 1_555
O2 C23 1_555 1_555
C23 C24 1_555 1_555
C24 C25 1_555 1_555
C25 C26 1_555 1_555
C26 C27 1_555 1_555
C27 C28 1_555 1_555
C28 C23 1_555 1_555
C29 N3 1_555 1_555
N3 C30 1_555 1_555
C30 H29 1_555 1_555
C31 N3 1_555 1_555
C32 C31 1_555 1_555
C33 C25 1_555 1_555
C34 C33 1_555 1_555
C35 C34 1_555 1_555
N4 C35 1_555 1_555
C36 N4 1_555 1_555
C37 C36 1_555 1_555
C38 C37 1_555 1_555
C39 C38 1_555 1_555
C40 C39 1_555 1_555
C41 C36 1_555 1_555
C42 C41 1_555 1_555
C43 C29 1_555 1_555
C44 C29 1_555 1_555
H1 O1 1_555 1_555
H2 C2 1_555 1_555
H3 C4 1_555 1_555
H4 C5 1_555 1_555
H5 C6 1_555 1_555
H6 C7 1_555 1_555
H8 C8 1_555 1_555
H9 C8 1_555 1_555
H10 C9 1_555 1_555
H11 C9 1_555 1_555
H12 C10 1_555 1_555
H13 C10 1_555 1_555
H14 C12 1_555 1_555
H15 C12 1_555 1_555
H16 C15 1_555 1_555
H17 C16 1_555 1_555
H18 C17 1_555 1_555
H19 C18 1_555 1_555
H20 C20 1_555 1_555
H21 C22 1_555 1_555
H22 C22 1_555 1_555
H23 O2 1_555 1_555
H24 C24 1_555 1_555
H25 C26 1_555 1_555
H26 C27 1_555 1_555
H27 C28 1_555 1_555
H28 C29 1_555 1_555
H30 C30 1_555 1_555
H31 C30 1_555 1_555
H32 C31 1_555 1_555
H33 C31 1_555 1_555
H34 C32 1_555 1_555
H35 C32 1_555 1_555
H36 C34 1_555 1_555
H37 C34 1_555 1_555
H38 C37 1_555 1_555
H39 C38 1_555 1_555
H40 C39 1_555 1_555
H41 C40 1_555 1_555
H42 C42 1_555 1_555
H43 C44 1_555 1_555
H44 C44 1_555 1_555
C10 C11 1_555 1_555
C11 C22 1_555 1_555
C13 C21 1_555 1_555
C18 C19 1_555 1_555
C20 C21 1_555 1_555
C32 C33 1_555 1_555
C33 C44 1_555 1_555
C35 C43 1_555 1_555
C40 C41 1_555 1_555
C42 C43 1_555 1_555

#END
