
#######################################################################
#
#                 Cambridge Crystallographic Data Centre
#                                CCDC 
#
#######################################################################
#
# If this CIF has been generated from an entry in the Cambridge 
# Structural Database, then it will include bibliographic, chemical, 
# crystal, experimental, refinement or atomic coordinate data resulting 
# from the CCDC's data processing and validation procedures.
#
#######################################################################

data_YUKMAT
_chemical_name_common            
'Methoxo-(5,10,15-tris(4-aminophenyl)subporphyrinato)-boron(iii) tetrahydrofuran solvate'
_chemical_formula_moiety         'C34 H27 B1 N6 O1,0.5(C4 H8 O1)'
_chemical_name_systematic        
"4,4',4''-(9c-Methoxy-9cH-8b\l^5^,9b,9d-triaza-9\L^5^-boratricyclopenta[cd,gh,kl]phenalene-3,6,9-triyl)trianiline tetrahydrofuran solvate"
_symmetry_cell_setting           triclinic
_symmetry_space_group_name_H-M   'P -1'
_symmetry_Int_Tables_number      2
_space_group_name_Hall           '-P 1'
loop_
_symmetry_equiv_pos_site_id
_symmetry_equiv_pos_as_xyz
1 x,y,z
2 -x,-y,-z
_cell_length_a                   10.546(4)
_cell_length_b                   11.095(4)
_cell_length_c                   29.022(7)
_cell_angle_alpha                96.076(10)
_cell_angle_beta                 92.018(11)
_cell_angle_gamma                111.266(11)
_cell_volume                     3136.85
_exptl_crystal_colour            red
_cell_formula_units_Z            4
loop_
_atom_site_label
_atom_site_type_symbol
_atom_site_fract_x
_atom_site_fract_y
_atom_site_fract_z
C1 C 0.53489(17) 0.90777(17) 0.11398(6)
C2 C 0.57303(18) 0.82710(18) 0.07958(6)
H1 H 0.6449 0.7957 0.0835
C3 C 0.48804(18) 0.80336(18) 0.04023(6)
H2 H 0.4902 0.7518 0.0122
C4 C 0.39504(17) 0.86969(17) 0.04849(6)
C5 C 0.30327(18) 0.90456(17) 0.02047(6)
C6 C 0.26306(17) 1.00732(17) 0.04000(6)
C7 C 0.21756(18) 1.09827(18) 0.01998(6)
H3 H 0.1849 1.0909 -0.0115
C8 C 0.22912(18) 1.19808(18) 0.05405(6)
H4 H 0.2064 1.2719 0.0501
C9 C 0.28141(17) 1.17203(17) 0.09660(6)
C10 C 0.33801(18) 1.24625(17) 0.14057(6)
C11 C 0.42219(17) 1.20311(17) 0.16876(6)
C12 C 0.53194(18) 1.27055(18) 0.20361(6)
H5 H 0.5493 1.3538 0.2205
C13 C 0.60788(18) 1.19388(17) 0.20833(6)
H6 H 0.6870 1.2151 0.2290
C14 C 0.54667(17) 1.07629(17) 0.17663(6)
C15 C 0.59644(18) 0.98104(17) 0.15730(6)
N1 N 0.42311(14) 0.92262(14) 0.09416(5)
N2 N 0.29237(15) 1.05297(14) 0.08630(5)
N3 N 0.43130(14) 1.08429(14) 0.15660(5)
B1 B 0.3367(2) 0.98214(19) 0.12089(7)
O1 O 0.22826(12) 0.89192(12) 0.14362(4)
C16 C 0.25370(18) 0.84200(17) -0.02730(6)
C17 C 0.33506(18) 0.80441(18) -0.05862(6)
H7 H 0.4296 0.8282 -0.0501
C18 C 0.2812(2) 0.73370(18) -0.10155(6)
H8 H 0.3386 0.7077 -0.1216
C19 C 0.1441(2) 0.70007(19) -0.11578(6)
C20 C 0.0624(2) 0.74146(19) -0.08590(6)
H9 H -0.0306 0.7226 -0.0955
C21 C 0.11602(19) 0.80956(18) -0.04255(6)
H10 H 0.0583 0.8351 -0.0225
N4 N 0.0894(2) 0.6323(2) -0.15913(6)
H11 H 0.001(3) 0.595(2) -0.1637(7)
H12 H 0.138(3) 0.595(3) -0.1735(9)
C22 C 0.32504(17) 1.37193(17) 0.15617(6)
C23 C 0.33552(18) 1.46764(18) 0.12709(6)
H13 H 0.3496 1.4514 0.0952
C24 C 0.32586(19) 1.58509(18) 0.14368(6)
H14 H 0.3310 1.6470 0.1229
C25 C 0.30852(19) 1.61464(18) 0.19077(6)
C26 C 0.2984(2) 1.51945(19) 0.22008(6)
H15 H 0.2863 1.5363 0.2521
C27 C 0.30597(19) 1.40151(18) 0.20299(6)
H16 H 0.2980 1.3384 0.2236
N5 N 0.3009(2) 1.73174(17) 0.20770(6)
H17 H 0.304(2) 1.749(2) 0.2361(9)
H18 H 0.299(2) 1.787(2) 0.1885(8)
C28 C 0.72546(18) 0.97667(17) 0.17673(6)
C29 C 0.74444(19) 0.95901(19) 0.22297(6)
H19 H 0.6731 0.9509 0.2429
C30 C 0.8658(2) 0.9532(2) 0.24017(7)
H20 H 0.8760 0.9393 0.2716
C31 C 0.97300(19) 0.96723(19) 0.21215(7)
C32 C 0.9564(2) 0.9893(2) 0.16614(7)
H21 H 1.0296 1.0021 0.1467
C33 C 0.83485(19) 0.99254(18) 0.14902(7)
H22 H 0.8247 1.0059 0.1175
N6 N 1.09737(19) 0.9670(2) 0.22942(7)
H23 H 1.157(3) 0.954(3) 0.2093(11)
H24 H 1.102(3) 0.931(3) 0.2584(10)
C34 C 0.1251(2) 0.7898(2) 0.11491(7)
H25 H 0.0756 0.8267 0.0949
H26 H 0.0615 0.7331 0.1344
H27 H 0.1669 0.7388 0.0955
C35 C 0.07378(19) 0.45710(19) 0.31533(6)
C36 C 0.0336(2) 0.34606(19) 0.28003(6)
H28 H -0.0283 0.3307 0.2535
C37 C 0.10010(19) 0.26625(19) 0.29126(6)
H29 H 0.0921 0.1858 0.2740
C38 C 0.18405(19) 0.32562(19) 0.33377(6)
C39 C 0.24692(19) 0.27583(19) 0.36717(6)
C40 C 0.27309(19) 0.3401(2) 0.41354(6)
C41 C 0.2987(2) 0.3060(2) 0.45840(7)
H30 H 0.3197 0.2323 0.4641
C42 C 0.2875(2) 0.3994(2) 0.49179(7)
H31 H 0.2989 0.4006 0.5245
C43 C 0.25592(19) 0.4937(2) 0.46877(6)
C44 C 0.2053(2) 0.5937(2) 0.48336(6)
C45 C 0.1361(2) 0.6353(2) 0.44914(6)
C46 C 0.0394(2) 0.6996(2) 0.44959(7)
H32 H 0.0183 0.7445 0.4761
C47 C -0.0168(2) 0.6847(2) 0.40510(7)
H33 H -0.0849 0.7162 0.3955
C48 C 0.0448(2) 0.61358(19) 0.37543(6)
C49 C 0.01591(19) 0.55108(19) 0.32868(6)
N7 N 0.17025(16) 0.44280(16) 0.34450(5)
N8 N 0.25506(16) 0.45584(17) 0.42225(5)
N9 N 0.13995(17) 0.59423(17) 0.40334(5)
B2 B 0.2406(2) 0.5379(2) 0.38630(7)
O2 O 0.36653(14) 0.64041(14) 0.37797(5)
C50 C 0.27578(19) 0.1569(2) 0.35310(6)
C51 C 0.34137(19) 0.1473(2) 0.31260(6)
H34 H 0.3622 0.2155 0.2936
C52 C 0.37646(19) 0.0409(2) 0.29964(6)
H35 H 0.4207 0.0371 0.2719
C53 C 0.3481(2) -0.0605(2) 0.32652(6)
C54 C 0.2793(2) -0.0537(2) 0.36634(7)
H36 H 0.2565 -0.1232 0.3848
C55 C 0.2439(2) 0.0525(2) 0.37922(7)
H37 H 0.1969 0.0547 0.4064
N10 N 0.3832(2) -0.1688(2) 0.31319(7)
H38 H 0.371(3) -0.227(3) 0.3346(9)
H39 H 0.460(4) -0.153(3) 0.2991(12)
C56 C 0.2175(2) 0.6424(2) 0.53321(6)
C57 C 0.3407(2) 0.6729(3) 0.55946(7)
H40 H 0.4145 0.6585 0.5451
C58 C 0.3582(2) 0.7237(3) 0.60581(7)
H41 H 0.4434 0.7436 0.6228
C59 C 0.2522(2) 0.7459(3) 0.62780(7)
C60 C 0.1278(2) 0.7131(2) 0.60217(7)
H42 H 0.0535 0.7256 0.6168
C61 C 0.1107(2) 0.6624(2) 0.55575(7)
H43 H 0.0248 0.6408 0.5389
N11 N 0.2714(2) 0.8041(3) 0.67365(7)
H44 H 0.206(3) 0.794(3) 0.6860(10)
H45 H 0.350(4) 0.801(4) 0.6857(12)
C62 C -0.0803(2) 0.57393(19) 0.29578(6)
C63 C -0.2142(2) 0.5587(2) 0.30525(7)
H46 H -0.2456 0.5337 0.3343
C64 C -0.3011(2) 0.5793(2) 0.27322(7)
H47 H -0.3915 0.5680 0.2805
C65 C -0.2585(2) 0.61666(19) 0.23007(7)
C66 C -0.1254(2) 0.6335(2) 0.22080(7)
H48 H -0.0936 0.6604 0.1919
C67 C -0.0383(2) 0.6120(2) 0.25278(7)
H49 H 0.0520 0.6234 0.2453
N12 N -0.3479(2) 0.6290(2) 0.19625(8)
H50 H -0.310(3) 0.683(3) 0.1768(11)
H51 H -0.429(3) 0.627(3) 0.2067(10)
C68 C 0.4777(2) 0.6016(3) 0.36752(10)
H52 H 0.5078 0.5714 0.3949
H53 H 0.5532 0.6759 0.3588
H54 H 0.4487 0.5307 0.3416
O3 O 0.3219(2) 0.4843(2) 0.00902(7)
C69 C 0.3495(3) 0.4710(3) -0.03843(10)
H55 H 0.4092 0.4201 -0.0432
H56 H 0.3949 0.5575 -0.0488
C70 C 0.2126(3) 0.4004(3) -0.06461(12)
H57 H 0.1878 0.3048 -0.0671
H58 H 0.2119 0.4262 -0.0962
C71 C 0.1155(3) 0.4431(3) -0.03532(9)
H59 H 0.0846 0.5042 -0.0507
H60 H 0.0346 0.3669 -0.0300
C72 C 0.1980(3) 0.5086(3) 0.00929(10)
H61 H 0.2181 0.6036 0.0122
H62 H 0.1469 0.4736 0.0359
loop_
_geom_bond_atom_site_label_1
_geom_bond_atom_site_label_2
_geom_bond_site_symmetry_1
_geom_bond_site_symmetry_2
C1 C2 1_555 1_555
C2 H1 1_555 1_555
C3 C2 1_555 1_555
H2 C3 1_555 1_555
C4 C3 1_555 1_555
C5 C4 1_555 1_555
C6 C5 1_555 1_555
C7 C6 1_555 1_555
H3 C7 1_555 1_555
C8 C7 1_555 1_555
H4 C8 1_555 1_555
C9 C8 1_555 1_555
C10 C9 1_555 1_555
C11 C10 1_555 1_555
C12 C11 1_555 1_555
H5 C12 1_555 1_555
C13 C12 1_555 1_555
H6 C13 1_555 1_555
C14 C13 1_555 1_555
C15 C1 1_555 1_555
N1 C1 1_555 1_555
N2 C6 1_555 1_555
N3 C11 1_555 1_555
B1 N1 1_555 1_555
O1 B1 1_555 1_555
C16 C5 1_555 1_555
C17 C16 1_555 1_555
H7 C17 1_555 1_555
C18 C17 1_555 1_555
H8 C18 1_555 1_555
C19 C18 1_555 1_555
C20 C19 1_555 1_555
H9 C20 1_555 1_555
C21 C16 1_555 1_555
H10 C21 1_555 1_555
N4 C19 1_555 1_555
H11 N4 1_555 1_555
H12 N4 1_555 1_555
C22 C10 1_555 1_555
C23 C22 1_555 1_555
H13 C23 1_555 1_555
C24 C23 1_555 1_555
H14 C24 1_555 1_555
C25 C24 1_555 1_555
C26 C25 1_555 1_555
H15 C26 1_555 1_555
C27 C22 1_555 1_555
H16 C27 1_555 1_555
N5 C25 1_555 1_555
H17 N5 1_555 1_555
H18 N5 1_555 1_555
C28 C15 1_555 1_555
C29 C28 1_555 1_555
H19 C29 1_555 1_555
C30 C29 1_555 1_555
H20 C30 1_555 1_555
C31 C30 1_555 1_555
C32 C31 1_555 1_555
H21 C32 1_555 1_555
C33 C28 1_555 1_555
H22 C33 1_555 1_555
N6 C31 1_555 1_555
H23 N6 1_555 1_555
H24 N6 1_555 1_555
C34 O1 1_555 1_555
H25 C34 1_555 1_555
H26 C34 1_555 1_555
H27 C34 1_555 1_555
C35 C36 1_555 1_555
C36 H28 1_555 1_555
C37 C36 1_555 1_555
H29 C37 1_555 1_555
C38 C37 1_555 1_555
C39 C38 1_555 1_555
C40 C39 1_555 1_555
C41 C40 1_555 1_555
H30 C41 1_555 1_555
C42 C41 1_555 1_555
H31 C42 1_555 1_555
C43 C42 1_555 1_555
C44 C43 1_555 1_555
C45 C44 1_555 1_555
C46 C45 1_555 1_555
H32 C46 1_555 1_555
C47 C46 1_555 1_555
H33 C47 1_555 1_555
C48 C47 1_555 1_555
C49 C35 1_555 1_555
N7 C35 1_555 1_555
N8 C40 1_555 1_555
N9 C45 1_555 1_555
B2 N7 1_555 1_555
O2 B2 1_555 1_555
C50 C39 1_555 1_555
C51 C50 1_555 1_555
H34 C51 1_555 1_555
C52 C51 1_555 1_555
H35 C52 1_555 1_555
C53 C52 1_555 1_555
C54 C53 1_555 1_555
H36 C54 1_555 1_555
C55 C50 1_555 1_555
H37 C55 1_555 1_555
N10 C53 1_555 1_555
H38 N10 1_555 1_555
H39 N10 1_555 1_555
C56 C44 1_555 1_555
C57 C56 1_555 1_555
H40 C57 1_555 1_555
C58 C57 1_555 1_555
H41 C58 1_555 1_555
C59 C58 1_555 1_555
C60 C59 1_555 1_555
H42 C60 1_555 1_555
C61 C56 1_555 1_555
H43 C61 1_555 1_555
N11 C59 1_555 1_555
H44 N11 1_555 1_555
H45 N11 1_555 1_555
C62 C49 1_555 1_555
C63 C62 1_555 1_555
H46 C63 1_555 1_555
C64 C63 1_555 1_555
H47 C64 1_555 1_555
C65 C64 1_555 1_555
C66 C65 1_555 1_555
H48 C66 1_555 1_555
C67 C62 1_555 1_555
H49 C67 1_555 1_555
N12 C65 1_555 1_555
H50 N12 1_555 1_555
H51 N12 1_555 1_555
C68 O2 1_555 1_555
H52 C68 1_555 1_555
H53 C68 1_555 1_555
H54 C68 1_555 1_555
O3 C69 1_555 1_555
C69 H55 1_555 1_555
H56 C69 1_555 1_555
C70 C69 1_555 1_555
H57 C70 1_555 1_555
H58 C70 1_555 1_555
C71 C70 1_555 1_555
H59 C71 1_555 1_555
H60 C71 1_555 1_555
C72 O3 1_555 1_555
H61 C72 1_555 1_555
H62 C72 1_555 1_555
C4 N1 1_555 1_555
C9 N2 1_555 1_555
C14 C15 1_555 1_555
C14 N3 1_555 1_555
N2 B1 1_555 1_555
N3 B1 1_555 1_555
C20 C21 1_555 1_555
C26 C27 1_555 1_555
C32 C33 1_555 1_555
C38 N7 1_555 1_555
C43 N8 1_555 1_555
C48 C49 1_555 1_555
C48 N9 1_555 1_555
N8 B2 1_555 1_555
N9 B2 1_555 1_555
C54 C55 1_555 1_555
C60 C61 1_555 1_555
C66 C67 1_555 1_555
C71 C72 1_555 1_555

#END
