
#######################################################################
#
#                 Cambridge Crystallographic Data Centre
#                                CCDC 
#
#######################################################################
#
# If this CIF has been generated from an entry in the Cambridge 
# Structural Database, then it will include bibliographic, chemical, 
# crystal, experimental, refinement or atomic coordinate data resulting 
# from the CCDC's data processing and validation procedures.
#
#######################################################################

data_YUKMAS
_chemical_formula_moiety         'C22 H25 N2 O1 1+,C1 H3 O3 S1 1-,H2 O1'
_chemical_name_systematic        
'1,2,3,4,5,11-Hexahydro-6-(3-methoxyphenyl)-3-methyl-2,6-methano-6H-azocino(4,5-b)indole methanesulfonate monohydrate'
_symmetry_cell_setting           monoclinic
_symmetry_space_group_name_H-M   'P 21/c'
_symmetry_Int_Tables_number      14
_space_group_name_Hall           '-P 2ybc'
loop_
_symmetry_equiv_pos_site_id
_symmetry_equiv_pos_as_xyz
1 x,y,z
2 -x,1/2+y,1/2-z
3 -x,-y,-z
4 x,1/2-y,1/2+z
_cell_length_a                   7.499(1)
_cell_length_b                   8.241(1)
_cell_length_c                   36.341(5)
_cell_angle_alpha                90
_cell_angle_beta                 94.99(1)
_cell_angle_gamma                90
_cell_volume                     2237.33
_exptl_crystal_colour            colorless
_chemical_melting_point          '152-153 deg.C'
_cell_formula_units_Z            4
loop_
_atom_site_label
_atom_site_type_symbol
_atom_site_fract_x
_atom_site_fract_y
_atom_site_fract_z
C1 C -0.7625(6) 1.0793(6) 0.0562(1)
O1 O -0.7913(5) 0.9518(4) 0.0323(1)
C2 C -0.6594(8) 0.8291(7) 0.0322(2)
C3 C -0.6095(6) 1.1013(5) 0.0799(1)
C4 C -0.5933(5) 1.2352(5) 0.1033(1)
C5 C -0.7318(6) 1.3453(6) 0.1019(1)
C6 C -0.8843(6) 1.3247(6) 0.0783(1)
C7 C -0.9001(6) 1.1910(6) 0.0553(1)
C8 C -0.2678(6) 1.4806(5) 0.1935(1)
C9 C -0.3184(6) 1.3034(5) 0.1979(1)
N1 N -0.1646(5) 1.1870(4) 0.1930(1)
C10 C 0.0063(7) 1.2201(7) 0.2184(1)
C11 C -0.1150(6) 1.1729(6) 0.1539(1)
C12 C -0.2775(5) 1.1390(5) 0.1271(1)
C13 C -0.4270(5) 1.2661(5) 0.1301(1)
C14 C -0.3518(5) 1.4330(5) 0.1248(1)
C15 C -0.3152(5) 1.5175(5) 0.0914(1)
C16 C -0.3468(6) 1.4845(5) 0.0535(1)
C17 C -0.2792(6) 1.5910(6) 0.0287(1)
C18 C -0.1848(6) 1.7294(6) 0.0405(1)
C19 C -0.1546(6) 1.7659(6) 0.0773(1)
C20 C -0.2204(5) 1.6594(5) 0.1023(1)
N2 N -0.2032(5) 1.6638(4) 0.1406(1)
C21 C -0.2766(5) 1.5241(5) 0.1534(1)
C22 C -0.4780(6) 1.2572(6) 0.1705(1)
H1 H -0.6973(8) 0.7481(7) 0.0142(2)
H2 H -0.6430(8) 0.7800(7) 0.0562(2)
H3 H -0.5485(8) 0.8759(7) 0.0261(2)
H4 H -0.5168(6) 1.0268(5) 0.0801(1)
H5 H -0.7223(6) 1.4358(6) 0.1172(1)
H6 H -0.9763(6) 1.4005(6) 0.0779(1)
H7 H -1.0025(6) 1.1764(6) 0.0393(1)
H8 H -0.3492(6) 1.5490(5) 0.2058(1)
H9 H -0.1476(6) 1.4990(5) 0.2048(1)
H10 H -0.3549(6) 1.2891(5) 0.2229(1)
H11 H -0.2036(5) 1.0870(4) 0.1993(1)
H12 H -0.0233(7) 1.2285(7) 0.2435(1)
H13 H 0.0596(7) 1.3198(7) 0.2113(1)
H14 H 0.0895(7) 1.1327(7) 0.2164(1)
H15 H -0.0288(6) 1.0859(6) 0.1524(1)
H16 H -0.0590(6) 1.2731(6) 0.1469(1)
H17 H -0.3239(5) 1.0321(5) 0.1321(1)
H18 H -0.2416(5) 1.1390(5) 0.1021(1)
H19 H -0.4116(6) 1.3934(5) 0.0453(1)
H20 H -0.2973(6) 1.5693(6) 0.0035(1)
H21 H -0.1414(6) 1.7984(6) 0.0231(1)
H22 H -0.0921(6) 1.8588(6) 0.0852(1)
H23 H -0.1288(55) 1.7264(53) 0.1547(12)
H24 H -0.5769(6) 1.3303(6) 0.1736(1)
H25 H -0.5166(6) 1.1479(6) 0.1458(1)
S1 S 0.2370(2) 1.7616(2) 0.1875(1)
O2 O 0.0614(4) 1.8306(4) 0.1864(1)
O3 O 0.2341(6) 1.5896(5) 0.1948(1)
O4 O 0.3605(5) 1.8518(7) 0.2119(1)
C23 C 0.3074(7) 1.7828(7) 0.1431(1)
H26 H 0.2279(7) 1.7239(7) 0.1257(1)
H27 H 0.4266(7) 1.7405(7) 0.1427(1)
H28 H 0.3066(7) 1.8955(7) 0.1364(1)
O5 O -0.2996(5) 0.9429(5) 0.2337(1)
H29 H -0.2763(79) 0.9967(64) 0.2538(9)
H30 H -0.4030(33) 0.9251(76) 0.2221(15)
loop_
_geom_bond_atom_site_label_1
_geom_bond_atom_site_label_2
_geom_bond_site_symmetry_1
_geom_bond_site_symmetry_2
C1 O1 1_555 1_555
O1 C2 1_555 1_555
C2 H1 1_555 1_555
C3 C1 1_555 1_555
C4 C3 1_555 1_555
C5 C4 1_555 1_555
C6 C5 1_555 1_555
C7 C1 1_555 1_555
C8 C9 1_555 1_555
C9 N1 1_555 1_555
N1 C10 1_555 1_555
C10 H12 1_555 1_555
C11 N1 1_555 1_555
C12 C11 1_555 1_555
C13 C4 1_555 1_555
C14 C13 1_555 1_555
C15 C14 1_555 1_555
C16 C15 1_555 1_555
C17 C16 1_555 1_555
C18 C17 1_555 1_555
C19 C18 1_555 1_555
C20 C15 1_555 1_555
N2 C20 1_555 1_555
C21 C8 1_555 1_555
C22 C9 1_555 1_555
S1 O2 1_555 1_555
O3 S1 1_555 1_555
O4 S1 1_555 1_555
C23 S1 1_555 1_555
O5 H29 1_555 1_555
H2 C2 1_555 1_555
H3 C2 1_555 1_555
H4 C3 1_555 1_555
H5 C5 1_555 1_555
H6 C6 1_555 1_555
H7 C7 1_555 1_555
H8 C8 1_555 1_555
H9 C8 1_555 1_555
H10 C9 1_555 1_555
H11 N1 1_555 1_555
H13 C10 1_555 1_555
H14 C10 1_555 1_555
H15 C11 1_555 1_555
H16 C11 1_555 1_555
H17 C12 1_555 1_555
H18 C12 1_555 1_555
H19 C16 1_555 1_555
H20 C17 1_555 1_555
H21 C18 1_555 1_555
H22 C19 1_555 1_555
H23 N2 1_555 1_555
H24 C22 1_555 1_555
H25 C22 1_555 1_555
H26 C23 1_555 1_555
H27 C23 1_555 1_555
H28 C23 1_555 1_555
H30 O5 1_555 1_555
C6 C7 1_555 1_555
C12 C13 1_555 1_555
C13 C22 1_555 1_555
C14 C21 1_555 1_555
C19 C20 1_555 1_555
N2 C21 1_555 1_555

#END
