
#######################################################################
#
#                 Cambridge Crystallographic Data Centre
#                                CCDC 
#
#######################################################################
#
# If this CIF has been generated from an entry in the Cambridge 
# Structural Database, then it will include bibliographic, chemical, 
# crystal, experimental, refinement or atomic coordinate data resulting 
# from the CCDC's data processing and validation procedures.
#
#######################################################################

data_YUKRIF
_chemical_formula_moiety         'C55 H61 N5 O4,H2 O1'
_chemical_name_systematic        
'5-(8-(endo-7-(Hydroxycarbonyl)-1,5,7-trimethyl-2,4-dioxo-3-azabicyclo(3.3.1)non-3-yl)-methyl-1-naphthyl)-2,8,13,17-tetraethyl-3,7,12,18-tetramethylporphyrin monohydrate'
_symmetry_cell_setting           monoclinic
_symmetry_space_group_name_H-M   'C 2/c'
_symmetry_Int_Tables_number      15
_space_group_name_Hall           '-C 2yn'
loop_
_symmetry_equiv_pos_site_id
_symmetry_equiv_pos_as_xyz
1 x,y,z
2 -x,y,1/2-z
3 1/2+x,1/2+y,z
4 1/2-x,1/2+y,1/2-z
5 -x,-y,-z
6 x,-y,1/2+z
7 1/2-x,1/2-y,-z
8 1/2+x,1/2-y,1/2+z
_cell_length_a                   19.557(4)
_cell_length_b                   11.9541(17)
_cell_length_c                   42.602(8)
_cell_angle_alpha                90
_cell_angle_beta                 105.201(17)
_cell_angle_gamma                90
_cell_volume                     9611.29
_cell_formula_units_Z            8
loop_
_atom_site_label
_atom_site_type_symbol
_atom_site_fract_x
_atom_site_fract_y
_atom_site_fract_z
N1 N 0.81974(13) 0.27970(20) 0.13701(5)
N2 N 0.85113(13) 0.25643(20) 0.07115(6)
N3 N 0.76212(13) 0.44434(21) 0.04749(5)
N4 N 0.73450(12) 0.47166(20) 0.11398(6)
N5 N 0.55610(12) 0.21342(19) 0.15560(5)
C1 C 0.80080(15) 0.30197(25) 0.16530(7)
C2 C 0.83606(16) 0.2196(3) 0.18915(7)
C3 C 0.87552(16) 0.1533(3) 0.17488(7)
C4 C 0.86535(15) 0.19145(25) 0.14188(7)
C5 C 0.89815(16) 0.1445(3) 0.11993(7)
C6 C 0.89269(16) 0.17341(25) 0.08793(7)
C7 C 0.92817(17) 0.1185(3) 0.06643(8)
C8 C 0.90534(17) 0.1681(3) 0.03695(7)
C9 C 0.85686(16) 0.25603(25) 0.03987(7)
C10 C 0.82159(16) 0.3284(3) 0.01580(7)
C11 C 0.77853(16) 0.4167(3) 0.01917(7)
C12 C 0.74591(17) 0.4964(3) -0.00529(7)
C13 C 0.71053(16) 0.5708(3) 0.00866(7)
C14 C 0.72091(16) 0.53772(25) 0.04230(7)
C15 C 0.69441(16) 0.5901(3) 0.06537(7)
C16 C 0.70031(15) 0.56221(25) 0.09775(7)
C17 C 0.67009(16) 0.6251(3) 0.11962(7)
C18 C 0.68640(16) 0.5709(3) 0.14874(7)
C19 C 0.72788(15) 0.47243(24) 0.14537(7)
C20 C 0.75743(14) 0.39216(24) 0.16893(7)
C21 C 0.83102(20) 0.2024(3) 0.22384(8)
C22 C 0.92520(19) 0.0616(3) 0.19019(8)
C23 C 0.99932(23) 0.1014(4) 0.20408(12)
C24 C 0.97957(21) 0.0236(3) 0.07582(9)
C25 C 0.92755(20) 0.1440(3) 0.00633(8)
C26 C 0.98527(24) 0.2210(5) 0.00283(11)
C27 C 0.75334(20) 0.4964(3) -0.03951(8)
C28 C 0.8213(3) 0.5462(4) -0.04242(11)
C29 C 0.66651(20) 0.6672(3) -0.00752(8)
C30 C 0.63022(19) 0.7335(3) 0.11179(8)
C31 C 0.67496(23) 0.8333(3) 0.12511(11)
C32 C 0.66376(23) 0.6098(3) 0.17786(9)
C33 C 0.75342(15) 0.41373(25) 0.20349(7)
C34 C 0.80892(16) 0.4764(3) 0.22124(8)
C35 C 0.81811(20) 0.4982(4) 0.25425(8)
C36 C 0.77259(19) 0.4542(3) 0.26962(8)
C37 C 0.71325(17) 0.3926(3) 0.25261(7)
C38 C 0.66601(19) 0.3512(3) 0.26961(7)
C39 C 0.60741(19) 0.2951(3) 0.25414(8)
C40 C 0.59394(17) 0.2746(3) 0.22066(7)
C41 C 0.63891(15) 0.30858(24) 0.20266(7)
C42 C 0.70138(15) 0.37104(24) 0.21839(7)
C43 C 0.62096(15) 0.2808(3) 0.16661(7)
C44 C 0.56349(16) 0.0969(3) 0.15819(7)
C45 C 0.49721(18) 0.0256(3) 0.14707(8)
C46 C 0.43416(18) 0.0907(3) 0.15122(9)
C47 C 0.42544(16) 0.1997(3) 0.13208(8)
C48 C 0.49196(16) 0.2702(3) 0.14426(7)
C49 C 0.41458(17) 0.1730(3) 0.09585(8)
C50 C 0.47024(17) 0.0969(3) 0.08750(7)
C51 C 0.48519(18) -0.0029(3) 0.11068(8)
C52 C 0.44276(22) 0.0540(4) 0.05245(9)
C53 C 0.53636(18) 0.1634(3) 0.08684(7)
C54 C 0.50753(25) -0.0825(3) 0.16708(11)
C55 C 0.36205(20) 0.2661(4) 0.13668(12)
O2 O 0.62148(12) 0.05716(19) 0.16892(6)
O3 O 0.49101(12) 0.37086(18) 0.14487(6)
O4 O 0.53502(14) 0.26306(21) 0.08102(6)
O5 O 0.59258(13) 0.10340(21) 0.09106(7)
H1 H 0.8095(14) 0.3108(23) 0.1223(6)
H3 H 0.7743(14) 0.4179(23) 0.0608(6)
H7 H 0.6171(17) 0.140(3) 0.0889(8)
H8 H 0.930 0.083 0.128
H9 H 0.828 0.316 -0.006
H10 H 0.667 0.658 0.058
H11 H 0.783 0.201 0.225
H12 H 0.855 0.262 0.238
H13 H 0.854 0.133 0.230
H14 H 0.909 0.026 0.207
H15 H 0.926 0.004 0.174
H16 H 1.030 0.041 0.213
H17 H 1.017 0.135 0.187
H18 H 1.000 0.156 0.220
H19 H 1.006 0.012 0.060
H20 H 0.955 -0.045 0.078
H21 H 1.010 0.044 0.097
H22 H 0.945 0.068 0.007
H23 H 0.888 0.151 -0.012
H24 H 1.000 0.207 -0.016
H25 H 0.970 0.298 0.002
H26 H 1.026 0.214 0.021
H27 H 0.748 0.422 -0.048
H28 H 0.714 0.540 -0.053
H29 H 0.826 0.546 -0.064
H30 H 0.827 0.621 -0.034
H31 H 0.861 0.503 -0.029
H32 H 0.652 0.656 -0.030
H33 H 0.694 0.735 -0.003
H34 H 0.627 0.670 0.002
H35 H 0.612 0.741 0.088
H36 H 0.589 0.732 0.121
H37 H 0.648 0.902 0.120
H38 H 0.692 0.828 0.148
H39 H 0.714 0.838 0.116
H40 H 0.704 0.632 0.195
H41 H 0.640 0.551 0.186
H42 H 0.633 0.671 0.171
H43 H 0.841 0.509 0.210
H44 H 0.859 0.542 0.266
H45 H 0.780 0.467 0.293
H46 H 0.675 0.364 0.293
H47 H 0.575 0.267 0.266
H48 H 0.551 0.233 0.210
H49 H 0.660 0.241 0.162
H50 H 0.615 0.350 0.154
H51 H 0.391 0.046 0.145
H52 H 0.440 0.107 0.174
H53 H 0.415 0.243 0.084
H54 H 0.369 0.140 0.087
H55 H 0.446 -0.055 0.104
H56 H 0.527 -0.040 0.108
H57 H 0.477 0.006 0.047
H58 H 0.399 0.013 0.050
H59 H 0.434 0.115 0.037
H60 H 0.548 -0.124 0.165
H61 H 0.517 -0.065 0.190
H62 H 0.467 -0.130 0.162
H63 H 0.357 0.334 0.124
H64 H 0.319 0.224 0.130
H65 H 0.369 0.285 0.159
O1 O 0.68795(16) 0.2419(3) 0.07700(8)
H5 H 0.6495(20) 0.303(3) 0.0756(9)
H6 H 0.7153(20) 0.263(3) 0.0766(9)
H2? H 0.8332(14) 0.2948(23) 0.0773(6)
H4? H 0.7514(14) 0.4289(23) 0.1079(6)
loop_
_geom_bond_atom_site_label_1
_geom_bond_atom_site_label_2
_geom_bond_site_symmetry_1
_geom_bond_site_symmetry_2
N1 C1 1_555 1_555
N2 C6 1_555 1_555
N3 C11 1_555 1_555
N4 C16 1_555 1_555
N5 C43 1_555 1_555
C1 C2 1_555 1_555
C2 C3 1_555 1_555
C3 C4 1_555 1_555
C4 N1 1_555 1_555
C5 C4 1_555 1_555
C6 C5 1_555 1_555
C7 C6 1_555 1_555
C8 C7 1_555 1_555
C9 N2 1_555 1_555
C10 C9 1_555 1_555
C11 C10 1_555 1_555
C12 C11 1_555 1_555
C13 C12 1_555 1_555
C14 N3 1_555 1_555
C15 C14 1_555 1_555
C16 C15 1_555 1_555
C17 C16 1_555 1_555
C18 C17 1_555 1_555
C19 N4 1_555 1_555
C20 C1 1_555 1_555
C21 C2 1_555 1_555
C22 C3 1_555 1_555
C23 C22 1_555 1_555
C24 C7 1_555 1_555
C25 C8 1_555 1_555
C26 C25 1_555 1_555
C27 C12 1_555 1_555
C28 C27 1_555 1_555
C29 C13 1_555 1_555
C30 C17 1_555 1_555
C31 C30 1_555 1_555
C32 C18 1_555 1_555
C33 C20 1_555 1_555
C34 C33 1_555 1_555
C35 C34 1_555 1_555
C36 C35 1_555 1_555
C37 C36 1_555 1_555
C38 C37 1_555 1_555
C39 C38 1_555 1_555
C40 C39 1_555 1_555
C41 C40 1_555 1_555
C42 C33 1_555 1_555
C43 C41 1_555 1_555
C44 N5 1_555 1_555
C45 C44 1_555 1_555
C46 C45 1_555 1_555
C47 C46 1_555 1_555
C48 N5 1_555 1_555
C49 C47 1_555 1_555
C50 C49 1_555 1_555
C51 C45 1_555 1_555
C52 C50 1_555 1_555
C53 C50 1_555 1_555
C54 C45 1_555 1_555
C55 C47 1_555 1_555
O1 H5 1_555 1_555
O2 C44 1_555 1_555
O3 C48 1_555 1_555
O4 C53 1_555 1_555
O5 C53 1_555 1_555
H1 N1 1_555 1_555
H3 N3 1_555 1_555
H6 O1 1_555 1_555
H7 O5 1_555 1_555
H8 C5 1_555 1_555
H9 C10 1_555 1_555
H10 C15 1_555 1_555
H11 C21 1_555 1_555
H12 C21 1_555 1_555
H13 C21 1_555 1_555
H14 C22 1_555 1_555
H15 C22 1_555 1_555
H16 C23 1_555 1_555
H17 C23 1_555 1_555
H18 C23 1_555 1_555
H19 C24 1_555 1_555
H20 C24 1_555 1_555
H21 C24 1_555 1_555
H22 C25 1_555 1_555
H23 C25 1_555 1_555
H24 C26 1_555 1_555
H25 C26 1_555 1_555
H26 C26 1_555 1_555
H27 C27 1_555 1_555
H28 C27 1_555 1_555
H29 C28 1_555 1_555
H30 C28 1_555 1_555
H31 C28 1_555 1_555
H32 C29 1_555 1_555
H33 C29 1_555 1_555
H34 C29 1_555 1_555
H35 C30 1_555 1_555
H36 C30 1_555 1_555
H37 C31 1_555 1_555
H38 C31 1_555 1_555
H39 C31 1_555 1_555
H40 C32 1_555 1_555
H41 C32 1_555 1_555
H42 C32 1_555 1_555
H43 C34 1_555 1_555
H44 C35 1_555 1_555
H45 C36 1_555 1_555
H46 C38 1_555 1_555
H47 C39 1_555 1_555
H48 C40 1_555 1_555
H49 C43 1_555 1_555
H50 C43 1_555 1_555
H51 C46 1_555 1_555
H52 C46 1_555 1_555
H53 C49 1_555 1_555
H54 C49 1_555 1_555
H55 C51 1_555 1_555
H56 C51 1_555 1_555
H57 C52 1_555 1_555
H58 C52 1_555 1_555
H59 C52 1_555 1_555
H60 C54 1_555 1_555
H61 C54 1_555 1_555
H62 C54 1_555 1_555
H63 C55 1_555 1_555
H64 C55 1_555 1_555
H65 C55 1_555 1_555
C8 C9 1_555 1_555
C13 C14 1_555 1_555
C18 C19 1_555 1_555
C19 C20 1_555 1_555
C37 C42 1_555 1_555
C41 C42 1_555 1_555
C47 C48 1_555 1_555
C50 C51 1_555 1_555

#END
