
#######################################################################
#
#                 Cambridge Crystallographic Data Centre
#                                CCDC 
#
#######################################################################
#
# If this CIF has been generated from an entry in the Cambridge 
# Structural Database, then it will include bibliographic, chemical, 
# crystal, experimental, refinement or atomic coordinate data resulting 
# from the CCDC's data processing and validation procedures.
#
#######################################################################

data_YUKTOP
_chemical_formula_moiety         'C33 H27 N3 O3'
_chemical_name_systematic        
1-benzyl-1'-methyl-2'',4'-diphenyldispiro[indole-3,2'-pyrrolidine-3',4''-[1,3]oxazole]-2,5''(1H)-dione
_chemical_properties_biological  'cytotoxic activity'
_symmetry_cell_setting           monoclinic
_symmetry_space_group_name_H-M   'P 21/n'
_symmetry_Int_Tables_number      14
_space_group_name_Hall           '-P 2yn'
loop_
_symmetry_equiv_pos_site_id
_symmetry_equiv_pos_as_xyz
1 x,y,z
2 1/2-x,1/2+y,1/2-z
3 -x,-y,-z
4 1/2+x,1/2-y,1/2+z
_cell_length_a                   10.0401(13)
_cell_length_b                   17.336(2)
_cell_length_c                   15.1034(19)
_cell_angle_alpha                90
_cell_angle_beta                 98.267(2)
_cell_angle_gamma                90
_cell_volume                     2601.51
_exptl_crystal_colour            colorless
_exptl_crystal_description       block
_cell_formula_units_Z            4
loop_
_atom_site_label
_atom_site_type_symbol
_atom_site_fract_x
_atom_site_fract_y
_atom_site_fract_z
O1 O 0.81000(7) 0.15533(4) 0.13113(5)
O2 O 0.99796(8) 0.32522(5) -0.10825(5)
O3 O 0.89235(8) 0.23835(5) -0.20509(5)
N1 N 0.66947(8) 0.25627(5) 0.08322(5)
N2 N 0.76222(9) 0.11528(5) -0.06753(6)
C1 C 0.78483(14) 0.49606(7) 0.27172(8)
H1 H 0.8192 0.5439 0.2956
C2 C 0.87128(12) 0.44127(7) 0.24397(8)
H2 H 0.9648 0.4520 0.2484
C3 C 0.82144(11) 0.37082(6) 0.20970(7)
H3 H 0.8810 0.3337 0.1908
C4 C 0.68445(10) 0.35455(6) 0.20301(6)
C5 C 0.63000(10) 0.27696(6) 0.16941(6)
H4 H 0.6630 0.2369 0.2139
H5 H 0.5305 0.2779 0.1637
C6 C 0.75670(9) 0.19756(5) 0.07189(6)
C7 C 0.77002(9) 0.19279(5) -0.02991(6)
C8 C 0.91669(10) 0.21730(5) -0.04120(6)
N3 N 0.97711(8) 0.27151(5) 0.02675(6)
C9 C 1.02315(10) 0.32714(6) -0.01476(7)
C10 C 1.10463(10) 0.39200(6) 0.02413(8)
C11 C 1.14970(11) 0.39229(7) 0.11581(8)
H6 H 1.1269 0.3511 0.1523
C12 C 1.22829(12) 0.45320(8) 0.15368(10)
H7 H 1.2578 0.4543 0.2163
C13 C 1.26351(13) 0.51268(8) 0.09920(11)
H8 H 1.3177 0.5541 0.1250
C14 C 0.59825(11) 0.41004(6) 0.22997(7)
H9 H 0.5045 0.3998 0.2248
C15 C 0.64875(13) 0.48051(7) 0.26443(8)
H10 H 0.5894 0.5179 0.2829
C16 C 0.65954(9) 0.24727(5) -0.06946(6)
C17 C 0.60274(10) 0.26009(6) -0.15724(7)
H11 H 0.6361 0.2342 -0.2050
C18 C 0.49507(10) 0.31194(6) -0.17441(7)
H12 H 0.4545 0.3210 -0.2343
C19 C 0.44714(10) 0.35028(6) -0.10439(7)
H13 H 0.3754 0.3861 -0.1174
C20 C 0.50241(10) 0.33720(6) -0.01529(7)
H14 H 0.4695 0.3631 0.0326
C21 C 0.60717(9) 0.28483(5) 0.00011(6)
C22 C 0.88943(10) 0.07683(6) -0.03399(7)
H15 H 0.9029 0.0307 -0.0703
H16 H 0.8919 0.0611 0.0292
C23 C 0.99631(10) 0.13824(6) -0.04316(7)
H17 H 1.0217 0.1328 -0.1045
C24 C 1.12499(10) 0.13507(5) 0.02212(7)
C25 C 1.12490(10) 0.12478(6) 0.11382(7)
H18 H 1.0420 0.1182 0.1363
C26 C 1.24506(11) 0.12400(6) 0.17259(8)
H19 H 1.2440 0.1164 0.2348
C27 C 1.36649(11) 0.13428(7) 0.14032(9)
H20 H 1.4486 0.1335 0.1804
C28 C 1.36779(11) 0.14559(7) 0.04990(10)
H21 H 1.4508 0.1535 0.0280
C29 C 1.24758(11) 0.14548(6) -0.00939(8)
H22 H 1.2493 0.1525 -0.0716
C30 C 0.92683(10) 0.25772(6) -0.12950(7)
C31 C 1.22037(14) 0.51183(7) 0.00832(11)
H23 H 1.2458 0.5523 -0.0282
C32 C 1.13976(12) 0.45186(7) -0.03011(9)
H24 H 1.1089 0.4516 -0.0926
C33 C 0.64389(11) 0.07033(6) -0.05470(8)
H25 H 0.6428 0.0622 0.0094
H26 H 0.6468 0.0203 -0.0846
H27 H 0.5625 0.0982 -0.0803
loop_
_geom_bond_atom_site_label_1
_geom_bond_atom_site_label_2
_geom_bond_site_symmetry_1
_geom_bond_site_symmetry_2
O1 C6 1_555 1_555
O2 C9 1_555 1_555
O3 C30 1_555 1_555
N1 C5 1_555 1_555
N2 C7 1_555 1_555
C1 H1 1_555 1_555
C2 C1 1_555 1_555
H2 C2 1_555 1_555
C3 C2 1_555 1_555
H3 C3 1_555 1_555
C4 C3 1_555 1_555
C5 C4 1_555 1_555
H4 C5 1_555 1_555
H5 C5 1_555 1_555
C6 N1 1_555 1_555
C7 C6 1_555 1_555
C8 C7 1_555 1_555
N3 C8 1_555 1_555
C9 N3 1_555 1_555
C10 C9 1_555 1_555
C11 C10 1_555 1_555
H6 C11 1_555 1_555
C12 C11 1_555 1_555
H7 C12 1_555 1_555
C13 C12 1_555 1_555
H8 C13 1_555 1_555
C14 C4 1_555 1_555
H9 C14 1_555 1_555
C15 C1 1_555 1_555
H10 C15 1_555 1_555
C16 C7 1_555 1_555
C17 C16 1_555 1_555
H11 C17 1_555 1_555
C18 C17 1_555 1_555
H12 C18 1_555 1_555
C19 C18 1_555 1_555
H13 C19 1_555 1_555
C20 C19 1_555 1_555
H14 C20 1_555 1_555
C21 N1 1_555 1_555
C22 N2 1_555 1_555
H15 C22 1_555 1_555
H16 C22 1_555 1_555
C23 C8 1_555 1_555
H17 C23 1_555 1_555
C24 C23 1_555 1_555
C25 C24 1_555 1_555
H18 C25 1_555 1_555
C26 C25 1_555 1_555
H19 C26 1_555 1_555
C27 C26 1_555 1_555
H20 C27 1_555 1_555
C28 C27 1_555 1_555
H21 C28 1_555 1_555
C29 C24 1_555 1_555
H22 C29 1_555 1_555
C30 O2 1_555 1_555
C31 C13 1_555 1_555
H23 C31 1_555 1_555
C32 C10 1_555 1_555
H24 C32 1_555 1_555
C33 N2 1_555 1_555
H25 C33 1_555 1_555
H26 C33 1_555 1_555
H27 C33 1_555 1_555
C8 C30 1_555 1_555
C14 C15 1_555 1_555
C16 C21 1_555 1_555
C20 C21 1_555 1_555
C22 C23 1_555 1_555
C28 C29 1_555 1_555
C31 C32 1_555 1_555

#END
