
#######################################################################
#
#                 Cambridge Crystallographic Data Centre
#                                CCDC 
#
#######################################################################
#
# If this CIF has been generated from an entry in the Cambridge 
# Structural Database, then it will include bibliographic, chemical, 
# crystal, experimental, refinement or atomic coordinate data resulting 
# from the CCDC's data processing and validation procedures.
#
#######################################################################

data_YUKVEF
_chemical_formula_moiety         'C17 H20 N4 O3'
_chemical_name_systematic        
N-((1S,2S,6R)-2-Azido-6-benzyloxymethyl-4-formylcyclohex-3-enyl)acetamide
_symmetry_cell_setting           monoclinic
_symmetry_space_group_name_H-M   'C c'
_symmetry_Int_Tables_number      9
_space_group_name_Hall           'C -2yc'
loop_
_symmetry_equiv_pos_site_id
_symmetry_equiv_pos_as_xyz
1 x,y,z
2 x,-y,1/2+z
3 1/2+x,1/2+y,z
4 1/2+x,1/2-y,1/2+z
_cell_length_a                   16.259(9)
_cell_length_b                   12.049(3)
_cell_length_c                   9.558(3)
_cell_angle_alpha                90
_cell_angle_beta                 111.76(3)
_cell_angle_gamma                90
_cell_volume                     1739.03
_exptl_crystal_colour            colorless
_chemical_melting_point          '110.2 deg.C'
_cell_formula_units_Z            4
loop_
_atom_site_label
_atom_site_type_symbol
_atom_site_fract_x
_atom_site_fract_y
_atom_site_fract_z
N1 N -0.4190 -0.5363(6) 0.4248
C1 C -0.5766(7) -0.5377(8) 0.3815(12)
O1 O -0.5893(6) -0.3743(5) 0.2385(10)
C2 C -0.6646(8) -0.7063(7) 0.2532(12)
O2 O -0.8202(6) -0.7219(7) 0.1584(12)
O3 O -0.3749(7) -0.4801(7) 0.2380(10)
C3 C -0.7490(9) -0.7601(10) 0.1903(13)
C4 C -0.5802(9) -0.4112(7) 0.3861(12)
C5 C -0.5030(7) -0.5810(7) 0.3335(11)
C6 C -0.6671(8) -0.5856(8) 0.2825(14)
C7 C -0.5001(7) -0.7085(7) 0.3379(13)
C8 C -0.5562(9) -0.1782(8) 0.3106(13)
C9 C -0.2843(8) -0.4269(9) 0.4873(13)
C10 C -0.3641(7) -0.4841(8) 0.3727(12)
C11 C -0.4672(10) -0.1746(11) 0.3255(16)
C12 C -0.5898(9) -0.7577(8) 0.2753(12)
C13 C -0.6178(9) -0.2620(9) 0.2086(14)
C14 C -0.4415(14) -0.0227(11) 0.5012(19)
C15 C -0.4114(12) -0.0974(14) 0.4219(23)
C16 C -0.5276(13) -0.0274(11) 0.4888(17)
C17 C -0.5827(10) -0.1031(9) 0.3946(14)
N2 N -0.4501(8) -0.7506(7) 0.2455(13)
N3 N -0.3781(9) -0.7728(9) 0.3000(13)
N4 N -0.3084(10) -0.7982(20) 0.3389(20)
H1 H -0.4098(54) -0.5273(69) 0.5342(98)
H2 H -0.5649 -0.5657 0.4811
H3 H -0.7478 -0.8375 0.1671
H4 H -0.5257 -0.3831 0.4581
H5 H -0.6284 -0.3858 0.4129
H6 H -0.5170 -0.5555 0.2321
H7 H -0.6858 -0.5477 0.1875
H8 H -0.7100 -0.5713 0.3275
H9 H -0.4715 -0.7287 0.4420
H10 H -0.2488 -0.3927 0.4384
H11 H -0.3052 -0.3712 0.5378
H12 H -0.2491 -0.4801 0.5595
H13 H -0.4437 -0.2224 0.2691
H14 H -0.5932 -0.8337 0.2437
H15 H -0.6744 -0.2547 0.2177
H16 H -0.6249 -0.2449 0.1067
H17 H -0.4019 0.0304 0.5674
H18 H -0.3502 -0.0953 0.4336
H19 H -0.5494 0.0219 0.5461
H20 H -0.6438 -0.1034 0.3838
loop_
_geom_bond_atom_site_label_1
_geom_bond_atom_site_label_2
_geom_bond_site_symmetry_1
_geom_bond_site_symmetry_2
N1 C5 1_555 1_555
C1 C4 1_555 1_555
O1 C4 1_555 1_555
C2 C3 1_555 1_555
O2 C3 1_555 1_555
O3 C10 1_555 1_555
C3 H3 1_555 1_555
C4 H4 1_555 1_555
C5 C1 1_555 1_555
C6 C1 1_555 1_555
C7 C5 1_555 1_555
C8 C11 1_555 1_555
C9 C10 1_555 1_555
C10 N1 1_555 1_555
C11 C15 1_555 1_555
C12 C2 1_555 1_555
C13 O1 1_555 1_555
C14 C15 1_555 1_555
C15 H18 1_555 1_555
C16 C14 1_555 1_555
C17 C8 1_555 1_555
N2 C7 1_555 1_555
N3 N2 1_555 1_555
N4 N3 1_555 1_555
H1 N1 1_555 1_555
H2 C1 1_555 1_555
H5 C4 1_555 1_555
H6 C5 1_555 1_555
H7 C6 1_555 1_555
H8 C6 1_555 1_555
H9 C7 1_555 1_555
H10 C9 1_555 1_555
H11 C9 1_555 1_555
H12 C9 1_555 1_555
H13 C11 1_555 1_555
H14 C12 1_555 1_555
H15 C13 1_555 1_555
H16 C13 1_555 1_555
H17 C14 1_555 1_555
H19 C16 1_555 1_555
H20 C17 1_555 1_555
C2 C6 1_555 1_555
C7 C12 1_555 1_555
C8 C13 1_555 1_555
C16 C17 1_555 1_555

#END
