
#######################################################################
#
#                 Cambridge Crystallographic Data Centre
#                                CCDC 
#
#######################################################################
#
# If this CIF has been generated from an entry in the Cambridge 
# Structural Database, then it will include bibliographic, chemical, 
# crystal, experimental, refinement or atomic coordinate data resulting 
# from the CCDC's data processing and validation procedures.
#
#######################################################################

data_YULLEX
_chemical_formula_moiety         'C45 H40 Si1'
_chemical_name_systematic        
Triisopropyl((13-(2-naphthylethynyl)pentacen-6-yl)ethynyl)silane
_symmetry_cell_setting           triclinic
_symmetry_space_group_name_H-M   'P -1'
_symmetry_Int_Tables_number      2
_space_group_name_Hall           '-P 1'
loop_
_symmetry_equiv_pos_site_id
_symmetry_equiv_pos_as_xyz
1 x,y,z
2 -x,-y,-z
_cell_length_a                   7.6451(14)
_cell_length_b                   13.410(3)
_cell_length_c                   34.704(7)
_cell_angle_alpha                88.638(2)
_cell_angle_beta                 84.211(2)
_cell_angle_gamma                73.839(2)
_cell_volume                     3399.82
_exptl_crystal_colour            purple
_exptl_crystal_description       plate
_cell_formula_units_Z            4
loop_
_atom_site_label
_atom_site_type_symbol
_atom_site_fract_x
_atom_site_fract_y
_atom_site_fract_z
Si1 Si 0.10437(13) 0.19371(7) 0.06880(3)
C1 C 0.2059(4) 0.3823(2) 0.16393(9)
C2 C 0.1222(4) 0.4913(2) 0.16391(9)
C3 C 0.0348(4) 0.5413(3) 0.13211(9)
H1 H 0.0302 0.5010 0.1103
C4 C -0.0448(4) 0.6473(3) 0.13166(10)
C5 C -0.1277(5) 0.6993(3) 0.09881(10)
H2 H -0.1278 0.6601 0.0764
C6 C -0.2063(5) 0.8035(3) 0.09906(12)
H3 H -0.2602 0.8365 0.0769
C7 C -0.2076(6) 0.8625(3) 0.13224(13)
H4 H -0.2638 0.9353 0.1323
C8 C -0.1302(5) 0.8175(3) 0.16416(12)
H5 H -0.1339 0.8591 0.1862
C9 C -0.0429(5) 0.7082(3) 0.16515(10)
C10 C 0.0420(5) 0.6598(3) 0.19671(10)
H6 H 0.0423 0.7004 0.2187
C11 C 0.1283(4) 0.5519(2) 0.19724(9)
C12 C 0.2207(4) 0.5032(3) 0.22911(9)
C13 C 0.3077(4) 0.3945(3) 0.22844(9)
C14 C 0.4018(5) 0.3443(3) 0.25954(10)
H7 H 0.4058 0.3842 0.2815
C15 C 0.4888(5) 0.2387(3) 0.25914(10)
C16 C 0.5832(5) 0.1872(3) 0.29069(11)
H8 H 0.5870 0.2258 0.3130
C17 C 0.6676(5) 0.0836(3) 0.28913(12)
H9 H 0.7301 0.0507 0.3104
C18 C 0.6636(5) 0.0242(3) 0.25635(11)
H10 H 0.7237 -0.0481 0.2557
C19 C 0.5745(5) 0.0696(3) 0.22573(11)
H11 H 0.5725 0.0284 0.2040
C20 C 0.4841(5) 0.1778(3) 0.22577(10)
C21 C 0.3896(5) 0.2260(3) 0.19544(10)
H12 H 0.3843 0.1853 0.1738
C22 C 0.3005(4) 0.3337(2) 0.19544(9)
C23 C 0.1900(5) 0.3207(2) 0.13208(10)
C24 C 0.1685(5) 0.2689(3) 0.10544(10)
C25 C -0.1414(5) 0.1999(3) 0.08372(10)
H13 H -0.2093 0.2752 0.0826
C26 C -0.1812(6) 0.1674(3) 0.12548(12)
H14 H -0.3122 0.1739 0.1308
H15 H -0.1456 0.2124 0.1433
H16 H -0.1112 0.0952 0.1291
C27 C -0.2291(7) 0.1455(4) 0.05600(14)
H17 H -0.3569 0.1529 0.0658
H18 H -0.1622 0.0716 0.0542
H19 H -0.2242 0.1770 0.0303
C28 C 0.2724(6) 0.0604(3) 0.06653(11)
H20 H 0.3948 0.0721 0.0589
C29 C 0.2898(7) 0.0047(3) 0.10486(13)
H21 H 0.3807 -0.0631 0.1013
H22 H 0.1712 -0.0053 0.1148
H23 H 0.3287 0.0461 0.1234
C30 C 0.2432(8) -0.0084(3) 0.03484(14)
H24 H 0.3356 -0.0758 0.0348
H25 H 0.2544 0.0249 0.0096
H26 H 0.1208 -0.0186 0.0397
C31 C 0.1201(4) 0.2624(2) 0.02112(10)
H27 H 0.0757 0.2241 0.0015
C32 C -0.0049(5) 0.3738(3) 0.02307(12)
H28 H 0.0052 0.4070 -0.0022
H29 H 0.0320 0.4130 0.0427
H30 H -0.1319 0.3727 0.0299
C33 C 0.3141(5) 0.2618(3) 0.00673(12)
H31 H 0.3144 0.2977 -0.0182
H32 H 0.3903 0.1899 0.0035
H33 H 0.3632 0.2973 0.0256
C34 C 0.2243(5) 0.5620(3) 0.26220(10)
C35 C 0.2283(5) 0.6074(3) 0.29133(10)
C36 C 0.2340(5) 0.6590(3) 0.32698(10)
C37 C 0.3287(5) 0.6016(3) 0.35729(11)
H34 H 0.3860 0.5293 0.3539
C38 C 0.3381(5) 0.6485(3) 0.39086(11)
H35 H 0.4006 0.6085 0.4108
C39 C 0.2562(5) 0.7561(3) 0.39657(10)
C40 C 0.2688(6) 0.8085(3) 0.43068(11)
H36 H 0.3323 0.7705 0.4509
C41 C 0.1911(6) 0.9128(4) 0.43485(12)
H37 H 0.1995 0.9468 0.4580
C42 C 0.0990(6) 0.9699(3) 0.40511(12)
H38 H 0.0474 1.0428 0.4080
C43 C 0.0826(5) 0.9222(3) 0.37210(11)
H39 H 0.0179 0.9619 0.3524
C44 C 0.1609(5) 0.8140(3) 0.36681(10)
C45 C 0.1505(5) 0.7634(3) 0.33244(10)
H40 H 0.0845 0.8020 0.3126
Si2 Si 0.36022(18) 0.24805(9) 0.43667(3)
C46 C 0.0521(5) 0.3123(3) 0.33221(10)
C47 C 0.0596(5) 0.2411(3) 0.30259(10)
C48 C 0.1552(5) 0.1353(3) 0.30476(10)
H41 H 0.2141 0.1108 0.3274
C49 C 0.1666(5) 0.0655(3) 0.27523(10)
C50 C 0.2659(5) -0.0421(3) 0.27740(11)
H42 H 0.3264 -0.0673 0.2997
C51 C 0.2741(5) -0.1080(3) 0.24787(12)
H43 H 0.3385 -0.1793 0.2500
C52 C 0.1887(5) -0.0726(3) 0.21399(12)
H44 H 0.1977 -0.1198 0.1934
C53 C 0.0937(5) 0.0285(3) 0.21070(11)
H45 H 0.0362 0.0511 0.1878
C54 C 0.0784(5) 0.1015(3) 0.24087(10)
C55 C -0.0170(5) 0.2054(3) 0.23816(10)
H46 H -0.0750 0.2289 0.2154
C56 C -0.0305(4) 0.2768(3) 0.26788(10)
C57 C -0.1276(4) 0.3834(3) 0.26477(10)
C58 C -0.1377(4) 0.4544(3) 0.29524(10)
C59 C -0.2337(5) 0.5606(3) 0.29304(11)
H47 H -0.2929 0.5852 0.2705
C60 C -0.2443(5) 0.6298(3) 0.32257(11)
C61 C -0.3410(5) 0.7378(3) 0.32012(13)
H48 H -0.3967 0.7637 0.2973
C62 C -0.3534(5) 0.8034(3) 0.35023(14)
H49 H -0.4181 0.8746 0.3482
C63 C -0.2715(5) 0.7670(3) 0.38456(13)
H50 H -0.2838 0.8135 0.4055
C64 C -0.1749(5) 0.6656(3) 0.38769(12)
H51 H -0.1181 0.6424 0.4106
C65 C -0.1582(5) 0.5938(3) 0.35683(11)
C66 C -0.0614(5) 0.4907(3) 0.35928(11)
H52 H -0.0022 0.4674 0.3819
C67 C -0.0473(5) 0.4191(3) 0.32945(10)
C68 C 0.1480(5) 0.2807(3) 0.36553(11)
C69 C 0.2297(6) 0.2620(3) 0.39457(11)
C70 C 0.4712(7) 0.3562(4) 0.43297(13)
H53 H 0.3696 0.4194 0.4283
C71 C 0.6132(8) 0.3512(7) 0.39806(16)
H54 H 0.6519 0.4151 0.3969
H55 H 0.5591 0.3437 0.3742
H56 H 0.7196 0.2914 0.4007
C72 C 0.5437(11) 0.3814(5) 0.46949(14)
H57 H 0.5942 0.4407 0.4647
H58 H 0.6400 0.3210 0.4770
H59 H 0.4440 0.3986 0.4904
C73 C 0.5138(7) 0.1128(3) 0.43557(18)
H60 H 0.4322 0.0683 0.4444
C74 C 0.6591(8) 0.0917(7) 0.46434(16)
H61 H 0.7280 0.0181 0.4631
H62 H 0.5994 0.1090 0.4906
H63 H 0.7429 0.1344 0.4577
C75 C 0.5980(8) 0.0722(5) 0.39575(16)
H64 H 0.6710 -0.0001 0.3977
H65 H 0.6769 0.1144 0.3848
H66 H 0.5008 0.0762 0.3789
C76 C 0.2040(7) 0.2671(4) 0.48244(13)
H67 H 0.2797 0.2580 0.5048
C77 C 0.1020(11) 0.1834(5) 0.4847(2)
H68 H 0.0202 0.1920 0.5088
H69 H 0.1906 0.1146 0.4843
H70 H 0.0300 0.1899 0.4625
C78 C 0.0694(10) 0.3740(4) 0.4852(2)
H71 H -0.0100 0.3803 0.5095
H72 H -0.0055 0.3842 0.4633
H73 H 0.1363 0.4267 0.4844
C79 C -0.2158(5) 0.4217(3) 0.23092(11)
C80 C -0.2932(5) 0.4612(3) 0.20396(11)
C81 C -0.3858(4) 0.5173(3) 0.17291(10)
C82 C -0.4502(5) 0.6282(3) 0.17600(11)
H74 H -0.4331 0.6621 0.1985
C83 C -0.5360(5) 0.6853(3) 0.14688(11)
H75 H -0.5771 0.7588 0.1492
C84 C -0.5647(5) 0.6370(3) 0.11341(10)
C85 C -0.6546(5) 0.6967(3) 0.08282(12)
H76 H -0.6947 0.7703 0.0847
C86 C -0.6827(5) 0.6477(3) 0.05090(12)
H77 H -0.7425 0.6876 0.0306
C87 C -0.6245(5) 0.5394(3) 0.04776(12)
H78 H -0.6452 0.5065 0.0254
C88 C -0.5375(5) 0.4804(3) 0.07687(11)
H79 H -0.4993 0.4068 0.0745
C89 C -0.5049(5) 0.5279(3) 0.10992(10)
C90 C -0.4132(5) 0.4698(3) 0.14073(10)
H80 H -0.3706 0.3963 0.1387
C91? C 0.445(2) 0.3610(9) 0.4480(6)
C92? C 0.548(4) 0.357(3) 0.4077(7)
C93? C 0.270(3) 0.4491(17) 0.4507(7)
C94? C 0.5569(16) 0.1282(7) 0.4327(8)
C95? C 0.605(5) 0.088(3) 0.4731(7)
C96? C 0.533(5) 0.042(2) 0.4083(8)
C97? C 0.187(2) 0.2319(13) 0.4766(5)
C98? C 0.243(4) 0.213(2) 0.5179(6)
C99? C 0.003(3) 0.312(2) 0.4768(8)
H81? H 0.5197 0.3527 0.4705
H82? H 0.6318 0.4008 0.4073
H83? H 0.4605 0.3825 0.3885
H84? H 0.6183 0.2853 0.4014
H85? H 0.2680 0.4919 0.4274
H86? H 0.2649 0.4918 0.4736
H87? H 0.1645 0.4207 0.4529
H88? H 0.6648 0.1489 0.4201
H89? H 0.7007 0.0224 0.4708
H90? H 0.4954 0.0780 0.4881
H91? H 0.6479 0.1394 0.4864
H92? H 0.6405 -0.0185 0.4089
H93? H 0.5202 0.0655 0.3816
H94? H 0.4234 0.0222 0.4187
H95? H 0.1615 0.1657 0.4697
H96? H 0.1366 0.2100 0.5356
H97? H 0.2898 0.2698 0.5257
H98? H 0.3389 0.1471 0.5188
H99? H -0.0808 0.2966 0.4979
H100? H -0.0468 0.3091 0.4520
H101? H 0.0175 0.3811 0.4805
loop_
_geom_bond_atom_site_label_1
_geom_bond_atom_site_label_2
_geom_bond_site_symmetry_1
_geom_bond_site_symmetry_2
Si1 C24 1_555 1_555
C1 C2 1_555 1_555
C2 C3 1_555 1_555
C3 H1 1_555 1_555
C4 C3 1_555 1_555
C5 C4 1_555 1_555
H2 C5 1_555 1_555
C6 C5 1_555 1_555
H3 C6 1_555 1_555
C7 C6 1_555 1_555
H4 C7 1_555 1_555
C8 C7 1_555 1_555
H5 C8 1_555 1_555
C9 C4 1_555 1_555
C10 C9 1_555 1_555
H6 C10 1_555 1_555
C11 C2 1_555 1_555
C12 C11 1_555 1_555
C13 C12 1_555 1_555
C14 C13 1_555 1_555
H7 C14 1_555 1_555
C15 C14 1_555 1_555
C16 C15 1_555 1_555
H8 C16 1_555 1_555
C17 C16 1_555 1_555
H9 C17 1_555 1_555
C18 C17 1_555 1_555
H10 C18 1_555 1_555
C19 C18 1_555 1_555
H11 C19 1_555 1_555
C20 C15 1_555 1_555
C21 C20 1_555 1_555
H12 C21 1_555 1_555
C22 C1 1_555 1_555
C23 C1 1_555 1_555
C24 C23 1_555 1_555
C25 Si1 1_555 1_555
H13 C25 1_555 1_555
C26 C25 1_555 1_555
H14 C26 1_555 1_555
H15 C26 1_555 1_555
H16 C26 1_555 1_555
C27 C25 1_555 1_555
H17 C27 1_555 1_555
H18 C27 1_555 1_555
H19 C27 1_555 1_555
C28 Si1 1_555 1_555
H20 C28 1_555 1_555
C29 C28 1_555 1_555
H21 C29 1_555 1_555
H22 C29 1_555 1_555
H23 C29 1_555 1_555
C30 C28 1_555 1_555
H24 C30 1_555 1_555
H25 C30 1_555 1_555
H26 C30 1_555 1_555
C31 Si1 1_555 1_555
H27 C31 1_555 1_555
C32 C31 1_555 1_555
H28 C32 1_555 1_555
H29 C32 1_555 1_555
H30 C32 1_555 1_555
C33 C31 1_555 1_555
H31 C33 1_555 1_555
H32 C33 1_555 1_555
H33 C33 1_555 1_555
C34 C12 1_555 1_555
C35 C34 1_555 1_555
C36 C35 1_555 1_555
C37 C36 1_555 1_555
H34 C37 1_555 1_555
C38 C37 1_555 1_555
H35 C38 1_555 1_555
C39 C38 1_555 1_555
C40 C39 1_555 1_555
H36 C40 1_555 1_555
C41 C40 1_555 1_555
H37 C41 1_555 1_555
C42 C41 1_555 1_555
H38 C42 1_555 1_555
C43 C42 1_555 1_555
H39 C43 1_555 1_555
C44 C39 1_555 1_555
C45 C36 1_555 1_555
H40 C45 1_555 1_555
Si2 C69 1_555 1_555
C46 C47 1_555 1_555
C47 C48 1_555 1_555
C48 H41 1_555 1_555
C49 C48 1_555 1_555
C50 C49 1_555 1_555
H42 C50 1_555 1_555
C51 C50 1_555 1_555
H43 C51 1_555 1_555
C52 C51 1_555 1_555
H44 C52 1_555 1_555
C53 C52 1_555 1_555
H45 C53 1_555 1_555
C54 C49 1_555 1_555
C55 C54 1_555 1_555
H46 C55 1_555 1_555
C56 C47 1_555 1_555
C57 C56 1_555 1_555
C58 C57 1_555 1_555
C59 C58 1_555 1_555
H47 C59 1_555 1_555
C60 C59 1_555 1_555
C61 C60 1_555 1_555
H48 C61 1_555 1_555
C62 C61 1_555 1_555
H49 C62 1_555 1_555
C63 C62 1_555 1_555
H50 C63 1_555 1_555
C64 C63 1_555 1_555
H51 C64 1_555 1_555
C65 C60 1_555 1_555
C66 C65 1_555 1_555
H52 C66 1_555 1_555
C67 C46 1_555 1_555
C68 C46 1_555 1_555
C69 C68 1_555 1_555
C70 Si2 1_555 1_555
H53 C70 1_555 1_555
C71 C70 1_555 1_555
H54 C71 1_555 1_555
H55 C71 1_555 1_555
H56 C71 1_555 1_555
C72 C70 1_555 1_555
H57 C72 1_555 1_555
H58 C72 1_555 1_555
H59 C72 1_555 1_555
C73 Si2 1_555 1_555
H60 C73 1_555 1_555
C74 C73 1_555 1_555
H61 C74 1_555 1_555
H62 C74 1_555 1_555
H63 C74 1_555 1_555
C75 C73 1_555 1_555
H64 C75 1_555 1_555
H65 C75 1_555 1_555
H66 C75 1_555 1_555
C76 Si2 1_555 1_555
H67 C76 1_555 1_555
C77 C76 1_555 1_555
H68 C77 1_555 1_555
H69 C77 1_555 1_555
H70 C77 1_555 1_555
C78 C76 1_555 1_555
H71 C78 1_555 1_555
H72 C78 1_555 1_555
H73 C78 1_555 1_555
C79 C57 1_555 1_555
C80 C79 1_555 1_555
C81 C80 1_555 1_555
C82 C81 1_555 1_555
H74 C82 1_555 1_555
C83 C82 1_555 1_555
H75 C83 1_555 1_555
C84 C83 1_555 1_555
C85 C84 1_555 1_555
H76 C85 1_555 1_555
C86 C85 1_555 1_555
H77 C86 1_555 1_555
C87 C86 1_555 1_555
H78 C87 1_555 1_555
C88 C87 1_555 1_555
H79 C88 1_555 1_555
C89 C84 1_555 1_555
C90 C81 1_555 1_555
H80 C90 1_555 1_555
C8 C9 1_555 1_555
C10 C11 1_555 1_555
C13 C22 1_555 1_555
C19 C20 1_555 1_555
C21 C22 1_555 1_555
C43 C44 1_555 1_555
C44 C45 1_555 1_555
C53 C54 1_555 1_555
C55 C56 1_555 1_555
C58 C67 1_555 1_555
C64 C65 1_555 1_555
C66 C67 1_555 1_555
C88 C89 1_555 1_555
C89 C90 1_555 1_555

#END
