
#######################################################################
#
#                 Cambridge Crystallographic Data Centre
#                                CCDC 
#
#######################################################################
#
# If this CIF has been generated from an entry in the Cambridge 
# Structural Database, then it will include bibliographic, chemical, 
# crystal, experimental, refinement or atomic coordinate data resulting 
# from the CCDC's data processing and validation procedures.
#
#######################################################################

data_YULLUN
_chemical_formula_moiety         'C49 H42 Si1'
_chemical_name_systematic        
((13-(9-Anthrylethynyl)pentacen-6-yl)ethynyl)(triisopropyl)silane
_symmetry_cell_setting           triclinic
_symmetry_space_group_name_H-M   'P -1'
_symmetry_Int_Tables_number      2
_space_group_name_Hall           '-P 1'
loop_
_symmetry_equiv_pos_site_id
_symmetry_equiv_pos_as_xyz
1 x,y,z
2 -x,-y,-z
_cell_length_a                   8.5889(11)
_cell_length_b                   14.8703(19)
_cell_length_c                   15.312(2)
_cell_angle_alpha                71.0863(16)
_cell_angle_beta                 81.8475(17)
_cell_angle_gamma                78.8361(17)
_cell_volume                     1808.45
_exptl_crystal_colour            brown
_exptl_crystal_description       prism
_cell_formula_units_Z            2
loop_
_atom_site_label
_atom_site_type_symbol
_atom_site_fract_x
_atom_site_fract_y
_atom_site_fract_z
Si1 Si -0.02556(6) 0.41315(4) 0.31881(3)
C1 C 0.0421(2) 0.20227(12) 0.16025(12)
C2 C -0.0296(2) 0.22908(12) 0.07557(12)
C3 C -0.1431(2) 0.31285(12) 0.04798(12)
H1 H -0.1709 0.3532 0.0866
C4 C -0.2152(2) 0.33804(12) -0.03368(12)
C5 C -0.3306(2) 0.42328(13) -0.06237(13)
H2 H -0.3572 0.4653 -0.0253
C6 C -0.4021(2) 0.44474(13) -0.14160(14)
H3 H -0.4781 0.5016 -0.1595
C7 C -0.3647(2) 0.38297(14) -0.19839(14)
H4 H -0.4171 0.3984 -0.2532
C8 C -0.2546(2) 0.30207(13) -0.17476(13)
H5 H -0.2303 0.2617 -0.2135
C9 C -0.1747(2) 0.27698(12) -0.09214(12)
C10 C -0.0600(2) 0.19585(12) -0.06692(12)
H6 H -0.0320 0.1564 -0.1064
C11 C 0.0158(2) 0.17005(12) 0.01467(12)
C12 C 0.1343(2) 0.08692(12) 0.03931(12)
C13 C 0.1973(2) 0.05647(12) 0.12692(12)
C14 C 0.3055(2) -0.02898(13) 0.15572(12)
H7 H 0.3352 -0.0680 0.1159
C15 C 0.3705(2) -0.05841(12) 0.24016(12)
C16 C 0.4809(2) -0.14531(13) 0.27014(14)
H8 H 0.5110 -0.1855 0.2314
C17 C 0.5430(2) -0.17115(14) 0.35275(14)
H9 H 0.6161 -0.2293 0.3714
C18 C 0.5002(2) -0.11227(14) 0.41185(14)
H10 H 0.5451 -0.1313 0.4696
C19 C 0.3958(2) -0.02911(14) 0.38679(13)
H11 H 0.3689 0.0097 0.4270
C20 C 0.3259(2) 0.00075(13) 0.30046(12)
C21 C 0.2189(2) 0.08528(12) 0.27310(12)
H12 H 0.1905 0.1242 0.3131
C22 C 0.1510(2) 0.11530(12) 0.18795(12)
C23 C 0.0095(2) 0.26570(12) 0.21573(12)
C24 C -0.0119(2) 0.32241(13) 0.25918(12)
C25 C -0.0543(2) 0.53730(13) 0.23082(13)
H13 H 0.0550 0.5545 0.2112
C26 C -0.1220(3) 0.54210(15) 0.14184(14)
H14 H -0.1326 0.6084 0.1002
H15 H -0.2268 0.5214 0.1571
H16 H -0.0499 0.4996 0.1112
C27 C -0.1477(3) 0.61609(15) 0.27038(17)
H17 H -0.1571 0.6780 0.2212
H18 H -0.0917 0.6201 0.3201
H19 H -0.2543 0.6006 0.2951
C28 C 0.1745(2) 0.39434(13) 0.36528(13)
H20 H 0.2502 0.4172 0.3099
C29 C 0.2436(2) 0.28943(15) 0.41281(15)
H21 H 0.3470 0.2867 0.4344
H22 H 0.2574 0.2527 0.3687
H23 H 0.1706 0.2617 0.4658
C30 C 0.1775(2) 0.45689(17) 0.42646(16)
H24 H 0.2836 0.4444 0.4485
H25 H 0.0982 0.4416 0.4796
H26 H 0.1525 0.5249 0.3906
C31 C -0.1966(2) 0.39609(14) 0.41020(14)
H27 H -0.2135 0.4513 0.4361
C32 C -0.3490(2) 0.40052(18) 0.36647(18)
H28 H -0.4382 0.3924 0.4145
H29 H -0.3344 0.3490 0.3378
H30 H -0.3719 0.4630 0.3192
C33 C -0.1688(3) 0.30357(18) 0.49087(17)
H31 H -0.2620 0.3003 0.5362
H32 H -0.0746 0.3031 0.5205
H33 H -0.1519 0.2479 0.4677
C34 C 0.1923(2) 0.03553(12) -0.02562(12)
C35 C 0.2435(2) -0.00634(12) -0.08131(12)
C36 C 0.2960(2) -0.06009(12) -0.14498(12)
C37 C 0.2291(2) -0.03044(13) -0.23112(12)
C38 C 0.1178(2) 0.05556(14) -0.26003(13)
H34 H 0.0865 0.0948 -0.2205
C39 C 0.0555(3) 0.08253(16) -0.34287(14)
H35 H -0.0187 0.1402 -0.3607
C40 C 0.1004(3) 0.02525(18) -0.40303(14)
H36 H 0.0569 0.0451 -0.4613
C41 C 0.2048(3) -0.05756(17) -0.37823(14)
H37 H 0.2322 -0.0958 -0.4189
C42 C 0.2745(2) -0.08845(14) -0.29188(13)
C43 C 0.3843(2) -0.17251(15) -0.26527(14)
H38 H 0.4119 -0.2114 -0.3053
C44 C 0.4548(2) -0.20141(13) -0.18223(14)
C45 C 0.5704(2) -0.28607(14) -0.15621(16)
H39 H 0.5993 -0.3251 -0.1961
C46 C 0.6398(2) -0.31206(14) -0.07551(17)
H40 H 0.7169 -0.3686 -0.0596
C47 C 0.5977(2) -0.25539(14) -0.01536(15)
H41 H 0.6471 -0.2740 0.0409
C48 C 0.4868(2) -0.17406(13) -0.03690(13)
H42 H 0.4594 -0.1370 0.0048
C49 C 0.4118(2) -0.14413(13) -0.12081(13)
loop_
_geom_bond_atom_site_label_1
_geom_bond_atom_site_label_2
_geom_bond_site_symmetry_1
_geom_bond_site_symmetry_2
Si1 C24 1_555 1_555
C1 C2 1_555 1_555
C2 C3 1_555 1_555
C3 H1 1_555 1_555
C4 C3 1_555 1_555
C5 C4 1_555 1_555
H2 C5 1_555 1_555
C6 C5 1_555 1_555
H3 C6 1_555 1_555
C7 C6 1_555 1_555
H4 C7 1_555 1_555
C8 C7 1_555 1_555
H5 C8 1_555 1_555
C9 C4 1_555 1_555
C10 C9 1_555 1_555
H6 C10 1_555 1_555
C11 C2 1_555 1_555
C12 C11 1_555 1_555
C13 C12 1_555 1_555
C14 C13 1_555 1_555
H7 C14 1_555 1_555
C15 C14 1_555 1_555
C16 C15 1_555 1_555
H8 C16 1_555 1_555
C17 C16 1_555 1_555
H9 C17 1_555 1_555
C18 C17 1_555 1_555
H10 C18 1_555 1_555
C19 C18 1_555 1_555
H11 C19 1_555 1_555
C20 C15 1_555 1_555
C21 C20 1_555 1_555
H12 C21 1_555 1_555
C22 C1 1_555 1_555
C23 C1 1_555 1_555
C24 C23 1_555 1_555
C25 Si1 1_555 1_555
H13 C25 1_555 1_555
C26 C25 1_555 1_555
H14 C26 1_555 1_555
H15 C26 1_555 1_555
H16 C26 1_555 1_555
C27 C25 1_555 1_555
H17 C27 1_555 1_555
H18 C27 1_555 1_555
H19 C27 1_555 1_555
C28 Si1 1_555 1_555
H20 C28 1_555 1_555
C29 C28 1_555 1_555
H21 C29 1_555 1_555
H22 C29 1_555 1_555
H23 C29 1_555 1_555
C30 C28 1_555 1_555
H24 C30 1_555 1_555
H25 C30 1_555 1_555
H26 C30 1_555 1_555
C31 Si1 1_555 1_555
H27 C31 1_555 1_555
C32 C31 1_555 1_555
H28 C32 1_555 1_555
H29 C32 1_555 1_555
H30 C32 1_555 1_555
C33 C31 1_555 1_555
H31 C33 1_555 1_555
H32 C33 1_555 1_555
H33 C33 1_555 1_555
C34 C12 1_555 1_555
C35 C34 1_555 1_555
C36 C35 1_555 1_555
C37 C36 1_555 1_555
C38 C37 1_555 1_555
H34 C38 1_555 1_555
C39 C38 1_555 1_555
H35 C39 1_555 1_555
C40 C39 1_555 1_555
H36 C40 1_555 1_555
C41 C40 1_555 1_555
H37 C41 1_555 1_555
C42 C37 1_555 1_555
C43 C42 1_555 1_555
H38 C43 1_555 1_555
C44 C43 1_555 1_555
C45 C44 1_555 1_555
H39 C45 1_555 1_555
C46 C45 1_555 1_555
H40 C46 1_555 1_555
C47 C46 1_555 1_555
H41 C47 1_555 1_555
C48 C47 1_555 1_555
H42 C48 1_555 1_555
C49 C36 1_555 1_555
C8 C9 1_555 1_555
C10 C11 1_555 1_555
C13 C22 1_555 1_555
C19 C20 1_555 1_555
C21 C22 1_555 1_555
C41 C42 1_555 1_555
C44 C49 1_555 1_555
C48 C49 1_555 1_555

#END
