
#######################################################################
#
#                 Cambridge Crystallographic Data Centre
#                                CCDC 
#
#######################################################################
#
# If this CIF has been generated from an entry in the Cambridge 
# Structural Database, then it will include bibliographic, chemical, 
# crystal, experimental, refinement or atomic coordinate data resulting 
# from the CCDC's data processing and validation procedures.
#
#######################################################################

data_YULLOH
_chemical_formula_moiety         'C49 H42 Si1'
_chemical_name_systematic        
Triisopropyl((13-(9-phenanthrylethynyl)pentacen-6-yl)ethynyl)silane
_symmetry_cell_setting           triclinic
_symmetry_space_group_name_H-M   'P -1'
_symmetry_Int_Tables_number      2
_space_group_name_Hall           '-P 1'
loop_
_symmetry_equiv_pos_site_id
_symmetry_equiv_pos_as_xyz
1 x,y,z
2 -x,-y,-z
_cell_length_a                   9.1190(10)
_cell_length_b                   12.8567(14)
_cell_length_c                   16.5030(18)
_cell_angle_alpha                70.9187(13)
_cell_angle_beta                 83.3738(14)
_cell_angle_gamma                82.2715(15)
_cell_volume                     1806.62
_exptl_crystal_colour            blue
_exptl_crystal_description       prism
_cell_formula_units_Z            2
loop_
_atom_site_label
_atom_site_type_symbol
_atom_site_fract_x
_atom_site_fract_y
_atom_site_fract_z
Si1 Si 0.24025(5) 0.33258(3) 0.37646(3)
C1 C 0.18576(17) 0.20035(12) 0.16360(9)
C2 C 0.07315(16) 0.26088(12) 0.10903(9)
C3 C -0.01166(17) 0.35466(12) 0.12153(9)
H1 H 0.0066 0.3777 0.1683
C4 C -0.12072(17) 0.41476(12) 0.06838(9)
C5 C -0.20400(18) 0.51259(13) 0.07922(10)
H2 H -0.1860 0.5369 0.1254
C6 C -0.30803(19) 0.57113(14) 0.02485(10)
H3 H -0.3609 0.6365 0.0327
C7 C -0.33881(18) 0.53532(14) -0.04405(10)
H4 H -0.4124 0.5769 -0.0816
C8 C -0.26454(18) 0.44315(13) -0.05647(10)
H5 H -0.2877 0.4199 -0.1021
C9 C -0.15134(17) 0.37970(12) -0.00203(9)
C10 C -0.06842(17) 0.28759(12) -0.01513(9)
H6 H -0.0889 0.2643 -0.0613
C11 C 0.04508(17) 0.22716(12) 0.03738(9)
C12 C 0.13187(17) 0.13454(12) 0.02183(9)
C13 C 0.24144(16) 0.07203(12) 0.07776(9)
C14 C 0.32094(17) -0.02438(13) 0.06664(10)
H7 H 0.3036 -0.0458 0.0189
C15 C 0.42336(17) -0.08912(12) 0.12259(10)
C16 C 0.4981(2) -0.19036(14) 0.11415(11)
H8 H 0.4785 -0.2142 0.0681
C17 C 0.5966(2) -0.25288(15) 0.17069(11)
H9 H 0.6445 -0.3204 0.1642
C18 C 0.62890(19) -0.21836(14) 0.23966(11)
H10 H 0.6992 -0.2626 0.2785
C19 C 0.56079(18) -0.12336(13) 0.25063(10)
H11 H 0.5839 -0.1017 0.2971
C20 C 0.45436(17) -0.05479(12) 0.19339(9)
C21 C 0.37808(17) 0.04090(12) 0.20450(9)
H12 H 0.3996 0.0637 0.2507
C22 C 0.26973(16) 0.10536(12) 0.14963(9)
C23 C 0.21236(17) 0.23624(12) 0.23366(9)
C24 C 0.22787(17) 0.27148(12) 0.29124(10)
C25 C 0.08340(19) 0.44630(14) 0.36756(11)
H13 H 0.0919 0.4800 0.4133
C26 C -0.0682(2) 0.40099(18) 0.38469(15)
H14 H -0.1470 0.4619 0.3807
H15 H -0.0754 0.3468 0.4424
H16 H -0.0791 0.3652 0.3419
C27 C 0.0888(2) 0.53895(14) 0.28141(12)
H17 H 0.0057 0.5958 0.2815
H18 H 0.0816 0.5086 0.2349
H19 H 0.1826 0.5719 0.2726
C28 C 0.42992(18) 0.38343(13) 0.36147(10)
H20 H 0.5004 0.3164 0.3856
C29 C 0.4873(2) 0.43509(16) 0.26763(11)
H21 H 0.5842 0.4611 0.2657
H22 H 0.4171 0.4977 0.2393
H23 H 0.4972 0.3796 0.2379
C30 C 0.4420(2) 0.46144(15) 0.41289(12)
H24 H 0.5423 0.4848 0.4025
H25 H 0.4220 0.4229 0.4743
H26 H 0.3696 0.5266 0.3947
C31 C 0.2159(2) 0.22005(14) 0.48292(10)
H27 H 0.1228 0.1875 0.4820
C32 C 0.3409(2) 0.12596(15) 0.49539(13)
H28 H 0.3225 0.0694 0.5510
H29 H 0.4356 0.1549 0.4940
H30 H 0.3450 0.0932 0.4492
C33 C 0.1944(2) 0.26291(17) 0.56050(11)
H31 H 0.1821 0.2008 0.6135
H32 H 0.1059 0.3164 0.5552
H33 H 0.2816 0.2989 0.5624
C34 C 0.10683(17) 0.10583(12) -0.05151(9)
C35 C 0.08059(17) 0.08882(12) -0.11529(9)
C36 C 0.03665(17) 0.07652(12) -0.19189(9)
C37 C -0.07255(17) 0.15019(12) -0.23460(9)
H34 H -0.1144 0.2090 -0.2135
C38 C -0.12592(17) 0.14194(12) -0.30975(9)
C39 C -0.23843(19) 0.21965(13) -0.35217(10)
H35 H -0.2773 0.2790 -0.3310
C40 C -0.2931(2) 0.21138(15) -0.42351(11)
H36 H -0.3676 0.2654 -0.4524
C41 C -0.2382(2) 0.12279(16) -0.45324(11)
H37 H -0.2773 0.1158 -0.5019
C42 C -0.12855(19) 0.04580(15) -0.41319(10)
H38 H -0.0930 -0.0138 -0.4347
C43 C -0.06713(17) 0.05301(12) -0.34070(9)
C44 C 0.05127(17) -0.02497(12) -0.29710(9)
C45 C 0.11810(19) -0.11424(14) -0.32495(10)
H39 H 0.0832 -0.1252 -0.3733
C46 C 0.2317(2) -0.18512(14) -0.28416(11)
H40 H 0.2753 -0.2439 -0.3049
C47 C 0.28431(19) -0.17203(14) -0.21221(11)
H41 H 0.3639 -0.2213 -0.1843
C48 C 0.22028(18) -0.08749(13) -0.18206(10)
H42 H 0.2550 -0.0793 -0.1326
C49 C 0.10405(17) -0.01292(12) -0.22344(9)
loop_
_geom_bond_atom_site_label_1
_geom_bond_atom_site_label_2
_geom_bond_site_symmetry_1
_geom_bond_site_symmetry_2
Si1 C24 1_555 1_555
C1 C2 1_555 1_555
C2 C3 1_555 1_555
C3 H1 1_555 1_555
C4 C3 1_555 1_555
C5 C4 1_555 1_555
H2 C5 1_555 1_555
C6 C5 1_555 1_555
H3 C6 1_555 1_555
C7 C6 1_555 1_555
H4 C7 1_555 1_555
C8 C7 1_555 1_555
H5 C8 1_555 1_555
C9 C4 1_555 1_555
C10 C9 1_555 1_555
H6 C10 1_555 1_555
C11 C2 1_555 1_555
C12 C11 1_555 1_555
C13 C12 1_555 1_555
C14 C13 1_555 1_555
H7 C14 1_555 1_555
C15 C14 1_555 1_555
C16 C15 1_555 1_555
H8 C16 1_555 1_555
C17 C16 1_555 1_555
H9 C17 1_555 1_555
C18 C17 1_555 1_555
H10 C18 1_555 1_555
C19 C18 1_555 1_555
H11 C19 1_555 1_555
C20 C15 1_555 1_555
C21 C20 1_555 1_555
H12 C21 1_555 1_555
C22 C1 1_555 1_555
C23 C1 1_555 1_555
C24 C23 1_555 1_555
C25 Si1 1_555 1_555
H13 C25 1_555 1_555
C26 C25 1_555 1_555
H14 C26 1_555 1_555
H15 C26 1_555 1_555
H16 C26 1_555 1_555
C27 C25 1_555 1_555
H17 C27 1_555 1_555
H18 C27 1_555 1_555
H19 C27 1_555 1_555
C28 Si1 1_555 1_555
H20 C28 1_555 1_555
C29 C28 1_555 1_555
H21 C29 1_555 1_555
H22 C29 1_555 1_555
H23 C29 1_555 1_555
C30 C28 1_555 1_555
H24 C30 1_555 1_555
H25 C30 1_555 1_555
H26 C30 1_555 1_555
C31 Si1 1_555 1_555
H27 C31 1_555 1_555
C32 C31 1_555 1_555
H28 C32 1_555 1_555
H29 C32 1_555 1_555
H30 C32 1_555 1_555
C33 C31 1_555 1_555
H31 C33 1_555 1_555
H32 C33 1_555 1_555
H33 C33 1_555 1_555
C34 C12 1_555 1_555
C35 C34 1_555 1_555
C36 C35 1_555 1_555
C37 C36 1_555 1_555
H34 C37 1_555 1_555
C38 C37 1_555 1_555
C39 C38 1_555 1_555
H35 C39 1_555 1_555
C40 C39 1_555 1_555
H36 C40 1_555 1_555
C41 C40 1_555 1_555
H37 C41 1_555 1_555
C42 C41 1_555 1_555
H38 C42 1_555 1_555
C43 C38 1_555 1_555
C44 C43 1_555 1_555
C45 C44 1_555 1_555
H39 C45 1_555 1_555
C46 C45 1_555 1_555
H40 C46 1_555 1_555
C47 C46 1_555 1_555
H41 C47 1_555 1_555
C48 C47 1_555 1_555
H42 C48 1_555 1_555
C49 C36 1_555 1_555
C8 C9 1_555 1_555
C10 C11 1_555 1_555
C13 C22 1_555 1_555
C19 C20 1_555 1_555
C21 C22 1_555 1_555
C42 C43 1_555 1_555
C44 C49 1_555 1_555
C48 C49 1_555 1_555

#END
