
#######################################################################
#
#                 Cambridge Crystallographic Data Centre
#                                CCDC 
#
#######################################################################
#
# If this CIF has been generated from an entry in the Cambridge 
# Structural Database, then it will include bibliographic, chemical, 
# crystal, experimental, refinement or atomic coordinate data resulting 
# from the CCDC's data processing and validation procedures.
#
#######################################################################

data_YULNEZ
_chemical_compound_source        'Melodinus henryi'
_chemical_name_common            
'(2R,3S,7R,15S,16S,20S,22R,23R,24S,25S)-melohenine A hydrochloride trihydrate'
_chemical_formula_moiety         'C24 H30 N2 O4,H1 Cl1,3(H2 O1)'
_chemical_name_systematic        
'18-Ethyl-14-hydroxy-12-(hydroxymethyl)-10,13-dioxa-8,20-diaza-octacyclo[15.5.2.1^8,11^.0^1,9^.0^2,7^.0^9,16^.0^14,25^.0^20,23^]pentacosa-2,4,6-triene hydrochloride trihydrate'
_chemical_properties_biological  'no cytotoxic activity'
_symmetry_cell_setting           orthorhombic
_symmetry_space_group_name_H-M   'P 21 21 21'
_symmetry_Int_Tables_number      19
_space_group_name_Hall           'P 2ac 2ab'
loop_
_symmetry_equiv_pos_site_id
_symmetry_equiv_pos_as_xyz
1 x,y,z
2 1/2-x,-y,1/2+z
3 1/2+x,1/2-y,-z
4 -x,1/2+y,1/2-z
_cell_length_a                   9.268(3)
_cell_length_b                   13.934(5)
_cell_length_c                   19.073(6)
_cell_angle_alpha                90
_cell_angle_beta                 90
_cell_angle_gamma                90
_cell_volume                     2463.09
_exptl_crystal_colour            colorless
_exptl_crystal_description       block
_cell_formula_units_Z            4
_exptl_crystal_recrystallization_method methanol/water
loop_
_atom_site_label
_atom_site_type_symbol
_atom_site_fract_x
_atom_site_fract_y
_atom_site_fract_z
N1 N 0.1997(8) 0.2413(5) 0.6887(4)
N2 N 0.3675(8) 0.3684(5) 0.8920(4)
O1 O 0.4299(6) 0.3008(4) 0.6724(3)
O2 O 0.2911(7) 0.4026(4) 0.5588(3)
O3 O 0.0556(8) 0.3511(5) 0.5468(3)
H1 H 0.0209 0.4044 0.5401
O4 O 0.5563(9) 0.4247(5) 0.4734(4)
H2 H 0.5942 0.4775 0.4783
C1 C 0.3057(9) 0.3061(6) 0.7208(5)
C2 C 0.2640(9) 0.3019(7) 0.8523(4)
H9 H 0.2376 0.2490 0.8836
C3 C 0.5059(9) 0.3123(7) 0.8882(5)
H10 H 0.5052 0.2593 0.9211
H11 H 0.5884 0.3530 0.8980
C4 C 0.5098(10) 0.2758(6) 0.8125(5)
H12 H 0.5633 0.2161 0.8095
H13 H 0.5553 0.3227 0.7820
C5 C 0.3486(10) 0.2600(6) 0.7907(5)
C6 C 0.3107(9) 0.1568(6) 0.7767(5)
C7 C 0.3462(10) 0.0744(7) 0.8147(5)
H14 H 0.3972 0.0791 0.8566
C8 C 0.3040(10) -0.0154(7) 0.7891(5)
H15 H 0.3283 -0.0710 0.8134
C9 C 0.2256(10) -0.0211(7) 0.7272(5)
H16 H 0.1971 -0.0809 0.7105
C10 C 0.1893(9) 0.0596(7) 0.6903(5)
H17 H 0.1370 0.0548 0.6488
C11 C 0.2314(9) 0.1482(7) 0.7154(5)
C12 C 0.1272(10) 0.3528(6) 0.8308(4)
H18 H 0.0733 0.3720 0.8720
H19 H 0.0672 0.3102 0.8031
C13 C 0.1685(9) 0.4421(7) 0.7872(5)
H20 H 0.0786 0.4741 0.7736
C14 C 0.2461(9) 0.4098(6) 0.7179(5)
H21 H 0.3261 0.4539 0.7085
C15 C 0.1337(10) 0.4182(6) 0.6573(5)
H22 H 0.0399 0.3984 0.6746
H23 H 0.1265 0.4848 0.6431
C16 C 0.1751(15) 0.6788(9) 0.8042(9)
H24 H 0.0853 0.6513 0.7891
H25 H 0.1998 0.7315 0.7741
H26 H 0.1656 0.7013 0.8515
C17 C 0.2856(12) 0.6078(6) 0.8009(6)
H27 H 0.3706 0.6332 0.8242
H28 H 0.3106 0.5980 0.7521
C18 C 0.2514(10) 0.5104(6) 0.8330(5)
H29 H 0.1926 0.5221 0.8749
C19 C 0.3904(11) 0.4660(7) 0.8572(5)
H30 H 0.4369 0.5088 0.8903
H31 H 0.4542 0.4584 0.8173
C20 C 0.1719(10) 0.3585(6) 0.5947(5)
C21 C 0.2182(10) 0.2554(6) 0.6135(5)
H32 H 0.1727 0.2058 0.5846
C22 C 0.3832(10) 0.2608(6) 0.6058(5)
H33 H 0.4271 0.1983 0.5957
C23 C 0.4013(10) 0.3315(6) 0.5466(5)
H34 H 0.3800 0.2987 0.5023
C24 C 0.5450(12) 0.3785(7) 0.5403(5)
H35 H 0.5567 0.4254 0.5775
H36 H 0.6206 0.3308 0.5451
O5 O 0.4494(7) 0.9570(5) 0.4723(4)
H3 H 0.5402 0.9496 0.4581
H4 H 0.4452 1.0037 0.5041
O6 O 0.3072(6) 0.5909(4) 0.5137(3)
H5 H 0.3722 0.5591 0.4883
H6 H 0.3495 0.6403 0.5348
O7 O 0.6123(10) 0.8231(6) 0.3937(4)
H7 H 0.6388 0.8043 0.3510
H8 H 0.6902 0.8392 0.4183
Cl1 Cl 0.6451(3) 0.63511(19) 0.48902(14)
loop_
_geom_bond_atom_site_label_1
_geom_bond_atom_site_label_2
_geom_bond_site_symmetry_1
_geom_bond_site_symmetry_2
N1 C1 1_555 1_555
N2 C2 1_555 1_555
O1 C1 1_555 1_555
O2 C20 1_555 1_555
O3 H1 1_555 1_555
O4 H2 1_555 1_555
O5 H3 1_555 1_555
H4 O5 1_555 1_555
O6 H5 1_555 1_555
H6 O6 1_555 1_555
O7 H7 1_555 1_555
H8 O7 1_555 1_555
C1 C5 1_555 1_555
C2 H9 1_555 1_555
C3 N2 1_555 1_555
H10 C3 1_555 1_555
H11 C3 1_555 1_555
C4 C3 1_555 1_555
H12 C4 1_555 1_555
H13 C4 1_555 1_555
C5 C2 1_555 1_555
C6 C5 1_555 1_555
C7 C6 1_555 1_555
H14 C7 1_555 1_555
C8 C7 1_555 1_555
H15 C8 1_555 1_555
C9 C8 1_555 1_555
H16 C9 1_555 1_555
C10 C9 1_555 1_555
H17 C10 1_555 1_555
C11 N1 1_555 1_555
C12 C2 1_555 1_555
H18 C12 1_555 1_555
H19 C12 1_555 1_555
C13 C12 1_555 1_555
H20 C13 1_555 1_555
C14 C1 1_555 1_555
H21 C14 1_555 1_555
C15 C14 1_555 1_555
H22 C15 1_555 1_555
H23 C15 1_555 1_555
C16 H24 1_555 1_555
H25 C16 1_555 1_555
H26 C16 1_555 1_555
C17 C16 1_555 1_555
H27 C17 1_555 1_555
H28 C17 1_555 1_555
C18 C13 1_555 1_555
H29 C18 1_555 1_555
C19 N2 1_555 1_555
H30 C19 1_555 1_555
H31 C19 1_555 1_555
C20 O3 1_555 1_555
C21 N1 1_555 1_555
H32 C21 1_555 1_555
C22 O1 1_555 1_555
H33 C22 1_555 1_555
C23 O2 1_555 1_555
H34 C23 1_555 1_555
C24 O4 1_555 1_555
H35 C24 1_555 1_555
H36 C24 1_555 1_555
C4 C5 1_555 1_555
C6 C11 1_555 1_555
C10 C11 1_555 1_555
C13 C14 1_555 1_555
C15 C20 1_555 1_555
C17 C18 1_555 1_555
C18 C19 1_555 1_555
C20 C21 1_555 1_555
C21 C22 1_555 1_555
C22 C23 1_555 1_555
C23 C24 1_555 1_555

#END
