
#######################################################################
#
#                 Cambridge Crystallographic Data Centre
#                                CCDC 
#
#######################################################################
#
# If this CIF has been generated from an entry in the Cambridge 
# Structural Database, then it will include bibliographic, chemical, 
# crystal, experimental, refinement or atomic coordinate data resulting 
# from the CCDC's data processing and validation procedures.
#
#######################################################################

data_YULNOJ
_chemical_name_common            'swerilactone C'
_chemical_formula_moiety         'C20 H20 O8'
_chemical_name_systematic        
15-Hydroxy-8-methyl-1,13-dioxo-4,6,10,11,13b,15-hexahydro-1H,3H,6aH,8H-pyrano[3,4-c]pyrano[3',4':3,4]pyrano[2,3-h]chromene-9-carbaldehyde
_symmetry_cell_setting           monoclinic
_symmetry_space_group_name_H-M   'P 21'
_symmetry_Int_Tables_number      4
_space_group_name_Hall           'P 2yb'
loop_
_symmetry_equiv_pos_site_id
_symmetry_equiv_pos_as_xyz
1 x,y,z
2 -x,1/2+y,-z
_cell_length_a                   6.547(2)
_cell_length_b                   10.892(3)
_cell_length_c                   12.418(4)
_cell_angle_alpha                90
_cell_angle_beta                 103.542(4)
_cell_angle_gamma                90
_cell_volume                     860.908
_exptl_crystal_colour            colorless
_exptl_crystal_description       block
_cell_formula_units_Z            2
loop_
_atom_site_label
_atom_site_type_symbol
_atom_site_fract_x
_atom_site_fract_y
_atom_site_fract_z
O1 O 0.6680(8) 0.4034(5) 0.3503(4)
O2 O 0.5172(8) 0.2801(5) 0.4458(4)
O3 O -0.2884(8) 0.0870(5) 0.1257(4)
O4 O 0.1713(7) 0.3277(4) 0.0660(3)
O5 O 0.2001(7) 0.5163(4) 0.3649(3)
O6 O -0.1275(6) 0.6152(5) 0.3066(4)
H1 H -0.1331 0.5971 0.2419
O7 O -0.0211(9) 0.8806(5) 0.3781(5)
O8 O 0.2347(8) 0.9489(4) 0.3055(4)
C1 C 0.5119(11) 0.3475(6) 0.3556(6)
C2 C 0.3501(11) 0.2002(7) 0.4612(6)
H2 H 0.3487 0.1983 0.5391
H3 H 0.3771 0.1175 0.4391
C3 C 0.1394(11) 0.2412(7) 0.3954(5)
H4 H 0.1009 0.3177 0.4254
H5 H 0.0344 0.1801 0.4007
C4 C 0.1448(10) 0.2589(6) 0.2768(5)
C5 C 0.0207(9) 0.2024(5) 0.1888(5)
C6 C 0.0410(10) 0.2243(6) 0.0726(5)
H6 H -0.0998 0.2445 0.0286
C7 C 0.3635(9) 0.3265(6) 0.1486(5)
H7 H 0.4293 0.2455 0.1505
C8 C 0.5018(10) 0.4226(6) 0.1099(6)
H8 H 0.6481 0.4024 0.1407
H9 H 0.4774 0.4185 0.0299
C9 C 0.4627(10) 0.5506(6) 0.1423(5)
H10 H 0.5256 0.6140 0.1117
C10 C 0.3442(9) 0.5805(6) 0.2118(5)
C11 C 0.2169(10) 0.4853(6) 0.2553(5)
H11 H 0.0753 0.4839 0.2070
C12 C 0.3103(9) 0.3522(6) 0.2604(5)
C13 C 0.0861(10) 0.6264(6) 0.3649(6)
H12 H 0.0900 0.6486 0.4418
C14 C 0.1829(10) 0.7291(6) 0.3131(5)
C15 C 0.1243(12) 0.8557(7) 0.3364(6)
C16 C 0.4326(12) 0.9187(7) 0.2808(7)
H13 H 0.4834 0.9896 0.2476
H14 H 0.5339 0.9004 0.3494
C17 C 0.4192(11) 0.8118(6) 0.2042(6)
H15 H 0.5594 0.7868 0.2000
H16 H 0.3420 0.8350 0.1304
C18 C 0.3107(10) 0.7075(6) 0.2454(5)
C19 C -0.1504(11) 0.1215(6) 0.2014(6)
H17 H -0.1525 0.0951 0.2723
C20 C 0.1120(11) 0.1091(7) 0.0210(6)
H18 H 0.1056 0.1238 -0.0559
H19 H 0.0212 0.0419 0.0280
H20 H 0.2536 0.0894 0.0586
loop_
_geom_bond_atom_site_label_1
_geom_bond_atom_site_label_2
_geom_bond_site_symmetry_1
_geom_bond_site_symmetry_2
O1 C1 1_555 1_555
O2 C1 1_555 1_555
O3 C19 1_555 1_555
O4 C6 1_555 1_555
O5 C11 1_555 1_555
O6 H1 1_555 1_555
O7 C15 1_555 1_555
O8 C15 1_555 1_555
C1 C12 1_555 1_555
C2 O2 1_555 1_555
H2 C2 1_555 1_555
H3 C2 1_555 1_555
C3 C2 1_555 1_555
H4 C3 1_555 1_555
H5 C3 1_555 1_555
C4 C3 1_555 1_555
C5 C4 1_555 1_555
C6 C5 1_555 1_555
H6 C6 1_555 1_555
C7 O4 1_555 1_555
H7 C7 1_555 1_555
C8 C7 1_555 1_555
H8 C8 1_555 1_555
H9 C8 1_555 1_555
C9 C8 1_555 1_555
H10 C9 1_555 1_555
C10 C9 1_555 1_555
C11 C10 1_555 1_555
H11 C11 1_555 1_555
C12 C4 1_555 1_555
C13 O5 1_555 1_555
H12 C13 1_555 1_555
C14 C13 1_555 1_555
C15 C14 1_555 1_555
C16 O8 1_555 1_555
H13 C16 1_555 1_555
H14 C16 1_555 1_555
C17 C16 1_555 1_555
H15 C17 1_555 1_555
H16 C17 1_555 1_555
C18 C10 1_555 1_555
C19 C5 1_555 1_555
H17 C19 1_555 1_555
C20 C6 1_555 1_555
H18 C20 1_555 1_555
H19 C20 1_555 1_555
H20 C20 1_555 1_555
O6 C13 1_555 1_555
C7 C12 1_555 1_555
C11 C12 1_555 1_555
C14 C18 1_555 1_555
C17 C18 1_555 1_555

#END
