
#######################################################################
#
#                 Cambridge Crystallographic Data Centre
#                                CCDC 
#
#######################################################################
#
# If this CIF has been generated from an entry in the Cambridge 
# Structural Database, then it will include bibliographic, chemical, 
# crystal, experimental, refinement or atomic coordinate data resulting 
# from the CCDC's data processing and validation procedures.
#
#######################################################################

data_YULVOS
_chemical_formula_moiety         'C13 H14 I2 N8'
_chemical_name_systematic        
N,N-diethyl-4,6-bis(4-iodo-1H-pyrazol-1-yl)-1,3,5-triazin-2-amine
_symmetry_cell_setting           monoclinic
_symmetry_space_group_name_H-M   'P 21/n'
_symmetry_Int_Tables_number      14
_space_group_name_Hall           '-P 2yn'
loop_
_symmetry_equiv_pos_site_id
_symmetry_equiv_pos_as_xyz
1 x,y,z
2 1/2-x,1/2+y,1/2-z
3 -x,-y,-z
4 1/2+x,1/2-y,1/2+z
_cell_length_a                   8.644(2)
_cell_length_b                   16.631(4)
_cell_length_c                   12.285(3)
_cell_angle_alpha                90
_cell_angle_beta                 91.006(3)
_cell_angle_gamma                90
_cell_volume                     1765.8
_exptl_crystal_colour            white
_exptl_crystal_description       block
_cell_formula_units_Z            4
loop_
_atom_site_label
_atom_site_type_symbol
_atom_site_fract_x
_atom_site_fract_y
_atom_site_fract_z
C1 C 0.9142(6) 0.6357(3) 0.2711(4)
H1 H 0.9693 0.6455 0.3354
C2 C 0.9700(5) 0.5882(3) 0.1859(4)
C3 C 0.8566(5) 0.5885(3) 0.1099(4)
H2 H 0.8569 0.5618 0.0434
C4 C 0.4145(6) 0.5273(3) -0.2799(4)
H3 H 0.4439 0.4867 -0.3273
C5 C 0.2881(5) 0.5779(3) -0.2983(4)
C6 C 0.2833(5) 0.6277(3) -0.2123(4)
H4 H 0.2117 0.6685 -0.2007
C7 C 0.4414(5) 0.6405(3) -0.0429(3)
C8 C 0.5991(5) 0.6546(3) 0.0976(4)
C9 C 0.3745(5) 0.7200(3) 0.0943(4)
C10 C 0.3112(6) 0.8047(3) 0.2488(4)
H5 H 0.2455 0.8513 0.2591
H6 H 0.4175 0.8234 0.2473
C11 C 0.2933(8) 0.7487(4) 0.3446(5)
H7 H 0.1870 0.7324 0.3494
H8 H 0.3241 0.7759 0.4103
H9 H 0.3572 0.7021 0.3348
C12 C 0.1223(6) 0.7872(3) 0.0925(4)
H10 H 0.0467 0.7944 0.1491
H11 H 0.0883 0.7425 0.0472
C13 C 0.1280(7) 0.8621(4) 0.0240(5)
H12 H 0.1730 0.9051 0.0659
H13 H 0.0249 0.8767 0.0012
H14 H 0.1896 0.8523 -0.0389
N1 N 0.7402(4) 0.6358(2) 0.1489(3)
N2 N 0.7757(5) 0.6650(2) 0.2499(3)
N3 N 0.4037(4) 0.6069(2) -0.1458(3)
N4 N 0.4881(5) 0.5440(2) -0.1868(3)
N5 N 0.3375(4) 0.6900(2) -0.0055(3)
N6 N 0.5760(4) 0.6179(2) 0.0017(3)
N7 N 0.5089(4) 0.7041(2) 0.1487(3)
N8 N 0.2715(5) 0.7674(2) 0.1428(3)
I1 I 1.18259(4) 0.530408(18) 0.17777(3)
I2 I 0.14125(5) 0.57453(2) -0.43299(3)
loop_
_geom_bond_atom_site_label_1
_geom_bond_atom_site_label_2
_geom_bond_site_symmetry_1
_geom_bond_site_symmetry_2
C1 H1 1_555 1_555
C2 C1 1_555 1_555
C3 C2 1_555 1_555
H2 C3 1_555 1_555
C4 H3 1_555 1_555
C5 C4 1_555 1_555
C6 C5 1_555 1_555
H4 C6 1_555 1_555
C7 N3 1_555 1_555
C8 N1 1_555 1_555
C9 N5 1_555 1_555
C10 H5 1_555 1_555
H6 C10 1_555 1_555
C11 C10 1_555 1_555
H7 C11 1_555 1_555
H8 C11 1_555 1_555
H9 C11 1_555 1_555
C12 H10 1_555 1_555
H11 C12 1_555 1_555
C13 C12 1_555 1_555
H12 C13 1_555 1_555
H13 C13 1_555 1_555
H14 C13 1_555 1_555
N1 C3 1_555 1_555
N2 C1 1_555 1_555
N3 C6 1_555 1_555
N4 C4 1_555 1_555
N5 C7 1_555 1_555
N6 C7 1_555 1_555
N7 C8 1_555 1_555
N8 C9 1_555 1_555
I1 C2 1_555 1_555
I2 C5 1_555 1_555
C8 N6 1_555 1_555
C9 N7 1_555 1_555
C10 N8 1_555 1_555
C12 N8 1_555 1_555
N1 N2 1_555 1_555
N3 N4 1_555 1_555

#END
