
#######################################################################
#
#                 Cambridge Crystallographic Data Centre
#                                CCDC 
#
#######################################################################
#
# If this CIF has been generated from an entry in the Cambridge 
# Structural Database, then it will include bibliographic, chemical, 
# crystal, experimental, refinement or atomic coordinate data resulting 
# from the CCDC's data processing and validation procedures.
#
#######################################################################

data_YULVIM
_chemical_formula_moiety         'C20 H14 I4 N8'
_chemical_name_systematic        
1,1',1'',1'''-(1,4-phenylenedimethanetriyl)tetrakis(4-iodo-1H-pyrazole)
_symmetry_cell_setting           triclinic
_symmetry_space_group_name_H-M   'P -1'
_symmetry_Int_Tables_number      2
_space_group_name_Hall           '-P 1'
loop_
_symmetry_equiv_pos_site_id
_symmetry_equiv_pos_as_xyz
1 x,y,z
2 -x,-y,-z
_cell_length_a                   5.4245(8)
_cell_length_b                   11.6688(18)
_cell_length_c                   12.4309(19)
_cell_angle_alpha                99.592(2)
_cell_angle_beta                 91.753(2)
_cell_angle_gamma                98.072(2)
_cell_volume                     766.981
_cell_formula_units_Z            1
loop_
_atom_site_label
_atom_site_type_symbol
_atom_site_fract_x
_atom_site_fract_y
_atom_site_fract_z
I1 I 1.25600(14) 0.53308(6) 0.35806(7)
I2 I 0.68293(15) -0.18398(6) 0.49965(5)
C1 C 1.1252(14) 0.2749(7) 0.2356(7)
H1 H 1.2895 0.2652 0.2006
C2 C 1.0465(17) 0.3690(7) 0.3000(7)
C3 C 0.8001(17) 0.3343(8) 0.3199(7)
H2 H 0.7011 0.3818 0.3611
C4 C 0.7471(15) -0.0345(7) 0.3158(6)
H3 H 0.5975 -0.0054 0.3265
C5 C 0.8384(17) -0.1140(8) 0.3715(7)
C6 C 1.0623(19) -0.1305(10) 0.3274(10)
H4 H 1.1657 -0.1802 0.3490
C7 C 0.9145(13) 0.0687(7) 0.1647(6)
H5 H 1.0666 0.0656 0.1245
C8 C 0.6930(14) 0.0342(7) 0.0806(6)
C9 C 0.6098(16) 0.1157(7) 0.0256(6)
H6 H 0.6804 0.1943 0.0437
C10 C 0.5824(16) -0.0825(8) 0.0550(7)
H7 H 0.6361 -0.1374 0.0925
N1 N 0.9256(11) 0.1895(6) 0.2212(5)
N2 N 0.7248(12) 0.2243(6) 0.2730(6)
N3 N 0.9176(11) -0.0106(6) 0.2418(5)
N4 N 1.1143(14) -0.0661(7) 0.2473(7)
I1A I -0.25600(14) -0.53308(6) -0.35806(7)
I2A I 0.31707(15) 0.18398(6) -0.49965(5)
C1A C -0.1252(14) -0.2749(7) -0.2356(7)
H1A H -0.2895 -0.2652 -0.2006
C2A C -0.0465(17) -0.3690(7) -0.3000(7)
C3A C 0.1999(17) -0.3343(8) -0.3199(7)
H2A H 0.2989 -0.3818 -0.3611
C4A C 0.2529(15) 0.0345(7) -0.3158(6)
H3A H 0.4025 0.0054 -0.3265
C5A C 0.1616(17) 0.1140(8) -0.3715(7)
C6A C -0.0623(19) 0.1305(10) -0.3274(10)
H4A H -0.1657 0.1802 -0.3490
C7A C 0.0855(13) -0.0687(7) -0.1647(6)
H5A H -0.0666 -0.0656 -0.1245
C8A C 0.3070(14) -0.0342(7) -0.0806(6)
C9A C 0.3902(16) -0.1157(7) -0.0256(6)
H6A H 0.3196 -0.1943 -0.0437
C10A C 0.4176(16) 0.0825(8) -0.0550(7)
H7A H 0.3639 0.1374 -0.0925
N1A N 0.0744(11) -0.1895(6) -0.2212(5)
N2A N 0.2752(12) -0.2243(6) -0.2730(6)
N3A N 0.0824(11) 0.0106(6) -0.2418(5)
N4A N -0.1143(14) 0.0661(7) -0.2473(7)
loop_
_geom_bond_atom_site_label_1
_geom_bond_atom_site_label_2
_geom_bond_site_symmetry_1
_geom_bond_site_symmetry_2
I1 C2 1_555 1_555
I2 C5 1_555 1_555
C1 H1 1_555 1_555
C2 C1 1_555 1_555
C3 C2 1_555 1_555
H2 C3 1_555 1_555
C4 H3 1_555 1_555
C5 C4 1_555 1_555
C6 C5 1_555 1_555
H4 C6 1_555 1_555
C7 H5 1_555 1_555
C8 C7 1_555 1_555
C9 C8 1_555 1_555
H6 C9 1_555 1_555
C10 C8 1_555 1_555
H7 C10 1_555 1_555
N1 C1 1_555 1_555
N2 C3 1_555 1_555
N3 C4 1_555 1_555
N4 C6 1_555 1_555
I1A C2A 1_555 1_555
I2A C5A 1_555 1_555
C1A H1A 1_555 1_555
C2A C1A 1_555 1_555
C3A C2A 1_555 1_555
H2A C3A 1_555 1_555
C4A H3A 1_555 1_555
C5A C4A 1_555 1_555
C6A C5A 1_555 1_555
H4A C6A 1_555 1_555
C7A H5A 1_555 1_555
C8A C7A 1_555 1_555
C9A C10 1_555 1_555
H6A C9A 1_555 1_555
C10A C9 1_555 1_555
H7A C10A 1_555 1_555
N1A C1A 1_555 1_555
N2A C3A 1_555 1_555
N3A C4A 1_555 1_555
N4A C6A 1_555 1_555
C7 N1 1_555 1_555
C7 N3 1_555 1_555
N1 N2 1_555 1_555
N3 N4 1_555 1_555
C7A N1A 1_555 1_555
C7A N3A 1_555 1_555
C8A C9A 1_555 1_555
C8A C10A 1_555 1_555
N1A N2A 1_555 1_555
N3A N4A 1_555 1_555

#END
