
#######################################################################
#
#                 Cambridge Crystallographic Data Centre
#                                CCDC 
#
#######################################################################
#
# If this CIF has been generated from an entry in the Cambridge 
# Structural Database, then it will include bibliographic, chemical, 
# crystal, experimental, refinement or atomic coordinate data resulting 
# from the CCDC's data processing and validation procedures.
#
#######################################################################

data_YULXUA
_chemical_formula_moiety         'C30 H28 B2 1-,C16 H32 Li1 O4 1+,C4 H8 O1'
_chemical_name_systematic        
"tetrakis(tetrahydrofuran)-lithium (biphenyl-2,2'-diyl)(1-(5H-dibenzo[b,d]borol-5-yl)-3,3-dimethylbutyl)hydridoborate tetrahydrofuran solvate"
_symmetry_cell_setting           monoclinic
_symmetry_space_group_name_H-M   'P 21/n'
_symmetry_Int_Tables_number      14
_space_group_name_Hall           '-P 2yn'
loop_
_symmetry_equiv_pos_site_id
_symmetry_equiv_pos_as_xyz
1 x,y,z
2 1/2-x,1/2+y,1/2-z
3 -x,-y,-z
4 1/2+x,1/2-y,1/2+z
_cell_length_a                   10.8223(6)
_cell_length_b                   24.5017(11)
_cell_length_c                   17.7344(9)
_cell_angle_alpha                90
_cell_angle_beta                 104.485(4)
_cell_angle_gamma                90
_cell_volume                     4553.06
_exptl_crystal_colour            'green black'
_exptl_crystal_description       block
_cell_formula_units_Z            4
loop_
_atom_site_label
_atom_site_type_symbol
_atom_site_fract_x
_atom_site_fract_y
_atom_site_fract_z
B1 B 1.0994(3) 0.64563(11) 0.70312(16)
B2 B 0.9727(3) 0.58686(11) 0.73595(15)
C1 C 0.9611(2) 0.62449(10) 0.66266(13)
H1 H 0.8967 0.6539 0.6617
C2 C 0.9410(2) 0.59864(10) 0.58197(13)
H2 H 0.9976 0.5664 0.5868
H3 H 0.9693 0.6252 0.5476
C3 C 0.8045(2) 0.58046(10) 0.54127(14)
C4 C 0.7132(3) 0.62864(13) 0.52641(17)
H4 H 0.7437 0.6560 0.4950
H5 H 0.7089 0.6448 0.5762
H6 H 0.6280 0.6162 0.4984
C5 C 0.8095(3) 0.55517(15) 0.46342(18)
H7 H 0.8682 0.5240 0.4726
H8 H 0.8395 0.5825 0.4317
H9 H 0.7240 0.5427 0.4359
C6 C 0.7555(3) 0.53845(13) 0.59059(19)
H10 H 0.8135 0.5071 0.6006
H11 H 0.6701 0.5262 0.5626
H12 H 0.7515 0.5551 0.6402
C7 C 1.2325(2) 0.62853(10) 0.68821(14)
C8 C 1.3266(2) 0.66484(11) 0.73033(15)
C9 C 1.4538(3) 0.66137(12) 0.72816(18)
H13 H 1.5151 0.6860 0.7575
C10 C 1.4901(3) 0.62164(13) 0.68279(19)
H14 H 1.5770 0.6184 0.6815
C11 C 1.4000(3) 0.58674(12) 0.63939(19)
H15 H 1.4252 0.5602 0.6072
C12 C 1.2729(3) 0.58982(11) 0.64192(16)
H16 H 1.2126 0.5652 0.6117
C13 C 1.1362(2) 0.69606(10) 0.75902(14)
C14 C 1.2691(2) 0.70523(11) 0.77243(14)
C15 C 1.3287(3) 0.74882(12) 0.81678(17)
H17 H 1.4181 0.7541 0.8250
C16 C 1.2575(3) 0.78439(13) 0.84886(18)
H18 H 1.2979 0.8142 0.8797
C17 C 1.1271(3) 0.77681(12) 0.83626(17)
H19 H 1.0784 0.8016 0.8583
C18 C 1.0669(3) 0.73329(11) 0.79172(15)
H20 H 0.9773 0.7288 0.7834
C19 C 1.0296(2) 0.52776(10) 0.75513(13)
C20 C 1.0009(2) 0.50992(10) 0.82537(13)
C21 C 1.0313(2) 0.45816(11) 0.85469(15)
H21 H 1.0105 0.4472 0.9014
C22 C 1.0923(3) 0.42216(11) 0.81578(16)
H22 H 1.1133 0.3864 0.8356
C23 C 1.1225(2) 0.43854(11) 0.74764(16)
H23 H 1.1646 0.4139 0.7211
C24 C 1.0919(2) 0.49050(11) 0.71798(15)
H24 H 1.1138 0.5009 0.6714
C25 C 0.9104(2) 0.59870(10) 0.80566(13)
C26 C 0.9311(2) 0.55276(10) 0.85595(13)
C27 C 0.8836(2) 0.55104(11) 0.92166(14)
H25 H 0.9010 0.5205 0.9558
C28 C 0.8109(2) 0.59396(12) 0.93725(15)
H26 H 0.7795 0.5933 0.9827
C29 C 0.7834(2) 0.63798(12) 0.88684(16)
H27 H 0.7303 0.6665 0.8968
C30 C 0.8330(2) 0.64077(11) 0.82150(14)
H28 H 0.8143 0.6713 0.7876
Li1 Li 0.3815(4) 0.6329(2) 0.0758(3)
O1 O 0.2224(2) 0.66781(12) 0.06891(13)
C31 C 0.2123(7) 0.7124(4) 0.1278(4)
H29 H 0.2393 0.6987 0.1820
H30 H 0.2639 0.7448 0.1223
C32 C 0.0796(6) 0.7243(3) 0.1061(4)
H31 H 0.0624 0.7607 0.1252
H32 H 0.0307 0.6966 0.1273
C33 C 0.0463(4) 0.7228(2) 0.0215(3)
H33 H 0.0674 0.7579 0.0001
H34 H -0.0460 0.7156 0.0009
C34 C 0.1230(3) 0.67786(17) 0.0008(2)
H35 H 0.0700 0.6448 -0.0143
H36 H 0.1590 0.6887 -0.0431
O2 O 0.3709(2) 0.59369(10) -0.01779(13)
C35 C 0.2736(7) 0.5656(3) -0.0659(5)
H37 H 0.2258 0.5886 -0.1093
H38 H 0.2139 0.5503 -0.0372
C36 C 0.3556(4) 0.51702(19) -0.0968(2)
H39 H 0.4082 0.4945 -0.0543
H40 H 0.3029 0.4937 -0.1381
C37 C 0.4282(6) 0.55885(17) -0.1260(3)
H41 H 0.3764 0.5738 -0.1758
H42 H 0.5068 0.5427 -0.1355
C38 C 0.4626(6) 0.6041(2) -0.0655(3)
H43 H 0.5519 0.6008 -0.0343
H44 H 0.4496 0.6407 -0.0900
O3 O 0.41351(19) 0.58709(10) 0.16595(12)
C39 C 0.5109(4) 0.58487(18) 0.2342(2)
H45 H 0.5935 0.5793 0.2209
H46 H 0.5151 0.6201 0.2621
C40 C 0.4923(9) 0.5435(4) 0.2824(5)
H47 H 0.5034 0.5568 0.3364
H48 H 0.5528 0.5131 0.2825
C41 C 0.3511(5) 0.5246(2) 0.2467(3)
H49 H 0.3487 0.4872 0.2254
H50 H 0.3012 0.5255 0.2865
C42 C 0.3025(7) 0.5630(4) 0.1865(5)
H51 H 0.2524 0.5916 0.2050
H52 H 0.2467 0.5446 0.1408
O4 O 0.5090(2) 0.68697(8) 0.08665(14)
C43 C 0.6429(3) 0.68316(15) 0.1227(2)
H53 H 0.6730 0.6452 0.1207
H54 H 0.6612 0.6949 0.1778
C44 C 0.7064(4) 0.72005(19) 0.0773(3)
H55 H 0.7759 0.7409 0.1124
H56 H 0.7424 0.6989 0.0402
C45 C 0.6040(5) 0.75737(19) 0.0350(3)
H57 H 0.6258 0.7957 0.0504
H58 H 0.5929 0.7540 -0.0219
C46 C 0.4853(4) 0.74099(13) 0.0565(2)
H59 H 0.4673 0.7659 0.0963
H60 H 0.4117 0.7415 0.0102
O5 O 0.1691(5) 0.7024(3) 0.3415(3)
C47 C 0.1221(7) 0.6515(3) 0.3513(6)
H61 H 0.1124 0.6299 0.3031
H62 H 0.0370 0.6551 0.3622
C48 C 0.2105(9) 0.6233(2) 0.4169(5)
H63 H 0.1726 0.6194 0.4620
H64 H 0.2342 0.5868 0.4012
C49 C 0.3203(6) 0.6602(3) 0.4347(4)
H65 H 0.3308 0.6774 0.4864
H66 H 0.3999 0.6406 0.4334
C50 C 0.2879(5) 0.6998(2) 0.3736(4)
H67 H 0.3176 0.7361 0.3952
H68 H 0.3339 0.6909 0.3334
C51? C 0.1846(9) 0.6838(5) 0.1360(5)
H69? H 0.2564 0.7009 0.1746
H70? H 0.1531 0.6521 0.1605
H71? H 0.0041 0.7149 0.1256
H72? H 0.1084 0.7614 0.1246
C52? C 0.3122(6) 0.5362(3) -0.0307(4)
H73? H 0.3442 0.5127 0.0155
H74? H 0.2179 0.5377 -0.0427
H75? H 0.2810 0.5062 -0.1389
H76? H 0.4100 0.4844 -0.0813
H77? H 0.4045 0.5609 -0.1836
H78? H 0.5215 0.5535 -0.1069
C53? C 0.3818(13) 0.6076(5) -0.0892(7)
H79? H 0.4430 0.6382 -0.0853
H80? H 0.2980 0.6197 -0.1217
H81? H 0.5438 0.6219 0.2505
H82? H 0.5823 0.5619 0.2271
C54? C 0.4470(10) 0.5592(4) 0.2954(5)
H83? H 0.5088 0.5376 0.3348
H84? H 0.4079 0.5875 0.3220
H85? H 0.2705 0.5275 0.2632
H86? H 0.3797 0.4861 0.2527
C55? C 0.3290(7) 0.5409(3) 0.1652(4)
H87? H 0.3499 0.5107 0.1334
H88? H 0.2388 0.5516 0.1437
loop_
_geom_bond_atom_site_label_1
_geom_bond_atom_site_label_2
_geom_bond_site_symmetry_1
_geom_bond_site_symmetry_2
B1 C1 1_555 1_555
B2 C1 1_555 1_555
C1 H1 1_555 1_555
C2 C1 1_555 1_555
H2 C2 1_555 1_555
H3 C2 1_555 1_555
C3 C2 1_555 1_555
C4 C3 1_555 1_555
H4 C4 1_555 1_555
H5 C4 1_555 1_555
H6 C4 1_555 1_555
C5 C3 1_555 1_555
H7 C5 1_555 1_555
H8 C5 1_555 1_555
H9 C5 1_555 1_555
C6 C3 1_555 1_555
H10 C6 1_555 1_555
H11 C6 1_555 1_555
H12 C6 1_555 1_555
C7 B1 1_555 1_555
C8 C7 1_555 1_555
C9 C8 1_555 1_555
H13 C9 1_555 1_555
C10 C9 1_555 1_555
H14 C10 1_555 1_555
C11 C10 1_555 1_555
H15 C11 1_555 1_555
C12 C7 1_555 1_555
H16 C12 1_555 1_555
C13 B1 1_555 1_555
C14 C8 1_555 1_555
C15 C14 1_555 1_555
H17 C15 1_555 1_555
C16 C15 1_555 1_555
H18 C16 1_555 1_555
C17 C16 1_555 1_555
H19 C17 1_555 1_555
C18 C13 1_555 1_555
H20 C18 1_555 1_555
C19 B2 1_555 1_555
C20 C19 1_555 1_555
C21 C20 1_555 1_555
H21 C21 1_555 1_555
C22 C21 1_555 1_555
H22 C22 1_555 1_555
C23 C22 1_555 1_555
H23 C23 1_555 1_555
C24 C19 1_555 1_555
H24 C24 1_555 1_555
C25 B2 1_555 1_555
C26 C20 1_555 1_555
C27 C26 1_555 1_555
H25 C27 1_555 1_555
C28 C27 1_555 1_555
H26 C28 1_555 1_555
C29 C28 1_555 1_555
H27 C29 1_555 1_555
C30 C25 1_555 1_555
H28 C30 1_555 1_555
Li1 O1 1_555 1_555
O1 C31 1_555 1_555
C31 H29 1_555 1_555
H30 C31 1_555 1_555
C32 C31 1_555 1_555
H31 C32 1_555 1_555
H32 C32 1_555 1_555
C33 C32 1_555 1_555
H33 C33 1_555 1_555
H34 C33 1_555 1_555
C34 O1 1_555 1_555
H35 C34 1_555 1_555
H36 C34 1_555 1_555
O2 Li1 1_555 1_555
C35 O2 1_555 1_555
H37 C35 1_555 1_555
H38 C35 1_555 1_555
C36 C35 1_555 1_555
H39 C36 1_555 1_555
H40 C36 1_555 1_555
C37 C36 1_555 1_555
H41 C37 1_555 1_555
H42 C37 1_555 1_555
C38 O2 1_555 1_555
H43 C38 1_555 1_555
H44 C38 1_555 1_555
O3 Li1 1_555 1_555
C39 O3 1_555 1_555
H45 C39 1_555 1_555
H46 C39 1_555 1_555
C40 C39 1_555 1_555
H47 C40 1_555 1_555
H48 C40 1_555 1_555
C41 C40 1_555 1_555
H49 C41 1_555 1_555
H50 C41 1_555 1_555
C42 O3 1_555 1_555
H51 C42 1_555 1_555
H52 C42 1_555 1_555
O4 Li1 1_555 1_555
C43 O4 1_555 1_555
H53 C43 1_555 1_555
H54 C43 1_555 1_555
C44 C43 1_555 1_555
H55 C44 1_555 1_555
H56 C44 1_555 1_555
C45 C44 1_555 1_555
H57 C45 1_555 1_555
H58 C45 1_555 1_555
C46 O4 1_555 1_555
H59 C46 1_555 1_555
H60 C46 1_555 1_555
O5 C47 1_555 1_555
C47 H61 1_555 1_555
H62 C47 1_555 1_555
C48 C47 1_555 1_555
H63 C48 1_555 1_555
H64 C48 1_555 1_555
C49 C48 1_555 1_555
H65 C49 1_555 1_555
H66 C49 1_555 1_555
C50 O5 1_555 1_555
H67 C50 1_555 1_555
H68 C50 1_555 1_555
C11 C12 1_555 1_555
C13 C14 1_555 1_555
C17 C18 1_555 1_555
C23 C24 1_555 1_555
C25 C26 1_555 1_555
C29 C30 1_555 1_555
C33 C34 1_555 1_555
C37 C38 1_555 1_555
C41 C42 1_555 1_555
C45 C46 1_555 1_555
C49 C50 1_555 1_555

#END
