
#######################################################################
#
#                 Cambridge Crystallographic Data Centre
#                                CCDC 
#
#######################################################################
#
# If this CIF has been generated from an entry in the Cambridge 
# Structural Database, then it will include bibliographic, chemical, 
# crystal, experimental, refinement or atomic coordinate data resulting 
# from the CCDC's data processing and validation procedures.
#
#######################################################################

data_YULXOU
_chemical_formula_moiety         'C42 H58 B2 Li2 O3'
_chemical_name_systematic        
"(\m-5,5'-(3,3-dimethylbutane-1,1-diyl)bis(5H-dibenzo[b,d]borole))-tris(diethyl ether)-di-lithium"
_symmetry_cell_setting           triclinic
_symmetry_space_group_name_H-M   'P -1'
_symmetry_Int_Tables_number      2
_space_group_name_Hall           '-P 1'
loop_
_symmetry_equiv_pos_site_id
_symmetry_equiv_pos_as_xyz
1 x,y,z
2 -x,-y,-z
_cell_length_a                   10.6874(7)
_cell_length_b                   11.5577(8)
_cell_length_c                   17.3663(12)
_cell_angle_alpha                101.338(5)
_cell_angle_beta                 99.271(5)
_cell_angle_gamma                106.041(5)
_cell_volume                     1967.83
_exptl_crystal_colour            'dark red'
_exptl_crystal_description       plate
_cell_formula_units_Z            2
loop_
_atom_site_label
_atom_site_type_symbol
_atom_site_fract_x
_atom_site_fract_y
_atom_site_fract_z
Li1 Li 0.1755(6) 0.0617(5) 0.2978(3)
Li2 Li 0.4905(4) 0.3463(4) 0.2243(3)
B1 B 0.2986(2) 0.2051(2) 0.23902(14)
B2 B 0.1282(2) 0.2237(2) 0.24428(14)
C1 C 0.2344(2) 0.30172(18) 0.20503(13)
H1 H 0.276(2) 0.390(2) 0.2395(14)
C2 C 0.2024(2) 0.29728(19) 0.11567(13)
H2 H 0.1531 0.2099 0.0856
H3 H 0.2879 0.3214 0.0986
C3 C 0.1199(2) 0.3798(2) 0.08965(14)
C4 C 0.1994(3) 0.5162(2) 0.1251(2)
H4 H 0.2842 0.5346 0.1079
H5 H 0.2176 0.5348 0.1841
H6 H 0.1480 0.5675 0.1062
C5 C 0.0879(3) 0.3512(3) -0.00257(17)
H7 H 0.0359 0.2631 -0.0253
H8 H 0.1714 0.3694 -0.0211
H9 H 0.0359 0.4029 -0.0203
C6 C -0.0118(3) 0.3524(3) 0.11640(17)
H10 H -0.0640 0.2644 0.0934
H11 H -0.0624 0.4044 0.0976
H12 H 0.0064 0.3708 0.1754
C7 C 0.30672(19) 0.07613(18) 0.19370(13)
C8 C 0.3933(2) 0.0369(2) 0.24759(13)
C9 C 0.4190(2) -0.0752(2) 0.22447(16)
H13 H 0.4752 -0.1000 0.2616
C10 C 0.3623(2) -0.1499(2) 0.14752(17)
H14 H 0.3795 -0.2263 0.1313
C11 C 0.2799(2) -0.1132(2) 0.09350(16)
H15 H 0.2422 -0.1645 0.0402
C12 C 0.2517(2) -0.0034(2) 0.11592(13)
H16 H 0.1940 0.0187 0.0780
C13 C 0.4027(2) 0.2354(2) 0.32142(14)
C14 C 0.4502(2) 0.1315(2) 0.32381(14)
C15 C 0.5409(3) 0.1303(3) 0.39107(16)
H17 H 0.5688 0.0592 0.3918
C16 C 0.5896(3) 0.2325(4) 0.45603(19)
H18 H 0.6516 0.2324 0.5018
C17 C 0.5479(3) 0.3368(4) 0.4549(2)
H19 H 0.5828 0.4076 0.4997
C18 C 0.4560(3) 0.3377(3) 0.38910(17)
H20 H 0.4284 0.4092 0.3898
C19 C 0.00010(19) 0.10434(18) 0.20449(12)
C20 C -0.0770(2) 0.08491(19) 0.26355(13)
C21 C -0.1988(2) -0.0108(2) 0.24542(15)
H21 H -0.2470 -0.0233 0.2861
C22 C -0.2488(2) -0.0871(2) 0.16843(16)
H22 H -0.3323 -0.1513 0.1556
C23 C -0.1764(2) -0.0697(2) 0.10958(15)
H23 H -0.2111 -0.1224 0.0565
C24 C -0.0543(2) 0.02332(19) 0.12730(13)
H24 H -0.0062 0.0324 0.0862
C25 C 0.1008(2) 0.26964(19) 0.33007(12)
C26 C -0.0162(2) 0.1831(2) 0.33856(13)
C27 C -0.0658(3) 0.2018(3) 0.40783(15)
H25 H -0.1440 0.1424 0.4124
C28 C -0.0005(3) 0.3074(3) 0.46969(15)
H26 H -0.0325 0.3198 0.5176
C29 C 0.1118(3) 0.3956(3) 0.46206(15)
H27 H 0.1552 0.4690 0.5044
C30 C 0.1613(2) 0.3775(2) 0.39334(13)
H28 H 0.2376 0.4394 0.3889
O1 O 0.1354(2) -0.06838(17) 0.34950(11)
C31 C 0.1035(13) -0.2021(8) 0.3082(5)
H29 H 0.1862 -0.2256 0.3120
H30 H 0.0418 -0.2550 0.3336
C32 C 0.0420(4) -0.2184(4) 0.2256(2)
H31 H 0.1066 -0.1711 0.2000
H32 H -0.0355 -0.1885 0.2228
H33 H 0.0128 -0.3069 0.1974
C33 C 0.1274(10) -0.0483(6) 0.4311(4)
H34 H 0.1537 -0.1117 0.4547
H35 H 0.0345 -0.0548 0.4353
C34 C 0.2213(4) 0.0813(4) 0.4761(2)
H36 H 0.2720 0.1179 0.4397
H37 H 0.2834 0.0755 0.5222
H38 H 0.1691 0.1339 0.4953
O2 O 0.63037(16) 0.28115(16) 0.18839(11)
C35 C 0.7385(3) 0.2820(3) 0.25029(18)
H39 H 0.8091 0.2612 0.2253
H40 H 0.7050 0.2182 0.2792
C36 C 0.7946(4) 0.4047(4) 0.3075(2)
H41 H 0.8679 0.4041 0.3493
H42 H 0.7249 0.4247 0.3327
H43 H 0.8287 0.4676 0.2789
C37 C 0.5994(3) 0.1755(2) 0.12089(17)
H44 H 0.5529 0.0987 0.1352
H45 H 0.6829 0.1670 0.1065
C38 C 0.5123(3) 0.1929(3) 0.05120(17)
H46 H 0.4912 0.1211 0.0050
H47 H 0.5590 0.2687 0.0371
H48 H 0.4294 0.2002 0.0656
O3 O 0.5553(2) 0.52385(19) 0.23575(19)
C39 C 0.5254(6) 0.6157(6) 0.2689(4)
H49 H 0.4379 0.5878 0.2833
H50 H 0.5195 0.6703 0.2321
C40 C 0.6332(11) 0.6836(11) 0.3428(6)
H51 H 0.6131 0.7561 0.3710
H52 H 0.7188 0.7113 0.3275
H53 H 0.6385 0.6282 0.3783
C41 C 0.6501(8) 0.5617(7) 0.1679(5)
H54 H 0.7181 0.6447 0.1916
H55 H 0.6973 0.5001 0.1557
C42 C 0.5592(7) 0.5634(6) 0.0882(4)
H56 H 0.6145 0.5853 0.0501
H57 H 0.5134 0.6251 0.1003
H58 H 0.4928 0.4809 0.0643
C43? C 0.0448(11) -0.1927(7) 0.3078(5)
H59? H 0.0742 -0.2549 0.3312
H60? H -0.0464 -0.1991 0.3156
H61? H 0.1160 -0.1555 0.2155
H62? H -0.0431 -0.2169 0.1955
H63? H 0.0513 -0.3010 0.2079
C44? C 0.2017(14) -0.0439(8) 0.4358(5)
H64? H 0.1454 -0.1011 0.4615
H65? H 0.2890 -0.0591 0.4400
H66? H 0.2581 0.1365 0.4433
H67? H 0.2839 0.1034 0.5285
H68? H 0.1356 0.0905 0.4841
C45? C 0.5797(10) 0.6117(9) 0.3338(6)
H69? H 0.5770 0.5568 0.3711
H70? H 0.6691 0.6756 0.3496
C46? C 0.4787(8) 0.6718(8) 0.3408(5)
H71? H 0.4951 0.7203 0.3966
H72? H 0.3902 0.6086 0.3260
H73? H 0.4823 0.7274 0.3047
C47? C 0.6011(10) 0.6069(9) 0.2019(6)
H74? H 0.6897 0.6637 0.2338
H75? H 0.5396 0.6559 0.1937
C48? C 0.6103(10) 0.5431(8) 0.1327(6)
H76? H 0.6465 0.6006 0.1011
H77? H 0.5214 0.4872 0.1026
H78? H 0.6699 0.4940 0.1426
loop_
_geom_bond_atom_site_label_1
_geom_bond_atom_site_label_2
_geom_bond_site_symmetry_1
_geom_bond_site_symmetry_2
Li1 B1 1_555 1_555
Li2 B1 1_555 1_555
B1 C1 1_555 1_555
B2 Li1 1_555 1_555
C1 B2 1_555 1_555
H1 C1 1_555 1_555
C2 C1 1_555 1_555
H2 C2 1_555 1_555
H3 C2 1_555 1_555
C3 C2 1_555 1_555
C4 C3 1_555 1_555
H4 C4 1_555 1_555
H5 C4 1_555 1_555
H6 C4 1_555 1_555
C5 C3 1_555 1_555
H7 C5 1_555 1_555
H8 C5 1_555 1_555
H9 C5 1_555 1_555
C6 C3 1_555 1_555
H10 C6 1_555 1_555
H11 C6 1_555 1_555
H12 C6 1_555 1_555
C7 B1 1_555 1_555
C8 C7 1_555 1_555
C9 C8 1_555 1_555
H13 C9 1_555 1_555
C10 C9 1_555 1_555
H14 C10 1_555 1_555
C11 C10 1_555 1_555
H15 C11 1_555 1_555
C12 C7 1_555 1_555
H16 C12 1_555 1_555
C13 B1 1_555 1_555
C14 C8 1_555 1_555
C15 C14 1_555 1_555
H17 C15 1_555 1_555
C16 C15 1_555 1_555
H18 C16 1_555 1_555
C17 C16 1_555 1_555
H19 C17 1_555 1_555
C18 C13 1_555 1_555
H20 C18 1_555 1_555
C19 B2 1_555 1_555
C20 C19 1_555 1_555
C21 C20 1_555 1_555
H21 C21 1_555 1_555
C22 C21 1_555 1_555
H22 C22 1_555 1_555
C23 C22 1_555 1_555
H23 C23 1_555 1_555
C24 C19 1_555 1_555
H24 C24 1_555 1_555
C25 B2 1_555 1_555
C26 C20 1_555 1_555
C27 C26 1_555 1_555
H25 C27 1_555 1_555
C28 C27 1_555 1_555
H26 C28 1_555 1_555
C29 C28 1_555 1_555
H27 C29 1_555 1_555
C30 C25 1_555 1_555
H28 C30 1_555 1_555
O1 Li1 1_555 1_555
C31 O1 1_555 1_555
H29 C31 1_555 1_555
H30 C31 1_555 1_555
C32 C31 1_555 1_555
H31 C32 1_555 1_555
H32 C32 1_555 1_555
H33 C32 1_555 1_555
C33 O1 1_555 1_555
H34 C33 1_555 1_555
H35 C33 1_555 1_555
C34 C33 1_555 1_555
H36 C34 1_555 1_555
H37 C34 1_555 1_555
H38 C34 1_555 1_555
O2 Li2 1_555 1_555
C35 O2 1_555 1_555
H39 C35 1_555 1_555
H40 C35 1_555 1_555
C36 C35 1_555 1_555
H41 C36 1_555 1_555
H42 C36 1_555 1_555
H43 C36 1_555 1_555
C37 O2 1_555 1_555
H44 C37 1_555 1_555
H45 C37 1_555 1_555
C38 C37 1_555 1_555
H46 C38 1_555 1_555
H47 C38 1_555 1_555
H48 C38 1_555 1_555
O3 Li2 1_555 1_555
C39 O3 1_555 1_555
H49 C39 1_555 1_555
H50 C39 1_555 1_555
C40 C39 1_555 1_555
H51 C40 1_555 1_555
H52 C40 1_555 1_555
H53 C40 1_555 1_555
C41 O3 1_555 1_555
H54 C41 1_555 1_555
H55 C41 1_555 1_555
C42 C41 1_555 1_555
H56 C42 1_555 1_555
H57 C42 1_555 1_555
H58 C42 1_555 1_555
C11 C12 1_555 1_555
C13 C14 1_555 1_555
C17 C18 1_555 1_555
C23 C24 1_555 1_555
C25 C26 1_555 1_555
C29 C30 1_555 1_555

#END
