
#######################################################################
#
#                 Cambridge Crystallographic Data Centre
#                                CCDC 
#
#######################################################################
#
# If this CIF has been generated from an entry in the Cambridge 
# Structural Database, then it will include bibliographic, chemical, 
# crystal, experimental, refinement or atomic coordinate data resulting 
# from the CCDC's data processing and validation procedures.
#
#######################################################################

data_YULZAH
_chemical_name_common            
"2,5,8,11-tetrakis(4-Bromophenyl)-N,N'-bis(pentan-3-yl)perylenediimide chloroform solvate"
_chemical_formula_moiety         'C58 H42 Br4 N2 O4,2(C1 H1 Cl3)'
_chemical_name_systematic        
"4,7,11,14-tetrakis(4-bromophenyl)-2,9-bis(pentan-3-yl)isoquino[4',5',6':6,5,10]anthra[2,1,9-def]isoquinoline-1,3,8,10(2H,9H)-tetrone chloroform solvate"
_symmetry_cell_setting           monoclinic
_symmetry_space_group_name_H-M   'P 21/a'
_symmetry_Int_Tables_number      14
_space_group_name_Hall           '-P 2yab'
loop_
_symmetry_equiv_pos_site_id
_symmetry_equiv_pos_as_xyz
1 x,y,z
2 1/2-x,1/2+y,-z
3 -x,-y,-z
4 1/2+x,1/2-y,z
_cell_length_a                   18.099(4)
_cell_length_b                   8.285(3)
_cell_length_c                   19.042(5)
_cell_angle_alpha                90
_cell_angle_beta                 105.218(9)
_cell_angle_gamma                90
_cell_volume                     2755.23
_exptl_crystal_colour            orange
_exptl_crystal_description       prism
_cell_formula_units_Z            2
loop_
_atom_site_label
_atom_site_type_symbol
_atom_site_fract_x
_atom_site_fract_y
_atom_site_fract_z
Br1 Br 0.24534(5) -0.08846(13) 1.01002(4)
Br2 Br -0.54694(3) -0.04309(10) 0.34954(4)
O1 O -0.0678(2) -0.0461(6) 0.7945(2)
O2 O -0.2683(2) -0.2230(5) 0.6137(2)
N1 N -0.1685(3) -0.1383(6) 0.7060(2)
C1 C -0.0466(3) -0.0796(6) 0.6777(3)
C2 C 0.0326(3) -0.0663(7) 0.7010(3)
C3 C 0.0735(3) -0.0387(7) 0.6490(3)
H1 H 0.1266 -0.0333 0.6645
C4 C 0.0384(3) -0.0192(7) 0.5758(3)
C5 C -0.0428(3) -0.0375(6) 0.5513(3)
C6 C -0.0818(3) -0.0192(6) 0.4773(3)
C7 C -0.1603(3) -0.0378(7) 0.4571(3)
H2 H -0.1860 -0.0241 0.4083
C8 C -0.2035(3) -0.0764(7) 0.5065(3)
C9 C -0.1656(3) -0.0982(7) 0.5794(3)
C10 C -0.2055(3) -0.1596(7) 0.6327(3)
C11 C -0.0845(3) -0.0731(6) 0.6030(3)
C12 C -0.0937(3) -0.0858(7) 0.7313(3)
C13 C 0.0787(3) -0.0749(8) 0.7776(3)
C14 C 0.1268(4) 0.0535(9) 0.8057(3)
H3 H 0.1268 0.1443 0.7769
C15 C 0.1746(4) 0.0491(10) 0.8752(4)
H4 H 0.2056 0.1372 0.8934
C16 C 0.1762(4) -0.0842(10) 0.9167(3)
C17 C 0.1293(4) -0.2152(9) 0.8909(3)
H5 H 0.1304 -0.3059 0.9199
C18 C 0.0806(4) -0.2090(8) 0.8212(3)
H6 H 0.0488 -0.2963 0.8036
C19 C -0.2878(3) -0.0822(7) 0.4746(3)
C20 C -0.3179(3) -0.1707(7) 0.4110(3)
H7 H -0.2856 -0.2357 0.3925
C21 C -0.3953(3) -0.1633(8) 0.3751(3)
H8 H -0.4151 -0.2253 0.3338
C22 C -0.4422(3) -0.0628(7) 0.4017(3)
C23 C -0.4152(3) 0.0236(8) 0.4651(3)
H9 H -0.4480 0.0878 0.4834
C24 C -0.3381(3) 0.0127(7) 0.5011(3)
H10 H -0.3195 0.0702 0.5440
C25 C -0.2118(4) -0.1799(9) 0.7608(3)
H11 H -0.2624 -0.2148 0.7319
C26 C -0.2271(5) -0.0310(12) 0.8026(5)
H12 H -0.2680 -0.0563 0.8250
H13 H -0.1815 -0.0087 0.8414
C27 C -0.2483(5) 0.1183(12) 0.7582(5)
H14 H -0.2028 0.1773 0.7578
H15 H -0.2808 0.1842 0.7790
H16 H -0.2750 0.0895 0.7093
C28 C -0.1793(5) -0.3220(12) 0.8052(4)
H17 H -0.1294 -0.2931 0.8362
H18 H -0.2120 -0.3490 0.8365
C29 C -0.1708(8) -0.4635(12) 0.7637(6)
H19 H -0.2164 -0.5278 0.7551
H20 H -0.1278 -0.5256 0.7905
H21 H -0.1625 -0.4311 0.7180
Br1B Br -0.24534(5) 0.08846(13) -0.01002(4)
Br2B Br 0.54694(3) 0.04309(10) 0.65046(4)
O1B O 0.0678(2) 0.0461(6) 0.2055(2)
O2B O 0.2683(2) 0.2230(5) 0.3863(2)
N1B N 0.1685(3) 0.1383(6) 0.2940(2)
C1B C 0.0466(3) 0.0796(6) 0.3223(3)
C2B C -0.0326(3) 0.0663(7) 0.2990(3)
C3B C -0.0735(3) 0.0387(7) 0.3510(3)
H1B H -0.1266 0.0333 0.3355
C4B C -0.0384(3) 0.0192(7) 0.4242(3)
C5B C 0.0428(3) 0.0375(6) 0.4487(3)
C6B C 0.0818(3) 0.0192(6) 0.5227(3)
C7B C 0.1603(3) 0.0378(7) 0.5429(3)
H2B H 0.1860 0.0241 0.5917
C8B C 0.2035(3) 0.0764(7) 0.4935(3)
C9B C 0.1656(3) 0.0982(7) 0.4206(3)
C10B C 0.2055(3) 0.1596(7) 0.3673(3)
C11B C 0.0845(3) 0.0731(6) 0.3970(3)
C12B C 0.0937(3) 0.0858(7) 0.2687(3)
C13B C -0.0787(3) 0.0749(8) 0.2224(3)
C14B C -0.1268(4) -0.0535(9) 0.1943(3)
H3B H -0.1268 -0.1443 0.2231
C15B C -0.1746(4) -0.0491(10) 0.1248(4)
H4B H -0.2056 -0.1372 0.1066
C16B C -0.1762(4) 0.0842(10) 0.0833(3)
C17B C -0.1293(4) 0.2152(9) 0.1091(3)
H5B H -0.1304 0.3059 0.0801
C18B C -0.0806(4) 0.2090(8) 0.1788(3)
H6B H -0.0488 0.2963 0.1964
C19B C 0.2878(3) 0.0822(7) 0.5254(3)
C20B C 0.3179(3) 0.1707(7) 0.5890(3)
H7B H 0.2856 0.2357 0.6075
C21B C 0.3953(3) 0.1633(8) 0.6249(3)
H8B H 0.4151 0.2253 0.6662
C22B C 0.4422(3) 0.0628(7) 0.5983(3)
C23B C 0.4152(3) -0.0236(8) 0.5349(3)
H9B H 0.4480 -0.0878 0.5166
C24B C 0.3381(3) -0.0127(7) 0.4989(3)
H10B H 0.3195 -0.0702 0.4560
C25B C 0.2118(4) 0.1799(9) 0.2392(3)
H11B H 0.2624 0.2148 0.2681
C26B C 0.2271(5) 0.0310(12) 0.1974(5)
H12B H 0.2680 0.0563 0.1750
H13B H 0.1815 0.0087 0.1586
C27B C 0.2483(5) -0.1183(12) 0.2418(5)
H14B H 0.2028 -0.1773 0.2422
H15B H 0.2808 -0.1842 0.2210
H16B H 0.2750 -0.0895 0.2907
C28B C 0.1793(5) 0.3220(12) 0.1948(4)
H17B H 0.1294 0.2931 0.1638
H18B H 0.2120 0.3490 0.1635
C29B C 0.1708(8) 0.4635(12) 0.2363(6)
H19B H 0.2164 0.5278 0.2449
H20B H 0.1278 0.5256 0.2095
H21B H 0.1625 0.4311 0.2820
Cl1 Cl 0.06676(16) 0.1945(4) 1.00471(15)
Cl2 Cl 0.03203(19) 0.3733(4) 0.8705(2)
Cl3 Cl -0.08904(14) 0.2621(4) 0.93112(13)
C30 C 0.0030(5) 0.2215(11) 0.9215(4)
H22 H 0.0004 0.1202 0.8944
loop_
_geom_bond_atom_site_label_1
_geom_bond_atom_site_label_2
_geom_bond_site_symmetry_1
_geom_bond_site_symmetry_2
Br1 C16 1_555 1_555
Br2 C22 1_555 1_555
Cl1 C30 1_555 1_555
Cl2 C30 1_555 1_555
Cl3 C30 1_555 1_555
O1 C12 1_555 1_555
O2 C10 1_555 1_555
N1 C10 1_555 1_555
C1 C2 1_555 1_555
C2 C3 1_555 1_555
C3 H1 1_555 1_555
C4 C3 1_555 1_555
C5 C4 1_555 1_555
C6 C5 1_555 1_555
C7 C6 1_555 1_555
H2 C7 1_555 1_555
C8 C7 1_555 1_555
C9 C8 1_555 1_555
C10 C9 1_555 1_555
C11 C1 1_555 1_555
C12 N1 1_555 1_555
C13 C2 1_555 1_555
C14 C13 1_555 1_555
H3 C14 1_555 1_555
C15 C14 1_555 1_555
H4 C15 1_555 1_555
C16 C15 1_555 1_555
C17 C16 1_555 1_555
H5 C17 1_555 1_555
C18 C13 1_555 1_555
H6 C18 1_555 1_555
C19 C8 1_555 1_555
C20 C19 1_555 1_555
H7 C20 1_555 1_555
C21 C20 1_555 1_555
H8 C21 1_555 1_555
C22 C21 1_555 1_555
C23 C22 1_555 1_555
H9 C23 1_555 1_555
C24 C19 1_555 1_555
H10 C24 1_555 1_555
C25 N1 1_555 1_555
H11 C25 1_555 1_555
C26 C25 1_555 1_555
H12 C26 1_555 1_555
H13 C26 1_555 1_555
C27 C26 1_555 1_555
H14 C27 1_555 1_555
H15 C27 1_555 1_555
H16 C27 1_555 1_555
C28 C25 1_555 1_555
H17 C28 1_555 1_555
H18 C28 1_555 1_555
C29 C28 1_555 1_555
H19 C29 1_555 1_555
H20 C29 1_555 1_555
H21 C29 1_555 1_555
C30 H22 1_555 1_555
Br1B C16B 1_555 1_555
Br2B C22B 1_555 1_555
O1B C12B 1_555 1_555
O2B C10B 1_555 1_555
N1B C10B 1_555 1_555
C1B C2B 1_555 1_555
C2B C3B 1_555 1_555
C3B H1B 1_555 1_555
C4B C6 1_555 1_555
C5B C4B 1_555 1_555
C6B C4 1_555 1_555
C7B C6B 1_555 1_555
H2B C7B 1_555 1_555
C8B C7B 1_555 1_555
C9B C8B 1_555 1_555
C10B C9B 1_555 1_555
C11B C1B 1_555 1_555
C12B N1B 1_555 1_555
C13B C2B 1_555 1_555
C14B C13B 1_555 1_555
H3B C14B 1_555 1_555
C15B C14B 1_555 1_555
H4B C15B 1_555 1_555
C16B C15B 1_555 1_555
C17B C16B 1_555 1_555
H5B C17B 1_555 1_555
C18B C13B 1_555 1_555
H6B C18B 1_555 1_555
C19B C8B 1_555 1_555
C20B C19B 1_555 1_555
H7B C20B 1_555 1_555
C21B C20B 1_555 1_555
H8B C21B 1_555 1_555
C22B C21B 1_555 1_555
C23B C22B 1_555 1_555
H9B C23B 1_555 1_555
C24B C19B 1_555 1_555
H10B C24B 1_555 1_555
C25B N1B 1_555 1_555
H11B C25B 1_555 1_555
C26B C25B 1_555 1_555
H12B C26B 1_555 1_555
H13B C26B 1_555 1_555
C27B C26B 1_555 1_555
H14B C27B 1_555 1_555
H15B C27B 1_555 1_555
H16B C27B 1_555 1_555
C28B C25B 1_555 1_555
H17B C28B 1_555 1_555
H18B C28B 1_555 1_555
C29B C28B 1_555 1_555
H19B C29B 1_555 1_555
H20B C29B 1_555 1_555
H21B C29B 1_555 1_555
C1 C12 1_555 1_555
C5 C11 1_555 1_555
C9 C11 1_555 1_555
C17 C18 1_555 1_555
C23 C24 1_555 1_555
C1B C12B 1_555 1_555
C3B C4B 1_555 1_555
C5B C6B 1_555 1_555
C5B C11B 1_555 1_555
C9B C11B 1_555 1_555
C17B C18B 1_555 1_555
C23B C24B 1_555 1_555

#END
