
#######################################################################
#
#                 Cambridge Crystallographic Data Centre
#                                CCDC 
#
#######################################################################
#
# If this CIF has been generated from an entry in the Cambridge 
# Structural Database, then it will include bibliographic, chemical, 
# crystal, experimental, refinement or atomic coordinate data resulting 
# from the CCDC's data processing and validation procedures.
#
#######################################################################

data_YUMKAS
_chemical_compound_source        'The lichen Relicina connivens'
_chemical_name_common            'butlerin B'
_chemical_formula_moiety         'C24 H24 O6,C24 H24 O6'
_chemical_name_systematic        
3',4,4'',5'-tetramethoxy-(1,1':4',1''-terphenyl)-2'-yl-acetate
_symmetry_cell_setting           orthorhombic
_symmetry_space_group_name_H-M   'P b c n'
_symmetry_Int_Tables_number      60
_space_group_name_Hall           '-P 2n 2ab'
loop_
_symmetry_equiv_pos_site_id
_symmetry_equiv_pos_as_xyz
1 x,y,z
2 1/2-x,1/2-y,1/2+z
3 1/2+x,1/2-y,-z
4 -x,y,1/2-z
5 -x,-y,-z
6 1/2+x,1/2+y,1/2-z
7 1/2-x,1/2+y,z
8 x,-y,1/2+z
_cell_length_a                   22.388(3)
_cell_length_b                   13.525(2)
_cell_length_c                   7.082(3)
_cell_angle_alpha                90
_cell_angle_beta                 90
_cell_angle_gamma                90
_cell_volume                     2144.41
_exptl_crystal_colour            colorless
_chemical_melting_point          148-149deg.C
_cell_formula_units_Z            2
loop_
_atom_site_label
_atom_site_type_symbol
_atom_site_fract_x
_atom_site_fract_y
_atom_site_fract_z
O1 O 0.06118(9) 0.3136(1) 0.2574(3)
O2 O 0.0291(2) 0.3391(3) 0.5621(7)
O3 O 0.0567(2) -0.0397(2) 0.2633(6)
O4 O 0.3156(1) 0.1207(2) 0.2681(4)
C1 C 0.0304(1) 0.2234(2) 0.2578(5)
C2 C 0.1297(1) 0.1342(2) 0.2670(5)
C3 C 0.0638(1) 0.1358(2) 0.2600(4)
C4 C 0.1622(2) 0.0778(2) 0.1384(5)
C5 C 0.0307(1) 0.0481(2) 0.2538(5)
C6 C 0.2234(2) 0.0753(2) 0.1420(5)
C7 C 0.2549(2) 0.1277(2) 0.2768(5)
C8 C 0.2234(2) 0.1825(3) 0.4071(5)
C9 C 0.1618(2) 0.1852(2) 0.4011(5)
C10 C 0.0563(2) 0.3708(2) 0.4229(6)
C11 C 0.0861(3) 0.4636(5) 0.399(1)
C12 C 0.0239(2) -0.1313(3) 0.264(1)
C13 C 0.3493(2) 0.1741(3) 0.4048(6)
H1 H 0.1415 0.0403 0.0459
H2 H 0.2444 0.0372 0.0510
H3 H 0.2442 0.2186 0.5016
H4 H 0.1410 0.2233 0.4924
H5 H 0.1270 0.4523 0.3693
H6 H 0.0834 0.5009 0.5120
H7 H 0.0679 0.4993 0.2985
H8 H 0.0512 -0.1851 0.2681
H9 H 0.3907 0.1637 0.3833
H10 H 0.3405 0.2426 0.3945
H11 H 0.3391 0.1515 0.5277
C1C C -0.0304(1) 0.2234(2) 0.2422(5)
O1C O -0.06118(9) 0.3136(1) 0.2426(3)
C10C C -0.0563(2) 0.3708(2) 0.0771(6)
O2C O -0.0291(2) 0.3391(3) -0.0621(7)
C11C C -0.0861(3) 0.4636(5) 0.101(1)
H5C H -0.1270 0.4523 0.1307
H6C H -0.0834 0.5009 -0.0120
H7C H -0.0679 0.4993 0.2015
C3C C -0.0638(1) 0.1358(2) 0.2400(4)
C2C C -0.1297(1) 0.1342(2) 0.2330(5)
C4C C -0.1622(2) 0.0778(2) 0.3616(5)
C6C C -0.2234(2) 0.0753(2) 0.3580(5)
C7C C -0.2549(2) 0.1277(2) 0.2232(5)
O4C O -0.3156(1) 0.1207(2) 0.2319(4)
C13C C -0.3493(2) 0.1741(3) 0.0952(6)
H9C H -0.3907 0.1637 0.1167
H10C H -0.3405 0.2426 0.1055
H11C H -0.3391 0.1515 -0.0277
C8C C -0.2234(2) 0.1825(3) 0.0929(5)
C9C C -0.1618(2) 0.1852(2) 0.0989(5)
H4C H -0.1410 0.2233 0.0076
H3C H -0.2442 0.2186 -0.0016
H2C H -0.2444 0.0372 0.4490
H1C H -0.1415 0.0403 0.4541
C5C C -0.0307(1) 0.0481(2) 0.2462(5)
O3C O -0.0567(2) -0.0397(2) 0.2367(6)
C12C C -0.0239(2) -0.1313(3) 0.236(1)
H8C H -0.0512 -0.1851 0.2319
H12? H 0.0513 -0.0133 0.2550
H13? H 0.0713 0.3342 0.5272
H14? H 0.0789 0.4299 0.4089
H15? H 0.0156 0.3870 0.4444
H16? H 0.0005 -0.1357 0.1520
H17? H -0.0015 -0.1335 0.3709
loop_
_geom_bond_atom_site_label_1
_geom_bond_atom_site_label_2
_geom_bond_site_symmetry_1
_geom_bond_site_symmetry_2
O1 C1 1_555 1_555
O2 C10 1_555 1_555
O3 C5 1_555 1_555
O4 C7 1_555 1_555
C1 C3 1_555 1_555
C2 C3 1_555 1_555
C3 C5 1_555 1_555
C4 C2 1_555 1_555
C5 C5C 1_555 1_555
C6 C4 1_555 1_555
C7 C6 1_555 1_555
C8 C7 1_555 1_555
C9 C2 1_555 1_555
C10 O1 1_555 1_555
C11 C10 1_555 1_555
C12 O3 1_555 1_555
C13 O4 1_555 1_555
H1 C4 1_555 1_555
H2 C6 1_555 1_555
H3 C8 1_555 1_555
H4 C9 1_555 1_555
H5 C11 1_555 1_555
H6 C11 1_555 1_555
H7 C11 1_555 1_555
H8 C12 1_555 1_555
H9 C13 1_555 1_555
H10 C13 1_555 1_555
H11 C13 1_555 1_555
C1C C1 1_555 1_555
O1C C1C 1_555 1_555
C10C O1C 1_555 1_555
O2C C10C 1_555 1_555
C11C C10C 1_555 1_555
H5C C11C 1_555 1_555
H6C C11C 1_555 1_555
H7C C11C 1_555 1_555
C3C C1C 1_555 1_555
C2C C3C 1_555 1_555
C4C C2C 1_555 1_555
C6C C4C 1_555 1_555
C7C C6C 1_555 1_555
O4C C7C 1_555 1_555
C13C O4C 1_555 1_555
H9C C13C 1_555 1_555
H10C C13C 1_555 1_555
H11C C13C 1_555 1_555
C8C C7C 1_555 1_555
C9C C2C 1_555 1_555
H4C C9C 1_555 1_555
H3C C8C 1_555 1_555
H2C C6C 1_555 1_555
H1C C4C 1_555 1_555
C5C C3C 1_555 1_555
O3C C5C 1_555 1_555
C12C C12 1_555 1_555
H8C C12C 1_555 1_555
C8 C9 1_555 1_555
C8C C9C 1_555 1_555
O3C C12C 1_555 1_555

#END
