
#######################################################################
#
#                 Cambridge Crystallographic Data Centre
#                                CCDC 
#
#######################################################################
#
# If this CIF has been generated from an entry in the Cambridge 
# Structural Database, then it will include bibliographic, chemical, 
# crystal, experimental, refinement or atomic coordinate data resulting 
# from the CCDC's data processing and validation procedures.
#
#######################################################################

data_YUMKEX
_chemical_formula_moiety         'C22 H21 Br1 F1 N1 O5'
_chemical_name_systematic        
"(2R,3R)-Methyl 3-(4'-bromobiphenyl-4-yl)-2-((3S)-1-ethyl-2,5-dioxo-3-pyrrolidinyl)-2-fluoro-3-hydroxypropanoate"
_symmetry_cell_setting           monoclinic
_symmetry_space_group_name_H-M   'P 21'
_symmetry_Int_Tables_number      4
_space_group_name_Hall           'P 2yb'
loop_
_symmetry_equiv_pos_site_id
_symmetry_equiv_pos_as_xyz
1 x,y,z
2 -x,1/2+y,-z
_cell_length_a                   7.7943(10)
_cell_length_b                   6.0862(8)
_cell_length_c                   22.388(3)
_cell_angle_alpha                90
_cell_angle_beta                 96.222(3)
_cell_angle_gamma                90
_cell_volume                     1055.78
_exptl_crystal_colour            colorless
_exptl_crystal_description       rod
_cell_formula_units_Z            2
loop_
_atom_site_label
_atom_site_type_symbol
_atom_site_fract_x
_atom_site_fract_y
_atom_site_fract_z
Br1 Br 0.88460(5) 0.55639(10) 1.126274(15)
F1 F 0.18040(19) 0.0098(3) 0.71704(7)
N1 N -0.1228(3) -0.1195(4) 0.58233(12)
O1 O 0.4603(2) 0.1157(4) 0.65050(11)
H1 H 0.5636 0.1451 0.6545
O2 O 0.0251(3) 0.3463(4) 0.75473(10)
O3 O 0.0591(3) 0.5495(4) 0.67407(9)
O4 O -0.1917(2) 0.1634(5) 0.64249(12)
O5 O 0.0227(3) -0.3668(4) 0.52939(10)
C1 C 0.0240(4) -0.2089(5) 0.56147(12)
C2 C 0.1762(3) -0.0779(5) 0.58795(12)
H2 H 0.2467 -0.0333 0.5569
H3 H 0.2467 -0.1636 0.6178
C3 C 0.1017(3) 0.1221(4) 0.61676(11)
H4 H 0.1097 0.2472 0.5897
C4 C -0.0880(3) 0.0638(6) 0.61653(11)
C5 C -0.3007(6) -0.1778(11) 0.5589(3)
H5 H -0.3042 -0.2308 0.5180
H6 H -0.3751 -0.0502 0.5592
C6 C -0.3605(9) -0.3554(12) 0.5991(4)
H7 H -0.2880 -0.4823 0.5975
H8 H -0.4777 -0.3944 0.5855
H9 H -0.3539 -0.3023 0.6396
C7 C 0.1823(3) 0.1909(5) 0.67938(12)
C8 C 0.0773(3) 0.3827(5) 0.70245(13)
C9 C -0.0629(5) 0.5338(8) 0.77789(19)
H10 H 0.0093 0.6615 0.7776
H11 H -0.0868 0.5038 0.8183
H12 H -0.1692 0.5598 0.7530
C10 C 0.3701(3) 0.2748(5) 0.68027(13)
H13 H 0.3693 0.4131 0.6578
C11 C 0.4489(3) 0.3159(5) 0.74441(13)
C12 C 0.4346(3) 0.5224(5) 0.77095(13)
H14 H 0.3793 0.6364 0.7489
C13 C 0.5027(3) 0.5582(6) 0.83014(12)
H15 H 0.4898 0.6953 0.8475
C14 C 0.5894(3) 0.3933(5) 0.86384(14)
C15 C 0.6048(4) 0.1894(6) 0.83648(15)
H16 H 0.6619 0.0759 0.8582
C16 C 0.5366(4) 0.1527(5) 0.77749(15)
H17 H 0.5503 0.0159 0.7601
C17 C 0.6652(4) 0.4293(5) 0.92691(14)
C18 C 0.7538(4) 0.6207(5) 0.94323(15)
H18 H 0.7688 0.7262 0.9142
C19 C 0.8207(4) 0.6572(6) 1.00248(16)
H19 H 0.8791 0.7871 1.0130
C20 C 0.8006(4) 0.5017(6) 1.04534(13)
C21 C 0.7155(4) 0.3074(7) 1.03031(16)
H20 H 0.7034 0.2005 1.0593
C22 C 0.6482(4) 0.2751(6) 0.97089(15)
H21 H 0.5898 0.1450 0.9605
C23? C -0.2824(9) -0.2482(16) 0.5781(5)
C24? C -0.3932(10) -0.1582(19) 0.5237(4)
H22? H -0.3400 -0.2306 0.6141
H23? H -0.2584 -0.4029 0.5728
H24? H -0.4266 -0.0101 0.5316
H25? H -0.4944 -0.2476 0.5155
H26? H -0.3285 -0.1599 0.4895
loop_
_geom_bond_atom_site_label_1
_geom_bond_atom_site_label_2
_geom_bond_site_symmetry_1
_geom_bond_site_symmetry_2
Br1 C20 1_555 1_555
F1 C7 1_555 1_555
N1 C1 1_555 1_555
O1 H1 1_555 1_555
O2 C8 1_555 1_555
O3 C8 1_555 1_555
O4 C4 1_555 1_555
O5 C1 1_555 1_555
C1 C2 1_555 1_555
C2 H2 1_555 1_555
H3 C2 1_555 1_555
C3 C2 1_555 1_555
H4 C3 1_555 1_555
C4 N1 1_555 1_555
C5 N1 1_555 1_555
H5 C5 1_555 1_555
H6 C5 1_555 1_555
C6 C5 1_555 1_555
H7 C6 1_555 1_555
H8 C6 1_555 1_555
H9 C6 1_555 1_555
C7 C3 1_555 1_555
C8 C7 1_555 1_555
C9 O2 1_555 1_555
H10 C9 1_555 1_555
H11 C9 1_555 1_555
H12 C9 1_555 1_555
C10 O1 1_555 1_555
H13 C10 1_555 1_555
C11 C10 1_555 1_555
C12 C11 1_555 1_555
H14 C12 1_555 1_555
C13 C12 1_555 1_555
H15 C13 1_555 1_555
C14 C13 1_555 1_555
C15 C14 1_555 1_555
H16 C15 1_555 1_555
C16 C11 1_555 1_555
H17 C16 1_555 1_555
C17 C14 1_555 1_555
C18 C17 1_555 1_555
H18 C18 1_555 1_555
C19 C18 1_555 1_555
H19 C19 1_555 1_555
C20 C19 1_555 1_555
C21 C20 1_555 1_555
H20 C21 1_555 1_555
C22 C17 1_555 1_555
H21 C22 1_555 1_555
C3 C4 1_555 1_555
C7 C10 1_555 1_555
C15 C16 1_555 1_555
C21 C22 1_555 1_555

#END
