
#######################################################################
#
#                 Cambridge Crystallographic Data Centre
#                                CCDC 
#
#######################################################################
#
# If this CIF has been generated from an entry in the Cambridge 
# Structural Database, then it will include bibliographic, chemical, 
# crystal, experimental, refinement or atomic coordinate data resulting 
# from the CCDC's data processing and validation procedures.
#
#######################################################################

data_YUMQOO
_chemical_formula_moiety         'C10 H14 N4,C8 H6 O4'
_chemical_name_systematic        
"isophthalic acid 1,1'-butane-1,4-diylbis-1H-imidazole"
_symmetry_cell_setting           triclinic
_symmetry_space_group_name_H-M   'P -1'
_symmetry_Int_Tables_number      2
_space_group_name_Hall           '-P 1'
loop_
_symmetry_equiv_pos_site_id
_symmetry_equiv_pos_as_xyz
1 x,y,z
2 -x,-y,-z
_cell_length_a                   7.8277(8)
_cell_length_b                   9.4180(10)
_cell_length_c                   12.4982(11)
_cell_angle_alpha                98.9610(10)
_cell_angle_beta                 91.1160(10)
_cell_angle_gamma                105.461(2)
_cell_volume                     875.399
_exptl_crystal_colour            colorless
_exptl_crystal_description       block
_cell_formula_units_Z            2
loop_
_atom_site_label
_atom_site_type_symbol
_atom_site_fract_x
_atom_site_fract_y
_atom_site_fract_z
N1 N 0.5731(3) 0.7272(3) 0.21662(19)
N2 N 0.4786(3) 0.7923(3) 0.37700(19)
C1 C 0.6255(4) 0.6346(4) 0.1253(2)
H1 H 0.6801 0.5651 0.1527
H2 H 0.7136 0.6979 0.0871
C2 C 0.4719(4) 0.5484(3) 0.0470(2)
H3 H 0.4179 0.6177 0.0190
H4 H 0.3833 0.4854 0.0851
C3 C 0.5294(4) 0.6886(3) 0.3132(2)
H5 H 0.5343 0.5985 0.3328
C4 C 0.4899(4) 0.9027(3) 0.3167(3)
H6 H 0.4626 0.9921 0.3406
C5 C 0.5456(4) 0.8651(3) 0.2183(3)
H7 H 0.5622 0.9213 0.1626
N1A N 0.4269(3) 0.2728(3) -0.21662(19)
N2A N 0.5214(3) 0.2077(3) -0.37700(19)
C1A C 0.3745(4) 0.3654(4) -0.1253(2)
H1A H 0.3199 0.4349 -0.1527
H2A H 0.2864 0.3021 -0.0871
C2A C 0.5281(4) 0.4516(3) -0.0470(2)
H3A H 0.5821 0.3823 -0.0190
H4A H 0.6167 0.5146 -0.0851
C3A C 0.4706(4) 0.3114(3) -0.3132(2)
H5A H 0.4657 0.4015 -0.3328
C4A C 0.5101(4) 0.0973(3) -0.3167(3)
H6A H 0.5374 0.0079 -0.3406
C5A C 0.4544(4) 0.1349(3) -0.2183(3)
H7A H 0.4378 0.0787 -0.1626
N3 N 0.1268(3) 0.1137(3) 0.28508(19)
N4 N 0.2329(3) 0.0586(3) 0.12674(19)
C6 C 0.0123(5) 0.0976(4) 0.3756(2)
H8 H -0.1086 0.0479 0.3470
H9 H 0.0142 0.1963 0.4131
C7 C 0.0635(4) 0.0121(3) 0.4550(2)
H10 H 0.1815 0.0651 0.4873
H11 H 0.0689 -0.0844 0.4169
C8 C 0.1065(4) 0.0159(3) 0.1918(2)
H12 H 0.0141 -0.0713 0.1755
C9 C 0.3396(5) 0.1897(4) 0.1815(3)
H13 H 0.4413 0.2467 0.1555
C10 C 0.2772(5) 0.2248(4) 0.2783(3)
H14 H 0.3266 0.3084 0.3306
N3A N -0.1268(3) -0.1137(3) 0.71492(19)
N4A N -0.2329(3) -0.0586(3) 0.87326(19)
C6A C -0.0123(5) -0.0976(4) 0.6244(2)
H8A H 0.1086 -0.0479 0.6530
H9A H -0.0142 -0.1963 0.5869
C7A C -0.0635(4) -0.0121(3) 0.5450(2)
H10A H -0.1815 -0.0651 0.5127
H11A H -0.0689 0.0844 0.5831
C8A C -0.1065(4) -0.0159(3) 0.8082(2)
H12A H -0.0141 0.0713 0.8245
C9A C -0.3396(5) -0.1897(4) 0.8185(3)
H13A H -0.4413 -0.2467 0.8445
C10A C -0.2772(5) -0.2248(4) 0.7217(3)
H14A H -0.3266 -0.3084 0.6694
O1 O 0.2796(3) 0.5001(2) 0.48999(17)
O2 O 0.3306(3) 0.7423(2) 0.55487(16)
H15 H 0.3823 0.7518 0.4989
O3 O 0.2382(3) 0.8875(2) 0.94315(16)
H16 H 0.2383 0.9443 1.0000
O4 O 0.0107(3) 0.7426(2) 1.01288(18)
C11 C 0.2655(4) 0.5997(3) 0.5589(2)
C12 C 0.1105(4) 0.7655(4) 0.9401(2)
C13 C 0.1685(4) 0.5723(3) 0.6586(2)
C14 C 0.1874(4) 0.6818(3) 0.7495(2)
H17 H 0.2630 0.7765 0.7494
C15 C 0.0945(4) 0.6517(3) 0.8407(2)
C16 C -0.0191(4) 0.5108(3) 0.8386(3)
H18 H -0.0825 0.4898 0.8990
C17 C -0.0404(4) 0.4011(3) 0.7491(3)
H19 H -0.1172 0.3068 0.7488
C18 C 0.0537(4) 0.4328(3) 0.6597(3)
H20 H 0.0396 0.3589 0.5989
loop_
_geom_bond_atom_site_label_1
_geom_bond_atom_site_label_2
_geom_bond_site_symmetry_1
_geom_bond_site_symmetry_2
N1 C1 1_555 1_555
N2 C3 1_555 1_555
C1 H1 1_555 1_555
H2 C1 1_555 1_555
C2 C1 1_555 1_555
H3 C2 1_555 1_555
H4 C2 1_555 1_555
C3 N1 1_555 1_555
H5 C3 1_555 1_555
C4 N2 1_555 1_555
H6 C4 1_555 1_555
C5 N1 1_555 1_555
H7 C5 1_555 1_555
N3 C6 1_555 1_555
N4 C8 1_555 1_555
C6 H8 1_555 1_555
H9 C6 1_555 1_555
C7 C6 1_555 1_555
H10 C7 1_555 1_555
H11 C7 1_555 1_555
C8 N3 1_555 1_555
H12 C8 1_555 1_555
C9 N4 1_555 1_555
H13 C9 1_555 1_555
C10 N3 1_555 1_555
H14 C10 1_555 1_555
O1 C11 1_555 1_555
O2 H15 1_555 1_555
O3 H16 1_555 1_555
O4 C12 1_555 1_555
C11 O2 1_555 1_555
C12 O3 1_555 1_555
C13 C11 1_555 1_555
C14 C13 1_555 1_555
H17 C14 1_555 1_555
C15 C12 1_555 1_555
C16 C15 1_555 1_555
H18 C16 1_555 1_555
C17 C16 1_555 1_555
H19 C17 1_555 1_555
C18 C13 1_555 1_555
H20 C18 1_555 1_555
N1A C1A 1_555 1_555
N2A C3A 1_555 1_555
C1A H1A 1_555 1_555
H2A C1A 1_555 1_555
C2A C2 1_555 1_555
H3A C2A 1_555 1_555
H4A C2A 1_555 1_555
C3A N1A 1_555 1_555
H5A C3A 1_555 1_555
C4A N2A 1_555 1_555
H6A C4A 1_555 1_555
C5A N1A 1_555 1_555
H7A C5A 1_555 1_555
N3A C6A 1_555 1_555
N4A C8A 1_555 1_555
C6A H8A 1_555 1_555
H9A C6A 1_555 1_555
C7A C7 1_555 1_555
H10A C7A 1_555 1_555
H11A C7A 1_555 1_555
C8A N3A 1_555 1_555
H12A C8A 1_555 1_555
C9A N4A 1_555 1_555
H13A C9A 1_555 1_555
C10A N3A 1_555 1_555
H14A C10A 1_555 1_555
C4 C5 1_555 1_555
C9 C10 1_555 1_555
C14 C15 1_555 1_555
C17 C18 1_555 1_555
C1A C2A 1_555 1_555
C4A C5A 1_555 1_555
C6A C7A 1_555 1_555
C9A C10A 1_555 1_555

#END
