
#######################################################################
#
#                 Cambridge Crystallographic Data Centre
#                                CCDC 
#
#######################################################################
#
# If this CIF has been generated from an entry in the Cambridge 
# Structural Database, then it will include bibliographic, chemical, 
# crystal, experimental, refinement or atomic coordinate data resulting 
# from the CCDC's data processing and validation procedures.
#
#######################################################################

data_YUMRAB
_chemical_formula_moiety         'C10 H16 N4 2+,C10 H6 O6 S2 2-,2(H2 O1)'
_chemical_name_systematic        
"1,1'-butane-1,4-diylbis-1H-imidazol-3-ium naphthalene-1,5-disulfonate dihydrate"
_symmetry_cell_setting           triclinic
_symmetry_space_group_name_H-M   'P -1'
_symmetry_Int_Tables_number      2
_space_group_name_Hall           '-P 1'
loop_
_symmetry_equiv_pos_site_id
_symmetry_equiv_pos_as_xyz
1 x,y,z
2 -x,-y,-z
_cell_length_a                   8.1334(8)
_cell_length_b                   8.5178(9)
_cell_length_c                   9.2746(11)
_cell_angle_alpha                71.6070(10)
_cell_angle_beta                 76.0450(10)
_cell_angle_gamma                86.344(2)
_cell_volume                     591.66
_exptl_crystal_colour            colorless
_exptl_crystal_description       block
_cell_formula_units_Z            1
loop_
_atom_site_label
_atom_site_type_symbol
_atom_site_fract_x
_atom_site_fract_y
_atom_site_fract_z
N1 N 0.2680(2) 0.2043(2) 0.5335(2)
N2 N 0.2047(3) -0.0533(2) 0.5946(3)
H1 H 0.1767 -0.1540 0.6493
C1 C 0.2989(3) 0.3680(3) 0.5452(3)
H2 H 0.2527 0.3685 0.6517
H3 H 0.2402 0.4512 0.4779
C2 C 0.4854(3) 0.4128(3) 0.4991(3)
H4 H 0.5336 0.4052 0.3952
H5 H 0.5431 0.3342 0.5709
C3 C 0.2220(3) 0.0670(3) 0.6512(3)
H6 H 0.2048 0.0570 0.7565
C4 C 0.2382(4) 0.0073(3) 0.4359(3)
H7 H 0.2343 -0.0512 0.3674
C5 C 0.2779(4) 0.1681(3) 0.3976(3)
H8 H 0.3069 0.2419 0.2969
N1A N 0.7320(2) 0.7957(2) 0.4665(2)
N2A N 0.7953(3) 1.0533(2) 0.4054(3)
H1A H 0.8233 1.1540 0.3507
C1A C 0.7011(3) 0.6320(3) 0.4548(3)
H2A H 0.7473 0.6315 0.3483
H3A H 0.7598 0.5488 0.5221
C2A C 0.5146(3) 0.5872(3) 0.5009(3)
H4A H 0.4664 0.5948 0.6048
H5A H 0.4569 0.6658 0.4291
C3A C 0.7780(3) 0.9330(3) 0.3488(3)
H6A H 0.7952 0.9430 0.2435
C4A C 0.7618(4) 0.9927(3) 0.5641(3)
H7A H 0.7657 1.0512 0.6326
C5A C 0.7221(4) 0.8319(3) 0.6024(3)
H8A H 0.6931 0.7581 0.7031
O1 O 0.1990(2) 0.52869(19) 0.1754(2)
O2 O 0.0936(2) 0.7787(2) 0.0181(2)
O3 O 0.1072(2) 0.7525(2) 0.2832(2)
S1 S 0.17950(7) 0.70670(7) 0.14419(8)
C6 C 0.2788(3) 1.0834(3) 0.0257(3)
H9 H 0.1675 1.0443 0.0587
C7 C 0.4147(2) 0.9689(2) 0.0254(2)
C8 C 0.3883(3) 0.7930(2) 0.0745(2)
C9 C 0.5231(3) 0.6881(3) 0.0715(3)
H10 H 0.5040 0.5745 0.1026
C10 C 0.6896(3) 0.7508(3) 0.0219(3)
H11 H 0.7798 0.6779 0.0216
O1A O 0.8010(2) 1.47131(19) -0.1754(2)
O2A O 0.9064(2) 1.2213(2) -0.0181(2)
O3A O 0.8928(2) 1.2475(2) -0.2832(2)
S1A S 0.82050(7) 1.29330(7) -0.14419(8)
C6A C 0.7212(3) 0.9166(3) -0.0257(3)
H9A H 0.8325 0.9557 -0.0587
C7A C 0.5853(2) 1.0311(2) -0.0254(2)
C8A C 0.6117(3) 1.2070(2) -0.0745(2)
C9A C 0.4769(3) 1.3119(3) -0.0715(3)
H10A H 0.4960 1.4255 -0.1026
C10A C 0.3104(3) 1.2492(3) -0.0219(3)
H11A H 0.2202 1.3221 -0.0216
O4 O 0.1134(2) 0.6333(2) 0.7845(2)
H12 H 0.1052 0.6770 0.8565
H13 H 0.0197 0.5858 0.7979
loop_
_geom_bond_atom_site_label_1
_geom_bond_atom_site_label_2
_geom_bond_site_symmetry_1
_geom_bond_site_symmetry_2
N1 C1 1_555 1_555
N2 H1 1_555 1_555
C1 H2 1_555 1_555
H3 C1 1_555 1_555
C2 C1 1_555 1_555
H4 C2 1_555 1_555
H5 C2 1_555 1_555
C3 N1 1_555 1_555
H6 C3 1_555 1_555
C4 N2 1_555 1_555
H7 C4 1_555 1_555
C5 N1 1_555 1_555
H8 C5 1_555 1_555
O1 S1 1_555 1_555
O2 S1 1_555 1_555
O3 S1 1_555 1_555
S1 C8 1_555 1_555
C6 H9 1_555 1_555
C7 C6 1_555 1_555
C8 C7 1_555 1_555
C9 C8 1_555 1_555
H10 C9 1_555 1_555
C10 C9 1_555 1_555
H11 C10 1_555 1_555
O4 H12 1_555 1_555
H13 O4 1_555 1_555
N1A C1A 1_555 1_555
N2A H1A 1_555 1_555
C1A H2A 1_555 1_555
H3A C1A 1_555 1_555
C2A C2 1_555 1_555
H4A C2A 1_555 1_555
H5A C2A 1_555 1_555
C3A N1A 1_555 1_555
H6A C3A 1_555 1_555
C4A N2A 1_555 1_555
H7A C4A 1_555 1_555
C5A N1A 1_555 1_555
H8A C5A 1_555 1_555
O1A S1A 1_555 1_555
O2A S1A 1_555 1_555
O3A S1A 1_555 1_555
S1A C8A 1_555 1_555
C6A C10 1_555 1_555
H9A C6A 1_555 1_555
C7A C7 1_555 1_555
C8A C7A 1_555 1_555
C9A C8A 1_555 1_555
H10A C9A 1_555 1_555
C10A C6 1_555 1_555
H11A C10A 1_555 1_555
N2 C3 1_555 1_555
C4 C5 1_555 1_555
N2A C3A 1_555 1_555
C1A C2A 1_555 1_555
C4A C5A 1_555 1_555
C6A C7A 1_555 1_555
C9A C10A 1_555 1_555

#END
