
#######################################################################
#
#                 Cambridge Crystallographic Data Centre
#                                CCDC 
#
#######################################################################
#
# If this CIF has been generated from an entry in the Cambridge 
# Structural Database, then it will include bibliographic, chemical, 
# crystal, experimental, refinement or atomic coordinate data resulting 
# from the CCDC's data processing and validation procedures.
#
#######################################################################

data_YUMSIK
_chemical_name_common            
'ammonium 2,6-diaminopyridin-1-ium 5-sulfosalicylate dihydrate'
_chemical_formula_moiety         'C7 H4 O6 S1 2-,C5 H8 N3 1+,H4 N1 1+,2(H2 O1)'
_chemical_name_systematic        
'ammonium 2,6-diaminopyridin-1-ium 2-hydroxy-5-sulfonatobenzoate dihydrate'
_symmetry_cell_setting           monoclinic
_symmetry_space_group_name_H-M   'P 21/c'
_symmetry_Int_Tables_number      14
_space_group_name_Hall           '-P 2ybc'
loop_
_symmetry_equiv_pos_site_id
_symmetry_equiv_pos_as_xyz
1 x,y,z
2 -x,1/2+y,1/2-z
3 -x,-y,-z
4 x,1/2-y,1/2+z
_cell_length_a                   9.1523(8)
_cell_length_b                   10.3952(9)
_cell_length_c                   17.5750(15)
_cell_angle_alpha                90
_cell_angle_beta                 94.9420(10)
_cell_angle_gamma                90
_cell_volume                     1665.87
_exptl_crystal_colour            colorless
_exptl_crystal_description       block
_cell_formula_units_Z            4
loop_
_atom_site_label
_atom_site_type_symbol
_atom_site_fract_x
_atom_site_fract_y
_atom_site_fract_z
N1 N 0.1904(2) 0.47820(19) 0.96471(11)
H1 H 0.2521 0.5402 0.9724
N2 N 0.2520(2) 0.4187(2) 1.08908(12)
H2 H 0.3114 0.4829 1.0930
H3 H 0.2440 0.3690 1.1276
N3 N 0.1442(2) 0.5586(2) 0.84293(12)
H4 H 0.2064 0.6187 0.8553
H5 H 0.1001 0.5564 0.7977
C1 C 0.1723(3) 0.3960(2) 1.02313(14)
C2 C 0.0746(3) 0.2943(3) 1.01014(14)
H6 H 0.0582 0.2369 1.0491
C3 C 0.0029(3) 0.2804(3) 0.93874(15)
H7 H -0.0604 0.2111 0.9295
C4 C 0.0215(3) 0.3658(3) 0.88036(15)
H8 H -0.0285 0.3548 0.8325
C5 C 0.1158(3) 0.4676(2) 0.89458(13)
N4 N 0.5833(2) 0.5578(2) 0.24051(12)
H9 H 0.6596 0.6093 0.2554
H10 H 0.6075 0.4765 0.2539
H11 H 0.5629 0.5631 0.1896
H12 H 0.5034 0.5824 0.2633
O1 O 0.8767(18) 0.3501(10) 0.6669(7)
O2 O 0.9421(11) 0.5659(10) 0.7042(4)
O3 O 0.7129(8) 0.4779(17) 0.7362(5)
O4 O 0.4405(2) 0.84429(18) 0.59567(10)
O5 O 0.3939(2) 0.83000(19) 0.46978(10)
O6 O 0.53210(19) 0.67143(17) 0.39184(9)
H13 H 0.4726 0.7279 0.3996
S1 S 0.82406(7) 0.47720(6) 0.68074(4)
C6 C 0.4617(3) 0.7952(2) 0.53246(14)
C7 C 0.7391(2) 0.5382(2) 0.59417(13)
C8 C 0.6419(2) 0.6391(2) 0.59574(13)
H14 H 0.6236 0.6752 0.6424
C9 C 0.5706(2) 0.6881(2) 0.52909(13)
C10 C 0.5996(2) 0.6317(2) 0.45922(13)
C11 C 0.6997(3) 0.5313(2) 0.45775(14)
H15 H 0.7205 0.4957 0.4113
C12 C 0.7682(3) 0.4846(2) 0.52494(14)
H16 H 0.8343 0.4168 0.5238
O10 O 0.8273(2) 0.7180(2) 0.28899(10)
H17 H 0.9090 0.6865 0.3066
H18 H 0.8447 0.7835 0.2623
O11 O 0.3351(3) 0.6974(2) 0.71574(13)
H19 H 0.3640 0.7456 0.6810
H20 H 0.2916 0.7436 0.7467
O7? O 0.748(3) 0.528(2) 0.7392(7)
O8? O 0.807(3) 0.3381(15) 0.6744(9)
O9? O 0.9775(18) 0.509(4) 0.6851(15)
loop_
_geom_bond_atom_site_label_1
_geom_bond_atom_site_label_2
_geom_bond_site_symmetry_1
_geom_bond_site_symmetry_2
N1 H1 1_555 1_555
N2 H2 1_555 1_555
H3 N2 1_555 1_555
N3 H4 1_555 1_555
H5 N3 1_555 1_555
C1 N1 1_555 1_555
C2 C1 1_555 1_555
H6 C2 1_555 1_555
C3 C2 1_555 1_555
H7 C3 1_555 1_555
C4 C3 1_555 1_555
H8 C4 1_555 1_555
C5 N1 1_555 1_555
N4 H9 1_555 1_555
H10 N4 1_555 1_555
H11 N4 1_555 1_555
H12 N4 1_555 1_555
O1 S1 1_555 1_555
O2 S1 1_555 1_555
O3 S1 1_555 1_555
O4 C6 1_555 1_555
O5 C6 1_555 1_555
O6 H13 1_555 1_555
S1 C7 1_555 1_555
C6 C9 1_555 1_555
C7 C8 1_555 1_555
C8 H14 1_555 1_555
C9 C8 1_555 1_555
C10 O6 1_555 1_555
C11 C10 1_555 1_555
H15 C11 1_555 1_555
C12 C7 1_555 1_555
H16 C12 1_555 1_555
O10 H17 1_555 1_555
H18 O10 1_555 1_555
O11 H19 1_555 1_555
H20 O11 1_555 1_555
N2 C1 1_555 1_555
N3 C5 1_555 1_555
C4 C5 1_555 1_555
C9 C10 1_555 1_555
C11 C12 1_555 1_555

#END
