
#######################################################################
#
#                 Cambridge Crystallographic Data Centre
#                                CCDC 
#
#######################################################################
#
# If this CIF has been generated from an entry in the Cambridge 
# Structural Database, then it will include bibliographic, chemical, 
# crystal, experimental, refinement or atomic coordinate data resulting 
# from the CCDC's data processing and validation procedures.
#
#######################################################################

data_YUMTIL
_chemical_formula_moiety         'C34 H24 N2 Se1'
_chemical_name_systematic        
(selanyldi-2,1-phenylene)bis(N-(1-naphthyl)methanimine)
_symmetry_cell_setting           triclinic
_symmetry_space_group_name_H-M   'P -1'
_symmetry_Int_Tables_number      2
_space_group_name_Hall           '-P 1'
loop_
_symmetry_equiv_pos_site_id
_symmetry_equiv_pos_as_xyz
1 x,y,z
2 -x,-y,-z
_cell_length_a                   10.7238(9)
_cell_length_b                   11.3524(13)
_cell_length_c                   11.9255(14)
_cell_angle_alpha                104.740(10)
_cell_angle_beta                 99.286(8)
_cell_angle_gamma                110.739(9)
_cell_volume                     1261.29
_exptl_crystal_colour            yellow
_exptl_crystal_description       block
_cell_formula_units_Z            2
loop_
_atom_site_label
_atom_site_type_symbol
_atom_site_fract_x
_atom_site_fract_y
_atom_site_fract_z
Se1 Se 0.721267(16) 0.450870(16) 0.582427(17)
N1 N 0.31489(15) 0.34924(16) 0.68340(15)
N2 N 0.98936(15) 0.58739(14) 0.73008(14)
C1 C 0.53500(17) 0.33547(16) 0.47871(17)
C2 C 0.5240(2) 0.27340(18) 0.35893(18)
H1 H 0.6054 0.2833 0.3334
C3 C 0.3943(2) 0.19688(19) 0.27635(19)
H2 H 0.3868 0.1565 0.1939
C4 C 0.2759(2) 0.17965(19) 0.31461(19)
H3 H 0.1871 0.1268 0.2581
C5 C 0.28546(18) 0.23849(18) 0.43387(18)
H4 H 0.2033 0.2246 0.4591
C6 C 0.41534(17) 0.31865(17) 0.51807(17)
C7 C 0.42190(18) 0.38124(18) 0.64457(17)
H5 H 0.5081 0.4472 0.6986
C8 C 0.32582(18) 0.41684(19) 0.80397(18)
C9 C 0.3998(2) 0.55326(19) 0.85923(19)
H6 H 0.4477 0.6048 0.8158
C10 C 0.4053(2) 0.6169(2) 0.9780(2)
H7 H 0.4566 0.7110 1.0140
C11 C 0.3380(2) 0.5453(2) 1.04317(19)
H8 H 0.3426 0.5899 1.1238
C12 C 0.26124(19) 0.4047(2) 0.99057(18)
C13 C 0.25321(18) 0.33969(18) 0.86949(17)
C14 C 0.17628(19) 0.19894(19) 0.81754(19)
H9 H 0.1689 0.1542 0.7361
C15 C 0.1127(2) 0.1274(2) 0.8846(2)
H10 H 0.0621 0.0332 0.8494
C16 C 0.1215(2) 0.1918(2) 1.0046(2)
H11 H 0.0771 0.1407 1.0499
C17 C 0.1930(2) 0.3271(2) 1.0568(2)
H12 H 0.1973 0.3696 1.1379
C18 C 0.74505(17) 0.33553(17) 0.66805(16)
C19 C 0.63816(18) 0.21173(17) 0.64817(18)
H13 H 0.5525 0.1830 0.5896
C20 C 0.6552(2) 0.12998(19) 0.71267(19)
H14 H 0.5816 0.0457 0.6977
C21 C 0.7788(2) 0.17067(19) 0.79858(19)
H15 H 0.7900 0.1152 0.8435
C22 C 0.88594(19) 0.29233(19) 0.81872(18)
H16 H 0.9707 0.3199 0.8779
C23 C 0.87248(18) 0.37612(17) 0.75381(17)
C24 C 0.99340(18) 0.50002(18) 0.77801(18)
H17 H 1.0783 0.5162 0.8314
C25 C 1.10774(17) 0.71025(17) 0.76320(18)
C26 C 1.1975(2) 0.77147(19) 0.8772(2)
H18 H 1.1829 0.7296 0.9364
C27 C 1.3111(2) 0.8956(2) 0.9075(2)
H19 H 1.3735 0.9357 0.9863
C28 C 1.3320(2) 0.9584(2) 0.8247(2)
H20 H 1.4095 1.0417 0.8462
C29 C 1.24031(19) 0.90134(18) 0.70721(19)
C30 C 1.12640(17) 0.77478(17) 0.67509(18)
C31 C 1.03344(18) 0.71955(19) 0.55769(18)
H21 H 0.9590 0.6337 0.5338
C32 C 1.0496(2) 0.7884(2) 0.4786(2)
H22 H 0.9846 0.7513 0.4011
C33 C 1.1621(2) 0.9140(2) 0.5107(2)
H23 H 1.1723 0.9610 0.4549
C34 C 1.2560(2) 0.9681(2) 0.6212(2)
H24 H 1.3329 1.0514 0.6411
loop_
_geom_bond_atom_site_label_1
_geom_bond_atom_site_label_2
_geom_bond_site_symmetry_1
_geom_bond_site_symmetry_2
Se1 C1 1_555 1_555
N1 C7 1_555 1_555
N2 C24 1_555 1_555
C1 C2 1_555 1_555
C2 H1 1_555 1_555
C3 C2 1_555 1_555
H2 C3 1_555 1_555
C4 C3 1_555 1_555
H3 C4 1_555 1_555
C5 C4 1_555 1_555
H4 C5 1_555 1_555
C6 C1 1_555 1_555
C7 C6 1_555 1_555
H5 C7 1_555 1_555
C8 N1 1_555 1_555
C9 C8 1_555 1_555
H6 C9 1_555 1_555
C10 C9 1_555 1_555
H7 C10 1_555 1_555
C11 C10 1_555 1_555
H8 C11 1_555 1_555
C12 C11 1_555 1_555
C13 C8 1_555 1_555
C14 C13 1_555 1_555
H9 C14 1_555 1_555
C15 C14 1_555 1_555
H10 C15 1_555 1_555
C16 C15 1_555 1_555
H11 C16 1_555 1_555
C17 C12 1_555 1_555
H12 C17 1_555 1_555
C18 Se1 1_555 1_555
C19 C18 1_555 1_555
H13 C19 1_555 1_555
C20 C19 1_555 1_555
H14 C20 1_555 1_555
C21 C20 1_555 1_555
H15 C21 1_555 1_555
C22 C21 1_555 1_555
H16 C22 1_555 1_555
C23 C18 1_555 1_555
C24 C23 1_555 1_555
H17 C24 1_555 1_555
C25 N2 1_555 1_555
C26 C25 1_555 1_555
H18 C26 1_555 1_555
C27 C26 1_555 1_555
H19 C27 1_555 1_555
C28 C27 1_555 1_555
H20 C28 1_555 1_555
C29 C28 1_555 1_555
C30 C25 1_555 1_555
C31 C30 1_555 1_555
H21 C31 1_555 1_555
C32 C31 1_555 1_555
H22 C32 1_555 1_555
C33 C32 1_555 1_555
H23 C33 1_555 1_555
C34 C29 1_555 1_555
H24 C34 1_555 1_555
C5 C6 1_555 1_555
C12 C13 1_555 1_555
C16 C17 1_555 1_555
C22 C23 1_555 1_555
C29 C30 1_555 1_555
C33 C34 1_555 1_555

#END
