
#######################################################################
#
#                 Cambridge Crystallographic Data Centre
#                                CCDC 
#
#######################################################################
#
# If this CIF has been generated from an entry in the Cambridge 
# Structural Database, then it will include bibliographic, chemical, 
# crystal, experimental, refinement or atomic coordinate data resulting 
# from the CCDC's data processing and validation procedures.
#
#######################################################################

data_YUMWIO
_chemical_formula_moiety         'C17 H21 N3 O6'
_chemical_name_systematic        
'dimethyl (3-(methoxycarbonyl)-2-(pyrrolidin-1-yldiazenyl)phenyl)malonate'
_symmetry_cell_setting           orthorhombic
_symmetry_space_group_name_H-M   'P n 21 a'
_symmetry_Int_Tables_number      33
_space_group_name_Hall           'P -2ac -2n'
loop_
_symmetry_equiv_pos_site_id
_symmetry_equiv_pos_as_xyz
1 x,y,z
2 -x,1/2+y,-z
3 1/2+x,y,1/2-z
4 1/2-x,1/2+y,1/2+z
_cell_length_a                   16.9511(9)
_cell_length_b                   21.1622(10)
_cell_length_c                   10.4383(5)
_cell_angle_alpha                90
_cell_angle_beta                 90
_cell_angle_gamma                90
_cell_volume                     3744.45
_exptl_crystal_colour            colorless
_exptl_crystal_description       block
_cell_formula_units_Z            8
loop_
_atom_site_label
_atom_site_type_symbol
_atom_site_fract_x
_atom_site_fract_y
_atom_site_fract_z
O1 O 0.5196(4) 0.6428(3) 1.2335(7)
O2 O 0.6130(3) 0.6087(2) 1.1001(6)
O3 O 0.6349(3) 0.3323(4) 1.1093(7)
O4 O 0.5483(4) 0.2874(3) 0.9840(7)
O5 O 0.4606(4) 0.2751(3) 1.2477(8)
O6 O 0.3718(3) 0.3463(3) 1.1920(7)
N1 N 0.5023(3) 0.4874(2) 1.0223(4)
N2 N 0.4826(3) 0.5433(2) 0.9900(5)
N3 N 0.4652(4) 0.5490(3) 0.8667(5)
C1 C 0.5499(3) 0.5332(3) 1.2283(6)
C2 C 0.5703(4) 0.5212(4) 1.3552(7)
H1 H 0.5857 0.5547 1.4073
C3 C 0.5681(5) 0.4600(4) 1.4063(6)
H2 H 0.5815 0.4528 1.4914
C4 C 0.5461(4) 0.4118(4) 1.3300(6)
H3 H 0.5454 0.3710 1.3629
C5 C 0.5240(3) 0.4220(3) 1.2012(6)
C6 C 0.5250(3) 0.4825(3) 1.1518(6)
C7 C 0.4992(3) 0.3652(3) 1.1210(6)
H4 H 0.4716 0.3812 1.0451
C8 C 0.5696(4) 0.3276(3) 1.0752(7)
C9 C 0.6089(7) 0.2459(5) 0.9346(14)
H5 H 0.5932 0.2027 0.9470
H6 H 0.6575 0.2536 0.9792
H7 H 0.6162 0.2538 0.8448
C10 C 0.4425(4) 0.3229(3) 1.1935(7)
C11 C 0.3141(6) 0.3164(6) 1.2740(14)
H8 H 0.3080 0.2730 1.2493
H9 H 0.2645 0.3379 1.2658
H10 H 0.3316 0.3185 1.3614
C12 C 0.4647(6) 0.4974(4) 0.7758(7)
H11 H 0.4346 0.4618 0.8083
H12 H 0.5179 0.4835 0.7567
C13 C 0.4262(7) 0.5253(7) 0.6599(8)
H13 H 0.4534 0.5119 0.5829
H14 H 0.3716 0.5117 0.6545
C14 C 0.4304(8) 0.5932(7) 0.6731(11)
H15 H 0.3834 0.6128 0.6382
H16 H 0.4760 0.6096 0.6279
C15 C 0.4372(7) 0.6068(5) 0.8155(10)
H17 H 0.4741 0.6409 0.8316
H18 H 0.3863 0.6179 0.8516
C16 C 0.5565(4) 0.5999(3) 1.1848(7)
C17 C 0.6218(7) 0.6745(4) 1.0480(12)
H19 H 0.6445 0.6727 0.9639
H20 H 0.6555 0.6987 1.1034
H21 H 0.5709 0.6943 1.0433
O7 O 0.2331(4) 0.6478(3) 0.7820(7)
O8 O 0.1423(3) 0.6087(2) 0.9132(6)
O9 O 0.2942(4) 0.2815(3) 0.7214(6)
O10 O 0.3879(3) 0.3482(3) 0.7821(7)
O11 O 0.1275(3) 0.3368(4) 0.8880(7)
O12 O 0.2198(4) 0.2857(3) 0.9929(6)
N4 N 0.2530(3) 0.4866(2) 0.9764(4)
N5 N 0.2733(3) 0.5411(2) 1.0143(5)
N6 N 0.2901(4) 0.5437(3) 1.1379(5)
C18 C 0.2055(3) 0.5374(3) 0.7733(6)
C19 C 0.1851(4) 0.5301(4) 0.6470(6)
H22 H 0.1699 0.5651 0.5991
C20 C 0.1869(5) 0.4699(5) 0.5896(6)
H23 H 0.1706 0.4647 0.5052
C21 C 0.2126(4) 0.4194(4) 0.6586(7)
H24 H 0.2162 0.3799 0.6201
C22 C 0.2338(3) 0.4267(3) 0.7872(6)
C23 C 0.2316(3) 0.4855(3) 0.8448(5)
C24 C 0.2624(4) 0.3681(3) 0.8612(5)
H25 H 0.2932 0.3826 0.9350
C25 C 0.1934(4) 0.3295(3) 0.9113(7)
C26 C 0.1610(8) 0.2439(5) 1.0489(14)
H26 H 0.1140 0.2446 0.9974
H27 H 0.1486 0.2579 1.1340
H28 H 0.1814 0.2016 1.0521
C27 C 0.3153(4) 0.3275(3) 0.7792(8)
C28 C 0.4419(7) 0.3169(6) 0.6951(15)
H29 H 0.4248 0.3234 0.6084
H30 H 0.4428 0.2724 0.7134
H31 H 0.4939 0.3341 0.7058
C29 C 0.2892(6) 0.4894(4) 1.2236(7)
H32 H 0.3146 0.4532 1.1845
H33 H 0.2356 0.4780 1.2468
C30 C 0.3343(5) 0.5118(5) 1.3380(7)
H34 H 0.3896 0.5006 1.3311
H35 H 0.3131 0.4938 1.4162
C31 C 0.3236(7) 0.5823(6) 1.3356(10)
H36 H 0.3675 0.6033 1.3772
H37 H 0.2750 0.5943 1.3784
C32 C 0.3203(7) 0.5989(4) 1.1954(10)
H38 H 0.2858 0.6346 1.1805
H39 H 0.3725 0.6087 1.1626
C33 C 0.1983(4) 0.6032(3) 0.8246(7)
C34 C 0.1327(7) 0.6718(5) 0.9729(10)
H40 H 0.1044 0.6990 0.9154
H41 H 0.1837 0.6895 0.9903
H42 H 0.1038 0.6676 1.0515
loop_
_geom_bond_atom_site_label_1
_geom_bond_atom_site_label_2
_geom_bond_site_symmetry_1
_geom_bond_site_symmetry_2
O1 C16 1_555 1_555
O2 C16 1_555 1_555
O3 C8 1_555 1_555
O4 C8 1_555 1_555
O5 C10 1_555 1_555
O6 C10 1_555 1_555
N1 N2 1_555 1_555
N2 N3 1_555 1_555
N3 C12 1_555 1_555
C1 C2 1_555 1_555
C2 H1 1_555 1_555
C3 C2 1_555 1_555
H2 C3 1_555 1_555
C4 C3 1_555 1_555
H3 C4 1_555 1_555
C5 C4 1_555 1_555
C6 N1 1_555 1_555
C7 C5 1_555 1_555
H4 C7 1_555 1_555
C8 C7 1_555 1_555
C9 O4 1_555 1_555
H5 C9 1_555 1_555
H6 C9 1_555 1_555
H7 C9 1_555 1_555
C10 C7 1_555 1_555
C11 O6 1_555 1_555
H8 C11 1_555 1_555
H9 C11 1_555 1_555
H10 C11 1_555 1_555
C12 H11 1_555 1_555
H12 C12 1_555 1_555
C13 C12 1_555 1_555
H13 C13 1_555 1_555
H14 C13 1_555 1_555
C14 C13 1_555 1_555
H15 C14 1_555 1_555
H16 C14 1_555 1_555
C15 N3 1_555 1_555
H17 C15 1_555 1_555
H18 C15 1_555 1_555
C16 C1 1_555 1_555
C17 O2 1_555 1_555
H19 C17 1_555 1_555
H20 C17 1_555 1_555
H21 C17 1_555 1_555
O7 C33 1_555 1_555
O8 C33 1_555 1_555
O9 C27 1_555 1_555
O10 C27 1_555 1_555
O11 C25 1_555 1_555
O12 C25 1_555 1_555
N4 N5 1_555 1_555
N5 N6 1_555 1_555
N6 C29 1_555 1_555
C18 C19 1_555 1_555
C19 H22 1_555 1_555
C20 C19 1_555 1_555
H23 C20 1_555 1_555
C21 C20 1_555 1_555
H24 C21 1_555 1_555
C22 C21 1_555 1_555
C23 N4 1_555 1_555
C24 C22 1_555 1_555
H25 C24 1_555 1_555
C25 C24 1_555 1_555
C26 O12 1_555 1_555
H26 C26 1_555 1_555
H27 C26 1_555 1_555
H28 C26 1_555 1_555
C27 C24 1_555 1_555
C28 O10 1_555 1_555
H29 C28 1_555 1_555
H30 C28 1_555 1_555
H31 C28 1_555 1_555
C29 H32 1_555 1_555
H33 C29 1_555 1_555
C30 C29 1_555 1_555
H34 C30 1_555 1_555
H35 C30 1_555 1_555
C31 C30 1_555 1_555
H36 C31 1_555 1_555
H37 C31 1_555 1_555
C32 N6 1_555 1_555
H38 C32 1_555 1_555
H39 C32 1_555 1_555
C33 C18 1_555 1_555
C34 O8 1_555 1_555
H40 C34 1_555 1_555
H41 C34 1_555 1_555
H42 C34 1_555 1_555
C1 C6 1_555 1_555
C5 C6 1_555 1_555
C14 C15 1_555 1_555
C18 C23 1_555 1_555
C22 C23 1_555 1_555
C31 C32 1_555 1_555

#END
