
#######################################################################
#
#                 Cambridge Crystallographic Data Centre
#                                CCDC 
#
#######################################################################
#
# If this CIF has been generated from an entry in the Cambridge 
# Structural Database, then it will include bibliographic, chemical, 
# crystal, experimental, refinement or atomic coordinate data resulting 
# from the CCDC's data processing and validation procedures.
#
#######################################################################

data_YUMYAH
_chemical_name_common            
'4-(1H-Pyrazol-1-yl)-N,N-bis(4-(1H-pyrazol-1-yl)phenyl)aniline hemihydrate'
_chemical_formula_moiety         'C27 H21 N7,0.5(H2 O1)'
_chemical_name_systematic        'tris(4-(pyrazol-1-yl)phenyl)amine hemihydrate'
_symmetry_cell_setting           orthorhombic
_symmetry_space_group_name_H-M   'P c c n'
_symmetry_Int_Tables_number      56
_space_group_name_Hall           '-P 2ab 2ac'
loop_
_symmetry_equiv_pos_site_id
_symmetry_equiv_pos_as_xyz
1 x,y,z
2 1/2-x,1/2-y,z
3 -x,1/2+y,1/2-z
4 1/2+x,-y,1/2-z
5 -x,-y,-z
6 1/2+x,1/2+y,-z
7 x,1/2-y,1/2+z
8 1/2-x,y,1/2+z
_cell_length_a                   23.394(7)
_cell_length_b                   34.021(9)
_cell_length_c                   11.719(3)
_cell_angle_alpha                90
_cell_angle_beta                 90
_cell_angle_gamma                90
_cell_volume                     9327
_chemical_melting_point          '176-178 deg.C'
_cell_formula_units_Z            16
loop_
_atom_site_label
_atom_site_type_symbol
_atom_site_fract_x
_atom_site_fract_y
_atom_site_fract_z
N1 N 0.4567(2) 0.37507(14) 0.5439(4)
N2 N 0.31141(18) 0.35162(14) 0.9205(4)
N3 N 0.27175(19) 0.32309(15) 0.9191(4)
N4 N 0.6171(2) 0.49752(15) 0.5277(6)
N5 N 0.6384(2) 0.51198(19) 0.6240(6)
N6 N 0.4137(2) 0.28924(13) 0.1419(4)
N7 N 0.4572(2) 0.28187(19) 0.0709(5)
C1 C 0.4214(2) 0.36893(16) 0.6399(4)
C2 C 0.3990(2) 0.33226(16) 0.6644(4)
H3 H 0.4082 0.3112 0.6173
C3 C 0.3636(2) 0.32587(16) 0.7557(4)
H4 H 0.3492 0.3009 0.7704
C4 C 0.3495(2) 0.35703(16) 0.8256(4)
C5 C 0.3713(2) 0.39383(17) 0.8044(5)
H5 H 0.3617 0.4147 0.8518
C6 C 0.4072(2) 0.39970(17) 0.7130(5)
H6 H 0.4223 0.4246 0.6999
C7 C 0.2448(3) 0.3271(2) 1.0192(6)
H7 H 0.2144 0.3114 1.0425
C8 C 0.2669(3) 0.3566(2) 1.0824(6)
H8 H 0.2552 0.3647 1.1545
C9 C 0.3101(3) 0.3720(2) 1.0178(6)
H9 H 0.3340 0.3927 1.0378
C10 C 0.4968(2) 0.40620(17) 0.5409(5)
C11 C 0.5374(3) 0.40991(19) 0.6244(5)
H10 H 0.5381 0.3920 0.6843
C12 C 0.5771(2) 0.43975(18) 0.6215(5)
H11 H 0.6046 0.4417 0.6785
C13 C 0.5759(2) 0.46692(17) 0.5327(5)
C14 C 0.5357(3) 0.46316(17) 0.4473(5)
H12 H 0.5353 0.4807 0.3863
C15 C 0.4959(2) 0.43310(18) 0.4532(5)
H13 H 0.4681 0.4310 0.3968
C16 C 0.6743(3) 0.5402(2) 0.5911(9)
H14 H 0.6954 0.5559 0.6407
C17 C 0.6760(3) 0.5429(2) 0.4755(9)
H15 H 0.6978 0.5602 0.4321
C18 C 0.6390(3) 0.5150(2) 0.4364(7)
H16 H 0.6307 0.5094 0.3606
C19 C 0.4456(2) 0.35393(17) 0.4415(4)
C20 C 0.3900(2) 0.34873(17) 0.4018(5)
H17 H 0.3597 0.3600 0.4416
C21 C 0.3792(2) 0.32733(16) 0.3052(4)
H18 H 0.3417 0.3234 0.2811
C22 C 0.4240(2) 0.31162(15) 0.2438(4)
C23 C 0.4797(2) 0.31759(16) 0.2798(5)
H19 H 0.5101 0.3072 0.2386
C24 C 0.4894(2) 0.33901(17) 0.3775(5)
H20 H 0.5269 0.3435 0.4007
C25 C 0.4326(4) 0.2630(2) -0.0150(6)
H21 H 0.4521 0.2543 -0.0795
C26 C 0.3756(3) 0.25758(18) 0.0018(6)
H22 H 0.3497 0.2447 -0.0455
C27 C 0.3652(3) 0.27523(18) 0.1033(5)
H23 H 0.3299 0.2771 0.1393
N8 N 0.56239(19) 0.11400(14) 0.5450(4)
N9 N 0.3768(2) 0.01072(15) 0.5082(6)
N10 N 0.3538(3) 0.00616(18) 0.4022(6)
N11 N 0.69158(17) 0.13159(14) 0.9467(4)
N12 N 0.7003(2) 0.10049(17) 1.0125(5)
N13 N 0.60846(19) 0.21317(13) 0.1726(4)
N14 N 0.6566(2) 0.23441(15) 0.1675(4)
C28 C 0.5170(2) 0.08661(17) 0.5375(5)
C29 C 0.4790(2) 0.08188(19) 0.6267(5)
H24 H 0.4845 0.0961 0.6936
C30 C 0.4335(2) 0.05682(19) 0.6188(5)
H25 H 0.4081 0.0543 0.6794
C31 C 0.4256(2) 0.03522(17) 0.5195(6)
C32 C 0.4641(3) 0.03882(17) 0.4315(5)
H26 H 0.4592 0.0241 0.3654
C33 C 0.5097(2) 0.06408(17) 0.4406(5)
H27 H 0.5358 0.0660 0.3810
C34 C 0.3080(4) -0.0160(2) 0.4214(10)
H28 H 0.2824 -0.0239 0.3652
C35 C 0.3034(3) -0.0258(2) 0.5338(10)
H29 H 0.2757 -0.0416 0.5675
C36 C 0.3472(3) -0.0077(2) 0.5852(8)
H30 H 0.3551 -0.0082 0.6629
C37 C 0.5943(2) 0.11874(18) 0.6467(4)
C38 C 0.6118(2) 0.15536(16) 0.6821(5)
H31 H 0.6021 0.1774 0.6392
C39 C 0.6433(2) 0.15982(16) 0.7803(5)
H32 H 0.6547 0.1848 0.8032
C40 C 0.6583(2) 0.12736(16) 0.8455(4)
C41 C 0.6410(2) 0.09052(17) 0.8101(5)
H33 H 0.6506 0.0685 0.8529
C42 C 0.6094(2) 0.08628(17) 0.7112(5)
H34 H 0.5982 0.0613 0.6877
C43 C 0.7302(3) 0.1152(3) 1.0990(6)
H35 H 0.7435 0.1002 1.1597
C44 C 0.7391(3) 0.1540(2) 1.0892(6)
H36 H 0.7583 0.1707 1.1391
C45 C 0.7136(3) 0.1630(2) 0.9905(5)
H37 H 0.7120 0.1880 0.9582
C46 C 0.5737(2) 0.13853(16) 0.4505(4)
C47 C 0.5295(2) 0.15693(17) 0.3918(5)
H38 H 0.4918 0.1527 0.4140
C48 C 0.5410(2) 0.18135(15) 0.3012(5)
H39 H 0.5112 0.1936 0.2623
C49 C 0.5969(2) 0.18773(15) 0.2681(4)
C50 C 0.6413(2) 0.17000(16) 0.3254(4)
H40 H 0.6790 0.1745 0.3035
C51 C 0.6292(2) 0.14562(17) 0.4156(5)
H41 H 0.6591 0.1335 0.4542
C52 C 0.6534(3) 0.25191(18) 0.0677(6)
H42 H 0.6815 0.2687 0.0396
C53 C 0.6049(3) 0.2430(2) 0.0099(6)
H43 H 0.5935 0.2520 -0.0615
C54 C 0.5768(3) 0.2178(2) 0.0795(6)
H44 H 0.5417 0.2059 0.0648
O1 O 0.2500 0.2500 0.7765(6)
H1 H 0.2491 0.2700 0.8196
H1A H 0.2509 0.2300 0.8196
O2 O 0.7500 0.2500 0.3320(5)
H2 H 0.7207 0.2465 0.2895
H2A H 0.7793 0.2535 0.2895
loop_
_geom_bond_atom_site_label_1
_geom_bond_atom_site_label_2
_geom_bond_site_symmetry_1
_geom_bond_site_symmetry_2
N1 C1 1_555 1_555
N2 N3 1_555 1_555
N3 C7 1_555 1_555
N4 N5 1_555 1_555
N5 C16 1_555 1_555
N6 N7 1_555 1_555
N7 C25 1_555 1_555
N8 C28 1_555 1_555
N9 N10 1_555 1_555
N10 C34 1_555 1_555
N11 N12 1_555 1_555
N12 C43 1_555 1_555
N13 N14 1_555 1_555
N14 C52 1_555 1_555
O1 H1 1_555 1_555
O2 H2 1_555 1_555
C1 C2 1_555 1_555
C2 H3 1_555 1_555
C3 C2 1_555 1_555
H4 C3 1_555 1_555
C4 N2 1_555 1_555
C5 C4 1_555 1_555
H5 C5 1_555 1_555
C6 C1 1_555 1_555
H6 C6 1_555 1_555
C7 H7 1_555 1_555
C8 C7 1_555 1_555
H8 C8 1_555 1_555
C9 N2 1_555 1_555
H9 C9 1_555 1_555
C10 N1 1_555 1_555
C11 C10 1_555 1_555
H10 C11 1_555 1_555
C12 C11 1_555 1_555
H11 C12 1_555 1_555
C13 N4 1_555 1_555
C14 C13 1_555 1_555
H12 C14 1_555 1_555
C15 C10 1_555 1_555
H13 C15 1_555 1_555
C16 H14 1_555 1_555
C17 C16 1_555 1_555
H15 C17 1_555 1_555
C18 N4 1_555 1_555
H16 C18 1_555 1_555
C19 N1 1_555 1_555
C20 C19 1_555 1_555
H17 C20 1_555 1_555
C21 C20 1_555 1_555
H18 C21 1_555 1_555
C22 N6 1_555 1_555
C23 C22 1_555 1_555
H19 C23 1_555 1_555
C24 C19 1_555 1_555
H20 C24 1_555 1_555
C25 H21 1_555 1_555
C26 C25 1_555 1_555
H22 C26 1_555 1_555
C27 N6 1_555 1_555
H23 C27 1_555 1_555
C28 C29 1_555 1_555
C29 H24 1_555 1_555
C30 C29 1_555 1_555
H25 C30 1_555 1_555
C31 N9 1_555 1_555
C32 C31 1_555 1_555
H26 C32 1_555 1_555
C33 C28 1_555 1_555
H27 C33 1_555 1_555
C34 H28 1_555 1_555
C35 C34 1_555 1_555
H29 C35 1_555 1_555
C36 N9 1_555 1_555
H30 C36 1_555 1_555
C37 N8 1_555 1_555
C38 C37 1_555 1_555
H31 C38 1_555 1_555
C39 C38 1_555 1_555
H32 C39 1_555 1_555
C40 N11 1_555 1_555
C41 C40 1_555 1_555
H33 C41 1_555 1_555
C42 C37 1_555 1_555
H34 C42 1_555 1_555
C43 H35 1_555 1_555
C44 C43 1_555 1_555
H36 C44 1_555 1_555
C45 N11 1_555 1_555
H37 C45 1_555 1_555
C46 N8 1_555 1_555
C47 C46 1_555 1_555
H38 C47 1_555 1_555
C48 C47 1_555 1_555
H39 C48 1_555 1_555
C49 N13 1_555 1_555
C50 C49 1_555 1_555
H40 C50 1_555 1_555
C51 C46 1_555 1_555
H41 C51 1_555 1_555
C52 H42 1_555 1_555
C53 C52 1_555 1_555
H43 C53 1_555 1_555
C54 N13 1_555 1_555
H44 C54 1_555 1_555
H1A O1 1_555 1_555
H2A O2 1_555 1_555
C3 C4 1_555 1_555
C5 C6 1_555 1_555
C8 C9 1_555 1_555
C12 C13 1_555 1_555
C14 C15 1_555 1_555
C17 C18 1_555 1_555
C21 C22 1_555 1_555
C23 C24 1_555 1_555
C26 C27 1_555 1_555
C30 C31 1_555 1_555
C32 C33 1_555 1_555
C35 C36 1_555 1_555
C39 C40 1_555 1_555
C41 C42 1_555 1_555
C44 C45 1_555 1_555
C48 C49 1_555 1_555
C50 C51 1_555 1_555
C53 C54 1_555 1_555

#END
