
#######################################################################
#
#                 Cambridge Crystallographic Data Centre
#                                CCDC 
#
#######################################################################
#
# If this CIF has been generated from an entry in the Cambridge 
# Structural Database, then it will include bibliographic, chemical, 
# crystal, experimental, refinement or atomic coordinate data resulting 
# from the CCDC's data processing and validation procedures.
#
#######################################################################

data_YUNCOB
_chemical_formula_moiety         'C7 H9 N4 1+,2(C7 H4 N2 O6),C7 H3 N2 O6 1-'
_chemical_name_systematic        
'1-(1H-imidazol-1-ylmethyl)-1H-imidazol-3-ium 3,5-dinitrobenzoate 3,5-dinitrobenzoic acid'
_symmetry_cell_setting           triclinic
_symmetry_space_group_name_H-M   'P -1'
_symmetry_Int_Tables_number      2
_space_group_name_Hall           '-P 1'
loop_
_symmetry_equiv_pos_site_id
_symmetry_equiv_pos_as_xyz
1 x,y,z
2 -x,-y,-z
_cell_length_a                   7.2704(6)
_cell_length_b                   12.3344(11)
_cell_length_c                   18.7336(18)
_cell_angle_alpha                75.4040(10)
_cell_angle_beta                 84.246(2)
_cell_angle_gamma                81.3010(10)
_cell_volume                     1603.64
_exptl_crystal_colour            colorless
_exptl_crystal_description       block
_cell_formula_units_Z            2
loop_
_atom_site_label
_atom_site_type_symbol
_atom_site_fract_x
_atom_site_fract_y
_atom_site_fract_z
N1 N 0.4497(3) 0.88933(17) 0.29645(12)
N2 N 0.5410(3) 0.78358(19) 0.40313(13)
N3 N 0.5785(3) 0.97715(17) 0.17607(12)
N4 N 0.8466(3) 0.99372(18) 0.11827(12)
H1 H 0.9546 0.9772 0.0975
C1 C 0.4233(4) 0.9236(2) 0.21802(15)
H2 H 0.3094 0.9760 0.2096
H3 H 0.4094 0.8579 0.2005
C2 C 0.5334(4) 0.7883(2) 0.33279(15)
H4 H 0.5800 0.7292 0.3107
C3 C 0.4593(4) 0.8874(2) 0.41258(16)
H5 H 0.4455 0.9090 0.4571
C4 C 0.4022(4) 0.9532(2) 0.34751(16)
H6 H 0.3425 1.0270 0.3389
C5 C 0.7309(4) 0.9220(2) 0.15008(15)
H7 H 0.7520 0.8446 0.1539
C6 C 0.7675(4) 1.0992(2) 0.12344(15)
H8 H 0.8204 1.1657 0.1052
C7 C 0.6000(4) 1.0899(2) 0.15955(15)
H9 H 0.5148 1.1482 0.1712
N5 N 0.4009(4) 0.3029(2) 0.35656(16)
N6 N 1.0149(4) 0.1618(2) 0.25962(14)
O1 O 0.9568(3) 0.57683(17) 0.16126(16)
H10 H 0.9681 0.6426 0.1404
O2 O 0.6881(3) 0.65335(16) 0.20673(11)
O3 O 0.2651(3) 0.3740(2) 0.34410(14)
O4 O 0.4023(4) 0.2148(2) 0.40415(17)
O5 O 0.9711(4) 0.06676(19) 0.27729(14)
O6 O 1.1713(4) 0.1834(2) 0.23672(14)
C8 C 0.8002(4) 0.5732(2) 0.20191(16)
C9 C 0.7697(4) 0.4544(2) 0.23927(15)
C10 C 0.6019(4) 0.4342(2) 0.27911(15)
H11 H 0.5089 0.4936 0.2828
C11 C 0.5760(4) 0.3243(2) 0.31302(16)
C12 C 0.7072(4) 0.2332(2) 0.30814(16)
H12 H 0.6863 0.1596 0.3312
C13 C 0.8707(4) 0.2565(2) 0.26747(15)
C14 C 0.9067(4) 0.3647(2) 0.23378(15)
H13 H 1.0205 0.3775 0.2079
N7 N 0.8936(4) 0.2754(2) 0.70106(14)
N8 N 1.0673(3) 0.1357(2) 0.47831(15)
O7 O 0.7446(4) 0.53961(17) 0.38922(11)
O8 O 0.6638(3) 0.59664(16) 0.49290(11)
H14 H 0.6219 0.6551 0.4643
O9 O 0.7922(4) 0.3415(2) 0.72995(12)
O10 O 0.9867(4) 0.1922(2) 0.73521(12)
O11 O 1.1681(3) 0.05776(17) 0.51488(12)
O12 O 1.0328(3) 0.14335(18) 0.41509(13)
C15 C 0.7374(4) 0.5229(2) 0.45571(17)
C16 C 0.8192(4) 0.4130(2) 0.50340(14)
C17 C 0.8174(4) 0.3959(2) 0.57929(15)
H15 H 0.7622 0.4523 0.6023
C18 C 0.8988(4) 0.2936(2) 0.62046(14)
C19 C 0.9833(4) 0.2078(2) 0.58930(15)
H16 H 1.0396 0.1402 0.6178
C20 C 0.9807(4) 0.2269(2) 0.51358(15)
C21 C 0.9012(4) 0.3274(2) 0.47010(15)
H17 H 0.9026 0.3377 0.4191
N9 N 0.4787(4) 0.58042(19) 0.89070(13)
N10 N 0.1836(4) 0.2569(2) 1.03696(15)
O13 O 0.8058(3) 0.09166(16) 0.92942(12)
O14 O 0.9732(3) 0.23279(15) 0.90558(11)
O15 O 0.6154(3) 0.61549(17) 0.85517(13)
O16 O 0.3383(3) 0.64090(17) 0.90432(14)
O17 O 0.0493(3) 0.3226(2) 1.04901(15)
O18 O 0.1985(3) 0.1553(2) 1.06327(15)
C22 C 0.8216(4) 0.1930(2) 0.92116(15)
C23 C 0.6470(4) 0.2719(2) 0.93267(14)
C24 C 0.6406(4) 0.3880(2) 0.90548(14)
H18 H 0.7422 0.4185 0.8778
C25 C 0.4817(4) 0.4575(2) 0.92004(15)
C26 C 0.3287(4) 0.4178(2) 0.96170(15)
H19 H 0.2232 0.4661 0.9714
C27 C 0.3399(4) 0.3025(2) 0.98827(15)
C28 C 0.4935(4) 0.2293(2) 0.97355(15)
H20 H 0.4940 0.1516 0.9910
loop_
_geom_bond_atom_site_label_1
_geom_bond_atom_site_label_2
_geom_bond_site_symmetry_1
_geom_bond_site_symmetry_2
N1 C1 1_555 1_555
N2 C2 1_555 1_555
N3 C1 1_555 1_555
N4 H1 1_555 1_555
C1 H2 1_555 1_555
H3 C1 1_555 1_555
C2 N1 1_555 1_555
H4 C2 1_555 1_555
C3 N2 1_555 1_555
H5 C3 1_555 1_555
C4 N1 1_555 1_555
H6 C4 1_555 1_555
C5 N3 1_555 1_555
H7 C5 1_555 1_555
C6 N4 1_555 1_555
H8 C6 1_555 1_555
C7 N3 1_555 1_555
H9 C7 1_555 1_555
N5 O3 1_555 1_555
N6 O5 1_555 1_555
O1 H10 1_555 1_555
O2 C8 1_555 1_555
O4 N5 1_555 1_555
O6 N6 1_555 1_555
C8 O1 1_555 1_555
C9 C8 1_555 1_555
C10 C9 1_555 1_555
H11 C10 1_555 1_555
C11 N5 1_555 1_555
C12 C11 1_555 1_555
H12 C12 1_555 1_555
C13 N6 1_555 1_555
C14 C9 1_555 1_555
H13 C14 1_555 1_555
N7 O9 1_555 1_555
N8 O11 1_555 1_555
O7 C15 1_555 1_555
O8 H14 1_555 1_555
O10 N7 1_555 1_555
O12 N8 1_555 1_555
C15 O8 1_555 1_555
C16 C15 1_555 1_555
C17 C16 1_555 1_555
H15 C17 1_555 1_555
C18 N7 1_555 1_555
C19 C18 1_555 1_555
H16 C19 1_555 1_555
C20 N8 1_555 1_555
C21 C16 1_555 1_555
H17 C21 1_555 1_555
N9 O15 1_555 1_555
N10 O17 1_555 1_555
O13 C22 1_555 1_555
O14 C22 1_555 1_555
O16 N9 1_555 1_555
O18 N10 1_555 1_555
C22 C23 1_555 1_555
C23 C24 1_555 1_555
C24 H18 1_555 1_555
C25 N9 1_555 1_555
C26 C25 1_555 1_555
H19 C26 1_555 1_555
C27 N10 1_555 1_555
C28 C23 1_555 1_555
H20 C28 1_555 1_555
N4 C5 1_555 1_555
C3 C4 1_555 1_555
C6 C7 1_555 1_555
C10 C11 1_555 1_555
C12 C13 1_555 1_555
C13 C14 1_555 1_555
C17 C18 1_555 1_555
C19 C20 1_555 1_555
C20 C21 1_555 1_555
C24 C25 1_555 1_555
C26 C27 1_555 1_555
C27 C28 1_555 1_555

#END
