
#######################################################################
#
#                 Cambridge Crystallographic Data Centre
#                                CCDC 
#
#######################################################################
#
# If this CIF has been generated from an entry in the Cambridge 
# Structural Database, then it will include bibliographic, chemical, 
# crystal, experimental, refinement or atomic coordinate data resulting 
# from the CCDC's data processing and validation procedures.
#
#######################################################################

data_YUNDOC
_chemical_name_common            1-(1-acetylpyridin-4(1H)-ylidene)acetone
_chemical_formula_moiety         'C10 H11 N1 O2'
_chemical_name_systematic        1-(1-acetylpyridin-4(1H)-ylidene)propan-2-one
_symmetry_cell_setting           orthorhombic
_symmetry_space_group_name_H-M   'P n m a'
_symmetry_Int_Tables_number      62
_space_group_name_Hall           '-P 2ac 2n'
loop_
_symmetry_equiv_pos_site_id
_symmetry_equiv_pos_as_xyz
1 x,y,z
2 1/2-x,-y,1/2+z
3 1/2+x,1/2-y,1/2-z
4 -x,1/2+y,-z
5 -x,-y,-z
6 1/2+x,y,1/2-z
7 1/2-x,1/2+y,1/2+z
8 x,1/2-y,z
_cell_length_a                   16.244(6)
_cell_length_b                   6.511(2)
_cell_length_c                   8.375(2)
_cell_angle_alpha                90
_cell_angle_beta                 90
_cell_angle_gamma                90
_cell_volume                     885.779
_exptl_crystal_colour            yellow
_exptl_crystal_description       lath
_cell_formula_units_Z            4
loop_
_atom_site_label
_atom_site_type_symbol
_atom_site_fract_x
_atom_site_fract_y
_atom_site_fract_z
O1 O 0.31599(7) 0.2500 0.76885(15)
O2 O 0.58861(8) 0.2500 0.14265(14)
N1 N 0.45362(7) 0.2500 0.71831(15)
C1 C 0.43942(9) 0.2500 0.55467(18)
H1 H 0.3842 0.2500 0.5172
C2 C 0.50110(9) 0.2500 0.44750(18)
H2 H 0.4883 0.2500 0.3368
C3 C 0.58628(9) 0.2500 0.49679(18)
C4 C 0.59828(9) 0.2500 0.66759(18)
H3 H 0.6528 0.2500 0.7084
C5 C 0.53482(9) 0.2500 0.77097(17)
H4 H 0.5457 0.2500 0.8824
C6 C 0.38512(9) 0.2500 0.82348(19)
C7 C 0.40280(10) 0.2500 0.9995(2)
C8 C 0.65356(9) 0.2500 0.39610(19)
H5 H 0.7062 0.2500 0.4454
C9 C 0.65226(10) 0.2500 0.22335(19)
C10 C 0.73495(11) 0.2500 0.1408(2)
H6? H 0.7277 0.2135 0.0282
H7? H 0.7712 0.1495 0.1922
H8? H 0.7596 0.3870 0.1485
H9? H 0.4236 0.3852 1.0314
H10? H 0.3521 0.2197 1.0584
H11? H 0.4442 0.1451 1.0236
loop_
_geom_bond_atom_site_label_1
_geom_bond_atom_site_label_2
_geom_bond_site_symmetry_1
_geom_bond_site_symmetry_2
O1 C6 1_555 1_555
O2 C9 1_555 1_555
N1 C1 1_555 1_555
C1 H1 1_555 1_555
C2 C1 1_555 1_555
H2 C2 1_555 1_555
C3 C2 1_555 1_555
C4 C3 1_555 1_555
H3 C4 1_555 1_555
C5 N1 1_555 1_555
H4 C5 1_555 1_555
C6 N1 1_555 1_555
C7 C6 1_555 1_555
C8 C3 1_555 1_555
H5 C8 1_555 1_555
C9 C8 1_555 1_555
C10 C9 1_555 1_555
C4 C5 1_555 1_555

#END
