
#######################################################################
#
#                 Cambridge Crystallographic Data Centre
#                                CCDC 
#
#######################################################################
#
# If this CIF has been generated from an entry in the Cambridge 
# Structural Database, then it will include bibliographic, chemical, 
# crystal, experimental, refinement or atomic coordinate data resulting 
# from the CCDC's data processing and validation procedures.
#
#######################################################################

data_YUNGUL
_chemical_formula_moiety         'C16 H24 B1 N1 O3,0.5(H2 O1)'
_chemical_name_systematic        
'(S)-N-(1-Phenyl-1-(4,4,5,5-tetramethyl-1,3,2-dioxaborolan-2-yl)ethyl)acetamide hemihydrate'
_symmetry_cell_setting           tetragonal
_symmetry_space_group_name_H-M   'P 41 21 2'
_symmetry_Int_Tables_number      92
_space_group_name_Hall           'P 4abw 2nw'
loop_
_symmetry_equiv_pos_site_id
_symmetry_equiv_pos_as_xyz
1 x,y,z
2 -x,-y,1/2+z
3 1/2-y,1/2+x,1/4+z
4 1/2+y,1/2-x,3/4+z
5 1/2-x,1/2+y,1/4-z
6 1/2+x,1/2-y,3/4-z
7 y,x,-z
8 -y,-x,1/2-z
_cell_length_a                   9.5606(14)
_cell_length_b                   9.5606(14)
_cell_length_c                   37.597(8)
_cell_angle_alpha                90
_cell_angle_beta                 90
_cell_angle_gamma                90
_cell_volume                     3436.56
_exptl_crystal_colour            colorless
_exptl_crystal_description       prismatic
_cell_formula_units_Z            8
loop_
_atom_site_label
_atom_site_type_symbol
_atom_site_fract_x
_atom_site_fract_y
_atom_site_fract_z
O1 O 0.92926(16) 0.21499(16) 0.10399(4)
O2 O 0.86748(17) 0.17069(14) 0.04142(3)
O3 O 0.76860(16) 0.36177(13) 0.06936(3)
N1 N 0.77805(16) 0.06479(15) 0.12504(4)
H1 H 0.7483 0.0037 0.1400
B1 B 0.8095(2) 0.2187(2) 0.07422(5)
C1 C 0.6958(2) 0.10946(18) 0.09371(4)
C2 C 0.5622(2) 0.1794(2) 0.10632(5)
C3 C 0.4403(3) 0.1783(3) 0.08670(9)
H2 H 0.4392 0.1340 0.0647
C4 C 0.3188(3) 0.2420(5) 0.09914(14)
H3 H 0.2374 0.2369 0.0857
C5 C 0.3174(4) 0.3114(4) 0.13061(13)
H4 H 0.2364 0.3551 0.1387
C6 C 0.4372(4) 0.3157(3) 0.15012(9)
H5 H 0.4381 0.3632 0.1717
C7 C 0.5557(3) 0.2512(2) 0.13844(6)
H6 H 0.6355 0.2553 0.1525
C8 C 0.8985(2) 0.12544(19) 0.12799(5)
C9 C 0.9965(2) 0.0981(3) 0.15749(6)
H7 H 1.0790 0.1540 0.1544
H8 H 1.0217 0.0009 0.1576
H9 H 0.9525 0.1215 0.1797
C10 C 0.6662(3) -0.0189(2) 0.07075(6)
H10 H 0.6011 -0.0788 0.0828
H11 H 0.7519 -0.0687 0.0666
H12 H 0.6272 0.0103 0.0484
C11 C 0.8511(6) 0.2761(5) 0.01517(11)
C12 C 0.8523(6) 0.4074(4) 0.03811(12)
C13 C 0.777(2) 0.5352(18) 0.0235(4)
H13 H 0.6846 0.5093 0.0161
H14 H 0.8281 0.5715 0.0035
H15 H 0.7712 0.6055 0.0417
C14 C 0.9999(5) 0.4536(5) 0.04943(13)
H16 H 0.9936 0.5372 0.0635
H17 H 1.0554 0.4715 0.0286
H18 H 1.0428 0.3808 0.0632
C15 C 0.9781(9) 0.2656(8) -0.01136(19)
H19 H 0.9732 0.1788 -0.0241
H20 H 1.0642 0.2697 0.0018
H21 H 0.9745 0.3421 -0.0279
C16 C 0.7170(7) 0.2483(7) -0.00383(14)
H22 H 0.7252 0.1634 -0.0173
H23 H 0.6967 0.3247 -0.0196
H24 H 0.6427 0.2388 0.0132
O4 O 0.9014(3) -0.0986(3) 0.0000
H25 H 0.8938 -0.0221 0.0115
H25F H 0.9779 -0.1062 -0.0115
C17? C 0.8953(6) 0.2951(5) 0.02026(13)
C18? C 0.7695(7) 0.3985(5) 0.03126(12)
C19? C 0.804(3) 0.546(2) 0.0265(4)
H26? H 0.7249 0.6025 0.0333
H27? H 0.8258 0.5634 0.0019
H28? H 0.8827 0.5699 0.0410
C20? C 0.6326(6) 0.3592(6) 0.01338(11)
H29? H 0.5611 0.4242 0.0203
H30? H 0.6061 0.2665 0.0205
H31? H 0.6442 0.3621 -0.0120
C21? C 0.8839(11) 0.2595(9) -0.01904(16)
H32? H 0.9576 0.1961 -0.0255
H33? H 0.8920 0.3436 -0.0329
H34? H 0.7950 0.2165 -0.0236
C22? C 1.0334(6) 0.3519(6) 0.02967(16)
H35? H 1.1047 0.2861 0.0231
H36? H 1.0373 0.3685 0.0548
H37? H 1.0483 0.4383 0.0172
loop_
_geom_bond_atom_site_label_1
_geom_bond_atom_site_label_2
_geom_bond_site_symmetry_1
_geom_bond_site_symmetry_2
O1 B1 1_555 1_555
O2 B1 1_555 1_555
O3 B1 1_555 1_555
N1 H1 1_555 1_555
B1 C1 1_555 1_555
C1 N1 1_555 1_555
C2 C1 1_555 1_555
C3 C2 1_555 1_555
H2 C3 1_555 1_555
C4 C3 1_555 1_555
H3 C4 1_555 1_555
C5 C4 1_555 1_555
H4 C5 1_555 1_555
C6 C5 1_555 1_555
H5 C6 1_555 1_555
C7 C2 1_555 1_555
H6 C7 1_555 1_555
C8 O1 1_555 1_555
C9 C8 1_555 1_555
H7 C9 1_555 1_555
H8 C9 1_555 1_555
H9 C9 1_555 1_555
C10 C1 1_555 1_555
H10 C10 1_555 1_555
H11 C10 1_555 1_555
H12 C10 1_555 1_555
C11 O2 1_555 1_555
C12 O3 1_555 1_555
C13 C12 1_555 1_555
H13 C13 1_555 1_555
H14 C13 1_555 1_555
H15 C13 1_555 1_555
C14 C12 1_555 1_555
H16 C14 1_555 1_555
H17 C14 1_555 1_555
H18 C14 1_555 1_555
C15 C11 1_555 1_555
H19 C15 1_555 1_555
H20 C15 1_555 1_555
H21 C15 1_555 1_555
C16 C11 1_555 1_555
H22 C16 1_555 1_555
H23 C16 1_555 1_555
H24 C16 1_555 1_555
O4 H25 1_555 1_555
H25F O4 1_555 1_555
N1 C8 1_555 1_555
C6 C7 1_555 1_555
C11 C12 1_555 1_555

#END
