
#######################################################################
#
#                 Cambridge Crystallographic Data Centre
#                                CCDC 
#
#######################################################################
#
# If this CIF has been generated from an entry in the Cambridge 
# Structural Database, then it will include bibliographic, chemical, 
# crystal, experimental, refinement or atomic coordinate data resulting 
# from the CCDC's data processing and validation procedures.
#
#######################################################################

data_YUNLOI
_chemical_formula_moiety         'C33 H32 O5'
_chemical_name_systematic        25-Acetoxy-26,27,28-trimethoxycalix(4)arene
_symmetry_cell_setting           monoclinic
_symmetry_space_group_name_H-M   'P 21/n'
_symmetry_Int_Tables_number      14
_space_group_name_Hall           '-P 2yn'
loop_
_symmetry_equiv_pos_site_id
_symmetry_equiv_pos_as_xyz
1 x,y,z
2 1/2-x,1/2+y,1/2-z
3 -x,-y,-z
4 1/2+x,1/2-y,1/2+z
_cell_length_a                   8.186(1)
_cell_length_b                   17.137(2)
_cell_length_c                   19.878(3)
_cell_angle_alpha                90
_cell_angle_beta                 95.67(1)
_cell_angle_gamma                90
_cell_volume                     2774.91
_exptl_crystal_colour            colorless
_chemical_melting_point          '238-240 deg.C'
_cell_formula_units_Z            4
loop_
_atom_site_label
_atom_site_type_symbol
_atom_site_fract_x
_atom_site_fract_y
_atom_site_fract_z
O1 O -0.0263(2) 0.3189(1) 0.5487(1)
O2 O -0.2226(2) 0.3487(1) 0.4667(1)
C1 C 0.0947(2) 0.3483(1) 0.5095(1)
C2 C 0.1600(3) 0.4212(1) 0.5271(1)
C3 C 0.2832(3) 0.4497(2) 0.4904(1)
C4 C 0.3388(3) 0.4065(2) 0.4389(1)
C5 C 0.2737(3) 0.3345(2) 0.4236(1)
C6 C 0.1491(3) 0.3028(1) 0.4593(1)
C7 C 0.0852(3) 0.2209(2) 0.4467(1)
C8 C -0.1852(3) 0.3256(1) 0.5225(1)
C9 C -0.3004(3) 0.3012(2) 0.5716(1)
O3 O -0.0814(2) 0.4049(1) 0.6915(1)
C10 C 0.0879(2) 0.3961(1) 0.6996(1)
C11 C 0.1576(3) 0.3530(1) 0.7550(1)
C12 C 0.3278(3) 0.3478(1) 0.7641(1)
C13 C 0.4238(3) 0.3818(1) 0.7197(1)
C14 C 0.3524(3) 0.4199(1) 0.6638(1)
C15 C 0.1825(2) 0.4274(1) 0.6521(1)
C16 C 0.1068(3) 0.4646(1) 0.5872(1)
C17 C -0.1338(4) 0.4773(2) 0.7169(2)
O4 O 0.1950(2) 0.1771(1) 0.7415(1)
C18 C 0.0249(3) 0.1825(1) 0.7342(1)
C19 C -0.0651(3) 0.1263(1) 0.6955(1)
C20 C -0.2354(3) 0.1320(2) 0.6908(2)
C21 C -0.3128(4) 0.1915(2) 0.7218(1)
C22 C -0.2206(3) 0.2479(2) 0.7574(1)
C23 C -0.0492(3) 0.2455(1) 0.7638(1)
C24 C 0.0513(3) 0.3094(2) 0.8003(1)
C25 C 0.2591(5) 0.1357(2) 0.8007(2)
O5 O -0.1126(2) 0.1402(1) 0.5378(1)
C26 C 0.0568(3) 0.1323(1) 0.5485(1)
C27 C 0.1550(3) 0.1666(1) 0.5025(1)
C28 C 0.3227(3) 0.1539(2) 0.5126(2)
C29 C 0.3906(4) 0.1111(2) 0.5665(2)
C30 C 0.2937(4) 0.0817(2) 0.6130(2)
C31 C 0.1234(3) 0.0924(1) 0.6057(1)
C32 C 0.0184(4) 0.0629(1) 0.6581(2)
C33 C -0.1857(4) 0.0847(2) 0.4900(2)
loop_
_geom_bond_atom_site_label_1
_geom_bond_atom_site_label_2
_geom_bond_site_symmetry_1
_geom_bond_site_symmetry_2
O1 C1 1_555 1_555
O2 C8 1_555 1_555
C1 C2 1_555 1_555
C2 C3 1_555 1_555
C3 C4 1_555 1_555
C4 C5 1_555 1_555
C5 C6 1_555 1_555
C6 C1 1_555 1_555
C7 C6 1_555 1_555
C8 O1 1_555 1_555
C9 C8 1_555 1_555
O3 C10 1_555 1_555
C10 C11 1_555 1_555
C11 C12 1_555 1_555
C12 C13 1_555 1_555
C13 C14 1_555 1_555
C14 C15 1_555 1_555
C15 C10 1_555 1_555
C16 C2 1_555 1_555
C17 O3 1_555 1_555
O4 C18 1_555 1_555
C18 C19 1_555 1_555
C19 C20 1_555 1_555
C20 C21 1_555 1_555
C21 C22 1_555 1_555
C22 C23 1_555 1_555
C23 C18 1_555 1_555
C24 C11 1_555 1_555
C25 O4 1_555 1_555
O5 C26 1_555 1_555
C26 C27 1_555 1_555
C27 C7 1_555 1_555
C28 C27 1_555 1_555
C29 C28 1_555 1_555
C30 C29 1_555 1_555
C31 C26 1_555 1_555
C32 C19 1_555 1_555
C33 O5 1_555 1_555
C15 C16 1_555 1_555
C23 C24 1_555 1_555
C30 C31 1_555 1_555
C31 C32 1_555 1_555

#END
