
#######################################################################
#
#                 Cambridge Crystallographic Data Centre
#                                CCDC 
#
#######################################################################
#
# If this CIF has been generated from an entry in the Cambridge 
# Structural Database, then it will include bibliographic, chemical, 
# crystal, experimental, refinement or atomic coordinate data resulting 
# from the CCDC's data processing and validation procedures.
#
#######################################################################

data_YUNMEB
_chemical_formula_moiety         'C39 H33 N3 O2,C4 H8 O2'
_chemical_name_systematic        
"2-(1,1'-dibenzyl-2'-oxo-1',2'-dihydro-1H,3'H-3,3'-biindol-3'-yl)-N-phenylpropanamide ethyl acetate solvate"
_symmetry_cell_setting           monoclinic
_symmetry_space_group_name_H-M   'P 21/c'
_symmetry_Int_Tables_number      14
_space_group_name_Hall           '-P 2ybc'
loop_
_symmetry_equiv_pos_site_id
_symmetry_equiv_pos_as_xyz
1 x,y,z
2 -x,1/2+y,1/2-z
3 -x,-y,-z
4 x,1/2-y,1/2+z
_cell_length_a                   31.617(14)
_cell_length_b                   15.428(7)
_cell_length_c                   14.478(6)
_cell_angle_alpha                90
_cell_angle_beta                 101.899(5)
_cell_angle_gamma                90
_cell_volume                     6910.43
_exptl_crystal_colour            colorless
_exptl_crystal_description       block
_cell_formula_units_Z            8
loop_
_atom_site_label
_atom_site_type_symbol
_atom_site_fract_x
_atom_site_fract_y
_atom_site_fract_z
C1 C 0.30862(14) 0.7448(3) 0.3947(4)
H1 H 0.3098 0.6878 0.3707
C2 C 0.29479(15) 0.7575(4) 0.4779(4)
H2 H 0.2872 0.7092 0.5117
C3 C 0.29198(16) 0.8403(4) 0.5125(4)
H3 H 0.2822 0.8486 0.5696
C4 C 0.30329(16) 0.9105(4) 0.4645(4)
H4 H 0.3012 0.9676 0.4879
C5 C 0.31802(16) 0.8971(3) 0.3805(4)
H5 H 0.3262 0.9454 0.3474
C6 C 0.32080(15) 0.8148(3) 0.3457(4)
C7 C 0.33443(15) 0.7998(3) 0.2529(4)
H6 H 0.3111 0.7683 0.2097
H7 H 0.3382 0.8566 0.2238
C8 C 0.41722(15) 0.7839(3) 0.2913(4)
C9 C 0.42973(17) 0.8663(3) 0.3232(4)
H8 H 0.4092 0.9102 0.3282
C10 C 0.47393(17) 0.8815(3) 0.3475(4)
H9 H 0.4838 0.9373 0.3699
C11 C 0.50385(16) 0.8186(3) 0.3403(4)
H10 H 0.5338 0.8316 0.3572
C12 C 0.49042(14) 0.7352(3) 0.3081(3)
H11 H 0.5109 0.6916 0.3022
C13 C 0.44655(15) 0.7184(3) 0.2851(3)
C14 C 0.42305(14) 0.6348(3) 0.2516(4)
C15 C 0.37543(15) 0.6635(3) 0.2447(3)
C16 C 0.43526(14) 0.5628(3) 0.3228(3)
C17 C 0.46072(15) 0.4931(3) 0.3157(4)
H12 H 0.4739 0.4818 0.2635
C18 C 0.44225(15) 0.4787(3) 0.4551(4)
C19 C 0.42390(15) 0.5563(3) 0.4139(4)
C20 C 0.40081(15) 0.6091(3) 0.4658(4)
H13 H 0.389 0.6627 0.4405
C21 C 0.39565(17) 0.5823(3) 0.5525(4)
H14 H 0.3799 0.6176 0.5874
C22 C 0.41316(18) 0.5035(3) 0.5912(4)
H15 H 0.4089 0.4863 0.6516
C23 C 0.43627(17) 0.4508(3) 0.5433(4)
H16 H 0.4478 0.3972 0.5692
C24 C 0.48666(16) 0.3589(3) 0.4058(4)
H17 H 0.5006 0.3515 0.4732
H18 H 0.5097 0.3589 0.3689
C25 C 0.45710(16) 0.2827(3) 0.3752(4)
C26 C 0.46948(17) 0.2005(3) 0.4099(4)
H19 H 0.4954 0.1934 0.4559
C27 C 0.44416(18) 0.1286(3) 0.3777(4)
H20 H 0.4527 0.0727 0.4024
C28 C 0.40689(19) 0.1381(3) 0.3104(4)
H21 H 0.3899 0.0888 0.2876
C29 C 0.39407(18) 0.2196(3) 0.2758(4)
H22 H 0.368 0.2262 0.23
C30 C 0.41908(16) 0.2917(3) 0.3077(4)
H23 H 0.4102 0.3475 0.2833
C31 C 0.43087(15) 0.6091(3) 0.1531(3)
H24 H 0.463 0.6087 0.1601
C32 C 0.41459(16) 0.6781(3) 0.0775(4)
H25 H 0.383 0.6807 0.0655
H26 H 0.4239 0.663 0.019
H27 H 0.4266 0.7348 0.0998
C33 C 0.41594(15) 0.5204(3) 0.1125(4)
C34 C 0.35687(15) 0.4110(3) 0.0996(4)
C35 C 0.37001(17) 0.3530(3) 0.0375(4)
H28 H 0.395 0.3646 0.0126
C36 C 0.34639(18) 0.2786(3) 0.0125(4)
H29 H 0.3556 0.2389 -0.0294
C37 C 0.31007(18) 0.2601(4) 0.0460(4)
H30 H 0.2941 0.2085 0.0277
C38 C 0.29716(18) 0.3186(3) 0.1075(4)
H31 H 0.2722 0.3064 0.1321
C39 C 0.31964(17) 0.3933(3) 0.1334(4)
H32 H 0.3099 0.4332 0.1744
N1 N 0.37475(12) 0.7503(3) 0.2630(3)
N2 N 0.46480(13) 0.4414(2) 0.3940(3)
N3 N 0.37822(13) 0.4899(2) 0.1290(3)
H33 H 0.365 0.5239 0.1628
O1 O 0.34315(10) 0.6176(2) 0.2262(2)
O2 O 0.43754(11) 0.4830(2) 0.0636(3)
C40 C 0.20352(14) 0.7385(3) 0.5784(4)
H34 H 0.2026 0.6819 0.5521
C41 C 0.21833(15) 0.7498(4) 0.6747(4)
H35 H 0.2269 0.7011 0.7142
C42 C 0.22062(16) 0.8314(4) 0.7126(4)
H36 H 0.2316 0.8391 0.7783
C43 C 0.20718(16) 0.9021(4) 0.6568(4)
H37 H 0.2085 0.9585 0.6835
C44 C 0.19174(16) 0.8903(3) 0.5610(4)
H38 H 0.1821 0.9391 0.5225
C45 C 0.19001(15) 0.8089(3) 0.5200(4)
C46 C 0.17676(15) 0.7976(3) 0.4151(4)
H39 H 0.1744 0.8554 0.3849
H40 H 0.1996 0.765 0.3925
C47 C 0.09421(15) 0.7899(3) 0.3753(4)
C48 C 0.08434(16) 0.8749(3) 0.3947(4)
H41 H 0.1062 0.9162 0.4179
C49 C 0.04033(17) 0.8962(3) 0.3782(4)
H42 H 0.0321 0.9534 0.3915
C50 C 0.00840(16) 0.8360(3) 0.3430(4)
H43 H -0.0212 0.8527 0.3316
C51 C 0.01947(15) 0.7512(3) 0.3243(3)
H44 H -0.0022 0.7096 0.3006
C52 C 0.06286(15) 0.7289(3) 0.3411(4)
C53 C 0.08382(14) 0.6434(3) 0.3262(3)
C54 C 0.13231(15) 0.6659(3) 0.3620(3)
C55 C 0.06942(14) 0.5713(3) 0.3830(4)
C56 C 0.03938(14) 0.5093(3) 0.3507(4)
H45 H 0.0243 0.5039 0.287
C57 C 0.06086(14) 0.4826(3) 0.5048(4)
C58 C 0.08277(15) 0.5570(3) 0.4828(4)
C59 C 0.11059(15) 0.6003(3) 0.5571(4)
H46 H 0.1249 0.652 0.5454
C60 C 0.11663(17) 0.5665(3) 0.6467(4)
H47 H 0.1356 0.5953 0.6968
C61 C 0.09553(16) 0.4907(3) 0.6663(4)
H48 H 0.1007 0.4683 0.7288
C62 C 0.06722(16) 0.4483(3) 0.5949(4)
H49 H 0.0526 0.3972 0.6074
C63 C 0.00692(15) 0.3785(3) 0.4131(4)
H50 H -0.0158 0.3838 0.3551
H51 H -0.0076 0.375 0.4674
C64 C 0.03174(15) 0.2955(3) 0.4079(4)
C65 C 0.06735(16) 0.2926(3) 0.3651(4)
H52 H 0.078 0.3445 0.3428
C66 C 0.08734(17) 0.2141(3) 0.3551(4)
H53 H 0.1115 0.2122 0.3255
C67 C 0.07203(17) 0.1385(3) 0.3883(4)
H54 H 0.0854 0.0846 0.3804
C68 C 0.03768(16) 0.1415(3) 0.4326(4)
H55 H 0.0277 0.0899 0.4568
C69 C 0.01757(15) 0.2195(3) 0.4419(4)
H56 H -0.0064 0.2209 0.4721
C70 C 0.07428(15) 0.6230(3) 0.2184(3)
H57 H 0.0424 0.6308 0.1967
C71 C 0.09479(16) 0.6886(3) 0.1615(4)
H58 H 0.1263 0.6866 0.182
H59 H 0.0844 0.747 0.1719
H60 H 0.0867 0.6743 0.0942
C72 C 0.08370(15) 0.5318(3) 0.1870(4)
C73 C 0.13796(15) 0.4133(3) 0.2148(4)
C74 C 0.17757(17) 0.3902(3) 0.2715(4)
H61 H 0.1924 0.4303 0.3166
C75 C 0.19534(18) 0.3100(3) 0.2626(5)
H62 H 0.2226 0.2956 0.3009
C76 C 0.17384(18) 0.2496(3) 0.1982(4)
H63 H 0.1857 0.1936 0.1938
C77 C 0.13462(18) 0.2727(3) 0.1404(4)
H64 H 0.12 0.2327 0.0949
C78 C 0.11669(17) 0.3540(3) 0.1490(4)
H65 H 0.0898 0.369 0.1097
N4 N 0.13568(12) 0.7519(2) 0.3853(3)
N5 N 0.03385(12) 0.4556(2) 0.4230(3)
N6 N 0.12191(12) 0.4959(2) 0.2291(3)
H66 H 0.1389 0.5286 0.2708
O3 O 0.16278(10) 0.61661(19) 0.3668(2)
O4 O 0.05721(11) 0.4961(2) 0.1246(3)
C79 C 0.1878(2) 0.4416(6) 0.5246(6)
H67 H 0.1763 0.4559 0.5805
H68 H 0.1905 0.3785 0.52
H69 H 0.1683 0.4635 0.468
C80 C 0.2315(3) 0.4826(4) 0.5329(5)
C81 C 0.2945(2) 0.4849(4) 0.4658(5)
H70 H 0.3155 0.4639 0.5216
H71 H 0.2941 0.549 0.4673
C82 C 0.3066(2) 0.4535(4) 0.3770(5)
H72 H 0.3064 0.39 0.376
H73 H 0.3356 0.4745 0.3745
H74 H 0.2858 0.4756 0.3223
O5 O 0.2488(2) 0.5358(3) 0.5899(4)
O6 O 0.25159(13) 0.4507(2) 0.4663(3)
C83 C 0.1899(2) 0.3688(4) 0.9816(5)
H75 H 0.2119 0.3844 1.0372
H76 H 0.1919 0.3067 0.9687
H77 H 0.1611 0.3817 0.9935
C84 C 0.19694(19) 0.4196(4) 0.8986(5)
C85 C 0.2433(2) 0.4394(4) 0.7919(5)
H78 H 0.2503 0.5003 0.8106
H79 H 0.2189 0.4391 0.7367
C86 C 0.2819(2) 0.3952(4) 0.7681(6)
H80 H 0.3054 0.394 0.824
H81 H 0.2913 0.427 0.7173
H82 H 0.2741 0.3358 0.7474
O7 O 0.17435(14) 0.4778(3) 0.8632(3)
O8 O 0.23207(13) 0.3917(3) 0.8695(3)
loop_
_geom_bond_atom_site_label_1
_geom_bond_atom_site_label_2
_geom_bond_site_symmetry_1
_geom_bond_site_symmetry_2
C1 H1 1_555 1_555
C2 C1 1_555 1_555
H2 C2 1_555 1_555
C3 C2 1_555 1_555
H3 C3 1_555 1_555
C4 C3 1_555 1_555
H4 C4 1_555 1_555
C5 C4 1_555 1_555
H5 C5 1_555 1_555
C6 C1 1_555 1_555
C7 C6 1_555 1_555
H6 C7 1_555 1_555
H7 C7 1_555 1_555
C8 C9 1_555 1_555
C9 H8 1_555 1_555
C10 C9 1_555 1_555
H9 C10 1_555 1_555
C11 C10 1_555 1_555
H10 C11 1_555 1_555
C12 C11 1_555 1_555
H11 C12 1_555 1_555
C13 C8 1_555 1_555
C14 C13 1_555 1_555
C15 C14 1_555 1_555
C16 C14 1_555 1_555
C17 C16 1_555 1_555
H12 C17 1_555 1_555
C18 C19 1_555 1_555
C19 C16 1_555 1_555
C20 C19 1_555 1_555
H13 C20 1_555 1_555
C21 C20 1_555 1_555
H14 C21 1_555 1_555
C22 C21 1_555 1_555
H15 C22 1_555 1_555
C23 C18 1_555 1_555
H16 C23 1_555 1_555
C24 H17 1_555 1_555
H18 C24 1_555 1_555
C25 C24 1_555 1_555
C26 C25 1_555 1_555
H19 C26 1_555 1_555
C27 C26 1_555 1_555
H20 C27 1_555 1_555
C28 C27 1_555 1_555
H21 C28 1_555 1_555
C29 C28 1_555 1_555
H22 C29 1_555 1_555
C30 C25 1_555 1_555
H23 C30 1_555 1_555
C31 C14 1_555 1_555
H24 C31 1_555 1_555
C32 C31 1_555 1_555
H25 C32 1_555 1_555
H26 C32 1_555 1_555
H27 C32 1_555 1_555
C33 C31 1_555 1_555
C34 C35 1_555 1_555
C35 H28 1_555 1_555
C36 C35 1_555 1_555
H29 C36 1_555 1_555
C37 C36 1_555 1_555
H30 C37 1_555 1_555
C38 C37 1_555 1_555
H31 C38 1_555 1_555
C39 C34 1_555 1_555
H32 C39 1_555 1_555
N1 C7 1_555 1_555
N2 C17 1_555 1_555
N3 C33 1_555 1_555
H33 N3 1_555 1_555
O1 C15 1_555 1_555
O2 C33 1_555 1_555
C40 H34 1_555 1_555
C41 C40 1_555 1_555
H35 C41 1_555 1_555
C42 C41 1_555 1_555
H36 C42 1_555 1_555
C43 C42 1_555 1_555
H37 C43 1_555 1_555
C44 C43 1_555 1_555
H38 C44 1_555 1_555
C45 C40 1_555 1_555
C46 C45 1_555 1_555
H39 C46 1_555 1_555
H40 C46 1_555 1_555
C47 C48 1_555 1_555
C48 H41 1_555 1_555
C49 C48 1_555 1_555
H42 C49 1_555 1_555
C50 C49 1_555 1_555
H43 C50 1_555 1_555
C51 C50 1_555 1_555
H44 C51 1_555 1_555
C52 C47 1_555 1_555
C53 C52 1_555 1_555
C54 C53 1_555 1_555
C55 C53 1_555 1_555
C56 C55 1_555 1_555
H45 C56 1_555 1_555
C57 C58 1_555 1_555
C58 C55 1_555 1_555
C59 C58 1_555 1_555
H46 C59 1_555 1_555
C60 C59 1_555 1_555
H47 C60 1_555 1_555
C61 C60 1_555 1_555
H48 C61 1_555 1_555
C62 C57 1_555 1_555
H49 C62 1_555 1_555
C63 H50 1_555 1_555
H51 C63 1_555 1_555
C64 C63 1_555 1_555
C65 C64 1_555 1_555
H52 C65 1_555 1_555
C66 C65 1_555 1_555
H53 C66 1_555 1_555
C67 C66 1_555 1_555
H54 C67 1_555 1_555
C68 C67 1_555 1_555
H55 C68 1_555 1_555
C69 C64 1_555 1_555
H56 C69 1_555 1_555
C70 C53 1_555 1_555
H57 C70 1_555 1_555
C71 C70 1_555 1_555
H58 C71 1_555 1_555
H59 C71 1_555 1_555
H60 C71 1_555 1_555
C72 C70 1_555 1_555
C73 C74 1_555 1_555
C74 H61 1_555 1_555
C75 C74 1_555 1_555
H62 C75 1_555 1_555
C76 C75 1_555 1_555
H63 C76 1_555 1_555
C77 C76 1_555 1_555
H64 C77 1_555 1_555
C78 C73 1_555 1_555
H65 C78 1_555 1_555
N4 C46 1_555 1_555
N5 C56 1_555 1_555
N6 C72 1_555 1_555
H66 N6 1_555 1_555
O3 C54 1_555 1_555
O4 C72 1_555 1_555
C79 H67 1_555 1_555
H68 C79 1_555 1_555
H69 C79 1_555 1_555
C80 C79 1_555 1_555
C81 H70 1_555 1_555
H71 C81 1_555 1_555
C82 C81 1_555 1_555
H72 C82 1_555 1_555
H73 C82 1_555 1_555
H74 C82 1_555 1_555
O5 C80 1_555 1_555
O6 C80 1_555 1_555
C83 H75 1_555 1_555
H76 C83 1_555 1_555
H77 C83 1_555 1_555
C84 C83 1_555 1_555
C85 H78 1_555 1_555
H79 C85 1_555 1_555
C86 C85 1_555 1_555
H80 C86 1_555 1_555
H81 C86 1_555 1_555
H82 C86 1_555 1_555
O7 C84 1_555 1_555
O8 C84 1_555 1_555
C5 C6 1_555 1_555
C8 N1 1_555 1_555
C12 C13 1_555 1_555
C15 N1 1_555 1_555
C18 N2 1_555 1_555
C22 C23 1_555 1_555
C24 N2 1_555 1_555
C29 C30 1_555 1_555
C34 N3 1_555 1_555
C38 C39 1_555 1_555
C44 C45 1_555 1_555
C47 N4 1_555 1_555
C51 C52 1_555 1_555
C54 N4 1_555 1_555
C57 N5 1_555 1_555
C61 C62 1_555 1_555
C63 N5 1_555 1_555
C68 C69 1_555 1_555
C73 N6 1_555 1_555
C77 C78 1_555 1_555
C81 O6 1_555 1_555
C85 O8 1_555 1_555

#END
