
#######################################################################
#
#                 Cambridge Crystallographic Data Centre
#                                CCDC 
#
#######################################################################
#
# If this CIF has been generated from an entry in the Cambridge 
# Structural Database, then it will include bibliographic, chemical, 
# crystal, experimental, refinement or atomic coordinate data resulting 
# from the CCDC's data processing and validation procedures.
#
#######################################################################

data_YUNNEB
_chemical_formula_moiety         'C26 H12 S8'
_chemical_name_systematic        
trans-2,2'-(1,2-Ethenediyl)bis(5-(2-thienyl)dithieno[2,3-b:3',2'-d]thiophene)
_symmetry_cell_setting           triclinic
_symmetry_space_group_name_H-M   'P -1'
_symmetry_Int_Tables_number      2
_space_group_name_Hall           '-P 1'
loop_
_symmetry_equiv_pos_site_id
_symmetry_equiv_pos_as_xyz
1 x,y,z
2 -x,-y,-z
_cell_length_a                   6.0327(12)
_cell_length_b                   13.627(3)
_cell_length_c                   15.260(3)
_cell_angle_alpha                107.89(3)
_cell_angle_beta                 96.87(3)
_cell_angle_gamma                91.74(3)
_cell_volume                     1182.27
_chemical_melting_point          '330 deg.C'
_cell_formula_units_Z            2
_exptl_crystal_recrystallization_method chlorobenzene
loop_
_atom_site_label
_atom_site_type_symbol
_atom_site_fract_x
_atom_site_fract_y
_atom_site_fract_z
S1 S 1.1410(3) 0.32360(14) 0.78343(15)
S2 S 0.7006(3) 0.06213(12) 0.59767(12)
S3 S 0.2740(3) -0.05552(12) 0.63179(13)
S4 S 0.0350(3) -0.05459(12) 0.80461(13)
C1 C 1.3585(12) 0.3452(5) 0.7282(6)
H1 H 1.4696 0.3986 0.7540
C2 C 1.3506(11) 0.2757(5) 0.6431(5)
H2 H 1.4571 0.2765 0.6039
C3 C 1.1635(10) 0.2006(5) 0.6182(5)
H3 H 1.1312 0.1489 0.5612
C4 C 1.0370(10) 0.2160(5) 0.6911(5)
C5 C 0.8390(11) 0.1549(5) 0.6983(5)
C6 C 0.7423(10) 0.1594(5) 0.7737(5)
H4 H 0.7947 0.2037 0.8329
C7 C 0.5484(10) 0.0880(5) 0.7532(5)
C8 C 0.5099(10) 0.0310(5) 0.6622(5)
C9 C 0.2308(10) -0.0133(4) 0.7470(5)
C10 C 0.3863(10) 0.0598(5) 0.8053(5)
C11 C 0.3525(11) 0.0849(5) 0.9000(5)
H5 H 0.4426 0.1334 0.9487
C12 C 0.1693(11) 0.0282(5) 0.9109(5)
C13 C 0.0866(12) 0.0300(5) 0.9961(6)
H6 H 0.1597 0.0768 1.0508
S1A S -1.1410(3) -0.32360(14) 1.21657(15)
S2A S -0.7006(3) -0.06213(12) 1.40233(12)
S3A S -0.2740(3) 0.05552(12) 1.36821(13)
S4A S -0.0350(3) 0.05459(12) 1.19539(13)
C1A C -1.3585(12) -0.3452(5) 1.2718(6)
H1A H -1.4696 -0.3986 1.2460
C2A C -1.3506(11) -0.2757(5) 1.3569(5)
H2A H -1.4571 -0.2765 1.3961
C3A C -1.1635(10) -0.2006(5) 1.3818(5)
H3A H -1.1312 -0.1489 1.4388
C4A C -1.0370(10) -0.2160(5) 1.3089(5)
C5A C -0.8390(11) -0.1549(5) 1.3017(5)
C6A C -0.7423(10) -0.1594(5) 1.2263(5)
H4A H -0.7947 -0.2037 1.1671
C7A C -0.5484(10) -0.0880(5) 1.2468(5)
C8A C -0.5099(10) -0.0310(5) 1.3378(5)
C9A C -0.2308(10) 0.0133(4) 1.2530(5)
C10A C -0.3863(10) -0.0598(5) 1.1947(5)
C11A C -0.3525(11) -0.0849(5) 1.1000(5)
H5A H -0.4426 -0.1334 1.0513
C12A C -0.1693(11) -0.0282(5) 1.0891(5)
C13A C -0.0866(12) -0.0300(5) 1.0039(6)
H6A H -0.1597 -0.0768 0.9492
S5 S 0.4692(4) 0.59212(17) 0.94645(17)
S6 S 0.4861(3) 0.77979(12) 0.76044(13)
S7 S 0.7781(3) 0.78098(12) 0.60297(12)
S8 S 1.1779(3) 0.65839(12) 0.51713(12)
C14 C 0.2374(14) 0.6206(6) 1.0010(6)
H7 H 0.1953 0.5902 1.0440
C15 C 0.1245(12) 0.6911(6) 0.9751(6)
H8 H -0.0040 0.7166 0.9993
C16 C 0.2178(10) 0.7240(5) 0.9066(5)
H9 H 0.1572 0.7725 0.8808
C17 C 0.4087(11) 0.6755(5) 0.8835(5)
C18 C 0.5428(10) 0.6859(5) 0.8133(5)
C19 C 0.7140(10) 0.6278(5) 0.7787(5)
H10 H 0.7666 0.5738 0.7988
C20 C 0.8005(10) 0.6600(5) 0.7088(5)
C21 C 0.6885(10) 0.7386(5) 0.6908(5)
C22 C 0.9763(9) 0.6894(5) 0.5892(5)
C23 C 0.9733(10) 0.6304(5) 0.6484(5)
C24 C 1.1374(10) 0.5570(5) 0.6330(5)
H11 H 1.1582 0.5099 0.6658
C25 C 1.2603(10) 0.5618(4) 0.5661(5)
C26 C 1.4403(9) 0.4979(4) 0.5341(5)
H12 H 1.4903 0.4572 0.5704
S5A S 2.5308(4) 0.40788(17) 0.05355(17)
S6A S 2.5139(3) 0.22021(12) 0.23956(13)
S7A S 2.2219(3) 0.21902(12) 0.39703(12)
S8A S 1.8221(3) 0.34161(12) 0.48287(12)
C14A C 2.7626(14) 0.3794(6) -0.0010(6)
H7A H 2.8047 0.4098 -0.0440
C15A C 2.8755(12) 0.3089(6) 0.0249(6)
H8A H 3.0040 0.2834 0.0007
C16A C 2.7822(10) 0.2760(5) 0.0934(5)
H9A H 2.8428 0.2275 0.1192
C17A C 2.5913(11) 0.3245(5) 0.1165(5)
C18A C 2.4572(10) 0.3141(5) 0.1867(5)
C19A C 2.2860(10) 0.3722(5) 0.2213(5)
H10A H 2.2334 0.4262 0.2012
C20A C 2.1995(10) 0.3400(5) 0.2912(5)
C21A C 2.3115(10) 0.2614(5) 0.3092(5)
C22A C 2.0237(9) 0.3106(5) 0.4108(5)
C23A C 2.0267(10) 0.3696(5) 0.3516(5)
C24A C 1.8626(10) 0.4430(5) 0.3670(5)
H11A H 1.8418 0.4901 0.3342
C25A C 1.7397(10) 0.4382(4) 0.4339(5)
C26A C 1.5597(9) 0.5021(4) 0.4659(5)
H12A H 1.5097 0.5428 0.4296
loop_
_geom_bond_atom_site_label_1
_geom_bond_atom_site_label_2
_geom_bond_site_symmetry_1
_geom_bond_site_symmetry_2
S1 C1 1_555 1_555
S2 C5 1_555 1_555
S3 C8 1_555 1_555
S4 C9 1_555 1_555
S5 C14 1_555 1_555
S6 C18 1_555 1_555
S7 C21 1_555 1_555
S8 C22 1_555 1_555
C1 H1 1_555 1_555
C2 C1 1_555 1_555
H2 C2 1_555 1_555
C3 C2 1_555 1_555
H3 C3 1_555 1_555
C4 S1 1_555 1_555
C5 C4 1_555 1_555
C6 C5 1_555 1_555
H4 C6 1_555 1_555
C7 C6 1_555 1_555
C8 S2 1_555 1_555
C9 S3 1_555 1_555
C10 C7 1_555 1_555
C11 C10 1_555 1_555
H5 C11 1_555 1_555
C12 S4 1_555 1_555
C13 C12 1_555 1_555
H6 C13 1_555 1_555
C14 H7 1_555 1_555
C15 C14 1_555 1_555
H8 C15 1_555 1_555
C16 C15 1_555 1_555
H9 C16 1_555 1_555
C17 S5 1_555 1_555
C18 C17 1_555 1_555
C19 C18 1_555 1_555
H10 C19 1_555 1_555
C20 C19 1_555 1_555
C21 S6 1_555 1_555
C22 S7 1_555 1_555
C23 C20 1_555 1_555
C24 C23 1_555 1_555
H11 C24 1_555 1_555
C25 S8 1_555 1_555
C26 C25 1_555 1_555
H12 C26 1_555 1_555
S1A C1A 1_555 1_555
S2A C5A 1_555 1_555
S3A C8A 1_555 1_555
S4A C9A 1_555 1_555
S5A C14A 1_555 1_555
S6A C18A 1_555 1_555
S7A C21A 1_555 1_555
S8A C22A 1_555 1_555
C1A H1A 1_555 1_555
C2A C1A 1_555 1_555
H2A C2A 1_555 1_555
C3A C2A 1_555 1_555
H3A C3A 1_555 1_555
C4A S1A 1_555 1_555
C5A C4A 1_555 1_555
C6A C5A 1_555 1_555
H4A C6A 1_555 1_555
C7A C6A 1_555 1_555
C8A S2A 1_555 1_555
C9A S3A 1_555 1_555
C10A C7A 1_555 1_555
C11A C10A 1_555 1_555
H5A C11A 1_555 1_555
C12A S4A 1_555 1_555
C13A C13 1_555 1_555
H6A C13A 1_555 1_555
C14A H7A 1_555 1_555
C15A C14A 1_555 1_555
H8A C15A 1_555 1_555
C16A C15A 1_555 1_555
H9A C16A 1_555 1_555
C17A S5A 1_555 1_555
C18A C17A 1_555 1_555
C19A C18A 1_555 1_555
H10A C19A 1_555 1_555
C20A C19A 1_555 1_555
C21A S6A 1_555 1_555
C22A S7A 1_555 1_555
C23A C20A 1_555 1_555
C24A C23A 1_555 1_555
H11A C24A 1_555 1_555
C25A S8A 1_555 1_555
C26A C26 1_555 1_555
H12A C26A 1_555 1_555
C3 C4 1_555 1_555
C7 C8 1_555 1_555
C9 C10 1_555 1_555
C11 C12 1_555 1_555
C16 C17 1_555 1_555
C20 C21 1_555 1_555
C22 C23 1_555 1_555
C24 C25 1_555 1_555
C3A C4A 1_555 1_555
C7A C8A 1_555 1_555
C9A C10A 1_555 1_555
C11A C12A 1_555 1_555
C12A C13A 1_555 1_555
C16A C17A 1_555 1_555
C20A C21A 1_555 1_555
C22A C23A 1_555 1_555
C24A C25A 1_555 1_555
C25A C26A 1_555 1_555

#END
