
#######################################################################
#
#                 Cambridge Crystallographic Data Centre
#                                CCDC 
#
#######################################################################
#
# If this CIF has been generated from an entry in the Cambridge 
# Structural Database, then it will include bibliographic, chemical, 
# crystal, experimental, refinement or atomic coordinate data resulting 
# from the CCDC's data processing and validation procedures.
#
#######################################################################

data_YUNXUC
_chemical_formula_moiety         'C20 H10 O2 S4'
_chemical_name_systematic        
'[1,4]benzodithiino[2,3-b]thianthrene-6,13-dicarbaldehyde'
_symmetry_cell_setting           monoclinic
_symmetry_space_group_name_H-M   'P 21/c'
_symmetry_Int_Tables_number      14
_space_group_name_Hall           '-P 2ybc'
loop_
_symmetry_equiv_pos_site_id
_symmetry_equiv_pos_as_xyz
1 x,y,z
2 -x,1/2+y,1/2-z
3 -x,-y,-z
4 x,1/2-y,1/2+z
_cell_length_a                   3.9761(2)
_cell_length_b                   20.6573(11)
_cell_length_c                   9.8948(6)
_cell_angle_alpha                90
_cell_angle_beta                 96.5712(18)
_cell_angle_gamma                90
_cell_volume                     807.375
_exptl_crystal_colour            red
_exptl_crystal_description       rod
_cell_formula_units_Z            2
loop_
_atom_site_label
_atom_site_type_symbol
_atom_site_fract_x
_atom_site_fract_y
_atom_site_fract_z
C1 C 0.9499(2) 0.01146(5) 0.63559(10)
C2 C 0.8408(2) 0.05776(4) 0.53680(10)
C3 C 0.8869(2) 0.04560(5) 0.40000(10)
C4 C 0.7579(3) 0.09178(5) 0.29105(11)
H1 H 0.8741 0.0949 0.2126
C5 C 0.9995(3) 0.10394(5) 0.83364(10)
C6 C 0.8955(3) 0.15063(5) 0.73617(10)
C7 C 0.9820(3) 0.21540(5) 0.76094(11)
H2 H 0.9169 0.2473 0.6939
C8 C 1.1634(3) 0.23321(5) 0.88372(12)
H3 H 1.2145 0.2775 0.9019
C9 C 1.2704(3) 0.18618(5) 0.98027(12)
H4 H 1.3957 0.1985 1.0639
C10 C 1.1941(3) 0.12131(5) 0.95434(11)
H5 H 1.2742 0.0890 1.0185
O1 O 0.5112(2) 0.12567(4) 0.29765(9)
S1 S 0.87101(7) 0.02287(2) 0.80659(3)
S2 S 0.64714(6) 0.13042(2) 0.58269(3)
C1B C 1.0501(2) -0.01146(5) 0.36441(10)
C2B C 1.1592(2) -0.05776(4) 0.46320(10)
C3B C 1.1131(2) -0.04560(5) 0.60000(10)
C4B C 1.2421(3) -0.09178(5) 0.70895(11)
H1B H 1.1259 -0.0949 0.7874
C5B C 1.0005(3) -0.10394(5) 0.16636(10)
C6B C 1.1045(3) -0.15063(5) 0.26383(10)
C7B C 1.0180(3) -0.21540(5) 0.23906(11)
H2B H 1.0831 -0.2473 0.3061
C8B C 0.8366(3) -0.23321(5) 0.11628(12)
H3B H 0.7855 -0.2775 0.0981
C9B C 0.7296(3) -0.18618(5) 0.01973(12)
H4B H 0.6043 -0.1985 -0.0639
C10B C 0.8059(3) -0.12131(5) 0.04566(11)
H5B H 0.7258 -0.0890 -0.0185
O1B O 1.4888(2) -0.12567(4) 0.70235(9)
S1B S 1.12899(7) -0.02287(2) 0.19341(3)
S2B S 1.35286(6) -0.13042(2) 0.41731(3)
loop_
_geom_bond_atom_site_label_1
_geom_bond_atom_site_label_2
_geom_bond_site_symmetry_1
_geom_bond_site_symmetry_2
C1 C2 1_555 1_555
C2 C3 1_555 1_555
C3 C4 1_555 1_555
C4 H1 1_555 1_555
C5 C6 1_555 1_555
C6 C7 1_555 1_555
C7 H2 1_555 1_555
C8 C7 1_555 1_555
H3 C8 1_555 1_555
C9 C8 1_555 1_555
H4 C9 1_555 1_555
C10 C5 1_555 1_555
H5 C10 1_555 1_555
O1 C4 1_555 1_555
S1 C1 1_555 1_555
S2 C2 1_555 1_555
C1B C3 1_555 1_555
C2B C1B 1_555 1_555
C3B C1 1_555 1_555
C4B C3B 1_555 1_555
H1B C4B 1_555 1_555
C5B C6B 1_555 1_555
C6B C7B 1_555 1_555
C7B H2B 1_555 1_555
C8B C7B 1_555 1_555
H3B C8B 1_555 1_555
C9B C8B 1_555 1_555
H4B C9B 1_555 1_555
C10B C5B 1_555 1_555
H5B C10B 1_555 1_555
O1B C4B 1_555 1_555
S1B C1B 1_555 1_555
S2B C2B 1_555 1_555
C5 S1 1_555 1_555
C6 S2 1_555 1_555
C9 C10 1_555 1_555
C2B C3B 1_555 1_555
C5B S1B 1_555 1_555
C6B S2B 1_555 1_555
C9B C10B 1_555 1_555

#END
