
#######################################################################
#
#                 Cambridge Crystallographic Data Centre
#                                CCDC 
#
#######################################################################
#
# If this CIF has been generated from an entry in the Cambridge 
# Structural Database, then it will include bibliographic, chemical, 
# crystal, experimental, refinement or atomic coordinate data resulting 
# from the CCDC's data processing and validation procedures.
#
#######################################################################

data_YUNYAI
_chemical_compound_source        'leaves of Cipadessa cinerascens'
_chemical_name_common            
'7-(3-Furyl)-18-(2-methoxy-2-oxoethyl)-1,6,17,17-tetramethyl-9,19-dioxo-3,8,13-trioxahexacyclo[13.3.1.0$2,4!.0$2,12!.0$6,11!.0$12,14!]nonadec-16-yl 2-methylbutanoate'
_chemical_formula_moiety         'C32 H40 O10'
_chemical_name_systematic        'Cineracipadesin A'
_chemical_properties_biological  
'Possible cytotoxicity. Inactive against P-388 murine leukaemia cells'
_symmetry_cell_setting           monoclinic
_symmetry_space_group_name_H-M   'P 21'
_symmetry_Int_Tables_number      4
_space_group_name_Hall           'P 2yb'
loop_
_symmetry_equiv_pos_site_id
_symmetry_equiv_pos_as_xyz
1 x,y,z
2 -x,1/2+y,-z
_cell_length_a                   16.991
_cell_length_b                   9.914
_cell_length_c                   19.319
_cell_angle_alpha                90
_cell_angle_beta                 110.71
_cell_angle_gamma                90
_cell_volume                     3043.98
_exptl_crystal_colour            colorless
_exptl_crystal_description       plate
_chemical_melting_point          '210-212 deg.C'
_cell_formula_units_Z            4
_exptl_crystal_recrystallization_method methanol/chloroform
loop_
_atom_site_label
_atom_site_type_symbol
_atom_site_fract_x
_atom_site_fract_y
_atom_site_fract_z
O1 O 0.0153(2) -0.1835(4) 0.29150(19)
O2 O -0.2251(2) -0.1687(5) 0.3005(2)
O3 O 0.2773(3) 0.2191(6) 0.1692(3)
O4 O 0.1631(3) 0.1368(6) 0.1869(3)
O5 O -0.0210(2) 0.4017(4) 0.18373(19)
O6 O -0.1042(5) 0.5540(7) 0.1119(6)
O7 O 0.1318(2) 0.5691(4) 0.4208(2)
O8 O -0.0009(2) 0.3195(4) 0.39481(17)
O9 O 0.1722(2) 0.2111(4) 0.46261(16)
O10 O 0.0044(3) -0.1253(5) 0.1792(2)
C1 C 0.1125(3) 0.4892(5) 0.3694(3)
C2 C 0.0268(3) 0.4863(5) 0.3100(3)
H1 H -0.0073 0.5597 0.3186
C3 C 0.0335(3) 0.5041(5) 0.2317(3)
H2 H 0.0129 0.5939 0.2126
C4 C 0.1235(3) 0.4866(5) 0.2325(3)
C5 C 0.1602(3) 0.3587(5) 0.2792(3)
H3 H 0.1177 0.2880 0.2600
C6 C 0.2412(3) 0.3044(6) 0.2699(3)
H4 H 0.2764 0.3809 0.2688
H5 H 0.2717 0.2516 0.3134
C7 C 0.2298(4) 0.2197(7) 0.2030(3)
C8 C 0.0396(3) 0.2356(5) 0.3552(2)
C9 C 0.1345(3) 0.2476(5) 0.3850(2)
C10 C 0.1708(3) 0.3767(5) 0.3626(2)
C11 C 0.1830(3) 0.1201(5) 0.4081(2)
H6 H 0.2391 0.1204 0.4046
C12 C 0.1421(3) -0.0135(6) 0.3996(3)
H7 H 0.1727 -0.0680 0.4424
H8 H 0.1471 -0.0573 0.3565
C13 C 0.0478(3) -0.0119(5) 0.3913(2)
C14 C 0.0027(3) 0.0956(5) 0.3349(2)
H9 H -0.0559 0.0988 0.3324
C15 C 0.0022(4) 0.0572(5) 0.2568(3)
H10 H -0.0483 0.0950 0.2206
H11 H 0.0498 0.1017 0.2498
C16 C 0.0057(4) -0.0872(6) 0.2389(3)
C17 C 0.0065(3) -0.1483(5) 0.3618(3)
H12 H 0.0365 -0.2172 0.3978
C18 C 0.0384(4) 0.0126(6) 0.4672(3)
H13 H -0.0190 0.0351 0.4598
H14 H 0.0744 0.0855 0.4923
H15 H 0.0539 -0.0677 0.4967
C19 C 0.2609(3) 0.4061(7) 0.4162(3)
H16 H 0.2594 0.4298 0.4639
H17 H 0.2842 0.4795 0.3973
H18 H 0.2952 0.3272 0.4207
C20 C -0.0850(3) -0.1594(5) 0.3520(3)
C21 C -0.1503(4) -0.1586(6) 0.2884(3)
H19 H -0.1459 -0.1520 0.2419
C22 C -0.1209(4) -0.1743(6) 0.4085(3)
H20 H -0.0914 -0.1794 0.4592
C23 C -0.2031(4) -0.1795(6) 0.3756(3)
H21 H -0.2411 -0.1893 0.4000
C24 C 0.1478(6) 0.0484(11) 0.1235(5)
H22 H 0.0992 -0.0063 0.1175
H23 H 0.1959 -0.0087 0.1314
H24 H 0.1383 0.1017 0.0798
C25 C 0.1739(4) 0.6161(6) 0.2617(4)
H25 H 0.1755 0.6339 0.3110
H26 H 0.1475 0.6904 0.2301
H27 H 0.2302 0.6051 0.2621
C26 C 0.1192(4) 0.4692(7) 0.1515(3)
H28 H 0.0854 0.5399 0.1215
H29 H 0.0946 0.3834 0.1330
H30 H 0.1750 0.4736 0.1499
C27 C -0.0118(3) 0.3522(5) 0.3187(3)
H31 H -0.0670 0.3317 0.2816
C28 C -0.0887(4) 0.4408(7) 0.1269(4)
C29 C -0.1370(4) 0.3231(8) 0.0856(3)
H32 H -0.1503 0.2669 0.1217
C30 C -0.0847(6) 0.2345(14) 0.0521(5)
H33 H -0.0326 0.2119 0.0918
H34 H -0.1153 0.1508 0.0359
C31 C -0.0642(14) 0.283(2) -0.0053(9)
H35 H -0.0314 0.2165 -0.0194
H36 H -0.0320 0.3640 0.0096
H37 H -0.1147 0.3013 -0.0466
C32 C -0.2218(4) 0.3709(11) 0.0290(4)
H38 H -0.2508 0.4247 0.0537
H39 H -0.2556 0.2940 0.0068
H40 H -0.2119 0.4239 -0.0087
O11 O 0.3605(2) 0.6037(4) 0.1084(2)
O12 O 0.2276(4) 0.4114(8) -0.1093(3)
O13 O 0.6294(3) 0.5578(7) 0.4777(2)
O14 O 0.5343(2) 0.5029(6) 0.3685(2)
O15 O 0.5670(2) 0.0996(4) 0.3077(2)
O16 O 0.5794(5) -0.1177(8) 0.2980(8)
O17 O 0.7941(2) 0.2230(5) 0.2360(2)
O18 O 0.5982(2) 0.2363(4) 0.11758(19)
O19 O 0.6733(2) 0.4997(4) 0.14677(19)
O20 O 0.3477(3) 0.5548(6) 0.2145(2)
C33 C 0.7314(3) 0.2463(6) 0.2502(3)
C34 C 0.6642(3) 0.1417(6) 0.2442(3)
H41 H 0.6810 0.0562 0.2280
C35 C 0.6559(3) 0.1207(6) 0.3196(3)
H42 H 0.6866 0.0385 0.3416
C36 C 0.6899(3) 0.2374(6) 0.3750(3)
C37 C 0.6650(3) 0.3715(5) 0.3307(3)
H43 H 0.6047 0.3642 0.3022
C38 C 0.6755(3) 0.5003(7) 0.3779(3)
H44 H 0.7312 0.4986 0.4158
H45 H 0.6734 0.5773 0.3463
C39 C 0.6134(3) 0.5227(7) 0.4148(3)
C40 C 0.5734(3) 0.3349(5) 0.1614(2)
C41 C 0.6414(3) 0.4354(5) 0.1986(3)
C42 C 0.7094(3) 0.3864(5) 0.2716(3)
C43 C 0.6239(3) 0.5787(5) 0.1788(3)
H46 H 0.6554 0.6436 0.2167
C44 C 0.5397(3) 0.6259(6) 0.1271(3)
H47 H 0.5486 0.6941 0.0947
H48 H 0.5103 0.6686 0.1562
C45 C 0.4818(3) 0.5136(5) 0.0784(2)
C46 C 0.4843(3) 0.3899(5) 0.1256(2)
H49 H 0.4494 0.3195 0.0937
C47 C 0.4473(3) 0.4240(7) 0.1857(3)
H50 H 0.4249 0.3412 0.1981
H51 H 0.4935 0.4520 0.2295
C48 C 0.3806(3) 0.5282(6) 0.1699(3)
C49 C 0.3901(3) 0.5681(6) 0.0492(3)
H52 H 0.3911 0.6518 0.0226
C50 C 0.5083(4) 0.4813(8) 0.0119(3)
H53 H 0.4765 0.4057 -0.0147
H54 H 0.5672 0.4598 0.0291
H55 H 0.4979 0.5582 -0.0203
C51 C 0.7876(3) 0.4764(6) 0.2949(3)
H56 H 0.8075 0.4851 0.2544
H57 H 0.8307 0.4367 0.3365
H58 H 0.7735 0.5640 0.3084
C52 C 0.3261(3) 0.4790(7) -0.0041(3)
C53 C 0.2860(5) 0.5052(9) -0.0768(3)
H59 H 0.2975 0.5791 -0.1012
C54 C 0.2885(4) 0.3569(8) 0.0089(3)
H60 H 0.3019 0.3124 0.0540
C55 C 0.2306(6) 0.3181(10) -0.0551(4)
H61 H 0.1977 0.2409 -0.0621
C56 C 0.4675(4) 0.5169(13) 0.3980(4)
H62 H 0.4143 0.4993 0.3597
H63 H 0.4677 0.6069 0.4163
H64 H 0.4760 0.4536 0.4377
C57 C 0.6530(4) 0.2272(8) 0.4371(3)
H65 H 0.5936 0.2442 0.4171
H66 H 0.6796 0.2926 0.4748
H67 H 0.6628 0.1384 0.4582
C58 C 0.7874(3) 0.2198(8) 0.4121(3)
H68 H 0.8116 0.2084 0.3744
H69 H 0.7994 0.1418 0.4436
H70 H 0.8111 0.2983 0.4410
C59 C 0.5850(3) 0.1920(5) 0.1841(3)
H71 H 0.5336 0.1402 0.1769
C60 C 0.5370(5) -0.0225(9) 0.3005(7)
C61 C 0.4427(6) -0.0270(12) 0.2809(8)
H72 H 0.4250 0.0672 0.2807
C62 C 0.4308(10) -0.093(3) 0.3497(14)
H73 H 0.4587 -0.1796 0.3586
H74 H 0.4582 -0.0363 0.3926
C63 C 0.3426(14) -0.111(4) 0.3423(17)
H75 H 0.3400 -0.1520 0.3865
H76 H 0.3153 -0.1691 0.3008
H77 H 0.3147 -0.0255 0.3347
C64 C 0.3999(7) -0.077(2) 0.2007(10)
H78 H 0.4161 -0.0206 0.1677
H79 H 0.3399 -0.0739 0.1876
H80 H 0.4169 -0.1684 0.1969
loop_
_geom_bond_atom_site_label_1
_geom_bond_atom_site_label_2
_geom_bond_site_symmetry_1
_geom_bond_site_symmetry_2
O1 C16 1_555 1_555
O2 C21 1_555 1_555
O3 C7 1_555 1_555
O4 C7 1_555 1_555
O5 C3 1_555 1_555
O6 C28 1_555 1_555
O7 C1 1_555 1_555
O8 C8 1_555 1_555
O9 C9 1_555 1_555
O10 C16 1_555 1_555
C1 C2 1_555 1_555
C2 H1 1_555 1_555
C3 C2 1_555 1_555
H2 C3 1_555 1_555
C4 C3 1_555 1_555
C5 C4 1_555 1_555
H3 C5 1_555 1_555
C6 C5 1_555 1_555
H4 C6 1_555 1_555
H5 C6 1_555 1_555
C7 C6 1_555 1_555
C8 C9 1_555 1_555
C9 C10 1_555 1_555
C10 C1 1_555 1_555
C11 O9 1_555 1_555
H6 C11 1_555 1_555
C12 C11 1_555 1_555
H7 C12 1_555 1_555
H8 C12 1_555 1_555
C13 C12 1_555 1_555
C14 C8 1_555 1_555
H9 C14 1_555 1_555
C15 C14 1_555 1_555
H10 C15 1_555 1_555
H11 C15 1_555 1_555
C16 C15 1_555 1_555
C17 O1 1_555 1_555
H12 C17 1_555 1_555
C18 C13 1_555 1_555
H13 C18 1_555 1_555
H14 C18 1_555 1_555
H15 C18 1_555 1_555
C19 C10 1_555 1_555
H16 C19 1_555 1_555
H17 C19 1_555 1_555
H18 C19 1_555 1_555
C20 C17 1_555 1_555
C21 C20 1_555 1_555
H19 C21 1_555 1_555
C22 C20 1_555 1_555
H20 C22 1_555 1_555
C23 O2 1_555 1_555
H21 C23 1_555 1_555
C24 O4 1_555 1_555
H22 C24 1_555 1_555
H23 C24 1_555 1_555
H24 C24 1_555 1_555
C25 C4 1_555 1_555
H25 C25 1_555 1_555
H26 C25 1_555 1_555
H27 C25 1_555 1_555
C26 C4 1_555 1_555
H28 C26 1_555 1_555
H29 C26 1_555 1_555
H30 C26 1_555 1_555
C27 O8 1_555 1_555
H31 C27 1_555 1_555
C28 O5 1_555 1_555
C29 C28 1_555 1_555
H32 C29 1_555 1_555
C30 C29 1_555 1_555
H33 C30 1_555 1_555
H34 C30 1_555 1_555
C31 C30 1_555 1_555
H35 C31 1_555 1_555
H36 C31 1_555 1_555
H37 C31 1_555 1_555
C32 C29 1_555 1_555
H38 C32 1_555 1_555
H39 C32 1_555 1_555
H40 C32 1_555 1_555
O11 C48 1_555 1_555
O12 C53 1_555 1_555
O13 C39 1_555 1_555
O14 C39 1_555 1_555
O15 C35 1_555 1_555
O16 C60 1_555 1_555
O17 C33 1_555 1_555
O18 C40 1_555 1_555
O19 C41 1_555 1_555
O20 C48 1_555 1_555
C33 C34 1_555 1_555
C34 H41 1_555 1_555
C35 C34 1_555 1_555
H42 C35 1_555 1_555
C36 C35 1_555 1_555
C37 C36 1_555 1_555
H43 C37 1_555 1_555
C38 C37 1_555 1_555
H44 C38 1_555 1_555
H45 C38 1_555 1_555
C39 C38 1_555 1_555
C40 C41 1_555 1_555
C41 C42 1_555 1_555
C42 C33 1_555 1_555
C43 O19 1_555 1_555
H46 C43 1_555 1_555
C44 C43 1_555 1_555
H47 C44 1_555 1_555
H48 C44 1_555 1_555
C45 C44 1_555 1_555
C46 C40 1_555 1_555
H49 C46 1_555 1_555
C47 C46 1_555 1_555
H50 C47 1_555 1_555
H51 C47 1_555 1_555
C48 C47 1_555 1_555
C49 O11 1_555 1_555
H52 C49 1_555 1_555
C50 C45 1_555 1_555
H53 C50 1_555 1_555
H54 C50 1_555 1_555
H55 C50 1_555 1_555
C51 C42 1_555 1_555
H56 C51 1_555 1_555
H57 C51 1_555 1_555
H58 C51 1_555 1_555
C52 C49 1_555 1_555
C53 C52 1_555 1_555
H59 C53 1_555 1_555
C54 C52 1_555 1_555
H60 C54 1_555 1_555
C55 O12 1_555 1_555
H61 C55 1_555 1_555
C56 O14 1_555 1_555
H62 C56 1_555 1_555
H63 C56 1_555 1_555
H64 C56 1_555 1_555
C57 C36 1_555 1_555
H65 C57 1_555 1_555
H66 C57 1_555 1_555
H67 C57 1_555 1_555
C58 C36 1_555 1_555
H68 C58 1_555 1_555
H69 C58 1_555 1_555
H70 C58 1_555 1_555
C59 O18 1_555 1_555
H71 C59 1_555 1_555
C60 O15 1_555 1_555
C61 C60 1_555 1_555
H72 C61 1_555 1_555
C62 C61 1_555 1_555
H73 C62 1_555 1_555
H74 C62 1_555 1_555
C63 C62 1_555 1_555
H75 C63 1_555 1_555
H76 C63 1_555 1_555
H77 C63 1_555 1_555
C64 C61 1_555 1_555
H78 C64 1_555 1_555
H79 C64 1_555 1_555
H80 C64 1_555 1_555
C2 C27 1_555 1_555
C5 C10 1_555 1_555
C8 C27 1_555 1_555
C9 C11 1_555 1_555
C13 C14 1_555 1_555
C13 C17 1_555 1_555
C22 C23 1_555 1_555
C34 C59 1_555 1_555
C37 C42 1_555 1_555
C40 C59 1_555 1_555
C41 C43 1_555 1_555
C45 C46 1_555 1_555
C45 C49 1_555 1_555
C54 C55 1_555 1_555

#END
