
#######################################################################
#
#                 Cambridge Crystallographic Data Centre
#                                CCDC 
#
#######################################################################
#
# If this CIF has been generated from an entry in the Cambridge 
# Structural Database, then it will include bibliographic, chemical, 
# crystal, experimental, refinement or atomic coordinate data resulting 
# from the CCDC's data processing and validation procedures.
#
#######################################################################

data_YUNZEO
_chemical_name_common            
'5,11,17,23-tetrakis((cyclohexylammonio)methyl)-C-methylcalix(4)resorcinarene tetrakis(trifluoromethanesulfonate) 1,4-dioxane solvate dihydrate'
_chemical_formula_moiety         
'C60 H88 N4 O8 4+,4(C1 F3 O3 S1 1-),2(C4 H8 O2),2(H2 O1)'
_chemical_name_systematic        
'5,11,17,23-tetrakis((cyclohexylammonio)methyl)-2,8,14,20-tetramethyl-4,6,10,12,16,18,22,24-octahydroxycalix(4)arene tetrakis(trifluoromethanesulfonate) 1,4-dioxane solvate dihydrate'
_symmetry_cell_setting           triclinic
_symmetry_space_group_name_H-M   'P -1'
_symmetry_Int_Tables_number      2
_space_group_name_Hall           '-P 1'
loop_
_symmetry_equiv_pos_site_id
_symmetry_equiv_pos_as_xyz
1 x,y,z
2 -x,-y,-z
_cell_length_a                   16.3576(14)
_cell_length_b                   17.0042(13)
_cell_length_c                   18.5089(13)
_cell_angle_alpha                69.135(7)
_cell_angle_beta                 67.660(7)
_cell_angle_gamma                67.136(8)
_cell_volume                     4254.37
_exptl_crystal_colour            yellow
_exptl_crystal_description       plate
_cell_formula_units_Z            2
loop_
_atom_site_label
_atom_site_type_symbol
_atom_site_fract_x
_atom_site_fract_y
_atom_site_fract_z
O1 O 0.14958(19) 0.78992(19) 1.03590(17)
H1 H 0.1015 0.8227 1.0221
O2 O 0.39977(17) 0.54109(19) 0.97303(16)
H2 H 0.4066 0.5017 1.0152
O3 O 0.48263(17) 0.4505(2) 0.85306(17)
H3 H 0.4584 0.4767 0.8904
O4 O 0.42509(18) 0.50873(17) 0.60419(15)
H4 H 0.4303 0.4624 0.5914
O5 O 0.30399(17) 0.65973(17) 0.53586(14)
H5 H 0.3383 0.6152 0.5598
O6 O 0.04878(18) 0.90239(16) 0.60889(15)
H6 H 0.0322 0.9187 0.5668
O7 O -0.04653(18) 0.97978(16) 0.73325(14)
H7 H -0.0239 0.9570 0.6938
O8 O -0.00294(19) 0.90842(19) 0.99016(16)
H8 H -0.0546 0.9278 1.0214
N1 N 0.3878(2) 0.7469(2) 0.95916(18)
H9 H 0.3489 0.8086 0.9466
H10 H 0.4064 0.7231 0.9117
N2 N 0.58850(19) 0.5289(2) 0.64784(17)
H11 H 0.5985 0.5479 0.6877
H12 H 0.5394 0.5771 0.6260
N3 N 0.2384(2) 0.8152(2) 0.42286(17)
H13 H 0.1891 0.7899 0.4321
H14 H 0.2976 0.7678 0.4147
N4 N 0.0277(2) 1.0746(2) 0.78405(18)
H15 H 0.0224 1.0754 0.7323
H16 H 0.0891 1.0343 0.7895
C1 C 0.1185(2) 0.6785(3) 1.0043(2)
C2 C 0.1782(3) 0.7124(3) 1.0143(2)
C3 C 0.2716(3) 0.6648(3) 1.0061(2)
C4 C 0.3056(3) 0.5865(3) 0.9826(2)
C5 C 0.2495(2) 0.5517(3) 0.9693(2)
C6 C 0.1572(2) 0.5999(3) 0.9810(2)
H17 H 0.1176 0.5774 0.9724
C7 C 0.3313(3) 0.6945(3) 1.0297(2)
H18 H 0.2914 0.7308 1.0690
H19 H 0.3732 0.6422 1.0566
C8 C 0.4735(2) 0.7462(3) 0.9726(2)
H20 H 0.5129 0.6837 0.9840
C9 C 0.5277(3) 0.7968(3) 0.8968(3)
H21 H 0.4895 0.8586 0.8831
H22 H 0.5439 0.7705 0.8515
C10 C 0.6158(3) 0.7944(3) 0.9091(3)
H23 H 0.6565 0.7330 0.9179
H24 H 0.6493 0.8301 0.8602
C11 C 0.5935(3) 0.8300(3) 0.9808(3)
H25 H 0.5586 0.8932 0.9693
H26 H 0.6519 0.8246 0.9893
C12 C 0.5372(3) 0.7812(3) 1.0568(3)
H27 H 0.5202 0.8091 1.1012
H28 H 0.5751 0.7196 1.0722
C13 C 0.4493(3) 0.7819(3) 1.0449(3)
H29 H 0.4167 0.7453 1.0937
H30 H 0.4075 0.8428 1.0364
C14 C 0.2890(3) 0.4648(3) 0.9452(2)
H31 H 0.3431 0.4296 0.9674
C15 C 0.2202(3) 0.4103(3) 0.9820(2)
H32 H 0.1661 0.4424 0.9613
H33 H 0.2006 0.4002 1.0408
H34 H 0.2500 0.3537 0.9674
C16 C 0.3256(2) 0.4782(2) 0.8538(2)
C17 C 0.4188(3) 0.4684(3) 0.8139(2)
C18 C 0.4532(2) 0.4728(2) 0.7316(2)
C19 C 0.3905(3) 0.4950(2) 0.6881(2)
C20 C 0.2965(2) 0.5085(2) 0.7251(2)
C21 C 0.2664(2) 0.4997(2) 0.8077(2)
H35 H 0.2022 0.5088 0.8340
C22 C 0.5549(3) 0.4497(3) 0.6904(2)
H36 H 0.5887 0.4113 0.7309
H37 H 0.5687 0.4161 0.6509
C23 C 0.7521(3) 0.4377(3) 0.6076(2)
H38 H 0.7334 0.3835 0.6256
H39 H 0.7625 0.4452 0.6537
C24 C 0.8418(3) 0.4287(3) 0.5387(3)
H40 H 0.8919 0.3799 0.5586
H41 H 0.8334 0.4141 0.4952
C25 C 0.8695(3) 0.5130(4) 0.5049(3)
H42 H 0.8850 0.5238 0.5466
H43 H 0.9253 0.5062 0.4584
C26 C 0.7928(3) 0.5911(3) 0.4784(3)
H44 H 0.7825 0.5836 0.4321
H45 H 0.8114 0.6454 0.4604
C27 C 0.7034(3) 0.6003(3) 0.5464(2)
H46 H 0.7114 0.6154 0.5898
H47 H 0.6534 0.6490 0.5260
C28 C 0.6758(2) 0.5160(3) 0.5805(2)
H48 H 0.6629 0.5046 0.5370
C29 C 0.2288(2) 0.5328(2) 0.6770(2)
H49 H 0.2661 0.5179 0.6241
C30 C 0.1605(3) 0.4783(3) 0.7174(2)
H50 H 0.1946 0.4157 0.7231
H51 H 0.1190 0.4953 0.6842
H52 H 0.1242 0.4892 0.7708
C31 C 0.1812(2) 0.6315(2) 0.6589(2)
C32 C 0.2214(2) 0.6887(2) 0.5905(2)
C33 C 0.1774(2) 0.7785(2) 0.5719(2)
C34 C 0.0922(2) 0.8123(2) 0.6243(2)
C35 C 0.0511(2) 0.7587(2) 0.6942(2)
C36 C 0.0974(2) 0.6696(2) 0.7091(2)
H53 H 0.0701 0.6320 0.7567
C37 C 0.2227(3) 0.8387(3) 0.4990(2)
H54 H 0.1829 0.9003 0.4967
H55 H 0.2826 0.8345 0.5037
C38 C 0.2415(7) 0.8853(7) 0.3452(6)
H56 H 0.1777 0.9266 0.3485
C39 C 0.3037(6) 0.9370(5) 0.3334(4)
H57 H 0.3659 0.8965 0.3358
H58 H 0.2789 0.9676 0.3773
C40 C 0.3108(11) 1.0043(10) 0.2523(11)
H59 H 0.2501 1.0495 0.2532
H60 H 0.3563 1.0342 0.2435
C41 C 0.3399(10) 0.9625(10) 0.1832(6)
H61 H 0.3417 1.0086 0.1321
H62 H 0.4027 0.9207 0.1794
C42 C 0.2733(8) 0.9149(8) 0.1958(5)
H63 H 0.2943 0.8850 0.1520
H64 H 0.2111 0.9568 0.1961
C43 C 0.2705(3) 0.8476(3) 0.2767(2)
H65 H 0.2276 0.8147 0.2861
H66 H 0.3328 0.8050 0.2741
C44 C -0.0415(2) 0.7980(3) 0.7501(2)
H67 H -0.0745 0.8521 0.7159
C45 C -0.1034(3) 0.7374(3) 0.7888(2)
H68 H -0.0731 0.6827 0.8224
H69 H -0.1141 0.7238 0.7466
H70 H -0.1626 0.7668 0.8223
C46 C -0.0289(2) 0.8277(2) 0.8128(2)
C47 C -0.0347(2) 0.9149(2) 0.8024(2)
C48 C -0.0309(2) 0.9439(2) 0.8627(2)
C49 C -0.0154(3) 0.8818(3) 0.9327(2)
C50 C -0.0057(2) 0.7941(3) 0.9449(2)
C51 C -0.0129(2) 0.7688(3) 0.8839(2)
H71 H -0.0065 0.7087 0.8915
C52 C -0.0463(3) 1.0397(3) 0.8520(2)
H72 H -0.0482 1.0487 0.9027
H73 H -0.1070 1.0737 0.8414
C53 C 0.0221(2) 1.1660(2) 0.7820(2)
H74 H 0.0172 1.1664 0.8374
C54 C 0.1097(3) 1.1877(3) 0.7259(2)
H75 H 0.1174 1.1861 0.6707
H76 H 0.1636 1.1435 0.7437
C55 C 0.1051(3) 1.2790(3) 0.7258(3)
H77 H 0.1617 1.2938 0.6875
H78 H 0.1023 1.2789 0.7802
C56 C 0.0206(3) 1.3484(3) 0.7019(3)
H79 H 0.0175 1.4064 0.7050
H80 H 0.0262 1.3525 0.6456
C57 C -0.0673(3) 1.3250(3) 0.7572(3)
H81 H -0.1208 1.3689 0.7385
H82 H -0.0764 1.3278 0.8124
C58 C -0.0637(3) 1.2336(3) 0.7593(2)
H83 H -0.0624 1.2324 0.7057
H84 H -0.1197 1.2187 0.7991
C59 C 0.0154(2) 0.7260(3) 1.0200(2)
H85 H -0.0004 0.7595 1.0607
C60 C -0.0442(3) 0.6628(3) 1.0582(2)
H86 H -0.1096 0.6964 1.0734
H87 H -0.0271 0.6208 1.1062
H88 H -0.0340 0.6307 1.0193
S1 S 0.2401(3) 0.9833(3) 0.9314(3)
F1 F 0.2895(5) 1.1168(6) 0.8247(5)
F2 F 0.2284(6) 1.1344(6) 0.9455(9)
F3 F 0.3657(13) 1.0557(12) 0.9073(10)
O9 O 0.1536(10) 1.0225(8) 0.9103(8)
O10 O 0.2297(4) 0.9532(5) 1.0166(4)
O11 O 0.3084(3) 0.9263(4) 0.8846(4)
C66 C 0.2823(14) 1.0760(17) 0.9003(13)
O15 O 0.5090(3) 0.8523(3) 0.6844(2)
O16 O 0.6027(3) 0.9532(3) 0.5443(3)
C68 C 0.5148(5) 0.9342(5) 0.6823(5)
H102 H 0.4578 0.9630 0.7194
H103 H 0.5675 0.9232 0.7021
C69 C 0.5262(7) 0.9913(5) 0.6058(5)
H104 H 0.5358 1.0442 0.6082
H105 H 0.4686 1.0106 0.5901
C70 C 0.5964(6) 0.8712(5) 0.5490(4)
H106 H 0.6536 0.8416 0.5125
H107 H 0.5441 0.8818 0.5288
C71 C 0.5840(6) 0.8135(5) 0.6262(4)
H108 H 0.5739 0.7609 0.6237
H109 H 0.6410 0.7938 0.6428
O17 O 0.3079(2) 0.8035(2) 0.6832(2)
O18 O 0.1894(2) 0.9390(2) 0.75906(17)
C72 C 0.2394(3) 0.7864(3) 0.7559(3)
H110 H 0.2614 0.7255 0.7872
H111 H 0.1829 0.7920 0.7441
C73 C 0.2175(3) 0.8498(3) 0.8040(3)
H112 H 0.1674 0.8389 0.8539
H113 H 0.2728 0.8404 0.8197
C74 C 0.2600(3) 0.9551(3) 0.6870(3)
H114 H 0.3166 0.9469 0.7001
H115 H 0.2401 1.0166 0.6559
C75 C 0.2805(3) 0.8925(3) 0.6372(3)
H116 H 0.2248 0.9026 0.6220
H117 H 0.3306 0.9031 0.5872
S3 S 0.66522(7) 0.55071(7) 0.80971(6)
F7 F 0.7410(2) 0.6756(2) 0.7650(2)
F8 F 0.8182(2) 0.5509(3) 0.82314(19)
F9 F 0.81853(19) 0.5729(2) 0.70226(17)
O19 O 0.61748(18) 0.60210(18) 0.74909(15)
O20 O 0.7016(2) 0.45856(19) 0.81418(17)
O21 O 0.6159(2) 0.5761(2) 0.88541(16)
C76 C 0.7660(3) 0.5893(4) 0.7735(3)
O22 O 0.43489(19) 0.7114(2) 0.80892(17)
H118 H 0.4829 0.6664 0.8001
H119 H 0.4445 0.7589 0.7752
S4 S 0.02037(9) 1.13774(8) 0.54955(7)
F10 F 0.1657(3) 1.1690(3) 0.4377(2)
F11 F 0.0403(3) 1.2624(2) 0.41815(18)
F12 F 0.0924(3) 1.2646(2) 0.50514(19)
O23 O 0.0708(2) 1.0961(2) 0.60813(17)
O24 O 0.0212(3) 1.0806(2) 0.5079(2)
O25 O -0.0695(2) 1.1969(3) 0.5758(2)
C77 C 0.0830(4) 1.2110(4) 0.4742(3)
S5 S 0.50463(7) 0.71958(7) 0.39833(6)
F13 F 0.6482(2) 0.7773(2) 0.3348(2)
F14 F 0.6310(2) 0.7174(2) 0.26047(19)
F15 F 0.54369(19) 0.84618(19) 0.27393(17)
O26 O 0.4650(2) 0.78126(18) 0.44774(17)
O27 O 0.5623(2) 0.63500(19) 0.43191(17)
O28 O 0.44209(19) 0.71483(19) 0.36433(17)
C78 C 0.5862(3) 0.7677(3) 0.3121(3)
O29 O 0.4585(3) 0.6859(2) 0.60995(19)
H120 H 0.4618 0.7080 0.5602
H121 H 0.4141 0.7199 0.6375
H89? H 0.1790 0.8173 0.4188
H90? H 0.2805 0.7547 0.4238
C61? C 0.2822(14) 0.8823(16) 0.3476(12)
H91? H 0.3486 0.8714 0.3423
C62? C 0.2294(9) 0.9744(8) 0.3454(7)
H92? H 0.2295 0.9906 0.3917
H93? H 0.1646 0.9839 0.3486
C63? C 0.2760(17) 1.0330(19) 0.263(2)
H94? H 0.2408 1.0959 0.2599
H95? H 0.3400 1.0252 0.2615
C64? C 0.2775(15) 1.0064(14) 0.1938(8)
H96? H 0.2132 1.0198 0.1931
H97? H 0.3092 1.0413 0.1429
C65? C 0.3242(19) 0.9130(17) 0.1979(11)
H98? H 0.3878 0.8993 0.2005
H99? H 0.3290 0.9004 0.1480
H100? H 0.3030 0.7844 0.2792
H101? H 0.2051 0.8608 0.2793
S2? S 0.2579(5) 1.0050(5) 0.8979(5)
F4? F 0.2812(9) 1.1530(7) 0.8815(9)
F5? F 0.2394(7) 1.0847(9) 1.0008(6)
F6? F 0.3758(17) 1.0393(18) 0.9338(15)
O12? O 0.1647(17) 1.0539(13) 0.8962(14)
O13? O 0.2643(7) 0.9251(7) 0.9666(8)
O14? O 0.3231(6) 0.9934(10) 0.8235(7)
C67? C 0.2893(15) 1.077(2) 0.9263(16)
loop_
_geom_bond_atom_site_label_1
_geom_bond_atom_site_label_2
_geom_bond_site_symmetry_1
_geom_bond_site_symmetry_2
O1 H1 1_555 1_555
O2 H2 1_555 1_555
O3 H3 1_555 1_555
O4 H4 1_555 1_555
O5 H5 1_555 1_555
O6 H6 1_555 1_555
O7 H7 1_555 1_555
O8 H8 1_555 1_555
N1 H9 1_555 1_555
H10 N1 1_555 1_555
N2 H11 1_555 1_555
H12 N2 1_555 1_555
N3 H13 1_555 1_555
H14 N3 1_555 1_555
N4 H15 1_555 1_555
H16 N4 1_555 1_555
C1 C2 1_555 1_555
C2 O1 1_555 1_555
C3 C2 1_555 1_555
C4 O2 1_555 1_555
C5 C4 1_555 1_555
C6 C1 1_555 1_555
H17 C6 1_555 1_555
C7 N1 1_555 1_555
H18 C7 1_555 1_555
H19 C7 1_555 1_555
C8 N1 1_555 1_555
H20 C8 1_555 1_555
C9 C8 1_555 1_555
H21 C9 1_555 1_555
H22 C9 1_555 1_555
C10 C9 1_555 1_555
H23 C10 1_555 1_555
H24 C10 1_555 1_555
C11 C10 1_555 1_555
H25 C11 1_555 1_555
H26 C11 1_555 1_555
C12 C11 1_555 1_555
H27 C12 1_555 1_555
H28 C12 1_555 1_555
C13 C8 1_555 1_555
H29 C13 1_555 1_555
H30 C13 1_555 1_555
C14 C5 1_555 1_555
H31 C14 1_555 1_555
C15 C14 1_555 1_555
H32 C15 1_555 1_555
H33 C15 1_555 1_555
H34 C15 1_555 1_555
C16 C14 1_555 1_555
C17 O3 1_555 1_555
C18 C17 1_555 1_555
C19 O4 1_555 1_555
C20 C19 1_555 1_555
C21 C16 1_555 1_555
H35 C21 1_555 1_555
C22 N2 1_555 1_555
H36 C22 1_555 1_555
H37 C22 1_555 1_555
C23 H38 1_555 1_555
H39 C23 1_555 1_555
C24 C23 1_555 1_555
H40 C24 1_555 1_555
H41 C24 1_555 1_555
C25 C24 1_555 1_555
H42 C25 1_555 1_555
H43 C25 1_555 1_555
C26 C25 1_555 1_555
H44 C26 1_555 1_555
H45 C26 1_555 1_555
C27 C26 1_555 1_555
H46 C27 1_555 1_555
H47 C27 1_555 1_555
C28 N2 1_555 1_555
H48 C28 1_555 1_555
C29 C20 1_555 1_555
H49 C29 1_555 1_555
C30 C29 1_555 1_555
H50 C30 1_555 1_555
H51 C30 1_555 1_555
H52 C30 1_555 1_555
C31 C29 1_555 1_555
C32 O5 1_555 1_555
C33 C32 1_555 1_555
C34 O6 1_555 1_555
C35 C34 1_555 1_555
C36 C31 1_555 1_555
H53 C36 1_555 1_555
C37 N3 1_555 1_555
H54 C37 1_555 1_555
H55 C37 1_555 1_555
C38 N3 1_555 1_555
H56 C38 1_555 1_555
C39 C38 1_555 1_555
H57 C39 1_555 1_555
H58 C39 1_555 1_555
C40 C39 1_555 1_555
H59 C40 1_555 1_555
H60 C40 1_555 1_555
C41 C40 1_555 1_555
H61 C41 1_555 1_555
H62 C41 1_555 1_555
C42 C41 1_555 1_555
H63 C42 1_555 1_555
H64 C42 1_555 1_555
C43 C38 1_555 1_555
H65 C43 1_555 1_555
H66 C43 1_555 1_555
C44 C35 1_555 1_555
H67 C44 1_555 1_555
C45 C44 1_555 1_555
H68 C45 1_555 1_555
H69 C45 1_555 1_555
H70 C45 1_555 1_555
C46 C44 1_555 1_555
C47 O7 1_555 1_555
C48 C47 1_555 1_555
C49 O8 1_555 1_555
C50 C49 1_555 1_555
C51 C46 1_555 1_555
H71 C51 1_555 1_555
C52 N4 1_555 1_555
H72 C52 1_555 1_555
H73 C52 1_555 1_555
C53 N4 1_555 1_555
H74 C53 1_555 1_555
C54 C53 1_555 1_555
H75 C54 1_555 1_555
H76 C54 1_555 1_555
C55 C54 1_555 1_555
H77 C55 1_555 1_555
H78 C55 1_555 1_555
C56 C55 1_555 1_555
H79 C56 1_555 1_555
H80 C56 1_555 1_555
C57 C56 1_555 1_555
H81 C57 1_555 1_555
H82 C57 1_555 1_555
C58 C53 1_555 1_555
H83 C58 1_555 1_555
H84 C58 1_555 1_555
C59 C1 1_555 1_555
H85 C59 1_555 1_555
C60 C59 1_555 1_555
H86 C60 1_555 1_555
H87 C60 1_555 1_555
H88 C60 1_555 1_555
S1 O9 1_555 1_555
F1 C66 1_555 1_555
F2 C66 1_555 1_555
F3 C66 1_555 1_555
O10 S1 1_555 1_555
O11 S1 1_555 1_555
C66 S1 1_555 1_555
O15 C68 1_555 1_555
O16 C69 1_555 1_555
C68 H102 1_555 1_555
H103 C68 1_555 1_555
C69 C68 1_555 1_555
H104 C69 1_555 1_555
H105 C69 1_555 1_555
C70 O16 1_555 1_555
H106 C70 1_555 1_555
H107 C70 1_555 1_555
C71 O15 1_555 1_555
H108 C71 1_555 1_555
H109 C71 1_555 1_555
O17 C72 1_555 1_555
O18 C73 1_555 1_555
C72 H110 1_555 1_555
H111 C72 1_555 1_555
C73 C72 1_555 1_555
H112 C73 1_555 1_555
H113 C73 1_555 1_555
C74 O18 1_555 1_555
H114 C74 1_555 1_555
H115 C74 1_555 1_555
C75 O17 1_555 1_555
H116 C75 1_555 1_555
H117 C75 1_555 1_555
S3 O19 1_555 1_555
F7 C76 1_555 1_555
F8 C76 1_555 1_555
F9 C76 1_555 1_555
O20 S3 1_555 1_555
O21 S3 1_555 1_555
C76 S3 1_555 1_555
O22 H118 1_555 1_555
H119 O22 1_555 1_555
S4 O23 1_555 1_555
F10 C77 1_555 1_555
F11 C77 1_555 1_555
F12 C77 1_555 1_555
O24 S4 1_555 1_555
O25 S4 1_555 1_555
C77 S4 1_555 1_555
S5 O26 1_555 1_555
F13 C78 1_555 1_555
F14 C78 1_555 1_555
F15 C78 1_555 1_555
O27 S5 1_555 1_555
O28 S5 1_555 1_555
C78 S5 1_555 1_555
O29 H120 1_555 1_555
H121 O29 1_555 1_555
C3 C4 1_555 1_555
C3 C7 1_555 1_555
C5 C6 1_555 1_555
C12 C13 1_555 1_555
C16 C17 1_555 1_555
C18 C19 1_555 1_555
C18 C22 1_555 1_555
C20 C21 1_555 1_555
C23 C28 1_555 1_555
C27 C28 1_555 1_555
C31 C32 1_555 1_555
C33 C34 1_555 1_555
C33 C37 1_555 1_555
C35 C36 1_555 1_555
C42 C43 1_555 1_555
C46 C47 1_555 1_555
C48 C49 1_555 1_555
C48 C52 1_555 1_555
C50 C51 1_555 1_555
C50 C59 1_555 1_555
C57 C58 1_555 1_555
C70 C71 1_555 1_555
C74 C75 1_555 1_555

#END
