
#######################################################################
#
#                 Cambridge Crystallographic Data Centre
#                                CCDC 
#
#######################################################################
#
# If this CIF has been generated from an entry in the Cambridge 
# Structural Database, then it will include bibliographic, chemical, 
# crystal, experimental, refinement or atomic coordinate data resulting 
# from the CCDC's data processing and validation procedures.
#
#######################################################################

data_YUPHEX
_chemical_name_common            
1-(Difluoro(trifluorovinyl)-lambda$4!-tellanyl)-1,2,2-trifluoroethene
_chemical_formula_moiety         'C4 F8 Te1'
_chemical_name_systematic        Difluoro-bis(trifluorovinyl)-tellurium
_symmetry_cell_setting           cubic
_symmetry_space_group_name_H-M   'F d -3 c'
_symmetry_Int_Tables_number      228
_space_group_name_Hall           '-F 4ud 2vw 3'
loop_
_symmetry_equiv_pos_site_id
_symmetry_equiv_pos_as_xyz
1 x,y,z
2 x,1/4-y,1/4-z
3 -y,1/4+x,3/4+z
4 3/4+y,1/4+x,-z
5 3/4+y,-x,1/4+z
6 y,z,x
7 y,1/4-z,1/4-x
8 -z,1/4+y,3/4+x
9 3/4+z,-y,1/4+x
10 3/4+z,1/4+y,-x
11 z,x,y
12 1/4-z,1/4-x,y
13 -x,1/4+z,3/4+y
14 1/4+x,-z,3/4+y
15 x,1/2+y,1/2+z
16 -y,3/4+x,1/4+z
17 y,1/2+z,1/2+x
18 -z,3/4+y,1/4+x
19 z,1/2+x,1/2+y
20 1/4-z,x,1/4-y
21 z,1/4-x,1/4-y
22 -x,3/4+z,1/4+y
23 1/4+x,1/2-z,1/4+y
24 3/4+x,1/4+z,-y
25 1/2+x,y,1/2+z
26 1/4-x,1/4-y,z
27 1/4-x,y,1/4-z
28 1/2-y,1/4+x,1/4+z
29 1/4+y,1/4+x,1/2-z
30 1/4+y,-x,3/4+z
31 1/2+y,z,1/2+x
32 1/4-y,1/4-z,x
33 1/4-y,z,1/4-x
34 1/2-z,1/4+y,1/4+x
35 1/4+z,-y,3/4+x
36 1/4+z,1/4+y,1/2-x
37 1/2+z,x,1/2+y
38 1/2-x,1/4+z,1/4+y
39 3/4+x,-z,1/4+y
40 1/4+x,3/4+z,-y
41 1/2+x,1/2+y,z
42 1/4+y,3/4+x,-z
43 1/4+y,1/2-x,1/4+z
44 1/2+y,1/2+z,x
45 1/4+z,1/2-y,1/4+x
46 1/4+z,3/4+y,-x
47 1/2+z,1/2+x,y
48 1/4+x,1/4+z,1/2-y
49 3/4-x,1/4-y,1/2+z
50 3/4-x,y,3/4-z
51 -y,-x,1/2-z
52 3/4-y,1/4-z,1/2+x
53 3/4-y,z,3/4-x
54 -z,-y,1/2-x
55 1/4-z,1/2+x,3/4-y
56 z,3/4-x,3/4-y
57 -x,1/2-z,-y
58 3/4+x,3/4+z,1/2-y
59 x,3/4-y,3/4-z
60 3/4-x,3/4-y,z
61 3/4-x,1/2+y,1/4-z
62 3/4+y,3/4+x,1/2-z
63 3/4+y,1/2-x,3/4+z
64 -y,1/2-x,-z
65 3/4-y,3/4-z,x
66 y,3/4-z,3/4-x
67 3/4-y,1/2+z,1/4-x
68 -z,1/2-y,-x
69 3/4+z,1/2-y,3/4+x
70 3/4+z,3/4+y,1/2-x
71 1/4-z,3/4-x,1/2+y
72 -x,-z,1/2-y
73 1/2+x,1/4-y,3/4-z
74 1/2-y,-x,-z
75 1/2+y,1/4-z,3/4-x
76 1/2-z,-y,-x
77 3/4-z,1/2+x,1/4-y
78 3/4-z,1/4-x,1/2+y
79 1/2+z,3/4-x,1/4-y
80 1/2-x,1/2-z,1/2-y
81 1/2+x,3/4-y,1/4-z
82 1/4-x,3/4-y,1/2+z
83 1/4-x,1/2+y,3/4-z
84 1/2-y,3/4+x,3/4+z
85 1/2-y,1/2-x,1/2-z
86 1/4-y,3/4-z,1/2+x
87 1/2+y,3/4-z,1/4-x
88 1/4-y,1/2+z,3/4-x
89 1/2-z,3/4+y,3/4+x
90 1/2-z,1/2-y,1/2-x
91 3/4-z,x,3/4-y
92 3/4-z,3/4-x,y
93 1/2+z,1/4-x,3/4-y
94 1/2-x,-z,-y
95 1/2-x,3/4+z,3/4+y
96 3/4+x,1/2-z,3/4+y
97 -x,-y,-z
98 -x,3/4+y,3/4+z
99 y,3/4-x,1/4-z
100 1/4-y,3/4-x,z
101 1/4-y,x,3/4-z
102 -y,-z,-x
103 -y,3/4+z,3/4+x
104 z,3/4-y,1/4-x
105 1/4-z,y,3/4-x
106 1/4-z,3/4-y,x
107 -z,-x,-y
108 3/4+z,3/4+x,-y
109 x,3/4-z,1/4-y
110 3/4-x,z,1/4-y
111 -x,1/2-y,1/2-z
112 y,1/4-x,3/4-z
113 -y,1/2-z,1/2-x
114 z,1/4-y,3/4-x
115 -z,1/2-x,1/2-y
116 3/4+z,-x,3/4+y
117 -z,3/4+x,3/4+y
118 x,1/4-z,3/4-y
119 3/4-x,1/2+z,3/4-y
120 1/4-x,3/4-z,y
121 1/2-x,-y,1/2-z
122 3/4+x,3/4+y,-z
123 3/4+x,-y,3/4+z
124 1/2+y,3/4-x,3/4-z
125 3/4-y,3/4-x,1/2+z
126 3/4-y,x,1/4-z
127 1/2-y,-z,1/2-x
128 3/4+y,3/4+z,-x
129 3/4+y,-z,3/4+x
130 1/2+z,3/4-y,3/4-x
131 3/4-z,y,1/4-x
132 3/4-z,3/4-y,1/2+x
133 1/2-z,-x,1/2-y
134 1/2+x,3/4-z,3/4-y
135 1/4-x,z,3/4-y
136 3/4-x,1/4-z,y
137 1/2-x,1/2-y,-z
138 3/4-y,1/4-x,z
139 3/4-y,1/2+x,3/4-z
140 1/2-y,1/2-z,-x
141 3/4-z,1/2+y,3/4-x
142 3/4-z,1/4-y,x
143 1/2-z,1/2-x,-y
144 3/4-x,3/4-z,1/2+y
145 1/4+x,3/4+y,1/2-z
146 1/4+x,-y,1/4+z
147 y,x,1/2+z
148 1/4+y,3/4+z,1/2-x
149 1/4+y,-z,1/4+x
150 z,y,1/2+x
151 3/4+z,1/2-x,1/4+y
152 -z,1/4+x,1/4+y
153 x,1/2+z,y
154 1/4-x,1/4-z,1/2+y
155 -x,1/4+y,1/4+z
156 1/4+x,1/4+y,-z
157 1/4+x,1/2-y,3/4+z
158 1/4-y,1/4-x,1/2+z
159 1/4-y,1/2+x,1/4-z
160 y,1/2+x,z
161 1/4+y,1/4+z,-x
162 -y,1/4+z,1/4+x
163 1/4+y,1/2-z,3/4+x
164 z,1/2+y,x
165 1/4-z,1/2+y,1/4-x
166 1/4-z,1/4-y,1/2+x
167 3/4+z,1/4+x,1/2-y
168 x,z,1/2+y
169 1/2-x,3/4+y,1/4+z
170 1/2+y,x,z
171 1/2-y,3/4+z,1/4+x
172 1/2+z,y,x
173 1/4+z,1/2-x,3/4+y
174 1/4+z,3/4+x,1/2-y
175 1/2-z,1/4+x,3/4+y
176 1/2+x,1/2+z,1/2+y
177 1/2-x,1/4+y,3/4+z
178 3/4+x,1/4+y,1/2-z
179 3/4+x,1/2-y,1/4+z
180 1/2+y,1/4-x,1/4-z
181 1/2+y,1/2+x,1/2+z
182 3/4+y,1/4+z,1/2-x
183 1/2-y,1/4+z,3/4+x
184 3/4+y,1/2-z,1/4+x
185 1/2+z,1/4-y,1/4-x
186 1/2+z,1/2+y,1/2+x
187 1/4+z,-x,1/4+y
188 1/4+z,1/4+x,-y
189 1/2-z,3/4+x,1/4+y
190 1/2+x,z,y
191 1/2+x,1/4-z,1/4-y
192 1/4-x,1/2+z,1/4-y
_cell_length_a                   26.6026(14)
_cell_length_b                   26.6026(14)
_cell_length_c                   26.6026(14)
_cell_angle_alpha                90
_cell_angle_beta                 90
_cell_angle_gamma                90
_cell_volume                     18826.6
_exptl_crystal_colour            colorless
_exptl_crystal_description       cubic
_chemical_melting_point          '143 deg.C (dec.)'
_cell_formula_units_Z            96
_exptl_crystal_recrystallization_method sublimation
loop_
_atom_site_label
_atom_site_type_symbol
_atom_site_fract_x
_atom_site_fract_y
_atom_site_fract_z
Te1 Te 0.887492(13) 0.137492(13) 0.0000
F1 F 0.86121(18) 0.17791(18) 0.05681(16)
F2 F 0.8760(3) 0.2834(2) -0.0676(3)
F3 F 0.9439(2) 0.2119(2) -0.0641(3)
F4 F 0.8236(2) 0.2382(2) -0.0200(3)
C1 C 0.8978(3) 0.2060(3) -0.0387(3)
C2 C 0.8681(4) 0.2419(4) -0.0418(5)
F1C F 0.92791(18) 0.11121(18) -0.05681(16)
F2C F 1.0334(2) 0.1260(3) 0.0676(3)
F3C F 0.9619(2) 0.1939(2) 0.0641(3)
F4C F 0.9882(2) 0.0736(2) 0.0200(3)
C1C C 0.9560(3) 0.1478(3) 0.0387(3)
C2C C 0.9919(4) 0.1181(4) 0.0418(5)
loop_
_geom_bond_atom_site_label_1
_geom_bond_atom_site_label_2
_geom_bond_site_symmetry_1
_geom_bond_site_symmetry_2
Te1 F1 1_555 1_555
F2 C2 1_555 1_555
F3 C1 1_555 1_555
F4 C2 1_555 1_555
C1 Te1 1_555 1_555
C2 C1 1_555 1_555
F1C Te1 1_555 1_555
F2C C2C 1_555 1_555
F3C C1C 1_555 1_555
F4C C2C 1_555 1_555
C1C Te1 1_555 1_555
C2C C1C 1_555 1_555

#END
