
#######################################################################
#
#                 Cambridge Crystallographic Data Centre
#                                CCDC 
#
#######################################################################
#
# If this CIF has been generated from an entry in the Cambridge 
# Structural Database, then it will include bibliographic, chemical, 
# crystal, experimental, refinement or atomic coordinate data resulting 
# from the CCDC's data processing and validation procedures.
#
#######################################################################

data_YUPHOH
_chemical_formula_moiety         'C8 F12 O4 Te1'
_chemical_name_systematic        
bis(Trifluoroacetato-O)-bis(trifluorovinyl)-tellurium
_symmetry_cell_setting           triclinic
_symmetry_space_group_name_H-M   'P -1'
_symmetry_Int_Tables_number      2
_space_group_name_Hall           '-P 1'
loop_
_symmetry_equiv_pos_site_id
_symmetry_equiv_pos_as_xyz
1 x,y,z
2 -x,-y,-z
_cell_length_a                   10.0056(16)
_cell_length_b                   10.9666(18)
_cell_length_c                   14.596(2)
_cell_angle_alpha                68.979(12)
_cell_angle_beta                 87.680(13)
_cell_angle_gamma                69.541(12)
_cell_volume                     1394.08
_exptl_crystal_colour            colorless
_exptl_crystal_description       needle
_chemical_melting_point          '83-84 deg.C (dec.)'
_cell_formula_units_Z            4
_exptl_crystal_recrystallization_method sublimation
loop_
_atom_site_label
_atom_site_type_symbol
_atom_site_fract_x
_atom_site_fract_y
_atom_site_fract_z
Te1 Te 0.44476(5) 0.38389(5) 0.16521(4)
C1 C 0.4265(10) 0.2197(9) 0.1280(6)
C2 C 0.4048(9) 0.2316(9) 0.0368(7)
C3 C 0.3311(9) 0.3430(9) 0.2916(5)
C4 C 0.2250(9) 0.3023(10) 0.3026(6)
C5 C 0.6972(9) 0.2545(9) 0.3034(6)
C6 C 0.8218(10) 0.1322(11) 0.3745(8)
C7 C 0.2388(8) 0.6004(9) 0.0025(6)
C8 C 0.0935(10) 0.6712(11) -0.0608(7)
O1 O 0.6180(6) 0.2103(6) 0.2642(4)
O2 O 0.6791(7) 0.3731(7) 0.2914(5)
O3 O 0.2374(6) 0.5002(6) 0.0845(4)
O4 O 0.3363(6) 0.6362(6) -0.0267(4)
F1 F 0.4372(6) 0.1021(5) 0.2029(4)
F2 F 0.3937(6) 0.1320(6) 0.0117(4)
F3 F 0.3935(6) 0.3441(6) -0.0399(4)
F4 F 0.3900(5) 0.3566(6) 0.3680(3)
F5 F 0.1613(6) 0.2762(6) 0.3844(4)
F6 F 0.1615(6) 0.2843(6) 0.2341(4)
F7 F 0.9056(13) 0.1740(10) 0.4055(12)
F8 F 0.7794(9) 0.0594(11) 0.4477(6)
F9 F 0.9013(11) 0.0495(11) 0.3351(6)
F10 F -0.0164(6) 0.6964(7) -0.0113(5)
F11 F 0.0849(7) 0.7836(8) -0.1319(6)
F12 F 0.0818(8) 0.5818(10) -0.1019(7)
Te2 Te 0.59083(5) 0.62511(5) 0.34147(4)
C9 C 0.5664(10) 0.7933(10) 0.3878(7)
C10 C 0.4465(10) 0.8874(10) 0.3891(7)
C11 C 0.7568(10) 0.6594(11) 0.2520(7)
C12 C 0.7706(14) 0.7695(15) 0.2024(9)
C13 C 0.7554(8) 0.4174(9) 0.5266(6)
C14 C 0.8940(9) 0.3366(10) 0.5967(7)
C15 C 0.3553(8) 0.7505(8) 0.1838(6)
C16 C 0.2405(9) 0.8728(9) 0.1050(7)
O5 O 0.7702(6) 0.5155(7) 0.4511(5)
O6 O 0.6506(6) 0.3861(7) 0.5428(5)
O7 O 0.4457(6) 0.7886(6) 0.2182(4)
O8 O 0.3576(6) 0.6326(6) 0.2049(5)
F13 F 0.6886(6) 0.7966(6) 0.4193(4)
F14 F 0.4389(7) 0.9933(6) 0.4174(4)
F15 F 0.3198(6) 0.9012(5) 0.3589(4)
F16 F 0.8733(6) 0.5267(8) 0.2620(5)
F17 F 0.6804(7) 0.8855(8) 0.1932(5)
F18 F 0.8871(8) 0.7743(11) 0.1525(6)
F19 F 0.9163(8) 0.4187(7) 0.6377(6)
F20 F 0.8807(6) 0.2281(6) 0.6707(4)
F21 F 1.0061(6) 0.2918(7) 0.5525(5)
F22 F 0.1900(7) 0.9829(6) 0.1326(5)
F23 F 0.2967(6) 0.9127(6) 0.0208(4)
F24 F 0.1340(6) 0.8370(7) 0.0904(5)
loop_
_geom_bond_atom_site_label_1
_geom_bond_atom_site_label_2
_geom_bond_site_symmetry_1
_geom_bond_site_symmetry_2
Te1 C1 1_555 1_555
C1 C2 1_555 1_555
C2 F2 1_555 1_555
C3 Te1 1_555 1_555
C4 C3 1_555 1_555
C5 C6 1_555 1_555
C6 F7 1_555 1_555
C7 C8 1_555 1_555
C8 F10 1_555 1_555
O1 Te1 1_555 1_555
O2 C5 1_555 1_555
O3 Te1 1_555 1_555
O4 C7 1_555 1_555
F1 C1 1_555 1_555
F3 C2 1_555 1_555
F4 C3 1_555 1_555
F5 C4 1_555 1_555
F6 C4 1_555 1_555
F8 C6 1_555 1_555
F9 C6 1_555 1_555
F11 C8 1_555 1_555
F12 C8 1_555 1_555
Te2 C9 1_555 1_555
C9 C10 1_555 1_555
C10 F14 1_555 1_555
C11 Te2 1_555 1_555
C12 C11 1_555 1_555
C13 C14 1_555 1_555
C14 F19 1_555 1_555
C15 C16 1_555 1_555
C16 F22 1_555 1_555
O5 Te2 1_555 1_555
O6 C13 1_555 1_555
O7 Te2 1_555 1_555
O8 C15 1_555 1_555
F13 C9 1_555 1_555
F15 C10 1_555 1_555
F16 C11 1_555 1_555
F17 C12 1_555 1_555
F18 C12 1_555 1_555
F20 C14 1_555 1_555
F21 C14 1_555 1_555
F23 C16 1_555 1_555
F24 C16 1_555 1_555
C5 O1 1_555 1_555
C7 O3 1_555 1_555
C13 O5 1_555 1_555
C15 O7 1_555 1_555

#END
