
#######################################################################
#
#                 Cambridge Crystallographic Data Centre
#                                CCDC 
#
#######################################################################
#
# If this CIF has been generated from an entry in the Cambridge 
# Structural Database, then it will include bibliographic, chemical, 
# crystal, experimental, refinement or atomic coordinate data resulting 
# from the CCDC's data processing and validation procedures.
#
#######################################################################

data_YUPLUS
_chemical_formula_moiety         'C28 H22 N6'
_chemical_name_systematic        
7,16-bis(pyridin-4-yl)-5,14-dihydrodibenzo[b,i][1,4,8,11]tetraazacyclotetradecine
_symmetry_cell_setting           triclinic
_symmetry_space_group_name_H-M   'P -1'
_symmetry_Int_Tables_number      2
_space_group_name_Hall           '-P 1'
loop_
_symmetry_equiv_pos_site_id
_symmetry_equiv_pos_as_xyz
1 x,y,z
2 -x,-y,-z
_cell_length_a                   9.4974(9)
_cell_length_b                   17.4158(16)
_cell_length_c                   25.769(2)
_cell_angle_alpha                80.532(5)
_cell_angle_beta                 84.709(4)
_cell_angle_gamma                89.933(4)
_cell_volume                     4185.92
_exptl_crystal_colour            violet
_exptl_crystal_description       needle
_cell_formula_units_Z            8
loop_
_atom_site_label
_atom_site_type_symbol
_atom_site_fract_x
_atom_site_fract_y
_atom_site_fract_z
N1 N 0.0582(6) 0.0387(3) 0.2570(2)
N2 N 0.3619(4) 0.0686(2) 0.02025(17)
N3 N 0.5106(4) 0.0590(2) -0.07237(17)
H1 H 0.5143 0.0262 -0.0426
C1 C 0.0882(7) 0.0980(4) 0.2184(3)
H2 H 0.0581 0.1483 0.2239
C2 C 0.1616(6) 0.0909(4) 0.1701(2)
H3 H 0.1753 0.1354 0.1433
C3 C 0.2151(5) 0.0199(3) 0.1604(2)
C4 C 0.1869(7) -0.0403(4) 0.2026(2)
H4 H 0.2202 -0.0911 0.1997
C5 C 0.1120(8) -0.0276(4) 0.2481(2)
H5 H 0.0975 -0.0709 0.2758
C6 C 0.3018(5) 0.0109(3) 0.1114(2)
C7 C 0.2811(5) 0.0631(3) 0.0644(2)
H6 H 0.2023 0.0966 0.0652
C8 C 0.3320(5) 0.1237(3) -0.0240(2)
C9 C 0.2350(6) 0.1838(3) -0.0227(2)
H7 H 0.1809 0.1882 0.0096
C10 C 0.2166(6) 0.2368(3) -0.0676(2)
H8 H 0.1502 0.2775 -0.0662
C11 C 0.2953(6) 0.2305(3) -0.1143(2)
H9 H 0.2822 0.2671 -0.1451
C12 C 0.3921(6) 0.1725(3) -0.1173(2)
H10 H 0.4450 0.1688 -0.1499
C13 C 0.4119(5) 0.1192(3) -0.0721(2)
C14 C 0.5986(5) 0.0469(3) -0.1131(2)
H11 H 0.5925 0.0804 -0.1459
N1A N 0.9418(6) -0.0387(3) -0.2570(2)
N2A N 0.6381(4) -0.0686(2) -0.02025(17)
N3A N 0.4894(4) -0.0590(2) 0.07237(17)
H1A H 0.4857 -0.0262 0.0426
C1A C 0.9118(7) -0.0980(4) -0.2184(3)
H2A H 0.9419 -0.1483 -0.2239
C2A C 0.8384(6) -0.0909(4) -0.1701(2)
H3A H 0.8247 -0.1354 -0.1433
C3A C 0.7849(5) -0.0199(3) -0.1604(2)
C4A C 0.8131(7) 0.0403(4) -0.2026(2)
H4A H 0.7798 0.0911 -0.1997
C5A C 0.8880(8) 0.0276(4) -0.2481(2)
H5A H 0.9025 0.0709 -0.2758
C6A C 0.6982(5) -0.0109(3) -0.1114(2)
C7A C 0.7189(5) -0.0631(3) -0.0644(2)
H6A H 0.7977 -0.0966 -0.0652
C8A C 0.6680(5) -0.1237(3) 0.0240(2)
C9A C 0.7650(6) -0.1838(3) 0.0227(2)
H7A H 0.8191 -0.1882 -0.0096
C10A C 0.7834(6) -0.2368(3) 0.0676(2)
H8A H 0.8498 -0.2775 0.0662
C11A C 0.7047(6) -0.2305(3) 0.1143(2)
H9A H 0.7178 -0.2671 0.1451
C12A C 0.6079(6) -0.1725(3) 0.1173(2)
H10A H 0.5550 -0.1688 0.1499
C13A C 0.5881(5) -0.1192(3) 0.0721(2)
C14A C 0.4014(5) -0.0469(3) 0.1131(2)
H11A H 0.4075 -0.0804 0.1459
N4 N 0.4460(5) 0.9787(3) 0.7404(2)
N5 N 0.1472(4) 0.9355(2) 0.97950(17)
N6 N -0.0141(4) 0.9394(3) 1.06999(18)
H12 H -0.0215 0.9709 1.0400
C15 C 0.4675(7) 0.9371(4) 0.7847(3)
H13 H 0.5447 0.9025 0.7841
C16 C 0.3917(7) 0.9366(4) 0.8335(3)
H14 H 0.4181 0.9028 0.8638
C17 C 0.2800(5) 0.9843(3) 0.8379(2)
C18 C 0.2471(8) 1.0279(4) 0.7913(3)
H15 H 0.1680 1.0614 0.7909
C19 C 0.3296(9) 1.0229(5) 0.7450(3)
H16 H 0.3022 1.0532 0.7135
C20 C 0.1960(5) 0.9900(3) 0.8877(2)
C21 C 0.2171(5) 0.9363(3) 0.9334(2)
H17 H 0.2872 0.8979 0.9304
C22 C 0.1732(5) 0.8789(3) 1.0236(2)
C23 C 0.2788(5) 0.8223(3) 1.0234(2)
H18 H 0.3410 0.8218 0.9924
C24 C 0.2932(6) 0.7679(3) 1.0674(2)
H19 H 0.3648 0.7299 1.0666
C25 C 0.2046(6) 0.7680(3) 1.1127(2)
H20 H 0.2142 0.7295 1.1428
C26 C 0.1024(5) 0.8235(3) 1.1145(2)
H21 H 0.0424 0.8236 1.1461
C27 C 0.0860(5) 0.8795(3) 1.0704(2)
C28 C -0.0967(5) 0.9510(3) 1.1115(2)
H22 H -0.0884 0.9164 1.1436
N4A N -0.4460(5) 1.0213(3) 1.2596(2)
N5A N -0.1472(4) 1.0645(2) 1.02050(17)
N6A N 0.0141(4) 1.0606(3) 0.93001(18)
H12A H 0.0215 1.0291 0.9600
C15A C -0.4675(7) 1.0629(4) 1.2153(3)
H13A H -0.5447 1.0975 1.2159
C16A C -0.3917(7) 1.0634(4) 1.1665(3)
H14A H -0.4181 1.0972 1.1362
C17A C -0.2800(5) 1.0157(3) 1.1621(2)
C18A C -0.2471(8) 0.9721(4) 1.2087(3)
H15A H -0.1680 0.9386 1.2091
C19A C -0.3296(9) 0.9771(5) 1.2550(3)
H16A H -0.3022 0.9468 1.2865
C20A C -0.1960(5) 1.0100(3) 1.1123(2)
C21A C -0.2171(5) 1.0637(3) 1.0666(2)
H17A H -0.2872 1.1021 1.0696
C22A C -0.1732(5) 1.1211(3) 0.9764(2)
C23A C -0.2788(5) 1.1777(3) 0.9766(2)
H18A H -0.3410 1.1782 1.0076
C24A C -0.2932(6) 1.2321(3) 0.9326(2)
H19A H -0.3648 1.2701 0.9334
C25A C -0.2046(6) 1.2320(3) 0.8873(2)
H20A H -0.2142 1.2705 0.8572
C26A C -0.1024(5) 1.1765(3) 0.8855(2)
H21A H -0.0424 1.1764 0.8539
C27A C -0.0860(5) 1.1205(3) 0.9296(2)
C28A C 0.0967(5) 1.0490(3) 0.8885(2)
H22A H 0.0884 1.0836 0.8564
N7 N 0.4096(5) 0.7917(3) 0.24667(18)
N8 N 0.0889(5) 0.2055(3) 0.75411(18)
N9 N 0.1928(4) 0.5120(2) 0.43127(16)
H23 H 0.2378 0.5121 0.4596
N10 N 0.1270(4) 0.4204(2) 0.52548(16)
N11 N 0.3192(4) 0.4913(2) 0.57425(16)
H24 H 0.2750 0.4910 0.5457
N12 N 0.3825(4) 0.5844(2) 0.47974(16)
C29 C 0.3569(5) 0.6822(3) 0.3412(2)
C30 C 0.3810(6) 0.7149(3) 0.2455(2)
H25 H 0.3795 0.6981 0.2123
C31 C 0.3542(6) 0.6617(3) 0.2911(2)
H26 H 0.3332 0.6092 0.2884
C32 C 0.3947(6) 0.7619(3) 0.3414(2)
H27 H 0.4027 0.7789 0.3742
C33 C 0.4195(6) 0.8142(3) 0.2954(2)
H28 H 0.4439 0.8666 0.2970
C34 C 0.0178(5) 0.2828(4) 0.6734(2)
H29 H -0.0516 0.2957 0.6493
C35 C -0.0142(5) 0.2289(4) 0.7182(2)
H30 H -0.1068 0.2068 0.7254
C36 C 0.2164(5) 0.2405(4) 0.7433(2)
H31 H 0.2861 0.2266 0.7673
C37 C 0.2506(5) 0.2955(4) 0.6994(2)
H32 H 0.3430 0.3180 0.6936
C38 C 0.3264(5) 0.6254(3) 0.3898(2)
C39 C 0.2290(5) 0.5669(3) 0.3897(2)
H33 H 0.1851 0.5656 0.3582
C40 C 0.0893(5) 0.4543(3) 0.43355(19)
C41 C 0.0235(5) 0.4426(3) 0.3894(2)
H34 H 0.0496 0.4741 0.3561
C42 C -0.0787(6) 0.3860(3) 0.3936(2)
H35 H -0.1223 0.3777 0.3633
C43 C -0.1182(5) 0.3411(3) 0.4420(2)
H36 H -0.1905 0.3025 0.4448
C44 C -0.0546(5) 0.3513(3) 0.4860(2)
H37 H -0.0843 0.3204 0.5191
C45 C 0.0528(5) 0.4064(3) 0.48266(19)
C46 C 0.1145(5) 0.3706(3) 0.56900(19)
H38 H 0.0546 0.3265 0.5706
C47 C 0.1849(4) 0.3776(3) 0.61487(19)
C48 C 0.1526(5) 0.3193(3) 0.66274(19)
C49 C 0.2822(5) 0.4359(3) 0.6154(2)
H39 H 0.3257 0.4367 0.6471
C50 C 0.4208(5) 0.5497(3) 0.5718(2)
C51 C 0.4874(5) 0.5619(3) 0.6158(2)
H40 H 0.4601 0.5313 0.6492
C52 C 0.5923(5) 0.6177(3) 0.6113(2)
H41 H 0.6366 0.6257 0.6416
C53 C 0.6328(5) 0.6621(3) 0.5628(2)
H42 H 0.7056 0.7004 0.5596
C54 C 0.5676(5) 0.6507(3) 0.5187(2)
H43 H 0.5985 0.6804 0.4853
C55 C 0.4586(5) 0.5971(3) 0.5223(2)
C56 C 0.3979(5) 0.6327(3) 0.4355(2)
H44 H 0.4607 0.6758 0.4332
N13 N 0.4305(5) 0.4760(3) -0.2526(2)
N14 N 1.0735(6) 0.5378(3) 0.2603(2)
N15 N 0.6241(4) 0.4328(2) -0.01539(16)
N16 N 0.7322(4) 0.4385(2) 0.07669(17)
H53 H 0.7536 0.4703 0.0467
N17 N 0.8882(4) 0.5655(2) 0.02472(16)
N18 N 0.7781(4) 0.5597(2) -0.06643(16)
H54 H 0.7584 0.5274 -0.0366
C65 C 0.3905(7) 0.4302(4) -0.2073(3)
H55 H 0.3147 0.3946 -0.2072
C66 C 0.4495(7) 0.4299(4) -0.1606(3)
H56 H 0.4195 0.3917 -0.1308
C67 C 0.5509(5) 0.4836(3) -0.1562(2)
C68 C 0.5820(9) 0.5359(4) -0.2021(3)
H57 H 0.6468 0.5776 -0.2024
C69 C 0.5214(8) 0.5290(4) -0.2473(3)
H58 H 0.5484 0.5667 -0.2776
C70 C 0.6139(5) 0.4898(3) -0.1069(2)
C71 C 0.5703(5) 0.4363(3) -0.0602(2)
H59 H 0.4963 0.4004 -0.0620
C72 C 0.5740(5) 0.3769(3) 0.0283(2)
C73 C 0.4747(5) 0.3182(3) 0.0274(2)
H60 H 0.4338 0.3152 -0.0045
C74 C 0.4348(6) 0.2645(3) 0.0720(2)
H61 H 0.3673 0.2248 0.0706
C75 C 0.4932(5) 0.2687(3) 0.1185(2)
H62 H 0.4655 0.2317 0.1492
C76 C 0.5910(5) 0.3256(3) 0.1210(2)
H63 H 0.6304 0.3280 0.1532
C77 C 0.6326(5) 0.3801(3) 0.07615(19)
C78 C 0.7980(5) 0.4513(3) 0.1176(2)
H64 H 0.7751 0.4178 0.1503
C79 C 0.8971(5) 0.5092(3) 0.11643(19)
C80 C 0.9591(5) 0.5185(3) 0.1654(2)
C81 C 0.9832(8) 0.4553(3) 0.2057(3)
H65 H 0.9605 0.4039 0.2010
C82 C 1.0394(8) 0.4669(3) 0.2519(3)
H66 H 1.0537 0.4231 0.2781
C83 C 1.0585(8) 0.6026(3) 0.2209(3)
H67 H 1.0871 0.6529 0.2257
C84 C 1.0022(8) 0.5925(3) 0.1754(3)
H68 H 0.9914 0.6369 0.1493
C85 C 0.9406(5) 0.5622(3) 0.0695(2)
H69 H 1.0144 0.5982 0.0712
C86 C 0.9373(5) 0.6218(3) -0.01921(19)
C87 C 1.0388(5) 0.6794(3) -0.0186(2)
H70 H 1.0828 0.6811 0.0129
C88 C 1.0762(5) 0.7339(3) -0.0628(2)
H71 H 1.1454 0.7728 -0.0616
C89 C 1.0130(5) 0.7321(3) -0.1088(2)
H72 H 1.0383 0.7700 -0.1392
C90 C 0.9135(5) 0.6754(3) -0.1105(2)
H73 H 0.8701 0.6745 -0.1422
C91 C 0.8761(5) 0.6195(3) -0.06648(19)
C92 C 0.7126(5) 0.5477(3) -0.10752(19)
H74 H 0.7355 0.5817 -0.1400
N19 N 0.7242(5) 0.2960(3) 0.24431(18)
N20 N 0.7827(5) -0.2914(3) 0.75257(17)
N21 N 0.8461(4) 0.0126(2) 0.42815(16)
H79 H 0.7863 0.0129 0.4563
N22 N 0.8636(4) -0.0786(2) 0.52284(17)
N23 N 0.6467(4) -0.0065(2) 0.57100(17)
H80 H 0.7063 -0.0071 0.5428
N24 N 0.6311(4) 0.0859(2) 0.47617(17)
C97 C 0.7293(5) 0.1845(3) 0.33796(19)
C98 C 0.7581(6) 0.2181(3) 0.2426(2)
H81 H 0.7797 0.2020 0.2093
C99 C 0.7608(6) 0.1649(3) 0.2876(2)
H82 H 0.7848 0.1127 0.2848
C100 C 0.6970(6) 0.2641(3) 0.3390(2)
H83 H 0.6738 0.2808 0.3720
C101 C 0.6990(6) 0.3172(3) 0.2931(2)
H84 H 0.6822 0.3703 0.2954
C102 C 0.7335(5) 0.1270(3) 0.38643(19)
C103 C 0.8314(5) 0.0678(3) 0.3865(2)
H85 H 0.8915 0.0665 0.3551
C104 C 0.9478(5) -0.0455(3) 0.43104(19)
C105 C 1.0355(5) -0.0572(3) 0.3866(2)
H86 H 1.0260 -0.0259 0.3533
C106 C 1.1361(5) -0.1145(3) 0.3915(2)
H87 H 1.1954 -0.1229 0.3613
C107 C 1.1514(5) -0.1595(3) 0.4398(2)
H88 H 1.2214 -0.1986 0.4429
C108 C 1.0650(5) -0.1479(3) 0.4838(2)
H89 H 1.0778 -0.1781 0.5172
C109 C 0.9588(5) -0.0921(3) 0.4798(2)
C110 C 0.8531(5) -0.1280(3) 0.5666(2)
H90 H 0.9117 -0.1725 0.5684
C111 C 0.7598(5) -0.1207(3) 0.6123(2)
C112 C 0.7671(5) -0.1787(3) 0.6604(2)
C113 C 0.8882(6) -0.2154(4) 0.6731(2)
H91 H 0.9726 -0.2037 0.6504
C114 C 0.8910(6) -0.2696(4) 0.7186(2)
H92 H 0.9791 -0.2930 0.7256
C115 C 0.6580(6) -0.2564(4) 0.7404(2)
H93 H 0.5757 -0.2712 0.7638
C116 C 0.6441(6) -0.2011(4) 0.6965(2)
H94 H 0.5551 -0.1782 0.6902
C117 C 0.6622(5) -0.0615(3) 0.6123(2)
H95 H 0.6026 -0.0602 0.6439
C118 C 0.5453(5) 0.0525(3) 0.5675(2)
C119 C 0.4559(5) 0.0644(3) 0.6118(2)
H96 H 0.4653 0.0335 0.6453
C120 C 0.3550(6) 0.1208(3) 0.6067(2)
H97 H 0.2969 0.1300 0.6370
C121 C 0.3371(5) 0.1643(3) 0.5579(2)
H98 H 0.2644 0.2018 0.5543
C122 C 0.4259(5) 0.1527(3) 0.5143(2)
H99 H 0.4132 0.1826 0.4808
C123 C 0.5332(5) 0.0986(3) 0.5184(2)
C124 C 0.6403(5) 0.1344(3) 0.4319(2)
H100 H 0.5803 0.1782 0.4297
C57? C 0.257(3) 0.7550(19) 0.2610(12)
H45? H 0.1838 0.7707 0.2391
C58? C 0.233(3) 0.7020(19) 0.3039(12)
H46? H 0.1431 0.6763 0.3122
C59? C 0.468(3) 0.7175(19) 0.3274(12)
H47? H 0.5434 0.7063 0.3493
C60? C 0.494(3) 0.7723(19) 0.2825(12)
H48? H 0.5836 0.7983 0.2776
C61? C 0.107(3) 0.1800(17) 0.7084(12)
H49? H 0.1073 0.1259 0.7070
C62? C 0.126(3) 0.2342(16) 0.6630(12)
H50? H 0.1225 0.2168 0.6301
C63? C 0.166(3) 0.3351(16) 0.7134(12)
H51? H 0.1939 0.3863 0.7167
C64? C 0.141(3) 0.2814(16) 0.7590(12)
H52? H 0.1573 0.2940 0.7925
C93? C 0.880(3) 0.4754(18) 0.2140(12)
H75? H 0.7912 0.4505 0.2133
C94? C 0.942(4) 0.4742(18) 0.2583(12)
H76? H 0.9116 0.4375 0.2888
C95? C 1.119(4) 0.5664(19) 0.2143(13)
H77? H 1.2045 0.5955 0.2110
C96? C 1.064(3) 0.562(2) 0.1684(13)
H78? H 1.1054 0.5931 0.1370
C125? C 0.823(3) 0.259(2) 0.2543(14)
C126? C 0.841(3) 0.204(2) 0.2983(13)
H101? H 0.9299 0.1789 0.3018
C127? C 0.597(3) 0.215(2) 0.3282(14)
H102? H 0.5170 0.1984 0.3525
C128? C 0.578(3) 0.271(2) 0.2831(13)
H103? H 0.4882 0.2926 0.2756
C129? C 0.826(3) -0.2589(18) 0.6558(12)
H104? H 0.7710 -0.2825 0.6316
H105? H 0.9250 -0.2522 0.6393
C130? C 0.826(3) -0.3094(19) 0.7017(12)
H106? H 0.8575 -0.3608 0.6998
C131? C 0.767(3) -0.2131(18) 0.7536(12)
H107? H 0.7598 -0.1956 0.7868
C132? C 0.760(3) -0.1598(19) 0.7087(12)
H108? H 0.7495 -0.1065 0.7120
loop_
_geom_bond_atom_site_label_1
_geom_bond_atom_site_label_2
_geom_bond_site_symmetry_1
_geom_bond_site_symmetry_2
N1 C1 1_555 1_555
N2 C7 1_555 1_555
N3 H1 1_555 1_555
C1 H2 1_555 1_555
C2 C1 1_555 1_555
H3 C2 1_555 1_555
C3 C2 1_555 1_555
C4 C3 1_555 1_555
H4 C4 1_555 1_555
C5 N1 1_555 1_555
H5 C5 1_555 1_555
C6 C3 1_555 1_555
C7 C6 1_555 1_555
H6 C7 1_555 1_555
C8 N2 1_555 1_555
C9 C8 1_555 1_555
H7 C9 1_555 1_555
C10 C9 1_555 1_555
H8 C10 1_555 1_555
C11 C10 1_555 1_555
H9 C11 1_555 1_555
C12 C11 1_555 1_555
H10 C12 1_555 1_555
C13 N3 1_555 1_555
C14 N3 1_555 1_555
H11 C14 1_555 1_555
N4 C15 1_555 1_555
N5 C21 1_555 1_555
N6 H12 1_555 1_555
C15 H13 1_555 1_555
C16 C15 1_555 1_555
H14 C16 1_555 1_555
C17 C16 1_555 1_555
C18 C17 1_555 1_555
H15 C18 1_555 1_555
C19 N4 1_555 1_555
H16 C19 1_555 1_555
C20 C17 1_555 1_555
C21 C20 1_555 1_555
H17 C21 1_555 1_555
C22 N5 1_555 1_555
C23 C22 1_555 1_555
H18 C23 1_555 1_555
C24 C23 1_555 1_555
H19 C24 1_555 1_555
C25 C24 1_555 1_555
H20 C25 1_555 1_555
C26 C25 1_555 1_555
H21 C26 1_555 1_555
C27 N6 1_555 1_555
C28 N6 1_555 1_555
H22 C28 1_555 1_555
N7 C30 1_555 1_555
N8 C35 1_555 1_555
N9 H23 1_555 1_555
N10 C45 1_555 1_555
N11 H24 1_555 1_555
N12 C55 1_555 1_555
C29 C31 1_555 1_555
C30 H25 1_555 1_555
C31 C30 1_555 1_555
H26 C31 1_555 1_555
C32 C29 1_555 1_555
H27 C32 1_555 1_555
C33 N7 1_555 1_555
H28 C33 1_555 1_555
C34 H29 1_555 1_555
C35 C34 1_555 1_555
H30 C35 1_555 1_555
C36 N8 1_555 1_555
H31 C36 1_555 1_555
C37 C36 1_555 1_555
H32 C37 1_555 1_555
C38 C29 1_555 1_555
C39 N9 1_555 1_555
H33 C39 1_555 1_555
C40 N9 1_555 1_555
C41 C40 1_555 1_555
H34 C41 1_555 1_555
C42 C41 1_555 1_555
H35 C42 1_555 1_555
C43 C42 1_555 1_555
H36 C43 1_555 1_555
C44 C43 1_555 1_555
H37 C44 1_555 1_555
C45 C40 1_555 1_555
C46 N10 1_555 1_555
H38 C46 1_555 1_555
C47 C46 1_555 1_555
C48 C34 1_555 1_555
C49 N11 1_555 1_555
H39 C49 1_555 1_555
C50 N11 1_555 1_555
C51 C50 1_555 1_555
H40 C51 1_555 1_555
C52 C51 1_555 1_555
H41 C52 1_555 1_555
C53 C52 1_555 1_555
H42 C53 1_555 1_555
C54 C53 1_555 1_555
H43 C54 1_555 1_555
C55 C50 1_555 1_555
C56 N12 1_555 1_555
H44 C56 1_555 1_555
N13 C65 1_555 1_555
N14 C82 1_555 1_555
N15 C71 1_555 1_555
N16 H53 1_555 1_555
N17 C85 1_555 1_555
N18 H54 1_555 1_555
C65 H55 1_555 1_555
C66 C65 1_555 1_555
H56 C66 1_555 1_555
C67 C66 1_555 1_555
C68 C67 1_555 1_555
H57 C68 1_555 1_555
C69 N13 1_555 1_555
H58 C69 1_555 1_555
C70 C67 1_555 1_555
C71 C70 1_555 1_555
H59 C71 1_555 1_555
C72 N15 1_555 1_555
C73 C72 1_555 1_555
H60 C73 1_555 1_555
C74 C73 1_555 1_555
H61 C74 1_555 1_555
C75 C74 1_555 1_555
H62 C75 1_555 1_555
C76 C75 1_555 1_555
H63 C76 1_555 1_555
C77 N16 1_555 1_555
C78 N16 1_555 1_555
H64 C78 1_555 1_555
C79 C78 1_555 1_555
C80 C79 1_555 1_555
C81 C80 1_555 1_555
H65 C81 1_555 1_555
C82 C81 1_555 1_555
H66 C82 1_555 1_555
C83 N14 1_555 1_555
H67 C83 1_555 1_555
C84 C80 1_555 1_555
H68 C84 1_555 1_555
C85 C79 1_555 1_555
H69 C85 1_555 1_555
C86 N17 1_555 1_555
C87 C86 1_555 1_555
H70 C87 1_555 1_555
C88 C87 1_555 1_555
H71 C88 1_555 1_555
C89 C88 1_555 1_555
H72 C89 1_555 1_555
C90 C89 1_555 1_555
H73 C90 1_555 1_555
C91 N18 1_555 1_555
C92 N18 1_555 1_555
H74 C92 1_555 1_555
N19 C98 1_555 1_555
N20 C114 1_555 1_555
N21 H79 1_555 1_555
N22 C109 1_555 1_555
N23 H80 1_555 1_555
N24 C123 1_555 1_555
C97 C99 1_555 1_555
C98 H81 1_555 1_555
C99 C98 1_555 1_555
H82 C99 1_555 1_555
C100 C97 1_555 1_555
H83 C100 1_555 1_555
C101 N19 1_555 1_555
H84 C101 1_555 1_555
C102 C97 1_555 1_555
C103 N21 1_555 1_555
H85 C103 1_555 1_555
C104 N21 1_555 1_555
C105 C104 1_555 1_555
H86 C105 1_555 1_555
C106 C105 1_555 1_555
H87 C106 1_555 1_555
C107 C106 1_555 1_555
H88 C107 1_555 1_555
C108 C107 1_555 1_555
H89 C108 1_555 1_555
C109 C104 1_555 1_555
C110 N22 1_555 1_555
H90 C110 1_555 1_555
C111 C110 1_555 1_555
C112 C111 1_555 1_555
C113 C112 1_555 1_555
H91 C113 1_555 1_555
C114 C113 1_555 1_555
H92 C114 1_555 1_555
C115 N20 1_555 1_555
H93 C115 1_555 1_555
C116 C112 1_555 1_555
H94 C116 1_555 1_555
C117 N23 1_555 1_555
H95 C117 1_555 1_555
C118 N23 1_555 1_555
C119 C118 1_555 1_555
H96 C119 1_555 1_555
C120 C119 1_555 1_555
H97 C120 1_555 1_555
C121 C120 1_555 1_555
H98 C121 1_555 1_555
C122 C121 1_555 1_555
H99 C122 1_555 1_555
C123 C118 1_555 1_555
C124 N24 1_555 1_555
H100 C124 1_555 1_555
N1A C1A 1_555 1_555
N2A C7A 1_555 1_555
N3A H1A 1_555 1_555
C1A H2A 1_555 1_555
C2A C1A 1_555 1_555
H3A C2A 1_555 1_555
C3A C2A 1_555 1_555
C4A C3A 1_555 1_555
H4A C4A 1_555 1_555
C5A N1A 1_555 1_555
H5A C5A 1_555 1_555
C6A C14 1_555 1_555
C7A C6A 1_555 1_555
H6A C7A 1_555 1_555
C8A N2A 1_555 1_555
C9A C8A 1_555 1_555
H7A C9A 1_555 1_555
C10A C9A 1_555 1_555
H8A C10A 1_555 1_555
C11A C10A 1_555 1_555
H9A C11A 1_555 1_555
C12A C11A 1_555 1_555
H10A C12A 1_555 1_555
C13A N3A 1_555 1_555
C14A C6 1_555 1_555
H11A C14A 1_555 1_555
N4A C15A 1_555 1_555
N5A C21A 1_555 1_555
N6A H12A 1_555 1_555
C15A H13A 1_555 1_555
C16A C15A 1_555 1_555
H14A C16A 1_555 1_555
C17A C16A 1_555 1_555
C18A C17A 1_555 1_555
H15A C18A 1_555 1_555
C19A N4A 1_555 1_555
H16A C19A 1_555 1_555
C20A C28 1_555 1_555
C21A C20A 1_555 1_555
H17A C21A 1_555 1_555
C22A N5A 1_555 1_555
C23A C22A 1_555 1_555
H18A C23A 1_555 1_555
C24A C23A 1_555 1_555
H19A C24A 1_555 1_555
C25A C24A 1_555 1_555
H20A C25A 1_555 1_555
C26A C25A 1_555 1_555
H21A C26A 1_555 1_555
C27A N6A 1_555 1_555
C28A C20 1_555 1_555
H22A C28A 1_555 1_555
C4 C5 1_555 1_555
C8 C13 1_555 1_555
C12 C13 1_555 1_555
C18 C19 1_555 1_555
C22 C27 1_555 1_555
C26 C27 1_555 1_555
C32 C33 1_555 1_555
C37 C48 1_555 1_555
C38 C39 1_555 1_555
C38 C56 1_555 1_555
C44 C45 1_555 1_555
C47 C48 1_555 1_555
C47 C49 1_555 1_555
C54 C55 1_555 1_555
C68 C69 1_555 1_555
C70 C92 1_555 1_555
C72 C77 1_555 1_555
C76 C77 1_555 1_555
C83 C84 1_555 1_555
C86 C91 1_555 1_555
C90 C91 1_555 1_555
C100 C101 1_555 1_555
C102 C103 1_555 1_555
C102 C124 1_555 1_555
C108 C109 1_555 1_555
C111 C117 1_555 1_555
C115 C116 1_555 1_555
C122 C123 1_555 1_555
N3A C14A 1_555 1_555
C3A C6A 1_555 1_555
C4A C5A 1_555 1_555
C8A C13A 1_555 1_555
C12A C13A 1_555 1_555
N6A C28A 1_555 1_555
C17A C20A 1_555 1_555
C18A C19A 1_555 1_555
C22A C27A 1_555 1_555
C26A C27A 1_555 1_555

#END
