
#######################################################################
#
#                 Cambridge Crystallographic Data Centre
#                                CCDC 
#
#######################################################################
#
# If this CIF has been generated from an entry in the Cambridge 
# Structural Database, then it will include bibliographic, chemical, 
# crystal, experimental, refinement or atomic coordinate data resulting 
# from the CCDC's data processing and validation procedures.
#
#######################################################################

data_YUPMED
_chemical_name_common            bis(3-(bromomethyl)phenyl)diazene
_chemical_formula_moiety         'C14 H12 Br2 N2'
_chemical_name_systematic        (1E)-1,2-bis[3-(Bromomethyl)phenyl]-diazene
_symmetry_cell_setting           monoclinic
_symmetry_space_group_name_H-M   'P 21/c'
_symmetry_Int_Tables_number      14
_space_group_name_Hall           '-P 2ybc'
loop_
_symmetry_equiv_pos_site_id
_symmetry_equiv_pos_as_xyz
1 x,y,z
2 -x,1/2+y,1/2-z
3 -x,-y,-z
4 x,1/2-y,1/2+z
_cell_length_a                   13.858(2)
_cell_length_b                   4.3834(7)
_cell_length_c                   11.1513(17)
_cell_angle_alpha                90
_cell_angle_beta                 98.584(2)
_cell_angle_gamma                90
_cell_volume                     669.799
_exptl_crystal_colour            orange
_exptl_crystal_description       plate
_chemical_melting_point          '419-420 K'
_cell_formula_units_Z            2
loop_
_atom_site_label
_atom_site_type_symbol
_atom_site_fract_x
_atom_site_fract_y
_atom_site_fract_z
Br1 Br 0.42717(3) 0.57961(11) 0.13801(3)
C1 C 0.34943(13) 0.8147(4) 0.00512(15)
H1 H 0.3227 0.9997 0.0390
H2 H 0.3923 0.8806 -0.0536
C2 C 0.26752(12) 0.6269(4) -0.05892(14)
C3 C 0.28133(13) 0.4557(5) -0.16143(16)
H3 H 0.3432 0.4549 -0.1883
C4 C 0.20481(13) 0.2871(4) -0.22391(15)
H4 H 0.2144 0.1719 -0.2933
C5 C 0.11370(12) 0.2874(4) -0.18431(14)
H5 H 0.0610 0.1746 -0.2273
C6 C 0.10050(12) 0.4539(4) -0.08140(14)
C7 C 0.17683(12) 0.6265(4) -0.01906(14)
H6 H 0.1670 0.7426 0.0500
N1 N 0.00413(11) 0.4373(3) -0.04965(13)
Br1B Br -0.42717(3) 0.42039(11) -0.13801(3)
C1B C -0.34943(13) 0.1853(4) -0.00512(15)
H1B H -0.3227 0.0003 -0.0390
H2B H -0.3923 0.1194 0.0536
C2B C -0.26752(12) 0.3731(4) 0.05892(14)
C3B C -0.28133(13) 0.5443(5) 0.16143(16)
H3B H -0.3432 0.5451 0.1883
C4B C -0.20481(13) 0.7129(4) 0.22391(15)
H4B H -0.2144 0.8281 0.2933
C5B C -0.11370(12) 0.7126(4) 0.18431(14)
H5B H -0.0610 0.8254 0.2273
C6B C -0.10050(12) 0.5461(4) 0.08140(14)
C7B C -0.17683(12) 0.3735(4) 0.01906(14)
H6B H -0.1670 0.2574 -0.0500
N1B N -0.00413(11) 0.5627(3) 0.04965(13)
Br2? Br 0.4447(8) 0.585(3) 0.1348(10)
C8? C 0.3869(7) 0.777(5) -0.0208(13)
H7? H 0.3803 0.9994 -0.0089
H8? H 0.4309 0.7452 -0.0819
C9? C 0.2890(7) 0.644(5) -0.0663(11)
C10? C 0.2774(11) 0.451(8) -0.168(2)
H9? H 0.3310 0.4142 -0.2100
C11? C 0.1878(13) 0.313(8) -0.207(2)
H10? H 0.1795 0.1904 -0.2783
C12? C 0.1100(11) 0.357(6) -0.1425(18)
H11? H 0.0493 0.2586 -0.1677
C13? C 0.1221(8) 0.545(5) -0.0404(15)
C14? C 0.2102(9) 0.697(5) -0.0045(17)
H12? H 0.2165 0.8367 0.0615
N2? N 0.0400(9) 0.554(7) 0.0240(17)
loop_
_geom_bond_atom_site_label_1
_geom_bond_atom_site_label_2
_geom_bond_site_symmetry_1
_geom_bond_site_symmetry_2
Br1 C1 1_555 1_555
C1 H1 1_555 1_555
H2 C1 1_555 1_555
C2 C1 1_555 1_555
C3 C2 1_555 1_555
H3 C3 1_555 1_555
C4 C3 1_555 1_555
H4 C4 1_555 1_555
C5 C4 1_555 1_555
H5 C5 1_555 1_555
C6 C5 1_555 1_555
C7 C2 1_555 1_555
H6 C7 1_555 1_555
N1 C6 1_555 1_555
Br1B C1B 1_555 1_555
C1B H1B 1_555 1_555
H2B C1B 1_555 1_555
C2B C1B 1_555 1_555
C3B C2B 1_555 1_555
H3B C3B 1_555 1_555
C4B C3B 1_555 1_555
H4B C4B 1_555 1_555
C5B C4B 1_555 1_555
H5B C5B 1_555 1_555
C6B C5B 1_555 1_555
C7B C2B 1_555 1_555
H6B C7B 1_555 1_555
N1B N1 1_555 1_555
C6 C7 1_555 1_555
C6B C7B 1_555 1_555
C6B N1B 1_555 1_555

#END
