
#######################################################################
#
#                 Cambridge Crystallographic Data Centre
#                                CCDC 
#
#######################################################################
#
# If this CIF has been generated from an entry in the Cambridge 
# Structural Database, then it will include bibliographic, chemical, 
# crystal, experimental, refinement or atomic coordinate data resulting 
# from the CCDC's data processing and validation procedures.
#
#######################################################################

data_YUPMED04
_chemical_name_common            bis(3-(bromomethyl)phenyl)diazene
_chemical_formula_moiety         'C14 H12 Br2 N2'
_chemical_name_systematic        (1E)-1,2-bis[3-(Bromomethyl)phenyl]-diazene
_symmetry_cell_setting           monoclinic
_symmetry_space_group_name_H-M   'P 21/c'
_symmetry_Int_Tables_number      14
_space_group_name_Hall           '-P 2ybc'
loop_
_symmetry_equiv_pos_site_id
_symmetry_equiv_pos_as_xyz
1 x,y,z
2 -x,1/2+y,1/2-z
3 -x,-y,-z
4 x,1/2-y,1/2+z
_cell_length_a                   13.9822(18)
_cell_length_b                   4.4209(6)
_cell_length_c                   11.1785(14)
_cell_angle_alpha                90
_cell_angle_beta                 98.951(2)
_cell_angle_gamma                90
_cell_volume                     682.572
_exptl_crystal_colour            orange
_exptl_crystal_description       plate
_chemical_melting_point          '419-420 K'
_cell_formula_units_Z            2
loop_
_atom_site_label
_atom_site_type_symbol
_atom_site_fract_x
_atom_site_fract_y
_atom_site_fract_z
Br1 Br 0.42495(8) 0.5810(3) 0.13838(11)
C1 C 0.3472(2) 0.8137(6) 0.0059(2)
H1 H 0.3214 0.9959 0.0393
H2 H 0.3887 0.8771 -0.0525
C2 C 0.26550(17) 0.6262(6) -0.0568(2)
C3 C 0.2782(2) 0.4584(14) -0.1592(4)
H3 H 0.3386 0.4577 -0.1859
C4 C 0.2019(2) 0.2927(11) -0.2215(3)
H4 H 0.2107 0.1809 -0.2905
C5 C 0.11229(17) 0.2927(6) -0.1816(2)
H5 H 0.0603 0.1817 -0.2236
C6 C 0.10043(16) 0.4575(6) -0.0794(2)
C7 C 0.17596(18) 0.6268(6) -0.0175(2)
H6 H 0.1666 0.7412 0.0506
N1 N 0.00386(16) 0.4388(5) -0.04866(19)
Br1B Br -0.42495(8) 0.4190(3) -0.13838(11)
C1B C -0.3472(2) 0.1863(6) -0.0059(2)
H1B H -0.3214 0.0041 -0.0393
H2B H -0.3887 0.1229 0.0525
C2B C -0.26550(17) 0.3738(6) 0.0568(2)
C3B C -0.2782(2) 0.5416(14) 0.1592(4)
H3B H -0.3386 0.5423 0.1859
C4B C -0.2019(2) 0.7073(11) 0.2215(3)
H4B H -0.2107 0.8191 0.2905
C5B C -0.11229(17) 0.7073(6) 0.1816(2)
H5B H -0.0603 0.8183 0.2236
C6B C -0.10043(16) 0.5425(6) 0.0794(2)
C7B C -0.17596(18) 0.3732(6) 0.0175(2)
H6B H -0.1666 0.2588 -0.0506
N1B N -0.00386(16) 0.5612(5) 0.04866(19)
Br2? Br 0.4389(4) 0.6015(19) 0.1337(6)
C8? C 0.3806(5) 0.789(3) -0.0219(8)
H7? H 0.3732 1.0066 -0.0105
H8? H 0.4236 0.7585 -0.0822
C9? C 0.2839(4) 0.651(3) -0.0668(7)
C10? C 0.2734(9) 0.458(6) -0.1670(19)
H9? H 0.3255 0.4288 -0.2095
C11? C 0.1863(9) 0.310(6) -0.2041(17)
H10? H 0.1796 0.1798 -0.2714
C12? C 0.1087(6) 0.354(3) -0.1413(9)
H11? H 0.0489 0.2599 -0.1677
C13? C 0.1207(5) 0.537(2) -0.0396(8)
C14? C 0.2081(6) 0.682(3) -0.0007(8)
H12? H 0.2159 0.8011 0.0699
N2? N 0.0362(5) 0.555(3) 0.0202(8)
loop_
_geom_bond_atom_site_label_1
_geom_bond_atom_site_label_2
_geom_bond_site_symmetry_1
_geom_bond_site_symmetry_2
Br1 C1 1_555 1_555
C1 H1 1_555 1_555
H2 C1 1_555 1_555
C2 C1 1_555 1_555
C3 C2 1_555 1_555
H3 C3 1_555 1_555
C4 C3 1_555 1_555
H4 C4 1_555 1_555
C5 C4 1_555 1_555
H5 C5 1_555 1_555
C6 C5 1_555 1_555
C7 C2 1_555 1_555
H6 C7 1_555 1_555
N1 C6 1_555 1_555
Br1B C1B 1_555 1_555
C1B H1B 1_555 1_555
H2B C1B 1_555 1_555
C2B C1B 1_555 1_555
C3B C2B 1_555 1_555
H3B C3B 1_555 1_555
C4B C3B 1_555 1_555
H4B C4B 1_555 1_555
C5B C4B 1_555 1_555
H5B C5B 1_555 1_555
C6B C5B 1_555 1_555
C7B C2B 1_555 1_555
H6B C7B 1_555 1_555
N1B N1 1_555 1_555
C6 C7 1_555 1_555
C6B C7B 1_555 1_555
C6B N1B 1_555 1_555

#END
