
#######################################################################
#
#                 Cambridge Crystallographic Data Centre
#                                CCDC 
#
#######################################################################
#
# If this CIF has been generated from an entry in the Cambridge 
# Structural Database, then it will include bibliographic, chemical, 
# crystal, experimental, refinement or atomic coordinate data resulting 
# from the CCDC's data processing and validation procedures.
#
#######################################################################

data_YUPMIG
_chemical_formula_moiety         'C17 H18 Br1 N5 O1 S1'
_chemical_name_systematic        
4-Bromo-N-(4-t-butyl-5-(1H-1,2,4-triazol-1-ylmethyl)-1,3-thiazol-2-yl)benzamide
_chemical_properties_biological  
'Tested for fungicidal activity in vitro against five species of fungi. No activity was seen for four of the species, with low activity against Alternaria solani. Shown to have potent plant growth regulatory activity, promoting cotyledon rhizogenesis of cucumber seeds'
_symmetry_cell_setting           triclinic
_symmetry_space_group_name_H-M   'P -1'
_symmetry_Int_Tables_number      2
_space_group_name_Hall           '-P 1'
loop_
_symmetry_equiv_pos_site_id
_symmetry_equiv_pos_as_xyz
1 x,y,z
2 -x,-y,-z
_cell_length_a                   6.0091(12)
_cell_length_b                   15.439(3)
_cell_length_c                   19.640(4)
_cell_angle_alpha                94.38(3)
_cell_angle_beta                 91.83(3)
_cell_angle_gamma                94.42(3)
_cell_volume                     1810.06
_exptl_crystal_colour            white
_exptl_crystal_description       block
_chemical_melting_point          '204-205 deg.C'
_cell_formula_units_Z            4
loop_
_atom_site_label
_atom_site_type_symbol
_atom_site_fract_x
_atom_site_fract_y
_atom_site_fract_z
Br1 Br 1.73110(16) 0.17832(7) 0.00361(6)
S1 S 0.5587(4) 0.28836(15) 0.28532(14)
O1 O 0.9244(10) 0.3237(4) 0.2133(4)
N1 N 0.8314(11) 0.1808(5) 0.2156(4)
H1 H 0.8582 0.1288 0.2010
N2 N 0.5548(12) 0.1223(5) 0.2846(5)
N3 N 0.2499(12) 0.3777(5) 0.3731(4)
N4 N 0.3699(14) 0.4160(5) 0.4284(5)
N5 N 0.3130(13) 0.5161(5) 0.3551(4)
C1 C 1.2353(15) 0.1454(6) 0.1419(5)
H3 H 1.1760 0.1006 0.1666
C2 C 1.4036(15) 0.1301(7) 0.1000(5)
H4 H 1.4610 0.0757 0.0958
C3 C 1.4889(15) 0.1973(6) 0.0633(5)
C4 C 1.4172(16) 0.2807(7) 0.0687(5)
H5 H 1.4845 0.3254 0.0454
C5 C 1.2338(16) 0.2944(6) 0.1121(6)
H6 H 1.1732 0.3481 0.1153
C6 C 1.1463(15) 0.2276(6) 0.1492(5)
C7 C 0.9584(15) 0.2459(6) 0.1955(5)
C8 C 0.6574(16) 0.1902(6) 0.2589(5)
C9 C 0.3797(15) 0.1446(6) 0.3270(5)
C10 C 0.3613(16) 0.2346(6) 0.3318(6)
C11 C 0.1883(15) 0.2869(6) 0.3680(5)
H7 H 0.0457 0.2756 0.3431
H8 H 0.1701 0.2676 0.4135
C12 C 0.2144(15) 0.4392(6) 0.3311(5)
H9 H 0.1311 0.4297 0.2901
C13 C 0.3994(19) 0.4970(7) 0.4142(6)
H10 H 0.4773 0.5392 0.4442
C14 C 0.2632(16) 0.0702(7) 0.3585(6)
C15 C 0.1527(19) 0.0056(7) 0.3022(6)
H11 H 0.0274 0.0304 0.2818
H12 H 0.1025 -0.0474 0.3215
H13 H 0.2588 -0.0066 0.2679
C16 C 0.4355(18) 0.0238(8) 0.3976(6)
H14 H 0.5344 -0.0022 0.3660
H15 H 0.3607 -0.0208 0.4220
H16 H 0.5199 0.0651 0.4293
C17 C 0.0830(18) 0.0961(7) 0.4084(6)
H17 H 0.1471 0.1394 0.4426
H18 H 0.0257 0.0457 0.4299
H19 H -0.0363 0.1194 0.3837
Br2 Br -0.27886(17) 0.28031(8) 0.49924(6)
S2 S 0.9430(4) 0.21944(15) 0.78452(14)
O2 O 0.5516(11) 0.1755(4) 0.7168(4)
N6 N 0.6671(12) 0.3177(5) 0.7120(4)
H2 H 0.6428 0.3659 0.6948
N7 N 0.9680(12) 0.3860(5) 0.7802(4)
N8 N 1.2585(12) 0.1424(5) 0.8709(4)
N9 N 1.1245(14) 0.1156(6) 0.9243(5)
N10 N 1.1975(14) 0.0005(5) 0.8512(5)
C18 C 0.2597(16) 0.3380(6) 0.6345(5)
H20 H 0.3368 0.3882 0.6553
C19 C 0.0752(15) 0.3477(7) 0.5908(5)
H21 H 0.0271 0.4020 0.5827
C20 C -0.0296(15) 0.2710(6) 0.5606(5)
C21 C 0.0278(16) 0.1878(7) 0.5742(6)
H22 H -0.0547 0.1382 0.5547
C22 C 0.2114(15) 0.1816(6) 0.6176(6)
H23 H 0.2568 0.1274 0.6270
C23 C 0.3315(14) 0.2607(6) 0.6480(5)
C24 C 0.5258(15) 0.2471(6) 0.6954(5)
C25 C 0.8566(16) 0.3150(6) 0.7572(5)
C26 C 1.1447(15) 0.3670(6) 0.8234(5)
C27 C 1.1609(16) 0.2825(7) 0.8321(5)
C28 C 1.3274(16) 0.2301(6) 0.8709(7)
H24 H 1.4713 0.2360 0.8501
H25 H 1.3466 0.2550 0.9178
C29 C 1.2934(16) 0.0722(6) 0.8311(6)
H26 H 1.3785 0.0738 0.7924
C30 C 1.0945(16) 0.0314(6) 0.9096(5)
H27 H 1.0104 -0.0051 0.9363
C31 C 1.2804(15) 0.4505(6) 0.8580(6)
C32 C 1.4755(17) 0.4264(7) 0.9038(6)
H28 H 1.5461 0.4783 0.9279
H29 H 1.5823 0.3988 0.8759
H30 H 1.4199 0.3872 0.9360
C33 C 1.1259(18) 0.5024(7) 0.8977(6)
H31 H 1.0812 0.4726 0.9368
H32 H 0.9965 0.5100 0.8695
H33 H 1.1995 0.5584 0.9125
C34 C 1.3812(19) 0.5014(6) 0.8003(6)
H34 H 1.2650 0.5108 0.7676
H35 H 1.4913 0.4685 0.7781
H36 H 1.4499 0.5566 0.8192
loop_
_geom_bond_atom_site_label_1
_geom_bond_atom_site_label_2
_geom_bond_site_symmetry_1
_geom_bond_site_symmetry_2
Br1 C3 1_555 1_555
Br2 C20 1_555 1_555
S1 C8 1_555 1_555
S2 C25 1_555 1_555
O1 C7 1_555 1_555
O2 C24 1_555 1_555
N1 H1 1_555 1_555
N2 C8 1_555 1_555
N3 N4 1_555 1_555
N4 C13 1_555 1_555
N5 C12 1_555 1_555
N6 H2 1_555 1_555
N7 C25 1_555 1_555
N8 N9 1_555 1_555
N9 C30 1_555 1_555
N10 C29 1_555 1_555
C1 H3 1_555 1_555
C2 C1 1_555 1_555
H4 C2 1_555 1_555
C3 C2 1_555 1_555
C4 C3 1_555 1_555
H5 C4 1_555 1_555
C5 C4 1_555 1_555
H6 C5 1_555 1_555
C6 C1 1_555 1_555
C7 N1 1_555 1_555
C8 N1 1_555 1_555
C9 N2 1_555 1_555
C10 S1 1_555 1_555
C11 N3 1_555 1_555
H7 C11 1_555 1_555
H8 C11 1_555 1_555
C12 N3 1_555 1_555
H9 C12 1_555 1_555
C13 N5 1_555 1_555
H10 C13 1_555 1_555
C14 C9 1_555 1_555
C15 C14 1_555 1_555
H11 C15 1_555 1_555
H12 C15 1_555 1_555
H13 C15 1_555 1_555
C16 C14 1_555 1_555
H14 C16 1_555 1_555
H15 C16 1_555 1_555
H16 C16 1_555 1_555
C17 C14 1_555 1_555
H17 C17 1_555 1_555
H18 C17 1_555 1_555
H19 C17 1_555 1_555
C18 H20 1_555 1_555
C19 C18 1_555 1_555
H21 C19 1_555 1_555
C20 C19 1_555 1_555
C21 C20 1_555 1_555
H22 C21 1_555 1_555
C22 C21 1_555 1_555
H23 C22 1_555 1_555
C23 C18 1_555 1_555
C24 N6 1_555 1_555
C25 N6 1_555 1_555
C26 N7 1_555 1_555
C27 S2 1_555 1_555
C28 N8 1_555 1_555
H24 C28 1_555 1_555
H25 C28 1_555 1_555
C29 N8 1_555 1_555
H26 C29 1_555 1_555
C30 N10 1_555 1_555
H27 C30 1_555 1_555
C31 C26 1_555 1_555
C32 C31 1_555 1_555
H28 C32 1_555 1_555
H29 C32 1_555 1_555
H30 C32 1_555 1_555
C33 C31 1_555 1_555
H31 C33 1_555 1_555
H32 C33 1_555 1_555
H33 C33 1_555 1_555
C34 C31 1_555 1_555
H34 C34 1_555 1_555
H35 C34 1_555 1_555
H36 C34 1_555 1_555
C5 C6 1_555 1_555
C6 C7 1_555 1_555
C9 C10 1_555 1_555
C10 C11 1_555 1_555
C22 C23 1_555 1_555
C23 C24 1_555 1_555
C26 C27 1_555 1_555
C27 C28 1_555 1_555

#END
