
#######################################################################
#
#                 Cambridge Crystallographic Data Centre
#                                CCDC 
#
#######################################################################
#
# If this CIF has been generated from an entry in the Cambridge 
# Structural Database, then it will include bibliographic, chemical, 
# crystal, experimental, refinement or atomic coordinate data resulting 
# from the CCDC's data processing and validation procedures.
#
#######################################################################

data_YUPMEC
_chemical_formula_moiety         'C26 H25 N1 O1'
_chemical_name_systematic        
rac-7-Isopropyl-3,3-dimethyl-10'H-spiro(indoline-2,9'-phenanthren)-10'-one
_symmetry_cell_setting           monoclinic
_symmetry_space_group_name_H-M   'P 21/n'
_symmetry_Int_Tables_number      14
_space_group_name_Hall           '-P 2yn'
loop_
_symmetry_equiv_pos_site_id
_symmetry_equiv_pos_as_xyz
1 x,y,z
2 1/2-x,1/2+y,1/2-z
3 -x,-y,-z
4 1/2+x,1/2-y,1/2+z
_cell_length_a                   7.8021(7)
_cell_length_b                   13.2580(9)
_cell_length_c                   18.8037(17)
_cell_angle_alpha                90
_cell_angle_beta                 93.178(5)
_cell_angle_gamma                90
_cell_volume                     1942.07
_exptl_crystal_colour            'bright yellow'
_exptl_crystal_description       prism
_cell_formula_units_Z            4
_exptl_crystal_recrystallization_method heptane
loop_
_atom_site_label
_atom_site_type_symbol
_atom_site_fract_x
_atom_site_fract_y
_atom_site_fract_z
O1 O 0.7584(2) 0.02313(11) 0.88226(8)
C1 C 1.1219(3) -0.16078(15) 0.90394(11)
C2 C 0.8770(3) 0.14035(15) 0.80362(11)
C3 C 1.2517(3) -0.08934(15) 0.90976(10)
C4 C 1.0477(3) -0.03571(14) 0.75159(11)
C5 C 0.9571(3) 0.14378(15) 0.73845(11)
C6 C 1.4038(3) -0.11026(16) 0.94741(11)
H1 H 1.4924 -0.0632 0.9501
C7 C 0.8719(3) 0.04415(16) 0.84219(11)
C8 C 1.0203(3) -0.02746(14) 0.83151(11)
C9 C 1.4224(3) -0.20291(16) 0.98136(11)
H2 H 1.5235 -0.2179 1.0078
N1 N 0.9825(3) -0.12723(13) 0.86065(10)
C10 C 1.1386(3) -0.25604(15) 0.93581(11)
C11 C 0.8088(3) 0.22717(17) 0.83267(13)
H3 H 0.7520 0.2235 0.8748
C12 C 1.0381(3) 0.03850(17) 0.63487(11)
H4 H 1.0127 0.0928 0.6048
C13 C 0.9715(3) 0.23708(16) 0.70536(12)
H5 H 1.0248 0.2415 0.6624
C14 C 1.0172(3) 0.04836(15) 0.70775(11)
C15 C 0.8258(3) 0.31839(18) 0.79887(14)
H6 H 0.7824 0.3768 0.8186
C16 C 1.2908(3) -0.27320(16) 0.97587(11)
H7 H 1.3049 -0.3342 0.9999
C17 C 1.1316(3) -0.13192(17) 0.65047(13)
H8 H 1.1720 -0.1918 0.6318
C18 C 1.3245(3) 0.05918(16) 0.83139(12)
H9 H 1.2790 0.1210 0.8115
H10 H 1.3526 0.0145 0.7936
H11 H 1.4260 0.0733 0.8609
C19 C 1.1480(3) 0.08243(15) 0.93692(12)
H12 H 1.1091 0.1456 0.9169
H13 H 1.2491 0.0934 0.9674
H14 H 1.0596 0.0537 0.9641
C20 C 1.1903(3) 0.00930(15) 0.87626(11)
C21 C 0.9077(3) 0.32301(17) 0.73545(14)
H15 H 0.9197 0.3849 0.7129
C22 C 1.0959(3) -0.05090(18) 0.60667(12)
H16 H 1.1105 -0.0561 0.5581
C23 C 1.1070(3) -0.12414(16) 0.72292(12)
H17 H 1.1308 -0.1792 0.7525
C24 C 0.9829(3) -0.37367(18) 0.84873(13)
H18 H 0.8939 -0.4236 0.8442
H19 H 1.0900 -0.4031 0.8367
H20 H 0.9551 -0.3185 0.8171
C25 C 0.9984(4) -0.3352(2) 0.92505(14)
H21 H 1.0502 -0.3933 0.9503
C26 C 0.8570(6) -0.3222(4) 0.9588(3)
H22 H 0.8856 -0.2995 1.0065
H23 H 0.7958 -0.3849 0.9604
H24 H 0.7861 -0.2727 0.9342
H25 H 0.882(4) -0.126(2) 0.8764(15)
C27? C 0.9705(8) -0.4075(4) 0.9852(3)
H26? H 0.9855 -0.3726 1.0298
H27? H 1.0519 -0.4617 0.9840
H28? H 0.8561 -0.4343 0.9802
loop_
_geom_bond_atom_site_label_1
_geom_bond_atom_site_label_2
_geom_bond_site_symmetry_1
_geom_bond_site_symmetry_2
O1 C7 1_555 1_555
C1 C3 1_555 1_555
C2 C5 1_555 1_555
C3 C6 1_555 1_555
C4 C8 1_555 1_555
C5 C13 1_555 1_555
C6 H1 1_555 1_555
C7 C2 1_555 1_555
C8 C7 1_555 1_555
C9 C6 1_555 1_555
H2 C9 1_555 1_555
N1 C1 1_555 1_555
C10 C1 1_555 1_555
C11 C2 1_555 1_555
H3 C11 1_555 1_555
C12 H4 1_555 1_555
C13 H5 1_555 1_555
C14 C4 1_555 1_555
C15 C11 1_555 1_555
H6 C15 1_555 1_555
C16 C9 1_555 1_555
H7 C16 1_555 1_555
C17 H8 1_555 1_555
C18 H9 1_555 1_555
H10 C18 1_555 1_555
H11 C18 1_555 1_555
C19 H12 1_555 1_555
H13 C19 1_555 1_555
H14 C19 1_555 1_555
C20 C3 1_555 1_555
C21 C13 1_555 1_555
H15 C21 1_555 1_555
C22 C12 1_555 1_555
H16 C22 1_555 1_555
C23 C4 1_555 1_555
H17 C23 1_555 1_555
C24 H18 1_555 1_555
H19 C24 1_555 1_555
H20 C24 1_555 1_555
C25 C10 1_555 1_555
H21 C25 1_555 1_555
C26 C25 1_555 1_555
H22 C26 1_555 1_555
H23 C26 1_555 1_555
H24 C26 1_555 1_555
H25 N1 1_555 1_555
C5 C14 1_555 1_555
C8 N1 1_555 1_555
C8 C20 1_555 1_555
C10 C16 1_555 1_555
C12 C14 1_555 1_555
C15 C21 1_555 1_555
C17 C22 1_555 1_555
C17 C23 1_555 1_555
C18 C20 1_555 1_555
C19 C20 1_555 1_555
C24 C25 1_555 1_555

#END
