
#######################################################################
#
#                 Cambridge Crystallographic Data Centre
#                                CCDC 
#
#######################################################################
#
# If this CIF has been generated from an entry in the Cambridge 
# Structural Database, then it will include bibliographic, chemical, 
# crystal, experimental, refinement or atomic coordinate data resulting 
# from the CCDC's data processing and validation procedures.
#
#######################################################################

data_YUPPUV
_chemical_name_common            
(E)-1-(5-((4-Chlorophenyl)sulfanyl)-1-methyl-3-(trifluoromethyl)-1H-pyrazol-4-yl)-N-((6-chloro-3-pyridinyl)methoxy)methanimine
_chemical_formula_moiety         'C18 H13 Cl2 F3 N4 O1 S1'
_chemical_name_systematic        
'(E)-5-(4-Chlorophenylthio)-3-(trifluoromethyl)-1-methyl-1H-pyrazole-4-carbaldehyde O-((2-chloropyridin-5-yl)methyl)oxime'
_chemical_properties_biological  
'Excellent insecticidal activity against pea aphids Aphis craccivora. Also shown to have plant growth regulatory activity, with promotion effects on the radicle growth of cucumber cotyledons'
_symmetry_cell_setting           monoclinic
_symmetry_space_group_name_H-M   'P 21/c'
_symmetry_Int_Tables_number      14
_space_group_name_Hall           '-P 2ybc'
loop_
_symmetry_equiv_pos_site_id
_symmetry_equiv_pos_as_xyz
1 x,y,z
2 -x,1/2+y,1/2-z
3 -x,-y,-z
4 x,1/2-y,1/2+z
_cell_length_a                   14.694(3)
_cell_length_b                   10.444(2)
_cell_length_c                   25.149(5)
_cell_angle_alpha                90
_cell_angle_beta                 93.07(3)
_cell_angle_gamma                90
_cell_volume                     3853.93
_exptl_crystal_colour            colorless
_exptl_crystal_description       block
_chemical_melting_point          '79-81 deg.C'
_cell_formula_units_Z            8
loop_
_atom_site_label
_atom_site_type_symbol
_atom_site_fract_x
_atom_site_fract_y
_atom_site_fract_z
S1 S 1.03988(7) 0.65987(9) 0.06905(3)
Cl1 Cl 1.09649(7) 0.83999(9) 0.30617(3)
Cl2 Cl 0.67952(8) 0.23410(10) 0.31018(4)
F1 F 1.04866(17) 0.0686(2) 0.04877(10)
F2 F 0.91648(17) 0.1394(2) 0.02543(9)
F3 F 0.9543(2) 0.1145(2) 0.10792(9)
O1 O 0.73244(17) 0.4127(2) 0.06316(9)
N1 N 1.1121(2) 0.3003(3) 0.06660(11)
N2 N 1.1256(2) 0.4268(3) 0.06928(11)
N3 N 0.8188(2) 0.3539(3) 0.06876(11)
N4 N 0.6501(2) 0.3671(3) 0.22353(12)
C1 C 0.9854(3) 0.1536(3) 0.06159(13)
C2 C 1.0224(2) 0.2858(3) 0.06411(12)
C3 C 0.9759(3) 0.4038(3) 0.06545(12)
C4 C 1.0465(3) 0.4932(3) 0.06897(13)
C5 C 1.2181(3) 0.4774(5) 0.07394(17)
H1 H 1.2382 0.4823 0.1109
H2 H 1.2192 0.5613 0.0584
H3 H 1.2580 0.4218 0.0556
C6 C 1.0569(3) 0.7008(3) 0.13763(13)
C7 C 1.0648(3) 0.6131(4) 0.17925(14)
H4 H 1.0622 0.5257 0.1723
C8 C 1.0767(3) 0.6567(4) 0.23078(14)
H5 H 1.0818 0.5987 0.2588
C9 C 1.0809(3) 0.7865(4) 0.24087(13)
C10 C 1.0738(3) 0.8745(4) 0.19984(14)
H6 H 1.0773 0.9618 0.2069
C11 C 1.0613(3) 0.8307(3) 0.14838(14)
H7 H 1.0558 0.8890 0.1205
C12 C 0.8813(2) 0.4376(3) 0.06286(12)
H8 H 0.8648 0.5225 0.0567
C13 C 0.6652(3) 0.3192(4) 0.07595(14)
H9 H 0.6754 0.2412 0.0562
H10 H 0.6051 0.3512 0.0651
C14 C 0.6685(3) 0.2889(4) 0.13469(14)
C15 C 0.6952(3) 0.1710(4) 0.15519(14)
H11 H 0.7110 0.1053 0.1325
C16 C 0.6982(3) 0.1515(4) 0.20956(14)
H12 H 0.7148 0.0727 0.2243
C17 C 0.6757(3) 0.2532(4) 0.24112(14)
C18 C 0.6468(3) 0.3827(4) 0.17025(14)
H13 H 0.6286 0.4621 0.1567
S2 S 0.41778(7) 1.15986(9) 0.06825(3)
Cl3 Cl 0.41802(7) 1.33956(10) 0.30610(3)
Cl4 Cl 0.83392(8) 0.73616(10) 0.30707(4)
F4 F 0.53029(17) 0.6389(2) 0.01994(9)
F5 F 0.40805(17) 0.5676(2) 0.05169(9)
F6 F 0.52188(18) 0.6186(2) 0.10435(9)
O2 O 0.72588(18) 0.9141(2) 0.06090(10)
N5 N 0.3477(2) 0.7988(3) 0.06530(11)
N6 N 0.3340(2) 0.9261(3) 0.06848(12)
N7 N 0.6411(2) 0.8554(3) 0.06619(11)
N8 N 0.8436(2) 0.8686(3) 0.22002(13)
C19 C 0.4743(3) 0.6539(3) 0.05985(13)
C20 C 0.4377(2) 0.7861(3) 0.06319(12)
C21 C 0.4832(2) 0.9048(3) 0.06482(12)
C22 C 0.4130(3) 0.9929(3) 0.06845(12)
C23 C 0.2426(3) 0.9744(4) 0.07239(17)
H14 H 0.1998 0.9137 0.0569
H15 H 0.2365 1.0543 0.0537
H16 H 0.2306 0.9872 0.1092
C24 C 0.4171(3) 1.2004(3) 0.13710(13)
C25 C 0.4181(3) 1.1128(3) 0.17853(14)
H17 H 0.4185 1.0254 0.1715
C26 C 0.4186(3) 1.1566(4) 0.23052(14)
H18 H 0.4191 1.0986 0.2586
C27 C 0.4183(3) 1.2861(4) 0.24063(13)
C28 C 0.4163(3) 1.3742(4) 0.19949(14)
H19 H 0.4152 1.4615 0.2067
C29 C 0.4161(3) 1.3311(3) 0.14765(14)
H20 H 0.4152 1.3895 0.1197
C30 C 0.5777(3) 0.9398(4) 0.06257(12)
H21 H 0.5931 1.0254 0.0584
C31 C 0.7957(3) 0.8200(4) 0.07290(15)
H22 H 0.8535 0.8516 0.0613
H23 H 0.7810 0.7420 0.0533
C32 C 0.8050(3) 0.7902(4) 0.13125(14)
C33 C 0.7828(3) 0.6724(4) 0.15267(15)
H24 H 0.7617 0.6063 0.1305
C34 C 0.7921(3) 0.6538(4) 0.20680(15)
H25 H 0.7782 0.5753 0.2218
C35 C 0.8224(3) 0.7545(4) 0.23808(14)
C36 C 0.8353(3) 0.8846(4) 0.16710(14)
H26 H 0.8507 0.9640 0.1534
loop_
_geom_bond_atom_site_label_1
_geom_bond_atom_site_label_2
_geom_bond_site_symmetry_1
_geom_bond_site_symmetry_2
S1 C4 1_555 1_555
S2 C22 1_555 1_555
Cl1 C9 1_555 1_555
Cl2 C17 1_555 1_555
Cl3 C27 1_555 1_555
Cl4 C35 1_555 1_555
F1 C1 1_555 1_555
F2 C1 1_555 1_555
F3 C1 1_555 1_555
F4 C19 1_555 1_555
F5 C19 1_555 1_555
F6 C19 1_555 1_555
O1 N3 1_555 1_555
O2 N7 1_555 1_555
N1 N2 1_555 1_555
N2 C4 1_555 1_555
N3 C12 1_555 1_555
N4 C17 1_555 1_555
N5 N6 1_555 1_555
N6 C22 1_555 1_555
N7 C30 1_555 1_555
N8 C35 1_555 1_555
C1 C2 1_555 1_555
C2 N1 1_555 1_555
C3 C2 1_555 1_555
C4 C3 1_555 1_555
C5 N2 1_555 1_555
H1 C5 1_555 1_555
H2 C5 1_555 1_555
H3 C5 1_555 1_555
C6 S1 1_555 1_555
C7 C6 1_555 1_555
H4 C7 1_555 1_555
C8 C7 1_555 1_555
H5 C8 1_555 1_555
C9 C8 1_555 1_555
C10 C9 1_555 1_555
H6 C10 1_555 1_555
C11 C6 1_555 1_555
H7 C11 1_555 1_555
C12 C3 1_555 1_555
H8 C12 1_555 1_555
C13 O1 1_555 1_555
H9 C13 1_555 1_555
H10 C13 1_555 1_555
C14 C13 1_555 1_555
C15 C14 1_555 1_555
H11 C15 1_555 1_555
C16 C15 1_555 1_555
H12 C16 1_555 1_555
C17 C16 1_555 1_555
C18 N4 1_555 1_555
H13 C18 1_555 1_555
C19 C20 1_555 1_555
C20 N5 1_555 1_555
C21 C20 1_555 1_555
C22 C21 1_555 1_555
C23 N6 1_555 1_555
H14 C23 1_555 1_555
H15 C23 1_555 1_555
H16 C23 1_555 1_555
C24 S2 1_555 1_555
C25 C24 1_555 1_555
H17 C25 1_555 1_555
C26 C25 1_555 1_555
H18 C26 1_555 1_555
C27 C26 1_555 1_555
C28 C27 1_555 1_555
H19 C28 1_555 1_555
C29 C24 1_555 1_555
H20 C29 1_555 1_555
C30 C21 1_555 1_555
H21 C30 1_555 1_555
C31 O2 1_555 1_555
H22 C31 1_555 1_555
H23 C31 1_555 1_555
C32 C31 1_555 1_555
C33 C32 1_555 1_555
H24 C33 1_555 1_555
C34 C33 1_555 1_555
H25 C34 1_555 1_555
C35 C34 1_555 1_555
C36 N8 1_555 1_555
H26 C36 1_555 1_555
C10 C11 1_555 1_555
C14 C18 1_555 1_555
C28 C29 1_555 1_555
C32 C36 1_555 1_555

#END
