
#######################################################################
#
#                 Cambridge Crystallographic Data Centre
#                                CCDC 
#
#######################################################################
#
# If this CIF has been generated from an entry in the Cambridge 
# Structural Database, then it will include bibliographic, chemical, 
# crystal, experimental, refinement or atomic coordinate data resulting 
# from the CCDC's data processing and validation procedures.
#
#######################################################################

data_YUPPEG05
_chemical_name_common            bis(4-(bromomethyl)phenyl)diazene
_chemical_formula_moiety         'C14 H12 Br2 N2'
_chemical_name_systematic        (1E)-1,2-bis[4-(Bromomethyl)phenyl]-diazene
_symmetry_cell_setting           monoclinic
_symmetry_space_group_name_H-M   'P 21/c'
_symmetry_Int_Tables_number      14
_space_group_name_Hall           '-P 2ybc'
loop_
_symmetry_equiv_pos_site_id
_symmetry_equiv_pos_as_xyz
1 x,y,z
2 -x,1/2+y,1/2-z
3 -x,-y,-z
4 x,1/2-y,1/2+z
_cell_length_a                   13.061(3)
_cell_length_b                   4.5482(9)
_cell_length_c                   11.736(2)
_cell_angle_alpha                90
_cell_angle_beta                 102.463(3)
_cell_angle_gamma                90
_cell_volume                     680.738
_exptl_crystal_colour            orange
_exptl_crystal_description       plate
_chemical_melting_point          '492-498 K'
_cell_formula_units_Z            2
loop_
_atom_site_label
_atom_site_type_symbol
_atom_site_fract_x
_atom_site_fract_y
_atom_site_fract_z
Br1 Br -0.4355(2) 1.1344(11) 0.6589(4)
C1 C -0.3462(8) 1.323(3) 0.5646(10)
H1 H -0.3880 1.3623 0.4851
H2 H -0.3199 1.5133 0.6003
C2 C -0.2559(10) 1.128(5) 0.5576(11)
C3 C -0.1712(7) 1.099(2) 0.6514(8)
H3 H -0.1693 1.2091 0.7207
C4 C -0.0890(4) 0.9100(12) 0.6443(4)
H4 H -0.0327 0.8857 0.7100
C5 C -0.0886(4) 0.7581(11) 0.5434(4)
C6 C -0.1693(7) 0.799(3) 0.4478(6)
H5 H -0.1670 0.7053 0.3760
C7 C -0.2541(15) 0.976(5) 0.4558(11)
H6 H -0.3114 0.9929 0.3908
N1 N 0.0005(3) 0.5656(8) 0.5472(3)
Br1B Br 0.4355(2) -0.1344(11) 0.3411(4)
C1B C 0.3462(8) -0.323(3) 0.4354(10)
H1B H 0.3880 -0.3623 0.5149
H2B H 0.3199 -0.5133 0.3997
C2B C 0.2559(10) -0.128(5) 0.4424(11)
C3B C 0.1712(7) -0.099(2) 0.3486(8)
H3B H 0.1693 -0.2091 0.2793
C4B C 0.0890(4) 0.0900(12) 0.3557(4)
H4B H 0.0327 0.1143 0.2900
C5B C 0.0886(4) 0.2419(11) 0.4566(4)
C6B C 0.1693(7) 0.201(3) 0.5522(6)
H5B H 0.1670 0.2947 0.6240
C7B C 0.2541(15) 0.024(5) 0.5442(11)
H6B H 0.3114 0.0071 0.6092
N1B N -0.0005(3) 0.4344(8) 0.4528(3)
Br2? Br -0.4186(5) 1.119(2) 0.6745(7)
C8? C -0.3297(16) 1.329(5) 0.586(2)
H7? H -0.3740 1.4144 0.5150
H8? H -0.2931 1.4921 0.6344
C9? C -0.2509(19) 1.126(9) 0.554(2)
C10? C -0.1623(15) 1.043(4) 0.6373(17)
H9? H -0.1525 1.1140 0.7150
C11? C -0.0894(9) 0.859(2) 0.6068(10)
H10? H -0.0266 0.8144 0.6618
C12? C -0.1067(10) 0.740(2) 0.4988(9)
C13? C -0.1944(15) 0.806(5) 0.4170(13)
H11? H -0.2065 0.7136 0.3426
C14? C -0.267(3) 1.008(10) 0.442(2)
H12? H -0.3256 1.0640 0.3835
N2? N -0.0379(6) 0.5327(15) 0.4607(7)
loop_
_geom_bond_atom_site_label_1
_geom_bond_atom_site_label_2
_geom_bond_site_symmetry_1
_geom_bond_site_symmetry_2
Br1 C1 1_555 1_555
C1 H1 1_555 1_555
H2 C1 1_555 1_555
C2 C1 1_555 1_555
C3 C2 1_555 1_555
H3 C3 1_555 1_555
C4 C3 1_555 1_555
H4 C4 1_555 1_555
C5 C4 1_555 1_555
C6 C5 1_555 1_555
H5 C6 1_555 1_555
C7 C2 1_555 1_555
H6 C7 1_555 1_555
N1 C5 1_555 1_555
Br1B C1B 1_555 1_555
C1B H1B 1_555 1_555
H2B C1B 1_555 1_555
C2B C1B 1_555 1_555
C3B C2B 1_555 1_555
H3B C3B 1_555 1_555
C4B C3B 1_555 1_555
H4B C4B 1_555 1_555
C5B C4B 1_555 1_555
C6B C5B 1_555 1_555
H5B C6B 1_555 1_555
C7B C2B 1_555 1_555
H6B C7B 1_555 1_555
N1B N1 1_555 1_555
C6 C7 1_555 1_555
C5B N1B 1_555 1_555
C6B C7B 1_555 1_555

#END
