
#######################################################################
#
#                 Cambridge Crystallographic Data Centre
#                                CCDC 
#
#######################################################################
#
# If this CIF has been generated from an entry in the Cambridge 
# Structural Database, then it will include bibliographic, chemical, 
# crystal, experimental, refinement or atomic coordinate data resulting 
# from the CCDC's data processing and validation procedures.
#
#######################################################################

data_YUPPEG01
_chemical_name_common            bis(4-(bromomethyl)phenyl)diazene
_chemical_formula_moiety         'C14 H12 Br2 N2'
_chemical_name_systematic        (1E)-1,2-bis[4-(Bromomethyl)phenyl]-diazene
_symmetry_cell_setting           monoclinic
_symmetry_space_group_name_H-M   'P 21/c'
_symmetry_Int_Tables_number      14
_space_group_name_Hall           '-P 2ybc'
loop_
_symmetry_equiv_pos_site_id
_symmetry_equiv_pos_as_xyz
1 x,y,z
2 -x,1/2+y,1/2-z
3 -x,-y,-z
4 x,1/2-y,1/2+z
_cell_length_a                   12.9484(15)
_cell_length_b                   4.4854(5)
_cell_length_c                   11.6092(13)
_cell_angle_alpha                90
_cell_angle_beta                 102.5452(14)
_cell_angle_gamma                90
_cell_volume                     658.15
_exptl_crystal_colour            orange
_exptl_crystal_description       plate
_chemical_melting_point          '492-498 K'
_cell_formula_units_Z            2
loop_
_atom_site_label
_atom_site_type_symbol
_atom_site_fract_x
_atom_site_fract_y
_atom_site_fract_z
Br1 Br -0.43720(10) 1.1444(3) 0.65867(12)
C1 C -0.3471(4) 1.3399(12) 0.5635(4)
H1 H -0.3894 1.3822 0.4834
H2 H -0.3202 1.5315 0.6006
C2 C -0.2565(6) 1.141(3) 0.5555(6)
C3 C -0.1729(3) 1.1043(10) 0.6530(4)
H3 H -0.1727 1.2104 0.7239
C4 C -0.08966(18) 0.9117(5) 0.6468(2)
H4 H -0.0338 0.8838 0.7140
C5 C -0.08827(17) 0.7607(4) 0.5425(2)
C6 C -0.1693(2) 0.8024(6) 0.4442(2)
H5 H -0.1677 0.7020 0.3725
C7 C -0.2534(4) 0.9925(18) 0.4506(5)
H6 H -0.3089 1.0208 0.3830
N1 N 0.00005(14) 0.5659(4) 0.54805(15)
Br1B Br 0.43720(10) -0.1444(3) 0.34133(12)
C1B C 0.3471(4) -0.3399(12) 0.4365(4)
H1B H 0.3894 -0.3822 0.5166
H2B H 0.3202 -0.5315 0.3994
C2B C 0.2565(6) -0.141(3) 0.4445(6)
C3B C 0.1729(3) -0.1043(10) 0.3470(4)
H3B H 0.1727 -0.2104 0.2761
C4B C 0.08966(18) 0.0883(5) 0.3532(2)
H4B H 0.0338 0.1162 0.2860
C5B C 0.08827(17) 0.2393(4) 0.4575(2)
C6B C 0.1693(2) 0.1976(6) 0.5558(2)
H5B H 0.1677 0.2980 0.6275
C7B C 0.2534(4) 0.0075(18) 0.5494(5)
H6B H 0.3089 -0.0208 0.6170
N1B N -0.00005(14) 0.4341(4) 0.45195(15)
Br2? Br -0.4261(4) 1.1267(13) 0.6723(4)
C8? C -0.3354(15) 1.348(4) 0.5853(18)
H7? H -0.3791 1.4289 0.5112
H8? H -0.3012 1.5170 0.6337
C9? C -0.253(2) 1.144(10) 0.557(2)
C10? C -0.1614(14) 1.062(4) 0.6414(15)
H9? H -0.1488 1.1393 0.7194
C11? C -0.0903(8) 0.868(2) 0.6081(8)
H10? H -0.0271 0.8166 0.6630
C12? C -0.1097(7) 0.7485(17) 0.4976(7)
C13? C -0.1969(8) 0.826(3) 0.4158(9)
H11? H -0.2070 0.7479 0.3380
C14? C -0.2709(18) 1.015(7) 0.4440(19)
H12? H -0.3341 1.0579 0.3876
N2? N -0.0379(5) 0.5378(14) 0.4605(5)
loop_
_geom_bond_atom_site_label_1
_geom_bond_atom_site_label_2
_geom_bond_site_symmetry_1
_geom_bond_site_symmetry_2
Br1 C1 1_555 1_555
C1 H1 1_555 1_555
H2 C1 1_555 1_555
C2 C1 1_555 1_555
C3 C2 1_555 1_555
H3 C3 1_555 1_555
C4 C3 1_555 1_555
H4 C4 1_555 1_555
C5 C4 1_555 1_555
C6 C5 1_555 1_555
H5 C6 1_555 1_555
C7 C2 1_555 1_555
H6 C7 1_555 1_555
N1 C5 1_555 1_555
Br1B C1B 1_555 1_555
C1B H1B 1_555 1_555
H2B C1B 1_555 1_555
C2B C1B 1_555 1_555
C3B C2B 1_555 1_555
H3B C3B 1_555 1_555
C4B C3B 1_555 1_555
H4B C4B 1_555 1_555
C5B C4B 1_555 1_555
C6B C5B 1_555 1_555
H5B C6B 1_555 1_555
C7B C2B 1_555 1_555
H6B C7B 1_555 1_555
N1B N1 1_555 1_555
C6 C7 1_555 1_555
C5B N1B 1_555 1_555
C6B C7B 1_555 1_555

#END
