
#######################################################################
#
#                 Cambridge Crystallographic Data Centre
#                                CCDC 
#
#######################################################################
#
# If this CIF has been generated from an entry in the Cambridge 
# Structural Database, then it will include bibliographic, chemical, 
# crystal, experimental, refinement or atomic coordinate data resulting 
# from the CCDC's data processing and validation procedures.
#
#######################################################################

data_YUPPEG03
_chemical_name_common            bis(4-(bromomethyl)phenyl)diazene
_chemical_formula_moiety         'C14 H12 Br2 N2'
_chemical_name_systematic        (1E)-1,2-bis[4-(Bromomethyl)phenyl]-diazene
_symmetry_cell_setting           monoclinic
_symmetry_space_group_name_H-M   'P 21/c'
_symmetry_Int_Tables_number      14
_space_group_name_Hall           '-P 2ybc'
loop_
_symmetry_equiv_pos_site_id
_symmetry_equiv_pos_as_xyz
1 x,y,z
2 -x,1/2+y,1/2-z
3 -x,-y,-z
4 x,1/2-y,1/2+z
_cell_length_a                   12.9974(15)
_cell_length_b                   4.5160(5)
_cell_length_c                   11.6594(13)
_cell_angle_alpha                90
_cell_angle_beta                 102.481(2)
_cell_angle_gamma                90
_cell_volume                     668.19
_exptl_crystal_colour            orange
_exptl_crystal_description       plate
_chemical_melting_point          '492-498 K'
_cell_formula_units_Z            2
loop_
_atom_site_label
_atom_site_type_symbol
_atom_site_fract_x
_atom_site_fract_y
_atom_site_fract_z
Br1 Br -0.43600(14) 1.1413(5) 0.65883(17)
C1 C -0.3461(5) 1.3328(16) 0.5636(5)
H1 H -0.3881 1.3737 0.4837
H2 H -0.3192 1.5236 0.6000
C2 C -0.2560(7) 1.135(3) 0.5562(7)
C3 C -0.1725(4) 1.0992(14) 0.6526(5)
H3 H -0.1722 1.2039 0.7233
C4 C -0.0894(2) 0.9106(6) 0.6455(3)
H4 H -0.0331 0.8855 0.7119
C5 C -0.0881(2) 0.7590(6) 0.5423(3)
C6 C -0.1687(3) 0.7991(10) 0.4451(3)
H5 H -0.1667 0.7018 0.3734
C7 C -0.2534(6) 0.984(2) 0.4527(6)
H6 H -0.3099 1.0062 0.3863
N1 N 0.00051(19) 0.5662(5) 0.54818(19)
Br1B Br 0.43600(14) -0.1413(5) 0.34117(17)
C1B C 0.3461(5) -0.3328(16) 0.4364(5)
H1B H 0.3881 -0.3737 0.5163
H2B H 0.3192 -0.5236 0.4000
C2B C 0.2560(7) -0.135(3) 0.4438(7)
C3B C 0.1725(4) -0.0992(14) 0.3474(5)
H3B H 0.1722 -0.2039 0.2767
C4B C 0.0894(2) 0.0894(6) 0.3545(3)
H4B H 0.0331 0.1145 0.2881
C5B C 0.0881(2) 0.2410(6) 0.4577(3)
C6B C 0.1687(3) 0.2009(10) 0.5549(3)
H5B H 0.1667 0.2982 0.6266
C7B C 0.2534(6) 0.016(2) 0.5473(6)
H6B H 0.3099 -0.0062 0.6137
N1B N -0.00051(19) 0.4338(5) 0.45182(19)
Br2? Br -0.4226(4) 1.1217(16) 0.6737(5)
C8? C -0.3330(15) 1.340(5) 0.586(2)
H7? H -0.3772 1.4225 0.5136
H8? H -0.2982 1.5062 0.6349
C9? C -0.251(2) 1.140(10) 0.556(2)
C10? C -0.1605(14) 1.059(4) 0.6389(15)
H9? H -0.1479 1.1389 0.7161
C11? C -0.0896(8) 0.863(2) 0.6080(9)
H10? H -0.0273 0.8106 0.6632
C12? C -0.1094(8) 0.747(2) 0.4985(8)
C13? C -0.1969(10) 0.820(3) 0.4172(11)
H11? H -0.2082 0.7324 0.3414
C14? C -0.2699(19) 1.017(7) 0.4419(18)
H12? H -0.3306 1.0697 0.3841
N2? N -0.0375(6) 0.5357(15) 0.4600(6)
loop_
_geom_bond_atom_site_label_1
_geom_bond_atom_site_label_2
_geom_bond_site_symmetry_1
_geom_bond_site_symmetry_2
Br1 C1 1_555 1_555
C1 H1 1_555 1_555
H2 C1 1_555 1_555
C2 C1 1_555 1_555
C3 C2 1_555 1_555
H3 C3 1_555 1_555
C4 C3 1_555 1_555
H4 C4 1_555 1_555
C5 C4 1_555 1_555
C6 C5 1_555 1_555
H5 C6 1_555 1_555
C7 C2 1_555 1_555
H6 C7 1_555 1_555
N1 C5 1_555 1_555
Br1B C1B 1_555 1_555
C1B H1B 1_555 1_555
H2B C1B 1_555 1_555
C2B C1B 1_555 1_555
C3B C2B 1_555 1_555
H3B C3B 1_555 1_555
C4B C3B 1_555 1_555
H4B C4B 1_555 1_555
C5B C4B 1_555 1_555
C6B C5B 1_555 1_555
H5B C6B 1_555 1_555
C7B C2B 1_555 1_555
H6B C7B 1_555 1_555
N1B N1 1_555 1_555
C6 C7 1_555 1_555
C5B N1B 1_555 1_555
C6B C7B 1_555 1_555

#END
