
#######################################################################
#
#                 Cambridge Crystallographic Data Centre
#                                CCDC 
#
#######################################################################
#
# If this CIF has been generated from an entry in the Cambridge 
# Structural Database, then it will include bibliographic, chemical, 
# crystal, experimental, refinement or atomic coordinate data resulting 
# from the CCDC's data processing and validation procedures.
#
#######################################################################

data_YUPTIM
_chemical_name_common            
"5,5':11,1':17,17':23,23'-tetrakis(p-xylylenedioxy)-bis(2,8,14,20-tetrakis(phenylethyl)-6,10:12,16:18,22:24,4-O,O'-tetrakis(methylene)calix[4]resorcinarene unknown clathrate unknown solvate"
_chemical_formula_moiety         'C208 H168 O24'
_chemical_name_systematic        
'61,62,63,64,65,66,67,68-octakis(Phenethyl)-2,4,6,8,11,15,18,20,22,24,26,28,31,35,38,40,42,46,69,53,55,57,58,60-tetracosaoxa-1,5,9,17,21,25,29,37(1,3,6,4),10,16,30,36,41,47,48,54(1,4),13,33,44,51(1,3)-isocabenzena-tridecacyclo(23.15.7.7^5,21^.3^9,37^.3^17,29^.1^1,5^.1^1,61^,1^5,9^.1^9,37^.1^17,21^.1^17,29^.1^21,25^.1^25,29^)octahexacontaphane unknown clathrate unknown solvate'
_symmetry_cell_setting           triclinic
_symmetry_space_group_name_H-M   'P -1'
_symmetry_Int_Tables_number      2
_space_group_name_Hall           '-P 1'
loop_
_symmetry_equiv_pos_site_id
_symmetry_equiv_pos_as_xyz
1 x,y,z
2 -x,-y,-z
_cell_length_a                   16.027(2)
_cell_length_b                   18.404(2)
_cell_length_c                   21.748(3)
_cell_angle_alpha                90.235(3)
_cell_angle_beta                 103.592(4)
_cell_angle_gamma                109.586(3)
_cell_volume                     5850.28
_exptl_crystal_colour            colorless
_cell_formula_units_Z            1
loop_
_atom_site_label
_atom_site_type_symbol
_atom_site_fract_x
_atom_site_fract_y
_atom_site_fract_z
C1 C 0.1280(19) 0.1474(12) -0.0573(11)
C2 C 0.0749(19) 0.0886(12) -0.1051(11)
C3 C 0.1140(19) 0.0408(12) -0.1285(11)
C4 C 0.2062(19) 0.0518(12) -0.1040(11)
C5 C 0.2593(19) 0.1107(12) -0.0561(11)
C6 C 0.2202(19) 0.1584(12) -0.0328(11)
H1 H 0.098 0.184 -0.039
H2 H 0.003 0.080 -0.124
H3 H 0.236 0.015 -0.122
H4 H 0.331 0.119 -0.037
O1 O 0.2806(16) 0.2102(13) 0.0179(11)
C7 C 0.2452(24) 0.2703(19) 0.0331(16)
H5 H 0.284 0.297 0.080
H6 H 0.174 0.247 0.032
C8 C 0.1814(14) 0.3473(13) -0.0421(12)
C9 C 0.1868(14) 0.4055(13) -0.0833(12)
C10 C 0.2704(14) 0.4475(13) -0.0955(12)
C11 C 0.3486(14) 0.4312(13) -0.0666(12)
C12 C 0.3432(14) 0.3731(13) -0.0254(12)
C13 C 0.2596(14) 0.3311(13) -0.0132(12)
H7 H 0.117 0.315 -0.033
H8 H 0.126 0.418 -0.106
H9 H 0.275 0.492 -0.127
H10 H 0.413 0.464 -0.076
C14 C 0.4324(19) 0.3669(16) 0.0115(14)
H11 H 0.486 0.398 -0.011
H12 H 0.422 0.306 0.008
O2 O 0.4567(14) 0.3901(11) 0.0755(11)
C15 C 0.5856(18) 0.3398(12) 0.0890(9)
C16 C 0.6631(18) 0.3353(12) 0.1315(9)
C17 C 0.6881(18) 0.3688(12) 0.1936(9)
C18 C 0.6356(18) 0.4068(12) 0.2131(9)
C19 C 0.5581(18) 0.4113(12) 0.1706(9)
C20 C 0.5331(18) 0.3779(12) 0.1085(9)
H13 H 0.566 0.314 0.041
H14 H 0.704 0.306 0.116
H15 H 0.655 0.433 0.261
H16 H 0.517 0.441 0.186
O3 O 0.6740(16) 0.1815(13) 0.3518(12)
C21 C 0.6482(22) 0.2222(18) 0.2980(15)
H17 H 0.664 0.201 0.258
H18 H 0.576 0.211 0.288
O4 O 0.6948(16) 0.3043(14) 0.3124(11)
C22 C 0.9409(13) 0.3676(12) 0.3104(11)
C23 C 0.9376(13) 0.4026(12) 0.2537(11)
C24 C 0.8542(13) 0.4031(12) 0.2166(11)
C25 C 0.7743(13) 0.3686(12) 0.2362(11)
C26 C 0.7777(13) 0.3336(12) 0.2928(11)
C27 C 0.8610(13) 0.3331(12) 0.3299(11)
H19 H 1.005 0.367 0.339
O5 O 0.8551(14) 0.4410(12) 0.1639(11)
C28 C 0.8655(23) 0.4100(19) 0.1110(16)
H20 H 0.831 0.432 0.071
H21 H 0.834 0.348 0.107
O6 O 0.9534(16) 0.4284(12) 0.1046(10)
C29 C 1.0784(13) 0.3318(13) 0.2168(7)
C30 C 1.0834(13) 0.2737(13) 0.1782(7)
C31 C 1.0437(13) 0.2656(13) 0.1132(7)
C32 C 0.9991(13) 0.3155(13) 0.0870(7)
C33 C 0.9941(13) 0.3736(13) 0.1256(7)
C34 C 1.0338(13) 0.3817(13) 0.1906(7)
H22 H 1.109 0.338 0.267
O7 O 1.0434(15) 0.2124(13) 0.0659(10)
C35 C 0.9839(23) 0.1321(19) 0.0659(16)
H23 H 0.965 0.103 0.019
H24 H 0.923 0.133 0.079
O8 O 1.0250(14) 0.0928(12) 0.1086(11)
C36 C -0.0479(15) -0.1363(13) -0.2776(10)
C37 C 0.0206(15) -0.0712(13) -0.2884(10)
C38 C 0.0722(15) -0.0137(13) -0.2392(10)
C39 C 0.0552(15) -0.0212(13) -0.1793(10)
C40 C 1.0133(15) 0.0864(13) 0.1685(10)
C41 C -0.0649(15) -0.1439(13) -0.2177(10)
H25 H -0.088 -0.181 -0.316
O9 O 0.1411(18) 0.0488(13) -0.2518(11)
C42 C 0.2201(24) 0.0474(20) -0.2576(17)
H26 H 0.242 0.009 -0.225
H27 H 0.268 0.106 -0.244
O10 O 0.2235(16) 0.0243(14) -0.3192(12)
C43 C 0.9079(13) 0.1779(16) 0.3767(10)
C44 C 0.8373(13) 0.2067(16) 0.3742(10)
C45 C 0.7467(13) 0.1578(16) 0.3529(10)
C46 C 0.7267(13) 0.0801(16) 0.3342(10)
C47 C 0.2027(13) -0.0514(16) -0.3367(10)
C48 C 0.8879(13) 0.1002(16) 0.3580(10)
H28 H 0.978 0.216 0.393
C49 C 0.5946(22) -0.0187(18) 0.3582(11)
C50 C 0.5026(22) -0.0647(18) 0.3456(11)
C51 C 0.4438(22) -0.0651(18) 0.2871(11)
C52 C 0.4770(22) -0.0194(18) 0.2414(11)
C53 C 0.5690(22) 0.0267(18) 0.2541(11)
C54 C 0.6278(22) 0.0270(18) 0.3125(11)
H29 H 0.640 -0.018 0.403
H30 H 0.477 -0.100 0.381
H31 H 0.432 -0.020 0.196
H32 H 0.595 0.062 0.219
O11 O 0.3453(29) -0.1019(23) 0.2480(21)
C55 C 0.3323(34) -0.1102(31) 0.2923(25)
H33 H 0.362 -0.060 0.326
H34 H 0.343 -0.159 0.315
C56 C 0.8409(37) 0.0905(16) -0.2857(15)
C57 C 0.9360(37) 0.1153(16) -0.2717(15)
C58 C 0.9880(37) 0.1866(16) -0.2375(15)
C59 C 0.9449(37) 0.2332(16) -0.2175(15)
C60 C 0.8498(37) 0.2085(16) -0.2315(15)
C61 C 0.7978(37) 0.1371(16) -0.2656(15)
H35 H 0.801 0.035 -0.312
H36 H 0.969 0.079 -0.287
H37 H 1.062 0.206 -0.227
H38 H 0.985 0.288 -0.191
C62 C 0.7968(27) 0.2617(22) -0.2171(19)
H39 H 0.749 0.228 -0.191
H40 H 0.759 0.277 -0.260
O12 O 0.8559(19) 0.3308(16) -0.1755(14)
C63 C 0.8623(13) 0.2511(11) -0.0813(12)
C64 C 0.8999(13) 0.2516(11) -0.0168(12)
C65 C 0.9621(13) 0.3199(11) 0.0177(12)
C66 C 0.9867(13) 0.3877(11) -0.0123(12)
C67 C 0.9491(13) 0.3871(11) -0.0769(12)
C68 C 0.8869(13) 0.3188(11) -0.1114(12)
H41 H 0.814 0.198 -0.108
H42 H 0.881 0.199 0.007
H43 H 1.035 0.441 0.014
H44 H 0.968 0.440 -0.100
C69 C 0.8565(24) 0.2930(18) 0.3934(16)
H45 H 0.802 0.301 0.411
C70 C 0.9352(30) 0.3222(25) 0.4585(21)
H46 H 0.996 0.316 0.451
H47 H 0.920 0.294 0.500
C71 C 0.9512(48) 0.4011(40) 0.4581(34)
H48 H 0.961 0.426 0.415
H49 H 0.890 0.405 0.467
C72 C 1.0299(61) 0.4143(40) 0.5737(54)
C73 C 1.1146(61) 0.4493(40) 0.6164(54)
C74 C 1.1856(61) 0.5027(40) 0.5964(54)
C75 C 1.1720(61) 0.5212(40) 0.5338(54)
C76 C 1.0873(61) 0.4862(40) 0.4911(54)
C77 C 1.0162(61) 0.4328(40) 0.5111(54)
H50 H 0.977 0.370 0.591
H51 H 1.134 0.427 0.659
H52 H 1.258 0.512 0.616
H53 H 1.225 0.540 0.504
H54 H 1.068 0.483 0.435
C84 C 1.0263(24) 0.4381(21) 0.2393(17)
H55 H 1.025 0.491 0.220
C85 C 1.1164(28) 0.4812(24) 0.2908(20)
H56 H 1.171 0.504 0.268
H57 H 1.130 0.439 0.321
C86 C 1.1118(49) 0.5367(44) 0.3202(36)
H58 H 1.089 0.574 0.288
H59 H 1.060 0.510 0.346
C87 C 1.2247(74) 0.6491(63) 0.4293(50)
C88 C 1.3164(74) 0.6828(63) 0.4613(50)
C89 C 1.3829(74) 0.6642(63) 0.4402(50)
C90 C 1.3577(74) 0.6118(63) 0.3871(50)
C91 C 1.2658(74) 0.5781(63) 0.3551(50)
C92 C 1.1993(74) 0.5968(63) 0.3762(50)
C97 C 1.1330(22) 0.2132(18) 0.1962(16)
H65 H 1.158 0.196 0.159
C98 C 1.2156(24) 0.2513(20) 0.2521(17)
H66 H 1.197 0.271 0.292
H67 H 1.246 0.208 0.266
C99 C 1.2950(29) 0.3205(24) 0.2333(20)
H68 H 1.321 0.299 0.198
C100 C 1.4504(38) 0.3347(18) 0.3062(21)
C101 C 1.5218(38) 0.3595(18) 0.3608(21)
C102 C 1.5265(38) 0.4188(18) 0.4028(21)
C103 C 1.4598(38) 0.4533(18) 0.3902(21)
C104 C 1.3885(38) 0.4285(18) 0.3356(21)
C105 C 1.3838(38) 0.3692(18) 0.2936(21)
H70 H 1.447 0.289 0.274
H71 H 1.573 0.333 0.371
H72 H 1.582 0.438 0.445
H73 H 1.463 0.499 0.423
H74 H 1.337 0.455 0.326
C106 C 0.0420(23) -0.0666(20) -0.3497(16)
H75 H 0.064 -0.004 -0.349
C107 C -0.0408(30) -0.1024(26) -0.4116(21)
H76 H -0.075 -0.163 -0.407
H77 H -0.015 -0.097 -0.454
C108 C -0.1055(53) -0.0535(50) -0.4159(40)
H78 H -0.125 -0.056 -0.372
C109 C -0.1831(33) -0.1069(28) -0.5326(30)
C110 C -0.2627(33) -0.1585(28) -0.5722(30)
C111 C -0.3401(33) -0.1910(28) -0.5494(30)
C112 C -0.3379(33) -0.1718(28) -0.4869(30)
C113 C -0.2583(33) -0.1202(28) -0.4473(30)
C114 C -0.1809(33) -0.0877(28) -0.4701(30)
H80 H -0.123 -0.082 -0.550
H81 H -0.264 -0.173 -0.621
H82 H -0.402 -0.231 -0.580
H83 H -0.398 -0.197 -0.469
H84 H -0.257 -0.105 -0.399
C47A C 0.7973(13) 0.0514(16) 0.3367(10)
O10A O 0.7765(16) -0.0243(14) 0.3192(12)
C42A C 0.7799(24) -0.0474(20) 0.2576(17)
O9A O 0.8589(18) -0.0488(13) 0.2518(11)
C38A C 0.9278(15) 0.0137(13) 0.2392(10)
C37A C 0.9794(15) 0.0712(13) 0.2884(10)
C36A C 1.0479(15) 0.1363(13) 0.2776(10)
C41A C 1.0649(15) 0.1439(13) 0.2177(10)
C39A C 0.9448(15) 0.0212(13) 0.1793(10)
C3A C 0.8860(19) -0.0408(12) 0.1285(11)
C2A C 0.9251(19) -0.0886(12) 0.1051(11)
C1A C 0.8720(19) -0.1474(12) 0.0573(11)
C6A C 0.7798(19) -0.1584(12) 0.0328(11)
C5A C 0.7407(19) -0.1107(12) 0.0561(11)
C4A C 0.7938(19) -0.0518(12) 0.1040(11)
H3A H 0.764 -0.015 0.122
H4A H 0.669 -0.119 0.037
O1A O 0.7194(16) -0.2102(13) -0.0179(11)
C7A C 0.7548(24) -0.2703(19) -0.0331(16)
H5A H 0.716 -0.297 -0.080
H6A H 0.826 -0.247 -0.032
C13A C 0.7404(14) -0.3311(13) 0.0132(12)
C8A C 0.8186(14) -0.3473(13) 0.0421(12)
C9A C 0.8132(14) -0.4055(13) 0.0833(12)
C10A C 0.7296(14) -0.4475(13) 0.0955(12)
C11A C 0.6514(14) -0.4312(13) 0.0666(12)
C12A C 0.6568(14) -0.3731(13) 0.0254(12)
C14A C 0.5676(19) -0.3669(16) -0.0115(14)
H11A H 0.514 -0.398 0.011
H12A H 0.578 -0.306 -0.008
O2A O 0.5433(14) -0.3901(11) -0.0755(11)
C20A C 0.4669(18) -0.3779(12) -0.1085(9)
C15A C 0.4144(18) -0.3398(12) -0.0890(9)
C16A C 0.3369(18) -0.3353(12) -0.1315(9)
C17A C 0.3119(18) -0.3688(12) -0.1936(9)
C18A C 0.3644(18) -0.4068(12) -0.2131(9)
C19A C 0.4419(18) -0.4113(12) -0.1706(9)
H16A H 0.483 -0.441 -0.186
H15A H 0.345 -0.433 -0.261
C25A C 0.2257(13) -0.3686(12) -0.2362(11)
C24A C 0.1458(13) -0.4031(12) -0.2166(11)
C23A C 0.0624(13) -0.4026(12) -0.2537(11)
C22A C 0.0591(13) -0.3676(12) -0.3104(11)
C27A C 0.1390(13) -0.3331(12) -0.3299(11)
C26A C 0.2223(13) -0.3336(12) -0.2928(11)
O4A O 0.3052(16) -0.3043(14) -0.3124(11)
C21A C 0.3518(22) -0.2222(18) -0.2980(15)
O3A O 0.3260(16) -0.1815(13) -0.3518(12)
C45A C 0.2533(13) -0.1578(16) -0.3529(10)
C44A C 0.1627(13) -0.2067(16) -0.3742(10)
C43A C 0.0921(13) -0.1779(16) -0.3767(10)
C48A C 0.1121(13) -0.1002(16) -0.3580(10)
C40A C -0.0133(15) -0.0864(13) -0.1685(10)
O8A O -0.0250(14) -0.0928(12) -0.1086(11)
C35A C 0.0161(23) -0.1321(19) -0.0659(16)
O7A O -0.0434(15) -0.2124(13) -0.0659(10)
C31A C -0.0437(13) -0.2656(13) -0.1132(7)
C30A C -0.0834(13) -0.2737(13) -0.1782(7)
C29A C -0.0784(13) -0.3318(13) -0.2168(7)
C34A C -0.0338(13) -0.3817(13) -0.1906(7)
C33A C 0.0059(13) -0.3736(13) -0.1256(7)
O6A O 0.0466(16) -0.4284(12) -0.1046(10)
C28A C 0.1345(23) -0.4100(19) -0.1110(16)
O5A O 0.1449(14) -0.4410(12) -0.1639(11)
H20A H 0.169 -0.432 -0.071
H21A H 0.166 -0.348 -0.107
C32A C 0.0009(13) -0.3155(13) -0.0870(7)
C65A C 0.0379(13) -0.3199(11) -0.0177(12)
C64A C 0.1001(13) -0.2516(11) 0.0168(12)
C63A C 0.1377(13) -0.2511(11) 0.0813(12)
C68A C 0.1131(13) -0.3188(11) 0.1114(12)
O12A O 0.1441(19) -0.3308(16) 0.1755(14)
C62A C 0.2032(27) -0.2617(22) 0.2171(19)
C60A C 0.1502(37) -0.2085(16) 0.2315(15)
C59A C 0.0551(37) -0.2332(16) 0.2175(15)
C58A C 0.0120(37) -0.1866(16) 0.2375(15)
C57A C 0.0640(37) -0.1153(16) 0.2717(15)
C56A C 0.1591(37) -0.0905(16) 0.2857(15)
C61A C 0.2022(37) -0.1371(16) 0.2656(15)
H35A H 0.199 -0.035 0.312
H36A H 0.031 -0.079 0.287
H37A H -0.062 -0.206 0.227
H38A H 0.015 -0.288 0.191
H39A H 0.251 -0.228 0.191
H40A H 0.241 -0.277 0.260
C67A C 0.0509(13) -0.3871(11) 0.0769(12)
C66A C 0.0133(13) -0.3877(11) 0.0123(12)
H43A H -0.035 -0.441 -0.014
H44A H 0.032 -0.440 0.100
H41A H 0.186 -0.198 0.108
H42A H 0.119 -0.199 -0.007
C84A C -0.0263(24) -0.4381(21) -0.2393(17)
H55A H -0.025 -0.491 -0.220
C85A C -0.1164(28) -0.4812(24) -0.2908(20)
H56A H -0.171 -0.504 -0.268
H57A H -0.130 -0.439 -0.321
C86A C -0.1118(49) -0.5367(44) -0.3202(36)
H58A H -0.089 -0.574 -0.288
H59A H -0.060 -0.510 -0.346
C92A C -0.1993(74) -0.5968(63) -0.3762(50)
C87A C -0.2247(74) -0.6491(63) -0.4293(50)
C88A C -0.3164(74) -0.6828(63) -0.4613(50)
C89A C -0.3829(74) -0.6642(63) -0.4402(50)
C90A C -0.3577(74) -0.6118(63) -0.3871(50)
C91A C -0.2658(74) -0.5781(63) -0.3551(50)
H22A H -0.109 -0.338 -0.267
C97A C -0.1330(22) -0.2132(18) -0.1962(16)
H65A H -0.158 -0.196 -0.159
C98A C -0.2156(24) -0.2513(20) -0.2521(17)
H66A H -0.197 -0.271 -0.292
H67A H -0.246 -0.208 -0.266
C99A C -0.2950(29) -0.3205(24) -0.2333(20)
H68A H -0.321 -0.299 -0.198
C105A C -0.3838(38) -0.3692(18) -0.2936(21)
C100A C -0.4504(38) -0.3347(18) -0.3062(21)
C101A C -0.5218(38) -0.3595(18) -0.3608(21)
C102A C -0.5265(38) -0.4188(18) -0.4028(21)
C103A C -0.4598(38) -0.4533(18) -0.3902(21)
C104A C -0.3885(38) -0.4285(18) -0.3356(21)
H74A H -0.337 -0.455 -0.326
H73A H -0.463 -0.499 -0.423
H72A H -0.582 -0.438 -0.445
H71A H -0.573 -0.333 -0.371
H70A H -0.447 -0.289 -0.274
H23A H 0.035 -0.103 -0.019
H24A H 0.077 -0.133 -0.079
C46A C 0.2733(13) -0.0801(16) -0.3342(10)
C54A C 0.3722(22) -0.0270(18) -0.3125(11)
C49A C 0.4054(22) 0.0187(18) -0.3582(11)
C50A C 0.4974(22) 0.0647(18) -0.3456(11)
C51A C 0.5562(22) 0.0651(18) -0.2871(11)
C52A C 0.5230(22) 0.0194(18) -0.2414(11)
C53A C 0.4310(22) -0.0267(18) -0.2541(11)
H32A H 0.405 -0.062 -0.219
H31A H 0.568 0.020 -0.196
O11A O 0.6547(29) 0.1019(23) -0.2480(21)
C55A C 0.6677(34) 0.1102(31) -0.2923(25)
H33A H 0.638 0.060 -0.326
H34A H 0.657 0.159 -0.315
H30A H 0.523 0.100 -0.381
H29A H 0.360 0.018 -0.403
H28A H 0.022 -0.216 -0.393
C69A C 0.1435(24) -0.2930(18) -0.3934(16)
H45A H 0.198 -0.301 -0.411
C70A C 0.0648(30) -0.3222(25) -0.4585(21)
H46A H 0.004 -0.316 -0.451
H47A H 0.080 -0.294 -0.500
C71A C 0.0488(48) -0.4011(40) -0.4581(34)
H48A H 0.039 -0.426 -0.415
H49A H 0.110 -0.405 -0.467
C77A C -0.0162(61) -0.4328(40) -0.5111(54)
C72A C -0.0299(61) -0.4143(40) -0.5737(54)
C73A C -0.1146(61) -0.4493(40) -0.6164(54)
C74A C -0.1856(61) -0.5027(40) -0.5964(54)
C75A C -0.1720(61) -0.5212(40) -0.5338(54)
C76A C -0.0873(61) -0.4862(40) -0.4911(54)
H54A H -0.068 -0.483 -0.435
H53A H -0.225 -0.540 -0.504
H52A H -0.258 -0.512 -0.616
H51A H -0.134 -0.427 -0.659
H50A H 0.023 -0.370 -0.591
H17A H 0.336 -0.201 -0.258
H18A H 0.424 -0.211 -0.288
H19A H -0.005 -0.367 -0.339
H14A H 0.296 -0.306 -0.116
H13A H 0.434 -0.314 -0.041
H10A H 0.587 -0.464 0.076
H9A H 0.725 -0.492 0.127
H8A H 0.874 -0.418 0.106
H7A H 0.883 -0.315 0.033
H1A H 0.902 -0.184 0.039
H2A H 0.997 -0.080 0.124
H25A H 1.088 0.181 0.316
C106A C 0.9580(23) 0.0666(20) 0.3497(16)
H75A H 0.936 0.004 0.349
C107A C 1.0408(30) 0.1024(26) 0.4116(21)
H76A H 1.075 0.163 0.407
H77A H 1.015 0.097 0.454
C108A C 1.1055(53) 0.0535(50) 0.4159(40)
H78A H 1.125 0.056 0.372
C114A C 1.1809(33) 0.0877(28) 0.4701(30)
C109A C 1.1831(33) 0.1069(28) 0.5326(30)
C110A C 1.2627(33) 0.1585(28) 0.5722(30)
C111A C 1.3401(33) 0.1910(28) 0.5494(30)
C112A C 1.3379(33) 0.1718(28) 0.4869(30)
C113A C 1.2583(33) 0.1202(28) 0.4473(30)
H84A H 1.257 0.105 0.399
H83A H 1.398 0.197 0.469
H82A H 1.402 0.231 0.580
H81A H 1.264 0.173 0.621
H80A H 1.123 0.082 0.550
H26A H 0.758 -0.009 0.225
H27A H 0.732 -0.106 0.244
C78? C 1.0479(71) 0.3560(60) 0.6717(35)
C79? C 0.9889(71) 0.3145(60) 0.6156(35)
C80? C 0.9985(71) 0.3429(60) 0.5575(35)
C81? C 1.0670(71) 0.4128(60) 0.5556(35)
C82? C 1.1260(71) 0.4543(60) 0.6118(35)
C83? C 1.1165(71) 0.4259(60) 0.6699(35)
H60? H 1.228 0.637 0.470
H61? H 1.397 0.689 0.505
H62? H 1.489 0.671 0.434
H63? H 1.412 0.601 0.327
H64? H 1.243 0.550 0.292
C93? C 1.4331(88) 0.6756(71) 0.3850(62)
C94? C 1.348(10) 0.6243(85) 0.3033(76)
C95? C 1.386(12) 0.6097(95) 0.4443(81)
C96? C 1.2806(98) 0.5823(70) 0.4360(60)
H69? H 1.261 0.360 0.213
H79? H -0.071 0.006 -0.423
C115? C 0.7400(32) 0.5057(28) 0.8795(23)
C116? C 0.7327(47) 0.4318(42) 0.9220(31)
C117? C 0.6606(44) 0.3732(35) 0.9294(27)
C118? C 0.4331(45) 0.1646(37) 0.1503(33)
C119? C 0.3948(77) 0.1393(59) 0.2010(52)
C120? C 0.3148(55) 0.0768(42) 0.1309(35)
C121? C 0.2659(47) 0.0824(37) 0.1703(34)
C122? C 0.2040(45) -0.0257(38) 0.0995(31)
C123? C 0.5064(64) 0.0937(47) 0.4789(42)
C124? C 0.6519(68) 0.1227(50) 0.5108(42)
C125? C 0.7817(42) 0.1071(33) 0.5309(28)
C126? C 0.2491(56) 0.2911(44) 0.7741(36)
C127? C 0.8273(32) 0.1833(23) 0.1876(20)
C128? C 0.7284(44) 0.1505(34) 0.0972(34)
C129? C 0.7416(55) 0.1570(39) 0.1574(39)
C130? C 0.6277(74) 0.0953(59) 0.0826(54)
Cl1? Cl 0.1853(12) 0.3323(10) 0.4204(9)
O13? O 0.3694(40) 0.2622(31) 0.8372(27)
Cl2? Cl 0.3390(25) 0.3947(20) 0.5063(16)
C131? C 0.4297(56) 0.1103(46) 0.4009(39)
C132? C 0.2088(69) 0.3148(57) 0.5286(47)
C133? C 0.5099(87) 0.2384(76) 0.8100(70)
C134? C -0.1236(46) -0.2027(38) -0.6048(31)
C135? C 0.5186(73) 0.2015(62) 0.8773(56)
C136? C 0.4031(63) 0.3409(50) 0.7466(41)
C137? C 0.5310(68) 0.2698(59) 0.7270(53)
C138? C 0.6155(52) 0.1080(44) 0.0192(39)
C139? C -0.2626(63) -0.0964(54) -0.5315(43)
loop_
_geom_bond_atom_site_label_1
_geom_bond_atom_site_label_2
_geom_bond_site_symmetry_1
_geom_bond_site_symmetry_2
C1 C2 1_555 1_555
C2 C3 1_555 1_555
C3 C4 1_555 1_555
C4 C5 1_555 1_555
C5 C6 1_555 1_555
C6 C1 1_555 1_555
H1 C1 1_555 1_555
H2 C2 1_555 1_555
H3 C4 1_555 1_555
H4 C5 1_555 1_555
O1 C6 1_555 1_555
C7 O1 1_555 1_555
H5 C7 1_555 1_555
H6 C7 1_555 1_555
C8 C9 1_555 1_555
C9 C10 1_555 1_555
C10 C11 1_555 1_555
C11 C12 1_555 1_555
C12 C13 1_555 1_555
C13 C7 1_555 1_555
H7 C8 1_555 1_555
H8 C9 1_555 1_555
H9 C10 1_555 1_555
H10 C11 1_555 1_555
C14 C12 1_555 1_555
H11 C14 1_555 1_555
H12 C14 1_555 1_555
O2 C14 1_555 1_555
C15 C16 1_555 1_555
C16 C17 1_555 1_555
C17 C18 1_555 1_555
C18 C19 1_555 1_555
C19 C20 1_555 1_555
C20 O2 1_555 1_555
H13 C15 1_555 1_555
H14 C16 1_555 1_555
H15 C18 1_555 1_555
H16 C19 1_555 1_555
O3 C21 1_555 1_555
C21 H17 1_555 1_555
H18 C21 1_555 1_555
O4 C21 1_555 1_555
C22 C23 1_555 1_555
C23 C24 1_555 1_555
C24 C25 1_555 1_555
C25 C17 1_555 1_555
C26 O4 1_555 1_555
C27 C22 1_555 1_555
H19 C22 1_555 1_555
O5 C24 1_555 1_555
C28 O5 1_555 1_555
H20 C28 1_555 1_555
H21 C28 1_555 1_555
O6 C28 1_555 1_555
C29 C30 1_555 1_555
C30 C31 1_555 1_555
C31 C32 1_555 1_555
C32 C33 1_555 1_555
C33 O6 1_555 1_555
C34 C29 1_555 1_555
H22 C29 1_555 1_555
O7 C31 1_555 1_555
C35 O7 1_555 1_555
H23 C35 1_555 1_555
H24 C35 1_555 1_555
O8 C35 1_555 1_555
C36 C37 1_555 1_555
C37 C38 1_555 1_555
C38 C39 1_555 1_555
C39 C3 1_555 1_555
C40 O8 1_555 1_555
C41 C36 1_555 1_555
H25 C36 1_555 1_555
O9 C38 1_555 1_555
C42 O9 1_555 1_555
H26 C42 1_555 1_555
H27 C42 1_555 1_555
O10 C42 1_555 1_555
C43 C44 1_555 1_555
C44 C45 1_555 1_555
C45 O3 1_555 1_555
C46 C45 1_555 1_555
C47 O10 1_555 1_555
C48 C43 1_555 1_555
H28 C43 1_555 1_555
C49 C50 1_555 1_555
C50 C51 1_555 1_555
C51 C52 1_555 1_555
C52 C53 1_555 1_555
C53 C54 1_555 1_555
C54 C46 1_555 1_555
H29 C49 1_555 1_555
H30 C50 1_555 1_555
H31 C52 1_555 1_555
H32 C53 1_555 1_555
O11 C51 1_555 1_555
C55 C51 1_555 1_555
H33 C55 1_555 1_555
H34 C55 1_555 1_555
C56 C57 1_555 1_555
C57 C58 1_555 1_555
C58 C59 1_555 1_555
C59 C60 1_555 1_555
C60 C61 1_555 1_555
C61 C56 1_555 1_555
H35 C56 1_555 1_555
H36 C57 1_555 1_555
H37 C58 1_555 1_555
H38 C59 1_555 1_555
C62 C60 1_555 1_555
H39 C62 1_555 1_555
H40 C62 1_555 1_555
O12 C62 1_555 1_555
C63 C64 1_555 1_555
C64 C65 1_555 1_555
C65 C32 1_555 1_555
C66 C65 1_555 1_555
C67 C66 1_555 1_555
C68 O12 1_555 1_555
H41 C63 1_555 1_555
H42 C64 1_555 1_555
H43 C66 1_555 1_555
H44 C67 1_555 1_555
C69 C27 1_555 1_555
H45 C69 1_555 1_555
C70 C69 1_555 1_555
H46 C70 1_555 1_555
H47 C70 1_555 1_555
C71 C70 1_555 1_555
H48 C71 1_555 1_555
H49 C71 1_555 1_555
C72 C73 1_555 1_555
C73 C74 1_555 1_555
C74 C75 1_555 1_555
C75 C76 1_555 1_555
C76 C77 1_555 1_555
C77 C71 1_555 1_555
H50 C72 1_555 1_555
H51 C73 1_555 1_555
H52 C74 1_555 1_555
H53 C75 1_555 1_555
H54 C76 1_555 1_555
C84 C23 1_555 1_555
H55 C84 1_555 1_555
C85 C84 1_555 1_555
H56 C85 1_555 1_555
H57 C85 1_555 1_555
C86 C85 1_555 1_555
H58 C86 1_555 1_555
H59 C86 1_555 1_555
C87 C88 1_555 1_555
C88 C89 1_555 1_555
C89 C90 1_555 1_555
C90 C91 1_555 1_555
C91 C92 1_555 1_555
C92 C86 1_555 1_555
C97 C30 1_555 1_555
H65 C97 1_555 1_555
C98 C97 1_555 1_555
H66 C98 1_555 1_555
H67 C98 1_555 1_555
C99 C98 1_555 1_555
H68 C99 1_555 1_555
C100 C101 1_555 1_555
C101 C102 1_555 1_555
C102 C103 1_555 1_555
C103 C104 1_555 1_555
C104 C105 1_555 1_555
C105 C99 1_555 1_555
H70 C100 1_555 1_555
H71 C101 1_555 1_555
H72 C102 1_555 1_555
H73 C103 1_555 1_555
H74 C104 1_555 1_555
C106 C37 1_555 1_555
H75 C106 1_555 1_555
C107 C106 1_555 1_555
H76 C107 1_555 1_555
H77 C107 1_555 1_555
C108 C107 1_555 1_555
H78 C108 1_555 1_555
C109 C110 1_555 1_555
C110 C111 1_555 1_555
C111 C112 1_555 1_555
C112 C113 1_555 1_555
C113 C114 1_555 1_555
C114 C108 1_555 1_555
H80 C109 1_555 1_555
H81 C110 1_555 1_555
H82 C111 1_555 1_555
H83 C112 1_555 1_555
H84 C113 1_555 1_555
C47A C46 1_555 1_555
O10A C47A 1_555 1_555
C42A O10A 1_555 1_555
O9A C42A 1_555 1_555
C38A O9A 1_555 1_555
C37A C38A 1_555 1_555
C36A C37A 1_555 1_555
C41A C40 1_555 1_555
C39A C40 1_555 1_555
C3A C39A 1_555 1_555
C2A C3A 1_555 1_555
C1A C2A 1_555 1_555
C6A C1A 1_555 1_555
C5A C6A 1_555 1_555
C4A C3A 1_555 1_555
H3A C4A 1_555 1_555
H4A C5A 1_555 1_555
O1A C6A 1_555 1_555
C7A O1A 1_555 1_555
H5A C7A 1_555 1_555
H6A C7A 1_555 1_555
C13A C7A 1_555 1_555
C8A C13A 1_555 1_555
C9A C8A 1_555 1_555
C10A C9A 1_555 1_555
C11A C10A 1_555 1_555
C12A C13A 1_555 1_555
C14A C12A 1_555 1_555
H11A C14A 1_555 1_555
H12A C14A 1_555 1_555
O2A C14A 1_555 1_555
C20A O2A 1_555 1_555
C15A C20A 1_555 1_555
C16A C15A 1_555 1_555
C17A C16A 1_555 1_555
C18A C17A 1_555 1_555
C19A C20A 1_555 1_555
H16A C19A 1_555 1_555
H15A C18A 1_555 1_555
C25A C17A 1_555 1_555
C24A C25A 1_555 1_555
C23A C24A 1_555 1_555
C22A C23A 1_555 1_555
C27A C22A 1_555 1_555
C26A C25A 1_555 1_555
O4A C26A 1_555 1_555
C21A O4A 1_555 1_555
O3A C21A 1_555 1_555
C45A O3A 1_555 1_555
C44A C45A 1_555 1_555
C43A C44A 1_555 1_555
C48A C47 1_555 1_555
C40A C39 1_555 1_555
O8A C40A 1_555 1_555
C35A O8A 1_555 1_555
O7A C35A 1_555 1_555
C31A O7A 1_555 1_555
C30A C31A 1_555 1_555
C29A C30A 1_555 1_555
C34A C29A 1_555 1_555
C33A C34A 1_555 1_555
O6A C33A 1_555 1_555
C28A O6A 1_555 1_555
O5A C24A 1_555 1_555
H20A C28A 1_555 1_555
H21A C28A 1_555 1_555
C32A C31A 1_555 1_555
C65A C32A 1_555 1_555
C64A C65A 1_555 1_555
C63A C64A 1_555 1_555
C68A C63A 1_555 1_555
O12A C68A 1_555 1_555
C62A O12A 1_555 1_555
C60A C62A 1_555 1_555
C59A C60A 1_555 1_555
C58A C59A 1_555 1_555
C57A C58A 1_555 1_555
C56A C57A 1_555 1_555
C61A C60A 1_555 1_555
H35A C56A 1_555 1_555
H36A C57A 1_555 1_555
H37A C58A 1_555 1_555
H38A C59A 1_555 1_555
H39A C62A 1_555 1_555
H40A C62A 1_555 1_555
C67A C68A 1_555 1_555
C66A C65A 1_555 1_555
H43A C66A 1_555 1_555
H44A C67A 1_555 1_555
H41A C63A 1_555 1_555
H42A C64A 1_555 1_555
C84A C23A 1_555 1_555
H55A C84A 1_555 1_555
C85A C84A 1_555 1_555
H56A C85A 1_555 1_555
H57A C85A 1_555 1_555
C86A C85A 1_555 1_555
H58A C86A 1_555 1_555
H59A C86A 1_555 1_555
C92A C86A 1_555 1_555
C87A C92A 1_555 1_555
C88A C87A 1_555 1_555
C89A C88A 1_555 1_555
C90A C89A 1_555 1_555
C91A C92A 1_555 1_555
H22A C29A 1_555 1_555
C97A C41 1_555 1_555
H65A C97A 1_555 1_555
C98A C97A 1_555 1_555
H66A C98A 1_555 1_555
H67A C98A 1_555 1_555
C99A C98A 1_555 1_555
H68A C99A 1_555 1_555
C105A C99A 1_555 1_555
C100A C105A 1_555 1_555
C101A C100A 1_555 1_555
C102A C101A 1_555 1_555
C103A C102A 1_555 1_555
C104A C105A 1_555 1_555
H74A C104A 1_555 1_555
H73A C103A 1_555 1_555
H72A C102A 1_555 1_555
H71A C101A 1_555 1_555
H70A C100A 1_555 1_555
H23A C35A 1_555 1_555
H24A C35A 1_555 1_555
C46A C47 1_555 1_555
C54A C46A 1_555 1_555
C49A C54A 1_555 1_555
C50A C49A 1_555 1_555
C51A C50A 1_555 1_555
C52A C51A 1_555 1_555
C53A C54A 1_555 1_555
H32A C53A 1_555 1_555
H31A C52A 1_555 1_555
O11A C51A 1_555 1_555
C55A C51A 1_555 1_555
H33A C55A 1_555 1_555
H34A C55A 1_555 1_555
H30A C50A 1_555 1_555
H29A C49A 1_555 1_555
H28A C43A 1_555 1_555
C69A C27A 1_555 1_555
H45A C69A 1_555 1_555
C70A C69A 1_555 1_555
H46A C70A 1_555 1_555
H47A C70A 1_555 1_555
C71A C70A 1_555 1_555
H48A C71A 1_555 1_555
H49A C71A 1_555 1_555
C77A C71A 1_555 1_555
C72A C77A 1_555 1_555
C73A C72A 1_555 1_555
C74A C73A 1_555 1_555
C75A C74A 1_555 1_555
C76A C77A 1_555 1_555
H54A C76A 1_555 1_555
H53A C75A 1_555 1_555
H52A C74A 1_555 1_555
H51A C73A 1_555 1_555
H50A C72A 1_555 1_555
H17A C21A 1_555 1_555
H18A C21A 1_555 1_555
H19A C22A 1_555 1_555
H14A C16A 1_555 1_555
H13A C15A 1_555 1_555
H10A C11A 1_555 1_555
H9A C10A 1_555 1_555
H8A C9A 1_555 1_555
H7A C8A 1_555 1_555
H1A C1A 1_555 1_555
H2A C2A 1_555 1_555
H25A C36A 1_555 1_555
C106A C48 1_555 1_555
H75A C106A 1_555 1_555
C107A C106A 1_555 1_555
H76A C107A 1_555 1_555
H77A C107A 1_555 1_555
C108A C107A 1_555 1_555
H78A C108A 1_555 1_555
C114A C108A 1_555 1_555
C109A C114A 1_555 1_555
C110A C109A 1_555 1_555
C111A C110A 1_555 1_555
C112A C111A 1_555 1_555
C113A C114A 1_555 1_555
H84A C113A 1_555 1_555
H83A C112A 1_555 1_555
H82A C111A 1_555 1_555
H81A C110A 1_555 1_555
H80A C109A 1_555 1_555
H26A C42A 1_555 1_555
H27A C42A 1_555 1_555
C8 C13 1_555 1_555
C15 C20 1_555 1_555
C25 C26 1_555 1_555
C26 C27 1_555 1_555
C33 C34 1_555 1_555
C34 C84 1_555 1_555
C41 C40A 1_555 1_555
C44 C69 1_555 1_555
C48 C47A 1_555 1_555
C49 C54 1_555 1_555
O11 C55 1_555 1_555
C63 C68 1_555 1_555
C67 C68 1_555 1_555
C72 C77 1_555 1_555
C87 C92 1_555 1_555
C97 C41A 1_555 1_555
C100 C105 1_555 1_555
C106 C48A 1_555 1_555
C109 C114 1_555 1_555
C38A C39A 1_555 1_555
C37A C106A 1_555 1_555
C36A C41A 1_555 1_555
C5A C4A 1_555 1_555
C11A C12A 1_555 1_555
C18A C19A 1_555 1_555
C27A C26A 1_555 1_555
C45A C46A 1_555 1_555
C44A C69A 1_555 1_555
C43A C48A 1_555 1_555
C30A C97A 1_555 1_555
C34A C84A 1_555 1_555
C33A C32A 1_555 1_555
C28A O5A 1_555 1_555
C56A C61A 1_555 1_555
C67A C66A 1_555 1_555
C90A C91A 1_555 1_555
C103A C104A 1_555 1_555
C52A C53A 1_555 1_555
O11A C55A 1_555 1_555
C75A C76A 1_555 1_555
C112A C113A 1_555 1_555

#END
