
#######################################################################
#
#                 Cambridge Crystallographic Data Centre
#                                CCDC 
#
#######################################################################
#
# If this CIF has been generated from an entry in the Cambridge 
# Structural Database, then it will include bibliographic, chemical, 
# crystal, experimental, refinement or atomic coordinate data resulting 
# from the CCDC's data processing and validation procedures.
#
#######################################################################

data_YUPYEO
_chemical_formula_moiety         'C15 H13 Cl1 N2 O1 S1'
_chemical_name_systematic        N-(Benzylcarbamothioyl)-2-chlorobenzamide
_symmetry_cell_setting           triclinic
_symmetry_space_group_name_H-M   'P -1'
_symmetry_Int_Tables_number      2
_space_group_name_Hall           '-P 1'
loop_
_symmetry_equiv_pos_site_id
_symmetry_equiv_pos_as_xyz
1 x,y,z
2 -x,-y,-z
_cell_length_a                   7.347(2)
_cell_length_b                   9.658(3)
_cell_length_c                   11.003(3)
_cell_angle_alpha                110.150(5)
_cell_angle_beta                 90.767(3)
_cell_angle_gamma                104.058(3)
_cell_volume                     706.956
_exptl_crystal_colour            colorless
_exptl_crystal_description       block
_cell_formula_units_Z            2
_exptl_crystal_recrystallization_method dichloromethane
loop_
_atom_site_label
_atom_site_type_symbol
_atom_site_fract_x
_atom_site_fract_y
_atom_site_fract_z
Cl1 Cl 0.69955(6) 0.10088(5) 0.08296(4)
S1 S 0.81096(6) 0.64421(5) 0.00524(4)
O1 O 0.71779(16) 0.46704(14) 0.34073(11)
N1 N 0.84005(19) 0.48399(15) 0.15434(13)
N2 N 0.62797(19) 0.63073(16) 0.20842(13)
C1 C 0.9133(2) 0.18430(18) 0.18156(14)
C2 C 1.0373(2) 0.09656(19) 0.18009(15)
H1 H 1.0062 -0.0087 0.1267
C3 C 1.2074(2) 0.1651(2) 0.25780(16)
H2 H 1.2953 0.1069 0.2562
C4 C 1.2512(2) 0.3177(2) 0.33806(16)
H3 H 1.3678 0.3632 0.3919
C5 C 1.1247(2) 0.40367(18) 0.33975(15)
H4 H 1.1539 0.5079 0.3956
C6 C 0.9550(2) 0.33762(17) 0.25978(14)
C7 C 0.8239(2) 0.43410(17) 0.25728(15)
C8 C 0.7526(2) 0.58559(17) 0.12955(14)
C9 C 0.5298(2) 0.74124(19) 0.19805(16)
H5 H 0.4528 0.6995 0.1126
H6 H 0.6234 0.8366 0.2031
C10 C 0.4041(2) 0.77650(17) 0.30540(15)
C11 C 0.4601(2) 0.79494(18) 0.43245(15)
H7 H 0.5805 0.7838 0.4530
C12 C 0.3419(2) 0.82945(18) 0.52955(16)
H8 H 0.3805 0.8400 0.6158
C13 C 0.1679(2) 0.84838(18) 0.50053(17)
H9 H 0.0868 0.8722 0.5668
C14 C 0.1120(2) 0.83262(19) 0.37480(17)
H10 H -0.0065 0.8474 0.3552
C15 C 0.2287(2) 0.79521(19) 0.27727(16)
H11 H 0.1884 0.7823 0.1907
H12 H 0.924(3) 0.459(2) 0.1044(18)
H13 H 0.605(3) 0.593(2) 0.2644(19)
loop_
_geom_bond_atom_site_label_1
_geom_bond_atom_site_label_2
_geom_bond_site_symmetry_1
_geom_bond_site_symmetry_2
Cl1 C1 1_555 1_555
S1 C8 1_555 1_555
O1 C7 1_555 1_555
N1 C7 1_555 1_555
N2 C8 1_555 1_555
C1 C2 1_555 1_555
C2 H1 1_555 1_555
C3 C2 1_555 1_555
H2 C3 1_555 1_555
C4 C3 1_555 1_555
H3 C4 1_555 1_555
C5 C4 1_555 1_555
H4 C5 1_555 1_555
C6 C1 1_555 1_555
C7 C6 1_555 1_555
C8 N1 1_555 1_555
C9 N2 1_555 1_555
H5 C9 1_555 1_555
H6 C9 1_555 1_555
C10 C9 1_555 1_555
C11 C10 1_555 1_555
H7 C11 1_555 1_555
C12 C11 1_555 1_555
H8 C12 1_555 1_555
C13 C12 1_555 1_555
H9 C13 1_555 1_555
C14 C13 1_555 1_555
H10 C14 1_555 1_555
C15 C10 1_555 1_555
H11 C15 1_555 1_555
H12 N1 1_555 1_555
H13 N2 1_555 1_555
C5 C6 1_555 1_555
C14 C15 1_555 1_555

#END
