
#######################################################################
#
#                 Cambridge Crystallographic Data Centre
#                                CCDC 
#
#######################################################################
#
# If this CIF has been generated from an entry in the Cambridge 
# Structural Database, then it will include bibliographic, chemical, 
# crystal, experimental, refinement or atomic coordinate data resulting 
# from the CCDC's data processing and validation procedures.
#
#######################################################################

data_YUPYIS
_chemical_formula_moiety         'C17 H19 N3 O2'
_chemical_name_systematic        
(E)-N'-[4-(Dimethylamino)benzylidene]-2-methoxybenzohydrazide
_symmetry_cell_setting           orthorhombic
_symmetry_space_group_name_H-M   'P b c a'
_symmetry_Int_Tables_number      61
_space_group_name_Hall           '-P 2ac 2ab'
loop_
_symmetry_equiv_pos_site_id
_symmetry_equiv_pos_as_xyz
1 x,y,z
2 1/2-x,-y,1/2+z
3 1/2+x,1/2-y,-z
4 -x,1/2+y,1/2-z
5 -x,-y,-z
6 1/2+x,y,1/2-z
7 1/2-x,1/2+y,z
8 x,1/2-y,1/2+z
_cell_length_a                   24.726(4)
_cell_length_b                   15.385(3)
_cell_length_c                   8.2700(15)
_cell_angle_alpha                90
_cell_angle_beta                 90
_cell_angle_gamma                90
_cell_volume                     3145.99
_exptl_crystal_colour            colorless
_exptl_crystal_description       block
_cell_formula_units_Z            8
loop_
_atom_site_label
_atom_site_type_symbol
_atom_site_fract_x
_atom_site_fract_y
_atom_site_fract_z
O1 O 0.22678(6) 0.40089(10) -0.07729(18)
O2 O 0.22007(6) 0.33552(10) 0.36694(18)
N1 N 0.18746(6) 0.26778(11) 0.1458(2)
H1 H 0.1951 0.2438 0.0491
N2 N 0.14034(6) 0.24198(11) 0.2235(2)
N3 N -0.07797(7) 0.02776(13) 0.3833(2)
C1 C 0.27573(9) 0.37736(13) -0.0152(3)
C2 C 0.27502(8) 0.33335(12) 0.1323(2)
C3 C 0.32355(9) 0.30874(14) 0.2011(3)
H2 H 0.3234 0.2808 0.3009
C4 C 0.37239(10) 0.32468(17) 0.1251(4)
H3 H 0.4047 0.3059 0.1707
C5 C 0.37218(11) 0.36868(17) -0.0186(4)
H4 H 0.4048 0.3805 -0.0699
C6 C 0.32491(11) 0.39565(17) -0.0884(3)
H5 H 0.3258 0.4264 -0.1852
C7 C 0.22616(11) 0.44770(17) -0.2266(3)
H6 H 0.2432 0.4134 -0.3092
H7 H 0.2454 0.5014 -0.2138
H8 H 0.1894 0.4597 -0.2570
C8 C 0.22464(8) 0.31366(12) 0.2249(3)
C9 C 0.11475(8) 0.18206(15) 0.1511(3)
H9 H 0.1286 0.1607 0.0545
C10 C 0.06471(8) 0.14545(13) 0.2125(2)
C11 C 0.04784(8) 0.06446(15) 0.1597(3)
H10 H 0.0683 0.0359 0.0817
C12 C 0.00212(8) 0.02449(15) 0.2177(3)
H11 H -0.0070 -0.0307 0.1808
C13 C -0.03087(8) 0.06541(14) 0.3311(2)
C14 C -0.01414(8) 0.14694(15) 0.3850(3)
H12 H -0.0349 0.1759 0.4618
C15 C 0.03229(8) 0.18573(14) 0.3275(3)
H13 H 0.0421 0.2402 0.3666
C16 C -0.09234(10) -0.05974(17) 0.3378(3)
H14 H -0.0627 -0.0981 0.3608
H15 H -0.1004 -0.0616 0.2243
H16 H -0.1235 -0.0778 0.3981
C17 C -0.11115(9) 0.07019(18) 0.5026(3)
H17 H -0.1181 0.1290 0.4696
H18 H -0.0927 0.0703 0.6048
H19 H -0.1448 0.0396 0.5131
loop_
_geom_bond_atom_site_label_1
_geom_bond_atom_site_label_2
_geom_bond_site_symmetry_1
_geom_bond_site_symmetry_2
O1 C1 1_555 1_555
O2 C8 1_555 1_555
N1 H1 1_555 1_555
N2 N1 1_555 1_555
N3 C13 1_555 1_555
C1 C2 1_555 1_555
C2 C3 1_555 1_555
C3 H2 1_555 1_555
C4 C3 1_555 1_555
H3 C4 1_555 1_555
C5 C4 1_555 1_555
H4 C5 1_555 1_555
C6 C1 1_555 1_555
H5 C6 1_555 1_555
C7 O1 1_555 1_555
H6 C7 1_555 1_555
H7 C7 1_555 1_555
H8 C7 1_555 1_555
C8 N1 1_555 1_555
C9 N2 1_555 1_555
H9 C9 1_555 1_555
C10 C9 1_555 1_555
C11 C10 1_555 1_555
H10 C11 1_555 1_555
C12 C11 1_555 1_555
H11 C12 1_555 1_555
C13 C12 1_555 1_555
C14 C13 1_555 1_555
H12 C14 1_555 1_555
C15 C10 1_555 1_555
H13 C15 1_555 1_555
C16 N3 1_555 1_555
H14 C16 1_555 1_555
H15 C16 1_555 1_555
H16 C16 1_555 1_555
C17 N3 1_555 1_555
H17 C17 1_555 1_555
H18 C17 1_555 1_555
H19 C17 1_555 1_555
C2 C8 1_555 1_555
C5 C6 1_555 1_555
C14 C15 1_555 1_555

#END
