
#######################################################################
#
#                 Cambridge Crystallographic Data Centre
#                                CCDC 
#
#######################################################################
#
# If this CIF has been generated from an entry in the Cambridge 
# Structural Database, then it will include bibliographic, chemical, 
# crystal, experimental, refinement or atomic coordinate data resulting 
# from the CCDC's data processing and validation procedures.
#
#######################################################################

data_YUQMON
_chemical_formula_moiety         'C13 H8 F1 N1 O2'
_chemical_name_systematic        3-Fluoro-4-(4-hydroxyphenoxy)benzonitrile
_symmetry_cell_setting           orthorhombic
_symmetry_space_group_name_H-M   'P 21 21 21'
_symmetry_Int_Tables_number      19
_space_group_name_Hall           'P 2ac 2ab'
loop_
_symmetry_equiv_pos_site_id
_symmetry_equiv_pos_as_xyz
1 x,y,z
2 1/2-x,-y,1/2+z
3 1/2+x,1/2-y,-z
4 -x,1/2+y,1/2-z
_cell_length_a                   6.1932(4)
_cell_length_b                   8.8109(5)
_cell_length_c                   20.5269(12)
_cell_angle_alpha                90
_cell_angle_beta                 90
_cell_angle_gamma                90
_cell_volume                     1120.11
_exptl_crystal_colour            colorless
_exptl_crystal_description       chunk
_cell_formula_units_Z            4
loop_
_atom_site_label
_atom_site_type_symbol
_atom_site_fract_x
_atom_site_fract_y
_atom_site_fract_z
O1 O 0.8260(4) 0.8262(3) 0.91021(10)
F1 F 0.7477(4) 0.5751(2) 0.84401(10)
C1 C 0.2965(5) 0.7967(4) 0.78841(13)
C2 C 0.1155(6) 0.7849(4) 0.74589(16)
C3 C 0.8277(5) 0.9255(4) 0.96363(13)
O2 O 0.8846(4) 1.2010(3) 1.12504(11)
H1 H 0.7775 1.1944 1.1484
C4 C 0.3341(5) 0.9302(4) 0.82157(14)
H2 H 0.2411 1.0120 0.8158
C5 C 0.8605(5) 1.1076(3) 1.07184(13)
C6 C 0.6082(5) 0.6918(4) 0.83712(14)
C7 C 0.6707(5) 0.9204(4) 1.01045(14)
H3 H 0.5543 0.8546 1.0059
C8 C 0.6460(5) 0.8233(4) 0.87182(13)
C9 C 0.4369(5) 0.6748(4) 0.79642(14)
H4 H 0.4141 0.5839 0.7744
C10 C 0.6853(5) 1.0130(4) 1.06440(14)
H5 H 0.5769 1.0115 1.0958
C11 C 1.0188(6) 1.1111(4) 1.02514(15)
H6 H 1.1376 1.1745 1.0301
C12 C 1.0011(6) 1.0202(4) 0.97087(15)
H7 H 1.1076 1.0231 0.9390
C13 C 0.5080(6) 0.9438(4) 0.86314(14)
H8 H 0.5319 1.0344 0.8853
N1 N -0.0310(6) 0.7800(4) 0.71268(15)
loop_
_geom_bond_atom_site_label_1
_geom_bond_atom_site_label_2
_geom_bond_site_symmetry_1
_geom_bond_site_symmetry_2
O1 C3 1_555 1_555
F1 C6 1_555 1_555
C1 C2 1_555 1_555
C2 N1 1_555 1_555
C3 C7 1_555 1_555
O2 H1 1_555 1_555
C4 C1 1_555 1_555
H2 C4 1_555 1_555
C5 O2 1_555 1_555
C6 C8 1_555 1_555
C7 H3 1_555 1_555
C8 O1 1_555 1_555
C9 C1 1_555 1_555
H4 C9 1_555 1_555
C10 C5 1_555 1_555
H5 C10 1_555 1_555
C11 C5 1_555 1_555
H6 C11 1_555 1_555
C12 C3 1_555 1_555
H7 C12 1_555 1_555
C13 C4 1_555 1_555
H8 C13 1_555 1_555
C6 C9 1_555 1_555
C7 C10 1_555 1_555
C8 C13 1_555 1_555
C11 C12 1_555 1_555

#END
