
#######################################################################
#
#                 Cambridge Crystallographic Data Centre
#                                CCDC 
#
#######################################################################
#
# If this CIF has been generated from an entry in the Cambridge 
# Structural Database, then it will include bibliographic, chemical, 
# crystal, experimental, refinement or atomic coordinate data resulting 
# from the CCDC's data processing and validation procedures.
#
#######################################################################

data_YUQQEH
_chemical_formula_moiety         'C16 H19 N2 O6 1+,I3 1-'
_chemical_name_systematic        
'Hydrogen bis[2-(4-ammoniophenoxy)acetate] triiodide'
_symmetry_cell_setting           monoclinic
_symmetry_space_group_name_H-M   'P 21/n'
_symmetry_Int_Tables_number      14
_space_group_name_Hall           '-P 2yn'
loop_
_symmetry_equiv_pos_site_id
_symmetry_equiv_pos_as_xyz
1 x,y,z
2 1/2-x,1/2+y,1/2-z
3 -x,-y,-z
4 1/2+x,1/2-y,1/2+z
_cell_length_a                   5.0650(10)
_cell_length_b                   13.780(3)
_cell_length_c                   14.982(3)
_cell_angle_alpha                90
_cell_angle_beta                 91.45(3)
_cell_angle_gamma                90
_cell_volume                     1045.34
_exptl_crystal_colour            yellow
_exptl_crystal_description       prism
_cell_formula_units_Z            2
_exptl_crystal_recrystallization_method ethanol
loop_
_atom_site_label
_atom_site_type_symbol
_atom_site_fract_x
_atom_site_fract_y
_atom_site_fract_z
O1 O 1.2218(4) 0.67887(15) 0.58467(15)
O2 O 0.8079(4) 0.56039(18) 0.62140(14)
O3 O 0.6743(4) 0.55858(17) 0.47780(15)
H1 H 0.5000 0.5000 0.5000
N1 N 1.1886(6) 1.0177(2) 0.7898(2)
H2 H 1.2238 1.0675 0.7542
H3 H 1.3108 1.0144 0.8334
H4 H 1.0304 1.0259 0.8132
C1 C 0.8242(6) 0.5871(2) 0.5433(2)
C2 C 1.1951(6) 0.7628(2) 0.63381(19)
C3 C 1.1900(6) 0.9274(2) 0.73775(19)
C4 C 1.3912(6) 0.7776(2) 0.6988(2)
H5 H 1.5251 0.7321 0.7070
C5 C 1.3875(6) 0.8600(2) 0.7513(2)
H6 H 1.5172 0.8698 0.7955
C6 C 0.9956(6) 0.9123(3) 0.6741(2)
H7 H 0.8617 0.9579 0.6662
C7 C 0.9965(6) 0.8299(3) 0.6217(2)
H8 H 0.8640 0.8199 0.5785
C8 C 1.0386(6) 0.6569(2) 0.5143(2)
H9 H 1.1324 0.6284 0.4651
H10 H 0.9570 0.7166 0.4931
O1B O -0.2218(4) 0.32113(15) 0.41533(15)
O2B O 0.1921(4) 0.43961(18) 0.37860(14)
O3B O 0.3257(4) 0.44142(17) 0.52220(15)
N1B N -0.1886(6) -0.0177(2) 0.2102(2)
H2B H -0.2238 -0.0675 0.2458
H3B H -0.3108 -0.0144 0.1666
H4B H -0.0304 -0.0259 0.1868
C1B C 0.1758(6) 0.4129(2) 0.4567(2)
C2B C -0.1951(6) 0.2372(2) 0.36619(19)
C3B C -0.1900(6) 0.0726(2) 0.26225(19)
C4B C -0.3912(6) 0.2224(2) 0.3012(2)
H5B H -0.5251 0.2679 0.2930
C5B C -0.3875(6) 0.1400(2) 0.2487(2)
H6B H -0.5172 0.1302 0.2045
C6B C 0.0044(6) 0.0877(3) 0.3259(2)
H7B H 0.1383 0.0421 0.3338
C7B C 0.0035(6) 0.1701(3) 0.3783(2)
H8B H 0.1360 0.1801 0.4215
C8B C -0.0386(6) 0.3431(2) 0.4857(2)
H9B H -0.1324 0.3716 0.5349
H10B H 0.0430 0.2834 0.5069
I1 I 0.53672(6) 0.162582(19) 0.624725(17)
I2 I 0.5000 0.0000 0.5000
I1B I 0.46328(6) -0.162582(19) 0.375275(17)
loop_
_geom_bond_atom_site_label_1
_geom_bond_atom_site_label_2
_geom_bond_site_symmetry_1
_geom_bond_site_symmetry_2
O1 C2 1_555 1_555
O2 C1 1_555 1_555
O3 H1 1_555 1_555
H1 O3B 1_555 1_555
N1 H2 1_555 1_555
H3 N1 1_555 1_555
H4 N1 1_555 1_555
C1 O3 1_555 1_555
C2 C4 1_555 1_555
C3 N1 1_555 1_555
C4 H5 1_555 1_555
C5 C3 1_555 1_555
H6 C5 1_555 1_555
C6 C3 1_555 1_555
H7 C6 1_555 1_555
C7 C2 1_555 1_555
H8 C7 1_555 1_555
C8 O1 1_555 1_555
H9 C8 1_555 1_555
H10 C8 1_555 1_555
I1 I2 1_555 1_555
I2 I1B 1_555 1_555
O1B C2B 1_555 1_555
O2B C1B 1_555 1_555
O3B C1B 1_555 1_555
N1B H2B 1_555 1_555
H3B N1B 1_555 1_555
H4B N1B 1_555 1_555
C1B C8B 1_555 1_555
C2B C4B 1_555 1_555
C3B N1B 1_555 1_555
C4B H5B 1_555 1_555
C5B C3B 1_555 1_555
H6B C5B 1_555 1_555
C6B C3B 1_555 1_555
H7B C6B 1_555 1_555
C7B C2B 1_555 1_555
H8B C7B 1_555 1_555
C8B O1B 1_555 1_555
H9B C8B 1_555 1_555
H10B C8B 1_555 1_555
C1 C8 1_555 1_555
C4 C5 1_555 1_555
C6 C7 1_555 1_555
C4B C5B 1_555 1_555
C6B C7B 1_555 1_555

#END
