
#######################################################################
#
#                 Cambridge Crystallographic Data Centre
#                                CCDC 
#
#######################################################################
#
# If this CIF has been generated from an entry in the Cambridge 
# Structural Database, then it will include bibliographic, chemical, 
# crystal, experimental, refinement or atomic coordinate data resulting 
# from the CCDC's data processing and validation procedures.
#
#######################################################################

data_YUQQOR02
_chemical_compound_source        'Talaromyces flavus'
_chemical_name_common            'steperoxide B'
_chemical_formula_moiety         'C14 H22 O4'
_chemical_name_systematic        
(2S,3S,6R,7S)-10-Hydroxy-2,2,6-trimethyl-7,8-dioxatricyclo[7.3.1.0^1,6^]tridecan-5-one
_symmetry_cell_setting           orthorhombic
_symmetry_space_group_name_H-M   'P 21 21 21'
_symmetry_Int_Tables_number      19
_space_group_name_Hall           'P 2ac 2ab'
loop_
_symmetry_equiv_pos_site_id
_symmetry_equiv_pos_as_xyz
1 x,y,z
2 1/2-x,-y,1/2+z
3 -x,1/2+y,1/2-z
4 1/2+x,1/2-y,-z
_cell_length_a                   7.3125(2)
_cell_length_b                   12.4303(5)
_cell_length_c                   13.9596(7)
_cell_angle_alpha                90
_cell_angle_beta                 90
_cell_angle_gamma                90
_cell_volume                     1268.88
_exptl_crystal_colour            colorless
_exptl_crystal_description       block
_cell_formula_units_Z            4
loop_
_atom_site_label
_atom_site_type_symbol
_atom_site_fract_x
_atom_site_fract_y
_atom_site_fract_z
C1 C 0.5137(2) 0.79405(10) 0.81512(9)
H1 H 0.4497 0.7310 0.7876
H2 H 0.6463 0.7856 0.8030
C2 C 0.47866(19) 0.79947(11) 0.92237(9)
H3 H 0.5243 0.7306 0.9507
C3 C 0.5889(2) 0.89063(11) 0.96771(9)
H4 H 0.7215 0.8720 0.9621
C4 C 0.5591(2) 0.99942(11) 0.91878(10)
H5 H 0.6566 1.0497 0.9392
H6 H 0.4404 1.0296 0.9398
C5 C 0.5603(2) 0.99067(11) 0.80861(10)
H7 H 0.6882 0.9811 0.7871
H8 H 0.5155 1.0594 0.7816
C6 C 0.44392(19) 0.89816(11) 0.76683(9)
C7 C 0.23652(19) 0.91028(11) 0.79582(9)
C8 C 0.1174(2) 0.82582(12) 0.74590(10)
C9 C 0.1374(2) 0.82168(13) 0.63870(10)
H9 H 0.0925 0.8897 0.6103
H10 H 0.0630 0.7619 0.6127
C10 C 0.3381(2) 0.80502(12) 0.61205(10)
H11 H 0.3490 0.8058 0.5414
H12 H 0.3767 0.7330 0.6346
C11 C 0.4698(2) 0.88960(11) 0.65369(10)
C12 C 0.1466(2) 1.02075(12) 0.77911(11)
H13 H 0.0280 1.0231 0.8118
H14 H 0.1286 1.0320 0.7103
H15 H 0.2259 1.0775 0.8046
C13 C 0.4424(2) 0.99752(12) 0.60107(10)
H16 H 0.4574 0.9866 0.5320
H17 H 0.5333 1.0496 0.6237
H18 H 0.3193 1.0249 0.6141
C14 C 0.6645(2) 0.85247(13) 0.62788(11)
H19 H 0.6758 0.8466 0.5581
H20 H 0.6882 0.7822 0.6572
H21 H 0.7533 0.9050 0.6519
O1 O 0.28595(14) 0.80322(8) 0.93854(7)
O2 O 0.21481(14) 0.90382(9) 0.89841(7)
O3 O 0.01264(15) 0.76800(10) 0.78959(8)
O4 O 0.54798(16) 0.90441(8) 1.06702(7)
H22 H 0.5639 0.8459 1.0959
loop_
_geom_bond_atom_site_label_1
_geom_bond_atom_site_label_2
_geom_bond_site_symmetry_1
_geom_bond_site_symmetry_2
C1 H1 1_555 1_555
H2 C1 1_555 1_555
C2 C1 1_555 1_555
H3 C2 1_555 1_555
C3 C2 1_555 1_555
H4 C3 1_555 1_555
C4 C3 1_555 1_555
H5 C4 1_555 1_555
H6 C4 1_555 1_555
C5 C4 1_555 1_555
H7 C5 1_555 1_555
H8 C5 1_555 1_555
C6 C1 1_555 1_555
C7 C6 1_555 1_555
C8 C7 1_555 1_555
C9 C8 1_555 1_555
H9 C9 1_555 1_555
H10 C9 1_555 1_555
C10 C9 1_555 1_555
H11 C10 1_555 1_555
H12 C10 1_555 1_555
C11 C6 1_555 1_555
C12 C7 1_555 1_555
H13 C12 1_555 1_555
H14 C12 1_555 1_555
H15 C12 1_555 1_555
C13 C11 1_555 1_555
H16 C13 1_555 1_555
H17 C13 1_555 1_555
H18 C13 1_555 1_555
C14 C11 1_555 1_555
H19 C14 1_555 1_555
H20 C14 1_555 1_555
H21 C14 1_555 1_555
O1 C2 1_555 1_555
O2 C7 1_555 1_555
O3 C8 1_555 1_555
O4 C3 1_555 1_555
H22 O4 1_555 1_555
C5 C6 1_555 1_555
C10 C11 1_555 1_555
O1 O2 1_555 1_555

#END
