
#######################################################################
#
#                 Cambridge Crystallographic Data Centre
#                                CCDC 
#
#######################################################################
#
# If this CIF has been generated from an entry in the Cambridge 
# Structural Database, then it will include bibliographic, chemical, 
# crystal, experimental, refinement or atomic coordinate data resulting 
# from the CCDC's data processing and validation procedures.
#
#######################################################################

data_YUQRUY
_chemical_formula_moiety         'C11 H10 Cl1 N1 O1'
_chemical_name_systematic        (2-Chloro-8-methylquinolin-3-yl)methanol
_symmetry_cell_setting           monoclinic
_symmetry_space_group_name_H-M   'P 21/c'
_symmetry_Int_Tables_number      14
_space_group_name_Hall           '-P 2ybc'
loop_
_symmetry_equiv_pos_site_id
_symmetry_equiv_pos_as_xyz
1 x,y,z
2 -x,1/2+y,1/2-z
3 -x,-y,-z
4 x,1/2-y,1/2+z
_cell_length_a                   14.963(2)
_cell_length_b                   4.6320(10)
_cell_length_c                   14.469(2)
_cell_angle_alpha                90
_cell_angle_beta                 103.6120(10)
_cell_angle_gamma                90
_cell_volume                     974.659
_exptl_crystal_colour            colorless
_exptl_crystal_description       plate
_cell_formula_units_Z            4
_exptl_crystal_recrystallization_method chloroform
loop_
_atom_site_label
_atom_site_type_symbol
_atom_site_fract_x
_atom_site_fract_y
_atom_site_fract_z
Cl1 Cl 0.13301(8) 0.6900(2) -0.03546(7)
O1 O 0.0342(2) 0.8800(5) 0.2237(2)
N1 N 0.2487(2) 0.3588(7) 0.0784(2)
C1 C 0.1808(3) 0.5392(8) 0.0749(2)
C2 C 0.1436(3) 0.6216(7) 0.1526(3)
C3 C 0.1835(3) 0.4990(8) 0.2376(3)
C4 C 0.2981(3) 0.1674(9) 0.3335(3)
C5 C 0.3681(3) -0.0242(10) 0.3370(3)
C6 C 0.3985(3) -0.0855(9) 0.2554(3)
C7 C 0.3611(3) 0.0351(9) 0.1686(3)
C8 C 0.2875(3) 0.2323(8) 0.1643(3)
C9 C 0.2566(3) 0.3003(8) 0.2465(3)
C10 C 0.0635(3) 0.8293(8) 0.1397(3)
C11 C 0.3954(3) -0.0328(10) 0.0817(3)
H1 H 0.00970 0.73400 0.23830
H2 H 0.16230 0.54700 0.29100
H3 H 0.27790 0.20970 0.38810
H4 H 0.39560 -0.11390 0.39410
H5 H 0.44670 -0.21540 0.26010
H6 H 0.08110 1.01170 0.11630
H7 H 0.01230 0.75250 0.09200
H8 H 0.44600 -0.16520 0.09810
H9 H 0.41540 0.14190 0.05710
H10 H 0.34680 -0.11840 0.03440
loop_
_geom_bond_atom_site_label_1
_geom_bond_atom_site_label_2
_geom_bond_site_symmetry_1
_geom_bond_site_symmetry_2
Cl1 C1 1_555 1_555
O1 C10 1_555 1_555
N1 C1 1_555 1_555
C1 C2 1_555 1_555
C2 C3 1_555 1_555
C3 C9 1_555 1_555
C4 C5 1_555 1_555
C5 C6 1_555 1_555
C6 C7 1_555 1_555
C7 C8 1_555 1_555
C8 N1 1_555 1_555
C9 C4 1_555 1_555
C10 C2 1_555 1_555
C11 C7 1_555 1_555
H1 O1 1_555 1_555
H2 C3 1_555 1_555
H3 C4 1_555 1_555
H4 C5 1_555 1_555
H5 C6 1_555 1_555
H6 C10 1_555 1_555
H7 C10 1_555 1_555
H8 C11 1_555 1_555
H9 C11 1_555 1_555
H10 C11 1_555 1_555
C8 C9 1_555 1_555

#END
