
#######################################################################
#
#                 Cambridge Crystallographic Data Centre
#                                CCDC 
#
#######################################################################
#
# If this CIF has been generated from an entry in the Cambridge 
# Structural Database, then it will include bibliographic, chemical, 
# crystal, experimental, refinement or atomic coordinate data resulting 
# from the CCDC's data processing and validation procedures.
#
#######################################################################

data_YUQYEP
_chemical_name_common            
2,2'-((2,5-Dibutoxy-1,4-phenylene)diethene-2,1-diyl)dipyridine
_chemical_formula_moiety         'C28 H32 N2 O2'
_chemical_name_systematic        
2,2'-[(1E,1'E)-2,2'-(2,5-Dibutoxy-1,4-phenylene)bis(ethene-2,1-diyl)]dipyridine
_symmetry_cell_setting           monoclinic
_symmetry_space_group_name_H-M   'P 21/c'
_symmetry_Int_Tables_number      14
_space_group_name_Hall           '-P 2ybc'
loop_
_symmetry_equiv_pos_site_id
_symmetry_equiv_pos_as_xyz
1 x,y,z
2 -x,1/2+y,1/2-z
3 -x,-y,-z
4 x,1/2-y,1/2+z
_cell_length_a                   8.882(5)
_cell_length_b                   13.892(5)
_cell_length_c                   10.387(5)
_cell_angle_alpha                90
_cell_angle_beta                 107.392(5)
_cell_angle_gamma                90
_cell_volume                     1223.05
_exptl_crystal_colour            yellow
_exptl_crystal_description       block
_cell_formula_units_Z            2
loop_
_atom_site_label
_atom_site_type_symbol
_atom_site_fract_x
_atom_site_fract_y
_atom_site_fract_z
O1 O -0.10160(17) 0.50961(9) 0.22161(12)
C1 C 0.0431(2) 0.57863(13) 0.43825(17)
H1 H 0.0725 0.6313 0.3960
C2 C -0.0472(2) 0.50707(13) 0.36022(17)
C3 C 0.2548(2) 0.72369(13) 0.61936(18)
H2 H 0.2324 0.7310 0.5265
C4 C 0.1898(2) 0.64922(13) 0.66286(18)
H3 H 0.2083 0.6442 0.7556
C5 C 0.3587(2) 0.79507(14) 0.70512(19)
C6 C 0.0919(2) 0.57414(13) 0.57915(17)
N1 N 0.3841(2) 0.78919(14) 0.83829(17)
C7 C 0.4305(3) 0.86549(15) 0.6486(2)
H4 H 0.4106 0.8689 0.5556
C8 C -0.0751(3) 0.59382(15) 0.15295(19)
H5 H 0.0359 0.5996 0.1601
H6 H -0.1069 0.6507 0.1922
C9 C -0.1717(3) 0.58404(16) 0.00746(18)
H7 H -0.1503 0.5217 -0.0253
H8 H -0.2826 0.5857 0.0020
C10 C 0.5312(3) 0.93013(17) 0.7318(3)
H9 H 0.5797 0.9780 0.6957
C11 C 0.4832(3) 0.8533(2) 0.9145(2)
H10 H 0.5018 0.8498 1.0074
C12 C 0.5588(3) 0.9232(2) 0.8671(3)
H11 H 0.6277 0.9652 0.9258
C13 C -0.1405(4) 0.6606(2) -0.0831(2)
H12 H -0.0302 0.6582 -0.0795
H13 H -0.1603 0.7231 -0.0499
C14 C -0.2407(4) 0.6502(2) -0.2276(2)
H14 H -0.2273 0.5868 -0.2594
H15 H -0.2092 0.6972 -0.2822
H16 H -0.3496 0.6599 -0.2335
O1B O 0.10160(17) 0.49039(9) 0.77839(12)
C1B C -0.0431(2) 0.42137(13) 0.56175(17)
H1B H -0.0725 0.3687 0.6040
C2B C 0.0472(2) 0.49293(13) 0.63978(17)
C3B C -0.2548(2) 0.27631(13) 0.38064(18)
H2B H -0.2324 0.2690 0.4735
C4B C -0.1898(2) 0.35078(13) 0.33714(18)
H3B H -0.2083 0.3558 0.2444
C5B C -0.3587(2) 0.20493(14) 0.29488(19)
C6B C -0.0919(2) 0.42586(13) 0.42085(17)
N1B N -0.3841(2) 0.21081(14) 0.16171(17)
C7B C -0.4305(3) 0.13451(15) 0.3514(2)
H4B H -0.4106 0.1311 0.4444
C8B C 0.0751(3) 0.40618(15) 0.84705(19)
H5B H -0.0359 0.4004 0.8399
H6B H 0.1069 0.3493 0.8078
C9B C 0.1717(3) 0.41596(16) 0.99254(18)
H7B H 0.1503 0.4783 1.0253
H8B H 0.2826 0.4143 0.9980
C10B C -0.5312(3) 0.06987(17) 0.2682(3)
H9B H -0.5797 0.0220 0.3043
C11B C -0.4832(3) 0.1467(2) 0.0855(2)
H10B H -0.5018 0.1502 -0.0074
C12B C -0.5588(3) 0.0768(2) 0.1329(3)
H11B H -0.6277 0.0348 0.0742
C13B C 0.1405(4) 0.3394(2) 1.0831(2)
H12B H 0.0302 0.3418 1.0795
H13B H 0.1603 0.2769 1.0499
C14B C 0.2407(4) 0.3498(2) 1.2276(2)
H14B H 0.2273 0.4132 1.2594
H15B H 0.2092 0.3028 1.2822
H16B H 0.3496 0.3401 1.2335
loop_
_geom_bond_atom_site_label_1
_geom_bond_atom_site_label_2
_geom_bond_site_symmetry_1
_geom_bond_site_symmetry_2
O1 C2 1_555 1_555
C1 H1 1_555 1_555
C2 C1 1_555 1_555
C3 H2 1_555 1_555
C4 C3 1_555 1_555
H3 C4 1_555 1_555
C5 C3 1_555 1_555
C6 C1 1_555 1_555
N1 C5 1_555 1_555
C7 C5 1_555 1_555
H4 C7 1_555 1_555
C8 O1 1_555 1_555
H5 C8 1_555 1_555
H6 C8 1_555 1_555
C9 C8 1_555 1_555
H7 C9 1_555 1_555
H8 C9 1_555 1_555
C10 C7 1_555 1_555
H9 C10 1_555 1_555
C11 N1 1_555 1_555
H10 C11 1_555 1_555
C12 C10 1_555 1_555
H11 C12 1_555 1_555
C13 C9 1_555 1_555
H12 C13 1_555 1_555
H13 C13 1_555 1_555
C14 C13 1_555 1_555
H14 C14 1_555 1_555
H15 C14 1_555 1_555
H16 C14 1_555 1_555
O1B C2B 1_555 1_555
C1B H1B 1_555 1_555
C2B C6 1_555 1_555
C3B H2B 1_555 1_555
C4B C3B 1_555 1_555
H3B C4B 1_555 1_555
C5B C3B 1_555 1_555
C6B C2 1_555 1_555
N1B C5B 1_555 1_555
C7B C5B 1_555 1_555
H4B C7B 1_555 1_555
C8B O1B 1_555 1_555
H5B C8B 1_555 1_555
H6B C8B 1_555 1_555
C9B C8B 1_555 1_555
H7B C9B 1_555 1_555
H8B C9B 1_555 1_555
C10B C7B 1_555 1_555
H9B C10B 1_555 1_555
C11B N1B 1_555 1_555
H10B C11B 1_555 1_555
C12B C10B 1_555 1_555
H11B C12B 1_555 1_555
C13B C9B 1_555 1_555
H12B C13B 1_555 1_555
H13B C13B 1_555 1_555
C14B C13B 1_555 1_555
H14B C14B 1_555 1_555
H15B C14B 1_555 1_555
H16B C14B 1_555 1_555
C4 C6 1_555 1_555
C11 C12 1_555 1_555
C1B C2B 1_555 1_555
C1B C6B 1_555 1_555
C4B C6B 1_555 1_555
C11B C12B 1_555 1_555

#END
