
#######################################################################
#
#                 Cambridge Crystallographic Data Centre
#                                CCDC 
#
#######################################################################
#
# If this CIF has been generated from an entry in the Cambridge 
# Structural Database, then it will include bibliographic, chemical, 
# crystal, experimental, refinement or atomic coordinate data resulting 
# from the CCDC's data processing and validation procedures.
#
#######################################################################

data_YURJOM
_chemical_formula_moiety         'C30 H32 O5,C1 H4 O1'
_chemical_name_systematic        
"2-hydroxy-4-(2-hydroxypropan-2-yl)-6'-isopropyl-2,4',7,9'-tetramethyl-3'H-spiro[indene-1,2'-naphtho[1,2-b]furan]-3,3'(2H)-dione methanol solvate"
_symmetry_cell_setting           orthorhombic
_symmetry_space_group_name_H-M   'P 21 21 21'
_symmetry_Int_Tables_number      19
_space_group_name_Hall           'P 2ac 2ab'
loop_
_symmetry_equiv_pos_site_id
_symmetry_equiv_pos_as_xyz
1 x,y,z
2 1/2-x,-y,1/2+z
3 1/2+x,1/2-y,-z
4 -x,1/2+y,1/2-z
_cell_length_a                   9.70340(10)
_cell_length_b                   14.9100(2)
_cell_length_c                   19.1631(2)
_cell_angle_alpha                90
_cell_angle_beta                 90
_cell_angle_gamma                90
_cell_volume                     2772.47
_cell_formula_units_Z            4
loop_
_atom_site_label
_atom_site_type_symbol
_atom_site_fract_x
_atom_site_fract_y
_atom_site_fract_z
O1 O 0.52259(13) 0.92982(9) 0.40773(6)
O2 O 0.19161(15) 0.94140(10) 0.48350(8)
O3 O 0.11184(16) 0.87258(10) 0.28102(8)
O4 O 0.25060(18) 1.02008(9) 0.34095(7)
H1 H 0.2558 1.0480 0.3042
O5 O 0.00048(18) 0.70795(12) 0.29052(11)
H2 H 0.0150 0.7615 0.2839
C1 C 0.2619(2) 0.77960(12) 0.35306(9)
C2 C 0.6662(2) 1.03312(13) 0.47375(10)
C3 C 0.3153(2) 0.93656(12) 0.33330(9)
C4 C 0.35832(19) 0.80503(12) 0.40357(8)
C5 C 0.5374(2) 0.99189(12) 0.45966(9)
C6 C 0.37917(19) 0.90514(12) 0.40344(9)
C7 C 0.2136(2) 0.86169(13) 0.31765(9)
C8 C 0.4184(2) 1.00880(13) 0.49568(9)
C9 C 0.3104(2) 0.95289(13) 0.46611(9)
C10 C 0.6627(2) 1.09834(14) 0.52894(10)
C11 C 0.7907(2) 1.01345(13) 0.43764(11)
C12 C 0.2256(2) 0.68886(13) 0.34278(9)
C13 C 0.4197(2) 0.74288(13) 0.44813(10)
C14 C 0.7874(2) 1.14473(14) 0.54723(11)
C15 C 0.5364(2) 1.11567(16) 0.56438(11)
H3 H 0.5361 1.1594 0.5990
C16 C 0.3842(2) 0.65420(14) 0.43715(11)
H4 H 0.4245 0.6104 0.4650
C17 C 0.2913(2) 0.62797(13) 0.38649(11)
H5 H 0.2720 0.5672 0.3814
C18 C 0.4159(2) 1.07201(16) 0.55062(10)
C19 C 0.8028(2) 0.94249(17) 0.38224(13)
H6 H 0.8965 0.9394 0.3662
H7 H 0.7435 0.9572 0.3438
H8 H 0.7763 0.8855 0.4013
C20 C 0.1274(3) 0.65930(15) 0.28508(12)
C21 C 0.9028(2) 1.12472(17) 0.50999(13)
H9 H 0.9837 1.1552 0.5206
C22 C 0.9061(2) 1.06050(16) 0.45635(12)
H10 H 0.9885 1.0497 0.4330
C23 C 0.4220(2) 0.93716(16) 0.27512(10)
H11 H 0.3768 0.9458 0.2311
H12 H 0.4703 0.8810 0.2747
H13 H 0.4863 0.9851 0.2829
C24 C 0.1969(4) 0.6759(2) 0.21408(12)
H14 H 0.1342 0.6605 0.1773
H15 H 0.2783 0.6396 0.2105
H16 H 0.2217 0.7381 0.2102
C25 C 0.5182(3) 0.76859(17) 0.50540(13)
H17 H 0.5411 0.7164 0.5324
H18 H 0.4758 0.8126 0.5350
H19 H 0.6006 0.7932 0.4853
C26 C 0.2860(3) 1.0911(2) 0.59037(14)
H20 H 0.2342 1.1366 0.5666
H21 H 0.3089 1.1114 0.6365
H22 H 0.2319 1.0373 0.5935
C27 C 0.0865(3) 0.56091(17) 0.29081(17)
H23 H 0.0410 0.5508 0.3346
H24 H 0.1676 0.5241 0.2882
H25 H 0.0254 0.5458 0.2532
C28 C 0.7904(3) 1.21093(15) 0.60720(12)
H26 H 0.7102 1.2503 0.6021
C29 C 0.9209(6) 1.2720(3) 0.6120(3)
H27 H 0.9123 1.3115 0.6513
H28 H 0.9291 1.3068 0.5700
H29 H 1.0014 1.2353 0.6175
C30 C 0.7766(5) 1.1626(3) 0.67738(19)
H30 H 0.7783 1.2058 0.7145
H31 H 0.8518 1.1214 0.6830
H32 H 0.6911 1.1303 0.6786
O6 O 0.2478(2) 1.12811(16) 0.22493(12)
H40 H 0.1733 1.1534 0.2199
C33 C 0.3366(4) 1.1551(3) 0.17320(18)
H41 H 0.3431 1.2194 0.1733
H42 H 0.3026 1.1352 0.1288
H43 H 0.4260 1.1298 0.1814
H33? H 0.7417 1.1853 0.6473
C31? C 0.7127(12) 1.2894(6) 0.5807(5)
H34? H 0.7094 1.3349 0.6161
H35? H 0.6207 1.2713 0.5688
H36? H 0.7578 1.3127 0.5400
C32? C 0.9374(18) 1.2315(8) 0.6275(10)
H37? H 0.9817 1.1775 0.6431
H38? H 0.9380 1.2749 0.6645
H39? H 0.9859 1.2551 0.5879
loop_
_geom_bond_atom_site_label_1
_geom_bond_atom_site_label_2
_geom_bond_site_symmetry_1
_geom_bond_site_symmetry_2
O1 C5 1_555 1_555
O2 C9 1_555 1_555
O3 C7 1_555 1_555
O4 H1 1_555 1_555
O5 H2 1_555 1_555
C1 C4 1_555 1_555
C2 C5 1_555 1_555
C3 O4 1_555 1_555
C4 C6 1_555 1_555
C5 C8 1_555 1_555
C6 O1 1_555 1_555
C7 C1 1_555 1_555
C8 C9 1_555 1_555
C9 C6 1_555 1_555
C10 C2 1_555 1_555
C11 C2 1_555 1_555
C12 C1 1_555 1_555
C13 C4 1_555 1_555
C14 C10 1_555 1_555
C15 C10 1_555 1_555
H3 C15 1_555 1_555
C16 C13 1_555 1_555
H4 C16 1_555 1_555
C17 C12 1_555 1_555
H5 C17 1_555 1_555
C18 C8 1_555 1_555
C19 C11 1_555 1_555
H6 C19 1_555 1_555
H7 C19 1_555 1_555
H8 C19 1_555 1_555
C20 O5 1_555 1_555
C21 C14 1_555 1_555
H9 C21 1_555 1_555
C22 C11 1_555 1_555
H10 C22 1_555 1_555
C23 C3 1_555 1_555
H11 C23 1_555 1_555
H12 C23 1_555 1_555
H13 C23 1_555 1_555
C24 C20 1_555 1_555
H14 C24 1_555 1_555
H15 C24 1_555 1_555
H16 C24 1_555 1_555
C25 C13 1_555 1_555
H17 C25 1_555 1_555
H18 C25 1_555 1_555
H19 C25 1_555 1_555
C26 C18 1_555 1_555
H20 C26 1_555 1_555
H21 C26 1_555 1_555
H22 C26 1_555 1_555
C27 C20 1_555 1_555
H23 C27 1_555 1_555
H24 C27 1_555 1_555
H25 C27 1_555 1_555
C28 C14 1_555 1_555
H26 C28 1_555 1_555
C29 C28 1_555 1_555
H27 C29 1_555 1_555
H28 C29 1_555 1_555
H29 C29 1_555 1_555
C30 C28 1_555 1_555
H30 C30 1_555 1_555
H31 C30 1_555 1_555
H32 C30 1_555 1_555
O6 H40 1_555 1_555
C33 O6 1_555 1_555
H41 C33 1_555 1_555
H42 C33 1_555 1_555
H43 C33 1_555 1_555
C3 C6 1_555 1_555
C3 C7 1_555 1_555
C12 C20 1_555 1_555
C15 C18 1_555 1_555
C16 C17 1_555 1_555
C21 C22 1_555 1_555

#END
