
#######################################################################
#
#                 Cambridge Crystallographic Data Centre
#                                CCDC 
#
#######################################################################
#
# If this CIF has been generated from an entry in the Cambridge 
# Structural Database, then it will include bibliographic, chemical, 
# crystal, experimental, refinement or atomic coordinate data resulting 
# from the CCDC's data processing and validation procedures.
#
#######################################################################

data_YURLUU
_chemical_compound_source        
'isolated from the fruiting bodies of Ganoderma cochlear'
_chemical_name_common            'sinensine G methanol solvate'
_chemical_formula_moiety         'C30 H48 O3,C1 H4 O1'
_chemical_name_systematic        
'lanosta-7,9(11),25-triene-3,22,24-triol methanol solvate'
_chemical_properties_biological  'cytotoxic activity against MCF-7 cells'
_symmetry_cell_setting           monoclinic
_symmetry_space_group_name_H-M   'P 21'
_symmetry_Int_Tables_number      4
_space_group_name_Hall           'P 2yb'
loop_
_symmetry_equiv_pos_site_id
_symmetry_equiv_pos_as_xyz
1 x,y,z
2 -x,1/2+y,-z
_cell_length_a                   6.2648(3)
_cell_length_b                   33.5254(16)
_cell_length_c                   6.9559(3)
_cell_angle_alpha                90
_cell_angle_beta                 107.704(2)
_cell_angle_gamma                90
_cell_volume                     1391.76
_exptl_crystal_colour            colorless
_exptl_crystal_description       prism
_cell_formula_units_Z            2
loop_
_atom_site_label
_atom_site_type_symbol
_atom_site_fract_x
_atom_site_fract_y
_atom_site_fract_z
O1 O 0.8526(4) 0.59953(6) 0.0200(3)
H1 H 0.9628 0.6143 0.0258
O2 O 1.4197(4) 0.22907(7) 0.0524(3)
H2 H 1.4228 0.2104 -0.0275
O3 O 0.8711(3) 0.15791(6) 0.0244(3)
H3 H 0.7518 0.1463 0.0227
C1 C 0.9107(6) 0.19688(11) 0.5445(5)
H4 H 0.8033 0.2185 0.4918
H5 H 1.0626 0.2079 0.5923
H6 H 0.8749 0.1837 0.6567
C2 C 0.8970(5) 0.16690(9) 0.3792(4)
C3 C 0.9371(5) 0.18403(8) 0.1928(4)
H7 H 0.8463 0.2090 0.1563
C4 C 1.1825(5) 0.19487(8) 0.2231(4)
H8 H 1.2543 0.2022 0.3661
H9 H 1.2617 0.1712 0.1931
C5 C 1.2071(5) 0.22951(8) 0.0883(4)
H10 H 1.0881 0.2267 -0.0446
C6 C 1.1761(5) 0.27007(8) 0.1786(4)
H11 H 1.0404 0.2682 0.2253
C7 C 1.1346(5) 0.30403(8) 0.0197(4)
H12 H 1.2733 0.3072 -0.0215
C8 C 1.0708(4) 0.34557(8) 0.0839(4)
C9 C 0.9709(5) 0.36642(8) -0.1234(4)
C10 C 0.8678(5) 0.40629(8) -0.0977(4)
C11 C 0.9974(5) 0.43002(8) 0.0761(4)
C12 C 0.9001(5) 0.47117(8) 0.1082(4)
C13 C 1.0864(5) 0.49912(9) 0.2281(4)
H13 H 1.1426 0.4896 0.3692
H14 H 1.2122 0.4980 0.1700
C14 C 1.0097(5) 0.54227(8) 0.2279(5)
H15 H 0.8929 0.5439 0.2967
H16 H 1.1380 0.5589 0.3045
C15 C 0.9170(5) 0.55848(8) 0.0163(4)
H17 H 1.0383 0.5571 -0.0494
C16 C 0.7872(5) 0.48950(8) -0.1051(4)
H18 H 0.9048 0.4885 -0.1752
C17 C 0.7149(5) 0.53427(8) -0.1142(4)
C18 C 0.5068(5) 0.54235(9) -0.0466(5)
H19 H 0.4589 0.5701 -0.0771
H20 H 0.5436 0.5377 0.0990
H21 H 0.3855 0.5244 -0.1186
C19 C 0.6621(6) 0.54892(10) -0.3341(5)
H22 H 0.5168 0.5383 -0.4148
H23 H 0.7791 0.5397 -0.3902
H24 H 0.6568 0.5781 -0.3369
C20 C 0.5984(5) 0.46225(9) -0.2293(4)
H25 H 0.4738 0.4622 -0.1695
H26 H 0.5403 0.4725 -0.3689
C21 C 0.6841(5) 0.42027(8) -0.2327(4)
H27 H 0.6024 0.4029 -0.3370
C22 C 1.1779(5) 0.41498(8) 0.2135(4)
H28 H 1.2612 0.4322 0.3181
C23 C 1.2591(5) 0.37209(8) 0.2137(4)
H29 H 1.3092 0.3618 0.3537
H30 H 1.3885 0.3713 0.1601
C24 C 0.8119(5) 0.33449(9) -0.2464(4)
H31 H 0.7864 0.3383 -0.3928
H32 H 0.6658 0.3352 -0.2191
C25 C 0.9363(5) 0.29499(9) -0.1727(4)
H33 H 0.9932 0.2836 -0.2790
H34 H 0.8332 0.2754 -0.1414
C26 C 0.8521(6) 0.12906(11) 0.3942(5)
H35 H 0.8439 0.1114 0.2853
H36 H 0.8278 0.1193 0.5140
C27 C 1.3777(5) 0.27966(9) 0.3640(5)
H37 H 1.4214 0.2557 0.4471
H38 H 1.3363 0.3007 0.4436
H39 H 1.5037 0.2887 0.3194
C28 C 1.1507(5) 0.37555(9) -0.2293(4)
H40 H 1.0786 0.3875 -0.3617
H41 H 1.2255 0.3507 -0.2465
H42 H 1.2615 0.3942 -0.1465
C29 C 0.8900(4) 0.34060(9) 0.1918(4)
H43 H 0.9593 0.3300 0.3279
H44 H 0.7743 0.3221 0.1151
H45 H 0.8219 0.3666 0.2009
C30 C 0.7349(5) 0.46253(9) 0.2289(4)
H46 H 0.8119 0.4475 0.3512
H47 H 0.6085 0.4468 0.1456
H48 H 0.6795 0.4878 0.2665
O4 O 0.4248(3) 0.14836(6) 0.8649(3)
H49 H 0.3582 0.1324 0.9201
C31 C 0.4408(6) 0.13152(12) 0.6836(5)
H50 H 0.5039 0.1512 0.6120
H51 H 0.2913 0.1236 0.5984
H52 H 0.5383 0.1080 0.7147
loop_
_geom_bond_atom_site_label_1
_geom_bond_atom_site_label_2
_geom_bond_site_symmetry_1
_geom_bond_site_symmetry_2
O1 H1 1_555 1_555
O2 H2 1_555 1_555
O3 H3 1_555 1_555
C1 H4 1_555 1_555
H5 C1 1_555 1_555
H6 C1 1_555 1_555
C2 C1 1_555 1_555
C3 O3 1_555 1_555
H7 C3 1_555 1_555
C4 C3 1_555 1_555
H8 C4 1_555 1_555
H9 C4 1_555 1_555
C5 O2 1_555 1_555
H10 C5 1_555 1_555
C6 C5 1_555 1_555
H11 C6 1_555 1_555
C7 C6 1_555 1_555
H12 C7 1_555 1_555
C8 C7 1_555 1_555
C9 C8 1_555 1_555
C10 C9 1_555 1_555
C11 C10 1_555 1_555
C12 C11 1_555 1_555
C13 C12 1_555 1_555
H13 C13 1_555 1_555
H14 C13 1_555 1_555
C14 C13 1_555 1_555
H15 C14 1_555 1_555
H16 C14 1_555 1_555
C15 O1 1_555 1_555
H17 C15 1_555 1_555
C16 C12 1_555 1_555
H18 C16 1_555 1_555
C17 C15 1_555 1_555
C18 C17 1_555 1_555
H19 C18 1_555 1_555
H20 C18 1_555 1_555
H21 C18 1_555 1_555
C19 C17 1_555 1_555
H22 C19 1_555 1_555
H23 C19 1_555 1_555
H24 C19 1_555 1_555
C20 C16 1_555 1_555
H25 C20 1_555 1_555
H26 C20 1_555 1_555
C21 C10 1_555 1_555
H27 C21 1_555 1_555
C22 C11 1_555 1_555
H28 C22 1_555 1_555
C23 C8 1_555 1_555
H29 C23 1_555 1_555
H30 C23 1_555 1_555
C24 C9 1_555 1_555
H31 C24 1_555 1_555
H32 C24 1_555 1_555
C25 C7 1_555 1_555
H33 C25 1_555 1_555
H34 C25 1_555 1_555
C26 C2 1_555 1_555
H35 C26 1_555 1_555
H36 C26 1_555 1_555
C27 C6 1_555 1_555
H37 C27 1_555 1_555
H38 C27 1_555 1_555
H39 C27 1_555 1_555
C28 C9 1_555 1_555
H40 C28 1_555 1_555
H41 C28 1_555 1_555
H42 C28 1_555 1_555
C29 C8 1_555 1_555
H43 C29 1_555 1_555
H44 C29 1_555 1_555
H45 C29 1_555 1_555
C30 C12 1_555 1_555
H46 C30 1_555 1_555
H47 C30 1_555 1_555
H48 C30 1_555 1_555
O4 H49 1_555 1_555
C31 O4 1_555 1_555
H50 C31 1_555 1_555
H51 C31 1_555 1_555
H52 C31 1_555 1_555
C2 C3 1_555 1_555
C4 C5 1_555 1_555
C14 C15 1_555 1_555
C16 C17 1_555 1_555
C20 C21 1_555 1_555
C22 C23 1_555 1_555
C24 C25 1_555 1_555

#END
