
#######################################################################
#
#                 Cambridge Crystallographic Data Centre
#                                CCDC 
#
#######################################################################
#
# If this CIF has been generated from an entry in the Cambridge 
# Structural Database, then it will include bibliographic, chemical, 
# crystal, experimental, refinement or atomic coordinate data resulting 
# from the CCDC's data processing and validation procedures.
#
#######################################################################

data_YURSAH
_chemical_formula_moiety         'C90 H126 N6 O24'
_chemical_name_systematic        
12,14,26,28,40,42-Hexamethoxy-5,7,19,21,33,35-hexakis(2-(3-methylbutoxy)ethoxy)-2,10,16,24,30,38-hexa-azaheptacyclo[37.3.1.1^4,8^.1^11,15^.1^18,22^.1^25,29^.1^32,36^]octatetraconta-1(43),4(48),5,7,11(47),12,14,18(46),19,21,25(45),26,28,32(44),33,35,39,41-octadecaene-3,9,17,23,31,37-hexone
_symmetry_cell_setting           monoclinic
_symmetry_space_group_name_H-M   'C 2/c'
_symmetry_Int_Tables_number      15
_space_group_name_Hall           '-C 2yn'
loop_
_symmetry_equiv_pos_site_id
_symmetry_equiv_pos_as_xyz
1 x,y,z
2 -x,y,1/2-z
3 1/2+x,1/2+y,z
4 1/2-x,1/2+y,1/2-z
5 -x,-y,-z
6 x,-y,1/2+z
7 1/2-x,1/2-y,-z
8 1/2+x,1/2-y,1/2+z
_cell_length_a                   15.576(5)
_cell_length_b                   27.836(5)
_cell_length_c                   22.806(5)
_cell_angle_alpha                90
_cell_angle_beta                 96.900(5)
_cell_angle_gamma                90
_cell_volume                     9816.46
_exptl_crystal_colour            colorless
_exptl_crystal_description       prism
_cell_formula_units_Z            4
loop_
_atom_site_label
_atom_site_type_symbol
_atom_site_fract_x
_atom_site_fract_y
_atom_site_fract_z
C1 C 0.0000 0.3810(4) 0.2500
H1 H 0.0000 0.4151 0.2500
C2 C 0.0232(5) 0.3561(3) 0.3035(3)
C3 C 0.0216(5) 0.3073(3) 0.3029(3)
C4 C 0.0000 0.2820(4) 0.2500
H2 H 0.0000 0.2479 0.2500
C5 C 0.0434(7) 0.2348(3) 0.3594(4)
H3 H -0.0142 0.2223 0.3452
H4 H 0.0595 0.2248 0.4004
H5 H 0.0856 0.2222 0.3347
C6 C 0.0767(5) 0.4265(3) 0.3636(4)
C7 C 0.0936(5) 0.4468(3) 0.4243(3)
C8 C 0.1131(5) 0.4953(3) 0.4249(3)
H6 H 0.1188 0.5108 0.3884
C9 C 0.1250(5) 0.5230(3) 0.4777(3)
C10 C 0.1180(5) 0.4975(3) 0.5306(3)
C11 C 0.1018(5) 0.4498(3) 0.5311(3)
H7 H 0.0985 0.4335 0.5674
C12 C 0.0899(5) 0.4247(3) 0.4776(3)
C13 C 0.0973(6) 0.3464(3) 0.5299(4)
H8 H 0.1547 0.3557 0.5502
H9 H 0.0536 0.3507 0.5577
C14 C 0.0983(8) 0.2963(4) 0.5093(4)
H10 H 0.0398 0.2868 0.4911
H11 H 0.1388 0.2929 0.4792
C15 C 0.1460(19) 0.2181(10) 0.5351(12)
H12 H 0.1074 0.2105 0.4986
H13 H 0.2066 0.2174 0.5261
C16 C 0.134(2) 0.1831(12) 0.5820(12)
H14 H 0.0782 0.1911 0.5970
H15 H 0.1258 0.1512 0.5630
C17 C 0.198(3) 0.1778(13) 0.6330(16)
H16 H 0.2494 0.1763 0.6105
C18 C 0.2187(16) 0.1315(8) 0.6688(11)
H17 H 0.1716 0.1247 0.6925
H18 H 0.2729 0.1357 0.6950
H19 H 0.2247 0.1047 0.6418
C19 C 0.232(3) 0.2137(9) 0.6739(16)
H20 H 0.2738 0.2335 0.6560
H21 H 0.2604 0.1984 0.7097
H22 H 0.1845 0.2341 0.6841
C20 C 0.1208(6) 0.5038(3) 0.6371(3)
H23 H 0.1561 0.4743 0.6438
H24 H 0.0593 0.4951 0.6378
C21 C 0.1474(8) 0.5392(4) 0.6837(4)
H25 H 0.1230 0.5710 0.6715
H26 H 0.1240 0.5297 0.7205
C22 C 0.278(2) 0.5365(13) 0.7434(18)
H27 H 0.2383 0.5167 0.7639
H28 H 0.2780 0.5686 0.7621
C23 C 0.364(2) 0.5174(14) 0.765(2)
H29 H 0.3916 0.5400 0.7953
H30 H 0.3990 0.5167 0.7322
C24 C 0.366(2) 0.4688(13) 0.7923(17)
H31 H 0.3193 0.4524 0.7654
C25 C 0.342(2) 0.4539(15) 0.8512(15)
H32 H 0.3054 0.4788 0.8661
H33 H 0.3942 0.4497 0.8790
H34 H 0.3096 0.4236 0.8472
C26 C 0.445(3) 0.4419(17) 0.7769(18)
H35 H 0.4691 0.4585 0.7445
H36 H 0.4290 0.4091 0.7646
H37 H 0.4890 0.4408 0.8115
C27 C 0.1417(5) 0.5754(3) 0.4685(4)
C28 C 0.1389(5) 0.6564(3) 0.5103(4)
C29 C 0.1584(6) 0.6815(4) 0.5615(4)
C30 C 0.2024(6) 0.6773(4) 0.6688(4)
H38 H 0.2515 0.6988 0.6661
H39 H 0.2187 0.6527 0.6989
H40 H 0.1533 0.6958 0.6797
C31 C 0.1591(5) 0.7316(3) 0.5614(4)
H41 H 0.1740 0.7489 0.5972
C32 C 0.1379(6) 0.7561(3) 0.5087(4)
C33 C 0.1153(6) 0.7305(3) 0.4557(4)
C34 C 0.1189(7) 0.6816(3) 0.4580(4)
H42 H 0.1073 0.6640 0.4222
C35 C 0.1574(6) 0.8334(4) 0.5554(4)
H43 H 0.1109 0.8326 0.5807
H44 H 0.1676 0.8666 0.5440
H45 H 0.2104 0.8203 0.5771
C36 C 0.0361(15) 0.7386(6) 0.3523(6)
C37 C 0.0301(11) 0.7727(4) 0.3002(4)
C38 C 0.0000 0.7484(6) 0.2500
H46 H 0.0000 0.7143 0.2500
C39 C 0.0303(7) 0.8228(3) 0.2998(4)
C40 C 0.0000 0.8462(5) 0.2500
H47 H 0.0000 0.8803 0.2500
C41 C 0.0668(8) 0.8957(3) 0.3526(5)
H48 H 0.0075 0.9088 0.3437
H49 H 0.1029 0.9085 0.3234
C42 C 0.1052(10) 0.9091(4) 0.4155(6)
H50 H 0.0779 0.8902 0.4450
H51 H 0.1684 0.9033 0.4213
C43 C 0.1378(15) 0.9813(7) 0.4679(10)
H52 H 0.1995 0.9784 0.4621
H53 H 0.1294 0.9646 0.5051
C44 C 0.1164(18) 1.0329(8) 0.4737(11)
H54 H 0.1656 1.0479 0.4986
H55 H 0.0659 1.0346 0.4961
C45 C 0.0966(17) 1.0638(8) 0.4201(11)
H56 H 0.0521 1.0455 0.3938
C46 C 0.060(2) 1.1130(11) 0.4232(15)
H57 H 0.1029 1.1338 0.4458
H58 H 0.0076 1.1117 0.4427
H59 H 0.0465 1.1257 0.3831
C47 C 0.1686(17) 1.0748(11) 0.3814(14)
H60 H 0.1854 1.1086 0.3860
H61 H 0.1474 1.0683 0.3400
H62 H 0.2188 1.0543 0.3937
N1 N 0.0463(4) 0.3799(2) 0.3573(3)
H63 H 0.0409 0.3638 0.3899
N2 N 0.1374(4) 0.6049(3) 0.5130(3)
H64 H 0.1332 0.5919 0.5477
N3 N 0.0900(6) 0.7575(3) 0.4043(3)
H65 H 0.1076 0.7875 0.4033
O1 O 0.0873(4) 0.4515(2) 0.3206(2)
O2 O 0.0423(4) 0.2850(2) 0.3563(2)
O3 O 0.0748(3) 0.3760(2) 0.4759(2)
O4 O 0.1246(8) 0.2670(3) 0.5578(4)
O5 O 0.1327(4) 0.5244(2) 0.5809(2)
O6 O 0.2389(5) 0.5429(3) 0.6949(3)
O7 O 0.1590(6) 0.5893(2) 0.4201(3)
O8 O 0.1784(4) 0.6542(2) 0.6118(3)
O9 O 0.1338(4) 0.8057(2) 0.5046(3)
O10 O 0.0084(7) 0.6977(4) 0.3491(4)
O11 O 0.0654(5) 0.8451(2) 0.3510(3)
O12 O 0.0870(5) 0.9584(3) 0.4205(4)
C2A C -0.0232(5) 0.3561(3) 0.1965(3)
C3A C -0.0216(5) 0.3073(3) 0.1971(3)
C5A C -0.0434(7) 0.2348(3) 0.1406(4)
H3A H 0.0142 0.2223 0.1548
H4A H -0.0595 0.2248 0.0996
H5A H -0.0856 0.2222 0.1653
C6A C -0.0767(5) 0.4265(3) 0.1364(4)
C7A C -0.0936(5) 0.4468(3) 0.0757(3)
C8A C -0.1131(5) 0.4953(3) 0.0751(3)
H6A H -0.1188 0.5108 0.1116
C9A C -0.1250(5) 0.5230(3) 0.0223(3)
C10A C -0.1180(5) 0.4975(3) -0.0306(3)
C11A C -0.1018(5) 0.4498(3) -0.0311(3)
H7A H -0.0985 0.4335 -0.0674
C12A C -0.0899(5) 0.4247(3) 0.0224(3)
C13A C -0.0973(6) 0.3464(3) -0.0299(4)
H8A H -0.1547 0.3557 -0.0502
H9A H -0.0536 0.3507 -0.0577
C14A C -0.0983(8) 0.2963(4) -0.0093(4)
H10A H -0.0398 0.2868 0.0089
H11A H -0.1388 0.2929 0.0208
C15A C -0.1460(19) 0.2181(10) -0.0351(12)
H12A H -0.1074 0.2105 0.0014
H13A H -0.2066 0.2174 -0.0261
C16A C -0.134(2) 0.1831(12) -0.0820(12)
H14A H -0.0782 0.1911 -0.0970
H15A H -0.1258 0.1512 -0.0630
C17A C -0.198(3) 0.1778(13) -0.1330(16)
H16A H -0.2494 0.1763 -0.1105
C18A C -0.2187(16) 0.1315(8) -0.1688(11)
H17A H -0.1716 0.1247 -0.1925
H18A H -0.2729 0.1357 -0.1950
H19A H -0.2247 0.1047 -0.1418
C19A C -0.232(3) 0.2137(9) -0.1739(16)
H20A H -0.2738 0.2335 -0.1560
H21A H -0.2604 0.1984 -0.2097
H22A H -0.1845 0.2341 -0.1841
C20A C -0.1208(6) 0.5038(3) -0.1371(3)
H23A H -0.1561 0.4743 -0.1438
H24A H -0.0593 0.4951 -0.1378
C21A C -0.1474(8) 0.5392(4) -0.1837(4)
H25A H -0.1230 0.5710 -0.1715
H26A H -0.1240 0.5297 -0.2205
C22A C -0.278(2) 0.5365(13) -0.2434(18)
H27A H -0.2383 0.5167 -0.2639
H28A H -0.2780 0.5686 -0.2621
C23A C -0.364(2) 0.5174(14) -0.265(2)
H29A H -0.3916 0.5400 -0.2953
H30A H -0.3990 0.5167 -0.2322
C24A C -0.366(2) 0.4688(13) -0.2923(17)
H31A H -0.3193 0.4524 -0.2654
C25A C -0.342(2) 0.4539(15) -0.3512(15)
H32A H -0.3054 0.4788 -0.3661
H33A H -0.3942 0.4497 -0.3790
H34A H -0.3096 0.4236 -0.3472
C26A C -0.445(3) 0.4419(17) -0.2769(18)
H35A H -0.4691 0.4585 -0.2445
H36A H -0.4290 0.4091 -0.2646
H37A H -0.4890 0.4408 -0.3115
C27A C -0.1417(5) 0.5754(3) 0.0315(4)
C28A C -0.1389(5) 0.6564(3) -0.0103(4)
C29A C -0.1584(6) 0.6815(4) -0.0615(4)
C30A C -0.2024(6) 0.6773(4) -0.1688(4)
H38A H -0.2515 0.6988 -0.1661
H39A H -0.2187 0.6527 -0.1989
H40A H -0.1533 0.6958 -0.1797
C31A C -0.1591(5) 0.7316(3) -0.0614(4)
H41A H -0.1740 0.7489 -0.0972
C32A C -0.1379(6) 0.7561(3) -0.0087(4)
C33A C -0.1153(6) 0.7305(3) 0.0443(4)
C34A C -0.1189(7) 0.6816(3) 0.0420(4)
H42A H -0.1073 0.6640 0.0778
C35A C -0.1574(6) 0.8334(4) -0.0554(4)
H43A H -0.1109 0.8326 -0.0807
H44A H -0.1676 0.8666 -0.0440
H45A H -0.2104 0.8203 -0.0771
C36A C -0.0361(15) 0.7386(6) 0.1477(6)
C37A C -0.0301(11) 0.7727(4) 0.1998(4)
C39A C -0.0303(7) 0.8228(3) 0.2002(4)
C41A C -0.0668(8) 0.8957(3) 0.1474(5)
H48A H -0.0075 0.9088 0.1563
H49A H -0.1029 0.9085 0.1766
C42A C -0.1052(10) 0.9091(4) 0.0845(6)
H50A H -0.0779 0.8902 0.0550
H51A H -0.1684 0.9033 0.0787
C43A C -0.1378(15) 0.9813(7) 0.0321(10)
H52A H -0.1995 0.9784 0.0379
H53A H -0.1294 0.9646 -0.0051
C44A C -0.1164(18) 1.0329(8) 0.0263(11)
H54A H -0.1656 1.0479 0.0014
H55A H -0.0659 1.0346 0.0039
C45A C -0.0966(17) 1.0638(8) 0.0799(11)
H56A H -0.0521 1.0455 0.1062
C46A C -0.060(2) 1.1130(11) 0.0768(15)
H57A H -0.1029 1.1338 0.0542
H58A H -0.0076 1.1117 0.0573
H59A H -0.0465 1.1257 0.1169
C47A C -0.1686(17) 1.0748(11) 0.1186(14)
H60A H -0.1854 1.1086 0.1140
H61A H -0.1474 1.0683 0.1600
H62A H -0.2188 1.0543 0.1063
N1A N -0.0463(4) 0.3799(2) 0.1427(3)
H63A H -0.0409 0.3638 0.1101
N2A N -0.1374(4) 0.6049(3) -0.0130(3)
H64A H -0.1332 0.5919 -0.0477
N3A N -0.0900(6) 0.7575(3) 0.0957(3)
H65A H -0.1076 0.7875 0.0967
O1A O -0.0873(4) 0.4515(2) 0.1794(2)
O2A O -0.0423(4) 0.2850(2) 0.1437(2)
O3A O -0.0748(3) 0.3760(2) 0.0241(2)
O4A O -0.1246(8) 0.2670(3) -0.0578(4)
O5A O -0.1327(4) 0.5244(2) -0.0809(2)
O6A O -0.2389(5) 0.5429(3) -0.1949(3)
O7A O -0.1590(6) 0.5893(2) 0.0799(3)
O8A O -0.1784(4) 0.6542(2) -0.1118(3)
O9A O -0.1338(4) 0.8057(2) -0.0046(3)
O10A O -0.0084(7) 0.6977(4) 0.1509(4)
O11A O -0.0654(5) 0.8451(2) 0.1490(3)
O12A O -0.0870(5) 0.9584(3) 0.0795(4)
C48? C 0.0873(18) 0.2195(11) 0.5469(12)
H66? H 0.1128 0.2037 0.5142
H67? H 0.0240 0.2221 0.5357
C49? C 0.1072(13) 0.1889(7) 0.6059(11)
H68? H 0.0807 0.2045 0.6383
H69? H 0.0820 0.1563 0.5998
C50? C 0.206(2) 0.1850(13) 0.6227(14)
H70? H 0.2339 0.2167 0.6170
C51? C 0.2414(15) 0.1471(10) 0.5839(11)
H71? H 0.3041 0.1445 0.5942
H72? H 0.2285 0.1564 0.5424
H73? H 0.2143 0.1161 0.5903
C52? C 0.237(2) 0.1656(16) 0.6822(10)
H74? H 0.1942 0.1490 0.7018
H75? H 0.2542 0.1943 0.7038
H76? H 0.2859 0.1452 0.6804
C53? C 0.2665(19) 0.5023(11) 0.7417(16)
H77? H 0.2378 0.5076 0.7776
H78? H 0.2485 0.4705 0.7251
C54? C 0.361(2) 0.5036(16) 0.757(2)
H79? H 0.3802 0.5376 0.7590
H80? H 0.3884 0.4881 0.7246
C55? C 0.394(3) 0.4794(12) 0.8142(14)
H81? H 0.4587 0.4821 0.8201
C56? C 0.371(3) 0.4280(12) 0.7992(18)
H82? H 0.3765 0.4087 0.8354
H83? H 0.4094 0.4153 0.7721
H84? H 0.3108 0.4265 0.7803
C57? C 0.360(2) 0.4962(12) 0.8691(13)
H85? H 0.2969 0.4981 0.8622
H86? H 0.3838 0.5280 0.8799
H87? H 0.3772 0.4735 0.9013
C58? C 0.107(3) 0.7470(14) 0.3499(14)
C59? C 0.1653(15) 0.9834(8) 0.4296(15)
H88? H 0.2052 0.9706 0.4028
H89? H 0.1921 0.9782 0.4707
C60? C 0.1538(18) 1.0353(9) 0.4191(11)
H90? H 0.1327 1.0402 0.3768
H91? H 0.2110 1.0510 0.4269
C61? C 0.094(2) 1.0596(11) 0.4547(13)
H92? H 0.0357 1.0442 0.4463
C62? C 0.121(3) 1.0578(13) 0.5197(11)
H93? H 0.0742 1.0436 0.5379
H94? H 0.1339 1.0889 0.5366
H95? H 0.1708 1.0376 0.5264
C63? C 0.083(3) 1.1124(13) 0.4456(15)
H96? H 0.0224 1.1182 0.4458
H97? H 0.1011 1.1243 0.4095
H98? H 0.1149 1.1285 0.4786
O13? O 0.1311(16) 0.7040(11) 0.3426(9)
loop_
_geom_bond_atom_site_label_1
_geom_bond_atom_site_label_2
_geom_bond_site_symmetry_1
_geom_bond_site_symmetry_2
C1 H1 1_555 1_555
C2 C1 1_555 1_555
C3 C2 1_555 1_555
C4 C3 1_555 1_555
H2 C4 1_555 1_555
C5 H3 1_555 1_555
H4 C5 1_555 1_555
H5 C5 1_555 1_555
C6 C7 1_555 1_555
C7 C8 1_555 1_555
C8 H6 1_555 1_555
C9 C8 1_555 1_555
C10 C9 1_555 1_555
C11 C10 1_555 1_555
H7 C11 1_555 1_555
C12 C7 1_555 1_555
C13 H8 1_555 1_555
H9 C13 1_555 1_555
C14 C13 1_555 1_555
H10 C14 1_555 1_555
H11 C14 1_555 1_555
C15 H12 1_555 1_555
H13 C15 1_555 1_555
C16 C15 1_555 1_555
H14 C16 1_555 1_555
H15 C16 1_555 1_555
C17 C16 1_555 1_555
H16 C17 1_555 1_555
C18 C17 1_555 1_555
H17 C18 1_555 1_555
H18 C18 1_555 1_555
H19 C18 1_555 1_555
C19 C17 1_555 1_555
H20 C19 1_555 1_555
H21 C19 1_555 1_555
H22 C19 1_555 1_555
C20 H23 1_555 1_555
H24 C20 1_555 1_555
C21 C20 1_555 1_555
H25 C21 1_555 1_555
H26 C21 1_555 1_555
C22 H27 1_555 1_555
H28 C22 1_555 1_555
C23 C22 1_555 1_555
H29 C23 1_555 1_555
H30 C23 1_555 1_555
C24 C23 1_555 1_555
H31 C24 1_555 1_555
C25 C24 1_555 1_555
H32 C25 1_555 1_555
H33 C25 1_555 1_555
H34 C25 1_555 1_555
C26 C24 1_555 1_555
H35 C26 1_555 1_555
H36 C26 1_555 1_555
H37 C26 1_555 1_555
C27 C9 1_555 1_555
C28 C29 1_555 1_555
C29 C31 1_555 1_555
C30 H38 1_555 1_555
H39 C30 1_555 1_555
H40 C30 1_555 1_555
C31 H41 1_555 1_555
C32 C31 1_555 1_555
C33 C32 1_555 1_555
C34 C28 1_555 1_555
H42 C34 1_555 1_555
C35 H43 1_555 1_555
H44 C35 1_555 1_555
H45 C35 1_555 1_555
C36 C37 1_555 1_555
C37 C38 1_555 1_555
C38 H46 1_555 1_555
C39 C37 1_555 1_555
C40 C39 1_555 1_555
H47 C40 1_555 1_555
C41 H48 1_555 1_555
H49 C41 1_555 1_555
C42 C41 1_555 1_555
H50 C42 1_555 1_555
H51 C42 1_555 1_555
C43 H52 1_555 1_555
H53 C43 1_555 1_555
C44 C43 1_555 1_555
H54 C44 1_555 1_555
H55 C44 1_555 1_555
C45 C44 1_555 1_555
H56 C45 1_555 1_555
C46 C45 1_555 1_555
H57 C46 1_555 1_555
H58 C46 1_555 1_555
H59 C46 1_555 1_555
C47 C45 1_555 1_555
H60 C47 1_555 1_555
H61 C47 1_555 1_555
H62 C47 1_555 1_555
N1 C2 1_555 1_555
H63 N1 1_555 1_555
N2 C27 1_555 1_555
H64 N2 1_555 1_555
N3 C33 1_555 1_555
H65 N3 1_555 1_555
O1 C6 1_555 1_555
O2 C3 1_555 1_555
O3 C12 1_555 1_555
O4 C14 1_555 1_555
O5 C10 1_555 1_555
O6 C21 1_555 1_555
O7 C27 1_555 1_555
O8 C29 1_555 1_555
O9 C32 1_555 1_555
O10 C36 1_555 1_555
O11 C39 1_555 1_555
O12 C42 1_555 1_555
C2A C1 1_555 1_555
C3A C4 1_555 1_555
C5A H3A 1_555 1_555
H4A C5A 1_555 1_555
H5A C5A 1_555 1_555
C6A C7A 1_555 1_555
C7A C8A 1_555 1_555
C8A H6A 1_555 1_555
C9A C8A 1_555 1_555
C10A C9A 1_555 1_555
C11A C10A 1_555 1_555
H7A C11A 1_555 1_555
C12A C7A 1_555 1_555
C13A H8A 1_555 1_555
H9A C13A 1_555 1_555
C14A C13A 1_555 1_555
H10A C14A 1_555 1_555
H11A C14A 1_555 1_555
C15A H12A 1_555 1_555
H13A C15A 1_555 1_555
C16A C15A 1_555 1_555
H14A C16A 1_555 1_555
H15A C16A 1_555 1_555
C17A C16A 1_555 1_555
H16A C17A 1_555 1_555
C18A C17A 1_555 1_555
H17A C18A 1_555 1_555
H18A C18A 1_555 1_555
H19A C18A 1_555 1_555
C19A C17A 1_555 1_555
H20A C19A 1_555 1_555
H21A C19A 1_555 1_555
H22A C19A 1_555 1_555
C20A H23A 1_555 1_555
H24A C20A 1_555 1_555
C21A C20A 1_555 1_555
H25A C21A 1_555 1_555
H26A C21A 1_555 1_555
C22A H27A 1_555 1_555
H28A C22A 1_555 1_555
C23A C22A 1_555 1_555
H29A C23A 1_555 1_555
H30A C23A 1_555 1_555
C24A C23A 1_555 1_555
H31A C24A 1_555 1_555
C25A C24A 1_555 1_555
H32A C25A 1_555 1_555
H33A C25A 1_555 1_555
H34A C25A 1_555 1_555
C26A C24A 1_555 1_555
H35A C26A 1_555 1_555
H36A C26A 1_555 1_555
H37A C26A 1_555 1_555
C27A C9A 1_555 1_555
C28A C29A 1_555 1_555
C29A C31A 1_555 1_555
C30A H38A 1_555 1_555
H39A C30A 1_555 1_555
H40A C30A 1_555 1_555
C31A H41A 1_555 1_555
C32A C31A 1_555 1_555
C33A C32A 1_555 1_555
C34A C28A 1_555 1_555
H42A C34A 1_555 1_555
C35A H43A 1_555 1_555
H44A C35A 1_555 1_555
H45A C35A 1_555 1_555
C36A C37A 1_555 1_555
C37A C38 1_555 1_555
C39A C40 1_555 1_555
C41A H48A 1_555 1_555
H49A C41A 1_555 1_555
C42A C41A 1_555 1_555
H50A C42A 1_555 1_555
H51A C42A 1_555 1_555
C43A H52A 1_555 1_555
H53A C43A 1_555 1_555
C44A C43A 1_555 1_555
H54A C44A 1_555 1_555
H55A C44A 1_555 1_555
C45A C44A 1_555 1_555
H56A C45A 1_555 1_555
C46A C45A 1_555 1_555
H57A C46A 1_555 1_555
H58A C46A 1_555 1_555
H59A C46A 1_555 1_555
C47A C45A 1_555 1_555
H60A C47A 1_555 1_555
H61A C47A 1_555 1_555
H62A C47A 1_555 1_555
N1A C2A 1_555 1_555
H63A N1A 1_555 1_555
N2A C27A 1_555 1_555
H64A N2A 1_555 1_555
N3A C33A 1_555 1_555
H65A N3A 1_555 1_555
O1A C6A 1_555 1_555
O2A C3A 1_555 1_555
O3A C12A 1_555 1_555
O4A C14A 1_555 1_555
O5A C10A 1_555 1_555
O6A C21A 1_555 1_555
O7A C27A 1_555 1_555
O8A C29A 1_555 1_555
O9A C32A 1_555 1_555
O10A C36A 1_555 1_555
O11A C39A 1_555 1_555
O12A C42A 1_555 1_555
C5 O2 1_555 1_555
C6 N1 1_555 1_555
C11 C12 1_555 1_555
C13 O3 1_555 1_555
C15 O4 1_555 1_555
C20 O5 1_555 1_555
C22 O6 1_555 1_555
C28 N2 1_555 1_555
C30 O8 1_555 1_555
C33 C34 1_555 1_555
C35 O9 1_555 1_555
C36 N3 1_555 1_555
C41 O11 1_555 1_555
C43 O12 1_555 1_555
C2A C3A 1_555 1_555
C5A O2A 1_555 1_555
C6A N1A 1_555 1_555
C11A C12A 1_555 1_555
C13A O3A 1_555 1_555
C15A O4A 1_555 1_555
C20A O5A 1_555 1_555
C22A O6A 1_555 1_555
C28A N2A 1_555 1_555
C30A O8A 1_555 1_555
C33A C34A 1_555 1_555
C35A O9A 1_555 1_555
C36A N3A 1_555 1_555
C37A C39A 1_555 1_555
C41A O11A 1_555 1_555
C43A O12A 1_555 1_555

#END
