
#######################################################################
#
#                 Cambridge Crystallographic Data Centre
#                                CCDC 
#
#######################################################################
#
# If this CIF has been generated from an entry in the Cambridge 
# Structural Database, then it will include bibliographic, chemical, 
# crystal, experimental, refinement or atomic coordinate data resulting 
# from the CCDC's data processing and validation procedures.
#
#######################################################################

data_YUSDUM
_chemical_formula_moiety         'C59 H70 N8 O5,2(H2 O1)'
_chemical_name_systematic        
'2-(4-(Phenyldiazenyl)phenyl)ethyl 3,7,12-tris((phenylcarbamoyl)amino)cholan-24-oate dihydrate'
_symmetry_cell_setting           hexagonal
_symmetry_space_group_name_H-M   'P 61'
_symmetry_Int_Tables_number      169
_space_group_name_Hall           'P 61'
loop_
_symmetry_equiv_pos_site_id
_symmetry_equiv_pos_as_xyz
1 x,y,z
2 -y,x-y,1/3+z
3 -x+y,-x,2/3+z
4 -x,-y,1/2+z
5 y,-x+y,5/6+z
6 x-y,x,1/6+z
_cell_length_a                   29.2924(12)
_cell_length_b                   29.2924(12)
_cell_length_c                   11.3062(5)
_cell_angle_alpha                90
_cell_angle_beta                 90
_cell_angle_gamma                120
_cell_volume                     8401.51
_exptl_crystal_colour            orange
_exptl_crystal_description       needle
_chemical_melting_point          176-178deg.C
_cell_formula_units_Z            6
_exptl_crystal_recrystallization_method acetone/water
loop_
_atom_site_label
_atom_site_type_symbol
_atom_site_fract_x
_atom_site_fract_y
_atom_site_fract_z
C1 C 0.86638(8) 0.41011(7) 0.42910(17)
H1 H 0.8387 0.3961 0.4909
H2 H 0.9008 0.4233 0.4690
C2 C 0.86593(8) 0.45626(8) 0.36785(18)
H3 H 0.8951 0.4725 0.3098
H4 H 0.8710 0.4834 0.4269
C3 C 0.81322(8) 0.43636(8) 0.30494(18)
H5 H 0.7854 0.4188 0.3669
C4 C 0.80396(7) 0.39371(7) 0.21545(17)
H6 H 0.8314 0.4089 0.1532
H7 H 0.7692 0.3808 0.1772
C5 C 0.80555(7) 0.34725(7) 0.27500(18)
H8 H 0.7762 0.3322 0.3340
C6 C 0.79448(7) 0.30252(7) 0.18803(17)
H9 H 0.7857 0.2704 0.2339
H10 H 0.7632 0.2949 0.1401
C7 C 0.84004(7) 0.31411(7) 0.10436(17)
H11 H 0.8320 0.2801 0.0662
C8 C 0.89252(7) 0.33497(7) 0.17200(17)
H12 H 0.8894 0.3055 0.2222
C9 C 0.85714(7) 0.36452(7) 0.34561(17)
C10 C 0.90305(7) 0.38107(7) 0.25595(17)
H13 H 0.9041 0.4097 0.2057
C11 C 0.95756(7) 0.40375(8) 0.31441(17)
H14 H 0.9570 0.3771 0.3694
H15 H 0.9647 0.4351 0.3616
C12 C 1.00272(7) 0.41960(7) 0.22522(17)
H16 H 1.0361 0.4316 0.2705
C13 C 0.99286(7) 0.37213(7) 0.14850(17)
C14 C 0.93849(7) 0.35053(7) 0.08790(17)
H17 H 0.9408 0.3796 0.0373
C15 C 0.93594(8) 0.30860(8) 0.00404(18)
H18 H 0.9113 0.3022 -0.0620
H19 H 0.9246 0.2750 0.0462
C16 C 0.99266(8) 0.33225(8) -0.04101(18)
H20 H 0.9949 0.3426 -0.1251
H21 H 1.0047 0.3062 -0.0340
C17 C 1.02754(7) 0.38166(7) 0.03732(17)
H22 H 1.0304 0.4130 -0.0047
C18 C 0.85038(8) 0.31900(8) 0.42516(18)
H23 H 0.8828 0.3302 0.4706
H24 H 0.8432 0.2886 0.3760
H25 H 0.8209 0.3092 0.4796
C19 C 0.99505(8) 0.33078(8) 0.22881(18)
H26 H 1.0272 0.3478 0.2767
H27 H 0.9952 0.3032 0.1799
H28 H 0.9642 0.3150 0.2809
C20 C 1.08385(7) 0.39086(8) 0.05156(18)
H29 H 1.0811 0.3584 0.0878
C21 C 1.11829(8) 0.43747(8) 0.13257(19)
H30 H 1.1550 0.4456 0.1272
H31 H 1.1060 0.4284 0.2144
H32 H 1.1159 0.4683 0.1079
C22 C 1.10812(8) 0.39757(8) -0.07205(18)
H33 H 1.0838 0.3669 -0.1210
H34 H 1.1107 0.4294 -0.1089
C23 C 1.16279(8) 0.40258(8) -0.0753(2)
H35 H 1.1737 0.4043 -0.1588
H36 H 1.1885 0.4360 -0.0367
C24 C 1.16470(8) 0.35792(8) -0.0154(2)
C25 C 1.12224(9) 0.26435(9) 0.0003(2)
H37 H 1.0853 0.2351 0.0042
H38 H 1.1367 0.2719 0.0817
C26 C 1.15444(10) 0.24836(9) -0.0764(2)
H39 H 1.1370 0.2360 -0.1541
H40 H 1.1898 0.2793 -0.0899
C27 C 1.15993(9) 0.20488(9) -0.0174(2)
C28 C 1.19178(9) 0.21671(10) 0.0819(2)
H41 H 1.2106 0.2520 0.1099
C29 C 1.19660(9) 0.17821(9) 0.1406(2)
H42 H 1.2184 0.1868 0.2087
C30 C 1.16936(9) 0.12669(9) 0.0998(2)
C31 C 1.13753(10) 0.11441(10) 0.0010(2)
H43 H 1.1187 0.0791 -0.0266
C32 C 1.13289(10) 0.15342(10) -0.0582(3)
H44 H 1.1112 0.1448 -0.1265
C33 C 1.20431(10) 0.05571(10) 0.3011(2)
C34 C 1.24306(10) 0.07118(11) 0.3869(3)
H45 H 1.2664 0.1076 0.4011
C35 C 1.24795(11) 0.03388(11) 0.4520(3)
H46 H 1.2745 0.0446 0.5109
C36 C 1.21396(12) -0.01906(12) 0.4306(3)
H47 H 1.2170 -0.0449 0.4750
C37 C 1.17567(14) -0.03421(12) 0.3449(3)
H48 H 1.1525 -0.0707 0.3305
C38 C 1.17037(12) 0.00298(11) 0.2790(3)
H49 H 1.1439 -0.0077 0.2200
C39 C 0.83475(7) 0.51179(7) 0.16752(17)
C40 C 0.80804(7) 0.33534(7) -0.07568(17)
C41 C 1.03520(7) 0.51396(7) 0.19588(17)
C42 C 0.83612(7) 0.58026(8) 0.03654(18)
C43 C 0.80724(8) 0.57860(9) -0.06227(19)
H50 H 0.7731 0.5491 -0.0742
C44 C 0.82745(9) 0.61918(9) -0.1434(2)
H51 H 0.8069 0.6178 -0.2098
C45 C 0.87741(9) 0.66169(9) -0.1284(2)
H52 H 0.8916 0.6896 -0.1843
C46 C 0.90681(9) 0.66331(9) -0.0309(2)
H53 H 0.9414 0.6924 -0.0209
C47 C 0.88649(8) 0.62321(8) 0.0521(2)
H54 H 0.9068 0.6250 0.1193
C48 C 0.77887(7) 0.37231(8) -0.24004(17)
C49 C 0.73702(9) 0.32609(8) -0.2828(2)
H55 H 0.7283 0.2933 -0.2476
C50 C 0.70783(9) 0.32796(9) -0.3776(2)
H56 H 0.6794 0.2960 -0.4072
C51 C 0.71902(8) 0.37474(9) -0.42938(19)
H57 H 0.6985 0.3755 -0.4937
C52 C 0.76081(8) 0.42088(9) -0.38588(19)
H58 H 0.7691 0.4537 -0.4207
C53 C 0.79059(8) 0.41977(8) -0.29229(18)
H59 H 0.8193 0.4518 -0.2635
C54 C 1.04240(8) 0.60182(7) 0.16006(17)
C55 C 1.01411(8) 0.62450(8) 0.11605(18)
H60 H 0.9801 0.6029 0.0832
C56 C 1.03559(8) 0.67871(8) 0.12012(19)
H61 H 1.0163 0.6942 0.0895
C57 C 1.08510(9) 0.71051(8) 0.16862(19)
H62 H 1.1000 0.7477 0.1702
C58 C 1.11240(8) 0.68758(8) 0.21449(19)
H63 H 1.1459 0.7092 0.2497
C59 C 1.09175(8) 0.63356(8) 0.21016(18)
H64 H 1.1112 0.6183 0.2412
N1 N 0.80564(6) 0.47817(6) 0.25468(15)
H65 H 0.7744(7) 0.4767(8) 0.2690(19)
N2 N 0.81269(7) 0.53983(7) 0.12270(15)
H66 H 0.7797(7) 0.5289(8) 0.146(2)
N3 N 0.84509(6) 0.35075(6) 0.00969(14)
H67 H 0.8664(7) 0.3838(6) 0.0160(19)
N4 N 0.81086(6) 0.37528(6) -0.14354(15)
H68 H 0.8359(7) 0.4053(7) -0.126(2)
N5 N 1.00850(6) 0.46399(6) 0.15306(14)
H69 H 0.9826(7) 0.4564(8) 0.1030(18)
N6 N 1.01990(6) 0.54681(6) 0.14565(15)
H70 H 0.9902(7) 0.5317(8) 0.1020(18)
N7 N 1.17072(8) 0.08365(8) 0.1568(2)
N8 N 1.20321(8) 0.09795(8) 0.2408(2)
O1 O 1.19787(6) 0.36229(6) 0.05380(14)
O2 O 1.12394(6) 0.31075(6) -0.04922(15)
O3 O 0.87766(5) 0.51821(5) 0.13191(13)
O4 O 0.77436(5) 0.28867(5) -0.09071(12)
O5 O 1.07016(5) 0.52831(5) 0.27186(12)
O6 O 0.92034(5) 0.46942(6) 1.01098(13)
H71 H 0.9060(8) 0.4876(8) 1.0379(19)
H72 H 0.9238(9) 0.4750(9) 0.9402(15)
O7 O 0.0288(4) 0.0275(4) 0.6207(10)
O8? O -0.0293(4) 0.0140(4) 0.6283(13)
O9? O 0.0643(4) 0.0798(4) 0.6604(15)
O10? O 0.0419(4) -0.0042(3) 0.6035(9)
loop_
_geom_bond_atom_site_label_1
_geom_bond_atom_site_label_2
_geom_bond_site_symmetry_1
_geom_bond_site_symmetry_2
C1 H1 1_555 1_555
H2 C1 1_555 1_555
C2 C1 1_555 1_555
H3 C2 1_555 1_555
H4 C2 1_555 1_555
C3 C2 1_555 1_555
H5 C3 1_555 1_555
C4 C3 1_555 1_555
H6 C4 1_555 1_555
H7 C4 1_555 1_555
C5 C4 1_555 1_555
H8 C5 1_555 1_555
C6 C5 1_555 1_555
H9 C6 1_555 1_555
H10 C6 1_555 1_555
C7 C6 1_555 1_555
H11 C7 1_555 1_555
C8 C7 1_555 1_555
H12 C8 1_555 1_555
C9 C1 1_555 1_555
C10 C8 1_555 1_555
H13 C10 1_555 1_555
C11 C10 1_555 1_555
H14 C11 1_555 1_555
H15 C11 1_555 1_555
C12 C11 1_555 1_555
H16 C12 1_555 1_555
C13 C12 1_555 1_555
C14 C8 1_555 1_555
H17 C14 1_555 1_555
C15 C14 1_555 1_555
H18 C15 1_555 1_555
H19 C15 1_555 1_555
C16 C15 1_555 1_555
H20 C16 1_555 1_555
H21 C16 1_555 1_555
C17 C13 1_555 1_555
H22 C17 1_555 1_555
C18 C9 1_555 1_555
H23 C18 1_555 1_555
H24 C18 1_555 1_555
H25 C18 1_555 1_555
C19 C13 1_555 1_555
H26 C19 1_555 1_555
H27 C19 1_555 1_555
H28 C19 1_555 1_555
C20 C17 1_555 1_555
H29 C20 1_555 1_555
C21 C20 1_555 1_555
H30 C21 1_555 1_555
H31 C21 1_555 1_555
H32 C21 1_555 1_555
C22 C20 1_555 1_555
H33 C22 1_555 1_555
H34 C22 1_555 1_555
C23 C22 1_555 1_555
H35 C23 1_555 1_555
H36 C23 1_555 1_555
C24 C23 1_555 1_555
C25 H37 1_555 1_555
H38 C25 1_555 1_555
C26 C25 1_555 1_555
H39 C26 1_555 1_555
H40 C26 1_555 1_555
C27 C26 1_555 1_555
C28 C27 1_555 1_555
H41 C28 1_555 1_555
C29 C28 1_555 1_555
H42 C29 1_555 1_555
C30 C29 1_555 1_555
C31 C30 1_555 1_555
H43 C31 1_555 1_555
C32 C27 1_555 1_555
H44 C32 1_555 1_555
C33 C34 1_555 1_555
C34 H45 1_555 1_555
C35 C34 1_555 1_555
H46 C35 1_555 1_555
C36 C35 1_555 1_555
H47 C36 1_555 1_555
C37 C36 1_555 1_555
H48 C37 1_555 1_555
C38 C33 1_555 1_555
H49 C38 1_555 1_555
C39 N1 1_555 1_555
C40 N3 1_555 1_555
C41 N5 1_555 1_555
C42 C43 1_555 1_555
C43 H50 1_555 1_555
C44 C43 1_555 1_555
H51 C44 1_555 1_555
C45 C44 1_555 1_555
H52 C45 1_555 1_555
C46 C45 1_555 1_555
H53 C46 1_555 1_555
C47 C42 1_555 1_555
H54 C47 1_555 1_555
C48 C49 1_555 1_555
C49 H55 1_555 1_555
C50 C49 1_555 1_555
H56 C50 1_555 1_555
C51 C50 1_555 1_555
H57 C51 1_555 1_555
C52 C51 1_555 1_555
H58 C52 1_555 1_555
C53 C48 1_555 1_555
H59 C53 1_555 1_555
C54 C55 1_555 1_555
C55 H60 1_555 1_555
C56 C55 1_555 1_555
H61 C56 1_555 1_555
C57 C56 1_555 1_555
H62 C57 1_555 1_555
C58 C57 1_555 1_555
H63 C58 1_555 1_555
C59 C54 1_555 1_555
H64 C59 1_555 1_555
N1 C3 1_555 1_555
H65 N1 1_555 1_555
N2 C39 1_555 1_555
H66 N2 1_555 1_555
N3 C7 1_555 1_555
H67 N3 1_555 1_555
N4 C40 1_555 1_555
H68 N4 1_555 1_555
N5 C12 1_555 1_555
H69 N5 1_555 1_555
N6 C41 1_555 1_555
H70 N6 1_555 1_555
N7 C30 1_555 1_555
N8 C33 1_555 1_555
O1 C24 1_555 1_555
O2 C24 1_555 1_555
O3 C39 1_555 1_555
O4 C40 1_555 1_555
O5 C41 1_555 1_555
O6 H71 1_555 1_555
H72 O6 1_555 1_555
C5 C9 1_555 1_555
C9 C10 1_555 1_555
C13 C14 1_555 1_555
C16 C17 1_555 1_555
C25 O2 1_555 1_555
C31 C32 1_555 1_555
C37 C38 1_555 1_555
C42 N2 1_555 1_555
C46 C47 1_555 1_555
C48 N4 1_555 1_555
C52 C53 1_555 1_555
C54 N6 1_555 1_555
C58 C59 1_555 1_555
N7 N8 1_555 1_555

#END
