
#######################################################################
#
#                 Cambridge Crystallographic Data Centre
#                                CCDC 
#
#######################################################################
#
# If this CIF has been generated from an entry in the Cambridge 
# Structural Database, then it will include bibliographic, chemical, 
# crystal, experimental, refinement or atomic coordinate data resulting 
# from the CCDC's data processing and validation procedures.
#
#######################################################################

data_YUSDOG
_chemical_formula_moiety         'C63 H70 N6 O5,2(H2 O1)'
_chemical_name_systematic        
'2-(Pyren-1-yl)ethyl 3,7,12-tris((phenylcarbamoyl)amino)cholan-24-oate dihydrate'
_symmetry_cell_setting           hexagonal
_symmetry_space_group_name_H-M   'P 61'
_symmetry_Int_Tables_number      169
_space_group_name_Hall           'P 61'
loop_
_symmetry_equiv_pos_site_id
_symmetry_equiv_pos_as_xyz
1 x,y,z
2 -y,x-y,1/3+z
3 -x+y,-x,2/3+z
4 -x,-y,1/2+z
5 y,-x+y,5/6+z
6 x-y,x,1/6+z
_cell_length_a                   29.315(3)
_cell_length_b                   29.315(3)
_cell_length_c                   11.5430(11)
_cell_angle_alpha                90
_cell_angle_beta                 90
_cell_angle_gamma                120
_cell_volume                     8590.71
_exptl_crystal_colour            colorless
_exptl_crystal_description       needle
_chemical_melting_point          186-188deg.C
_cell_formula_units_Z            6
_exptl_crystal_recrystallization_method 'methyl acetate/water'
loop_
_atom_site_label
_atom_site_type_symbol
_atom_site_fract_x
_atom_site_fract_y
_atom_site_fract_z
C1 C 0.86613(11) 0.46010(12) 0.6112(3)
H1 H 0.8388 0.4470 0.5500
H2 H 0.9007 0.4818 0.5730
C2 C 0.86562(11) 0.41301(11) 0.6684(3)
H3 H 0.8946 0.4253 0.7256
H4 H 0.8710 0.3917 0.6091
C3 C 0.81278(11) 0.37953(11) 0.7287(3)
H5 H 0.7851 0.3691 0.6677
C4 C 0.80287(10) 0.41203(11) 0.8169(3)
H6 H 0.8298 0.4236 0.8787
H7 H 0.7679 0.3898 0.8530
C5 C 0.80466(10) 0.46058(11) 0.7617(3)
H8 H 0.7756 0.4468 0.7033
C6 C 0.79287(10) 0.49296(11) 0.8483(3)
H9 H 0.7612 0.4687 0.8937
H10 H 0.7844 0.5168 0.8046
C7 C 0.83793(9) 0.52599(10) 0.9327(3)
H11 H 0.8296 0.5514 0.9718
C8 C 0.89083(10) 0.55855(10) 0.8681(3)
H12 H 0.8879 0.5856 0.8210
C9 C 0.85646(11) 0.49556(11) 0.6935(3)
C10 C 0.90186(10) 0.52454(10) 0.7832(3)
H13 H 0.9031 0.4966 0.8305
C11 C 0.95663(10) 0.55727(11) 0.7269(3)
H14 H 0.9560 0.5837 0.6746
H15 H 0.9640 0.5337 0.6792
C12 C 1.00162(10) 0.58590(11) 0.8158(3)
H16 H 1.0351 0.6082 0.7724
C13 C 0.99100(10) 0.62202(11) 0.8939(3)
C14 C 0.93632(10) 0.58798(10) 0.9523(3)
H17 H 0.9388 0.5606 0.9994
C15 C 0.93310(11) 0.62567(12) 1.0376(3)
H18 H 0.9085 0.6063 1.1016
H19 H 0.9214 0.6481 0.9986
C16 C 0.99017(12) 0.65898(13) 1.0827(3)
H20 H 0.9925 0.6499 1.1643
H21 H 1.0018 0.6970 1.0784
C17 C 1.02529(11) 0.64591(11) 1.0037(3)
H22 H 1.0282 0.6170 1.0425
C18 C 0.85002(12) 0.53495(12) 0.6178(3)
H23 H 0.8435 0.5583 0.6673
H24 H 0.8202 0.5158 0.5650
H25 H 0.8822 0.5560 0.5727
C19 C 0.99283(11) 0.66629(11) 0.8189(3)
H26 H 0.9633 0.6513 0.7641
H27 H 1.0261 0.6839 0.7760
H28 H 0.9902 0.6919 0.8688
C20 C 1.08206(11) 0.69326(12) 0.9911(3)
H29 H 1.0797 0.7231 0.9555
C21 C 1.11595(12) 0.68065(13) 0.9131(4)
H30 H 1.1157 0.6491 0.9418
H31 H 1.1521 0.7104 0.9130
H32 H 1.1019 0.6744 0.8340
C22 C 1.10591(13) 0.71046(15) 1.1138(4)
H33 H 1.0817 0.7172 1.1610
H34 H 1.1078 0.6808 1.1502
C23 C 1.16048(14) 0.75918(16) 1.1179(5)
H35 H 1.1695 0.7703 1.1996
H36 H 1.1864 0.7498 1.0884
C24 C 1.1654(2) 0.80399(18) 1.0504(5)
C25 C 0.83484(10) 0.32692(11) 0.8648(3)
C26 C 0.80606(9) 0.47166(10) 1.1066(3)
C27 C 1.03483(9) 0.52426(10) 0.8412(3)
C28 C 0.83736(11) 0.26211(10) 0.9973(3)
C29 C 0.80691(13) 0.23341(13) 1.0912(4)
H37 H 0.7716 0.2262 1.0983
C30 C 0.82817(16) 0.21519(17) 1.1752(4)
H38 H 0.8068 0.1942 1.2374
C31 C 0.87918(15) 0.22730(16) 1.1684(4)
H39 H 0.8940 0.2160 1.2272
C32 C 0.90981(15) 0.25655(16) 1.0745(4)
H40 H 0.9455 0.2648 1.0690
C33 C 0.88867(13) 0.27347(13) 0.9898(4)
H41 H 0.9097 0.2931 0.9258
C34 C 0.77834(9) 0.40628(10) 1.2693(3)
C35 C 0.73475(12) 0.40886(13) 1.3088(3)
H42 H 0.7241 0.4309 1.2712
C36 C 0.70703(12) 0.37872(13) 1.4041(3)
H43 H 0.6774 0.3806 1.4315
C37 C 0.72133(11) 0.34615(11) 1.4600(3)
H44 H 0.7018 0.3257 1.5248
C38 C 0.76440(12) 0.34374(12) 1.4205(3)
H45 H 0.7747 0.3215 1.4583
C39 C 0.79281(10) 0.37356(10) 1.3260(3)
H46 H 0.8225 0.3716 1.2997
C40 C 1.04491(10) 0.44563(11) 0.8776(3)
C41 C 1.01679(12) 0.39415(12) 0.9200(3)
H47 H 0.9829 0.3815 0.9532
C42 C 1.03820(14) 0.36133(14) 0.9136(4)
H48 H 1.0192 0.3265 0.9432
C43 C 1.08735(14) 0.37965(16) 0.8641(4)
H49 H 1.1022 0.3574 0.8596
C44 C 1.11444(13) 0.42989(15) 0.8215(3)
H50 H 1.1478 0.4419 0.7861
C45 C 1.09420(11) 0.46385(14) 0.8291(3)
H51 H 1.1139 0.4990 0.8013
C46 C 1.1291(5) 0.8637(4) 1.0146(16)
H52 H 1.1277 0.8558 0.9309
H53 H 1.0969 0.8647 1.0363
C47 C 1.1788(5) 0.9161(6) 1.0439(18)
H54 H 1.2113 0.9149 1.0273
H55 H 1.1790 0.9263 1.1257
C48 C 1.1716(8) 0.9542(7) 0.9569(18)
C49 C 1.1819(7) 0.9634(7) 0.845(2)
C50 C 1.1888(12) 0.9269(10) 0.781(2)
H56 H 1.1905 0.8993 0.8204
C51 C 1.1933(11) 0.9298(11) 0.661(3)
H57 H 1.1907 0.9011 0.6178
C52 C 1.2017(13) 0.9759(13) 0.604(2)
C53 C 1.2169(10) 0.9784(14) 0.485(2)
H58 H 1.2233 0.9528 0.4502
C54 C 1.2215(15) 1.0221(15) 0.426(3)
H59 H 1.2347 1.0300 0.3493
C55 C 1.2054(19) 1.0544(15) 0.487(3)
H60 H 1.2030 1.0800 0.4415
C56 C 1.1922(19) 1.0535(14) 0.608(2)
C57 C 1.181(2) 1.0895(15) 0.661(3)
H61 H 1.1808 1.1178 0.6209
C58 C 1.1688(17) 1.0796(11) 0.778(3)
H62 H 1.1595 1.1016 0.8203
C59 C 1.1703(15) 1.0367(10) 0.837(2)
C60 C 1.1597(15) 1.0261(9) 0.951(2)
H63 H 1.1503 1.0480 0.9933
C61 C 1.1612(10) 0.9865(8) 1.010(2)
H64 H 1.1546 0.9829 1.0913
C62 C 1.1902(12) 1.0083(9) 0.791(2)
C63 C 1.1946(17) 1.0119(12) 0.671(2)
N1 N 0.80609(9) 0.33016(9) 0.7779(2)
H65 H 0.7760(10) 0.3027(10) 0.759(4)
N2 N 0.81362(9) 0.27710(9) 0.9099(2)
H66 H 0.7811(9) 0.2514(11) 0.904(4)
N3 N 0.84259(8) 0.49327(8) 1.0234(2)
H67 H 0.8660(10) 0.4841(12) 1.013(3)
N4 N 0.80911(8) 0.43426(9) 1.1727(2)
H68 H 0.8374(10) 0.4330(13) 1.158(3)
N5 N 1.00778(8) 0.54697(9) 0.8836(2)
H69 H 0.9838(11) 0.5281(12) 0.933(3)
N6 N 1.02177(8) 0.47733(9) 0.8938(2)
H70 H 0.9908(9) 0.4620(12) 0.927(3)
O1 O 1.19276(14) 0.82333(15) 0.9662(4)
O2 O 1.1347(3) 0.8216(2) 1.0893(6)
O3 O 0.87683(7) 0.36402(7) 0.9000(2)
O4 O 0.77208(7) 0.48446(7) 1.12280(19)
O5 O 1.06836(7) 0.54447(8) 0.76418(19)
O6 O 0.92093(7) 0.45338(8) 0.02861(19)
H71 H 0.9010(11) 0.4220(9) 0.000(3)
H72 H 0.9275(13) 0.4548(13) 0.1012(18)
O7 O 0.0670(12) 0.0324(16) 0.902(6)
loop_
_geom_bond_atom_site_label_1
_geom_bond_atom_site_label_2
_geom_bond_site_symmetry_1
_geom_bond_site_symmetry_2
C1 H1 1_555 1_555
H2 C1 1_555 1_555
C2 C1 1_555 1_555
H3 C2 1_555 1_555
H4 C2 1_555 1_555
C3 C2 1_555 1_555
H5 C3 1_555 1_555
C4 C3 1_555 1_555
H6 C4 1_555 1_555
H7 C4 1_555 1_555
C5 C4 1_555 1_555
H8 C5 1_555 1_555
C6 C5 1_555 1_555
H9 C6 1_555 1_555
H10 C6 1_555 1_555
C7 C6 1_555 1_555
H11 C7 1_555 1_555
C8 C7 1_555 1_555
H12 C8 1_555 1_555
C9 C1 1_555 1_555
C10 C8 1_555 1_555
H13 C10 1_555 1_555
C11 C10 1_555 1_555
H14 C11 1_555 1_555
H15 C11 1_555 1_555
C12 C11 1_555 1_555
H16 C12 1_555 1_555
C13 C12 1_555 1_555
C14 C8 1_555 1_555
H17 C14 1_555 1_555
C15 C14 1_555 1_555
H18 C15 1_555 1_555
H19 C15 1_555 1_555
C16 C15 1_555 1_555
H20 C16 1_555 1_555
H21 C16 1_555 1_555
C17 C13 1_555 1_555
H22 C17 1_555 1_555
C18 C9 1_555 1_555
H23 C18 1_555 1_555
H24 C18 1_555 1_555
H25 C18 1_555 1_555
C19 C13 1_555 1_555
H26 C19 1_555 1_555
H27 C19 1_555 1_555
H28 C19 1_555 1_555
C20 C17 1_555 1_555
H29 C20 1_555 1_555
C21 C20 1_555 1_555
H30 C21 1_555 1_555
H31 C21 1_555 1_555
H32 C21 1_555 1_555
C22 C20 1_555 1_555
H33 C22 1_555 1_555
H34 C22 1_555 1_555
C23 C22 1_555 1_555
H35 C23 1_555 1_555
H36 C23 1_555 1_555
C24 C23 1_555 1_555
C25 N1 1_555 1_555
C26 N3 1_555 1_555
C27 N5 1_555 1_555
C28 C29 1_555 1_555
C29 H37 1_555 1_555
C30 C29 1_555 1_555
H38 C30 1_555 1_555
C31 C30 1_555 1_555
H39 C31 1_555 1_555
C32 C31 1_555 1_555
H40 C32 1_555 1_555
C33 C28 1_555 1_555
H41 C33 1_555 1_555
C34 C35 1_555 1_555
C35 H42 1_555 1_555
C36 C35 1_555 1_555
H43 C36 1_555 1_555
C37 C36 1_555 1_555
H44 C37 1_555 1_555
C38 C37 1_555 1_555
H45 C38 1_555 1_555
C39 C34 1_555 1_555
H46 C39 1_555 1_555
C40 C41 1_555 1_555
C41 H47 1_555 1_555
C42 C41 1_555 1_555
H48 C42 1_555 1_555
C43 C42 1_555 1_555
H49 C43 1_555 1_555
C44 C43 1_555 1_555
H50 C44 1_555 1_555
C45 C40 1_555 1_555
H51 C45 1_555 1_555
C46 H52 1_555 1_555
H53 C46 1_555 1_555
C47 C46 1_555 1_555
H54 C47 1_555 1_555
H55 C47 1_555 1_555
C48 C47 1_555 1_555
C49 C48 1_555 1_555
C50 C49 1_555 1_555
H56 C50 1_555 1_555
C51 C50 1_555 1_555
H57 C51 1_555 1_555
C52 C51 1_555 1_555
C53 C52 1_555 1_555
H58 C53 1_555 1_555
C54 C53 1_555 1_555
H59 C54 1_555 1_555
C55 C54 1_555 1_555
H60 C55 1_555 1_555
C56 C55 1_555 1_555
C57 C56 1_555 1_555
H61 C57 1_555 1_555
C58 C57 1_555 1_555
H62 C58 1_555 1_555
C59 C58 1_555 1_555
C60 C59 1_555 1_555
H63 C60 1_555 1_555
C61 C48 1_555 1_555
H64 C61 1_555 1_555
C62 C49 1_555 1_555
C63 C52 1_555 1_555
N1 C3 1_555 1_555
H65 N1 1_555 1_555
N2 C25 1_555 1_555
H66 N2 1_555 1_555
N3 C7 1_555 1_555
H67 N3 1_555 1_555
N4 C26 1_555 1_555
H68 N4 1_555 1_555
N5 C12 1_555 1_555
H69 N5 1_555 1_555
N6 C27 1_555 1_555
H70 N6 1_555 1_555
O1 C24 1_555 1_555
O2 C24 1_555 1_555
O3 C25 1_555 1_555
O4 C26 1_555 1_555
O5 C27 1_555 1_555
O6 H71 1_555 1_555
H72 O6 1_555 1_555
C5 C9 1_555 1_555
C9 C10 1_555 1_555
C13 C14 1_555 1_555
C16 C17 1_555 1_555
C28 N2 1_555 1_555
C32 C33 1_555 1_555
C34 N4 1_555 1_555
C38 C39 1_555 1_555
C40 N6 1_555 1_555
C44 C45 1_555 1_555
C46 O2 1_555 1_555
C56 C63 1_555 1_555
C59 C62 1_555 1_555
C60 C61 1_555 1_555
C62 C63 1_555 1_555

#END
