
#######################################################################
#
#                 Cambridge Crystallographic Data Centre
#                                CCDC 
#
#######################################################################
#
# If this CIF has been generated from an entry in the Cambridge 
# Structural Database, then it will include bibliographic, chemical, 
# crystal, experimental, refinement or atomic coordinate data resulting 
# from the CCDC's data processing and validation procedures.
#
#######################################################################

data_YUSKUT
_chemical_formula_moiety         'C66 H13 F30 N6 O1 P1,5(C6 H6),0.5(C7 H16)'
_chemical_name_systematic        
'(MESO-HEXAKIS(PENTAFLUOROPHENYL)-(28)-HEXAPHYRIN(1.1.1.1.1.1))PHOSPHINE oxide benzene n-heptane solvate'
_symmetry_cell_setting           monoclinic
_symmetry_space_group_name_H-M   'P 21/c'
_symmetry_Int_Tables_number      14
_space_group_name_Hall           '-P 2ybc'
loop_
_symmetry_equiv_pos_site_id
_symmetry_equiv_pos_as_xyz
1 x,y,z
2 -x,1/2+y,1/2-z
3 -x,-y,-z
4 x,1/2-y,1/2+z
_cell_length_a                   14.6459(18)
_cell_length_b                   40.056(5)
_cell_length_c                   14.0843(18)
_cell_angle_alpha                90
_cell_angle_beta                 90.871(2)
_cell_angle_gamma                90
_cell_volume                     8261.69
_exptl_crystal_colour            violet
_exptl_crystal_description       prism
_cell_formula_units_Z            4
loop_
_atom_site_label
_atom_site_type_symbol
_atom_site_fract_x
_atom_site_fract_y
_atom_site_fract_z
C67 C 0.6758(2) 0.28326(10) 0.6467(3)
H12 H 0.7337 0.2867 0.6187
C68 C 0.6369(3) 0.30827(8) 0.7012(3)
H13 H 0.6682 0.3288 0.7106
C69 C 0.5522(3) 0.30323(9) 0.7420(3)
H14 H 0.5256 0.3203 0.7793
C70 C 0.5064(2) 0.27318(11) 0.7283(3)
H15 H 0.4485 0.2697 0.7562
C71 C 0.5453(3) 0.24817(9) 0.6738(3)
H16 H 0.5140 0.2276 0.6644
C72 C 0.6300(3) 0.25321(9) 0.6329(3)
H17 H 0.6566 0.2361 0.5957
C73 C 0.6295(3) 0.16704(8) 0.5316(3)
H18 H 0.6645 0.1782 0.4849
C74 C 0.67321(18) 0.14870(9) 0.6027(3)
H19 H 0.7380 0.1473 0.6046
C75 C 0.6221(3) 0.13238(8) 0.6709(2)
H20 H 0.6520 0.1198 0.7195
C76 C 0.5274(3) 0.13442(9) 0.6680(3)
H21 H 0.4925 0.1233 0.7147
C77 C 0.48372(18) 0.15276(10) 0.5969(3)
H22 H 0.4190 0.1541 0.5950
C78 C 0.5348(3) 0.16907(9) 0.5287(3)
H23 H 0.5050 0.1816 0.4801
C79 C 0.72929(18) 0.01324(6) 0.89956(18)
C80 C 0.7366(2) 0.01791(8) 0.99717(18)
C81 C 0.6860(3) 0.04275(10) 1.04082(19)
C82 C 0.6280(3) 0.06293(9) 0.9869(3)
C83 C 0.6207(3) 0.05826(9) 0.8892(3)
C84 C 0.6713(2) 0.03342(9) 0.84559(18)
C85 C 0.23207(15) 0.17756(5) 0.56345(18)
H24 H 0.2636 0.1581 0.5844
C86 C 0.27687(12) 0.20814(6) 0.56213(18)
H25 H 0.3390 0.2096 0.5821
C87 C 0.23079(15) 0.23660(5) 0.53154(18)
H26 H 0.2614 0.2575 0.5306
C88 C 0.13991(15) 0.23448(5) 0.50226(18)
H27 H 0.1084 0.2539 0.4814
C89 C 0.09511(12) 0.20390(6) 0.50358(18)
H28 H 0.0330 0.2024 0.4836
C90 C 0.14119(16) 0.17544(5) 0.53418(18)
H29 H 0.1106 0.1545 0.5351
C91 C 0.3394(12) 0.0649(4) 0.7370(12)
H30 H 0.3924 0.0523 0.7231
C92 C 0.2829(9) 0.0755(3) 0.6650(10)
H31 H 0.2969 0.0698 0.6013
C93 C 0.2084(6) 0.0936(3) 0.6824(10)
H32 H 0.1692 0.1006 0.6319
C94 C 0.1901(8) 0.1018(2) 0.7721(11)
H33 H 0.1385 0.1154 0.7842
C95 C 0.2420(12) 0.0913(4) 0.8455(9)
H34 H 0.2259 0.0967 0.9089
C96 C 0.3200(8) 0.0725(4) 0.8275(10)
H35 H 0.3586 0.0651 0.8781
C1 C -0.0656(2) 0.14266(8) 0.2666(2)
C2 C -0.1095(2) 0.15660(8) 0.3423(2)
H1 H -0.0949 0.1773 0.3715
C3 C -0.1796(2) 0.13493(8) 0.3691(2)
H2 H -0.2221 0.1388 0.4182
C4 C -0.1764(2) 0.10702(8) 0.3119(2)
C5 C -0.2257(2) 0.07627(8) 0.3183(2)
C6 C -0.1950(2) 0.04801(8) 0.2758(2)
C7 C -0.2175(2) 0.01339(8) 0.2857(2)
H3 H -0.2707 0.0049 0.3148
C8 C -0.1502(2) -0.00525(8) 0.2468(2)
H4 H -0.1485 -0.0289 0.2444
C9 C -0.0819(2) 0.01672(8) 0.2097(2)
C10 C 0.0060(2) 0.01112(8) 0.1814(2)
C11 C 0.0627(2) 0.03944(8) 0.1638(2)
C12 C 0.0348(2) 0.07319(8) 0.1529(2)
C13 C 0.1124(2) 0.09208(8) 0.1336(2)
H5 H 0.1137 0.1152 0.1184
C14 C 0.1874(2) 0.07090(8) 0.1408(2)
C15 C 0.2819(2) 0.07891(8) 0.1560(2)
C16 C 0.3262(2) 0.10733(9) 0.1265(3)
C17 C 0.4187(3) 0.11674(11) 0.1561(3)
H6 H 0.4547 0.1067 0.2050
C18 C 0.4428(3) 0.14228(11) 0.1009(3)
H7 H 0.4996 0.1537 0.1020
C19 C 0.3649(2) 0.14904(9) 0.0389(3)
C20 C 0.3670(2) 0.17191(9) -0.0393(3)
C21 C 0.2907(2) 0.18153(8) -0.0903(3)
C22 C 0.2839(3) 0.19842(9) -0.1803(3)
H8 H 0.3338 0.2061 -0.2166
C23 C 0.1949(3) 0.20147(9) -0.2045(3)
H9 H 0.1714 0.2110 -0.2615
C24 C 0.1416(2) 0.18764(8) -0.1283(2)
C25 C 0.0484(2) 0.18743(8) -0.1183(2)
C26 C 0.0048(2) 0.17796(8) -0.0331(2)
C27 C -0.0941(2) 0.17518(8) -0.0199(2)
H10 H -0.1406 0.1798 -0.0657
C28 C -0.1058(2) 0.16477(8) 0.0693(2)
H11 H -0.1621 0.1598 0.0988
C29 C -0.0141(2) 0.16266(8) 0.1126(2)
C30 C 0.0046(2) 0.15700(8) 0.2069(2)
C31 C -0.3056(2) 0.07551(8) 0.3819(2)
C32 C -0.3861(2) 0.09175(9) 0.3566(2)
C33 C -0.4611(2) 0.09167(9) 0.4138(3)
C34 C -0.4570(2) 0.07548(9) 0.4997(3)
C35 C -0.3770(3) 0.06002(9) 0.5286(2)
C36 C -0.3032(2) 0.05985(8) 0.4695(2)
C37 C 0.0410(2) -0.02357(8) 0.1787(2)
C38 C 0.0003(2) -0.04779(8) 0.1209(2)
C39 C 0.0286(2) -0.08068(8) 0.1205(2)
C40 C 0.1008(2) -0.09022(8) 0.1779(3)
C41 C 0.1426(2) -0.06710(9) 0.2369(2)
C42 C 0.1129(2) -0.03452(8) 0.2368(2)
C43 C 0.3372(2) 0.05514(9) 0.2157(3)
C44 C 0.4193(3) 0.04222(10) 0.1842(3)
C45 C 0.4771(3) 0.02429(11) 0.2436(3)
C46 C 0.4533(3) 0.01828(10) 0.3352(3)
C47 C 0.3710(3) 0.02929(9) 0.3680(3)
C48 C 0.3138(2) 0.04749(9) 0.3082(3)
C49 C 0.4588(3) 0.18405(9) -0.0675(3)
C50 C 0.4827(3) 0.21748(10) -0.0665(4)
C51 C 0.5704(3) 0.22853(11) -0.0842(4)
C52 C 0.6368(3) 0.20602(12) -0.1059(3)
C53 C 0.6165(3) 0.17280(11) -0.1078(3)
C54 C 0.5290(3) 0.16211(10) -0.0895(3)
C55 C -0.0094(2) 0.19857(9) -0.2012(2)
C56 C -0.0488(3) 0.22986(10) -0.2045(3)
C57 C -0.0990(4) 0.24086(11) -0.2816(3)
C58 C -0.1137(3) 0.21949(12) -0.3570(3)
C59 C -0.0787(3) 0.18817(12) -0.3556(3)
C60 C -0.0254(3) 0.17807(10) -0.2786(3)
C61 C 0.0951(2) 0.16486(8) 0.2495(2)
C62 C 0.1411(2) 0.19435(8) 0.2299(2)
C63 C 0.2294(2) 0.20007(9) 0.2618(3)
C64 C 0.2735(2) 0.17673(10) 0.3173(3)
C65 C 0.2293(2) 0.14784(9) 0.3417(2)
C66 C 0.1410(2) 0.14248(8) 0.3090(2)
N1 N -0.10517(18) 0.11167(6) 0.24788(18)
N2 N -0.11511(18) 0.04928(6) 0.22185(19)
N3 N 0.29382(19) 0.12922(7) 0.0578(2)
N4 N 0.05124(18) 0.17036(7) 0.04624(19)
F1 F -0.39237(14) 0.10766(6) 0.27315(15)
F2 F -0.53896(14) 0.10656(6) 0.38583(17)
F3 F -0.53035(15) 0.07415(6) 0.55447(16)
F4 F -0.37174(16) 0.04544(6) 0.61438(15)
F5 F -0.22748(14) 0.04402(5) 0.49901(15)
F6 F -0.06957(13) -0.03925(5) 0.06292(14)
F7 F -0.01404(14) -0.10318(5) 0.06609(14)
F8 F 0.13133(15) -0.12162(5) 0.17724(16)
F9 F 0.21171(15) -0.07653(5) 0.29437(16)
F10 F 0.15537(14) -0.01286(5) 0.29538(14)
F11 F 0.44421(16) 0.04658(7) 0.09453(18)
F12 F 0.55702(16) 0.01296(8) 0.2116(2)
F13 F 0.51130(17) 0.00160(6) 0.3929(2)
F14 F 0.34706(19) 0.02313(6) 0.45739(16)
F15 F 0.23596(15) 0.05874(5) 0.34343(14)
F16 F 0.42056(18) 0.24048(6) -0.0433(2)
F17 F 0.5905(2) 0.26096(7) -0.0782(3)
F18 F 0.72157(17) 0.21660(8) -0.1233(2)
F19 F 0.68281(16) 0.15070(7) -0.1250(2)
F20 F 0.51199(16) 0.12938(6) -0.0934(2)
F21 F -0.0367(2) 0.25115(6) -0.13183(19)
F22 F -0.1324(3) 0.27183(7) -0.2828(3)
F23 F -0.1624(2) 0.22989(9) -0.4328(2)
F24 F -0.09307(19) 0.16748(8) -0.42830(17)
F25 F 0.01176(17) 0.14750(6) -0.28035(17)
F26 F 0.09968(14) 0.21904(5) 0.18124(14)
F27 F 0.27187(15) 0.22871(5) 0.24045(18)
F28 F 0.35853(14) 0.18237(6) 0.34944(18)
F29 F 0.27122(15) 0.12538(5) 0.39737(16)
F30 F 0.10063(14) 0.11402(5) 0.33513(14)
N5 N 0.15495(18) 0.03881(7) 0.15553(19)
H52 H 0.1890 0.0207 0.1590
N6 N 0.20284(19) 0.17578(7) -0.0625(2)
H53 H 0.1879 0.1658 -0.0093
O1 O -0.13208(15) 0.09017(6) 0.07311(16)
P1 P -0.08153(5) 0.08307(2) 0.16126(6)
C97? C 0.9343(10) 0.9214(3) 0.4343(10)
H36? H 0.8788 0.9210 0.4723
H37? H 0.9429 0.8996 0.4043
H38? H 0.9283 0.9386 0.3851
C98? C 1.0118(9) 0.9289(4) 0.4948(10)
H39? H 1.0677 0.9291 0.4561
H40? H 1.0188 0.9110 0.5430
C99? C 1.0016(7) 0.9636(3) 0.5466(7)
H41? H 0.9417 0.9641 0.5783
H42? H 1.0495 0.9652 0.5969
C100? C 1.0083(9) 0.9940(3) 0.4844(7)
H43? H 0.9615 0.9923 0.4332
H44? H 1.0689 0.9940 0.4541
C101? C 0.9958(6) 1.0278(3) 0.5359(6)
H45? H 0.9349 1.0278 0.5655
H46? H 1.0419 1.0292 0.5878
C102? C 1.0032(9) 1.0584(4) 0.4769(9)
H47? H 0.9612 1.0563 0.4215
H48? H 1.0662 1.0600 0.4526
C103? C 0.9812(8) 1.0904(3) 0.5297(7)
H49? H 0.9163 1.0906 0.5455
H50? H 0.9951 1.1096 0.4895
H51? H 1.0181 1.0915 0.5883
C104? C 0.3574(8) 0.0616(3) 0.7370(7)
C105? C 0.2974(9) 0.0837(3) 0.6929(7)
C106? C 0.2336(8) 0.1009(2) 0.7463(10)
C107? C 0.2297(8) 0.0958(2) 0.8438(10)
C108? C 0.2897(8) 0.0736(2) 0.8879(6)
C109? C 0.3535(7) 0.0565(2) 0.8345(7)
H54? H 0.4011 0.0498 0.7006
H55? H 0.3001 0.0872 0.6263
H56? H 0.1926 0.1160 0.7161
H57? H 0.1860 0.1075 0.8802
H58? H 0.2870 0.0702 0.9545
H59? H 0.3946 0.0413 0.8647
loop_
_geom_bond_atom_site_label_1
_geom_bond_atom_site_label_2
_geom_bond_site_symmetry_1
_geom_bond_site_symmetry_2
C1 C2 1_555 1_555
C2 H1 1_555 1_555
C3 C2 1_555 1_555
H2 C3 1_555 1_555
C4 C3 1_555 1_555
C5 C4 1_555 1_555
C6 C5 1_555 1_555
C7 C6 1_555 1_555
H3 C7 1_555 1_555
C8 C7 1_555 1_555
H4 C8 1_555 1_555
C9 C8 1_555 1_555
C10 C9 1_555 1_555
C11 C10 1_555 1_555
C12 C11 1_555 1_555
C13 C12 1_555 1_555
H5 C13 1_555 1_555
C14 C13 1_555 1_555
C15 C14 1_555 1_555
C16 C15 1_555 1_555
C17 C16 1_555 1_555
H6 C17 1_555 1_555
C18 C17 1_555 1_555
H7 C18 1_555 1_555
C19 C18 1_555 1_555
C20 C19 1_555 1_555
C21 C20 1_555 1_555
C22 C21 1_555 1_555
H8 C22 1_555 1_555
C23 C22 1_555 1_555
H9 C23 1_555 1_555
C24 C23 1_555 1_555
C25 C24 1_555 1_555
C26 C25 1_555 1_555
C27 C26 1_555 1_555
H10 C27 1_555 1_555
C28 C27 1_555 1_555
H11 C28 1_555 1_555
C29 C28 1_555 1_555
C30 C1 1_555 1_555
C31 C5 1_555 1_555
C32 C31 1_555 1_555
C33 C32 1_555 1_555
C34 C33 1_555 1_555
C35 C34 1_555 1_555
C36 C31 1_555 1_555
C37 C10 1_555 1_555
C38 C37 1_555 1_555
C39 C38 1_555 1_555
C40 C39 1_555 1_555
C41 C40 1_555 1_555
C42 C37 1_555 1_555
C43 C15 1_555 1_555
C44 C43 1_555 1_555
C45 C44 1_555 1_555
C46 C45 1_555 1_555
C47 C46 1_555 1_555
C48 C43 1_555 1_555
C49 C20 1_555 1_555
C50 C49 1_555 1_555
C51 C50 1_555 1_555
C52 C51 1_555 1_555
C53 C52 1_555 1_555
C54 C49 1_555 1_555
C55 C25 1_555 1_555
C56 C55 1_555 1_555
C57 C56 1_555 1_555
C58 C57 1_555 1_555
C59 C58 1_555 1_555
C60 C55 1_555 1_555
C61 C30 1_555 1_555
C62 C61 1_555 1_555
C63 C62 1_555 1_555
C64 C63 1_555 1_555
C65 C64 1_555 1_555
C66 C61 1_555 1_555
C67 H12 1_555 1_555
C68 C67 1_555 1_555
H13 C68 1_555 1_555
C69 C68 1_555 1_555
H14 C69 1_555 1_555
C70 C69 1_555 1_555
H15 C70 1_555 1_555
C71 C70 1_555 1_555
H16 C71 1_555 1_555
C72 C67 1_555 1_555
H17 C72 1_555 1_555
N1 C1 1_555 1_555
C73 H18 1_555 1_555
C74 C73 1_555 1_555
H19 C74 1_555 1_555
C75 C74 1_555 1_555
H20 C75 1_555 1_555
C76 C75 1_555 1_555
H21 C76 1_555 1_555
C77 C76 1_555 1_555
H22 C77 1_555 1_555
C78 C73 1_555 1_555
H23 C78 1_555 1_555
N2 C6 1_555 1_555
C79 C80 1_555 1_555
C80 C81 1_555 1_555
C81 C82 1_555 1_555
C82 C83 1_555 1_555
C83 C84 1_555 1_555
C84 C79 1_555 1_555
N3 C16 1_555 1_555
C85 H24 1_555 1_555
C86 C85 1_555 1_555
H25 C86 1_555 1_555
C87 C86 1_555 1_555
H26 C87 1_555 1_555
C88 C87 1_555 1_555
H27 C88 1_555 1_555
C89 C88 1_555 1_555
H28 C89 1_555 1_555
C90 C85 1_555 1_555
H29 C90 1_555 1_555
N4 C26 1_555 1_555
C91 H30 1_555 1_555
C92 C91 1_555 1_555
H31 C92 1_555 1_555
C93 C92 1_555 1_555
H32 C93 1_555 1_555
C94 C93 1_555 1_555
H33 C94 1_555 1_555
C95 C94 1_555 1_555
H34 C95 1_555 1_555
C96 C91 1_555 1_555
H35 C96 1_555 1_555
F1 C32 1_555 1_555
F2 C33 1_555 1_555
F3 C34 1_555 1_555
F4 C35 1_555 1_555
F5 C36 1_555 1_555
F6 C38 1_555 1_555
F7 C39 1_555 1_555
F8 C40 1_555 1_555
F9 C41 1_555 1_555
F10 C42 1_555 1_555
F11 C44 1_555 1_555
F12 C45 1_555 1_555
F13 C46 1_555 1_555
F14 C47 1_555 1_555
F15 C48 1_555 1_555
F16 C50 1_555 1_555
F17 C51 1_555 1_555
F18 C52 1_555 1_555
F19 C53 1_555 1_555
F20 C54 1_555 1_555
F21 C56 1_555 1_555
F22 C57 1_555 1_555
F23 C58 1_555 1_555
F24 C59 1_555 1_555
F25 C60 1_555 1_555
F26 C62 1_555 1_555
F27 C63 1_555 1_555
F28 C64 1_555 1_555
F29 C65 1_555 1_555
F30 C66 1_555 1_555
N5 C11 1_555 1_555
H52 N5 1_555 1_555
N6 C21 1_555 1_555
H53 N6 1_555 1_555
O1 P1 1_555 1_555
P1 C12 1_555 1_555
C4 N1 1_555 1_555
C9 N2 1_555 1_555
C14 N5 1_555 1_555
C19 N3 1_555 1_555
C24 N6 1_555 1_555
C29 C30 1_555 1_555
C29 N4 1_555 1_555
C35 C36 1_555 1_555
C41 C42 1_555 1_555
C47 C48 1_555 1_555
C53 C54 1_555 1_555
C59 C60 1_555 1_555
C65 C66 1_555 1_555
C71 C72 1_555 1_555
N1 P1 1_555 1_555
C77 C78 1_555 1_555
N2 P1 1_555 1_555
C89 C90 1_555 1_555
C95 C96 1_555 1_555

#END
