
#######################################################################
#
#                 Cambridge Crystallographic Data Centre
#                                CCDC 
#
#######################################################################
#
# If this CIF has been generated from an entry in the Cambridge 
# Structural Database, then it will include bibliographic, chemical, 
# crystal, experimental, refinement or atomic coordinate data resulting 
# from the CCDC's data processing and validation procedures.
#
#######################################################################

data_YUSPIM
_chemical_formula_moiety         'C20 H23 N1 O3'
_chemical_name_systematic        
(+-)-(2RS,4RS)-2-((4RS)-2,2-Diphenyl-1,3-dioxolan-4-yl)piperidin-4-ol
_chemical_properties_biological  
'tested for N-methyl-D-aspartate receptor activity'
_symmetry_cell_setting           monoclinic
_symmetry_space_group_name_H-M   'P 21/n'
_symmetry_Int_Tables_number      14
_space_group_name_Hall           '-P 2yn'
loop_
_symmetry_equiv_pos_site_id
_symmetry_equiv_pos_as_xyz
1 x,y,z
2 1/2-x,1/2+y,1/2-z
3 -x,-y,-z
4 1/2+x,1/2-y,1/2+z
_cell_length_a                   6.2254(4)
_cell_length_b                   33.923(2)
_cell_length_c                   8.1729(6)
_cell_angle_alpha                90
_cell_angle_beta                 97.459(2)
_cell_angle_gamma                90
_cell_volume                     1711.38
_exptl_crystal_colour            colorless
_exptl_crystal_description       plate
_cell_formula_units_Z            4
_exptl_crystal_recrystallization_method n-hexane/dichloromethane
loop_
_atom_site_label
_atom_site_type_symbol
_atom_site_fract_x
_atom_site_fract_y
_atom_site_fract_z
N1 N 0.0494(6) 0.20507(11) 0.7812(4)
H1 H -0.027(7) 0.1827(13) 0.794(5)
C1 C 0.0427(8) 0.22867(13) 0.9334(6)
H2 H -0.1077 0.2305 0.9562
H3 H 0.0936 0.2554 0.9149
C2 C 0.1786(8) 0.21143(13) 1.0811(6)
H4 H 0.1165 0.1862 1.1095
H5 H 0.1779 0.2292 1.1754
O1 O 0.5088(6) 0.24134(9) 1.0146(4)
H6 H 0.4820 0.2581 1.0833
C3 C 0.4089(8) 0.20512(13) 1.0471(6)
H7 H 0.4929 0.1923 1.1439
C4 C 0.4126(8) 0.17909(12) 0.8963(5)
H8 H 0.3591 0.1527 0.9190
H9 H 0.5617 0.1765 0.8713
C5 C 0.2716(7) 0.19681(11) 0.7488(5)
H10 H 0.3376 0.2223 0.7242
C6 C 0.2563(8) 0.17186(11) 0.5915(5)
H11 H 0.1611 0.1852 0.5019
O2 O 0.1635(5) 0.13457(7) 0.6265(4)
C7 C 0.2658(7) 0.10608(12) 0.5348(5)
O3 O 0.4830(5) 0.11922(8) 0.5409(4)
C8 C 0.4714(8) 0.16087(12) 0.5300(6)
H12 H 0.4727 0.1696 0.4157
H13 H 0.5938 0.1730 0.5993
C9 C 0.2607(9) 0.06680(12) 0.6202(6)
C10 C 0.0657(12) 0.04934(15) 0.6335(7)
H14 H -0.0639 0.0614 0.5873
C11 C 0.0608(16) 0.01346(19) 0.7162(8)
H15 H -0.0737 0.0016 0.7253
C12 C 0.2400(19) -0.00438(18) 0.7820(10)
H16 H 0.2329 -0.0290 0.8339
C13 C 0.4351(17) 0.0131(2) 0.7741(11)
H17 H 0.5627 0.0010 0.8245
C14 C 0.4465(13) 0.04894(17) 0.6912(9)
H18 H 0.5817 0.0607 0.6844
C15 C 0.1575(8) 0.10437(11) 0.3567(5)
C16 C -0.0549(8) 0.11718(13) 0.3123(6)
H19 H -0.1340 0.1275 0.3930
C17 C -0.1488(10) 0.11472(14) 0.1508(7)
H20 H -0.2916 0.1236 0.1214
C18 C -0.0344(12) 0.09926(15) 0.0308(7)
H21 H -0.0994 0.0976 -0.0794
C19 C 0.1736(12) 0.08639(15) 0.0740(7)
H22 H 0.2516 0.0759 -0.0069
C20 C 0.2699(9) 0.08874(12) 0.2367(6)
H23 H 0.4124 0.0796 0.2654
loop_
_geom_bond_atom_site_label_1
_geom_bond_atom_site_label_2
_geom_bond_site_symmetry_1
_geom_bond_site_symmetry_2
N1 H1 1_555 1_555
C1 N1 1_555 1_555
H2 C1 1_555 1_555
H3 C1 1_555 1_555
C2 C1 1_555 1_555
H4 C2 1_555 1_555
H5 C2 1_555 1_555
O1 H6 1_555 1_555
C3 C2 1_555 1_555
H7 C3 1_555 1_555
C4 C3 1_555 1_555
H8 C4 1_555 1_555
H9 C4 1_555 1_555
C5 N1 1_555 1_555
H10 C5 1_555 1_555
C6 C5 1_555 1_555
H11 C6 1_555 1_555
O2 C6 1_555 1_555
C7 O2 1_555 1_555
O3 C7 1_555 1_555
C8 C6 1_555 1_555
H12 C8 1_555 1_555
H13 C8 1_555 1_555
C9 C7 1_555 1_555
C10 C9 1_555 1_555
H14 C10 1_555 1_555
C11 C10 1_555 1_555
H15 C11 1_555 1_555
C12 C11 1_555 1_555
H16 C12 1_555 1_555
C13 C12 1_555 1_555
H17 C13 1_555 1_555
C14 C9 1_555 1_555
H18 C14 1_555 1_555
C15 C7 1_555 1_555
C16 C15 1_555 1_555
H19 C16 1_555 1_555
C17 C16 1_555 1_555
H20 C17 1_555 1_555
C18 C17 1_555 1_555
H21 C18 1_555 1_555
C19 C18 1_555 1_555
H22 C19 1_555 1_555
C20 C15 1_555 1_555
H23 C20 1_555 1_555
O1 C3 1_555 1_555
C4 C5 1_555 1_555
O3 C8 1_555 1_555
C13 C14 1_555 1_555
C19 C20 1_555 1_555

#END
