
#######################################################################
#
#                 Cambridge Crystallographic Data Centre
#                                CCDC 
#
#######################################################################
#
# If this CIF has been generated from an entry in the Cambridge 
# Structural Database, then it will include bibliographic, chemical, 
# crystal, experimental, refinement or atomic coordinate data resulting 
# from the CCDC's data processing and validation procedures.
#
#######################################################################

data_YUSQOT
_chemical_formula_moiety         'C24 H58 Li2 N4 S2 Si2'
_chemical_name_systematic        
bis(\m~2~-N,N'-Di-t-butyl-S-(trimethylsilylmethyl)di-imidosulfinato)-di-lithium
_symmetry_cell_setting           monoclinic
_symmetry_space_group_name_H-M   'P 21/n'
_symmetry_Int_Tables_number      14
_space_group_name_Hall           '-P 2yn'
loop_
_symmetry_equiv_pos_site_id
_symmetry_equiv_pos_as_xyz
1 x,y,z
2 1/2-x,1/2+y,1/2-z
3 -x,-y,-z
4 1/2+x,1/2-y,1/2+z
_cell_length_a                   9.6576(10)
_cell_length_b                   16.7227(17)
_cell_length_c                   21.316(2)
_cell_angle_alpha                90
_cell_angle_beta                 100.3500(10)
_cell_angle_gamma                90
_cell_volume                     3386.54
_exptl_crystal_colour            'light yellow'
_exptl_crystal_description       block
_cell_formula_units_Z            4
loop_
_atom_site_label
_atom_site_type_symbol
_atom_site_fract_x
_atom_site_fract_y
_atom_site_fract_z
C1 C 0.19038(14) 0.92965(8) 0.09083(6)
C2 C 0.63405(15) 1.01364(8) 0.17765(6)
C3 C 0.21050(17) 1.00532(10) 0.05300(8)
H1 H 0.2277 1.0510 0.0822
H2 H 0.1255 1.0152 0.0212
H3 H 0.2911 0.9982 0.0314
C4 C 0.15774(18) 0.85984(10) 0.04420(8)
H4 H 0.2366 0.8520 0.0216
H5 H 0.0722 0.8717 0.0133
H6 H 0.1435 0.8111 0.0678
C5 C 0.06748(17) 0.94252(13) 0.12525(8)
H7 H 0.0516 0.8938 0.1485
H8 H -0.0173 0.9550 0.0941
H9 H 0.0888 0.9870 0.1553
C6 C 0.76535(16) 1.01919(9) 0.22944(7)
H10 H 0.7412 1.0047 0.2707
H11 H 0.8018 1.0740 0.2315
H12 H 0.8373 0.9824 0.2194
C7 C 0.52847(17) 1.07801(9) 0.18965(8)
H13 H 0.4431 1.0740 0.1571
H14 H 0.5706 1.1310 0.1875
H15 H 0.5044 1.0701 0.2320
C8 C 0.67763(17) 1.03042(10) 0.11314(7)
H16 H 0.7396 0.9875 0.1033
H17 H 0.7277 1.0816 0.1151
H18 H 0.5935 1.0328 0.0797
C9 C 0.49898(14) 0.79674(8) 0.12389(6)
H19 H 0.4259 0.7705 0.0920
H20 H 0.4855 0.7779 0.1664
C10 C 0.65527(19) 0.64839(10) 0.09944(8)
H21 H 0.5794 0.6373 0.0633
H22 H 0.6324 0.6242 0.1382
H23 H 0.7436 0.6257 0.0909
C11 C 0.81425(17) 0.77578(11) 0.18242(8)
C12 C 0.72401(18) 0.80528(11) 0.03857(7)
H24 H 0.7352 0.8631 0.0451
H25 H 0.6498 0.7950 0.0016
H26 H 0.8128 0.7823 0.0309
C13 C 0.83323(14) 0.84736(8) 0.39531(6)
C14 C 0.38844(14) 0.75755(8) 0.31205(6)
C15 C 0.81732(18) 0.77786(11) 0.44001(8)
H27 H 0.7388 0.7887 0.4622
H28 H 0.9043 0.7718 0.4714
H29 H 0.7987 0.7285 0.4152
C16 C 0.87010(18) 0.92358(10) 0.43447(8)
H30 H 0.8782 0.9684 0.4057
H31 H 0.9598 0.9161 0.4637
H32 H 0.7958 0.9350 0.4591
C17 C 0.95398(16) 0.82858(11) 0.36045(8)
H33 H 0.9316 0.7802 0.3346
H34 H 1.0404 0.8199 0.3916
H35 H 0.9675 0.8735 0.3327
C18 C 0.25525(15) 0.75076(9) 0.26135(7)
H36 H 0.1845 0.7886 0.2710
H37 H 0.2180 0.6962 0.2612
H38 H 0.2778 0.7631 0.2194
C19 C 0.49572(16) 0.69478(9) 0.29874(7)
H39 H 0.5175 0.7035 0.2561
H40 H 0.4560 0.6411 0.3010
H41 H 0.5821 0.6996 0.3306
C20 C 0.34961(17) 0.73890(9) 0.37722(7)
H42 H 0.4346 0.7407 0.4102
H43 H 0.3076 0.6855 0.3762
H44 H 0.2819 0.7786 0.3869
C21 C 0.52211(14) 0.97604(8) 0.36278(6)
H45 H 0.5303 0.9941 0.3194
H46 H 0.5968 1.0035 0.3930
C22 C 0.36576(18) 1.11953(10) 0.40076(8)
H47 H 0.3985 1.1487 0.3664
H48 H 0.4342 1.1257 0.4404
H49 H 0.2745 1.1409 0.4067
C23 C 0.20709(18) 1.00061(11) 0.30715(8)
C24 C 0.30131(17) 0.95366(10) 0.44791(7)
H50 H 0.2075 0.9694 0.4548
H51 H 0.3707 0.9651 0.4864
H52 H 0.3019 0.8963 0.4385
Li1 Li 0.3741(3) 0.90906(15) 0.23227(11)
Li2 Li 0.6512(3) 0.86170(15) 0.25444(11)
N1 N 0.57873(11) 0.93072(7) 0.18237(5)
N2 N 0.31223(12) 0.91309(7) 0.14160(5)
N3 N 0.70847(11) 0.85828(7) 0.34499(5)
N4 N 0.44044(11) 0.84124(6) 0.30687(5)
S1 S 0.46351(3) 0.903337(19) 0.120065(14)
S2 S 0.55840(3) 0.869398(19) 0.367744(14)
Si1 Si 0.67513(4) 0.75883(2) 0.110711(18)
Si2 Si 0.34667(4) 1.01107(2) 0.379515(18)
H53 H 0.8371(18) 0.8327(11) 0.1923(8)
H54 H 0.1868(18) 0.9439(11) 0.2962(8)
H55 H 0.123(2) 1.0252(12) 0.3155(10)
H56 H 0.900(2) 0.7495(12) 0.1767(10)
H57 H 0.234(2) 1.0274(12) 0.2706(10)
H58 H 0.785(2) 0.7519(12) 0.2205(10)
loop_
_geom_bond_atom_site_label_1
_geom_bond_atom_site_label_2
_geom_bond_site_symmetry_1
_geom_bond_site_symmetry_2
C1 C3 1_555 1_555
C2 C6 1_555 1_555
C3 H1 1_555 1_555
H2 C3 1_555 1_555
H3 C3 1_555 1_555
C4 C1 1_555 1_555
H4 C4 1_555 1_555
H5 C4 1_555 1_555
H6 C4 1_555 1_555
C5 C1 1_555 1_555
H7 C5 1_555 1_555
H8 C5 1_555 1_555
H9 C5 1_555 1_555
C6 H10 1_555 1_555
H11 C6 1_555 1_555
H12 C6 1_555 1_555
C7 C2 1_555 1_555
H13 C7 1_555 1_555
H14 C7 1_555 1_555
H15 C7 1_555 1_555
C8 C2 1_555 1_555
H16 C8 1_555 1_555
H17 C8 1_555 1_555
H18 C8 1_555 1_555
C9 H19 1_555 1_555
H20 C9 1_555 1_555
C10 H21 1_555 1_555
H22 C10 1_555 1_555
H23 C10 1_555 1_555
C11 Si1 1_555 1_555
C12 H24 1_555 1_555
H25 C12 1_555 1_555
H26 C12 1_555 1_555
C13 C15 1_555 1_555
C14 C18 1_555 1_555
C15 H27 1_555 1_555
H28 C15 1_555 1_555
H29 C15 1_555 1_555
C16 C13 1_555 1_555
H30 C16 1_555 1_555
H31 C16 1_555 1_555
H32 C16 1_555 1_555
C17 C13 1_555 1_555
H33 C17 1_555 1_555
H34 C17 1_555 1_555
H35 C17 1_555 1_555
C18 H36 1_555 1_555
H37 C18 1_555 1_555
H38 C18 1_555 1_555
C19 C14 1_555 1_555
H39 C19 1_555 1_555
H40 C19 1_555 1_555
H41 C19 1_555 1_555
C20 C14 1_555 1_555
H42 C20 1_555 1_555
H43 C20 1_555 1_555
H44 C20 1_555 1_555
C21 H45 1_555 1_555
H46 C21 1_555 1_555
C22 H47 1_555 1_555
H48 C22 1_555 1_555
H49 C22 1_555 1_555
C23 Si2 1_555 1_555
C24 H50 1_555 1_555
H51 C24 1_555 1_555
H52 C24 1_555 1_555
Li1 N1 1_555 1_555
Li2 N1 1_555 1_555
N1 C2 1_555 1_555
N2 C1 1_555 1_555
N3 C13 1_555 1_555
N4 C14 1_555 1_555
S1 C9 1_555 1_555
S2 C21 1_555 1_555
Si1 C9 1_555 1_555
Si2 C21 1_555 1_555
H53 C11 1_555 1_555
H54 C23 1_555 1_555
H55 C23 1_555 1_555
H56 C11 1_555 1_555
H57 C23 1_555 1_555
H58 C11 1_555 1_555
C10 Si1 1_555 1_555
C12 Si1 1_555 1_555
C22 Si2 1_555 1_555
C24 Si2 1_555 1_555
Li1 N2 1_555 1_555
Li1 N4 1_555 1_555
Li2 N3 1_555 1_555
Li2 N4 1_555 1_555
N1 S1 1_555 1_555
N2 S1 1_555 1_555
N3 S2 1_555 1_555
N4 S2 1_555 1_555

#END
