
#######################################################################
#
#                 Cambridge Crystallographic Data Centre
#                                CCDC 
#
#######################################################################
#
# If this CIF has been generated from an entry in the Cambridge 
# Structural Database, then it will include bibliographic, chemical, 
# crystal, experimental, refinement or atomic coordinate data resulting 
# from the CCDC's data processing and validation procedures.
#
#######################################################################

data_YUSREK
_chemical_formula_moiety         'C36 H69 Li3 N4 O3 S2'
_chemical_name_systematic        
(\m~3~-N,N'-Di-t-butyl-S-benzyldi-imidosulfinato)-(\m~3~-N,N'-di-t-butyl-S-methyldi-imidosulfinato)-tris(tetrahydrofuran)-tri-lithium
_symmetry_cell_setting           monoclinic
_symmetry_space_group_name_H-M   'C 2/c'
_symmetry_Int_Tables_number      15
_space_group_name_Hall           '-C 2yn'
loop_
_symmetry_equiv_pos_site_id
_symmetry_equiv_pos_as_xyz
1 x,y,z
2 -x,y,1/2-z
3 1/2+x,1/2+y,z
4 1/2-x,1/2+y,1/2-z
5 -x,-y,-z
6 x,-y,1/2+z
7 1/2-x,1/2-y,-z
8 1/2+x,1/2-y,1/2+z
_cell_length_a                   15.284(3)
_cell_length_b                   17.129(3)
_cell_length_c                   31.676(5)
_cell_angle_alpha                90
_cell_angle_beta                 94.386(2)
_cell_angle_gamma                90
_cell_volume                     8268.48
_exptl_crystal_colour            yellow
_exptl_crystal_description       block
_cell_formula_units_Z            8
loop_
_atom_site_label
_atom_site_type_symbol
_atom_site_fract_x
_atom_site_fract_y
_atom_site_fract_z
C1 C 0.47360(8) -0.02808(7) 0.36640(4)
C2 C 0.54244(8) 0.01069(8) 0.39084(4)
H1 H 0.5281 0.0502 0.4102
C3 C 0.62986(9) -0.00758(8) 0.38726(4)
H2 H 0.6738 0.0197 0.4042
C4 C 0.65484(9) -0.06498(8) 0.35945(5)
H3 H 0.7149 -0.0770 0.3571
C5 C 0.58881(9) -0.10415(8) 0.33522(5)
H4 H 0.6043 -0.1434 0.3160
C6 C 0.50140(9) -0.08708(7) 0.33862(4)
H5 H 0.4582 -0.1156 0.3219
C7 C 0.38246(8) -0.01127(7) 0.36774(4)
C8 C 0.08516(9) 0.11085(8) 0.30619(4)
H6 H 0.0332 0.1417 0.3116
H7 H 0.0914 0.1087 0.2757
H8 H 0.1374 0.1352 0.3204
C9 C 0.33094(8) 0.19705(7) 0.36775(4)
C10 C 0.29995(8) 0.00343(7) 0.47334(4)
C11 C 0.41837(9) 0.18885(8) 0.34706(4)
H9 H 0.4594 0.1577 0.3654
H10 H 0.4434 0.2407 0.3430
H11 H 0.4080 0.1629 0.3196
C12 C 0.27059(9) 0.24892(7) 0.33919(4)
H12 H 0.2600 0.2243 0.3113
H13 H 0.2984 0.2999 0.3360
H14 H 0.2146 0.2558 0.3519
C13 C 0.34808(9) 0.23734(8) 0.41088(4)
H15 H 0.2926 0.2433 0.4241
H16 H 0.3740 0.2889 0.4069
H17 H 0.3886 0.2055 0.4292
C14 C 0.38007(9) -0.05098(8) 0.47827(4)
H18 H 0.3650 -0.1015 0.4651
H19 H 0.3974 -0.0586 0.5084
H20 H 0.4289 -0.0275 0.4644
C15 C 0.22395(9) -0.03503(8) 0.49403(4)
H21 H 0.1732 0.0001 0.4921
H22 H 0.2416 -0.0458 0.5239
H23 H 0.2083 -0.0841 0.4794
C16 C 0.32355(10) 0.08018(8) 0.49679(4)
H24 H 0.3744 0.1041 0.4848
H25 H 0.3377 0.0693 0.5269
H26 H 0.2735 0.1161 0.4936
C17 C 0.16136(8) -0.09177(7) 0.28787(4)
C18 C -0.01627(8) 0.01651(8) 0.39322(4)
C19 C 0.09518(9) -0.15527(8) 0.29808(4)
H27 H 0.1105 -0.1758 0.3266
H28 H 0.0967 -0.1977 0.2774
H29 H 0.0361 -0.1328 0.2968
C20 C 0.13752(9) -0.06040(8) 0.24320(4)
H30 H 0.0792 -0.0363 0.2420
H31 H 0.1372 -0.1035 0.2228
H32 H 0.1809 -0.0213 0.2361
C21 C 0.25242(9) -0.12871(8) 0.28842(4)
H33 H 0.2956 -0.0886 0.2826
H34 H 0.2522 -0.1695 0.2667
H35 H 0.2679 -0.1517 0.3163
C22 C -0.06236(9) -0.05952(8) 0.37889(5)
H36 H -0.0765 -0.0580 0.3482
H37 H -0.1166 -0.0653 0.3933
H38 H -0.0235 -0.1039 0.3861
C23 C -0.07625(9) 0.08545(9) 0.37993(5)
H39 H -0.0473 0.1345 0.3888
H40 H -0.1316 0.0806 0.3934
H41 H -0.0881 0.0854 0.3491
C24 C -0.00163(9) 0.01509(9) 0.44139(4)
H42 H 0.0337 -0.0306 0.4502
H43 H -0.0584 0.0123 0.4537
H44 H 0.0292 0.0627 0.4512
C25 C 0.10777(9) 0.20549(8) 0.48028(4)
H45 H 0.1539 0.2409 0.4929
H46 H 0.1076 0.1571 0.4974
C26 C 0.01808(9) 0.24492(9) 0.47805(5)
H47 H 0.0140 0.2822 0.5017
H48 H -0.0295 0.2059 0.4790
C27 C 0.01298(10) 0.28740(9) 0.43541(5)
H49 H -0.0426 0.2751 0.4186
H50 H 0.0171 0.3446 0.4395
C28 C 0.09158(10) 0.25659(8) 0.41365(5)
H51 H 0.0741 0.2428 0.3838
H52 H 0.1385 0.2965 0.4141
C29 C 0.37719(9) 0.04609(8) 0.24499(4)
H53 H 0.3623 -0.0060 0.2330
H54 H 0.4260 0.0403 0.2672
C30 C 0.26135(11) 0.13519(9) 0.23160(5)
H55 H 0.2635 0.1890 0.2431
H56 H 0.1992 0.1209 0.2244
C31 C 0.31279(10) 0.13016(9) 0.19282(4)
H57 H 0.3173 0.1819 0.1792
H58 H 0.2855 0.0927 0.1719
C32 C 0.40217(10) 0.10158(9) 0.21076(4)
H59 H 0.4339 0.0742 0.1890
H60 H 0.4388 0.1451 0.2227
C33 C 0.26326(9) -0.20637(8) 0.40279(4)
H61 H 0.3143 -0.1710 0.4075
H62 H 0.2669 -0.2335 0.3754
C34 C 0.26080(10) -0.26441(9) 0.43851(5)
H63 H 0.2782 -0.2400 0.4662
H64 H 0.2991 -0.3099 0.4342
C35 C 0.16401(10) -0.28742(8) 0.43500(5)
H65 H 0.1520 -0.3284 0.4133
H66 H 0.1455 -0.3064 0.4625
C36 C 0.11804(9) -0.21172(8) 0.42201(5)
H67 H 0.0676 -0.2220 0.4013
H68 H 0.0963 -0.1854 0.4470
Li1 Li 0.17535(14) 0.09955(12) 0.40654(7)
Li2 Li 0.27327(15) 0.04977(13) 0.31973(7)
Li3 Li 0.18276(14) -0.04954(12) 0.38973(7)
N1 N 0.28393(7) 0.12114(6) 0.37144(3)
N2 N 0.26805(7) 0.01715(6) 0.42832(3)
N3 N 0.16819(7) -0.02723(6) 0.32020(3)
N4 N 0.07300(7) 0.02526(6) 0.37749(3)
O1 O 0.12183(6) 0.18825(5) 0.43705(3)
O2 O 0.30167(6) 0.08116(6) 0.26226(3)
O3 O 0.18225(6) -0.16345(5) 0.40325(3)
S1 S 0.345437(19) 0.057874(16) 0.401317(9)
S2 S 0.07311(2) 0.013019(18) 0.326357(9)
H69 H 0.3417(11) -0.0492(10) 0.3574(5)
loop_
_geom_bond_atom_site_label_1
_geom_bond_atom_site_label_2
_geom_bond_site_symmetry_1
_geom_bond_site_symmetry_2
C1 C2 1_555 1_555
C2 H1 1_555 1_555
C3 C2 1_555 1_555
H2 C3 1_555 1_555
C4 C3 1_555 1_555
H3 C4 1_555 1_555
C5 C4 1_555 1_555
H4 C5 1_555 1_555
C6 C1 1_555 1_555
H5 C6 1_555 1_555
C7 C1 1_555 1_555
C8 H6 1_555 1_555
H7 C8 1_555 1_555
H8 C8 1_555 1_555
C9 C11 1_555 1_555
C10 C14 1_555 1_555
C11 H9 1_555 1_555
H10 C11 1_555 1_555
H11 C11 1_555 1_555
C12 C9 1_555 1_555
H12 C12 1_555 1_555
H13 C12 1_555 1_555
H14 C12 1_555 1_555
C13 C9 1_555 1_555
H15 C13 1_555 1_555
H16 C13 1_555 1_555
H17 C13 1_555 1_555
C14 H18 1_555 1_555
H19 C14 1_555 1_555
H20 C14 1_555 1_555
C15 C10 1_555 1_555
H21 C15 1_555 1_555
H22 C15 1_555 1_555
H23 C15 1_555 1_555
C16 C10 1_555 1_555
H24 C16 1_555 1_555
H25 C16 1_555 1_555
H26 C16 1_555 1_555
C17 C19 1_555 1_555
C18 C22 1_555 1_555
C19 H27 1_555 1_555
H28 C19 1_555 1_555
H29 C19 1_555 1_555
C20 C17 1_555 1_555
H30 C20 1_555 1_555
H31 C20 1_555 1_555
H32 C20 1_555 1_555
C21 C17 1_555 1_555
H33 C21 1_555 1_555
H34 C21 1_555 1_555
H35 C21 1_555 1_555
C22 H36 1_555 1_555
H37 C22 1_555 1_555
H38 C22 1_555 1_555
C23 C18 1_555 1_555
H39 C23 1_555 1_555
H40 C23 1_555 1_555
H41 C23 1_555 1_555
C24 C18 1_555 1_555
H42 C24 1_555 1_555
H43 C24 1_555 1_555
H44 C24 1_555 1_555
C25 H45 1_555 1_555
H46 C25 1_555 1_555
C26 C25 1_555 1_555
H47 C26 1_555 1_555
H48 C26 1_555 1_555
C27 C26 1_555 1_555
H49 C27 1_555 1_555
H50 C27 1_555 1_555
C28 C27 1_555 1_555
H51 C28 1_555 1_555
H52 C28 1_555 1_555
C29 H53 1_555 1_555
H54 C29 1_555 1_555
C30 H55 1_555 1_555
H56 C30 1_555 1_555
C31 C30 1_555 1_555
H57 C31 1_555 1_555
H58 C31 1_555 1_555
C32 C29 1_555 1_555
H59 C32 1_555 1_555
H60 C32 1_555 1_555
C33 H61 1_555 1_555
H62 C33 1_555 1_555
C34 C33 1_555 1_555
H63 C34 1_555 1_555
H64 C34 1_555 1_555
C35 C34 1_555 1_555
H65 C35 1_555 1_555
H66 C35 1_555 1_555
C36 C35 1_555 1_555
H67 C36 1_555 1_555
H68 C36 1_555 1_555
Li1 N1 1_555 1_555
Li2 C7 1_555 1_555
Li3 N2 1_555 1_555
N1 C9 1_555 1_555
N2 C10 1_555 1_555
N3 C17 1_555 1_555
N4 C18 1_555 1_555
O1 C25 1_555 1_555
O2 C29 1_555 1_555
O3 C33 1_555 1_555
S1 C7 1_555 1_555
S2 C8 1_555 1_555
H69 C7 1_555 1_555
C5 C6 1_555 1_555
C28 O1 1_555 1_555
C30 O2 1_555 1_555
C31 C32 1_555 1_555
C36 O3 1_555 1_555
Li1 N2 1_555 1_555
Li1 N4 1_555 1_555
Li1 O1 1_555 1_555
Li2 N1 1_555 1_555
Li2 N3 1_555 1_555
Li2 O2 1_555 1_555
Li3 N3 1_555 1_555
Li3 N4 1_555 1_555
Li3 O3 1_555 1_555
N1 S1 1_555 1_555
N2 S1 1_555 1_555
N3 S2 1_555 1_555
N4 S2 1_555 1_555

#END
