
#######################################################################
#
#                 Cambridge Crystallographic Data Centre
#                                CCDC 
#
#######################################################################
#
# If this CIF has been generated from an entry in the Cambridge 
# Structural Database, then it will include bibliographic, chemical, 
# crystal, experimental, refinement or atomic coordinate data resulting 
# from the CCDC's data processing and validation procedures.
#
#######################################################################

data_YUTMOR
_chemical_formula_moiety         'C18 H15 N1 O5'
_chemical_name_systematic        
'dimethyl 2-phenyl-3H-indole-3,3-dicarboxylate 1-oxide'
_symmetry_cell_setting           monoclinic
_symmetry_space_group_name_H-M   'C c'
_symmetry_Int_Tables_number      9
_space_group_name_Hall           'C -2yc'
loop_
_symmetry_equiv_pos_site_id
_symmetry_equiv_pos_as_xyz
1 x,y,z
2 x,-y,1/2+z
3 1/2+x,1/2+y,z
4 1/2+x,1/2-y,1/2+z
_cell_length_a                   12.5420(7)
_cell_length_b                   13.9557(7)
_cell_length_c                   8.7711(4)
_cell_angle_alpha                90
_cell_angle_beta                 102.428(2)
_cell_angle_gamma                90
_cell_volume                     1499.25
_exptl_crystal_colour            colorless
_exptl_crystal_description       plate
_cell_formula_units_Z            4
loop_
_atom_site_label
_atom_site_type_symbol
_atom_site_fract_x
_atom_site_fract_y
_atom_site_fract_z
O1 O 0.8225(3) 0.3416(2) 0.3524(4)
O2 O 0.7828(4) 0.4644(3) 0.1861(5)
O3 O 0.6627(3) 0.06632(17) 0.1630(4)
O4 O 0.5471(4) 0.4573(3) 0.1363(5)
O5 O 0.5064(3) 0.3429(3) -0.0433(4)
C1 C 0.4095(4) 0.3975(3) -0.1190(7)
H1 H 0.3561 0.3953 -0.0554
H2 H 0.3793 0.3700 -0.2194
H3 H 0.4296 0.4629 -0.1319
C2 C 0.5187(4) 0.2263(4) 0.6123(6)
H4 H 0.4893 0.2256 0.7011
C3 C 0.5357(5) 0.1468(5) 0.5498(6)
H5 H 0.5177 0.0910 0.5964
C4 C 0.5794(4) 0.1369(4) 0.4164(5)
H6 H 0.5915 0.0774 0.3754
C5 C 0.6044(4) 0.2267(5) 0.3465(6)
C6 C 0.6512(4) 0.2326(3) 0.2047(6)
C7 C 0.6776(5) 0.3228(3) 0.1258(7)
C8 C 0.7647(5) 0.3856(3) 0.2276(6)
C9 C 0.9134(5) 0.3951(4) 0.4391(6)
H7 H 0.9531 0.4232 0.3683
H8 H 0.9607 0.3530 0.5097
H9 H 0.8872 0.4447 0.4974
N1 N 0.6712(5) 0.1560(3) 0.1406(9)
C10 C 0.7179(4) 0.1887(5) -0.0057(6)
C11 C 0.7490(5) 0.1273(4) -0.1055(6)
H10 H 0.7428 0.0615 -0.0930
C12 C 0.7887(4) 0.1623(6) -0.2221(6)
H11 H 0.8117 0.1221 -0.2933
C13 C 0.7952(5) 0.2719(5) -0.2353(6)
H12 H 0.8229 0.3016 -0.3135
C14 C 0.7571(5) 0.3234(4) -0.1235(7)
H13 H 0.7577 0.3900 -0.1280
C15 C 0.7205(4) 0.2821(4) -0.0122(6)
C16 C 0.5415(5) 0.3100(5) 0.5548(7)
H14 H 0.5288 0.3662 0.6051
C17 C 0.5828(5) 0.3154(4) 0.4246(7)
H15 H 0.5973 0.3747 0.3851
C18 C 0.5694(5) 0.3850(3) 0.0773(7)
loop_
_geom_bond_atom_site_label_1
_geom_bond_atom_site_label_2
_geom_bond_site_symmetry_1
_geom_bond_site_symmetry_2
O1 C8 1_555 1_555
O2 C8 1_555 1_555
O3 N1 1_555 1_555
O4 C18 1_555 1_555
O5 C1 1_555 1_555
C1 H1 1_555 1_555
H2 C1 1_555 1_555
H3 C1 1_555 1_555
C2 H4 1_555 1_555
C3 C2 1_555 1_555
H5 C3 1_555 1_555
C4 C3 1_555 1_555
H6 C4 1_555 1_555
C5 C4 1_555 1_555
C6 C5 1_555 1_555
C7 C6 1_555 1_555
C8 C7 1_555 1_555
C9 O1 1_555 1_555
H7 C9 1_555 1_555
H8 C9 1_555 1_555
H9 C9 1_555 1_555
N1 C6 1_555 1_555
C10 N1 1_555 1_555
C11 C10 1_555 1_555
H10 C11 1_555 1_555
C12 C11 1_555 1_555
H11 C12 1_555 1_555
C13 C12 1_555 1_555
H12 C13 1_555 1_555
C14 C13 1_555 1_555
H13 C14 1_555 1_555
C15 C7 1_555 1_555
C16 C2 1_555 1_555
H14 C16 1_555 1_555
C17 C5 1_555 1_555
H15 C17 1_555 1_555
C18 O5 1_555 1_555
C7 C18 1_555 1_555
C10 C15 1_555 1_555
C14 C15 1_555 1_555
C16 C17 1_555 1_555

#END
