
#######################################################################
#
#                 Cambridge Crystallographic Data Centre
#                                CCDC 
#
#######################################################################
#
# If this CIF has been generated from an entry in the Cambridge 
# Structural Database, then it will include bibliographic, chemical, 
# crystal, experimental, refinement or atomic coordinate data resulting 
# from the CCDC's data processing and validation procedures.
#
#######################################################################

data_YUTROV
_chemical_formula_moiety         'C23 H19 Cl1 O2'
_chemical_name_systematic        
'2-(2-(2-(4-Chlorophenyl)vinyl)phenyl)-2-phenylpropanoic acid'
_symmetry_cell_setting           monoclinic
_symmetry_space_group_name_H-M   'P 21'
_symmetry_Int_Tables_number      4
_space_group_name_Hall           'P 2yb'
loop_
_symmetry_equiv_pos_site_id
_symmetry_equiv_pos_as_xyz
1 x,y,z
2 -x,1/2+y,-z
_cell_length_a                   8.9623(6)
_cell_length_b                   17.6350(13)
_cell_length_c                   12.5098(8)
_cell_angle_alpha                90
_cell_angle_beta                 105.836(4)
_cell_angle_gamma                90
_cell_volume                     1902.14
_exptl_crystal_colour            colorless
_exptl_crystal_description       blade
_cell_formula_units_Z            4
loop_
_atom_site_label
_atom_site_type_symbol
_atom_site_fract_x
_atom_site_fract_y
_atom_site_fract_z
Cl1 Cl -0.31090(8) 0.45847(4) 0.50366(5)
O1 O -0.06400(19) 0.21506(11) 1.00730(13)
O3 O 0.18575(19) 0.23554(10) 1.09139(14)
C1 C 0.0186(3) 0.48578(16) 0.7875(2)
H1 H 0.1057 0.5179 0.8151
C3 C -0.0712(3) 0.49401(16) 0.6791(2)
H3 H -0.0469 0.5319 0.6325
C5 C -0.1962(3) 0.44667(16) 0.63961(19)
C7 C -0.2334(3) 0.39014(17) 0.7045(2)
H5 H -0.3192 0.3575 0.6754
C9 C -0.1426(3) 0.38219(15) 0.8130(2)
H7 H -0.1657 0.3431 0.8583
C11 C -0.0175(3) 0.43077(15) 0.8570(2)
C13 C 0.0760(3) 0.42651(15) 0.9735(2)
H9 H 0.1781 0.4467 0.9907
C15 C 0.0294(3) 0.39663(15) 1.05688(19)
H11 H -0.0719 0.3756 1.0400
C17 C 0.1243(3) 0.39397(15) 1.17359(19)
C19 C 0.2215(3) 0.45496(15) 1.21700(19)
H13 H 0.2239 0.4977 1.1712
C21 C 0.3146(3) 0.45435(16) 1.3258(2)
H15 H 0.3814 0.4959 1.3539
C23 C 0.3091(3) 0.39284(17) 1.3925(2)
H17 H 0.3727 0.3918 1.4669
C25 C 0.2113(3) 0.33266(16) 1.3515(2)
H19 H 0.2077 0.2911 1.3990
C27 C 0.1180(3) 0.33144(15) 1.24244(19)
C29 C 0.0115(3) 0.26415(14) 1.19761(18)
C31 C 0.0564(3) 0.19307(15) 1.27395(19)
H21 H 0.0429 0.2044 1.3474
H22 H 0.1650 0.1798 1.2814
H23 H -0.0104 0.1504 1.2410
C33 C 0.0390(3) 0.23710(14) 1.08753(19)
C35 C -0.1597(3) 0.28184(14) 1.18531(17)
C37 C -0.2749(3) 0.22763(15) 1.1437(2)
H27 H -0.2471 0.1801 1.1191
C39 C -0.4287(3) 0.24221(17) 1.1378(2)
H29 H -0.5051 0.2046 1.1095
C41 C -0.4722(3) 0.31156(16) 1.1730(2)
H31 H -0.5779 0.3217 1.1683
C43 C -0.3589(3) 0.36576(15) 1.2150(2)
H33 H -0.3870 0.4132 1.2398
C45 C -0.2051(3) 0.35090(14) 1.22097(19)
H35 H -0.1289 0.3885 1.2499
H37 H 0.195(4) 0.217(2) 1.025(3)
Cl2 Cl 0.70286(8) 0.54990(4) 0.94289(6)
O2 O 0.22090(19) 0.19764(10) 0.89628(13)
O4 O -0.0140(2) 0.14750(12) 0.83184(16)
C2 C 0.3697(3) 0.47546(16) 0.6828(2)
H2 H 0.3214 0.4918 0.6091
C4 C 0.4864(3) 0.51966(16) 0.7503(2)
H4 H 0.5182 0.5655 0.7232
C6 C 0.5548(3) 0.49568(16) 0.8567(2)
C8 C 0.5123(3) 0.42905(17) 0.8973(2)
H6 H 0.5621 0.4130 0.9708
C10 C 0.3955(3) 0.38555(16) 0.8292(2)
H8 H 0.3648 0.3396 0.8568
C12 C 0.3219(3) 0.40830(15) 0.7200(2)
C14 C 0.1965(3) 0.36382(15) 0.6463(2)
H10 H 0.1455 0.3848 0.5758
C16 C 0.1499(3) 0.29624(15) 0.67162(19)
H12 H 0.2010 0.2772 0.7433
C18 C 0.0291(3) 0.24761(15) 0.60212(19)
C20 C -0.0878(3) 0.27897(16) 0.51645(19)
H14 H -0.0892 0.3322 0.5043
C22 C -0.2021(3) 0.23419(16) 0.44857(19)
H16 H -0.2821 0.2567 0.3916
C24 C -0.1991(3) 0.15677(16) 0.46411(19)
H18 H -0.2759 0.1257 0.4167
C26 C -0.0835(3) 0.12395(16) 0.54943(19)
H20 H -0.0820 0.0705 0.5594
C28 C 0.0299(3) 0.16836(15) 0.62014(18)
C30 C 0.1545(3) 0.13204(15) 0.71665(18)
C32 C 0.1353(3) 0.04469(15) 0.7231(2)
H24 H 0.2170 0.0245 0.7855
H25 H 0.1434 0.0214 0.6538
H26 H 0.0336 0.0331 0.7341
C34 C 0.1263(3) 0.16288(14) 0.82449(19)
C36 C 0.3181(3) 0.14686(14) 0.70743(19)
C38 C 0.4478(3) 0.14013(16) 0.7989(2)
H28 H 0.4346 0.1261 0.8691
C40 C 0.5950(3) 0.15359(18) 0.7885(2)
H30 H 0.6815 0.1500 0.8522
C42 C 0.6184(3) 0.17226(18) 0.6867(2)
H32 H 0.7196 0.1824 0.6801
C44 C 0.4902(3) 0.17584(18) 0.5947(2)
H34 H 0.5040 0.1872 0.5238
C46 C 0.3432(3) 0.16308(16) 0.6051(2)
H36 H 0.2572 0.1654 0.5409
H38 H -0.021(5) 0.168(3) 0.878(3)
loop_
_geom_bond_atom_site_label_1
_geom_bond_atom_site_label_2
_geom_bond_site_symmetry_1
_geom_bond_site_symmetry_2
Cl1 C5 1_555 1_555
Cl2 C6 1_555 1_555
O1 C33 1_555 1_555
O2 C34 1_555 1_555
O3 C33 1_555 1_555
O4 C34 1_555 1_555
C1 H1 1_555 1_555
C2 H2 1_555 1_555
C3 C1 1_555 1_555
H3 C3 1_555 1_555
C4 C2 1_555 1_555
H4 C4 1_555 1_555
C5 C3 1_555 1_555
C6 C4 1_555 1_555
C7 C5 1_555 1_555
H5 C7 1_555 1_555
C8 C6 1_555 1_555
H6 C8 1_555 1_555
C9 C7 1_555 1_555
H7 C9 1_555 1_555
C10 C8 1_555 1_555
H8 C10 1_555 1_555
C11 C1 1_555 1_555
C12 C2 1_555 1_555
C13 C11 1_555 1_555
H9 C13 1_555 1_555
C14 C12 1_555 1_555
H10 C14 1_555 1_555
C15 C13 1_555 1_555
H11 C15 1_555 1_555
C16 C14 1_555 1_555
H12 C16 1_555 1_555
C17 C15 1_555 1_555
C18 C16 1_555 1_555
C19 C17 1_555 1_555
H13 C19 1_555 1_555
C20 C18 1_555 1_555
H14 C20 1_555 1_555
C21 C19 1_555 1_555
H15 C21 1_555 1_555
C22 C20 1_555 1_555
H16 C22 1_555 1_555
C23 C21 1_555 1_555
H17 C23 1_555 1_555
C24 C22 1_555 1_555
H18 C24 1_555 1_555
C25 C23 1_555 1_555
H19 C25 1_555 1_555
C26 C24 1_555 1_555
H20 C26 1_555 1_555
C27 C17 1_555 1_555
C28 C18 1_555 1_555
C29 C27 1_555 1_555
C30 C28 1_555 1_555
C31 C29 1_555 1_555
H21 C31 1_555 1_555
H22 C31 1_555 1_555
H23 C31 1_555 1_555
C32 C30 1_555 1_555
H24 C32 1_555 1_555
H25 C32 1_555 1_555
H26 C32 1_555 1_555
C33 C29 1_555 1_555
C34 C30 1_555 1_555
C35 C29 1_555 1_555
C36 C30 1_555 1_555
C37 C35 1_555 1_555
H27 C37 1_555 1_555
C38 C36 1_555 1_555
H28 C38 1_555 1_555
C39 C37 1_555 1_555
H29 C39 1_555 1_555
C40 C38 1_555 1_555
H30 C40 1_555 1_555
C41 C39 1_555 1_555
H31 C41 1_555 1_555
C42 C40 1_555 1_555
H32 C42 1_555 1_555
C43 C41 1_555 1_555
H33 C43 1_555 1_555
C44 C42 1_555 1_555
H34 C44 1_555 1_555
C45 C35 1_555 1_555
H35 C45 1_555 1_555
C46 C36 1_555 1_555
H36 C46 1_555 1_555
H37 O3 1_555 1_555
H38 O4 1_555 1_555
C9 C11 1_555 1_555
C10 C12 1_555 1_555
C25 C27 1_555 1_555
C26 C28 1_555 1_555
C43 C45 1_555 1_555
C44 C46 1_555 1_555

#END
