
#######################################################################
#
#                 Cambridge Crystallographic Data Centre
#                                CCDC 
#
#######################################################################
#
# If this CIF has been generated from an entry in the Cambridge 
# Structural Database, then it will include bibliographic, chemical, 
# crystal, experimental, refinement or atomic coordinate data resulting 
# from the CCDC's data processing and validation procedures.
#
#######################################################################

data_YUTSIR
_chemical_name_common            
'(ethoxyethylidene)dimethylazanium ethyl sulfate'
_chemical_formula_moiety         'C6 H14 N1 O1 1+,C2 H5 O4 S1 1-'
_chemical_name_systematic        
'1-ethoxy-N,N-dimethylethaniminium ethyl sulfate'
_symmetry_cell_setting           monoclinic
_symmetry_space_group_name_H-M   'P 21/c'
_symmetry_Int_Tables_number      14
_space_group_name_Hall           '-P 2ybc'
loop_
_symmetry_equiv_pos_site_id
_symmetry_equiv_pos_as_xyz
1 x,y,z
2 -x,1/2+y,1/2-z
3 -x,-y,-z
4 x,1/2-y,1/2+z
_cell_length_a                   13.3979(8)
_cell_length_b                   7.2860(4)
_cell_length_c                   12.5284(8)
_cell_angle_alpha                90
_cell_angle_beta                 97.712(3)
_cell_angle_gamma                90
_cell_volume                     1211.92
_exptl_crystal_colour            colorless
_exptl_crystal_description       plate
_cell_formula_units_Z            4
loop_
_atom_site_label
_atom_site_type_symbol
_atom_site_fract_x
_atom_site_fract_y
_atom_site_fract_z
O1 O 0.26034(6) 0.67627(11) 0.47160(7)
N1 N 0.17582(7) 0.90509(13) 0.38585(8)
C1 C 0.17248(8) 0.74789(15) 0.43400(9)
C2 C 0.07696(9) 0.65143(17) 0.44583(10)
H1 H 0.0200 0.7346 0.4257
H2 H 0.0778 0.6126 0.5208
H3 H 0.0700 0.5435 0.3987
C3 C 0.26376(9) 0.50086(15) 0.52879(10)
H4 H 0.2195 0.4099 0.4871
H5 H 0.2411 0.5165 0.6003
C4 C 0.37134(10) 0.43818(17) 0.54103(11)
H6 H 0.3920 0.4200 0.4697
H7 H 0.3779 0.3222 0.5810
H8 H 0.4144 0.5313 0.5804
C5 C 0.27260(9) 0.99326(15) 0.37648(10)
H9 H 0.3126 1.0010 0.4478
H10 H 0.2607 1.1170 0.3468
H11 H 0.3092 0.9207 0.3285
C6 C 0.08461(9) 1.00066(18) 0.33605(11)
H12 H 0.0463 0.9198 0.2830
H13 H 0.1038 1.1122 0.3001
H14 H 0.0430 1.0336 0.3918
S1 S 0.19729(2) 0.47672(4) 0.17775(2)
O2 O 0.31092(6) 0.47791(12) 0.14749(7)
O3 O 0.14783(7) 0.35675(14) 0.09598(8)
O4 O 0.16386(7) 0.66526(12) 0.17017(8)
O5 O 0.20491(8) 0.40445(13) 0.28581(8)
C7 C 0.38088(9) 0.59962(17) 0.20875(10)
H15 H 0.3890 0.5656 0.2859
H16 H 0.3561 0.7276 0.2014
C8 C 0.48008(9) 0.58239(19) 0.16523(12)
H17 H 0.5030 0.4547 0.1714
H18 H 0.5302 0.6618 0.2067
H19 H 0.4715 0.6196 0.0894
loop_
_geom_bond_atom_site_label_1
_geom_bond_atom_site_label_2
_geom_bond_site_symmetry_1
_geom_bond_site_symmetry_2
O1 C1 1_555 1_555
N1 C1 1_555 1_555
C1 C2 1_555 1_555
C2 H1 1_555 1_555
H2 C2 1_555 1_555
H3 C2 1_555 1_555
C3 O1 1_555 1_555
H4 C3 1_555 1_555
H5 C3 1_555 1_555
C4 C3 1_555 1_555
H6 C4 1_555 1_555
H7 C4 1_555 1_555
H8 C4 1_555 1_555
C5 N1 1_555 1_555
H9 C5 1_555 1_555
H10 C5 1_555 1_555
H11 C5 1_555 1_555
C6 N1 1_555 1_555
H12 C6 1_555 1_555
H13 C6 1_555 1_555
H14 C6 1_555 1_555
S1 O2 1_555 1_555
O2 C7 1_555 1_555
O3 S1 1_555 1_555
O4 S1 1_555 1_555
O5 S1 1_555 1_555
C7 H15 1_555 1_555
H16 C7 1_555 1_555
C8 C7 1_555 1_555
H17 C8 1_555 1_555
H18 C8 1_555 1_555
H19 C8 1_555 1_555

#END
