
#######################################################################
#
#                 Cambridge Crystallographic Data Centre
#                                CCDC 
#
#######################################################################
#
# If this CIF has been generated from an entry in the Cambridge 
# Structural Database, then it will include bibliographic, chemical, 
# crystal, experimental, refinement or atomic coordinate data resulting 
# from the CCDC's data processing and validation procedures.
#
#######################################################################

data_YUVBAU
_chemical_formula_moiety         'C23 H25 N3 O1'
_chemical_name_systematic        
5-(Diethylamino)-2-[(E)-(4-(phenylamino)phenyl)iminiomethyl]phenolate
_symmetry_cell_setting           monoclinic
_symmetry_space_group_name_H-M   'P 21/c'
_symmetry_Int_Tables_number      14
_space_group_name_Hall           '-P 2ybc'
loop_
_symmetry_equiv_pos_site_id
_symmetry_equiv_pos_as_xyz
1 x,y,z
2 -x,1/2+y,1/2-z
3 -x,-y,-z
4 x,1/2-y,1/2+z
_cell_length_a                   18.0358(16)
_cell_length_b                   11.3851(8)
_cell_length_c                   9.4815(9)
_cell_angle_alpha                90
_cell_angle_beta                 104.560(3)
_cell_angle_gamma                90
_cell_volume                     1884.4
_exptl_crystal_colour            'dark yellow'
_exptl_crystal_description       Needle
_cell_formula_units_Z            4
_exptl_crystal_recrystallization_method methanol
loop_
_atom_site_label
_atom_site_type_symbol
_atom_site_fract_x
_atom_site_fract_y
_atom_site_fract_z
C1 C 0.16973(12) 0.14061(19) -0.0731(3)
C2 C 0.22412(11) 0.10711(19) -0.1497(2)
H1 H 0.2319 0.0275 -0.1624
C3 C 0.26674(11) 0.18820(19) -0.2072(2)
C4 C 0.25415(12) 0.31118(19) -0.1877(3)
H2 H 0.2823 0.3671 -0.2235
C5 C 0.20136(12) 0.34542(19) -0.1173(3)
H3 H 0.1937 0.4254 -0.1069
C6 C 0.15719(11) 0.26528(18) -0.0586(2)
C7 C 0.36691(12) 0.2388(2) -0.3332(3)
H4 H 0.3355 0.3049 -0.3767
H5 H 0.3863 0.2018 -0.4089
C8 C 0.43420(13) 0.2845(2) -0.2161(3)
H6 H 0.4157 0.3308 -0.1476
H7 H 0.4661 0.3322 -0.2602
H8 H 0.4634 0.2195 -0.1666
C9 C 0.33326(15) 0.0308(2) -0.3032(3)
H9 H 0.3523 0.0229 -0.3898
H10 H 0.2852 -0.0117 -0.3203
C10 C 0.39020(15) -0.0248(2) -0.1758(3)
H11 H 0.4397 0.0102 -0.1658
H12 H 0.3932 -0.1076 -0.1927
H13 H 0.3738 -0.0122 -0.0882
C11 C 0.10234(11) 0.30625(19) 0.0085(2)
H14 H 0.0970 0.3871 0.0163
C12 C -0.00088(11) 0.27358(19) 0.1280(2)
C13 C -0.00286(12) 0.38568(19) 0.1858(3)
H15 H 0.0362 0.4388 0.1853
C14 C -0.06264(11) 0.41801(19) 0.2439(3)
H16 H -0.0639 0.4936 0.2805
C15 C -0.12107(12) 0.33966(19) 0.2488(3)
C16 C -0.11642(12) 0.22592(19) 0.1981(3)
H17 H -0.1534 0.1710 0.2052
C17 C -0.05756(12) 0.19375(19) 0.1374(3)
H18 H -0.0558 0.1178 0.1024
C18 C -0.25825(12) 0.36660(18) 0.2449(3)
C19 C -0.30949(12) 0.41195(19) 0.3197(3)
H19 H -0.2908 0.4431 0.4126
C20 C -0.38707(12) 0.41113(19) 0.2581(3)
H20 H -0.4201 0.4423 0.3095
C21 C -0.41679(13) 0.3645(2) 0.1205(3)
H21 H -0.4693 0.3646 0.0789
C22 C -0.36671(13) 0.31798(19) 0.0465(3)
H22 H -0.3860 0.2859 -0.0457
C23 C -0.28811(12) 0.31815(19) 0.1069(3)
H23 H -0.2554 0.2860 0.0555
N1 N 0.31894(10) 0.15485(16) -0.2813(2)
N2 N 0.05736(10) 0.23777(17) 0.0618(2)
N3 N -0.18057(10) 0.37535(18) 0.3112(2)
O1 O 0.13165(8) 0.06417(12) -0.01909(17)
H24 H 0.0678(14) 0.161(2) 0.050(3)
H25 H -0.1685(13) 0.430(2) 0.374(3)
loop_
_geom_bond_atom_site_label_1
_geom_bond_atom_site_label_2
_geom_bond_site_symmetry_1
_geom_bond_site_symmetry_2
C1 C2 1_555 1_555
C2 H1 1_555 1_555
C3 C2 1_555 1_555
C4 C3 1_555 1_555
H2 C4 1_555 1_555
C5 C4 1_555 1_555
H3 C5 1_555 1_555
C6 C1 1_555 1_555
C7 H4 1_555 1_555
H5 C7 1_555 1_555
C8 C7 1_555 1_555
H6 C8 1_555 1_555
H7 C8 1_555 1_555
H8 C8 1_555 1_555
C9 H9 1_555 1_555
H10 C9 1_555 1_555
C10 C9 1_555 1_555
H11 C10 1_555 1_555
H12 C10 1_555 1_555
H13 C10 1_555 1_555
C11 C6 1_555 1_555
H14 C11 1_555 1_555
C12 C13 1_555 1_555
C13 H15 1_555 1_555
C14 C13 1_555 1_555
H16 C14 1_555 1_555
C15 C14 1_555 1_555
C16 C15 1_555 1_555
H17 C16 1_555 1_555
C17 C12 1_555 1_555
H18 C17 1_555 1_555
C18 C19 1_555 1_555
C19 H19 1_555 1_555
C20 C19 1_555 1_555
H20 C20 1_555 1_555
C21 C20 1_555 1_555
H21 C21 1_555 1_555
C22 C21 1_555 1_555
H22 C22 1_555 1_555
C23 C18 1_555 1_555
H23 C23 1_555 1_555
N1 C3 1_555 1_555
N2 C11 1_555 1_555
N3 C15 1_555 1_555
O1 C1 1_555 1_555
H24 N2 1_555 1_555
H25 N3 1_555 1_555
C5 C6 1_555 1_555
C7 N1 1_555 1_555
C9 N1 1_555 1_555
C12 N2 1_555 1_555
C16 C17 1_555 1_555
C18 N3 1_555 1_555
C22 C23 1_555 1_555

#END
