
#######################################################################
#
#                 Cambridge Crystallographic Data Centre
#                                CCDC 
#
#######################################################################
#
# If this CIF has been generated from an entry in the Cambridge 
# Structural Database, then it will include bibliographic, chemical, 
# crystal, experimental, refinement or atomic coordinate data resulting 
# from the CCDC's data processing and validation procedures.
#
#######################################################################

data_YUVGUS
_chemical_name_common            Nakiterpiosin
_chemical_formula_moiety         'C27 H31 Br1 Cl2 O7,C4 H8 O2'
_chemical_name_systematic        
'2-Bromo-8-(1,1-dichloro-3-hydroxy-3-(4-methyl-5-oxotetrahydrofuran-2-yl)propan-2-yl)-18-hydroxy-9,13-dimethyl-17,19-dioxapentacyclo[13.3.1.0^1,13^.0^4,12^.0^5,10^]nonadeca-5,7,9-trien-11-one ethyl acetate solvate'
_symmetry_cell_setting           orthorhombic
_symmetry_space_group_name_H-M   'P 21 21 21'
_symmetry_Int_Tables_number      19
_space_group_name_Hall           'P 2ac 2ab'
loop_
_symmetry_equiv_pos_site_id
_symmetry_equiv_pos_as_xyz
1 x,y,z
2 1/2-x,-y,1/2+z
3 1/2+x,1/2-y,-z
4 -x,1/2+y,1/2-z
_cell_length_a                   7.5973(6)
_cell_length_b                   12.6018(10)
_cell_length_c                   34.196(2)
_cell_angle_alpha                90
_cell_angle_beta                 90
_cell_angle_gamma                90
_cell_volume                     3273.91
_exptl_crystal_colour            colorless
_exptl_crystal_description       laths
_cell_formula_units_Z            4
loop_
_atom_site_label
_atom_site_type_symbol
_atom_site_fract_x
_atom_site_fract_y
_atom_site_fract_z
Br1 Br 0.7490(2) 0.41240(10) 0.46195(4)
Cl1 Cl 0.5215(6) 0.0813(4) 0.76301(11)
Cl2 Cl 0.4391(6) 0.2837(3) 0.72737(13)
O1 O 0.3635(13) -0.0687(8) 0.6383(3)
O2 O 0.1491(15) -0.1920(9) 0.6412(3)
O3 O 0.7804(11) 0.0161(7) 0.6807(3)
O4 O 0.1071(11) 0.3419(7) 0.5717(3)
O5 O 0.2615(13) 0.6061(6) 0.4411(2)
O6 O 0.5611(11) 0.6405(6) 0.4381(3)
O7 O 0.4342(11) 0.6363(6) 0.5131(3)
C1 C 0.299(2) -0.1665(14) 0.6437(5)
C2 C 0.458(2) -0.2398(11) 0.6536(5)
H1 H 0.4610 -0.2482 0.6827
C3 C 0.617(2) -0.1700(13) 0.6419(6)
H2 H 0.7141 -0.1783 0.6611
H3 H 0.6616 -0.1906 0.6157
C4 C 0.554(2) -0.0584(11) 0.6414(4)
H4 H 0.6047 -0.0171 0.6192
C5 C 0.5849(18) -0.0049(10) 0.6800(4)
H5 H 0.5508 -0.0529 0.7020
C6 C 0.4919(16) 0.1058(10) 0.6844(4)
H6 H 0.3632 0.0912 0.6874
C7 C 0.5112(17) 0.1778(10) 0.6490(4)
C8 C 0.3657(17) 0.2173(10) 0.6285(4)
C9 C 0.3912(15) 0.2885(10) 0.5970(4)
C10 C 0.2671(19) 0.3490(9) 0.5732(4)
C11 C 0.3725(15) 0.4266(10) 0.5500(4)
H7 H 0.3820 0.4919 0.5664
C12 C 0.3140(15) 0.4642(9) 0.5094(4)
C13 C 0.1607(15) 0.5428(10) 0.5153(4)
H8 H 0.1125 0.5365 0.5421
H9 H 0.0651 0.5285 0.4964
C14 C 0.239(2) 0.6556(9) 0.5086(4)
H10 H 0.1937 0.7090 0.5277
C15 C 0.2124(14) 0.6908(10) 0.4653(4)
H11 H 0.0876 0.7096 0.4608
H12 H 0.2857 0.7539 0.4596
C16 C 0.4343(16) 0.5674(10) 0.4492(4)
H13 H 0.4530 0.5007 0.4339
C17 C 0.4646(16) 0.5423(10) 0.4935(4)
C18 C 0.6568(15) 0.5129(10) 0.5012(4)
H14 H 0.7278 0.5795 0.4992
C19 C 0.6928(13) 0.4644(9) 0.5413(4)
H15 H 0.8134 0.4346 0.5422
H16 H 0.6825 0.5194 0.5619
C20 C 0.5606(14) 0.3787(8) 0.5480(3)
H17 H 0.5663 0.3271 0.5259
C21 C 0.5644(17) 0.3177(10) 0.5866(4)
C22 C 0.7066(17) 0.2799(10) 0.6056(4)
H18 H 0.8219 0.3004 0.5980
C23 C 0.6809(15) 0.2104(10) 0.6366(4)
H19 H 0.7810 0.1837 0.6501
C24 C 0.439(3) -0.3481(15) 0.6364(6)
H20 H 0.3309 -0.3810 0.6460
H21 H 0.5406 -0.3917 0.6441
H22 H 0.4348 -0.3428 0.6078
C25 C 0.549(2) 0.1589(11) 0.7205(4)
H23 H 0.6776 0.1742 0.7178
C26 C 0.1768(15) 0.1888(11) 0.6409(4)
H24 H 0.0941 0.2118 0.6207
H25 H 0.1487 0.2247 0.6656
H26 H 0.1673 0.1119 0.6445
C27 C 0.257(2) 0.3755(8) 0.4811(4)
H27 H 0.3601 0.3336 0.4735
H28 H 0.2034 0.4070 0.4578
H29 H 0.1712 0.3294 0.4942
O8 O 0.951(2) -0.0768(17) 0.7396(5)
C28 C 0.991(3) -0.2843(17) 0.7321(7)
H30 H 0.8687 -0.2937 0.7235
H31 H 1.0173 -0.3356 0.7528
H32 H 1.0704 -0.2958 0.7100
O9 O 1.0909(18) -0.1724(11) 0.7833(4)
C29 C 1.015(3) -0.1707(18) 0.7479(7)
C30 C 1.116(3) -0.065(2) 0.8026(8)
H33 H 1.2231 -0.0679 0.8190
H34 H 1.1365 -0.0116 0.7819
C31 C 0.970(3) -0.0299(19) 0.8266(8)
H35 H 0.8761 -0.0021 0.8098
H36 H 1.0102 0.0261 0.8444
H37 H 0.9249 -0.0898 0.8419
loop_
_geom_bond_atom_site_label_1
_geom_bond_atom_site_label_2
_geom_bond_site_symmetry_1
_geom_bond_site_symmetry_2
Br1 C18 1_555 1_555
Cl1 C25 1_555 1_555
Cl2 C25 1_555 1_555
O1 C1 1_555 1_555
O2 C1 1_555 1_555
O3 C5 1_555 1_555
O4 C10 1_555 1_555
O5 C15 1_555 1_555
O6 C16 1_555 1_555
O7 C14 1_555 1_555
C1 C2 1_555 1_555
C2 H1 1_555 1_555
C3 C2 1_555 1_555
H2 C3 1_555 1_555
H3 C3 1_555 1_555
C4 O1 1_555 1_555
H4 C4 1_555 1_555
C5 C4 1_555 1_555
H5 C5 1_555 1_555
C6 C5 1_555 1_555
H6 C6 1_555 1_555
C7 C6 1_555 1_555
C8 C7 1_555 1_555
C9 C8 1_555 1_555
C10 C9 1_555 1_555
C11 C10 1_555 1_555
H7 C11 1_555 1_555
C12 C11 1_555 1_555
C13 C12 1_555 1_555
H8 C13 1_555 1_555
H9 C13 1_555 1_555
C14 C13 1_555 1_555
H10 C14 1_555 1_555
C15 C14 1_555 1_555
H11 C15 1_555 1_555
H12 C15 1_555 1_555
C16 O5 1_555 1_555
H13 C16 1_555 1_555
C17 O7 1_555 1_555
C18 C17 1_555 1_555
H14 C18 1_555 1_555
C19 C18 1_555 1_555
H15 C19 1_555 1_555
H16 C19 1_555 1_555
C20 C11 1_555 1_555
H17 C20 1_555 1_555
C21 C9 1_555 1_555
C22 C21 1_555 1_555
H18 C22 1_555 1_555
C23 C7 1_555 1_555
H19 C23 1_555 1_555
C24 C2 1_555 1_555
H20 C24 1_555 1_555
H21 C24 1_555 1_555
H22 C24 1_555 1_555
C25 C6 1_555 1_555
H23 C25 1_555 1_555
C26 C8 1_555 1_555
H24 C26 1_555 1_555
H25 C26 1_555 1_555
H26 C26 1_555 1_555
C27 C12 1_555 1_555
H27 C27 1_555 1_555
H28 C27 1_555 1_555
H29 C27 1_555 1_555
O8 C29 1_555 1_555
C28 H30 1_555 1_555
H31 C28 1_555 1_555
H32 C28 1_555 1_555
O9 C29 1_555 1_555
C29 C28 1_555 1_555
C30 O9 1_555 1_555
H33 C30 1_555 1_555
H34 C30 1_555 1_555
C31 C30 1_555 1_555
H35 C31 1_555 1_555
H36 C31 1_555 1_555
H37 C31 1_555 1_555
C3 C4 1_555 1_555
C12 C17 1_555 1_555
C16 C17 1_555 1_555
C19 C20 1_555 1_555
C20 C21 1_555 1_555
C22 C23 1_555 1_555

#END
