
#######################################################################
#
#                 Cambridge Crystallographic Data Centre
#                                CCDC 
#
#######################################################################
#
# If this CIF has been generated from an entry in the Cambridge 
# Structural Database, then it will include bibliographic, chemical, 
# crystal, experimental, refinement or atomic coordinate data resulting 
# from the CCDC's data processing and validation procedures.
#
#######################################################################

data_YUVHAZ
_chemical_formula_moiety         'C14 H16 Cl2 O3'
_chemical_name_systematic        
5-(3,3-Dichloro-1-hydroxy-2-(2-methylphenyl)propyl)dihydrofuran-2(3H)-one
_symmetry_cell_setting           orthorhombic
_symmetry_space_group_name_H-M   'P c a b'
_symmetry_Int_Tables_number      61
_space_group_name_Hall           '-P 2bc 2ac'
loop_
_symmetry_equiv_pos_site_id
_symmetry_equiv_pos_as_xyz
1 x,y,z
2 -x,1/2-y,1/2+z
3 1/2+x,-y,1/2-z
4 1/2-x,1/2+y,-z
5 -x,-y,-z
6 x,1/2+y,1/2-z
7 1/2-x,y,1/2+z
8 1/2+x,1/2-y,z
_cell_length_a                   9.0904(3)
_cell_length_b                   10.3490(3)
_cell_length_c                   30.9898(14)
_cell_angle_alpha                90
_cell_angle_beta                 90
_cell_angle_gamma                90
_cell_volume                     2915.41
_exptl_crystal_colour            colorless
_exptl_crystal_description       plate
_cell_formula_units_Z            8
loop_
_atom_site_label
_atom_site_type_symbol
_atom_site_fract_x
_atom_site_fract_y
_atom_site_fract_z
Cl1 Cl 0.05212(11) 0.27482(9) 0.59733(3)
Cl2 Cl 0.24253(9) 0.46342(10) 0.63786(3)
O1 O -0.0918(2) 0.5306(2) 0.53629(6)
H1 H -0.1246 0.4786 0.5188
O2 O -0.2436(2) 0.72943(19) 0.57584(6)
O3 O -0.2550(2) 0.8744(2) 0.52348(7)
C1 C 0.0966(3) 0.4429(3) 0.60058(10)
H2 H 0.1327 0.4697 0.5722
C2 C -0.0360(3) 0.5279(3) 0.61159(8)
H3 H -0.0025 0.6174 0.6085
C3 C -0.1569(3) 0.5084(3) 0.57739(8)
H4 H -0.1902 0.4184 0.5786
C4 C -0.2886(3) 0.5956(3) 0.58346(9)
H5 H -0.3265 0.5867 0.6129
C5 C -0.2910(3) 0.7700(3) 0.53703(9)
C6 C -0.3883(3) 0.6717(3) 0.51644(10)
H6 H -0.3411 0.6341 0.4913
H7 H -0.4809 0.7101 0.5077
C7 C -0.4125(3) 0.5709(3) 0.55097(10)
H8 H -0.4056 0.4845 0.5390
H9 H -0.5081 0.5814 0.5644
C8 C -0.0933(3) 0.5159(3) 0.65727(9)
C9 C -0.1780(3) 0.4087(3) 0.66852(10)
H10 H -0.1934 0.3437 0.6483
C10 C -0.2396(4) 0.3971(5) 0.70901(14)
H11 H -0.2969 0.3255 0.7158
C11 C -0.2157(5) 0.4915(5) 0.73898(13)
H12 H -0.2573 0.4847 0.7663
C12 C -0.1306(4) 0.5959(5) 0.72879(11)
H13 H -0.1125 0.6579 0.7498
C13 C -0.0698(3) 0.6124(3) 0.68767(10)
C14 C 0.0156(5) 0.7342(3) 0.67798(12)
H14 H 0.0200 0.7870 0.7034
H15 H -0.0324 0.7810 0.6553
H16 H 0.1136 0.7119 0.6691
loop_
_geom_bond_atom_site_label_1
_geom_bond_atom_site_label_2
_geom_bond_site_symmetry_1
_geom_bond_site_symmetry_2
Cl1 C1 1_555 1_555
Cl2 C1 1_555 1_555
O1 H1 1_555 1_555
O2 C4 1_555 1_555
O3 C5 1_555 1_555
C1 H2 1_555 1_555
C2 C1 1_555 1_555
H3 C2 1_555 1_555
C3 O1 1_555 1_555
H4 C3 1_555 1_555
C4 C3 1_555 1_555
H5 C4 1_555 1_555
C5 O2 1_555 1_555
C6 C5 1_555 1_555
H6 C6 1_555 1_555
H7 C6 1_555 1_555
C7 C4 1_555 1_555
H8 C7 1_555 1_555
H9 C7 1_555 1_555
C8 C2 1_555 1_555
C9 C8 1_555 1_555
H10 C9 1_555 1_555
C10 C9 1_555 1_555
H11 C10 1_555 1_555
C11 C10 1_555 1_555
H12 C11 1_555 1_555
C12 C11 1_555 1_555
H13 C12 1_555 1_555
C13 C8 1_555 1_555
C14 C13 1_555 1_555
H14 C14 1_555 1_555
H15 C14 1_555 1_555
H16 C14 1_555 1_555
C2 C3 1_555 1_555
C6 C7 1_555 1_555
C12 C13 1_555 1_555

#END
