
#######################################################################
#
#                 Cambridge Crystallographic Data Centre
#                                CCDC 
#
#######################################################################
#
# If this CIF has been generated from an entry in the Cambridge 
# Structural Database, then it will include bibliographic, chemical, 
# crystal, experimental, refinement or atomic coordinate data resulting 
# from the CCDC's data processing and validation procedures.
#
#######################################################################

data_YUVHUT
_chemical_formula_moiety         'C23 H27 Br1 O5'
_chemical_name_systematic        
2-Bromo-8-(hydroxymethyl)-9,13,18,18-tetramethyl-17,19,21-trioxahexacyclo[13.5.1.0^1,13^.0^4,12^.0^5,10^.0^16,20^]henicosa-5,7,9-trien-11-one
_symmetry_cell_setting           triclinic
_symmetry_space_group_name_H-M   'P -1'
_symmetry_Int_Tables_number      2
_space_group_name_Hall           '-P 1'
loop_
_symmetry_equiv_pos_site_id
_symmetry_equiv_pos_as_xyz
1 x,y,z
2 -x,-y,-z
_cell_length_a                   11.252(3)
_cell_length_b                   14.425(3)
_cell_length_c                   14.949(4)
_cell_angle_alpha                68.148(3)
_cell_angle_beta                 70.938(4)
_cell_angle_gamma                72.309(4)
_cell_volume                     2082.07
_exptl_crystal_colour            colorless
_exptl_crystal_description       plates
_cell_formula_units_Z            4
loop_
_atom_site_label
_atom_site_type_symbol
_atom_site_fract_x
_atom_site_fract_y
_atom_site_fract_z
Br1 Br -0.05423(3) 0.70715(2) 0.54219(2)
O1 O 0.12761(17) 0.88791(13) 0.45942(13)
O2 O 0.32032(17) 0.92809(14) 0.36540(15)
O3 O 0.33581(16) 0.71064(14) 0.47200(13)
O4 O 0.4088(2) 0.44007(15) 0.33213(14)
O5 O 0.2959(2) 0.00217(16) 0.70945(17)
C1 C 0.1232(2) 0.6757(2) 0.55887(19)
H1 H 0.1239 0.7156 0.6000
C2 C 0.2141(2) 0.71122(19) 0.45605(18)
C3 C 0.1746(2) 0.82434(19) 0.39602(19)
H2 H 0.1153 0.8347 0.3551
C4 C 0.1944(2) 0.9711(2) 0.4157(2)
C5 C 0.3078(3) 0.8507(2) 0.3328(2)
H3 H 0.3147 0.8729 0.2605
C6 C 0.3994(2) 0.7500(2) 0.3674(2)
H4 H 0.4884 0.7570 0.3562
C7 C 0.3897(3) 0.6750(2) 0.3201(2)
H5 H 0.4634 0.6173 0.3228
H6 H 0.3844 0.7092 0.2508
C8 C 0.2616(2) 0.63950(19) 0.38686(17)
C9 C 0.2943(2) 0.53091(19) 0.45609(17)
H7 H 0.3611 0.5327 0.4848
C10 C 0.3500(2) 0.4391(2) 0.41665(18)
C11 C 0.3183(2) 0.34829(19) 0.50469(18)
C12 C 0.3683(2) 0.2439(2) 0.51636(19)
C13 C 0.3230(2) 0.17454(19) 0.60856(19)
C14 C 0.2302(2) 0.2108(2) 0.68393(19)
H8 H 0.2006 0.1636 0.7449
C15 C 0.1807(2) 0.3150(2) 0.67096(18)
H9 H 0.1182 0.3378 0.7221
C16 C 0.2255(2) 0.38377(19) 0.58115(18)
C17 C 0.1836(2) 0.49900(19) 0.54605(18)
H10 H 0.1056 0.5156 0.5215
C18 C 0.1576(3) 0.5618(2) 0.61563(19)
H11 H 0.2340 0.5482 0.6401
H12 H 0.0864 0.5428 0.6729
C19 C 0.2076(3) 1.0019(2) 0.4974(2)
H13 H 0.1231 1.0300 0.5325
H14 H 0.2601 1.0530 0.4689
H15 H 0.2479 0.9426 0.5434
C20 C 0.1278(3) 1.0588(2) 0.3423(2)
H16 H 0.1206 1.0345 0.2923
H17 H 0.1776 1.1119 0.3106
H18 H 0.0427 1.0862 0.3770
C21 C 0.1707(3) 0.6477(2) 0.3257(2)
H19 H 0.2107 0.6015 0.2858
H20 H 0.1533 0.7171 0.2825
H21 H 0.0908 0.6296 0.3701
C22 C 0.4719(3) 0.2075(2) 0.4345(2)
H22 H 0.5470 0.1668 0.4595
H23 H 0.4952 0.2660 0.3790
H24 H 0.4398 0.1664 0.4126
C23 C 0.3790(3) 0.06133(19) 0.6284(2)
H25 H 0.3929 0.0425 0.5686
H26 H 0.4626 0.0458 0.6437
H53 H 0.336(4) -0.043(3) 0.743(3)
Br2 Br 0.71008(3) 0.69054(2) 0.12158(2)
O6 O 0.51433(18) 0.84076(14) -0.02232(14)
O7 O 0.43614(18) 0.86426(14) -0.15373(14)
O8 O 0.51932(16) 0.65120(13) -0.05330(12)
O9 O 0.9212(2) 0.41927(15) -0.15487(14)
O10 O 0.9719(2) -0.02460(15) 0.23910(17)
C24 C 0.6011(2) 0.63478(19) 0.08200(18)
H27 H 0.5102 0.6637 0.1088
C25 C 0.6262(2) 0.66946(18) -0.03186(17)
C26 C 0.6146(2) 0.78573(18) -0.08288(18)
H28 H 0.6974 0.8073 -0.1027
C27 C 0.4251(3) 0.9087(2) -0.0787(2)
C28 C 0.5623(2) 0.8025(2) -0.17286(19)
H29 H 0.6179 0.8343 -0.2372
C29 C 0.5575(3) 0.69365(19) -0.16076(18)
H30 H 0.4988 0.6901 -0.1958
C30 C 0.6951(3) 0.6341(2) -0.18856(19)
H31 H 0.7466 0.6758 -0.2477
H32 H 0.6960 0.5716 -0.2006
C31 C 0.7455(2) 0.60901(19) -0.09401(17)
C32 C 0.7529(2) 0.49541(18) -0.03424(17)
H33 H 0.6719 0.4799 -0.0321
C33 C 0.8607(2) 0.41274(19) -0.06976(19)
C34 C 0.8709(2) 0.32402(19) 0.02253(19)
C35 C 0.9371(2) 0.22214(19) 0.03132(19)
C36 C 0.9290(2) 0.15337(19) 0.1278(2)
C37 C 0.8597(3) 0.1865(2) 0.2104(2)
H34 H 0.8556 0.1392 0.2742
C38 C 0.7961(3) 0.2881(2) 0.20110(19)
H35 H 0.7500 0.3094 0.2575
C39 C 0.8030(2) 0.35680(19) 0.10606(18)
C40 C 0.7539(2) 0.47087(18) 0.07522(17)
H36 H 0.8195 0.5030 0.0762
C41 C 0.6240(2) 0.51902(19) 0.13008(18)
H37 H 0.6228 0.5022 0.2002
H38 H 0.5558 0.4924 0.1265
C42 C 0.2922(3) 0.9096(4) -0.0110(3)
H39 H 0.2774 0.8405 0.0180
H40 H 0.2290 0.9520 -0.0489
H41 H 0.2847 0.9369 0.0413
C43 C 0.4607(4) 1.0132(2) -0.1278(3)
H42 H 0.4549 1.0421 -0.0771
H43 H 0.4020 1.0579 -0.1689
H44 H 0.5479 1.0060 -0.1688
C44 C 0.8753(3) 0.6397(2) -0.1196(2)
H45 H 0.8983 0.6288 -0.0588
H46 H 0.8680 0.7113 -0.1582
H47 H 0.9412 0.5985 -0.1580
C45 C 1.0113(3) 0.1886(2) -0.0596(2)
H48 H 1.1014 0.1643 -0.0588
H49 H 1.0022 0.2459 -0.1189
H50 H 0.9779 0.1340 -0.0597
C46 C 0.9971(3) 0.0417(2) 0.1410(2)
H51 H 0.9720 0.0165 0.0987
H52 H 1.0899 0.0384 0.1172
H54 H 0.892(4) -0.024(3) 0.255(3)
loop_
_geom_bond_atom_site_label_1
_geom_bond_atom_site_label_2
_geom_bond_site_symmetry_1
_geom_bond_site_symmetry_2
Br1 C1 1_555 1_555
O1 C3 1_555 1_555
O2 C4 1_555 1_555
O3 C2 1_555 1_555
O4 C10 1_555 1_555
O5 C23 1_555 1_555
C1 H1 1_555 1_555
C2 C1 1_555 1_555
C3 C2 1_555 1_555
H2 C3 1_555 1_555
C4 O1 1_555 1_555
C5 O2 1_555 1_555
H3 C5 1_555 1_555
C6 O3 1_555 1_555
H4 C6 1_555 1_555
C7 C6 1_555 1_555
H5 C7 1_555 1_555
H6 C7 1_555 1_555
C8 C2 1_555 1_555
C9 C8 1_555 1_555
H7 C9 1_555 1_555
C10 C9 1_555 1_555
C11 C10 1_555 1_555
C12 C11 1_555 1_555
C13 C12 1_555 1_555
C14 C13 1_555 1_555
H8 C14 1_555 1_555
C15 C14 1_555 1_555
H9 C15 1_555 1_555
C16 C11 1_555 1_555
C17 C9 1_555 1_555
H10 C17 1_555 1_555
C18 C1 1_555 1_555
H11 C18 1_555 1_555
H12 C18 1_555 1_555
C19 C4 1_555 1_555
H13 C19 1_555 1_555
H14 C19 1_555 1_555
H15 C19 1_555 1_555
C20 C4 1_555 1_555
H16 C20 1_555 1_555
H17 C20 1_555 1_555
H18 C20 1_555 1_555
C21 C8 1_555 1_555
H19 C21 1_555 1_555
H20 C21 1_555 1_555
H21 C21 1_555 1_555
C22 C12 1_555 1_555
H22 C22 1_555 1_555
H23 C22 1_555 1_555
H24 C22 1_555 1_555
C23 C13 1_555 1_555
H25 C23 1_555 1_555
H26 C23 1_555 1_555
Br2 C24 1_555 1_555
O6 C26 1_555 1_555
O7 C27 1_555 1_555
O8 C25 1_555 1_555
O9 C33 1_555 1_555
O10 C46 1_555 1_555
C24 H27 1_555 1_555
C25 C24 1_555 1_555
C26 C25 1_555 1_555
H28 C26 1_555 1_555
C27 O6 1_555 1_555
C28 O7 1_555 1_555
H29 C28 1_555 1_555
C29 O8 1_555 1_555
H30 C29 1_555 1_555
C30 C29 1_555 1_555
H31 C30 1_555 1_555
H32 C30 1_555 1_555
C31 C25 1_555 1_555
C32 C31 1_555 1_555
H33 C32 1_555 1_555
C33 C32 1_555 1_555
C34 C33 1_555 1_555
C35 C34 1_555 1_555
C36 C35 1_555 1_555
C37 C36 1_555 1_555
H34 C37 1_555 1_555
C38 C37 1_555 1_555
H35 C38 1_555 1_555
C39 C34 1_555 1_555
C40 C32 1_555 1_555
H36 C40 1_555 1_555
C41 C24 1_555 1_555
H37 C41 1_555 1_555
H38 C41 1_555 1_555
C42 C27 1_555 1_555
H39 C42 1_555 1_555
H40 C42 1_555 1_555
H41 C42 1_555 1_555
C43 C27 1_555 1_555
H42 C43 1_555 1_555
H43 C43 1_555 1_555
H44 C43 1_555 1_555
C44 C31 1_555 1_555
H45 C44 1_555 1_555
H46 C44 1_555 1_555
H47 C44 1_555 1_555
C45 C35 1_555 1_555
H48 C45 1_555 1_555
H49 C45 1_555 1_555
H50 C45 1_555 1_555
C46 C36 1_555 1_555
H51 C46 1_555 1_555
H52 C46 1_555 1_555
H53 O5 1_555 1_555
H54 O10 1_555 1_555
C3 C5 1_555 1_555
C5 C6 1_555 1_555
C7 C8 1_555 1_555
C15 C16 1_555 1_555
C16 C17 1_555 1_555
C17 C18 1_555 1_555
C26 C28 1_555 1_555
C28 C29 1_555 1_555
C30 C31 1_555 1_555
C38 C39 1_555 1_555
C39 C40 1_555 1_555
C40 C41 1_555 1_555

#END
