
#######################################################################
#
#                 Cambridge Crystallographic Data Centre
#                                CCDC 
#
#######################################################################
#
# If this CIF has been generated from an entry in the Cambridge 
# Structural Database, then it will include bibliographic, chemical, 
# crystal, experimental, refinement or atomic coordinate data resulting 
# from the CCDC's data processing and validation procedures.
#
#######################################################################

data_YUVJAB
_chemical_formula_moiety         'C15 H17 Br1 Cl2 O3'
_chemical_name_systematic        
5-(2-(3-Bromo-2-methylphenyl)-3,3-dichloro-1-hydroxypropyl)-3-methyldihydrofuran-2(3H)-one
_symmetry_cell_setting           orthorhombic
_symmetry_space_group_name_H-M   'P b c a'
_symmetry_Int_Tables_number      61
_space_group_name_Hall           '-P 2ac 2ab'
loop_
_symmetry_equiv_pos_site_id
_symmetry_equiv_pos_as_xyz
1 x,y,z
2 1/2-x,-y,1/2+z
3 1/2+x,1/2-y,-z
4 -x,1/2+y,1/2-z
5 -x,-y,-z
6 1/2+x,y,1/2-z
7 1/2-x,1/2+y,z
8 x,1/2-y,1/2+z
_cell_length_a                   22.958(2)
_cell_length_b                   7.2742(7)
_cell_length_c                   18.915(2)
_cell_angle_alpha                90
_cell_angle_beta                 90
_cell_angle_gamma                90
_cell_volume                     3158.83
_exptl_crystal_colour            colorless
_exptl_crystal_description       needle
_cell_formula_units_Z            8
loop_
_atom_site_label
_atom_site_type_symbol
_atom_site_fract_x
_atom_site_fract_y
_atom_site_fract_z
Br1 Br 0.46978(3) 0.98254(9) 0.26086(4)
Cl1 Cl 0.45438(7) 0.3084(2) 0.40783(9)
Cl2 Cl 0.33190(7) 0.2428(2) 0.43320(10)
O1 O 0.27847(15) 0.8148(5) 0.5897(2)
C1 C 0.2840(2) 0.9432(8) 0.6412(3)
C2 C 0.3431(2) 1.0319(8) 0.6362(4)
H1 H 0.3389 1.1418 0.6049
C3 C 0.3778(2) 0.8908(8) 0.5954(3)
H2 H 0.3964 0.8010 0.6276
H3 H 0.4083 0.9503 0.5663
C4 C 0.3320(2) 0.7987(8) 0.5492(3)
H4 H 0.3279 0.8689 0.5040
C5 C 0.3394(2) 0.5961(8) 0.5327(3)
H5 H 0.3016 0.5463 0.5149
C6 C 0.3869(2) 0.5624(7) 0.4764(3)
H6 H 0.4241 0.6086 0.4973
C7 C 0.3775(2) 0.6722(7) 0.4086(3)
C8 C 0.4230(2) 0.7685(8) 0.3757(3)
C9 C 0.4101(2) 0.8620(7) 0.3136(3)
C10 C 0.3547(3) 0.8728(8) 0.2858(3)
H7 H 0.3474 0.9437 0.2446
C11 C 0.3100(3) 0.7792(8) 0.3187(3)
H8 H 0.2716 0.7840 0.3002
C12 C 0.3218(2) 0.6781(8) 0.3792(3)
H9 H 0.2912 0.6112 0.4011
O2 O 0.24463(16) 0.9753(5) 0.6805(2)
C13 C 0.3666(3) 1.1001(9) 0.7063(3)
H10 H 0.3370 1.1751 0.7299
H11 H 0.4015 1.1747 0.6981
H12 H 0.3766 0.9948 0.7363
O3 O 0.35640(16) 0.4948(5) 0.5935(2)
H13 H 0.3275 0.4805 0.6202
C14 C 0.3950(2) 0.3556(8) 0.4659(3)
H14 H 0.4046 0.3006 0.5130
C15 C 0.4840(2) 0.7754(8) 0.4058(3)
H15 H 0.5104 0.7052 0.3753
H16 H 0.4841 0.7219 0.4534
H17 H 0.4971 0.9034 0.4083
loop_
_geom_bond_atom_site_label_1
_geom_bond_atom_site_label_2
_geom_bond_site_symmetry_1
_geom_bond_site_symmetry_2
Br1 C9 1_555 1_555
Cl1 C14 1_555 1_555
Cl2 C14 1_555 1_555
O1 C1 1_555 1_555
C1 C2 1_555 1_555
C2 H1 1_555 1_555
C3 C2 1_555 1_555
H2 C3 1_555 1_555
H3 C3 1_555 1_555
C4 O1 1_555 1_555
H4 C4 1_555 1_555
C5 C4 1_555 1_555
H5 C5 1_555 1_555
C6 C5 1_555 1_555
H6 C6 1_555 1_555
C7 C6 1_555 1_555
C8 C7 1_555 1_555
C9 C8 1_555 1_555
C10 C9 1_555 1_555
H7 C10 1_555 1_555
C11 C10 1_555 1_555
H8 C11 1_555 1_555
C12 C7 1_555 1_555
H9 C12 1_555 1_555
O2 C1 1_555 1_555
C13 C2 1_555 1_555
H10 C13 1_555 1_555
H11 C13 1_555 1_555
H12 C13 1_555 1_555
O3 C5 1_555 1_555
H13 O3 1_555 1_555
C14 C6 1_555 1_555
H14 C14 1_555 1_555
C15 C8 1_555 1_555
H15 C15 1_555 1_555
H16 C15 1_555 1_555
H17 C15 1_555 1_555
C3 C4 1_555 1_555
C11 C12 1_555 1_555

#END
