
#######################################################################
#
#                 Cambridge Crystallographic Data Centre
#                                CCDC 
#
#######################################################################
#
# If this CIF has been generated from an entry in the Cambridge 
# Structural Database, then it will include bibliographic, chemical, 
# crystal, experimental, refinement or atomic coordinate data resulting 
# from the CCDC's data processing and validation procedures.
#
#######################################################################

data_YUVJIJ01
_chemical_formula_moiety         'C14 H19 Br1 O4'
_chemical_name_systematic        
2-Bromo-6,11,11-trimethyl-10,12,14-trioxatetracyclo[6.5.1.0^1,6^.0^9,13^]tetradecan-5-one
_symmetry_cell_setting           orthorhombic
_symmetry_space_group_name_H-M   'P 21 21 21'
_symmetry_Int_Tables_number      19
_space_group_name_Hall           'P 2ac 2ab'
loop_
_symmetry_equiv_pos_site_id
_symmetry_equiv_pos_as_xyz
1 x,y,z
2 1/2-x,-y,1/2+z
3 1/2+x,1/2-y,-z
4 -x,1/2+y,1/2-z
_cell_length_a                   5.7276(2)
_cell_length_b                   10.5267(6)
_cell_length_c                   22.9283(12)
_cell_angle_alpha                90
_cell_angle_beta                 90
_cell_angle_gamma                90
_cell_volume                     1382.41
_cell_formula_units_Z            4
loop_
_atom_site_label
_atom_site_type_symbol
_atom_site_fract_x
_atom_site_fract_y
_atom_site_fract_z
O1 O 0.1682(4) 0.45099(19) 0.39422(8)
O2 O 0.3475(5) 0.2118(2) 0.43752(10)
O3 O 0.5166(4) 0.2709(2) 0.35134(9)
O4 O 0.2293(5) 0.8002(2) 0.42262(12)
C1 C 0.3811(7) 0.5148(3) 0.30532(14)
H1 H 0.5106 0.4857 0.2925
Br1 Br 0.1069(2) 0.44255(14) 0.26993(6)
C2 C 0.4318(12) 0.6498(5) 0.2893(2)
H2 H 0.4039 0.6627 0.2471
H3 H 0.5977 0.6694 0.2976
C3 C 0.2733(13) 0.7392(6) 0.3248(2)
H4 H 0.3038 0.8283 0.3133
H5 H 0.1078 0.7199 0.3161
C4 C 0.3164(6) 0.7243(3) 0.38952(15)
C5 C 0.4469(5) 0.6071(3) 0.41102(14)
C6 C 0.3458(6) 0.5606(3) 0.46995(13)
H6 H 0.4700 0.5514 0.4997
H7 H 0.2247 0.6194 0.4847
C7 C 0.2419(5) 0.4330(3) 0.45400(12)
H8 H 0.1135 0.4051 0.4806
C8 C 0.4381(6) 0.3367(3) 0.44800(13)
H9 H 0.5511 0.3395 0.4812
C9 C 0.4296(6) 0.1643(3) 0.38321(13)
C10 C 0.5494(5) 0.3769(3) 0.38910(13)
H10 H 0.7170 0.4021 0.3930
C11 C 0.3907(5) 0.4882(3) 0.37109(12)
C12 C 0.7047(6) 0.6460(4) 0.41518(18)
H11 H 0.7651 0.6636 0.3760
H12 H 0.7947 0.5767 0.4328
H13 H 0.7189 0.7223 0.4394
C13 C 0.6233(6) 0.0700(3) 0.39341(14)
H14 H 0.7511 0.1114 0.4146
H15 H 0.6810 0.0387 0.3558
H16 H 0.5639 -0.0014 0.4165
C14 C 0.2247(6) 0.1084(4) 0.35058(18)
H17 H 0.1570 0.0389 0.3734
H18 H 0.2778 0.0757 0.3128
H19 H 0.1065 0.1743 0.3443
loop_
_geom_bond_atom_site_label_1
_geom_bond_atom_site_label_2
_geom_bond_site_symmetry_1
_geom_bond_site_symmetry_2
O1 C7 1_555 1_555
O2 C8 1_555 1_555
O3 C9 1_555 1_555
O4 C4 1_555 1_555
C1 H1 1_555 1_555
Br1 C1 1_555 1_555
C2 C1 1_555 1_555
H2 C2 1_555 1_555
H3 C2 1_555 1_555
C3 C2 1_555 1_555
H4 C3 1_555 1_555
H5 C3 1_555 1_555
C4 C3 1_555 1_555
C5 C4 1_555 1_555
C6 C5 1_555 1_555
H6 C6 1_555 1_555
H7 C6 1_555 1_555
C7 C6 1_555 1_555
H8 C7 1_555 1_555
C8 C7 1_555 1_555
H9 C8 1_555 1_555
C9 O2 1_555 1_555
C10 O3 1_555 1_555
H10 C10 1_555 1_555
C11 O1 1_555 1_555
C12 C5 1_555 1_555
H11 C12 1_555 1_555
H12 C12 1_555 1_555
H13 C12 1_555 1_555
C13 C9 1_555 1_555
H14 C13 1_555 1_555
H15 C13 1_555 1_555
H16 C13 1_555 1_555
C14 C9 1_555 1_555
H17 C14 1_555 1_555
H18 C14 1_555 1_555
H19 C14 1_555 1_555
C1 C11 1_555 1_555
C5 C11 1_555 1_555
C8 C10 1_555 1_555
C10 C11 1_555 1_555

#END
