
#######################################################################
#
#                 Cambridge Crystallographic Data Centre
#                                CCDC 
#
#######################################################################
#
# If this CIF has been generated from an entry in the Cambridge 
# Structural Database, then it will include bibliographic, chemical, 
# crystal, experimental, refinement or atomic coordinate data resulting 
# from the CCDC's data processing and validation procedures.
#
#######################################################################

data_YUVQIR
_chemical_formula_moiety         'C43 H41 N2 S2 1+,2(C6 H6),C1 F3 O3 S1 1-'
_chemical_name_systematic        
'1,3-dimesityl-4,5-bis(2-methyl-5-phenyl-3-thienyl)-1H-imidazol-3-ium trifluoromethanesulfonate benzene solvate'
_symmetry_cell_setting           monoclinic
_symmetry_space_group_name_H-M   'P 21/c'
_symmetry_Int_Tables_number      14
_space_group_name_Hall           '-P 2ybc'
loop_
_symmetry_equiv_pos_site_id
_symmetry_equiv_pos_as_xyz
1 x,y,z
2 -x,1/2+y,1/2-z
3 -x,-y,-z
4 x,1/2-y,1/2+z
_cell_length_a                   18.8970(10)
_cell_length_b                   16.2000(10)
_cell_length_c                   17.0190(10)
_cell_angle_alpha                90
_cell_angle_beta                 103.649(2)
_cell_angle_gamma                90
_cell_volume                     5062.92
_exptl_crystal_colour            colorless
_exptl_crystal_description       plate
_cell_formula_units_Z            4
loop_
_atom_site_label
_atom_site_type_symbol
_atom_site_fract_x
_atom_site_fract_y
_atom_site_fract_z
C1 C 0.36404(13) 0.11189(15) 0.67452(15)
C2 C 0.20679(13) 0.16372(16) 0.65794(15)
H1 H 0.2410 0.1971 0.6917
C3 C 0.40752(14) 0.24910(16) 0.67058(17)
H2 H 0.4259 0.2976 0.6968
C4 C 0.41495(15) -0.24922(17) 0.96319(16)
C5 C 0.13784(14) 0.28087(16) 0.57470(15)
C6 C 0.38983(14) -0.19458(15) 0.82641(15)
C7 C 0.41344(14) -0.25789(15) 0.88124(16)
H3 H 0.4286 -0.3074 0.8629
C8 C 0.38093(14) -0.00583(15) 0.76877(15)
H4 H 0.4315 -0.0072 0.7801
C9 C 0.20707(14) 0.07574(15) 0.66366(15)
C10 C 0.15178(14) 0.19423(16) 0.59837(15)
C11 C 0.19581(15) 0.33554(17) 0.58224(16)
H5 H 0.2432 0.3163 0.6004
C12 C 0.15026(15) 0.04004(16) 0.60901(16)
C13 C 0.37153(15) 0.17067(18) 0.54921(16)
H6 H 0.3662 0.1663 0.4936
C14 C 0.20470(14) -0.16653(16) 0.80020(15)
H7 H 0.2381 -0.2012 0.7845
C15 C 0.39215(14) 0.18283(16) 0.71587(15)
C16 C 0.39312(15) -0.17512(17) 0.99023(16)
H8 H 0.3951 -0.1687 1.0450
C17 C 0.13267(16) -0.28116(17) 0.84565(16)
C18 C 0.26575(13) -0.03508(15) 0.76888(15)
C19 C 0.36833(14) -0.11006(16) 0.93778(16)
C20 C 0.15214(15) -0.04074(17) 0.82032(16)
C21 C 0.06738(15) 0.31075(18) 0.54562(17)
H9 H 0.0280 0.2750 0.5397
C22 C 0.39601(15) 0.24426(17) 0.58694(17)
C23 C 0.38901(16) -0.20524(17) 0.73814(16)
H10 H 0.4256 -0.1706 0.7246
H11 H 0.3420 -0.1901 0.7057
H12 H 0.3989 -0.2619 0.7279
C24 C 0.26551(13) 0.02964(15) 0.71748(15)
C25 C 0.18391(16) 0.41846(17) 0.56305(17)
H13 H 0.2231 0.4546 0.5694
C26 C 0.18956(17) -0.33779(18) 0.86627(17)
H14 H 0.2373 -0.3199 0.8727
C27 C 0.35455(14) 0.10268(16) 0.59158(16)
C28 C 0.05562(16) 0.39324(19) 0.52542(18)
H15 H 0.0084 0.4124 0.5057
C29 C 0.14862(14) -0.19478(17) 0.83038(15)
C30 C 0.40462(18) 0.18956(19) 0.80658(17)
H16 H 0.4142 0.2460 0.8226
H17 H 0.4455 0.1560 0.8319
H18 H 0.3620 0.1709 0.8229
C31 C 0.06166(17) -0.3094(2) 0.83854(19)
H19 H 0.0229 -0.2725 0.8261
C32 C 0.13712(18) 0.04953(18) 0.82649(19)
H20 H 0.1823 0.0789 0.8425
H21 H 0.1090 0.0580 0.8660
H22 H 0.1103 0.0695 0.7749
C33 C 0.11347(17) 0.44714(18) 0.53436(17)
H23 H 0.1052 0.5026 0.5212
C34 C 0.40744(18) 0.31923(19) 0.5391(2)
H24 H 0.3644 0.3529 0.5289
H25 H 0.4171 0.3022 0.4887
H26 H 0.4480 0.3504 0.5693
C35 C 0.13152(19) -0.04960(19) 0.59578(19)
H27 H 0.1754 -0.0818 0.6071
H28 H 0.1057 -0.0581 0.5406
H29 H 0.1014 -0.0663 0.6312
C36 C 0.3442(2) -0.02993(19) 0.96809(18)
H30 H 0.3642 0.0154 0.9441
H31 H 0.3612 -0.0274 1.0258
H32 H 0.2920 -0.0268 0.9537
C37 C 0.1759(2) -0.4199(2) 0.8772(2)
H33 H 0.2144 -0.4572 0.8903
C38 C 0.0489(2) -0.3925(2) 0.8500(2)
H34 H 0.0014 -0.4111 0.8447
C39 C 0.4412(2) -0.3193(2) 1.0211(2)
H35 H 0.4431 -0.3014 1.0753
H36 H 0.4890 -0.3359 1.0169
H37 H 0.4083 -0.3651 1.0078
C40 C 0.1054(2) -0.4472(2) 0.8689(2)
H38 H 0.0964 -0.5027 0.8761
C41 C 0.3259(2) 0.0244(2) 0.54813(19)
H39 H 0.3452 -0.0222 0.5811
H40 H 0.3406 0.0215 0.4979
H41 H 0.2737 0.0238 0.5377
C42 C 0.36701(13) -0.12198(14) 0.85633(15)
C43 C 0.20750(14) -0.07917(15) 0.79497(15)
N1 N 0.33857(11) 0.04670(12) 0.71917(12)
N2 N 0.33890(11) -0.05634(12) 0.79965(12)
S1 S 0.09903(4) 0.11416(5) 0.54914(4)
S2 S 0.09751(4) -0.11280(5) 0.85126(4)
C44 C 0.2025(2) -0.3839(2) 0.6638(2)
H42 H 0.2236 -0.4249 0.7001
C45 C 0.2412(2) -0.3497(2) 0.6139(2)
H43 H 0.2884 -0.3677 0.6165
C46 C 0.2115(2) -0.2890(2) 0.5602(2)
H44 H 0.2382 -0.2663 0.5260
C47 C 0.1336(2) -0.3586(2) 0.6608(2)
H45 H 0.1072 -0.3828 0.6944
C48 C 0.1427(2) -0.2623(2) 0.5571(2)
H46 H 0.1223 -0.2208 0.5210
C49 C 0.1026(2) -0.2968(3) 0.6078(2)
H47 H 0.0556 -0.2785 0.6060
C50 C 0.58866(19) -0.0052(2) 0.6695(2)
O1 O 0.57474(15) 0.08144(14) 0.79030(16)
O2 O 0.53189(11) -0.05915(14) 0.78049(17)
O3 O 0.66069(12) -0.03274(16) 0.81422(14)
F1 F 0.59826(14) -0.08202(14) 0.64513(14)
F2 F 0.52637(13) 0.02253(16) 0.62449(14)
F3 F 0.64149(13) 0.04082(15) 0.65268(14)
S3 S 0.58973(4) -0.00320(4) 0.77628(5)
C51 C 0.1256(2) 0.2723(3) 0.8639(2)
H48 H 0.1006 0.2386 0.8925
C52 C 0.1996(3) 0.3713(2) 0.7804(2)
H49 H 0.2249 0.4049 0.7521
C53 C 0.1992(2) 0.2721(3) 0.8822(2)
H50 H 0.2249 0.2382 0.9233
C54 C 0.1254(3) 0.3716(3) 0.7614(2)
H51 H 0.1000 0.4054 0.7201
C55 C 0.2362(2) 0.3220(3) 0.8403(2)
H52 H 0.2868 0.3219 0.8534
C56 C 0.0879(2) 0.3219(3) 0.8033(2)
H53 H 0.0373 0.3221 0.7905
loop_
_geom_bond_atom_site_label_1
_geom_bond_atom_site_label_2
_geom_bond_site_symmetry_1
_geom_bond_site_symmetry_2
C1 C15 1_555 1_555
C2 H1 1_555 1_555
C3 H2 1_555 1_555
C4 C7 1_555 1_555
C5 C10 1_555 1_555
C6 C7 1_555 1_555
C7 H3 1_555 1_555
C8 H4 1_555 1_555
C9 C2 1_555 1_555
C10 C2 1_555 1_555
C11 C5 1_555 1_555
H5 C11 1_555 1_555
C12 C9 1_555 1_555
C13 H6 1_555 1_555
C14 H7 1_555 1_555
C15 C3 1_555 1_555
C16 C4 1_555 1_555
H8 C16 1_555 1_555
C17 C26 1_555 1_555
C18 C24 1_555 1_555
C19 C16 1_555 1_555
C20 C32 1_555 1_555
C21 C5 1_555 1_555
H9 C21 1_555 1_555
C22 C3 1_555 1_555
C23 C6 1_555 1_555
H10 C23 1_555 1_555
H11 C23 1_555 1_555
H12 C23 1_555 1_555
C24 C9 1_555 1_555
C25 C11 1_555 1_555
H13 C25 1_555 1_555
C26 H14 1_555 1_555
C27 C1 1_555 1_555
C28 C21 1_555 1_555
H15 C28 1_555 1_555
C29 C14 1_555 1_555
C30 C15 1_555 1_555
H16 C30 1_555 1_555
H17 C30 1_555 1_555
H18 C30 1_555 1_555
C31 C17 1_555 1_555
H19 C31 1_555 1_555
C32 H20 1_555 1_555
H21 C32 1_555 1_555
H22 C32 1_555 1_555
C33 C25 1_555 1_555
H23 C33 1_555 1_555
C34 C22 1_555 1_555
H24 C34 1_555 1_555
H25 C34 1_555 1_555
H26 C34 1_555 1_555
C35 C12 1_555 1_555
H27 C35 1_555 1_555
H28 C35 1_555 1_555
H29 C35 1_555 1_555
C36 C19 1_555 1_555
H30 C36 1_555 1_555
H31 C36 1_555 1_555
H32 C36 1_555 1_555
C37 C26 1_555 1_555
H33 C37 1_555 1_555
C38 C31 1_555 1_555
H34 C38 1_555 1_555
C39 C4 1_555 1_555
H35 C39 1_555 1_555
H36 C39 1_555 1_555
H37 C39 1_555 1_555
C40 C37 1_555 1_555
H38 C40 1_555 1_555
C41 C27 1_555 1_555
H39 C41 1_555 1_555
H40 C41 1_555 1_555
H41 C41 1_555 1_555
C42 C6 1_555 1_555
C43 C14 1_555 1_555
N1 C1 1_555 1_555
N2 C8 1_555 1_555
S1 C10 1_555 1_555
S2 C20 1_555 1_555
C44 H42 1_555 1_555
C45 C44 1_555 1_555
H43 C45 1_555 1_555
C46 C45 1_555 1_555
H44 C46 1_555 1_555
C47 C44 1_555 1_555
H45 C47 1_555 1_555
C48 C46 1_555 1_555
H46 C48 1_555 1_555
C49 C47 1_555 1_555
H47 C49 1_555 1_555
C50 F1 1_555 1_555
O1 S3 1_555 1_555
O2 S3 1_555 1_555
O3 S3 1_555 1_555
F2 C50 1_555 1_555
F3 C50 1_555 1_555
S3 C50 1_555 1_555
C51 H48 1_555 1_555
C52 H49 1_555 1_555
C53 C51 1_555 1_555
H50 C53 1_555 1_555
C54 C52 1_555 1_555
H51 C54 1_555 1_555
C55 C52 1_555 1_555
H52 C55 1_555 1_555
C56 C51 1_555 1_555
H53 C56 1_555 1_555
C8 N1 1_555 1_555
C12 S1 1_555 1_555
C13 C22 1_555 1_555
C13 C27 1_555 1_555
C17 C29 1_555 1_555
C18 C43 1_555 1_555
C18 N2 1_555 1_555
C19 C42 1_555 1_555
C20 C43 1_555 1_555
C24 N1 1_555 1_555
C28 C33 1_555 1_555
C29 S2 1_555 1_555
C38 C40 1_555 1_555
C42 N2 1_555 1_555
C48 C49 1_555 1_555
C53 C55 1_555 1_555
C54 C56 1_555 1_555

#END
