
#######################################################################
#
#                 Cambridge Crystallographic Data Centre
#                                CCDC 
#
#######################################################################
#
# If this CIF has been generated from an entry in the Cambridge 
# Structural Database, then it will include bibliographic, chemical, 
# crystal, experimental, refinement or atomic coordinate data resulting 
# from the CCDC's data processing and validation procedures.
#
#######################################################################

data_YUVTUG
_chemical_name_common            
'ethyl 2-phenyl-3-(4-(trifluoromethyl)phenylamino)cyclohex-1-enecarboxylate'
_chemical_formula_moiety         'C22 H22 F3 N1 O2'
_chemical_name_systematic        
'ethyl 2-phenyl-3-((4-(trifluoromethyl)phenyl)amino)cyclohex-1-ene-1-carboxylate'
_symmetry_cell_setting           triclinic
_symmetry_space_group_name_H-M   'P -1'
_symmetry_Int_Tables_number      2
_space_group_name_Hall           '-P 1'
loop_
_symmetry_equiv_pos_site_id
_symmetry_equiv_pos_as_xyz
1 x,y,z
2 -x,-y,-z
_cell_length_a                   8.791(3)
_cell_length_b                   10.477(4)
_cell_length_c                   11.528(4)
_cell_angle_alpha                79.669(11)
_cell_angle_beta                 76.422(10)
_cell_angle_gamma                70.730(8)
_cell_volume                     968.247
_exptl_crystal_colour            colorless
_exptl_crystal_description       block
_cell_formula_units_Z            2
_exptl_crystal_recrystallization_method 'Vapour Deposition'
loop_
_atom_site_label
_atom_site_type_symbol
_atom_site_fract_x
_atom_site_fract_y
_atom_site_fract_z
F1 F 0.7718(2) 1.07523(17) 0.44593(18)
F2 F 0.9950(2) 0.9283(2) 0.3760(2)
F3 F 0.8345(3) 0.8748(2) 0.53320(19)
O1 O 0.1056(2) 0.48724(19) 0.16510(18)
O2 O 0.2445(2) 0.4730(2) -0.02467(19)
N1 N 0.5031(3) 0.7749(2) 0.1455(2)
H1 H 0.5620 0.7264 0.0864
C1 C 0.5015(3) 0.9303(3) 0.2793(3)
H2 H 0.3889 0.9773 0.2788
C2 C 0.2880(3) 0.6745(3) 0.1628(3)
C3 C 0.5857(3) 0.9715(3) 0.3461(3)
H3 H 0.5302 1.0467 0.3912
C4 C 0.5823(3) 0.8195(3) 0.2128(3)
C5 C 0.3401(3) 0.5620(3) 0.2575(3)
C6 C 0.8377(4) 0.9456(3) 0.4230(3)
C7 C 0.7481(3) 0.7529(3) 0.2143(3)
H4 H 0.8046 0.6784 0.1685
C8 C 0.3245(3) 0.8056(3) 0.1690(3)
H5 H 0.2815 0.8306 0.2529
C9 C 0.7496(3) 0.9043(3) 0.3477(3)
C10 C 0.4532(3) 0.4387(3) 0.2254(3)
H6 H 0.4962 0.4271 0.1430
C11 C 0.1938(3) 0.5307(3) 0.0652(3)
C12 C 0.2644(4) 0.8807(3) -0.0383(3)
H7 H 0.3827 0.8439 -0.0719
H8 H 0.2163 0.9603 -0.0933
C13 C 0.2219(3) 0.6626(3) 0.0732(3)
C14 C 0.5033(4) 0.3332(3) 0.3128(3)
H9 H 0.5809 0.2498 0.2901
C15 C 0.8310(4) 0.7940(3) 0.2815(3)
H10 H 0.9435 0.7470 0.2827
C16 C 0.2819(4) 0.5771(3) 0.3784(3)
H11 H 0.2079 0.6615 0.4020
C17 C 0.2429(4) 0.9241(3) 0.0845(3)
H12 H 0.2917 0.9986 0.0766
H13 H 0.1244 0.9589 0.1184
C18 C 0.0932(4) 0.3503(3) 0.1710(3)
H14 H 0.1991 0.2813 0.1811
H15 H 0.0644 0.3389 0.0962
C19 C 0.3300(4) 0.4710(3) 0.4649(3)
H16 H 0.2867 0.4818 0.5474
C20 C 0.4413(4) 0.3488(3) 0.4319(3)
H17 H 0.4746 0.2758 0.4917
C21 C 0.1797(4) 0.7720(3) -0.0281(3)
H18 H 0.0594 0.8152 -0.0148
H19 H 0.2133 0.7305 -0.1044
C22 C -0.0377(4) 0.3342(3) 0.2761(3)
H20 H -0.0097 0.3491 0.3489
H21 H -0.0467 0.2420 0.2849
H22 H -0.1426 0.4007 0.2634
loop_
_geom_bond_atom_site_label_1
_geom_bond_atom_site_label_2
_geom_bond_site_symmetry_1
_geom_bond_site_symmetry_2
F1 C6 1_555 1_555
F2 C6 1_555 1_555
F3 C6 1_555 1_555
O1 C11 1_555 1_555
O2 C11 1_555 1_555
N1 H1 1_555 1_555
C1 H2 1_555 1_555
C2 C5 1_555 1_555
C3 C1 1_555 1_555
H3 C3 1_555 1_555
C4 N1 1_555 1_555
C5 C10 1_555 1_555
C6 C9 1_555 1_555
C7 C4 1_555 1_555
H4 C7 1_555 1_555
C8 N1 1_555 1_555
H5 C8 1_555 1_555
C9 C3 1_555 1_555
C10 H6 1_555 1_555
C11 C13 1_555 1_555
C12 H7 1_555 1_555
H8 C12 1_555 1_555
C13 C2 1_555 1_555
C14 C10 1_555 1_555
H9 C14 1_555 1_555
C15 C7 1_555 1_555
H10 C15 1_555 1_555
C16 C5 1_555 1_555
H11 C16 1_555 1_555
C17 C8 1_555 1_555
H12 C17 1_555 1_555
H13 C17 1_555 1_555
C18 O1 1_555 1_555
H14 C18 1_555 1_555
H15 C18 1_555 1_555
C19 C16 1_555 1_555
H16 C19 1_555 1_555
C20 C14 1_555 1_555
H17 C20 1_555 1_555
C21 C12 1_555 1_555
H18 C21 1_555 1_555
H19 C21 1_555 1_555
C22 C18 1_555 1_555
H20 C22 1_555 1_555
H21 C22 1_555 1_555
H22 C22 1_555 1_555
C1 C4 1_555 1_555
C2 C8 1_555 1_555
C9 C15 1_555 1_555
C12 C17 1_555 1_555
C13 C21 1_555 1_555
C19 C20 1_555 1_555

#END
