
#######################################################################
#
#                 Cambridge Crystallographic Data Centre
#                                CCDC 
#
#######################################################################
#
# If this CIF has been generated from an entry in the Cambridge 
# Structural Database, then it will include bibliographic, chemical, 
# crystal, experimental, refinement or atomic coordinate data resulting 
# from the CCDC's data processing and validation procedures.
#
#######################################################################

data_YUVYIX
_chemical_formula_moiety         'C28 H38 K1 N3'
_chemical_name_systematic        
(N,N,N',N'',N''-Pentamethyldiethylenetriamine)-triphenylmethyl-potassium
_symmetry_cell_setting           monoclinic
_symmetry_space_group_name_H-M   'C c'
_symmetry_Int_Tables_number      9
_space_group_name_Hall           'C -2yc'
loop_
_symmetry_equiv_pos_site_id
_symmetry_equiv_pos_as_xyz
1 x,y,z
2 x,-y,1/2+z
3 1/2+x,1/2+y,z
4 1/2+x,1/2-y,1/2+z
_cell_length_a                   10.127(2)
_cell_length_b                   19.658(4)
_cell_length_c                   13.492(3)
_cell_angle_alpha                90
_cell_angle_beta                 108.36(3)
_cell_angle_gamma                90
_cell_volume                     2549.22
_exptl_crystal_colour            'light red'
_cell_formula_units_Z            4
loop_
_atom_site_label
_atom_site_type_symbol
_atom_site_fract_x
_atom_site_fract_y
_atom_site_fract_z
K1 K 0.8372 0.0898(1) 0.5448
C1 C 0.7532(3) -0.0125(2) 0.6712(2)
C2 C 0.7694(3) 0.0459(2) 0.7400(2)
C3 C 0.6780(4) 0.1025(2) 0.7152(3)
C4 C 0.6956(4) 0.1595(2) 0.7806(3)
C5 C 0.8062(4) 0.1627(2) 0.8737(3)
C6 C 0.8972(4) 0.1086(2) 0.9001(3)
C7 C 0.8789(4) 0.0516(2) 0.8369(3)
C8 C 0.8700(3) -0.0574(2) 0.6775(2)
C9 C 1.0102(4) -0.0356(2) 0.7058(2)
C10 C 1.1201(4) -0.0794(2) 0.7135(3)
C11 C 1.0956(4) -0.1487(2) 0.6924(3)
C12 C 0.9596(4) -0.1719(2) 0.6632(3)
C13 C 0.8498(3) -0.1281(2) 0.6551(2)
C14 C 0.6187(3) -0.0266(2) 0.5931(2)
C15 C 0.6085(4) -0.0492(2) 0.4908(3)
C16 C 0.4811(4) -0.0618(2) 0.4158(3)
C17 C 0.3573(4) -0.0536(2) 0.4380(3)
C18 C 0.3641(4) -0.0328(2) 0.5380(3)
C19 C 0.4908(4) -0.0191(2) 0.6128(2)
C20 C 1.2377(4) 0.1177(2) 0.6539(3)
C21 C 1.1109(4) 0.1028(2) 0.4732(3)
N1 N 1.1181(3) 0.1406(1) 0.5680(2)
C22 C 1.1310(4) 0.2136(2) 0.5530(4)
C23 C 1.0057(4) 0.2442(2) 0.4714(4)
N2 N 0.8729(3) 0.2275(2) 0.4872(2)
C24 C 0.8653(6) 0.2542(3) 0.5860(3)
C25 C 0.7584(4) 0.2530(2) 0.3994(3)
C26 C 0.6151(4) 0.2308(2) 0.4024(3)
N3 N 0.6024(3) 0.1577(2) 0.4163(2)
C27 C 0.4680(4) 0.1431(2) 0.4305(4)
C28 C 0.6164(6) 0.1195(2) 0.3279(3)
H1 H 0.6021(4) 0.1017(2) 0.6522(3)
H2 H 0.6317(4) 0.1963(2) 0.7615(3)
H3 H 0.8185(4) 0.2014(2) 0.9179(3)
H4 H 0.9737(4) 0.1105(2) 0.9627(3)
H5 H 0.9420(4) 0.0147(2) 0.8590(3)
H6 H 1.0298(4) 0.0113(2) 0.7203(2)
H7 H 1.2124(4) -0.0623(2) 0.7331(3)
H8 H 1.1704(4) -0.1791(2) 0.6979(3)
H9 H 0.9413(4) -0.2188(2) 0.6483(3)
H10 H 0.7578(3) -0.1458(2) 0.6340(2)
H11 H 0.6914(4) -0.0559(2) 0.4732(3)
H12 H 0.4787(4) -0.0763(2) 0.3480(3)
H13 H 0.2703(4) -0.0620(2) 0.3863(3)
H14 H 0.2806(4) -0.0280(2) 0.5553(3)
H15 H 0.4914(4) -0.0040(2) 0.6799(2)
H16 H 1.2398(21) 0.1418(13) 0.7179(6)
H17 H 1.3234(5) 0.1273(16) 0.6373(12)
H18 H 1.2303(19) 0.0687(4) 0.6641(18)
H19 H 1.0278(20) 0.1167(13) 0.4167(8)
H20 H 1.1062(37) 0.0540(2) 0.4862(9)
H21 H 1.1940(18) 0.1125(14) 0.4532(16)
H22 H 1.2148(4) 0.2218(2) 0.5319(4)
H23 H 1.1446(4) 0.2371(2) 0.6204(4)
H24 H 1.0163(4) 0.2943(2) 0.4725(4)
H25 H 1.0038(4) 0.2280(2) 0.4016(4)
H26 H 0.9427(21) 0.2361(14) 0.6435(4)
H27 H 0.7769(17) 0.2405(15) 0.5954(13)
H28 H 0.8711(36) 0.3039(3) 0.5855(11)
H29 H 0.7709(4) 0.2367(2) 0.3335(3)
H30 H 0.7622(4) 0.3033(2) 0.3992(3)
H31 H 0.5946(4) 0.2549(2) 0.4603(3)
H32 H 0.5443(4) 0.2448(2) 0.3365(3)
H33 H 0.4629(14) 0.1657(14) 0.4939(15)
H34 H 0.4578(15) 0.0939(3) 0.4370(26)
H35 H 0.3930(5) 0.1600(15) 0.3701(13)
H36 H 0.7105(12) 0.1257(14) 0.3235(16)
H37 H 0.5482(24) 0.1360(12) 0.2634(5)
H38 H 0.6001(35) 0.0711(3) 0.3371(13)
loop_
_geom_bond_atom_site_label_1
_geom_bond_atom_site_label_2
_geom_bond_site_symmetry_1
_geom_bond_site_symmetry_2
K1 C1 1_555 1_555
C1 C2 1_555 1_555
C2 C3 1_555 1_555
C3 C4 1_555 1_555
C4 C5 1_555 1_555
C5 C6 1_555 1_555
C6 C7 1_555 1_555
C7 C2 1_555 1_555
C8 C1 1_555 1_555
C9 C8 1_555 1_555
C10 C9 1_555 1_555
C11 C10 1_555 1_555
C12 C11 1_555 1_555
C13 C8 1_555 1_555
C14 C1 1_555 1_555
C15 C14 1_555 1_555
C16 C15 1_555 1_555
C17 C16 1_555 1_555
C18 C17 1_555 1_555
C19 C14 1_555 1_555
C20 N1 1_555 1_555
C21 N1 1_555 1_555
N1 K1 1_555 1_555
C22 N1 1_555 1_555
C23 C22 1_555 1_555
N2 K1 1_555 1_555
C24 N2 1_555 1_555
C25 N2 1_555 1_555
C26 C25 1_555 1_555
N3 K1 1_555 1_555
C27 N3 1_555 1_555
C28 N3 1_555 1_555
H1 C3 1_555 1_555
H2 C4 1_555 1_555
H3 C5 1_555 1_555
H4 C6 1_555 1_555
H5 C7 1_555 1_555
H6 C9 1_555 1_555
H7 C10 1_555 1_555
H8 C11 1_555 1_555
H9 C12 1_555 1_555
H10 C13 1_555 1_555
H11 C15 1_555 1_555
H12 C16 1_555 1_555
H13 C17 1_555 1_555
H14 C18 1_555 1_555
H15 C19 1_555 1_555
H16 C20 1_555 1_555
H17 C20 1_555 1_555
H18 C20 1_555 1_555
H19 C21 1_555 1_555
H20 C21 1_555 1_555
H21 C21 1_555 1_555
H22 C22 1_555 1_555
H23 C22 1_555 1_555
H24 C23 1_555 1_555
H25 C23 1_555 1_555
H26 C24 1_555 1_555
H27 C24 1_555 1_555
H28 C24 1_555 1_555
H29 C25 1_555 1_555
H30 C25 1_555 1_555
H31 C26 1_555 1_555
H32 C26 1_555 1_555
H33 C27 1_555 1_555
H34 C27 1_555 1_555
H35 C27 1_555 1_555
H36 C28 1_555 1_555
H37 C28 1_555 1_555
H38 C28 1_555 1_555
C12 C13 1_555 1_555
C18 C19 1_555 1_555
C23 N2 1_555 1_555
C26 N3 1_555 1_555

#END
