
#######################################################################
#
#                 Cambridge Crystallographic Data Centre
#                                CCDC 
#
#######################################################################
#
# If this CIF has been generated from an entry in the Cambridge 
# Structural Database, then it will include bibliographic, chemical, 
# crystal, experimental, refinement or atomic coordinate data resulting 
# from the CCDC's data processing and validation procedures.
#
#######################################################################

data_YUWVAO
_chemical_formula_moiety         'C76 H80 N4 O6,Cs1 1+,N1 O3 1-,3(C1 H4 O1)'
_chemical_name_systematic        
'25,27-dipropoxy-26,28-((5,10,10,15,20,20-hexamethylporphyrin-5,15-diyl)bis(2-(1,4-phenyleneoxy)ethoxy))calix(4)arene cesium nitrate methanol solvate'
_symmetry_cell_setting           orthorhombic
_symmetry_space_group_name_H-M   'P b c a'
_symmetry_Int_Tables_number      61
_space_group_name_Hall           '-P 2ac 2ab'
loop_
_symmetry_equiv_pos_site_id
_symmetry_equiv_pos_as_xyz
1 x,y,z
2 1/2-x,-y,1/2+z
3 1/2+x,1/2-y,-z
4 -x,1/2+y,1/2-z
5 -x,-y,-z
6 1/2+x,y,1/2-z
7 1/2-x,1/2+y,z
8 x,1/2-y,1/2+z
_cell_length_a                   35.413(3)
_cell_length_b                   22.233(3)
_cell_length_c                   19.854(5)
_cell_angle_alpha                90
_cell_angle_beta                 90
_cell_angle_gamma                90
_cell_volume                     15631.8
_exptl_crystal_colour            colorless
_exptl_crystal_description       plate
_cell_formula_units_Z            8
loop_
_atom_site_label
_atom_site_type_symbol
_atom_site_fract_x
_atom_site_fract_y
_atom_site_fract_z
O1 O 0.2931(2) 0.2200(3) 0.0776(4)
O2 O 0.35713(17) 0.2866(3) 0.0511(3)
O3 O 0.4535(2) -0.0070(3) 0.0296(4)
O4 O 0.4483(2) 0.1127(3) 0.1012(3)
O5 O 0.45189(18) 0.2866(3) 0.1969(4)
O6 O 0.4682(2) 0.2647(3) -0.0269(3)
N1 N 0.2267(3) -0.0363(4) -0.0196(5)
H1 H 0.2487 -0.0297 -0.0018
N2 N 0.2943(2) -0.1403(4) -0.0338(4)
H2 H 0.2950 -0.1087 -0.0079
N3 N 0.3039(2) -0.1480(4) 0.1357(5)
H3 H 0.3095 -0.1113 0.1243
N4 N 0.2324(3) -0.0507(4) 0.1470(5)
H4 H 0.2520 -0.0477 0.1209
C1 C 0.1933(3) -0.0183(5) 0.0087(6)
C2 C 0.1646(3) -0.0356(5) -0.0333(6)
H5 H 0.1387 -0.0283 -0.0272
C3 C 0.1816(4) -0.0665(5) -0.0878(6)
H6 H 0.1681 -0.0843 -0.1235
C4 C 0.2212(4) -0.0671(5) -0.0818(6)
C5 C 0.2536(4) -0.0886(6) -0.1243(6)
C6 C 0.2728(3) -0.1428(6) -0.0937(6)
C7 C 0.2787(3) -0.2008(6) -0.1141(6)
H7 H 0.2675 -0.2189 -0.1520
C8 C 0.3048(3) -0.2303(6) -0.0686(7)
H8 H 0.3138 -0.2699 -0.0732
C9 C 0.3141(3) -0.1929(6) -0.0198(7)
C10 C 0.3409(3) -0.1972(5) 0.0349(6)
C11 C 0.3169(3) -0.1986(6) 0.1010(6)
C12 C 0.3009(3) -0.2442(6) 0.1387(6)
H9 H 0.3043 -0.2852 0.1290
C13 C 0.2793(3) -0.2237(6) 0.1920(6)
H10 H 0.2658 -0.2474 0.2230
C14 C 0.2812(3) -0.1627(5) 0.1908(5)
C15 C 0.2654(3) -0.1135(6) 0.2368(6)
C16 C 0.2308(4) -0.0835(5) 0.2088(6)
C17 C 0.1948(3) -0.0724(5) 0.2342(5)
H11 H 0.1855 -0.0882 0.2750
C18 C 0.1746(3) -0.0355(5) 0.1922(6)
H12 H 0.1502 -0.0207 0.2001
C19 C 0.1969(4) -0.0239(6) 0.1349(7)
C20 C 0.1910(3) 0.0176(5) 0.0736(7)
C21 C 0.2364(3) -0.1100(5) -0.1920(5)
H13 H 0.2555 -0.1313 -0.2177
H14 H 0.2278 -0.0754 -0.2175
H15 H 0.2153 -0.1365 -0.1832
C22 C 0.2822(3) -0.0379(5) -0.1362(5)
H16 H 0.2937 -0.0265 -0.0937
H17 H 0.2694 -0.0034 -0.1556
H18 H 0.3017 -0.0517 -0.1670
C23 C 0.3624(3) -0.2559(5) 0.0311(5)
H19 H 0.3755 -0.2628 0.0733
H20 H 0.3806 -0.2540 -0.0053
H21 H 0.3449 -0.2887 0.0229
C24 C 0.2552(3) -0.1433(5) 0.3062(5)
H22 H 0.2457 -0.1128 0.3368
H23 H 0.2776 -0.1618 0.3253
H24 H 0.2359 -0.1738 0.2994
C25 C 0.2962(3) -0.0652(5) 0.2512(5)
H25 H 0.3001 -0.0409 0.2112
H26 H 0.3197 -0.0849 0.2634
H27 H 0.2880 -0.0396 0.2880
C26 C 0.1505(3) 0.0490(5) 0.0837(5)
H28 H 0.1460 0.0773 0.0473
H29 H 0.1500 0.0702 0.1264
H30 H 0.1309 0.0185 0.0834
C27 C 0.2205(3) 0.0714(5) 0.0740(6)
C28 C 0.2264(3) 0.1047(5) 0.0114(6)
H31 H 0.2150 0.0919 -0.0289
C29 C 0.2488(3) 0.1546(5) 0.0127(5)
H32 H 0.2503 0.1789 -0.0259
C30 C 0.2689(3) 0.1703(5) 0.0684(7)
C31 C 0.2663(3) 0.1388(5) 0.1284(5)
H33 H 0.2792 0.1513 0.1673
C32 C 0.2429(3) 0.0862(5) 0.1283(5)
H34 H 0.2428 0.0610 0.1663
C33 C 0.2929(3) 0.2640(5) 0.0243(5)
H35 H 0.2674 0.2800 0.0175
H36 H 0.3016 0.2460 -0.0180
C34 C 0.3192(3) 0.3127(5) 0.0462(5)
H37 H 0.3190 0.3457 0.0134
H38 H 0.3113 0.3287 0.0900
C35 C 0.3839(3) 0.3315(5) 0.0567(8)
C36 C 0.4056(3) 0.3476(6) -0.0057(7)
C37 C 0.4312(4) 0.3991(6) 0.0013(7)
H39 H 0.4441 0.4133 -0.0369
C38 C 0.4366(4) 0.4260(6) 0.0598(8)
H40 H 0.4522 0.4602 0.0609
C39 C 0.4205(4) 0.4063(6) 0.1201(8)
H41 H 0.4270 0.4238 0.1616
C40 C 0.3946(4) 0.3598(6) 0.1162(7)
C41 C 0.3778(3) 0.3358(6) 0.1791(6)
H42 H 0.3503 0.3395 0.1748
H43 H 0.3855 0.3627 0.2157
C42 C 0.3860(4) 0.2715(7) 0.2025(6)
C43 C 0.4226(4) 0.2466(6) 0.2084(6)
C44 C 0.4310(4) 0.1891(6) 0.2263(6)
C45 C 0.4036(4) 0.1486(7) 0.2419(6)
H44 H 0.4100 0.1091 0.2543
C46 C 0.3631(4) 0.1679(6) 0.2388(5)
H45 H 0.3433 0.1416 0.2500
C47 C 0.3561(4) 0.2295(7) 0.2175(6)
H46 H 0.3309 0.2425 0.2132
C48 C 0.4710(3) 0.1668(5) 0.2293(6)
H47 H 0.4703 0.1242 0.2418
H48 H 0.4839 0.1883 0.2658
C49 C 0.4960(4) 0.1728(6) 0.1642(7)
C50 C 0.4813(3) 0.1450(6) 0.1023(7)
C51 C 0.5019(4) 0.1598(6) 0.0439(7)
C52 C 0.5359(4) 0.1882(6) 0.0459(8)
H49 H 0.5503 0.1937 0.0066
C53 C 0.5487(4) 0.2088(6) 0.1080(8)
H50 H 0.5714 0.2306 0.1085
C54 C 0.5296(4) 0.1993(6) 0.1729(8)
H51 H 0.5396 0.2104 0.2149
C55 C 0.4850(3) 0.1372(5) -0.0266(6)
H52 H 0.5037 0.1467 -0.0614
H53 H 0.4832 0.0933 -0.0243
C56 C 0.4474(4) 0.1601(6) -0.0514(6)
C57 C 0.4208(4) 0.1224(6) -0.0754(6)
H54 H 0.4246 0.0805 -0.0732
C58 C 0.3878(4) 0.1454(6) -0.1034(6)
H55 H 0.3705 0.1191 -0.1241
C59 C 0.3796(4) 0.2076(6) -0.1015(6)
H56 H 0.3562 0.2217 -0.1171
C60 C 0.4059(4) 0.2478(6) -0.0769(6)
C61 C 0.4397(3) 0.2245(6) -0.0504(5)
C62 C 0.3971(3) 0.3152(5) -0.0740(6)
H57 H 0.3703 0.3207 -0.0844
H58 H 0.4116 0.3352 -0.1095
C63 C 0.4519(3) 0.0523(5) 0.1307(6)
H59 H 0.4267 0.0349 0.1364
H60 H 0.4635 0.0555 0.1754
C64 C 0.4755(3) 0.0107(5) 0.0874(5)
H61 H 0.4985 0.0314 0.0728
H62 H 0.4829 -0.0249 0.1134
C65 C 0.4245(3) -0.0534(6) 0.0351(7)
C66 C 0.4163(3) -0.0829(5) 0.0958(6)
H63 H 0.4286 -0.0718 0.1358
C67 C 0.3891(3) -0.1299(5) 0.0961(6)
H64 H 0.3851 -0.1515 0.1362
C68 C 0.3679(3) -0.1452(5) 0.0388(6)
C69 C 0.3781(3) -0.1152(5) -0.0210(6)
H65 H 0.3665 -0.1272 -0.0614
C70 C 0.4046(4) -0.0682(6) -0.0234(7)
H66 H 0.4088 -0.0470 -0.0637
C71 C 0.4652(3) 0.3203(6) 0.2546(6)
H67 H 0.4682 0.2931 0.2930
H68 H 0.4480 0.3531 0.2663
C72 C 0.4962(4) 0.3617(6) 0.2282(7)
H71 H 0.4848 0.3925 0.2010
H72 H 0.5140 0.3400 0.2010
C73 C 0.5154(8) 0.3892(16) 0.2869(11)
H73 H 0.5408 0.4014 0.2745
H74 H 0.5166 0.3615 0.3246
H75 H 0.5009 0.4244 0.2997
C74 C 0.4928(3) 0.2898(5) -0.0764(6)
H76 H 0.4776 0.3120 -0.1094
H77 H 0.5056 0.2570 -0.1002
C75 C 0.5224(4) 0.3318(6) -0.0471(6)
H78 H 0.5385 0.3093 -0.0158
H79 H 0.5098 0.3637 -0.0217
C76 C 0.5478(4) 0.3608(7) -0.1040(8)
H80 H 0.5381 0.3495 -0.1479
H81 H 0.5735 0.3464 -0.0995
H82 H 0.5474 0.4042 -0.0996
O7 O 0.3423(2) 0.0230(4) 0.1126(4)
O8 O 0.3278(3) 0.0421(4) 0.0069(5)
O9 O 0.2998(2) -0.0335(3) 0.0607(4)
N5 N 0.3218(3) 0.0121(5) 0.0592(7)
Cs1 Cs 0.37027(2) 0.15235(4) 0.06826(4)
H69? H 0.4927 0.4015 0.2460
H70? H 0.4946 0.3637 0.1799
C77? C 0.5334(4) 0.3334(14) 0.242(2)
H83? H 0.5316 0.3140 0.2860
H84? H 0.5524 0.3647 0.2441
H85? H 0.5403 0.3039 0.2086
loop_
_geom_bond_atom_site_label_1
_geom_bond_atom_site_label_2
_geom_bond_site_symmetry_1
_geom_bond_site_symmetry_2
O1 C30 1_555 1_555
O2 C34 1_555 1_555
O3 C64 1_555 1_555
O4 C50 1_555 1_555
O5 C43 1_555 1_555
O6 C61 1_555 1_555
N1 H1 1_555 1_555
N2 H2 1_555 1_555
N3 H3 1_555 1_555
N4 H4 1_555 1_555
O7 N5 1_555 1_555
O8 N5 1_555 1_555
O9 N5 1_555 1_555
C1 N1 1_555 1_555
C2 C1 1_555 1_555
H5 C2 1_555 1_555
C3 C2 1_555 1_555
H6 C3 1_555 1_555
C4 N1 1_555 1_555
C5 C4 1_555 1_555
C6 N2 1_555 1_555
C7 C6 1_555 1_555
H7 C7 1_555 1_555
C8 C7 1_555 1_555
H8 C8 1_555 1_555
C9 N2 1_555 1_555
C10 C9 1_555 1_555
C11 N3 1_555 1_555
C12 C11 1_555 1_555
H9 C12 1_555 1_555
C13 C12 1_555 1_555
H10 C13 1_555 1_555
C14 N3 1_555 1_555
C15 C14 1_555 1_555
C16 N4 1_555 1_555
C17 C16 1_555 1_555
H11 C17 1_555 1_555
C18 C17 1_555 1_555
H12 C18 1_555 1_555
C19 N4 1_555 1_555
C20 C1 1_555 1_555
C21 C5 1_555 1_555
H13 C21 1_555 1_555
H14 C21 1_555 1_555
H15 C21 1_555 1_555
C22 C5 1_555 1_555
H16 C22 1_555 1_555
H17 C22 1_555 1_555
H18 C22 1_555 1_555
C23 C10 1_555 1_555
H19 C23 1_555 1_555
H20 C23 1_555 1_555
H21 C23 1_555 1_555
C24 C15 1_555 1_555
H22 C24 1_555 1_555
H23 C24 1_555 1_555
H24 C24 1_555 1_555
C25 C15 1_555 1_555
H25 C25 1_555 1_555
H26 C25 1_555 1_555
H27 C25 1_555 1_555
C26 C20 1_555 1_555
H28 C26 1_555 1_555
H29 C26 1_555 1_555
H30 C26 1_555 1_555
C27 C20 1_555 1_555
C28 C27 1_555 1_555
H31 C28 1_555 1_555
C29 C28 1_555 1_555
H32 C29 1_555 1_555
C30 C29 1_555 1_555
C31 C30 1_555 1_555
H33 C31 1_555 1_555
C32 C27 1_555 1_555
H34 C32 1_555 1_555
C33 O1 1_555 1_555
H35 C33 1_555 1_555
H36 C33 1_555 1_555
C34 C33 1_555 1_555
H37 C34 1_555 1_555
H38 C34 1_555 1_555
C35 O2 1_555 1_555
C36 C35 1_555 1_555
C37 C36 1_555 1_555
H39 C37 1_555 1_555
C38 C37 1_555 1_555
H40 C38 1_555 1_555
C39 C38 1_555 1_555
H41 C39 1_555 1_555
C40 C35 1_555 1_555
C41 C40 1_555 1_555
H42 C41 1_555 1_555
H43 C41 1_555 1_555
C42 C41 1_555 1_555
C43 C42 1_555 1_555
C44 C43 1_555 1_555
C45 C44 1_555 1_555
H44 C45 1_555 1_555
C46 C45 1_555 1_555
H45 C46 1_555 1_555
C47 C42 1_555 1_555
H46 C47 1_555 1_555
C48 C44 1_555 1_555
H47 C48 1_555 1_555
H48 C48 1_555 1_555
C49 C48 1_555 1_555
C50 C49 1_555 1_555
C51 C50 1_555 1_555
C52 C51 1_555 1_555
H49 C52 1_555 1_555
C53 C52 1_555 1_555
H50 C53 1_555 1_555
C54 C49 1_555 1_555
H51 C54 1_555 1_555
C55 C51 1_555 1_555
H52 C55 1_555 1_555
H53 C55 1_555 1_555
C56 C55 1_555 1_555
C57 C56 1_555 1_555
H54 C57 1_555 1_555
C58 C57 1_555 1_555
H55 C58 1_555 1_555
C59 C58 1_555 1_555
H56 C59 1_555 1_555
C60 C59 1_555 1_555
C61 C56 1_555 1_555
C62 C36 1_555 1_555
H57 C62 1_555 1_555
H58 C62 1_555 1_555
C63 O4 1_555 1_555
H59 C63 1_555 1_555
H60 C63 1_555 1_555
C64 C63 1_555 1_555
H61 C64 1_555 1_555
H62 C64 1_555 1_555
C65 O3 1_555 1_555
C66 C65 1_555 1_555
H63 C66 1_555 1_555
C67 C66 1_555 1_555
H64 C67 1_555 1_555
C68 C10 1_555 1_555
C69 C68 1_555 1_555
H65 C69 1_555 1_555
C70 C65 1_555 1_555
H66 C70 1_555 1_555
C71 O5 1_555 1_555
H67 C71 1_555 1_555
H68 C71 1_555 1_555
C72 C71 1_555 1_555
H71 C72 1_555 1_555
H72 C72 1_555 1_555
C73 C72 1_555 1_555
H73 C73 1_555 1_555
H74 C73 1_555 1_555
H75 C73 1_555 1_555
C74 O6 1_555 1_555
H76 C74 1_555 1_555
H77 C74 1_555 1_555
C75 C74 1_555 1_555
H78 C75 1_555 1_555
H79 C75 1_555 1_555
C76 C75 1_555 1_555
H80 C76 1_555 1_555
H81 C76 1_555 1_555
H82 C76 1_555 1_555
C3 C4 1_555 1_555
C5 C6 1_555 1_555
C8 C9 1_555 1_555
C10 C11 1_555 1_555
C13 C14 1_555 1_555
C15 C16 1_555 1_555
C18 C19 1_555 1_555
C19 C20 1_555 1_555
C31 C32 1_555 1_555
C39 C40 1_555 1_555
C46 C47 1_555 1_555
C53 C54 1_555 1_555
C60 C61 1_555 1_555
C60 C62 1_555 1_555
C67 C68 1_555 1_555
C69 C70 1_555 1_555

#END
