
#######################################################################
#
#                 Cambridge Crystallographic Data Centre
#                                CCDC 
#
#######################################################################
#
# If this CIF has been generated from an entry in the Cambridge 
# Structural Database, then it will include bibliographic, chemical, 
# crystal, experimental, refinement or atomic coordinate data resulting 
# from the CCDC's data processing and validation procedures.
#
#######################################################################

data_YUWWIW01
_chemical_formula_moiety         'C4 H10 Cl2 N1 1+,Cl1 1-'
_chemical_name_systematic        'bis(2-chloroethyl)ammonium chloride'
_symmetry_cell_setting           monoclinic
_symmetry_space_group_name_H-M   'P 2/c'
_symmetry_Int_Tables_number      13
_space_group_name_Hall           '-P 2yc'
loop_
_symmetry_equiv_pos_site_id
_symmetry_equiv_pos_as_xyz
1 x,y,z
2 -x,y,1/2-z
3 -x,-y,-z
4 x,-y,1/2+z
_cell_length_a                   15.349(3)
_cell_length_b                   5.0600(9)
_cell_length_c                   22.316(5)
_cell_angle_alpha                90
_cell_angle_beta                 130.603(13)
_cell_angle_gamma                90
_cell_volume                     1315.9
_exptl_crystal_colour            colorless
_exptl_crystal_description       block
_cell_formula_units_Z            6
loop_
_atom_site_label
_atom_site_type_symbol
_atom_site_fract_x
_atom_site_fract_y
_atom_site_fract_z
C1 C 0.2645(4) 0.2647(10) 0.1919(3)
H1 H 0.2430 0.1231 0.2093
H2 H 0.3064 0.1871 0.1775
C2 C 0.1555(6) 0.3966(16) 0.1190(4)
H3 H 0.1128 0.4688 0.1334
H4 H 0.1080 0.2621 0.0792
C3 C 0.4295(4) 0.3194(11) 0.3358(3)
H5 H 0.3916 0.2096 0.3484
H6 H 0.4762 0.2055 0.3316
C4 C 0.5041(5) 0.5111(14) 0.3999(3)
H7 H 0.4576 0.6270 0.4039
H8 H 0.5435 0.6188 0.3881
Cl1 Cl 0.1781(2) 0.6435(4) 0.07816(11)
Cl2 Cl 0.60709(16) 0.3449(5) 0.49184(11)
N1 N 0.3408(2) 0.4524(7) 0.25818(18)
H9 H 0.2976 0.5575 0.2623
H10 H 0.3764 0.5558 0.2470
C5 C 0.0646(4) 0.2937(10) 0.3235(3)
H11 H 0.0097 0.3851 0.3242
H12 H 0.1081 0.4268 0.3215
C6 C 0.1451(4) 0.1417(13) 0.3988(3)
H13 H 0.1899 0.2642 0.4427
H14 H 0.1977 0.0415 0.3974
Cl3 Cl 0.07016(14) -0.0789(4) 0.41380(8)
N2 N 0.0000 0.1303(10) 0.2500
H15 H -0.0498 0.0255 0.2474
H15A H 0.0498 0.0255 0.2526
C5A C -0.0646(4) 0.2937(10) 0.1765(3)
H11A H -0.0097 0.3851 0.1758
H12A H -0.1081 0.4268 0.1785
C6A C -0.1451(4) 0.1417(13) 0.1012(3)
H13A H -0.1899 0.2642 0.0573
H14A H -0.1977 0.0415 0.1026
Cl3A Cl -0.07016(14) -0.0789(4) 0.08620(8)
Cl4 Cl 0.5000 0.8084(4) 0.2500
Cl5 Cl 0.20696(8) 0.7940(3) 0.29090(6)
H16? H -0.0498 0.0255 0.2474
loop_
_geom_bond_atom_site_label_1
_geom_bond_atom_site_label_2
_geom_bond_site_symmetry_1
_geom_bond_site_symmetry_2
C1 H1 1_555 1_555
H2 C1 1_555 1_555
C2 C1 1_555 1_555
H3 C2 1_555 1_555
H4 C2 1_555 1_555
C3 H5 1_555 1_555
H6 C3 1_555 1_555
C4 C3 1_555 1_555
H7 C4 1_555 1_555
H8 C4 1_555 1_555
Cl1 C2 1_555 1_555
Cl2 C4 1_555 1_555
N1 C1 1_555 1_555
H9 N1 1_555 1_555
H10 N1 1_555 1_555
C5 H11 1_555 1_555
H12 C5 1_555 1_555
C6 C5 1_555 1_555
H13 C6 1_555 1_555
H14 C6 1_555 1_555
Cl3 C6 1_555 1_555
N2 C5 1_555 1_555
H15 N2 1_555 1_555
H15A N2 1_555 1_555
C5A N2 1_555 1_555
H11A C5A 1_555 1_555
H12A C5A 1_555 1_555
C6A C5A 1_555 1_555
H13A C6A 1_555 1_555
H14A C6A 1_555 1_555
Cl3A C6A 1_555 1_555
C3 N1 1_555 1_555

#END
