
#######################################################################
#
#                 Cambridge Crystallographic Data Centre
#                                CCDC 
#
#######################################################################
#
# If this CIF has been generated from an entry in the Cambridge 
# Structural Database, then it will include bibliographic, chemical, 
# crystal, experimental, refinement or atomic coordinate data resulting 
# from the CCDC's data processing and validation procedures.
#
#######################################################################

data_YUWWIW04
_chemical_formula_moiety         'C4 H10 Cl2 N1 1+,Cl1 1-'
_chemical_name_systematic        'bis(2-chloroethyl)ammonium chloride'
_symmetry_cell_setting           monoclinic
_symmetry_space_group_name_H-M   'P 2/c'
_symmetry_Int_Tables_number      13
_space_group_name_Hall           '-P 2yc'
loop_
_symmetry_equiv_pos_site_id
_symmetry_equiv_pos_as_xyz
1 x,y,z
2 -x,y,1/2-z
3 -x,-y,-z
4 x,-y,1/2+z
_cell_length_a                   15.289(16)
_cell_length_b                   5.039(6)
_cell_length_c                   22.148(17)
_cell_angle_alpha                90
_cell_angle_beta                 130.88(5)
_cell_angle_gamma                90
_cell_volume                     1290.11
_exptl_crystal_colour            colorless
_exptl_crystal_description       block
_cell_formula_units_Z            6
loop_
_atom_site_label
_atom_site_type_symbol
_atom_site_fract_x
_atom_site_fract_y
_atom_site_fract_z
C1 C 0.2360(4) 0.2632(9) 0.3086(3)
H1 H 0.2560 0.1199 0.2903
H2 H 0.1947 0.1871 0.3240
C2 C 0.3456(6) 0.3923(13) 0.3807(4)
H3 H 0.3874 0.4640 0.3653
H4 H 0.3940 0.2573 0.4209
C3 C 0.0689(4) 0.3200(10) 0.1635(3)
H5 H 0.0219 0.2058 0.1676
H6 H 0.1063 0.2102 0.1503
C4 C -0.0067(5) 0.5198(12) 0.0989(3)
H7 H 0.0402 0.6375 0.0955
H8 H -0.0466 0.6258 0.1109
Cl1 Cl 0.32351(19) 0.6456(4) 0.42289(10)
Cl2 Cl -0.10946(14) 0.3523(4) 0.00615(10)
N1 N 0.1586(3) 0.4539(7) 0.2418(2)
H9 H 0.2018 0.5595 0.2375
H10 H 0.1233 0.5575 0.2533
C5 C 0.4360(5) 0.2949(9) 0.1766(3)
H11 H 0.4916 0.3865 0.1764
H12 H 0.3922 0.4282 0.1786
C6 C 0.3553(5) 0.1416(12) 0.1008(3)
H13 H 0.3105 0.2643 0.0562
H14 H 0.3019 0.0425 0.1018
Cl3 Cl 0.43023(15) -0.0833(3) 0.08597(8)
N2 N 0.5000 0.1274(9) 0.2500
H15 H 0.4496 0.0224 0.2470
H15A H 0.5504 0.0224 0.2530
C5A C 0.5640(5) 0.2949(9) 0.3234(3)
H11A H 0.5084 0.3865 0.3236
H12A H 0.6078 0.4282 0.3214
C6A C 0.6447(5) 0.1416(12) 0.3992(3)
H13A H 0.6895 0.2643 0.4438
H14A H 0.6981 0.0425 0.3982
Cl3A Cl 0.56977(15) -0.0833(3) 0.41403(8)
Cl4 Cl 0.0000 0.8105(3) 0.2500
Cl5 Cl 0.29265(10) 0.7946(2) 0.20873(7)
H16? H 0.4496 0.0224 0.2470
loop_
_geom_bond_atom_site_label_1
_geom_bond_atom_site_label_2
_geom_bond_site_symmetry_1
_geom_bond_site_symmetry_2
C1 H1 1_555 1_555
H2 C1 1_555 1_555
C2 C1 1_555 1_555
H3 C2 1_555 1_555
H4 C2 1_555 1_555
C3 H5 1_555 1_555
H6 C3 1_555 1_555
C4 C3 1_555 1_555
H7 C4 1_555 1_555
H8 C4 1_555 1_555
Cl1 C2 1_555 1_555
Cl2 C4 1_555 1_555
N1 C1 1_555 1_555
H9 N1 1_555 1_555
H10 N1 1_555 1_555
C5 H11 1_555 1_555
H12 C5 1_555 1_555
C6 C5 1_555 1_555
H13 C6 1_555 1_555
H14 C6 1_555 1_555
Cl3 C6 1_555 1_555
N2 C5 1_555 1_555
H15 N2 1_555 1_555
H15A N2 1_555 1_555
C5A N2 1_555 1_555
H11A C5A 1_555 1_555
H12A C5A 1_555 1_555
C6A C5A 1_555 1_555
H13A C6A 1_555 1_555
H14A C6A 1_555 1_555
Cl3A C6A 1_555 1_555
C3 N1 1_555 1_555

#END
