
#######################################################################
#
#                 Cambridge Crystallographic Data Centre
#                                CCDC 
#
#######################################################################
#
# If this CIF has been generated from an entry in the Cambridge 
# Structural Database, then it will include bibliographic, chemical, 
# crystal, experimental, refinement or atomic coordinate data resulting 
# from the CCDC's data processing and validation procedures.
#
#######################################################################

data_YUWWIW03
_chemical_formula_moiety         'C4 H10 Cl2 N1 1+,Cl1 1-'
_chemical_name_systematic        'bis(2-chloroethyl)ammonium chloride'
_symmetry_cell_setting           monoclinic
_symmetry_space_group_name_H-M   'P 2/c'
_symmetry_Int_Tables_number      13
_space_group_name_Hall           '-P 2yc'
loop_
_symmetry_equiv_pos_site_id
_symmetry_equiv_pos_as_xyz
1 x,y,z
2 -x,y,1/2-z
3 -x,-y,-z
4 x,-y,1/2+z
_cell_length_a                   15.291(19)
_cell_length_b                   5.057(6)
_cell_length_c                   22.19(2)
_cell_angle_alpha                90
_cell_angle_beta                 130.86(5)
_cell_angle_gamma                90
_cell_volume                     1297.74
_exptl_crystal_colour            colorless
_exptl_crystal_description       block
_cell_formula_units_Z            6
loop_
_atom_site_label
_atom_site_type_symbol
_atom_site_fract_x
_atom_site_fract_y
_atom_site_fract_z
C1 C 0.2645(4) 0.2364(10) 0.1916(3)
H1 H 0.3060 0.3141 0.1767
H2 H 0.2429 0.3780 0.2092
C2 C 0.1552(6) 0.1014(17) 0.1191(4)
H3 H 0.1060 0.2346 0.0787
H4 H 0.1137 0.0281 0.1344
C3 C 0.4304(4) 0.1794(11) 0.3363(3)
H5 H 0.4777 0.2936 0.3326
H6 H 0.3925 0.2887 0.3493
C4 C 0.5052(5) -0.0167(14) 0.4007(3)
H7 H 0.5449 -0.1239 0.3888
H8 H 0.4584 -0.1326 0.4044
Cl1 Cl 0.60811(16) 0.1517(5) 0.49272(11)
Cl2 Cl 0.1771(2) -0.1447(4) 0.07757(11)
N1 N 0.3415(3) 0.0484(8) 0.2583(2)
H9 H 0.2981 -0.0575 0.2622
H10 H 0.3772 -0.0543 0.2470
C5 C 0.0647(4) 0.2066(10) 0.3240(3)
H11 H 0.0093 0.1164 0.3246
H12 H 0.1082 0.0726 0.3221
C6 C 0.1461(4) 0.3595(14) 0.3997(3)
H13 H 0.1989 0.4593 0.3983
H14 H 0.1915 0.2376 0.4443
Cl3 Cl 0.06994(15) 0.5814(4) 0.41402(9)
N2 N 0.0000 0.3715(10) 0.2500
H15 H 0.0503 0.4763 0.2530
H15A H -0.0503 0.4763 0.2470
C5A C -0.0647(4) 0.2066(10) 0.1760(3)
H11A H -0.0093 0.1164 0.1754
H12A H -0.1082 0.0726 0.1779
C6A C -0.1461(4) 0.3595(14) 0.1003(3)
H13A H -0.1989 0.4593 0.1017
H14A H -0.1915 0.2376 0.0557
Cl3A Cl -0.06994(15) 0.5814(4) 0.08598(9)
Cl4 Cl 0.5000 0.6905(4) 0.2500
Cl5 Cl 0.20722(9) 0.7060(3) 0.29112(7)
H16? H 0.0503 0.4763 0.2529
loop_
_geom_bond_atom_site_label_1
_geom_bond_atom_site_label_2
_geom_bond_site_symmetry_1
_geom_bond_site_symmetry_2
C1 H1 1_555 1_555
H2 C1 1_555 1_555
C2 C1 1_555 1_555
H3 C2 1_555 1_555
H4 C2 1_555 1_555
C3 H5 1_555 1_555
H6 C3 1_555 1_555
C4 C3 1_555 1_555
H7 C4 1_555 1_555
H8 C4 1_555 1_555
Cl1 C4 1_555 1_555
Cl2 C2 1_555 1_555
N1 C1 1_555 1_555
H9 N1 1_555 1_555
H10 N1 1_555 1_555
C5 H11 1_555 1_555
H12 C5 1_555 1_555
C6 C5 1_555 1_555
H13 C6 1_555 1_555
H14 C6 1_555 1_555
Cl3 C6 1_555 1_555
N2 C5 1_555 1_555
H15 N2 1_555 1_555
H15A N2 1_555 1_555
C5A N2 1_555 1_555
H11A C5A 1_555 1_555
H12A C5A 1_555 1_555
C6A C5A 1_555 1_555
H13A C6A 1_555 1_555
H14A C6A 1_555 1_555
Cl3A C6A 1_555 1_555
C3 N1 1_555 1_555

#END
