
#######################################################################
#
#                 Cambridge Crystallographic Data Centre
#                                CCDC 
#
#######################################################################
#
# If this CIF has been generated from an entry in the Cambridge 
# Structural Database, then it will include bibliographic, chemical, 
# crystal, experimental, refinement or atomic coordinate data resulting 
# from the CCDC's data processing and validation procedures.
#
#######################################################################

data_YUWWIW02
_chemical_formula_moiety         'C4 H10 Cl2 N1 1+,Cl1 1-'
_chemical_name_systematic        'bis(2-chloroethyl)ammonium chloride'
_symmetry_cell_setting           monoclinic
_symmetry_space_group_name_H-M   'P 2/c'
_symmetry_Int_Tables_number      13
_space_group_name_Hall           '-P 2yc'
loop_
_symmetry_equiv_pos_site_id
_symmetry_equiv_pos_as_xyz
1 x,y,z
2 -x,y,1/2-z
3 -x,-y,-z
4 x,-y,1/2+z
_cell_length_a                   15.32(2)
_cell_length_b                   5.071(8)
_cell_length_c                   22.27(2)
_cell_angle_alpha                90
_cell_angle_beta                 130.79
_cell_angle_gamma                90
_cell_volume                     1309.88
_exptl_crystal_colour            colorless
_exptl_crystal_description       block
_cell_formula_units_Z            6
loop_
_atom_site_label
_atom_site_type_symbol
_atom_site_fract_x
_atom_site_fract_y
_atom_site_fract_z
C1 C 0.2643(4) 0.2643(9) 0.6921(3)
H1 H 0.2425 0.1244 0.7097
H2 H 0.3060 0.1853 0.6776
C2 C 0.1559(5) 0.3977(14) 0.6196(4)
H3 H 0.1138 0.4705 0.6344
H4 H 0.1074 0.2641 0.5795
C3 C 0.4292(4) 0.3194(10) 0.8356(3)
H5 H 0.3911 0.2098 0.8482
H6 H 0.4764 0.2060 0.8319
C4 C 0.5038(4) 0.5134(12) 0.9001(3)
H7 H 0.4569 0.6278 0.9039
H8 H 0.5430 0.6219 0.8882
Cl1 Cl 0.17750(19) 0.6441(4) 0.57789(10)
Cl2 Cl 0.60780(14) 0.3469(4) 0.99230(10)
N1 N 0.3409(2) 0.4520(7) 0.75804(17)
H9 H 0.2977 0.5581 0.7620
H10 H 0.3767 0.5537 0.7468
C5 C 0.0639(4) 0.2954(9) 0.8232(3)
H11 H 0.0086 0.3861 0.8236
H12 H 0.1077 0.4281 0.8214
C6 C 0.1447(4) 0.1409(12) 0.8988(3)
H13 H 0.1901 0.2622 0.9431
H14 H 0.1972 0.0411 0.8972
Cl3 Cl 0.06996(13) -0.0801(3) 0.91386(8)
N2 N 0.0000 0.1290(9) 0.7500
H15 H -0.0503 0.0246 0.7470
H15A H 0.0503 0.0246 0.7530
C5A C -0.0639(4) 0.2954(9) 0.6768(3)
H11A H -0.0086 0.3861 0.6764
H12A H -0.1077 0.4281 0.6786
C6A C -0.1447(4) 0.1409(12) 0.6012(3)
H13A H -0.1901 0.2622 0.5569
H14A H -0.1972 0.0411 0.6028
Cl3A Cl -0.06996(13) -0.0801(3) 0.58614(8)
Cl4 Cl 0.5000 0.8093(3) 0.7500
Cl5 Cl 0.79296(8) 0.7940(2) 0.70906(6)
H16? H -0.0503 0.0246 0.7470
loop_
_geom_bond_atom_site_label_1
_geom_bond_atom_site_label_2
_geom_bond_site_symmetry_1
_geom_bond_site_symmetry_2
C1 H1 1_555 1_555
H2 C1 1_555 1_555
C2 C1 1_555 1_555
H3 C2 1_555 1_555
H4 C2 1_555 1_555
C3 H5 1_555 1_555
H6 C3 1_555 1_555
C4 C3 1_555 1_555
H7 C4 1_555 1_555
H8 C4 1_555 1_555
Cl1 C2 1_555 1_555
Cl2 C4 1_555 1_555
N1 C1 1_555 1_555
H9 N1 1_555 1_555
H10 N1 1_555 1_555
C5 H11 1_555 1_555
H12 C5 1_555 1_555
C6 C5 1_555 1_555
H13 C6 1_555 1_555
H14 C6 1_555 1_555
Cl3 C6 1_555 1_555
N2 C5 1_555 1_555
H15 N2 1_555 1_555
H15A N2 1_555 1_555
C5A N2 1_555 1_555
H11A C5A 1_555 1_555
H12A C5A 1_555 1_555
C6A C5A 1_555 1_555
H13A C6A 1_555 1_555
H14A C6A 1_555 1_555
Cl3A C6A 1_555 1_555
C3 N1 1_555 1_555

#END
