
#######################################################################
#
#                 Cambridge Crystallographic Data Centre
#                                CCDC 
#
#######################################################################
#
# If this CIF has been generated from an entry in the Cambridge 
# Structural Database, then it will include bibliographic, chemical, 
# crystal, experimental, refinement or atomic coordinate data resulting 
# from the CCDC's data processing and validation procedures.
#
#######################################################################

data_YUWWIW06
_chemical_formula_moiety         'C4 H10 Cl2 N1 1+,Cl1 1-'
_chemical_name_systematic        'bis(2-chloroethyl)ammonium chloride'
_symmetry_cell_setting           monoclinic
_symmetry_space_group_name_H-M   'P 2/c'
_symmetry_Int_Tables_number      13
_space_group_name_Hall           '-P 2yc'
loop_
_symmetry_equiv_pos_site_id
_symmetry_equiv_pos_as_xyz
1 x,y,z
2 -x,y,1/2-z
3 -x,-y,-z
4 x,-y,1/2+z
_cell_length_a                   15.362(12)
_cell_length_b                   5.029(4)
_cell_length_c                   22.201(13)
_cell_angle_alpha                90
_cell_angle_beta                 130.98(3)
_cell_angle_gamma                90
_cell_volume                     1294.83
_exptl_crystal_colour            colorless
_exptl_crystal_description       block
_chemical_melting_point          '430 K'
_cell_formula_units_Z            6
loop_
_atom_site_label
_atom_site_type_symbol
_atom_site_fract_x
_atom_site_fract_y
_atom_site_fract_z
C1 C 0.2357(3) 0.7361(7) 0.3085(2)
H1 H 0.1948 0.8100 0.3242
H2 H 0.2545 0.8814 0.2900
C2 C 0.3466(4) 0.6089(9) 0.3806(3)
H3 H 0.3947 0.7450 0.4206
H4 H 0.3878 0.5374 0.3649
C3 C 0.0680(3) 0.6786(8) 0.1628(2)
H5 H 0.1049 0.7881 0.1491
H6 H 0.0214 0.7934 0.1669
C4 C -0.0078(4) 0.4762(9) 0.0982(2)
H7 H -0.0477 0.3715 0.1104
H8 H 0.0388 0.3569 0.0952
Cl1 Cl 0.32507(13) 0.3533(3) 0.42356(7)
Cl2 Cl -0.11057(10) 0.6429(3) 0.00481(7)
N1 N 0.1585(2) 0.5451(5) 0.24153(16)
H9 H 0.1236 0.4407 0.2531
H10 H 0.2016 0.4398 0.2373
C5 C 0.4358(4) 0.7045(7) 0.1764(2)
H11 H 0.3922 0.5709 0.1784
H12 H 0.4911 0.6127 0.1762
C6 C 0.3543(3) 0.8587(9) 0.0998(2)
H13 H 0.3008 0.9574 0.1005
H14 H 0.3100 0.7355 0.0553
Cl3 Cl 0.42983(11) 1.0858(2) 0.08552(6)
N2 N 0.5000 0.8732(7) 0.2500
H15 H 0.4499 0.9784 0.2470
H15A H 0.5501 0.9784 0.2530
C5A C 0.5642(4) 0.7045(7) 0.3236(2)
H11A H 0.6078 0.5709 0.3216
H12A H 0.5089 0.6127 0.3238
C6A C 0.6457(3) 0.8587(9) 0.4002(2)
H13A H 0.6992 0.9574 0.3995
H14A H 0.6900 0.7355 0.4447
Cl3A Cl 0.57017(11) 1.0858(2) 0.41448(6)
Cl4 Cl 0.0000 0.1883(3) 0.2500
Cl5 Cl 0.29253(7) 0.20559(18) 0.20857(6)
H16? H 0.4499 0.9784 0.2470
loop_
_geom_bond_atom_site_label_1
_geom_bond_atom_site_label_2
_geom_bond_site_symmetry_1
_geom_bond_site_symmetry_2
C1 H1 1_555 1_555
H2 C1 1_555 1_555
C2 C1 1_555 1_555
H3 C2 1_555 1_555
H4 C2 1_555 1_555
C3 H5 1_555 1_555
H6 C3 1_555 1_555
C4 C3 1_555 1_555
H7 C4 1_555 1_555
H8 C4 1_555 1_555
Cl1 C2 1_555 1_555
Cl2 C4 1_555 1_555
N1 C1 1_555 1_555
H9 N1 1_555 1_555
H10 N1 1_555 1_555
C5 H11 1_555 1_555
H12 C5 1_555 1_555
C6 C5 1_555 1_555
H13 C6 1_555 1_555
H14 C6 1_555 1_555
Cl3 C6 1_555 1_555
N2 C5 1_555 1_555
H15 N2 1_555 1_555
H15A N2 1_555 1_555
C5A N2 1_555 1_555
H11A C5A 1_555 1_555
H12A C5A 1_555 1_555
C6A C5A 1_555 1_555
H13A C6A 1_555 1_555
H14A C6A 1_555 1_555
Cl3A C6A 1_555 1_555
C3 N1 1_555 1_555

#END
