
#######################################################################
#
#                 Cambridge Crystallographic Data Centre
#                                CCDC 
#
#######################################################################
#
# If this CIF has been generated from an entry in the Cambridge 
# Structural Database, then it will include bibliographic, chemical, 
# crystal, experimental, refinement or atomic coordinate data resulting 
# from the CCDC's data processing and validation procedures.
#
#######################################################################

data_YUWWIW07
_chemical_formula_moiety         'C4 H10 Cl2 N1 1+,Cl1 1-'
_chemical_name_systematic        'bis(2-chloroethyl)ammonium chloride'
_symmetry_cell_setting           monoclinic
_symmetry_space_group_name_H-M   'P 2/c'
_symmetry_Int_Tables_number      13
_space_group_name_Hall           '-P 2yc'
loop_
_symmetry_equiv_pos_site_id
_symmetry_equiv_pos_as_xyz
1 x,y,z
2 -x,y,1/2-z
3 -x,-y,-z
4 x,-y,1/2+z
_cell_length_a                   15.334(11)
_cell_length_b                   5.012(4)
_cell_length_c                   22.135(12)
_cell_angle_alpha                90
_cell_angle_beta                 131.08(3)
_cell_angle_gamma                90
_cell_volume                     1282.32
_exptl_crystal_colour            colorless
_exptl_crystal_description       block
_chemical_melting_point          '430 K'
_cell_formula_units_Z            6
loop_
_atom_site_label
_atom_site_type_symbol
_atom_site_fract_x
_atom_site_fract_y
_atom_site_fract_z
C1 C 0.2360(3) 0.2628(6) 0.30849(19)
H1 H 0.2541 0.1168 0.2896
H2 H 0.1954 0.1891 0.3246
C2 C 0.3472(3) 0.3893(8) 0.3804(2)
H3 H 0.3881 0.4610 0.3644
H4 H 0.3957 0.2528 0.4205
C3 C 0.0672(3) 0.3215(7) 0.16233(19)
H5 H 0.0206 0.2062 0.1665
H6 H 0.1040 0.2118 0.1485
C4 C -0.0090(3) 0.5250(8) 0.0977(2)
H7 H 0.0378 0.6460 0.0951
H8 H -0.0493 0.6285 0.1099
Cl1 Cl 0.32588(11) 0.6476(2) 0.42393(6)
Cl2 Cl -0.11135(9) 0.3598(3) 0.00369(6)
N1 N 0.1582(2) 0.4553(5) 0.24136(14)
H9 H 0.2013 0.5611 0.2370
H10 H 0.1234 0.5597 0.2532
C5 C 0.4353(3) 0.2954(6) 0.1758(2)
H11 H 0.3915 0.4293 0.1777
H12 H 0.4908 0.3877 0.1757
C6 C 0.3542(3) 0.1413(8) 0.0994(2)
H13 H 0.3099 0.2648 0.0546
H14 H 0.3004 0.0427 0.1000
Cl3 Cl 0.42952(10) -0.08727(19) 0.08514(6)
N2 N 0.5000 0.1258(7) 0.2500
H15 H 0.4497 0.0202 0.2469
H15A H 0.5503 0.0202 0.2531
C5A C 0.5647(3) 0.2954(6) 0.3242(2)
H11A H 0.6085 0.4293 0.3223
H12A H 0.5092 0.3877 0.3243
C6A C 0.6458(3) 0.1413(8) 0.4006(2)
H13A H 0.6901 0.2648 0.4454
H14A H 0.6996 0.0427 0.4000
Cl3A Cl 0.57048(10) -0.08727(19) 0.41486(6)
Cl4 Cl 0.0000 0.8122(2) 0.2500
Cl5 Cl 0.29230(7) 0.79482(16) 0.20845(5)
H16? H 0.4497 0.0202 0.2469
loop_
_geom_bond_atom_site_label_1
_geom_bond_atom_site_label_2
_geom_bond_site_symmetry_1
_geom_bond_site_symmetry_2
C1 H1 1_555 1_555
H2 C1 1_555 1_555
C2 C1 1_555 1_555
H3 C2 1_555 1_555
H4 C2 1_555 1_555
C3 H5 1_555 1_555
H6 C3 1_555 1_555
C4 C3 1_555 1_555
H7 C4 1_555 1_555
H8 C4 1_555 1_555
Cl1 C2 1_555 1_555
Cl2 C4 1_555 1_555
N1 C1 1_555 1_555
H9 N1 1_555 1_555
H10 N1 1_555 1_555
C5 H11 1_555 1_555
H12 C5 1_555 1_555
C6 C5 1_555 1_555
H13 C6 1_555 1_555
H14 C6 1_555 1_555
Cl3 C6 1_555 1_555
N2 C5 1_555 1_555
H15 N2 1_555 1_555
H15A N2 1_555 1_555
C5A N2 1_555 1_555
H11A C5A 1_555 1_555
H12A C5A 1_555 1_555
C6A C5A 1_555 1_555
H13A C6A 1_555 1_555
H14A C6A 1_555 1_555
Cl3A C6A 1_555 1_555
C3 N1 1_555 1_555

#END
