
#######################################################################
#
#                 Cambridge Crystallographic Data Centre
#                                CCDC 
#
#######################################################################
#
# If this CIF has been generated from an entry in the Cambridge 
# Structural Database, then it will include bibliographic, chemical, 
# crystal, experimental, refinement or atomic coordinate data resulting 
# from the CCDC's data processing and validation procedures.
#
#######################################################################

data_YUWWIW05
_chemical_formula_moiety         'C4 H10 Cl2 N1 1+,Cl1 1-'
_chemical_name_systematic        'bis(2-chloroethyl)ammonium chloride'
_symmetry_cell_setting           monoclinic
_symmetry_space_group_name_H-M   'P 2/c'
_symmetry_Int_Tables_number      13
_space_group_name_Hall           '-P 2yc'
loop_
_symmetry_equiv_pos_site_id
_symmetry_equiv_pos_as_xyz
1 x,y,z
2 -x,y,1/2-z
3 -x,-y,-z
4 x,-y,1/2+z
_cell_length_a                   15.334(3)
_cell_length_b                   5.0314(9)
_cell_length_c                   22.212(5)
_cell_angle_alpha                90
_cell_angle_beta                 130.839(13)
_cell_angle_gamma                90
_cell_volume                     1296.49
_exptl_crystal_colour            colorless
_exptl_crystal_description       block
_chemical_melting_point          '430 K'
_cell_formula_units_Z            6
loop_
_atom_site_label
_atom_site_type_symbol
_atom_site_fract_x
_atom_site_fract_y
_atom_site_fract_z
C1 C 0.2644(4) 0.7366(8) 0.1917(3)
H1 H 0.3054 0.8123 0.1763
H2 H 0.2448 0.8804 0.2101
C2 C 0.1542(5) 0.6074(11) 0.1195(3)
H3 H 0.1059 0.7431 0.0796
H4 H 0.1128 0.5351 0.1350
C3 C 0.4309(4) 0.6796(9) 0.3366(2)
H5 H 0.3933 0.7886 0.3498
H6 H 0.4776 0.7949 0.3326
C4 C 0.5069(4) 0.4795(11) 0.4014(3)
H7 H 0.5466 0.3737 0.3892
H8 H 0.4603 0.3611 0.4047
Cl1 Cl 0.17581(17) 0.3542(3) 0.07682(8)
Cl2 Cl 0.60987(12) 0.6458(4) 0.49433(9)
N1 N 0.3415(3) 0.5456(6) 0.25828(18)
H9 H 0.3770 0.4425 0.2468
H10 H 0.2984 0.4393 0.2624
C5 C 0.0644(4) 0.7052(8) 0.3236(3)
H11 H 0.1083 0.5720 0.3217
H12 H 0.0091 0.6127 0.3239
C6 C 0.1451(4) 0.8585(10) 0.3997(3)
H13 H 0.1986 0.9577 0.3990
H14 H 0.1895 0.7352 0.4441
Cl3 Cl 0.06996(13) 1.0840(3) 0.41424(8)
N2 N 0.0000 0.8725(9) 0.2500
H15 H -0.0501 0.9778 0.2471
H15A H 0.0501 0.9778 0.2529
C5A C -0.0644(4) 0.7052(8) 0.1764(3)
H11A H -0.1083 0.5720 0.1783
H12A H -0.0091 0.6127 0.1761
C6A C -0.1451(4) 0.8585(10) 0.1003(3)
H13A H -0.1986 0.9577 0.1010
H14A H -0.1895 0.7352 0.0559
Cl3A Cl -0.06996(13) 1.0840(3) 0.08576(8)
Cl4 Cl 0.5000 0.1891(3) 0.2500
Cl5 Cl 0.20739(9) 0.2055(2) 0.29133(6)
H16? H -0.0501 0.9778 0.2471
loop_
_geom_bond_atom_site_label_1
_geom_bond_atom_site_label_2
_geom_bond_site_symmetry_1
_geom_bond_site_symmetry_2
C1 H1 1_555 1_555
H2 C1 1_555 1_555
C2 C1 1_555 1_555
H3 C2 1_555 1_555
H4 C2 1_555 1_555
C3 H5 1_555 1_555
H6 C3 1_555 1_555
C4 C3 1_555 1_555
H7 C4 1_555 1_555
H8 C4 1_555 1_555
Cl1 C2 1_555 1_555
Cl2 C4 1_555 1_555
N1 C1 1_555 1_555
H9 N1 1_555 1_555
H10 N1 1_555 1_555
C5 H11 1_555 1_555
H12 C5 1_555 1_555
C6 C5 1_555 1_555
H13 C6 1_555 1_555
H14 C6 1_555 1_555
Cl3 C6 1_555 1_555
N2 C5 1_555 1_555
H15 N2 1_555 1_555
H15A N2 1_555 1_555
C5A N2 1_555 1_555
H11A C5A 1_555 1_555
H12A C5A 1_555 1_555
C6A C5A 1_555 1_555
H13A C6A 1_555 1_555
H14A C6A 1_555 1_555
Cl3A C6A 1_555 1_555
C3 N1 1_555 1_555

#END
