
#######################################################################
#
#                 Cambridge Crystallographic Data Centre
#                                CCDC 
#
#######################################################################
#
# If this CIF has been generated from an entry in the Cambridge 
# Structural Database, then it will include bibliographic, chemical, 
# crystal, experimental, refinement or atomic coordinate data resulting 
# from the CCDC's data processing and validation procedures.
#
#######################################################################

data_YUXFIH
_chemical_formula_moiety         'C24 H20 B1 1-,C9 H24 N4 2+,Cl1 1-'
_chemical_name_systematic        
"N''-[2-(Dimethylammonio)ethyl]-N,N,N',N'-tetramethylguanidinium chloride tetraphenylborate"
_symmetry_cell_setting           orthorhombic
_symmetry_space_group_name_H-M   'P b c a'
_symmetry_Int_Tables_number      61
_space_group_name_Hall           '-P 2ac 2ab'
loop_
_symmetry_equiv_pos_site_id
_symmetry_equiv_pos_as_xyz
1 x,y,z
2 1/2-x,-y,1/2+z
3 1/2+x,1/2-y,-z
4 -x,1/2+y,1/2-z
5 -x,-y,-z
6 1/2+x,y,1/2-z
7 1/2-x,1/2+y,z
8 x,1/2-y,1/2+z
_cell_length_a                   13.1844(4)
_cell_length_b                   13.8007(4)
_cell_length_c                   34.7537(11)
_cell_angle_alpha                90
_cell_angle_beta                 90
_cell_angle_gamma                90
_cell_volume                     6323.57
_exptl_crystal_colour            colorless
_exptl_crystal_description       plate
_cell_formula_units_Z            8
loop_
_atom_site_label
_atom_site_type_symbol
_atom_site_fract_x
_atom_site_fract_y
_atom_site_fract_z
Cl1 Cl 0.11388(8) 0.16731(10) 0.01622(3)
N1 N 0.0602(2) 0.1176(2) 0.13560(8)
N2 N -0.0443(2) 0.2442(2) 0.15500(8)
N3 N -0.0262(2) 0.2073(2) 0.09069(9)
H1 H 0.017(3) 0.193(2) 0.0721(9)
N4 N -0.1114(3) 0.1892(2) 0.00799(8)
H2 H -0.037(3) 0.177(2) 0.0148(9)
C1 C -0.0034(3) 0.1894(3) 0.12777(10)
C2 C 0.1276(3) 0.1191(3) 0.16908(10)
H3 H 0.1211 0.1801 0.1821
H4 H 0.1965 0.1107 0.1608
H5 H 0.1095 0.0675 0.1863
C3 C 0.0780(3) 0.0373(3) 0.10908(12)
H6 H 0.0200 0.0295 0.0927
H7 H 0.0888 -0.0212 0.1235
H8 H 0.1368 0.0508 0.0937
C4 C -0.0692(3) 0.2056(3) 0.19305(11)
H9 H -0.0673 0.1360 0.1923
H10 H -0.1359 0.2266 0.2003
H11 H -0.0207 0.2287 0.2115
C5 C -0.0658(3) 0.3475(3) 0.14911(11)
H12 H -0.0366 0.3683 0.1252
H13 H -0.0371 0.3844 0.1699
H14 H -0.1379 0.3575 0.1484
C6 C -0.1233(3) 0.2425(3) 0.07732(9)
H15 H -0.1157 0.3090 0.0687
H16 H -0.1708 0.2424 0.0986
C7 C -0.1662(3) 0.1829(3) 0.04503(10)
H17 H -0.1673 0.1156 0.0531
H18 H -0.2359 0.2027 0.0408
C8 C -0.1165(3) 0.2868(3) -0.00993(11)
H19 H -0.1858 0.3022 -0.0158
H20 H -0.0772 0.2871 -0.0332
H21 H -0.0897 0.3341 0.0076
C9 C -0.1484(4) 0.1157(3) -0.01963(12)
H22 H -0.1415 0.0523 -0.0086
H23 H -0.1094 0.1192 -0.0429
H24 H -0.2185 0.1277 -0.0254
B1 B 0.4872(3) 0.2007(3) 0.14668(10)
C10 C 0.3800(3) 0.2562(2) 0.15522(13)
C11 C 0.3504(3) 0.2842(3) 0.19155(16)
H25 H 0.3896 0.2649 0.2124
C12 C 0.2645(4) 0.3400(4) 0.1983(2)
H26 H 0.2484 0.3590 0.2233
C13 C 0.2036(5) 0.3671(4) 0.1683(3)
H27 H 0.1457 0.4039 0.1727
C14 C 0.2283(4) 0.3398(4) 0.1326(2)
H28 H 0.1867 0.3573 0.1121
C15 C 0.3152(3) 0.2859(3) 0.12567(15)
H29 H 0.3309 0.2688 0.1005
C16 C 0.5215(3) 0.1343(3) 0.18297(10)
C17 C 0.6202(4) 0.1228(3) 0.19557(11)
H30 H 0.6712 0.1592 0.1840
C18 C 0.6469(4) 0.0573(4) 0.22561(14)
H31 H 0.7139 0.0513 0.2336
C19 C 0.5727(6) 0.0039(4) 0.24219(14)
H32 H 0.5891 -0.0395 0.2617
C20 C 0.4763(5) 0.0127(3) 0.23101(12)
H33 H 0.4263 -0.0245 0.2428
C21 C 0.4503(4) 0.0763(3) 0.20216(11)
H34 H 0.3824 0.0811 0.1951
C22 C 0.5660(3) 0.2905(2) 0.13759(11)
C23 C 0.5953(3) 0.3200(2) 0.10074(11)
H35 H 0.5738 0.2834 0.0798
C24 C 0.6550(3) 0.4014(3) 0.09382(14)
H36 H 0.6733 0.4181 0.0688
C25 C 0.6867(3) 0.4570(3) 0.1247(2)
H37 H 0.7272 0.5112 0.1206
C26 C 0.6582(4) 0.4319(4) 0.16107(16)
H38 H 0.6782 0.4699 0.1818
C27 C 0.5997(3) 0.3502(3) 0.16713(12)
H39 H 0.5820 0.3344 0.1923
C28 C 0.4795(3) 0.1243(2) 0.11077(9)
C29 C 0.3905(3) 0.0804(3) 0.09905(10)
H40 H 0.3310 0.0968 0.1119
C30 C 0.3844(4) 0.0141(3) 0.06960(12)
H41 H 0.3220 -0.0122 0.0628
C31 C 0.4692(4) -0.0130(3) 0.05052(12)
H42 H 0.4652 -0.0571 0.0304
C32 C 0.5606(4) 0.0249(3) 0.06104(12)
H43 H 0.6197 0.0054 0.0486
C33 C 0.5646(3) 0.0924(2) 0.09031(11)
H44 H 0.6275 0.1183 0.0968
loop_
_geom_bond_atom_site_label_1
_geom_bond_atom_site_label_2
_geom_bond_site_symmetry_1
_geom_bond_site_symmetry_2
N1 C1 1_555 1_555
N2 C1 1_555 1_555
N3 H1 1_555 1_555
N4 H2 1_555 1_555
C1 N3 1_555 1_555
C2 N1 1_555 1_555
H3 C2 1_555 1_555
H4 C2 1_555 1_555
H5 C2 1_555 1_555
C3 N1 1_555 1_555
H6 C3 1_555 1_555
H7 C3 1_555 1_555
H8 C3 1_555 1_555
C4 N2 1_555 1_555
H9 C4 1_555 1_555
H10 C4 1_555 1_555
H11 C4 1_555 1_555
C5 N2 1_555 1_555
H12 C5 1_555 1_555
H13 C5 1_555 1_555
H14 C5 1_555 1_555
C6 N3 1_555 1_555
H15 C6 1_555 1_555
H16 C6 1_555 1_555
C7 N4 1_555 1_555
H17 C7 1_555 1_555
H18 C7 1_555 1_555
C8 N4 1_555 1_555
H19 C8 1_555 1_555
H20 C8 1_555 1_555
H21 C8 1_555 1_555
C9 N4 1_555 1_555
H22 C9 1_555 1_555
H23 C9 1_555 1_555
H24 C9 1_555 1_555
B1 C10 1_555 1_555
C10 C11 1_555 1_555
C11 H25 1_555 1_555
C12 C11 1_555 1_555
H26 C12 1_555 1_555
C13 C12 1_555 1_555
H27 C13 1_555 1_555
C14 C13 1_555 1_555
H28 C14 1_555 1_555
C15 C10 1_555 1_555
H29 C15 1_555 1_555
C16 B1 1_555 1_555
C17 C16 1_555 1_555
H30 C17 1_555 1_555
C18 C17 1_555 1_555
H31 C18 1_555 1_555
C19 C18 1_555 1_555
H32 C19 1_555 1_555
C20 C19 1_555 1_555
H33 C20 1_555 1_555
C21 C16 1_555 1_555
H34 C21 1_555 1_555
C22 B1 1_555 1_555
C23 C22 1_555 1_555
H35 C23 1_555 1_555
C24 C23 1_555 1_555
H36 C24 1_555 1_555
C25 C24 1_555 1_555
H37 C25 1_555 1_555
C26 C25 1_555 1_555
H38 C26 1_555 1_555
C27 C22 1_555 1_555
H39 C27 1_555 1_555
C28 B1 1_555 1_555
C29 C28 1_555 1_555
H40 C29 1_555 1_555
C30 C29 1_555 1_555
H41 C30 1_555 1_555
C31 C30 1_555 1_555
H42 C31 1_555 1_555
C32 C31 1_555 1_555
H43 C32 1_555 1_555
C33 C28 1_555 1_555
H44 C33 1_555 1_555
C6 C7 1_555 1_555
C14 C15 1_555 1_555
C20 C21 1_555 1_555
C26 C27 1_555 1_555
C32 C33 1_555 1_555

#END
