
#######################################################################
#
#                 Cambridge Crystallographic Data Centre
#                                CCDC 
#
#######################################################################
#
# If this CIF has been generated from an entry in the Cambridge 
# Structural Database, then it will include bibliographic, chemical, 
# crystal, experimental, refinement or atomic coordinate data resulting 
# from the CCDC's data processing and validation procedures.
#
#######################################################################

data_YUXJUY
_chemical_name_common            
(4-(hydroxyimino)-3-methylcyclohexa-2,5-dien-1-ylidene)(phenyl)acetonitrile
_chemical_formula_moiety         'C15 H12 N2 O1'
_chemical_name_systematic        
\a-(3-methyl-4-(hydroxyimino)-2,5-cyclohexadien-1-ylidene)benzeneacetonitrile
_symmetry_cell_setting           monoclinic
_symmetry_space_group_name_H-M   'P 21/c'
_symmetry_Int_Tables_number      14
_space_group_name_Hall           '-P 2ybc'
loop_
_symmetry_equiv_pos_site_id
_symmetry_equiv_pos_as_xyz
1 x,y,z
2 -x,1/2+y,1/2-z
3 -x,-y,-z
4 x,1/2-y,1/2+z
_cell_length_a                   6.958(5)
_cell_length_b                   3.937(3)
_cell_length_c                   45.96(3)
_cell_angle_alpha                90
_cell_angle_beta                 91.278(9)
_cell_angle_gamma                90
_cell_volume                     1258.7
_exptl_crystal_colour            colorless
_exptl_crystal_description       needle
_chemical_melting_point          '160.4-161.9 deg.C'
_cell_formula_units_Z            4
loop_
_atom_site_label
_atom_site_type_symbol
_atom_site_fract_x
_atom_site_fract_y
_atom_site_fract_z
C1 C 0.3379(4) 0.7123(7) 0.16794(6)
C2 C 0.4591(5) 0.5748(8) 0.18957(7)
H1 H 0.5868 0.5308 0.1853
C3 C 0.3951(7) 0.5036(9) 0.21665(8)
H2 H 0.4785 0.4113 0.2306
C4 C 0.2049(9) 0.5691(12) 0.22338(8)
H3 H 0.1601 0.5175 0.2418
C5 C 0.0834(6) 0.7102(12) 0.20276(8)
H4 H -0.0434 0.7569 0.2074
C6 C 0.1481(5) 0.7837(9) 0.17509(7)
H5 H 0.0650 0.8806 0.1613
C7 C 0.4125(4) 0.7888(7) 0.13890(6)
C8 C 0.341(2) 0.740(5) 0.1096(3)
C9 C 0.157(2) 0.578(4) 0.1057(3)
H6 H 0.0920 0.5055 0.1221
C10 C 0.074(2) 0.527(4) 0.0789(3)
C11 C 0.1719(18) 0.631(4) 0.0537(3)
C12 C 0.3609(17) 0.790(4) 0.0569(3)
H7 H 0.4269 0.8589 0.0406
C13 C 0.437(2) 0.835(5) 0.0829(3)
H8 H 0.5583 0.9323 0.0844
N1 N 0.0832(10) 0.568(3) 0.0295(2)
O1 O -0.1102(5) 0.3952(12) 0.03001(7)
H9 H -0.1044 0.2133 0.0214
C14 C -0.1095(13) 0.387(3) 0.07508(19)
H10 H -0.1980 0.5609 0.0689
H11 H -0.1505 0.2913 0.0931
H12 H -0.1059 0.2118 0.0606
C15 C 0.6008(5) 0.9433(9) 0.13909(6)
N2 N 0.7489(4) 1.0762(9) 0.14005(7)
C1B C -0.3379(4) 0.2877(7) -0.16794(6)
C2B C -0.4591(5) 0.4252(8) -0.18957(7)
H1B H -0.5868 0.4692 -0.1853
C3B C -0.3951(7) 0.4964(9) -0.21665(8)
H2B H -0.4785 0.5887 -0.2306
C4B C -0.2049(9) 0.4309(12) -0.22338(8)
H3B H -0.1601 0.4825 -0.2418
C5B C -0.0834(6) 0.2898(12) -0.20276(8)
H4B H 0.0434 0.2431 -0.2074
C6B C -0.1481(5) 0.2163(9) -0.17509(7)
H5B H -0.0650 0.1194 -0.1613
C7B C -0.4125(4) 0.2112(7) -0.13890(6)
C8B C -0.341(2) 0.260(5) -0.1096(3)
C9B C -0.157(2) 0.422(4) -0.1057(3)
H6B H -0.0920 0.4945 -0.1221
C10B C -0.074(2) 0.473(4) -0.0789(3)
C11B C -0.1719(18) 0.369(4) -0.0537(3)
C12B C -0.3609(17) 0.210(4) -0.0569(3)
H7B H -0.4269 0.1411 -0.0406
C13B C -0.437(2) 0.165(5) -0.0829(3)
H8B H -0.5583 0.0677 -0.0844
N1B N -0.0832(10) 0.432(3) -0.0295(2)
O1B O 0.1102(5) 0.6048(12) -0.03001(7)
H9B H 0.1044 0.7867 -0.0214
C14B C 0.1095(13) 0.613(3) -0.07508(19)
H10B H 0.1980 0.4391 -0.0689
H11B H 0.1505 0.7087 -0.0931
H12B H 0.1059 0.7882 -0.0606
C15B C -0.6008(5) 0.0567(9) -0.13909(6)
N2B N -0.7489(4) -0.0762(9) -0.14005(7)
C16? C 0.309(3) 0.716(6) 0.1146(4)
C17? C 0.126(2) 0.543(5) 0.1116(3)
H13? H 0.0642 0.4683 0.1282
C18? C 0.043(2) 0.487(5) 0.0856(3)
H14? H -0.0754 0.3789 0.0846
C19? C 0.130(2) 0.586(4) 0.0591(3)
C20? C 0.316(2) 0.757(5) 0.0608(4)
C21? C 0.398(2) 0.817(5) 0.0884(3)
H15? H 0.5156 0.9271 0.0897
N3? N 0.070(3) 0.557(5) 0.0299(3)
O2? O 0.2026(12) 0.683(3) 0.00346(16)
H16? H 0.3142 0.7029 0.0093
C22? C 0.4309(7) 0.8700(15) 0.03183(10)
H17? H 0.3556 1.0329 0.0210
H18? H 0.4529 0.6740 0.0199
H19? H 0.5519 0.9696 0.0375
loop_
_geom_bond_atom_site_label_1
_geom_bond_atom_site_label_2
_geom_bond_site_symmetry_1
_geom_bond_site_symmetry_2
C1 C2 1_555 1_555
C2 H1 1_555 1_555
C3 C2 1_555 1_555
H2 C3 1_555 1_555
C4 C3 1_555 1_555
H3 C4 1_555 1_555
C5 C4 1_555 1_555
H4 C5 1_555 1_555
C6 C1 1_555 1_555
H5 C6 1_555 1_555
C7 C1 1_555 1_555
C8 C7 1_555 1_555
C9 C8 1_555 1_555
H6 C9 1_555 1_555
C10 C9 1_555 1_555
C11 C10 1_555 1_555
C12 C11 1_555 1_555
H7 C12 1_555 1_555
C13 C8 1_555 1_555
H8 C13 1_555 1_555
N1 C11 1_555 1_555
O1 N1 1_555 1_555
H9 O1 1_555 1_555
C14 C10 1_555 1_555
H10 C14 1_555 1_555
H11 C14 1_555 1_555
H12 C14 1_555 1_555
C15 C7 1_555 1_555
N2 C15 1_555 1_555
C1B C2B 1_555 1_555
C2B H1B 1_555 1_555
C3B C2B 1_555 1_555
H2B C3B 1_555 1_555
C4B C3B 1_555 1_555
H3B C4B 1_555 1_555
C5B C4B 1_555 1_555
H4B C5B 1_555 1_555
C6B C1B 1_555 1_555
H5B C6B 1_555 1_555
C7B C1B 1_555 1_555
C8B C7B 1_555 1_555
C9B C8B 1_555 1_555
H6B C9B 1_555 1_555
C10B C9B 1_555 1_555
C11B C10B 1_555 1_555
C12B C11B 1_555 1_555
H7B C12B 1_555 1_555
C13B C8B 1_555 1_555
H8B C13B 1_555 1_555
N1B C11B 1_555 1_555
O1B N1B 1_555 1_555
H9B O1B 1_555 1_555
C14B C10B 1_555 1_555
H10B C14B 1_555 1_555
H11B C14B 1_555 1_555
H12B C14B 1_555 1_555
C15B C7B 1_555 1_555
N2B C15B 1_555 1_555
C5 C6 1_555 1_555
C12 C13 1_555 1_555
C5B C6B 1_555 1_555
C12B C13B 1_555 1_555

#END
