
#######################################################################
#
#                 Cambridge Crystallographic Data Centre
#                                CCDC 
#
#######################################################################
#
# If this CIF has been generated from an entry in the Cambridge 
# Structural Database, then it will include bibliographic, chemical, 
# crystal, experimental, refinement or atomic coordinate data resulting 
# from the CCDC's data processing and validation procedures.
#
#######################################################################

data_YUXMIO
_chemical_formula_moiety         'C25 H23 N3 O9'
_chemical_name_systematic        
'Methyl 2-methoxy-3-((2-methoxy-3-((2-methoxy-3-nitrobenzoyl)amino)benzoyl)amino)benzoate'
_symmetry_cell_setting           monoclinic
_symmetry_space_group_name_H-M   'P 21/n'
_symmetry_Int_Tables_number      14
_space_group_name_Hall           '-P 2yn'
loop_
_symmetry_equiv_pos_site_id
_symmetry_equiv_pos_as_xyz
1 x,y,z
2 1/2-x,1/2+y,1/2-z
3 -x,-y,-z
4 1/2+x,1/2-y,1/2+z
_cell_length_a                   7.0390(6)
_cell_length_b                   24.783(2)
_cell_length_c                   13.5449(12)
_cell_angle_alpha                90
_cell_angle_beta                 100.260(2)
_cell_angle_gamma                90
_cell_volume                     2325.09
_exptl_crystal_colour            colorless
_exptl_crystal_description       block
_cell_formula_units_Z            4
loop_
_atom_site_label
_atom_site_type_symbol
_atom_site_fract_x
_atom_site_fract_y
_atom_site_fract_z
O1 O 0.7137(2) -0.06194(5) -0.07350(10)
O2 O 0.73904(19) 0.10638(5) -0.09268(9)
O3 O 0.6026(2) 0.18386(6) -0.24050(10)
O4 O 0.8022(2) 0.17379(6) -0.34295(12)
O5 O 0.85507(17) 0.08987(4) 0.15281(8)
O6 O 0.8658(2) 0.06177(7) 0.45118(10)
O7 O 1.33470(18) 0.14926(5) 0.28362(9)
O8 O 1.6938(2) 0.26090(6) 0.46458(10)
O9 O 1.6345(4) 0.22226(11) 0.31727(17)
N1 N 0.7452(2) 0.01650(6) 0.01346(10)
N2 N 1.0500(2) 0.10200(6) 0.35070(11)
N3 N 0.7021(2) 0.15584(7) -0.28548(11)
C1 C 0.7194(2) -0.01281(7) -0.07189(13)
C2 C 0.6975(2) 0.01875(7) -0.16874(12)
C3 C 0.7141(2) 0.07493(7) -0.17708(12)
C4 C 0.6961(2) 0.09717(7) -0.27286(13)
C5 C 0.6665(3) 0.06627(8) -0.35904(13)
H1 H 0.6616 0.0824 -0.4223
C6 C 0.6442(3) 0.01135(8) -0.35047(14)
H2 H 0.6197 -0.0104 -0.4082
C7 C 0.6581(3) -0.01163(7) -0.25676(13)
H3 H 0.6404 -0.0491 -0.2520
C8 C 0.8997(3) 0.14339(8) -0.07417(15)
H4 H 0.9623 0.1446 -0.1324
H5 H 0.9914 0.1314 -0.0162
H6 H 0.8533 0.1791 -0.0614
C9 C 0.7730(2) -0.00152(7) 0.11301(12)
C10 C 0.8264(2) 0.03832(6) 0.18646(12)
C11 C 0.8548(2) 0.02541(7) 0.28799(12)
C12 C 0.8290(3) -0.02784(7) 0.31589(13)
H7 H 0.8468 -0.0371 0.3842
C13 C 0.7775(3) -0.06702(7) 0.24412(14)
H8 H 0.7617 -0.1028 0.2641
C14 C 0.7487(2) -0.05447(7) 0.14286(13)
H9 H 0.7128 -0.0816 0.0946
C15 C 0.7045(3) 0.12757(8) 0.16470(16)
H10 H 0.5832 0.1157 0.1250
H11 H 0.7368 0.1630 0.1423
H12 H 0.6922 0.1293 0.2348
C16 C 0.9201(3) 0.06523(7) 0.37151(13)
C17 C 1.1567(3) 0.14002(7) 0.41489(12)
C18 C 1.3082(3) 0.16532(7) 0.37721(12)
C19 C 1.4282(3) 0.20248(7) 0.43576(13)
C20 C 1.3904(3) 0.21508(7) 0.53109(13)
H13 H 1.4697 0.2400 0.5715
C21 C 1.2389(3) 0.19146(8) 0.56628(13)
H14 H 1.2142 0.2011 0.6299
C22 C 1.1214(3) 0.15356(7) 0.50941(13)
H15 H 1.0193 0.1373 0.5347
C23 C 1.2524(4) 0.18413(9) 0.20298(15)
H16 H 1.1253 0.1957 0.2126
H17 H 1.2414 0.1649 0.1399
H18 H 1.3347 0.2154 0.2018
C24 C 1.5956(3) 0.22754(8) 0.39866(16)
C25 C 1.8593(3) 0.28634(9) 0.43499(18)
H19 H 1.9521 0.2590 0.4244
H20 H 1.9185 0.3109 0.4874
H21 H 1.8186 0.3063 0.3733
H22 H 1.077(3) 0.1015(8) 0.2906(16)
H23 H 0.752(3) 0.0500(9) 0.0080(16)
loop_
_geom_bond_atom_site_label_1
_geom_bond_atom_site_label_2
_geom_bond_site_symmetry_1
_geom_bond_site_symmetry_2
O1 C1 1_555 1_555
O2 C3 1_555 1_555
O3 N3 1_555 1_555
O4 N3 1_555 1_555
O5 C10 1_555 1_555
O6 C16 1_555 1_555
O7 C18 1_555 1_555
O8 C24 1_555 1_555
O9 C24 1_555 1_555
N1 C1 1_555 1_555
N2 C16 1_555 1_555
N3 C4 1_555 1_555
C1 C2 1_555 1_555
C2 C3 1_555 1_555
C3 C4 1_555 1_555
C4 C5 1_555 1_555
C5 H1 1_555 1_555
C6 C5 1_555 1_555
H2 C6 1_555 1_555
C7 C2 1_555 1_555
H3 C7 1_555 1_555
C8 O2 1_555 1_555
H4 C8 1_555 1_555
H5 C8 1_555 1_555
H6 C8 1_555 1_555
C9 N1 1_555 1_555
C10 C9 1_555 1_555
C11 C10 1_555 1_555
C12 C11 1_555 1_555
H7 C12 1_555 1_555
C13 C12 1_555 1_555
H8 C13 1_555 1_555
C14 C9 1_555 1_555
H9 C14 1_555 1_555
C15 O5 1_555 1_555
H10 C15 1_555 1_555
H11 C15 1_555 1_555
H12 C15 1_555 1_555
C16 C11 1_555 1_555
C17 N2 1_555 1_555
C18 C17 1_555 1_555
C19 C18 1_555 1_555
C20 C19 1_555 1_555
H13 C20 1_555 1_555
C21 C20 1_555 1_555
H14 C21 1_555 1_555
C22 C17 1_555 1_555
H15 C22 1_555 1_555
C23 O7 1_555 1_555
H16 C23 1_555 1_555
H17 C23 1_555 1_555
H18 C23 1_555 1_555
C24 C19 1_555 1_555
C25 O8 1_555 1_555
H19 C25 1_555 1_555
H20 C25 1_555 1_555
H21 C25 1_555 1_555
H22 N2 1_555 1_555
H23 N1 1_555 1_555
C6 C7 1_555 1_555
C13 C14 1_555 1_555
C21 C22 1_555 1_555

#END
