
#######################################################################
#
#                 Cambridge Crystallographic Data Centre
#                                CCDC 
#
#######################################################################
#
# If this CIF has been generated from an entry in the Cambridge 
# Structural Database, then it will include bibliographic, chemical, 
# crystal, experimental, refinement or atomic coordinate data resulting 
# from the CCDC's data processing and validation procedures.
#
#######################################################################

data_YUXNUB
_chemical_formula_moiety         'C35 H43 N3 O12'
_chemical_name_systematic        
'Methyl 3-((3-((2,5-dimethoxy-3-nitrobenzoyl)amino)-2-methoxy-5-(octyloxy)benzoyl)amino)-2,5-dimethoxybenzoate'
_symmetry_cell_setting           triclinic
_symmetry_space_group_name_H-M   'P -1'
_symmetry_Int_Tables_number      2
_space_group_name_Hall           '-P 1'
loop_
_symmetry_equiv_pos_site_id
_symmetry_equiv_pos_as_xyz
1 x,y,z
2 -x,-y,-z
_cell_length_a                   6.8316(8)
_cell_length_b                   15.8889(18)
_cell_length_c                   16.4300(18)
_cell_angle_alpha                83.062(2)
_cell_angle_beta                 78.939(3)
_cell_angle_gamma                87.588(2)
_cell_volume                     1737.15
_exptl_crystal_colour            colorless
_exptl_crystal_description       needle
_cell_formula_units_Z            2
loop_
_atom_site_label
_atom_site_type_symbol
_atom_site_fract_x
_atom_site_fract_y
_atom_site_fract_z
O1 O 0.6364(3) 0.91162(11) 0.20970(13)
O2 O -0.0325(3) 0.90422(11) 0.36319(13)
O3 O 0.7400(3) 0.61218(11) 0.13556(11)
O4 O -0.7151(3) 0.92268(11) 0.51760(13)
O5 O -0.2349(2) 0.65404(10) 0.40890(10)
O6 O -0.7312(3) 0.60187(13) 0.56481(12)
O7 O -0.5944(3) 0.57558(12) 0.44066(12)
O8 O 1.0426(3) 0.33305(13) 0.11850(13)
O9 O 0.5463(3) 0.15304(12) 0.28972(15)
O10 O 0.3104(3) 0.22788(13) 0.36212(14)
O11 O 0.3412(3) 0.40312(11) 0.32932(11)
O12 O 0.1942(2) 0.62181(10) 0.29788(10)
N1 N 0.0387(3) 0.76743(14) 0.34324(14)
H1 H -0.013(4) 0.7168(19) 0.3514(17)
N2 N 0.5441(3) 0.53292(13) 0.24197(14)
H2 H 0.446(5) 0.535(2) 0.283(2)
N3 N -0.6289(3) 0.62130(13) 0.49598(14)
C1 C 0.2343(4) 0.77005(15) 0.29661(15)
C2 C 0.3460(4) 0.84236(16) 0.27490(16)
H3 H 0.2934 0.8946 0.2915
C3 C 0.5386(4) 0.83684(16) 0.22775(16)
C4 C 0.6159(4) 0.76058(16) 0.20309(15)
H4 H 0.7443 0.7582 0.1701
C5 C 0.5051(3) 0.68655(15) 0.22668(14)
C6 C 0.3139(3) 0.69184(15) 0.27298(15)
C7 C -0.0815(4) 0.83065(15) 0.37288(15)
C8 C -0.2871(4) 0.80429(15) 0.41934(15)
C9 C -0.4143(4) 0.86892(16) 0.44788(16)
H5 H -0.3693 0.9250 0.4370
C10 C -0.6065(4) 0.85359(16) 0.49208(16)
C11 C -0.6729(4) 0.77177(17) 0.50890(16)
H6 H -0.8011 0.7599 0.5400
C12 C -0.5482(4) 0.70774(15) 0.47935(15)
C13 C -0.3552(4) 0.72049(15) 0.43596(15)
C14 C 0.6052(4) 0.60708(16) 0.19681(15)
C15 C 0.6201(4) 0.45048(15) 0.22897(15)
C16 C 0.7986(4) 0.43620(16) 0.17506(16)
H7 H 0.8717 0.4819 0.1437
C17 C 0.8670(4) 0.35361(17) 0.16831(16)
C18 C 0.7587(4) 0.28641(17) 0.21295(17)
H8 H 0.8067 0.2307 0.2071
C19 C 0.5793(4) 0.29987(16) 0.26655(16)
C20 C 0.5110(4) 0.38300(16) 0.27492(15)
C21 C 0.8371(4) 0.91233(17) 0.16383(18)
H9 H 0.8405 0.8964 0.1078
H10 H 0.9207 0.8719 0.1924
C22 C 0.9119(4) 1.00026(18) 0.1583(2)
H11 H 0.9073 1.0151 0.2148
H12 H 0.8236 1.0400 0.1315
C23 C 1.1242(4) 1.00990(19) 0.1092(2)
H13 H 1.2135 0.9728 0.1383
H14 H 1.1305 0.9911 0.0541
C24 C 1.1974(5) 1.0991(2) 0.0980(2)
H15 H 1.1884 1.1181 0.1532
H16 H 1.1085 1.1359 0.0685
C25 C 1.4094(5) 1.1105(2) 0.0504(3)
H17 H 1.4997 1.0771 0.0820
H18 H 1.4212 1.0879 -0.0033
C26 C 1.4747(5) 1.2006(2) 0.0346(2)
H19 H 1.4607 1.2231 0.0884
H20 H 1.3842 1.2336 0.0028
C27 C 1.6868(5) 1.2143(3) -0.0122(3)
H21 H 1.7789 1.1818 0.0192
H22 H 1.7021 1.1929 -0.0667
C28 C 1.7407(7) 1.3066(3) -0.0250(3)
H23 H 1.6615 1.3377 -0.0622
H24 H 1.8812 1.3121 -0.0495
H25 H 1.7141 1.3293 0.0283
C29 C 0.0688(4) 0.60916(18) 0.23974(18)
H26 H 0.0075 0.6628 0.2224
H27 H -0.0344 0.5693 0.2662
H28 H 0.1484 0.5868 0.1913
C30 C -0.9086(4) 0.90740(19) 0.5678(2)
H29 H -0.9894 0.8793 0.5371
H30 H -0.9719 0.9609 0.5817
H31 H -0.8956 0.8716 0.6187
C31 C -0.1548(4) 0.60277(18) 0.47379(18)
H32 H -0.0937 0.6390 0.5049
H33 H -0.0553 0.5633 0.4490
H34 H -0.2615 0.5715 0.5112
C32 C 1.1486(5) 0.3994(2) 0.0642(2)
H35 H 1.0613 0.4291 0.0297
H36 H 1.2625 0.3756 0.0288
H37 H 1.1943 0.4387 0.0970
C33 C 0.4616(4) 0.22526(17) 0.31160(17)
C34 C 0.4386(5) 0.07664(18) 0.3247(2)
H38 H 0.4149 0.0728 0.3852
H39 H 0.5167 0.0277 0.3064
H40 H 0.3120 0.0782 0.3061
C35 C 0.1603(4) 0.3951(2) 0.2997(2)
H41 H 0.1727 0.4237 0.2434
H42 H 0.0508 0.4205 0.3360
H43 H 0.1346 0.3355 0.2996
loop_
_geom_bond_atom_site_label_1
_geom_bond_atom_site_label_2
_geom_bond_site_symmetry_1
_geom_bond_site_symmetry_2
O1 C3 1_555 1_555
O2 C7 1_555 1_555
O3 C14 1_555 1_555
O4 C10 1_555 1_555
O5 C13 1_555 1_555
O6 N3 1_555 1_555
O7 N3 1_555 1_555
O8 C17 1_555 1_555
O9 C33 1_555 1_555
O10 C33 1_555 1_555
O11 C20 1_555 1_555
O12 C6 1_555 1_555
N1 H1 1_555 1_555
N2 H2 1_555 1_555
N3 C12 1_555 1_555
C1 N1 1_555 1_555
C2 C1 1_555 1_555
H3 C2 1_555 1_555
C3 C2 1_555 1_555
C4 C3 1_555 1_555
H4 C4 1_555 1_555
C5 C4 1_555 1_555
C6 C1 1_555 1_555
C7 N1 1_555 1_555
C8 C7 1_555 1_555
C9 C8 1_555 1_555
H5 C9 1_555 1_555
C10 C9 1_555 1_555
C11 C10 1_555 1_555
H6 C11 1_555 1_555
C12 C11 1_555 1_555
C13 C8 1_555 1_555
C14 N2 1_555 1_555
C15 N2 1_555 1_555
C16 C15 1_555 1_555
H7 C16 1_555 1_555
C17 C16 1_555 1_555
C18 C17 1_555 1_555
H8 C18 1_555 1_555
C19 C18 1_555 1_555
C20 C15 1_555 1_555
C21 O1 1_555 1_555
H9 C21 1_555 1_555
H10 C21 1_555 1_555
C22 C21 1_555 1_555
H11 C22 1_555 1_555
H12 C22 1_555 1_555
C23 C22 1_555 1_555
H13 C23 1_555 1_555
H14 C23 1_555 1_555
C24 C23 1_555 1_555
H15 C24 1_555 1_555
H16 C24 1_555 1_555
C25 C24 1_555 1_555
H17 C25 1_555 1_555
H18 C25 1_555 1_555
C26 C25 1_555 1_555
H19 C26 1_555 1_555
H20 C26 1_555 1_555
C27 C26 1_555 1_555
H21 C27 1_555 1_555
H22 C27 1_555 1_555
C28 C27 1_555 1_555
H23 C28 1_555 1_555
H24 C28 1_555 1_555
H25 C28 1_555 1_555
C29 O12 1_555 1_555
H26 C29 1_555 1_555
H27 C29 1_555 1_555
H28 C29 1_555 1_555
C30 O4 1_555 1_555
H29 C30 1_555 1_555
H30 C30 1_555 1_555
H31 C30 1_555 1_555
C31 O5 1_555 1_555
H32 C31 1_555 1_555
H33 C31 1_555 1_555
H34 C31 1_555 1_555
C32 O8 1_555 1_555
H35 C32 1_555 1_555
H36 C32 1_555 1_555
H37 C32 1_555 1_555
C33 C19 1_555 1_555
C34 O9 1_555 1_555
H38 C34 1_555 1_555
H39 C34 1_555 1_555
H40 C34 1_555 1_555
C35 O11 1_555 1_555
H41 C35 1_555 1_555
H42 C35 1_555 1_555
H43 C35 1_555 1_555
C5 C6 1_555 1_555
C5 C14 1_555 1_555
C12 C13 1_555 1_555
C19 C20 1_555 1_555

#END
