
#######################################################################
#
#                 Cambridge Crystallographic Data Centre
#                                CCDC 
#
#######################################################################
#
# If this CIF has been generated from an entry in the Cambridge 
# Structural Database, then it will include bibliographic, chemical, 
# crystal, experimental, refinement or atomic coordinate data resulting 
# from the CCDC's data processing and validation procedures.
#
#######################################################################

data_YUXNAH
_chemical_formula_moiety         'C18 H18 N2 O8'
_chemical_name_systematic        
'Methyl 2,5-dimethoxy-3-((2-methoxy-3-nitrobenzoyl)amino)benzoate'
_symmetry_cell_setting           monoclinic
_symmetry_space_group_name_H-M   'P 21/c'
_symmetry_Int_Tables_number      14
_space_group_name_Hall           '-P 2ybc'
loop_
_symmetry_equiv_pos_site_id
_symmetry_equiv_pos_as_xyz
1 x,y,z
2 -x,1/2+y,1/2-z
3 -x,-y,-z
4 x,1/2-y,1/2+z
_cell_length_a                   11.1282(4)
_cell_length_b                   25.3958(10)
_cell_length_c                   12.4272(5)
_cell_angle_alpha                90
_cell_angle_beta                 93.9020(10)
_cell_angle_gamma                90
_cell_volume                     3503.9
_exptl_crystal_colour            colorless
_exptl_crystal_description       block
_cell_formula_units_Z            8
loop_
_atom_site_label
_atom_site_type_symbol
_atom_site_fract_x
_atom_site_fract_y
_atom_site_fract_z
O1 O 0.32839(9) 0.58515(4) 0.03042(7)
O2 O 0.46495(10) 0.72400(4) 0.16684(8)
O3 O 0.42019(15) 0.68745(6) 0.00765(9)
O4 O 0.14834(11) 0.66114(5) 0.40329(9)
O5 O 0.03891(11) 0.49754(5) 0.24427(9)
O6 O 0.22911(9) 0.46009(4) -0.02333(8)
O7 O 0.27733(10) 0.35845(5) -0.11556(10)
O8 O 0.11592(13) 0.34312(6) -0.21674(11)
N1 N 0.17509(11) 0.52785(5) 0.13205(10)
H4 H 0.2111(16) 0.5211(7) 0.0745(13)
N2 N 0.16840(12) 0.36135(5) -0.13570(11)
C2 C 0.28923(12) 0.60651(5) 0.12383(10)
C3 C 0.32368(12) 0.65599(5) 0.16165(10)
C4 C 0.27811(13) 0.67550(6) 0.25647(11)
H6 H 0.3023 0.7087 0.2833
C5 C 0.19764(13) 0.64555(6) 0.31009(11)
C6 C 0.16073(12) 0.59637(6) 0.27212(11)
H7 H 0.1051 0.5766 0.3091
C7 C 0.20641(12) 0.57651(5) 0.17924(11)
C8 C 0.45036(14) 0.56616(7) 0.03961(13)
H8 H 0.5022 0.5925 0.0751
H9 H 0.4769 0.5592 -0.0318
H10 H 0.4543 0.5340 0.0817
C9 C 0.40623(13) 0.68953(6) 0.10187(11)
C10 C 0.55014(15) 0.75738(7) 0.11786(14)
H11 H 0.6229 0.7376 0.1072
H12 H 0.5695 0.7872 0.1646
H13 H 0.5155 0.7698 0.0488
C11 C 0.18344(18) 0.71121(8) 0.44580(15)
H14 H 0.2702 0.7121 0.4602
H15 H 0.1447 0.7173 0.5123
H16 H 0.1594 0.7384 0.3939
C12 C 0.09362(12) 0.49247(6) 0.16295(11)
C13 C 0.13276(12) 0.43032(5) 0.00194(11)
C14 C 0.06833(12) 0.44530(5) 0.09066(11)
C15 C -0.02990(12) 0.41472(6) 0.11680(11)
H17 H -0.0717 0.4240 0.1772
C16 C -0.06760(13) 0.37130(6) 0.05677(12)
H18 H -0.1357 0.3522 0.0749
C17 C -0.00488(13) 0.35614(6) -0.02975(13)
H19 H -0.0299 0.3269 -0.0717
C18 C 0.09577(12) 0.38474(6) -0.05397(12)
C19 C 0.24372(15) 0.47304(6) -0.13503(13)
H20 H 0.3000 0.4486 -0.1644
H21 H 0.2745 0.5086 -0.1398
H22 H 0.1665 0.4705 -0.1758
O9 O 0.37033(12) 0.64028(5) 0.66260(9)
O10 O 0.2091(2) 0.50424(12) 0.5073(2)
C1 C 0.2192(3) 0.47628(14) 0.6060(3)
H1 H 0.2495 0.4411 0.5938
H2 H 0.1406 0.4739 0.6351
H3 H 0.2743 0.4946 0.6569
O11 O 0.22945(17) 0.58002(7) 0.67496(14)
O12 O 0.57664(10) 0.60989(4) 0.32812(9)
O13 O 0.43797(12) 0.44325(5) 0.21458(10)
O14 O 0.17887(10) 0.37864(5) 0.40599(9)
O15 O 0.11174(12) 0.26896(6) 0.43970(10)
O16 O -0.02186(11) 0.26424(6) 0.30633(12)
N3 N 0.32518(12) 0.45838(5) 0.35573(10)
H5 H 0.2741(16) 0.4437(8) 0.3940(15)
N4 N 0.07605(13) 0.27827(5) 0.34680(11)
C20 C 0.31757(14) 0.52787(7) 0.48384(13)
C21 C 0.35851(14) 0.57530(6) 0.52795(11)
C22 C 0.44716(13) 0.60362(6) 0.47788(11)
H23 H 0.4753 0.6358 0.5073
C23 C 0.49328(13) 0.58437(6) 0.38532(11)
C24 C 0.45654(13) 0.53579(6) 0.34349(11)
H24 H 0.4910 0.5223 0.2822
C25 C 0.36944(13) 0.50740(6) 0.39193(11)
C26 C 0.31046(16) 0.59743(7) 0.62797(14)
C27 C 0.3355(2) 0.66169(8) 0.76365(14)
H25 H 0.2528 0.6740 0.7550
H26 H 0.3880 0.6909 0.7850
H27 H 0.3422 0.6346 0.8187
C28 C 0.61829(16) 0.65970(7) 0.36792(13)
H28 H 0.5508 0.6838 0.3698
H29 H 0.6766 0.6738 0.3209
H30 H 0.6559 0.6555 0.4401
C29 C 0.35953(14) 0.42931(6) 0.27257(11)
C30 C 0.20849(13) 0.35447(6) 0.31338(11)
C31 C 0.29534(13) 0.37743(6) 0.25095(11)
C32 C 0.32541(15) 0.35112(7) 0.15827(12)
H31 H 0.3853 0.3655 0.1171
C33 C 0.27032(17) 0.30466(7) 0.12468(13)
H32 H 0.2916 0.2884 0.0608
C34 C 0.18432(16) 0.28220(7) 0.18471(13)
H33 H 0.1450 0.2510 0.1620
C35 C 0.15751(14) 0.30686(6) 0.27919(12)
C36 C 0.05237(18) 0.38751(9) 0.4208(2)
H34 H 0.0363 0.4251 0.4209
H35 H 0.0322 0.3724 0.4889
H36 H 0.0039 0.3710 0.3623
C37? C 0.1270(4) 0.50742(19) 0.5302(4)
H37? H 0.1204 0.5446 0.5468
H38? H 0.0803 0.4871 0.5787
H39? H 0.0965 0.5012 0.4564
O17? O 0.2518(3) 0.49157(12) 0.5433(3)
loop_
_geom_bond_atom_site_label_1
_geom_bond_atom_site_label_2
_geom_bond_site_symmetry_1
_geom_bond_site_symmetry_2
O1 C2 1_555 1_555
O2 C9 1_555 1_555
O3 C9 1_555 1_555
O4 C5 1_555 1_555
O5 C12 1_555 1_555
O6 C13 1_555 1_555
O7 N2 1_555 1_555
O8 N2 1_555 1_555
O9 C26 1_555 1_555
O10 C1 1_555 1_555
C1 H1 1_555 1_555
H2 C1 1_555 1_555
H3 C1 1_555 1_555
O11 C26 1_555 1_555
O12 C23 1_555 1_555
O13 C29 1_555 1_555
O14 C30 1_555 1_555
O15 N4 1_555 1_555
O16 N4 1_555 1_555
N1 H4 1_555 1_555
N2 C18 1_555 1_555
N3 H5 1_555 1_555
N4 C35 1_555 1_555
C2 C3 1_555 1_555
C3 C4 1_555 1_555
C4 H6 1_555 1_555
C5 C4 1_555 1_555
C6 C5 1_555 1_555
H7 C6 1_555 1_555
C7 N1 1_555 1_555
C8 O1 1_555 1_555
H8 C8 1_555 1_555
H9 C8 1_555 1_555
H10 C8 1_555 1_555
C9 C3 1_555 1_555
C10 O2 1_555 1_555
H11 C10 1_555 1_555
H12 C10 1_555 1_555
H13 C10 1_555 1_555
C11 O4 1_555 1_555
H14 C11 1_555 1_555
H15 C11 1_555 1_555
H16 C11 1_555 1_555
C12 N1 1_555 1_555
C13 C14 1_555 1_555
C14 C12 1_555 1_555
C15 C14 1_555 1_555
H17 C15 1_555 1_555
C16 C15 1_555 1_555
H18 C16 1_555 1_555
C17 C16 1_555 1_555
H19 C17 1_555 1_555
C18 C13 1_555 1_555
C19 O6 1_555 1_555
H20 C19 1_555 1_555
H21 C19 1_555 1_555
H22 C19 1_555 1_555
C20 O10 1_555 1_555
C21 C20 1_555 1_555
C22 C21 1_555 1_555
H23 C22 1_555 1_555
C23 C22 1_555 1_555
C24 C23 1_555 1_555
H24 C24 1_555 1_555
C25 N3 1_555 1_555
C26 C21 1_555 1_555
C27 O9 1_555 1_555
H25 C27 1_555 1_555
H26 C27 1_555 1_555
H27 C27 1_555 1_555
C28 O12 1_555 1_555
H28 C28 1_555 1_555
H29 C28 1_555 1_555
H30 C28 1_555 1_555
C29 N3 1_555 1_555
C30 C31 1_555 1_555
C31 C29 1_555 1_555
C32 C31 1_555 1_555
H31 C32 1_555 1_555
C33 C32 1_555 1_555
H32 C33 1_555 1_555
C34 C33 1_555 1_555
H33 C34 1_555 1_555
C35 C30 1_555 1_555
C36 O14 1_555 1_555
H34 C36 1_555 1_555
H35 C36 1_555 1_555
H36 C36 1_555 1_555
C2 C7 1_555 1_555
C6 C7 1_555 1_555
C17 C18 1_555 1_555
C20 C25 1_555 1_555
C24 C25 1_555 1_555
C34 C35 1_555 1_555

#END
