
#######################################################################
#
#                 Cambridge Crystallographic Data Centre
#                                CCDC 
#
#######################################################################
#
# If this CIF has been generated from an entry in the Cambridge 
# Structural Database, then it will include bibliographic, chemical, 
# crystal, experimental, refinement or atomic coordinate data resulting 
# from the CCDC's data processing and validation procedures.
#
#######################################################################

data_YUXPAJ
_chemical_formula_moiety         'C16 H24 O4'
_chemical_name_systematic        'Methyl 2-hydroxy-5-(octyloxy)benzoate'
_symmetry_cell_setting           triclinic
_symmetry_space_group_name_H-M   'P -1'
_symmetry_Int_Tables_number      2
_space_group_name_Hall           '-P 1'
loop_
_symmetry_equiv_pos_site_id
_symmetry_equiv_pos_as_xyz
1 x,y,z
2 -x,-y,-z
_cell_length_a                   9.6816(6)
_cell_length_b                   11.8460(7)
_cell_length_c                   14.8820(9)
_cell_angle_alpha                84.4210(10)
_cell_angle_beta                 75.4620(10)
_cell_angle_gamma                68.0090(10)
_cell_volume                     1531.93
_exptl_crystal_colour            colorless
_exptl_crystal_description       block
_cell_formula_units_Z            4
loop_
_atom_site_label
_atom_site_type_symbol
_atom_site_fract_x
_atom_site_fract_y
_atom_site_fract_z
C1 C 0.71161(17) 0.40897(15) 0.77256(10)
H1 H 0.6107 0.4714 0.7960
H2 H 0.6978 0.3330 0.7648
C2 C 0.79032(18) 0.44877(14) 0.68114(10)
H3 H 0.8920 0.3864 0.6597
H4 H 0.8041 0.5243 0.6903
C3 C 0.69988(18) 0.46950(14) 0.60704(10)
H5 H 0.6003 0.5349 0.6271
H6 H 0.6812 0.3953 0.6004
C4 C 0.78274(17) 0.50322(14) 0.51302(10)
H7 H 0.7992 0.5785 0.5194
H8 H 0.8834 0.4387 0.4937
C5 C 0.69447(17) 0.52107(14) 0.43802(10)
H9 H 0.6801 0.4451 0.4308
H10 H 0.5928 0.5841 0.4582
C6 C 0.77387(17) 0.55763(14) 0.34447(10)
H11 H 0.8748 0.4941 0.3237
H12 H 0.7896 0.6330 0.3518
C7 C 0.68355(19) 0.57710(16) 0.27041(11)
H13 H 0.6648 0.5027 0.2647
H14 H 0.5839 0.6426 0.2903
C8 C 0.7647(2) 0.60945(17) 0.17616(11)
H15 H 0.7811 0.6844 0.1808
H16 H 0.7023 0.6203 0.1319
H17 H 0.8627 0.5444 0.1554
C9 C 0.75664(17) 0.36135(14) 0.92598(9)
C10 C 0.61701(16) 0.35089(12) 0.96402(9)
H18 H 0.5471 0.3633 0.9268
C11 C 0.57889(15) 0.32161(12) 1.05849(9)
C12 C 0.68298(16) 0.30288(13) 1.11372(9)
C13 C 0.82427(17) 0.31309(15) 1.07406(10)
H19 H 0.8951 0.3003 1.1107
C14 C 0.86039(17) 0.34165(15) 0.98193(10)
H20 H 0.9562 0.3481 0.9558
C15 C 0.43045(16) 0.31043(13) 1.10162(9)
C16 C 0.18654(18) 0.33356(19) 1.08508(12)
H21 H 0.1940 0.2525 1.1080
H22 H 0.1260 0.3569 1.0387
H23 H 0.1378 0.3909 1.1361
O1 O 0.80725(13) 0.39140(12) 0.83599(7)
O2 O 0.65496(12) 0.27513(11) 1.20527(7)
H47 H 0.5701 0.2680 1.2216
O3 O 0.39328(12) 0.28276(11) 1.18257(7)
O4 O 0.33799(12) 0.33430(11) 1.04402(7)
C17 C 0.11670(16) 0.09959(14) 0.67335(9)
H24 H 0.0847 0.0307 0.6716
H25 H 0.0257 0.1707 0.6976
C18 C 0.22934(17) 0.06958(14) 0.73417(10)
H26 H 0.2666 0.1366 0.7310
H27 H 0.3174 -0.0038 0.7105
C19 C 0.15856(17) 0.04871(15) 0.83490(10)
H28 H 0.1266 -0.0212 0.8383
H29 H 0.0669 0.1203 0.8573
C20 C 0.26847(17) 0.02544(14) 0.89806(10)
H30 H 0.3607 -0.0454 0.8751
H31 H 0.2994 0.0958 0.8951
C21 C 0.19952(17) 0.00293(14) 0.99872(10)
H32 H 0.1665 -0.0663 1.0014
H33 H 0.1085 0.0746 1.0220
C22 C 0.30948(17) -0.02304(14) 1.06204(9)
H34 H 0.3996 -0.0957 1.0397
H35 H 0.3441 0.0455 1.0587
C23 C 0.23791(18) -0.04297(16) 1.16275(10)
H36 H 0.1507 0.0311 1.1860
H37 H 0.1990 -0.1090 1.1659
C24 C 0.3501(2) -0.0746(2) 1.22482(12)
H38 H 0.4341 -0.1501 1.2041
H39 H 0.2982 -0.0839 1.2883
H40 H 0.3896 -0.0098 1.2217
C25 C 0.11195(16) 0.15386(13) 0.51409(9)
C26 C -0.03253(15) 0.15213(12) 0.52399(9)
H41 H -0.0848 0.1314 0.5815
C27 C -0.10222(16) 0.18138(12) 0.44796(9)
C28 C -0.02506(16) 0.21219(13) 0.36262(9)
C29 C 0.12094(17) 0.21436(14) 0.35428(10)
H42 H 0.1737 0.2356 0.2972
C30 C 0.18803(17) 0.18582(14) 0.42854(10)
H43 H 0.2863 0.1878 0.4218
C31 C -0.25576(16) 0.17823(12) 0.45704(9)
C32 C -0.46067(18) 0.13098(16) 0.55159(12)
H44 H -0.5381 0.2089 0.5425
H45 H -0.4909 0.1006 0.6134
H46 H -0.4501 0.0735 0.5059
O5 O 0.19223(12) 0.12472(10) 0.58236(7)
O6 O -0.08220(12) 0.24058(11) 0.28554(7)
H48 H -0.1689 0.2369 0.2976
O7 O -0.32200(13) 0.20179(11) 0.39420(7)
O8 O -0.31650(12) 0.14582(10) 0.54122(7)
loop_
_geom_bond_atom_site_label_1
_geom_bond_atom_site_label_2
_geom_bond_site_symmetry_1
_geom_bond_site_symmetry_2
C1 H1 1_555 1_555
H2 C1 1_555 1_555
C2 C1 1_555 1_555
H3 C2 1_555 1_555
H4 C2 1_555 1_555
C3 C2 1_555 1_555
H5 C3 1_555 1_555
H6 C3 1_555 1_555
C4 C3 1_555 1_555
H7 C4 1_555 1_555
H8 C4 1_555 1_555
C5 C4 1_555 1_555
H9 C5 1_555 1_555
H10 C5 1_555 1_555
C6 C5 1_555 1_555
H11 C6 1_555 1_555
H12 C6 1_555 1_555
C7 C6 1_555 1_555
H13 C7 1_555 1_555
H14 C7 1_555 1_555
C8 C7 1_555 1_555
H15 C8 1_555 1_555
H16 C8 1_555 1_555
H17 C8 1_555 1_555
C9 C10 1_555 1_555
C10 H18 1_555 1_555
C11 C10 1_555 1_555
C12 C11 1_555 1_555
C13 C12 1_555 1_555
H19 C13 1_555 1_555
C14 C9 1_555 1_555
H20 C14 1_555 1_555
C15 C11 1_555 1_555
C16 H21 1_555 1_555
H22 C16 1_555 1_555
H23 C16 1_555 1_555
C17 H24 1_555 1_555
H25 C17 1_555 1_555
C18 C17 1_555 1_555
H26 C18 1_555 1_555
H27 C18 1_555 1_555
C19 C18 1_555 1_555
H28 C19 1_555 1_555
H29 C19 1_555 1_555
C20 C19 1_555 1_555
H30 C20 1_555 1_555
H31 C20 1_555 1_555
C21 C20 1_555 1_555
H32 C21 1_555 1_555
H33 C21 1_555 1_555
C22 C21 1_555 1_555
H34 C22 1_555 1_555
H35 C22 1_555 1_555
C23 C22 1_555 1_555
H36 C23 1_555 1_555
H37 C23 1_555 1_555
C24 C23 1_555 1_555
H38 C24 1_555 1_555
H39 C24 1_555 1_555
H40 C24 1_555 1_555
C25 C26 1_555 1_555
C26 H41 1_555 1_555
C27 C26 1_555 1_555
C28 C27 1_555 1_555
C29 C28 1_555 1_555
H42 C29 1_555 1_555
C30 C25 1_555 1_555
H43 C30 1_555 1_555
C31 C27 1_555 1_555
C32 H44 1_555 1_555
H45 C32 1_555 1_555
H46 C32 1_555 1_555
O1 C1 1_555 1_555
O2 C12 1_555 1_555
H47 O2 1_555 1_555
O3 C15 1_555 1_555
O4 C15 1_555 1_555
O5 C17 1_555 1_555
O6 C28 1_555 1_555
H48 O6 1_555 1_555
O7 C31 1_555 1_555
O8 C31 1_555 1_555
C9 O1 1_555 1_555
C13 C14 1_555 1_555
C16 O4 1_555 1_555
C25 O5 1_555 1_555
C29 C30 1_555 1_555
C32 O8 1_555 1_555

#END
