
#######################################################################
#
#                 Cambridge Crystallographic Data Centre
#                                CCDC 
#
#######################################################################
#
# If this CIF has been generated from an entry in the Cambridge 
# Structural Database, then it will include bibliographic, chemical, 
# crystal, experimental, refinement or atomic coordinate data resulting 
# from the CCDC's data processing and validation procedures.
#
#######################################################################

data_YUXPIR
_chemical_formula_moiety         'C12 H10 Se2'
_chemical_name_systematic        '(P)-Diphenyl diselenide'
_symmetry_cell_setting           orthorhombic
_symmetry_space_group_name_H-M   'P 21 21 21'
_symmetry_Int_Tables_number      19
_space_group_name_Hall           'P 2ac 2ab'
loop_
_symmetry_equiv_pos_site_id
_symmetry_equiv_pos_as_xyz
1 x,y,z
2 1/2+x,1/2-y,-z
3 -x,1/2+y,1/2-z
4 1/2-x,-y,1/2+z
_cell_length_a                   5.5699(19)
_cell_length_b                   8.238(3)
_cell_length_c                   23.826(7)
_cell_angle_alpha                90
_cell_angle_beta                 90
_cell_angle_gamma                90
_cell_volume                     1093.25
_exptl_crystal_colour            yellow
_exptl_crystal_description       prism
_cell_formula_units_Z            4
loop_
_atom_site_label
_atom_site_type_symbol
_atom_site_fract_x
_atom_site_fract_y
_atom_site_fract_z
Se1 Se 0.42557(10) 0.77297(6) 0.446691(19)
Se2 Se 0.06815(10) 0.70277(6) 0.40425(2)
C1 C 0.4517(11) 1.0033(6) 0.4323(2)
C2 C 0.6576(10) 1.0774(7) 0.4533(2)
C3 C 0.6906(11) 1.2441(7) 0.4438(2)
C4 C 0.5254(10) 1.3309(6) 0.4132(2)
C5 C 0.3184(10) 1.2553(7) 0.3932(2)
C6 C 0.2836(10) 1.0915(6) 0.4025(2)
C7 C 0.1658(9) 0.6637(6) 0.3270(2)
C8 C 0.3705(9) 0.7306(7) 0.3034(2)
C9 C 0.4155(10) 0.7053(7) 0.2474(2)
C10 C 0.2593(11) 0.6145(7) 0.2150(2)
C11 C 0.0604(12) 0.5464(7) 0.2389(2)
C12 C 0.0102(9) 0.5698(7) 0.2954(2)
H1 H 0.7734 1.0165 0.4736
H2 H 0.8282 1.2973 0.4585
H3 H 0.5522 1.4427 0.4057
H4 H 0.2017 1.3163 0.3732
H5 H 0.1440 1.0395 0.3884
H6 H 0.4781 0.7929 0.3256
H7 H 0.5551 0.7507 0.2307
H8 H 0.2903 0.5994 0.1762
H9 H -0.0447 0.4824 0.2166
H10 H -0.1279 0.5223 0.3121
loop_
_geom_bond_atom_site_label_1
_geom_bond_atom_site_label_2
_geom_bond_site_symmetry_1
_geom_bond_site_symmetry_2
Se1 Se2 1_555 1_555
Se2 C7 1_555 1_555
C1 Se1 1_555 1_555
C2 C1 1_555 1_555
C3 C2 1_555 1_555
C4 C3 1_555 1_555
C5 C4 1_555 1_555
C6 C1 1_555 1_555
C7 C8 1_555 1_555
C8 C9 1_555 1_555
C9 C10 1_555 1_555
C10 C11 1_555 1_555
C11 C12 1_555 1_555
C12 C7 1_555 1_555
H1 C2 1_555 1_555
H2 C3 1_555 1_555
H3 C4 1_555 1_555
H4 C5 1_555 1_555
H5 C6 1_555 1_555
H6 C8 1_555 1_555
H7 C9 1_555 1_555
H8 C10 1_555 1_555
H9 C11 1_555 1_555
H10 C12 1_555 1_555
C5 C6 1_555 1_555

#END
