
#######################################################################
#
#                 Cambridge Crystallographic Data Centre
#                                CCDC 
#
#######################################################################
#
# If this CIF has been generated from an entry in the Cambridge 
# Structural Database, then it will include bibliographic, chemical, 
# crystal, experimental, refinement or atomic coordinate data resulting 
# from the CCDC's data processing and validation procedures.
#
#######################################################################

data_YUYLIN
_chemical_formula_moiety         'C24 H30 O2 S1'
_chemical_name_systematic        
1,2,4a,5,6,7,8,9,10,10a,11,11a-Dodecahydro-11-hydroxy-11-methyl-7-phenylthiomethyl-5aH-5a,8-methanocyclohepta(b)naphthalen-10-one
_symmetry_cell_setting           monoclinic
_symmetry_space_group_name_H-M   'P 21/c'
_symmetry_Int_Tables_number      14
_space_group_name_Hall           '-P 2ybc'
loop_
_symmetry_equiv_pos_site_id
_symmetry_equiv_pos_as_xyz
1 x,y,z
2 -x,1/2+y,1/2-z
3 -x,-y,-z
4 x,1/2-y,1/2+z
_cell_length_a                   5.976(1)
_cell_length_b                   13.146(1)
_cell_length_c                   25.883(3)
_cell_angle_alpha                90
_cell_angle_beta                 93.84(1)
_cell_angle_gamma                90
_cell_volume                     2028.82
_exptl_crystal_colour            colorless
_cell_formula_units_Z            4
loop_
_atom_site_label
_atom_site_type_symbol
_atom_site_fract_x
_atom_site_fract_y
_atom_site_fract_z
S1 S 0.16288(13) 0.31442(4) 0.29855(2)
C1 C 0.0904(4) 0.35986(14) 0.46657(8)
O1 O -0.0751(3) 0.41436(11) 0.46247(6)
C2 C 0.2827(4) 0.3757(2) 0.43266(10)
H1 H 0.3993(42) 0.4152(19) 0.4536(10)
H2 H 0.2217(39) 0.4166(18) 0.4033(9)
C3 C 0.3921(4) 0.2759(2) 0.41721(9)
H3 H 0.5225(40) 0.2890(17) 0.3969(9)
C4 C 0.4675(4) 0.2183(2) 0.46662(9)
H4 H 0.5543(36) 0.2603(17) 0.4931(8)
H5 H 0.5512(37) 0.1603(18) 0.4581(8)
C5 C 0.2419(3) 0.18320(13) 0.48588(8)
C6 C 0.1060(3) 0.27392(14) 0.50571(7)
H6 H -0.0451(34) 0.2520(14) 0.5081(7)
C7 C 0.1736(3) 0.31403(14) 0.56165(8)
C8 C 0.3874(4) 0.3782(2) 0.56617(9)
H7 H 0.5152(5) 0.3358(3) 0.5596(5)
H8 H 0.4075(12) 0.4065(8) 0.6008(2)
H9 H 0.3752(10) 0.4330(6) 0.5411(4)
O2 O -0.0071(3) 0.37624(12) 0.57724(6)
H10 H 0.0108(51) 0.4390(25) 0.5646(11)
C9 C 0.1944(3) 0.22451(15) 0.59982(8)
H11 H 0.2708(37) 0.2512(17) 0.6321(9)
C10 C 0.3458(3) 0.14004(15) 0.58103(9)
H12 H 0.5031(38) 0.1685(16) 0.5783(8)
C11 C 0.2612(4) 0.10084(15) 0.52745(8)
H13 H 0.3633(37) 0.0482(17) 0.5161(8)
H14 H 0.1103(37) 0.0686(15) 0.5299(8)
C12 C -0.0282(4) 0.1786(2) 0.61416(8)
H15 H -0.0989(34) 0.1390(16) 0.5837(8)
H16 H -0.1254(38) 0.2332(18) 0.6219(9)
C13 C 0.0113(5) 0.1046(2) 0.65935(9)
H17 H -0.1187(45) 0.0590(20) 0.6630(10)
H18 H 0.0265(41) 0.1423(20) 0.6932(10)
C14 C 0.3615(4) 0.0547(2) 0.62013(10)
H19 H 0.4943(41) 0.0116(18) 0.6181(9)
C15 C 0.2133(5) 0.0399(2) 0.65477(9)
H20 H 0.2288(46) -0.0157(22) 0.6773(11)
C16 C 0.1232(4) 0.1431(2) 0.43505(8)
H21 H -0.0374(41) 0.1546(17) 0.4345(8)
H22 H 0.1410(36) 0.0682(18) 0.4313(8)
C17 C 0.2259(4) 0.20086(15) 0.38970(8)
H23 H 0.3167(35) 0.1533(16) 0.3708(8)
C18 C 0.0498(4) 0.2456(2) 0.35134(9)
H24 H -0.0480(42) 0.1908(20) 0.3367(9)
H25 H -0.0468(41) 0.2977(19) 0.3679(9)
C19 C 0.3093(4) 0.2189(2) 0.26625(8)
C20 C 0.2230(5) 0.1225(2) 0.25692(10)
H26 H 0.0780(46) 0.1040(20) 0.2689(10)
C21 C 0.3406(6) 0.0529(2) 0.22955(11)
H27 H 0.2738(47) -0.0163(23) 0.2238(11)
C22 C 0.5446(6) 0.0798(3) 0.21097(10)
H28 H 0.6249(52) 0.0345(25) 0.1940(12)
C23 C 0.6272(6) 0.1755(3) 0.21977(12)
H29 H 0.7738(58) 0.1939(24) 0.2081(12)
C24 C 0.5130(5) 0.2446(2) 0.24764(10)
H30 H 0.5685(54) 0.3167(26) 0.2541(12)
loop_
_geom_bond_atom_site_label_1
_geom_bond_atom_site_label_2
_geom_bond_site_symmetry_1
_geom_bond_site_symmetry_2
S1 C18 1_555 1_555
C1 O1 1_555 1_555
C2 C1 1_555 1_555
H1 C2 1_555 1_555
H2 C2 1_555 1_555
C3 C2 1_555 1_555
H3 C3 1_555 1_555
C4 C3 1_555 1_555
H4 C4 1_555 1_555
H5 C4 1_555 1_555
C5 C4 1_555 1_555
C6 C1 1_555 1_555
H6 C6 1_555 1_555
C7 C6 1_555 1_555
C8 C7 1_555 1_555
H7 C8 1_555 1_555
H8 C8 1_555 1_555
H9 C8 1_555 1_555
O2 C7 1_555 1_555
H10 O2 1_555 1_555
C9 C7 1_555 1_555
H11 C9 1_555 1_555
C10 C9 1_555 1_555
H12 C10 1_555 1_555
C11 C5 1_555 1_555
H13 C11 1_555 1_555
H14 C11 1_555 1_555
C12 C9 1_555 1_555
H15 C12 1_555 1_555
H16 C12 1_555 1_555
C13 C12 1_555 1_555
H17 C13 1_555 1_555
H18 C13 1_555 1_555
C14 C10 1_555 1_555
H19 C14 1_555 1_555
C15 C13 1_555 1_555
H20 C15 1_555 1_555
C16 C5 1_555 1_555
H21 C16 1_555 1_555
H22 C16 1_555 1_555
C17 C3 1_555 1_555
H23 C17 1_555 1_555
C18 C17 1_555 1_555
H24 C18 1_555 1_555
H25 C18 1_555 1_555
C19 S1 1_555 1_555
C20 C19 1_555 1_555
H26 C20 1_555 1_555
C21 C20 1_555 1_555
H27 C21 1_555 1_555
C22 C21 1_555 1_555
H28 C22 1_555 1_555
C23 C22 1_555 1_555
H29 C23 1_555 1_555
C24 C19 1_555 1_555
H30 C24 1_555 1_555
C5 C6 1_555 1_555
C10 C11 1_555 1_555
C14 C15 1_555 1_555
C16 C17 1_555 1_555
C23 C24 1_555 1_555

#END
