
#######################################################################
#
#                 Cambridge Crystallographic Data Centre
#                                CCDC 
#
#######################################################################
#
# If this CIF has been generated from an entry in the Cambridge 
# Structural Database, then it will include bibliographic, chemical, 
# crystal, experimental, refinement or atomic coordinate data resulting 
# from the CCDC's data processing and validation procedures.
#
#######################################################################

data_YUYLEJ
_chemical_formula_moiety         'C10 H8 N2 O6'
_chemical_name_systematic        'Methyl 3,5-nitro-trans-cinnamate'
_symmetry_cell_setting           monoclinic
_symmetry_space_group_name_H-M   'P 21/n'
_symmetry_Int_Tables_number      14
_space_group_name_Hall           '-P 2yn'
loop_
_symmetry_equiv_pos_site_id
_symmetry_equiv_pos_as_xyz
1 x,y,z
2 1/2-x,1/2+y,1/2-z
3 -x,-y,-z
4 1/2+x,1/2-y,1/2+z
_cell_length_a                   4.842(2)
_cell_length_b                   16.848(4)
_cell_length_c                   13.489(3)
_cell_angle_alpha                90
_cell_angle_beta                 90.56(2)
_cell_angle_gamma                90
_cell_volume                     1100.35
_exptl_crystal_colour            'pale yellow'
_chemical_melting_point          '433 K'
_cell_formula_units_Z            4
loop_
_atom_site_label
_atom_site_type_symbol
_atom_site_fract_x
_atom_site_fract_y
_atom_site_fract_z
C1 C 0.4867(5) 0.00069(14) 0.1782(2)
C2 C 0.2879(5) -0.0321(2) 0.2409(2)
C3 C 0.1450(4) 0.01628(14) 0.3045(2)
C4 C 0.1867(5) 0.0964(2) 0.3094(2)
C5 C 0.3844(5) 0.12769(14) 0.2486(2)
C6 C 0.5339(5) 0.08187(15) 0.1836(2)
C7 C 0.6499(5) -0.0470(2) 0.1086(2)
C8 C 0.6507(6) -0.1237(2) 0.0999(2)
C9 C 0.8277(5) -0.1658(2) 0.0291(2)
C10 C 0.9649(10) -0.2915(3) -0.0301(3)
N1 N -0.0642(4) -0.0193(2) 0.3690(2)
N2 N 0.4429(5) 0.21349(13) 0.2529(2)
O1 O -0.0855(5) -0.09054(14) 0.3697(2)
O2 O -0.2077(4) 0.02533(12) 0.4179(2)
O3 O 0.6481(6) 0.23766(12) 0.2135(2)
O4 O 0.2862(5) 0.25531(11) 0.2984(2)
O5 O 0.7900(4) -0.24360(11) 0.03205(14)
O6 O 0.9876(4) -0.13403(11) -0.02541(15)
H1 H 0.2487(45) -0.0825(14) 0.2383(17)
H2 H 0.0934(50) 0.1262(15) 0.3489(19)
H3 H 0.6573(50) 0.1034(14) 0.1439(18)
H4 H 0.7680(49) -0.0174(15) 0.0681(19)
H5 H 0.5486(61) -0.1560(18) 0.1370(21)
H6 H 0.9258(75) -0.3414(26) -0.0194(27)
H7 H 0.9242(73) -0.2802(20) -0.0977(29)
H8 H 1.1508(84) -0.2822(24) -0.0102(27)
loop_
_geom_bond_atom_site_label_1
_geom_bond_atom_site_label_2
_geom_bond_site_symmetry_1
_geom_bond_site_symmetry_2
C1 C2 1_555 1_555
C2 C3 1_555 1_555
C3 C4 1_555 1_555
C4 C5 1_555 1_555
C5 C6 1_555 1_555
C6 C1 1_555 1_555
C7 C1 1_555 1_555
C8 C7 1_555 1_555
C9 C8 1_555 1_555
C10 O5 1_555 1_555
N1 C3 1_555 1_555
N2 C5 1_555 1_555
O1 N1 1_555 1_555
O2 N1 1_555 1_555
O3 N2 1_555 1_555
O4 N2 1_555 1_555
O5 C9 1_555 1_555
O6 C9 1_555 1_555
H1 C2 1_555 1_555
H2 C4 1_555 1_555
H3 C6 1_555 1_555
H4 C7 1_555 1_555
H5 C8 1_555 1_555
H6 C10 1_555 1_555
H7 C10 1_555 1_555
H8 C10 1_555 1_555

#END
