
#######################################################################
#
#                 Cambridge Crystallographic Data Centre
#                                CCDC 
#
#######################################################################
#
# If this CIF has been generated from an entry in the Cambridge 
# Structural Database, then it will include bibliographic, chemical, 
# crystal, experimental, refinement or atomic coordinate data resulting 
# from the CCDC's data processing and validation procedures.
#
#######################################################################

data_YUYPOX
_chemical_formula_moiety         'C13 H16 Br2 O4'
_chemical_name_systematic        
'Dimethyl 4-exo,9-endo-dibromobicyclo(3.3.1)non-2-ene-2,3-dicarboxylate'
_symmetry_cell_setting           orthorhombic
_symmetry_space_group_name_H-M   'P b c a'
_symmetry_Int_Tables_number      61
_space_group_name_Hall           '-P 2ac 2ab'
loop_
_symmetry_equiv_pos_site_id
_symmetry_equiv_pos_as_xyz
1 x,y,z
2 1/2-x,-y,1/2+z
3 1/2+x,1/2-y,-z
4 -x,1/2+y,1/2-z
5 -x,-y,-z
6 1/2+x,y,1/2-z
7 1/2-x,1/2+y,z
8 x,1/2-y,1/2+z
_cell_length_a                   13.945(9)
_cell_length_b                   15.406(8)
_cell_length_c                   13.830(8)
_cell_angle_alpha                90
_cell_angle_beta                 90
_cell_angle_gamma                90
_cell_volume                     2971.19
_exptl_crystal_colour            Colorless
_cell_formula_units_Z            8
loop_
_atom_site_label
_atom_site_type_symbol
_atom_site_fract_x
_atom_site_fract_y
_atom_site_fract_z
Br1 Br 0.48704(7) 0.01680(8) 0.13032(7)
Br2 Br 0.40333(6) -0.20945(8) 0.13611(8)
O1 O 0.2800(4) -0.1960(4) 0.4276(4)
O2 O 0.3361(4) -0.0718(4) 0.4902(4)
O3 O 0.4396(4) 0.0938(4) 0.3633(5)
O4 O 0.3005(4) 0.0296(4) 0.3226(4)
C1 C 0.4677(7) -0.2132(6) 0.3334(8)
C2 C 0.4168(5) -0.1290(6) 0.3556(6)
C3 C 0.4409(5) -0.0538(6) 0.3161(6)
C4 C 0.5253(6) -0.0478(6) 0.2478(6)
C5 C 0.5745(6) -0.1327(7) 0.2221(6)
C6 C 0.6603(7) -0.1502(8) 0.2892(7)
C7 C 0.6299(8) -0.1608(7) 0.3932(7)
C8 C 0.5523(8) -0.2298(8) 0.4031(9)
C9 C 0.5085(7) -0.2100(7) 0.2307(7)
C10 C 0.3347(6) -0.1374(6) 0.4279(6)
C11 C 0.254(1) -0.071(1) 0.558(1)
C12 C 0.3945(7) 0.0321(6) 0.3372(6)
C13 C 0.251(1) 0.111(1) 0.348(2)
H1 H 0.421(4) -0.255(4) 0.336(4)
H2 H 0.577(4) -0.009(4) 0.277(4)
H3 H 0.604(5) -0.132(4) 0.151(5)
H4 H 0.539(5) -0.261(4) 0.218(5)
H5 H 0.689(5) -0.208(5) 0.274(5)
H6 H 0.710(4) -0.108(4) 0.281(5)
H7 H 0.687(5) -0.180(5) 0.439(5)
H8 H 0.611(5) -0.106(5) 0.420(5)
H9 H 0.534(5) -0.232(4) 0.463(4)
H10 H 0.585(7) -0.287(7) 0.391(7)
H11 H 0.22(1) -0.09(1) 0.53(1)
H12 H 0.283(9) -0.105(8) 0.60(1)
H13 H 0.261(7) -0.027(7) 0.594(8)
H14 H 0.267(9) 0.124(9) 0.404(8)
H15 H 0.29(1) 0.13(1) 0.32(1)
H16 H 0.198(7) 0.103(7) 0.316(7)
loop_
_geom_bond_atom_site_label_1
_geom_bond_atom_site_label_2
_geom_bond_site_symmetry_1
_geom_bond_site_symmetry_2
Br1 C4 1_555 1_555
Br2 C9 1_555 1_555
O1 C10 1_555 1_555
O2 C10 1_555 1_555
O3 C12 1_555 1_555
O4 C12 1_555 1_555
C1 C2 1_555 1_555
C2 C3 1_555 1_555
C3 C4 1_555 1_555
C4 C5 1_555 1_555
C5 C6 1_555 1_555
C6 C7 1_555 1_555
C7 C8 1_555 1_555
C8 C1 1_555 1_555
C9 C1 1_555 1_555
C10 C2 1_555 1_555
C11 O2 1_555 1_555
C12 C3 1_555 1_555
C13 O4 1_555 1_555
H1 C1 1_555 1_555
H2 C4 1_555 1_555
H3 C5 1_555 1_555
H4 C9 1_555 1_555
H5 C6 1_555 1_555
H6 C6 1_555 1_555
H7 C7 1_555 1_555
H8 C7 1_555 1_555
H9 C8 1_555 1_555
H10 C8 1_555 1_555
H11 C11 1_555 1_555
H12 C11 1_555 1_555
H13 C11 1_555 1_555
H14 C13 1_555 1_555
H15 C13 1_555 1_555
H16 C13 1_555 1_555
C5 C9 1_555 1_555

#END
