
#######################################################################
#
#                 Cambridge Crystallographic Data Centre
#                                CCDC 
#
#######################################################################
#
# If this CIF has been generated from an entry in the Cambridge 
# Structural Database, then it will include bibliographic, chemical, 
# crystal, experimental, refinement or atomic coordinate data resulting 
# from the CCDC's data processing and validation procedures.
#
#######################################################################

data_YUYPUE
_chemical_formula_moiety         'C14 H32 N3 1+,C24 H20 B1 1-'
_chemical_name_systematic        
"N',N'-Dimethyl-N-ethyl-N,N'',N''-tripropylguanidinium tetraphenylborate"
_symmetry_cell_setting           orthorhombic
_symmetry_space_group_name_H-M   'P 21 21 21'
_symmetry_Int_Tables_number      19
_space_group_name_Hall           'P 2ac 2ab'
loop_
_symmetry_equiv_pos_site_id
_symmetry_equiv_pos_as_xyz
1 x,y,z
2 1/2-x,-y,1/2+z
3 1/2+x,1/2-y,-z
4 -x,1/2+y,1/2-z
_cell_length_a                   10.6471(2)
_cell_length_b                   11.1229(2)
_cell_length_c                   28.1961(8)
_cell_angle_alpha                90
_cell_angle_beta                 90
_cell_angle_gamma                90
_cell_volume                     3339.17
_exptl_crystal_colour            colorless
_exptl_crystal_description       block
_chemical_melting_point          '187-189 deg.C'
_cell_formula_units_Z            4
_exptl_crystal_recrystallization_method acetonitrile
loop_
_atom_site_label
_atom_site_type_symbol
_atom_site_fract_x
_atom_site_fract_y
_atom_site_fract_z
N1 N 0.7855(2) 0.1377(2) 0.16456(7)
N2 N 0.59389(19) 0.1486(2) 0.12554(8)
N3 N 0.7386(2) -0.0007(2) 0.10476(8)
C1 C 0.7050(3) 0.0942(3) 0.13247(9)
C2 C 0.7407(3) 0.1917(3) 0.20910(10)
H1 H 0.7704 0.2731 0.2113
H2 H 0.7720 0.1462 0.2355
H3 H 0.6506 0.1912 0.2096
C3 C 0.9217(2) 0.1371(3) 0.15792(10)
H4 H 0.9413 0.1062 0.1270
H5 H 0.9599 0.0872 0.1816
H6 H 0.9533 0.2176 0.1608
C4 C 0.5781(3) 0.2778(3) 0.12390(14)
H7 H 0.5747 0.3094 0.1559
H8 H 0.4995 0.2971 0.1083
C5 C 0.6873(3) 0.3364(3) 0.09701(13)
H9 H 0.7631 0.3327 0.1160
H10 H 0.7024 0.2934 0.0676
C6 C 0.6544(4) 0.4676(4) 0.08629(14)
H11 H 0.7300 0.5119 0.0801
H12 H 0.6119 0.5021 0.1131
H13 H 0.6006 0.4711 0.0590
C7 C 0.4779(3) 0.0803(3) 0.11695(10)
H14 H 0.4989 -0.0041 0.1137
H15 H 0.4413 0.1068 0.0872
C8 C 0.3824(3) 0.0938(3) 0.15547(10)
H16 H 0.4231 0.0817 0.1859
H17 H 0.3499 0.1753 0.1549
C9 C 0.2751(3) 0.0078(3) 0.15118(13)
H18 H 0.2316 0.0220 0.1219
H19 H 0.2184 0.0193 0.1773
H20 H 0.3064 -0.0731 0.1516
C10 C 0.8231(3) -0.0934(3) 0.12475(13)
H21 H 0.8231 -0.0871 0.1591
H22 H 0.9081 -0.0789 0.1137
C11 C 0.7836(4) -0.2181(4) 0.11065(14)
H23 H 0.7771 -0.2251 0.0764
H24 H 0.8431 -0.2774 0.1221
C12 C 0.6580(4) -0.2345(4) 0.13360(14)
H25 H 0.6589 -0.1986 0.1645
H26 H 0.6400 -0.3188 0.1364
H27 H 0.5945 -0.1967 0.1145
C13 C 0.7177(4) 0.0002(5) 0.05239(12)
H28 H 0.6560 0.0615 0.0449
H29 H 0.6829 -0.0768 0.0430
C14 C 0.8368(4) 0.0241(4) 0.02311(11)
H30 H 0.9095 0.0127 0.0427
H31 H 0.8354 0.1052 0.0115
H32 H 0.8399 -0.0307 -0.0032
B1 B 0.1848(2) 0.5723(2) 0.13223(9)
C15 C 0.2950(2) 0.5322(2) 0.16994(7)
C16 C 0.2817(2) 0.4261(2) 0.19644(9)
H33 H 0.2104 0.3793 0.1916
C17 C 0.3712(2) 0.3868(2) 0.23009(10)
H34 H 0.3599 0.3156 0.2469
C18 C 0.4766(3) 0.4581(2) 0.23722(9)
H35 H 0.5373 0.4338 0.2589
C19 C 0.4927(2) 0.5608(2) 0.21356(8)
H36 H 0.5639 0.6072 0.2188
C20 C 0.4010(2) 0.5992(2) 0.18029(8)
H37 H 0.4126 0.6722 0.1649
C21 C 0.1442(2) 0.4586(2) 0.09734(7)
C22 C 0.0322(2) 0.4646(3) 0.07020(9)
H38 H -0.0207 0.5304 0.0739
C23 C -0.0004(2) 0.3756(3) 0.03847(9)
H39 H -0.0746 0.3825 0.0213
C24 C 0.0754(3) 0.2763(3) 0.03190(9)
H40 H 0.0530 0.2167 0.0104
C25 C 0.1853(3) 0.2669(3) 0.05787(10)
H41 H 0.2370 0.2003 0.0539
C26 C 0.2189(2) 0.3570(2) 0.09006(9)
H42 H 0.2932 0.3490 0.1071
C27 C 0.2280(2) 0.6792(2) 0.09491(7)
C28 C 0.1436(2) 0.7627(2) 0.07660(8)
H43 H 0.0621 0.7636 0.0885
C29 C 0.1750(3) 0.8447(3) 0.04146(9)
H44 H 0.1145 0.8967 0.0294
C30 C 0.2982(3) 0.8486(3) 0.02429(8)
H45 H 0.3219 0.9058 0.0020
C31 C 0.3833(2) 0.7665(3) 0.04106(9)
H46 H 0.4650 0.7667 0.0294
C32 C 0.3482(2) 0.6821(2) 0.07565(9)
H47 H 0.4072 0.6263 0.0860
C33 C 0.06554(19) 0.6120(2) 0.16633(7)
C34 C -0.0272(2) 0.5308(2) 0.18110(8)
H48 H -0.0286 0.4543 0.1678
C35 C -0.1169(2) 0.5604(2) 0.21472(10)
H49 H -0.1765 0.5037 0.2238
C36 C -0.1184(2) 0.6730(2) 0.23469(9)
H50 H -0.1794 0.6935 0.2569
C37 C -0.0280(2) 0.7553(2) 0.22131(8)
H51 H -0.0270 0.8317 0.2347
C38 C 0.0607(2) 0.7239(2) 0.18793(8)
H52 H 0.1206 0.7808 0.1794
loop_
_geom_bond_atom_site_label_1
_geom_bond_atom_site_label_2
_geom_bond_site_symmetry_1
_geom_bond_site_symmetry_2
N1 C1 1_555 1_555
N2 C1 1_555 1_555
N3 C1 1_555 1_555
C2 N1 1_555 1_555
H1 C2 1_555 1_555
H2 C2 1_555 1_555
H3 C2 1_555 1_555
C3 N1 1_555 1_555
H4 C3 1_555 1_555
H5 C3 1_555 1_555
H6 C3 1_555 1_555
C4 N2 1_555 1_555
H7 C4 1_555 1_555
H8 C4 1_555 1_555
C5 C4 1_555 1_555
H9 C5 1_555 1_555
H10 C5 1_555 1_555
C6 C5 1_555 1_555
H11 C6 1_555 1_555
H12 C6 1_555 1_555
H13 C6 1_555 1_555
C7 N2 1_555 1_555
H14 C7 1_555 1_555
H15 C7 1_555 1_555
C8 C7 1_555 1_555
H16 C8 1_555 1_555
H17 C8 1_555 1_555
C9 C8 1_555 1_555
H18 C9 1_555 1_555
H19 C9 1_555 1_555
H20 C9 1_555 1_555
C10 N3 1_555 1_555
H21 C10 1_555 1_555
H22 C10 1_555 1_555
C11 C10 1_555 1_555
H23 C11 1_555 1_555
H24 C11 1_555 1_555
C12 C11 1_555 1_555
H25 C12 1_555 1_555
H26 C12 1_555 1_555
H27 C12 1_555 1_555
C13 N3 1_555 1_555
H28 C13 1_555 1_555
H29 C13 1_555 1_555
C14 C13 1_555 1_555
H30 C14 1_555 1_555
H31 C14 1_555 1_555
H32 C14 1_555 1_555
B1 C15 1_555 1_555
C15 C16 1_555 1_555
C16 H33 1_555 1_555
C17 C16 1_555 1_555
H34 C17 1_555 1_555
C18 C17 1_555 1_555
H35 C18 1_555 1_555
C19 C18 1_555 1_555
H36 C19 1_555 1_555
C20 C15 1_555 1_555
H37 C20 1_555 1_555
C21 B1 1_555 1_555
C22 C21 1_555 1_555
H38 C22 1_555 1_555
C23 C22 1_555 1_555
H39 C23 1_555 1_555
C24 C23 1_555 1_555
H40 C24 1_555 1_555
C25 C24 1_555 1_555
H41 C25 1_555 1_555
C26 C21 1_555 1_555
H42 C26 1_555 1_555
C27 B1 1_555 1_555
C28 C27 1_555 1_555
H43 C28 1_555 1_555
C29 C28 1_555 1_555
H44 C29 1_555 1_555
C30 C29 1_555 1_555
H45 C30 1_555 1_555
C31 C30 1_555 1_555
H46 C31 1_555 1_555
C32 C27 1_555 1_555
H47 C32 1_555 1_555
C33 B1 1_555 1_555
C34 C33 1_555 1_555
H48 C34 1_555 1_555
C35 C34 1_555 1_555
H49 C35 1_555 1_555
C36 C35 1_555 1_555
H50 C36 1_555 1_555
C37 C36 1_555 1_555
H51 C37 1_555 1_555
C38 C33 1_555 1_555
H52 C38 1_555 1_555
C19 C20 1_555 1_555
C25 C26 1_555 1_555
C31 C32 1_555 1_555
C37 C38 1_555 1_555

#END
