
#######################################################################
#
#                 Cambridge Crystallographic Data Centre
#                                CCDC 
#
#######################################################################
#
# If this CIF has been generated from an entry in the Cambridge 
# Structural Database, then it will include bibliographic, chemical, 
# crystal, experimental, refinement or atomic coordinate data resulting 
# from the CCDC's data processing and validation procedures.
#
#######################################################################

data_YUYQAL
_chemical_formula_moiety         'C9 H20 Cl1 N2 1+,Cl1 1-'
_chemical_name_systematic        
"N,N-Dimethyl-N',N'-dipropylchloroformamidinium chloride"
_symmetry_cell_setting           monoclinic
_symmetry_space_group_name_H-M   'P 21/c'
_symmetry_Int_Tables_number      14
_space_group_name_Hall           '-P 2ybc'
loop_
_symmetry_equiv_pos_site_id
_symmetry_equiv_pos_as_xyz
1 x,y,z
2 -x,1/2+y,1/2-z
3 -x,-y,-z
4 x,1/2-y,1/2+z
_cell_length_a                   13.7093(4)
_cell_length_b                   6.2034(2)
_cell_length_c                   13.9935(4)
_cell_angle_alpha                90
_cell_angle_beta                 92.776(2)
_cell_angle_gamma                90
_cell_volume                     1188.67
_exptl_crystal_colour            colorless
_exptl_crystal_description       lath-shaped
_cell_formula_units_Z            4
_chemical_properties_physical    hygroscopic
_exptl_crystal_recrystallization_method acetonitrile/ether
loop_
_atom_site_label
_atom_site_type_symbol
_atom_site_fract_x
_atom_site_fract_y
_atom_site_fract_z
Cl1 Cl 0.33334(2) 0.88843(5) 0.814063(19)
N1 N 0.40638(7) 0.82660(16) 0.64736(7)
N2 N 0.25379(7) 0.67111(16) 0.66942(7)
C1 C 0.33103(8) 0.78448(18) 0.69905(8)
C2 C 0.42847(9) 0.6959(2) 0.56316(9)
H1 H 0.3980(10) 0.554(2) 0.5651(10)
H2 H 0.4057(11) 0.771(2) 0.5073(11)
H3 H 0.4983(12) 0.682(3) 0.5642(11)
C3 C 0.47156(9) 1.0121(2) 0.66372(9)
H4 H 0.4642(14) 1.073(3) 0.7243(15)
H5 H 0.5368(14) 0.965(3) 0.6555(13)
H6 H 0.4550(14) 1.118(3) 0.6167(14)
C4 C 0.19585(9) 0.5456(2) 0.73645(8)
H7 H 0.1338(11) 0.619(2) 0.7432(10)
H8 H 0.2303(11) 0.543(2) 0.7963(11)
C5 C 0.18134(9) 0.3137(2) 0.70359(9)
H9 H 0.1541(12) 0.311(3) 0.6399(12)
H10 H 0.2418(13) 0.240(3) 0.7045(12)
C6 C 0.11483(10) 0.1980(2) 0.77121(9)
H11 H 0.0510(13) 0.267(3) 0.7676(12)
H12 H 0.1052(12) 0.045(3) 0.7515(12)
H13 H 0.1416(12) 0.205(3) 0.8367(12)
C7 C 0.21587(8) 0.68477(19) 0.56785(8)
H14 H 0.2281(10) 0.549(2) 0.5370(10)
H15 H 0.2506(11) 0.796(2) 0.5380(11)
C8 C 0.10757(8) 0.7398(2) 0.56116(8)
H16 H 0.0695(11) 0.621(3) 0.5860(11)
H17 H 0.0961(12) 0.869(3) 0.5986(12)
C9 C 0.07534(10) 0.7810(2) 0.45703(9)
H18 H 0.0052(13) 0.806(3) 0.4502(12)
H19 H 0.1084(12) 0.908(3) 0.4306(12)
H20 H 0.0888(13) 0.660(3) 0.4169(13)
Cl2 Cl 0.31176(2) 0.18266(5) 0.46481(2)
loop_
_geom_bond_atom_site_label_1
_geom_bond_atom_site_label_2
_geom_bond_site_symmetry_1
_geom_bond_site_symmetry_2
Cl1 C1 1_555 1_555
N1 C1 1_555 1_555
N2 C1 1_555 1_555
C2 N1 1_555 1_555
H1 C2 1_555 1_555
H2 C2 1_555 1_555
H3 C2 1_555 1_555
C3 N1 1_555 1_555
H4 C3 1_555 1_555
H5 C3 1_555 1_555
H6 C3 1_555 1_555
C4 N2 1_555 1_555
H7 C4 1_555 1_555
H8 C4 1_555 1_555
C5 C4 1_555 1_555
H9 C5 1_555 1_555
H10 C5 1_555 1_555
C6 C5 1_555 1_555
H11 C6 1_555 1_555
H12 C6 1_555 1_555
H13 C6 1_555 1_555
C7 N2 1_555 1_555
H14 C7 1_555 1_555
H15 C7 1_555 1_555
C8 C7 1_555 1_555
H16 C8 1_555 1_555
H17 C8 1_555 1_555
C9 C8 1_555 1_555
H18 C9 1_555 1_555
H19 C9 1_555 1_555
H20 C9 1_555 1_555

#END
