
#######################################################################
#
#                 Cambridge Crystallographic Data Centre
#                                CCDC 
#
#######################################################################
#
# If this CIF has been generated from an entry in the Cambridge 
# Structural Database, then it will include bibliographic, chemical, 
# crystal, experimental, refinement or atomic coordinate data resulting 
# from the CCDC's data processing and validation procedures.
#
#######################################################################

data_YUYSOA
_chemical_formula_moiety         'C11 H9 N1 O1'
_chemical_name_systematic        6-(2-Pyridyl)-3,5-hexadiyn-1-ol
_symmetry_cell_setting           monoclinic
_symmetry_space_group_name_H-M   'P 21/a'
_symmetry_Int_Tables_number      14
_space_group_name_Hall           '-P 2yab'
loop_
_symmetry_equiv_pos_site_id
_symmetry_equiv_pos_as_xyz
1 x,y,z
2 1/2-x,1/2+y,-z
3 -x,-y,-z
4 1/2+x,1/2-y,z
_cell_length_a                   14.611(2)
_cell_length_b                   5.423(6)
_cell_length_c                   12.191(2)
_cell_angle_alpha                90
_cell_angle_beta                 96.89(1)
_cell_angle_gamma                90
_cell_volume                     958.984
_exptl_crystal_colour            Colorless
_cell_formula_units_Z            4
loop_
_atom_site_label
_atom_site_type_symbol
_atom_site_fract_x
_atom_site_fract_y
_atom_site_fract_z
O1 O 0.4275(3) -0.8174(10) 0.8124(3)
N1 N 0.4157(3) 0.1207(7) 0.1614(3)
C1 C 0.4083(5) 0.2737(12) 0.0758(5)
C2 C 0.3437(5) 0.4575(13) 0.0592(6)
C3 C 0.2829(5) 0.4870(12) 0.1341(5)
C4 C 0.2883(4) 0.3320(11) 0.2226(5)
C5 C 0.3549(3) 0.1529(9) 0.2347(4)
C6 C 0.3629(3) -0.0157(9) 0.3262(4)
C7 C 0.3678(3) -0.1591(10) 0.3991(4)
C8 C 0.3744(3) -0.3337(11) 0.4796(4)
C9 C 0.3793(3) -0.4890(13) 0.5448(5)
C10 C 0.3873(6) -0.7073(16) 0.6253(6)
C11 C 0.4294(6) -0.6120(17) 0.7308(6)
H1 H 0.452(3) 0.241(8) 0.025(3)
H2 H 0.346(3) 0.552(8) 0.001(4)
H3 H 0.234(3) 0.605(8) 0.127(3)
H4 H 0.248(3) 0.338(8) 0.272(3)
H5 H 0.330(4) -0.760(10) 0.642(4)
H6 H 0.433(5) -0.839(12) 0.618(6)
H7 H 0.393(3) -0.481(9) 0.740(4)
H8 H 0.495(4) -0.556(9) 0.719(4)
H9 H 0.471(6) -0.933(15) 0.803(7)
loop_
_geom_bond_atom_site_label_1
_geom_bond_atom_site_label_2
_geom_bond_site_symmetry_1
_geom_bond_site_symmetry_2
O1 C11 1_555 1_555
N1 C1 1_555 1_555
C1 C2 1_555 1_555
C2 C3 1_555 1_555
C3 C4 1_555 1_555
C4 C5 1_555 1_555
C5 N1 1_555 1_555
C6 C5 1_555 1_555
C7 C6 1_555 1_555
C8 C7 1_555 1_555
C9 C8 1_555 1_555
C10 C9 1_555 1_555
C11 C10 1_555 1_555
H1 C1 1_555 1_555
H2 C2 1_555 1_555
H3 C3 1_555 1_555
H4 C4 1_555 1_555
H5 C10 1_555 1_555
H6 C10 1_555 1_555
H7 C11 1_555 1_555
H8 C11 1_555 1_555
H9 O1 1_555 1_555

#END
