
#######################################################################
#
#                 Cambridge Crystallographic Data Centre
#                                CCDC 
#
#######################################################################
#
# If this CIF has been generated from an entry in the Cambridge 
# Structural Database, then it will include bibliographic, chemical, 
# crystal, experimental, refinement or atomic coordinate data resulting 
# from the CCDC's data processing and validation procedures.
#
#######################################################################

data_YUYYIC
_chemical_formula_moiety         'C20 H19 N1 O7'
_chemical_name_systematic        
2-hydroxy-1,3,8,9,10-pentamethoxy-5H-indolo[1,2-a]indol-5-one
_symmetry_cell_setting           monoclinic
_symmetry_space_group_name_H-M   'P 21/c'
_symmetry_Int_Tables_number      14
_space_group_name_Hall           '-P 2ybc'
loop_
_symmetry_equiv_pos_site_id
_symmetry_equiv_pos_as_xyz
1 x,y,z
2 -x,1/2+y,1/2-z
3 -x,-y,-z
4 x,1/2-y,1/2+z
_cell_length_a                   11.3454(4)
_cell_length_b                   13.0130(5)
_cell_length_c                   12.3899(4)
_cell_angle_alpha                90
_cell_angle_beta                 91.009(2)
_cell_angle_gamma                90
_cell_volume                     1828.93
_exptl_crystal_colour            colorless
_exptl_crystal_description       block
_cell_formula_units_Z            4
_exptl_crystal_recrystallization_method methanol
loop_
_atom_site_label
_atom_site_type_symbol
_atom_site_fract_x
_atom_site_fract_y
_atom_site_fract_z
O1 O 0.30000(10) -0.00446(8) 0.60023(9)
O2 O 0.42455(12) -0.00654(9) 0.78440(10)
H1 H 0.4729 -0.0011 0.8341
O3 O 0.53059(12) 0.15726(9) 0.86894(11)
O4 O 0.37954(11) 0.44863(9) 0.58005(10)
O5 O -0.03727(12) 0.14652(10) 0.13919(11)
O6 O 0.05946(11) -0.02093(9) 0.23147(10)
O7 O 0.21052(10) -0.01140(8) 0.39958(10)
N1 N 0.26760(12) 0.21123(10) 0.48872(10)
C1 C 0.33193(13) 0.18021(12) 0.58430(12)
C2 C 0.34505(14) 0.08659(11) 0.63732(13)
C3 C 0.1870(2) -0.03011(18) 0.63965(19)
H2 H 0.1918 -0.0388 0.7165
H3 H 0.1603 -0.0929 0.6067
H4 H 0.1324 0.0241 0.6224
C4 C 0.41303(14) 0.08468(12) 0.73339(14)
C5 C 0.46768(15) 0.17347(13) 0.77534(14)
C6 C 0.5961(2) 0.24026(17) 0.91159(18)
H5 H 0.6504 0.2643 0.8586
H6 H 0.6391 0.2181 0.9748
H7 H 0.5436 0.2950 0.9304
C7 C 0.45295(15) 0.26598(13) 0.72345(14)
H8 H 0.4877 0.3255 0.7507
C8 C 0.38481(14) 0.26828(12) 0.62930(13)
C9 C 0.34991(15) 0.35880(12) 0.56658(13)
C10 C 0.27055(15) 0.31851(12) 0.48250(13)
C11 C 0.20049(15) 0.35309(12) 0.40084(13)
H9 H 0.1871 0.4214 0.3821
C12 C 0.15116(14) 0.26503(12) 0.34920(13)
C13 C 0.07449(16) 0.25875(13) 0.25974(14)
H10 H 0.0462 0.3181 0.2264
C14 C 0.04182(15) 0.16368(14) 0.22218(14)
C15 C -0.0907(2) 0.2354(2) 0.0927(2)
H11 H -0.1259 0.2758 0.1484
H12 H -0.1502 0.2149 0.0411
H13 H -0.0319 0.2756 0.0572
C16 C 0.09129(14) 0.07430(12) 0.27022(14)
C17 C 0.1082(2) -0.04815(16) 0.12989(16)
H14 H 0.0867 0.0027 0.0770
H15 H 0.0780 -0.1139 0.1076
H16 H 0.1925 -0.0516 0.1368
C18 C 0.16742(14) 0.07919(12) 0.35925(13)
C19 C 0.32723(19) -0.03372(17) 0.36692(17)
H17 H 0.3295 -0.0364 0.2896
H18 H 0.3513 -0.0989 0.3962
H19 H 0.3797 0.0190 0.3929
C20 C 0.19498(13) 0.17640(12) 0.40311(12)
loop_
_geom_bond_atom_site_label_1
_geom_bond_atom_site_label_2
_geom_bond_site_symmetry_1
_geom_bond_site_symmetry_2
O1 C2 1_555 1_555
O2 H1 1_555 1_555
O3 C5 1_555 1_555
O4 C9 1_555 1_555
O5 C14 1_555 1_555
O6 C16 1_555 1_555
O7 C18 1_555 1_555
N1 C1 1_555 1_555
C1 C2 1_555 1_555
C2 C4 1_555 1_555
C3 O1 1_555 1_555
H2 C3 1_555 1_555
H3 C3 1_555 1_555
H4 C3 1_555 1_555
C4 O2 1_555 1_555
C5 C4 1_555 1_555
C6 O3 1_555 1_555
H5 C6 1_555 1_555
H6 C6 1_555 1_555
H7 C6 1_555 1_555
C7 C5 1_555 1_555
H8 C7 1_555 1_555
C8 C1 1_555 1_555
C9 C8 1_555 1_555
C10 N1 1_555 1_555
C11 C10 1_555 1_555
H9 C11 1_555 1_555
C12 C11 1_555 1_555
C13 C12 1_555 1_555
H10 C13 1_555 1_555
C14 C13 1_555 1_555
C15 O5 1_555 1_555
H11 C15 1_555 1_555
H12 C15 1_555 1_555
H13 C15 1_555 1_555
C16 C14 1_555 1_555
C17 O6 1_555 1_555
H14 C17 1_555 1_555
H15 C17 1_555 1_555
H16 C17 1_555 1_555
C18 C16 1_555 1_555
C19 O7 1_555 1_555
H17 C19 1_555 1_555
H18 C19 1_555 1_555
H19 C19 1_555 1_555
C20 N1 1_555 1_555
C7 C8 1_555 1_555
C9 C10 1_555 1_555
C12 C20 1_555 1_555
C18 C20 1_555 1_555

#END
