
#######################################################################
#
#                 Cambridge Crystallographic Data Centre
#                                CCDC 
#
#######################################################################
#
# If this CIF has been generated from an entry in the Cambridge 
# Structural Database, then it will include bibliographic, chemical, 
# crystal, experimental, refinement or atomic coordinate data resulting 
# from the CCDC's data processing and validation procedures.
#
#######################################################################

data_YUZCUT
_chemical_formula_moiety         'C6 H14 N2 2+,2(F6 P1 1-),2(H2 O1)'
_chemical_name_systematic        
'1,4-diazoniabicyclo[2.2.2]octane bis(hexafluorophosphate) dihydrate'
_symmetry_cell_setting           monoclinic
_symmetry_space_group_name_H-M   'P 21/c'
_symmetry_Int_Tables_number      14
_space_group_name_Hall           '-P 2ybc'
loop_
_symmetry_equiv_pos_site_id
_symmetry_equiv_pos_as_xyz
1 x,y,z
2 -x,1/2+y,1/2-z
3 -x,-y,-z
4 x,1/2-y,1/2+z
_cell_length_a                   9.4646(19)
_cell_length_b                   10.109(2)
_cell_length_c                   17.968(5)
_cell_angle_alpha                90
_cell_angle_beta                 116.71(2)
_cell_angle_gamma                90
_cell_volume                     1535.69
_exptl_crystal_colour            colorless
_exptl_crystal_description       block
_cell_formula_units_Z            4
loop_
_atom_site_label
_atom_site_type_symbol
_atom_site_fract_x
_atom_site_fract_y
_atom_site_fract_z
N1 N 0.6230(3) 0.7212(3) 0.87323(18)
H1 H 0.5493 0.6833 0.8735
N2 N 0.8580(3) 0.8228(3) 0.87158(19)
H2 H 0.9285 0.8656 0.8715
C1 C 0.7648(5) 0.6757(6) 0.9463(3)
H3 H 0.7713 0.5800 0.9458
H4 H 0.7593 0.7020 0.9969
C2 C 0.9076(5) 0.7353(6) 0.9446(3)
H5 H 0.9668 0.7855 0.9952
H6 H 0.9756 0.6658 0.9416
C3 C 0.6098(7) 0.8641(5) 0.8745(5)
H7 H 0.5996 0.8909 0.9237
H8 H 0.5158 0.8930 0.8258
C4 C 0.7534(6) 0.9279(4) 0.8749(4)
H9 H 0.7224 0.9860 0.8271
H10 H 0.8082 0.9802 0.9251
C5 C 0.6310(7) 0.6818(6) 0.7967(3)
H11 H 0.5350 0.7087 0.7486
H12 H 0.6401 0.5864 0.7952
C6 C 0.7719(7) 0.7462(6) 0.7939(3)
H13 H 0.8408 0.6793 0.7891
H14 H 0.7375 0.8044 0.7461
P1 P 0.07200(11) 0.84815(10) 0.70037(6)
F1 F 0.2297(4) 0.9196(5) 0.7517(2)
F2 F 0.0524(4) 0.9196(3) 0.61801(18)
F3 F -0.0190(5) 0.9603(4) 0.7190(2)
F4 F 0.0920(3) 0.7745(3) 0.78345(16)
F5 F 0.1580(6) 0.7303(4) 0.6816(3)
F6 F -0.0904(4) 0.7749(4) 0.6500(2)
P2 P 0.58610(12) 0.26496(10) 0.95544(6)
F7 F 0.7195(4) 0.3597(4) 1.0165(2)
F8 F 0.5702(4) 0.3539(3) 0.8789(2)
F9 F 0.4602(4) 0.3528(3) 0.9672(2)
F10 F 0.4528(5) 0.1707(4) 0.8953(2)
F11 F 0.6043(4) 0.1789(3) 1.03252(19)
F12 F 0.7151(5) 0.1794(3) 0.9454(2)
O1 O 0.3578(3) 0.5768(3) 0.83590(19)
H15 H 0.280(5) 0.628(4) 0.822(3)
H16 H 0.360(5) 0.527(4) 0.875(2)
O2 O 0.8897(4) 0.4943(3) 0.59028(19)
H17 H 0.917(6) 0.555(4) 0.626(3)
H18 H 0.823(6) 0.445(5) 0.595(4)
loop_
_geom_bond_atom_site_label_1
_geom_bond_atom_site_label_2
_geom_bond_site_symmetry_1
_geom_bond_site_symmetry_2
N1 H1 1_555 1_555
N2 H2 1_555 1_555
C1 N1 1_555 1_555
H3 C1 1_555 1_555
H4 C1 1_555 1_555
C2 N2 1_555 1_555
H5 C2 1_555 1_555
H6 C2 1_555 1_555
C3 N1 1_555 1_555
H7 C3 1_555 1_555
H8 C3 1_555 1_555
C4 N2 1_555 1_555
H9 C4 1_555 1_555
H10 C4 1_555 1_555
C5 N1 1_555 1_555
H11 C5 1_555 1_555
H12 C5 1_555 1_555
C6 N2 1_555 1_555
H13 C6 1_555 1_555
H14 C6 1_555 1_555
P1 F1 1_555 1_555
F2 P1 1_555 1_555
F3 P1 1_555 1_555
F4 P1 1_555 1_555
F5 P1 1_555 1_555
F6 P1 1_555 1_555
P2 F7 1_555 1_555
F8 P2 1_555 1_555
F9 P2 1_555 1_555
F10 P2 1_555 1_555
F11 P2 1_555 1_555
F12 P2 1_555 1_555
O1 H15 1_555 1_555
H16 O1 1_555 1_555
O2 H17 1_555 1_555
H18 O2 1_555 1_555
C1 C2 1_555 1_555
C3 C4 1_555 1_555
C5 C6 1_555 1_555

#END
