
#######################################################################
#
#                 Cambridge Crystallographic Data Centre
#                                CCDC 
#
#######################################################################
#
# If this CIF has been generated from an entry in the Cambridge 
# Structural Database, then it will include bibliographic, chemical, 
# crystal, experimental, refinement or atomic coordinate data resulting 
# from the CCDC's data processing and validation procedures.
#
#######################################################################

data_YUZHEI
_chemical_formula_moiety         'C27 H32 N6 O8,C4 H12 N1 1+,Cl1 1-'
_chemical_name_systematic        
'N,N,N,N-tetramethylaminium chloride ethyl 2,7-bis(((4-nitrophenyl)carbamoyl)amino)octahydronaphthalene-4a(2H)-carboxylate'
_symmetry_cell_setting           monoclinic
_symmetry_space_group_name_H-M   'P 21/n'
_symmetry_Int_Tables_number      14
_space_group_name_Hall           '-P 2yn'
loop_
_symmetry_equiv_pos_site_id
_symmetry_equiv_pos_as_xyz
1 x,y,z
2 1/2-x,1/2+y,1/2-z
3 -x,-y,-z
4 1/2+x,1/2-y,1/2+z
_cell_length_a                   12.1881(3)
_cell_length_b                   24.5629(6)
_cell_length_c                   12.5908(3)
_cell_angle_alpha                90
_cell_angle_beta                 117.009(2)
_cell_angle_gamma                90
_cell_volume                     3358.27
_exptl_crystal_colour            colorless
_exptl_crystal_description       block
_cell_formula_units_Z            4
loop_
_atom_site_label
_atom_site_type_symbol
_atom_site_fract_x
_atom_site_fract_y
_atom_site_fract_z
O1 O 1.11740(13) 0.09946(6) 0.51335(14)
O2 O 0.99126(13) 0.03760(6) 0.40272(12)
O3 O 0.50742(12) 0.09776(5) 0.54205(11)
O4 O 0.18899(12) 0.31721(5) 0.72797(11)
O5 O 0.09334(12) 0.27233(6) 0.55467(11)
O6 O 0.40154(12) 0.42170(5) 0.30680(11)
O7 O 0.91718(16) 0.53082(8) 0.29561(17)
O8 O 1.05137(14) 0.47154(7) 0.40482(13)
N1 N 1.01605(15) 0.07718(7) 0.46974(13)
N2 N 0.65835(14) 0.16311(6) 0.58618(13)
H1 H 0.6763 0.1958 0.6127
N3 N 0.50076(14) 0.17809(6) 0.63107(14)
H2 H 0.5399(16) 0.2084(4) 0.6542(16)
N4 N 0.41885(15) 0.35676(7) 0.44223(15)
H3 H 0.4704 0.3352 0.4952
N5 N 0.57664(15) 0.36878(6) 0.39672(13)
H4 H 0.6107(17) 0.3430(5) 0.4474(12)
N6 N 0.94453(17) 0.48820(8) 0.35221(16)
C1 C 0.92094(17) 0.09858(8) 0.49804(15)
C2 C 0.81792(17) 0.06740(8) 0.47489(15)
H5 H 0.8092 0.0331 0.4407
C3 C 0.72816(17) 0.08731(7) 0.50255(14)
H6 H 0.6589 0.0665 0.4873
C4 C 0.74178(16) 0.13889(8) 0.55358(14)
C5 C 0.84563(17) 0.17030(8) 0.57313(16)
H7 H 0.8535 0.2052 0.6044
C6 C 0.93594(17) 0.15025(8) 0.54675(16)
H8 H 1.0053 0.1709 0.5613
C7 C 0.55079(16) 0.14263(8) 0.58254(14)
C8 C 0.37498(17) 0.17403(8) 0.61713(16)
H9 H 0.3501 0.1357 0.6070
C9 C 0.37153(18) 0.19611(8) 0.72903(16)
H10 H 0.2904 0.1897 0.7232
H11 H 0.4308 0.1764 0.7979
C10 C 0.40031(17) 0.25678(8) 0.74752(15)
H12 H 0.4850 0.2627 0.7631
H13 H 0.3923 0.2689 0.8170
C11 C 0.31455(16) 0.29143(7) 0.63868(14)
C12 C 0.31477(17) 0.26687(7) 0.52541(14)
H14 H 0.4005 0.2695 0.5392
C13 C 0.28439(17) 0.20630(8) 0.50802(15)
H15 H 0.2892 0.1935 0.4373
H16 H 0.2010 0.2005 0.4966
C14 C 0.24155(17) 0.30179(8) 0.41461(15)
H17 H 0.2442 0.2851 0.3460
H18 H 0.1562 0.3035 0.3994
C15 C 0.29430(17) 0.35927(8) 0.43158(17)
H19 H 0.2424 0.3812 0.3617
C16 C 0.29518(19) 0.38518(8) 0.54243(18)
H20 H 0.2110 0.3903 0.5292
H21 H 0.3338 0.4207 0.5553
C17 C 0.36426(18) 0.35020(8) 0.65404(16)
H22 H 0.3576 0.3671 0.7206
H23 H 0.4508 0.3491 0.6731
C18 C 0.18617(17) 0.29176(8) 0.63164(15)
C19 C 0.07583(18) 0.31749(9) 0.73941(17)
H24 H 0.0059 0.3190 0.6608
H25 H 0.0736 0.3496 0.7832
C20 C 0.0669(2) 0.26719(9) 0.80358(17)
H26 H 0.0663 0.2355 0.7588
H27 H -0.0077 0.2684 0.8117
H28 H 0.1364 0.2656 0.8812
C21 C 0.45915(17) 0.38545(7) 0.37592(15)
C22 C 0.66252(17) 0.39855(8) 0.37683(15)
C23 C 0.63418(18) 0.44570(8) 0.30736(16)
H29 H 0.5530 0.4574 0.2662
C24 C 0.72740(19) 0.47470(9) 0.30025(17)
H30 H 0.7095 0.5066 0.2558
C25 C 0.84745(18) 0.45635(9) 0.35918(16)
C26 C 0.87709(18) 0.40886(8) 0.42543(16)
H31 H 0.9581 0.3966 0.4637
C27 C 0.78455(18) 0.38009(8) 0.43353(16)
H32 H 0.8031 0.3479 0.4772
N7 N 0.77782(14) 0.45190(6) 0.75190(13)
C28 C 0.7114(2) 0.43272(9) 0.81973(19)
H33 H 0.6562 0.4606 0.8194
H34 H 0.7700 0.4247 0.9004
H35 H 0.6654 0.4004 0.7829
C29 C 0.6875(2) 0.46515(9) 0.62681(17)
H36 H 0.6410 0.4332 0.5888
H37 H 0.7308 0.4777 0.5840
H38 H 0.6327 0.4931 0.6271
C30 C 0.85066(19) 0.50151(8) 0.81085(17)
H39 H 0.7958 0.5301 0.8083
H40 H 0.8965 0.5130 0.7698
H41 H 0.9065 0.4933 0.8923
C31 C 0.86231(18) 0.40803(8) 0.75144(17)
H42 H 0.9211 0.3998 0.8319
H43 H 0.9048 0.4201 0.7075
H44 H 0.8154 0.3760 0.7146
Cl1 Cl 0.66683(4) 0.29138(2) 0.63303(4)
loop_
_geom_bond_atom_site_label_1
_geom_bond_atom_site_label_2
_geom_bond_site_symmetry_1
_geom_bond_site_symmetry_2
O1 N1 1_555 1_555
O2 N1 1_555 1_555
O3 C7 1_555 1_555
O4 C18 1_555 1_555
O5 C18 1_555 1_555
O6 C21 1_555 1_555
O7 N6 1_555 1_555
O8 N6 1_555 1_555
N1 C1 1_555 1_555
N2 H1 1_555 1_555
N3 H2 1_555 1_555
N4 H3 1_555 1_555
N5 H4 1_555 1_555
N6 C25 1_555 1_555
C1 C2 1_555 1_555
C2 H5 1_555 1_555
C3 C2 1_555 1_555
H6 C3 1_555 1_555
C4 N2 1_555 1_555
C5 C4 1_555 1_555
H7 C5 1_555 1_555
C6 C1 1_555 1_555
H8 C6 1_555 1_555
C7 N2 1_555 1_555
C8 N3 1_555 1_555
H9 C8 1_555 1_555
C9 C8 1_555 1_555
H10 C9 1_555 1_555
H11 C9 1_555 1_555
C10 C9 1_555 1_555
H12 C10 1_555 1_555
H13 C10 1_555 1_555
C11 C10 1_555 1_555
C12 C11 1_555 1_555
H14 C12 1_555 1_555
C13 C8 1_555 1_555
H15 C13 1_555 1_555
H16 C13 1_555 1_555
C14 C12 1_555 1_555
H17 C14 1_555 1_555
H18 C14 1_555 1_555
C15 N4 1_555 1_555
H19 C15 1_555 1_555
C16 C15 1_555 1_555
H20 C16 1_555 1_555
H21 C16 1_555 1_555
C17 C11 1_555 1_555
H22 C17 1_555 1_555
H23 C17 1_555 1_555
C18 C11 1_555 1_555
C19 O4 1_555 1_555
H24 C19 1_555 1_555
H25 C19 1_555 1_555
C20 C19 1_555 1_555
H26 C20 1_555 1_555
H27 C20 1_555 1_555
H28 C20 1_555 1_555
C21 N4 1_555 1_555
C22 N5 1_555 1_555
C23 C22 1_555 1_555
H29 C23 1_555 1_555
C24 C23 1_555 1_555
H30 C24 1_555 1_555
C25 C24 1_555 1_555
C26 C25 1_555 1_555
H31 C26 1_555 1_555
C27 C22 1_555 1_555
H32 C27 1_555 1_555
N7 C28 1_555 1_555
C28 H33 1_555 1_555
H34 C28 1_555 1_555
H35 C28 1_555 1_555
C29 N7 1_555 1_555
H36 C29 1_555 1_555
H37 C29 1_555 1_555
H38 C29 1_555 1_555
C30 N7 1_555 1_555
H39 C30 1_555 1_555
H40 C30 1_555 1_555
H41 C30 1_555 1_555
C31 N7 1_555 1_555
H42 C31 1_555 1_555
H43 C31 1_555 1_555
H44 C31 1_555 1_555
N3 C7 1_555 1_555
N5 C21 1_555 1_555
C3 C4 1_555 1_555
C5 C6 1_555 1_555
C12 C13 1_555 1_555
C14 C15 1_555 1_555
C16 C17 1_555 1_555
C26 C27 1_555 1_555

#END
