
#######################################################################
#
#                 Cambridge Crystallographic Data Centre
#                                CCDC 
#
#######################################################################
#
# If this CIF has been generated from an entry in the Cambridge 
# Structural Database, then it will include bibliographic, chemical, 
# crystal, experimental, refinement or atomic coordinate data resulting 
# from the CCDC's data processing and validation procedures.
#
#######################################################################

data_ZABDOY
_chemical_formula_moiety         'C23 H20 Cl1 N1 O2'
_chemical_name_systematic        
3-(3-Chlorobenzyl)-3-(4-methoxyphenyl)-1-methyl-1,3-dihydro-2H-indol-2-one
_symmetry_cell_setting           triclinic
_symmetry_space_group_name_H-M   'P -1'
_symmetry_Int_Tables_number      2
_space_group_name_Hall           '-P 1'
loop_
_symmetry_equiv_pos_site_id
_symmetry_equiv_pos_as_xyz
1 x,y,z
2 -x,-y,-z
_cell_length_a                   9.147(2)
_cell_length_b                   9.4493(19)
_cell_length_c                   10.820(2)
_cell_angle_alpha                90.16(3)
_cell_angle_beta                 94.57(3)
_cell_angle_gamma                95.83(3)
_cell_volume                     927.351
_exptl_crystal_colour            'light yellow'
_exptl_crystal_description       block
_cell_formula_units_Z            2
loop_
_atom_site_label
_atom_site_type_symbol
_atom_site_fract_x
_atom_site_fract_y
_atom_site_fract_z
Cl1 Cl 1.46510(6) 0.17549(6) 0.04042(5)
O1 O 0.94440(13) 0.01465(12) 0.23161(11)
O2 O 0.53617(13) 0.12387(13) 0.68653(11)
N1 N 0.88166(14) 0.20504(14) 0.11450(12)
C1 C 1.39841(18) 0.28460(19) 0.14740(15)
C2 C 1.45847(18) 0.42420(19) 0.15982(16)
H1 H 1.5344 0.4594 0.1126
C3 C 1.4033(2) 0.51043(19) 0.24398(18)
H2 H 1.4415 0.6053 0.2528
C4 C 1.29157(19) 0.45746(18) 0.31549(17)
H3 H 1.2563 0.5169 0.3724
C5 C 1.23139(16) 0.31628(16) 0.30310(14)
C6 C 1.28612(17) 0.22929(17) 0.21723(15)
H4 H 1.2474 0.1347 0.2069
C7 C 1.11358(16) 0.25732(16) 0.38469(14)
H5 H 1.1231 0.3135 0.4606
H6 H 1.1318 0.1610 0.4070
C8 C 0.95286(16) 0.25470(16) 0.32681(14)
C9 C 0.92164(16) 0.38756(16) 0.25677(14)
C10 C 0.87783(16) 0.35214(16) 0.13309(14)
C11 C 0.92707(16) 0.14051(17) 0.22098(14)
C12 C 0.84683(19) 0.1313(2) -0.00388(16)
H7 H 0.9268 0.1518 -0.0555
H8 H 0.7585 0.1626 -0.0439
H9 H 0.8322 0.0306 0.0096
C13 C 0.83873(18) 0.45280(19) 0.04818(16)
H10 H 0.8091 0.4283 -0.0340
C14 C 0.84548(18) 0.59287(19) 0.09055(17)
H11 H 0.8189 0.6630 0.0355
C15 C 0.89019(19) 0.63013(18) 0.21103(17)
H12 H 0.8951 0.7248 0.2363
C16 C 0.92864(18) 0.52629(17) 0.29642(16)
H13 H 0.9584 0.5510 0.3785
C17 C 0.84053(16) 0.21823(15) 0.42322(14)
C18 C 0.69381(18) 0.24194(19) 0.39646(15)
H14 H 0.6657 0.2803 0.3202
C19 C 0.58764(18) 0.20997(19) 0.48027(16)
H15 H 0.4899 0.2250 0.4593
C20 C 0.62879(17) 0.15572(16) 0.59494(15)
C21 C 0.77525(18) 0.13174(16) 0.62355(14)
H16 H 0.8037 0.0959 0.7008
C22 C 0.87895(17) 0.16071(16) 0.53809(14)
H17 H 0.9757 0.1414 0.5578
C23 C 0.3825(2) 0.1360(2) 0.6577(2)
H18 H 0.3684 0.2332 0.6388
H19 H 0.3290 0.1065 0.7276
H20 H 0.3471 0.0766 0.5873
loop_
_geom_bond_atom_site_label_1
_geom_bond_atom_site_label_2
_geom_bond_site_symmetry_1
_geom_bond_site_symmetry_2
Cl1 C1 1_555 1_555
O1 C11 1_555 1_555
O2 C20 1_555 1_555
N1 C10 1_555 1_555
C1 C2 1_555 1_555
C2 H1 1_555 1_555
C3 C2 1_555 1_555
H2 C3 1_555 1_555
C4 C3 1_555 1_555
H3 C4 1_555 1_555
C5 C4 1_555 1_555
C6 C1 1_555 1_555
H4 C6 1_555 1_555
C7 C5 1_555 1_555
H5 C7 1_555 1_555
H6 C7 1_555 1_555
C8 C7 1_555 1_555
C9 C8 1_555 1_555
C10 C9 1_555 1_555
C11 N1 1_555 1_555
C12 N1 1_555 1_555
H7 C12 1_555 1_555
H8 C12 1_555 1_555
H9 C12 1_555 1_555
C13 C10 1_555 1_555
H10 C13 1_555 1_555
C14 C13 1_555 1_555
H11 C14 1_555 1_555
C15 C14 1_555 1_555
H12 C15 1_555 1_555
C16 C9 1_555 1_555
H13 C16 1_555 1_555
C17 C8 1_555 1_555
C18 C17 1_555 1_555
H14 C18 1_555 1_555
C19 C18 1_555 1_555
H15 C19 1_555 1_555
C20 C19 1_555 1_555
C21 C20 1_555 1_555
H16 C21 1_555 1_555
C22 C17 1_555 1_555
H17 C22 1_555 1_555
C23 O2 1_555 1_555
H18 C23 1_555 1_555
H19 C23 1_555 1_555
H20 C23 1_555 1_555
C5 C6 1_555 1_555
C8 C11 1_555 1_555
C15 C16 1_555 1_555
C21 C22 1_555 1_555

#END
