
#######################################################################
#
#                 Cambridge Crystallographic Data Centre
#                                CCDC 
#
#######################################################################
#
# If this CIF has been generated from an entry in the Cambridge 
# Structural Database, then it will include bibliographic, chemical, 
# crystal, experimental, refinement or atomic coordinate data resulting 
# from the CCDC's data processing and validation procedures.
#
#######################################################################

data_ZABDUB
_chemical_formula_moiety         'C26 H27 As1 O5'
_chemical_name_systematic        
'Methyl 4,6-benzylidene-3-deoxy-3-diphenylarsino-\a-D-altropyranoside'
_symmetry_cell_setting           monoclinic
_symmetry_space_group_name_H-M   'P 21'
_symmetry_Int_Tables_number      4
_space_group_name_Hall           'P 2yb'
loop_
_symmetry_equiv_pos_site_id
_symmetry_equiv_pos_as_xyz
1 x,y,z
2 -x,1/2+y,-z
_cell_length_a                   9.204(7)
_cell_length_b                   8.072(6)
_cell_length_c                   16.029(13)
_cell_angle_alpha                90
_cell_angle_beta                 96.65(7)
_cell_angle_gamma                90
_cell_volume                     1182.86
_exptl_crystal_colour            colorless
_chemical_melting_point          '193-195 deg.C'
_cell_formula_units_Z            2
loop_
_atom_site_label
_atom_site_type_symbol
_atom_site_fract_x
_atom_site_fract_y
_atom_site_fract_z
As1 As 0.7680(1) 0.7487(1) 0.8092(1)
O1 O 0.8621(4) 0.6476(5) 0.5704(2)
O2 O 1.0164(4) 0.7581(9) 0.6824(2)
O3 O 0.7232(6) 0.9780(6) 0.5698(3)
O4 O 0.6226(4) 0.3101(5) 0.6154(3)
O5 O 0.5509(4) 0.5503(5) 0.6812(2)
C1 C 0.6901(6) 0.8041(7) 0.6906(3)
C2 C 0.6448(6) 0.6525(7) 0.6391(4)
C3 C 0.7753(7) 0.5519(8) 0.6203(5)
C4 C 0.9167(7) 0.7936(7) 0.6113(4)
C5 C 0.7984(8) 0.9045(9) 0.6427(4)
C6 C 1.1400(9) 0.6647(13) 0.6643(6)
C7 C 0.7251(7) 0.3988(8) 0.5706(4)
C8 C 0.5025(6) 0.4142(7) 0.6303(4)
C9 C 0.3927(6) 0.3172(8) 0.6719(4)
C10 C 0.2883(7) 0.2274(12) 0.6216(4)
C11 C 0.1823(9) 0.1428(13) 0.6562(5)
C12 C 0.1788(9) 0.1427(11) 0.7412(5)
C13 C 0.2805(7) 0.2322(17) 0.7920(4)
C14 C 0.3883(7) 0.3187(9) 0.7567(4)
C15 C 0.5849(6) 0.7281(9) 0.8604(4)
C16 C 0.5873(8) 0.6207(10) 0.9265(4)
C17 C 0.4644(9) 0.5940(12) 0.9679(5)
C18 C 0.3383(9) 0.6787(13) 0.9413(5)
C19 C 0.3332(8) 0.7815(16) 0.8755(5)
C20 C 0.4544(7) 0.8132(10) 0.8333(4)
C21 C 0.8230(6) 0.9745(7) 0.8466(3)
C22 C 0.7496(7) 1.1147(9) 0.8170(4)
C23 C 0.8000(8) 1.2725(11) 0.8404(4)
C24 C 0.9259(8) 1.2869(8) 0.8963(4)
C25 C 0.9979(8) 1.1489(10) 0.9269(4)
C26 C 0.9488(7) 0.9925(9) 0.9019(4)
H1 H 0.6770(71) 1.0586(61) 0.5833(5)
H2 H 0.6026(6) 0.8725(7) 0.6927(3)
H3 H 0.5913(6) 0.6885(7) 0.5958(4)
H4 H 0.8337(7) 0.5198(8) 0.6728(5)
H5 H 0.9678(7) 0.8579(7) 0.5718(4)
H6 H 0.8450(8) 0.9910(9) 0.6794(4)
H7 H 1.2031(9) 0.6449(13) 0.7153(6)
H8 H 1.1923(9) 0.7254(13) 0.6258(6)
H9 H 1.1079(9) 0.5607(13) 0.6395(6)
H10 H 0.6789(7) 0.4302(8) 0.5154(4)
H11 H 0.8084(7) 0.3287(8) 0.5635(4)
H12 H 0.4558(6) 0.4557(7) 0.5763(4)
H13 H 0.2906(7) 0.2249(12) 0.5638(4)
H14 H 0.1117(9) 0.0846(13) 0.6218(5)
H15 H 0.1077(9) 0.0821(11) 0.7646(5)
H16 H 0.2771(7) 0.2348(17) 0.8498(4)
H17 H 0.4582(7) 0.3782(9) 0.7910(4)
H18 H 0.6733(8) 0.5639(10) 0.9443(4)
H19 H 0.4677(9) 0.5203(12) 1.0127(5)
H20 H 0.2560(9) 0.6646(13) 0.9691(5)
H21 H 0.2452(8) 0.8337(16) 0.8572(5)
H22 H 0.4493(7) 0.8879(10) 0.7888(4)
H23 H 0.6641(7) 1.1039(9) 0.7803(4)
H24 H 0.7502(8) 1.3662(11) 0.8190(4)
H25 H 0.9612(8) 1.3912(8) 0.9129(4)
H26 H 1.0813(8) 1.1596(10) 0.9652(4)
H27 H 1.0005(7) 0.8993(9) 0.9225(4)
loop_
_geom_bond_atom_site_label_1
_geom_bond_atom_site_label_2
_geom_bond_site_symmetry_1
_geom_bond_site_symmetry_2
As1 C1 1_555 1_555
O1 C3 1_555 1_555
O2 C4 1_555 1_555
O3 C5 1_555 1_555
O4 C7 1_555 1_555
O5 C2 1_555 1_555
C1 C2 1_555 1_555
C2 C3 1_555 1_555
C3 C7 1_555 1_555
C4 O1 1_555 1_555
C5 C1 1_555 1_555
C6 O2 1_555 1_555
C7 H10 1_555 1_555
C8 O4 1_555 1_555
C9 C8 1_555 1_555
C10 C9 1_555 1_555
C11 C10 1_555 1_555
C12 C11 1_555 1_555
C13 C12 1_555 1_555
C14 C9 1_555 1_555
C15 As1 1_555 1_555
C16 C15 1_555 1_555
C17 C16 1_555 1_555
C18 C17 1_555 1_555
C19 C18 1_555 1_555
C20 C15 1_555 1_555
C21 As1 1_555 1_555
C22 C21 1_555 1_555
C23 C22 1_555 1_555
C24 C23 1_555 1_555
C25 C24 1_555 1_555
C26 C21 1_555 1_555
H1 O3 1_555 1_555
H2 C1 1_555 1_555
H3 C2 1_555 1_555
H4 C3 1_555 1_555
H5 C4 1_555 1_555
H6 C5 1_555 1_555
H7 C6 1_555 1_555
H8 C6 1_555 1_555
H9 C6 1_555 1_555
H11 C7 1_555 1_555
H12 C8 1_555 1_555
H13 C10 1_555 1_555
H14 C11 1_555 1_555
H15 C12 1_555 1_555
H16 C13 1_555 1_555
H17 C14 1_555 1_555
H18 C16 1_555 1_555
H19 C17 1_555 1_555
H20 C18 1_555 1_555
H21 C19 1_555 1_555
H22 C20 1_555 1_555
H23 C22 1_555 1_555
H24 C23 1_555 1_555
H25 C24 1_555 1_555
H26 C25 1_555 1_555
H27 C26 1_555 1_555
O5 C8 1_555 1_555
C4 C5 1_555 1_555
C13 C14 1_555 1_555
C19 C20 1_555 1_555
C25 C26 1_555 1_555

#END
