
#######################################################################
#
#                 Cambridge Crystallographic Data Centre
#                                CCDC 
#
#######################################################################
#
# If this CIF has been generated from an entry in the Cambridge 
# Structural Database, then it will include bibliographic, chemical, 
# crystal, experimental, refinement or atomic coordinate data resulting 
# from the CCDC's data processing and validation procedures.
#
#######################################################################

data_ZABNAU
_chemical_formula_moiety         'C26 H23 N1 O1'
_chemical_name_systematic        3-cyclopropyl-N,3,5-triphenylpent-4-ynamide
_symmetry_cell_setting           orthorhombic
_symmetry_space_group_name_H-M   'P 21 21 21'
_symmetry_Int_Tables_number      19
_space_group_name_Hall           'P 2ac 2ab'
loop_
_symmetry_equiv_pos_site_id
_symmetry_equiv_pos_as_xyz
1 x,y,z
2 1/2-x,-y,1/2+z
3 -x,1/2+y,1/2-z
4 1/2+x,1/2-y,-z
_cell_length_a                   9.0804(9)
_cell_length_b                   9.3124(9)
_cell_length_c                   23.625(2)
_cell_angle_alpha                90
_cell_angle_beta                 90
_cell_angle_gamma                90
_cell_volume                     1997.74
_cell_formula_units_Z            4
loop_
_atom_site_label
_atom_site_type_symbol
_atom_site_fract_x
_atom_site_fract_y
_atom_site_fract_z
O1 O 0.4108(4) 0.7660(4) 0.03096(14)
N1 N 0.6087(4) 0.6522(4) -0.00756(16)
C1 C 0.6241(5) 0.7821(5) -0.12898(19)
C2 C 0.5896(5) 0.5109(5) 0.01389(19)
C3 C 0.5174(4) 0.7664(5) -0.00150(18)
C4 C 0.4160(5) 1.1308(5) -0.1140(2)
C5 C 0.5182(4) 0.8775(4) -0.10134(18)
C6 C 0.8083(5) 0.6187(5) -0.18657(19)
C7 C 0.5247(5) 1.0291(5) -0.12818(19)
C8 C 0.7086(5) 0.7083(5) -0.1536(2)
C9 C 0.4239(5) 1.2704(6) -0.1345(2)
C10 C 0.5037(5) 0.4766(5) 0.0609(2)
C11 C 0.4953(6) 0.3353(5) 0.0784(2)
C12 C 0.3361(5) 0.6523(5) -0.1051(2)
C13 C 0.6703(5) 0.4012(5) -0.0147(2)
C14 C 1.0010(7) 0.4561(6) -0.2530(2)
C15 C 0.6475(6) 1.2123(6) -0.1827(2)
C16 C 1.0261(6) 0.4670(6) -0.1953(3)
C17 C 0.5545(5) 0.8958(5) -0.03672(19)
C18 C 0.6609(6) 0.2613(6) 0.0039(2)
C19 C 0.6380(6) 1.0728(5) -0.1625(2)
C20 C 0.3616(5) 0.8139(5) -0.10771(19)
C21 C 0.7815(6) 0.6013(5) -0.2440(2)
C22 C 0.5380(6) 1.3131(6) -0.1696(2)
C23 C 0.3146(6) 0.7323(6) -0.1598(2)
C24 C 0.9302(6) 0.5532(6) -0.1613(2)
C25 C 0.5729(6) 0.2258(6) 0.0508(2)
C26 C 0.8778(6) 0.5193(6) -0.2766(2)
loop_
_geom_bond_atom_site_label_1
_geom_bond_atom_site_label_2
_geom_bond_site_symmetry_1
_geom_bond_site_symmetry_2
O1 C3 1_555 1_555
N1 C2 1_555 1_555
C1 C5 1_555 1_555
C2 C10 1_555 1_555
C3 N1 1_555 1_555
C4 C7 1_555 1_555
C5 C7 1_555 1_555
C6 C8 1_555 1_555
C7 C19 1_555 1_555
C8 C1 1_555 1_555
C9 C4 1_555 1_555
C10 C11 1_555 1_555
C11 C25 1_555 1_555
C12 C20 1_555 1_555
C13 C2 1_555 1_555
C14 C16 1_555 1_555
C15 C19 1_555 1_555
C16 C24 1_555 1_555
C17 C3 1_555 1_555
C18 C13 1_555 1_555
C20 C5 1_555 1_555
C21 C6 1_555 1_555
C22 C9 1_555 1_555
C23 C12 1_555 1_555
C24 C6 1_555 1_555
C25 C18 1_555 1_555
C26 C14 1_555 1_555
C5 C17 1_555 1_555
C15 C22 1_555 1_555
C20 C23 1_555 1_555
C21 C26 1_555 1_555

#END
