
#######################################################################
#
#                 Cambridge Crystallographic Data Centre
#                                CCDC 
#
#######################################################################
#
# If this CIF has been generated from an entry in the Cambridge 
# Structural Database, then it will include bibliographic, chemical, 
# crystal, experimental, refinement or atomic coordinate data resulting 
# from the CCDC's data processing and validation procedures.
#
#######################################################################

data_ZABNUO
_chemical_formula_moiety         'C23 H18 Br1 F1 O2 S1'
_chemical_name_systematic        
4-(Bromomethylene)-2-((4-fluorophenyl)sulfonyl)-1-phenyl-1,2,3,4-tetrahydronaphthalene
_symmetry_cell_setting           monoclinic
_symmetry_space_group_name_H-M   'P 21/n'
_symmetry_Int_Tables_number      14
_space_group_name_Hall           '-P 2yn'
loop_
_symmetry_equiv_pos_site_id
_symmetry_equiv_pos_as_xyz
1 x,y,z
2 1/2-x,1/2+y,1/2-z
3 -x,-y,-z
4 1/2+x,1/2-y,1/2+z
_cell_length_a                   9.6011(4)
_cell_length_b                   21.5757(8)
_cell_length_c                   10.0691(4)
_cell_angle_alpha                90
_cell_angle_beta                 109.7710(10)
_cell_angle_gamma                90
_cell_volume                     1962.86
_exptl_crystal_colour            colorless
_cell_formula_units_Z            4
loop_
_atom_site_label
_atom_site_type_symbol
_atom_site_fract_x
_atom_site_fract_y
_atom_site_fract_z
Br1 Br 0.76121(3) -0.07718(2) 0.43642(3)
S1 S 0.84484(6) 0.10082(3) 0.74966(5)
F1 F 1.3586(2) -0.05956(11) 0.9719(2)
O1 O 0.71368(17) 0.06456(8) 0.72745(17)
O2 O 0.8661(2) 0.15523(8) 0.83646(16)
C1 C 0.3140(3) 0.13737(13) 0.2631(3)
H1 H 0.2182 0.1298 0.2026
C2 C 0.4174(3) 0.09091(12) 0.2915(3)
H2 H 0.3902 0.0521 0.2508
C3 C 0.5633(2) 0.10081(10) 0.3807(2)
C4 C 0.6742(2) 0.05020(10) 0.4171(2)
C5 C 0.8338(2) 0.06881(10) 0.4797(2)
H3 H 0.8701 0.0799 0.4039
H4 H 0.8907 0.0335 0.5288
C6 C 0.8603(2) 0.12317(10) 0.5826(2)
H5 H 0.9626 0.1368 0.6017
C7 C 1.0001(2) 0.05229(11) 0.8214(2)
C8 C 0.9821(3) -0.01118(11) 0.8145(2)
H6 H 0.8884 -0.0283 0.7738
C9 C 1.1042(3) -0.04906(13) 0.8684(3)
H7 H 1.0941 -0.0919 0.8671
C10 C 1.2386(3) -0.02235(16) 0.9231(3)
C11 C 0.6024(2) 0.16038(10) 0.4353(2)
C12 C 0.7601(2) 0.17891(10) 0.5175(2)
H8 H 0.7575 0.2057 0.5952
C13 C 0.8291(2) 0.21609(10) 0.4265(2)
C14 C 0.7938(3) 0.20563(13) 0.2833(3)
H9 H 0.7238 0.1756 0.2394
C15 C 0.8609(3) 0.23911(15) 0.2042(3)
H10 H 0.8368 0.2310 0.1084
C16 C 0.9625(3) 0.28407(14) 0.2665(3)
H11 H 1.0062 0.3071 0.2131
C17 C 0.9991(3) 0.29491(14) 0.4079(3)
H12 H 1.0694 0.3250 0.4509
C18 C 0.9326(3) 0.26150(13) 0.4880(3)
H13 H 0.9579 0.2697 0.5839
C19 C 0.4943(3) 0.20633(11) 0.4069(2)
H14 H 0.5199 0.2456 0.4456
C20 C 0.3502(3) 0.19485(12) 0.3228(3)
H15 H 0.2786 0.2256 0.3067
C21 C 0.6310(3) -0.00858(11) 0.3952(2)
H16 H 0.5300 -0.0165 0.3571
C22 C 1.1391(3) 0.07851(13) 0.8808(3)
H17 H 1.1503 0.1213 0.8864
C23 C 1.2606(3) 0.04023(17) 0.9316(3)
H18 H 1.3552 0.0567 0.9707
loop_
_geom_bond_atom_site_label_1
_geom_bond_atom_site_label_2
_geom_bond_site_symmetry_1
_geom_bond_site_symmetry_2
Br1 C21 1_555 1_555
S1 O1 1_555 1_555
F1 C10 1_555 1_555
O2 S1 1_555 1_555
C1 H1 1_555 1_555
C2 C1 1_555 1_555
H2 C2 1_555 1_555
C3 C2 1_555 1_555
C4 C3 1_555 1_555
C5 C4 1_555 1_555
H3 C5 1_555 1_555
H4 C5 1_555 1_555
C6 S1 1_555 1_555
H5 C6 1_555 1_555
C7 S1 1_555 1_555
C8 C7 1_555 1_555
H6 C8 1_555 1_555
C9 C8 1_555 1_555
H7 C9 1_555 1_555
C10 C9 1_555 1_555
C11 C3 1_555 1_555
C12 C6 1_555 1_555
H8 C12 1_555 1_555
C13 C12 1_555 1_555
C14 C13 1_555 1_555
H9 C14 1_555 1_555
C15 C14 1_555 1_555
H10 C15 1_555 1_555
C16 C15 1_555 1_555
H11 C16 1_555 1_555
C17 C16 1_555 1_555
H12 C17 1_555 1_555
C18 C13 1_555 1_555
H13 C18 1_555 1_555
C19 C11 1_555 1_555
H14 C19 1_555 1_555
C20 C1 1_555 1_555
H15 C20 1_555 1_555
C21 C4 1_555 1_555
H16 C21 1_555 1_555
C22 C7 1_555 1_555
H17 C22 1_555 1_555
C23 C10 1_555 1_555
H18 C23 1_555 1_555
C5 C6 1_555 1_555
C11 C12 1_555 1_555
C17 C18 1_555 1_555
C19 C20 1_555 1_555
C22 C23 1_555 1_555

#END
