
#######################################################################
#
#                 Cambridge Crystallographic Data Centre
#                                CCDC 
#
#######################################################################
#
# If this CIF has been generated from an entry in the Cambridge 
# Structural Database, then it will include bibliographic, chemical, 
# crystal, experimental, refinement or atomic coordinate data resulting 
# from the CCDC's data processing and validation procedures.
#
#######################################################################

data_ZABNEY
_chemical_formula_moiety         'C25 H23 Br1 O2 S1'
_chemical_name_systematic        
4-(Bromomethylene)-1-(4-methylphenyl)-2-((4-methylphenyl)sulfonyl)-1,2,3,4-tetrahydronaphthalene
_symmetry_cell_setting           monoclinic
_symmetry_space_group_name_H-M   'P 21/c'
_symmetry_Int_Tables_number      14
_space_group_name_Hall           '-P 2ybc'
loop_
_symmetry_equiv_pos_site_id
_symmetry_equiv_pos_as_xyz
1 x,y,z
2 -x,1/2+y,1/2-z
3 -x,-y,-z
4 x,1/2-y,1/2+z
_cell_length_a                   16.3404(7)
_cell_length_b                   12.2597(6)
_cell_length_c                   11.1997(5)
_cell_angle_alpha                90
_cell_angle_beta                 106.631(2)
_cell_angle_gamma                90
_cell_volume                     2149.76
_exptl_crystal_colour            colorless
_cell_formula_units_Z            4
loop_
_atom_site_label
_atom_site_type_symbol
_atom_site_fract_x
_atom_site_fract_y
_atom_site_fract_z
Br1 Br 0.05273(2) 0.75281(3) 0.52880(4)
C1 C 0.1320(2) 0.7031(3) 0.4469(3)
H1 H 0.1500 0.7515 0.3956
C2 C 0.16318(18) 0.6023(2) 0.4592(2)
C3 C 0.22322(17) 0.5663(2) 0.3888(2)
C4 C 0.23293(19) 0.6259(3) 0.2866(3)
H2 H 0.2012 0.6891 0.2619
C5 C 0.2885(2) 0.5921(3) 0.2227(3)
H3 H 0.2937 0.6322 0.1548
C6 C 0.3365(2) 0.4993(3) 0.2583(3)
H4 H 0.3751 0.4772 0.2161
C7 C 0.32652(19) 0.4395(2) 0.3572(3)
H5 H 0.3587 0.3765 0.3812
C8 C 0.26971(16) 0.4707(2) 0.4221(2)
C9 C 0.25856(17) 0.3947(2) 0.5237(2)
H6 H 0.3150 0.3671 0.5700
C10 C 0.22040(17) 0.4553(2) 0.6163(2)
H7 H 0.2008 0.3999 0.6649
C11 C 0.14281(18) 0.5217(2) 0.5468(3)
H8 H 0.0986 0.4726 0.5001
H9 H 0.1207 0.5602 0.6066
C12 C 0.20189(16) 0.2971(2) 0.4705(2)
C13 C 0.14845(19) 0.2944(2) 0.3508(2)
H10 H 0.1462 0.3542 0.2988
C14 C 0.0977(2) 0.2041(3) 0.3061(3)
H11 H 0.0628 0.2044 0.2244
C15 C 0.09773(19) 0.1138(2) 0.3797(3)
C16 C 0.15081(19) 0.1172(2) 0.5010(3)
H12 H 0.1522 0.0578 0.5532
C17 C 0.20158(19) 0.2064(2) 0.5458(3)
H13 H 0.2363 0.2062 0.6277
C18 C 0.0417(2) 0.0175(3) 0.3310(3)
H14 H 0.0765 -0.0442 0.3254
H15 H 0.0044 0.0342 0.2499
H16 H 0.0083 0.0009 0.3865
C19 C 0.37190(18) 0.4512(2) 0.8179(2)
C20 C 0.4427(2) 0.4216(3) 0.7815(3)
H17 H 0.4507 0.4498 0.7086
C21 C 0.5012(2) 0.3504(3) 0.8535(3)
H18 H 0.5483 0.3298 0.8278
C22 C 0.49154(19) 0.3089(3) 0.9634(3)
C23 C 0.4207(2) 0.3410(3) 0.9980(3)
H19 H 0.4134 0.3144 1.0720
C24 C 0.3607(2) 0.4108(3) 0.9268(3)
H20 H 0.3131 0.4305 0.9517
C25 C 0.5564(3) 0.2319(4) 1.0428(4)
H21 H 0.5733 0.2575 1.1273
H22 H 0.6055 0.2287 1.0120
H23 H 0.5319 0.1605 1.0396
O1 O 0.33871(15) 0.61158(19) 0.66026(19)
O2 O 0.24866(16) 0.59000(18) 0.8030(2)
S1 S 0.29539(5) 0.54225(6) 0.72537(6)
loop_
_geom_bond_atom_site_label_1
_geom_bond_atom_site_label_2
_geom_bond_site_symmetry_1
_geom_bond_site_symmetry_2
Br1 C1 1_555 1_555
C1 H1 1_555 1_555
C2 C1 1_555 1_555
C3 C2 1_555 1_555
C4 C3 1_555 1_555
H2 C4 1_555 1_555
C5 C4 1_555 1_555
H3 C5 1_555 1_555
C6 C5 1_555 1_555
H4 C6 1_555 1_555
C7 C6 1_555 1_555
H5 C7 1_555 1_555
C8 C3 1_555 1_555
C9 C8 1_555 1_555
H6 C9 1_555 1_555
C10 C9 1_555 1_555
H7 C10 1_555 1_555
C11 C2 1_555 1_555
H8 C11 1_555 1_555
H9 C11 1_555 1_555
C12 C9 1_555 1_555
C13 C12 1_555 1_555
H10 C13 1_555 1_555
C14 C13 1_555 1_555
H11 C14 1_555 1_555
C15 C14 1_555 1_555
C16 C15 1_555 1_555
H12 C16 1_555 1_555
C17 C12 1_555 1_555
H13 C17 1_555 1_555
C18 C15 1_555 1_555
H14 C18 1_555 1_555
H15 C18 1_555 1_555
H16 C18 1_555 1_555
C19 C20 1_555 1_555
C20 H17 1_555 1_555
C21 C20 1_555 1_555
H18 C21 1_555 1_555
C22 C21 1_555 1_555
C23 C22 1_555 1_555
H19 C23 1_555 1_555
C24 C19 1_555 1_555
H20 C24 1_555 1_555
C25 C22 1_555 1_555
H21 C25 1_555 1_555
H22 C25 1_555 1_555
H23 C25 1_555 1_555
O1 S1 1_555 1_555
O2 S1 1_555 1_555
S1 C10 1_555 1_555
C7 C8 1_555 1_555
C10 C11 1_555 1_555
C16 C17 1_555 1_555
C19 S1 1_555 1_555
C23 C24 1_555 1_555

#END
