
#######################################################################
#
#                 Cambridge Crystallographic Data Centre
#                                CCDC 
#
#######################################################################
#
# If this CIF has been generated from an entry in the Cambridge 
# Structural Database, then it will include bibliographic, chemical, 
# crystal, experimental, refinement or atomic coordinate data resulting 
# from the CCDC's data processing and validation procedures.
#
#######################################################################

data_ZABPAW
_chemical_formula_moiety         'C28 H23 Br1 O2 S1'
_chemical_name_systematic        
1-(Bromomethylene)-3-((4-methylphenyl)sulfonyl)-4-phenyl-1,2,3,4-tetrahydrophenanthrene
_symmetry_cell_setting           monoclinic
_symmetry_space_group_name_H-M   'P 21/n'
_symmetry_Int_Tables_number      14
_space_group_name_Hall           '-P 2yn'
loop_
_symmetry_equiv_pos_site_id
_symmetry_equiv_pos_as_xyz
1 x,y,z
2 1/2-x,1/2+y,1/2-z
3 -x,-y,-z
4 1/2+x,1/2-y,1/2+z
_cell_length_a                   11.5248(7)
_cell_length_b                   26.0897(17)
_cell_length_c                   15.4151(10)
_cell_angle_alpha                90
_cell_angle_beta                 93.083(2)
_cell_angle_gamma                90
_cell_volume                     4628.28
_exptl_crystal_colour            colorless
_cell_formula_units_Z            8
loop_
_atom_site_label
_atom_site_type_symbol
_atom_site_fract_x
_atom_site_fract_y
_atom_site_fract_z
Br1 Br 0.40502(6) 0.66944(3) 0.54308(4)
S1 S 0.20198(10) 0.77454(5) 0.75031(8)
O1 O 0.1456(3) 0.80882(14) 0.8072(2)
O2 O 0.2829(3) 0.73713(14) 0.7869(2)
C1 C -0.1511(6) 0.6703(3) 0.5063(4)
H1 H -0.1506 0.6880 0.4517
H2 H -0.2277 0.6718 0.5279
H3 H -0.1295 0.6351 0.4983
C2 C -0.0663(5) 0.6951(2) 0.5702(3)
C3 C -0.0907(4) 0.7420(2) 0.6088(3)
H4 H -0.1628 0.7572 0.5969
C4 C -0.0107(4) 0.7662(2) 0.6640(3)
H5 H -0.0270 0.7981 0.6874
C5 C 0.0950(4) 0.74215(19) 0.6842(3)
C6 C 0.2740(4) 0.81327(19) 0.6724(3)
H6 H 0.2123 0.8315 0.6388
C7 C 0.3511(4) 0.85469(17) 0.7165(3)
H7 H 0.3157 0.8643 0.7706
C8 C 0.4738(4) 0.83600(18) 0.7404(3)
C9 C 0.5455(4) 0.8671(2) 0.7983(3)
C10 C 0.5074(5) 0.9136(2) 0.8340(3)
H8 H 0.4316 0.9246 0.8214
C11 C 0.5809(6) 0.9434(3) 0.8876(4)
H9 H 0.5542 0.9735 0.9116
C12 C 0.6947(6) 0.9275(3) 0.9047(4)
H10 H 0.7447 0.9478 0.9395
C13 C 0.0398(5) 0.6723(2) 0.5935(4)
H11 H 0.0565 0.6403 0.5705
C14 C 0.1199(4) 0.6950(2) 0.6489(4)
H12 H 0.1907 0.6791 0.6628
C15 C 0.7342(5) 0.8836(3) 0.8722(4)
H13 H 0.8107 0.8737 0.8851
C16 C 0.6619(4) 0.8524(2) 0.8191(3)
C17 C 0.7042(4) 0.8064(2) 0.7832(4)
H14 H 0.7803 0.7962 0.7969
C18 C 0.6358(4) 0.7777(2) 0.7300(4)
H15 H 0.6661 0.7480 0.7067
C19 C 0.5175(4) 0.79114(19) 0.7076(3)
C20 C 0.4469(4) 0.75891(19) 0.6462(3)
C21 C 0.4836(5) 0.7121(2) 0.6273(4)
H16 H 0.5505 0.6997 0.6565
C22 C 0.3378(4) 0.78157(18) 0.6072(3)
H17 H 0.2872 0.7543 0.5852
H18 H 0.3561 0.8031 0.5586
C23 C 0.3493(4) 0.90173(18) 0.6585(3)
C24 C 0.4160(4) 0.90703(18) 0.5839(4)
H19 H 0.4657 0.8805 0.5703
C25 C 0.4111(5) 0.9467(2) 0.5345(4)
H20 H 0.4608 0.9492 0.4891
C26 C 0.3319(5) 0.9859(2) 0.5481(4)
H21 H 0.3265 1.0140 0.5110
C27 C 0.2617(5) 0.9822(2) 0.6175(4)
H22 H 0.2098 1.0085 0.6283
C28 C 0.2680(4) 0.9403(2) 0.6705(3)
H23 H 0.2174 0.9374 0.7152
Br2 Br 0.60180(6) 0.70789(3) 0.94536(4)
S2 S 0.79424(10) 0.60213(5) 0.73185(8)
O3 O 0.8495(3) 0.56832(15) 0.6747(3)
O4 O 0.7143(3) 0.63912(14) 0.6948(2)
C29 C 1.1510(5) 0.7103(3) 0.9673(4)
H24 H 1.1505 0.6957 1.0244
H25 H 1.1306 0.7460 0.9700
H26 H 1.2272 0.7070 0.9456
C30 C 1.0644(4) 0.6828(2) 0.9076(3)
C31 C 0.9604(5) 0.7064(2) 0.8809(4)
H27 H 0.9455 0.7394 0.9006
C32 C 0.8794(4) 0.6828(2) 0.8266(4)
H28 H 0.8101 0.6993 0.8101
C33 C 0.9017(4) 0.6346(2) 0.7970(3)
C34 C 0.7249(4) 0.56343(19) 0.8105(3)
H29 H 0.7871 0.5446 0.8425
C35 C 0.6454(4) 0.52316(18) 0.7675(3)
H30 H 0.6795 0.5123 0.7136
C36 C 0.5224(4) 0.54379(19) 0.7442(3)
C37 C 0.4488(4) 0.5139(2) 0.6854(3)
C38 C 0.4844(6) 0.4679(3) 0.6464(4)
H31 H 0.5594 0.4557 0.6583
C39 C 0.4096(7) 0.4414(3) 0.5914(5)
H32 H 0.4342 0.4108 0.5674
C40 C 0.2982(7) 0.4586(3) 0.5707(5)
H33 H 0.2501 0.4406 0.5311
C41 C 1.0836(5) 0.6352(2) 0.8767(4)
H34 H 1.1529 0.6190 0.8939
C42 C 1.0062(4) 0.6096(2) 0.8211(4)
H35 H 1.0225 0.5771 0.8004
C43 C 0.6415(4) 0.47669(19) 0.8276(3)
C44 C 0.5538(5) 0.4686(3) 0.8834(4)
H36 H 0.4926 0.4917 0.8852
C45 C 0.5573(6) 0.4254(3) 0.9373(5)
H37 H 0.4969 0.4198 0.9738
C46 C 0.6466(5) 0.3917(2) 0.9376(4)
H38 H 0.6484 0.3636 0.9748
C47 C 0.7324(5) 0.3993(2) 0.8835(4)
H39 H 0.7932 0.3759 0.8826
C48 C 0.7321(4) 0.4417(2) 0.8287(3)
H40 H 0.7932 0.4466 0.7925
C49 C 0.3331(5) 0.5307(2) 0.6656(3)
C50 C 0.2929(5) 0.5752(2) 0.7059(4)
H41 H 0.2160 0.5853 0.6955
C51 C 0.3635(4) 0.6032(2) 0.7592(4)
H42 H 0.3354 0.6332 0.7829
C52 C 0.4807(4) 0.58809(18) 0.7804(3)
C53 C 0.5541(4) 0.6192(2) 0.8419(3)
C54 C 0.6646(4) 0.59571(19) 0.8780(3)
H43 H 0.6478 0.5742 0.9271
H44 H 0.7168 0.6227 0.8989
C55 C 0.5193(5) 0.6664(2) 0.8640(3)
H45 H 0.4508 0.6792 0.8375
C56 C 0.2607(5) 0.5005(3) 0.6068(5)
H46 H 0.1846 0.5109 0.5939
loop_
_geom_bond_atom_site_label_1
_geom_bond_atom_site_label_2
_geom_bond_site_symmetry_1
_geom_bond_site_symmetry_2
Br1 C21 1_555 1_555
S1 O1 1_555 1_555
O2 S1 1_555 1_555
C1 H1 1_555 1_555
H2 C1 1_555 1_555
H3 C1 1_555 1_555
C2 C1 1_555 1_555
C3 C2 1_555 1_555
H4 C3 1_555 1_555
C4 C3 1_555 1_555
H5 C4 1_555 1_555
C5 S1 1_555 1_555
C6 S1 1_555 1_555
H6 C6 1_555 1_555
C7 C6 1_555 1_555
H7 C7 1_555 1_555
C8 C7 1_555 1_555
C9 C8 1_555 1_555
C10 C9 1_555 1_555
H8 C10 1_555 1_555
C11 C10 1_555 1_555
H9 C11 1_555 1_555
C12 C11 1_555 1_555
H10 C12 1_555 1_555
C13 C2 1_555 1_555
H11 C13 1_555 1_555
C14 C5 1_555 1_555
H12 C14 1_555 1_555
C15 C12 1_555 1_555
H13 C15 1_555 1_555
C16 C9 1_555 1_555
C17 C16 1_555 1_555
H14 C17 1_555 1_555
C18 C17 1_555 1_555
H15 C18 1_555 1_555
C19 C8 1_555 1_555
C20 C19 1_555 1_555
C21 C20 1_555 1_555
H16 C21 1_555 1_555
C22 C6 1_555 1_555
H17 C22 1_555 1_555
H18 C22 1_555 1_555
C23 C7 1_555 1_555
C24 C23 1_555 1_555
H19 C24 1_555 1_555
C25 C24 1_555 1_555
H20 C25 1_555 1_555
C26 C25 1_555 1_555
H21 C26 1_555 1_555
C27 C26 1_555 1_555
H22 C27 1_555 1_555
C28 C23 1_555 1_555
H23 C28 1_555 1_555
Br2 C55 1_555 1_555
S2 O3 1_555 1_555
O4 S2 1_555 1_555
C29 H24 1_555 1_555
H25 C29 1_555 1_555
H26 C29 1_555 1_555
C30 C29 1_555 1_555
C31 C30 1_555 1_555
H27 C31 1_555 1_555
C32 C31 1_555 1_555
H28 C32 1_555 1_555
C33 S2 1_555 1_555
C34 S2 1_555 1_555
H29 C34 1_555 1_555
C35 C34 1_555 1_555
H30 C35 1_555 1_555
C36 C35 1_555 1_555
C37 C36 1_555 1_555
C38 C37 1_555 1_555
H31 C38 1_555 1_555
C39 C38 1_555 1_555
H32 C39 1_555 1_555
C40 C39 1_555 1_555
H33 C40 1_555 1_555
C41 C30 1_555 1_555
H34 C41 1_555 1_555
C42 C33 1_555 1_555
H35 C42 1_555 1_555
C43 C35 1_555 1_555
C44 C43 1_555 1_555
H36 C44 1_555 1_555
C45 C44 1_555 1_555
H37 C45 1_555 1_555
C46 C45 1_555 1_555
H38 C46 1_555 1_555
C47 C46 1_555 1_555
H39 C47 1_555 1_555
C48 C43 1_555 1_555
H40 C48 1_555 1_555
C49 C37 1_555 1_555
C50 C49 1_555 1_555
H41 C50 1_555 1_555
C51 C50 1_555 1_555
H42 C51 1_555 1_555
C52 C36 1_555 1_555
C53 C52 1_555 1_555
C54 C34 1_555 1_555
H43 C54 1_555 1_555
H44 C54 1_555 1_555
C55 C53 1_555 1_555
H45 C55 1_555 1_555
C56 C40 1_555 1_555
H46 C56 1_555 1_555
C4 C5 1_555 1_555
C13 C14 1_555 1_555
C15 C16 1_555 1_555
C18 C19 1_555 1_555
C20 C22 1_555 1_555
C27 C28 1_555 1_555
C32 C33 1_555 1_555
C41 C42 1_555 1_555
C47 C48 1_555 1_555
C49 C56 1_555 1_555
C51 C52 1_555 1_555
C53 C54 1_555 1_555

#END
