
#######################################################################
#
#                 Cambridge Crystallographic Data Centre
#                                CCDC 
#
#######################################################################
#
# If this CIF has been generated from an entry in the Cambridge 
# Structural Database, then it will include bibliographic, chemical, 
# crystal, experimental, refinement or atomic coordinate data resulting 
# from the CCDC's data processing and validation procedures.
#
#######################################################################

data_ZACBUD
_chemical_formula_moiety         'C42 H38 F6 N2 O6'
_chemical_name_systematic        
3,7-bis(1-(2-ethylhexyl)-5,6,7-trifluoro-2-oxo-1,2-dihydro-3H-indol-3-ylidene)-3,7-dihydrofuro[2,3-f][1]benzofuran-2,6-dione
_symmetry_cell_setting           rhombohedral
_symmetry_space_group_name_H-M   'R -3'
_symmetry_Int_Tables_number      148
_space_group_name_Hall           '-R 3'
loop_
_symmetry_equiv_pos_site_id
_symmetry_equiv_pos_as_xyz
1 x,y,z
2 -y,x-y,z
3 -x+y,-x,z
4 2/3+x,1/3+y,1/3+z
5 2/3-y,1/3+x-y,1/3+z
6 2/3-x+y,1/3-x,1/3+z
7 1/3+x,2/3+y,2/3+z
8 1/3-y,2/3+x-y,2/3+z
9 1/3-x+y,2/3-x,2/3+z
10 -x,-y,-z
11 y,-x+y,-z
12 x-y,x,-z
13 1/3-x,2/3-y,2/3-z
14 1/3+y,2/3-x+y,2/3-z
15 1/3+x-y,2/3+x,2/3-z
16 2/3-x,1/3-y,1/3-z
17 2/3+y,1/3-x+y,1/3-z
18 2/3+x-y,1/3+x,1/3-z
_cell_length_a                   37.9197(10)
_cell_length_b                   37.9197(10)
_cell_length_c                   6.6101(2)
_cell_angle_alpha                90
_cell_angle_beta                 90
_cell_angle_gamma                120
_cell_volume                     8231.3
_exptl_crystal_colour            black
_exptl_crystal_description       needle
_cell_formula_units_Z            9
loop_
_atom_site_label
_atom_site_type_symbol
_atom_site_fract_x
_atom_site_fract_y
_atom_site_fract_z
F1 F 0.08034(5) 0.62976(5) 0.3752(2)
F2 F 0.01664(6) 0.63782(5) 0.2697(2)
F3 F -0.05007(6) 0.60814(6) 0.5065(3)
N1 N 0.07627(6) 0.58896(6) 0.7646(3)
O1 O -0.06653(7) 0.54230(8) 1.0865(3)
O2 O -0.06115(5) 0.50939(6) 1.3515(2)
O3 O 0.08038(6) 0.55452(7) 1.0376(3)
C1 C 0.03706(7) 0.51686(6) 1.3859(3)
H1 H 0.0614 0.5274 1.3149
C2 C 0.00422(6) 0.52067(6) 1.3156(3)
C3 C -0.03095(7) 0.50347(6) 1.4336(3)
C4 C -0.00347(7) 0.54000(6) 1.1415(3)
C5 C -0.04601(8) 0.53193(8) 1.1774(3)
C6 C 0.01956(7) 0.56066(6) 0.9774(3)
C7 C 0.06168(7) 0.56688(7) 0.9396(3)
C8 C 0.01198(7) 0.58016(6) 0.8046(3)
C9 C -0.02117(8) 0.58427(7) 0.7458(3)
H2 H -0.0445 0.5740 0.8254
C10 C -0.01830(9) 0.60404(8) 0.5663(4)
C11 C 0.01541(9) 0.61926(7) 0.4450(3)
C12 C 0.04818(8) 0.61540(7) 0.5007(3)
C13 C 0.04683(8) 0.59624(6) 0.6814(3)
C14 C 0.11681(9) 0.60155(9) 0.6864(4)
H3 H 0.1182 0.6108 0.5482
H4 H 0.1200 0.5778 0.6817
C15 C 0.14601(13) 0.64876(15) 0.7212(7)
H5 H 0.1299 0.6614 0.6827
C16 C 0.15484(17) 0.65794(15) 0.9469(7)
H6 H 0.1293 0.6466 1.0197
H7 H 0.1694 0.6447 0.9963
C17 C 0.1810(2) 0.6656(2) 0.5755(14)
H8 H 0.1700 0.6635 0.4407
H9 H 0.1981 0.6943 0.6047
C18 C 0.2071(2) 0.6474(3) 0.5703(16)
H10 H 0.1903 0.6182 0.5522
H11 H 0.2211 0.6522 0.6989
C19 C 0.17990(15) 0.70334(12) 0.9906(8)
H12 H 0.1753 0.7260 0.9953
H13 H 0.2070 0.7123 0.9422
H14 H 0.1769 0.6921 1.1238
C20 C 0.2386(2) 0.6649(3) 0.3996(15)
H15 H 0.2385 0.6681 0.2541
H16 H 0.2538 0.6924 0.4530
C21 C 0.2660(4) 0.6490(4) 0.429(2)
H17 H 0.2752 0.6533 0.5668
H18 H 0.2889 0.6627 0.3400
H19 H 0.2518 0.6203 0.3999
F1I F -0.08034(5) 0.37024(5) 2.6248(2)
F2I F -0.01664(6) 0.36218(5) 2.7303(2)
F3I F 0.05007(6) 0.39186(6) 2.4935(3)
N1I N -0.07627(6) 0.41104(6) 2.2354(3)
O1I O 0.06653(7) 0.45770(8) 1.9135(3)
O2I O 0.06115(5) 0.49061(6) 1.6485(2)
O3I O -0.08038(6) 0.44548(7) 1.9624(3)
C1I C -0.03706(7) 0.48314(6) 1.6141(3)
H1I H -0.0614 0.4726 1.6851
C2I C -0.00422(6) 0.47933(6) 1.6844(3)
C3I C 0.03095(7) 0.49653(6) 1.5664(3)
C4I C 0.00347(7) 0.46000(6) 1.8585(3)
C5I C 0.04601(8) 0.46807(8) 1.8226(3)
C6I C -0.01956(7) 0.43934(6) 2.0226(3)
C7I C -0.06168(7) 0.43312(7) 2.0604(3)
C8I C -0.01198(7) 0.41984(6) 2.1954(3)
C9I C 0.02117(8) 0.41573(7) 2.2542(3)
H2I H 0.0445 0.4260 2.1746
C10I C 0.01830(9) 0.39596(8) 2.4337(4)
C11I C -0.01541(9) 0.38074(7) 2.5550(3)
C12I C -0.04818(8) 0.38460(7) 2.4993(3)
C13I C -0.04683(8) 0.40376(6) 2.3186(3)
C14I C -0.11681(9) 0.39845(9) 2.3136(4)
H3I H -0.1182 0.3892 2.4518
H4I H -0.1200 0.4222 2.3183
C15I C -0.14601(13) 0.35124(15) 2.2788(7)
H5I H -0.1299 0.3386 2.3173
C16I C -0.15484(17) 0.34206(15) 2.0531(7)
H6I H -0.1293 0.3534 1.9803
H7I H -0.1694 0.3553 2.0037
C17I C -0.1810(2) 0.3344(2) 2.4245(14)
H8I H -0.1700 0.3365 2.5593
H9I H -0.1981 0.3057 2.3953
C18I C -0.2071(2) 0.3526(3) 2.4297(16)
H10I H -0.1903 0.3818 2.4478
H11I H -0.2211 0.3478 2.3011
C19I C -0.17990(15) 0.29666(12) 2.0094(8)
H12I H -0.1753 0.2740 2.0047
H13I H -0.2070 0.2877 2.0578
H14I H -0.1769 0.3079 1.8762
C20I C -0.2386(2) 0.3351(3) 2.6004(15)
H15I H -0.2385 0.3319 2.7459
H16I H -0.2538 0.3076 2.5470
C21I C -0.2660(4) 0.3510(4) 2.571(2)
H17I H -0.2752 0.3467 2.4332
H18I H -0.2889 0.3373 2.6600
H19I H -0.2518 0.3797 2.6001
C22? C 0.1522(3) 0.6343(3) 0.8002(15)
H20? H 0.1537 0.6224 0.9294
C23? C 0.1490(4) 0.6709(4) 0.848(3)
H21? H 0.1222 0.6615 0.9054
H22? H 0.1501 0.6842 0.7214
C24? C 0.1924(4) 0.6486(6) 0.694(2)
H23? H 0.2027 0.6310 0.7359
H24? H 0.2113 0.6757 0.7436
C25? C 0.1938(5) 0.6504(8) 0.463(2)
H25? H 0.1856 0.6694 0.4145
H26? H 0.1755 0.6238 0.4065
loop_
_geom_bond_atom_site_label_1
_geom_bond_atom_site_label_2
_geom_bond_site_symmetry_1
_geom_bond_site_symmetry_2
F1 C12 1_555 1_555
F2 C11 1_555 1_555
F3 C10 1_555 1_555
N1 C7 1_555 1_555
O1 C5 1_555 1_555
O2 C3 1_555 1_555
O3 C7 1_555 1_555
C1 H1 1_555 1_555
C2 C1 1_555 1_555
C3 C2 1_555 1_555
C4 C2 1_555 1_555
C5 O2 1_555 1_555
C6 C4 1_555 1_555
C7 C6 1_555 1_555
C8 C6 1_555 1_555
C9 C8 1_555 1_555
H2 C9 1_555 1_555
C10 C9 1_555 1_555
C11 C10 1_555 1_555
C12 C11 1_555 1_555
C13 N1 1_555 1_555
C14 N1 1_555 1_555
H3 C14 1_555 1_555
H4 C14 1_555 1_555
C15 C14 1_555 1_555
H5 C15 1_555 1_555
C16 C15 1_555 1_555
H6 C16 1_555 1_555
H7 C16 1_555 1_555
C17 C15 1_555 1_555
H8 C17 1_555 1_555
H9 C17 1_555 1_555
C18 C17 1_555 1_555
H10 C18 1_555 1_555
H11 C18 1_555 1_555
C19 C16 1_555 1_555
H12 C19 1_555 1_555
H13 C19 1_555 1_555
H14 C19 1_555 1_555
C20 C18 1_555 1_555
H15 C20 1_555 1_555
H16 C20 1_555 1_555
C21 C20 1_555 1_555
H17 C21 1_555 1_555
H18 C21 1_555 1_555
H19 C21 1_555 1_555
F1I C12I 1_555 1_555
F2I C11I 1_555 1_555
F3I C10I 1_555 1_555
N1I C7I 1_555 1_555
O1I C5I 1_555 1_555
O2I C3I 1_555 1_555
O3I C7I 1_555 1_555
C1I C3 1_555 1_555
H1I C1I 1_555 1_555
C2I C1I 1_555 1_555
C3I C1 1_555 1_555
C4I C2I 1_555 1_555
C5I O2I 1_555 1_555
C6I C4I 1_555 1_555
C7I C6I 1_555 1_555
C8I C6I 1_555 1_555
C9I C8I 1_555 1_555
H2I C9I 1_555 1_555
C10I C9I 1_555 1_555
C11I C10I 1_555 1_555
C12I C11I 1_555 1_555
C13I N1I 1_555 1_555
C14I N1I 1_555 1_555
H3I C14I 1_555 1_555
H4I C14I 1_555 1_555
C15I C14I 1_555 1_555
H5I C15I 1_555 1_555
C16I C15I 1_555 1_555
H6I C16I 1_555 1_555
H7I C16I 1_555 1_555
C17I C15I 1_555 1_555
H8I C17I 1_555 1_555
H9I C17I 1_555 1_555
C18I C17I 1_555 1_555
H10I C18I 1_555 1_555
H11I C18I 1_555 1_555
C19I C16I 1_555 1_555
H12I C19I 1_555 1_555
H13I C19I 1_555 1_555
H14I C19I 1_555 1_555
C20I C18I 1_555 1_555
H15I C20I 1_555 1_555
H16I C20I 1_555 1_555
C21I C20I 1_555 1_555
H17I C21I 1_555 1_555
H18I C21I 1_555 1_555
H19I C21I 1_555 1_555
C4 C5 1_555 1_555
C8 C13 1_555 1_555
C12 C13 1_555 1_555
C2I C3I 1_555 1_555
C4I C5I 1_555 1_555
C8I C13I 1_555 1_555
C12I C13I 1_555 1_555

#END
