
#######################################################################
#
#                 Cambridge Crystallographic Data Centre
#                                CCDC 
#
#######################################################################
#
# If this CIF has been generated from an entry in the Cambridge 
# Structural Database, then it will include bibliographic, chemical, 
# crystal, experimental, refinement or atomic coordinate data resulting 
# from the CCDC's data processing and validation procedures.
#
#######################################################################

data_ZACCEO
_chemical_formula_moiety         'C42 H42 F2 N2 O6'
_chemical_name_systematic        
3,7-bis(1-(2-ethylhexyl)-5-fluoro-2-oxo-1,2-dihydro-3H-indol-3-ylidene)-3,7-dihydrofuro[2,3-f][1]benzofuran-2,6-dione
_symmetry_cell_setting           triclinic
_symmetry_space_group_name_H-M   'P -1'
_symmetry_Int_Tables_number      2
_space_group_name_Hall           '-P 1'
loop_
_symmetry_equiv_pos_site_id
_symmetry_equiv_pos_as_xyz
1 x,y,z
2 -x,-y,-z
_cell_length_a                   7.4347(5)
_cell_length_b                   13.6894(10)
_cell_length_c                   18.0508(12)
_cell_angle_alpha                106.793(6)
_cell_angle_beta                 96.814(6)
_cell_angle_gamma                94.792(6)
_cell_volume                     1732.91
_exptl_crystal_description       needle
_cell_formula_units_Z            2
loop_
_atom_site_label
_atom_site_type_symbol
_atom_site_fract_x
_atom_site_fract_y
_atom_site_fract_z
C1 C 0.2590(5) 0.8254(3) 0.8220(2)
H1 H 0.2008 0.7658 0.8302
C2 C 0.3208(6) 0.9122(3) 0.8833(2)
C3 C 0.4075(6) 1.0000(3) 0.8756(2)
H2 H 0.4494 1.0577 0.9203
C4 C 0.4332(6) 1.0038(3) 0.8020(2)
H3 H 0.4927 1.0638 0.7948
C5 C 0.3700(5) 0.9176(3) 0.7392(2)
C6 C 0.3082(6) 0.8104(3) 0.6154(2)
C7 C 0.2348(5) 0.7544(3) 0.6686(2)
C8 C 0.2841(5) 0.8274(3) 0.7475(2)
C9 C 0.1481(6) 0.6557(3) 0.6416(2)
C10 C 0.0978(7) 0.5949(3) 0.6944(2)
C11 C 0.0061(6) 0.4933(3) 0.5720(2)
C12 C 0.0819(5) 0.5858(3) 0.5626(2)
C13 C -0.0746(6) 0.4077(3) 0.5139(2)
H4 H -0.1228 0.3475 0.5244
C14 C 0.4743(6) 0.9844(3) 0.6322(2)
H5 H 0.4958 0.9509 0.5781
H6 H 0.5948 1.0109 0.6650
C15 C 0.3650(7) 1.0757(4) 0.6325(3)
H7 H 0.3351 1.1011 0.6869
C16 C 0.1866(9) 1.0520(5) 0.5798(4)
H8 H 0.2095 1.0392 0.5251
H9 H 0.1209 0.9881 0.5837
C17 C 0.0687(9) 1.1354(5) 0.5984(4)
H10 H 0.0282 1.1406 0.6489
H11 H -0.0379 1.1199 0.5575
H12 H 0.1379 1.2007 0.6009
C18 C 0.4964(8) 1.1633(4) 0.6232(3)
H13 H 0.5620 1.1348 0.5786
H14 H 0.4235 1.2150 0.6100
C19 C 0.6321(8) 1.2155(4) 0.6933(3)
H15 H 0.7181 1.1663 0.7004
H16 H 0.5671 1.2315 0.7394
C20 C 0.7413(9) 1.3123(4) 0.6935(3)
H17 H 0.8104 1.2966 0.6488
H18 H 0.6563 1.3615 0.6855
C21 C 0.8722(15) 1.3628(6) 0.7667(4)
H19 H 0.8061 1.3762 0.8117
H20 H 0.9319 1.4279 0.7638
H21 H 0.9646 1.3174 0.7726
F1 F 0.2948(4) 0.9093(2) 0.95682(12)
N1 N 0.3821(5) 0.9075(2) 0.66123(17)
O1 O 0.0171(5) 0.4984(2) 0.64986(14)
O2 O 0.1168(6) 0.6160(3) 0.76387(17)
O3 O 0.3119(4) 0.7777(2) 0.54515(15)
C1A C -0.2590(5) 0.1746(3) 0.1780(2)
H1A H -0.2008 0.2342 0.1698
C2A C -0.3208(6) 0.0878(3) 0.1167(2)
C3A C -0.4075(6) 0.0000(3) 0.1244(2)
H2A H -0.4494 -0.0577 0.0797
C4A C -0.4332(6) -0.0038(3) 0.1980(2)
H3A H -0.4927 -0.0638 0.2052
C5A C -0.3700(5) 0.0824(3) 0.2608(2)
C6A C -0.3082(6) 0.1896(3) 0.3846(2)
C7A C -0.2348(5) 0.2456(3) 0.3314(2)
C8A C -0.2841(5) 0.1726(3) 0.2525(2)
C9A C -0.1481(6) 0.3443(3) 0.3584(2)
C10A C -0.0978(7) 0.4051(3) 0.3056(2)
C11A C -0.0061(6) 0.5067(3) 0.4280(2)
C12A C -0.0819(5) 0.4142(3) 0.4374(2)
C13A C 0.0746(6) 0.5923(3) 0.4861(2)
H4A H 0.1228 0.6525 0.4756
C14A C -0.4743(6) 0.0156(3) 0.3678(2)
H5A H -0.4958 0.0491 0.4219
H6A H -0.5948 -0.0109 0.3350
C15A C -0.3650(7) -0.0757(4) 0.3675(3)
H7A H -0.3351 -0.1011 0.3131
C16A C -0.1866(9) -0.0520(5) 0.4202(4)
H8A H -0.2095 -0.0392 0.4749
H9A H -0.1209 0.0119 0.4163
C17A C -0.0687(9) -0.1354(5) 0.4016(4)
H10A H -0.0282 -0.1406 0.3511
H11A H 0.0379 -0.1199 0.4425
H12A H -0.1379 -0.2007 0.3991
C18A C -0.4964(8) -0.1633(4) 0.3768(3)
H13A H -0.5620 -0.1348 0.4214
H14A H -0.4235 -0.2150 0.3900
C19A C -0.6321(8) -0.2155(4) 0.3067(3)
H15A H -0.7181 -0.1663 0.2996
H16A H -0.5671 -0.2315 0.2606
C20A C -0.7413(9) -0.3123(4) 0.3065(3)
H17A H -0.8104 -0.2966 0.3512
H18A H -0.6563 -0.3615 0.3145
C21A C -0.8722(15) -0.3628(6) 0.2333(4)
H19A H -0.8061 -0.3762 0.1883
H20A H -0.9319 -0.4279 0.2362
H21A H -0.9646 -0.3174 0.2274
F1A F -0.2948(4) 0.0907(2) 0.04318(12)
N1A N -0.3821(5) 0.0925(2) 0.33877(17)
O1A O -0.0171(5) 0.5016(2) 0.35014(14)
O2A O -0.1168(6) 0.3840(3) 0.23613(17)
O3A O -0.3119(4) 0.2223(2) 0.45485(15)
C22 C 0.6392(6) 0.6722(4) 0.7538(2)
C23 C 0.7686(6) 0.8308(3) 0.8252(2)
C24 C 0.8262(6) 0.9181(4) 0.8882(2)
H22 H 0.8110 0.9188 0.9399
C25 C 0.9067(7) 1.0042(4) 0.8736(2)
H23 H 0.9468 1.0656 0.9153
C26 C 0.9276(6) 1.0000(3) 0.7994(2)
C27 C 0.8709(6) 0.9158(3) 0.7351(2)
H24 H 0.8880 0.9172 0.6841
C28 C 0.7871(5) 0.8275(3) 0.7475(2)
C29 C 0.7028(6) 0.7259(3) 0.6976(2)
C30 C 0.6729(6) 0.6818(3) 0.6181(2)
C31 C 0.7310(6) 0.7351(3) 0.5606(2)
C32 C 0.5801(6) 0.5836(3) 0.4893(2)
C33 C 0.5775(6) 0.5827(3) 0.5668(2)
C34 C 0.5076(6) 0.5069(3) 0.4228(2)
H25 H 0.5143 0.5136 0.3723
C35 C 0.6406(7) 0.7138(4) 0.8975(2)
H26 H 0.6552 0.7795 0.9403
H27 H 0.5100 0.6858 0.8878
C36 C 0.7396(19) 0.6459(10) 0.9248(6)
H28 H 0.7442 0.5831 0.8802
C37 C 0.934(2) 0.7032(15) 0.9546(9)
H29 H 0.9281 0.7580 1.0037
H30 H 0.9649 0.7380 0.9158
C38 C 1.096(4) 0.644(2) 0.9709(18)
H31 H 1.0575 0.5939 0.9970
H32 H 1.1978 0.6929 1.0048
H33 H 1.1357 0.6082 0.9214
C39 C 0.6602(17) 0.6143(8) 0.9886(6)
H34 H 0.5318 0.6290 0.9840
H35 H 0.6552 0.5385 0.9737
C40 C 0.7319(19) 0.6520(13) 1.0734(8)
H36 H 0.8088 0.7191 1.0868
H37 H 0.8055 0.6023 1.0891
C41 C 0.558(3) 0.6632(17) 1.1152(11)
H38 H 0.5341 0.7350 1.1382
H39 H 0.4460 0.6192 1.0838
C42 C 0.663(4) 0.617(3) 1.1729(18)
H40 H 0.7246 0.5608 1.1439
H41 H 0.5784 0.5912 1.2023
H42 H 0.7548 0.6707 1.2093
F2 F 1.0074(4) 1.0866(2) 0.78604(15)
N2 N 0.6831(5) 0.7377(3) 0.82713(17)
O4 O 0.6713(4) 0.6748(2) 0.48665(14)
O5 O 0.8216(5) 0.8168(2) 0.57283(16)
O6 O 0.5594(6) 0.5854(3) 0.73888(16)
C22A C 0.3608(6) 0.3278(4) 0.2462(2)
C23A C 0.2314(6) 0.1692(3) 0.1748(2)
C24A C 0.1738(6) 0.0819(4) 0.1118(2)
H22A H 0.1890 0.0812 0.0601
C25A C 0.0933(7) -0.0042(4) 0.1264(2)
H23A H 0.0532 -0.0656 0.0847
C26A C 0.0724(6) 0.0000(3) 0.2006(2)
C27A C 0.1291(6) 0.0842(3) 0.2649(2)
H24A H 0.1120 0.0828 0.3159
C28A C 0.2129(5) 0.1725(3) 0.2525(2)
C29A C 0.2972(6) 0.2741(3) 0.3024(2)
C30A C 0.3271(6) 0.3182(3) 0.3819(2)
C31A C 0.2690(6) 0.2649(3) 0.4394(2)
C32A C 0.4199(6) 0.4164(3) 0.5107(2)
C33A C 0.4225(6) 0.4173(3) 0.4332(2)
C34A C 0.4924(6) 0.4931(3) 0.5772(2)
H25A H 0.4857 0.4864 0.6277
C35A C 0.3594(7) 0.2862(4) 0.1025(2)
H26A H 0.3448 0.2205 0.0597
H27A H 0.4900 0.3142 0.1122
C36A C 0.2604(19) 0.3541(10) 0.0752(6)
H28A H 0.2558 0.4169 0.1198
C37A C 0.066(2) 0.2968(15) 0.0454(9)
H29A H 0.0719 0.2420 -0.0037
H30A H 0.0351 0.2620 0.0842
C38A C -0.096(4) 0.356(2) 0.0291(18)
H31A H -0.0575 0.4061 0.0030
H32A H -0.1978 0.3071 -0.0048
H33A H -0.1357 0.3918 0.0786
C39A C 0.3398(17) 0.3857(8) 0.0114(6)
H34A H 0.4682 0.3710 0.0160
H35A H 0.3448 0.4615 0.0263
C40A C 0.2681(19) 0.3480(13) -0.0734(8)
H36A H 0.1912 0.2809 -0.0868
H37A H 0.1945 0.3977 -0.0891
C41A C 0.442(3) 0.3368(17) -0.1152(11)
H38A H 0.4659 0.2650 -0.1382
H39A H 0.5540 0.3808 -0.0838
C42A C 0.337(4) 0.383(3) -0.1729(18)
H40A H 0.2754 0.4392 -0.1439
H41A H 0.4216 0.4088 -0.2023
H42A H 0.2452 0.3293 -0.2093
F2A F -0.0074(4) -0.0866(2) 0.21396(15)
N2A N 0.3169(5) 0.2623(3) 0.17287(17)
O4A O 0.3287(4) 0.3252(2) 0.51335(14)
O5A O 0.1784(5) 0.1832(2) 0.42717(16)
O6A O 0.4406(6) 0.4146(3) 0.26112(16)
H43? H 0.5651 0.6461 0.8827
H44? H 0.5706 0.7665 0.9269
C43? C 0.8260(16) 0.7117(13) 0.9509(7)
H45? H 0.9117 0.7707 0.9486
C44? C 0.9117(16) 0.6184(13) 0.9174(7)
H46? H 0.9215 0.6126 0.8621
H47? H 0.8297 0.5577 0.9177
C45? C 1.102(2) 0.6146(19) 0.9596(14)
H48? H 1.1725 0.6828 0.9748
H49? H 1.1647 0.5649 0.9244
H50? H 1.0889 0.5937 1.0064
C46? C 0.808(2) 0.7318(9) 1.0402(6)
H51? H 0.9091 0.7025 1.0639
H52? H 0.8283 0.8071 1.0656
C47? C 0.648(2) 0.6945(14) 1.0597(6)
H53? H 0.6011 0.6266 1.0214
H54? H 0.5555 0.7417 1.0564
C48? C 0.675(3) 0.6833(12) 1.1435(7)
H55? H 0.8084 0.6888 1.1602
H56? H 0.6318 0.7439 1.1784
C49? C 0.588(3) 0.5880(13) 1.1605(14)
H57? H 0.4788 0.5572 1.1217
H58? H 0.5528 0.6081 1.2130
H59? H 0.6753 0.5379 1.1575
loop_
_geom_bond_atom_site_label_1
_geom_bond_atom_site_label_2
_geom_bond_site_symmetry_1
_geom_bond_site_symmetry_2
C1 H1 1_555 1_555
C2 C1 1_555 1_555
C3 C2 1_555 1_555
H2 C3 1_555 1_555
C4 C3 1_555 1_555
H3 C4 1_555 1_555
C5 C4 1_555 1_555
C6 C7 1_555 1_555
C7 C8 1_555 1_555
C8 C1 1_555 1_555
C9 C7 1_555 1_555
C10 C9 1_555 1_555
C11 C12 1_555 1_555
C12 C9 1_555 1_555
C13 C11 1_555 1_555
H4 C13 1_555 1_555
C14 H5 1_555 1_555
H6 C14 1_555 1_555
C15 C14 1_555 1_555
H7 C15 1_555 1_555
C16 C15 1_555 1_555
H8 C16 1_555 1_555
H9 C16 1_555 1_555
C17 C16 1_555 1_555
H10 C17 1_555 1_555
H11 C17 1_555 1_555
H12 C17 1_555 1_555
C18 C15 1_555 1_555
H13 C18 1_555 1_555
H14 C18 1_555 1_555
C19 C18 1_555 1_555
H15 C19 1_555 1_555
H16 C19 1_555 1_555
C20 C19 1_555 1_555
H17 C20 1_555 1_555
H18 C20 1_555 1_555
C21 C20 1_555 1_555
H19 C21 1_555 1_555
H20 C21 1_555 1_555
H21 C21 1_555 1_555
F1 C2 1_555 1_555
N1 C5 1_555 1_555
O1 C10 1_555 1_555
O2 C10 1_555 1_555
O3 C6 1_555 1_555
C22 C29 1_555 1_555
C23 C24 1_555 1_555
C24 H22 1_555 1_555
C25 C24 1_555 1_555
H23 C25 1_555 1_555
C26 C25 1_555 1_555
C27 C26 1_555 1_555
H24 C27 1_555 1_555
C28 C23 1_555 1_555
C29 C28 1_555 1_555
C30 C29 1_555 1_555
C31 C30 1_555 1_555
C32 C33 1_555 1_555
C33 C30 1_555 1_555
C34 C32 1_555 1_555
H25 C34 1_555 1_555
C35 H26 1_555 1_555
H27 C35 1_555 1_555
C36 C35 1_555 1_555
H28 C36 1_555 1_555
C37 C36 1_555 1_555
H29 C37 1_555 1_555
H30 C37 1_555 1_555
C38 C37 1_555 1_555
H31 C38 1_555 1_555
H32 C38 1_555 1_555
H33 C38 1_555 1_555
C39 C36 1_555 1_555
H34 C39 1_555 1_555
H35 C39 1_555 1_555
C40 C39 1_555 1_555
H36 C40 1_555 1_555
H37 C40 1_555 1_555
C41 C40 1_555 1_555
H38 C41 1_555 1_555
H39 C41 1_555 1_555
C42 C41 1_555 1_555
H40 C42 1_555 1_555
H41 C42 1_555 1_555
H42 C42 1_555 1_555
F2 C26 1_555 1_555
N2 C22 1_555 1_555
O4 C31 1_555 1_555
O5 C31 1_555 1_555
O6 C22 1_555 1_555
C1A H1A 1_555 1_555
C2A C1A 1_555 1_555
C3A C2A 1_555 1_555
H2A C3A 1_555 1_555
C4A C3A 1_555 1_555
H3A C4A 1_555 1_555
C5A C4A 1_555 1_555
C6A C7A 1_555 1_555
C7A C8A 1_555 1_555
C8A C1A 1_555 1_555
C9A C7A 1_555 1_555
C10A C9A 1_555 1_555
C11A C12A 1_555 1_555
C12A C13 1_555 1_555
C13A C12 1_555 1_555
H4A C13A 1_555 1_555
C14A H5A 1_555 1_555
H6A C14A 1_555 1_555
C15A C14A 1_555 1_555
H7A C15A 1_555 1_555
C16A C15A 1_555 1_555
H8A C16A 1_555 1_555
H9A C16A 1_555 1_555
C17A C16A 1_555 1_555
H10A C17A 1_555 1_555
H11A C17A 1_555 1_555
H12A C17A 1_555 1_555
C18A C15A 1_555 1_555
H13A C18A 1_555 1_555
H14A C18A 1_555 1_555
C19A C18A 1_555 1_555
H15A C19A 1_555 1_555
H16A C19A 1_555 1_555
C20A C19A 1_555 1_555
H17A C20A 1_555 1_555
H18A C20A 1_555 1_555
C21A C20A 1_555 1_555
H19A C21A 1_555 1_555
H20A C21A 1_555 1_555
H21A C21A 1_555 1_555
F1A C2A 1_555 1_555
N1A C5A 1_555 1_555
O1A C10A 1_555 1_555
O2A C10A 1_555 1_555
O3A C6A 1_555 1_555
C22A C29A 1_555 1_555
C23A C24A 1_555 1_555
C24A H22A 1_555 1_555
C25A C24A 1_555 1_555
H23A C25A 1_555 1_555
C26A C25A 1_555 1_555
C27A C26A 1_555 1_555
H24A C27A 1_555 1_555
C28A C23A 1_555 1_555
C29A C28A 1_555 1_555
C30A C29A 1_555 1_555
C31A C30A 1_555 1_555
C32A C33A 1_555 1_555
C33A C34 1_555 1_555
C34A C33 1_555 1_555
H25A C34A 1_555 1_555
C35A H26A 1_555 1_555
H27A C35A 1_555 1_555
C36A C35A 1_555 1_555
H28A C36A 1_555 1_555
C37A C36A 1_555 1_555
H29A C37A 1_555 1_555
H30A C37A 1_555 1_555
C38A C37A 1_555 1_555
H31A C38A 1_555 1_555
H32A C38A 1_555 1_555
H33A C38A 1_555 1_555
C39A C36A 1_555 1_555
H34A C39A 1_555 1_555
H35A C39A 1_555 1_555
C40A C39A 1_555 1_555
H36A C40A 1_555 1_555
H37A C40A 1_555 1_555
C41A C40A 1_555 1_555
H38A C41A 1_555 1_555
H39A C41A 1_555 1_555
C42A C41A 1_555 1_555
H40A C42A 1_555 1_555
H41A C42A 1_555 1_555
H42A C42A 1_555 1_555
F2A C26A 1_555 1_555
N2A C22A 1_555 1_555
O4A C31A 1_555 1_555
O5A C31A 1_555 1_555
O6A C22A 1_555 1_555
C5 C8 1_555 1_555
C6 N1 1_555 1_555
C11 O1 1_555 1_555
C14 N1 1_555 1_555
C23 N2 1_555 1_555
C27 C28 1_555 1_555
C32 O4 1_555 1_555
C35 N2 1_555 1_555
C5A C8A 1_555 1_555
C6A N1A 1_555 1_555
C9A C12A 1_555 1_555
C11A C13A 1_555 1_555
C11A O1A 1_555 1_555
C14A N1A 1_555 1_555
C23A N2A 1_555 1_555
C27A C28A 1_555 1_555
C30A C33A 1_555 1_555
C32A C34A 1_555 1_555
C32A O4A 1_555 1_555
C35A N2A 1_555 1_555

#END
