
#######################################################################
#
#                 Cambridge Crystallographic Data Centre
#                                CCDC 
#
#######################################################################
#
# If this CIF has been generated from an entry in the Cambridge 
# Structural Database, then it will include bibliographic, chemical, 
# crystal, experimental, refinement or atomic coordinate data resulting 
# from the CCDC's data processing and validation procedures.
#
#######################################################################

data_ZACJAR
_chemical_formula_moiety         'C33 H24 B1 F2 N1 O2'
_chemical_name_systematic        
difluoro-(3-(4'-(diphenylamino)biphenyl)-1-phenylpropane-1,3-dionato)-boron
_symmetry_cell_setting           triclinic
_symmetry_space_group_name_H-M   'P -1'
_symmetry_Int_Tables_number      2
_space_group_name_Hall           '-P 1'
loop_
_symmetry_equiv_pos_site_id
_symmetry_equiv_pos_as_xyz
1 x,y,z
2 -x,-y,-z
_cell_length_a                   7.9061(13)
_cell_length_b                   12.4022(19)
_cell_length_c                   14.0067(18)
_cell_angle_alpha                108.910(9)
_cell_angle_beta                 103.019(11)
_cell_angle_gamma                93.660(11)
_cell_volume                     1251.85
_exptl_crystal_colour            red
_exptl_crystal_description       block
_cell_formula_units_Z            2
loop_
_atom_site_label
_atom_site_type_symbol
_atom_site_fract_x
_atom_site_fract_y
_atom_site_fract_z
O1 O 0.7655(4) 0.1580(2) 0.00782(19)
F1 F 0.8312(3) 0.32526(19) 0.15397(17)
O2 O 0.6714(4) 0.1699(2) 0.1655(2)
F2 F 0.5488(3) 0.2652(2) 0.05623(17)
N1 N 1.1098(4) -0.3569(3) -0.6691(2)
C1 C 0.8160(5) -0.0131(3) -0.1084(3)
C2 C 0.7191(5) -0.0045(3) 0.0533(3)
H1 H 0.7177 -0.0835 0.0371
C3 C 0.9570(5) -0.1878(3) -0.3927(3)
C4 C 0.8581(5) -0.1880(3) -0.2349(3)
H2 H 0.8537 -0.2677 -0.2574
C5 C 0.9121(5) -0.0079(3) -0.2581(3)
H3 H 0.9460 0.0348 -0.2961
C6 C 0.6745(5) 0.0593(3) 0.1430(3)
C7 C 0.9091(5) -0.1276(3) -0.2944(3)
C8 C 0.7652(5) 0.0472(3) -0.0121(3)
C9 C 0.6247(5) 0.0099(3) 0.2160(3)
C10 C 0.8661(5) 0.0481(3) -0.1672(3)
H4 H 0.8686 0.1276 -0.1451
C11 C 1.0543(5) -0.3013(3) -0.5780(3)
C12 C 1.2639(5) -0.4093(3) -0.6621(3)
C13 C 1.0778(5) -0.3461(3) -0.4967(3)
H5 H 1.1251 -0.4142 -0.5039
C14 C 0.8141(5) -0.1327(3) -0.1436(3)
H6 H 0.7826 -0.1751 -0.1048
C15 C 0.5749(5) 0.0818(4) 0.3025(3)
H7 H 0.5797 0.1604 0.3146
C16 C 1.0307(5) -0.2891(3) -0.4052(3)
H8 H 1.0487 -0.3191 -0.3515
C17 C 0.9712(6) -0.3587(4) -0.9420(3)
H9 H 1.0216 -0.3479 -0.9928
C18 C 1.0012(5) -0.3654(3) -0.7694(3)
C19 C 1.2728(5) -0.5111(3) -0.7406(3)
H10 H 1.1759 -0.5464 -0.7971
C20 C 0.6212(5) -0.1070(4) 0.2018(3)
H11 H 0.6560 -0.1555 0.1458
C21 C 1.4116(5) -0.3589(4) -0.5783(3)
H12 H 1.4088 -0.2904 -0.5260
C22 C 0.9315(5) -0.1456(3) -0.4752(3)
H13 H 0.8819 -0.0784 -0.4690
C23 C 0.9789(5) -0.2019(3) -0.5663(3)
H14 H 0.9595 -0.1722 -0.6202
C24 C 1.0780(6) -0.3476(3) -0.8444(3)
H15 H 1.1991 -0.3285 -0.8296
C25 C 0.7914(6) -0.3857(4) -0.9640(3)
H16 H 0.7208 -0.3927 -1.0292
C26 C 0.5190(6) 0.0356(4) 0.3689(3)
H17 H 0.4838 0.0834 0.4251
C27 C 1.4260(6) -0.5590(4) -0.7338(3)
H18 H 1.4314 -0.6260 -0.7870
C28 C 0.7171(6) -0.4020(4) -0.8895(3)
H19 H 0.5958 -0.4188 -0.9037
C29 C 0.8215(6) -0.3935(3) -0.7933(3)
H20 H 0.7699 -0.4070 -0.7440
B1 B 0.7032(6) 0.2321(4) 0.0969(3)
C30 C 0.5664(6) -0.1514(4) 0.2703(3)
H21 H 0.5644 -0.2293 0.2604
C31 C 1.5613(6) -0.4097(4) -0.5724(3)
H22 H 1.6576 -0.3761 -0.5152
C32 C 0.5142(6) -0.0794(4) 0.3539(3)
H23 H 0.4761 -0.1092 0.3997
C33 C 1.5712(6) -0.5100(4) -0.6502(3)
H24 H 1.6733 -0.5436 -0.6463
loop_
_geom_bond_atom_site_label_1
_geom_bond_atom_site_label_2
_geom_bond_site_symmetry_1
_geom_bond_site_symmetry_2
O1 C8 1_555 1_555
F1 B1 1_555 1_555
O2 C6 1_555 1_555
F2 B1 1_555 1_555
N1 C11 1_555 1_555
C1 C8 1_555 1_555
C2 H1 1_555 1_555
C3 C7 1_555 1_555
C4 H2 1_555 1_555
C5 H3 1_555 1_555
C6 C2 1_555 1_555
C7 C4 1_555 1_555
C8 C2 1_555 1_555
C9 C6 1_555 1_555
C10 C1 1_555 1_555
H4 C10 1_555 1_555
C11 C13 1_555 1_555
C12 N1 1_555 1_555
C13 H5 1_555 1_555
C14 C1 1_555 1_555
H6 C14 1_555 1_555
C15 C9 1_555 1_555
H7 C15 1_555 1_555
C16 C3 1_555 1_555
H8 C16 1_555 1_555
C17 H9 1_555 1_555
C18 N1 1_555 1_555
C19 C12 1_555 1_555
H10 C19 1_555 1_555
C20 C9 1_555 1_555
H11 C20 1_555 1_555
C21 C12 1_555 1_555
H12 C21 1_555 1_555
C22 C3 1_555 1_555
H13 C22 1_555 1_555
C23 C11 1_555 1_555
H14 C23 1_555 1_555
C24 C17 1_555 1_555
H15 C24 1_555 1_555
C25 C17 1_555 1_555
H16 C25 1_555 1_555
C26 C15 1_555 1_555
H17 C26 1_555 1_555
C27 C19 1_555 1_555
H18 C27 1_555 1_555
C28 C25 1_555 1_555
H19 C28 1_555 1_555
C29 C18 1_555 1_555
H20 C29 1_555 1_555
B1 O1 1_555 1_555
C30 C20 1_555 1_555
H21 C30 1_555 1_555
C31 C21 1_555 1_555
H22 C31 1_555 1_555
C32 C26 1_555 1_555
H23 C32 1_555 1_555
C33 C27 1_555 1_555
H24 C33 1_555 1_555
O2 B1 1_555 1_555
C4 C14 1_555 1_555
C5 C7 1_555 1_555
C5 C10 1_555 1_555
C13 C16 1_555 1_555
C18 C24 1_555 1_555
C22 C23 1_555 1_555
C28 C29 1_555 1_555
C30 C32 1_555 1_555
C31 C33 1_555 1_555

#END
