
#######################################################################
#
#                 Cambridge Crystallographic Data Centre
#                                CCDC 
#
#######################################################################
#
# If this CIF has been generated from an entry in the Cambridge 
# Structural Database, then it will include bibliographic, chemical, 
# crystal, experimental, refinement or atomic coordinate data resulting 
# from the CCDC's data processing and validation procedures.
#
#######################################################################

data_ZACJOF
_chemical_formula_moiety         'C19 H21 N3 O1'
_chemical_name_systematic        
(R)-N-(3a,8-Dimethyl-3,3a,8,8a-tetrahydropyrrolo[2,3-b]indol-1(2H)-yl)benzamide
_symmetry_cell_setting           orthorhombic
_symmetry_space_group_name_H-M   'P 21 21 2'
_symmetry_Int_Tables_number      18
_space_group_name_Hall           'P 2 2ab'
loop_
_symmetry_equiv_pos_site_id
_symmetry_equiv_pos_as_xyz
1 x,y,z
2 -x,-y,z
3 1/2-x,1/2+y,-z
4 1/2+x,1/2-y,-z
_cell_length_a                   10.259(2)
_cell_length_b                   22.885(5)
_cell_length_c                   6.9775(14)
_cell_angle_alpha                90
_cell_angle_beta                 90
_cell_angle_gamma                90
_cell_volume                     1638.16
_exptl_crystal_colour            colorless
_exptl_crystal_description       prism
_cell_formula_units_Z            4
loop_
_atom_site_label
_atom_site_type_symbol
_atom_site_fract_x
_atom_site_fract_y
_atom_site_fract_z
O1 O 1.0316(4) 0.74176(17) 0.5013(8)
N1 N 0.7999(5) 0.6987(2) 0.9820(9)
N2 N 0.8231(5) 0.6734(2) 0.6469(8)
N3 N 0.8130(5) 0.72788(19) 0.5469(8)
H1 H 0.7348 0.7414 0.5204
C1 C 0.8862(6) 0.6782(2) 0.8313(9)
H2 H 0.9677 0.7021 0.8239
C2 C 0.8931(7) 0.6269(2) 0.5369(11)
H3 H 0.9791 0.6407 0.4913
H4 H 0.8410 0.6132 0.4263
C3 C 0.9068(7) 0.5801(2) 0.6867(10)
H5 H 0.9864 0.5567 0.6641
H6 H 0.8304 0.5537 0.6848
C4 C 0.9157(7) 0.6133(2) 0.8851(10)
C5 C 0.8014(6) 0.5989(2) 1.0140(9)
C6 C 0.7593(6) 0.5461(2) 1.0895(10)
H7 H 0.8046 0.5111 1.0587
C7 C 0.6526(7) 0.5439(3) 1.2084(10)
H8 H 0.6242 0.5075 1.2587
C8 C 0.5862(7) 0.5947(3) 1.2552(10)
H9 H 0.5120 0.5927 1.3364
C9 C 0.6277(6) 0.6493(3) 1.1835(9)
H10 H 0.5838 0.6843 1.2175
C10 C 0.7340(6) 0.6501(2) 1.0625(9)
C11 C 0.7409(6) 0.7565(2) 0.9837(10)
H11 H 0.7053 0.7646 1.1113
H12 H 0.6706 0.7580 0.8887
H13 H 0.8071 0.7859 0.9521
C12 C 1.0441(6) 0.6064(3) 0.9873(14)
H14 H 1.0552 0.5655 1.0261
H15 H 1.0453 0.6315 1.1012
H16 H 1.1153 0.6176 0.9012
C13 C 0.9176(6) 0.7595(2) 0.4912(9)
C14 C 0.8885(6) 0.8212(2) 0.4253(9)
C15 C 0.7853(6) 0.8535(2) 0.5015(11)
H17 H 0.7258 0.8360 0.5887
C16 C 0.7707(6) 0.9125(2) 0.4469(10)
H18 H 0.7013 0.9351 0.4979
C17 C 0.8568(7) 0.9373(3) 0.3201(11)
H19 H 0.8477 0.9773 0.2870
C18 C 0.9566(6) 0.9049(3) 0.2397(9)
H20 H 1.0135 0.9221 0.1483
C19 C 0.9730(7) 0.8464(3) 0.2946(10)
H21 H 1.0423 0.8241 0.2419
loop_
_geom_bond_atom_site_label_1
_geom_bond_atom_site_label_2
_geom_bond_site_symmetry_1
_geom_bond_site_symmetry_2
O1 C13 1_555 1_555
N1 C1 1_555 1_555
N2 N3 1_555 1_555
N3 H1 1_555 1_555
C1 N2 1_555 1_555
H2 C1 1_555 1_555
C2 N2 1_555 1_555
H3 C2 1_555 1_555
H4 C2 1_555 1_555
C3 C2 1_555 1_555
H5 C3 1_555 1_555
H6 C3 1_555 1_555
C4 C1 1_555 1_555
C5 C4 1_555 1_555
C6 C5 1_555 1_555
H7 C6 1_555 1_555
C7 C6 1_555 1_555
H8 C7 1_555 1_555
C8 C7 1_555 1_555
H9 C8 1_555 1_555
C9 C8 1_555 1_555
H10 C9 1_555 1_555
C10 N1 1_555 1_555
C11 N1 1_555 1_555
H11 C11 1_555 1_555
H12 C11 1_555 1_555
H13 C11 1_555 1_555
C12 C4 1_555 1_555
H14 C12 1_555 1_555
H15 C12 1_555 1_555
H16 C12 1_555 1_555
C13 N3 1_555 1_555
C14 C13 1_555 1_555
C15 C14 1_555 1_555
H17 C15 1_555 1_555
C16 C15 1_555 1_555
H18 C16 1_555 1_555
C17 C16 1_555 1_555
H19 C17 1_555 1_555
C18 C17 1_555 1_555
H20 C18 1_555 1_555
C19 C14 1_555 1_555
H21 C19 1_555 1_555
C3 C4 1_555 1_555
C5 C10 1_555 1_555
C9 C10 1_555 1_555
C18 C19 1_555 1_555

#END
