
#######################################################################
#
#                 Cambridge Crystallographic Data Centre
#                                CCDC 
#
#######################################################################
#
# If this CIF has been generated from an entry in the Cambridge 
# Structural Database, then it will include bibliographic, chemical, 
# crystal, experimental, refinement or atomic coordinate data resulting 
# from the CCDC's data processing and validation procedures.
#
#######################################################################

data_ZACVAD
_chemical_formula_moiety         'C40 H53 K1 O7'
_chemical_name_systematic        
(2-(9-anthryl)-4,6-di-t-butylphenolato)-(18-crown-6)-potassium
_symmetry_cell_setting           monoclinic
_symmetry_space_group_name_H-M   'P 21/c'
_symmetry_Int_Tables_number      14
_space_group_name_Hall           '-P 2ybc'
loop_
_symmetry_equiv_pos_site_id
_symmetry_equiv_pos_as_xyz
1 x,y,z
2 -x,1/2+y,1/2-z
3 -x,-y,-z
4 x,1/2-y,1/2+z
_cell_length_a                   9.2808(13)
_cell_length_b                   22.016(2)
_cell_length_c                   19.332(3)
_cell_angle_alpha                90
_cell_angle_beta                 103.147(14)
_cell_angle_gamma                90
_cell_volume                     3846.5
_exptl_crystal_colour            'light orange'
_exptl_crystal_description       block
_cell_formula_units_Z            4
_chemical_properties_physical    
'Air-sensitive, Moisture-sensitive, Oxygen-sensitive'
_exptl_crystal_recrystallization_method benzene
loop_
_atom_site_label
_atom_site_type_symbol
_atom_site_fract_x
_atom_site_fract_y
_atom_site_fract_z
K1 K 1.04163(9) 0.51895(3) 0.26218(4)
O1 O 0.9679(3) 0.62255(9) 0.21431(13)
C1 C 1.1007(4) 0.73038(13) 0.28310(17)
O2 O 0.9117(3) 0.40945(11) 0.18754(15)
C2 C 0.9679(3) 0.72950(14) 0.22086(16)
C3 C 0.7945(4) 0.67861(12) 0.12374(16)
C4 C 0.7894(3) 0.78999(12) 0.13484(16)
C5 C 0.7192(4) 0.85077(13) 0.10615(17)
C6 C 0.7373(3) 0.73543(12) 0.10031(16)
H1 H 0.6593 0.7374 0.0589
C7 C 1.0864(4) 0.73681(13) 0.35289(17)
C8 C 1.2151(4) 0.74203(14) 0.41078(17)
C9 C 1.3736(4) 0.73492(14) 0.32896(18)
C10 C 1.2444(4) 0.72846(14) 0.27093(18)
C11 C 0.9428(4) 0.73918(14) 0.36822(18)
H2 H 0.8567 0.7361 0.3308
C12 C 0.9131(4) 0.67363(13) 0.18802(17)
C13 C 1.3558(4) 0.74120(15) 0.39725(19)
H3 H 1.4402 0.7450 0.4354
O3 O 1.2396(4) 0.57170(12) 0.37890(17)
O4 O 1.3629(4) 0.52043(12) 0.27530(19)
C14 C 0.9301(4) 0.74574(16) 0.43574(19)
H4 H 0.8343 0.7472 0.4454
C15 C 1.0571(5) 0.75064(17) 0.4933(2)
H5 H 1.0444 0.7554 0.5404
O5 O 0.7778(3) 0.46123(12) 0.28599(19)
C16 C 1.2663(4) 0.71986(15) 0.20138(19)
H6 H 1.1840 0.7148 0.1624
C17 C 0.7347(4) 0.62068(13) 0.08207(18)
C18 C 0.7224(6) 0.85924(17) 0.0283(2)
H7 H 0.8252 0.8589 0.0234
H8 H 0.6765 0.8982 0.0113
H9 H 0.6676 0.8261 0.0001
C19 C 0.9057(4) 0.78526(13) 0.19485(17)
H10 H 0.9442 0.8214 0.2190
C20 C 0.6162(5) 0.63402(15) 0.01246(19)
H11 H 0.5289 0.6525 0.0244
H12 H 0.5877 0.5960 -0.0133
H13 H 0.6575 0.6620 -0.0174
O6 O 0.9773(4) 0.52365(13) 0.40131(18)
O7 O 1.1709(4) 0.45863(13) 0.16228(16)
C21 C 1.1946(5) 0.74862(16) 0.48150(19)
H14 H 1.2781 0.7516 0.5203
C22 C 1.4065(4) 0.71899(17) 0.1911(2)
H15 H 1.4204 0.7131 0.1444
C23 C 1.5326(5) 0.72655(19) 0.2477(2)
H16 H 1.6286 0.7263 0.2382
C24 C 0.8008(5) 0.90483(16) 0.1465(2)
H17 H 0.7996 0.9015 0.1969
H18 H 0.7517 0.9426 0.1272
H19 H 0.9034 0.9051 0.1413
C25 C 1.5178(4) 0.73411(17) 0.3147(2)
H20 H 1.6029 0.7389 0.3523
C26 C 0.6618(5) 0.57966(16) 0.1276(2)
H21 H 0.7331 0.5701 0.1720
H22 H 0.6293 0.5420 0.1017
H23 H 0.5761 0.6005 0.1383
C27 C 0.5565(5) 0.85321(18) 0.1092(3)
H24 H 0.5030 0.8197 0.0811
H25 H 0.5138 0.8920 0.0897
H26 H 0.5481 0.8494 0.1586
C28 C 0.8638(5) 0.58698(16) 0.0617(2)
H27 H 0.9121 0.6139 0.0335
H28 H 0.8263 0.5508 0.0338
H29 H 0.9355 0.5747 0.1049
C29 C 0.9478(7) 0.40361(19) 0.1215(2)
H30 H 0.9088 0.4386 0.0907
H31 H 0.9044 0.3659 0.0976
C30 C 1.3934(6) 0.5739(2) 0.3830(3)
H32 H 1.4427 0.5374 0.4076
H33 H 1.4375 0.6104 0.4094
C31 C 1.2121(7) 0.5727(2) 0.4456(3)
H34 H 1.2625 0.6076 0.4730
H35 H 1.2476 0.5348 0.4715
C32 C 0.7575(5) 0.40136(18) 0.1833(3)
H36 H 0.7236 0.3620 0.1607
H37 H 0.6999 0.4343 0.1549
C33 C 1.4105(6) 0.5760(2) 0.3091(3)
H38 H 1.3508 0.6098 0.2835
H39 H 1.5155 0.5833 0.3086
C34 C 1.3810(7) 0.5185(3) 0.2049(3)
H40 H 1.4867 0.5241 0.2045
H41 H 1.3238 0.5518 0.1769
C35 C 0.7376(5) 0.40285(19) 0.2570(3)
H42 H 0.6332 0.3942 0.2574
H43 H 0.8006 0.3715 0.2858
C36 C 1.1122(7) 0.4015(2) 0.1347(3)
H44 H 1.1511 0.3689 0.1691
H45 H 1.1426 0.3928 0.0898
C37 C 1.3286(7) 0.4595(3) 0.1731(3)
H46 H 1.3576 0.4542 0.1273
H47 H 1.3727 0.4260 0.2052
C38 C 0.8200(7) 0.5270(2) 0.3857(3)
H48 H 0.7860 0.5603 0.3514
H49 H 0.7866 0.5362 0.4297
C39 C 1.0474(7) 0.5784(2) 0.4348(3)
H50 H 1.0211 0.5845 0.4811
H51 H 1.0120 0.6140 0.4044
C40 C 0.7538(7) 0.4682(2) 0.3551(3)
H52 H 0.8000 0.4340 0.3855
H53 H 0.6463 0.4678 0.3533
loop_
_geom_bond_atom_site_label_1
_geom_bond_atom_site_label_2
_geom_bond_site_symmetry_1
_geom_bond_site_symmetry_2
K1 O1 1_555 1_555
O1 C12 1_555 1_555
C1 C2 1_555 1_555
O2 K1 1_555 1_555
C2 C12 1_555 1_555
C3 C6 1_555 1_555
C4 C5 1_555 1_555
C5 C18 1_555 1_555
C6 C4 1_555 1_555
H1 C6 1_555 1_555
C7 C1 1_555 1_555
C8 C7 1_555 1_555
C9 C10 1_555 1_555
C10 C1 1_555 1_555
C11 C7 1_555 1_555
H2 C11 1_555 1_555
C12 C3 1_555 1_555
C13 C8 1_555 1_555
H3 C13 1_555 1_555
O3 K1 1_555 1_555
O4 K1 1_555 1_555
C14 C11 1_555 1_555
H4 C14 1_555 1_555
C15 C14 1_555 1_555
H5 C15 1_555 1_555
O5 K1 1_555 1_555
C16 C10 1_555 1_555
H6 C16 1_555 1_555
C17 C3 1_555 1_555
C18 H7 1_555 1_555
H8 C18 1_555 1_555
H9 C18 1_555 1_555
C19 C2 1_555 1_555
H10 C19 1_555 1_555
C20 C17 1_555 1_555
H11 C20 1_555 1_555
H12 C20 1_555 1_555
H13 C20 1_555 1_555
O6 K1 1_555 1_555
O7 K1 1_555 1_555
C21 C8 1_555 1_555
H14 C21 1_555 1_555
C22 C16 1_555 1_555
H15 C22 1_555 1_555
C23 C22 1_555 1_555
H16 C23 1_555 1_555
C24 C5 1_555 1_555
H17 C24 1_555 1_555
H18 C24 1_555 1_555
H19 C24 1_555 1_555
C25 C9 1_555 1_555
H20 C25 1_555 1_555
C26 C17 1_555 1_555
H21 C26 1_555 1_555
H22 C26 1_555 1_555
H23 C26 1_555 1_555
C27 C5 1_555 1_555
H24 C27 1_555 1_555
H25 C27 1_555 1_555
H26 C27 1_555 1_555
C28 C17 1_555 1_555
H27 C28 1_555 1_555
H28 C28 1_555 1_555
H29 C28 1_555 1_555
C29 O2 1_555 1_555
H30 C29 1_555 1_555
H31 C29 1_555 1_555
C30 O3 1_555 1_555
H32 C30 1_555 1_555
H33 C30 1_555 1_555
C31 O3 1_555 1_555
H34 C31 1_555 1_555
H35 C31 1_555 1_555
C32 O2 1_555 1_555
H36 C32 1_555 1_555
H37 C32 1_555 1_555
C33 O4 1_555 1_555
H38 C33 1_555 1_555
H39 C33 1_555 1_555
C34 O4 1_555 1_555
H40 C34 1_555 1_555
H41 C34 1_555 1_555
C35 O5 1_555 1_555
H42 C35 1_555 1_555
H43 C35 1_555 1_555
C36 O7 1_555 1_555
H44 C36 1_555 1_555
H45 C36 1_555 1_555
C37 O7 1_555 1_555
H46 C37 1_555 1_555
H47 C37 1_555 1_555
C38 O6 1_555 1_555
H48 C38 1_555 1_555
H49 C38 1_555 1_555
C39 O6 1_555 1_555
H50 C39 1_555 1_555
H51 C39 1_555 1_555
C40 O5 1_555 1_555
H52 C40 1_555 1_555
H53 C40 1_555 1_555
C4 C19 1_555 1_555
C9 C13 1_555 1_555
C15 C21 1_555 1_555
C23 C25 1_555 1_555
C29 C36 1_555 1_555
C30 C33 1_555 1_555
C31 C39 1_555 1_555
C32 C35 1_555 1_555
C34 C37 1_555 1_555
C38 C40 1_555 1_555

#END
