
#######################################################################
#
#                 Cambridge Crystallographic Data Centre
#                                CCDC 
#
#######################################################################
#
# If this CIF has been generated from an entry in the Cambridge 
# Structural Database, then it will include bibliographic, chemical, 
# crystal, experimental, refinement or atomic coordinate data resulting 
# from the CCDC's data processing and validation procedures.
#
#######################################################################

data_ZADSAB
_chemical_formula_moiety         'C23 H22 N5 1+,C1 F3 O3 S1 1-'
_chemical_name_systematic        
'1,3-dimethyl-2-((1-methyl-3-(pyridin-2-yl)-1,3-dihydro-2H-benzimidazol-2-ylidene)methyl)-1H-benzimidazol-3-ium trifluoromethanesulfonate'
_symmetry_cell_setting           monoclinic
_symmetry_space_group_name_H-M   'P 21/n'
_symmetry_Int_Tables_number      14
_space_group_name_Hall           '-P 2yn'
loop_
_symmetry_equiv_pos_site_id
_symmetry_equiv_pos_as_xyz
1 x,y,z
2 1/2-x,1/2+y,1/2-z
3 -x,-y,-z
4 1/2+x,1/2-y,1/2+z
_cell_length_a                   13.9168(5)
_cell_length_b                   10.0302(3)
_cell_length_c                   17.2148(6)
_cell_angle_alpha                90
_cell_angle_beta                 98.5503(19)
_cell_angle_gamma                90
_cell_volume                     2376.28
_exptl_crystal_colour            yellow
_exptl_crystal_description       prism
_cell_formula_units_Z            4
_exptl_crystal_recrystallization_method deuterochloroform
loop_
_atom_site_label
_atom_site_type_symbol
_atom_site_fract_x
_atom_site_fract_y
_atom_site_fract_z
N1 N 0.18507(9) 0.49774(13) 0.70459(7)
N2 N 0.29587(9) 0.40178(12) 0.80350(7)
N3 N 0.40619(9) 0.34738(12) 0.90412(7)
N4 N 0.11554(9) 0.51075(12) 0.88462(7)
N5 N 0.06511(9) 0.32733(12) 0.93548(7)
C1 C 0.10155(12) 0.49153(16) 0.65486(9)
C2 C 0.03897(12) 0.38398(16) 0.65020(9)
C3 C 0.06498(12) 0.27434(16) 0.69713(9)
C4 C 0.15166(11) 0.27704(15) 0.74804(9)
C5 C 0.20662(11) 0.39184(14) 0.75019(8)
C6 C 0.30891(11) 0.36138(14) 0.88111(8)
C7 C 0.38712(10) 0.41730(14) 0.77915(8)
C8 C 0.41321(11) 0.45480(14) 0.70791(9)
C9 C 0.51220(11) 0.46205(15) 0.70417(9)
C10 C 0.58118(11) 0.43110(15) 0.76878(9)
C11 C 0.55461(11) 0.38925(15) 0.83939(9)
C12 C 0.45626(11) 0.38342(14) 0.84321(8)
C13 C 0.44994(11) 0.31507(16) 0.98419(9)
C14 C 0.14433(11) 0.39005(14) 0.91606(8)
C15 C 0.17965(11) 0.62403(15) 0.87728(9)
C16 C 0.01555(11) 0.52267(14) 0.88212(8)
C17 C -0.04794(12) 0.62364(15) 0.85409(9)
C18 C -0.14464(12) 0.60577(16) 0.86261(9)
C19 C -0.17565(11) 0.49207(17) 0.89810(9)
C20 C -0.11220(11) 0.39041(16) 0.92565(9)
C21 C -0.01610(11) 0.40773(14) 0.91601(8)
C22 C 0.06589(12) 0.19311(15) 0.96793(9)
C23 C 0.23904(11) 0.33833(15) 0.92896(8)
H1 H 0.60074(11) 0.36624(15) 0.88206(9)
H2 H 0.64679(11) 0.43869(15) 0.76450(9)
H3 H 0.53276(11) 0.48815(15) 0.65748(9)
H4 H 0.36691(11) 0.47420(14) 0.66466(9)
H5 H -0.13312(11) 0.31459(16) 0.94935(9)
H6 H -0.24091(11) 0.48412(17) 0.90348(9)
H7 H -0.18974(12) 0.67113(16) 0.84422(9)
H8 H -0.02686(12) 0.69968(15) 0.83071(9)
H9 H 0.08474(12) 0.56359(16) 0.62161(9)
H10 H 0.17218(11) 0.20422(15) 0.77965(9)
H11 H 0.02481(12) 0.19988(16) 0.69453(9)
H12 H -0.01952(12) 0.38539(16) 0.61614(9)
H13 H 0.4374(7) 0.3859(5) 1.01880(13)
H14 H 0.4224(6) 0.2337(6) 1.0003(3)
H15 H 0.51880(16) 0.3043(11) 0.98619(16)
H16 H 0.2401(3) 0.6112(5) 0.9114(5)
H17 H 0.1916(6) 0.6309(7) 0.82392(16)
H18 H 0.1493(4) 0.7044(2) 0.8917(6)
H19 H 0.1042(7) 0.1359(3) 0.9400(4)
H20 H 0.0934(7) 0.1953(2) 1.02246(18)
H21 H 0.00059(14) 0.1598(4) 0.9627(6)
H22 H 0.25612(11) 0.28462(15) 0.97288(8)
S1 S 0.22747(3) 0.41892(4) 0.47208(2)
F1 F 0.27446(9) 0.34783(12) 0.33547(6)
F2 F 0.13122(9) 0.42882(12) 0.32978(6)
F3 F 0.25542(10) 0.55826(12) 0.34953(8)
O1 O 0.17658(9) 0.53534(12) 0.49268(7)
O2 O 0.17987(9) 0.29348(12) 0.47934(7)
O3 O 0.33006(8) 0.41741(12) 0.50062(8)
C24 C 0.22184(13) 0.43893(17) 0.36628(10)
loop_
_geom_bond_atom_site_label_1
_geom_bond_atom_site_label_2
_geom_bond_site_symmetry_1
_geom_bond_site_symmetry_2
N1 C1 1_555 1_555
N2 C5 1_555 1_555
N3 C6 1_555 1_555
N4 C14 1_555 1_555
N5 C14 1_555 1_555
C1 C2 1_555 1_555
C2 C3 1_555 1_555
C3 C4 1_555 1_555
C4 C5 1_555 1_555
C5 N1 1_555 1_555
C6 N2 1_555 1_555
C7 N2 1_555 1_555
C8 C7 1_555 1_555
C9 C8 1_555 1_555
C10 C9 1_555 1_555
C11 C10 1_555 1_555
C12 N3 1_555 1_555
C13 N3 1_555 1_555
C14 C23 1_555 1_555
C15 N4 1_555 1_555
C16 N4 1_555 1_555
C17 C16 1_555 1_555
C18 C17 1_555 1_555
C19 C18 1_555 1_555
C20 C19 1_555 1_555
C21 N5 1_555 1_555
C22 N5 1_555 1_555
C23 C6 1_555 1_555
H1 C11 1_555 1_555
H2 C10 1_555 1_555
H3 C9 1_555 1_555
H4 C8 1_555 1_555
H5 C20 1_555 1_555
H6 C19 1_555 1_555
H7 C18 1_555 1_555
H8 C17 1_555 1_555
H9 C1 1_555 1_555
H10 C4 1_555 1_555
H11 C3 1_555 1_555
H12 C2 1_555 1_555
H13 C13 1_555 1_555
H14 C13 1_555 1_555
H15 C13 1_555 1_555
H16 C15 1_555 1_555
H17 C15 1_555 1_555
H18 C15 1_555 1_555
H19 C22 1_555 1_555
H20 C22 1_555 1_555
H21 C22 1_555 1_555
H22 C23 1_555 1_555
S1 O1 1_555 1_555
F1 C24 1_555 1_555
F2 C24 1_555 1_555
F3 C24 1_555 1_555
O2 S1 1_555 1_555
O3 S1 1_555 1_555
C24 S1 1_555 1_555
C7 C12 1_555 1_555
C11 C12 1_555 1_555
C16 C21 1_555 1_555
C20 C21 1_555 1_555

#END
