
#######################################################################
#
#                 Cambridge Crystallographic Data Centre
#                                CCDC 
#
#######################################################################
#
# If this CIF has been generated from an entry in the Cambridge 
# Structural Database, then it will include bibliographic, chemical, 
# crystal, experimental, refinement or atomic coordinate data resulting 
# from the CCDC's data processing and validation procedures.
#
#######################################################################

data_ZADXOR
_chemical_formula_moiety         'C54 H44 O2 Si2'
_chemical_name_systematic        
1,1,5,5-Tetraphenyl-3,7-bis(diphenylmethylene)-1,5-disila-2,6-dioxacyclo-octane
_symmetry_cell_setting           monoclinic
_symmetry_space_group_name_H-M   'P 21/n'
_symmetry_Int_Tables_number      14
_space_group_name_Hall           '-P 2yn'
loop_
_symmetry_equiv_pos_site_id
_symmetry_equiv_pos_as_xyz
1 x,y,z
2 1/2-x,1/2+y,1/2-z
3 -x,-y,-z
4 1/2+x,1/2-y,1/2+z
_cell_length_a                   10.384(2)
_cell_length_b                   19.762(4)
_cell_length_c                   21.513(5)
_cell_angle_alpha                90
_cell_angle_beta                 96.65(2)
_cell_angle_gamma                90
_cell_volume                     4384.95
_exptl_crystal_colour            colorless
_chemical_melting_point          239-240deg.C
_cell_formula_units_Z            4
loop_
_atom_site_label
_atom_site_type_symbol
_atom_site_fract_x
_atom_site_fract_y
_atom_site_fract_z
Si1 Si 0.1756(2) 0.1954(1) 0.2584(1)
Si2 Si 0.2664(2) 0.2485(1) 0.0971(1)
O1 O 0.2237(5) 0.2728(3) 0.2453(2)
O2 O 0.1135(5) 0.2401(3) 0.1084(2)
C1 C 0.3362(8) 0.2942(5) 0.2222(4)
C2 C 0.3790(7) 0.2502(4) 0.1710(3)
C3 C 0.0448(9) 0.1901(5) 0.1353(4)
C4 C 0.1249(7) 0.1483(4) 0.1840(3)
C5 C 0.3886(9) 0.3519(5) 0.2433(4)
C6 C -0.0810(9) 0.1855(5) 0.1177(4)
C7 C 0.3291(8) 0.0801(5) 0.2965(3)
C8 C 0.4288 0.0468 0.3335
C9 C 0.5086 0.0826 0.3787
C10 C 0.4885 0.1517 0.3870
C11 C 0.3888 0.1849 0.3500
C12 C 0.3091 0.1491 0.3048
C13 C -0.0456(8) 0.1536(3) 0.3140(3)
C14 C -0.1507 0.1633 0.3479
C15 C -0.1778 0.2277 0.3696
C16 C -0.0997 0.2824 0.3573
C17 C 0.0054 0.2727 0.3234
C18 C 0.0325 0.2083 0.3017
C19 C 0.4127(6) 0.4108(4) 0.3462(4)
C20 C 0.3627 0.4493 0.3923
C21 C 0.2335 0.4702 0.3838
C22 C 0.1544 0.4527 0.3293
C23 C 0.2044 0.4142 0.2833
C24 C 0.3336 0.3933 0.2918
C25 C 0.6283(10) 0.3466(3) 0.2375(3)
C26 C 0.7400 0.3713 0.2151
C27 C 0.7327 0.4277 0.1758
C28 C 0.6137 0.4594 0.1591
C29 C 0.5020 0.4347 0.1815
C30 C 0.5093 0.3783 0.2208
C31 C 0.1854(6) 0.3835(5) 0.0666(3)
C32 C 0.2018 0.4475 0.0413
C33 C 0.3080 0.4605 0.0089
C34 C 0.3978 0.4094 0.0018
C35 C 0.3814 0.3454 0.0270
C36 C 0.2752 0.3324 0.0594
C37 C 0.4389(7) 0.1558(4) 0.0471(3)
C38 C 0.4685 0.1024 0.0088
C39 C 0.3699 0.0704 -0.0300
C40 C 0.2418 0.0918 -0.0305
C41 C 0.2122 0.1452 0.0079
C42 C 0.3108 0.1772 0.0467
C43 C -0.1460(7) 0.3009(6) 0.0757(4)
C44 C -0.2128 0.3414 0.0296
C45 C -0.2829 0.3117 -0.0226
C46 C -0.2863 0.2414 -0.0286
C47 C -0.2195 0.2009 0.0174
C48 C -0.1494 0.2306 0.0696
C49 C -0.1447(6) 0.0670(5) 0.1446(3)
C50 C -0.2236 0.0225 0.1735
C51 C -0.3240 0.0477 0.2047
C52 C -0.3455 0.1173 0.2070
C53 C -0.2666 0.1617 0.1781
C54 C -0.1662 0.1366 0.1469
H1 H 0.4619 0.2663 0.1617
H2 H 0.3903 0.2049 0.1867
H3 H 0.0742 0.1098 0.1936
H4 H 0.2007 0.1319 0.1671
H5 H 0.2742 0.0554 0.2654
H6 H 0.4426 -0.0007 0.3278
H7 H 0.5772 0.0597 0.4041
H8 H 0.5434 0.1763 0.4181
H9 H 0.3750 0.2325 0.3557
H10 H -0.0270 0.1093 0.2991
H11 H -0.2044 0.1256 0.3564
H12 H -0.2501 0.2343 0.3930
H13 H -0.1183 0.3267 0.3722
H14 H 0.0591 0.3104 0.3149
H15 H 0.5016 0.3965 0.3521
H16 H 0.4171 0.4613 0.4298
H17 H 0.1991 0.4967 0.4154
H18 H 0.0655 0.4671 0.3234
H19 H 0.1500 0.4022 0.2458
H20 H 0.6333 0.3078 0.2646
H21 H 0.8218 0.3495 0.2266
H22 H 0.8095 0.4447 0.1604
H23 H 0.6087 0.4982 0.1320
H24 H 0.4202 0.4566 0.1700
H25 H 0.1123 0.3746 0.0889
H26 H 0.1399 0.4827 0.0463
H27 H 0.3193 0.5046 -0.0084
H28 H 0.4709 0.4183 -0.0205
H29 H 0.4432 0.3102 0.0221
H30 H 0.5067 0.1778 0.0739
H31 H 0.5566 0.0877 0.0091
H32 H 0.3903 0.0337 -0.0564
H33 H 0.1740 0.0698 -0.0572
H34 H 0.1240 0.1599 0.0075
H35 H -0.0977 0.3214 0.1116
H36 H -0.2104 0.3898 0.0338
H37 H -0.3289 0.3396 -0.0543
H38 H -0.3346 0.2210 -0.0645
H39 H -0.2219 0.1525 0.0133
H40 H -0.0756 0.0497 0.1231
H41 H -0.2088 -0.0254 0.1719
H42 H -0.3783 0.0171 0.2245
H43 H -0.4146 0.1346 0.2284
H44 H -0.2814 0.2096 0.1797
loop_
_geom_bond_atom_site_label_1
_geom_bond_atom_site_label_2
_geom_bond_site_symmetry_1
_geom_bond_site_symmetry_2
Si1 O1 1_555 1_555
Si2 O2 1_555 1_555
O1 C1 1_555 1_555
O2 C3 1_555 1_555
C1 C2 1_555 1_555
C2 Si2 1_555 1_555
C3 C4 1_555 1_555
C4 Si1 1_555 1_555
C5 C1 1_555 1_555
C6 C3 1_555 1_555
C7 C8 1_555 1_555
C8 C9 1_555 1_555
C9 C10 1_555 1_555
C10 C11 1_555 1_555
C11 C12 1_555 1_555
C12 Si1 1_555 1_555
C13 C14 1_555 1_555
C14 C15 1_555 1_555
C15 C16 1_555 1_555
C16 C17 1_555 1_555
C17 C18 1_555 1_555
C18 Si1 1_555 1_555
C19 C20 1_555 1_555
C20 C21 1_555 1_555
C21 C22 1_555 1_555
C22 C23 1_555 1_555
C23 C24 1_555 1_555
C24 C5 1_555 1_555
C25 C26 1_555 1_555
C26 C27 1_555 1_555
C27 C28 1_555 1_555
C28 C29 1_555 1_555
C29 C30 1_555 1_555
C30 C5 1_555 1_555
C31 C32 1_555 1_555
C32 C33 1_555 1_555
C33 C34 1_555 1_555
C34 C35 1_555 1_555
C35 C36 1_555 1_555
C36 Si2 1_555 1_555
C37 C38 1_555 1_555
C38 C39 1_555 1_555
C39 C40 1_555 1_555
C40 C41 1_555 1_555
C41 C42 1_555 1_555
C42 Si2 1_555 1_555
C43 C44 1_555 1_555
C44 C45 1_555 1_555
C45 C46 1_555 1_555
C46 C47 1_555 1_555
C47 C48 1_555 1_555
C48 C6 1_555 1_555
C49 C50 1_555 1_555
C50 C51 1_555 1_555
C51 C52 1_555 1_555
C52 C53 1_555 1_555
C53 C54 1_555 1_555
C54 C6 1_555 1_555
H1 C2 1_555 1_555
H2 C2 1_555 1_555
H3 C4 1_555 1_555
H4 C4 1_555 1_555
H5 C7 1_555 1_555
H6 C8 1_555 1_555
H7 C9 1_555 1_555
H8 C10 1_555 1_555
H9 C11 1_555 1_555
H10 C13 1_555 1_555
H11 C14 1_555 1_555
H12 C15 1_555 1_555
H13 C16 1_555 1_555
H14 C17 1_555 1_555
H15 C19 1_555 1_555
H16 C20 1_555 1_555
H17 C21 1_555 1_555
H18 C22 1_555 1_555
H19 C23 1_555 1_555
H20 C25 1_555 1_555
H21 C26 1_555 1_555
H22 C27 1_555 1_555
H23 C28 1_555 1_555
H24 C29 1_555 1_555
H25 C31 1_555 1_555
H26 C32 1_555 1_555
H27 C33 1_555 1_555
H28 C34 1_555 1_555
H29 C35 1_555 1_555
H30 C37 1_555 1_555
H31 C38 1_555 1_555
H32 C39 1_555 1_555
H33 C40 1_555 1_555
H34 C41 1_555 1_555
H35 C43 1_555 1_555
H36 C44 1_555 1_555
H37 C45 1_555 1_555
H38 C46 1_555 1_555
H39 C47 1_555 1_555
H40 C49 1_555 1_555
H41 C50 1_555 1_555
H42 C51 1_555 1_555
H43 C52 1_555 1_555
H44 C53 1_555 1_555
C7 C12 1_555 1_555
C13 C18 1_555 1_555
C19 C24 1_555 1_555
C25 C30 1_555 1_555
C31 C36 1_555 1_555
C37 C42 1_555 1_555
C43 C48 1_555 1_555
C49 C54 1_555 1_555

#END
