
#######################################################################
#
#                 Cambridge Crystallographic Data Centre
#                                CCDC 
#
#######################################################################
#
# If this CIF has been generated from an entry in the Cambridge 
# Structural Database, then it will include bibliographic, chemical, 
# crystal, experimental, refinement or atomic coordinate data resulting 
# from the CCDC's data processing and validation procedures.
#
#######################################################################

data_ZAFFIY
_chemical_formula_moiety         'C28 H25 N2 P1'
_chemical_name_systematic        
1,3-dimethyl-2-((triphenylphosphoranylidene)methylene)-2,3-dihydro-1H-benzimidazole
_symmetry_cell_setting           triclinic
_symmetry_space_group_name_H-M   'P -1'
_symmetry_Int_Tables_number      2
_space_group_name_Hall           '-P 1'
loop_
_symmetry_equiv_pos_site_id
_symmetry_equiv_pos_as_xyz
1 x,y,z
2 -x,-y,-z
_cell_length_a                   8.8303(2)
_cell_length_b                   9.6501(2)
_cell_length_c                   13.6271(4)
_cell_angle_alpha                86.5908(14)
_cell_angle_beta                 78.9669(13)
_cell_angle_gamma                77.6788(13)
_cell_volume                     1113.28
_exptl_crystal_colour            yellow
_exptl_crystal_description       prism
_cell_formula_units_Z            2
_exptl_crystal_recrystallization_method 'diethyl ether'
loop_
_atom_site_label
_atom_site_type_symbol
_atom_site_fract_x
_atom_site_fract_y
_atom_site_fract_z
P1 P 0.44501(3) 0.80568(3) 0.79371(2)
N1 N 0.30827(12) 0.64783(11) 0.56410(8)
N2 N 0.29724(12) 0.87887(11) 0.56244(8)
C1 C 0.40941(14) 0.72843(13) 0.69871(9)
C2 C 0.34451(13) 0.75402(12) 0.61671(9)
C3 C 0.33497(16) 0.49990(13) 0.59405(10)
C4 C 0.23625(14) 0.70523(14) 0.48517(9)
C5 C 0.17356(16) 0.64362(15) 0.41738(10)
C6 C 0.10497(17) 0.73375(17) 0.34632(10)
C7 C 0.10095(17) 0.87800(17) 0.34378(10)
C8 C 0.16281(16) 0.94010(15) 0.41293(10)
C9 C 0.23010(15) 0.85148(14) 0.48372(9)
C10 C 0.32234(17) 1.01617(13) 0.58395(10)
C11 C 0.75699(14) 0.72175(13) 0.70416(9)
C12 C 0.91983(15) 0.69655(14) 0.69732(10)
C13 C 0.98343(15) 0.73023(15) 0.77603(11)
C14 C 0.88401(15) 0.78989(15) 0.86128(10)
C15 C 0.72118(15) 0.81566(13) 0.86823(10)
C16 C 0.65665(13) 0.78143(12) 0.78931(9)
C17 C 0.45367(15) 1.09742(13) 0.78882(10)
C18 C 0.38104(16) 1.24046(13) 0.79372(11)
C19 C 0.22066(16) 1.28083(13) 0.82906(10)
C20 C 0.13208(15) 1.17878(14) 0.86087(10)
C21 C 0.20374(14) 1.03568(13) 0.85563(10)
C22 C 0.36551(14) 0.99379(12) 0.81902(9)
C23 C 0.33564(14) 0.58906(13) 0.90999(9)
C24 C 0.28555(15) 0.51893(13) 0.99834(10)
C25 C 0.27122(15) 0.58137(14) 1.08940(10)
C26 C 0.30553(14) 0.71440(14) 1.09226(9)
C27 C 0.35534(14) 0.78487(13) 1.00414(9)
C28 C 0.37135(13) 0.72235(12) 0.91193(9)
H1 H 0.37866(14) 0.87612(13) 1.00659(9)
H2 H 0.29493(14) 0.75757(14) 1.15475(9)
H3 H 0.23790(15) 0.53305(14) 1.14985(10)
H4 H 0.26112(15) 0.42805(13) 0.99625(10)
H5 H 0.34559(14) 0.54559(13) 0.84769(9)
H6 H 0.65382(15) 0.85663(13) 0.92680(10)
H7 H 0.92737(15) 0.81328(15) 0.91523(10)
H8 H 1.09454(15) 0.71256(15) 0.77162(11)
H9 H 0.98745(15) 0.65622(14) 0.63864(10)
H10 H 0.71407(14) 0.69793(13) 0.65014(9)
H11 H 0.56390(15) 1.07044(13) 0.76476(10)
H12 H 0.44184(16) 1.31066(13) 0.77272(11)
H13 H 0.17135(16) 1.37852(13) 0.83149(10)
H14 H 0.02234(15) 1.20654(14) 0.88629(10)
H15 H 0.14247(14) 0.96593(13) 0.87703(10)
H16 H 0.17691(16) 0.54447(15) 0.41899(10)
H17 H 0.06028(17) 0.69505(17) 0.29887(10)
H18 H 0.05512(17) 0.93604(17) 0.29392(10)
H19 H 0.15891(16) 1.03934(15) 0.41150(10)
H20 H 0.4183(8) 0.4798(3) 0.6343(6)
H21 H 0.2375(3) 0.4784(3) 0.6338(6)
H22 H 0.3672(11) 0.44107(13) 0.53445(10)
H23 H 0.2381(6) 1.0598(5) 0.6376(5)
H24 H 0.4244(5) 1.00482(17) 0.6050(7)
H25 H 0.3215(12) 1.0770(4) 0.5238(2)
loop_
_geom_bond_atom_site_label_1
_geom_bond_atom_site_label_2
_geom_bond_site_symmetry_1
_geom_bond_site_symmetry_2
P1 C1 1_555 1_555
N1 C2 1_555 1_555
N2 C2 1_555 1_555
C1 C2 1_555 1_555
C3 N1 1_555 1_555
C4 N1 1_555 1_555
C5 C4 1_555 1_555
C6 C5 1_555 1_555
C7 C6 1_555 1_555
C8 C7 1_555 1_555
C9 N2 1_555 1_555
C10 N2 1_555 1_555
C11 C12 1_555 1_555
C12 C13 1_555 1_555
C13 C14 1_555 1_555
C14 C15 1_555 1_555
C15 C16 1_555 1_555
C16 P1 1_555 1_555
C17 C18 1_555 1_555
C18 C19 1_555 1_555
C19 C20 1_555 1_555
C20 C21 1_555 1_555
C21 C22 1_555 1_555
C22 P1 1_555 1_555
C23 C24 1_555 1_555
C24 C25 1_555 1_555
C25 C26 1_555 1_555
C26 C27 1_555 1_555
C27 C28 1_555 1_555
C28 P1 1_555 1_555
H1 C27 1_555 1_555
H2 C26 1_555 1_555
H3 C25 1_555 1_555
H4 C24 1_555 1_555
H5 C23 1_555 1_555
H6 C15 1_555 1_555
H7 C14 1_555 1_555
H8 C13 1_555 1_555
H9 C12 1_555 1_555
H10 C11 1_555 1_555
H11 C17 1_555 1_555
H12 C18 1_555 1_555
H13 C19 1_555 1_555
H14 C20 1_555 1_555
H15 C21 1_555 1_555
H16 C5 1_555 1_555
H17 C6 1_555 1_555
H18 C7 1_555 1_555
H19 C8 1_555 1_555
H20 C3 1_555 1_555
H21 C3 1_555 1_555
H22 C3 1_555 1_555
H23 C10 1_555 1_555
H24 C10 1_555 1_555
H25 C10 1_555 1_555
C4 C9 1_555 1_555
C8 C9 1_555 1_555
C11 C16 1_555 1_555
C17 C22 1_555 1_555
C23 C28 1_555 1_555

#END
