
#######################################################################
#
#                 Cambridge Crystallographic Data Centre
#                                CCDC 
#
#######################################################################
#
# If this CIF has been generated from an entry in the Cambridge 
# Structural Database, then it will include bibliographic, chemical, 
# crystal, experimental, refinement or atomic coordinate data resulting 
# from the CCDC's data processing and validation procedures.
#
#######################################################################

data_ZAFNAY
_chemical_formula_moiety         'C48 H54 B2 N2,0.5(C4 H8 O1)'
_chemical_name_systematic        
'4,4,9,9-tetramesityl-4,5,9,10-tetrahydro-3a,8a-diaza-4,9-diborapyrene tetrahydrofuran solvate'
_symmetry_cell_setting           monoclinic
_symmetry_space_group_name_H-M   'C 2/c'
_symmetry_Int_Tables_number      15
_space_group_name_Hall           '-C 2yn'
loop_
_symmetry_equiv_pos_site_id
_symmetry_equiv_pos_as_xyz
1 x,y,z
2 -x,y,1/2-z
3 1/2+x,1/2+y,z
4 1/2-x,1/2+y,1/2-z
5 -x,-y,-z
6 x,-y,1/2+z
7 1/2-x,1/2-y,-z
8 1/2+x,1/2-y,1/2+z
_cell_length_a                   19.86760(10)
_cell_length_b                   16.9877(2)
_cell_length_c                   15.10610(10)
_cell_angle_alpha                90
_cell_angle_beta                 124.5372(5)
_cell_angle_gamma                90
_cell_volume                     4199.83
_exptl_crystal_colour            'pale yellow'
_exptl_crystal_description       needle
_cell_formula_units_Z            4
loop_
_atom_site_label
_atom_site_type_symbol
_atom_site_fract_x
_atom_site_fract_y
_atom_site_fract_z
B1 B 0.16623(18) 0.06966(16) 0.8726(2)
N1 N 0.08852(12) 0.07779(11) 0.74275(15)
C1 C -0.13452(16) 0.12987(16) 0.57337(19)
H1 H -0.1737 0.1290 0.4942
H2 H -0.1328 0.1842 0.5984
C2 C -0.05207(16) 0.10780(14) 0.60195(19)
C3 C 0.00956(15) 0.09199(13) 0.70955(18)
C4 C 0.10515(16) 0.07530(14) 0.66800(19)
H3 H 0.1598 0.0652 0.6908
C5 C 0.04673(16) 0.08664(14) 0.55990(19)
H4 H 0.0603 0.0826 0.5091
C6 C -0.03182(17) 0.10396(14) 0.52758(19)
H5 H -0.0727 0.1134 0.4537
C7 C 0.17111(15) -0.01921(15) 0.92153(18)
C8 C 0.13009(15) -0.08821(14) 0.86254(19)
C9 C 0.13776(15) -0.15936(15) 0.91436(19)
H6 H 0.1075 -0.2037 0.8720
C10 C 0.18763(15) -0.16755(15) 1.0248(2)
C11 C 0.23127(15) -0.10142(15) 1.08362(19)
H7 H 0.2676 -0.1056 1.1595
C12 C 0.22349(16) -0.02932(16) 1.03504(19)
C13 C 0.2802(2) 0.03455(18) 1.1129(2)
H8 H 0.3307 0.0104 1.1724
H9 H 0.2531 0.0625 1.1413
H10 H 0.2932 0.0718 1.0751
C14 C 0.08184(18) -0.09361(15) 0.74085(19)
H11 H 0.0666 -0.1485 0.7186
H12 H 0.1155 -0.0744 0.7168
H13 H 0.0324 -0.0614 0.7087
C15 C 0.19493(17) -0.24477(16) 1.0787(2)
H14 H 0.1845 -0.2882 1.0298
H15 H 0.1549 -0.2464 1.0971
H16 H 0.2501 -0.2499 1.1443
C16 C 0.24893(15) 0.09913(14) 0.88012(18)
C17 C 0.26240(15) 0.17949(15) 0.86806(18)
C18 C 0.33472(17) 0.20481(17) 0.8839(2)
H17 H 0.3414 0.2593 0.8768
C19 C 0.39832(19) 0.1533(2) 0.9098(3)
C20 C 0.38367(18) 0.07475(18) 0.9144(3)
H18 H 0.4246 0.0379 0.9287
C21 C 0.31193(16) 0.04640(16) 0.8991(2)
C22 C 0.30701(19) -0.04214(17) 0.8999(3)
H19 H 0.3498 -0.0651 0.8945
H20 H 0.2533 -0.0595 0.8389
H21 H 0.3148 -0.0593 0.9671
C23 C 0.19901(16) 0.24443(14) 0.8317(2)
H22 H 0.2104 0.2869 0.7981
H23 H 0.2015 0.2652 0.8940
H24 H 0.1444 0.2230 0.7797
C24 C 0.4768(3) 0.1831(3) 0.9284(7)
H25 H 0.5174 0.1407 0.9582
H26 H 0.4975 0.2273 0.9790
H27 H 0.4667 0.2008 0.8600
B1A B -0.16623(18) 0.06966(16) 0.6274(2)
N1A N -0.08852(12) 0.07779(11) 0.75725(15)
C1A C 0.13452(16) 0.12987(16) 0.92663(19)
H1A H 0.1737 0.1290 1.0058
H2A H 0.1328 0.1842 0.9016
C2A C 0.05207(16) 0.10780(14) 0.89805(19)
C3A C -0.00956(15) 0.09199(13) 0.79045(18)
C4A C -0.10515(16) 0.07530(14) 0.83200(19)
H3A H -0.1598 0.0652 0.8092
C5A C -0.04673(16) 0.08664(14) 0.94010(19)
H4A H -0.0603 0.0826 0.9909
C6A C 0.03182(17) 0.10396(14) 0.97242(19)
H5A H 0.0727 0.1134 1.0463
C7A C -0.17111(15) -0.01921(15) 0.57847(18)
C8A C -0.13009(15) -0.08821(14) 0.63746(19)
C9A C -0.13776(15) -0.15936(15) 0.58564(19)
H6A H -0.1075 -0.2037 0.6280
C10A C -0.18763(15) -0.16755(15) 0.4752(2)
C11A C -0.23127(15) -0.10142(15) 0.41638(19)
H7A H -0.2676 -0.1056 0.3405
C12A C -0.22349(16) -0.02932(16) 0.46496(19)
C13A C -0.2802(2) 0.03455(18) 0.3871(2)
H8A H -0.3307 0.0104 0.3276
H9A H -0.2531 0.0625 0.3587
H10A H -0.2932 0.0718 0.4249
C14A C -0.08184(18) -0.09361(15) 0.75915(19)
H11A H -0.0666 -0.1485 0.7814
H12A H -0.1155 -0.0744 0.7832
H13A H -0.0324 -0.0614 0.7913
C15A C -0.19493(17) -0.24477(16) 0.4213(2)
H14A H -0.1845 -0.2882 0.4702
H15A H -0.1549 -0.2464 0.4029
H16A H -0.2501 -0.2499 0.3557
C16A C -0.24893(15) 0.09913(14) 0.61988(18)
C17A C -0.26240(15) 0.17949(15) 0.63194(18)
C18A C -0.33472(17) 0.20481(17) 0.6161(2)
H17A H -0.3414 0.2593 0.6232
C19A C -0.39832(19) 0.1533(2) 0.5902(3)
C20A C -0.38367(18) 0.07475(18) 0.5856(3)
H18A H -0.4246 0.0379 0.5713
C21A C -0.31193(16) 0.04640(16) 0.6009(2)
C22A C -0.30701(19) -0.04214(17) 0.6001(3)
H19A H -0.3498 -0.0651 0.6055
H20A H -0.2533 -0.0595 0.6611
H21A H -0.3148 -0.0593 0.5329
C23A C -0.19901(16) 0.24443(14) 0.6683(2)
H22A H -0.2104 0.2869 0.7019
H23A H -0.2015 0.2652 0.6060
H24A H -0.1444 0.2230 0.7203
C24A C -0.4768(3) 0.1831(3) 0.5716(7)
H25A H -0.5174 0.1407 0.5418
H26A H -0.4975 0.2273 0.5210
H27A H -0.4667 0.2008 0.6400
loop_
_geom_bond_atom_site_label_1
_geom_bond_atom_site_label_2
_geom_bond_site_symmetry_1
_geom_bond_site_symmetry_2
B1 N1 1_555 1_555
N1 C3 1_555 1_555
C1 H1 1_555 1_555
H2 C1 1_555 1_555
C2 C1 1_555 1_555
C3 C2 1_555 1_555
C4 N1 1_555 1_555
H3 C4 1_555 1_555
C5 C4 1_555 1_555
H4 C5 1_555 1_555
C6 C2 1_555 1_555
H5 C6 1_555 1_555
C7 B1 1_555 1_555
C8 C7 1_555 1_555
C9 C8 1_555 1_555
H6 C9 1_555 1_555
C10 C9 1_555 1_555
C11 C10 1_555 1_555
H7 C11 1_555 1_555
C12 C7 1_555 1_555
C13 C12 1_555 1_555
H8 C13 1_555 1_555
H9 C13 1_555 1_555
H10 C13 1_555 1_555
C14 C8 1_555 1_555
H11 C14 1_555 1_555
H12 C14 1_555 1_555
H13 C14 1_555 1_555
C15 C10 1_555 1_555
H14 C15 1_555 1_555
H15 C15 1_555 1_555
H16 C15 1_555 1_555
C16 B1 1_555 1_555
C17 C16 1_555 1_555
C18 C17 1_555 1_555
H17 C18 1_555 1_555
C19 C18 1_555 1_555
C20 C19 1_555 1_555
H18 C20 1_555 1_555
C21 C16 1_555 1_555
C22 C21 1_555 1_555
H19 C22 1_555 1_555
H20 C22 1_555 1_555
H21 C22 1_555 1_555
C23 C17 1_555 1_555
H22 C23 1_555 1_555
H23 C23 1_555 1_555
H24 C23 1_555 1_555
C24 C19 1_555 1_555
H25 C24 1_555 1_555
H26 C24 1_555 1_555
H27 C24 1_555 1_555
B1A C1 1_555 1_555
N1A B1A 1_555 1_555
C1A B1 1_555 1_555
H1A C1A 1_555 1_555
H2A C1A 1_555 1_555
C2A C1A 1_555 1_555
C3A C3 1_555 1_555
C4A N1A 1_555 1_555
H3A C4A 1_555 1_555
C5A C4A 1_555 1_555
H4A C5A 1_555 1_555
C6A C2A 1_555 1_555
H5A C6A 1_555 1_555
C7A B1A 1_555 1_555
C8A C7A 1_555 1_555
C9A C8A 1_555 1_555
H6A C9A 1_555 1_555
C10A C9A 1_555 1_555
C11A C10A 1_555 1_555
H7A C11A 1_555 1_555
C12A C7A 1_555 1_555
C13A C12A 1_555 1_555
H8A C13A 1_555 1_555
H9A C13A 1_555 1_555
H10A C13A 1_555 1_555
C14A C8A 1_555 1_555
H11A C14A 1_555 1_555
H12A C14A 1_555 1_555
H13A C14A 1_555 1_555
C15A C10A 1_555 1_555
H14A C15A 1_555 1_555
H15A C15A 1_555 1_555
H16A C15A 1_555 1_555
C16A B1A 1_555 1_555
C17A C16A 1_555 1_555
C18A C17A 1_555 1_555
H17A C18A 1_555 1_555
C19A C18A 1_555 1_555
C20A C19A 1_555 1_555
H18A C20A 1_555 1_555
C21A C16A 1_555 1_555
C22A C21A 1_555 1_555
H19A C22A 1_555 1_555
H20A C22A 1_555 1_555
H21A C22A 1_555 1_555
C23A C17A 1_555 1_555
H22A C23A 1_555 1_555
H23A C23A 1_555 1_555
H24A C23A 1_555 1_555
C24A C19A 1_555 1_555
H25A C24A 1_555 1_555
H26A C24A 1_555 1_555
H27A C24A 1_555 1_555
C5 C6 1_555 1_555
C11 C12 1_555 1_555
C20 C21 1_555 1_555
N1A C3A 1_555 1_555
C2A C3A 1_555 1_555
C5A C6A 1_555 1_555
C11A C12A 1_555 1_555
C20A C21A 1_555 1_555

#END
