
#######################################################################
#
#                 Cambridge Crystallographic Data Centre
#                                CCDC 
#
#######################################################################
#
# If this CIF has been generated from an entry in the Cambridge 
# Structural Database, then it will include bibliographic, chemical, 
# crystal, experimental, refinement or atomic coordinate data resulting 
# from the CCDC's data processing and validation procedures.
#
#######################################################################

data_ZAGGOD
_chemical_formula_moiety         'C19 H21 N3 O8'
_chemical_name_systematic        
2,6-(3,3'-bis(1,2-Oxazacyclopent-2-en-5-yl)-1,12-dioxo-2,5,8,11-tetraoxadodecane-1,12-diyl)-pyridine
_symmetry_cell_setting           orthorhombic
_symmetry_space_group_name_H-M   'P b c a'
_symmetry_Int_Tables_number      61
_space_group_name_Hall           '-P 2ac 2ab'
loop_
_symmetry_equiv_pos_site_id
_symmetry_equiv_pos_as_xyz
1 x,y,z
2 1/2-x,-y,1/2+z
3 1/2+x,1/2-y,-z
4 -x,1/2+y,1/2-z
5 -x,-y,-z
6 1/2+x,y,1/2-z
7 1/2-x,1/2+y,z
8 x,1/2-y,1/2+z
_cell_length_a                   11.469(2)
_cell_length_b                   8.6721(11)
_cell_length_c                   40.554(5)
_cell_angle_alpha                90
_cell_angle_beta                 90
_cell_angle_gamma                90
_cell_volume                     4033.51
_chemical_melting_point          '200.2-201.0 deg.C'
_cell_formula_units_Z            8
loop_
_atom_site_label
_atom_site_type_symbol
_atom_site_fract_x
_atom_site_fract_y
_atom_site_fract_z
O1 O 0.2131(4) -0.0507(5) 0.31731(9)
O2 O 0.7229(4) -0.0632(5) 0.48476(9)
O3 O 0.9195(5) -0.1192(6) 0.4492(1)
O4 O 0.8854(4) 0.0845(4) 0.41700(9)
O5 O 0.8639(4) 0.0392(5) 0.3466(1)
O6 O 0.7357(4) -0.0889(4) 0.2920(1)
O7 O 0.4882(4) -0.0086(4) 0.27735(9)
O8 O 0.3693(5) -0.2157(5) 0.2815(1)
N1 N 0.2092(5) -0.1079(6) 0.3497(1)
N2 N 0.4230(5) -0.0743(5) 0.4118(1)
N3 N 0.6086(5) -0.1233(5) 0.4811(1)
C1 C 0.3264(6) 0.0184(6) 0.3114(1)
C2 C 0.3840(6) 0.0262(6) 0.3454(1)
C3 C 0.3007(5) -0.0684(6) 0.3650(1)
C4 C 0.3198(6) -0.1173(6) 0.3995(1)
C5 C 0.2392(6) -0.2001(7) 0.4174(1)
C6 C 0.2658(7) -0.2447(8) 0.4492(1)
C7 C 0.3719(7) -0.2051(7) 0.4619(1)
C8 C 0.4485(6) -0.1208(6) 0.4429(1)
C9 C 0.5659(6) -0.0738(5) 0.4538(1)
C10 C 0.6447(7) 0.0217(7) 0.4339(2)
C11 C 0.7495(7) 0.0382(6) 0.4574(1)
C12 C 0.8603(6) -0.0139(7) 0.4416(2)
C13 C 0.9818(7) 0.0464(7) 0.3955(2)
C14 C 0.9550(7) 0.1177(7) 0.3628(2)
C15 C 0.9060(7) -0.0769(8) 0.3250(2)
C16 C 0.8108(7) -0.1729(7) 0.3123(2)
C17 C 0.6531(7) -0.1860(7) 0.2767(1)
C18 C 0.5702(7) -0.0951(7) 0.2570(1)
C19 C 0.3953(6) -0.0859(6) 0.2884(1)
loop_
_geom_bond_atom_site_label_1
_geom_bond_atom_site_label_2
_geom_bond_site_symmetry_1
_geom_bond_site_symmetry_2
O1 N1 1_555 1_555
O2 N3 1_555 1_555
O3 C12 1_555 1_555
O4 C12 1_555 1_555
O5 C14 1_555 1_555
O6 C16 1_555 1_555
O7 C18 1_555 1_555
O8 C19 1_555 1_555
N1 C3 1_555 1_555
N2 C4 1_555 1_555
N3 C9 1_555 1_555
C1 O1 1_555 1_555
C2 C1 1_555 1_555
C3 C2 1_555 1_555
C4 C3 1_555 1_555
C5 C4 1_555 1_555
C6 C5 1_555 1_555
C7 C6 1_555 1_555
C8 N2 1_555 1_555
C9 C8 1_555 1_555
C10 C9 1_555 1_555
C11 O2 1_555 1_555
C12 C11 1_555 1_555
C13 O4 1_555 1_555
C14 C13 1_555 1_555
C15 O5 1_555 1_555
C16 C15 1_555 1_555
C17 O6 1_555 1_555
C18 C17 1_555 1_555
C19 O7 1_555 1_555
C1 C19 1_555 1_555
C7 C8 1_555 1_555
C10 C11 1_555 1_555

#END
