
#######################################################################
#
#                 Cambridge Crystallographic Data Centre
#                                CCDC 
#
#######################################################################
#
# If this CIF has been generated from an entry in the Cambridge 
# Structural Database, then it will include bibliographic, chemical, 
# crystal, experimental, refinement or atomic coordinate data resulting 
# from the CCDC's data processing and validation procedures.
#
#######################################################################

data_ZAGGIX
_chemical_formula_moiety         'C20 H22 N2 O8'
_chemical_name_systematic        
1,3-(3,3'-bis(1,2-Oxazacyclopent-2-en-5-yl)-1,12-dioxo-2,5,8,11-tetraoxadodecane-1,12-diyl)-benzene
_symmetry_cell_setting           orthorhombic
_symmetry_space_group_name_H-M   'P b c a'
_symmetry_Int_Tables_number      61
_space_group_name_Hall           '-P 2ac 2ab'
loop_
_symmetry_equiv_pos_site_id
_symmetry_equiv_pos_as_xyz
1 x,y,z
2 1/2-x,-y,1/2+z
3 1/2+x,1/2-y,-z
4 -x,1/2+y,1/2-z
5 -x,-y,-z
6 1/2+x,y,1/2-z
7 1/2-x,1/2+y,z
8 x,1/2-y,1/2+z
_cell_length_a                   9.586(1)
_cell_length_b                   19.362(2)
_cell_length_c                   21.449(2)
_cell_angle_alpha                90
_cell_angle_beta                 90
_cell_angle_gamma                90
_cell_volume                     3981.02
_chemical_melting_point          '197.7-198.2 deg.C'
_cell_formula_units_Z            8
loop_
_atom_site_label
_atom_site_type_symbol
_atom_site_fract_x
_atom_site_fract_y
_atom_site_fract_z
O1 O -0.1784(6) 0.4857(2) 0.2509(3)
O2 O 0.1129(5) 0.1992(2) 0.5709(2)
O3 O 0.2138(5) 0.1400(3) 0.4607(2)
O4 O 0.0191(5) 0.0758(2) 0.4566(2)
O5 O -0.0878(6) 0.1308(2) 0.3505(2)
O6 O -0.1269(6) 0.2119(2) 0.2389(2)
O7 O -0.2945(5) 0.3208(3) 0.1992(2)
O8 O -0.1186(6) 0.3875(3) 0.1641(2)
N1 N -0.0832(6) 0.4875(3) 0.3019(3)
N2 N 0.1347(5) 0.2685(3) 0.5521(2)
C1 C -0.2534(8) 0.4213(3) 0.2528(4)
C2 C -0.2182(8) 0.3892(4) 0.3155(3)
C3 C -0.1051(7) 0.4359(3) 0.3376(3)
C4 C -0.0203(6) 0.4255(3) 0.3939(3)
C5 C 0.0717(8) 0.4758(3) 0.4153(3)
C6 C 0.1511(8) 0.4642(3) 0.4667(3)
C7 C 0.1440(7) 0.4028(3) 0.4985(3)
C8 C 0.0525(6) 0.3514(3) 0.4789(3)
C9 C -0.0307(6) 0.3641(3) 0.4275(3)
C10 C 0.0453(6) 0.2841(3) 0.5090(3)
C11 C -0.0516(6) 0.2264(3) 0.4948(3)
C12 C 0.0198(7) 0.1666(3) 0.5266(3)
C13 C 0.0984(7) 0.1254(3) 0.4788(3)
C14 C 0.0533(7) 0.0471(4) 0.3962(3)
C15 C -0.0680(9) 0.0593(4) 0.3546(4)
C16 C -0.2196(9) 0.1483(5) 0.3220(3)
C17 C -0.2122(9) 0.1546(4) 0.2545(4)
C18 C -0.132(1) 0.2294(4) 0.1760(4)
C19 C -0.262(1) 0.2665(4) 0.1563(3)
C20 C -0.2116(8) 0.3756(4) 0.1993(3)
loop_
_geom_bond_atom_site_label_1
_geom_bond_atom_site_label_2
_geom_bond_site_symmetry_1
_geom_bond_site_symmetry_2
O1 N1 1_555 1_555
O2 N2 1_555 1_555
O3 C13 1_555 1_555
O4 C13 1_555 1_555
O5 C15 1_555 1_555
O6 C17 1_555 1_555
O7 C19 1_555 1_555
O8 C20 1_555 1_555
N1 C3 1_555 1_555
N2 C10 1_555 1_555
C1 O1 1_555 1_555
C2 C1 1_555 1_555
C3 C2 1_555 1_555
C4 C3 1_555 1_555
C5 C4 1_555 1_555
C6 C5 1_555 1_555
C7 C6 1_555 1_555
C8 C7 1_555 1_555
C9 C4 1_555 1_555
C10 C8 1_555 1_555
C11 C10 1_555 1_555
C12 O2 1_555 1_555
C13 C12 1_555 1_555
C14 O4 1_555 1_555
C15 C14 1_555 1_555
C16 O5 1_555 1_555
C17 C16 1_555 1_555
C18 O6 1_555 1_555
C19 C18 1_555 1_555
C20 O7 1_555 1_555
C1 C20 1_555 1_555
C8 C9 1_555 1_555
C11 C12 1_555 1_555

#END
