
#######################################################################
#
#                 Cambridge Crystallographic Data Centre
#                                CCDC 
#
#######################################################################
#
# If this CIF has been generated from an entry in the Cambridge 
# Structural Database, then it will include bibliographic, chemical, 
# crystal, experimental, refinement or atomic coordinate data resulting 
# from the CCDC's data processing and validation procedures.
#
#######################################################################

data_ZAGVIP
_chemical_formula_moiety         'C11 H13 I1 N2'
_chemical_name_systematic        
2-(4-Iodophenyl)-1,4-dimethyl-4,5-dihydro-1H-imidazole
_symmetry_cell_setting           orthorhombic
_symmetry_space_group_name_H-M   'P n a 21'
_symmetry_Int_Tables_number      33
_space_group_name_Hall           'P 2c -2n'
loop_
_symmetry_equiv_pos_site_id
_symmetry_equiv_pos_as_xyz
1 x,y,z
2 -x,-y,1/2+z
3 1/2+x,1/2-y,z
4 1/2-x,1/2+y,1/2+z
_cell_length_a                   15.1193(18)
_cell_length_b                   8.5339(10)
_cell_length_c                   18.292(2)
_cell_angle_alpha                90
_cell_angle_beta                 90
_cell_angle_gamma                90
_cell_volume                     2360.15
_exptl_crystal_colour            colorless
_exptl_crystal_description       block
_cell_formula_units_Z            8
loop_
_atom_site_label
_atom_site_type_symbol
_atom_site_fract_x
_atom_site_fract_y
_atom_site_fract_z
I1 I 0.373361(19) -0.34432(3) 0.370413(16)
N1 N 0.0810(3) 0.3236(5) 0.3436(3)
N2 N -0.0112(2) 0.1317(4) 0.3826(2)
C1 C 0.2731(3) -0.1718(4) 0.3658(3)
C2 C 0.2719(3) -0.0617(5) 0.3108(2)
H1 H 0.3149 -0.0626 0.2745
C3 C 0.2054(3) 0.0513(5) 0.3105(2)
H2 H 0.2045 0.1270 0.2739
C4 C 0.1408(2) 0.0522(5) 0.3636(2)
C5 C 0.1406(3) -0.0630(5) 0.4169(3)
H3 H 0.0958 -0.0652 0.4517
C6 C 0.2073(3) -0.1757(5) 0.4186(3)
H4 H 0.2077 -0.2525 0.4547
C7 C 0.0681(3) 0.1699(4) 0.3643(3)
C8 C -0.0668(3) 0.2759(5) 0.3792(3)
H5 H -0.1090 0.2651 0.3389
C9 C -0.0013(3) 0.4059(7) 0.3605(5)
H6 H -0.0216 0.4660 0.3187
H7 H 0.0066 0.4762 0.4017
C10 C 0.1638(3) 0.4077(6) 0.3563(5)
H8 H 0.2128 0.3424 0.3426
H9 H 0.1686 0.4342 0.4072
H10 H 0.1646 0.5019 0.3276
C11 C -0.1169(4) 0.3002(10) 0.4486(5)
H11 H -0.1568 0.2142 0.4561
H12 H -0.1499 0.3961 0.4456
H13 H -0.0762 0.3061 0.4888
I2 I 0.633124(18) 0.84484(4) 0.629582(13)
N3 N 0.3373(3) 0.1800(5) 0.6684(3)
N4 N 0.2495(2) 0.3730(5) 0.6241(3)
C12 C 0.5336(3) 0.6727(5) 0.6354(3)
C13 C 0.4701(3) 0.6634(5) 0.5804(3)
H14 H 0.4726 0.7321 0.5410
C14 C 0.4046(3) 0.5548(5) 0.5839(2)
H15 H 0.3617 0.5521 0.5475
C15 C 0.4006(3) 0.4476(5) 0.6410(2)
C16 C 0.4645(3) 0.4546(5) 0.6965(2)
H16 H 0.4630 0.3835 0.7351
C17 C 0.5303(3) 0.5690(6) 0.6936(2)
H17 H 0.5720 0.5757 0.7308
C18 C 0.3276(3) 0.3339(5) 0.6429(3)
C19 C 0.1916(3) 0.2329(6) 0.6314(3)
H18 H 0.1511 0.2499 0.6725
C20 C 0.2547(3) 0.1003(7) 0.6513(4)
H19 H 0.2330 0.0423 0.6933
H20 H 0.2622 0.0287 0.6107
C21 C 0.4183(3) 0.0908(7) 0.6609(4)
H21 H 0.4679 0.1562 0.6730
H22 H 0.4240 0.0546 0.6115
H23 H 0.4167 0.0026 0.6935
C22 C 0.1375(4) 0.2073(9) 0.5632(5)
H24 H 0.1004 0.2969 0.5548
H25 H 0.1013 0.1158 0.5691
H26 H 0.1763 0.1930 0.5222
loop_
_geom_bond_atom_site_label_1
_geom_bond_atom_site_label_2
_geom_bond_site_symmetry_1
_geom_bond_site_symmetry_2
I1 C1 1_555 1_555
N1 C7 1_555 1_555
N2 C7 1_555 1_555
C1 C2 1_555 1_555
C2 H1 1_555 1_555
C3 C2 1_555 1_555
H2 C3 1_555 1_555
C4 C3 1_555 1_555
C5 C4 1_555 1_555
H3 C5 1_555 1_555
C6 C1 1_555 1_555
H4 C6 1_555 1_555
C7 C4 1_555 1_555
C8 N2 1_555 1_555
H5 C8 1_555 1_555
C9 N1 1_555 1_555
H6 C9 1_555 1_555
H7 C9 1_555 1_555
C10 N1 1_555 1_555
H8 C10 1_555 1_555
H9 C10 1_555 1_555
H10 C10 1_555 1_555
C11 C8 1_555 1_555
H11 C11 1_555 1_555
H12 C11 1_555 1_555
H13 C11 1_555 1_555
I2 C12 1_555 1_555
N3 C18 1_555 1_555
N4 C18 1_555 1_555
C12 C13 1_555 1_555
C13 H14 1_555 1_555
C14 C13 1_555 1_555
H15 C14 1_555 1_555
C15 C14 1_555 1_555
C16 C15 1_555 1_555
H16 C16 1_555 1_555
C17 C12 1_555 1_555
H17 C17 1_555 1_555
C18 C15 1_555 1_555
C19 N4 1_555 1_555
H18 C19 1_555 1_555
C20 N3 1_555 1_555
H19 C20 1_555 1_555
H20 C20 1_555 1_555
C21 N3 1_555 1_555
H21 C21 1_555 1_555
H22 C21 1_555 1_555
H23 C21 1_555 1_555
C22 C19 1_555 1_555
H24 C22 1_555 1_555
H25 C22 1_555 1_555
H26 C22 1_555 1_555
C5 C6 1_555 1_555
C8 C9 1_555 1_555
C16 C17 1_555 1_555
C19 C20 1_555 1_555

#END
