
#######################################################################
#
#                 Cambridge Crystallographic Data Centre
#                                CCDC 
#
#######################################################################
#
# If this CIF has been generated from an entry in the Cambridge 
# Structural Database, then it will include bibliographic, chemical, 
# crystal, experimental, refinement or atomic coordinate data resulting 
# from the CCDC's data processing and validation procedures.
#
#######################################################################

data_ZAGWUC
_chemical_formula_moiety         'C12 H9 Cl1 N2 O1'
_chemical_name_systematic        
8-Chloro-1-methylene-2,3-dihydropyrrolo[2,1-b]quinazolin-9(1H)-one
_symmetry_cell_setting           monoclinic
_symmetry_space_group_name_H-M   'P 21/m'
_symmetry_Int_Tables_number      11
_space_group_name_Hall           '-P 2yb'
loop_
_symmetry_equiv_pos_site_id
_symmetry_equiv_pos_as_xyz
1 x,y,z
2 -x,1/2+y,-z
3 -x,-y,-z
4 x,1/2-y,z
_cell_length_a                   7.6459(6)
_cell_length_b                   6.7006(6)
_cell_length_c                   10.4656(7)
_cell_angle_alpha                90
_cell_angle_beta                 106.548(5)
_cell_angle_gamma                90
_cell_volume                     513.967
_exptl_crystal_colour            white
_cell_formula_units_Z            2
_exptl_crystal_recrystallization_method dichloromethane
loop_
_atom_site_label
_atom_site_type_symbol
_atom_site_fract_x
_atom_site_fract_y
_atom_site_fract_z
Cl1 Cl 0.88479(9) 0.7500 0.54794(6)
O1 O 1.0397(2) 0.7500 0.83357(15)
C1 C 0.7324(4) 0.7500 1.1543(3)
H1 H 0.6780 0.6323 1.1812
N1 N 0.5496(3) 0.7500 0.9188(2)
C2 C 1.1962(4) 0.7500 1.1115(3)
H2 H 1.2349 0.7500 1.0349
H3 H 1.2815 0.7500 1.1950
C3 C 1.0211(4) 0.7500 1.1017(2)
N2 N 0.8729(2) 0.7500 0.98143(18)
C4 C 0.8903(3) 0.7500 0.8520(2)
C5 C 0.7145(3) 0.7500 0.7485(2)
C6 C 0.6978(3) 0.7500 0.6104(2)
C7 C 0.5296(4) 0.7500 0.5174(3)
H4 H 0.5215 0.7500 0.4271
C8 C 0.3731(4) 0.7500 0.5576(3)
H5 H 0.2599 0.7500 0.4939
C9 C 0.7047(3) 0.7500 1.0065(2)
C10 C 0.9357(4) 0.7500 1.2156(3)
H6 H 0.9732 0.6324 1.2707
C11 C 0.5516(3) 0.7500 0.7856(2)
C12 C 0.3820(3) 0.7500 0.6894(3)
H7 H 0.2754 0.7500 0.7153
H1C H 0.6780 0.8677 1.1812
H6C H 0.9732 0.8676 1.2707
H8? H 0.6780 0.6323 1.1812
H9? H 0.9732 0.6324 1.2707
loop_
_geom_bond_atom_site_label_1
_geom_bond_atom_site_label_2
_geom_bond_site_symmetry_1
_geom_bond_site_symmetry_2
Cl1 C6 1_555 1_555
O1 C4 1_555 1_555
C1 H1 1_555 1_555
N1 C9 1_555 1_555
C2 H2 1_555 1_555
H3 C2 1_555 1_555
C3 C2 1_555 1_555
N2 C3 1_555 1_555
C4 N2 1_555 1_555
C5 C4 1_555 1_555
C6 C5 1_555 1_555
C7 C6 1_555 1_555
H4 C7 1_555 1_555
C8 C7 1_555 1_555
H5 C8 1_555 1_555
C9 C1 1_555 1_555
C10 C1 1_555 1_555
H6 C10 1_555 1_555
C11 N1 1_555 1_555
C12 C8 1_555 1_555
H7 C12 1_555 1_555
H1C C1 1_555 1_555
H6C C10 1_555 1_555
C3 C10 1_555 1_555
N2 C9 1_555 1_555
C5 C11 1_555 1_555
C11 C12 1_555 1_555

#END
