
#######################################################################
#
#                 Cambridge Crystallographic Data Centre
#                                CCDC 
#
#######################################################################
#
# If this CIF has been generated from an entry in the Cambridge 
# Structural Database, then it will include bibliographic, chemical, 
# crystal, experimental, refinement or atomic coordinate data resulting 
# from the CCDC's data processing and validation procedures.
#
#######################################################################

data_ZAHCAP
_chemical_formula_moiety         'C30 H26 O5 S2'
_chemical_name_systematic        
'S-(12-(3,5-Dimethoxyphenyl)-1,3-dimethoxytetracen-5-yl) S-methyl carbonodithioate'
_symmetry_cell_setting           monoclinic
_symmetry_space_group_name_H-M   'P 21/c'
_symmetry_Int_Tables_number      14
_space_group_name_Hall           '-P 2ybc'
loop_
_symmetry_equiv_pos_site_id
_symmetry_equiv_pos_as_xyz
1 x,y,z
2 -x,1/2+y,1/2-z
3 -x,-y,-z
4 x,1/2-y,1/2+z
_cell_length_a                   9.8766(3)
_cell_length_b                   31.9256(8)
_cell_length_c                   8.1120(2)
_cell_angle_alpha                90
_cell_angle_beta                 93.367(2)
_cell_angle_gamma                90
_cell_volume                     2553.43
_exptl_crystal_colour            red
_exptl_crystal_description       plank
_cell_formula_units_Z            4
loop_
_atom_site_label
_atom_site_type_symbol
_atom_site_fract_x
_atom_site_fract_y
_atom_site_fract_z
S1 S 0.17651(4) 0.71582(2) 0.30624(6)
S2 S 0.46600(5) 0.73101(2) 0.30163(7)
O1 O 0.24202(14) 0.63053(4) -0.23141(17)
O2 O -0.10939(13) 0.55188(4) -0.01357(16)
O3 O -0.54309(12) 0.52619(4) 0.16114(16)
O4 O -0.18316(14) 0.46578(4) 0.49853(18)
O5 O 0.36374(14) 0.65619(4) 0.35632(18)
C1 C 0.15571(17) 0.65336(5) 0.0247(2)
H1 H 0.2132 0.6772 0.0295
C2 C 0.15784(17) 0.62667(6) -0.1049(2)
C3 C 0.07057(18) 0.59134(6) -0.1214(2)
H2 H 0.0742 0.5733 -0.2143
C4 C -0.01819(17) 0.58353(5) -0.0033(2)
C5 C -0.10845(16) 0.60158(5) 0.2720(2)
C6 C -0.19802(17) 0.62191(5) 0.5382(2)
H3 H -0.2579 0.5986 0.5296
C7 C -0.29355(19) 0.64117(6) 0.8026(2)
H4 H -0.3545 0.6181 0.7945
C8 C -0.2953(2) 0.66723(6) 0.9340(2)
H5 H -0.3578 0.6625 1.0166
C9 C -0.2040(2) 0.70175(6) 0.9496(2)
H6 H -0.2052 0.7196 1.0432
C10 C -0.11522(19) 0.70928(6) 0.8314(2)
H7 H -0.0553 0.7325 0.8433
C11 C -0.02208(17) 0.69024(5) 0.5650(2)
H8 H 0.0382 0.7134 0.5753
C12 C 0.06786(16) 0.67147(5) 0.2939(2)
C13 C 0.06697(17) 0.64557(5) 0.1544(2)
C14 C -0.02335(16) 0.60967(5) 0.1441(2)
C15 C -0.10924(16) 0.62889(5) 0.4113(2)
C16 C -0.20126(17) 0.64780(5) 0.6754(2)
C17 C -0.11026(17) 0.68293(5) 0.6891(2)
C18 C -0.01911(16) 0.66441(5) 0.4242(2)
C19 C -0.19864(17) 0.56397(5) 0.2797(2)
C20 C -0.33060(17) 0.56432(5) 0.2062(2)
H9 H -0.3625 0.5875 0.1415
C21 C -0.41361(17) 0.53005(5) 0.2299(2)
C22 C -0.36985(18) 0.49627(5) 0.3296(2)
H10 H -0.4288 0.4734 0.3479
C23 C -0.23892(18) 0.49678(5) 0.4009(2)
C24 C -0.15264(17) 0.53071(5) 0.3754(2)
H11 H -0.0627 0.5308 0.4240
C25 C 0.34072(18) 0.69236(6) 0.3288(2)
C26 C 0.6125(2) 0.70203(7) 0.3770(3)
H12 H 0.6085 0.6736 0.3311
H13 H 0.6143 0.7005 0.4978
H14 H 0.6947 0.7161 0.3434
C27 C 0.3289(2) 0.66625(7) -0.2289(3)
H15 H 0.3865 0.6650 -0.3231
H16 H 0.3860 0.6665 -0.1260
H17 H 0.2738 0.6918 -0.2359
C28 C -0.1160(2) 0.52653(6) -0.1598(2)
H18 H -0.1293 0.5445 -0.2572
H19 H -0.1921 0.5069 -0.1561
H20 H -0.0312 0.5108 -0.1660
C29 C -0.5907(2) 0.55884(7) 0.0523(3)
H21 H -0.5282 0.5621 -0.0363
H22 H -0.5953 0.5851 0.1140
H23 H -0.6812 0.5517 0.0046
C30 C -0.2689(2) 0.43198(6) 0.5426(3)
H24 H -0.3018 0.4170 0.4427
H25 H -0.3462 0.4431 0.5991
H26 H -0.2174 0.4127 0.6163
loop_
_geom_bond_atom_site_label_1
_geom_bond_atom_site_label_2
_geom_bond_site_symmetry_1
_geom_bond_site_symmetry_2
S1 C12 1_555 1_555
S2 C25 1_555 1_555
O1 C2 1_555 1_555
O2 C4 1_555 1_555
O3 C21 1_555 1_555
O4 C23 1_555 1_555
O5 C25 1_555 1_555
C1 H1 1_555 1_555
C2 C1 1_555 1_555
C3 C2 1_555 1_555
H2 C3 1_555 1_555
C4 C3 1_555 1_555
C5 C14 1_555 1_555
C6 H3 1_555 1_555
C7 H4 1_555 1_555
C8 C7 1_555 1_555
H5 C8 1_555 1_555
C9 C8 1_555 1_555
H6 C9 1_555 1_555
C10 C9 1_555 1_555
H7 C10 1_555 1_555
C11 H8 1_555 1_555
C12 C13 1_555 1_555
C13 C1 1_555 1_555
C14 C4 1_555 1_555
C15 C5 1_555 1_555
C16 C6 1_555 1_555
C17 C10 1_555 1_555
C18 C11 1_555 1_555
C19 C5 1_555 1_555
C20 C19 1_555 1_555
H9 C20 1_555 1_555
C21 C20 1_555 1_555
C22 C21 1_555 1_555
H10 C22 1_555 1_555
C23 C22 1_555 1_555
C24 C19 1_555 1_555
H11 C24 1_555 1_555
C25 S1 1_555 1_555
C26 S2 1_555 1_555
H12 C26 1_555 1_555
H13 C26 1_555 1_555
H14 C26 1_555 1_555
C27 O1 1_555 1_555
H15 C27 1_555 1_555
H16 C27 1_555 1_555
H17 C27 1_555 1_555
C28 O2 1_555 1_555
H18 C28 1_555 1_555
H19 C28 1_555 1_555
H20 C28 1_555 1_555
C29 O3 1_555 1_555
H21 C29 1_555 1_555
H22 C29 1_555 1_555
H23 C29 1_555 1_555
C30 O4 1_555 1_555
H24 C30 1_555 1_555
H25 C30 1_555 1_555
H26 C30 1_555 1_555
C6 C15 1_555 1_555
C7 C16 1_555 1_555
C11 C17 1_555 1_555
C12 C18 1_555 1_555
C13 C14 1_555 1_555
C15 C18 1_555 1_555
C16 C17 1_555 1_555
C23 C24 1_555 1_555

#END
