
#######################################################################
#
#                 Cambridge Crystallographic Data Centre
#                                CCDC 
#
#######################################################################
#
# If this CIF has been generated from an entry in the Cambridge 
# Structural Database, then it will include bibliographic, chemical, 
# crystal, experimental, refinement or atomic coordinate data resulting 
# from the CCDC's data processing and validation procedures.
#
#######################################################################

data_ZAHCET
_chemical_formula_moiety         'C28 H16 F6 O1 S2'
_chemical_name_systematic        
'S-Methyl S-(2-(trifluoromethyl)-12-(4-(trifluoromethyl)phenyl)tetracen-5-yl) carbonodithioate'
_symmetry_cell_setting           monoclinic
_symmetry_space_group_name_H-M   'P 21/n'
_symmetry_Int_Tables_number      14
_space_group_name_Hall           '-P 2yn'
loop_
_symmetry_equiv_pos_site_id
_symmetry_equiv_pos_as_xyz
1 x,y,z
2 1/2-x,1/2+y,1/2-z
3 -x,-y,-z
4 1/2+x,1/2-y,1/2+z
_cell_length_a                   13.0058(4)
_cell_length_b                   5.42541(18)
_cell_length_c                   32.6299(9)
_cell_angle_alpha                90
_cell_angle_beta                 94.380(3)
_cell_angle_gamma                90
_cell_volume                     2295.7
_exptl_crystal_colour            red
_exptl_crystal_description       plate
_cell_formula_units_Z            4
loop_
_atom_site_label
_atom_site_type_symbol
_atom_site_fract_x
_atom_site_fract_y
_atom_site_fract_z
S1 S 0.43128(3) 1.19432(8) 0.79475(2)
S2 S 0.32705(3) 0.98043(9) 0.72106(2)
F1 F 0.92409(15) 1.0573(3) 1.07659(5)
F2 F 0.86781(11) 0.6899(4) 1.07901(4)
F3 F 1.00625(9) 0.7643(3) 1.05133(4)
F4 F 0.34590(8) 0.4419(2) 0.97066(3)
F5 F 0.49314(8) 0.2625(2) 0.97230(3)
F6 F 0.37089(9) 0.1510(2) 0.92805(3)
O1 O 0.50067(10) 0.7999(3) 0.75640(4)
C1 C 0.40558(13) 0.7625(3) 0.85448(5)
H1 H 0.3590 0.7962 0.8313
C2 C 0.38067(13) 0.5876(4) 0.88165(5)
H2 H 0.3172 0.5011 0.8774
C3 C 0.44958(13) 0.5331(3) 0.91665(5)
C4 C 0.54037(12) 0.6559(3) 0.92319(5)
H3 H 0.5845 0.6196 0.9470
C5 C 0.66450(12) 0.9647(3) 0.90131(5)
C6 C 0.79160(12) 1.2516(3) 0.87576(5)
H4 H 0.8410 1.1971 0.8967
C7 C 0.91646(13) 1.5581(4) 0.85414(5)
H5 H 0.9670 1.5025 0.8746
C8 C 0.93828(14) 1.7501(4) 0.82967(5)
H6 H 1.0038 1.8279 0.8333
C9 C 0.86408(15) 1.8368(4) 0.79857(5)
H7 H 0.8804 1.9725 0.7818
C10 C 0.77004(14) 1.7267(3) 0.79263(5)
H8 H 0.7216 1.7852 0.7716
C11 C 0.64821(13) 1.4073(3) 0.81282(5)
H9 H 0.5999 1.4605 0.7913
C12 C 0.52526(12) 1.0881(3) 0.83335(5)
C13 C 0.50024(12) 0.8982(3) 0.85976(5)
C14 C 0.57085(12) 0.8395(3) 0.89488(5)
C15 C 0.69374(12) 1.1409(3) 0.87227(5)
C16 C 0.81827(13) 1.4380(3) 0.84950(5)
C17 C 0.74332(13) 1.5227(3) 0.81784(5)
C18 C 0.62092(12) 1.2136(3) 0.83855(5)
C19 C 0.73160(12) 0.9320(3) 0.94043(5)
C20 C 0.79781(14) 0.7316(3) 0.94731(5)
H10 H 0.8020 0.6096 0.9266
C21 C 0.85792(14) 0.7092(3) 0.98431(5)
H11 H 0.9032 0.5728 0.9888
C22 C 0.85151(12) 0.8862(3) 1.01457(5)
C23 C 0.78693(13) 1.0858(3) 1.00818(5)
H12 H 0.7828 1.2069 1.0290
C24 C 0.72774(13) 1.1092(3) 0.97102(5)
H13 H 0.6840 1.2484 0.9665
C25 C 0.91198(14) 0.8516(4) 1.05511(5)
C26 C 0.43592(13) 0.9563(3) 0.75709(5)
C27 C 0.35495(15) 0.7254(4) 0.68828(6)
H14 H 0.2988 0.7066 0.6667
H15 H 0.3616 0.5740 0.7046
H16 H 0.4197 0.7570 0.6757
C28 C 0.41615(13) 0.3470(3) 0.94672(5)
loop_
_geom_bond_atom_site_label_1
_geom_bond_atom_site_label_2
_geom_bond_site_symmetry_1
_geom_bond_site_symmetry_2
S1 C12 1_555 1_555
S2 C26 1_555 1_555
F1 C25 1_555 1_555
F2 C25 1_555 1_555
F3 C25 1_555 1_555
F4 C28 1_555 1_555
F5 C28 1_555 1_555
F6 C28 1_555 1_555
O1 C26 1_555 1_555
C1 H1 1_555 1_555
C2 C1 1_555 1_555
H2 C2 1_555 1_555
C3 C2 1_555 1_555
C4 C3 1_555 1_555
H3 C4 1_555 1_555
C5 C14 1_555 1_555
C6 H4 1_555 1_555
C7 H5 1_555 1_555
C8 C7 1_555 1_555
H6 C8 1_555 1_555
C9 C8 1_555 1_555
H7 C9 1_555 1_555
C10 C9 1_555 1_555
H8 C10 1_555 1_555
C11 H9 1_555 1_555
C12 C13 1_555 1_555
C13 C1 1_555 1_555
C14 C4 1_555 1_555
C15 C5 1_555 1_555
C16 C6 1_555 1_555
C17 C10 1_555 1_555
C18 C11 1_555 1_555
C19 C5 1_555 1_555
C20 C19 1_555 1_555
H10 C20 1_555 1_555
C21 C20 1_555 1_555
H11 C21 1_555 1_555
C22 C21 1_555 1_555
C23 C22 1_555 1_555
H12 C23 1_555 1_555
C24 C19 1_555 1_555
H13 C24 1_555 1_555
C25 C22 1_555 1_555
C26 S1 1_555 1_555
C27 S2 1_555 1_555
H14 C27 1_555 1_555
H15 C27 1_555 1_555
H16 C27 1_555 1_555
C28 C3 1_555 1_555
C6 C15 1_555 1_555
C7 C16 1_555 1_555
C11 C17 1_555 1_555
C12 C18 1_555 1_555
C13 C14 1_555 1_555
C15 C18 1_555 1_555
C16 C17 1_555 1_555
C23 C24 1_555 1_555

#END
