
#######################################################################
#
#                 Cambridge Crystallographic Data Centre
#                                CCDC 
#
#######################################################################
#
# If this CIF has been generated from an entry in the Cambridge 
# Structural Database, then it will include bibliographic, chemical, 
# crystal, experimental, refinement or atomic coordinate data resulting 
# from the CCDC's data processing and validation procedures.
#
#######################################################################

data_ZAHDAQ
_chemical_formula_moiety         'C34 H28 O2 S4'
_chemical_name_systematic        
"S,S'-(3,4-Dibenzylidene-1,2-diphenylcyclobutane-1,2-diyl) S,S'-dimethyl biscarbonodithioate"
_symmetry_cell_setting           monoclinic
_symmetry_space_group_name_H-M   'P 21/n'
_symmetry_Int_Tables_number      14
_space_group_name_Hall           '-P 2yn'
loop_
_symmetry_equiv_pos_site_id
_symmetry_equiv_pos_as_xyz
1 x,y,z
2 1/2-x,1/2+y,1/2-z
3 -x,-y,-z
4 1/2+x,1/2-y,1/2+z
_cell_length_a                   11.2935(5)
_cell_length_b                   14.1244(6)
_cell_length_c                   18.8899(7)
_cell_angle_alpha                90
_cell_angle_beta                 103.593(4)
_cell_angle_gamma                90
_cell_volume                     2928.8
_exptl_crystal_colour            colorless
_exptl_crystal_description       block
_cell_formula_units_Z            4
loop_
_atom_site_label
_atom_site_type_symbol
_atom_site_fract_x
_atom_site_fract_y
_atom_site_fract_z
C1 C 0.7827(3) 0.3256(2) 0.03524(18)
C2 C 0.7218(3) 0.2846(2) 0.09902(17)
C3 C 0.6011(3) 0.3239(2) 0.05501(18)
C4 C 0.6548(3) 0.3564(2) -0.00448(18)
S1 S 0.89329(8) 0.42291(6) 0.06411(5)
C5 C 0.8066(3) 0.5240(2) 0.07819(18)
S2 S 0.90021(8) 0.62578(6) 0.08478(5)
C6 C 0.8007(4) 0.7113(3) 0.1129(2)
H1 H 0.8405 0.7735 0.1191
H2 H 0.7836 0.6912 0.1592
H3 H 0.7242 0.7156 0.0756
C7 C 0.8543(3) 0.2554(2) 0.00010(18)
C8 C 0.8139(3) 0.2285(2) -0.07220(19)
H4 H 0.7408 0.2542 -0.1013
C9 C 0.8817(4) 0.1631(3) -0.1018(2)
H5 H 0.8556 0.1459 -0.1517
C10 C 0.9858(4) 0.1234(3) -0.0596(2)
H6 H 1.0300 0.0779 -0.0801
C11 C 1.0264(3) 0.1494(3) 0.0129(2)
H7 H 1.0983 0.1223 0.0423
C12 C 0.9600(3) 0.2158(3) 0.0417(2)
H8 H 0.9878 0.2345 0.0911
S3 S 0.72812(8) 0.15393(6) 0.10840(5)
C13 C 0.6602(3) 0.1080(2) 0.02010(19)
S4 S 0.71758(10) -0.00765(7) 0.01600(5)
C14 C 0.6247(4) -0.0464(3) -0.0705(2)
H9 H 0.6471 -0.1113 -0.0803
H10 H 0.6381 -0.0045 -0.1092
H11 H 0.5386 -0.0445 -0.0690
C15 C 0.7728(3) 0.3197(3) 0.17640(18)
C16 C 0.7138(3) 0.3889(3) 0.20643(19)
H12 H 0.6398 0.4150 0.1787
C17 C 0.7617(4) 0.4211(3) 0.2771(2)
H13 H 0.7197 0.4684 0.2974
C18 C 0.8704(4) 0.3844(3) 0.3181(2)
H14 H 0.9031 0.4068 0.3661
C19 C 0.9309(4) 0.3152(3) 0.2888(2)
H15 H 1.0049 0.2894 0.3168
C20 C 0.8836(3) 0.2834(3) 0.21858(19)
H16 H 0.9263 0.2365 0.1984
C21 C 0.4865(3) 0.3314(2) 0.06208(18)
H17 H 0.4342 0.3645 0.0233
C22 C 0.4262(3) 0.2984(2) 0.11796(18)
C23 C 0.4812(3) 0.2431(3) 0.17839(19)
H18 H 0.5644 0.2257 0.1855
C24 C 0.4157(3) 0.2137(3) 0.2279(2)
H19 H 0.4541 0.1751 0.2680
C25 C 0.2951(4) 0.2399(3) 0.2197(2)
H20 H 0.2510 0.2202 0.2542
C26 C 0.2394(3) 0.2952(3) 0.1606(2)
H21 H 0.1568 0.3138 0.1546
C27 C 0.3038(3) 0.3233(3) 0.11036(19)
H22 H 0.2641 0.3604 0.0697
C28 C 0.5982(3) 0.3941(2) -0.06851(18)
H23 H 0.5127 0.4008 -0.0744
C29 C 0.6423(3) 0.4271(3) -0.13140(19)
C30 C 0.7648(4) 0.4450(3) -0.1300(2)
H24 H 0.8251 0.4367 -0.0860
C31 C 0.7985(4) 0.4746(3) -0.1923(2)
H25 H 0.8817 0.4872 -0.1908
C32 C 0.7113(4) 0.4857(3) -0.2568(2)
H26 H 0.7351 0.5047 -0.2997
C33 C 0.5895(4) 0.4694(3) -0.2592(2)
H27 H 0.5298 0.4780 -0.3035
C34 C 0.5548(4) 0.4404(3) -0.1970(2)
H28 H 0.4711 0.4294 -0.1987
O1 O 0.7015(2) 0.52480(18) 0.08199(14)
O2 O 0.5881(2) 0.14639(19) -0.02759(14)
loop_
_geom_bond_atom_site_label_1
_geom_bond_atom_site_label_2
_geom_bond_site_symmetry_1
_geom_bond_site_symmetry_2
C1 C2 1_555 1_555
C2 C3 1_555 1_555
C3 C4 1_555 1_555
C4 C1 1_555 1_555
S1 C1 1_555 1_555
C5 S1 1_555 1_555
S2 C5 1_555 1_555
C6 S2 1_555 1_555
H1 C6 1_555 1_555
H2 C6 1_555 1_555
H3 C6 1_555 1_555
C7 C1 1_555 1_555
C8 C7 1_555 1_555
H4 C8 1_555 1_555
C9 C8 1_555 1_555
H5 C9 1_555 1_555
C10 C9 1_555 1_555
H6 C10 1_555 1_555
C11 C10 1_555 1_555
H7 C11 1_555 1_555
C12 C7 1_555 1_555
H8 C12 1_555 1_555
S3 C2 1_555 1_555
C13 S3 1_555 1_555
S4 C13 1_555 1_555
C14 S4 1_555 1_555
H9 C14 1_555 1_555
H10 C14 1_555 1_555
H11 C14 1_555 1_555
C15 C2 1_555 1_555
C16 C15 1_555 1_555
H12 C16 1_555 1_555
C17 C16 1_555 1_555
H13 C17 1_555 1_555
C18 C17 1_555 1_555
H14 C18 1_555 1_555
C19 C18 1_555 1_555
H15 C19 1_555 1_555
C20 C15 1_555 1_555
H16 C20 1_555 1_555
C21 C3 1_555 1_555
H17 C21 1_555 1_555
C22 C21 1_555 1_555
C23 C22 1_555 1_555
H18 C23 1_555 1_555
C24 C23 1_555 1_555
H19 C24 1_555 1_555
C25 C24 1_555 1_555
H20 C25 1_555 1_555
C26 C25 1_555 1_555
H21 C26 1_555 1_555
C27 C22 1_555 1_555
H22 C27 1_555 1_555
C28 C4 1_555 1_555
H23 C28 1_555 1_555
C29 C28 1_555 1_555
C30 C29 1_555 1_555
H24 C30 1_555 1_555
C31 C30 1_555 1_555
H25 C31 1_555 1_555
C32 C31 1_555 1_555
H26 C32 1_555 1_555
C33 C32 1_555 1_555
H27 C33 1_555 1_555
C34 C29 1_555 1_555
H28 C34 1_555 1_555
O1 C5 1_555 1_555
O2 C13 1_555 1_555
C11 C12 1_555 1_555
C19 C20 1_555 1_555
C26 C27 1_555 1_555
C33 C34 1_555 1_555

#END
