
#######################################################################
#
#                 Cambridge Crystallographic Data Centre
#                                CCDC 
#
#######################################################################
#
# If this CIF has been generated from an entry in the Cambridge 
# Structural Database, then it will include bibliographic, chemical, 
# crystal, experimental, refinement or atomic coordinate data resulting 
# from the CCDC's data processing and validation procedures.
#
#######################################################################

data_ZAHJAW
_chemical_formula_moiety         'C19 H15 N1 O1 S1'
_chemical_name_systematic        'S-pyren-1-yl dimethylcarbamothioate'
_symmetry_cell_setting           orthorhombic
_symmetry_space_group_name_H-M   'P b c a'
_symmetry_Int_Tables_number      61
_space_group_name_Hall           '-P 2ac 2ab'
loop_
_symmetry_equiv_pos_site_id
_symmetry_equiv_pos_as_xyz
1 x,y,z
2 1/2-x,-y,1/2+z
3 1/2+x,1/2-y,-z
4 -x,1/2+y,1/2-z
5 -x,-y,-z
6 1/2+x,y,1/2-z
7 1/2-x,1/2+y,z
8 x,1/2-y,1/2+z
_cell_length_a                   13.082(2)
_cell_length_b                   19.451(3)
_cell_length_c                   23.402(2)
_cell_angle_alpha                90
_cell_angle_beta                 90
_cell_angle_gamma                90
_cell_volume                     5954.83
_exptl_crystal_colour            yellow
_exptl_crystal_description       Block
_cell_formula_units_Z            16
loop_
_atom_site_label
_atom_site_type_symbol
_atom_site_fract_x
_atom_site_fract_y
_atom_site_fract_z
S1 S 0.38013(5) 0.16698(3) 0.96216(3)
O1 O 0.52618(11) 0.25103(8) 1.00209(7)
C1 C 0.50612(18) 0.12034(12) 0.87842(11)
H1 H 0.4621 0.1456 0.8539
C2 C 0.58485(18) 0.08121(13) 0.85507(10)
H2 H 0.5934 0.0799 0.8148
C3 C 0.65109(18) 0.04405(12) 0.88960(10)
C4 C 0.73222(18) 0.00272(12) 0.86673(10)
H3 H 0.7405 0.0000 0.8265
C5 C 0.79759(18) -0.03263(12) 0.90115(10)
H4 H 0.8508 -0.0592 0.8845
C6 C 0.78726(17) -0.03036(12) 0.96252(10)
C7 C 0.85388(18) -0.06592(13) 0.99850(11)
H5 H 0.9086 -0.0918 0.9826
C8 C 0.84069(19) -0.06376(13) 1.05796(11)
H6 H 0.8867 -0.0881 1.0820
C9 C 0.76097(19) -0.02638(12) 1.08206(11)
H7 H 0.7526 -0.0259 1.1224
C10 C 0.69274(18) 0.01061(12) 1.04746(10)
C11 C 0.70562(17) 0.00897(11) 0.98665(10)
C12 C 0.63790(17) 0.04668(11) 0.95084(10)
C13 C 0.55592(17) 0.08566(11) 0.97458(10)
C14 C 0.49101(17) 0.12288(12) 0.93755(10)
C15 C 0.54275(18) 0.08399(11) 1.03598(10)
H8 H 0.4872 0.1081 1.0527
C16 C 0.60824(19) 0.04861(12) 1.07015(10)
H9 H 0.5976 0.0491 1.1103
C17 C 0.43339(18) 0.24227(11) 0.99708(9)
N1 N 0.36156(14) 0.28506(10) 1.01781(8)
C18 C 0.25189(18) 0.27854(14) 1.00671(11)
H10 H 0.2353 0.3008 0.9703
H11 H 0.2135 0.3007 1.0376
H12 H 0.2335 0.2297 1.0048
C19 C 0.39402(19) 0.34844(13) 1.04635(11)
H13 H 0.4658 0.3443 1.0579
H14 H 0.3515 0.3562 1.0802
H15 H 0.3865 0.3873 1.0200
S2 S 0.33903(5) 0.17012(3) 0.72854(3)
O2 O 0.26356(12) 0.05672(8) 0.77852(7)
C20 C 0.13863(18) 0.23114(12) 0.85042(10)
H16 H 0.1340 0.2281 0.8908
C21 C 0.06329(18) 0.26693(11) 0.82024(10)
C22 C -0.02258(19) 0.29832(12) 0.84795(11)
H17 H -0.0286 0.2951 0.8883
C23 C -0.0953(2) 0.33249(12) 0.81815(12)
H18 H -0.1506 0.3533 0.8379
C24 C -0.08982(19) 0.33767(13) 0.75683(12)
C25 C -0.00483(18) 0.30829(12) 0.72787(11)
C26 C 0.07210(18) 0.27221(11) 0.75939(10)
C27 C 0.15649(17) 0.24060(12) 0.73039(10)
C28 C 0.22863(18) 0.20412(12) 0.76314(10)
C29 C 0.21989(18) 0.20003(13) 0.82255(10)
H19 H 0.2699 0.1758 0.8440
C30 C 0.16263(18) 0.24940(12) 0.66906(10)
H20 H 0.2191 0.2304 0.6490
C31 C 0.0899(2) 0.28400(12) 0.63944(11)
H21 H 0.0970 0.2885 0.5992
C32 C 0.00269(19) 0.31401(12) 0.66701(11)
C33 C -0.0751(2) 0.34789(13) 0.63676(12)
H22 H -0.0710 0.3518 0.5964
C34 C -0.1656(2) 0.37133(14) 0.72449(14)
H23 H -0.2226 0.3913 0.7433
C35 C 0.33548(18) 0.08181(12) 0.75192(10)
N2 N 0.42045(14) 0.04600(10) 0.73659(8)
C36 C 0.50055(18) 0.07301(14) 0.69916(11)
H24 H 0.4783 0.0695 0.6593
H25 H 0.5633 0.0463 0.7045
H26 H 0.5136 0.1213 0.7086
C37 C 0.4283(2) -0.02627(13) 0.75190(11)
H27 H 0.3708 -0.0389 0.7766
H28 H 0.4927 -0.0342 0.7723
H29 H 0.4268 -0.0544 0.7172
C38 C -0.1580(2) 0.37565(14) 0.66573(14)
H30 H -0.2105 0.3980 0.6447
loop_
_geom_bond_atom_site_label_1
_geom_bond_atom_site_label_2
_geom_bond_site_symmetry_1
_geom_bond_site_symmetry_2
S1 C14 1_555 1_555
O1 C17 1_555 1_555
C1 H1 1_555 1_555
C2 C1 1_555 1_555
H2 C2 1_555 1_555
C3 C2 1_555 1_555
C4 C3 1_555 1_555
H3 C4 1_555 1_555
C5 C4 1_555 1_555
H4 C5 1_555 1_555
C6 C5 1_555 1_555
C7 C6 1_555 1_555
H5 C7 1_555 1_555
C8 C7 1_555 1_555
H6 C8 1_555 1_555
C9 C8 1_555 1_555
H7 C9 1_555 1_555
C10 C9 1_555 1_555
C11 C6 1_555 1_555
C12 C3 1_555 1_555
C13 C12 1_555 1_555
C14 C1 1_555 1_555
C15 C13 1_555 1_555
H8 C15 1_555 1_555
C16 C10 1_555 1_555
H9 C16 1_555 1_555
C17 S1 1_555 1_555
N1 C17 1_555 1_555
C18 N1 1_555 1_555
H10 C18 1_555 1_555
H11 C18 1_555 1_555
H12 C18 1_555 1_555
C19 N1 1_555 1_555
H13 C19 1_555 1_555
H14 C19 1_555 1_555
H15 C19 1_555 1_555
S2 C28 1_555 1_555
O2 C35 1_555 1_555
C20 H16 1_555 1_555
C21 C20 1_555 1_555
C22 C21 1_555 1_555
H17 C22 1_555 1_555
C23 C22 1_555 1_555
H18 C23 1_555 1_555
C24 C23 1_555 1_555
C25 C24 1_555 1_555
C26 C21 1_555 1_555
C27 C26 1_555 1_555
C28 C27 1_555 1_555
C29 C20 1_555 1_555
H19 C29 1_555 1_555
C30 C27 1_555 1_555
H20 C30 1_555 1_555
C31 C30 1_555 1_555
H21 C31 1_555 1_555
C32 C25 1_555 1_555
C33 C32 1_555 1_555
H22 C33 1_555 1_555
C34 C24 1_555 1_555
H23 C34 1_555 1_555
C35 S2 1_555 1_555
N2 C35 1_555 1_555
C36 N2 1_555 1_555
H24 C36 1_555 1_555
H25 C36 1_555 1_555
H26 C36 1_555 1_555
C37 N2 1_555 1_555
H27 C37 1_555 1_555
H28 C37 1_555 1_555
H29 C37 1_555 1_555
C38 C33 1_555 1_555
H30 C38 1_555 1_555
C10 C11 1_555 1_555
C11 C12 1_555 1_555
C13 C14 1_555 1_555
C15 C16 1_555 1_555
C25 C26 1_555 1_555
C28 C29 1_555 1_555
C31 C32 1_555 1_555
C34 C38 1_555 1_555

#END
