
#######################################################################
#
#                 Cambridge Crystallographic Data Centre
#                                CCDC 
#
#######################################################################
#
# If this CIF has been generated from an entry in the Cambridge 
# Structural Database, then it will include bibliographic, chemical, 
# crystal, experimental, refinement or atomic coordinate data resulting 
# from the CCDC's data processing and validation procedures.
#
#######################################################################

data_ZAHJIB
_chemical_formula_moiety         'C3 H3 N3 O3,2(H2 O1)'
_chemical_name_systematic        'Cyanuric acid dihydrate'
_symmetry_cell_setting           monoclinic
_symmetry_space_group_name_H-M   'C 2/c'
_symmetry_Int_Tables_number      15
_space_group_name_Hall           '-C 2yn'
loop_
_symmetry_equiv_pos_site_id
_symmetry_equiv_pos_as_xyz
1 x,y,z
2 -x,y,1/2-z
3 1/2+x,1/2+y,z
4 1/2-x,1/2+y,1/2-z
5 -x,-y,-z
6 x,-y,1/2+z
7 1/2-x,1/2-y,-z
8 1/2+x,1/2-y,1/2+z
_cell_length_a                   12.538(3)
_cell_length_b                   6.685(1)
_cell_length_c                   8.807(3)
_cell_angle_alpha                90
_cell_angle_beta                 116.11(2)
_cell_angle_gamma                90
_cell_volume                     662.842
_exptl_crystal_colour            colorless
_cell_formula_units_Z            4
loop_
_atom_site_label
_atom_site_type_symbol
_atom_site_fract_x
_atom_site_fract_y
_atom_site_fract_z
O1 O 0.8620(2) 0.0954(3) -0.0242(2)
O2 O 1.0000 0.6797(4) 0.2500
N1 N 1.0000 0.0931(5) 0.2500
N2 N 0.9290(2) 0.3906(3) 0.1102(2)
C1 C 0.9259(2) 0.1865(3) 0.1028(3)
C2 C 1.0000 0.4987(5) 0.2500
H1 H 1.0000 -0.02(1) 0.2500
H2 H 0.887(3) 0.456(5) 0.031(4)
C1A C 1.0741(2) 0.1865(3) 0.3972(3)
N2A N 1.0710(2) 0.3906(3) 0.3898(2)
O1A O 1.1380(2) 0.0954(3) 0.5242(2)
H2A H 1.113(3) 0.456(5) 0.469(4)
O3 O 1.1971(2) 0.6718(3) 0.6375(3)
H3 H 1.189(4) 0.79(1) 0.598(5)
H4 H 1.256(4) 0.674(6) 0.736(6)
loop_
_geom_bond_atom_site_label_1
_geom_bond_atom_site_label_2
_geom_bond_site_symmetry_1
_geom_bond_site_symmetry_2
O1 C1 1_555 1_555
O2 C2 1_555 1_555
N1 C1 1_555 1_555
N2 C1 1_555 1_555
C2 N2 1_555 1_555
H1 N1 1_555 1_555
H2 N2 1_555 1_555
O3 H3 1_555 1_555
H4 O3 1_555 1_555
C1A N1 1_555 1_555
N2A C2 1_555 1_555
O1A C1A 1_555 1_555
H2A N2A 1_555 1_555
C1A N2A 1_555 1_555

#END
