
#######################################################################
#
#                 Cambridge Crystallographic Data Centre
#                                CCDC 
#
#######################################################################
#
# If this CIF has been generated from an entry in the Cambridge 
# Structural Database, then it will include bibliographic, chemical, 
# crystal, experimental, refinement or atomic coordinate data resulting 
# from the CCDC's data processing and validation procedures.
#
#######################################################################

data_ZAHPEG
_chemical_formula_moiety         'C17 H20 N4 O1,H2 O1'
_chemical_name_systematic        
"N'-(4-(diethylamino)benzylidene)isonicotinohydrazide monohydrate"
_symmetry_cell_setting           monoclinic
_symmetry_space_group_name_H-M   'P 21/c'
_symmetry_Int_Tables_number      14
_space_group_name_Hall           '-P 2ybc'
loop_
_symmetry_equiv_pos_site_id
_symmetry_equiv_pos_as_xyz
1 x,y,z
2 -x,1/2+y,1/2-z
3 -x,-y,-z
4 x,1/2-y,1/2+z
_cell_length_a                   14.3819(12)
_cell_length_b                   11.3604(8)
_cell_length_c                   10.8996(7)
_cell_angle_alpha                90
_cell_angle_beta                 105.731(10)
_cell_angle_gamma                90
_cell_volume                     1714.12
_exptl_crystal_colour            colorless
_exptl_crystal_description       block
_cell_formula_units_Z            4
loop_
_atom_site_label
_atom_site_type_symbol
_atom_site_fract_x
_atom_site_fract_y
_atom_site_fract_z
O1 O 0.36975(9) 0.41707(13) 0.03760(13)
H1 H 0.4185(13) 0.4631(17) 0.0672(19)
H2 H 0.3742(15) 0.4050(17) -0.0357(15)
N1 N 0.39749(8) 0.22215(12) 0.21984(11)
H3 H 0.3969 0.2730 0.1612
O2 O 0.47275(8) 0.06611(10) 0.33390(10)
N2 N 0.32583(9) 0.22368(12) 0.28320(12)
C1 C 0.03082(11) 0.42251(15) 0.28997(15)
H4 H -0.0104 0.4849 0.2574
N3 N -0.06730(9) 0.36780(13) 0.43017(13)
C2 C 0.11139(11) 0.40459(14) 0.24707(15)
H5 H 0.1232 0.4560 0.1866
C3 C 0.00981(11) 0.34876(15) 0.38157(15)
C4 C 0.46769(11) 0.14081(16) 0.25054(15)
C5 C 0.17584(11) 0.31256(14) 0.29067(14)
C6 C 0.25855(10) 0.29886(15) 0.24086(14)
H6 H 0.2632 0.3475 0.1741
C7 C 0.15489(11) 0.23860(15) 0.38046(14)
H7 H 0.1961 0.1760 0.4120
C8 C 0.53901(10) 0.14413(16) 0.17245(14)
C9 C 0.63140(12) 0.2385(2) 0.05015(19)
H8 H 0.6496 0.3081 0.0183
C10 C 0.57832(11) 0.03992(17) 0.14592(15)
H9 H 0.5627 -0.0308 0.1785
C11 C 0.07462(11) 0.25518(15) 0.42429(15)
H10 H 0.0629 0.2029 0.4840
C12 C 0.56728(11) 0.24595(18) 0.12475(17)
H11 H 0.5439 0.3186 0.1422
N4 N 0.66862(10) 0.1385(2) 0.02103(15)
C13 C -0.09320(13) 0.28273(17) 0.51554(18)
H12 H -0.1381 0.3194 0.5561
H13 H -0.0356 0.2620 0.5820
C14 C -0.13682(11) 0.46578(16) 0.38419(17)
H14 H -0.1651 0.4887 0.4519
H15 H -0.1021 0.5332 0.3642
C15 C -0.13815(15) 0.17212(18) 0.4496(2)
H16 H -0.2006 0.1900 0.3937
H17 H -0.1450 0.1156 0.5121
H18 H -0.0976 0.1401 0.4009
C16 C -0.21479(14) 0.43384(19) 0.27047(19)
H19 H -0.1873 0.4099 0.2034
H20 H -0.2561 0.5006 0.2430
H21 H -0.2518 0.3702 0.2910
C17 C 0.64155(12) 0.0420(2) 0.06987(17)
H22 H 0.6667 -0.0294 0.0520
loop_
_geom_bond_atom_site_label_1
_geom_bond_atom_site_label_2
_geom_bond_site_symmetry_1
_geom_bond_site_symmetry_2
O1 H1 1_555 1_555
H2 O1 1_555 1_555
N1 H3 1_555 1_555
O2 C4 1_555 1_555
N2 N1 1_555 1_555
C1 H4 1_555 1_555
N3 C3 1_555 1_555
C2 C1 1_555 1_555
H5 C2 1_555 1_555
C3 C1 1_555 1_555
C4 N1 1_555 1_555
C5 C2 1_555 1_555
C6 N2 1_555 1_555
H6 C6 1_555 1_555
C7 C5 1_555 1_555
H7 C7 1_555 1_555
C8 C4 1_555 1_555
C9 H8 1_555 1_555
C10 C8 1_555 1_555
H9 C10 1_555 1_555
C11 C3 1_555 1_555
H10 C11 1_555 1_555
C12 C8 1_555 1_555
H11 C12 1_555 1_555
N4 C9 1_555 1_555
C13 N3 1_555 1_555
H12 C13 1_555 1_555
H13 C13 1_555 1_555
C14 N3 1_555 1_555
H14 C14 1_555 1_555
H15 C14 1_555 1_555
C15 C13 1_555 1_555
H16 C15 1_555 1_555
H17 C15 1_555 1_555
H18 C15 1_555 1_555
C16 C14 1_555 1_555
H19 C16 1_555 1_555
H20 C16 1_555 1_555
H21 C16 1_555 1_555
C17 C10 1_555 1_555
H22 C17 1_555 1_555
C5 C6 1_555 1_555
C7 C11 1_555 1_555
C9 C12 1_555 1_555
N4 C17 1_555 1_555

#END
