
#######################################################################
#
#                 Cambridge Crystallographic Data Centre
#                                CCDC 
#
#######################################################################
#
# If this CIF has been generated from an entry in the Cambridge 
# Structural Database, then it will include bibliographic, chemical, 
# crystal, experimental, refinement or atomic coordinate data resulting 
# from the CCDC's data processing and validation procedures.
#
#######################################################################

data_ZAHQIL
_chemical_formula_moiety         'C21 H19 N1'
_chemical_name_systematic        2,4-diphenyl-5,6,7,8-tetrahydroquinoline
_symmetry_cell_setting           monoclinic
_symmetry_space_group_name_H-M   'P 21/c'
_symmetry_Int_Tables_number      14
_space_group_name_Hall           '-P 2ybc'
loop_
_symmetry_equiv_pos_site_id
_symmetry_equiv_pos_as_xyz
1 x,y,z
2 -x,1/2+y,1/2-z
3 -x,-y,-z
4 x,1/2-y,1/2+z
_cell_length_a                   11.229(2)
_cell_length_b                   15.571(3)
_cell_length_c                   9.2733(19)
_cell_angle_alpha                90
_cell_angle_beta                 109.09(3)
_cell_angle_gamma                90
_cell_volume                     1532.24
_exptl_crystal_colour            colorless
_exptl_crystal_description       Prism
_cell_formula_units_Z            4
loop_
_atom_site_label
_atom_site_type_symbol
_atom_site_fract_x
_atom_site_fract_y
_atom_site_fract_z
N1 N 0.60983(15) 0.38314(11) 0.45219(18)
C1 C 0.46084(17) 0.36421(13) 0.5831(2)
H1 H 0.4455 0.3585 0.6753
C2 C 0.51335(18) 0.38306(13) 0.3199(2)
C3 C 0.36015(18) 0.36410(13) 0.4467(2)
C4 C 0.69239(17) 0.37294(13) 0.7266(2)
C5 C 0.28434(18) 0.37478(14) 0.1553(2)
H2 H 0.2110 0.4039 0.1650
H3 H 0.2600 0.3163 0.1229
C6 C 0.68814(18) 0.32819(13) 0.8552(2)
H4 H 0.6174 0.2956 0.8497
C7 C 0.58393(17) 0.37280(13) 0.5827(2)
C8 C 0.38678(18) 0.37310(13) 0.3095(2)
C9 C 0.80095(17) 0.41893(13) 0.7363(2)
H5 H 0.8068 0.4474 0.6507
C10 C 0.90049(18) 0.42264(14) 0.8723(2)
H6 H 0.9723 0.4540 0.8777
C11 C 0.4489(2) 0.38205(15) 0.0299(2)
H7 H 0.4719 0.4083 -0.0521
H8 H 0.4389 0.3208 0.0102
C12 C 0.78777(17) 0.33162(14) 0.9908(2)
H9 H 0.7837 0.3015 1.0757
C13 C 0.14274(18) 0.29776(14) 0.3671(2)
H10 H 0.1649 0.2618 0.2999
C14 C 0.19415(18) 0.40958(14) 0.5549(2)
H11 H 0.2514 0.4490 0.6149
C15 C 0.32543(19) 0.41982(15) 0.0338(2)
H12 H 0.2612 0.4129 -0.0652
H13 H 0.3358 0.4808 0.0561
C16 C 0.02326(19) 0.29199(15) 0.3799(2)
H14 H -0.0340 0.2521 0.3214
C17 C 0.55286(19) 0.39740(16) 0.1810(2)
H15 H 0.6229 0.3595 0.1869
H16 H 0.5827 0.4560 0.1828
C18 C 0.22985(17) 0.35692(13) 0.4542(2)
C19 C 0.89346(18) 0.37994(15) 1.0000(2)
H17 H 0.9595 0.3837 1.0918
C20 C 0.07448(19) 0.40387(16) 0.5666(2)
H18 H 0.0518 0.4396 0.6337
C21 C -0.0113(2) 0.34521(16) 0.4790(3)
H19 H -0.0917 0.3415 0.4867
loop_
_geom_bond_atom_site_label_1
_geom_bond_atom_site_label_2
_geom_bond_site_symmetry_1
_geom_bond_site_symmetry_2
N1 C2 1_555 1_555
C1 H1 1_555 1_555
C2 C8 1_555 1_555
C3 C1 1_555 1_555
C4 C6 1_555 1_555
C5 H2 1_555 1_555
H3 C5 1_555 1_555
C6 H4 1_555 1_555
C7 N1 1_555 1_555
C8 C3 1_555 1_555
C9 C4 1_555 1_555
H5 C9 1_555 1_555
C10 C9 1_555 1_555
H6 C10 1_555 1_555
C11 H7 1_555 1_555
H8 C11 1_555 1_555
C12 C6 1_555 1_555
H9 C12 1_555 1_555
C13 H10 1_555 1_555
C14 H11 1_555 1_555
C15 C5 1_555 1_555
H12 C15 1_555 1_555
H13 C15 1_555 1_555
C16 C13 1_555 1_555
H14 C16 1_555 1_555
C17 C2 1_555 1_555
H15 C17 1_555 1_555
H16 C17 1_555 1_555
C18 C3 1_555 1_555
C19 C10 1_555 1_555
H17 C19 1_555 1_555
C20 C14 1_555 1_555
H18 C20 1_555 1_555
C21 C16 1_555 1_555
H19 C21 1_555 1_555
C1 C7 1_555 1_555
C4 C7 1_555 1_555
C5 C8 1_555 1_555
C11 C15 1_555 1_555
C11 C17 1_555 1_555
C12 C19 1_555 1_555
C13 C18 1_555 1_555
C14 C18 1_555 1_555
C20 C21 1_555 1_555

#END
