
#######################################################################
#
#                 Cambridge Crystallographic Data Centre
#                                CCDC 
#
#######################################################################
#
# If this CIF has been generated from an entry in the Cambridge 
# Structural Database, then it will include bibliographic, chemical, 
# crystal, experimental, refinement or atomic coordinate data resulting 
# from the CCDC's data processing and validation procedures.
#
#######################################################################

data_ZAHWIR
_chemical_formula_moiety         'C18 H18 O5'
_chemical_name_systematic        
'methyl (5-methoxy-3-oxo-1,3,3a,9a-tetrahydrophenanthro[4,5-bcd]furan-9b(2H)-yl)acetate'
_symmetry_cell_setting           monoclinic
_symmetry_space_group_name_H-M   'P 21/c'
_symmetry_Int_Tables_number      14
_space_group_name_Hall           '-P 2ybc'
loop_
_symmetry_equiv_pos_site_id
_symmetry_equiv_pos_as_xyz
1 x,y,z
2 -x,1/2+y,1/2-z
3 -x,-y,-z
4 x,1/2-y,1/2+z
_cell_length_a                   10.188(5)
_cell_length_b                   30.187(14)
_cell_length_c                   9.722(5)
_cell_angle_alpha                90
_cell_angle_beta                 92.640(7)
_cell_angle_gamma                90
_cell_volume                     2986.78
_exptl_crystal_colour            colorless
_exptl_crystal_description       sheet
_cell_formula_units_Z            8
loop_
_atom_site_label
_atom_site_type_symbol
_atom_site_fract_x
_atom_site_fract_y
_atom_site_fract_z
O1 O -0.1347(4) 0.15946(12) 1.1994(4)
O2 O -0.1003(4) 0.09050(11) 0.4433(4)
O3 O -0.0834(4) 0.09578(10) 0.9935(4)
O4 O 0.0984(4) 0.03570(12) 1.0811(4)
O5 O -0.0692(4) 0.03903(11) 0.6060(4)
C1 C -0.1444(8) 0.1905(2) 1.3075(7)
H1 H -0.0564 0.1972 1.3468
H2 H -0.1981 0.1780 1.3790
H3 H -0.1854 0.2177 1.2715
C2 C -0.0627(5) 0.17129(16) 1.0925(5)
C3 C -0.0410(5) 0.13934(15) 0.9928(5)
C4 C 0.0288(5) 0.14828(14) 0.8815(5)
C5 C 0.0321(5) 0.10937(14) 0.7879(5)
C6 C -0.0726(5) 0.11521(15) 0.6713(5)
H4 H -0.1592 0.1190 0.7121
H5 H -0.0535 0.1427 0.6203
C7 C -0.0814(5) 0.07760(16) 0.5720(5)
C8 C -0.1159(6) 0.05549(17) 0.3428(6)
H6 H -0.0411 0.0351 0.3525
H7 H -0.1198 0.0683 0.2500
H8 H -0.1974 0.0393 0.3576
C9 C -0.0041(5) 0.21234(15) 1.0713(5)
H9 H -0.0171 0.2353 1.1359
C10 C 0.0721(6) 0.22105(15) 0.9605(6)
H10 H 0.1111 0.2494 0.9511
C11 C 0.0918(5) 0.18831(14) 0.8625(5)
C12 C -0.0079(5) 0.07321(15) 0.8911(5)
H11 H -0.0657 0.0511 0.8414
C13 C 0.1063(6) 0.04899(15) 0.9640(5)
C14 C 0.2242(6) 0.04250(16) 0.8838(6)
H12 H 0.2033 0.0227 0.8045
H13 H 0.2946 0.0284 0.9423
C15 C 0.2711(5) 0.08751(16) 0.8324(6)
H14 H 0.2847 0.1081 0.9111
H15 H 0.3558 0.0840 0.7877
C16 C 0.1691(5) 0.10644(15) 0.7301(5)
H16 H 0.1638 0.0867 0.6473
C17 C 0.2125(5) 0.15193(16) 0.6852(6)
H17 H 0.2675 0.1540 0.6092
C18 C 0.1774(6) 0.18929(16) 0.7468(6)
H18 H 0.2088 0.2169 0.7148
O6 O 0.3616(4) 0.84135(12) 0.2619(4)
O7 O 0.3970(4) 0.90959(11) 1.0234(4)
O8 O 0.4090(4) 0.90449(10) 0.4754(4)
O9 O 0.5905(4) 0.96450(12) 0.4040(4)
O10 O 0.4326(4) 0.96104(11) 0.8663(4)
C19 C 0.3597(7) 0.81199(18) 0.1479(6)
H19 H 0.4501 0.8056 0.1236
H20 H 0.3120 0.8258 0.0692
H21 H 0.3159 0.7844 0.1721
C20 C 0.4320(5) 0.82957(15) 0.3765(5)
C21 C 0.4519(5) 0.86117(14) 0.4802(5)
C22 C 0.5241(5) 0.85183(14) 0.5971(5)
C23 C 0.5286(5) 0.89078(14) 0.6917(5)
C24 C 0.4254(5) 0.88472(15) 0.7993(5)
H22 H 0.3382 0.8809 0.7515
H23 H 0.4453 0.8573 0.8520
C25 C 0.4189(5) 0.92274(16) 0.8977(5)
C26 C 0.3783(6) 0.94420(16) 1.1223(5)
H24 H 0.4492 0.9660 1.1171
H25 H 0.3794 0.9315 1.2150
H26 H 0.2936 0.9587 1.1020
C27 C 0.4868(5) 0.92714(15) 0.5844(5)
H27 H 0.4291 0.9490 0.6298
C28 C 0.5880(5) 0.81200(15) 0.6217(6)
C29 C 0.5683(5) 0.77979(15) 0.5214(6)
H28 H 0.6087 0.7516 0.5335
C30 C 0.4903(5) 0.78815(15) 0.4031(6)
H29 H 0.4759 0.7650 0.3380
C31 C 0.6760(6) 0.81110(16) 0.7439(6)
H30 H 0.7091 0.7835 0.7773
C32 C 0.7109(6) 0.84819(16) 0.8097(5)
H31 H 0.7667 0.8461 0.8904
C33 C 0.6653(5) 0.89409(15) 0.7614(5)
H32 H 0.6599 0.9136 0.8441
C34 C 0.7661(6) 0.91353(16) 0.6687(5)
H33 H 0.7796 0.8933 0.5905
H34 H 0.8512 0.9172 0.7209
C35 C 0.7171(6) 0.95858(17) 0.6147(6)
H35 H 0.6950 0.9778 0.6929
H36 H 0.7870 0.9733 0.5641
C36 C 0.5991(6) 0.95213(15) 0.5217(5)
loop_
_geom_bond_atom_site_label_1
_geom_bond_atom_site_label_2
_geom_bond_site_symmetry_1
_geom_bond_site_symmetry_2
O1 C1 1_555 1_555
O2 C7 1_555 1_555
O3 C3 1_555 1_555
O4 C13 1_555 1_555
O5 C7 1_555 1_555
C1 H1 1_555 1_555
H2 C1 1_555 1_555
H3 C1 1_555 1_555
C2 O1 1_555 1_555
C3 C2 1_555 1_555
C4 C3 1_555 1_555
C5 C4 1_555 1_555
C6 C5 1_555 1_555
H4 C6 1_555 1_555
H5 C6 1_555 1_555
C7 C6 1_555 1_555
C8 O2 1_555 1_555
H6 C8 1_555 1_555
H7 C8 1_555 1_555
H8 C8 1_555 1_555
C9 C2 1_555 1_555
H9 C9 1_555 1_555
C10 C9 1_555 1_555
H10 C10 1_555 1_555
C11 C4 1_555 1_555
C12 O3 1_555 1_555
H11 C12 1_555 1_555
C13 C12 1_555 1_555
C14 C13 1_555 1_555
H12 C14 1_555 1_555
H13 C14 1_555 1_555
C15 C14 1_555 1_555
H14 C15 1_555 1_555
H15 C15 1_555 1_555
C16 C5 1_555 1_555
H16 C16 1_555 1_555
C17 C16 1_555 1_555
H17 C17 1_555 1_555
C18 C11 1_555 1_555
H18 C18 1_555 1_555
O6 C19 1_555 1_555
O7 C25 1_555 1_555
O8 C21 1_555 1_555
O9 C36 1_555 1_555
O10 C25 1_555 1_555
C19 H19 1_555 1_555
H20 C19 1_555 1_555
H21 C19 1_555 1_555
C20 O6 1_555 1_555
C21 C20 1_555 1_555
C22 C21 1_555 1_555
C23 C22 1_555 1_555
C24 C23 1_555 1_555
H22 C24 1_555 1_555
H23 C24 1_555 1_555
C25 C24 1_555 1_555
C26 O7 1_555 1_555
H24 C26 1_555 1_555
H25 C26 1_555 1_555
H26 C26 1_555 1_555
C27 O8 1_555 1_555
H27 C27 1_555 1_555
C28 C22 1_555 1_555
C29 C28 1_555 1_555
H28 C29 1_555 1_555
C30 C20 1_555 1_555
H29 C30 1_555 1_555
C31 C28 1_555 1_555
H30 C31 1_555 1_555
C32 C31 1_555 1_555
H31 C32 1_555 1_555
C33 C23 1_555 1_555
H32 C33 1_555 1_555
C34 C33 1_555 1_555
H33 C34 1_555 1_555
H34 C34 1_555 1_555
C35 C34 1_555 1_555
H35 C35 1_555 1_555
H36 C35 1_555 1_555
C36 C27 1_555 1_555
C5 C12 1_555 1_555
C10 C11 1_555 1_555
C15 C16 1_555 1_555
C17 C18 1_555 1_555
C23 C27 1_555 1_555
C29 C30 1_555 1_555
C32 C33 1_555 1_555
C35 C36 1_555 1_555

#END
