
#######################################################################
#
#                 Cambridge Crystallographic Data Centre
#                                CCDC 
#
#######################################################################
#
# If this CIF has been generated from an entry in the Cambridge 
# Structural Database, then it will include bibliographic, chemical, 
# crystal, experimental, refinement or atomic coordinate data resulting 
# from the CCDC's data processing and validation procedures.
#
#######################################################################

data_ZAJFUO
_chemical_formula_moiety         'C29 H42 O6'
_chemical_name_systematic        
'methyl 12-hydroxy-1,5-dimethyl-6-(1-(3-(3-methylbutan-2-yl)oxiran-2-yl)ethyl)-14-oxo-10-oxapentacyclo[11.3.1.0^2,11^.0^5,9^.0^9,11^]heptadec-15-ene-16-carboxylate'
_symmetry_cell_setting           orthorhombic
_symmetry_space_group_name_H-M   'P 21 21 21'
_symmetry_Int_Tables_number      19
_space_group_name_Hall           'P 2ac 2ab'
loop_
_symmetry_equiv_pos_site_id
_symmetry_equiv_pos_as_xyz
1 x,y,z
2 1/2+x,1/2-y,-z
3 -x,1/2+y,1/2-z
4 1/2-x,-y,1/2+z
_cell_length_a                   6.3717(2)
_cell_length_b                   18.6450(4)
_cell_length_c                   22.0515(5)
_cell_angle_alpha                90
_cell_angle_beta                 90
_cell_angle_gamma                90
_cell_volume                     2619.73
_exptl_crystal_colour            colorless
_exptl_crystal_description       plate
_cell_formula_units_Z            4
loop_
_atom_site_label
_atom_site_type_symbol
_atom_site_fract_x
_atom_site_fract_y
_atom_site_fract_z
O1 O 0.8905(3) 1.09069(9) -0.25317(8)
O2 O 0.7517(4) 0.98768(9) -0.21941(9)
O3 O 0.9178(3) 1.24452(9) -0.07775(9)
O4 O 0.5010(3) 1.11390(9) 0.03904(9)
H1 H 0.4535 1.1531 0.0518
O5 O 1.1554(3) 0.83072(10) 0.18728(9)
O6 O 0.9536(3) 1.05081(8) -0.04470(7)
C1 C 0.9827(5) 1.05098(15) -0.30249(12)
H2 H 1.0992 1.0219 -0.2872
H3 H 1.0350 1.0845 -0.3332
H4 H 0.8764 1.0196 -0.3206
C2 C 0.7838(4) 1.05059(13) -0.21293(11)
C3 C 0.7171(4) 1.09483(12) -0.15938(11)
C4 C 0.5229(4) 1.07427(12) -0.12250(11)
C5 C 0.5772(4) 1.02127(12) -0.06929(11)
H5 H 0.4446 1.0153 -0.0456
C6 C 0.6449(4) 0.94559(12) -0.08757(11)
H6 H 0.5304 0.9221 -0.1106
H7 H 0.7697 0.9484 -0.1142
C7 C 0.6969(4) 0.90107(12) -0.03161(12)
H8 H 0.7188 0.8506 -0.0440
H9 H 0.5758 0.9023 -0.0035
C8 C 0.8931(4) 0.92767(11) 0.00194(11)
C9 C 0.9035(4) 0.90434(12) 0.06953(11)
H10 H 0.7587 0.9095 0.0865
C10 C 0.9780(4) 0.82747(12) 0.08463(12)
H11 H 1.1274 0.8225 0.0714
C11 C 0.9678(4) 0.81647(12) 0.15255(12)
H12 H 0.8347 0.8332 0.1720
C12 C 1.0736(4) 0.75796(13) 0.18448(12)
H13 H 1.1542 0.7238 0.1584
C13 C 0.9978(5) 0.72844(13) 0.24446(12)
H14 H 0.9130 0.7666 0.2648
C14 C 0.8573(6) 0.66233(14) 0.23699(13)
H15 H 0.9448 0.6228 0.2196
C15 C 0.6741(6) 0.67531(19) 0.19433(15)
H16 H 0.5806 0.6336 0.1949
H17 H 0.7270 0.6828 0.1531
H18 H 0.5965 0.7179 0.2075
C16 C 0.8360(4) 1.15138(13) -0.14474(11)
H19 H 0.9505 1.1634 -0.1704
C17 C 0.7971(4) 1.19584(12) -0.09056(12)
C18 C 0.6066(4) 1.17826(12) -0.05312(11)
H20 H 0.5490 1.2235 -0.0354
C19 C 0.6718(4) 1.12701(12) -0.00084(11)
H21 H 0.7916 1.1483 0.0223
C20 C 0.7347(4) 1.05446(12) -0.02589(11)
C21 C 0.3485(4) 1.04373(13) -0.16306(12)
H22 H 0.3140 1.0785 -0.1948
H23 H 0.2235 1.0342 -0.1385
H24 H 0.3969 0.9990 -0.1818
C22 C 0.4385(4) 1.14310(13) -0.09259(12)
H25 H 0.3932 1.1772 -0.1244
H26 H 0.3149 1.1313 -0.0673
C23 C 0.8493(4) 0.76925(12) 0.05369(12)
H27 H 0.8950 0.7221 0.0682
H28 H 0.8695 0.7721 0.0097
H29 H 0.7004 0.7760 0.0632
C24 C 1.1889(6) 0.71303(17) 0.28439(13)
H30 H 1.2598 0.6697 0.2698
H31 H 1.1432 0.7058 0.3264
H32 H 1.2861 0.7537 0.2825
C25 C 0.7731(8) 0.63717(19) 0.29829(17)
H33 H 0.7093 0.6778 0.3196
H34 H 0.8887 0.6178 0.3226
H35 H 0.6673 0.5998 0.2919
C26 C 1.0400(4) 0.96223(12) 0.09983(12)
H36 H 1.0147 0.9637 0.1441
H37 H 1.1908 0.9529 0.0925
C27 C 0.9716(5) 1.03280(12) 0.06984(12)
H38 H 0.8615 1.0569 0.0941
H39 H 1.0922 1.0658 0.0652
C28 C 0.8864(4) 1.01013(12) 0.00814(11)
C29 C 1.0917(4) 0.90669(13) -0.03245(12)
H40 H 1.0975 0.8544 -0.0367
H41 H 1.2152 0.9234 -0.0100
H42 H 1.0900 0.9288 -0.0728
loop_
_geom_bond_atom_site_label_1
_geom_bond_atom_site_label_2
_geom_bond_site_symmetry_1
_geom_bond_site_symmetry_2
O1 C1 1_555 1_555
O2 C2 1_555 1_555
O3 C17 1_555 1_555
O4 H1 1_555 1_555
O5 C11 1_555 1_555
O6 C20 1_555 1_555
C1 H2 1_555 1_555
H3 C1 1_555 1_555
H4 C1 1_555 1_555
C2 O1 1_555 1_555
C3 C2 1_555 1_555
C4 C3 1_555 1_555
C5 C4 1_555 1_555
H5 C5 1_555 1_555
C6 C5 1_555 1_555
H6 C6 1_555 1_555
H7 C6 1_555 1_555
C7 C6 1_555 1_555
H8 C7 1_555 1_555
H9 C7 1_555 1_555
C8 C7 1_555 1_555
C9 C8 1_555 1_555
H10 C9 1_555 1_555
C10 C9 1_555 1_555
H11 C10 1_555 1_555
C11 C10 1_555 1_555
H12 C11 1_555 1_555
C12 O5 1_555 1_555
H13 C12 1_555 1_555
C13 C12 1_555 1_555
H14 C13 1_555 1_555
C14 C13 1_555 1_555
H15 C14 1_555 1_555
C15 C14 1_555 1_555
H16 C15 1_555 1_555
H17 C15 1_555 1_555
H18 C15 1_555 1_555
C16 C3 1_555 1_555
H19 C16 1_555 1_555
C17 C16 1_555 1_555
C18 C17 1_555 1_555
H20 C18 1_555 1_555
C19 O4 1_555 1_555
H21 C19 1_555 1_555
C20 C5 1_555 1_555
C21 C4 1_555 1_555
H22 C21 1_555 1_555
H23 C21 1_555 1_555
H24 C21 1_555 1_555
C22 C4 1_555 1_555
H25 C22 1_555 1_555
H26 C22 1_555 1_555
C23 C10 1_555 1_555
H27 C23 1_555 1_555
H28 C23 1_555 1_555
H29 C23 1_555 1_555
C24 C13 1_555 1_555
H30 C24 1_555 1_555
H31 C24 1_555 1_555
H32 C24 1_555 1_555
C25 C14 1_555 1_555
H33 C25 1_555 1_555
H34 C25 1_555 1_555
H35 C25 1_555 1_555
C26 C9 1_555 1_555
H36 C26 1_555 1_555
H37 C26 1_555 1_555
C27 C26 1_555 1_555
H38 C27 1_555 1_555
H39 C27 1_555 1_555
C28 O6 1_555 1_555
C29 C8 1_555 1_555
H40 C29 1_555 1_555
H41 C29 1_555 1_555
H42 C29 1_555 1_555
C8 C28 1_555 1_555
C11 C12 1_555 1_555
C18 C19 1_555 1_555
C18 C22 1_555 1_555
C19 C20 1_555 1_555
C20 C28 1_555 1_555
C27 C28 1_555 1_555

#END
