
#######################################################################
#
#                 Cambridge Crystallographic Data Centre
#                                CCDC 
#
#######################################################################
#
# If this CIF has been generated from an entry in the Cambridge 
# Structural Database, then it will include bibliographic, chemical, 
# crystal, experimental, refinement or atomic coordinate data resulting 
# from the CCDC's data processing and validation procedures.
#
#######################################################################

data_ZAJJOM
_chemical_formula_moiety         'C26 H41 N3 O2'
_chemical_name_systematic        
N,1-di-t-butyl-5-(t-butylamino)-3-(ethoxymethyl)-4-phenyl-1H-pyrrole-2-carboxamide
_symmetry_cell_setting           orthorhombic
_symmetry_space_group_name_H-M   'P 21 21 21'
_symmetry_Int_Tables_number      19
_space_group_name_Hall           'P 2ac 2ab'
loop_
_symmetry_equiv_pos_site_id
_symmetry_equiv_pos_as_xyz
1 x,y,z
2 1/2-x,-y,1/2+z
3 -x,1/2+y,1/2-z
4 1/2+x,1/2-y,-z
_cell_length_a                   10.867(2)
_cell_length_b                   13.296(3)
_cell_length_c                   17.981(4)
_cell_angle_alpha                90
_cell_angle_beta                 90
_cell_angle_gamma                90
_cell_volume                     2598.03
_exptl_crystal_colour            colorless
_exptl_crystal_description       needle
_cell_formula_units_Z            4
loop_
_atom_site_label
_atom_site_type_symbol
_atom_site_fract_x
_atom_site_fract_y
_atom_site_fract_z
O1 O 0.1547(2) 0.52194(14) -0.11960(11)
O2 O -0.06595(19) 0.40957(14) 0.08177(11)
N1 N 0.1065(2) 0.24191(18) 0.01527(12)
N2 N 0.1513(2) 0.08345(18) -0.05036(14)
H1 H 0.222(3) 0.071(2) -0.0682(17)
N3 N 0.0914(2) 0.50957(18) 0.04056(14)
H2 H 0.149(3) 0.511(2) 0.0062(17)
C1 C 0.1291(3) 0.1891(2) -0.05108(16)
C2 C 0.1209(3) 0.2545(2) -0.11047(16)
C3 C 0.0900(2) 0.3512(2) -0.08168(16)
C4 C 0.0805(3) 0.3416(2) -0.00533(15)
C5 C 0.1346(3) 0.2034(2) 0.09273(16)
C6 C 0.1447(3) 0.2891(2) 0.14963(16)
H3 H 0.2005 0.3410 0.1306
H4 H 0.1768 0.2626 0.1966
H5 H 0.0631 0.3185 0.1580
C7 C 0.2597(3) 0.1502(3) 0.09278(18)
H6 H 0.2554 0.0902 0.0612
H7 H 0.2809 0.1303 0.1437
H8 H 0.3228 0.1959 0.0735
C8 C 0.0307(3) 0.1336(3) 0.11680(18)
H9 H -0.0477 0.1700 0.1150
H10 H 0.0458 0.1103 0.1677
H11 H 0.0271 0.0756 0.0832
C9 C 0.0579(3) 0.0102(2) -0.07986(17)
C10 C 0.0653(3) -0.0835(2) -0.02998(17)
H12 H 0.1494 -0.1101 -0.0307
H13 H 0.0083 -0.1348 -0.0485
H14 H 0.0428 -0.0653 0.0211
C11 C 0.0887(3) -0.0233(2) -0.15968(18)
H15 H 0.0769 0.0334 -0.1938
H16 H 0.0343 -0.0787 -0.1741
H17 H 0.1745 -0.0458 -0.1619
C12 C -0.0712(3) 0.0558(2) -0.0769(2)
H18 H -0.0900 0.0761 -0.0258
H19 H -0.1315 0.0057 -0.0934
H20 H -0.0749 0.1147 -0.1096
C13 C 0.1400(3) 0.2260(2) -0.18958(16)
C14 C 0.2529(3) 0.1847(2) -0.21159(17)
H21 H 0.3192 0.1823 -0.1772
C15 C 0.2691(3) 0.1470(2) -0.28344(16)
H22 H 0.3459 0.1187 -0.2975
C16 C 0.1729(3) 0.1509(2) -0.33442(17)
H23 H 0.1835 0.1242 -0.3830
C17 C 0.0612(3) 0.1937(2) -0.31413(16)
H24 H -0.0039 0.1975 -0.3493
C18 C 0.0443(3) 0.2313(2) -0.24208(16)
H25 H -0.0323 0.2606 -0.2286
C19 C 0.0595(3) 0.4461(2) -0.12410(17)
H26 H 0.0458 0.4288 -0.1770
H27 H -0.0181 0.4745 -0.1044
C20 C 0.2475(3) 0.5094(3) -0.17508(17)
H28 H 0.2108 0.5146 -0.2253
H29 H 0.2864 0.4424 -0.1702
C21 C 0.3426(3) 0.5916(2) -0.16386(18)
H30 H 0.3033 0.6575 -0.1694
H31 H 0.4080 0.5844 -0.2010
H32 H 0.3780 0.5858 -0.1139
C22 C 0.0285(3) 0.4220(2) 0.04422(17)
C23 C 0.0558(3) 0.6066(2) 0.07598(16)
C24 C -0.0694(3) 0.6412(2) 0.04568(19)
H33 H -0.0635 0.6513 -0.0082
H34 H -0.0931 0.7045 0.0696
H35 H -0.1316 0.5897 0.0563
C25 C 0.1559(3) 0.6813(2) 0.05353(19)
H36 H 0.2349 0.6598 0.0744
H37 H 0.1350 0.7482 0.0726
H38 H 0.1619 0.6837 -0.0008
C26 C 0.0511(4) 0.5937(3) 0.16062(17)
H39 H -0.0130 0.5449 0.1736
H40 H 0.0323 0.6586 0.1839
H41 H 0.1309 0.5694 0.1785
loop_
_geom_bond_atom_site_label_1
_geom_bond_atom_site_label_2
_geom_bond_site_symmetry_1
_geom_bond_site_symmetry_2
O1 C19 1_555 1_555
O2 C22 1_555 1_555
N1 C1 1_555 1_555
N2 H1 1_555 1_555
N3 H2 1_555 1_555
C1 N2 1_555 1_555
C2 C1 1_555 1_555
C3 C2 1_555 1_555
C4 N1 1_555 1_555
C5 N1 1_555 1_555
C6 C5 1_555 1_555
H3 C6 1_555 1_555
H4 C6 1_555 1_555
H5 C6 1_555 1_555
C7 C5 1_555 1_555
H6 C7 1_555 1_555
H7 C7 1_555 1_555
H8 C7 1_555 1_555
C8 C5 1_555 1_555
H9 C8 1_555 1_555
H10 C8 1_555 1_555
H11 C8 1_555 1_555
C9 N2 1_555 1_555
C10 C9 1_555 1_555
H12 C10 1_555 1_555
H13 C10 1_555 1_555
H14 C10 1_555 1_555
C11 C9 1_555 1_555
H15 C11 1_555 1_555
H16 C11 1_555 1_555
H17 C11 1_555 1_555
C12 C9 1_555 1_555
H18 C12 1_555 1_555
H19 C12 1_555 1_555
H20 C12 1_555 1_555
C13 C2 1_555 1_555
C14 C13 1_555 1_555
H21 C14 1_555 1_555
C15 C14 1_555 1_555
H22 C15 1_555 1_555
C16 C15 1_555 1_555
H23 C16 1_555 1_555
C17 C16 1_555 1_555
H24 C17 1_555 1_555
C18 C13 1_555 1_555
H25 C18 1_555 1_555
C19 C3 1_555 1_555
H26 C19 1_555 1_555
H27 C19 1_555 1_555
C20 O1 1_555 1_555
H28 C20 1_555 1_555
H29 C20 1_555 1_555
C21 C20 1_555 1_555
H30 C21 1_555 1_555
H31 C21 1_555 1_555
H32 C21 1_555 1_555
C22 N3 1_555 1_555
C23 N3 1_555 1_555
C24 C23 1_555 1_555
H33 C24 1_555 1_555
H34 C24 1_555 1_555
H35 C24 1_555 1_555
C25 C23 1_555 1_555
H36 C25 1_555 1_555
H37 C25 1_555 1_555
H38 C25 1_555 1_555
C26 C23 1_555 1_555
H39 C26 1_555 1_555
H40 C26 1_555 1_555
H41 C26 1_555 1_555
C3 C4 1_555 1_555
C4 C22 1_555 1_555
C17 C18 1_555 1_555

#END
