
#######################################################################
#
#                 Cambridge Crystallographic Data Centre
#                                CCDC 
#
#######################################################################
#
# If this CIF has been generated from an entry in the Cambridge 
# Structural Database, then it will include bibliographic, chemical, 
# crystal, experimental, refinement or atomic coordinate data resulting 
# from the CCDC's data processing and validation procedures.
#
#######################################################################

data_ZAJYUH
_chemical_formula_moiety         'C18 H20 O5'
_chemical_name_systematic        
2-hydroxy-2,3a,6,9-tetramethyl-2,3,3a,5a,6,7-hexahydrochromeno[4,5,6-cde]chromene-4,8-dione
_symmetry_cell_setting           monoclinic
_symmetry_space_group_name_H-M   'P 21'
_symmetry_Int_Tables_number      4
_space_group_name_Hall           'P 2yb'
loop_
_symmetry_equiv_pos_site_id
_symmetry_equiv_pos_as_xyz
1 x,y,z
2 -x,1/2+y,-z
_cell_length_a                   5.67330(10)
_cell_length_b                   17.8801(4)
_cell_length_c                   7.7444(2)
_cell_angle_alpha                90
_cell_angle_beta                 90.6910(10)
_cell_angle_gamma                90
_cell_volume                     785.528
_exptl_crystal_colour            colorless
_exptl_crystal_description       prism
_cell_formula_units_Z            2
loop_
_atom_site_label
_atom_site_type_symbol
_atom_site_fract_x
_atom_site_fract_y
_atom_site_fract_z
O1 O 0.3657(5) 0.61849(16) 0.8966(4)
H1 H 0.2344 0.6356 0.8757
O2 O 0.4940(4) 0.87726(13) 0.5422(3)
O3 O 0.3683(6) 0.72437(16) 1.0648(4)
O4 O -0.2452(7) 1.0110(2) 0.8575(4)
O5 O 0.7791(4) 0.79558(16) 0.5273(4)
C1 C 0.5104(7) 0.67476(19) 0.9635(5)
C2 C 0.6256(6) 0.71564(18) 0.8146(5)
H2 H 0.7068 0.6795 0.7433
H3 H 0.7427 0.7500 0.8609
C3 C 0.4506(5) 0.75951(16) 0.7013(4)
C4 C 0.5917(5) 0.81055(18) 0.5844(4)
C5 C 0.2515(6) 0.89504(15) 0.5803(4)
H4 H 0.1484 0.8711 0.4942
C6 C 0.2296(6) 0.97938(18) 0.5632(5)
H5 H 0.3353 1.0030 0.6481
C7 C -0.0244(7) 0.9990(2) 0.6080(6)
H6 H -0.0445 1.0527 0.5981
H7 H -0.1290 0.9757 0.5240
C8 C 0.2510(6) 0.78197(19) 0.9876(4)
C9 C 0.2931(5) 0.80410(17) 0.8174(4)
C10 C 0.1836(5) 0.86872(16) 0.7580(4)
C11 C 0.0174(6) 0.90772(19) 0.8572(4)
C12 C -0.0384(6) 0.8805(2) 1.0238(4)
C13 C 0.0876(7) 0.8187(2) 1.0862(4)
H8 H 0.0600 0.8020 1.1979
C14 C -0.2288(9) 0.9122(3) 1.1351(6)
H9 H -0.2558 0.8792 1.2307
H10 H -0.3714 0.9173 1.0682
H11 H -0.1809 0.9604 1.1776
C15 C -0.0960(6) 0.9755(2) 0.7834(5)
C16 C 0.2950(8) 1.0067(2) 0.3842(6)
H12 H 0.4564 0.9942 0.3618
H13 H 0.2753 1.0600 0.3782
H14 H 0.1947 0.9832 0.2995
C17 C 0.3052(6) 0.70886(19) 0.5777(5)
H15 H 0.2167 0.6735 0.6439
H16 H 0.4098 0.6826 0.5023
H17 H 0.1989 0.7391 0.5102
C18 C 0.6906(9) 0.6437(3) 1.0910(8)
H18 H 0.6106 0.6196 1.1844
H19 H 0.7860 0.6838 1.1356
H20 H 0.7891 0.6080 1.0337
loop_
_geom_bond_atom_site_label_1
_geom_bond_atom_site_label_2
_geom_bond_site_symmetry_1
_geom_bond_site_symmetry_2
O1 H1 1_555 1_555
O2 C4 1_555 1_555
O3 C1 1_555 1_555
O4 C15 1_555 1_555
O5 C4 1_555 1_555
C1 O1 1_555 1_555
C2 C1 1_555 1_555
H2 C2 1_555 1_555
H3 C2 1_555 1_555
C3 C2 1_555 1_555
C4 C3 1_555 1_555
C5 O2 1_555 1_555
H4 C5 1_555 1_555
C6 C5 1_555 1_555
H5 C6 1_555 1_555
C7 C6 1_555 1_555
H6 C7 1_555 1_555
H7 C7 1_555 1_555
C8 O3 1_555 1_555
C9 C3 1_555 1_555
C10 C5 1_555 1_555
C11 C10 1_555 1_555
C12 C11 1_555 1_555
C13 C8 1_555 1_555
H8 C13 1_555 1_555
C14 C12 1_555 1_555
H9 C14 1_555 1_555
H10 C14 1_555 1_555
H11 C14 1_555 1_555
C15 C7 1_555 1_555
C16 C6 1_555 1_555
H12 C16 1_555 1_555
H13 C16 1_555 1_555
H14 C16 1_555 1_555
C17 C3 1_555 1_555
H15 C17 1_555 1_555
H16 C17 1_555 1_555
H17 C17 1_555 1_555
C18 C1 1_555 1_555
H18 C18 1_555 1_555
H19 C18 1_555 1_555
H20 C18 1_555 1_555
C8 C9 1_555 1_555
C9 C10 1_555 1_555
C11 C15 1_555 1_555
C12 C13 1_555 1_555

#END
