
#######################################################################
#
#                 Cambridge Crystallographic Data Centre
#                                CCDC 
#
#######################################################################
#
# If this CIF has been generated from an entry in the Cambridge 
# Structural Database, then it will include bibliographic, chemical, 
# crystal, experimental, refinement or atomic coordinate data resulting 
# from the CCDC's data processing and validation procedures.
#
#######################################################################

data_ZAJYOB
_chemical_formula_moiety         'C18 H20 O5,0.5(H2 O1)'
_chemical_name_systematic        
'2-hydroxy-2,3a,6,9-tetramethyl-2,3,3a,5a,6,7-hexahydrochromeno[4,5,6-cde]chromene-4,8-dione hemihydrate'
_symmetry_cell_setting           monoclinic
_symmetry_space_group_name_H-M   'P 21'
_symmetry_Int_Tables_number      4
_space_group_name_Hall           'P 2yb'
loop_
_symmetry_equiv_pos_site_id
_symmetry_equiv_pos_as_xyz
1 x,y,z
2 -x,1/2+y,-z
_cell_length_a                   5.9846(2)
_cell_length_b                   14.8297(4)
_cell_length_c                   17.7784(5)
_cell_angle_alpha                90
_cell_angle_beta                 97.104(2)
_cell_angle_gamma                90
_cell_volume                     1565.72
_exptl_crystal_colour            colorless
_exptl_crystal_description       prism
_cell_formula_units_Z            4
loop_
_atom_site_label
_atom_site_type_symbol
_atom_site_fract_x
_atom_site_fract_y
_atom_site_fract_z
O1 O 0.9207(7) 0.0358(3) 0.8750(2)
O2 O 0.2830(7) 0.8195(3) 0.7342(2)
O3 O 0.0293(7) 1.0425(3) 0.5359(2)
O4 O 0.8108(8) 0.7540(3) 0.5098(2)
O5 O -0.0050(7) 0.8859(3) 0.7746(2)
O6 O 0.1536(7) 1.1538(3) 0.6216(2)
H1 H 0.1037 1.1969 0.6453
C1 C -0.2434(11) 1.1370(5) 0.5801(3)
H2 H -0.2917 1.1672 0.6244
H3 H -0.3557 1.0918 0.5609
H4 H -0.2281 1.1816 0.5404
C2 C -0.0175(10) 1.0910(4) 0.6026(3)
C3 C -0.0289(10) 1.0260(4) 0.6688(3)
H5 H -0.1561 0.9838 0.6560
H6 H -0.0582 1.0607 0.7142
C4 C 0.1897(9) 0.9719(4) 0.6874(3)
C5 C 0.1434(9) 0.8903(4) 0.7358(3)
C6 C 0.4765(9) 0.8201(4) 0.6911(3)
H7 H 0.6052 0.8508 0.7222
C7 C 0.5393(9) 0.7220(4) 0.6802(3)
H8 H 0.5893 0.6954 0.7312
C8 C 0.3434(10) 0.6656(4) 0.6423(3)
H9 H 0.2753 0.6962 0.5962
H10 H 0.2303 0.6583 0.6772
H11 H 0.3990 0.6062 0.6291
C9 C 0.1990(10) 0.9803(4) 0.5454(3)
C10 C 0.2717(9) 0.9404(4) 0.6152(3)
C11 C 0.4257(9) 0.8695(4) 0.6173(3)
C12 C 0.5278(9) 0.8461(4) 0.5528(3)
C13 C 0.6992(10) 0.7728(4) 0.5603(3)
C14 C 0.7413(10) 0.7230(4) 0.6350(3)
H12 H 0.8706 0.7513 0.6664
H13 H 0.7835 0.6600 0.6250
C15 C 0.3730(10) 1.0267(4) 0.7367(3)
H14 H 0.5027 0.9878 0.7525
H15 H 0.3117 1.0496 0.7816
H16 H 0.4206 1.0775 0.7072
C16 C 0.4668(10) 0.8928(4) 0.4839(3)
C17 C 0.5755(11) 0.8773(5) 0.4140(3)
H17 H 0.5094 0.9181 0.3739
H18 H 0.5511 0.8147 0.3974
H19 H 0.7375 0.8890 0.4247
C18 C 0.2979(10) 0.9574(4) 0.4812(3)
H20 H 0.2488 0.9866 0.4344
O7 O -0.1359(7) 0.2754(3) 0.9188(2)
O8 O 0.0135(7) 0.5578(3) 0.7837(2)
O9 O -0.3183(7) 0.5137(3) 0.7310(2)
O10 O -0.1323(7) 0.1995(3) 0.8053(2)
H21 H -0.1115 0.1508 0.8292
O11 O 0.7069(9) 0.5323(4) 1.0143(3)
C19 C 0.1518(11) 0.6694(4) 0.9108(3)
H22 H 0.0159 0.6897 0.8789
H23 H 0.2229 0.7208 0.9390
H24 H 0.1110 0.6237 0.9465
C20 C 0.3144(11) 0.6292(5) 0.8615(3)
H25 H 0.3330 0.6728 0.8198
C21 C 0.2338(10) 0.5386(4) 0.8256(3)
H26 H 0.3393 0.5194 0.7892
C22 C 0.2229(9) 0.4659(4) 0.8839(3)
C23 C 0.0621(9) 0.3998(4) 0.8684(3)
C24 C 0.0296(9) 0.3380(4) 0.9244(3)
C25 C -0.2581(10) 0.2572(4) 0.8444(3)
C26 C -0.4759(10) 0.2151(4) 0.8618(3)
H27 H -0.5771 0.2068 0.8147
H28 H -0.5474 0.2547 0.8960
H29 H -0.4442 0.1564 0.8862
C27 C -0.1412(10) 0.4930(4) 0.7665(3)
C28 C -0.0809(9) 0.3966(4) 0.7917(3)
C29 C -0.2980(9) 0.3445(4) 0.7995(3)
H30 H -0.4001 0.3835 0.8248
H31 H -0.3742 0.3301 0.7482
C30 C 0.3723(10) 0.4663(4) 0.9522(3)
C31 C 0.3457(10) 0.4007(4) 1.0075(3)
C32 C 0.1695(10) 0.3390(4) 0.9937(3)
H32 H 0.1438 0.2969 1.0320
C33 C 0.4939(12) 0.3950(5) 1.0832(3)
H33 H 0.4326 0.3497 1.1152
H34 H 0.4977 0.4538 1.1084
H35 H 0.6469 0.3777 1.0748
C34 C 0.5513(11) 0.5352(5) 0.9617(3)
C35 C 0.5479(11) 0.6106(5) 0.9053(3)
H36 H 0.6539 0.5960 0.8686
H37 H 0.6025 0.6663 0.9324
C36 C 0.0495(10) 0.3580(4) 0.7300(3)
H38 H 0.1784 0.3970 0.7241
H39 H -0.0497 0.3551 0.6819
H40 H 0.1032 0.2973 0.7446
loop_
_geom_bond_atom_site_label_1
_geom_bond_atom_site_label_2
_geom_bond_site_symmetry_1
_geom_bond_site_symmetry_2
O2 C5 1_555 1_555
O3 C2 1_555 1_555
O4 C13 1_555 1_555
O5 C5 1_555 1_555
O6 H1 1_555 1_555
C1 H2 1_555 1_555
H3 C1 1_555 1_555
H4 C1 1_555 1_555
C2 O6 1_555 1_555
C3 C2 1_555 1_555
H5 C3 1_555 1_555
H6 C3 1_555 1_555
C4 C3 1_555 1_555
C5 C4 1_555 1_555
C6 O2 1_555 1_555
H7 C6 1_555 1_555
C7 C6 1_555 1_555
H8 C7 1_555 1_555
C8 C7 1_555 1_555
H9 C8 1_555 1_555
H10 C8 1_555 1_555
H11 C8 1_555 1_555
C9 O3 1_555 1_555
C10 C4 1_555 1_555
C11 C6 1_555 1_555
C12 C11 1_555 1_555
C13 C12 1_555 1_555
C14 C7 1_555 1_555
H12 C14 1_555 1_555
H13 C14 1_555 1_555
C15 C4 1_555 1_555
H14 C15 1_555 1_555
H15 C15 1_555 1_555
H16 C15 1_555 1_555
C16 C12 1_555 1_555
C17 C16 1_555 1_555
H17 C17 1_555 1_555
H18 C17 1_555 1_555
H19 C17 1_555 1_555
C18 C9 1_555 1_555
H20 C18 1_555 1_555
O7 C24 1_555 1_555
O8 C21 1_555 1_555
O9 C27 1_555 1_555
O10 H21 1_555 1_555
O11 C34 1_555 1_555
C19 H22 1_555 1_555
H23 C19 1_555 1_555
H24 C19 1_555 1_555
C20 C19 1_555 1_555
H25 C20 1_555 1_555
C21 C20 1_555 1_555
H26 C21 1_555 1_555
C22 C21 1_555 1_555
C23 C22 1_555 1_555
C24 C23 1_555 1_555
C25 O7 1_555 1_555
C26 C25 1_555 1_555
H27 C26 1_555 1_555
H28 C26 1_555 1_555
H29 C26 1_555 1_555
C27 O8 1_555 1_555
C28 C23 1_555 1_555
C29 C25 1_555 1_555
H30 C29 1_555 1_555
H31 C29 1_555 1_555
C30 C22 1_555 1_555
C31 C30 1_555 1_555
C32 C24 1_555 1_555
H32 C32 1_555 1_555
C33 C31 1_555 1_555
H33 C33 1_555 1_555
H34 C33 1_555 1_555
H35 C33 1_555 1_555
C34 C30 1_555 1_555
C35 C20 1_555 1_555
H36 C35 1_555 1_555
H37 C35 1_555 1_555
C36 C28 1_555 1_555
H38 C36 1_555 1_555
H39 C36 1_555 1_555
H40 C36 1_555 1_555
C1 C2 1_555 1_555
C9 C10 1_555 1_555
C10 C11 1_555 1_555
C13 C14 1_555 1_555
C16 C18 1_555 1_555
O10 C25 1_555 1_555
C27 C28 1_555 1_555
C28 C29 1_555 1_555
C31 C32 1_555 1_555
C34 C35 1_555 1_555

#END
