
#######################################################################
#
#                 Cambridge Crystallographic Data Centre
#                                CCDC 
#
#######################################################################
#
# If this CIF has been generated from an entry in the Cambridge 
# Structural Database, then it will include bibliographic, chemical, 
# crystal, experimental, refinement or atomic coordinate data resulting 
# from the CCDC's data processing and validation procedures.
#
#######################################################################

data_ZAKHIF
_chemical_compound_source        
'isolated from the aerial parts of Piper flaviflorum and Piper sarmentosum'
_chemical_name_common            (1E,3S)-1-cinnamoyl-3-hydroxypyrrolidine
_chemical_formula_moiety         'C13 H15 N1 O2'
_chemical_name_systematic        
1-(3-hydroxypyrrolidin-1-yl)-3-phenylprop-2-en-1-one
_symmetry_cell_setting           orthorhombic
_symmetry_space_group_name_H-M   'P 21 21 21'
_symmetry_Int_Tables_number      19
_space_group_name_Hall           'P 2ac 2ab'
loop_
_symmetry_equiv_pos_site_id
_symmetry_equiv_pos_as_xyz
1 x,y,z
2 1/2+x,1/2-y,-z
3 -x,1/2+y,1/2-z
4 1/2-x,-y,1/2+z
_cell_length_a                   6.1575(2)
_cell_length_b                   13.2261(4)
_cell_length_c                   13.3588(4)
_cell_angle_alpha                90
_cell_angle_beta                 90
_cell_angle_gamma                90
_cell_volume                     1087.94
_exptl_crystal_colour            colorless
_exptl_crystal_description       prism
_cell_formula_units_Z            4
loop_
_atom_site_label
_atom_site_type_symbol
_atom_site_fract_x
_atom_site_fract_y
_atom_site_fract_z
O1 O 0.9355(5) 0.4829(2) -0.1392(2)
H1 H 0.9376 0.5179 -0.1916
O2 O 0.6065(5) 0.42514(19) 0.1793(2)
N1 N 0.6227(5) 0.4067(2) 0.0127(2)
C1 C 0.7752(6) 0.4065(3) -0.1482(3)
H2 H 0.7445 0.3901 -0.2199
C2 C 0.5694(6) 0.4349(3) -0.0921(3)
H3 H 0.5386 0.5081 -0.0980
H4 H 0.4429 0.3962 -0.1172
C3 C 0.5297(6) 0.4448(3) 0.0955(3)
C4 C 0.3358(6) 0.5097(3) 0.0809(3)
H5 H 0.2486 0.5011 0.0229
C5 C 0.2818(6) 0.5803(3) 0.1485(3)
H6 H 0.3690 0.5834 0.2071
C6 C 0.1051(6) 0.6525(3) 0.1422(3)
C7 C -0.0748(6) 0.6384(3) 0.0769(3)
H7 H -0.0803 0.5803 0.0351
C8 C -0.2402(6) 0.7076(3) 0.0735(3)
H8 H -0.3598 0.6968 0.0299
C9 C -0.2345(6) 0.7936(3) 0.1335(3)
H9 H -0.3497 0.8413 0.1307
C10 C -0.0577(7) 0.8097(3) 0.1981(3)
H10 H -0.0525 0.8683 0.2392
C11 C 0.1080(7) 0.7398(3) 0.2013(3)
H11 H 0.2274 0.7511 0.2449
C12 C 0.8193(6) 0.3452(3) 0.0182(3)
H12 H 0.7975 0.2854 0.0616
H13 H 0.9436 0.3851 0.0439
C13 C 0.8549(7) 0.3142(3) -0.0908(3)
H14 H 1.0102 0.3007 -0.1045
H15 H 0.7688 0.2534 -0.1080
loop_
_geom_bond_atom_site_label_1
_geom_bond_atom_site_label_2
_geom_bond_site_symmetry_1
_geom_bond_site_symmetry_2
O1 H1 1_555 1_555
O2 C3 1_555 1_555
N1 C2 1_555 1_555
C1 O1 1_555 1_555
H2 C1 1_555 1_555
C2 C1 1_555 1_555
H3 C2 1_555 1_555
H4 C2 1_555 1_555
C3 N1 1_555 1_555
C4 C3 1_555 1_555
H5 C4 1_555 1_555
C5 C4 1_555 1_555
H6 C5 1_555 1_555
C6 C5 1_555 1_555
C7 C6 1_555 1_555
H7 C7 1_555 1_555
C8 C7 1_555 1_555
H8 C8 1_555 1_555
C9 C8 1_555 1_555
H9 C9 1_555 1_555
C10 C9 1_555 1_555
H10 C10 1_555 1_555
C11 C6 1_555 1_555
H11 C11 1_555 1_555
C12 N1 1_555 1_555
H12 C12 1_555 1_555
H13 C12 1_555 1_555
C13 C1 1_555 1_555
H14 C13 1_555 1_555
H15 C13 1_555 1_555
C10 C11 1_555 1_555
C12 C13 1_555 1_555

#END
