
#######################################################################
#
#                 Cambridge Crystallographic Data Centre
#                                CCDC 
#
#######################################################################
#
# If this CIF has been generated from an entry in the Cambridge 
# Structural Database, then it will include bibliographic, chemical, 
# crystal, experimental, refinement or atomic coordinate data resulting 
# from the CCDC's data processing and validation procedures.
#
#######################################################################

data_ZAKMUT10
_chemical_name_common            
"3',3'',6',6''-Tetrahydro-17',17''-dioxo-5',3''':5'',3'''-bis(ethano(1,4)benzenomethanoxymethano)-3'''H,3''''H,3'''''H,3''''''H-dibenzo(1,9:52,60)tetracyclopropa(16,17:21,40:30,31:44,45)(5,6)C60fullerene-I!h$-3'''',3'''',3''''',3''''',3'''''',3''''''-hexacarboxylic acid hexaethyl ester"
_chemical_formula_moiety         'C110 H60 O16,2(C6 H6)'
_chemical_name_systematic        
"tris(Diethyl malonate-2,2-diyl)-bis(8-methyl-2-oxo-3-oxa-5(1,4)-benzenadecaphane-8-ene-1,1',10-triyl)C60fullerene benzene solvate"
_symmetry_cell_setting           monoclinic
_symmetry_space_group_name_H-M   'C 2/c'
_symmetry_Int_Tables_number      15
_space_group_name_Hall           '-C 2yn'
loop_
_symmetry_equiv_pos_site_id
_symmetry_equiv_pos_as_xyz
1 x,y,z
2 -x,y,1/2-z
3 1/2+x,1/2+y,z
4 1/2-x,1/2+y,1/2-z
5 -x,-y,-z
6 x,-y,1/2+z
7 1/2-x,1/2-y,-z
8 1/2+x,1/2-y,1/2+z
_cell_length_a                   17.680(4)
_cell_length_b                   21.164(4)
_cell_length_c                   21.740(4)
_cell_angle_alpha                90
_cell_angle_beta                 93.63(2)
_cell_angle_gamma                90
_cell_volume                     8118.34
_exptl_crystal_colour            'bright yellow'
_cell_formula_units_Z            4
_chemical_properties_physical    'Slightly air- and light-sensitive'
loop_
_atom_site_label
_atom_site_type_symbol
_atom_site_fract_x
_atom_site_fract_y
_atom_site_fract_z
C1 C 0.4903(1) 0.1377(1) 0.2858(1)
C2 C 0.3655(1) 0.1890(1) 0.2547(1)
C3 C 0.4176(1) 0.1675(1) 0.3005(1)
C4 C 0.4288(1) 0.2023(1) 0.3567(1)
C5 C 0.5106(1) 0.2018(1) 0.3745(1)
C6 C 0.5483(1) 0.1675(1) 0.3293(1)
C7 C 0.3825(1) 0.1887(1) 0.1893(1)
C8 C 0.2908(1) 0.2722(1) 0.2039(1)
C9 C 0.3203(1) 0.2430(1) 0.2648(1)
C10 C 0.3302(1) 0.2757(1) 0.3198(1)
C11 C 0.3841(1) 0.2545(1) 0.3673(1)
C12 C 0.4124(1) 0.3110(1) 0.4028(1)
C13 C 0.5016(1) 0.3097(1) 0.4228(1)
C14 C 0.5451(1) 0.2538(1) 0.4028(1)
C15 C 0.6166(1) 0.2751(1) 0.3831(1)
C16 C 0.3466(1) 0.2424(1) 0.1611(1)
C17 C 0.2904(1) 0.3477(1) 0.2029(1)
C18 C 0.3188(1) 0.3780(1) 0.2643(1)
C19 C 0.3299(1) 0.3453(1) 0.3193(1)
C20 C 0.3840(1) 0.3664(1) 0.3663(1)
C21 C 0.4287(1) 0.4185(1) 0.3559(1)
C22 C 0.5103(1) 0.4179(1) 0.3741(1)
C23 C 0.5448(1) 0.3655(1) 0.4024(1)
C24 C 0.6163(1) 0.3444(1) 0.3832(1)
C25 C 0.3471(1) 0.3771(1) 0.1611(1)
C26 C 0.3647(1) 0.4319(1) 0.2543(1)
C27 C 0.4177(1) 0.4534(1) 0.2997(1)
C28 C 0.4910(1) 0.4826(1) 0.2854(1)
C29 C 0.5485(1) 0.4526(1) 0.3291(1)
C30 C 0.3823(1) 0.4312(1) 0.1891(1)
C31 C 0.5000 0.0780(1) 0.2500
C32 C 0.4293(1) 0.0393(1) 0.2337(1)
O1 O 0.3783(1) 0.0316(1) 0.2665(1)
O2 O 0.4326(1) 0.0163(1) 0.1768(1)
C33 C 0.3630(2) -0.0127(1) 0.1491(1)
C34 C 0.3129(1) 0.0378(1) 0.1208(1)
C35 C 0.2396(2) 0.0473(1) 0.1388(1)
C36 C 0.1945(2) 0.0959(2) 0.1134(1)
C37 C 0.2225(1) 0.1377(1) 0.0706(1)
C38 C 0.2957(1) 0.1273(1) 0.0523(1)
C39 C 0.3399(1) 0.0780(1) 0.0764(1)
C40 C 0.1750(2) 0.1900(2) 0.0417(1)
C41 C 0.1301(1) 0.2326(2) 0.0837(1)
C42 C 0.1734(1) 0.2743(1) 0.1298(1)
C43 C 0.1752(1) 0.3369(1) 0.1275(1)
C44 C 0.2091(1) 0.3724(1) 0.1826(1)
C45 C 0.2097(1) 0.2454(1) 0.1879(1)
C46 C 0.4424(1) 0.3118(1) 0.4698(1)
C47 C 0.4266(1) 0.2532(1) 0.5067(1)
O3 O 0.4645(1) 0.2068(1) 0.5103(1)
O4 O 0.3629(1) 0.2621(1) 0.5350(1)
C48 C 0.3374(2) 0.2096(2) 0.5725(2)
C49 C 0.2960(2) 0.1615(2) 0.5348(2)
C50 C 0.4423(1) 0.3719(1) 0.5086(1)
O5 O 0.4941(2) 0.3841(2) 0.5452(1)
O6 O 0.3858(1) 0.4092(1) 0.4950(1)
C51 C 0.3853(2) 0.4696(1) 0.5283(2)
C52 C 0.3063(3) 0.4934(2) 0.5262(2)
C53 C 0.5000 0.5438(1) 0.2500
C54 C 0.5697(1) 0.5854(1) 0.2590(1)
O7 O 0.5833(1) 0.6242(1) 0.2231(1)
O8 O 0.6272(2) 0.5640(2) 0.2992(2)
C55 C 0.6983(4) 0.6003(3) 0.3042(3)
C56 C 0.6959(5) 0.6492(4) 0.3502(4)
H1 H 0.3371 -0.0348 0.1800
H2 H 0.3755 -0.0426 0.1180
H3 H 0.2199 0.0198 0.1690
H4 H 0.1435 0.1009 0.1254
H5 H 0.3160 0.1551 0.0225
H6 H 0.3895 0.0709 0.0622
H7 H 0.2083 0.2169 0.0204
H8 H 0.1390 0.1708 0.0125
H9 H 0.0985 0.2055 0.1065
H10 H 0.0989 0.2597 0.0574
H11 H 0.1553 0.3590 0.0914
H12 H 0.2122 0.4164 0.1723
H13 H 0.1769 0.3684 0.2163
H14 H 0.1784 0.2534 0.2215
H15 H 0.2130 0.2005 0.1825
H16 H 0.3053 0.2255 0.6030
H17 H 0.3808 0.1900 0.5933
H18 H 0.2799 0.1273 0.5598
H19 H 0.2524 0.1813 0.5143
H20 H 0.3285 0.1456 0.5046
H21 H 0.4172 0.4998 0.5095
H22 H 0.4040 0.4634 0.5703
H23 H 0.3040 0.5328 0.5479
H24 H 0.2884 0.4994 0.4840
H25 H 0.2751 0.4628 0.5451
C1A C 0.5097(1) 0.1377(1) 0.2142(1)
C3A C 0.5824(1) 0.1675(1) 0.1995(1)
C2A C 0.6345(1) 0.1890(1) 0.2453(1)
C7A C 0.6175(1) 0.1887(1) 0.3107(1)
C6A C 0.4517(1) 0.1675(1) 0.1707(1)
C24A C 0.3837(1) 0.3444(1) 0.1168(1)
C15A C 0.3834(1) 0.2751(1) 0.1169(1)
C14A C 0.4549(1) 0.2538(1) 0.0972(1)
C5A C 0.4894(1) 0.2018(1) 0.1255(1)
C4A C 0.5712(1) 0.2023(1) 0.1433(1)
C11A C 0.6159(1) 0.2545(1) 0.1327(1)
C10A C 0.6698(1) 0.2757(1) 0.1802(1)
C9A C 0.6797(1) 0.2430(1) 0.2352(1)
C8A C 0.7092(1) 0.2722(1) 0.2961(1)
C16A C 0.6534(1) 0.2424(1) 0.3389(1)
C29A C 0.4515(1) 0.4526(1) 0.1709(1)
C22A C 0.4897(1) 0.4179(1) 0.1259(1)
C21A C 0.5713(1) 0.4185(1) 0.1441(1)
C20A C 0.6160(1) 0.3664(1) 0.1337(1)
C12A C 0.5876(1) 0.3110(1) 0.0972(1)
C13A C 0.4984(1) 0.3097(1) 0.0772(1)
C23A C 0.4552(1) 0.3655(1) 0.0976(1)
C46A C 0.5576(1) 0.3118(1) 0.0302(1)
C47A C 0.5734(1) 0.2532(1) -0.0067(1)
O3A O 0.5355(1) 0.2068(1) -0.0103(1)
O4A O 0.6371(1) 0.2621(1) -0.0350(1)
C48A C 0.6626(2) 0.2096(2) -0.0725(2)
C49A C 0.7040(2) 0.1615(2) -0.0348(2)
H18A H 0.7201 0.1273 -0.0598
H19A H 0.7476 0.1813 -0.0143
H20A H 0.6715 0.1456 -0.0046
H16A H 0.6947 0.2255 -0.1030
H17A H 0.6192 0.1900 -0.0933
C50A C 0.5577(1) 0.3719(1) -0.0086(1)
O5A O 0.5059(2) 0.3841(2) -0.0452(1)
O6A O 0.6142(1) 0.4092(1) 0.0050(1)
C51A C 0.6147(2) 0.4696(1) -0.0283(2)
C52A C 0.6937(3) 0.4934(2) -0.0262(2)
H23A H 0.6960 0.5328 -0.0479
H24A H 0.7116 0.4994 0.0160
H25A H 0.7249 0.4628 -0.0451
H21A H 0.5828 0.4998 -0.0095
H22A H 0.5960 0.4634 -0.0703
C19A C 0.6701(1) 0.3453(1) 0.1807(1)
C18A C 0.6812(1) 0.3780(1) 0.2357(1)
C17A C 0.7096(1) 0.3477(1) 0.2971(1)
C45A C 0.7903(1) 0.2454(1) 0.3121(1)
C42A C 0.8266(1) 0.2743(1) 0.3702(1)
C41A C 0.8699(1) 0.2326(2) 0.4163(1)
C40A C 0.8250(2) 0.1900(2) 0.4583(1)
C37A C 0.7775(1) 0.1377(1) 0.4294(1)
C36A C 0.8055(2) 0.0959(2) 0.3866(1)
C35A C 0.7604(2) 0.0473(1) 0.3612(1)
C34A C 0.6871(1) 0.0378(1) 0.3792(1)
C33A C 0.6370(2) -0.0127(1) 0.3509(1)
O2A O 0.5674(1) 0.0163(1) 0.3232(1)
C32A C 0.5707(1) 0.0393(1) 0.2663(1)
O1A O 0.6217(1) 0.0316(1) 0.2335(1)
H1A H 0.6629 -0.0348 0.3200
H2A H 0.6245 -0.0426 0.3820
C39A C 0.6601(1) 0.0780(1) 0.4236(1)
C38A C 0.7043(1) 0.1273(1) 0.4477(1)
H5A H 0.6840 0.1551 0.4775
H6A H 0.6105 0.0709 0.4378
H3A H 0.7801 0.0198 0.3310
H4A H 0.8565 0.1009 0.3746
H7A H 0.7917 0.2169 0.4796
H8A H 0.8610 0.1708 0.4875
H9A H 0.9015 0.2055 0.3935
H10A H 0.9011 0.2597 0.4426
C43A C 0.8248(1) 0.3369(1) 0.3725(1)
C44A C 0.7909(1) 0.3724(1) 0.3174(1)
C25A C 0.6529(1) 0.3771(1) 0.3389(1)
C30A C 0.6177(1) 0.4312(1) 0.3109(1)
C26A C 0.6353(1) 0.4319(1) 0.2457(1)
C27A C 0.5823(1) 0.4534(1) 0.2003(1)
C28A C 0.5090(1) 0.4826(1) 0.2146(1)
C54A C 0.4303(1) 0.5854(1) 0.2410(1)
O7A O 0.4167(1) 0.6242(1) 0.2769(1)
O8A O 0.3728(2) 0.5640(2) 0.2008(2)
C55A C 0.3017(4) 0.6003(3) 0.1958(3)
C56A C 0.3041(5) 0.6492(4) 0.1498(4)
H12A H 0.7878 0.4164 0.3277
H13A H 0.8231 0.3684 0.2837
H11A H 0.8447 0.3590 0.4086
H14A H 0.8216 0.2534 0.2785
H15A H 0.7870 0.2005 0.3175
C59 C 0.5016(2) 0.2379(2) 0.7185(2)
C60 C 0.5042(2) 0.1820(2) 0.6868(2)
C61 C 0.5027(2) 0.1260(2) 0.7191(2)
H26 H 0.5032 0.2773 0.6967
H27 H 0.5068 0.1822 0.6428
H28 H 0.5050 0.0867 0.6972
C59A C 0.4984(2) 0.2379(2) 0.7815(2)
C60A C 0.4958(2) 0.1820(2) 0.8132(2)
C61A C 0.4973(2) 0.1260(2) 0.7809(2)
H28A H 0.4950 0.0867 0.8028
H27A H 0.4932 0.1822 0.8572
H26A H 0.4968 0.2773 0.8033
C62 C 0.5047(3) 0.0575(2) 0.5312(2)
C63 C 0.4642(3) 0.0521(2) 0.4745(2)
C64 C 0.5414(3) 0.0062(2) 0.5567(2)
H29 H 0.5077 0.0974 0.5523
H30 H 0.4383 0.0883 0.4570
H31 H 0.5695 0.0097 0.5958
C64D C 0.4586(3) -0.0062(2) 0.4433(2)
C62D C 0.4953(3) -0.0575(2) 0.4688(2)
C63D C 0.5358(3) -0.0521(2) 0.5255(2)
H30D H 0.5617 -0.0883 0.5430
H29D H 0.4923 -0.0974 0.4477
H31D H 0.4305 -0.0097 0.4042
O9? O 0.5909(2) 0.5848(2) 0.3184(2)
C57? C 0.6551(3) 0.6248(3) 0.3336(3)
C58? C 0.7249(5) 0.5887(4) 0.3171(4)
loop_
_geom_bond_atom_site_label_1
_geom_bond_atom_site_label_2
_geom_bond_site_symmetry_1
_geom_bond_site_symmetry_2
C1 C3 1_555 1_555
C2 C3 1_555 1_555
C3 C4 1_555 1_555
C4 C5 1_555 1_555
C5 C6 1_555 1_555
C6 C1 1_555 1_555
C7 C2 1_555 1_555
C8 C9 1_555 1_555
C9 C2 1_555 1_555
C10 C9 1_555 1_555
C11 C4 1_555 1_555
C12 C11 1_555 1_555
C13 C12 1_555 1_555
C14 C5 1_555 1_555
C15 C14 1_555 1_555
C16 C7 1_555 1_555
C17 C8 1_555 1_555
C18 C17 1_555 1_555
C19 C10 1_555 1_555
C20 C12 1_555 1_555
C21 C20 1_555 1_555
C22 C21 1_555 1_555
C23 C13 1_555 1_555
C24 C15 1_555 1_555
C25 C17 1_555 1_555
C26 C18 1_555 1_555
C27 C21 1_555 1_555
C28 C27 1_555 1_555
C29 C22 1_555 1_555
C30 C25 1_555 1_555
C31 C1 1_555 1_555
C32 C31 1_555 1_555
O1 C32 1_555 1_555
O2 C32 1_555 1_555
C33 O2 1_555 1_555
C34 C33 1_555 1_555
C35 C34 1_555 1_555
C36 C35 1_555 1_555
C37 C36 1_555 1_555
C38 C37 1_555 1_555
C39 C34 1_555 1_555
C40 C37 1_555 1_555
C41 C40 1_555 1_555
C42 C41 1_555 1_555
C43 C42 1_555 1_555
C44 C17 1_555 1_555
C45 C8 1_555 1_555
C46 C12 1_555 1_555
C47 C46 1_555 1_555
O3 C47 1_555 1_555
O4 C47 1_555 1_555
C48 O4 1_555 1_555
C49 C48 1_555 1_555
C50 C46 1_555 1_555
O5 C50 1_555 1_555
O6 C50 1_555 1_555
C51 O6 1_555 1_555
C52 C51 1_555 1_555
C53 C28 1_555 1_555
C54 C53 1_555 1_555
O7 C54 1_555 1_555
O8 C54 1_555 1_555
C55 O8 1_555 1_555
C56 C55 1_555 1_555
C59 C60 1_555 1_555
C60 C61 1_555 1_555
C61 H28 1_555 1_555
C62 C63 1_555 1_555
C63 H30 1_555 1_555
C64 C62 1_555 1_555
H1 C33 1_555 1_555
H2 C33 1_555 1_555
H3 C35 1_555 1_555
H4 C36 1_555 1_555
H5 C38 1_555 1_555
H6 C39 1_555 1_555
H7 C40 1_555 1_555
H8 C40 1_555 1_555
H9 C41 1_555 1_555
H10 C41 1_555 1_555
H11 C43 1_555 1_555
H12 C44 1_555 1_555
H13 C44 1_555 1_555
H14 C45 1_555 1_555
H15 C45 1_555 1_555
H16 C48 1_555 1_555
H17 C48 1_555 1_555
H18 C49 1_555 1_555
H19 C49 1_555 1_555
H20 C49 1_555 1_555
H21 C51 1_555 1_555
H22 C51 1_555 1_555
H23 C52 1_555 1_555
H24 C52 1_555 1_555
H25 C52 1_555 1_555
H26 C59 1_555 1_555
H27 C60 1_555 1_555
H29 C62 1_555 1_555
H31 C64 1_555 1_555
C1A C1 1_555 1_555
C3A C1A 1_555 1_555
C2A C3A 1_555 1_555
C7A C6 1_555 1_555
C6A C7 1_555 1_555
C24A C25 1_555 1_555
C15A C16 1_555 1_555
C14A C15A 1_555 1_555
C5A C6A 1_555 1_555
C4A C3A 1_555 1_555
C11A C4A 1_555 1_555
C10A C11A 1_555 1_555
C9A C2A 1_555 1_555
C8A C9A 1_555 1_555
C16A C15 1_555 1_555
C29A C30 1_555 1_555
C22A C29A 1_555 1_555
C21A C22A 1_555 1_555
C20A C21A 1_555 1_555
C12A C11A 1_555 1_555
C13A C14A 1_555 1_555
C23A C24A 1_555 1_555
C46A C12A 1_555 1_555
C47A C46A 1_555 1_555
O3A C47A 1_555 1_555
O4A C47A 1_555 1_555
C48A O4A 1_555 1_555
C49A C48A 1_555 1_555
H18A C49A 1_555 1_555
H19A C49A 1_555 1_555
H20A C49A 1_555 1_555
H16A C48A 1_555 1_555
H17A C48A 1_555 1_555
C50A C46A 1_555 1_555
O5A C50A 1_555 1_555
O6A C50A 1_555 1_555
C51A O6A 1_555 1_555
C52A C51A 1_555 1_555
H23A C52A 1_555 1_555
H24A C52A 1_555 1_555
H25A C52A 1_555 1_555
H21A C51A 1_555 1_555
H22A C51A 1_555 1_555
C19A C10A 1_555 1_555
C18A C19A 1_555 1_555
C17A C8A 1_555 1_555
C45A C8A 1_555 1_555
C42A C45A 1_555 1_555
C41A C42A 1_555 1_555
C40A C41A 1_555 1_555
C37A C40A 1_555 1_555
C36A C37A 1_555 1_555
C35A C36A 1_555 1_555
C34A C35A 1_555 1_555
C33A C34A 1_555 1_555
O2A C33A 1_555 1_555
C32A C31 1_555 1_555
O1A C32A 1_555 1_555
H1A C33A 1_555 1_555
H2A C33A 1_555 1_555
C39A C34A 1_555 1_555
C38A C37A 1_555 1_555
H5A C38A 1_555 1_555
H6A C39A 1_555 1_555
H3A C35A 1_555 1_555
H4A C36A 1_555 1_555
H7A C40A 1_555 1_555
H8A C40A 1_555 1_555
H9A C41A 1_555 1_555
H10A C41A 1_555 1_555
C43A C42A 1_555 1_555
C44A C17A 1_555 1_555
C25A C24 1_555 1_555
C30A C29 1_555 1_555
C26A C18A 1_555 1_555
C27A C21A 1_555 1_555
C28A C28 1_555 1_555
C54A C53 1_555 1_555
O7A C54A 1_555 1_555
O8A C54A 1_555 1_555
C55A O8A 1_555 1_555
C56A C55A 1_555 1_555
H12A C44A 1_555 1_555
H13A C44A 1_555 1_555
H11A C43A 1_555 1_555
H14A C45A 1_555 1_555
H15A C45A 1_555 1_555
C59A C59 1_555 1_555
C60A C59A 1_555 1_555
C61A C61 1_555 1_555
H28A C61A 1_555 1_555
H27A C60A 1_555 1_555
H26A C59A 1_555 1_555
C64D C63 1_555 1_555
C62D C64D 1_555 1_555
C63D C64 1_555 1_555
H30D C63D 1_555 1_555
H29D C62D 1_555 1_555
H31D C64D 1_555 1_555
C8 C16 1_555 1_555
C10 C11 1_555 1_555
C13 C14 1_555 1_555
C13 C46 1_555 1_555
C18 C19 1_555 1_555
C19 C20 1_555 1_555
C22 C23 1_555 1_555
C23 C24 1_555 1_555
C26 C27 1_555 1_555
C26 C30 1_555 1_555
C28 C29 1_555 1_555
C31 C1A 1_555 1_555
C38 C39 1_555 1_555
C42 C45 1_555 1_555
C43 C44 1_555 1_555
C53 C28A 1_555 1_555
C1A C6A 1_555 1_555
C2A C7A 1_555 1_555
C7A C16A 1_555 1_555
C24A C15A 1_555 1_555
C14A C5A 1_555 1_555
C5A C4A 1_555 1_555
C10A C9A 1_555 1_555
C8A C16A 1_555 1_555
C29A C28A 1_555 1_555
C22A C23A 1_555 1_555
C20A C12A 1_555 1_555
C20A C19A 1_555 1_555
C12A C13A 1_555 1_555
C13A C23A 1_555 1_555
C13A C46A 1_555 1_555
C18A C17A 1_555 1_555
C17A C25A 1_555 1_555
O2A C32A 1_555 1_555
C39A C38A 1_555 1_555
C43A C44A 1_555 1_555
C25A C30A 1_555 1_555
C30A C26A 1_555 1_555
C26A C27A 1_555 1_555
C27A C28A 1_555 1_555
C60A C61A 1_555 1_555
C62D C63D 1_555 1_555

#END
