
#######################################################################
#
#                 Cambridge Crystallographic Data Centre
#                                CCDC 
#
#######################################################################
#
# If this CIF has been generated from an entry in the Cambridge 
# Structural Database, then it will include bibliographic, chemical, 
# crystal, experimental, refinement or atomic coordinate data resulting 
# from the CCDC's data processing and validation procedures.
#
#######################################################################

data_ZALGUO
_chemical_formula_moiety         'C32 H32 As2 N2 O4'
_chemical_name_systematic        
(\m~2~-Calix(4)arene-25,26,27,28-tetraolato)-bis((dimethylamino)-arsenic)
_symmetry_cell_setting           monoclinic
_symmetry_space_group_name_H-M   'P 21/n'
_symmetry_Int_Tables_number      14
_space_group_name_Hall           '-P 2yn'
loop_
_symmetry_equiv_pos_site_id
_symmetry_equiv_pos_as_xyz
1 x,y,z
2 1/2-x,1/2+y,1/2-z
3 -x,-y,-z
4 1/2+x,1/2-y,1/2+z
_cell_length_a                   8.685(3)
_cell_length_b                   10.482(3)
_cell_length_c                   15.597(3)
_cell_angle_alpha                90
_cell_angle_beta                 101.37(2)
_cell_angle_gamma                90
_cell_volume                     1392.03
_exptl_crystal_colour            colorless
_chemical_melting_point          '316-318 deg.C'
_cell_formula_units_Z            2
_chemical_properties_physical    Air-sensitive
loop_
_atom_site_label
_atom_site_type_symbol
_atom_site_fract_x
_atom_site_fract_y
_atom_site_fract_z
As1 As 0.0898(1) 0.1387(1) 0.9901(1)
O1 O -0.0654(5) 0.1793(4) 0.8959(3)
O2 O 0.2205(5) 0.0521(4) 0.9320(3)
N1 N 0.1961(7) 0.2837(6) 0.9929(4)
C1 C 0.2047(12) 0.3667(9) 1.0678(5)
C2 C 0.2360(10) 0.3419(8) 0.9155(5)
C3 C -0.1733(8) 0.0885(7) 0.8579(5)
C4 C -0.3174(9) 0.0739(7) 0.8877(5)
C5 C -0.4228(9) -0.0169(8) 0.8488(5)
C6 C -0.3928(9) -0.0915(8) 0.7808(5)
C7 C -0.2545(9) -0.0748(7) 0.7514(5)
C8 C -0.1408(8) 0.0123(7) 0.7900(5)
C9 C 0.0183(9) 0.0153(8) 0.7653(5)
C10 C 0.1977(8) -0.0712(8) 0.9020(5)
C11 C 0.1124(8) -0.0917(7) 0.8162(5)
C12 C 0.1039(9) -0.2151(9) 0.7829(5)
C13 C 0.1727(10) -0.3174(8) 0.8316(5)
C14 C 0.2503(10) -0.2955(8) 0.9163(5)
C15 C 0.2652(8) -0.1738(7) 0.9527(5)
C16 C -0.3663(9) 0.1635(7) 0.9568(5)
H1 H -0.5190 -0.0292 0.8693
H2 H -0.4674 -0.1545 0.7543
H3 H -0.2351 -0.1248 0.7031
H4 H 0.0688 0.0959 0.7804
H5 H 0.0080 0.0007 0.7037
H6 H 0.0476 -0.2298 0.7243
H7 H 0.1673 -0.4017 0.8073
H8 H 0.2955 -0.3664 0.9513
H9 H -0.4728 0.1335 0.9453
H11 H 0.1778 0.3191 1.1154
H12 H 0.1320 0.4359 1.0527
H13 H 0.3092 0.4000 1.0851
H14 H 0.2278 0.2796 0.8697
H15 H 0.3412 0.3746 0.9290
H16 H 0.1640 0.4105 0.8966
C16B C 0.3663(9) -0.1635(7) 1.0432(5)
C15B C -0.2652(8) 0.1738(7) 1.0473(5)
C4B C 0.3174(9) -0.0739(7) 1.1123(5)
H9B H 0.4728 -0.1335 1.0547
C10B C -0.1977(8) 0.0712(8) 1.0980(5)
C14B C -0.2503(10) 0.2955(8) 1.0837(5)
C3B C 0.1733(8) -0.0885(7) 1.1421(5)
C5B C 0.4228(9) 0.0169(8) 1.1512(5)
O2B O -0.2205(5) -0.0521(4) 1.0680(3)
C11B C -0.1124(8) 0.0917(7) 1.1838(5)
C13B C -0.1727(10) 0.3174(8) 1.1684(5)
H8B H -0.2955 0.3664 1.0487
O1B O 0.0654(5) -0.1793(4) 1.1041(3)
C8B C 0.1408(8) -0.0123(7) 1.2100(5)
C6B C 0.3928(9) 0.0915(8) 1.2192(5)
H1B H 0.5190 0.0292 1.1307
As1B As -0.0898(1) -0.1387(1) 1.0099(1)
C9B C -0.0183(9) -0.0153(8) 1.2347(5)
C12B C -0.1039(9) 0.2151(9) 1.2171(5)
H7B H -0.1673 0.4017 1.1927
C7B C 0.2545(9) 0.0748(7) 1.2486(5)
H2B H 0.4674 0.1545 1.2457
N1B N -0.1961(7) -0.2837(6) 1.0071(4)
H4B H -0.0688 -0.0959 1.2196
H5B H -0.0080 -0.0007 1.2963
H6B H -0.0476 0.2298 1.2757
H3B H 0.2351 0.1248 1.2969
C1B C -0.2047(12) -0.3667(9) 0.9322(5)
C2B C -0.2360(10) -0.3419(8) 1.0845(5)
H11B H -0.1778 -0.3191 0.8846
H12B H -0.1320 -0.4359 0.9473
H13B H -0.3092 -0.4000 0.9149
H14B H -0.2278 -0.2796 1.1303
H15B H -0.3412 -0.3746 1.0710
H16B H -0.1640 -0.4105 1.1034
H10? H 0.3245 -0.1580 1.0957
loop_
_geom_bond_atom_site_label_1
_geom_bond_atom_site_label_2
_geom_bond_site_symmetry_1
_geom_bond_site_symmetry_2
As1 O1 1_555 1_555
O1 C3 1_555 1_555
O2 As1 1_555 1_555
N1 As1 1_555 1_555
C1 N1 1_555 1_555
C2 N1 1_555 1_555
C3 C4 1_555 1_555
C4 C5 1_555 1_555
C5 C6 1_555 1_555
C6 C7 1_555 1_555
C7 C8 1_555 1_555
C8 C3 1_555 1_555
C9 C8 1_555 1_555
C10 O2 1_555 1_555
C11 C9 1_555 1_555
C12 C11 1_555 1_555
C13 C12 1_555 1_555
C14 C13 1_555 1_555
C15 C10 1_555 1_555
C16 C4 1_555 1_555
H1 C5 1_555 1_555
H2 C6 1_555 1_555
H3 C7 1_555 1_555
H4 C9 1_555 1_555
H5 C9 1_555 1_555
H6 C12 1_555 1_555
H7 C13 1_555 1_555
H8 C14 1_555 1_555
H9 C16 1_555 1_555
H11 C1 1_555 1_555
H12 C1 1_555 1_555
H13 C1 1_555 1_555
H14 C2 1_555 1_555
H15 C2 1_555 1_555
H16 C2 1_555 1_555
C16B C15 1_555 1_555
C15B C16 1_555 1_555
C4B C16B 1_555 1_555
H9B C16B 1_555 1_555
C10B C15B 1_555 1_555
C14B C15B 1_555 1_555
C3B C4B 1_555 1_555
C5B C4B 1_555 1_555
O2B C10B 1_555 1_555
C11B C10B 1_555 1_555
C13B C14B 1_555 1_555
H8B C14B 1_555 1_555
O1B C3B 1_555 1_555
C8B C3B 1_555 1_555
C6B C5B 1_555 1_555
H1B C5B 1_555 1_555
As1B O2B 1_555 1_555
C9B C11B 1_555 1_555
C12B C11B 1_555 1_555
H7B C13B 1_555 1_555
C7B C8B 1_555 1_555
H2B C6B 1_555 1_555
N1B As1B 1_555 1_555
H4B C9B 1_555 1_555
H5B C9B 1_555 1_555
H6B C12B 1_555 1_555
H3B C7B 1_555 1_555
C1B N1B 1_555 1_555
C2B N1B 1_555 1_555
H11B C1B 1_555 1_555
H12B C1B 1_555 1_555
H13B C1B 1_555 1_555
H14B C2B 1_555 1_555
H15B C2B 1_555 1_555
H16B C2B 1_555 1_555
C10 C11 1_555 1_555
C14 C15 1_555 1_555
C13B C12B 1_555 1_555
O1B As1B 1_555 1_555
C8B C9B 1_555 1_555
C6B C7B 1_555 1_555

#END
