
#######################################################################
#
#                 Cambridge Crystallographic Data Centre
#                                CCDC 
#
#######################################################################
#
# If this CIF has been generated from an entry in the Cambridge 
# Structural Database, then it will include bibliographic, chemical, 
# crystal, experimental, refinement or atomic coordinate data resulting 
# from the CCDC's data processing and validation procedures.
#
#######################################################################

data_ZALHAV
_chemical_formula_moiety         'C44 H52 As2 O5,2(C6 H6)'
_chemical_name_systematic        
'(\m~2~-5,11,17,23-Tetra-t-butylcalix(4)arene-25,26,27,28-tetraolato)-(\m~2~-oxo)-di-arsenic benzene solvate'
_symmetry_cell_setting           monoclinic
_symmetry_space_group_name_H-M   'P 21/c'
_symmetry_Int_Tables_number      14
_space_group_name_Hall           '-P 2ybc'
loop_
_symmetry_equiv_pos_site_id
_symmetry_equiv_pos_as_xyz
1 x,y,z
2 -x,1/2+y,1/2-z
3 -x,-y,-z
4 x,1/2-y,1/2+z
_cell_length_a                   13.067(4)
_cell_length_b                   20.385(5)
_cell_length_c                   18.652(5)
_cell_angle_alpha                90
_cell_angle_beta                 96.90(2)
_cell_angle_gamma                90
_cell_volume                     4932.36
_exptl_crystal_colour            colorless
_cell_formula_units_Z            4
loop_
_atom_site_label
_atom_site_type_symbol
_atom_site_fract_x
_atom_site_fract_y
_atom_site_fract_z
As1 As 0.1099(1) 0.2472(1) 0.2638(1)
As2 As 0.3426(1) 0.1934(1) 0.3031(1)
O1 O 0.2083(6) 0.1906(4) 0.2958(4)
O2 O 0.1868(6) 0.3184(4) 0.2840(4)
O3 O 0.3672(6) 0.2552(4) 0.3723(4)
O4 O 0.3470(5) 0.2464(4) 0.2283(4)
O5 O 0.1257(6) 0.2453(4) 0.1686(4)
C1 C 0.1436(9) 0.3767(6) 0.3025(6)
C2 C 0.0663(9) 0.4055(6) 0.2537(6)
C3 C 0.0295(9) 0.4654(6) 0.2731(6)
C4 C 0.0685(10) 0.4982(6) 0.3378(7)
C5 C 0.1450(9) 0.4665(5) 0.3825(6)
C6 C 0.1835(9) 0.4066(5) 0.3651(6)
C7 C 0.2648(8) 0.3711(6) 0.4148(6)
C8 C 0.4150(9) 0.3149(6) 0.3617(6)
C9 C 0.3695(9) 0.3708(5) 0.3879(6)
C10 C 0.4233(9) 0.4279(6) 0.3879(6)
C11 C 0.5197(9) 0.4349(6) 0.3634(6)
C12 C 0.5571(10) 0.3777(6) 0.3355(6)
C13 C 0.5056(9) 0.3184(6) 0.3335(6)
C14 C 0.5542(9) 0.2609(6) 0.3001(6)
C15 C 0.4283(10) 0.2471(6) 0.1874(6)
C16 C 0.5261(9) 0.2551(6) 0.2174(6)
C17 C 0.6048(9) 0.2598(6) 0.1732(6)
C18 C 0.5809(9) 0.2567(6) 0.0985(6)
C19 C 0.4809(9) 0.2473(6) 0.0704(6)
C20 C 0.4030(9) 0.2416(6) 0.1132(6)
C21 C 0.2923(10) 0.2301(6) 0.0820(7)
C22 C 0.1503(9) 0.2995(6) 0.1292(6)
C23 C 0.2245(9) 0.2912(6) 0.0828(6)
C24 C 0.2382(9) 0.3423(5) 0.0339(6)
C25 C 0.1869(10) 0.4002(6) 0.0322(7)
C26 C 0.1175(9) 0.4065(6) 0.0840(6)
C27 C 0.0983(9) 0.3580(5) 0.1311(6)
C28 C 0.0229(9) 0.3724(6) 0.1848(6)
C29 C 0.0270(8) 0.5674(4) 0.3540(5)
C30 C 0.0726(11) 0.6140(8) 0.3061(8)
C31 C 0.0582(12) 0.5863(9) 0.4300(7)
C32 C -0.0865(10) 0.5702(8) 0.3388(8)
C33 C 0.5851(12) 0.4967(7) 0.3696(8)
C34 C 0.6755(12) 0.4852(7) 0.4278(8)
C35 C 0.5245(12) 0.5566(7) 0.3966(9)
C36 C 0.6246(12) 0.5138(8) 0.2993(8)
C37 C 0.6657(10) 0.2624(7) 0.0490(7)
C38 C 0.6360(11) 0.3152(8) -0.0104(8)
C39 C 0.7712(11) 0.2812(7) 0.0876(7)
C40 C 0.6754(12) 0.1958(8) 0.0117(8)
C41 C 0.1958(10) 0.4526(6) -0.0248(7)
C42 C 0.2980(11) 0.4491(8) -0.0533(8)
C43 C 0.1142(10) 0.4397(6) -0.0897(7)
C44 C 0.1808(12) 0.5209(6) 0.0027(7)
H1 H -0.0241 0.4863 0.2414
H2 H 0.1718 0.4873 0.4270
H3 H 0.2437 0.3264 0.4200
H4 H 0.2710 0.3913 0.4616
H5 H 0.3928 0.4661 0.4067
H6 H 0.6213 0.3801 0.3154
H7 H 0.5322 0.2215 0.3219
H8 H 0.6277 0.2641 0.3113
H9 H 0.6750 0.2651 0.1942
H10 H 0.4653 0.2442 0.0189
H11 H 0.2636 0.1963 0.1093
H12 H 0.2911 0.2150 0.0331
H13 H 0.2873 0.3359 0.0001
H14 H 0.0803 0.4470 0.0856
H15 H -0.0314 0.3993 0.1612
H16 H -0.0070 0.3317 0.1975
H17 H 0.1464 0.6140 0.3163
H18 H 0.0532 0.6014 0.2567
H19 H 0.0467 0.6571 0.3139
H20 H 0.1320 0.5836 0.4384
H21 H 0.0368 0.6304 0.4383
H22 H 0.0286 0.5571 0.4623
H23 H -0.1185 0.5402 0.3690
H24 H -0.1105 0.6139 0.3463
H25 H -0.1040 0.5581 0.2891
H26 H 0.6504 0.4757 0.4729
H27 H 0.7142 0.4484 0.4135
H28 H 0.7191 0.5232 0.4332
H29 H 0.5005 0.5468 0.4421
H30 H 0.5681 0.5946 0.4017
H31 H 0.4665 0.5650 0.3611
H32 H 0.6629 0.4770 0.2844
H33 H 0.5667 0.5221 0.2636
H34 H 0.6682 0.5518 0.3042
H35 H 0.6301 0.3570 0.0124
H36 H 0.6873 0.3177 -0.0430
H37 H 0.5708 0.3035 -0.0367
H38 H 0.7907 0.2485 0.1238
H39 H 0.8220 0.2832 0.0546
H40 H 0.7665 0.3232 0.1104
H41 H 0.6951 0.1636 0.0483
H42 H 0.6103 0.1837 -0.0145
H43 H 0.7268 0.1979 -0.0209
H44 H 0.3079 0.4062 -0.0727
H45 H 0.3016 0.4814 -0.0904
H46 H 0.3509 0.4576 -0.0141
H47 H 0.0469 0.4415 -0.0740
H48 H 0.1193 0.4723 -0.1262
H49 H 0.1252 0.3970 -0.1091
H50 H 0.1146 0.5235 0.0200
H51 H 0.2340 0.5292 0.0418
H52 H 0.1846 0.5530 -0.0346
C45 C 0.0611(17) 0.8249(8) 0.1120(13)
C46 C 0.1342(13) 0.7966(11) 0.1628(9)
C47 C 0.1500(13) 0.7327(11) 0.1638(10)
C48 C 0.0948(16) 0.6934(9) 0.1126(12)
C49 C 0.0231(16) 0.7196(12) 0.0636(10)
C50 C 0.0055(14) 0.7834(13) 0.0641(11)
H53 H 0.0479 0.8713 0.1106
H54 H 0.1758 0.8249 0.1955
H55 H 0.1960 0.7142 0.2025
H56 H 0.1098 0.6473 0.1120
H57 H -0.0146 0.6919 0.0281
H58 H -0.0473 0.8010 0.0292
C51 C 0.3484(20) 0.5518(15) 0.1890(14)
C52 C 0.4192(24) 0.5536(13) 0.1437(15)
C53 C 0.4567(16) 0.4941(16) 0.1244(10)
C54 C 0.4254(14) 0.4367(10) 0.1498(10)
C55 C 0.3521(16) 0.4390(10) 0.1977(9)
C56 C 0.3151(15) 0.4962(14) 0.2160(10)
H59 H 0.3214 0.5934 0.2017
H60 H 0.4451 0.5934 0.1252
H61 H 0.5076 0.4929 0.0913
H62 H 0.4514 0.3946 0.1375
H63 H 0.3255 0.3996 0.2168
H64 H 0.2641 0.4974 0.2489
loop_
_geom_bond_atom_site_label_1
_geom_bond_atom_site_label_2
_geom_bond_site_symmetry_1
_geom_bond_site_symmetry_2
As1 O1 1_555 1_555
As2 O1 1_555 1_555
O2 As1 1_555 1_555
O3 As2 1_555 1_555
O4 As2 1_555 1_555
O5 As1 1_555 1_555
C1 O2 1_555 1_555
C2 C1 1_555 1_555
C3 C2 1_555 1_555
C4 C3 1_555 1_555
C5 C4 1_555 1_555
C6 C1 1_555 1_555
C7 C6 1_555 1_555
C8 O3 1_555 1_555
C9 C7 1_555 1_555
C10 C9 1_555 1_555
C11 C10 1_555 1_555
C12 C11 1_555 1_555
C13 C8 1_555 1_555
C14 C13 1_555 1_555
C15 O4 1_555 1_555
C16 C14 1_555 1_555
C17 C16 1_555 1_555
C18 C17 1_555 1_555
C19 C18 1_555 1_555
C20 C15 1_555 1_555
C21 C20 1_555 1_555
C22 O5 1_555 1_555
C23 C21 1_555 1_555
C24 C23 1_555 1_555
C25 C24 1_555 1_555
C26 C25 1_555 1_555
C27 C22 1_555 1_555
C28 C2 1_555 1_555
C29 C4 1_555 1_555
C30 C29 1_555 1_555
C31 C29 1_555 1_555
C32 C29 1_555 1_555
C33 C11 1_555 1_555
C34 C33 1_555 1_555
C35 C33 1_555 1_555
C36 C33 1_555 1_555
C37 C18 1_555 1_555
C38 C37 1_555 1_555
C39 C37 1_555 1_555
C40 C37 1_555 1_555
C41 C25 1_555 1_555
C42 C41 1_555 1_555
C43 C41 1_555 1_555
C44 C41 1_555 1_555
C45 C46 1_555 1_555
C46 C47 1_555 1_555
C47 C48 1_555 1_555
C48 C49 1_555 1_555
C49 C50 1_555 1_555
C50 C45 1_555 1_555
C51 C52 1_555 1_555
C52 C53 1_555 1_555
C53 C54 1_555 1_555
C54 C55 1_555 1_555
C55 C56 1_555 1_555
C56 C51 1_555 1_555
H1 C3 1_555 1_555
H2 C5 1_555 1_555
H3 C7 1_555 1_555
H4 C7 1_555 1_555
H5 C10 1_555 1_555
H6 C12 1_555 1_555
H7 C14 1_555 1_555
H8 C14 1_555 1_555
H9 C17 1_555 1_555
H10 C19 1_555 1_555
H11 C21 1_555 1_555
H12 C21 1_555 1_555
H13 C24 1_555 1_555
H14 C26 1_555 1_555
H15 C28 1_555 1_555
H16 C28 1_555 1_555
H17 C30 1_555 1_555
H18 C30 1_555 1_555
H19 C30 1_555 1_555
H20 C31 1_555 1_555
H21 C31 1_555 1_555
H22 C31 1_555 1_555
H23 C32 1_555 1_555
H24 C32 1_555 1_555
H25 C32 1_555 1_555
H26 C34 1_555 1_555
H27 C34 1_555 1_555
H28 C34 1_555 1_555
H29 C35 1_555 1_555
H30 C35 1_555 1_555
H31 C35 1_555 1_555
H32 C36 1_555 1_555
H33 C36 1_555 1_555
H34 C36 1_555 1_555
H35 C38 1_555 1_555
H36 C38 1_555 1_555
H37 C38 1_555 1_555
H38 C39 1_555 1_555
H39 C39 1_555 1_555
H40 C39 1_555 1_555
H41 C40 1_555 1_555
H42 C40 1_555 1_555
H43 C40 1_555 1_555
H44 C42 1_555 1_555
H45 C42 1_555 1_555
H46 C42 1_555 1_555
H47 C43 1_555 1_555
H48 C43 1_555 1_555
H49 C43 1_555 1_555
H50 C44 1_555 1_555
H51 C44 1_555 1_555
H52 C44 1_555 1_555
H53 C45 1_555 1_555
H54 C46 1_555 1_555
H55 C47 1_555 1_555
H56 C48 1_555 1_555
H57 C49 1_555 1_555
H58 C50 1_555 1_555
H59 C51 1_555 1_555
H60 C52 1_555 1_555
H61 C53 1_555 1_555
H62 C54 1_555 1_555
H63 C55 1_555 1_555
H64 C56 1_555 1_555
C5 C6 1_555 1_555
C8 C9 1_555 1_555
C12 C13 1_555 1_555
C15 C16 1_555 1_555
C19 C20 1_555 1_555
C22 C23 1_555 1_555
C26 C27 1_555 1_555
C27 C28 1_555 1_555

#END
