
#######################################################################
#
#                 Cambridge Crystallographic Data Centre
#                                CCDC 
#
#######################################################################
#
# If this CIF has been generated from an entry in the Cambridge 
# Structural Database, then it will include bibliographic, chemical, 
# crystal, experimental, refinement or atomic coordinate data resulting 
# from the CCDC's data processing and validation procedures.
#
#######################################################################

data_ZALXES
_chemical_name_common            
5,11,17,23-tetra-t-butyl-2-(diphenylmethylene)pentacyclo[19.3.1.1$3,7!.1$9,13!.1$15,19!]octacosa-1(25),3(28),4,6,9(27),10,12,15(26),16,18,21,23-dodecaene-25,26,27,28-tetrol
_chemical_formula_moiety         'C57 H64 O4'
_chemical_name_systematic        
5,11,17,23-tetra-t-butyl-2-(diphenylmethylidene)-25,26,27,28-tetrahydroxycalix(4)arene
_symmetry_cell_setting           triclinic
_symmetry_space_group_name_H-M   'P -1'
_symmetry_Int_Tables_number      2
_space_group_name_Hall           '-P 1'
loop_
_symmetry_equiv_pos_site_id
_symmetry_equiv_pos_as_xyz
1 x,y,z
2 -x,-y,-z
_cell_length_a                   13.1645(11)
_cell_length_b                   13.4931(11)
_cell_length_c                   16.5697(14)
_cell_angle_alpha                93.874(5)
_cell_angle_beta                 103.459(5)
_cell_angle_gamma                111.906(5)
_cell_volume                     2616.6
_exptl_crystal_colour            white
_exptl_crystal_description       block
_cell_formula_units_Z            2
loop_
_atom_site_label
_atom_site_type_symbol
_atom_site_fract_x
_atom_site_fract_y
_atom_site_fract_z
O1 O 0.7444(4) 0.1395(4) 0.0367(3)
H1 H 0.6845 0.1313 0.0477
O2 O 0.5603(5) 0.0509(4) 0.0999(3)
H2 H 0.5683 -0.0062 0.0926
O3 O 0.7512(5) -0.0584(4) 0.0122(3)
H3 H 0.7568 0.0043 0.0146
O4 O 0.5710(5) -0.1411(4) 0.0749(3)
H4 H 0.6242 -0.1268 0.0539
C1 C 0.5963(7) -0.1815(7) 0.1487(5)
C2 C 0.5406(7) 0.0155(6) 0.2372(5)
C3 C 0.5825(7) 0.0849(6) 0.1849(5)
C4 C 0.8166(7) 0.2733(6) 0.1621(5)
C5 C 0.8345(7) 0.2057(6) 0.1029(5)
C6 C 0.9409(7) 0.2095(6) 0.1082(5)
C7 C 0.7006(7) 0.2705(6) 0.1598(5)
C8 C 0.6616(7) 0.3349(6) 0.1182(5)
C9 C 0.6444(7) 0.1951(6) 0.2150(5)
C10 C 0.5443(7) -0.1702(7) 0.2110(6)
C11 C 0.9605(7) 0.1310(6) 0.0487(5)
H5 H 0.9045 0.1131 -0.0056
H6 H 1.0355 0.1660 0.0405
C12 C 0.8474(7) -0.0609(6) 0.0655(5)
C13 C 0.8370(7) -0.1532(6) 0.1015(5)
C14 C 0.7306(7) 0.4012(6) 0.0659(5)
C15 C 0.5544(7) 0.3489(6) 0.1201(5)
C16 C 0.9514(7) 0.0285(6) 0.0831(5)
C17 C 0.9101(8) 0.3394(7) 0.2279(6)
H7 H 0.8995 0.3840 0.2676
C18 C 1.0328(8) 0.2773(7) 0.1754(6)
H8 H 1.1051 0.2794 0.1791
C19 C 0.5611(8) 0.0576(7) 0.3215(6)
H9 H 0.5345 0.0105 0.3575
C20 C 0.6653(7) -0.2380(7) 0.1548(6)
C21 C 1.0455(8) 0.0233(8) 0.1377(6)
H10 H 1.1149 0.0829 0.1505
C22 C 0.7236(7) -0.2480(7) 0.0867(6)
H11 H 0.7355 -0.3148 0.0862
H12 H 0.6743 -0.2516 0.0320
C23 C 0.4727(7) -0.1057(6) 0.2061(6)
H13 H 0.4194 -0.1330 0.2392
H14 H 0.4286 -0.1168 0.1481
C24 C 0.6634(8) 0.2355(8) 0.2995(6)
H15 H 0.7058 0.3091 0.3198
C25 C 0.5677(8) -0.2163(7) 0.2815(6)
H16 H 0.5352 -0.2090 0.3245
C26 C 1.0179(8) 0.3419(7) 0.2371(6)
C27 C 0.6861(8) -0.2827(8) 0.2272(6)
H17 H 0.7335 -0.3199 0.2328
C28 C 1.0405(8) -0.0668(8) 0.1738(6)
C29 C 0.7041(7) 0.3602(7) -0.0192(5)
H18 H 0.6419 0.2949 -0.0428
C30 C 0.5451(7) 0.4465(7) 0.1045(5)
H19 H 0.6043 0.4998 0.0906
C31 C 0.9351(8) -0.1529(8) 0.1553(6)
H20 H 0.9298 -0.2136 0.1804
C32 C 0.6204(8) 0.1682(7) 0.3536(6)
C33 C 0.6369(8) -0.2724(8) 0.2905(6)
C34 C 0.4650(7) 0.2732(7) 0.1394(5)
H21 H 0.4691 0.2081 0.1507
C35 C 0.8239(7) 0.4993(7) 0.1002(6)
H22 H 0.8428 0.5274 0.1571
C36 C 0.3651(7) 0.3921(6) 0.1304(5)
H23 H 0.3042 0.4077 0.1373
C37 C 0.3672(7) 0.2894(7) 0.1428(6)
H24 H 0.3054 0.2349 0.1529
C38 C 0.4497(7) 0.4655(7) 0.1091(6)
H25 H 0.4453 0.5304 0.0972
C39 C 1.1197(8) 0.4189(7) 0.3109(6)
C40 C 0.7690(7) 0.4151(7) -0.0684(6)
H26 H 0.7498 0.3874 -0.1254
C41 C 0.6576(8) -0.3267(8) 0.3703(6)
C42 C 1.1716(8) 0.5295(7) 0.2868(6)
H27 H 1.1236 0.5679 0.2896
H28 H 1.1781 0.5209 0.2305
H29 H 1.2458 0.5699 0.3251
C43 C 1.2133(8) 0.3725(7) 0.3343(6)
H30 H 1.2609 0.4054 0.3905
H31 H 1.2590 0.3881 0.2956
H32 H 1.1775 0.2954 0.3313
C44 C 0.7353(8) -0.3895(8) 0.3669(6)
H33 H 0.7315 -0.4340 0.4099
H34 H 0.8126 -0.3387 0.3761
H35 H 0.7097 -0.4345 0.3127
C45 C 1.0852(8) 0.4274(7) 0.3924(6)
H36 H 1.1522 0.4659 0.4385
H37 H 1.0457 0.3560 0.4031
H38 H 1.0361 0.4657 0.3868
C46 C 0.5419(8) -0.4073(8) 0.3771(6)
H39 H 0.4996 -0.4543 0.3239
H40 H 0.4996 -0.3680 0.3921
H41 H 0.5545 -0.4497 0.4196
C47 C 1.1421(8) -0.0719(8) 0.2392(6)
C48 C 0.6412(8) 0.2139(7) 0.4461(6)
C49 C 0.6120(8) 0.3128(7) 0.4531(6)
H42 H 0.5413 0.2987 0.4120
H43 H 0.6715 0.3743 0.4433
H44 H 0.6047 0.3277 0.5085
C50 C 0.5975(8) 0.1380(7) 0.4994(6)
H45 H 0.6069 0.1769 0.5532
H46 H 0.6385 0.0919 0.5070
H47 H 0.5181 0.0945 0.4736
C51 C 1.2542(8) 0.0117(8) 0.2344(6)
H48 H 1.2697 -0.0083 0.1833
H49 H 1.3142 0.0154 0.2819
H50 H 1.2499 0.0813 0.2350
C52 C 0.7779(8) 0.2628(7) 0.4907(6)
H51 H 0.7925 0.2809 0.5505
H52 H 0.8150 0.3266 0.4689
H53 H 0.8071 0.2095 0.4790
C53 C 1.1554(8) -0.1762(8) 0.2163(6)
H54 H 1.2306 -0.1691 0.2455
H55 H 1.1443 -0.1905 0.1567
H56 H 1.0999 -0.2350 0.2324
C54 C 1.1204(8) -0.0618(8) 0.3271(6)
H57 H 1.1828 -0.0010 0.3643
H58 H 1.1140 -0.1268 0.3497
H59 H 1.0510 -0.0514 0.3215
C55 C 0.8884(8) 0.5550(7) 0.0501(6)
H60 H 0.9490 0.6216 0.0725
C56 C 0.8618(7) 0.5103(7) -0.0343(6)
H61 H 0.9073 0.5454 -0.0676
C57 C 0.7037(8) -0.2455(8) 0.4465(6)
H62 H 0.7088 -0.2804 0.4950
H63 H 0.6543 -0.2081 0.4470
H64 H 0.7782 -0.1944 0.4478
loop_
_geom_bond_atom_site_label_1
_geom_bond_atom_site_label_2
_geom_bond_site_symmetry_1
_geom_bond_site_symmetry_2
O1 H1 1_555 1_555
O2 H2 1_555 1_555
O3 H3 1_555 1_555
O4 H4 1_555 1_555
C1 O4 1_555 1_555
C2 C3 1_555 1_555
C3 O2 1_555 1_555
C4 C5 1_555 1_555
C5 O1 1_555 1_555
C6 C5 1_555 1_555
C7 C4 1_555 1_555
C8 C7 1_555 1_555
C9 C3 1_555 1_555
C10 C1 1_555 1_555
C11 C6 1_555 1_555
H5 C11 1_555 1_555
H6 C11 1_555 1_555
C12 O3 1_555 1_555
C13 C12 1_555 1_555
C14 C8 1_555 1_555
C15 C8 1_555 1_555
C16 C11 1_555 1_555
C17 C4 1_555 1_555
H7 C17 1_555 1_555
C18 C6 1_555 1_555
H8 C18 1_555 1_555
C19 C2 1_555 1_555
H9 C19 1_555 1_555
C20 C1 1_555 1_555
C21 C16 1_555 1_555
H10 C21 1_555 1_555
C22 C13 1_555 1_555
H11 C22 1_555 1_555
H12 C22 1_555 1_555
C23 C2 1_555 1_555
H13 C23 1_555 1_555
H14 C23 1_555 1_555
C24 C9 1_555 1_555
H15 C24 1_555 1_555
C25 C10 1_555 1_555
H16 C25 1_555 1_555
C26 C17 1_555 1_555
C27 C20 1_555 1_555
H17 C27 1_555 1_555
C28 C21 1_555 1_555
C29 C14 1_555 1_555
H18 C29 1_555 1_555
C30 C15 1_555 1_555
H19 C30 1_555 1_555
C31 C13 1_555 1_555
H20 C31 1_555 1_555
C32 C19 1_555 1_555
C33 C25 1_555 1_555
C34 C15 1_555 1_555
H21 C34 1_555 1_555
C35 C14 1_555 1_555
H22 C35 1_555 1_555
C36 H23 1_555 1_555
C37 C34 1_555 1_555
H24 C37 1_555 1_555
C38 C30 1_555 1_555
H25 C38 1_555 1_555
C39 C26 1_555 1_555
C40 C29 1_555 1_555
H26 C40 1_555 1_555
C41 C33 1_555 1_555
C42 C39 1_555 1_555
H27 C42 1_555 1_555
H28 C42 1_555 1_555
H29 C42 1_555 1_555
C43 C39 1_555 1_555
H30 C43 1_555 1_555
H31 C43 1_555 1_555
H32 C43 1_555 1_555
C44 C41 1_555 1_555
H33 C44 1_555 1_555
H34 C44 1_555 1_555
H35 C44 1_555 1_555
C45 C39 1_555 1_555
H36 C45 1_555 1_555
H37 C45 1_555 1_555
H38 C45 1_555 1_555
C46 C41 1_555 1_555
H39 C46 1_555 1_555
H40 C46 1_555 1_555
H41 C46 1_555 1_555
C47 C28 1_555 1_555
C48 C32 1_555 1_555
C49 C48 1_555 1_555
H42 C49 1_555 1_555
H43 C49 1_555 1_555
H44 C49 1_555 1_555
C50 C48 1_555 1_555
H45 C50 1_555 1_555
H46 C50 1_555 1_555
H47 C50 1_555 1_555
C51 C47 1_555 1_555
H48 C51 1_555 1_555
H49 C51 1_555 1_555
H50 C51 1_555 1_555
C52 C48 1_555 1_555
H51 C52 1_555 1_555
H52 C52 1_555 1_555
H53 C52 1_555 1_555
C53 C47 1_555 1_555
H54 C53 1_555 1_555
H55 C53 1_555 1_555
H56 C53 1_555 1_555
C54 C47 1_555 1_555
H57 C54 1_555 1_555
H58 C54 1_555 1_555
H59 C54 1_555 1_555
C55 C35 1_555 1_555
H60 C55 1_555 1_555
C56 C40 1_555 1_555
H61 C56 1_555 1_555
C57 C41 1_555 1_555
H62 C57 1_555 1_555
H63 C57 1_555 1_555
H64 C57 1_555 1_555
C7 C9 1_555 1_555
C10 C23 1_555 1_555
C12 C16 1_555 1_555
C18 C26 1_555 1_555
C20 C22 1_555 1_555
C24 C32 1_555 1_555
C27 C33 1_555 1_555
C28 C31 1_555 1_555
C36 C37 1_555 1_555
C36 C38 1_555 1_555
C55 C56 1_555 1_555

#END
