
#######################################################################
#
#                 Cambridge Crystallographic Data Centre
#                                CCDC 
#
#######################################################################
#
# If this CIF has been generated from an entry in the Cambridge 
# Structural Database, then it will include bibliographic, chemical, 
# crystal, experimental, refinement or atomic coordinate data resulting 
# from the CCDC's data processing and validation procedures.
#
#######################################################################

data_ZALYIU
_chemical_formula_moiety         'C17 H14'
_chemical_name_systematic        
trans-Acenaphtho(5,6-a)bicyclo(2.2.1)hept-2-ene
_symmetry_cell_setting           monoclinic
_symmetry_space_group_name_H-M   'P 21/c'
_symmetry_Int_Tables_number      14
_space_group_name_Hall           '-P 2ybc'
loop_
_symmetry_equiv_pos_site_id
_symmetry_equiv_pos_as_xyz
1 x,y,z
2 -x,1/2+y,1/2-z
3 -x,-y,-z
4 x,1/2-y,1/2+z
_cell_length_a                   17.049
_cell_length_b                   9.687
_cell_length_c                   14.209
_cell_angle_alpha                90
_cell_angle_beta                 91.85
_cell_angle_gamma                90
_cell_volume                     2345.45
_exptl_crystal_colour            colorless
_cell_formula_units_Z            8
loop_
_atom_site_label
_atom_site_type_symbol
_atom_site_fract_x
_atom_site_fract_y
_atom_site_fract_z
C1 C 0.09214(11) -0.34321(19) 0.07810(14)
H1 H 0.06901(11) -0.39836(19) 0.12601(14)
C2 C 0.17856(12) -0.31095(20) 0.09306(15)
H2 H 0.20780(12) -0.31323(20) 0.15192(15)
C3 C 0.20683(11) -0.27925(20) 0.00993(15)
H3 H 0.25993(11) -0.25303(20) -0.00182(15)
C4 C 0.14050(11) -0.29018(19) -0.06268(14)
H4 H 0.15563(11) -0.30319(19) -0.12657(14)
C5 C 0.08369(10) -0.16619(18) -0.04465(12)
H5 H 0.04251(10) -0.16296(18) -0.09230(12)
C6 C 0.04994(10) -0.20327(18) 0.05434(12)
H6 H -0.00587(10) -0.21609(18) 0.04934(12)
C7 C 0.09221(12) -0.40777(20) -0.02077(14)
H7 H 0.11858(12) -0.49528(20) -0.02197(14)
H8 H 0.04059(12) -0.41567(20) -0.04930(14)
C8 C 0.06959(10) -0.07981(19) 0.11581(12)
C9 C 0.10975(10) 0.01838(18) 0.06183(12)
C10 C 0.12037(10) -0.02533(18) -0.03170(12)
C11 C 0.15889(11) 0.06049(19) -0.09141(13)
H9 H 0.16698(11) 0.03296(19) -0.15527(13)
C12 C 0.18615(11) 0.19033(19) -0.05746(13)
H10 H 0.21305(11) 0.25043(19) -0.09937(13)
C13 C 0.17519(10) 0.23354(19) 0.03329(13)
H11 H 0.19460(10) 0.32175(19) 0.05421(13)
C14 C 0.13575(10) 0.14718(18) 0.09701(12)
C15 C 0.11910(11) 0.17557(21) 0.19253(13)
H12 H 0.13497(11) 0.26163(21) 0.22071(13)
C16 C 0.08074(11) 0.07940(21) 0.24549(13)
H13 H 0.07051(11) 0.10009(21) 0.31002(13)
C17 C 0.05515(11) -0.04962(20) 0.20797(13)
H14 H 0.02859(11) -0.11487(20) 0.24658(13)
C18 C 0.35993(10) -0.60173(19) 0.29984(12)
H15 H 0.33329(10) -0.61304(19) 0.35784(12)
C19 C 0.37930(10) -0.45451(19) 0.27316(13)
H16 H 0.38397(10) -0.37714(19) 0.31519(13)
C20 C 0.38895(11) -0.45107(19) 0.18069(13)
H17 H 0.40126(11) -0.37133(19) 0.14387(13)
C21 C 0.37702(11) -0.59654(19) 0.14358(13)
H18 H 0.36408(11) -0.60409(19) 0.07753(13)
C22 C 0.44907(10) -0.68374(18) 0.18002(12)
H19 H 0.44717(10) -0.77459(18) 0.15306(12)
C23 C 0.43609(10) -0.68992(18) 0.28933(12)
H20 H 0.42744(10) -0.78324(18) 0.30923(12)
C24 C 0.31388(11) -0.64753(20) 0.21027(13)
H21 H 0.26489(11) -0.59971(20) 0.20134(13)
H22 H 0.30577(11) -0.74550(20) 0.20691(13)
C25 C 0.51105(10) -0.63431(17) 0.33390(12)
C26 C 0.56301(10) -0.59883(17) 0.26266(12)
C27 C 0.53017(11) -0.62259(17) 0.17115(12)
C28 C 0.57497(11) -0.59225(19) 0.09523(13)
H23 H 0.55411(11) -0.60486(19) 0.03225(13)
C29 C 0.65251(12) -0.54170(19) 0.11156(13)
H24 H 0.68378(12) -0.52095(19) 0.05838(13)
C30 C 0.68464(11) -0.52202(19) 0.20047(13)
H25 H 0.73751(11) -0.48889(19) 0.20835(13)
C31 C 0.63938(10) -0.54871(18) 0.28035(13)
C32 C 0.66300(11) -0.53328(19) 0.37658(13)
H26 H 0.71432(11) -0.49806(19) 0.39273(13)
C33 C 0.61213(11) -0.56615(19) 0.44611(13)
H27 H 0.62946(11) -0.55472(19) 0.51059(13)
C34 C 0.53564(11) -0.61784(18) 0.42640(12)
H28 H 0.50124(11) -0.64062(18) 0.47627(12)
loop_
_geom_bond_atom_site_label_1
_geom_bond_atom_site_label_2
_geom_bond_site_symmetry_1
_geom_bond_site_symmetry_2
C1 H1 1_555 1_555
C2 C1 1_555 1_555
H2 C2 1_555 1_555
C3 C2 1_555 1_555
H3 C3 1_555 1_555
C4 C3 1_555 1_555
H4 C4 1_555 1_555
C5 C4 1_555 1_555
H5 C5 1_555 1_555
C6 C1 1_555 1_555
H6 C6 1_555 1_555
C7 C1 1_555 1_555
H7 C7 1_555 1_555
H8 C7 1_555 1_555
C8 C6 1_555 1_555
C9 C8 1_555 1_555
C10 C5 1_555 1_555
C11 C10 1_555 1_555
H9 C11 1_555 1_555
C12 C11 1_555 1_555
H10 C12 1_555 1_555
C13 C12 1_555 1_555
H11 C13 1_555 1_555
C14 C9 1_555 1_555
C15 C14 1_555 1_555
H12 C15 1_555 1_555
C16 C15 1_555 1_555
H13 C16 1_555 1_555
C17 C8 1_555 1_555
H14 C17 1_555 1_555
C18 H15 1_555 1_555
C19 C18 1_555 1_555
H16 C19 1_555 1_555
C20 C19 1_555 1_555
H17 C20 1_555 1_555
C21 C20 1_555 1_555
H18 C21 1_555 1_555
C22 C21 1_555 1_555
H19 C22 1_555 1_555
C23 C18 1_555 1_555
H20 C23 1_555 1_555
C24 C18 1_555 1_555
H21 C24 1_555 1_555
H22 C24 1_555 1_555
C25 C23 1_555 1_555
C26 C25 1_555 1_555
C27 C22 1_555 1_555
C28 C27 1_555 1_555
H23 C28 1_555 1_555
C29 C28 1_555 1_555
H24 C29 1_555 1_555
C30 C29 1_555 1_555
H25 C30 1_555 1_555
C31 C26 1_555 1_555
C32 C31 1_555 1_555
H26 C32 1_555 1_555
C33 C32 1_555 1_555
H27 C33 1_555 1_555
C34 C25 1_555 1_555
H28 C34 1_555 1_555
C4 C7 1_555 1_555
C5 C6 1_555 1_555
C9 C10 1_555 1_555
C13 C14 1_555 1_555
C16 C17 1_555 1_555
C21 C24 1_555 1_555
C22 C23 1_555 1_555
C26 C27 1_555 1_555
C30 C31 1_555 1_555
C33 C34 1_555 1_555

#END
