
#######################################################################
#
#                 Cambridge Crystallographic Data Centre
#                                CCDC 
#
#######################################################################
#
# If this CIF has been generated from an entry in the Cambridge 
# Structural Database, then it will include bibliographic, chemical, 
# crystal, experimental, refinement or atomic coordinate data resulting 
# from the CCDC's data processing and validation procedures.
#
#######################################################################

data_ZAMDUP
_chemical_formula_moiety         'C96 H116 O8 Si4,5(C1 H1 Cl3)'
_chemical_name_systematic        
'(53,54,61,62-tetraoxatridecacyclo[40.6.2.2^2,5^.2^14,17^.2^18,25^.2^26,29^.2^38,41^.1^6,9^.1^10,13^.1^30,33^.1^34,37^.0^19,24^.0^43,48^]tetrahexaconta-1(49),2,4,6,8,10,12,14,16,18(58),19(24),20,22,25(57),26,28,30,32,34,36,38,40,42(50),43(48),44,46,51,55,59,63-triacontaene-20,23,44,47-tetrayltetrakis(oxy))tetrakis(triisopropylsilane) chloroform solvate'
_symmetry_cell_setting           orthorhombic
_symmetry_space_group_name_H-M   'C m c 21'
_symmetry_Int_Tables_number      36
_space_group_name_Hall           'C 2n -2'
loop_
_symmetry_equiv_pos_site_id
_symmetry_equiv_pos_as_xyz
1 x,y,z
2 -x,-y,1/2+z
3 x,-y,1/2+z
4 -x,y,z
5 1/2+x,1/2+y,z
6 1/2-x,1/2-y,1/2+z
7 1/2+x,1/2-y,1/2+z
8 1/2-x,1/2+y,z
_cell_length_a                   32.8975(15)
_cell_length_b                   19.4563(9)
_cell_length_c                   17.0894(8)
_cell_angle_alpha                90
_cell_angle_beta                 90
_cell_angle_gamma                90
_cell_volume                     10938.3
_exptl_crystal_colour            'light yellow'
_exptl_crystal_description       irregular
_cell_formula_units_Z            4
loop_
_atom_site_label
_atom_site_type_symbol
_atom_site_fract_x
_atom_site_fract_y
_atom_site_fract_z
Si1 Si 0.11791(4) 0.04525(6) 0.94418(8)
Si2 Si 0.11886(4) 0.36433(7) 0.34545(8)
O1 O 0.19427(9) 0.42732(15) 0.71264(19)
O2 O 0.19390(8) 0.36368(16) 0.8428(2)
O3 O 0.08382(10) 0.10775(16) 0.9460(2)
O4 O 0.08420(9) 0.37104(15) 0.41538(18)
C1 C 0.08574(14) 0.2429(2) 0.9888(3)
C2 C 0.11433(15) 0.2612(2) 1.0428(3)
H1 H 0.1086 0.2553 1.0969
C3 C 0.15192(15) 0.2884(2) 1.0203(3)
H2 H 0.1717 0.2992 1.0588
C4 C 0.16025(14) 0.2996(2) 0.9418(3)
C5 C 0.13132(16) 0.2809(3) 0.8855(3)
H3 H 0.1367 0.2877 0.8315
C6 C 0.09461(16) 0.2522(3) 0.9094(3)
H4 H 0.0752 0.2386 0.8712
C7 C 0.19754(15) 0.3331(2) 0.9150(3)
C8 C 0.23588(16) 0.3418(3) 0.9421(3)
H5 H 0.2466 0.3256 0.9903
C9 C 0.25727(15) 0.3809(3) 0.8828(3)
H6 H 0.2849 0.3948 0.8846
C10 C 0.23080(13) 0.3936(2) 0.8252(3)
C11 C 0.23030(13) 0.4319(2) 0.7526(3)
C12 C 0.25586(14) 0.4752(3) 0.7154(3)
H7 H 0.2828 0.4867 0.7303
C13 C 0.23367(16) 0.5006(3) 0.6478(3)
H8 H 0.2434 0.5325 0.6101
C14 C 0.19680(15) 0.4708(2) 0.6484(3)
C15 C 0.15932(14) 0.4730(2) 0.6021(3)
C16 C 0.15058(15) 0.5276(2) 0.5520(3)
H9 H 0.17 0.5631 0.5449
C17 C 0.11406(15) 0.5308(2) 0.5126(3)
H10 H 0.1083 0.5691 0.48
C18 C 0.08564(14) 0.4785(2) 0.5200(3)
C19 C 0.09518(15) 0.4219(2) 0.5682(3)
H11 H 0.0767 0.3846 0.5724
C20 C 0.13116(15) 0.4204(2) 0.6093(3)
H12 H 0.1368 0.3827 0.643
C21 C 0.09693(17) -0.0348(3) 0.9927(3)
H13 H 0.0795 -0.058 0.9526
C22 C 0.0697(2) -0.0204(3) 1.0613(4)
H14 H 0.058 -0.0636 1.0803
H15 H 0.0478 0.0107 1.0451
H16 H 0.0856 0.0012 1.1032
C23 C 0.1296(2) -0.0858(3) 1.0141(4)
H17 H 0.1464 -0.067 1.0564
H18 H 0.1468 -0.0948 0.9682
H19 H 0.117 -0.1289 1.0314
C24 C 0.16168(16) 0.0864(3) 0.9988(4)
H20 H 0.1636 0.1343 0.9779
C25 C 0.15319(19) 0.0943(3) 1.0847(4)
H21 H 0.1529 0.0489 1.1095
H22 H 0.1267 0.1164 1.0919
H23 H 0.1744 0.1227 1.1087
C26 C 0.2021(2) 0.0563(4) 0.9868(6)
H24 H 0.2218 0.0793 1.021
H25 H 0.2102 0.0623 0.9321
H26 H 0.2012 0.0072 0.9994
C27 C 0.1359(2) 0.0273(3) 0.8409(3)
H27 H 0.1622 0.0017 0.8463
C28 C 0.1098(3) -0.0158(5) 0.7931(4)
H28 H 0.084 0.0079 0.7836
H29 H 0.1046 -0.0592 0.8204
H30 H 0.1232 -0.0253 0.743
C29 C 0.1463(5) 0.0937(5) 0.8003(5)
H31 H 0.1633 0.0841 0.7545
H32 H 0.1611 0.1237 0.8365
H33 H 0.1212 0.1165 0.7835
C30 C 0.16720(15) 0.3901(3) 0.3980(3)
H34 H 0.1595 0.4298 0.4319
C31 C 0.18273(17) 0.3360(3) 0.4527(4)
H35 H 0.1976 0.301 0.4229
H36 H 0.1598 0.3145 0.4799
H37 H 0.201 0.3571 0.4911
C32 C 0.19973(17) 0.4172(4) 0.3434(4)
H38 H 0.224 0.4293 0.3738
H39 H 0.1896 0.4581 0.3163
H40 H 0.2067 0.3817 0.305
C33 C 0.11966(16) 0.2742(3) 0.3060(3)
H41 H 0.0946 0.2693 0.2735
C34 C 0.1177(2) 0.2176(3) 0.3668(5)
H42 H 0.1099 0.1743 0.3415
H43 H 0.0974 0.2295 0.4066
H44 H 0.1443 0.2123 0.3915
C35 C 0.15545(19) 0.2620(4) 0.2505(4)
H45 H 0.1809 0.2617 0.2804
H46 H 0.1564 0.2987 0.2113
H47 H 0.152 0.2176 0.2242
C36 C 0.10661(17) 0.4277(3) 0.2659(3)
H48 H 0.1308 0.4282 0.2304
C37 C 0.0708(2) 0.4086(4) 0.2154(4)
H49 H 0.0456 0.4138 0.2455
H50 H 0.0735 0.3607 0.1983
H51 H 0.0699 0.4387 0.1695
C38 C 0.1028(2) 0.5003(3) 0.2984(4)
H52 H 0.096 0.532 0.2559
H53 H 0.1287 0.514 0.3221
H54 H 0.0813 0.5015 0.3381
C39 C 0.04331(14) 0.2232(2) 1.0092(3)
C40 C 0.02167(15) 0.2670(2) 1.0552(3)
H55 H 0.0358 0.2983 1.0881
C41 C 0.02205(14) 0.1670(2) 0.9719(3)
C42 C 0.04251(14) 0.1108(2) 0.9376(3)
C43 C 0.02153(16) 0.0609(3) 0.8996(3)
H56 H 0.0358 0.0256 0.8728
C44 C 0.04298(14) 0.4827(2) 0.4896(3)
C45 C 0.02155(16) 0.5407(2) 0.5071(3)
H57 H 0.0357 0.5818 0.5195
C46 C 0.02179(14) 0.4255(2) 0.4542(2)
C47 C 0.04287(14) 0.3704(2) 0.4170(3)
C48 C 0.02081(15) 0.3182(2) 0.3825(3)
H58 H 0.0349 0.2814 0.3581
Si1C Si -0.11791(4) 0.04525(6) 0.94418(8)
Si2C Si -0.11886(4) 0.36433(7) 0.34545(8)
O1C O -0.19427(9) 0.42732(15) 0.71264(19)
O2C O -0.19390(8) 0.36368(16) 0.8428(2)
O3C O -0.08382(10) 0.10775(16) 0.9460(2)
O4C O -0.08420(9) 0.37104(15) 0.41538(18)
C1C C -0.08574(14) 0.2429(2) 0.9888(3)
C2C C -0.11433(15) 0.2612(2) 1.0428(3)
H1C H -0.1086 0.2553 1.0969
C3C C -0.15192(15) 0.2884(2) 1.0203(3)
H2C H -0.1717 0.2992 1.0588
C4C C -0.16025(14) 0.2996(2) 0.9418(3)
C5C C -0.13132(16) 0.2809(3) 0.8855(3)
H3C H -0.1367 0.2877 0.8315
C6C C -0.09461(16) 0.2522(3) 0.9094(3)
H4C H -0.0752 0.2386 0.8712
C7C C -0.19754(15) 0.3331(2) 0.9150(3)
C8C C -0.23588(16) 0.3418(3) 0.9421(3)
H5C H -0.2466 0.3256 0.9903
C9C C -0.25727(15) 0.3809(3) 0.8828(3)
H6C H -0.2849 0.3948 0.8846
C10C C -0.23080(13) 0.3936(2) 0.8252(3)
C11C C -0.23030(13) 0.4319(2) 0.7526(3)
C12C C -0.25586(14) 0.4752(3) 0.7154(3)
H7C H -0.2828 0.4867 0.7303
C13C C -0.23367(16) 0.5006(3) 0.6478(3)
H8C H -0.2434 0.5325 0.6101
C14C C -0.19680(15) 0.4708(2) 0.6484(3)
C15C C -0.15932(14) 0.4730(2) 0.6021(3)
C16C C -0.15058(15) 0.5276(2) 0.5520(3)
H9C H -0.17 0.5631 0.5449
C17C C -0.11406(15) 0.5308(2) 0.5126(3)
H10C H -0.1083 0.5691 0.48
C18C C -0.08564(14) 0.4785(2) 0.5200(3)
C19C C -0.09518(15) 0.4219(2) 0.5682(3)
H11C H -0.0767 0.3846 0.5724
C20C C -0.13116(15) 0.4204(2) 0.6093(3)
H12C H -0.1368 0.3827 0.643
C21C C -0.09693(17) -0.0348(3) 0.9927(3)
H13C H -0.0795 -0.058 0.9526
C22C C -0.0697(2) -0.0204(3) 1.0613(4)
H14C H -0.058 -0.0636 1.0803
H15C H -0.0478 0.0107 1.0451
H16C H -0.0856 0.0012 1.1032
C23C C -0.1296(2) -0.0858(3) 1.0141(4)
H17C H -0.1464 -0.067 1.0564
H18C H -0.1468 -0.0948 0.9682
H19C H -0.117 -0.1289 1.0314
C24C C -0.16168(16) 0.0864(3) 0.9988(4)
H20C H -0.1636 0.1343 0.9779
C25C C -0.15319(19) 0.0943(3) 1.0847(4)
H21C H -0.1529 0.0489 1.1095
H22C H -0.1267 0.1164 1.0919
H23C H -0.1744 0.1227 1.1087
C26C C -0.2021(2) 0.0563(4) 0.9868(6)
H24C H -0.2218 0.0793 1.021
H25C H -0.2102 0.0623 0.9321
H26C H -0.2012 0.0072 0.9994
C27C C -0.1359(2) 0.0273(3) 0.8409(3)
H27C H -0.1622 0.0017 0.8463
C28C C -0.1098(3) -0.0158(5) 0.7931(4)
H28C H -0.084 0.0079 0.7836
H29C H -0.1046 -0.0592 0.8204
H30C H -0.1232 -0.0253 0.743
C29C C -0.1463(5) 0.0937(5) 0.8003(5)
H31C H -0.1633 0.0841 0.7545
H32C H -0.1611 0.1237 0.8365
H33C H -0.1212 0.1165 0.7835
C30C C -0.16720(15) 0.3901(3) 0.3980(3)
H34C H -0.1595 0.4298 0.4319
C31C C -0.18273(17) 0.3360(3) 0.4527(4)
H35C H -0.1976 0.301 0.4229
H36C H -0.1598 0.3145 0.4799
H37C H -0.201 0.3571 0.4911
C32C C -0.19973(17) 0.4172(4) 0.3434(4)
H38C H -0.224 0.4293 0.3738
H39C H -0.1896 0.4581 0.3163
H40C H -0.2067 0.3817 0.305
C33C C -0.11966(16) 0.2742(3) 0.3060(3)
H41C H -0.0946 0.2693 0.2735
C34C C -0.1177(2) 0.2176(3) 0.3668(5)
H42C H -0.1099 0.1743 0.3415
H43C H -0.0974 0.2295 0.4066
H44C H -0.1443 0.2123 0.3915
C35C C -0.15545(19) 0.2620(4) 0.2505(4)
H45C H -0.1809 0.2617 0.2804
H46C H -0.1564 0.2987 0.2113
H47C H -0.152 0.2176 0.2242
C36C C -0.10661(17) 0.4277(3) 0.2659(3)
H48C H -0.1308 0.4282 0.2304
C37C C -0.0708(2) 0.4086(4) 0.2154(4)
H49C H -0.0456 0.4138 0.2455
H50C H -0.0735 0.3607 0.1983
H51C H -0.0699 0.4387 0.1695
C38C C -0.1028(2) 0.5003(3) 0.2984(4)
H52C H -0.096 0.532 0.2559
H53C H -0.1287 0.514 0.3221
H54C H -0.0813 0.5015 0.3381
C39C C -0.04331(14) 0.2232(2) 1.0092(3)
C40C C -0.02167(15) 0.2670(2) 1.0552(3)
H55C H -0.0358 0.2983 1.0881
C41C C -0.02205(14) 0.1670(2) 0.9719(3)
C42C C -0.04251(14) 0.1108(2) 0.9376(3)
C43C C -0.02153(16) 0.0609(3) 0.8996(3)
H56C H -0.0358 0.0256 0.8728
C44C C -0.04298(14) 0.4827(2) 0.4896(3)
C45C C -0.02155(16) 0.5407(2) 0.5071(3)
H57C H -0.0357 0.5818 0.5195
C46C C -0.02179(14) 0.4255(2) 0.4542(2)
C47C C -0.04287(14) 0.3704(2) 0.4170(3)
C48C C -0.02081(15) 0.3182(2) 0.3825(3)
H58C H -0.0349 0.2814 0.3581
Cl1 Cl 0.27350(7) 0.28403(12) 0.26678(14)
Cl2 Cl 0.32275(9) 0.28858(13) 0.12826(15)
Cl3 Cl 0.24784(6) 0.21224(10) 0.12694(11)
C49 C 0.2877(2) 0.2440(3) 0.1823(4)
H59 H 0.3026 0.202 0.2002
Cl4 Cl 0.04457(8) 0.15976(11) 0.22112(15)
Cl5 Cl 0.000 0.03276(11) 0.21254(14)
C50 C 0.000 0.1214(4) 0.1879(5)
H60 H 0.000 0.1246 0.1295
Cl4C Cl -0.04457(8) 0.15976(11) 0.22112(15)
loop_
_geom_bond_atom_site_label_1
_geom_bond_atom_site_label_2
_geom_bond_site_symmetry_1
_geom_bond_site_symmetry_2
Si1 O3 1_555 1_555
Si2 O4 1_555 1_555
O1 C11 1_555 1_555
O2 C7 1_555 1_555
O3 C42 1_555 1_555
O4 C47 1_555 1_555
C1 C2 1_555 1_555
C2 H1 1_555 1_555
C3 C2 1_555 1_555
H2 C3 1_555 1_555
C4 C3 1_555 1_555
C5 C4 1_555 1_555
H3 C5 1_555 1_555
C6 C1 1_555 1_555
H4 C6 1_555 1_555
C7 C4 1_555 1_555
C8 C7 1_555 1_555
H5 C8 1_555 1_555
C9 C8 1_555 1_555
H6 C9 1_555 1_555
C10 O2 1_555 1_555
C11 C10 1_555 1_555
C12 C11 1_555 1_555
H7 C12 1_555 1_555
C13 C12 1_555 1_555
H8 C13 1_555 1_555
C14 O1 1_555 1_555
C15 C14 1_555 1_555
C16 C15 1_555 1_555
H9 C16 1_555 1_555
C17 C16 1_555 1_555
H10 C17 1_555 1_555
C18 C17 1_555 1_555
C19 C18 1_555 1_555
H11 C19 1_555 1_555
C20 C15 1_555 1_555
H12 C20 1_555 1_555
C21 Si1 1_555 1_555
H13 C21 1_555 1_555
C22 C21 1_555 1_555
H14 C22 1_555 1_555
H15 C22 1_555 1_555
H16 C22 1_555 1_555
C23 C21 1_555 1_555
H17 C23 1_555 1_555
H18 C23 1_555 1_555
H19 C23 1_555 1_555
C24 Si1 1_555 1_555
H20 C24 1_555 1_555
C25 C24 1_555 1_555
H21 C25 1_555 1_555
H22 C25 1_555 1_555
H23 C25 1_555 1_555
C26 C24 1_555 1_555
H24 C26 1_555 1_555
H25 C26 1_555 1_555
H26 C26 1_555 1_555
C27 Si1 1_555 1_555
H27 C27 1_555 1_555
C28 C27 1_555 1_555
H28 C28 1_555 1_555
H29 C28 1_555 1_555
H30 C28 1_555 1_555
C29 C27 1_555 1_555
H31 C29 1_555 1_555
H32 C29 1_555 1_555
H33 C29 1_555 1_555
C30 Si2 1_555 1_555
H34 C30 1_555 1_555
C31 C30 1_555 1_555
H35 C31 1_555 1_555
H36 C31 1_555 1_555
H37 C31 1_555 1_555
C32 C30 1_555 1_555
H38 C32 1_555 1_555
H39 C32 1_555 1_555
H40 C32 1_555 1_555
C33 Si2 1_555 1_555
H41 C33 1_555 1_555
C34 C33 1_555 1_555
H42 C34 1_555 1_555
H43 C34 1_555 1_555
H44 C34 1_555 1_555
C35 C33 1_555 1_555
H45 C35 1_555 1_555
H46 C35 1_555 1_555
H47 C35 1_555 1_555
C36 Si2 1_555 1_555
H48 C36 1_555 1_555
C37 C36 1_555 1_555
H49 C37 1_555 1_555
H50 C37 1_555 1_555
H51 C37 1_555 1_555
C38 C36 1_555 1_555
H52 C38 1_555 1_555
H53 C38 1_555 1_555
H54 C38 1_555 1_555
C39 C1 1_555 1_555
C40 C39 1_555 1_555
H55 C40 1_555 1_555
C41 C39 1_555 1_555
C42 C41 1_555 1_555
C43 C42 1_555 1_555
H56 C43 1_555 1_555
C44 C18 1_555 1_555
C45 C44 1_555 1_555
H57 C45 1_555 1_555
C46 C44 1_555 1_555
C47 C46 1_555 1_555
C48 C47 1_555 1_555
H58 C48 1_555 1_555
Cl1 C49 1_555 1_555
Cl2 C49 1_555 1_555
Cl3 C49 1_555 1_555
C49 H59 1_555 1_555
Cl4 C50 1_555 1_555
Cl5 C50 1_555 1_555
C50 H60 1_555 1_555
Si1C O3C 1_555 1_555
Si2C O4C 1_555 1_555
O1C C11C 1_555 1_555
O2C C7C 1_555 1_555
O3C C42C 1_555 1_555
O4C C47C 1_555 1_555
C1C C2C 1_555 1_555
C2C H1C 1_555 1_555
C3C C2C 1_555 1_555
H2C C3C 1_555 1_555
C4C C3C 1_555 1_555
C5C C4C 1_555 1_555
H3C C5C 1_555 1_555
C6C C1C 1_555 1_555
H4C C6C 1_555 1_555
C7C C4C 1_555 1_555
C8C C7C 1_555 1_555
H5C C8C 1_555 1_555
C9C C8C 1_555 1_555
H6C C9C 1_555 1_555
C10C O2C 1_555 1_555
C11C C10C 1_555 1_555
C12C C11C 1_555 1_555
H7C C12C 1_555 1_555
C13C C12C 1_555 1_555
H8C C13C 1_555 1_555
C14C O1C 1_555 1_555
C15C C14C 1_555 1_555
C16C C15C 1_555 1_555
H9C C16C 1_555 1_555
C17C C16C 1_555 1_555
H10C C17C 1_555 1_555
C18C C17C 1_555 1_555
C19C C18C 1_555 1_555
H11C C19C 1_555 1_555
C20C C15C 1_555 1_555
H12C C20C 1_555 1_555
C21C Si1C 1_555 1_555
H13C C21C 1_555 1_555
C22C C21C 1_555 1_555
H14C C22C 1_555 1_555
H15C C22C 1_555 1_555
H16C C22C 1_555 1_555
C23C C21C 1_555 1_555
H17C C23C 1_555 1_555
H18C C23C 1_555 1_555
H19C C23C 1_555 1_555
C24C Si1C 1_555 1_555
H20C C24C 1_555 1_555
C25C C24C 1_555 1_555
H21C C25C 1_555 1_555
H22C C25C 1_555 1_555
H23C C25C 1_555 1_555
C26C C24C 1_555 1_555
H24C C26C 1_555 1_555
H25C C26C 1_555 1_555
H26C C26C 1_555 1_555
C27C Si1C 1_555 1_555
H27C C27C 1_555 1_555
C28C C27C 1_555 1_555
H28C C28C 1_555 1_555
H29C C28C 1_555 1_555
H30C C28C 1_555 1_555
C29C C27C 1_555 1_555
H31C C29C 1_555 1_555
H32C C29C 1_555 1_555
H33C C29C 1_555 1_555
C30C Si2C 1_555 1_555
H34C C30C 1_555 1_555
C31C C30C 1_555 1_555
H35C C31C 1_555 1_555
H36C C31C 1_555 1_555
H37C C31C 1_555 1_555
C32C C30C 1_555 1_555
H38C C32C 1_555 1_555
H39C C32C 1_555 1_555
H40C C32C 1_555 1_555
C33C Si2C 1_555 1_555
H41C C33C 1_555 1_555
C34C C33C 1_555 1_555
H42C C34C 1_555 1_555
H43C C34C 1_555 1_555
H44C C34C 1_555 1_555
C35C C33C 1_555 1_555
H45C C35C 1_555 1_555
H46C C35C 1_555 1_555
H47C C35C 1_555 1_555
C36C Si2C 1_555 1_555
H48C C36C 1_555 1_555
C37C C36C 1_555 1_555
H49C C37C 1_555 1_555
H50C C37C 1_555 1_555
H51C C37C 1_555 1_555
C38C C36C 1_555 1_555
H52C C38C 1_555 1_555
H53C C38C 1_555 1_555
H54C C38C 1_555 1_555
C39C C1C 1_555 1_555
C40C C40 1_555 1_555
H55C C40C 1_555 1_555
C41C C41 1_555 1_555
C42C C41C 1_555 1_555
C43C C43 1_555 1_555
H56C C43C 1_555 1_555
C44C C18C 1_555 1_555
C45C C45 1_555 1_555
H57C C45C 1_555 1_555
C46C C46 1_555 1_555
C47C C46C 1_555 1_555
C48C C48 1_555 1_555
H58C C48C 1_555 1_555
Cl4C C50 1_555 1_555
C5 C6 1_555 1_555
C9 C10 1_555 1_555
C13 C14 1_555 1_555
C19 C20 1_555 1_555
C5C C6C 1_555 1_555
C9C C10C 1_555 1_555
C13C C14C 1_555 1_555
C19C C20C 1_555 1_555
C39C C40C 1_555 1_555
C39C C41C 1_555 1_555
C42C C43C 1_555 1_555
C44C C45C 1_555 1_555
C44C C46C 1_555 1_555
C47C C48C 1_555 1_555

#END
