
#######################################################################
#
#                 Cambridge Crystallographic Data Centre
#                                CCDC 
#
#######################################################################
#
# If this CIF has been generated from an entry in the Cambridge 
# Structural Database, then it will include bibliographic, chemical, 
# crystal, experimental, refinement or atomic coordinate data resulting 
# from the CCDC's data processing and validation procedures.
#
#######################################################################

data_ZAMDEZ
_chemical_formula_moiety         'C40 H56 Br2 O2 Si2'
_chemical_name_systematic        
((5,8-bis(4-bromophenyl)-5,8-dihydronaphthalene-1,4-diyl)bis(oxy))bis(triisopropylsilane)
_symmetry_cell_setting           orthorhombic
_symmetry_space_group_name_H-M   'P 21 21 21'
_symmetry_Int_Tables_number      19
_space_group_name_Hall           'P 2ac 2ab'
loop_
_symmetry_equiv_pos_site_id
_symmetry_equiv_pos_as_xyz
1 x,y,z
2 1/2-x,-y,1/2+z
3 -x,1/2+y,1/2-z
4 1/2+x,1/2-y,-z
_cell_length_a                   14.9169(6)
_cell_length_b                   18.4373(8)
_cell_length_c                   28.4266(12)
_cell_angle_alpha                90
_cell_angle_beta                 90
_cell_angle_gamma                90
_cell_volume                     7818.09
_exptl_crystal_colour            colorless
_exptl_crystal_description       parallelepiped
_cell_formula_units_Z            8
loop_
_atom_site_label
_atom_site_type_symbol
_atom_site_fract_x
_atom_site_fract_y
_atom_site_fract_z
Br1 Br 1.25772(2) 0.85986(2) 0.76772(2)
Br2 Br 0.80604(3) 0.54554(2) 0.72114(2)
Si1 Si 0.99323(6) 1.12366(4) 0.59293(3)
Si2 Si 0.60568(5) 0.86471(4) 0.61309(3)
O1 O 0.99856(13) 1.03983(10) 0.61539(7)
O2 O 0.71455(12) 0.84801(9) 0.62114(6)
C1 C 0.92794(18) 0.99176(15) 0.61924(10)
C2 C 0.93991(18) 0.92074(15) 0.60292(9)
C3 C 1.03193(19) 0.89639(16) 0.58622(10)
H1 H 1.0581 0.936 0.5665
C4 C 1.0271(2) 0.82868(16) 0.55684(10)
H2 H 1.0779 0.8162 0.5384
C5 C 0.95655(19) 0.78547(16) 0.55513(10)
H3 H 0.9604 0.7434 0.5359
C6 C 0.87045(18) 0.79815(15) 0.58152(9)
H4 H 0.8209 0.7956 0.5579
C7 C 0.86642(18) 0.87333(14) 0.60332(9)
C8 C 0.78446(18) 0.89656(14) 0.62185(9)
C9 C 0.77550(19) 0.96575(15) 0.64016(10)
H5 H 0.7203 0.9806 0.6537
C10 C 0.84720(19) 1.01300(15) 0.63866(10)
H6 H 0.841 1.0606 0.6511
C11 C 0.9008(2) 1.12638(16) 0.54823(11)
H7 H 0.8451 1.1116 0.5653
C12 C 0.8816(3) 1.2020(2) 0.52771(13)
H8 H 0.9312 1.2165 0.5072
H9 H 0.8755 1.2371 0.5534
H10 H 0.8259 1.2005 0.5095
C13 C 0.9137(3) 1.0709(2) 0.50893(12)
H11 H 0.8623 1.0727 0.4875
H12 H 0.9184 1.0222 0.5226
H13 H 0.9687 1.0822 0.4915
C14 C 0.9744(2) 1.19236(17) 0.64129(12)
H14 H 1.0003 1.2391 0.6296
C15 C 1.0255(3) 1.1737(3) 0.68633(13)
H15 H 1.0151 1.2115 0.7099
H16 H 1.0897 1.1705 0.6794
H17 H 1.0043 1.127 0.6985
C16 C 0.8768(3) 1.2087(2) 0.65456(14)
H18 H 0.8513 1.1671 0.6713
H19 H 0.8419 1.218 0.626
H20 H 0.8747 1.2516 0.6749
C17 C 1.1074(2) 1.13411(17) 0.56603(11)
H21 H 1.1178 1.0892 0.5471
C18 C 1.1163(3) 1.1978(2) 0.53154(13)
H22 H 1.1014 1.2431 0.5477
H23 H 1.0752 1.1906 0.505
H24 H 1.1781 1.2002 0.5198
C19 C 1.1841(2) 1.1376(2) 0.60170(13)
H25 H 1.2415 1.1318 0.5853
H26 H 1.177 1.0986 0.6248
H27 H 1.1829 1.1845 0.6178
C20 C 0.5573(2) 0.77224(16) 0.60260(10)
H28 H 0.4908 0.7777 0.6
C21 C 0.5764(2) 0.72046(16) 0.64372(11)
H29 H 0.5534 0.6721 0.6362
H30 H 0.5469 0.7386 0.6722
H31 H 0.6413 0.7177 0.6491
C22 C 0.5908(2) 0.73739(17) 0.55694(11)
H32 H 0.656 0.7314 0.5585
H33 H 0.5754 0.7686 0.5302
H34 H 0.5624 0.6899 0.5529
C23 C 0.5945(2) 0.92880(16) 0.56172(10)
H35 H 0.6049 0.9786 0.5745
C24 C 0.6646(2) 0.91762(19) 0.52241(11)
H36 H 0.6585 0.8686 0.5094
H37 H 0.7249 0.9237 0.5354
H38 H 0.6548 0.9534 0.4974
C25 C 0.4993(2) 0.9290(2) 0.54125(13)
H39 H 0.4959 0.9642 0.5155
H40 H 0.4564 0.9424 0.5659
H41 H 0.4848 0.8805 0.5293
C26 C 0.5556(2) 0.90705(15) 0.66765(10)
H42 H 0.5621 0.9607 0.6639
C27 C 0.4547(2) 0.89203(17) 0.67261(12)
H43 H 0.445 0.84 0.6773
H44 H 0.4237 0.9078 0.644
H45 H 0.4311 0.9188 0.6997
C28 C 0.6051(2) 0.88688(17) 0.71307(10)
H46 H 0.5772 0.9119 0.7397
H47 H 0.6681 0.9016 0.7106
H48 H 0.6017 0.8343 0.7179
C29 C 1.09324(18) 0.88467(15) 0.62871(10)
C30 C 1.1600(2) 0.93417(16) 0.64014(10)
H49 H 1.1712 0.974 0.6198
C31 C 1.2106(2) 0.92642(15) 0.68088(10)
H50 H 1.2557 0.9608 0.6885
C32 C 1.19448(19) 0.86839(15) 0.71001(9)
C33 C 1.1317(2) 0.81636(15) 0.69855(11)
H51 H 1.1226 0.7755 0.7184
C34 C 1.0822(2) 0.82462(15) 0.65781(11)
H52 H 1.0397 0.7885 0.6495
C35 C 0.85423(18) 0.73683(15) 0.61653(10)
C36 C 0.86335(19) 0.74644(16) 0.66458(10)
H53 H 0.88 0.7928 0.6763
C37 C 0.8488(2) 0.69033(16) 0.69581(11)
H54 H 0.8553 0.6979 0.7287
C38 C 0.8248(2) 0.62334(16) 0.67859(12)
C39 C 0.8154(2) 0.61153(16) 0.63085(12)
H55 H 0.7992 0.565 0.6193
C40 C 0.8300(2) 0.66830(16) 0.60032(11)
H56 H 0.8234 0.6606 0.5675
Br3 Br 1.28809(2) -0.00015(2) 0.50861(2)
Br4 Br 0.79471(2) -0.29339(2) 0.45823(2)
Si3 Si 1.00730(5) 0.29935(4) 0.35599(3)
Si4 Si 0.61191(5) 0.03403(4) 0.34311(3)
O3 O 0.99819(13) 0.21473(10) 0.37632(7)
O4 O 0.71145(13) 0.02479(10) 0.36955(6)
C41 C 0.92671(19) 0.16676(15) 0.37758(10)
C42 C 0.93944(19) 0.09683(15) 0.35935(9)
C43 C 1.03276(19) 0.07404(15) 0.34328(10)
H57 H 1.0592 0.115 0.3249
C44 C 1.0305(2) 0.00820(16) 0.31208(10)
H58 H 1.0822 -0.0026 0.2939
C45 C 0.96073(19) -0.03530(16) 0.30862(10)
H59 H 0.9666 -0.0769 0.2891
C46 C 0.87218(19) -0.02411(14) 0.33333(10)
H60 H 0.8249 -0.0249 0.3084
C47 C 0.86608(18) 0.04941(15) 0.35684(9)
C48 C 0.78243(19) 0.07175(14) 0.37366(9)
C49 C 0.77278(18) 0.13924(15) 0.39488(9)
H61 H 0.7168 0.1529 0.4081
C50 C 0.84480(19) 0.18662(15) 0.39671(10)
H62 H 0.838 0.2328 0.4111
C51 C 0.8967(2) 0.33419(15) 0.33306(10)
H63 H 0.855 0.3332 0.3606
C52 C 0.9034(2) 0.41447(16) 0.31857(12)
H64 H 0.9428 0.419 0.2911
H65 H 0.928 0.4428 0.3447
H66 H 0.8436 0.4327 0.3106
C53 C 0.8496(2) 0.29080(18) 0.29446(11)
H67 H 0.7861 0.3044 0.2934
H68 H 0.8548 0.2389 0.3012
H69 H 0.8776 0.3014 0.264
C54 C 1.0446(2) 0.35726(17) 0.40647(10)
H70 H 1.0583 0.4064 0.3935
C55 C 1.1312(2) 0.32866(19) 0.42932(11)
H71 H 1.1492 0.3612 0.4549
H72 H 1.179 0.3267 0.4057
H73 H 1.1206 0.2799 0.4419
C56 C 0.9711(2) 0.3669(2) 0.44328(11)
H74 H 0.9551 0.3195 0.4565
H75 H 0.9181 0.3887 0.4285
H76 H 0.9928 0.3987 0.4685
C57 C 1.0995(2) 0.29567(16) 0.31075(10)
H77 H 1.1452 0.2606 0.3229
C58 C 1.0661(2) 0.26499(16) 0.26355(10)
H78 H 1.0249 0.2997 0.2489
H79 H 1.0349 0.219 0.269
H80 H 1.1174 0.2568 0.2426
C59 C 1.1488(2) 0.36790(17) 0.30281(11)
H81 H 1.198 0.3605 0.2805
H82 H 1.173 0.3854 0.3328
H83 H 1.1068 0.4038 0.2901
C60 C 0.6317(2) 0.06813(18) 0.28141(10)
H84 H 0.6751 0.0336 0.2666
C61 C 0.6761(3) 0.1428(2) 0.27967(11)
H85 H 0.6892 0.1555 0.2469
H86 H 0.732 0.1417 0.2978
H87 H 0.6355 0.179 0.2932
C62 C 0.5474(3) 0.0674(2) 0.25006(12)
H88 H 0.5075 0.1071 0.2594
H89 H 0.5161 0.021 0.2538
H90 H 0.565 0.0737 0.2171
C63 C 0.5634(2) -0.05988(16) 0.34242(12)
H91 H 0.4975 -0.0545 0.3369
C64 C 0.5746(2) -0.09934(17) 0.38971(13)
H92 H 0.5504 -0.1486 0.3871
H93 H 0.542 -0.0729 0.4143
H94 H 0.6383 -0.1017 0.3979
C65 C 0.5996(3) -0.10713(18) 0.30270(13)
H95 H 0.6641 -0.1148 0.3072
H96 H 0.5894 -0.0829 0.2725
H97 H 0.5687 -0.154 0.3029
C66 C 0.5403(2) 0.09849(16) 0.37792(11)
H98 H 0.5646 0.1482 0.372
C67 C 0.5439(3) 0.08676(19) 0.43136(11)
H99 H 0.5177 0.1288 0.4473
H100 H 0.6065 0.081 0.4413
H101 H 0.51 0.043 0.4396
C68 C 0.4427(2) 0.0995(2) 0.36186(14)
H102 H 0.4151 0.0523 0.3682
H103 H 0.4401 0.1096 0.328
H104 H 0.4101 0.1374 0.379
C69 C 1.09399(18) 0.05895(15) 0.38515(10)
C70 C 1.1639(2) 0.10502(17) 0.39731(11)
H105 H 1.1727 0.1486 0.3801
C71 C 1.2212(2) 0.08841(17) 0.43433(11)
H106 H 1.269 0.1201 0.4423
C72 C 1.2076(2) 0.02537(16) 0.45928(10)
C73 C 1.1387(2) -0.02103(17) 0.44854(11)
H107 H 1.1294 -0.0639 0.4664
C74 C 1.0831(2) -0.00432(16) 0.41133(11)
H108 H 1.0361 -0.0368 0.4033
C75 C 0.85312(19) -0.08867(15) 0.36583(10)
C76 C 0.85962(19) -0.08504(15) 0.41445(10)
H109 H 0.8754 -0.0404 0.429
C77 C 0.84343(19) -0.14545(16) 0.44221(10)
H110 H 0.8492 -0.1426 0.4754
C78 C 0.81885(18) -0.20987(16) 0.42099(10)
C79 C 0.81108(19) -0.21542(15) 0.37272(10)
H111 H 0.7941 -0.2599 0.3584
C80 C 0.82868(19) -0.15452(15) 0.34558(10)
H112 H 0.8239 -0.1578 0.3123
loop_
_geom_bond_atom_site_label_1
_geom_bond_atom_site_label_2
_geom_bond_site_symmetry_1
_geom_bond_site_symmetry_2
Br1 C32 1_555 1_555
Br2 C38 1_555 1_555
Si1 O1 1_555 1_555
Si2 O2 1_555 1_555
O1 C1 1_555 1_555
O2 C8 1_555 1_555
C1 C2 1_555 1_555
C2 C3 1_555 1_555
C3 H1 1_555 1_555
C4 C3 1_555 1_555
H2 C4 1_555 1_555
C5 C4 1_555 1_555
H3 C5 1_555 1_555
C6 C5 1_555 1_555
H4 C6 1_555 1_555
C7 C2 1_555 1_555
C8 C7 1_555 1_555
C9 C8 1_555 1_555
H5 C9 1_555 1_555
C10 C1 1_555 1_555
H6 C10 1_555 1_555
C11 Si1 1_555 1_555
H7 C11 1_555 1_555
C12 C11 1_555 1_555
H8 C12 1_555 1_555
H9 C12 1_555 1_555
H10 C12 1_555 1_555
C13 C11 1_555 1_555
H11 C13 1_555 1_555
H12 C13 1_555 1_555
H13 C13 1_555 1_555
C14 Si1 1_555 1_555
H14 C14 1_555 1_555
C15 C14 1_555 1_555
H15 C15 1_555 1_555
H16 C15 1_555 1_555
H17 C15 1_555 1_555
C16 C14 1_555 1_555
H18 C16 1_555 1_555
H19 C16 1_555 1_555
H20 C16 1_555 1_555
C17 Si1 1_555 1_555
H21 C17 1_555 1_555
C18 C17 1_555 1_555
H22 C18 1_555 1_555
H23 C18 1_555 1_555
H24 C18 1_555 1_555
C19 C17 1_555 1_555
H25 C19 1_555 1_555
H26 C19 1_555 1_555
H27 C19 1_555 1_555
C20 Si2 1_555 1_555
H28 C20 1_555 1_555
C21 C20 1_555 1_555
H29 C21 1_555 1_555
H30 C21 1_555 1_555
H31 C21 1_555 1_555
C22 C20 1_555 1_555
H32 C22 1_555 1_555
H33 C22 1_555 1_555
H34 C22 1_555 1_555
C23 Si2 1_555 1_555
H35 C23 1_555 1_555
C24 C23 1_555 1_555
H36 C24 1_555 1_555
H37 C24 1_555 1_555
H38 C24 1_555 1_555
C25 C23 1_555 1_555
H39 C25 1_555 1_555
H40 C25 1_555 1_555
H41 C25 1_555 1_555
C26 Si2 1_555 1_555
H42 C26 1_555 1_555
C27 C26 1_555 1_555
H43 C27 1_555 1_555
H44 C27 1_555 1_555
H45 C27 1_555 1_555
C28 C26 1_555 1_555
H46 C28 1_555 1_555
H47 C28 1_555 1_555
H48 C28 1_555 1_555
C29 C3 1_555 1_555
C30 C29 1_555 1_555
H49 C30 1_555 1_555
C31 C30 1_555 1_555
H50 C31 1_555 1_555
C32 C31 1_555 1_555
C33 C32 1_555 1_555
H51 C33 1_555 1_555
C34 C29 1_555 1_555
H52 C34 1_555 1_555
C35 C6 1_555 1_555
C36 C35 1_555 1_555
H53 C36 1_555 1_555
C37 C36 1_555 1_555
H54 C37 1_555 1_555
C38 C37 1_555 1_555
C39 C38 1_555 1_555
H55 C39 1_555 1_555
C40 C35 1_555 1_555
H56 C40 1_555 1_555
Br3 C72 1_555 1_555
Br4 C78 1_555 1_555
Si3 O3 1_555 1_555
Si4 O4 1_555 1_555
O3 C41 1_555 1_555
O4 C48 1_555 1_555
C41 C42 1_555 1_555
C42 C43 1_555 1_555
C43 H57 1_555 1_555
C44 C43 1_555 1_555
H58 C44 1_555 1_555
C45 C44 1_555 1_555
H59 C45 1_555 1_555
C46 C45 1_555 1_555
H60 C46 1_555 1_555
C47 C42 1_555 1_555
C48 C47 1_555 1_555
C49 C48 1_555 1_555
H61 C49 1_555 1_555
C50 C41 1_555 1_555
H62 C50 1_555 1_555
C51 Si3 1_555 1_555
H63 C51 1_555 1_555
C52 C51 1_555 1_555
H64 C52 1_555 1_555
H65 C52 1_555 1_555
H66 C52 1_555 1_555
C53 C51 1_555 1_555
H67 C53 1_555 1_555
H68 C53 1_555 1_555
H69 C53 1_555 1_555
C54 Si3 1_555 1_555
H70 C54 1_555 1_555
C55 C54 1_555 1_555
H71 C55 1_555 1_555
H72 C55 1_555 1_555
H73 C55 1_555 1_555
C56 C54 1_555 1_555
H74 C56 1_555 1_555
H75 C56 1_555 1_555
H76 C56 1_555 1_555
C57 Si3 1_555 1_555
H77 C57 1_555 1_555
C58 C57 1_555 1_555
H78 C58 1_555 1_555
H79 C58 1_555 1_555
H80 C58 1_555 1_555
C59 C57 1_555 1_555
H81 C59 1_555 1_555
H82 C59 1_555 1_555
H83 C59 1_555 1_555
C60 Si4 1_555 1_555
H84 C60 1_555 1_555
C61 C60 1_555 1_555
H85 C61 1_555 1_555
H86 C61 1_555 1_555
H87 C61 1_555 1_555
C62 C60 1_555 1_555
H88 C62 1_555 1_555
H89 C62 1_555 1_555
H90 C62 1_555 1_555
C63 Si4 1_555 1_555
H91 C63 1_555 1_555
C64 C63 1_555 1_555
H92 C64 1_555 1_555
H93 C64 1_555 1_555
H94 C64 1_555 1_555
C65 C63 1_555 1_555
H95 C65 1_555 1_555
H96 C65 1_555 1_555
H97 C65 1_555 1_555
C66 Si4 1_555 1_555
H98 C66 1_555 1_555
C67 C66 1_555 1_555
H99 C67 1_555 1_555
H100 C67 1_555 1_555
H101 C67 1_555 1_555
C68 C66 1_555 1_555
H102 C68 1_555 1_555
H103 C68 1_555 1_555
H104 C68 1_555 1_555
C69 C43 1_555 1_555
C70 C69 1_555 1_555
H105 C70 1_555 1_555
C71 C70 1_555 1_555
H106 C71 1_555 1_555
C72 C71 1_555 1_555
C73 C72 1_555 1_555
H107 C73 1_555 1_555
C74 C69 1_555 1_555
H108 C74 1_555 1_555
C75 C46 1_555 1_555
C76 C75 1_555 1_555
H109 C76 1_555 1_555
C77 C76 1_555 1_555
H110 C77 1_555 1_555
C78 C77 1_555 1_555
C79 C78 1_555 1_555
H111 C79 1_555 1_555
C80 C75 1_555 1_555
H112 C80 1_555 1_555
C6 C7 1_555 1_555
C9 C10 1_555 1_555
C33 C34 1_555 1_555
C39 C40 1_555 1_555
C46 C47 1_555 1_555
C49 C50 1_555 1_555
C73 C74 1_555 1_555
C79 C80 1_555 1_555

#END
