
#######################################################################
#
#                 Cambridge Crystallographic Data Centre
#                                CCDC 
#
#######################################################################
#
# If this CIF has been generated from an entry in the Cambridge 
# Structural Database, then it will include bibliographic, chemical, 
# crystal, experimental, refinement or atomic coordinate data resulting 
# from the CCDC's data processing and validation procedures.
#
#######################################################################

data_ZAMKUT
_chemical_formula_moiety         'C13 H9 Cl1 N4 O1'
_chemical_name_systematic        
2-(4-Chloroanilino)-5-(4-pyridyl)-1,3,4-oxadiazole
_symmetry_cell_setting           monoclinic
_symmetry_space_group_name_H-M   'P 21/n'
_symmetry_Int_Tables_number      14
_space_group_name_Hall           '-P 2yn'
loop_
_symmetry_equiv_pos_site_id
_symmetry_equiv_pos_as_xyz
1 x,y,z
2 1/2-x,1/2+y,1/2-z
3 -x,-y,-z
4 1/2+x,1/2-y,1/2+z
_cell_length_a                   7.080(2)
_cell_length_b                   14.245(1)
_cell_length_c                   12.072(3)
_cell_angle_alpha                90
_cell_angle_beta                 95.86(2)
_cell_angle_gamma                90
_cell_volume                     1211.15
_exptl_crystal_colour            colorless
_cell_formula_units_Z            4
loop_
_atom_site_label
_atom_site_type_symbol
_atom_site_fract_x
_atom_site_fract_y
_atom_site_fract_z
Cl1 Cl 0.21670(9) 0.37971(5) 0.62385(6)
O1 O 1.0275(2) 0.0828(1) 0.3501(1)
N1 N 0.8476(3) 0.1960(1) 0.4234(2)
N2 N 0.7629(3) 0.0333(1) 0.4153(2)
N3 N 0.8566(3) -0.0432(1) 0.3736(2)
N4 N 1.4120(3) -0.1760(1) 0.1859(2)
C1 C 0.4045(3) 0.3235(2) 0.5676(2)
C2 C 0.5592(4) 0.3746(2) 0.5434(2)
C3 C 0.7037(3) 0.3308(2) 0.4962(2)
C4 C 0.6947(3) 0.2353(2) 0.4732(2)
C5 C 0.5398(3) 0.1849(2) 0.5010(2)
C6 C 0.3941(3) 0.2287(2) 0.5480(2)
C7 C 0.8685(3) 0.1048(2) 0.3992(2)
C8 C 1.0081(3) -0.0126(2) 0.3362(2)
C9 C 1.1499(3) -0.0664(2) 0.2851(2)
C10 C 1.3163(3) -0.0291(2) 0.2568(2)
C11 C 1.4418(3) -0.0852(2) 0.2078(2)
C12 C 1.2507(3) -0.2122(2) 0.2161(2)
C13 C 1.1173(3) -0.1614(2) 0.2648(2)
H1 H 0.917(4) 0.232(2) 0.394(2)
H2 H 0.571(4) 0.439(2) 0.561(2)
H3 H 0.813(4) 0.366(2) 0.480(2)
H4 H 0.540(4) 0.120(2) 0.491(2)
H5 H 0.289(4) 0.189(2) 0.570(2)
H6 H 1.350(4) 0.034(2) 0.272(2)
H7 H 1.561(4) -0.060(2) 0.187(2)
H8 H 1.230(3) -0.276(2) 0.204(3)
H9 H 1.011(3) -0.188(2) 0.279(2)
loop_
_geom_bond_atom_site_label_1
_geom_bond_atom_site_label_2
_geom_bond_site_symmetry_1
_geom_bond_site_symmetry_2
Cl1 C1 1_555 1_555
O1 C7 1_555 1_555
N1 C4 1_555 1_555
N2 N3 1_555 1_555
N3 C8 1_555 1_555
N4 C11 1_555 1_555
C1 C2 1_555 1_555
C2 C3 1_555 1_555
C3 C4 1_555 1_555
C4 C5 1_555 1_555
C5 C6 1_555 1_555
C6 C1 1_555 1_555
C7 N1 1_555 1_555
C8 O1 1_555 1_555
C9 C8 1_555 1_555
C10 C9 1_555 1_555
C11 C10 1_555 1_555
C12 N4 1_555 1_555
C13 C9 1_555 1_555
H1 N1 1_555 1_555
H2 C2 1_555 1_555
H3 C3 1_555 1_555
H4 C5 1_555 1_555
H5 C6 1_555 1_555
H6 C10 1_555 1_555
H7 C11 1_555 1_555
H8 C12 1_555 1_555
H9 C13 1_555 1_555
N2 C7 1_555 1_555
C12 C13 1_555 1_555

#END
