
#######################################################################
#
#                 Cambridge Crystallographic Data Centre
#                                CCDC 
#
#######################################################################
#
# If this CIF has been generated from an entry in the Cambridge 
# Structural Database, then it will include bibliographic, chemical, 
# crystal, experimental, refinement or atomic coordinate data resulting 
# from the CCDC's data processing and validation procedures.
#
#######################################################################

data_ZAMQOW
_chemical_formula_moiety         'C55 H10 F25 N5,0.5(C9 H20),1.5(C6 H6)'
_chemical_name_systematic        
'4,9,14,19,24-pentakis(pentafluorophenyl)-26,27,28,29,30-pentaazaheptacyclo[18.5.1.1^3,25^.1^5,8^.1^10,13^.1^15,18^.0^23,26^]triaconta-1,3,5,7,9,11,13(29),14,16,18(28),19,21,23,25(27)-tetradecaene benzene nonane solvate'
_symmetry_cell_setting           triclinic
_symmetry_space_group_name_H-M   'P -1'
_symmetry_Int_Tables_number      2
_space_group_name_Hall           '-P 1'
loop_
_symmetry_equiv_pos_site_id
_symmetry_equiv_pos_as_xyz
1 x,y,z
2 -x,-y,-z
_cell_length_a                   11.0285(15)
_cell_length_b                   16.3814(15)
_cell_length_c                   18.185(2)
_cell_angle_alpha                78.494(9)
_cell_angle_beta                 84.806(14)
_cell_angle_gamma                79.514(13)
_cell_volume                     3160.54
_exptl_crystal_colour            violet
_exptl_crystal_description       Prism
_cell_formula_units_Z            2
loop_
_atom_site_label
_atom_site_type_symbol
_atom_site_fract_x
_atom_site_fract_y
_atom_site_fract_z
C1 C 0.2297(3) 0.24575(16) 0.11545(14)
C2 C 0.1866(3) 0.17879(17) 0.16975(15)
H1 H 0.1862 0.1236 0.1609
C3 C 0.1468(3) 0.20523(17) 0.23501(15)
H2 H 0.1160 0.1722 0.2794
C4 C 0.1598(3) 0.29176(17) 0.22490(14)
C5 C 0.1360(3) 0.35834(17) 0.26338(14)
C6 C 0.1720(2) 0.42867(16) 0.21207(14)
C7 C 0.2173(2) 0.40225(16) 0.14087(13)
C8 C 0.2401(2) 0.47243(16) 0.09190(14)
H3 H 0.2686 0.4771 0.0406
C9 C 0.2102(2) 0.54017(16) 0.13683(13)
C10 C 0.2195(2) 0.62457(16) 0.11763(14)
C11 C 0.2554(2) 0.67381(16) 0.04771(14)
C12 C 0.2725(3) 0.75917(17) 0.03776(15)
H4 H 0.2645 0.7918 0.0762
C13 C 0.3027(3) 0.78661(17) -0.03673(15)
H5 H 0.3186 0.8415 -0.0588
C14 C 0.3060(2) 0.71972(16) -0.07476(14)
C15 C 0.3354(2) 0.71932(16) -0.15228(14)
C16 C 0.3547(3) 0.64948(16) -0.18625(14)
C17 C 0.3782(3) 0.64764(18) -0.26632(15)
H6 H 0.3889 0.6942 -0.3054
C18 C 0.3817(3) 0.56793(18) -0.27398(15)
H7 H 0.3932 0.5467 -0.3195
C19 C 0.3641(3) 0.52000(17) -0.19806(14)
C20 C 0.3554(3) 0.43120(17) -0.17853(14)
C21 C 0.3771(2) 0.38584(16) -0.10777(14)
C22 C 0.4411(2) 0.40716(17) -0.04905(15)
H8 H 0.4904 0.4502 -0.0548
C23 C 0.4164(2) 0.35387(16) 0.01458(14)
H9 H 0.4443 0.3515 0.0630
C24 C 0.3374(2) 0.30023(16) -0.00617(14)
C25 C 0.2752(3) 0.23937(16) 0.04353(14)
C26 C 0.0777(3) 0.35898(16) 0.33891(14)
C27 C -0.0301(3) 0.3265(2) 0.36293(16)
C28 C -0.0887(3) 0.3318(2) 0.43249(18)
C29 C -0.0395(3) 0.3702(2) 0.48077(15)
C30 C 0.0680(3) 0.40146(18) 0.45967(14)
C31 C 0.1256(3) 0.39623(17) 0.38978(14)
F1 F -0.1932(2) 0.30096(18) 0.45243(13)
F2 F 0.1703(2) 1.00663(12) -0.27570(12)
F3 F 0.3976(2) 1.03264(11) -0.33310(11)
F4 F 0.5947(2) 0.90711(14) -0.30499(14)
F5 F 0.13428(16) 0.50466(10) -0.25223(8)
F6 F 0.46249(16) 0.27246(10) -0.21932(9)
N1 N 0.2114(2) 0.31526(13) 0.15173(11)
N2 N 0.1681(2) 0.50951(14) 0.21012(11)
N3 N 0.2782(2) 0.65168(13) -0.02200(11)
H10 H 0.2754 0.6015 -0.0315
N4 N 0.3492(2) 0.56883(13) -0.14642(12)
N5 N 0.3232(2) 0.31512(13) -0.07958(11)
C32 C 0.3495(3) 0.80292(16) -0.20067(14)
C33 C 0.2511(3) 0.86780(18) -0.21680(15)
C34 C 0.2660(3) 0.94559(19) -0.26112(17)
C35 C 0.3819(3) 0.95829(19) -0.28994(17)
C36 C 0.4828(3) 0.8946(2) -0.27574(18)
C37 C 0.4653(3) 0.81815(18) -0.23164(16)
C38 C 0.3036(3) 0.39211(16) -0.23312(14)
C39 C 0.1942(3) 0.43014(17) -0.26701(14)
C40 C 0.1396(3) 0.39317(18) -0.31469(14)
C41 C 0.1969(3) 0.31592(18) -0.33046(15)
C42 C 0.3054(3) 0.27603(18) -0.29754(16)
C43 C 0.3569(3) 0.31368(17) -0.24931(15)
C44 C 0.2472(3) 0.16932(16) 0.00999(13)
F7 F -0.08220(19) 0.29028(14) 0.31621(10)
F8 F -0.09548(19) 0.37571(13) 0.54831(9)
F9 F 0.11790(18) 0.43796(11) 0.50689(8)
F10 F 0.22967(16) 0.42766(11) 0.37183(8)
F11 F 0.13793(17) 0.85699(12) -0.18976(10)
F12 F 0.56389(16) 0.75757(12) -0.21916(11)
F13 F 0.03226(17) 0.43064(11) -0.34367(9)
F14 F 0.14691(18) 0.27958(11) -0.37740(9)
F15 F 0.35998(19) 0.20095(11) -0.31253(11)
F16 F 0.45796(16) 0.12730(10) -0.02318(9)
F17 F 0.40621(17) 0.01066(11) -0.09608(10)
F18 F 0.16959(18) -0.00935(10) -0.10291(9)
F19 F -0.01684(16) 0.08748(10) -0.03555(10)
F20 F 0.03133(15) 0.20310(10) 0.03737(9)
C45 C 0.3401(3) 0.11878(17) -0.02499(14)
C46 C 0.3147(3) 0.05857(17) -0.06263(15)
C47 C 0.1946(3) 0.04821(17) -0.06597(15)
C48 C 0.1004(3) 0.09614(17) -0.03084(15)
C49 C 0.1277(3) 0.15566(17) 0.00651(14)
C50 C 0.1961(11) 0.6706(8) 0.1856(6)
C51 C 0.2743(11) 0.6568(8) 0.2443(7)
C52 C 0.2420(12) 0.6994(9) 0.3039(6)
C53 C 0.1315(13) 0.7559(8) 0.3049(6)
C54 C 0.0533(12) 0.7697(7) 0.2462(7)
C55 C 0.0856(11) 0.7271(8) 0.1866(6)
F21 F 0.3707(10) 0.6062(7) 0.2429(5)
F22 F 0.3137(18) 0.6856(11) 0.3597(10)
F23 F 0.0958(16) 0.7943(11) 0.3626(9)
F24 F -0.057(2) 0.8246(15) 0.2432(14)
F25 F -0.0014(18) 0.7420(12) 0.1273(6)
C62 C 0.2198(3) 0.94226(19) 0.14482(18)
H11 H 0.2096 0.9425 0.0935
C63 C 0.3341(4) 0.9120(2) 0.1745(2)
H12 H 0.4021 0.8905 0.1439
C64 C 0.3487(4) 0.9132(3) 0.2490(2)
H13 H 0.4267 0.8924 0.2700
C65 C 0.2488(4) 0.9449(2) 0.2929(2)
H14 H 0.2587 0.9469 0.3438
C66 C 0.1359(3) 0.9735(2) 0.2629(2)
H15 H 0.0675 0.9945 0.2935
C67 C 0.1208(3) 0.97206(19) 0.18972(19)
H16 H 0.0419 0.9916 0.1696
C68 C -0.2526(16) 0.8470(10) 0.5349(8)
H17 H -0.2487 0.7931 0.5183
H18 H -0.3190 0.8887 0.5102
H19 H -0.2691 0.8389 0.5895
C69 C -0.1259(18) 0.8795(15) 0.5135(10)
H20 H -0.0996 0.8523 0.4693
H21 H -0.1581 0.9389 0.4912
C70 C 0.5167(17) 0.7648(12) 0.5257(14)
H22 H 0.5324 0.7437 0.5794
H23 H 0.5909 0.7891 0.5043
C71 C 0.5427(17) 0.6784(11) 0.4951(10)
H24 H 0.5138 0.6986 0.4436
H25 H 0.6339 0.6703 0.4880
C72 C 0.0029(16) 0.8915(18) 0.5336(15)
H26 H -0.0247 0.9500 0.5421
H27 H -0.0010 0.8571 0.5849
C73 C 0.2789(15) 0.8874(14) 0.5439(15)
H28 H 0.2745 0.8775 0.5995
H29 H 0.2857 0.9480 0.5289
C74 C 0.1406(15) 0.8947(19) 0.5321(18)
H30 H 0.1270 0.9573 0.5221
H31 H 0.1564 0.8810 0.4812
C75 C 0.4201(16) 0.8486(12) 0.5308(19)
H32 H 0.4574 0.8704 0.5689
H33 H 0.4410 0.8847 0.4825
C76 C 0.5219(17) 0.5835(12) 0.5086(10)
H34 H 0.5797 0.5487 0.5449
H35 H 0.5361 0.5630 0.4610
H36 H 0.4370 0.5801 0.5285
C77 C 0.9486(13) 0.5509(13) 0.0503(9)
H37 H 0.9128 0.5866 0.0846
C78 C 0.9460(16) 0.4639(13) 0.0675(11)
H38 H 0.9094 0.4395 0.1141
C79 C 0.9949(14) 0.4163(9) 0.0181(11)
H39 H 0.9914 0.3576 0.0297
C77A C 1.0514(13) 0.4491(13) -0.0503(9)
H37A H 1.0872 0.4134 -0.0846
C78A C 1.0540(16) 0.5361(13) -0.0675(11)
H38A H 1.0906 0.5605 -0.1141
C79A C 1.0051(14) 0.5837(9) -0.0181(11)
H39A H 1.0086 0.6424 -0.0297
F26? F 0.3655(8) 0.6118(9) 0.2423(6)
F27? F 0.2891(19) 0.7060(13) 0.3500(11)
F28? F 0.067(2) 0.8088(13) 0.3495(11)
F29? F -0.082(3) 0.8282(19) 0.2357(18)
F30? F -0.006(2) 0.7362(14) 0.1287(10)
C56? C 0.1735(14) 0.6772(9) 0.1769(7)
C57? C 0.2495(13) 0.6674(9) 0.2361(7)
C58? C 0.2128(14) 0.7118(8) 0.2942(7)
C59? C 0.1001(14) 0.7661(8) 0.2931(7)
C60? C 0.0240(13) 0.7759(8) 0.2339(8)
C61? C 0.0607(14) 0.7315(9) 0.1758(7)
C80? C 0.964(3) 0.5756(17) 0.024(2)
H40? H 0.9372 0.6264 0.0429
C81? C 0.935(2) 0.493(2) 0.0685(12)
H41? H 0.8886 0.4920 0.1154
C82? C 0.972(2) 0.4233(18) 0.0427(17)
H42? H 0.9543 0.3713 0.0714
loop_
_geom_bond_atom_site_label_1
_geom_bond_atom_site_label_2
_geom_bond_site_symmetry_1
_geom_bond_site_symmetry_2
C1 C2 1_555 1_555
C2 H1 1_555 1_555
C3 C2 1_555 1_555
H2 C3 1_555 1_555
C4 C3 1_555 1_555
C5 C4 1_555 1_555
C6 C5 1_555 1_555
C7 C6 1_555 1_555
C8 C7 1_555 1_555
H3 C8 1_555 1_555
C9 C8 1_555 1_555
C10 C9 1_555 1_555
C11 C10 1_555 1_555
C12 C11 1_555 1_555
H4 C12 1_555 1_555
C13 C12 1_555 1_555
H5 C13 1_555 1_555
C14 C13 1_555 1_555
C15 C14 1_555 1_555
C16 C15 1_555 1_555
C17 C16 1_555 1_555
H6 C17 1_555 1_555
C18 C17 1_555 1_555
H7 C18 1_555 1_555
C19 C18 1_555 1_555
C20 C19 1_555 1_555
C21 C20 1_555 1_555
C22 C21 1_555 1_555
H8 C22 1_555 1_555
C23 C22 1_555 1_555
H9 C23 1_555 1_555
C24 C23 1_555 1_555
C25 C1 1_555 1_555
C26 C5 1_555 1_555
C27 C26 1_555 1_555
C28 C27 1_555 1_555
C29 C28 1_555 1_555
C30 C29 1_555 1_555
C31 C26 1_555 1_555
F1 C28 1_555 1_555
F2 C34 1_555 1_555
F3 C35 1_555 1_555
F4 C36 1_555 1_555
F5 C39 1_555 1_555
F6 C43 1_555 1_555
N1 C1 1_555 1_555
N2 C6 1_555 1_555
N3 C11 1_555 1_555
H10 N3 1_555 1_555
N4 C16 1_555 1_555
N5 C21 1_555 1_555
C32 C15 1_555 1_555
C33 C32 1_555 1_555
C34 C33 1_555 1_555
C35 C34 1_555 1_555
C36 C35 1_555 1_555
C37 C32 1_555 1_555
C38 C20 1_555 1_555
C39 C38 1_555 1_555
C40 C39 1_555 1_555
C41 C40 1_555 1_555
C42 C41 1_555 1_555
C43 C38 1_555 1_555
C44 C25 1_555 1_555
F7 C27 1_555 1_555
F8 C29 1_555 1_555
F9 C30 1_555 1_555
F10 C31 1_555 1_555
F11 C33 1_555 1_555
F12 C37 1_555 1_555
F13 C40 1_555 1_555
F14 C41 1_555 1_555
F15 C42 1_555 1_555
F16 C45 1_555 1_555
F17 C46 1_555 1_555
F18 C47 1_555 1_555
F19 C48 1_555 1_555
F20 C49 1_555 1_555
C45 C44 1_555 1_555
C46 C45 1_555 1_555
C47 C46 1_555 1_555
C48 C47 1_555 1_555
C49 C44 1_555 1_555
C50 C10 1_555 1_555
C51 C50 1_555 1_555
C52 C51 1_555 1_555
C53 C52 1_555 1_555
C54 C53 1_555 1_555
C55 C50 1_555 1_555
F21 C51 1_555 1_555
F22 C52 1_555 1_555
F23 C53 1_555 1_555
F24 C54 1_555 1_555
F25 C55 1_555 1_555
C62 H11 1_555 1_555
C63 C62 1_555 1_555
H12 C63 1_555 1_555
C64 C63 1_555 1_555
H13 C64 1_555 1_555
C65 C64 1_555 1_555
H14 C65 1_555 1_555
C66 C65 1_555 1_555
H15 C66 1_555 1_555
C67 C62 1_555 1_555
H16 C67 1_555 1_555
C68 H17 1_555 1_555
H18 C68 1_555 1_555
H19 C68 1_555 1_555
C69 C68 1_555 1_555
H20 C69 1_555 1_555
H21 C69 1_555 1_555
C70 H22 1_555 1_555
H23 C70 1_555 1_555
C71 C70 1_555 1_555
H24 C71 1_555 1_555
H25 C71 1_555 1_555
C72 C69 1_555 1_555
H26 C72 1_555 1_555
H27 C72 1_555 1_555
C73 H28 1_555 1_555
H29 C73 1_555 1_555
C74 C72 1_555 1_555
H30 C74 1_555 1_555
H31 C74 1_555 1_555
C75 C70 1_555 1_555
H32 C75 1_555 1_555
H33 C75 1_555 1_555
C76 C71 1_555 1_555
H34 C76 1_555 1_555
H35 C76 1_555 1_555
H36 C76 1_555 1_555
C77 H37 1_555 1_555
C78 C77 1_555 1_555
H38 C78 1_555 1_555
C79 C78 1_555 1_555
H39 C79 1_555 1_555
C77A C79 1_555 1_555
H37A C77A 1_555 1_555
C78A C77A 1_555 1_555
H38A C78A 1_555 1_555
C79A C77 1_555 1_555
H39A C79A 1_555 1_555
C4 N1 1_555 1_555
C7 N1 1_555 1_555
C9 N2 1_555 1_555
C14 N3 1_555 1_555
C19 N4 1_555 1_555
C24 C25 1_555 1_555
C24 N5 1_555 1_555
C30 C31 1_555 1_555
C36 C37 1_555 1_555
C42 C43 1_555 1_555
C48 C49 1_555 1_555
C54 C55 1_555 1_555
C66 C67 1_555 1_555
C73 C74 1_555 1_555
C73 C75 1_555 1_555
C78A C79A 1_555 1_555

#END
