
#######################################################################
#
#                 Cambridge Crystallographic Data Centre
#                                CCDC 
#
#######################################################################
#
# If this CIF has been generated from an entry in the Cambridge 
# Structural Database, then it will include bibliographic, chemical, 
# crystal, experimental, refinement or atomic coordinate data resulting 
# from the CCDC's data processing and validation procedures.
#
#######################################################################

data_ZAMRUD01
_chemical_formula_moiety         'C40 H40 B1 N1'
_chemical_name_systematic        
2'-(dimesitylboryl)-N,N-dimethyl-1,1'-binaphthalen-2-amine
_symmetry_cell_setting           orthorhombic
_symmetry_space_group_name_H-M   'P 21 21 21'
_symmetry_Int_Tables_number      19
_space_group_name_Hall           'P 2ac 2ab'
loop_
_symmetry_equiv_pos_site_id
_symmetry_equiv_pos_as_xyz
1 x,y,z
2 1/2-x,-y,1/2+z
3 1/2+x,1/2-y,-z
4 -x,1/2+y,1/2-z
_cell_length_a                   10.67434(15)
_cell_length_b                   11.53377(17)
_cell_length_c                   25.4474(4)
_cell_angle_alpha                90
_cell_angle_beta                 90
_cell_angle_gamma                90
_cell_volume                     3132.97
_exptl_crystal_description       block
_cell_formula_units_Z            4
loop_
_atom_site_label
_atom_site_type_symbol
_atom_site_fract_x
_atom_site_fract_y
_atom_site_fract_z
C1 C 0.70395(16) 0.39455(14) 0.31117(6)
C2 C 0.78073(16) 0.45884(14) 0.34690(6)
C3 C 0.68878(15) 0.62283(14) 0.40050(7)
C4 C 0.75014(15) 0.58528(14) 0.35541(6)
C5 C 0.71708(19) 0.27264(16) 0.30709(7)
C6 C 0.56613(16) 0.42550(15) 0.42777(7)
C7 C 0.78571(16) 0.66675(16) 0.31531(7)
C8 C 0.87855(16) 0.40393(16) 0.37315(6)
C9 C 0.61058(18) 0.44727(17) 0.27948(7)
H1 H 0.5993 0.5271 0.2814
N1 N 0.96279(15) 0.46542(15) 0.40518(6)
C10 C 0.66528(18) 0.74439(16) 0.40577(8)
H2 H 0.6263 0.7712 0.4361
C11 C 0.8892(2) 0.28112(18) 0.36808(8)
H3 H 0.9523 0.2427 0.3863
C12 C 0.75867(19) 0.78627(16) 0.32166(8)
C13 C 0.63308(18) 0.57993(16) 0.50479(7)
C14 C 0.46270(17) 0.42459(17) 0.39300(7)
C15 C 0.4100(2) 0.3191(2) 0.37813(8)
H4 H 0.3409 0.3195 0.3559
B1 B 0.63165(18) 0.54135(18) 0.44483(8)
C16 C 0.4562(2) 0.21434(19) 0.39508(8)
C17 C 0.69804(19) 0.82222(16) 0.36793(9)
H5 H 0.6800 0.9004 0.3728
C18 C 0.5370(2) 0.38422(19) 0.24641(8)
H6 H 0.4779 0.4217 0.2256
C19 C 0.5571(2) 0.21542(18) 0.42912(8)
H7 H 0.5901 0.1452 0.4406
C20 C 0.61095(19) 0.31796(17) 0.44668(7)
C21 C 0.73947(19) 0.63005(16) 0.52812(7)
C22 C 0.5275(2) 0.56058(17) 0.53773(8)
C23 C 0.8103(2) 0.21889(18) 0.33754(9)
H8 H 0.8179 0.1386 0.3367
C24 C 0.7957(2) 0.8643(2) 0.28119(10)
H9 H 0.7790 0.9430 0.2850
C25 C 0.6386(2) 0.63699(19) 0.61363(8)
C26 C 0.4040(2) 0.5346(2) 0.37370(10)
H10 H 0.3523 0.5670 0.4009
H11 H 0.3535 0.5184 0.3433
H12 H 0.4685 0.5890 0.3645
C27 C 0.8476(2) 0.6320(2) 0.26858(8)
H13 H 0.8664 0.5540 0.2636
C28 C 0.7415(2) 0.65696(17) 0.58139(8)
H14 H 0.8136 0.6892 0.5958
C29 C 0.7169(2) 0.31239(18) 0.48579(8)
H15 H 0.7798 0.3682 0.4765
H16 H 0.7528 0.2361 0.4855
H17 H 0.6855 0.3293 0.5203
C30 C 0.5493(2) 0.2643(2) 0.24335(9)
H18 H 0.4973 0.2218 0.2212
C31 C 0.8801(2) 0.7099(3) 0.23078(9)
H19 H 0.9198 0.6847 0.2003
C32 C 0.8617(2) 0.6492(2) 0.49872(9)
H20 H 0.8703 0.5915 0.4717
H21 H 0.9306 0.6431 0.5228
H22 H 0.8614 0.7249 0.4831
C33 C 1.0264(2) 0.5654(2) 0.38314(9)
H23 H 1.0811 0.5407 0.3554
H24 H 1.0747 0.6029 0.4101
H25 H 0.9657 0.6187 0.3694
C34 C 0.6372(2) 0.20988(19) 0.27274(9)
H26 H 0.6454 0.1298 0.2704
C35 C 0.3979(4) 0.1016(3) 0.37640(12)
H27 H 0.3112 0.0997 0.3863
H28 H 0.4410 0.0374 0.3922
H29 H 0.4047 0.0965 0.3389
C36 C 0.5342(2) 0.59019(19) 0.59101(8)
H30 H 0.4643 0.5774 0.6120
C37 C 0.8541(3) 0.8271(3) 0.23749(10)
H31 H 0.8773 0.8799 0.2117
C38 C 1.0484(2) 0.3980(2) 0.43811(10)
H32 H 1.0023 0.3385 0.4561
H33 H 1.0873 0.4482 0.4634
H34 H 1.1116 0.3630 0.4165
C39 C 0.4047(2) 0.5112(3) 0.51865(11)
H35 H 0.3781 0.5524 0.4878
H36 H 0.3426 0.5192 0.5457
H37 H 0.4154 0.4307 0.5103
C40 C 0.6445(3) 0.6654(3) 0.67156(9)
H38 H 0.6784 0.6004 0.6904
H39 H 0.5617 0.6818 0.6843
H40 H 0.6971 0.7319 0.6768
loop_
_geom_bond_atom_site_label_1
_geom_bond_atom_site_label_2
_geom_bond_site_symmetry_1
_geom_bond_site_symmetry_2
C1 C2 1_555 1_555
C2 C4 1_555 1_555
C3 C4 1_555 1_555
C4 C7 1_555 1_555
C5 C1 1_555 1_555
C6 C14 1_555 1_555
C7 C12 1_555 1_555
C8 C2 1_555 1_555
C9 C1 1_555 1_555
H1 C9 1_555 1_555
N1 C8 1_555 1_555
C10 C3 1_555 1_555
H2 C10 1_555 1_555
C11 C8 1_555 1_555
H3 C11 1_555 1_555
C12 C17 1_555 1_555
C13 B1 1_555 1_555
C14 C15 1_555 1_555
C15 H4 1_555 1_555
B1 C3 1_555 1_555
C16 C15 1_555 1_555
C17 C10 1_555 1_555
H5 C17 1_555 1_555
C18 C9 1_555 1_555
H6 C18 1_555 1_555
C19 C16 1_555 1_555
H7 C19 1_555 1_555
C20 C6 1_555 1_555
C21 C13 1_555 1_555
C22 C13 1_555 1_555
C23 C5 1_555 1_555
H8 C23 1_555 1_555
C24 C12 1_555 1_555
H9 C24 1_555 1_555
C25 C28 1_555 1_555
C26 C14 1_555 1_555
H10 C26 1_555 1_555
H11 C26 1_555 1_555
H12 C26 1_555 1_555
C27 C7 1_555 1_555
H13 C27 1_555 1_555
C28 C21 1_555 1_555
H14 C28 1_555 1_555
C29 C20 1_555 1_555
H15 C29 1_555 1_555
H16 C29 1_555 1_555
H17 C29 1_555 1_555
C30 C18 1_555 1_555
H18 C30 1_555 1_555
C31 C27 1_555 1_555
H19 C31 1_555 1_555
C32 C21 1_555 1_555
H20 C32 1_555 1_555
H21 C32 1_555 1_555
H22 C32 1_555 1_555
C33 N1 1_555 1_555
H23 C33 1_555 1_555
H24 C33 1_555 1_555
H25 C33 1_555 1_555
C34 C5 1_555 1_555
H26 C34 1_555 1_555
C35 C16 1_555 1_555
H27 C35 1_555 1_555
H28 C35 1_555 1_555
H29 C35 1_555 1_555
C36 C22 1_555 1_555
H30 C36 1_555 1_555
C37 C24 1_555 1_555
H31 C37 1_555 1_555
C38 N1 1_555 1_555
H32 C38 1_555 1_555
H33 C38 1_555 1_555
H34 C38 1_555 1_555
C39 C22 1_555 1_555
H35 C39 1_555 1_555
H36 C39 1_555 1_555
H37 C39 1_555 1_555
C40 C25 1_555 1_555
H38 C40 1_555 1_555
H39 C40 1_555 1_555
H40 C40 1_555 1_555
C6 B1 1_555 1_555
C11 C23 1_555 1_555
C19 C20 1_555 1_555
C25 C36 1_555 1_555
C30 C34 1_555 1_555
C31 C37 1_555 1_555

#END
