
#######################################################################
#
#                 Cambridge Crystallographic Data Centre
#                                CCDC 
#
#######################################################################
#
# If this CIF has been generated from an entry in the Cambridge 
# Structural Database, then it will include bibliographic, chemical, 
# crystal, experimental, refinement or atomic coordinate data resulting 
# from the CCDC's data processing and validation procedures.
#
#######################################################################

data_ZAMRUA
_chemical_formula_moiety         'C16 H14 O5'
_chemical_name_systematic        
(+)-1-Acetoxy-8-hydroxy-1,4,4a,9a-tetrahydroanthraquinone
_symmetry_cell_setting           orthorhombic
_symmetry_space_group_name_H-M   'P b c a'
_symmetry_Int_Tables_number      61
_space_group_name_Hall           '-P 2ac 2ab'
loop_
_symmetry_equiv_pos_site_id
_symmetry_equiv_pos_as_xyz
1 x,y,z
2 1/2-x,-y,1/2+z
3 1/2+x,1/2-y,-z
4 -x,1/2+y,1/2-z
5 -x,-y,-z
6 1/2+x,y,1/2-z
7 1/2-x,1/2+y,z
8 x,1/2-y,1/2+z
_cell_length_a                   14.383(4)
_cell_length_b                   9.579(2)
_cell_length_c                   20.122(5)
_cell_angle_alpha                90
_cell_angle_beta                 90
_cell_angle_gamma                90
_cell_volume                     2772.3
_exptl_crystal_colour            'pale yellow'
_cell_formula_units_Z            8
loop_
_atom_site_label
_atom_site_type_symbol
_atom_site_fract_x
_atom_site_fract_y
_atom_site_fract_z
C1 C 0.5587(2) 0.1146(3) 0.29169(14)
C2 C 0.5930(3) 0.1761(4) 0.2283(2)
C3 C 0.6744(3) 0.1486(4) 0.2035(2)
C4 C 0.7440(3) 0.0540(4) 0.23402(15)
C5 C 0.7187(2) 0.0070(3) 0.30400(13)
C6 C 0.7785(2) 0.1041(3) 0.48043(14)
C7 C 0.7536(2) 0.0632(4) 0.54421(15)
C8 C 0.6773(2) -0.0189(4) 0.55472(15)
C9 C 0.6236(2) -0.0621(3) 0.50128(12)
C10 C 0.6469(2) -0.0228(3) 0.43682(12)
C11 C 0.5872(2) -0.0597(3) 0.38089(12)
C12 C 0.6141(2) -0.0145(3) 0.31199(12)
C13 C 0.7571(2) 0.0973(3) 0.35832(13)
C14 C 0.7266(2) 0.0611(3) 0.42686(12)
C15 C 0.4984(2) 0.3030(3) 0.35818(13)
C16 C 0.5236(3) 0.4114(4) 0.4077(2)
O1 O 0.57082(12) 0.2200(2) 0.34428(9)
O2 O 0.81466(14) 0.1883(2) 0.34869(10)
O3 O 0.51368(12) -0.1239(2) 0.38955(9)
O4 O 0.54838(14) -0.1425(2) 0.51409(10)
O5 O 0.42382(15) 0.2906(2) 0.33282(10)
H1 H 0.4931(20) 0.0939(30) 0.2908(14)
H2 H 0.5449(33) 0.2353(56) 0.2049(25)
H3 H 0.6913(24) 0.1842(40) 0.1636(19)
H4 H 0.8011(29) 0.0967(44) 0.2340(20)
H5 H 0.7511(28) -0.0340(47) 0.2054(20)
H6 H 0.7472(18) -0.0810(30) 0.3134(13)
H7 H 0.8344(22) 0.1546(33) 0.4742(15)
H8 H 0.7924(25) 0.0951(38) 0.5809(18)
H9 H 0.6539(22) -0.0511(35) 0.5947(17)
H10 H 0.5928(21) -0.0871(34) 0.2813(15)
H11 H 0.4695(31) 0.4328(49) 0.4391(23)
H12 H 0.5441(34) 0.4821(58) 0.3862(23)
H13 H 0.5756(26) 0.3800(38) 0.4345(18)
H14 H 0.5169(23) -0.1474(37) 0.4701(19)
loop_
_geom_bond_atom_site_label_1
_geom_bond_atom_site_label_2
_geom_bond_site_symmetry_1
_geom_bond_site_symmetry_2
C1 C2 1_555 1_555
C2 C3 1_555 1_555
C3 C4 1_555 1_555
C4 C5 1_555 1_555
C5 C12 1_555 1_555
C6 C7 1_555 1_555
C7 C8 1_555 1_555
C8 C9 1_555 1_555
C9 C10 1_555 1_555
C10 C11 1_555 1_555
C11 C12 1_555 1_555
C12 C1 1_555 1_555
C13 C5 1_555 1_555
C14 C6 1_555 1_555
C15 C16 1_555 1_555
C16 H11 1_555 1_555
O1 C1 1_555 1_555
O2 C13 1_555 1_555
O3 C11 1_555 1_555
O4 C9 1_555 1_555
O5 C15 1_555 1_555
H1 C1 1_555 1_555
H2 C2 1_555 1_555
H3 C3 1_555 1_555
H4 C4 1_555 1_555
H5 C4 1_555 1_555
H6 C5 1_555 1_555
H7 C6 1_555 1_555
H8 C7 1_555 1_555
H9 C8 1_555 1_555
H10 C12 1_555 1_555
H12 C16 1_555 1_555
H13 C16 1_555 1_555
H14 O4 1_555 1_555
C10 C14 1_555 1_555
C13 C14 1_555 1_555
C15 O1 1_555 1_555

#END
