
#######################################################################
#
#                 Cambridge Crystallographic Data Centre
#                                CCDC 
#
#######################################################################
#
# If this CIF has been generated from an entry in the Cambridge 
# Structural Database, then it will include bibliographic, chemical, 
# crystal, experimental, refinement or atomic coordinate data resulting 
# from the CCDC's data processing and validation procedures.
#
#######################################################################

data_ZAMROX
_chemical_formula_moiety         'C56 H11 F24 N5 Si1,1.5(C7 H16)'
_chemical_name_systematic        
'(6,7,8,9-tetrafluoro-16,21,26,31-tetrakis(pentafluorophenyl)-4,33,34,35,36-pentaazanonacyclo[25.5.1.1^12,15^.1^17,20^.1^22,25^.0^3,11^.0^4,32^.0^5,10^.0^30,33^]hexatriaconta-1(32),3(11),5,7,9,12,14,16,18,20,22,24,26,28,30-34,35,36-triyl-6-ylidene-pentadecaene)-methyl-silicon heptane solvate'
_symmetry_cell_setting           monoclinic
_symmetry_space_group_name_H-M   'P 21'
_symmetry_Int_Tables_number      4
_space_group_name_Hall           'P 2yb'
loop_
_symmetry_equiv_pos_site_id
_symmetry_equiv_pos_as_xyz
1 x,y,z
2 -x,1/2+y,-z
_cell_length_a                   18.654(3)
_cell_length_b                   14.2785(18)
_cell_length_c                   22.741(3)
_cell_angle_alpha                90
_cell_angle_beta                 109.319(5)
_cell_angle_gamma                90
_cell_volume                     5716.02
_exptl_crystal_colour            violet
_exptl_crystal_description       Prism
_cell_formula_units_Z            4
loop_
_atom_site_label
_atom_site_type_symbol
_atom_site_fract_x
_atom_site_fract_y
_atom_site_fract_z
F1 F 0.17705(10) -0.33962(13) 0.31400(8)
F2 F 0.05527(10) -0.41025(13) 0.22490(8)
F3 F -0.03823(9) -0.29914(13) 0.13620(8)
F4 F -0.01402(9) -0.11380(13) 0.13683(7)
F5 F -0.02358(9) 0.36274(14) 0.20603(8)
F6 F -0.10189(10) 0.48436(15) 0.11785(9)
F7 F -0.03778(12) 0.55533(15) 0.03602(8)
F8 F 0.10573(12) 0.50601(15) 0.04460(9)
F9 F 0.18623(10) 0.38728(15) 0.13511(9)
F10 F 0.08177(10) 0.22902(16) 0.45819(8)
F11 F 0.05019(10) 0.28882(17) 0.55800(9)
F12 F 0.15694(10) 0.38200(17) 0.65024(8)
F13 F 0.29900(10) 0.40710(17) 0.64345(8)
F14 F 0.33277(9) 0.34278(15) 0.54521(8)
F15 F 0.46308(10) 0.28453(13) 0.44946(8)
F16 F 0.54716(13) 0.41324(15) 0.41855(11)
F17 F 0.61437(16) 0.37720(18) 0.33228(13)
F18 F 0.59632(13) 0.20559(17) 0.27639(10)
F19 F 0.50986(11) 0.07676(14) 0.30365(8)
F20 F 0.28643(11) -0.29802(14) 0.25252(8)
F21 F 0.29097(13) -0.48576(15) 0.24126(8)
F22 F 0.35828(13) -0.59303(14) 0.34329(9)
F23 F 0.42245(12) -0.51014(15) 0.45643(8)
F24 F 0.41819(11) -0.32399(14) 0.46805(8)
N1 N 0.20663(13) -0.13440(18) 0.30962(11)
N2 N 0.15042(13) 0.13343(18) 0.24001(10)
N3 N 0.19108(13) 0.25571(18) 0.32892(10)
N4 N 0.31253(13) 0.17200(17) 0.39837(10)
N5 N 0.38653(13) -0.05278(18) 0.38972(11)
C1 C 0.28315(15) -0.1398(2) 0.34577(12)
C2 C 0.30832(16) -0.0458(2) 0.35782(13)
C3 C 0.25137(15) 0.0204(2) 0.32651(12)
C4 C 0.19148(15) -0.0401(2) 0.29508(13)
C5 C 0.12725(15) -0.0318(2) 0.24115(12)
C6 C 0.11075(15) 0.0544(2) 0.21163(13)
C7 C 0.05747(16) 0.0783(2) 0.15183(13)
H1 H 0.0239 0.0366 0.1232
C8 C 0.06405(16) 0.1716(2) 0.14393(13)
H2 H 0.0376 0.2071 0.1079
C9 C 0.11853(15) 0.2070(2) 0.20030(12)
C10 C 0.12527(16) 0.2990(2) 0.21984(13)
C11 C 0.15261(16) 0.3205(2) 0.28339(13)
C12 C 0.13138(17) 0.3990(2) 0.31271(14)
H3 H 0.1084 0.4551 0.2928
C13 C 0.15017(17) 0.3787(2) 0.37427(13)
H4 H 0.1393 0.4165 0.4047
C14 C 0.18876(16) 0.2919(2) 0.38544(13)
C15 C 0.22630(16) 0.2494(2) 0.44214(13)
C16 C 0.28465(15) 0.1856(2) 0.44822(12)
C17 C 0.33217(16) 0.1398(2) 0.50181(13)
H5 H 0.3252 0.1370 0.5413
C18 C 0.39010(17) 0.1004(2) 0.48618(13)
H6 H 0.4304 0.0637 0.5125
C19 C 0.37876(16) 0.1247(2) 0.42333(13)
C20 C 0.43653(15) 0.1014(2) 0.39460(12)
C21 C 0.44813(15) 0.0072(2) 0.39329(12)
C22 C 0.51197(16) -0.0545(2) 0.40132(13)
H7 H 0.5619 -0.0354 0.4046
C23 C 0.48879(16) -0.1446(2) 0.40345(13)
H8 H 0.5204 -0.1984 0.4107
C24 C 0.40892(16) -0.1445(2) 0.39294(13)
C25 C 0.34470(16) -0.2030(2) 0.36723(12)
C26 C 0.14945(16) -0.1881(2) 0.26850(13)
C27 C 0.13380(16) -0.2829(2) 0.26955(14)
C28 C 0.07119(17) -0.3189(2) 0.22461(14)
C29 C 0.02312(16) -0.2619(2) 0.17915(13)
C30 C 0.03660(16) -0.1663(2) 0.17978(13)
C31 C 0.09946(16) -0.1273(2) 0.22427(13)
C32 C 0.08428(16) 0.3717(2) 0.17379(12)
C33 C 0.01037(16) 0.3985(2) 0.16754(13)
C34 C -0.03033(17) 0.4611(2) 0.12248(14)
C35 C 0.00173(18) 0.4969(2) 0.08103(13)
C36 C 0.07429(19) 0.4710(2) 0.08500(14)
C37 C 0.11540(17) 0.4101(2) 0.13195(14)
C38 C 0.20897(16) 0.2822(2) 0.49839(12)
C39 C 0.13720(17) 0.2713(2) 0.50337(13)
C40 C 0.12019(17) 0.3026(3) 0.55500(14)
C41 C 0.17476(18) 0.3478(2) 0.60199(13)
C42 C 0.24628(17) 0.3607(2) 0.59848(13)
C43 C 0.26281(16) 0.3274(2) 0.54751(13)
C44 C 0.48390(15) 0.1730(2) 0.37960(12)
C45 C 0.49453(16) 0.2617(2) 0.40645(13)
C46 C 0.5382(2) 0.3299(3) 0.39134(16)
C47 C 0.5737(2) 0.3104(3) 0.34779(17)
C48 C 0.56370(19) 0.2237(3) 0.31964(15)
C49 C 0.51991(16) 0.1579(2) 0.33479(13)
C50 C 0.34978(16) -0.3044(2) 0.36039(13)
C51 C 0.31997(16) -0.3493(2) 0.30370(13)
C52 C 0.32232(19) -0.4450(3) 0.29667(14)
C53 C 0.35694(19) -0.4995(2) 0.34873(15)
C54 C 0.38927(19) -0.4574(2) 0.40602(14)
C55 C 0.38580(17) -0.3619(2) 0.41116(13)
C56 C 0.30460(16) 0.1978(2) 0.26963(13)
H9 H 0.2732 0.2285 0.2312
H10 H 0.3322 0.1454 0.2592
H11 H 0.3410 0.2430 0.2956
Si1 Si 0.24275(4) 0.15323(6) 0.31302(3)
F25 F 0.83355(9) 0.90342(13) 0.17358(7)
F26 F 0.95745(10) 0.97284(13) 0.26170(8)
F27 F 1.04832(9) 0.86134(13) 0.35239(8)
F28 F 1.02140(9) 0.67671(13) 0.35313(8)
F29 F 0.79821(11) 0.18102(15) 0.35523(9)
F30 F 0.86305(14) 0.04336(17) 0.43669(11)
F31 F 1.00360(14) -0.01962(16) 0.44734(10)
F32 F 1.08234(11) 0.05999(15) 0.37722(9)
F33 F 1.01804(9) 0.19688(14) 0.29662(8)
F34 F 0.91376(9) 0.31142(15) 0.03492(8)
F35 F 0.93965(10) 0.22569(17) -0.06079(8)
F36 F 0.82646(11) 0.13333(16) -0.14754(8)
F37 F 0.68362(10) 0.13009(16) -0.13829(8)
F38 F 0.65768(10) 0.21544(15) -0.04240(8)
F39 F 0.49780(10) 0.49822(13) 0.19701(8)
F40 F 0.41998(12) 0.36714(16) 0.23285(9)
F41 F 0.40380(13) 0.19258(16) 0.18117(10)
F42 F 0.46269(12) 0.15469(15) 0.08936(9)
F43 F 0.53805(9) 0.28546(12) 0.05035(7)
F44 F 0.58479(10) 0.89558(13) 0.02678(7)
F45 F 0.58122(11) 1.08139(14) 0.04053(8)
F46 F 0.65095(12) 1.16140(14) 0.15344(9)
F47 F 0.72521(12) 1.05232(15) 0.25308(8)
F48 F 0.72947(10) 0.86471(14) 0.23928(7)
N6 N 0.79998(13) 0.69947(18) 0.18091(10)
N7 N 0.85031(13) 0.43366(17) 0.25513(10)
N8 N 0.80622(13) 0.30774(18) 0.16786(10)
N9 N 0.68655(13) 0.39377(18) 0.09772(10)
N10 N 0.61761(13) 0.62170(18) 0.10456(10)
C57 C 0.72264(15) 0.7072(2) 0.14506(12)
C58 C 0.69631(15) 0.6136(2) 0.13511(12)
C59 C 0.75180(15) 0.5470(2) 0.16660(12)
C60 C 0.81365(16) 0.6054(2) 0.19705(13)
C61 C 0.87772(16) 0.5972(2) 0.25082(13)
C62 C 0.89191(15) 0.5119(2) 0.28192(13)
C63 C 0.94440(16) 0.4879(2) 0.34218(13)
H12 H 0.9792 0.5291 0.3703
C64 C 0.93502(17) 0.3961(2) 0.35139(13)
H13 H 0.9603 0.3612 0.3880
C65 C 0.87979(16) 0.3608(2) 0.29577(12)
C66 C 0.86973(16) 0.2674(2) 0.27757(13)
C67 C 0.84241(16) 0.2449(2) 0.21410(13)
C68 C 0.86091(17) 0.1624(2) 0.18693(13)
H14 H 0.8823 0.1065 0.2082
C69 C 0.84204(16) 0.1791(2) 0.12440(13)
H15 H 0.8509 0.1383 0.0945
C70 C 0.80684(15) 0.2682(2) 0.11229(12)
C71 C 0.76989(15) 0.3086(2) 0.05435(12)
C72 C 0.71390(15) 0.3752(2) 0.04802(12)
C73 C 0.66734(16) 0.4210(2) -0.00617(12)
H16 H 0.6739 0.4212 -0.0459
C74 C 0.61056(15) 0.4654(2) 0.00949(12)
H17 H 0.5710 0.5029 -0.0171
C75 C 0.62272(15) 0.4441(2) 0.07292(12)
C76 C 0.56661(15) 0.4695(2) 0.10249(12)
C77 C 0.55608(15) 0.5650(2) 0.10353(12)
C78 C 0.49442(16) 0.6276(2) 0.09759(13)
H18 H 0.4450 0.6098 0.0968
C79 C 0.51792(16) 0.7177(2) 0.09323(12)
H19 H 0.4870 0.7722 0.0862
C80 C 0.59759(16) 0.7151(2) 0.10115(12)
C81 C 0.66236(16) 0.7708(2) 0.12463(12)
C82 C 0.90751(15) 0.6921(2) 0.26608(12)
C83 C 0.85868(15) 0.7530(2) 0.22121(13)
C84 C 0.87581(16) 0.8463(2) 0.21884(13)
C85 C 0.93983(16) 0.8820(2) 0.26383(13)
C86 C 0.98664(16) 0.8249(2) 0.30990(13)
C87 C 0.97154(16) 0.7302(2) 0.30984(13)
C88 C 0.90590(17) 0.1932(2) 0.32321(12)
C89 C 0.86853(18) 0.1522(2) 0.36031(14)
C90 C 0.9016(2) 0.0815(3) 0.40208(15)
C91 C 0.9728(2) 0.0497(2) 0.40721(15)
C92 C 1.01222(18) 0.0888(2) 0.37186(14)
C93 C 0.97843(17) 0.1594(2) 0.33042(13)
C94 C 0.78378(16) 0.2682(2) -0.00064(12)
C95 C 0.85548(16) 0.2686(2) -0.00744(12)
C96 C 0.86928(16) 0.2243(3) -0.05662(13)
C97 C 0.81203(18) 0.1780(2) -0.10106(13)
C98 C 0.74005(17) 0.1764(2) -0.09653(13)
C99 C 0.72724(16) 0.2214(2) -0.04657(13)
C100 C 0.52117(15) 0.3988(2) 0.12106(12)
C101 C 0.48873(16) 0.4152(2) 0.16755(13)
C102 C 0.44885(18) 0.3467(3) 0.18733(15)
C103 C 0.44053(18) 0.2591(3) 0.16145(15)
C104 C 0.47102(18) 0.2404(2) 0.11538(14)
C105 C 0.51009(16) 0.3089(2) 0.09546(13)
C106 C 0.65909(15) 0.8735(2) 0.13222(12)
C107 C 0.62019(16) 0.9319(2) 0.08338(13)
C108 C 0.61737(18) 1.0282(2) 0.08976(14)
C109 C 0.65363(18) 1.0687(2) 0.14745(15)
C110 C 0.69029(17) 1.0130(2) 0.19695(14)
C111 C 0.69269(16) 0.9176(2) 0.18932(13)
C112 C 0.69489(15) 0.3758(2) 0.22734(12)
H20 H 0.6621 0.3246 0.2050
H21 H 0.6634 0.4284 0.2318
H22 H 0.7264 0.3541 0.2687
Si2 Si 0.75726(4) 0.41452(6) 0.18259(3)
C113 C 0.4661(3) 0.9603(4) 0.1695(2)
H23 H 0.5012 1.0007 0.2009
H24 H 0.4197 0.9954 0.1477
H25 H 0.4903 0.9396 0.1395
C114 C 0.4465(3) 0.8774(4) 0.2006(2)
H26 H 0.4135 0.8347 0.1688
H27 H 0.4182 0.8977 0.2283
C115 C 0.5175(3) 0.8267(3) 0.23800(18)
H28 H 0.5463 0.8670 0.2734
H29 H 0.5496 0.8170 0.2115
C116 C 0.5037(3) 0.7324(4) 0.2634(2)
H30 H 0.4688 0.7413 0.2876
H31 H 0.4783 0.6904 0.2280
C117 C 0.5757(3) 0.6854(4) 0.30481(18)
H32 H 0.5615 0.6272 0.3219
H33 H 0.6005 0.7274 0.3404
C118 C 0.6336(2) 0.6608(3) 0.27256(17)
H34 H 0.6093 0.6176 0.2376
H35 H 0.6472 0.7187 0.2547
C119 C 0.7042(3) 0.6168(4) 0.3139(2)
H36 H 0.7301 0.6602 0.3476
H37 H 0.7377 0.6020 0.2898
H38 H 0.6916 0.5591 0.3316
C120 C 0.8322(3) 0.5278(5) 0.4559(3)
H39 H 0.7869 0.5578 0.4271
H40 H 0.8757 0.5390 0.4418
H41 H 0.8427 0.5541 0.4977
C121 C 0.8181(5) 0.4200(5) 0.4577(3)
H42 H 0.7841 0.3993 0.4163
H43 H 0.8670 0.3865 0.4665
C122 C 0.7840(6) 0.3947(5) 0.5053(4)
H44 H 0.7465 0.4433 0.5064
H45 H 0.8241 0.3936 0.5466
C123 C 0.7439(5) 0.2980(7) 0.4928(6)
H46 H 0.7006 0.2982 0.5089
H47 H 0.7236 0.2865 0.4474
C124 C 0.7931(6) 0.2276(6) 0.5210(5)
H48 H 0.8210 0.2493 0.5638
H49 H 0.8309 0.2237 0.4990
C125 C 0.7678(4) 0.1279(6) 0.5268(3)
H50 H 0.8132 0.0872 0.5377
H51 H 0.7481 0.1259 0.5622
C126 C 0.7120(4) 0.0884(6) 0.4745(3)
H52 H 0.6657 0.1263 0.4636
H53 H 0.7007 0.0244 0.4844
H54 H 0.7311 0.0870 0.4391
C127 C 0.2487(5) 0.4388(10) -0.0011(5)
H55 H 0.2897 0.4446 0.0389
H56 H 0.2091 0.4851 -0.0032
H57 H 0.2689 0.4499 -0.0352
C128 C 0.2107(5) 0.3286(6) -0.0079(4)
H58 H 0.1578 0.3354 -0.0082
H59 H 0.2078 0.3049 -0.0495
C129 C 0.2467(3) 0.2531(5) 0.0381(3)
H60 H 0.2562 0.2788 0.0804
H61 H 0.2969 0.2387 0.0342
C130 C 0.2033(3) 0.1607(4) 0.0333(3)
H62 H 0.1512 0.1751 0.0329
H63 H 0.1988 0.1308 -0.0070
C131 C 0.2379(3) 0.0920(4) 0.0841(2)
H64 H 0.2423 0.1217 0.1245
H65 H 0.2900 0.0774 0.0845
C132 C 0.1952(3) 0.0023(5) 0.0791(2)
H66 H 0.1942 -0.0317 0.0408
H67 H 0.1422 0.0152 0.0768
C133 C 0.2348(3) -0.0570(5) 0.1363(3)
H68 H 0.2828 -0.0809 0.1336
H69 H 0.2021 -0.1097 0.1384
H70 H 0.2450 -0.0185 0.1739
loop_
_geom_bond_atom_site_label_1
_geom_bond_atom_site_label_2
_geom_bond_site_symmetry_1
_geom_bond_site_symmetry_2
F1 C27 1_555 1_555
F2 C28 1_555 1_555
F3 C29 1_555 1_555
F4 C30 1_555 1_555
F5 C33 1_555 1_555
F6 C34 1_555 1_555
F7 C35 1_555 1_555
F8 C36 1_555 1_555
F9 C37 1_555 1_555
F10 C39 1_555 1_555
F11 C40 1_555 1_555
F12 C41 1_555 1_555
F13 C42 1_555 1_555
F14 C43 1_555 1_555
F15 C45 1_555 1_555
F16 C46 1_555 1_555
F17 C47 1_555 1_555
F18 C48 1_555 1_555
F19 C49 1_555 1_555
F20 C51 1_555 1_555
F21 C52 1_555 1_555
F22 C53 1_555 1_555
F23 C54 1_555 1_555
F24 C55 1_555 1_555
N1 C1 1_555 1_555
N2 C6 1_555 1_555
N3 C11 1_555 1_555
N4 C16 1_555 1_555
N5 C2 1_555 1_555
C1 C2 1_555 1_555
C2 C3 1_555 1_555
C3 C4 1_555 1_555
C4 N1 1_555 1_555
C5 C4 1_555 1_555
C6 C5 1_555 1_555
C7 C6 1_555 1_555
H1 C7 1_555 1_555
C8 C7 1_555 1_555
H2 C8 1_555 1_555
C9 N2 1_555 1_555
C10 C9 1_555 1_555
C11 C10 1_555 1_555
C12 C11 1_555 1_555
H3 C12 1_555 1_555
C13 C12 1_555 1_555
H4 C13 1_555 1_555
C14 N3 1_555 1_555
C15 C14 1_555 1_555
C16 C15 1_555 1_555
C17 C16 1_555 1_555
H5 C17 1_555 1_555
C18 C17 1_555 1_555
H6 C18 1_555 1_555
C19 N4 1_555 1_555
C20 C19 1_555 1_555
C21 N5 1_555 1_555
C22 C21 1_555 1_555
H7 C22 1_555 1_555
C23 C22 1_555 1_555
H8 C23 1_555 1_555
C24 N5 1_555 1_555
C25 C1 1_555 1_555
C26 N1 1_555 1_555
C27 C26 1_555 1_555
C28 C27 1_555 1_555
C29 C28 1_555 1_555
C30 C29 1_555 1_555
C31 C5 1_555 1_555
C32 C10 1_555 1_555
C33 C32 1_555 1_555
C34 C33 1_555 1_555
C35 C34 1_555 1_555
C36 C35 1_555 1_555
C37 C32 1_555 1_555
C38 C15 1_555 1_555
C39 C38 1_555 1_555
C40 C39 1_555 1_555
C41 C40 1_555 1_555
C42 C41 1_555 1_555
C43 C38 1_555 1_555
C44 C20 1_555 1_555
C45 C44 1_555 1_555
C46 C45 1_555 1_555
C47 C46 1_555 1_555
C48 C47 1_555 1_555
C49 C44 1_555 1_555
C50 C25 1_555 1_555
C51 C50 1_555 1_555
C52 C51 1_555 1_555
C53 C52 1_555 1_555
C54 C53 1_555 1_555
C55 C50 1_555 1_555
C56 H9 1_555 1_555
H10 C56 1_555 1_555
H11 C56 1_555 1_555
Si1 N2 1_555 1_555
F25 C84 1_555 1_555
F26 C85 1_555 1_555
F27 C86 1_555 1_555
F28 C87 1_555 1_555
F29 C89 1_555 1_555
F30 C90 1_555 1_555
F31 C91 1_555 1_555
F32 C92 1_555 1_555
F33 C93 1_555 1_555
F34 C95 1_555 1_555
F35 C96 1_555 1_555
F36 C97 1_555 1_555
F37 C98 1_555 1_555
F38 C99 1_555 1_555
F39 C101 1_555 1_555
F40 C102 1_555 1_555
F41 C103 1_555 1_555
F42 C104 1_555 1_555
F43 C105 1_555 1_555
F44 C107 1_555 1_555
F45 C108 1_555 1_555
F46 C109 1_555 1_555
F47 C110 1_555 1_555
F48 C111 1_555 1_555
N6 C57 1_555 1_555
N7 C62 1_555 1_555
N8 C67 1_555 1_555
N9 C72 1_555 1_555
N10 C58 1_555 1_555
C57 C58 1_555 1_555
C58 C59 1_555 1_555
C59 C60 1_555 1_555
C60 N6 1_555 1_555
C61 C60 1_555 1_555
C62 C61 1_555 1_555
C63 C62 1_555 1_555
H12 C63 1_555 1_555
C64 C63 1_555 1_555
H13 C64 1_555 1_555
C65 N7 1_555 1_555
C66 C65 1_555 1_555
C67 C66 1_555 1_555
C68 C67 1_555 1_555
H14 C68 1_555 1_555
C69 C68 1_555 1_555
H15 C69 1_555 1_555
C70 N8 1_555 1_555
C71 C70 1_555 1_555
C72 C71 1_555 1_555
C73 C72 1_555 1_555
H16 C73 1_555 1_555
C74 C73 1_555 1_555
H17 C74 1_555 1_555
C75 N9 1_555 1_555
C76 C75 1_555 1_555
C77 N10 1_555 1_555
C78 C77 1_555 1_555
H18 C78 1_555 1_555
C79 C78 1_555 1_555
H19 C79 1_555 1_555
C80 N10 1_555 1_555
C81 C57 1_555 1_555
C82 C61 1_555 1_555
C83 N6 1_555 1_555
C84 C83 1_555 1_555
C85 C84 1_555 1_555
C86 C85 1_555 1_555
C87 C82 1_555 1_555
C88 C66 1_555 1_555
C89 C88 1_555 1_555
C90 C89 1_555 1_555
C91 C90 1_555 1_555
C92 C91 1_555 1_555
C93 C88 1_555 1_555
C94 C71 1_555 1_555
C95 C94 1_555 1_555
C96 C95 1_555 1_555
C97 C96 1_555 1_555
C98 C97 1_555 1_555
C99 C94 1_555 1_555
C100 C76 1_555 1_555
C101 C100 1_555 1_555
C102 C101 1_555 1_555
C103 C102 1_555 1_555
C104 C103 1_555 1_555
C105 C100 1_555 1_555
C106 C81 1_555 1_555
C107 C106 1_555 1_555
C108 C107 1_555 1_555
C109 C108 1_555 1_555
C110 C109 1_555 1_555
C111 C106 1_555 1_555
C112 H20 1_555 1_555
H21 C112 1_555 1_555
H22 C112 1_555 1_555
Si2 N7 1_555 1_555
C113 H23 1_555 1_555
H24 C113 1_555 1_555
H25 C113 1_555 1_555
C114 C113 1_555 1_555
H26 C114 1_555 1_555
H27 C114 1_555 1_555
C115 C114 1_555 1_555
H28 C115 1_555 1_555
H29 C115 1_555 1_555
C116 C115 1_555 1_555
H30 C116 1_555 1_555
H31 C116 1_555 1_555
C117 C116 1_555 1_555
H32 C117 1_555 1_555
H33 C117 1_555 1_555
C118 C117 1_555 1_555
H34 C118 1_555 1_555
H35 C118 1_555 1_555
C119 C118 1_555 1_555
H36 C119 1_555 1_555
H37 C119 1_555 1_555
H38 C119 1_555 1_555
C120 H39 1_555 1_555
H40 C120 1_555 1_555
H41 C120 1_555 1_555
C121 C120 1_555 1_555
H42 C121 1_555 1_555
H43 C121 1_555 1_555
C122 C121 1_555 1_555
H44 C122 1_555 1_555
H45 C122 1_555 1_555
C123 C122 1_555 1_555
H46 C123 1_555 1_555
H47 C123 1_555 1_555
C124 C123 1_555 1_555
H48 C124 1_555 1_555
H49 C124 1_555 1_555
C125 C124 1_555 1_555
H50 C125 1_555 1_555
H51 C125 1_555 1_555
C126 C125 1_555 1_555
H52 C126 1_555 1_555
H53 C126 1_555 1_555
H54 C126 1_555 1_555
C127 H55 1_555 1_555
H56 C127 1_555 1_555
H57 C127 1_555 1_555
C128 C127 1_555 1_555
H58 C128 1_555 1_555
H59 C128 1_555 1_555
C129 C128 1_555 1_555
H60 C129 1_555 1_555
H61 C129 1_555 1_555
C130 C129 1_555 1_555
H62 C130 1_555 1_555
H63 C130 1_555 1_555
C131 C130 1_555 1_555
H64 C131 1_555 1_555
H65 C131 1_555 1_555
C132 C131 1_555 1_555
H66 C132 1_555 1_555
H67 C132 1_555 1_555
C133 C132 1_555 1_555
H68 C133 1_555 1_555
H69 C133 1_555 1_555
H70 C133 1_555 1_555
N3 Si1 1_555 1_555
N4 Si1 1_555 1_555
C3 Si1 1_555 1_555
C8 C9 1_555 1_555
C13 C14 1_555 1_555
C18 C19 1_555 1_555
C20 C21 1_555 1_555
C23 C24 1_555 1_555
C24 C25 1_555 1_555
C26 C31 1_555 1_555
C30 C31 1_555 1_555
C36 C37 1_555 1_555
C42 C43 1_555 1_555
C48 C49 1_555 1_555
C54 C55 1_555 1_555
C56 Si1 1_555 1_555
N8 Si2 1_555 1_555
N9 Si2 1_555 1_555
C59 Si2 1_555 1_555
C64 C65 1_555 1_555
C69 C70 1_555 1_555
C74 C75 1_555 1_555
C76 C77 1_555 1_555
C79 C80 1_555 1_555
C80 C81 1_555 1_555
C82 C83 1_555 1_555
C86 C87 1_555 1_555
C92 C93 1_555 1_555
C98 C99 1_555 1_555
C104 C105 1_555 1_555
C110 C111 1_555 1_555
C112 Si2 1_555 1_555

#END
