
#######################################################################
#
#                 Cambridge Crystallographic Data Centre
#                                CCDC 
#
#######################################################################
#
# If this CIF has been generated from an entry in the Cambridge 
# Structural Database, then it will include bibliographic, chemical, 
# crystal, experimental, refinement or atomic coordinate data resulting 
# from the CCDC's data processing and validation procedures.
#
#######################################################################

data_ZAMSOV
_chemical_name_common            'Oleandrin dihydrate'
_chemical_formula_moiety         'C32 H48 O9,2(H2 O1)'
_chemical_name_systematic        
'16\b-(Acetyloxy)-3\b-((2,6-dideoxy-3-O-methyl-L-arabino-hexopyranosyl)oxy)-14-hydroxycard-20(22)-enolide dihydrate'
_symmetry_cell_setting           orthorhombic
_symmetry_space_group_name_H-M   'P 21 21 21'
_symmetry_Int_Tables_number      19
_space_group_name_Hall           'P 2ac 2ab'
loop_
_symmetry_equiv_pos_site_id
_symmetry_equiv_pos_as_xyz
1 x,y,z
2 1/2-x,-y,1/2+z
3 1/2+x,1/2-y,-z
4 -x,1/2+y,1/2-z
_cell_length_a                   9.534(4)
_cell_length_b                   14.283(4)
_cell_length_c                   24.020(5)
_cell_angle_alpha                90
_cell_angle_beta                 90
_cell_angle_gamma                90
_cell_volume                     3270.9
_exptl_crystal_colour            colorless
_cell_formula_units_Z            4
loop_
_atom_site_label
_atom_site_type_symbol
_atom_site_fract_x
_atom_site_fract_y
_atom_site_fract_z
C1 C 0.6945(5) 1.0205(2) 0.9269(2)
C2 C 0.7075(5) 0.9425(3) 0.88465(15)
C3 C 0.6755(3) 0.8464(2) 0.90966(13)
C4 C 0.5298(4) 0.8407(2) 0.93757(12)
C5 C 0.5179(5) 0.9245(3) 0.97887(14)
C6 C 0.5519(5) 1.0190(3) 0.9534(2)
C7 C 0.5201(5) 0.7510(3) 0.9725(2)
C8 C 0.4129(3) 0.8427(2) 0.89253(11)
C9 C 0.4326(3) 0.7636(2) 0.84925(12)
C10 C 0.5773(3) 0.7685(2) 0.82258(14)
C11 C 0.6937(4) 0.7684(3) 0.8664(2)
C12 C 0.2648(4) 0.8391(3) 0.91652(13)
C13 C 0.1526(4) 0.8416(3) 0.87126(13)
C14 C 0.1646(3) 0.7592(2) 0.82979(12)
C15 C 0.3153(3) 0.7592(2) 0.80554(11)
C16 C 0.3139(3) 0.8404(2) 0.76382(12)
C17 C 0.1622(3) 0.8528(2) 0.74509(12)
C18 C 0.0702(3) 0.7837(2) 0.77847(12)
C19 C 0.1203(4) 0.6674(3) 0.8587(2)
C20 C 0.0112(3) 0.7048(2) 0.74396(12)
C21 C 0.0883(4) 0.6266(3) 0.7151(2)
C22 C -0.1445(4) 0.6140(2) 0.69534(15)
C23 C -0.1239(4) 0.6955(2) 0.73134(14)
C24 C 0.0452(5) 0.8772(3) 0.6591(2)
C25 C 0.0482(7) 0.8570(5) 0.5982(2)
C26 C 0.9189(5) 1.0643(3) 0.9645(2)
C27 C 1.0370(5) 1.0244(3) 0.9983(2)
C28 C 1.0235(4) 1.0376(3) 1.0598(2)
C29 C 0.9832(4) 1.1389(2) 1.07300(15)
C30 C 0.8562(4) 1.1663(2) 1.03938(14)
C31 C 1.1538(6) 0.9830(3) 1.1403(2)
C32 C 0.8039(7) 1.2650(3) 1.0485(2)
O1 O 0.3358(2) 0.67634(14) 0.77133(8)
O2 O -0.0195(3) 0.5748(2) 0.68516(10)
O3 O -0.2511(3) 0.5805(2) 0.67625(13)
O4 O 0.1526(2) 0.8365(2) 0.68553(8)
O5 O -0.0389(4) 0.9254(2) 0.6832(2)
O6 O 0.7995(3) 1.0072(2) 0.97005(10)
O7 O 0.8869(3) 1.1585(2) 0.98078(9)
O8 O 1.1560(3) 1.0090(2) 1.0837(2)
O9 O 0.9554(3) 1.1472(2) 1.13076(10)
H1 H 0.7087(40) 1.0828(28) 0.9063(15)
H2 H 0.7977(44) 0.9495(26) 0.8705(15)
H3 H 0.6509(44) 0.9589(28) 0.8524(18)
H4 H 0.7398(33) 0.8348(22) 0.9409(13)
H5 H 0.5894(46) 0.9121(31) 1.0080(18)
H6 H 0.4307(46) 0.9197(31) 0.9980(17)
H7 H 0.4819(45) 1.0296(29) 0.9267(17)
H8 H 0.5540(44) 1.0675(31) 0.9827(17)
H9 H 0.4299(53) 0.7598(37) 0.9964(20)
H10 H 0.5928(52) 0.7495(36) 0.9987(20)
H11 H 0.5018(58) 0.6973(38) 0.9509(20)
H12 H 0.4169(35) 0.8958(24) 0.8726(13)
H13 H 0.4263(26) 0.6994(19) 0.8713(10)
H14 H 0.5877(33) 0.7192(23) 0.7938(12)
H15 H 0.5821(33) 0.8216(24) 0.8013(12)
H16 H 0.7831(43) 0.7750(28) 0.8493(16)
H17 H 0.6962(41) 0.7036(29) 0.8902(16)
H18 H 0.2486(45) 0.8897(30) 0.9432(17)
H19 H 0.2512(42) 0.7819(29) 0.9383(16)
H20 H 0.0542(40) 0.8368(25) 0.8892(14)
H21 H 0.1612(33) 0.9006(22) 0.8500(12)
H22 H 0.3715(39) 0.8319(25) 0.7279(14)
H23 H 0.3378(33) 0.9040(22) 0.7842(12)
H24 H 0.1312(32) 0.9116(22) 0.7517(11)
H25 H -0.0161(37) 0.8167(22) 0.7929(12)
H26 H 0.0276(50) 0.6784(30) 0.8748(17)
H27 H 0.1237(49) 0.6202(32) 0.8317(18)
H28 H 0.1861(51) 0.6531(35) 0.8928(20)
H29 H 0.1482(44) 0.6522(29) 0.6882(15)
H30 H 0.1265(42) 0.5841(28) 0.7418(16)
H31 H -0.2002(42) 0.7351(28) 0.7448(16)
H32 H 0.1261(50) 0.8167(30) 0.5900(17)
H33 H 0.0580(49) 0.9145(32) 0.5779(18)
H34 H -0.0375(51) 0.8267(35) 0.5875(20)
H35 H 0.9503(33) 1.0666(22) 0.9251(13)
H36 H 1.1059(51) 1.0554(37) 0.9878(19)
H37 H 1.0466(66) 0.9513(48) 0.9882(23)
H38 H 0.9433(38) 0.9974(23) 1.0779(13)
H39 H 1.0552(40) 1.1734(27) 1.0624(15)
H40 H 0.7817(41) 1.1192(27) 1.0499(15)
H41 H 1.2611(63) 0.9577(38) 1.1473(21)
H42 H 1.0587(70) 0.9392(46) 1.1449(25)
H43 H 1.1438(66) 1.0447(47) 1.1643(25)
H44 H 0.7740(51) 1.2822(34) 1.0844(20)
H45 H 0.7149(65) 1.2737(41) 1.0230(22)
H46 H 0.8889(50) 1.3004(32) 1.0387(18)
H47 H 0.3405(46) 0.6288(30) 0.7929(15)
H48 H 0.9684(51) 1.1973(35) 1.1441(18)
O10 O 1.0121(4) 1.3232(2) 1.17041(11)
H49 H 0.9426(52) 1.3536(33) 1.1772(19)
H50 H 1.0627(63) 1.3366(40) 1.2087(23)
O11 O 0.8200(4) 1.0131(2) 1.1962(2)
H51 H 0.8740(80) 1.0630(55) 1.1781(29)
H52 H 0.7165(73) 1.0274(45) 1.1850(24)
loop_
_geom_bond_atom_site_label_1
_geom_bond_atom_site_label_2
_geom_bond_site_symmetry_1
_geom_bond_site_symmetry_2
C1 C2 1_555 1_555
C2 C3 1_555 1_555
C3 C4 1_555 1_555
C4 C5 1_555 1_555
C5 C6 1_555 1_555
C6 C1 1_555 1_555
C7 C4 1_555 1_555
C8 C4 1_555 1_555
C9 C8 1_555 1_555
C10 C9 1_555 1_555
C11 C3 1_555 1_555
C12 C8 1_555 1_555
C13 C12 1_555 1_555
C14 C13 1_555 1_555
C15 C9 1_555 1_555
C16 C15 1_555 1_555
C17 C16 1_555 1_555
C18 C14 1_555 1_555
C19 C14 1_555 1_555
C20 C18 1_555 1_555
C21 C20 1_555 1_555
C22 C23 1_555 1_555
C23 C20 1_555 1_555
C24 C25 1_555 1_555
C25 H32 1_555 1_555
C26 C27 1_555 1_555
C27 C28 1_555 1_555
C28 C29 1_555 1_555
C29 C30 1_555 1_555
C30 C32 1_555 1_555
C31 O8 1_555 1_555
C32 H44 1_555 1_555
O1 C15 1_555 1_555
O2 C21 1_555 1_555
O3 C22 1_555 1_555
O4 C17 1_555 1_555
O5 C24 1_555 1_555
O6 C1 1_555 1_555
O7 C26 1_555 1_555
O8 C28 1_555 1_555
O9 C29 1_555 1_555
H1 C1 1_555 1_555
H2 C2 1_555 1_555
H3 C2 1_555 1_555
H4 C3 1_555 1_555
H5 C5 1_555 1_555
H6 C5 1_555 1_555
H7 C6 1_555 1_555
H8 C6 1_555 1_555
H9 C7 1_555 1_555
H10 C7 1_555 1_555
H11 C7 1_555 1_555
H12 C8 1_555 1_555
H13 C9 1_555 1_555
H14 C10 1_555 1_555
H15 C10 1_555 1_555
H16 C11 1_555 1_555
H17 C11 1_555 1_555
H18 C12 1_555 1_555
H19 C12 1_555 1_555
H20 C13 1_555 1_555
H21 C13 1_555 1_555
H22 C16 1_555 1_555
H23 C16 1_555 1_555
H24 C17 1_555 1_555
H25 C18 1_555 1_555
H26 C19 1_555 1_555
H27 C19 1_555 1_555
H28 C19 1_555 1_555
H29 C21 1_555 1_555
H30 C21 1_555 1_555
H31 C23 1_555 1_555
H33 C25 1_555 1_555
H34 C25 1_555 1_555
H35 C26 1_555 1_555
H36 C27 1_555 1_555
H37 C27 1_555 1_555
H38 C28 1_555 1_555
H39 C29 1_555 1_555
H40 C30 1_555 1_555
H41 C31 1_555 1_555
H42 C31 1_555 1_555
H43 C31 1_555 1_555
H45 C32 1_555 1_555
H46 C32 1_555 1_555
H47 O1 1_555 1_555
H48 O9 1_555 1_555
O10 H49 1_555 1_555
H50 O10 1_555 1_555
O11 H51 1_555 1_555
H52 O11 1_555 1_555
C10 C11 1_555 1_555
C14 C15 1_555 1_555
C17 C18 1_555 1_555
C22 O2 1_555 1_555
C24 O4 1_555 1_555
C26 O6 1_555 1_555
C30 O7 1_555 1_555

#END
