
#######################################################################
#
#                 Cambridge Crystallographic Data Centre
#                                CCDC 
#
#######################################################################
#
# If this CIF has been generated from an entry in the Cambridge 
# Structural Database, then it will include bibliographic, chemical, 
# crystal, experimental, refinement or atomic coordinate data resulting 
# from the CCDC's data processing and validation procedures.
#
#######################################################################

data_ZAMSEO
_chemical_formula_moiety         'C46 H44 B1 N1,C1 H2 Cl2'
_chemical_name_systematic        
"2'-(4-(dimesitylboryl)phenyl)-N,N-dimethyl-1,1'-binaphthalen-2-amine dichloromethane solvate"
_symmetry_cell_setting           monoclinic
_symmetry_space_group_name_H-M   'C c'
_symmetry_Int_Tables_number      9
_space_group_name_Hall           'C -2yc'
loop_
_symmetry_equiv_pos_site_id
_symmetry_equiv_pos_as_xyz
1 x,y,z
2 x,-y,1/2+z
3 1/2+x,1/2+y,z
4 1/2+x,1/2-y,1/2+z
_cell_length_a                   8.0653(3)
_cell_length_b                   22.7193(11)
_cell_length_c                   21.5795(10)
_cell_angle_alpha                90
_cell_angle_beta                 96.497(3)
_cell_angle_gamma                90
_cell_volume                     3928.79
_exptl_crystal_description       needle
_cell_formula_units_Z            4
loop_
_atom_site_label
_atom_site_type_symbol
_atom_site_fract_x
_atom_site_fract_y
_atom_site_fract_z
B1 B 0.2790(8) -0.5237(3) 0.0830(3)
C1 C -0.2382(12) -0.3670(4) 0.0570(3)
H1 H -0.1292 -0.3812 0.0725
H2 H -0.3158 -0.3992 0.0535
H3 H -0.2732 -0.3381 0.0853
C2 C -0.3961(9) -0.3347(4) -0.0406(4)
H4 H -0.3925 -0.3028 -0.0695
H5 H -0.4801 -0.3269 -0.0135
H6 H -0.4225 -0.3706 -0.0631
C3 C -0.0979(8) -0.3056(3) -0.0149(3)
C4 C -0.0060(9) -0.2746(3) 0.0350(3)
H7 H -0.0354 -0.2791 0.0752
C5 C 0.1207(10) -0.2392(3) 0.0260(3)
H8 H 0.1736 -0.2182 0.0596
C6 C 0.1771(8) -0.2328(3) -0.0336(3)
C7 C 0.0941(7) -0.2660(2) -0.0832(3)
C8 C -0.0439(7) -0.3023(2) -0.0734(2)
C9 C 0.3121(11) -0.1965(3) -0.0452(5)
H9 H 0.3646 -0.1736 -0.0130
C10 C 0.3667(11) -0.1940(4) -0.1020(6)
H10 H 0.4547 -0.1693 -0.1087
C11 C 0.2921(10) -0.2283(4) -0.1501(4)
H11 H 0.3323 -0.2272 -0.1889
C12 C 0.1586(8) -0.2640(3) -0.1414(3)
H12 H 0.1103 -0.2870 -0.1742
C13 C -0.2458(7) -0.2490(3) -0.1800(3)
H13 H -0.1935 -0.2252 -0.1486
C14 C -0.3432(9) -0.2240(4) -0.2300(3)
H14 H -0.3511 -0.1832 -0.2326
C15 C -0.4290(10) -0.2578(5) -0.2759(3)
H15 H -0.4954 -0.2398 -0.3085
C16 C -0.4169(9) -0.3169(4) -0.2734(3)
H16 H -0.4771 -0.3395 -0.3041
C17 C -0.3113(9) -0.3457(3) -0.2238(3)
C18 C -0.2255(7) -0.3115(3) -0.1769(3)
C19 C -0.2964(9) -0.4074(3) -0.2201(3)
H17 H -0.3553 -0.4308 -0.2504
C20 C -0.1963(8) -0.4331(3) -0.1726(3)
H18 H -0.1856 -0.4739 -0.1718
C21 C -0.1083(8) -0.3994(3) -0.1247(3)
C22 C -0.1246(7) -0.3389(2) -0.1263(2)
C23 C -0.0078(7) -0.4311(2) -0.0734(3)
C24 C -0.0773(8) -0.4772(3) -0.0428(3)
H19 H -0.1876 -0.4879 -0.0548
C25 C 0.0141(7) -0.5074(3) 0.0051(3)
H20 H -0.0357 -0.5385 0.0240
C26 C 0.1796(8) -0.4925(2) 0.0258(3)
C27 C 0.2476(7) -0.4463(2) -0.0058(3)
H21 H 0.3572 -0.4350 0.0064
C28 C 0.1575(8) -0.4169(3) -0.0546(3)
H22 H 0.2085 -0.3872 -0.0752
C29 C 0.2423(9) -0.4047(3) 0.1450(4)
H23 H 0.2235 -0.3898 0.1852
H24 H 0.1553 -0.4320 0.1307
H25 H 0.2423 -0.3727 0.1159
C30 C 0.4080(8) -0.4356(3) 0.1497(3)
C31 C 0.5408(9) -0.4111(3) 0.1886(3)
H26 H 0.5224 -0.3774 0.2113
C32 C 0.6982(9) -0.4357(3) 0.1943(3)
C33 C 0.8393(11) -0.4063(4) 0.2340(4)
H27 H 0.7955 -0.3833 0.2657
H28 H 0.8990 -0.3812 0.2085
H29 H 0.9136 -0.4357 0.2532
C34 C 0.7240(8) -0.4868(3) 0.1613(3)
H30 H 0.8306 -0.5029 0.1634
C35 C 0.5922(7) -0.5144(2) 0.1250(3)
C36 C 0.6314(9) -0.5697(3) 0.0911(4)
H31 H 0.6436 -0.5605 0.0485
H32 H 0.5421 -0.5975 0.0926
H33 H 0.7334 -0.5865 0.1108
C37 C 0.4310(7) -0.4900(2) 0.1194(3)
C38 C 0.2543(10) -0.6318(3) 0.0003(3)
H34 H 0.1754 -0.6091 -0.0264
H35 H 0.2592 -0.6710 -0.0158
H36 H 0.3625 -0.6139 0.0020
C39 C 0.2011(7) -0.6339(2) 0.0643(3)
C40 C 0.2179(7) -0.5853(2) 0.1055(3)
C41 C 0.1748(7) -0.5939(2) 0.1665(3)
C42 C 0.1935(10) -0.5468(3) 0.2160(3)
H37 H 0.3078 -0.5343 0.2227
H38 H 0.1607 -0.5623 0.2542
H39 H 0.1238 -0.5139 0.2027
C43 C 0.1063(9) -0.6471(3) 0.1829(3)
H40 H 0.0703 -0.6509 0.2221
C44 C 0.0903(8) -0.6942(3) 0.1427(3)
C45 C 0.0184(12) -0.7517(3) 0.1629(5)
H41 H 0.1072 -0.7768 0.1806
H42 H -0.0410 -0.7708 0.1274
H43 H -0.0567 -0.7441 0.1934
C46 C 0.1395(8) -0.6875(3) 0.0848(3)
H44 H 0.1320 -0.7196 0.0578
N1 N -0.2326(7) -0.3406(3) -0.0032(3)
C47 C 0.4181(18) -0.5328(6) -0.1436(7)
H45 H 0.4501 -0.5148 -0.1812
H46 H 0.4190 -0.5025 -0.1119
Cl1 Cl 0.5588(4) -0.58580(17) -0.11882(18)
Cl2 Cl 0.2124(4) -0.56202(17) -0.15913(16)
loop_
_geom_bond_atom_site_label_1
_geom_bond_atom_site_label_2
_geom_bond_site_symmetry_1
_geom_bond_site_symmetry_2
B1 C26 1_555 1_555
C1 H1 1_555 1_555
H2 C1 1_555 1_555
H3 C1 1_555 1_555
C2 H4 1_555 1_555
H5 C2 1_555 1_555
H6 C2 1_555 1_555
C3 C4 1_555 1_555
C4 H7 1_555 1_555
C5 C4 1_555 1_555
H8 C5 1_555 1_555
C6 C5 1_555 1_555
C7 C6 1_555 1_555
C8 C3 1_555 1_555
C9 C6 1_555 1_555
H9 C9 1_555 1_555
C10 C9 1_555 1_555
H10 C10 1_555 1_555
C11 C10 1_555 1_555
H11 C11 1_555 1_555
C12 C7 1_555 1_555
H12 C12 1_555 1_555
C13 H13 1_555 1_555
C14 C13 1_555 1_555
H14 C14 1_555 1_555
C15 C14 1_555 1_555
H15 C15 1_555 1_555
C16 C15 1_555 1_555
H16 C16 1_555 1_555
C17 C16 1_555 1_555
C18 C13 1_555 1_555
C19 C17 1_555 1_555
H17 C19 1_555 1_555
C20 C19 1_555 1_555
H18 C20 1_555 1_555
C21 C20 1_555 1_555
C22 C8 1_555 1_555
C23 C21 1_555 1_555
C24 C23 1_555 1_555
H19 C24 1_555 1_555
C25 C24 1_555 1_555
H20 C25 1_555 1_555
C26 C25 1_555 1_555
C27 C26 1_555 1_555
H21 C27 1_555 1_555
C28 C23 1_555 1_555
H22 C28 1_555 1_555
C29 H23 1_555 1_555
H24 C29 1_555 1_555
H25 C29 1_555 1_555
C30 C29 1_555 1_555
C31 C30 1_555 1_555
H26 C31 1_555 1_555
C32 C31 1_555 1_555
C33 C32 1_555 1_555
H27 C33 1_555 1_555
H28 C33 1_555 1_555
H29 C33 1_555 1_555
C34 C32 1_555 1_555
H30 C34 1_555 1_555
C35 C34 1_555 1_555
C36 C35 1_555 1_555
H31 C36 1_555 1_555
H32 C36 1_555 1_555
H33 C36 1_555 1_555
C37 B1 1_555 1_555
C38 H34 1_555 1_555
H35 C38 1_555 1_555
H36 C38 1_555 1_555
C39 C38 1_555 1_555
C40 B1 1_555 1_555
C41 C40 1_555 1_555
C42 C41 1_555 1_555
H37 C42 1_555 1_555
H38 C42 1_555 1_555
H39 C42 1_555 1_555
C43 C41 1_555 1_555
H40 C43 1_555 1_555
C44 C43 1_555 1_555
C45 C44 1_555 1_555
H41 C45 1_555 1_555
H42 C45 1_555 1_555
H43 C45 1_555 1_555
C46 C39 1_555 1_555
H44 C46 1_555 1_555
N1 C1 1_555 1_555
C47 H45 1_555 1_555
H46 C47 1_555 1_555
Cl1 C47 1_555 1_555
Cl2 C47 1_555 1_555
C2 N1 1_555 1_555
C3 N1 1_555 1_555
C7 C8 1_555 1_555
C11 C12 1_555 1_555
C17 C18 1_555 1_555
C18 C22 1_555 1_555
C21 C22 1_555 1_555
C27 C28 1_555 1_555
C30 C37 1_555 1_555
C35 C37 1_555 1_555
C39 C40 1_555 1_555
C44 C46 1_555 1_555

#END
