
#######################################################################
#
#                 Cambridge Crystallographic Data Centre
#                                CCDC 
#
#######################################################################
#
# If this CIF has been generated from an entry in the Cambridge 
# Structural Database, then it will include bibliographic, chemical, 
# crystal, experimental, refinement or atomic coordinate data resulting 
# from the CCDC's data processing and validation procedures.
#
#######################################################################

data_ZAMSEL
_chemical_name_common            
(3-t-Butyl-2-hydroxy-3H-naphth-3-ylidene)methylaldamine
_chemical_formula_moiety         'C15 H17 N1 O1'
_chemical_name_systematic        2-(t-Butyliminomethyl)-3-naphthol
_symmetry_cell_setting           orthorhombic
_symmetry_space_group_name_H-M   'P 21 21 21'
_symmetry_Int_Tables_number      19
_space_group_name_Hall           'P 2ac 2ab'
loop_
_symmetry_equiv_pos_site_id
_symmetry_equiv_pos_as_xyz
1 x,y,z
2 1/2-x,-y,1/2+z
3 1/2+x,1/2-y,-z
4 -x,1/2+y,1/2-z
_cell_length_a                   6.076(2)
_cell_length_b                   14.055(6)
_cell_length_c                   15.087(9)
_cell_angle_alpha                90
_cell_angle_beta                 90
_cell_angle_gamma                90
_cell_volume                     1288.4
_exptl_crystal_colour            colorless
_cell_formula_units_Z            4
loop_
_atom_site_label
_atom_site_type_symbol
_atom_site_fract_x
_atom_site_fract_y
_atom_site_fract_z
C1 C 0.4125(10) 0.0979(4) 0.4223(4)
C2 C 0.3319(9) 0.1613(3) 0.3624(3)
C3 C 0.1145(9) 0.1993(3) 0.3736(3)
C4 C -0.0041(10) 0.1729(3) 0.4470(3)
C5 C -0.0524(12) 0.0753(4) 0.5826(4)
C6 C 0.0248(13) 0.0053(4) 0.6363(4)
C7 C 0.2340(13) -0.0339(4) 0.6223(4)
C8 C 0.3634(12) -0.0033(4) 0.5533(4)
C9 C 0.2891(9) 0.0670(3) 0.4956(3)
C10 C 0.0740(9) 0.1074(3) 0.5100(3)
C11 C 0.0137(10) 0.2602(4) 0.3056(4)
H1 H -0.157(15) 0.2801(54) 0.3160(48)
C12 C 0.0166(10) 0.3400(4) 0.1639(4)
C13 C 0.0979(16) 0.4421(5) 0.1785(5)
H2 H 0.0316(16) 0.4692(5) 0.2400(5)
H3 H 0.0438(16) 0.4865(5) 0.1243(5)
H4 H 0.2755(16) 0.4426(5) 0.1816(5)
C14 C -0.2300(12) 0.3403(7) 0.1635(6)
H5 H -0.2897(12) 0.3664(7) 0.2264(6)
H6 H -0.2896(12) 0.2688(7) 0.1529(6)
H7 H -0.2884(12) 0.3859(7) 0.1109(6)
C15 C 0.1112(18) 0.3044(7) 0.0784(4)
H8 H 0.2887(18) 0.3056(7) 0.0821(4)
H9 H 0.0572(18) 0.3496(7) 0.0247(4)
H10 H 0.0559(18) 0.2325(7) 0.0668(4)
N1 N 0.1176(8) 0.2820(3) 0.2354(3)
O1 O 0.4545(6) 0.1879(3) 0.2921(3)
H11 H 0.552(11) 0.0719(41) 0.4071(36)
H12 H -0.158(11) 0.2008(42) 0.4467(35)
H13 H -0.196(10) 0.1113(38) 0.5910(35)
H14 H -0.066(13) -0.0142(51) 0.6891(47)
H15 H 0.272(12) -0.0877(44) 0.6714(39)
H16 H 0.501(11) -0.0359(41) 0.5491(36)
H17 H 0.365(13) 0.2231(48) 0.2437(45)
loop_
_geom_bond_atom_site_label_1
_geom_bond_atom_site_label_2
_geom_bond_site_symmetry_1
_geom_bond_site_symmetry_2
C1 C2 1_555 1_555
C2 C3 1_555 1_555
C3 C4 1_555 1_555
C4 C10 1_555 1_555
C5 C6 1_555 1_555
C6 C7 1_555 1_555
C7 C8 1_555 1_555
C8 C9 1_555 1_555
C9 C1 1_555 1_555
C10 C5 1_555 1_555
C11 C3 1_555 1_555
H1 C11 1_555 1_555
C12 C13 1_555 1_555
C13 H2 1_555 1_555
H3 C13 1_555 1_555
H4 C13 1_555 1_555
C14 C12 1_555 1_555
H5 C14 1_555 1_555
H6 C14 1_555 1_555
H7 C14 1_555 1_555
C15 C12 1_555 1_555
H8 C15 1_555 1_555
H9 C15 1_555 1_555
H10 C15 1_555 1_555
N1 C11 1_555 1_555
O1 C2 1_555 1_555
H11 C1 1_555 1_555
H12 C4 1_555 1_555
H13 C5 1_555 1_555
H14 C6 1_555 1_555
H15 C7 1_555 1_555
H16 C8 1_555 1_555
H17 O1 1_555 1_555
C9 C10 1_555 1_555
C12 N1 1_555 1_555

#END
