
#######################################################################
#
#                 Cambridge Crystallographic Data Centre
#                                CCDC 
#
#######################################################################
#
# If this CIF has been generated from an entry in the Cambridge 
# Structural Database, then it will include bibliographic, chemical, 
# crystal, experimental, refinement or atomic coordinate data resulting 
# from the CCDC's data processing and validation procedures.
#
#######################################################################

data_ZAMVUE
_chemical_formula_moiety         'C12 H5 Cl4 N1 S1'
_chemical_name_systematic        
(2,3,5,6-Tetrachlorophenyl)(3-thienyl)acetonitrile
_symmetry_cell_setting           monoclinic
_symmetry_space_group_name_H-M   'P 21/n'
_symmetry_Int_Tables_number      14
_space_group_name_Hall           '-P 2yn'
loop_
_symmetry_equiv_pos_site_id
_symmetry_equiv_pos_as_xyz
1 x,y,z
2 1/2-x,1/2+y,1/2-z
3 -x,-y,-z
4 1/2+x,1/2-y,1/2+z
_cell_length_a                   9.288(2)
_cell_length_b                   10.809(2)
_cell_length_c                   13.379(2)
_cell_angle_alpha                90
_cell_angle_beta                 100.91(1)
_cell_angle_gamma                90
_cell_volume                     1318.89
_exptl_crystal_colour            colorless
_cell_formula_units_Z            4
loop_
_atom_site_label
_atom_site_type_symbol
_atom_site_fract_x
_atom_site_fract_y
_atom_site_fract_z
Cl1 Cl 0.49429(10) 0.35142(8) 0.21653(7)
Cl2 Cl 0.72619(9) 0.54436(10) 0.31357(9)
Cl3 Cl 0.34530(10) 0.75150(8) 0.51244(6)
Cl4 Cl 0.10363(8) 0.56620(7) 0.41431(6)
C1 C 0.3052(3) 0.4685(2) 0.3157(2)
C2 C 0.4474(3) 0.4627(3) 0.2958(2)
C3 C 0.5526(3) 0.5471(3) 0.3410(2)
C4 C 0.5205(3) 0.6351(3) 0.4068(2)
H1 H 0.5919(3) 0.6913(3) 0.4362(2)
C5 C 0.3826(3) 0.6401(3) 0.4292(2)
C6 C 0.2750(3) 0.5573(2) 0.3838(2)
C7 C 0.1878(3) 0.3779(3) 0.2637(2)
H2 H 0.2317(3) 0.3333(3) 0.2131(2)
C8 C 0.0592(3) 0.4414(3) 0.2065(2)
N1 N -0.0400(3) 0.4880(3) 0.1587(2)
C9 C 0.1500(3) 0.2804(3) 0.3359(2)
C10 C 0.0174(4) 0.2648(3) 0.3627(3)
H3 H -0.0647(4) 0.3128(3) 0.3378(3)
S1 S 0.01935(12) 0.14780(8) 0.44648(8)
C11 C 0.1964(4) 0.1131(3) 0.4483(2)
H4 H 0.2483(4) 0.0500(3) 0.4864(2)
C12 C 0.2540(4) 0.1945(3) 0.3834(2)
H5 H 0.3502(4) 0.1915(3) 0.3732(2)
loop_
_geom_bond_atom_site_label_1
_geom_bond_atom_site_label_2
_geom_bond_site_symmetry_1
_geom_bond_site_symmetry_2
Cl1 C2 1_555 1_555
Cl2 C3 1_555 1_555
Cl3 C5 1_555 1_555
Cl4 C6 1_555 1_555
C1 C2 1_555 1_555
C2 C3 1_555 1_555
C3 C4 1_555 1_555
C4 H1 1_555 1_555
C5 C4 1_555 1_555
C6 C1 1_555 1_555
C7 C1 1_555 1_555
H2 C7 1_555 1_555
C8 C7 1_555 1_555
N1 C8 1_555 1_555
C9 C7 1_555 1_555
C10 C9 1_555 1_555
H3 C10 1_555 1_555
S1 C10 1_555 1_555
C11 S1 1_555 1_555
H4 C11 1_555 1_555
C12 C9 1_555 1_555
H5 C12 1_555 1_555
C5 C6 1_555 1_555
C11 C12 1_555 1_555

#END
