
#######################################################################
#
#                 Cambridge Crystallographic Data Centre
#                                CCDC 
#
#######################################################################
#
# If this CIF has been generated from an entry in the Cambridge 
# Structural Database, then it will include bibliographic, chemical, 
# crystal, experimental, refinement or atomic coordinate data resulting 
# from the CCDC's data processing and validation procedures.
#
#######################################################################

data_ZAMWAL
_chemical_formula_moiety         'C15 H8 Cl5 N1 O1'
_chemical_name_systematic        
(3-Methoxyphenyl)(2,3,4,5,6-pentachlorophenyl)acetonitrile
_symmetry_cell_setting           triclinic
_symmetry_space_group_name_H-M   'P -1'
_symmetry_Int_Tables_number      2
_space_group_name_Hall           '-P 1'
loop_
_symmetry_equiv_pos_site_id
_symmetry_equiv_pos_as_xyz
1 x,y,z
2 -x,-y,-z
_cell_length_a                   7.681(2)
_cell_length_b                   8.780(2)
_cell_length_c                   12.761(3)
_cell_angle_alpha                100.24(2)
_cell_angle_beta                 99.65(2)
_cell_angle_gamma                108.39(2)
_cell_volume                     780.232
_exptl_crystal_colour            colorless
_cell_formula_units_Z            2
loop_
_atom_site_label
_atom_site_type_symbol
_atom_site_fract_x
_atom_site_fract_y
_atom_site_fract_z
Cl1 Cl 0.1317(4) 0.4144(3) 0.8622(2)
Cl2 Cl 0.3504(4) 0.5960(3) 1.0992(2)
Cl3 Cl 0.4258(4) 0.9697(3) 1.1845(2)
Cl4 Cl 0.2778(4) 1.1601(3) 1.0301(2)
Cl5 Cl 0.0383(3) 0.9755(3) 0.7965(2)
C1 C 0.0950(12) 0.7027(11) 0.8381(7)
C2 C 0.1657(12) 0.6221(10) 0.9072(7)
C3 C 0.2661(12) 0.7029(12) 1.0144(7)
C4 C 0.3004(12) 0.8681(11) 1.0526(7)
C5 C 0.2306(12) 0.9545(10) 0.9842(7)
C6 C 0.1300(11) 0.8685(11) 0.8790(6)
C7 C -0.0191(12) 0.6101(11) 0.7207(7)
H1 H -0.0214(12) 0.4962(11) 0.7109(7)
C8 C -0.2153(16) 0.6005(11) 0.7078(7)
N1 N -0.3673(13) 0.5905(10) 0.6984(6)
C9 C 0.0690(13) 0.6778(10) 0.6321(7)
C10 C -0.0335(13) 0.7204(10) 0.5490(7)
H2 H -0.1573(13) 0.7123(10) 0.5486(7)
C11 C 0.0452(14) 0.7738(11) 0.4680(7)
C12 C 0.2318(15) 0.7911(11) 0.4681(9)
H3 H 0.2871(15) 0.8297(11) 0.4139(9)
C13 C 0.3324(14) 0.7487(11) 0.5520(9)
H4 H 0.4570(14) 0.7586(11) 0.5534(9)
C14 C 0.2538(13) 0.6930(10) 0.6321(8)
H5 H 0.3244(13) 0.6650(10) 0.6871(8)
O1 O -0.0459(10) 0.8193(8) 0.3840(5)
C15 C -0.2381(15) 0.7969(12) 0.3789(7)
H6 H -0.2878(15) 0.8325(12) 0.3174(7)
H7 H -0.2484(15) 0.8609(12) 0.4453(7)
H8 H -0.3086(15) 0.6818(12) 0.3705(7)
loop_
_geom_bond_atom_site_label_1
_geom_bond_atom_site_label_2
_geom_bond_site_symmetry_1
_geom_bond_site_symmetry_2
Cl1 C2 1_555 1_555
Cl2 C3 1_555 1_555
Cl3 C4 1_555 1_555
Cl4 C5 1_555 1_555
Cl5 C6 1_555 1_555
C1 C2 1_555 1_555
C2 C3 1_555 1_555
C3 C4 1_555 1_555
C4 C5 1_555 1_555
C5 C6 1_555 1_555
C6 C1 1_555 1_555
C7 C1 1_555 1_555
H1 C7 1_555 1_555
C8 C7 1_555 1_555
N1 C8 1_555 1_555
C9 C7 1_555 1_555
C10 C9 1_555 1_555
H2 C10 1_555 1_555
C11 C10 1_555 1_555
C12 C11 1_555 1_555
H3 C12 1_555 1_555
C13 C12 1_555 1_555
H4 C13 1_555 1_555
C14 C9 1_555 1_555
H5 C14 1_555 1_555
O1 C11 1_555 1_555
C15 O1 1_555 1_555
H6 C15 1_555 1_555
H7 C15 1_555 1_555
H8 C15 1_555 1_555
C13 C14 1_555 1_555

#END
