
#######################################################################
#
#                 Cambridge Crystallographic Data Centre
#                                CCDC 
#
#######################################################################
#
# If this CIF has been generated from an entry in the Cambridge 
# Structural Database, then it will include bibliographic, chemical, 
# crystal, experimental, refinement or atomic coordinate data resulting 
# from the CCDC's data processing and validation procedures.
#
#######################################################################

data_ZAMXOD
_chemical_formula_moiety         'C32 H35 N1 O1 Si1'
_chemical_name_systematic        
5-((t-butyl(dimethyl)silyl)oxy)-3-cyclopropyl-2-(cyclopropylethynyl)-4-phenyl-5H-indeno[1,2-b]pyridine
_symmetry_cell_setting           orthorhombic
_symmetry_space_group_name_H-M   'P b c a'
_symmetry_Int_Tables_number      61
_space_group_name_Hall           '-P 2ac 2ab'
loop_
_symmetry_equiv_pos_site_id
_symmetry_equiv_pos_as_xyz
1 x,y,z
2 1/2-x,-y,1/2+z
3 -x,1/2+y,1/2-z
4 1/2+x,1/2-y,-z
5 -x,-y,-z
6 1/2+x,y,1/2-z
7 x,1/2-y,1/2+z
8 1/2-x,1/2+y,z
_cell_length_a                   21.117(3)
_cell_length_b                   12.5542(17)
_cell_length_c                   21.169(3)
_cell_angle_alpha                90
_cell_angle_beta                 90
_cell_angle_gamma                90
_cell_volume                     5612.05
_exptl_crystal_colour            colorless
_exptl_crystal_description       prismatic
_cell_formula_units_Z            8
loop_
_atom_site_label
_atom_site_type_symbol
_atom_site_fract_x
_atom_site_fract_y
_atom_site_fract_z
Si1 Si 0.12873(6) 0.16362(10) 0.06305(6)
N1 N 0.24156(16) -0.0599(2) 0.23032(16)
O1 O 0.14891(12) 0.22719(19) 0.12845(12)
C1 C 0.28236(19) 0.0800(3) 0.15822(19)
C2 C 0.3384(2) 0.0385(4) 0.1342(2)
H1 H 0.3521 -0.0295 0.1451
C3 C 0.3735(2) 0.1025(4) 0.0932(2)
H2 H 0.4108 0.0764 0.0756
C4 C 0.3536(2) 0.2039(4) 0.0783(2)
H3 H 0.3783 0.2459 0.0518
C5 C 0.2978(2) 0.2445(4) 0.1021(2)
H4 H 0.2848 0.3132 0.0920
C6 C 0.26157(18) 0.1808(3) 0.14123(19)
C7 C 0.19902(18) 0.2061(3) 0.17233(19)
H5 H 0.2044 0.2681 0.1999
C8 C 0.18762(18) 0.1076(3) 0.21328(18)
C9 C 0.23692(19) 0.0351(3) 0.20270(19)
C10 C 0.1955(2) -0.0833(3) 0.2718(2)
C11 C 0.14547(19) -0.0154(3) 0.28762(19)
C12 C 0.13993(18) 0.0838(3) 0.25573(18)
C13 C 0.0864(2) 0.1586(3) 0.26761(19)
C14 C 0.0976(2) 0.2633(3) 0.2838(2)
H6 H 0.1389 0.2885 0.2868
C15 C 0.0472(3) 0.3306(4) 0.2955(3)
H7 H 0.0551 0.4012 0.3062
C16 C -0.0133(3) 0.2963(5) 0.2917(3)
H8 H -0.0464 0.3430 0.3003
C17 C -0.0259(2) 0.1941(5) 0.2755(3)
H9 H -0.0675 0.1704 0.2726
C18 C 0.0247(2) 0.1242(4) 0.2632(2)
H10 H 0.0163 0.0539 0.2520
C19 C 0.1017(2) -0.0476(3) 0.3397(2)
H11 H 0.0679 -0.0967 0.3273
C20 C 0.0850(3) 0.0277(4) 0.3919(2)
H12 H 0.1038 0.0982 0.3911
H13 H 0.0421 0.0252 0.4084
C21 C 0.1271(3) -0.0638(4) 0.4055(2)
H14 H 0.1099 -0.1222 0.4301
H15 H 0.1716 -0.0492 0.4127
C22 C 0.2021(2) -0.1858(4) 0.3019(2)
C23 C 0.2086(2) -0.2695(4) 0.3270(2)
C24 C 0.2192(3) -0.3703(4) 0.3586(3)
H16 H 0.2609 -0.4025 0.3515
C25 C 0.1675(4) -0.4447(5) 0.3665(4)
H17 H 0.1262 -0.4238 0.3507
H18 H 0.1770 -0.5201 0.3625
C26 C 0.1911(4) -0.3908(5) 0.4201(3)
H19 H 0.2158 -0.4317 0.4503
H20 H 0.1650 -0.3354 0.4385
C27 C 0.1269(3) 0.0171(4) 0.0748(3)
H21 H 0.1690 -0.0082 0.0832
H22 H 0.1109 -0.0165 0.0373
H23 H 0.0999 0.0003 0.1098
C28 C 0.1827(3) 0.1954(6) -0.0039(3)
H24 H 0.1898 0.2709 -0.0055
H25 H 0.1639 0.1723 -0.0428
H26 H 0.2224 0.1595 0.0021
C29 C 0.0491(2) 0.2152(4) 0.0435(2)
C30 C 0.0286(3) 0.1774(5) -0.0221(3)
H27 H -0.0123 0.2065 -0.0319
H28 H 0.0263 0.1010 -0.0225
H29 H 0.0588 0.2009 -0.0530
C31 C 0.0487(3) 0.3373(4) 0.0438(3)
H30 H 0.0091 0.3626 0.0273
H31 H 0.0828 0.3634 0.0181
H32 H 0.0539 0.3625 0.0864
C32 C 0.0012(3) 0.1773(7) 0.0927(4)
H33 H 0.0071 0.2165 0.1312
H34 H 0.0074 0.1028 0.1007
H35 H -0.0409 0.1889 0.0772
loop_
_geom_bond_atom_site_label_1
_geom_bond_atom_site_label_2
_geom_bond_site_symmetry_1
_geom_bond_site_symmetry_2
Si1 O1 1_555 1_555
N1 C9 1_555 1_555
O1 C7 1_555 1_555
C1 C2 1_555 1_555
C2 H1 1_555 1_555
C3 C2 1_555 1_555
H2 C3 1_555 1_555
C4 C3 1_555 1_555
H3 C4 1_555 1_555
C5 C4 1_555 1_555
H4 C5 1_555 1_555
C6 C1 1_555 1_555
C7 C6 1_555 1_555
H5 C7 1_555 1_555
C8 C7 1_555 1_555
C9 C1 1_555 1_555
C10 N1 1_555 1_555
C11 C10 1_555 1_555
C12 C8 1_555 1_555
C13 C12 1_555 1_555
C14 C13 1_555 1_555
H6 C14 1_555 1_555
C15 C14 1_555 1_555
H7 C15 1_555 1_555
C16 C15 1_555 1_555
H8 C16 1_555 1_555
C17 C16 1_555 1_555
H9 C17 1_555 1_555
C18 C13 1_555 1_555
H10 C18 1_555 1_555
C19 C11 1_555 1_555
H11 C19 1_555 1_555
C20 C19 1_555 1_555
H12 C20 1_555 1_555
H13 C20 1_555 1_555
C21 C19 1_555 1_555
H14 C21 1_555 1_555
H15 C21 1_555 1_555
C22 C10 1_555 1_555
C23 C22 1_555 1_555
C24 C23 1_555 1_555
H16 C24 1_555 1_555
C25 C24 1_555 1_555
H17 C25 1_555 1_555
H18 C25 1_555 1_555
C26 C24 1_555 1_555
H19 C26 1_555 1_555
H20 C26 1_555 1_555
C27 Si1 1_555 1_555
H21 C27 1_555 1_555
H22 C27 1_555 1_555
H23 C27 1_555 1_555
C28 Si1 1_555 1_555
H24 C28 1_555 1_555
H25 C28 1_555 1_555
H26 C28 1_555 1_555
C29 Si1 1_555 1_555
C30 C29 1_555 1_555
H27 C30 1_555 1_555
H28 C30 1_555 1_555
H29 C30 1_555 1_555
C31 C29 1_555 1_555
H30 C31 1_555 1_555
H31 C31 1_555 1_555
H32 C31 1_555 1_555
C32 C29 1_555 1_555
H33 C32 1_555 1_555
H34 C32 1_555 1_555
H35 C32 1_555 1_555
C5 C6 1_555 1_555
C8 C9 1_555 1_555
C11 C12 1_555 1_555
C17 C18 1_555 1_555
C20 C21 1_555 1_555
C25 C26 1_555 1_555

#END
