
#######################################################################
#
#                 Cambridge Crystallographic Data Centre
#                                CCDC 
#
#######################################################################
#
# If this CIF has been generated from an entry in the Cambridge 
# Structural Database, then it will include bibliographic, chemical, 
# crystal, experimental, refinement or atomic coordinate data resulting 
# from the CCDC's data processing and validation procedures.
#
#######################################################################

data_ZAMXET
_chemical_formula_moiety         'C31 H33 N1 O1 Si1'
_chemical_name_systematic        
5-((t-butyl(dimethyl)silyl)oxy)-3-methyl-2,4-diphenyl-5H-indeno[1,2-b]pyridine
_symmetry_cell_setting           monoclinic
_symmetry_space_group_name_H-M   'C 2/c'
_symmetry_Int_Tables_number      15
_space_group_name_Hall           '-C 2yn'
loop_
_symmetry_equiv_pos_site_id
_symmetry_equiv_pos_as_xyz
1 x,y,z
2 -x,y,1/2-z
3 1/2+x,1/2+y,z
4 1/2-x,1/2+y,1/2-z
5 -x,-y,-z
6 x,-y,1/2+z
7 1/2-x,1/2-y,-z
8 1/2+x,1/2-y,1/2+z
_cell_length_a                   42.749(4)
_cell_length_b                   12.1235(11)
_cell_length_c                   21.949(2)
_cell_angle_alpha                90
_cell_angle_beta                 105.557(2)
_cell_angle_gamma                90
_cell_volume                     10958.7
_exptl_crystal_colour            colorless
_exptl_crystal_description       prismatic
_cell_formula_units_Z            16
loop_
_atom_site_label
_atom_site_type_symbol
_atom_site_fract_x
_atom_site_fract_y
_atom_site_fract_z
Si1 Si 0.06463(3) 0.90876(11) 0.38252(6)
N1 N 0.16354(6) 0.7073(2) 0.33561(13)
O1 O 0.09575(5) 0.9839(2) 0.37829(11)
C1 C 0.12410(8) 0.8377(3) 0.26812(15)
C2 C 0.11690(9) 0.7944(4) 0.20782(17)
H1 H 0.1256 0.7274 0.1998
C3 C 0.09613(11) 0.8543(5) 0.15926(19)
H2 H 0.0909 0.8269 0.1182
C4 C 0.08337(11) 0.9528(5) 0.1711(2)
H3 H 0.0697 0.9914 0.1379
C5 C 0.09043(10) 0.9964(4) 0.2317(2)
H4 H 0.0818 1.0637 0.2394
C6 C 0.11047(8) 0.9375(3) 0.28001(15)
C7 C 0.12181(8) 0.9672(3) 0.34979(15)
H5 H 0.1348 1.0349 0.3544
C8 C 0.14399(7) 0.8716(3) 0.37644(15)
C9 C 0.14528(8) 0.7982(3) 0.32837(15)
C10 C 0.16264(7) 0.8510(3) 0.43742(15)
C11 C 0.18233(7) 0.7557(3) 0.44689(15)
C12 C 0.18150(8) 0.6870(3) 0.39507(16)
C13 C 0.20197(8) 0.5848(3) 0.40086(17)
C14 C 0.19675(10) 0.4961(3) 0.4351(2)
H6 H 0.1806 0.4997 0.4563
C15 C 0.21523(13) 0.4001(4) 0.4390(2)
H7 H 0.2114 0.3400 0.4623
C16 C 0.23869(12) 0.3954(4) 0.4085(3)
H8 H 0.2512 0.3320 0.4111
C17 C 0.24416(12) 0.4832(4) 0.3738(3)
H9 H 0.2606 0.4796 0.3533
C18 C 0.22556(10) 0.5770(4) 0.3690(2)
H10 H 0.2289 0.6355 0.3440
C19 C 0.20590(9) 0.7325(3) 0.51041(16)
H11 H 0.2127 0.8008 0.5320
H12 H 0.2245 0.6941 0.5043
H13 H 0.1955 0.6878 0.5353
C20 C 0.16196(8) 0.9264(3) 0.49036(15)
C21 C 0.17029(9) 1.0366(3) 0.48776(19)
H14 H 0.1768 1.0629 0.4532
C22 C 0.16899(11) 1.1077(4) 0.5366(2)
H15 H 0.1747 1.1813 0.5346
C23 C 0.15947(12) 1.0709(5) 0.5870(2)
H16 H 0.1586 1.1191 0.6195
C24 C 0.15105(11) 0.9624(5) 0.5900(2)
H17 H 0.1444 0.9367 0.6244
C25 C 0.15248(9) 0.8915(3) 0.54194(16)
H18 H 0.1469 0.8179 0.5446
C26 C 0.04388(12) 0.8385(5) 0.3076(2)
H19 H 0.0378 0.8919 0.2743
H20 H 0.0248 0.8018 0.3125
H21 H 0.0583 0.7853 0.2973
C27 C 0.07699(13) 0.7960(4) 0.4431(3)
H22 H 0.0929 0.7496 0.4323
H23 H 0.0583 0.7528 0.4440
H24 H 0.0861 0.8281 0.4840
C28 C 0.03831(11) 1.0090(5) 0.4086(3)
C29 C 0.02890(18) 1.1004(6) 0.3578(4)
H25 H 0.0121 1.1457 0.3662
H26 H 0.0212 1.0672 0.3168
H27 H 0.0476 1.1450 0.3588
C30 C 0.00728(14) 0.9492(7) 0.4174(3)
H28 H 0.0136 0.8949 0.4503
H29 H -0.0039 0.9136 0.3785
H30 H -0.0069 1.0022 0.4286
C31 C 0.05713(15) 1.0589(6) 0.4729(3)
H31 H 0.0762 1.0958 0.4682
H32 H 0.0633 1.0010 0.5036
H33 H 0.0435 1.1108 0.4867
Si2 Si 0.06497(3) 0.40734(12) 0.18632(6)
N2 N 0.16165(6) 0.2131(2) 0.33833(12)
O2 O 0.09612(5) 0.48554(19) 0.22020(10)
C32 C 0.12260(8) 0.3490(3) 0.36159(15)
C33 C 0.11461(9) 0.3080(4) 0.41436(17)
H34 H 0.1226 0.2405 0.4318
C34 C 0.09438(11) 0.3704(4) 0.4402(2)
H35 H 0.0884 0.3441 0.4753
C35 C 0.08284(11) 0.4716(4) 0.4146(2)
H36 H 0.0698 0.5135 0.4336
C36 C 0.09038(10) 0.5106(4) 0.36181(19)
H37 H 0.0822 0.5781 0.3445
C37 C 0.11021(8) 0.4490(3) 0.33442(16)
C38 C 0.12194(8) 0.4734(3) 0.27657(15)
H38 H 0.1349 0.5413 0.2839
C39 C 0.14416(7) 0.3764(3) 0.27569(14)
C40 C 0.14406(8) 0.3046(3) 0.32492(14)
C41 C 0.16423(8) 0.3549(3) 0.23731(14)
C42 C 0.18340(8) 0.2585(3) 0.24989(16)
C43 C 0.18073(8) 0.1905(3) 0.29988(15)
C44 C 0.20022(8) 0.0884(3) 0.31744(16)
C45 C 0.19716(9) 0.0001(3) 0.27656(18)
H39 H 0.1833 0.0053 0.2360
C46 C 0.21450(10) -0.0964(3) 0.2954(2)
H40 H 0.2121 -0.1557 0.2676
C47 C 0.23509(10) -0.1042(4) 0.3548(2)
H41 H 0.2469 -0.1686 0.3673
C48 C 0.23843(10) -0.0181(4) 0.3957(2)
H42 H 0.2525 -0.0233 0.4360
C49 C 0.22080(9) 0.0770(3) 0.37712(18)
H43 H 0.2229 0.1349 0.4057
C50 C 0.20809(9) 0.2348(3) 0.21323(19)
H44 H 0.2256 0.1922 0.2390
H45 H 0.2164 0.3031 0.2018
H46 H 0.1979 0.1942 0.1756
C51 C 0.16586(9) 0.4319(3) 0.18557(17)
C52 C 0.17915(14) 0.5336(4) 0.1976(2)
H47 H 0.1880 0.5561 0.2392
C53 C 0.17968(19) 0.6061(4) 0.1472(3)
H48 H 0.1889 0.6758 0.1557
C54 C 0.16700(17) 0.5746(5) 0.0878(3)
H49 H 0.1679 0.6222 0.0550
C55 C 0.15283(14) 0.4750(6) 0.0740(2)
H50 H 0.1434 0.4546 0.0322
C56 C 0.15255(11) 0.4033(4) 0.12319(19)
H51 H 0.1431 0.3341 0.1138
C57 C 0.04454(12) 0.3424(5) 0.2408(2)
H52 H 0.0593 0.2926 0.2683
H53 H 0.0259 0.3024 0.2170
H54 H 0.0378 0.3983 0.2655
C58 C 0.07730(14) 0.2892(5) 0.1414(3)
H55 H 0.0847 0.3179 0.1069
H56 H 0.0590 0.2417 0.1252
H57 H 0.0945 0.2481 0.1692
C59 C 0.03834(13) 0.5014(6) 0.1284(2)
C60 C 0.02807(18) 0.5960(6) 0.1677(4)
H58 H 0.0463 0.6433 0.1847
H59 H 0.0208 0.5645 0.2017
H60 H 0.0108 0.6380 0.1408
C61 C 0.00821(14) 0.4354(7) 0.0891(3)
H61 H -0.0072 0.4856 0.0635
H62 H -0.0017 0.3970 0.1173
H63 H 0.0151 0.3832 0.0624
C62 C 0.05737(15) 0.5475(6) 0.0836(2)
H64 H 0.0442 0.6000 0.0553
H65 H 0.0630 0.4882 0.0595
H66 H 0.0768 0.5829 0.1079
loop_
_geom_bond_atom_site_label_1
_geom_bond_atom_site_label_2
_geom_bond_site_symmetry_1
_geom_bond_site_symmetry_2
Si1 O1 1_555 1_555
N1 C9 1_555 1_555
O1 C7 1_555 1_555
C1 C2 1_555 1_555
C2 H1 1_555 1_555
C3 C2 1_555 1_555
H2 C3 1_555 1_555
C4 C3 1_555 1_555
H3 C4 1_555 1_555
C5 C4 1_555 1_555
H4 C5 1_555 1_555
C6 C1 1_555 1_555
C7 C6 1_555 1_555
H5 C7 1_555 1_555
C8 C7 1_555 1_555
C9 C1 1_555 1_555
C10 C8 1_555 1_555
C11 C10 1_555 1_555
C12 N1 1_555 1_555
C13 C12 1_555 1_555
C14 C13 1_555 1_555
H6 C14 1_555 1_555
C15 C14 1_555 1_555
H7 C15 1_555 1_555
C16 C15 1_555 1_555
H8 C16 1_555 1_555
C17 C16 1_555 1_555
H9 C17 1_555 1_555
C18 C13 1_555 1_555
H10 C18 1_555 1_555
C19 C11 1_555 1_555
H11 C19 1_555 1_555
H12 C19 1_555 1_555
H13 C19 1_555 1_555
C20 C10 1_555 1_555
C21 C20 1_555 1_555
H14 C21 1_555 1_555
C22 C21 1_555 1_555
H15 C22 1_555 1_555
C23 C22 1_555 1_555
H16 C23 1_555 1_555
C24 C23 1_555 1_555
H17 C24 1_555 1_555
C25 C20 1_555 1_555
H18 C25 1_555 1_555
C26 Si1 1_555 1_555
H19 C26 1_555 1_555
H20 C26 1_555 1_555
H21 C26 1_555 1_555
C27 Si1 1_555 1_555
H22 C27 1_555 1_555
H23 C27 1_555 1_555
H24 C27 1_555 1_555
C28 Si1 1_555 1_555
C29 C28 1_555 1_555
H25 C29 1_555 1_555
H26 C29 1_555 1_555
H27 C29 1_555 1_555
C30 C28 1_555 1_555
H28 C30 1_555 1_555
H29 C30 1_555 1_555
H30 C30 1_555 1_555
C31 C28 1_555 1_555
H31 C31 1_555 1_555
H32 C31 1_555 1_555
H33 C31 1_555 1_555
Si2 O2 1_555 1_555
N2 C40 1_555 1_555
O2 C38 1_555 1_555
C32 C33 1_555 1_555
C33 H34 1_555 1_555
C34 C33 1_555 1_555
H35 C34 1_555 1_555
C35 C34 1_555 1_555
H36 C35 1_555 1_555
C36 C35 1_555 1_555
H37 C36 1_555 1_555
C37 C32 1_555 1_555
C38 C37 1_555 1_555
H38 C38 1_555 1_555
C39 C38 1_555 1_555
C40 C32 1_555 1_555
C41 C39 1_555 1_555
C42 C41 1_555 1_555
C43 N2 1_555 1_555
C44 C43 1_555 1_555
C45 C44 1_555 1_555
H39 C45 1_555 1_555
C46 C45 1_555 1_555
H40 C46 1_555 1_555
C47 C46 1_555 1_555
H41 C47 1_555 1_555
C48 C47 1_555 1_555
H42 C48 1_555 1_555
C49 C44 1_555 1_555
H43 C49 1_555 1_555
C50 C42 1_555 1_555
H44 C50 1_555 1_555
H45 C50 1_555 1_555
H46 C50 1_555 1_555
C51 C41 1_555 1_555
C52 C51 1_555 1_555
H47 C52 1_555 1_555
C53 C52 1_555 1_555
H48 C53 1_555 1_555
C54 C53 1_555 1_555
H49 C54 1_555 1_555
C55 C54 1_555 1_555
H50 C55 1_555 1_555
C56 C51 1_555 1_555
H51 C56 1_555 1_555
C57 Si2 1_555 1_555
H52 C57 1_555 1_555
H53 C57 1_555 1_555
H54 C57 1_555 1_555
C58 Si2 1_555 1_555
H55 C58 1_555 1_555
H56 C58 1_555 1_555
H57 C58 1_555 1_555
C59 Si2 1_555 1_555
C60 C59 1_555 1_555
H58 C60 1_555 1_555
H59 C60 1_555 1_555
H60 C60 1_555 1_555
C61 C59 1_555 1_555
H61 C61 1_555 1_555
H62 C61 1_555 1_555
H63 C61 1_555 1_555
C62 C59 1_555 1_555
H64 C62 1_555 1_555
H65 C62 1_555 1_555
H66 C62 1_555 1_555
C5 C6 1_555 1_555
C8 C9 1_555 1_555
C11 C12 1_555 1_555
C17 C18 1_555 1_555
C24 C25 1_555 1_555
C36 C37 1_555 1_555
C39 C40 1_555 1_555
C42 C43 1_555 1_555
C48 C49 1_555 1_555
C55 C56 1_555 1_555

#END
