
#######################################################################
#
#                 Cambridge Crystallographic Data Centre
#                                CCDC 
#
#######################################################################
#
# If this CIF has been generated from an entry in the Cambridge 
# Structural Database, then it will include bibliographic, chemical, 
# crystal, experimental, refinement or atomic coordinate data resulting 
# from the CCDC's data processing and validation procedures.
#
#######################################################################

data_ZAMXUJ
_chemical_formula_moiety         'C27 H33 N1 O1 Si1'
_chemical_name_systematic        
5-((t-butyl(dimethyl)silyl)oxy)-4-phenyl-2-propyl-5H-indeno[1,2-b]pyridine
_symmetry_cell_setting           monoclinic
_symmetry_space_group_name_H-M   'P 21/c'
_symmetry_Int_Tables_number      14
_space_group_name_Hall           '-P 2ybc'
loop_
_symmetry_equiv_pos_site_id
_symmetry_equiv_pos_as_xyz
1 x,y,z
2 -x,1/2+y,1/2-z
3 -x,-y,-z
4 x,1/2-y,1/2+z
_cell_length_a                   10.78(2)
_cell_length_b                   18.85(4)
_cell_length_c                   12.27(3)
_cell_angle_alpha                90
_cell_angle_beta                 106.78(4)
_cell_angle_gamma                90
_cell_volume                     2387.14
_exptl_crystal_colour            colorless
_exptl_crystal_description       prismatic
_cell_formula_units_Z            4
loop_
_atom_site_label
_atom_site_type_symbol
_atom_site_fract_x
_atom_site_fract_y
_atom_site_fract_z
Si1 Si 0.14439(8) 0.16022(5) 0.26961(8)
N1 N 0.4557(3) -0.03639(15) 0.2357(3)
O1 O 0.17809(17) 0.10325(10) 0.37430(15)
C1 C 0.4891(3) 0.05960(16) 0.3766(3)
C2 C 0.6125(3) 0.08390(18) 0.3877(3)
H1 H 0.6625 0.0645 0.3448
C3 C 0.6588(3) 0.1369(2) 0.4626(3)
H2 H 0.7414 0.1547 0.4706
C4 C 0.5860(3) 0.1647(2) 0.5265(3)
H3 H 0.6208 0.2006 0.5783
C5 C 0.4626(3) 0.14090(18) 0.5163(3)
H4 H 0.4140 0.1598 0.5609
C6 C 0.4137(3) 0.08882(16) 0.4391(2)
C7 C 0.2819(3) 0.05538(15) 0.4099(2)
H5 H 0.2734 0.0299 0.4770
C8 C 0.2913(3) 0.00171(15) 0.3218(2)
C9 C 0.4136(3) 0.00466(16) 0.3052(3)
C10 C 0.3697(4) -0.0830(2) 0.1767(3)
C11 C 0.2448(3) -0.08742(18) 0.1853(3)
H6 H 0.1882 -0.1201 0.1401
C12 C 0.2009(3) -0.04504(16) 0.2586(3)
C13 C 0.0666(3) -0.05165(15) 0.2666(3)
C14 C 0.0391(3) -0.05505(16) 0.3694(3)
H7 H 0.1064 -0.0512 0.4365
C15 C -0.0854(3) -0.06394(18) 0.3751(3)
H8 H -0.1013 -0.0676 0.4454
C16 C -0.1851(4) -0.0674(2) 0.2780(4)
H9 H -0.2698 -0.0725 0.2812
C17 C -0.1593(4) -0.0632(2) 0.1740(4)
H10 H -0.2274 -0.0651 0.1071
C18 C -0.0354(3) -0.05621(19) 0.1682(3)
H11 H -0.0195 -0.0545 0.0977
C19 C 0.4188(5) -0.1316(2) 0.1000(4)
H12 H 0.4968 -0.1551 0.1450
H13 H 0.3542 -0.1679 0.0698
C20 C 0.4468(5) -0.0952(3) 0.0064(4)
H14 H 0.5062 -0.0567 0.0371
H15 H 0.3670 -0.0743 -0.0406
C21 C 0.5051(5) -0.1404(3) -0.0698(4)
H16 H 0.5800 -0.1649 -0.0238
H17 H 0.5298 -0.1103 -0.1232
H18 H 0.4421 -0.1742 -0.1104
C22 C 0.2676(4) 0.2292(2) 0.2864(4)
H19 H 0.2768 0.2542 0.3565
H20 H 0.2419 0.2619 0.2239
H21 H 0.3489 0.2079 0.2876
C23 C 0.1299(5) 0.1176(2) 0.1300(3)
H22 H 0.2112 0.0963 0.1313
H23 H 0.1073 0.1528 0.0710
H24 H 0.0639 0.0818 0.1157
C24 C -0.0144(3) 0.19570(18) 0.2733(3)
C25 C -0.0010(5) 0.2321(3) 0.3869(4)
H25 H 0.0599 0.2705 0.3966
H26 H 0.0293 0.1985 0.4476
H27 H -0.0837 0.2504 0.3882
C26 C -0.0657(4) 0.2486(2) 0.1795(3)
H28 H -0.0816 0.2253 0.1071
H29 H -0.0031 0.2857 0.1850
H30 H -0.1450 0.2685 0.1863
C27 C -0.1115(4) 0.1361(3) 0.2616(5)
H31 H -0.1937 0.1553 0.2623
H32 H -0.0815 0.1035 0.3238
H33 H -0.1209 0.1115 0.1911
loop_
_geom_bond_atom_site_label_1
_geom_bond_atom_site_label_2
_geom_bond_site_symmetry_1
_geom_bond_site_symmetry_2
Si1 O1 1_555 1_555
N1 C9 1_555 1_555
O1 C7 1_555 1_555
C1 C2 1_555 1_555
C2 H1 1_555 1_555
C3 C2 1_555 1_555
H2 C3 1_555 1_555
C4 C3 1_555 1_555
H3 C4 1_555 1_555
C5 C4 1_555 1_555
H4 C5 1_555 1_555
C6 C1 1_555 1_555
C7 C6 1_555 1_555
H5 C7 1_555 1_555
C8 C7 1_555 1_555
C9 C1 1_555 1_555
C10 N1 1_555 1_555
C11 C10 1_555 1_555
H6 C11 1_555 1_555
C12 C8 1_555 1_555
C13 C12 1_555 1_555
C14 C13 1_555 1_555
H7 C14 1_555 1_555
C15 C14 1_555 1_555
H8 C15 1_555 1_555
C16 C15 1_555 1_555
H9 C16 1_555 1_555
C17 C16 1_555 1_555
H10 C17 1_555 1_555
C18 C13 1_555 1_555
H11 C18 1_555 1_555
C19 C10 1_555 1_555
H12 C19 1_555 1_555
H13 C19 1_555 1_555
C20 C19 1_555 1_555
H14 C20 1_555 1_555
H15 C20 1_555 1_555
C21 C20 1_555 1_555
H16 C21 1_555 1_555
H17 C21 1_555 1_555
H18 C21 1_555 1_555
C22 Si1 1_555 1_555
H19 C22 1_555 1_555
H20 C22 1_555 1_555
H21 C22 1_555 1_555
C23 Si1 1_555 1_555
H22 C23 1_555 1_555
H23 C23 1_555 1_555
H24 C23 1_555 1_555
C24 Si1 1_555 1_555
C25 C24 1_555 1_555
H25 C25 1_555 1_555
H26 C25 1_555 1_555
H27 C25 1_555 1_555
C26 C24 1_555 1_555
H28 C26 1_555 1_555
H29 C26 1_555 1_555
H30 C26 1_555 1_555
C27 C24 1_555 1_555
H31 C27 1_555 1_555
H32 C27 1_555 1_555
H33 C27 1_555 1_555
C5 C6 1_555 1_555
C8 C9 1_555 1_555
C11 C12 1_555 1_555
C17 C18 1_555 1_555

#END
