
#######################################################################
#
#                 Cambridge Crystallographic Data Centre
#                                CCDC 
#
#######################################################################
#
# If this CIF has been generated from an entry in the Cambridge 
# Structural Database, then it will include bibliographic, chemical, 
# crystal, experimental, refinement or atomic coordinate data resulting 
# from the CCDC's data processing and validation procedures.
#
#######################################################################

data_ZAMXIX
_chemical_formula_moiety         'C37 H43 N1 O1 Si1'
_chemical_name_systematic        
5-((t-butyl(dimethyl)silyl)oxy)-3-pentyl-4-phenyl-2-(2-phenylvinyl)-5H-indeno[1,2-b]pyridine
_symmetry_cell_setting           triclinic
_symmetry_space_group_name_H-M   'P -1'
_symmetry_Int_Tables_number      2
_space_group_name_Hall           '-P 1'
loop_
_symmetry_equiv_pos_site_id
_symmetry_equiv_pos_as_xyz
1 x,y,z
2 -x,-y,-z
_cell_length_a                   14.3620(18)
_cell_length_b                   15.286(2)
_cell_length_c                   16.877(2)
_cell_angle_alpha                73.183(4)
_cell_angle_beta                 72.637(3)
_cell_angle_gamma                69.154(4)
_cell_volume                     3234.42
_exptl_crystal_colour            colorless
_exptl_crystal_description       prismatic
_cell_formula_units_Z            4
loop_
_atom_site_label
_atom_site_type_symbol
_atom_site_fract_x
_atom_site_fract_y
_atom_site_fract_z
Si1 Si 0.21432(11) 0.89687(11) 1.07070(10)
N1 N 0.5308(3) 0.5859(3) 0.8778(2)
O1 O 0.2979(2) 0.8276(2) 1.0049(2)
C1 C 0.3420(4) 0.6577(3) 0.8972(3)
C2 C 0.3180(4) 0.6286(4) 0.8373(3)
H1 H 0.3688 0.5946 0.7989
C3 C 0.2150(5) 0.6518(4) 0.8363(4)
H2 H 0.1964 0.6354 0.7956
C4 C 0.1412(5) 0.6992(5) 0.8959(4)
H3 H 0.0726 0.7129 0.8960
C5 C 0.1669(4) 0.7265(4) 0.9552(4)
H4 H 0.1161 0.7587 0.9947
C6 C 0.2681(4) 0.7060(4) 0.9559(3)
C7 C 0.3151(4) 0.7281(3) 1.0148(3)
H5 H 0.2892 0.7003 1.0739
C8 C 0.4282(3) 0.6761(3) 0.9863(3)
C9 C 0.4426(4) 0.6365(3) 0.9171(3)
C10 C 0.6136(4) 0.5691(3) 0.9093(3)
C11 C 0.6055(3) 0.6033(3) 0.9814(3)
C12 C 0.5111(3) 0.6594(3) 1.0200(3)
C13 C 0.5011(3) 0.6910(3) 1.0984(3)
C14 C 0.5185(4) 0.7745(4) 1.0953(3)
H6 H 0.5334 0.8144 1.0431
C15 C 0.5145(4) 0.8006(5) 1.1684(4)
H7 H 0.5259 0.8579 1.1650
C16 C 0.4936(5) 0.7417(5) 1.2462(4)
H8 H 0.4923 0.7581 1.2955
C17 C 0.4748(5) 0.6585(5) 1.2501(4)
H9 H 0.4592 0.6190 1.3024
C18 C 0.4790(4) 0.6331(4) 1.1766(3)
H10 H 0.4667 0.5763 1.1799
C19 C 0.7093(4) 0.5091(4) 0.8681(3)
H11 H 0.7655 0.4919 0.8920
C20 C 0.7226(4) 0.4772(4) 0.7996(3)
H12 H 0.6675 0.4997 0.7735
C21 C 0.8151(4) 0.4099(4) 0.7602(3)
C22 C 0.9049(4) 0.3775(4) 0.7864(4)
H13 H 0.9099 0.4004 0.8299
C23 C 0.9878(5) 0.3118(5) 0.7497(5)
H14 H 1.0483 0.2911 0.7683
C24 C 0.9826(6) 0.2759(5) 0.6853(5)
H15 H 1.0386 0.2306 0.6610
C25 C 0.8939(6) 0.3082(5) 0.6585(4)
H16 H 0.8893 0.2856 0.6147
C26 C 0.8111(5) 0.3739(4) 0.6952(4)
H17 H 0.7509 0.3947 0.6760
C27 C 0.6995(3) 0.5801(3) 1.0149(3)
H18 H 0.7413 0.5157 1.0090
H19 H 0.6787 0.5810 1.0749
C28 C 0.7644(4) 0.6475(4) 0.9713(3)
H20 H 0.7797 0.6517 0.9106
H21 H 0.7252 0.7108 0.9822
C29 C 0.8637(5) 0.6172(6) 0.9999(4)
H22 H 0.8926 0.6702 0.9761
H23 H 0.9095 0.5650 0.9725
C30 C 0.8698(9) 0.5856(9) 1.0929(7)
H24 H 0.8496 0.5276 1.1167
H25 H 0.9403 0.5704 1.0963
C31 C 0.8049(9) 0.6580(9) 1.1459(8)
H26 H 0.8283 0.7138 1.1261
H27 H 0.8096 0.6313 1.2040
H28 H 0.7352 0.6755 1.1415
C32 C 0.2404(5) 0.8558(5) 1.1772(3)
H29 H 0.2398 0.7905 1.1983
H30 H 0.1889 0.8950 1.2142
H31 H 0.3062 0.8603 1.1749
C33 C 0.0814(4) 0.9007(5) 1.0820(4)
H32 H 0.0665 0.9168 1.0268
H33 H 0.0360 0.9480 1.1140
H34 H 0.0725 0.8392 1.1110
C34 C 0.2306(4) 1.0171(4) 1.0196(4)
C35 C 0.2057(6) 1.0496(5) 0.9307(4)
H35 H 0.2172 1.1106 0.9040
H36 H 0.1355 1.0550 0.9362
H37 H 0.2488 1.0034 0.8968
C36 C 0.1534(5) 1.0894(5) 1.0744(5)
H38 H 0.1610 1.0665 1.1321
H39 H 0.0851 1.0961 1.0722
H40 H 0.1663 1.1504 1.0528
C37 C 0.3387(5) 1.0188(5) 1.0122(5)
H41 H 0.3863 0.9791 0.9739
H42 H 0.3554 0.9951 1.0671
H43 H 0.3423 1.0832 0.9911
Si2 Si 1.26731(14) 0.24336(14) 0.45219(12)
N2 N 0.9308(3) 0.0381(3) 0.6285(2)
O2 O 1.1733(2) 0.1963(2) 0.5105(2)
C40 C 1.1132(4) -0.0013(3) 0.6300(3)
C41 C 1.1280(4) -0.0729(4) 0.7005(4)
H51 H 1.0730 -0.0922 0.7374
C42 C 1.2244(5) -0.1159(4) 0.7161(4)
H52 H 1.2347 -0.1627 0.7648
C43 C 1.3059(5) -0.0892(4) 0.6590(5)
H53 H 1.3714 -0.1204 0.6684
C44 C 1.2925(4) -0.0174(4) 0.5883(4)
H54 H 1.3481 -0.0001 0.5505
C45 C 1.1951(4) 0.0283(3) 0.5746(3)
C46 C 1.1590(3) 0.1119(3) 0.5046(3)
H55 H 1.1937 0.0964 0.4487
C47 C 1.0457(3) 0.1192(3) 0.5236(3)
C48 C 1.0221(3) 0.0533(3) 0.5957(3)
C49 C 0.8565(3) 0.0928(3) 0.5850(3)
C50 C 0.8716(3) 0.1634(3) 0.5117(3)
C51 C 0.9706(3) 0.1758(3) 0.4797(3)
C52 C 0.9908(3) 0.2463(3) 0.3996(3)
C53 C 1.0288(4) 0.2158(4) 0.3228(3)
H56 H 1.0427 0.1517 0.3221
C54 C 1.0459(4) 0.2806(5) 0.2475(3)
H57 H 1.0733 0.2595 0.1966
C55 C 1.0225(5) 0.3755(5) 0.2474(4)
H58 H 1.0314 0.4192 0.1965
C56 C 0.9859(5) 0.4060(4) 0.3230(4)
H59 H 0.9715 0.4703 0.3233
C57 C 0.9705(4) 0.3415(4) 0.3985(4)
H60 H 0.9460 0.3627 0.4494
C58 C 0.7581(4) 0.0721(4) 0.6199(3)
H61 H 0.7052 0.1088 0.5923
C59 C 0.7384(4) 0.0062(4) 0.6867(3)
H62 H 0.7918 -0.0277 0.7144
C60 C 0.6455(4) -0.0216(4) 0.7235(3)
C61 C 0.6433(5) -0.0985(5) 0.7898(4)
H63 H 0.7015 -0.1308 0.8117
C62 C 0.5579(6) -0.1299(6) 0.8251(4)
H64 H 0.5594 -0.1833 0.8692
C63 C 0.4715(5) -0.0820(6) 0.7951(5)
H65 H 0.4133 -0.1019 0.8193
C64 C 0.4700(4) -0.0046(5) 0.7292(5)
H66 H 0.4110 0.0279 0.7085
C65 C 0.5558(4) 0.0250(4) 0.6939(4)
H67 H 0.5540 0.0776 0.6490
C66 C 0.7857(4) 0.2236(4) 0.4687(3)
H68 H 0.7468 0.1836 0.4677
H69 H 0.8136 0.2500 0.4104
C67 C 0.7148(4) 0.3048(4) 0.5124(3)
H70 H 0.7497 0.3523 0.5018
H71 H 0.7003 0.2800 0.5731
C68 C 0.6133(4) 0.3539(5) 0.4836(4)
H72 H 0.5763 0.3073 0.4982
H73 H 0.5728 0.4038 0.5153
C69 C 0.6229(5) 0.3973(5) 0.3908(4)
H74 H 0.6598 0.3467 0.3592
H75 H 0.5550 0.4245 0.3791
C70 C 0.6755(5) 0.4727(5) 0.3590(5)
H76 H 0.6378 0.5248 0.3877
H77 H 0.6795 0.4954 0.2991
H78 H 0.7431 0.4466 0.3696
C71 C 1.4002(5) 0.1589(6) 0.4501(6)
H79 H 1.4112 0.1358 0.5068
H80 H 1.4490 0.1920 0.4159
H81 H 1.4081 0.1060 0.4265
C72 C 1.2574(5) 0.2854(5) 0.3398(4)
H82 H 1.2476 0.2364 0.3210
H83 H 1.3190 0.2996 0.3058
H84 H 1.2004 0.3420 0.3344
C73 C 1.2534(6) 0.3399(6) 0.5020(4)
C74 C 1.1424(6) 0.4130(5) 0.4993(6)
H85 H 1.0921 0.3844 0.5384
H86 H 1.1310 0.4282 0.4430
H87 H 1.1372 0.4705 0.5150
C75 C 1.3374(6) 0.3901(6) 0.4496(5)
H88 H 1.3244 0.4475 0.4688
H89 H 1.3358 0.4059 0.3905
H90 H 1.4033 0.3477 0.4573
C76 C 1.2679(7) 0.2992(7) 0.5941(5)
H91 H 1.3317 0.2495 0.5944
H92 H 1.2130 0.2734 0.6275
H93 H 1.2680 0.3493 0.6176
H44? H 0.9079 0.6556 0.9620
H45? H 0.8959 0.5493 1.0040
C38? C 0.8285(16) 0.644(2) 1.0871(12)
H46? H 0.7815 0.7080 1.0840
H47? H 0.7938 0.5997 1.1278
C39? C 0.9188(15) 0.6385(18) 1.1132(15)
H48? H 0.9764 0.5903 1.0901
H49? H 0.9071 0.6227 1.1740
H50? H 0.9323 0.6993 1.0928
loop_
_geom_bond_atom_site_label_1
_geom_bond_atom_site_label_2
_geom_bond_site_symmetry_1
_geom_bond_site_symmetry_2
Si1 O1 1_555 1_555
N1 C9 1_555 1_555
O1 C7 1_555 1_555
C1 C2 1_555 1_555
C2 H1 1_555 1_555
C3 C2 1_555 1_555
H2 C3 1_555 1_555
C4 C3 1_555 1_555
H3 C4 1_555 1_555
C5 C4 1_555 1_555
H4 C5 1_555 1_555
C6 C1 1_555 1_555
C7 C6 1_555 1_555
H5 C7 1_555 1_555
C8 C7 1_555 1_555
C9 C1 1_555 1_555
C10 N1 1_555 1_555
C11 C10 1_555 1_555
C12 C8 1_555 1_555
C13 C12 1_555 1_555
C14 C13 1_555 1_555
H6 C14 1_555 1_555
C15 C14 1_555 1_555
H7 C15 1_555 1_555
C16 C15 1_555 1_555
H8 C16 1_555 1_555
C17 C16 1_555 1_555
H9 C17 1_555 1_555
C18 C13 1_555 1_555
H10 C18 1_555 1_555
C19 C10 1_555 1_555
H11 C19 1_555 1_555
C20 C19 1_555 1_555
H12 C20 1_555 1_555
C21 C20 1_555 1_555
C22 C21 1_555 1_555
H13 C22 1_555 1_555
C23 C22 1_555 1_555
H14 C23 1_555 1_555
C24 C23 1_555 1_555
H15 C24 1_555 1_555
C25 C24 1_555 1_555
H16 C25 1_555 1_555
C26 C21 1_555 1_555
H17 C26 1_555 1_555
C27 C11 1_555 1_555
H18 C27 1_555 1_555
H19 C27 1_555 1_555
C28 C27 1_555 1_555
H20 C28 1_555 1_555
H21 C28 1_555 1_555
C29 C28 1_555 1_555
H22 C29 1_555 1_555
H23 C29 1_555 1_555
C30 C29 1_555 1_555
H24 C30 1_555 1_555
H25 C30 1_555 1_555
C31 C30 1_555 1_555
H26 C31 1_555 1_555
H27 C31 1_555 1_555
H28 C31 1_555 1_555
C32 Si1 1_555 1_555
H29 C32 1_555 1_555
H30 C32 1_555 1_555
H31 C32 1_555 1_555
C33 Si1 1_555 1_555
H32 C33 1_555 1_555
H33 C33 1_555 1_555
H34 C33 1_555 1_555
C34 Si1 1_555 1_555
C35 C34 1_555 1_555
H35 C35 1_555 1_555
H36 C35 1_555 1_555
H37 C35 1_555 1_555
C36 C34 1_555 1_555
H38 C36 1_555 1_555
H39 C36 1_555 1_555
H40 C36 1_555 1_555
C37 C34 1_555 1_555
H41 C37 1_555 1_555
H42 C37 1_555 1_555
H43 C37 1_555 1_555
Si2 O2 1_555 1_555
N2 C48 1_555 1_555
O2 C46 1_555 1_555
C40 C41 1_555 1_555
C41 H51 1_555 1_555
C42 C41 1_555 1_555
H52 C42 1_555 1_555
C43 C42 1_555 1_555
H53 C43 1_555 1_555
C44 C43 1_555 1_555
H54 C44 1_555 1_555
C45 C40 1_555 1_555
C46 C45 1_555 1_555
H55 C46 1_555 1_555
C47 C46 1_555 1_555
C48 C40 1_555 1_555
C49 N2 1_555 1_555
C50 C49 1_555 1_555
C51 C47 1_555 1_555
C52 C51 1_555 1_555
C53 C52 1_555 1_555
H56 C53 1_555 1_555
C54 C53 1_555 1_555
H57 C54 1_555 1_555
C55 C54 1_555 1_555
H58 C55 1_555 1_555
C56 C55 1_555 1_555
H59 C56 1_555 1_555
C57 C52 1_555 1_555
H60 C57 1_555 1_555
C58 C49 1_555 1_555
H61 C58 1_555 1_555
C59 C58 1_555 1_555
H62 C59 1_555 1_555
C60 C59 1_555 1_555
C61 C60 1_555 1_555
H63 C61 1_555 1_555
C62 C61 1_555 1_555
H64 C62 1_555 1_555
C63 C62 1_555 1_555
H65 C63 1_555 1_555
C64 C63 1_555 1_555
H66 C64 1_555 1_555
C65 C60 1_555 1_555
H67 C65 1_555 1_555
C66 C50 1_555 1_555
H68 C66 1_555 1_555
H69 C66 1_555 1_555
C67 C66 1_555 1_555
H70 C67 1_555 1_555
H71 C67 1_555 1_555
C68 C67 1_555 1_555
H72 C68 1_555 1_555
H73 C68 1_555 1_555
C69 C68 1_555 1_555
H74 C69 1_555 1_555
H75 C69 1_555 1_555
C70 C69 1_555 1_555
H76 C70 1_555 1_555
H77 C70 1_555 1_555
H78 C70 1_555 1_555
C71 Si2 1_555 1_555
H79 C71 1_555 1_555
H80 C71 1_555 1_555
H81 C71 1_555 1_555
C72 Si2 1_555 1_555
H82 C72 1_555 1_555
H83 C72 1_555 1_555
H84 C72 1_555 1_555
C73 Si2 1_555 1_555
C74 C73 1_555 1_555
H85 C74 1_555 1_555
H86 C74 1_555 1_555
H87 C74 1_555 1_555
C75 C73 1_555 1_555
H88 C75 1_555 1_555
H89 C75 1_555 1_555
H90 C75 1_555 1_555
C76 C73 1_555 1_555
H91 C76 1_555 1_555
H92 C76 1_555 1_555
H93 C76 1_555 1_555
C5 C6 1_555 1_555
C8 C9 1_555 1_555
C11 C12 1_555 1_555
C17 C18 1_555 1_555
C25 C26 1_555 1_555
C44 C45 1_555 1_555
C47 C48 1_555 1_555
C50 C51 1_555 1_555
C56 C57 1_555 1_555
C64 C65 1_555 1_555

#END
