
#######################################################################
#
#                 Cambridge Crystallographic Data Centre
#                                CCDC 
#
#######################################################################
#
# If this CIF has been generated from an entry in the Cambridge 
# Structural Database, then it will include bibliographic, chemical, 
# crystal, experimental, refinement or atomic coordinate data resulting 
# from the CCDC's data processing and validation procedures.
#
#######################################################################

data_ZAMZEV
_chemical_formula_moiety         'C29 H33 N1 O3 Si1'
_chemical_name_systematic        
(Z)-3-((t-butyl(dimethyl)silyl)oxy)-N-hydroxy-2-((4-methoxyphenyl)(phenyl)methylene)indan-1-imine
_symmetry_cell_setting           monoclinic
_symmetry_space_group_name_H-M   'P 21/c'
_symmetry_Int_Tables_number      14
_space_group_name_Hall           '-P 2ybc'
loop_
_symmetry_equiv_pos_site_id
_symmetry_equiv_pos_as_xyz
1 x,y,z
2 -x,1/2+y,1/2-z
3 -x,-y,-z
4 x,1/2-y,1/2+z
_cell_length_a                   18.576(2)
_cell_length_b                   10.0163(12)
_cell_length_c                   15.0617(17)
_cell_angle_alpha                90
_cell_angle_beta                 103.025(3)
_cell_angle_gamma                90
_cell_volume                     2730.32
_exptl_crystal_colour            colorless
_exptl_crystal_description       prismatic
_cell_formula_units_Z            4
loop_
_atom_site_label
_atom_site_type_symbol
_atom_site_fract_x
_atom_site_fract_y
_atom_site_fract_z
Si1 Si 0.24338(5) 0.56778(9) 1.08031(6)
N1 N 0.43301(14) 0.5849(3) 0.96195(19)
O1 O 0.49391(13) 0.6610(2) 1.0064(2)
H1 H 0.5286 0.6112 1.0275
O2 O 0.20986(11) 0.6393(2) 0.98090(14)
O3 O 0.0153(2) 0.3508(5) 0.6062(3)
C1 C 0.36116(17) 0.7961(3) 0.9571(2)
C2 C 0.4087(2) 0.9013(3) 0.9883(3)
H2 H 0.4596 0.8894 1.0002
C3 C 0.3791(3) 1.0232(4) 1.0014(3)
H3 H 0.4104 1.0950 1.0209
C4 C 0.3041(3) 1.0409(3) 0.9862(3)
H4 H 0.2853 1.1242 0.9961
C5 C 0.2566(2) 0.9378(3) 0.9565(2)
H5 H 0.2058 0.9501 0.9471
C6 C 0.28528(18) 0.8152(3) 0.9408(2)
C7 C 0.24370(15) 0.6881(3) 0.91124(19)
H6 H 0.2056 0.7047 0.8557
C8 C 0.30274(15) 0.5982(3) 0.88924(19)
C9 C 0.37449(16) 0.6554(3) 0.9381(2)
C10 C 0.29091(15) 0.4989(3) 0.8277(2)
C11 C 0.35205(16) 0.4213(3) 0.8030(2)
C12 C 0.3562(2) 0.2866(3) 0.8176(2)
H7 H 0.3221 0.2455 0.8453
C13 C 0.4095(2) 0.2111(4) 0.7922(3)
H8 H 0.4119 0.1198 0.8036
C14 C 0.4595(2) 0.2700(5) 0.7497(3)
H9 H 0.4955 0.2187 0.7317
C15 C 0.4559(2) 0.4036(5) 0.7343(3)
H10 H 0.4899 0.4440 0.7060
C16 C 0.40254(18) 0.4798(4) 0.7603(3)
H11 H 0.4004 0.5712 0.7491
C17 C 0.21643(17) 0.4606(3) 0.7759(2)
C18 C 0.1570(2) 0.4424(5) 0.8133(3)
H12 H 0.1621 0.4548 0.8756
C19 C 0.0882(2) 0.4052(6) 0.7591(4)
H13 H 0.0481 0.3914 0.7854
C20 C 0.0806(2) 0.3894(5) 0.6675(4)
C21 C 0.1377(2) 0.4081(4) 0.6295(3)
H14 H 0.1318 0.3987 0.5668
C22 C 0.2048(2) 0.4409(3) 0.6821(2)
H15 H 0.2445 0.4506 0.6545
C23 C -0.0382(4) 0.3182(12) 0.6395(7)
H16 H -0.0335 0.3204 0.7023
H17 H -0.0826 0.2919 0.6014
C24 C 0.2827(3) 0.4022(4) 1.0645(3)
H18 H 0.2481 0.3526 1.0195
H19 H 0.2925 0.3544 1.1212
H20 H 0.3279 0.4134 1.0446
C25 C 0.3139(2) 0.6723(5) 1.1555(3)
H21 H 0.3581 0.6739 1.1325
H22 H 0.3248 0.6357 1.2160
H23 H 0.2954 0.7616 1.1570
C26 C 0.1597(2) 0.5507(4) 1.1294(3)
C27 C 0.1308(4) 0.6888(6) 1.1465(4)
H24 H 0.1212 0.7393 1.0909
H25 H 0.1671 0.7343 1.1918
H26 H 0.0860 0.6796 1.1675
C28 C 0.1802(3) 0.4717(6) 1.2192(3)
H27 H 0.1372 0.4619 1.2441
H28 H 0.2178 0.5188 1.2619
H29 H 0.1982 0.3851 1.2078
C29 C 0.0994(3) 0.4748(6) 1.0634(4)
H30 H 0.0593 0.4563 1.0922
H31 H 0.1191 0.3923 1.0467
H32 H 0.0818 0.5278 1.0099
loop_
_geom_bond_atom_site_label_1
_geom_bond_atom_site_label_2
_geom_bond_site_symmetry_1
_geom_bond_site_symmetry_2
Si1 O2 1_555 1_555
N1 O1 1_555 1_555
O1 H1 1_555 1_555
O2 C7 1_555 1_555
O3 C20 1_555 1_555
C1 C2 1_555 1_555
C2 H2 1_555 1_555
C3 C2 1_555 1_555
H3 C3 1_555 1_555
C4 C3 1_555 1_555
H4 C4 1_555 1_555
C5 C4 1_555 1_555
H5 C5 1_555 1_555
C6 C1 1_555 1_555
C7 C6 1_555 1_555
H6 C7 1_555 1_555
C8 C7 1_555 1_555
C9 N1 1_555 1_555
C10 C8 1_555 1_555
C11 C10 1_555 1_555
C12 C11 1_555 1_555
H7 C12 1_555 1_555
C13 C12 1_555 1_555
H8 C13 1_555 1_555
C14 C13 1_555 1_555
H9 C14 1_555 1_555
C15 C14 1_555 1_555
H10 C15 1_555 1_555
C16 C11 1_555 1_555
H11 C16 1_555 1_555
C17 C10 1_555 1_555
C18 C17 1_555 1_555
H12 C18 1_555 1_555
C19 C18 1_555 1_555
H13 C19 1_555 1_555
C20 C19 1_555 1_555
C21 C20 1_555 1_555
H14 C21 1_555 1_555
C22 C17 1_555 1_555
H15 C22 1_555 1_555
C23 O3 1_555 1_555
H16 C23 1_555 1_555
H17 C23 1_555 1_555
C24 Si1 1_555 1_555
H18 C24 1_555 1_555
H19 C24 1_555 1_555
H20 C24 1_555 1_555
C25 Si1 1_555 1_555
H21 C25 1_555 1_555
H22 C25 1_555 1_555
H23 C25 1_555 1_555
C26 Si1 1_555 1_555
C27 C26 1_555 1_555
H24 C27 1_555 1_555
H25 C27 1_555 1_555
H26 C27 1_555 1_555
C28 C26 1_555 1_555
H27 C28 1_555 1_555
H28 C28 1_555 1_555
H29 C28 1_555 1_555
C29 C26 1_555 1_555
H30 C29 1_555 1_555
H31 C29 1_555 1_555
H32 C29 1_555 1_555
C1 C9 1_555 1_555
C5 C6 1_555 1_555
C8 C9 1_555 1_555
C15 C16 1_555 1_555
C21 C22 1_555 1_555

#END
