
#######################################################################
#
#                 Cambridge Crystallographic Data Centre
#                                CCDC 
#
#######################################################################
#
# If this CIF has been generated from an entry in the Cambridge 
# Structural Database, then it will include bibliographic, chemical, 
# crystal, experimental, refinement or atomic coordinate data resulting 
# from the CCDC's data processing and validation procedures.
#
#######################################################################

data_ZANMUW
_chemical_formula_moiety         'C26 H29 B1 O3'
_chemical_name_systematic        
4,4,5,5-Tetramethyl-2-((triphenylmethoxy)methyl)-1,3,2-dioxaborolane
_symmetry_cell_setting           triclinic
_symmetry_space_group_name_H-M   'P -1'
_symmetry_Int_Tables_number      2
_space_group_name_Hall           '-P 1'
loop_
_symmetry_equiv_pos_site_id
_symmetry_equiv_pos_as_xyz
1 x,y,z
2 -x,-y,-z
_cell_length_a                   10.173(2)
_cell_length_b                   10.518(2)
_cell_length_c                   21.905(4)
_cell_angle_alpha                96.40(3)
_cell_angle_beta                 95.47(3)
_cell_angle_gamma                97.61(3)
_cell_volume                     2294.24
_exptl_crystal_colour            white
_chemical_melting_point          107-109deg.C
_cell_formula_units_Z            4
loop_
_atom_site_label
_atom_site_type_symbol
_atom_site_fract_x
_atom_site_fract_y
_atom_site_fract_z
O1 O 0.1652(2) 0.1427(2) 0.4562(1)
C1 C 0.0880(2) 0.1357(2) 0.3968(1)
C2 C 0.0482(2) -0.0108(2) 0.3758(1)
O2 O 0.3552(3) 0.1625(2) 0.5652(1)
C3 C -0.0350(3) 0.2045(2) 0.4051(1)
C4 C 0.3132(3) 0.1771(3) 0.3580(1)
C5 C 0.0711(3) -0.1003(3) 0.4153(1)
B1 B 0.3208(3) 0.2652(3) 0.5424(1)
C6 C -0.1513(3) 0.1357(3) 0.4190(1)
C7 C 0.2139(3) 0.2810(3) 0.2560(1)
C8 C 0.1299(3) 0.2419(3) 0.2988(1)
C9 C 0.1786(2) 0.1895(2) 0.3503(1)
C10 C -0.0293(3) 0.3358(3) 0.4043(1)
C11 C 0.3967(3) 0.2175(3) 0.3153(2)
C12 C 0.4665(3) 0.1982(3) 0.6116(1)
C13 C 0.2121(3) 0.2698(3) 0.4878(1)
C14 C 0.4802(3) 0.3471(3) 0.6221(1)
C15 C -0.0198(3) -0.2735(3) 0.3356(2)
C16 C -0.0093(3) -0.0544(3) 0.3161(1)
O3 O 0.3899(4) 0.3728(2) 0.5718(2)
C17 C 0.3468(3) 0.2698(3) 0.2643(1)
C18 C -0.1372(3) 0.3980(3) 0.4175(1)
C19 C 0.0369(3) -0.2318(3) 0.3949(2)
C20 C -0.2615(3) 0.1983(3) 0.4316(1)
C21 C -0.2525(3) 0.3301(3) 0.4313(1)
C22 C -0.0444(4) -0.1851(3) 0.2962(2)
C23 C 0.5820(5) 0.1464(5) 0.5855(3)
C24 C 0.6171(5) 0.4165(5) 0.6168(3)
C25 C 0.4331(6) 0.1316(5) 0.6662(2)
C26 C 0.4360(5) 0.4034(5) 0.6799(2)
H1 H 0.3486 0.1404 0.3931
H2 H 0.1106 -0.0722 0.4570
H3 H -0.1571 0.0441 0.4201
H4 H 0.1786 0.3162 0.2204
H5 H 0.0371 0.2512 0.2928
H6 H 0.0505 0.3851 0.3945
H7 H 0.4897 0.2091 0.3212
H8 H 0.2496 0.3232 0.4592
H9 H 0.1384 0.3058 0.5037
H10 H -0.0421 -0.3643 0.3218
H11 H -0.0252 0.0071 0.2880
H12 H 0.4049 0.2980 0.2350
H13 H -0.1309 0.4898 0.4170
H14 H 0.0532 -0.2938 0.4227
H15 H -0.3426 0.1494 0.4404
H16 H -0.3266 0.3738 0.4407
H17 H -0.0861 -0.2137 0.2549
H18 H 0.6595 0.1682 0.6153
H19 H 0.5990 0.1837 0.5485
H20 H 0.5618 0.0541 0.5761
H21 H 0.6788 0.4002 0.6500
H22 H 0.6142 0.5077 0.6189
H23 H 0.6457 0.3857 0.5780
H24 H 0.5057 0.1532 0.6986
H25 H 0.4179 0.0398 0.6543
H26 H 0.3539 0.1590 0.6806
H27 H 0.4945 0.3878 0.7144
H28 H 0.3467 0.3643 0.6833
H29 H 0.4380 0.4949 0.6796
O4 O 0.1342(2) 0.6515(2) 0.9539(1)
C27 C 0.1237(2) 0.5760(2) 0.8943(1)
C28 C -0.0269(2) 0.5367(2) 0.8751(1)
C29 C -0.0712(3) 0.4536(3) 0.8212(1)
O5 O 0.1636(2) 0.8479(2) 1.0588(1)
C30 C 0.1930(2) 0.4556(2) 0.9010(1)
C31 C 0.3267(3) 0.4537(3) 0.8948(1)
C32 C 0.1673(3) 0.7926(3) 0.8558(1)
C33 C 0.2657(3) 0.6928(3) 0.9842(1)
C34 C 0.1756(2) 0.6616(2) 0.8468(1)
B2 B 0.2682(3) 0.8054(3) 1.0368(1)
C35 C 0.2068(3) 0.9600(3) 1.1044(1)
O6 O 0.3838(2) 0.8697(3) 1.0648(1)
C36 C 0.1233(3) 0.3489(3) 0.9211(1)
C37 C -0.2062(3) 0.4174(3) 0.8027(1)
C38 C 0.3604(3) 0.9679(3) 1.1123(1)
C39 C 0.2043(3) 0.8724(3) 0.8124(2)
C40 C -0.1199(3) 0.5817(3) 0.9103(1)
C41 C -0.2558(3) 0.5445(3) 0.8913(2)
C42 C 0.2213(3) 0.6127(3) 0.7926(1)
C43 C -0.2983(3) 0.4637(3) 0.8376(2)
C44 C 0.1838(3) 0.2432(3) 0.9333(1)
C45 C 0.2478(3) 0.8217(4) 0.7587(2)
C46 C 0.3174(3) 0.2424(3) 0.9264(2)
C47 C 0.2558(3) 0.6932(4) 0.7490(1)
C48 C 0.3886(3) 0.3496(3) 0.9076(2)
C49 C 0.4360(5) 1.0943(5) 1.1010(2)
C50 C 0.4195(4) 0.9337(4) 1.1733(2)
C51 C 0.1399(4) 0.9346(4) 1.1613(2)
C52 C 0.1547(5) 1.0726(5) 1.0786(3)
H30 H -0.0074 0.4208 0.7963
H31 H 0.3777 0.5268 0.8814
H32 H 0.1354 0.8286 0.8929
H33 H 0.2980 0.6213 1.0014
H34 H 0.3227 0.7217 0.9544
H35 H 0.0307 0.3484 0.9267
H36 H -0.2354 0.3597 0.7653
H37 H 0.1995 0.9633 0.8198
H38 H -0.0914 0.6387 0.9479
H39 H -0.3203 0.5760 0.9162
H40 H 0.2291 0.5225 0.7852
H41 H -0.3920 0.4396 0.8246
H42 H 0.1330 0.1699 0.9467
H43 H 0.2724 0.8767 0.7282
H44 H 0.3599 0.1689 0.9346
H45 H 0.2858 0.6577 0.7114
H46 H 0.4818 0.3512 0.9033
H47 H 0.4220 1.1616 1.1321
H48 H 0.4046 1.1143 1.0609
H49 H 0.5294 1.0878 1.1027
H50 H 0.4059 0.9973 1.2062
H51 H 0.5134 0.9319 1.1724
H52 H 0.3768 0.8503 1.1800
H53 H 0.1660 1.0070 1.1928
H54 H 0.1663 0.8582 1.1761
H55 H 0.0447 0.9224 1.1512
H56 H 0.1814 1.1492 1.1076
H57 H 0.0591 1.0557 1.0714
H58 H 0.1906 1.0851 1.0403
loop_
_geom_bond_atom_site_label_1
_geom_bond_atom_site_label_2
_geom_bond_site_symmetry_1
_geom_bond_site_symmetry_2
O1 C1 1_555 1_555
C1 C2 1_555 1_555
C2 C5 1_555 1_555
O2 B1 1_555 1_555
C3 C1 1_555 1_555
C4 C9 1_555 1_555
C5 C19 1_555 1_555
B1 C13 1_555 1_555
C6 C3 1_555 1_555
C7 C8 1_555 1_555
C8 C9 1_555 1_555
C9 C1 1_555 1_555
C10 C3 1_555 1_555
C11 C4 1_555 1_555
C12 O2 1_555 1_555
C13 O1 1_555 1_555
C14 C12 1_555 1_555
C15 C19 1_555 1_555
C16 C2 1_555 1_555
O3 B1 1_555 1_555
C17 C7 1_555 1_555
C18 C10 1_555 1_555
C19 H14 1_555 1_555
C20 C6 1_555 1_555
C21 C18 1_555 1_555
C22 C15 1_555 1_555
C23 C12 1_555 1_555
C24 C14 1_555 1_555
C25 C12 1_555 1_555
C26 C14 1_555 1_555
O4 C27 1_555 1_555
C27 C28 1_555 1_555
C28 C29 1_555 1_555
C29 C37 1_555 1_555
O5 B2 1_555 1_555
C30 C27 1_555 1_555
C31 C30 1_555 1_555
C32 C34 1_555 1_555
C33 O4 1_555 1_555
C34 C27 1_555 1_555
B2 C33 1_555 1_555
C35 O5 1_555 1_555
O6 B2 1_555 1_555
C36 C30 1_555 1_555
C37 C43 1_555 1_555
C38 C35 1_555 1_555
C39 C32 1_555 1_555
C40 C28 1_555 1_555
C41 C40 1_555 1_555
C42 C34 1_555 1_555
C43 C41 1_555 1_555
C44 C36 1_555 1_555
C45 C39 1_555 1_555
C46 C44 1_555 1_555
C47 C42 1_555 1_555
C48 C31 1_555 1_555
C49 C38 1_555 1_555
C50 C38 1_555 1_555
C51 C35 1_555 1_555
C52 C35 1_555 1_555
H1 C4 1_555 1_555
H2 C5 1_555 1_555
H3 C6 1_555 1_555
H4 C7 1_555 1_555
H5 C8 1_555 1_555
H6 C10 1_555 1_555
H7 C11 1_555 1_555
H8 C13 1_555 1_555
H9 C13 1_555 1_555
H10 C15 1_555 1_555
H11 C16 1_555 1_555
H12 C17 1_555 1_555
H13 C18 1_555 1_555
H15 C20 1_555 1_555
H16 C21 1_555 1_555
H17 C22 1_555 1_555
H18 C23 1_555 1_555
H19 C23 1_555 1_555
H20 C23 1_555 1_555
H21 C24 1_555 1_555
H22 C24 1_555 1_555
H23 C24 1_555 1_555
H24 C25 1_555 1_555
H25 C25 1_555 1_555
H26 C25 1_555 1_555
H27 C26 1_555 1_555
H28 C26 1_555 1_555
H29 C26 1_555 1_555
H30 C29 1_555 1_555
H31 C31 1_555 1_555
H32 C32 1_555 1_555
H33 C33 1_555 1_555
H34 C33 1_555 1_555
H35 C36 1_555 1_555
H36 C37 1_555 1_555
H37 C39 1_555 1_555
H38 C40 1_555 1_555
H39 C41 1_555 1_555
H40 C42 1_555 1_555
H41 C43 1_555 1_555
H42 C44 1_555 1_555
H43 C45 1_555 1_555
H44 C46 1_555 1_555
H45 C47 1_555 1_555
H46 C48 1_555 1_555
H47 C49 1_555 1_555
H48 C49 1_555 1_555
H49 C49 1_555 1_555
H50 C50 1_555 1_555
H51 C50 1_555 1_555
H52 C50 1_555 1_555
H53 C51 1_555 1_555
H54 C51 1_555 1_555
H55 C51 1_555 1_555
H56 C52 1_555 1_555
H57 C52 1_555 1_555
H58 C52 1_555 1_555
C11 C17 1_555 1_555
C14 O3 1_555 1_555
C16 C22 1_555 1_555
C20 C21 1_555 1_555
O6 C38 1_555 1_555
C45 C47 1_555 1_555
C46 C48 1_555 1_555

#END
