
#######################################################################
#
#                 Cambridge Crystallographic Data Centre
#                                CCDC 
#
#######################################################################
#
# If this CIF has been generated from an entry in the Cambridge 
# Structural Database, then it will include bibliographic, chemical, 
# crystal, experimental, refinement or atomic coordinate data resulting 
# from the CCDC's data processing and validation procedures.
#
#######################################################################

data_ZANNIL
_chemical_formula_moiety         'C30 H33 B1 O3'
_chemical_name_systematic        '(R)-Pinanediol ((trityloxy)methyl)boronate'
_symmetry_cell_setting           orthorhombic
_symmetry_space_group_name_H-M   'P 21 21 21'
_symmetry_Int_Tables_number      19
_space_group_name_Hall           'P 2ac 2ab'
loop_
_symmetry_equiv_pos_site_id
_symmetry_equiv_pos_as_xyz
1 x,y,z
2 1/2-x,-y,1/2+z
3 1/2+x,1/2-y,-z
4 -x,1/2+y,1/2-z
_cell_length_a                   12.592(3)
_cell_length_b                   13.912(3)
_cell_length_c                   14.843(3)
_cell_angle_alpha                90
_cell_angle_beta                 90
_cell_angle_gamma                90
_cell_volume                     2600.2
_exptl_crystal_colour            colorless
_chemical_melting_point          85-87deg.C
_cell_formula_units_Z            4
loop_
_atom_site_label
_atom_site_type_symbol
_atom_site_fract_x
_atom_site_fract_y
_atom_site_fract_z
B1 B 0.7848(11) 0.4148(9) 0.1603(7)
O1 O 0.7802(5) 0.5079(5) 0.1845(4)
C1 C 0.6671(8) 0.5349(7) 0.1858(7)
C2 C 0.6088(9) 0.4399(7) 0.1618(8)
O2 O 0.6923(6) 0.3715(4) 0.1433(5)
C3 C 0.8980(7) 0.3618(6) 0.1568(6)
O3 O 0.8867(5) 0.2612(5) 0.1367(4)
C4 C 0.9616(8) 0.1995(7) 0.1800(6)
C5 C 0.6581(8) 0.6124(7) 0.1139(6)
C6 C 0.5374(9) 0.4020(7) 0.2387(9)
C7 C 0.6424(7) 0.5719(8) 0.2790(7)
C8 C 0.5382(10) 0.4632(9) 0.3212(8)
C9 C 0.6513(8) 0.4878(8) 0.3463(7)
C10 C 0.5184(9) 0.5683(9) 0.2992(8)
C11 C 0.4929(9) 0.6272(8) 0.3836(7)
C12 C 0.4372(8) 0.5943(8) 0.2282(7)
C13 C 1.0755(8) 0.2382(7) 0.1603(7)
C14 C 1.1184(8) 0.2214(7) 0.0756(7)
C15 C 1.2158(10) 0.2604(9) 0.0541(8)
C16 C 1.2696(8) 0.3183(8) 0.1142(9)
C17 C 1.2254(9) 0.3351(8) 0.1959(8)
C18 C 1.1300(8) 0.2951(8) 0.2205(7)
C19 C 0.9362(9) 0.1911(7) 0.2814(6)
C20 C 1.0076(9) 0.1518(6) 0.3407(7)
C21 C 0.9839(10) 0.1441(8) 0.4297(8)
C22 C 0.8853(11) 0.1708(8) 0.4623(8)
C23 C 0.8137(9) 0.2086(8) 0.4032(9)
C24 C 0.8362(8) 0.2175(8) 0.3120(8)
C25 C 0.9447(8) 0.1015(7) 0.1381(6)
C26 C 0.8455(9) 0.0774(8) 0.1007(7)
C27 C 0.8298(10) -0.0101(9) 0.0609(8)
C28 C 0.9067(11) -0.0798(9) 0.0603(7)
C29 C 1.0028(10) -0.0603(8) 0.1003(7)
C30 C 1.0216(8) 0.0305(7) 0.1395(6)
H1 H 0.5616 0.4503 0.1120
H2 H 0.9323 0.3687 0.2142
H3 H 0.9407 0.3914 0.1110
H4 H 0.5859 0.6342 0.1103
H5 H 0.6794 0.5865 0.0567
H6 H 0.7034 0.6654 0.1294
H7 H 0.5620 0.3391 0.2551
H8 H 0.4658 0.3978 0.2168
H9 H 0.6828 0.6302 0.2830
H10 H 0.4912 0.4298 0.3614
H11 H 0.6613 0.5066 0.4079
H12 H 0.7028 0.4397 0.3306
H13 H 0.5434 0.6123 0.4300
H14 H 0.4227 0.6114 0.4042
H15 H 0.4964 0.6945 0.3697
H16 H 0.4514 0.5586 0.1742
H17 H 0.4412 0.6619 0.2154
H18 H 0.3675 0.5788 0.2499
H19 H 1.0803 0.1832 0.0325
H20 H 1.2466 0.2469 -0.0037
H21 H 1.3369 0.3458 0.0982
H22 H 1.2616 0.3765 0.2375
H23 H 1.1016 0.3065 0.2796
H24 H 1.0752 0.1296 0.3191
H25 H 1.0364 0.1197 0.4706
H26 H 0.8677 0.1632 0.5248
H27 H 0.7458 0.2294 0.4252
H28 H 0.7836 0.2417 0.2710
H29 H 0.7882 0.1228 0.1032
H30 H 0.7628 -0.0232 0.0325
H31 H 0.8938 -0.1410 0.0324
H32 H 1.0573 -0.1085 0.1017
H33 H 1.0888 0.0433 0.1677
loop_
_geom_bond_atom_site_label_1
_geom_bond_atom_site_label_2
_geom_bond_site_symmetry_1
_geom_bond_site_symmetry_2
B1 O1 1_555 1_555
O1 C1 1_555 1_555
C1 C2 1_555 1_555
C2 O2 1_555 1_555
O2 B1 1_555 1_555
C3 B1 1_555 1_555
O3 C3 1_555 1_555
C4 O3 1_555 1_555
C5 C1 1_555 1_555
C6 C2 1_555 1_555
C7 C1 1_555 1_555
C8 C6 1_555 1_555
C9 C7 1_555 1_555
C10 C7 1_555 1_555
C11 C10 1_555 1_555
C12 C10 1_555 1_555
C13 C4 1_555 1_555
C14 C13 1_555 1_555
C15 C14 1_555 1_555
C16 C15 1_555 1_555
C17 C16 1_555 1_555
C18 C13 1_555 1_555
C19 C4 1_555 1_555
C20 C19 1_555 1_555
C21 C20 1_555 1_555
C22 C21 1_555 1_555
C23 C22 1_555 1_555
C24 C19 1_555 1_555
C25 C4 1_555 1_555
C26 C25 1_555 1_555
C27 C26 1_555 1_555
C28 C27 1_555 1_555
C29 C28 1_555 1_555
C30 C25 1_555 1_555
H1 C2 1_555 1_555
H2 C3 1_555 1_555
H3 C3 1_555 1_555
H4 C5 1_555 1_555
H5 C5 1_555 1_555
H6 C5 1_555 1_555
H7 C6 1_555 1_555
H8 C6 1_555 1_555
H9 C7 1_555 1_555
H10 C8 1_555 1_555
H11 C9 1_555 1_555
H12 C9 1_555 1_555
H13 C11 1_555 1_555
H14 C11 1_555 1_555
H15 C11 1_555 1_555
H16 C12 1_555 1_555
H17 C12 1_555 1_555
H18 C12 1_555 1_555
H19 C14 1_555 1_555
H20 C15 1_555 1_555
H21 C16 1_555 1_555
H22 C17 1_555 1_555
H23 C18 1_555 1_555
H24 C20 1_555 1_555
H25 C21 1_555 1_555
H26 C22 1_555 1_555
H27 C23 1_555 1_555
H28 C24 1_555 1_555
H29 C26 1_555 1_555
H30 C27 1_555 1_555
H31 C28 1_555 1_555
H32 C29 1_555 1_555
H33 C30 1_555 1_555
C8 C9 1_555 1_555
C8 C10 1_555 1_555
C17 C18 1_555 1_555
C23 C24 1_555 1_555
C29 C30 1_555 1_555

#END
