
#######################################################################
#
#                 Cambridge Crystallographic Data Centre
#                                CCDC 
#
#######################################################################
#
# If this CIF has been generated from an entry in the Cambridge 
# Structural Database, then it will include bibliographic, chemical, 
# crystal, experimental, refinement or atomic coordinate data resulting 
# from the CCDC's data processing and validation procedures.
#
#######################################################################

data_ZAPGEE
_chemical_formula_moiety         'C54 H38 O2'
_chemical_name_systematic        
rac-7,7',9,9'-Tetraphenyl-9a,9a'-bi(7,8,9,9a-tetrahydro-6aH-pentaleno[1,2,3-ij]naphthalen-8-one)
_symmetry_cell_setting           monoclinic
_symmetry_space_group_name_H-M   'P 21/c'
_symmetry_Int_Tables_number      14
_space_group_name_Hall           '-P 2ybc'
loop_
_symmetry_equiv_pos_site_id
_symmetry_equiv_pos_as_xyz
1 x,y,z
2 -x,1/2+y,1/2-z
3 -x,-y,-z
4 x,1/2-y,1/2+z
_cell_length_a                   14.325(3)
_cell_length_b                   13.448(3)
_cell_length_c                   19.914(4)
_cell_angle_alpha                90
_cell_angle_beta                 101.449(5)
_cell_angle_gamma                90
_cell_volume                     3759.95
_exptl_crystal_colour            colorless
_exptl_crystal_description       block
_cell_formula_units_Z            4
loop_
_atom_site_label
_atom_site_type_symbol
_atom_site_fract_x
_atom_site_fract_y
_atom_site_fract_z
O1 O 0.44413(13) 0.31609(14) 0.25183(10)
O2 O 0.14712(15) 0.08762(17) -0.05330(12)
C1 C 0.36038(18) 0.30516(18) 0.22892(12)
C2 C 0.16606(19) 0.1682(2) -0.02781(15)
C3 C 0.31861(17) 0.22012(18) 0.18147(12)
H1 H 0.3620 0.2062 0.1503
C4 C 0.25646(18) 0.18987(19) 0.02529(13)
H2 H 0.2660 0.1355 0.0587
C5 C 0.22333(16) 0.26340(18) 0.13837(12)
C6 C 0.23484(17) 0.28710(18) 0.06285(12)
C7 C 0.20277(17) 0.36262(18) 0.17678(12)
H3 H 0.2057 0.4205 0.1474
C8 C 0.13773(18) 0.32998(19) 0.01889(12)
H4 H 0.0882 0.3299 0.0465
C9 C 0.28023(17) 0.37074(18) 0.24304(12)
H5 H 0.2544 0.3381 0.2794
C10 C 0.10759(19) 0.2619(2) -0.04458(14)
H6 H 0.1307 0.2942 -0.0823
C11 C 0.31185(18) 0.12745(18) 0.22407(13)
C12 C 0.34115(18) 0.1922(2) -0.00976(13)
C13 C 0.3683(2) 0.0463(2) 0.21658(16)
H7 H 0.4090 0.0493 0.1856
C14 C 0.4174(2) 0.1298(2) 0.01212(16)
H8 H 0.4168 0.0868 0.0486
C15 C 0.3647(2) -0.0398(2) 0.2549(2)
H9 H 0.4020 -0.0944 0.2488
C16 C 0.4955(2) 0.1306(3) -0.0199(2)
H10 H 0.5467 0.0884 -0.0044
C17 C 0.3061(2) -0.0439(3) 0.30166(19)
H11 H 0.3040 -0.1013 0.3274
C18 C 0.4979(2) 0.1925(3) -0.0738(2)
H12 H 0.5499 0.1921 -0.0953
C19 C 0.2513(2) 0.0357(2) 0.31033(15)
H13 H 0.2119 0.0328 0.3422
C20 C 0.4226(2) 0.2553(3) -0.09590(15)
H14 H 0.4237 0.2982 -0.1323
C21 C 0.2539(2) 0.1205(2) 0.27215(13)
H15 H 0.2160 0.1744 0.2787
C22 C 0.3453(2) 0.2549(2) -0.06445(13)
H16 H 0.2947 0.2977 -0.0802
C23 C 0.13540(17) 0.19949(19) 0.13976(12)
C24 C 0.30568(18) 0.37184(19) 0.06057(12)
C25 C 0.1127(2) 0.1028(2) 0.12165(15)
H17 H 0.1555 0.0628 0.1045
C26 C 0.40160(19) 0.3802(2) 0.08404(13)
H18 H 0.4362 0.3274 0.1067
C27 C 0.0239(2) 0.0648(3) 0.12933(17)
H19 H 0.0086 -0.0004 0.1160
C28 C 0.4475(2) 0.4701(2) 0.07354(15)
H20 H 0.5128 0.4754 0.0896
C29 C -0.0401(2) 0.1193(3) 0.15528(16)
H21 H -0.0984 0.0915 0.1587
C30 C 0.3997(2) 0.5494(2) 0.04072(16)
H22 H 0.4323 0.6077 0.0354
C31 C -0.0753(2) 0.2827(3) 0.20793(16)
H23 H -0.1352 0.2624 0.2138
C32 C 0.2416(3) 0.6173(2) -0.02160(16)
H24 H 0.2672 0.6786 -0.0299
C33 C -0.0424(2) 0.3745(3) 0.22916(16)
H25 H -0.0803 0.4154 0.2503
C34 C 0.1474(3) 0.5996(2) -0.04458(16)
H26 H 0.1098 0.6497 -0.0681
C35 C 0.0470(2) 0.4105(2) 0.22040(14)
H27 H 0.0673 0.4739 0.2351
C36 C 0.1045(2) 0.5084(2) -0.03424(14)
H28 H 0.0400 0.4979 -0.0512
C37 C 0.10300(17) 0.3502(2) 0.18994(13)
C38 C 0.15998(19) 0.4353(2) 0.00136(12)
C39 C -0.01890(19) 0.2181(2) 0.17719(14)
C40 C 0.3014(2) 0.5432(2) 0.01489(14)
C41 C 0.07006(17) 0.2551(2) 0.16821(13)
C42 C 0.25666(19) 0.45336(19) 0.02589(12)
C43 C 0.30952(17) 0.47445(19) 0.26837(13)
C44 C 0.0013(2) 0.2486(3) -0.06871(15)
C45 C 0.3551(2) 0.5379(2) 0.23124(17)
H29 H 0.3667 0.5175 0.1891
C46 C -0.0474(3) 0.3071(3) -0.12167(17)
H30 H -0.0141 0.3523 -0.1433
C47 C 0.3837(2) 0.6309(2) 0.2554(2)
H31 H 0.4149 0.6724 0.2296
C48 C -0.1452(3) 0.2986(5) -0.1425(2)
H32 H -0.1773 0.3395 -0.1772
C49 C 0.3669(3) 0.6630(3) 0.3166(3)
H33 H 0.3866 0.7260 0.3327
C50 C -0.1948(3) 0.2307(5) -0.1127(3)
H34 H -0.2602 0.2243 -0.1278
C51 C 0.3203(3) 0.6012(3) 0.3549(2)
H35 H 0.3081 0.6227 0.3967
C52 C -0.1475(3) 0.1711(4) -0.0598(3)
H36 H -0.1808 0.1246 -0.0392
C53 C 0.2920(2) 0.5070(2) 0.33056(15)
H37 H 0.2609 0.4654 0.3563
C54 C -0.0500(2) 0.1820(3) -0.0381(2)
H38 H -0.0185 0.1433 -0.0019
loop_
_geom_bond_atom_site_label_1
_geom_bond_atom_site_label_2
_geom_bond_site_symmetry_1
_geom_bond_site_symmetry_2
O1 C1 1_555 1_555
O2 C2 1_555 1_555
C1 C3 1_555 1_555
C2 C4 1_555 1_555
C3 H1 1_555 1_555
C4 H2 1_555 1_555
C5 C3 1_555 1_555
C6 C4 1_555 1_555
C7 C5 1_555 1_555
H3 C7 1_555 1_555
C8 C6 1_555 1_555
H4 C8 1_555 1_555
C9 C1 1_555 1_555
H5 C9 1_555 1_555
C10 C2 1_555 1_555
H6 C10 1_555 1_555
C11 C3 1_555 1_555
C12 C4 1_555 1_555
C13 C11 1_555 1_555
H7 C13 1_555 1_555
C14 C12 1_555 1_555
H8 C14 1_555 1_555
C15 C13 1_555 1_555
H9 C15 1_555 1_555
C16 C14 1_555 1_555
H10 C16 1_555 1_555
C17 C15 1_555 1_555
H11 C17 1_555 1_555
C18 C16 1_555 1_555
H12 C18 1_555 1_555
C19 C17 1_555 1_555
H13 C19 1_555 1_555
C20 C18 1_555 1_555
H14 C20 1_555 1_555
C21 C11 1_555 1_555
H15 C21 1_555 1_555
C22 C12 1_555 1_555
H16 C22 1_555 1_555
C23 C5 1_555 1_555
C24 C6 1_555 1_555
C25 C23 1_555 1_555
H17 C25 1_555 1_555
C26 C24 1_555 1_555
H18 C26 1_555 1_555
C27 C25 1_555 1_555
H19 C27 1_555 1_555
C28 C26 1_555 1_555
H20 C28 1_555 1_555
C29 C27 1_555 1_555
H21 C29 1_555 1_555
C30 C28 1_555 1_555
H22 C30 1_555 1_555
C31 H23 1_555 1_555
C32 H24 1_555 1_555
C33 C31 1_555 1_555
H25 C33 1_555 1_555
C34 C32 1_555 1_555
H26 C34 1_555 1_555
C35 C33 1_555 1_555
H27 C35 1_555 1_555
C36 C34 1_555 1_555
H28 C36 1_555 1_555
C37 C7 1_555 1_555
C38 C8 1_555 1_555
C39 C29 1_555 1_555
C40 C30 1_555 1_555
C41 C23 1_555 1_555
C42 C24 1_555 1_555
C43 C9 1_555 1_555
C44 C10 1_555 1_555
C45 C43 1_555 1_555
H29 C45 1_555 1_555
C46 C44 1_555 1_555
H30 C46 1_555 1_555
C47 C45 1_555 1_555
H31 C47 1_555 1_555
C48 C46 1_555 1_555
H32 C48 1_555 1_555
C49 C47 1_555 1_555
H33 C49 1_555 1_555
C50 C48 1_555 1_555
H34 C50 1_555 1_555
C51 C49 1_555 1_555
H35 C51 1_555 1_555
C52 C50 1_555 1_555
H36 C52 1_555 1_555
C53 C43 1_555 1_555
H37 C53 1_555 1_555
C54 C44 1_555 1_555
H38 C54 1_555 1_555
C5 C6 1_555 1_555
C7 C9 1_555 1_555
C8 C10 1_555 1_555
C19 C21 1_555 1_555
C20 C22 1_555 1_555
C31 C39 1_555 1_555
C32 C40 1_555 1_555
C35 C37 1_555 1_555
C36 C38 1_555 1_555
C37 C41 1_555 1_555
C38 C42 1_555 1_555
C39 C41 1_555 1_555
C40 C42 1_555 1_555
C51 C53 1_555 1_555
C52 C54 1_555 1_555

#END
