
#######################################################################
#
#                 Cambridge Crystallographic Data Centre
#                                CCDC 
#
#######################################################################
#
# If this CIF has been generated from an entry in the Cambridge 
# Structural Database, then it will include bibliographic, chemical, 
# crystal, experimental, refinement or atomic coordinate data resulting 
# from the CCDC's data processing and validation procedures.
#
#######################################################################

data_ZAPGAA01
_chemical_name_common            2,3-bis(4-methoxyphenyl)maleimide
_chemical_formula_moiety         'C18 H15 N1 O4'
_chemical_name_systematic        3,4-bis(4-methoxyphenyl)-1H-pyrrole-2,5-dione
_symmetry_cell_setting           triclinic
_symmetry_space_group_name_H-M   'P -1'
_symmetry_Int_Tables_number      2
_space_group_name_Hall           '-P 1'
loop_
_symmetry_equiv_pos_site_id
_symmetry_equiv_pos_as_xyz
1 x,y,z
2 -x,-y,-z
_cell_length_a                   5.9948(3)
_cell_length_b                   8.8120(6)
_cell_length_c                   13.9547(9)
_cell_angle_alpha                91.627(5)
_cell_angle_beta                 95.486(5)
_cell_angle_gamma                98.101(5)
_cell_volume                     725.819
_exptl_crystal_colour            colorless
_exptl_crystal_description       prism
_cell_formula_units_Z            2
_exptl_crystal_preparation       ', Luminescent'
loop_
_atom_site_label
_atom_site_type_symbol
_atom_site_fract_x
_atom_site_fract_y
_atom_site_fract_z
O1 O 0.43380(18) 0.93091(14) 0.12134(9)
O2 O -0.6187(2) 1.50724(14) 0.27438(9)
O3 O 0.0636(2) 1.28791(15) -0.02773(9)
O4 O 0.0240(2) 0.72854(15) 0.50714(9)
N1 N 0.2696(2) 1.10024(16) 0.02446(10)
H1 H 0.3410 1.0904 -0.0254
C1 C -0.1514(3) 1.25720(18) 0.16424(12)
C2 C 0.0978(3) 0.97859(19) 0.26076(12)
C3 C 0.0349(3) 0.80918(19) 0.42509(12)
C4 C 0.2481(3) 0.8877(2) 0.41202(12)
H2 H 0.3694 0.8847 0.4584
C5 C -0.2782(3) 1.3433(2) 0.10247(12)
H3 H -0.2576 1.3428 0.0373
C6 C -0.1867(3) 1.26203(19) 0.26211(12)
H4 H -0.1033 1.2074 0.3049
C7 C -0.4679(3) 1.43017(19) 0.23340(13)
C8 C -0.1145(3) 0.89943(19) 0.27507(12)
H5 H -0.2366 0.9035 0.2293
C9 C -0.3417(3) 1.3457(2) 0.29629(12)
H6 H -0.3629 1.3462 0.3615
C10 C 0.1287(2) 1.06197(19) 0.17171(12)
C11 C -0.4339(3) 1.4294(2) 0.13646(13)
H7 H -0.5149 1.4863 0.0943
C12 C 0.1111(3) 1.19876(19) 0.03276(12)
C13 C 0.2970(3) 1.02061(19) 0.10656(12)
C14 C 0.2795(3) 0.97026(19) 0.33004(12)
H8 H 0.4227 1.0205 0.3211
C15 C -0.1466(3) 0.8147(2) 0.35641(12)
H9 H -0.2888 0.7622 0.3647
C16 C 0.0183(3) 1.17083(19) 0.12934(12)
C17 C -0.1921(3) 0.6483(2) 0.52404(14)
H10 H -0.2473 0.5767 0.4711
H11 H -0.2966 0.7204 0.5299
H12 H -0.1776 0.5940 0.5825
C18 C -0.7536(3) 1.5940(2) 0.21223(14)
H13 H -0.8328 1.5281 0.1602
H14 H -0.6571 1.6761 0.1867
H15 H -0.8611 1.6357 0.2483
loop_
_geom_bond_atom_site_label_1
_geom_bond_atom_site_label_2
_geom_bond_site_symmetry_1
_geom_bond_site_symmetry_2
O1 C13 1_555 1_555
O2 C7 1_555 1_555
O3 C12 1_555 1_555
O4 C3 1_555 1_555
N1 H1 1_555 1_555
C1 C5 1_555 1_555
C2 C8 1_555 1_555
C3 C4 1_555 1_555
C4 H2 1_555 1_555
C5 H3 1_555 1_555
C6 C1 1_555 1_555
H4 C6 1_555 1_555
C7 C9 1_555 1_555
C8 H5 1_555 1_555
C9 C6 1_555 1_555
H6 C9 1_555 1_555
C10 C2 1_555 1_555
C11 C5 1_555 1_555
H7 C11 1_555 1_555
C12 N1 1_555 1_555
C13 N1 1_555 1_555
C14 C2 1_555 1_555
H8 C14 1_555 1_555
C15 C3 1_555 1_555
H9 C15 1_555 1_555
C16 C1 1_555 1_555
C17 O4 1_555 1_555
H10 C17 1_555 1_555
H11 C17 1_555 1_555
H12 C17 1_555 1_555
C18 O2 1_555 1_555
H13 C18 1_555 1_555
H14 C18 1_555 1_555
H15 C18 1_555 1_555
C4 C14 1_555 1_555
C7 C11 1_555 1_555
C8 C15 1_555 1_555
C10 C13 1_555 1_555
C10 C16 1_555 1_555
C12 C16 1_555 1_555

#END
