
#######################################################################
#
#                 Cambridge Crystallographic Data Centre
#                                CCDC 
#
#######################################################################
#
# If this CIF has been generated from an entry in the Cambridge 
# Structural Database, then it will include bibliographic, chemical, 
# crystal, experimental, refinement or atomic coordinate data resulting 
# from the CCDC's data processing and validation procedures.
#
#######################################################################

data_ZAPKUY
_chemical_name_common            
5,17-Dibromo-26,28-bis[(methoxycarbonyl)methoxy]-25,27-dipropoxy-2,8,14,20-tetrathiacalix[4]arene
_chemical_formula_moiety         'C36 H34 Br2 O8 S4'
_chemical_name_systematic        
"Dimethyl 2,2'-((11,23-dibromo-26,28-dipropoxy-2,8,14,20-tetrathiapentacyclo[19.3.1.1^3,7^.1^9,13^.1^15,19^]octacosa-(25),3(28),4,6,9(27),10,12,15(26),16,18,21,23-dodecaene-25,27-diyl)bis(oxy))diacetate"
_symmetry_cell_setting           monoclinic
_symmetry_space_group_name_H-M   'P 21/c'
_symmetry_Int_Tables_number      14
_space_group_name_Hall           '-P 2ybc'
loop_
_symmetry_equiv_pos_site_id
_symmetry_equiv_pos_as_xyz
1 x,y,z
2 -x,1/2+y,1/2-z
3 -x,-y,-z
4 x,1/2-y,1/2+z
_cell_length_a                   16.024(3)
_cell_length_b                   14.808(3)
_cell_length_c                   15.872(3)
_cell_angle_alpha                90
_cell_angle_beta                 100.065(3)
_cell_angle_gamma                90
_cell_volume                     3708.2
_exptl_crystal_colour            colorless
_exptl_crystal_description       block
_cell_formula_units_Z            4
loop_
_atom_site_label
_atom_site_type_symbol
_atom_site_fract_x
_atom_site_fract_y
_atom_site_fract_z
Br1 Br 0.11682(2) 0.60398(2) 0.21293(2)
Br2 Br 0.03760(2) 0.38070(3) 1.04064(3)
C1 C 0.20213(19) 0.6405(2) 0.4739(2)
C2 C 0.16788(18) 0.6550(2) 0.38842(19)
H1 H 0.1460 0.7128 0.3702
C3 C 0.16546(19) 0.5857(2) 0.32980(19)
C4 C 0.19244(19) 0.5003(2) 0.35546(19)
H2 H 0.1884 0.4527 0.3148
C5 C 0.22583(19) 0.48368(19) 0.44142(19)
C6 C 0.23380(18) 0.5547(2) 0.49994(19)
C7 C 0.17985(19) 0.3580(2) 0.54785(18)
C8 C 0.1014(2) 0.4000(2) 0.5355(2)
H3 H 0.0837 0.4348 0.4852
C9 C 0.0489(2) 0.3920(2) 0.5948(2)
H4 H -0.0048 0.4209 0.5852
C10 C 0.0742(2) 0.3419(2) 0.6690(2)
H5 H 0.0381 0.3367 0.7104
C11 C 0.1524(2) 0.2996(2) 0.68202(19)
C12 C 0.20550(19) 0.30606(19) 0.62144(19)
C13 C 0.1789(2) 0.3319(2) 0.85101(19)
C14 C 0.12273(19) 0.3240(2) 0.90827(19)
H6 H 0.0927 0.2692 0.9118
C15 C 0.1109(2) 0.3961(2) 0.9597(2)
C16 C 0.1492(2) 0.4789(2) 0.95107(19)
H7 H 0.1377 0.5292 0.9844
C17 C 0.20401(19) 0.4872(2) 0.89340(19)
C18 C 0.22386(19) 0.4120(2) 0.84720(19)
C19 C 0.1805(2) 0.62323(19) 0.77646(19)
C20 C 0.0935(2) 0.6079(2) 0.7646(2)
H8 H 0.0688 0.5829 0.8096
C21 C 0.0431(2) 0.6290(2) 0.6875(2)
H9 H -0.0162 0.6181 0.6795
C22 C 0.0782(2) 0.6657(2) 0.6223(2)
H10 H 0.0430 0.6797 0.5693
C23 C 0.1646(2) 0.68234(19) 0.63296(19)
C24 C 0.21621(19) 0.6616(2) 0.7109(2)
C25 C 0.3470(2) 0.5133(2) 0.6152(2)
H11 H 0.3524 0.4502 0.5965
H12 H 0.3578 0.5140 0.6786
C26 C 0.4131(2) 0.5699(2) 0.5838(2)
C27 C 0.5595(2) 0.5920(3) 0.5987(3)
H13 H 0.5548 0.5831 0.5369
H14 H 0.6126 0.5655 0.6283
H15 H 0.5588 0.6568 0.6113
C28 C 0.2829(2) 0.1705(2) 0.6167(2)
H16 H 0.2342 0.1425 0.6375
H17 H 0.2753 0.1611 0.5541
C29 C 0.3602(3) 0.1274(3) 0.6572(3)
H18 H 0.3724 0.1453 0.7182
H19 H 0.4075 0.1491 0.6300
C30 C 0.3564(3) 0.0260(3) 0.6516(3)
H20 H 0.3166 0.0032 0.6869
H21 H 0.4129 0.0009 0.6722
H22 H 0.3373 0.0079 0.5919
C31 C 0.3558(2) 0.3663(2) 0.8103(2)
H23 H 0.3885 0.3744 0.7634
H24 H 0.3375 0.3024 0.8097
C32 C 0.4124(2) 0.3854(2) 0.8935(2)
C33 C 0.5475(2) 0.3478(3) 0.9742(2)
H25 H 0.5603 0.4115 0.9871
H26 H 0.5993 0.3163 0.9663
H27 H 0.5250 0.3202 1.0217
C34 C 0.3351(2) 0.7543(2) 0.7622(2)
H28 H 0.3119 0.7636 0.8155
H29 H 0.3190 0.8067 0.7241
C35 C 0.4294(2) 0.7450(2) 0.7823(2)
H30 H 0.4516 0.7370 0.7284
H31 H 0.4443 0.6906 0.8179
C36 C 0.4710(2) 0.8276(3) 0.8296(2)
H32 H 0.4612 0.8806 0.7922
H33 H 0.5321 0.8171 0.8459
H34 H 0.4465 0.8381 0.8812
O1 O 0.26345(13) 0.54324(13) 0.58541(13)
O2 O 0.28416(13) 0.26639(13) 0.63464(13)
O3 O 0.28207(13) 0.42264(14) 0.79386(13)
O4 O 0.30214(13) 0.67228(13) 0.72072(13)
O5 O 0.40072(16) 0.62414(17) 0.52780(17)
O6 O 0.48904(15) 0.54881(17) 0.62764(17)
O7 O 0.39604(17) 0.4311(2) 0.94997(18)
O8 O 0.48456(15) 0.34097(18) 0.89600(15)
S1 S 0.25109(5) 0.37085(5) 0.47437(5)
S2 S 0.20796(5) 0.73180(5) 0.54737(5)
S3 S 0.18647(6) 0.24030(5) 0.77987(5)
S4 S 0.24789(5) 0.59458(6) 0.87516(5)
loop_
_geom_bond_atom_site_label_1
_geom_bond_atom_site_label_2
_geom_bond_site_symmetry_1
_geom_bond_site_symmetry_2
Br1 C3 1_555 1_555
Br2 C15 1_555 1_555
C1 C2 1_555 1_555
C2 H1 1_555 1_555
C3 C2 1_555 1_555
C4 C3 1_555 1_555
H2 C4 1_555 1_555
C5 C4 1_555 1_555
C6 C1 1_555 1_555
C7 C8 1_555 1_555
C8 H3 1_555 1_555
C9 C8 1_555 1_555
H4 C9 1_555 1_555
C10 C9 1_555 1_555
H5 C10 1_555 1_555
C11 C10 1_555 1_555
C12 C7 1_555 1_555
C13 C14 1_555 1_555
C14 H6 1_555 1_555
C15 C14 1_555 1_555
C16 C15 1_555 1_555
H7 C16 1_555 1_555
C17 C16 1_555 1_555
C18 C13 1_555 1_555
C19 C20 1_555 1_555
C20 H8 1_555 1_555
C21 C20 1_555 1_555
H9 C21 1_555 1_555
C22 C21 1_555 1_555
H10 C22 1_555 1_555
C23 C22 1_555 1_555
C24 C19 1_555 1_555
C25 H11 1_555 1_555
H12 C25 1_555 1_555
C26 C25 1_555 1_555
C27 H13 1_555 1_555
H14 C27 1_555 1_555
H15 C27 1_555 1_555
C28 H16 1_555 1_555
H17 C28 1_555 1_555
C29 C28 1_555 1_555
H18 C29 1_555 1_555
H19 C29 1_555 1_555
C30 C29 1_555 1_555
H20 C30 1_555 1_555
H21 C30 1_555 1_555
H22 C30 1_555 1_555
C31 H23 1_555 1_555
H24 C31 1_555 1_555
C32 C31 1_555 1_555
C33 H25 1_555 1_555
H26 C33 1_555 1_555
H27 C33 1_555 1_555
C34 H28 1_555 1_555
H29 C34 1_555 1_555
C35 C34 1_555 1_555
H30 C35 1_555 1_555
H31 C35 1_555 1_555
C36 C35 1_555 1_555
H32 C36 1_555 1_555
H33 C36 1_555 1_555
H34 C36 1_555 1_555
O1 C6 1_555 1_555
O2 C12 1_555 1_555
O3 C18 1_555 1_555
O4 C24 1_555 1_555
O5 C26 1_555 1_555
O6 C26 1_555 1_555
O7 C32 1_555 1_555
O8 C32 1_555 1_555
S1 C5 1_555 1_555
S2 C1 1_555 1_555
S3 C11 1_555 1_555
S4 C17 1_555 1_555
C5 C6 1_555 1_555
C7 S1 1_555 1_555
C11 C12 1_555 1_555
C13 S3 1_555 1_555
C17 C18 1_555 1_555
C19 S4 1_555 1_555
C23 C24 1_555 1_555
C23 S2 1_555 1_555
C25 O1 1_555 1_555
C27 O6 1_555 1_555
C28 O2 1_555 1_555
C31 O3 1_555 1_555
C33 O8 1_555 1_555
C34 O4 1_555 1_555

#END
