
#######################################################################
#
#                 Cambridge Crystallographic Data Centre
#                                CCDC 
#
#######################################################################
#
# If this CIF has been generated from an entry in the Cambridge 
# Structural Database, then it will include bibliographic, chemical, 
# crystal, experimental, refinement or atomic coordinate data resulting 
# from the CCDC's data processing and validation procedures.
#
#######################################################################

data_ZAPKIK
_chemical_formula_moiety         'C30 H54 N8 O3 6+,6(Cl1 O4 1-),9(H2 O1)'
_chemical_name_systematic        
'1,4,8,11,14,18,23,27-Octa-aza-6,16,25(2,5)-trifuranabicyclo(9.9.9)nonacosaphane hexaperchlorate nonahydrate'
_symmetry_cell_setting           monoclinic
_symmetry_space_group_name_H-M   'P 21/n'
_symmetry_Int_Tables_number      14
_space_group_name_Hall           '-P 2yn'
loop_
_symmetry_equiv_pos_site_id
_symmetry_equiv_pos_as_xyz
1 x,y,z
2 1/2-x,1/2+y,1/2-z
3 -x,-y,-z
4 1/2+x,1/2-y,1/2+z
_cell_length_a                   14.228(2)
_cell_length_b                   19.241(3)
_cell_length_c                   21.797(3)
_cell_angle_alpha                90
_cell_angle_beta                 107.32(1)
_cell_angle_gamma                90
_cell_volume                     5696.6
_exptl_crystal_colour            'pale yellow'
_cell_formula_units_Z            4
loop_
_atom_site_label
_atom_site_type_symbol
_atom_site_fract_x
_atom_site_fract_y
_atom_site_fract_z
N1 N 0.4209(5) 0.7644(4) 0.5671(4)
N2 N -0.1328(5) 0.7417(4) 0.7120(3)
C1 C 0.4377(7) 0.8373(5) 0.5495(5)
C2 C 0.3481(7) 0.8726(5) 0.5074(5)
N3 N 0.2700(5) 0.8783(4) 0.5403(3)
C3 C 0.1904(8) 0.9283(5) 0.5085(5)
C4 C 0.1270(8) 0.9472(6) 0.5475(5)
O1 O 0.0392(5) 0.9109(3) 0.5385(3)
C5 C 0.1337(8) 0.9962(6) 0.5918(6)
C6 C 0.0490(9) 0.9915(6) 0.6130(5)
C7 C -0.0069(8) 0.9408(6) 0.5793(5)
C8 C -0.1036(7) 0.9117(5) 0.5774(5)
N4 N -0.0964(5) 0.8618(4) 0.6319(3)
C9 C -0.1944(7) 0.8464(5) 0.6413(5)
C10 C -0.1828(6) 0.8112(5) 0.7041(4)
C11 C 0.5083(6) 0.7398(5) 0.6178(4)
C12 C 0.5197(7) 0.7716(5) 0.6843(4)
N5 N 0.4357(5) 0.7556(4) 0.7084(3)
C13 C 0.4581(7) 0.7757(5) 0.7779(5)
C14 C 0.3902(7) 0.7436(6) 0.8088(5)
O2 O 0.3071(5) 0.7815(3) 0.8077(3)
C15 C 0.3912(9) 0.6865(7) 0.8438(6)
C16 C 0.3075(8) 0.6870(7) 0.8649(6)
C17 C 0.2588(8) 0.7444(6) 0.8430(5)
C18 C 0.1669(7) 0.7734(5) 0.8506(4)
N6 N 0.0750(5) 0.7476(4) 0.8028(3)
C19 C -0.0162(6) 0.7612(5) 0.8223(4)
C20 C -0.1033(6) 0.7223(5) 0.7811(4)
C21 C 0.4067(7) 0.7182(5) 0.5114(4)
C22 C 0.3702(6) 0.6451(5) 0.5182(5)
N7 N 0.2708(5) 0.6493(4) 0.5285(4)
C23 C 0.2200(7) 0.5797(5) 0.5198(5)
C24 C 0.1131(7) 0.5869(5) 0.5114(5)
O3 O 0.0851(4) 0.5775(3) 0.5665(3)
C25 C 0.0326(7) 0.5963(4) 0.4616(4)
C26 C -0.0500(7) 0.5914(5) 0.4841(5)
C27 C -0.0157(7) 0.5805(4) 0.5471(5)
C28 C -0.0648(7) 0.5671(4) 0.5970(5)
N8 N -0.0865(5) 0.6314(4) 0.6278(4)
C29 C -0.1593(6) 0.6215(5) 0.6648(4)
C30 C -0.2038(6) 0.6902(5) 0.6743(4)
H1 H 0.4630(7) 0.8641(5) 0.5886(5)
H2 H 0.4877(7) 0.8363(5) 0.5274(5)
H3 H 0.3230(7) 0.8451(5) 0.4686(5)
H4 H 0.3647(7) 0.9182(5) 0.4949(5)
H5 H 0.2425(5) 0.8364(4) 0.5417(3)
H6 H 0.2973(5) 0.8927(4) 0.5810(3)
H7 H 0.1503(8) 0.9078(5) 0.4687(5)
H8 H 0.2205(8) 0.9701(5) 0.4980(5)
H9 H 0.1856(8) 1.0274(6) 0.6062(6)
H10 H 0.0335(9) 1.0185(6) 0.6441(5)
H11 H -0.1484(7) 0.9492(5) 0.5788(5)
H12 H -0.1310(7) 0.8866(5) 0.5374(5)
H13 H -0.0569(5) 0.8810(4) 0.6681(3)
H14 H -0.0685(5) 0.8217(4) 0.6250(3)
H15 H -0.2308(7) 0.8893(5) 0.6395(5)
H16 H -0.2319(7) 0.8163(5) 0.6070(5)
H17 H -0.1453(6) 0.8419(5) 0.7379(4)
H18 H -0.2470(6) 0.8046(5) 0.7103(4)
H19 H 0.5666(6) 0.7507(5) 0.6052(4)
H20 H 0.5050(6) 0.6897(5) 0.6217(4)
H21 H 0.5806(7) 0.7564(5) 0.7151(4)
H22 H 0.5231(7) 0.8216(5) 0.6801(4)
H23 H 0.4236(5) 0.7097(4) 0.7042(3)
H24 H 0.3813(5) 0.7782(4) 0.6853(3)
H25 H 0.5249(7) 0.7613(5) 0.8002(5)
H26 H 0.4554(7) 0.8259(5) 0.7807(5)
H27 H 0.4391(9) 0.6520(7) 0.8514(6)
H28 H 0.2908(8) 0.6543(7) 0.8913(6)
H29 H 0.1638(7) 0.7619(5) 0.8933(4)
H30 H 0.1683(7) 0.8237(5) 0.8475(4)
H31 H 0.0808(5) 0.7015(4) 0.7982(3)
H32 H 0.0693(5) 0.7677(4) 0.7646(3)
H33 H -0.0049(6) 0.7487(5) 0.8670(4)
H34 H -0.0308(6) 0.8105(5) 0.8180(4)
H35 H -0.0881(6) 0.6731(5) 0.7850(4)
H36 H -0.1594(6) 0.7302(5) 0.7968(4)
H37 H 0.3583(7) 0.7394(5) 0.4752(4)
H38 H 0.4682(7) 0.7156(5) 0.5008(4)
H39 H 0.4171(6) 0.6231(5) 0.5547(5)
H40 H 0.3672(6) 0.6181(5) 0.4801(5)
H41 H 0.2770(5) 0.6648(4) 0.5685(4)
H42 H 0.2320(5) 0.6794(4) 0.5006(4)
H43 H 0.2503(7) 0.5508(5) 0.5569(5)
H44 H 0.2290(7) 0.5571(5) 0.4822(5)
H45 H 0.0324(7) 0.6036(4) 0.4193(4)
H46 H -0.1157(7) 0.5961(5) 0.4602(5)
H47 H -0.1265(7) 0.5433(4) 0.5773(5)
H48 H -0.0245(7) 0.5371(4) 0.6303(5)
H49 H -0.1103(5) 0.6633(4) 0.5969(4)
H50 H -0.0298(5) 0.6479(4) 0.6544(4)
H51 H -0.2108(6) 0.5900(5) 0.6414(4)
H52 H -0.1262(6) 0.6005(5) 0.7060(4)
H53 H -0.2389(6) 0.7097(5) 0.6327(4)
H54 H -0.2516(6) 0.6815(5) 0.6972(4)
Cl1 Cl 0.1340(12) 0.7545(8) 0.6388(8)
O4 O 0.2204(9) 0.7620(12) 0.6216(8)
O5 O 0.1400(19) 0.6961(8) 0.6781(8)
O6 O 0.0531(12) 0.7465(9) 0.5838(9)
O7 O 0.1176(15) 0.8142(9) 0.6711(8)
Cl3 Cl 0.3907(2) 1.0911(2) 0.5529(2)
O12 O 0.4738(8) 1.1187(6) 0.5892(6)
O13 O 0.3315(10) 1.1423(7) 0.5237(6)
O14 O 0.4127(13) 1.0560(6) 0.5076(7)
O15 O 0.3511(9) 1.0474(8) 0.5862(6)
Cl4 Cl 0.8393(3) 1.1008(2) 0.6884(2)
O16 O 0.8658(11) 1.0367(7) 0.6752(8)
O17 O 0.7412(8) 1.1016(9) 0.6725(8)
O18 O 0.8646(15) 1.1457(10) 0.6512(7)
O19 O 0.8744(11) 1.1167(8) 0.7490(5)
Cl5 Cl -0.3656(2) 0.6114(2) 0.4977(2)
O20 O -0.3401(10) 0.6847(6) 0.5037(5)
O21 O -0.2822(8) 0.5824(7) 0.4977(5)
O22 O -0.3898(6) 0.6023(6) 0.5546(4)
O23 O -0.4406(6) 0.6122(6) 0.4437(4)
Cl6 Cl 0.2178(3) 0.6050(2) 0.3352(2)
O24 O 0.3145(9) 0.6140(16) 0.3445(9)
O25 O 0.1986(28) 0.5468(9) 0.3613(12)
O26 O 0.1947(15) 0.6611(10) 0.3758(10)
O27 O 0.1623(11) 0.6228(13) 0.2771(8)
Cl8 Cl 0.2175(2) 0.4748(1) 0.7002(1)
O32 O 0.1170(4) 0.4573(3) 0.6867(3)
O33 O 0.2719(4) 0.4364(4) 0.7549(3)
O34 O 0.2292(5) 0.5468(3) 0.7150(3)
O35 O 0.2549(5) 0.4605(4) 0.6485(3)
O36 O 0.0339(5) 0.9031(4) 0.7494(3)
H55 H 0.0553(5) 0.9435(4) 0.7528(3)
H56 H 0.0577(5) 0.8731(4) 0.7289(3)
O37 O 0.3579(5) 0.8998(4) 0.6708(3)
H57 H 0.3077(5) 0.8734(4) 0.6652(3)
H58 H 0.3544(5) 0.9395(4) 0.6852(3)
O38 O 0.0736(4) 0.6102(3) 0.7563(3)
H59 H 0.0973(4) 0.6373(3) 0.7333(3)
H60 H 0.0191(4) 0.5919(3) 0.7398(3)
O39 O -0.1487(6) 0.7412(4) 0.5314(4)
H61 H -0.1952(6) 0.7676(4) 0.5323(4)
H62 H -0.0952(6) 0.7411(4) 0.5581(4)
O40 O 0.3775(5) 0.6162(3) 0.6717(3)
H63 H 0.3898(5) 0.5859(3) 0.7004(3)
H64 H 0.3255(5) 0.6409(3) 0.6666(3)
O41 O 0.1527(6) 0.7625(4) 0.4591(4)
H65 H 0.1072(6) 0.7525(4) 0.4236(4)
H66 H 0.1398(6) 0.7575(4) 0.4928(4)
O42 O -0.0022(6) 0.9993(5) 0.8394(4)
H67 H 0.0151(6) 0.9824(5) 0.8773(4)
H68 H -0.0624(6) 1.0106(5) 0.8291(4)
O43 O 0.5145(6) 0.9874(5) 0.7121(4)
H69 H 0.5397(6) 0.9950(5) 0.6820(4)
H70 H 0.5573(6) 0.9704(5) 0.7442(4)
O44 O 0.6210(8) 0.9754(6) 0.6298(5)
H71 H 0.5886(8) 0.9879(6) 0.5943(5)
H72 H 0.6733(8) 1.0001(6) 0.6447(5)
Cl2? Cl 0.1457(18) 0.7532(13) 0.6329(12)
O8? O 0.0675(16) 0.7502(18) 0.6588(12)
O9? O 0.1121(28) 0.7454(17) 0.5667(9)
O10? O 0.2109(21) 0.6993(13) 0.6598(15)
O11? O 0.1907(24) 0.8178(11) 0.6487(12)
Cl7? Cl 0.2178(3) 0.6050(2) 0.3352(2)
O28? O 0.2877(34) 0.5649(24) 0.3788(19)
O29? O 0.1305(21) 0.5813(17) 0.3369(20)
O30? O 0.2373(36) 0.6698(11) 0.3392(19)
O31? O 0.2280(31) 0.5752(19) 0.2763(14)
loop_
_geom_bond_atom_site_label_1
_geom_bond_atom_site_label_2
_geom_bond_site_symmetry_1
_geom_bond_site_symmetry_2
N1 C1 1_555 1_555
N2 C10 1_555 1_555
C1 C2 1_555 1_555
C2 N3 1_555 1_555
N3 C3 1_555 1_555
C3 C4 1_555 1_555
C4 O1 1_555 1_555
O1 C7 1_555 1_555
C5 C4 1_555 1_555
C6 C5 1_555 1_555
C7 C6 1_555 1_555
C8 C7 1_555 1_555
N4 C8 1_555 1_555
C9 N4 1_555 1_555
C10 C9 1_555 1_555
C11 N1 1_555 1_555
C12 C11 1_555 1_555
N5 C12 1_555 1_555
C13 N5 1_555 1_555
C14 C13 1_555 1_555
O2 C14 1_555 1_555
C15 C14 1_555 1_555
C16 C15 1_555 1_555
C17 O2 1_555 1_555
C18 C17 1_555 1_555
N6 C18 1_555 1_555
C19 N6 1_555 1_555
C20 N2 1_555 1_555
C21 N1 1_555 1_555
C22 C21 1_555 1_555
N7 C22 1_555 1_555
C23 N7 1_555 1_555
C24 C23 1_555 1_555
O3 C24 1_555 1_555
C25 C24 1_555 1_555
C26 C25 1_555 1_555
C27 O3 1_555 1_555
C28 C27 1_555 1_555
N8 C28 1_555 1_555
C29 N8 1_555 1_555
C30 N2 1_555 1_555
Cl1 O4 1_555 1_555
O5 Cl1 1_555 1_555
O6 Cl1 1_555 1_555
O7 Cl1 1_555 1_555
Cl3 O12 1_555 1_555
O13 Cl3 1_555 1_555
O14 Cl3 1_555 1_555
O15 Cl3 1_555 1_555
Cl4 O16 1_555 1_555
O17 Cl4 1_555 1_555
O18 Cl4 1_555 1_555
O19 Cl4 1_555 1_555
Cl5 O20 1_555 1_555
O21 Cl5 1_555 1_555
O22 Cl5 1_555 1_555
O23 Cl5 1_555 1_555
Cl6 O24 1_555 1_555
O25 Cl6 1_555 1_555
O26 Cl6 1_555 1_555
O27 Cl6 1_555 1_555
Cl8 O32 1_555 1_555
O33 Cl8 1_555 1_555
O34 Cl8 1_555 1_555
O35 Cl8 1_555 1_555
O36 H55 1_555 1_555
O37 H57 1_555 1_555
O38 H59 1_555 1_555
O39 H61 1_555 1_555
O40 H63 1_555 1_555
O41 H65 1_555 1_555
O42 H67 1_555 1_555
O43 H69 1_555 1_555
O44 H71 1_555 1_555
H1 C1 1_555 1_555
H2 C1 1_555 1_555
H3 C2 1_555 1_555
H4 C2 1_555 1_555
H5 N3 1_555 1_555
H6 N3 1_555 1_555
H7 C3 1_555 1_555
H8 C3 1_555 1_555
H9 C5 1_555 1_555
H10 C6 1_555 1_555
H11 C8 1_555 1_555
H12 C8 1_555 1_555
H13 N4 1_555 1_555
H14 N4 1_555 1_555
H15 C9 1_555 1_555
H16 C9 1_555 1_555
H17 C10 1_555 1_555
H18 C10 1_555 1_555
H19 C11 1_555 1_555
H20 C11 1_555 1_555
H21 C12 1_555 1_555
H22 C12 1_555 1_555
H23 N5 1_555 1_555
H24 N5 1_555 1_555
H25 C13 1_555 1_555
H26 C13 1_555 1_555
H27 C15 1_555 1_555
H28 C16 1_555 1_555
H29 C18 1_555 1_555
H30 C18 1_555 1_555
H31 N6 1_555 1_555
H32 N6 1_555 1_555
H33 C19 1_555 1_555
H34 C19 1_555 1_555
H35 C20 1_555 1_555
H36 C20 1_555 1_555
H37 C21 1_555 1_555
H38 C21 1_555 1_555
H39 C22 1_555 1_555
H40 C22 1_555 1_555
H41 N7 1_555 1_555
H42 N7 1_555 1_555
H43 C23 1_555 1_555
H44 C23 1_555 1_555
H45 C25 1_555 1_555
H46 C26 1_555 1_555
H47 C28 1_555 1_555
H48 C28 1_555 1_555
H49 N8 1_555 1_555
H50 N8 1_555 1_555
H51 C29 1_555 1_555
H52 C29 1_555 1_555
H53 C30 1_555 1_555
H54 C30 1_555 1_555
H56 O36 1_555 1_555
H58 O37 1_555 1_555
H60 O38 1_555 1_555
H62 O39 1_555 1_555
H64 O40 1_555 1_555
H66 O41 1_555 1_555
H68 O42 1_555 1_555
H70 O43 1_555 1_555
H72 O44 1_555 1_555
C16 C17 1_555 1_555
C19 C20 1_555 1_555
C26 C27 1_555 1_555
C29 C30 1_555 1_555

#END
