
#######################################################################
#
#                 Cambridge Crystallographic Data Centre
#                                CCDC 
#
#######################################################################
#
# If this CIF has been generated from an entry in the Cambridge 
# Structural Database, then it will include bibliographic, chemical, 
# crystal, experimental, refinement or atomic coordinate data resulting 
# from the CCDC's data processing and validation procedures.
#
#######################################################################

data_ZAPLEJ
_chemical_name_common            'Lurasidone hydrochloride'
_chemical_formula_moiety         'C28 H37 N4 O2 S1 1+,Cl1 1-'
_chemical_name_systematic        
'4-(1,2-benzothiazol-3-yl)-1-((2-[(3,5-dioxo-4-azatricyclo[5.2.1.0^2,6^]decan-4-yl)methyl]cyclohexyl)methyl)piperazin-1-ium chloride'
_chemical_properties_biological  'antipsychotic drug'
_symmetry_cell_setting           orthorhombic
_symmetry_space_group_name_H-M   'P 21 21 21'
_symmetry_Int_Tables_number      19
_space_group_name_Hall           'P 2ac 2ab'
loop_
_symmetry_equiv_pos_site_id
_symmetry_equiv_pos_as_xyz
1 x,y,z
2 1/2-x,-y,1/2+z
3 -x,1/2+y,1/2-z
4 1/2+x,1/2-y,-z
_cell_length_a                   11.2039(10)
_cell_length_b                   12.2665(11)
_cell_length_c                   19.9774(18)
_cell_angle_alpha                90
_cell_angle_beta                 90
_cell_angle_gamma                90
_cell_volume                     2745.55
_exptl_crystal_colour            colorless
_exptl_crystal_description       prismatic
_cell_formula_units_Z            4
loop_
_atom_site_label
_atom_site_type_symbol
_atom_site_fract_x
_atom_site_fract_y
_atom_site_fract_z
S1 S 0.68064(7) 0.23143(5) 0.79887(4)
N1 N 0.43096(19) 0.85877(16) 0.44646(11)
N2 N 0.44531(15) 0.44620(14) 0.52716(10)
N3 N 0.54606(16) 0.38440(15) 0.65254(10)
N4 N 0.60954(19) 0.24766(16) 0.72566(11)
O1 O 0.25234(18) 0.94287(16) 0.46631(10)
O2 O 0.62622(17) 0.81973(17) 0.42244(12)
C1 C 0.3506(2) 0.67528(19) 0.41447(13)
H1 H 0.4094 0.6737 0.3782
C2 C 0.3346(2) 0.55930(19) 0.44089(12)
H2 H 0.2824 0.5628 0.4802
C3 C 0.2738(3) 0.4859(2) 0.38862(17)
H3 H 0.3267 0.4770 0.3506
H4 H 0.2603 0.4144 0.4080
C4 C 0.1544(3) 0.5325(3) 0.36440(19)
H5 H 0.1199 0.4846 0.3310
H6 H 0.0992 0.5376 0.4017
C5 C 0.1745(3) 0.6445(3) 0.33458(17)
H7 H 0.0987 0.6750 0.3204
H8 H 0.2256 0.6385 0.2956
C6 C 0.2325(2) 0.7196(2) 0.38630(15)
H9 H 0.1771 0.7307 0.4230
H10 H 0.2473 0.7900 0.3658
C7 C 0.3973(2) 0.75009(19) 0.46978(14)
H11 H 0.3362 0.7574 0.5039
H12 H 0.4663 0.7161 0.4904
C8 C 0.4524(2) 0.50733(18) 0.46260(13)
H13 H 0.4788 0.4578 0.4278
H14 H 0.5121 0.5641 0.4669
C9 C 0.3553(2) 0.9473(2) 0.44790(14)
C10 C 0.5450(2) 0.8844(2) 0.42461(14)
C11 C 0.5473(2) 1.0026(2) 0.40424(16)
H15 H 0.6089 1.0429 0.4288
C12 C 0.5566(3) 1.0230(3) 0.32838(18)
H16 H 0.6171 0.9793 0.3053
C13 C 0.5667(3) 1.1452(3) 0.3173(2)
H17 H 0.5866 1.1616 0.2711
H18 H 0.6269 1.1768 0.3463
C14 C 0.4411(3) 1.1879(3) 0.3352(2)
H19 H 0.4442 1.2381 0.3727
H20 H 0.4043 1.2241 0.2972
C15 C 0.3741(3) 1.0839(2) 0.35359(16)
H21 H 0.2870 1.0896 0.3507
C16 C 0.4211(2) 1.0450(2) 0.42160(14)
H22 H 0.4237 1.1043 0.4544
C17 C 0.4291(3) 1.0019(3) 0.30617(16)
H23 H 0.4158 1.0201 0.2595
H24 H 0.4033 0.9279 0.3151
C18 C 0.4400(2) 0.51847(18) 0.58658(12)
H25 H 0.3685 0.5629 0.5843
H26 H 0.5085 0.5668 0.5865
C19 C 0.4391(2) 0.4532(2) 0.65033(12)
H27 H 0.4380 0.5018 0.6886
H28 H 0.3681 0.4079 0.6521
C20 C 0.5448(2) 0.30604(19) 0.59814(12)
H29 H 0.4737 0.2611 0.6010
H30 H 0.6141 0.2589 0.6012
C21 C 0.54609(19) 0.36631(17) 0.53267(12)
H31 H 0.6213 0.4049 0.5282
H32 H 0.5407 0.3142 0.4963
C22 C 0.5904(2) 0.35074(19) 0.71390(12)
C23 C 0.63088(19) 0.42610(19) 0.76474(12)
C24 C 0.6322(2) 0.5409(2) 0.76601(13)
H33 H 0.6003 0.5809 0.7307
C25 C 0.6813(2) 0.5925(2) 0.82006(15)
H34 H 0.6816 0.6682 0.8215
C26 C 0.7306(3) 0.5342(3) 0.87282(15)
H35 H 0.7618 0.5716 0.9093
C27 C 0.7342(3) 0.4226(3) 0.87204(14)
H36 H 0.7692 0.3837 0.9068
C28 C 0.6836(2) 0.3692(2) 0.81747(12)
H37 H 0.3847(16) 0.4111(16) 0.5276(12)
Cl1 Cl 0.24826(6) 0.28761(6) 0.52740(4)
loop_
_geom_bond_atom_site_label_1
_geom_bond_atom_site_label_2
_geom_bond_site_symmetry_1
_geom_bond_site_symmetry_2
S1 N4 1_555 1_555
N1 C7 1_555 1_555
N2 C8 1_555 1_555
N3 C19 1_555 1_555
N4 C22 1_555 1_555
O1 C9 1_555 1_555
O2 C10 1_555 1_555
C1 H1 1_555 1_555
C2 C1 1_555 1_555
H2 C2 1_555 1_555
C3 C2 1_555 1_555
H3 C3 1_555 1_555
H4 C3 1_555 1_555
C4 C3 1_555 1_555
H5 C4 1_555 1_555
H6 C4 1_555 1_555
C5 C4 1_555 1_555
H7 C5 1_555 1_555
H8 C5 1_555 1_555
C6 C1 1_555 1_555
H9 C6 1_555 1_555
H10 C6 1_555 1_555
C7 C1 1_555 1_555
H11 C7 1_555 1_555
H12 C7 1_555 1_555
C8 C2 1_555 1_555
H13 C8 1_555 1_555
H14 C8 1_555 1_555
C9 N1 1_555 1_555
C10 N1 1_555 1_555
C11 C10 1_555 1_555
H15 C11 1_555 1_555
C12 C11 1_555 1_555
H16 C12 1_555 1_555
C13 C12 1_555 1_555
H17 C13 1_555 1_555
H18 C13 1_555 1_555
C14 C13 1_555 1_555
H19 C14 1_555 1_555
H20 C14 1_555 1_555
C15 C14 1_555 1_555
H21 C15 1_555 1_555
C16 C9 1_555 1_555
H22 C16 1_555 1_555
C17 C12 1_555 1_555
H23 C17 1_555 1_555
H24 C17 1_555 1_555
C18 N2 1_555 1_555
H25 C18 1_555 1_555
H26 C18 1_555 1_555
C19 C18 1_555 1_555
H27 C19 1_555 1_555
H28 C19 1_555 1_555
C20 N3 1_555 1_555
H29 C20 1_555 1_555
H30 C20 1_555 1_555
C21 N2 1_555 1_555
H31 C21 1_555 1_555
H32 C21 1_555 1_555
C22 N3 1_555 1_555
C23 C22 1_555 1_555
C24 C23 1_555 1_555
H33 C24 1_555 1_555
C25 C24 1_555 1_555
H34 C25 1_555 1_555
C26 C25 1_555 1_555
H35 C26 1_555 1_555
C27 C26 1_555 1_555
H36 C27 1_555 1_555
C28 S1 1_555 1_555
H37 N2 1_555 1_555
C5 C6 1_555 1_555
C11 C16 1_555 1_555
C15 C16 1_555 1_555
C15 C17 1_555 1_555
C20 C21 1_555 1_555
C23 C28 1_555 1_555
C27 C28 1_555 1_555

#END
