
#######################################################################
#
#                 Cambridge Crystallographic Data Centre
#                                CCDC 
#
#######################################################################
#
# If this CIF has been generated from an entry in the Cambridge 
# Structural Database, then it will include bibliographic, chemical, 
# crystal, experimental, refinement or atomic coordinate data resulting 
# from the CCDC's data processing and validation procedures.
#
#######################################################################

data_ZAPMOU
_chemical_name_common            
'2-[7-Chloro-1,1-dioxo-2-(2,4,5-trifluorobenzyl)-3,4-dihydro-2H-1,2,4-benzothiadiazin-4-yl]acetic acid'
_chemical_formula_moiety         'C16 H12 Cl1 F3 N2 O4 S1'
_chemical_name_systematic        
'(7-Chloro-1,1-dioxido-2-(2,4,5-trifluorobenzyl)-2,3-dihydro-4H-1,2,4-benzothiadiazin-4-yl)acetic acid'
_symmetry_cell_setting           monoclinic
_symmetry_space_group_name_H-M   'P 21/c'
_symmetry_Int_Tables_number      14
_space_group_name_Hall           '-P 2ybc'
loop_
_symmetry_equiv_pos_site_id
_symmetry_equiv_pos_as_xyz
1 x,y,z
2 -x,1/2+y,1/2-z
3 -x,-y,-z
4 x,1/2-y,1/2+z
_cell_length_a                   9.3628(2)
_cell_length_b                   12.3134(2)
_cell_length_c                   15.5597(3)
_cell_angle_alpha                90
_cell_angle_beta                 105.9960(10)
_cell_angle_gamma                90
_cell_volume                     1724.39
_exptl_crystal_colour            colorless
_exptl_crystal_description       block
_cell_formula_units_Z            4
loop_
_atom_site_label
_atom_site_type_symbol
_atom_site_fract_x
_atom_site_fract_y
_atom_site_fract_z
S1 S 0.45256(6) 0.88685(5) 0.08722(3)
Cl1 Cl -0.00328(10) 0.62773(8) 0.09172(6)
C1 C 0.8849(2) 0.89923(18) 0.16523(14)
C2 C 0.3729(2) 0.79827(17) 0.14930(12)
N1 N 0.62050(19) 0.90503(15) 0.15259(11)
F1 F 1.26561(18) 1.08588(15) 0.23239(13)
O1 O 0.46125(19) 0.83390(17) 0.00742(10)
F2 F 1.0586(2) 1.12091(14) 0.07690(12)
C3 C 0.9947(3) 0.88393(19) 0.24347(15)
C4 C 0.2388(2) 0.75123(19) 0.10327(14)
H1 H 0.1985 0.7648 0.0426
N2 N 0.5746(2) 0.82433(15) 0.28393(11)
F3 F 0.97529(19) 0.80656(14) 0.30117(11)
O2 O 0.37472(19) 0.98763(15) 0.07985(13)
C5 C 0.4382(2) 0.77835(16) 0.24064(12)
C6 C 0.6157(2) 0.92240(18) 0.24459(13)
H2 H 0.7126 0.9466 0.2802
H3 H 0.5445 0.9792 0.2456
C7 C 0.3601(3) 0.70893(18) 0.28347(14)
H4 H 0.3996 0.6932 0.3438
C8 C 0.2264(3) 0.66393(19) 0.23789(16)
H5 H 0.1761 0.6192 0.2679
C9 C 0.1662(3) 0.6843(2) 0.14823(16)
C10 C 0.5751(3) 0.8936(2) 0.43292(13)
C11 C 0.6382(3) 0.8131(2) 0.37949(13)
H6 H 0.7449 0.8232 0.3935
H7 H 0.6200 0.7400 0.3972
C12 C 0.7430(2) 0.8351(2) 0.14144(16)
H8 H 0.7213 0.8102 0.0800
H9 H 0.7531 0.7720 0.1800
C13 C 0.9087(2) 0.98074(19) 0.10813(15)
H10 H 0.8376 0.9939 0.0542
C14 C 1.0367(3) 1.0414(2) 0.13140(16)
C15 C 1.1431(3) 1.0230(2) 0.21047(18)
C16 C 1.1245(3) 0.9440(2) 0.26747(17)
H11 H 1.1968 0.9307 0.3209
O3 O 0.6474(2) 0.89659(17) 0.51717(10)
H12 H 0.6053 0.9380 0.5435
O4 O 0.4682(2) 0.95079(17) 0.39943(11)
loop_
_geom_bond_atom_site_label_1
_geom_bond_atom_site_label_2
_geom_bond_site_symmetry_1
_geom_bond_site_symmetry_2
S1 C2 1_555 1_555
Cl1 C9 1_555 1_555
C1 C3 1_555 1_555
C2 C4 1_555 1_555
N1 S1 1_555 1_555
F1 C15 1_555 1_555
O1 S1 1_555 1_555
F2 C14 1_555 1_555
C3 F3 1_555 1_555
C4 H1 1_555 1_555
N2 C5 1_555 1_555
O2 S1 1_555 1_555
C5 C2 1_555 1_555
C6 N1 1_555 1_555
H2 C6 1_555 1_555
H3 C6 1_555 1_555
C7 C5 1_555 1_555
H4 C7 1_555 1_555
C8 C7 1_555 1_555
H5 C8 1_555 1_555
C9 C4 1_555 1_555
C10 C11 1_555 1_555
C11 N2 1_555 1_555
H6 C11 1_555 1_555
H7 C11 1_555 1_555
C12 C1 1_555 1_555
H8 C12 1_555 1_555
H9 C12 1_555 1_555
C13 C1 1_555 1_555
H10 C13 1_555 1_555
C14 C13 1_555 1_555
C15 C14 1_555 1_555
C16 C3 1_555 1_555
H11 C16 1_555 1_555
O3 C10 1_555 1_555
H12 O3 1_555 1_555
O4 C10 1_555 1_555
N1 C12 1_555 1_555
N2 C6 1_555 1_555
C8 C9 1_555 1_555
C15 C16 1_555 1_555

#END
