
#######################################################################
#
#                 Cambridge Crystallographic Data Centre
#                                CCDC 
#
#######################################################################
#
# If this CIF has been generated from an entry in the Cambridge 
# Structural Database, then it will include bibliographic, chemical, 
# crystal, experimental, refinement or atomic coordinate data resulting 
# from the CCDC's data processing and validation procedures.
#
#######################################################################

data_ZAPNOV
_chemical_formula_moiety         'C22 H18 N4 O2 S1'
_chemical_name_systematic        
N'-[(5-Methyl-3-oxo-2-phenyl-2,3-dihydro-1H-pyrazol-4-yl)(thiophen-2-yl)methylidene]benzohydrazide
_symmetry_cell_setting           orthorhombic
_symmetry_space_group_name_H-M   'P 21 21 21'
_symmetry_Int_Tables_number      19
_space_group_name_Hall           'P 2ac 2ab'
loop_
_symmetry_equiv_pos_site_id
_symmetry_equiv_pos_as_xyz
1 x,y,z
2 1/2-x,-y,1/2+z
3 -x,1/2+y,1/2-z
4 1/2+x,1/2-y,-z
_cell_length_a                   13.562(5)
_cell_length_b                   16.729(6)
_cell_length_c                   17.258(6)
_cell_angle_alpha                90
_cell_angle_beta                 90
_cell_angle_gamma                90
_cell_volume                     3915.47
_exptl_crystal_colour            colorless
_exptl_crystal_description       prism
_cell_formula_units_Z            8
_exptl_crystal_recrystallization_method ethanol
loop_
_atom_site_label
_atom_site_type_symbol
_atom_site_fract_x
_atom_site_fract_y
_atom_site_fract_z
S1 S -0.03830(5) 0.71956(4) 1.11387(4)
O1 O 0.32273(11) 0.58102(9) 0.99164(10)
O2 O 0.00489(12) 0.62704(10) 0.85706(10)
N1 N 0.41739(14) 0.68241(10) 1.04849(11)
N2 N 0.39591(14) 0.75401(11) 1.08442(12)
N3 N 0.09446(14) 0.65442(11) 0.99061(11)
N4 N 0.14777(14) 0.63005(11) 0.92562(11)
C1 C 0.51201(16) 0.64760(13) 1.05797(13)
C2 C 0.53891(17) 0.58191(13) 1.01313(14)
H1 H 0.4952 0.5606 0.9754
C3 C 0.63134(17) 0.54841(14) 1.02498(15)
H2 H 0.6501 0.5028 0.9957
C4 C 0.69714(18) 0.57982(15) 1.07857(16)
H3 H 0.7604 0.5564 1.0851
C5 C 0.67008(18) 0.64501(15) 1.12212(15)
H4 H 0.7150 0.6671 1.1585
C6 C 0.57672(17) 0.67876(13) 1.11298(15)
H5 H 0.5573 0.7228 1.1442
C7 C 0.32789(16) 0.64663(13) 1.02580(13)
C8 C 0.25253(16) 0.70038(13) 1.05077(13)
C9 C 0.29774(16) 0.76560(13) 1.08431(13)
C10 C 0.14507(17) 0.68506(13) 1.04734(13)
C11 C 0.08755(17) 0.70277(13) 1.11724(14)
C12 C 0.12018(18) 0.70293(14) 1.19226(14)
H6 H 0.1870 0.6940 1.2063
C13 C 0.04498(19) 0.71769(15) 1.24670(14)
H7 H 0.0558 0.7200 1.3010
C14 C -0.0450(2) 0.72826(15) 1.21298(15)
H8 H -0.1040 0.7391 1.2408
C15 C 0.09352(17) 0.61021(13) 0.86222(13)
C16 C 0.14549(18) 0.56975(13) 0.79726(13)
C17 C 0.24761(19) 0.57110(17) 0.78695(15)
H9 H 0.2883 0.5976 0.8237
C18 C 0.28974(19) 0.53406(18) 0.72339(17)
H10 H 0.3592 0.5360 0.7165
C19 C 0.23189(19) 0.49425(16) 0.66971(15)
H11 H 0.2611 0.4686 0.6263
C20 C 0.1307(2) 0.49244(16) 0.68048(16)
H12 H 0.0902 0.4651 0.6442
C21 C 0.08813(19) 0.52985(15) 0.74315(16)
H13 H 0.0186 0.5283 0.7494
C22 C 0.25968(17) 0.84234(14) 1.11489(15)
H14 H 0.2638 0.8422 1.1716
H15 H 0.1908 0.8491 1.0990
H16 H 0.2992 0.8865 1.0943
H17 H 0.4390(14) 0.7935(11) 1.0964(15)
H18 H 0.2090(9) 0.6092(13) 0.9308(14)
S2 S -0.09874(5) 0.34519(4) 0.00961(4)
O3 O 0.24984(11) 0.24796(9) 0.17686(9)
O4 O -0.02713(12) 0.08734(9) 0.08119(10)
N5 N 0.35661(14) 0.31492(11) 0.09300(11)
N6 N 0.34621(14) 0.35697(11) 0.02458(12)
N7 N 0.04294(14) 0.23573(11) 0.07448(11)
N8 N 0.10040(14) 0.17233(11) 0.10211(12)
C23 C 0.45209(16) 0.30388(13) 0.12491(13)
C24 C 0.46974(18) 0.24164(14) 0.17687(15)
H19 H 0.4177 0.2074 0.1929
C25 C 0.56520(18) 0.23076(15) 0.20470(15)
H20 H 0.5777 0.1892 0.2409
C26 C 0.64183(19) 0.27877(17) 0.18090(16)
H21 H 0.7068 0.2698 0.1995
C27 C 0.62270(18) 0.34085(17) 0.12900(16)
H22 H 0.6751 0.3740 0.1117
C28 C 0.52799(18) 0.35436(15) 0.10266(15)
H23 H 0.5149 0.3983 0.0693
C29 C 0.26401(16) 0.28772(13) 0.11669(13)
C30 C 0.19616(16) 0.31593(12) 0.05886(13)
C31 C 0.25075(16) 0.35685(13) 0.00345(14)
C32 C 0.22506(18) 0.39519(15) -0.07270(14)
H24 H 0.2275 0.4535 -0.0673
H25 H 0.1585 0.3789 -0.0882
H26 H 0.2724 0.3782 -0.1123
C33 C 0.08897(16) 0.30131(13) 0.05762(13)
C34 C 0.02208(17) 0.36645(14) 0.03500(14)
C35 C 0.04202(17) 0.45161(14) 0.03426(14)
H27 H 0.1023 0.4764 0.0488
C36 C -0.04525(18) 0.49200(14) 0.00765(16)
H28 H -0.0479 0.5483 0.0006
C37 C -0.12364(18) 0.44355(15) -0.00669(17)
H29 H -0.1859 0.4626 -0.0240
C38 C 0.05203(17) 0.10249(13) 0.11298(14)
C39 C 0.09756(17) 0.04402(13) 0.16751(14)
C40 C 0.19398(18) 0.04933(14) 0.19578(15)
H30 H 0.2371 0.0898 0.1772
C41 C 0.22648(19) -0.00513(16) 0.25131(16)
H31 H 0.2924 -0.0025 0.2699
C42 C 0.1631(2) -0.06279(15) 0.27940(15)
H32 H 0.1849 -0.0985 0.3186
C43 C 0.06866(19) -0.06888(15) 0.25105(16)
H33 H 0.0257 -0.1090 0.2705
C44 C 0.03588(19) -0.01664(14) 0.19422(15)
H34 H -0.0286 -0.0222 0.1735
H35 H 0.3952(14) 0.3734(15) -0.0057(13)
H36 H 0.1528(13) 0.1844(15) 0.1327(13)
loop_
_geom_bond_atom_site_label_1
_geom_bond_atom_site_label_2
_geom_bond_site_symmetry_1
_geom_bond_site_symmetry_2
S1 C11 1_555 1_555
O1 C7 1_555 1_555
O2 C15 1_555 1_555
N1 N2 1_555 1_555
N2 C9 1_555 1_555
N3 N4 1_555 1_555
N4 C15 1_555 1_555
C1 N1 1_555 1_555
C2 C1 1_555 1_555
H1 C2 1_555 1_555
C3 C2 1_555 1_555
H2 C3 1_555 1_555
C4 C3 1_555 1_555
H3 C4 1_555 1_555
C5 C4 1_555 1_555
H4 C5 1_555 1_555
C6 C1 1_555 1_555
H5 C6 1_555 1_555
C7 N1 1_555 1_555
C8 C7 1_555 1_555
C9 C8 1_555 1_555
C10 N3 1_555 1_555
C11 C10 1_555 1_555
C12 C11 1_555 1_555
H6 C12 1_555 1_555
C13 C12 1_555 1_555
H7 C13 1_555 1_555
C14 S1 1_555 1_555
H8 C14 1_555 1_555
C15 C16 1_555 1_555
C16 C17 1_555 1_555
C17 H9 1_555 1_555
C18 C17 1_555 1_555
H10 C18 1_555 1_555
C19 C18 1_555 1_555
H11 C19 1_555 1_555
C20 C19 1_555 1_555
H12 C20 1_555 1_555
C21 C16 1_555 1_555
H13 C21 1_555 1_555
C22 C9 1_555 1_555
H14 C22 1_555 1_555
H15 C22 1_555 1_555
H16 C22 1_555 1_555
H17 N2 1_555 1_555
H18 N4 1_555 1_555
S2 C34 1_555 1_555
O3 C29 1_555 1_555
O4 C38 1_555 1_555
N5 N6 1_555 1_555
N6 C31 1_555 1_555
N7 N8 1_555 1_555
N8 C38 1_555 1_555
C23 N5 1_555 1_555
C24 C23 1_555 1_555
H19 C24 1_555 1_555
C25 C24 1_555 1_555
H20 C25 1_555 1_555
C26 C25 1_555 1_555
H21 C26 1_555 1_555
C27 C26 1_555 1_555
H22 C27 1_555 1_555
C28 C23 1_555 1_555
H23 C28 1_555 1_555
C29 N5 1_555 1_555
C30 C29 1_555 1_555
C31 C30 1_555 1_555
C32 C31 1_555 1_555
H24 C32 1_555 1_555
H25 C32 1_555 1_555
H26 C32 1_555 1_555
C33 N7 1_555 1_555
C34 C33 1_555 1_555
C35 C34 1_555 1_555
H27 C35 1_555 1_555
C36 C35 1_555 1_555
H28 C36 1_555 1_555
C37 S2 1_555 1_555
H29 C37 1_555 1_555
C38 C39 1_555 1_555
C39 C40 1_555 1_555
C40 H30 1_555 1_555
C41 C40 1_555 1_555
H31 C41 1_555 1_555
C42 C41 1_555 1_555
H32 C42 1_555 1_555
C43 C42 1_555 1_555
H33 C43 1_555 1_555
C44 C39 1_555 1_555
H34 C44 1_555 1_555
H35 N6 1_555 1_555
H36 N8 1_555 1_555
C5 C6 1_555 1_555
C8 C10 1_555 1_555
C13 C14 1_555 1_555
C20 C21 1_555 1_555
C27 C28 1_555 1_555
C30 C33 1_555 1_555
C36 C37 1_555 1_555
C43 C44 1_555 1_555

#END
