
#######################################################################
#
#                 Cambridge Crystallographic Data Centre
#                                CCDC 
#
#######################################################################
#
# If this CIF has been generated from an entry in the Cambridge 
# Structural Database, then it will include bibliographic, chemical, 
# crystal, experimental, refinement or atomic coordinate data resulting 
# from the CCDC's data processing and validation procedures.
#
#######################################################################

data_ZAPPAJ
_chemical_formula_moiety         'C10 H24 N4 2+,2(C3 H6 O1),2(C24 H20 B1 1-)'
_chemical_name_systematic        
'1,1,2,2-tetrakis(Dimethylamino)ethane-1,2-di-ium bis(tetraphenylborate) acetone solvate'
_symmetry_cell_setting           orthorhombic
_symmetry_space_group_name_H-M   'P c a 21'
_symmetry_Int_Tables_number      29
_space_group_name_Hall           'P 2c -2ac'
loop_
_symmetry_equiv_pos_site_id
_symmetry_equiv_pos_as_xyz
1 x,y,z
2 -x,-y,1/2+z
3 1/2-x,y,1/2+z
4 1/2+x,-y,z
_cell_length_a                   30.0601(9)
_cell_length_b                   9.9321(3)
_cell_length_c                   18.2054(6)
_cell_angle_alpha                90
_cell_angle_beta                 90
_cell_angle_gamma                90
_cell_volume                     5435.4
_exptl_crystal_colour            yellow
_exptl_crystal_description       block
_chemical_melting_point          '483 K'
_cell_formula_units_Z            4
loop_
_atom_site_label
_atom_site_type_symbol
_atom_site_fract_x
_atom_site_fract_y
_atom_site_fract_z
C1 C 0.12707(10) 0.7168(4) 0.37772(19)
C2 C 0.13799(11) 0.7692(3) 0.3027(2)
N1 N 0.14503(9) 0.6019(3) 0.39743(16)
C3 C 0.16208(12) 0.5055(4) 0.3436(2)
H1 H 0.1542 0.5355 0.2940
H2 H 0.1489 0.4168 0.3528
H3 H 0.1945 0.4995 0.3480
C4 C 0.15054(12) 0.5609(4) 0.4744(2)
H4 H 0.1484 0.6403 0.5062
H5 H 0.1797 0.5187 0.4809
H6 H 0.1272 0.4965 0.4876
N2 N 0.10013(9) 0.7912(3) 0.41826(16)
C5 C 0.09189(12) 0.9346(4) 0.4024(2)
H7 H 0.1146 0.9679 0.3682
H8 H 0.0933 0.9864 0.4482
H9 H 0.0624 0.9449 0.3802
C6 C 0.07184(12) 0.7379(4) 0.4777(2)
H10 H 0.0702 0.6396 0.4737
H11 H 0.0419 0.7761 0.4734
H12 H 0.0846 0.7625 0.5253
N3 N 0.10484(9) 0.7788(3) 0.25641(16)
C7 C 0.10512(12) 0.8684(4) 0.1915(2)
H13 H 0.1288 0.9354 0.1969
H14 H 0.0764 0.9143 0.1875
H15 H 0.1104 0.8149 0.1471
C8 C 0.06283(11) 0.7054(4) 0.2677(2)
H16 H 0.0675 0.6329 0.3034
H17 H 0.0529 0.6668 0.2209
H18 H 0.0401 0.7675 0.2863
N4 N 0.18007(9) 0.8008(3) 0.28813(16)
C9 C 0.21206(11) 0.8266(4) 0.3481(2)
H19 H 0.1958 0.8462 0.3935
H20 H 0.2308 0.9039 0.3353
H21 H 0.2308 0.7470 0.3554
C10 C 0.19960(12) 0.7968(4) 0.2144(2)
H22 H 0.1805 0.7436 0.1819
H23 H 0.2292 0.7556 0.2168
H24 H 0.2022 0.8887 0.1952
B1 B 0.24717(12) 0.1824(4) 0.4752(2)
C11 C 0.23805(10) 0.1708(3) 0.38587(19)
C12 C 0.19512(11) 0.1679(3) 0.35475(19)
H25 H 0.1701 0.1690 0.3865
C13 C 0.18807(12) 0.1636(4) 0.2796(2)
H26 H 0.1585 0.1630 0.2610
C14 C 0.22340(13) 0.1601(4) 0.2316(2)
H27 H 0.2186 0.1557 0.1801
C15 C 0.26608(13) 0.1631(4) 0.2598(2)
H28 H 0.2909 0.1616 0.2275
C16 C 0.27273(11) 0.1682(4) 0.3351(2)
H29 H 0.3024 0.1701 0.3529
C17 C 0.29451(10) 0.1072(3) 0.49522(19)
C18 C 0.30372(11) -0.0243(4) 0.4717(2)
H30 H 0.2818 -0.0705 0.4438
C19 C 0.34317(11) -0.0900(4) 0.4872(2)
H31 H 0.3477 -0.1796 0.4705
C20 C 0.37621(11) -0.0253(4) 0.5272(2)
H32 H 0.4036 -0.0690 0.5373
C21 C 0.36841(11) 0.1035(4) 0.5519(2)
H33 H 0.3905 0.1487 0.5799
C22 C 0.32844(11) 0.1680(4) 0.53598(19)
H34 H 0.3240 0.2570 0.5536
C23 C 0.25020(10) 0.3409(3) 0.50010(19)
C24 C 0.26607(10) 0.4427(3) 0.45320(19)
H35 H 0.2737 0.4204 0.4040
C25 C 0.27097(11) 0.5748(4) 0.4767(2)
H36 H 0.2817 0.6410 0.4434
C26 C 0.26053(11) 0.6112(4) 0.5475(2)
H37 H 0.2641 0.7018 0.5631
C27 C 0.24495(11) 0.5157(3) 0.5953(2)
H38 H 0.2374 0.5398 0.6443
C28 C 0.24023(10) 0.3832(3) 0.57183(19)
H39 H 0.2298 0.3182 0.6060
C29 C 0.20597(11) 0.1089(3) 0.52084(18)
C30 C 0.16441(11) 0.1728(4) 0.52823(19)
H40 H 0.1605 0.2590 0.5065
C31 C 0.12900(11) 0.1158(4) 0.56579(19)
H41 H 0.1017 0.1634 0.5698
C32 C 0.13319(12) -0.0089(4) 0.5972(2)
H42 H 0.1089 -0.0492 0.6224
C33 C 0.17346(13) -0.0747(4) 0.5914(2)
H43 H 0.1770 -0.1607 0.6134
C34 C 0.20880(12) -0.0171(4) 0.5539(2)
H44 H 0.2360 -0.0655 0.5507
B2 B 0.00931(12) 0.3446(4) 0.2005(2)
C35 C 0.04912(11) 0.4242(4) 0.15515(18)
C36 C 0.09428(10) 0.4095(3) 0.17347(19)
H45 H 0.1021 0.3535 0.2137
C37 C 0.12799(12) 0.4743(4) 0.1345(2)
H46 H 0.1581 0.4609 0.1484
C38 C 0.11829(12) 0.5568(4) 0.0767(2)
H47 H 0.1414 0.6017 0.0509
C39 C 0.07416(13) 0.5741(5) 0.0562(2)
H48 H 0.0668 0.6310 0.0161
C40 C 0.04072(11) 0.5075(4) 0.0948(2)
H49 H 0.0108 0.5193 0.0793
C41 C -0.03901(10) 0.4195(3) 0.18651(18)
C42 C -0.04449(11) 0.5592(4) 0.19129(19)
H50 H -0.0191 0.6126 0.2020
C43 C -0.08479(11) 0.6238(4) 0.18133(19)
H51 H -0.0865 0.7188 0.1867
C44 C -0.12205(12) 0.5531(4) 0.1640(2)
H52 H -0.1499 0.5971 0.1580
C45 C -0.11844(12) 0.4168(4) 0.1554(2)
H53 H -0.1437 0.3661 0.1409
C46 C -0.07803(11) 0.3514(4) 0.1677(2)
H54 H -0.0770 0.2561 0.1630
C47 C 0.00597(10) 0.1890(4) 0.17045(19)
C48 C -0.00876(11) 0.0813(4) 0.2141(2)
H55 H -0.0142 0.0971 0.2648
C49 C -0.01574(11) -0.0472(4) 0.1867(2)
H56 H -0.0259 -0.1164 0.2185
C50 C -0.00809(11) -0.0752(4) 0.1140(2)
H57 H -0.0128 -0.1633 0.0953
C51 C 0.00657(11) 0.0272(4) 0.0681(2)
H58 H 0.0118 0.0099 0.0176
C52 C 0.01353(11) 0.1557(4) 0.0967(2)
H59 H 0.0239 0.2242 0.0645
C53 C 0.02121(10) 0.3463(3) 0.28940(19)
C54 C 0.00099(10) 0.4337(4) 0.33938(19)
H60 H -0.0218 0.4919 0.3220
C55 C 0.01254(11) 0.4395(4) 0.41325(19)
H61 H -0.0023 0.5007 0.4450
C56 C 0.04521(12) 0.3573(4) 0.4405(2)
H62 H 0.0535 0.3617 0.4908
C57 C 0.06587(11) 0.2681(4) 0.3933(2)
H63 H 0.0886 0.2104 0.4113
C58 C 0.05373(11) 0.2622(4) 0.3203(2)
H64 H 0.0680 0.1982 0.2896
O1 O 0.29178(12) 0.6328(4) 0.2820(2)
C59 C 0.32840(16) 0.6770(6) 0.3005(3)
C60 C 0.36004(18) 0.5888(8) 0.3382(3)
H65 H 0.3681 0.6285 0.3857
H66 H 0.3868 0.5784 0.3080
H67 H 0.3464 0.5004 0.3462
C61 C 0.3405(2) 0.8204(6) 0.2871(3)
H68 H 0.3174 0.8631 0.2570
H69 H 0.3690 0.8246 0.2613
H70 H 0.3429 0.8678 0.3341
O2 O 0.47849(12) 0.1730(5) 0.3833(2)
C62 C 0.43772(18) 0.1911(7) 0.3802(3)
C63 C 0.40778(16) 0.0963(7) 0.3460(3)
H71 H 0.3938 0.1382 0.3030
H72 H 0.3847 0.0699 0.3812
H73 H 0.4245 0.0164 0.3305
C64 C 0.4158(2) 0.3130(7) 0.4088(4)
H74 H 0.4359 0.3594 0.4428
H75 H 0.3885 0.2875 0.4348
H76 H 0.4083 0.3731 0.3679
loop_
_geom_bond_atom_site_label_1
_geom_bond_atom_site_label_2
_geom_bond_site_symmetry_1
_geom_bond_site_symmetry_2
C1 C2 1_555 1_555
C2 N3 1_555 1_555
N1 C1 1_555 1_555
C3 N1 1_555 1_555
H1 C3 1_555 1_555
H2 C3 1_555 1_555
H3 C3 1_555 1_555
C4 N1 1_555 1_555
H4 C4 1_555 1_555
H5 C4 1_555 1_555
H6 C4 1_555 1_555
N2 C1 1_555 1_555
C5 N2 1_555 1_555
H7 C5 1_555 1_555
H8 C5 1_555 1_555
H9 C5 1_555 1_555
C6 N2 1_555 1_555
H10 C6 1_555 1_555
H11 C6 1_555 1_555
H12 C6 1_555 1_555
N3 C7 1_555 1_555
C7 H13 1_555 1_555
H14 C7 1_555 1_555
H15 C7 1_555 1_555
C8 N3 1_555 1_555
H16 C8 1_555 1_555
H17 C8 1_555 1_555
H18 C8 1_555 1_555
N4 C2 1_555 1_555
C9 N4 1_555 1_555
H19 C9 1_555 1_555
H20 C9 1_555 1_555
H21 C9 1_555 1_555
C10 N4 1_555 1_555
H22 C10 1_555 1_555
H23 C10 1_555 1_555
H24 C10 1_555 1_555
B1 C11 1_555 1_555
C11 C12 1_555 1_555
C12 H25 1_555 1_555
C13 C12 1_555 1_555
H26 C13 1_555 1_555
C14 C13 1_555 1_555
H27 C14 1_555 1_555
C15 C14 1_555 1_555
H28 C15 1_555 1_555
C16 C11 1_555 1_555
H29 C16 1_555 1_555
C17 B1 1_555 1_555
C18 C17 1_555 1_555
H30 C18 1_555 1_555
C19 C18 1_555 1_555
H31 C19 1_555 1_555
C20 C19 1_555 1_555
H32 C20 1_555 1_555
C21 C20 1_555 1_555
H33 C21 1_555 1_555
C22 C17 1_555 1_555
H34 C22 1_555 1_555
C23 B1 1_555 1_555
C24 C23 1_555 1_555
H35 C24 1_555 1_555
C25 C24 1_555 1_555
H36 C25 1_555 1_555
C26 C25 1_555 1_555
H37 C26 1_555 1_555
C27 C26 1_555 1_555
H38 C27 1_555 1_555
C28 C23 1_555 1_555
H39 C28 1_555 1_555
C29 B1 1_555 1_555
C30 C29 1_555 1_555
H40 C30 1_555 1_555
C31 C30 1_555 1_555
H41 C31 1_555 1_555
C32 C31 1_555 1_555
H42 C32 1_555 1_555
C33 C32 1_555 1_555
H43 C33 1_555 1_555
C34 C29 1_555 1_555
H44 C34 1_555 1_555
B2 C35 1_555 1_555
C35 C36 1_555 1_555
C36 H45 1_555 1_555
C37 C36 1_555 1_555
H46 C37 1_555 1_555
C38 C37 1_555 1_555
H47 C38 1_555 1_555
C39 C38 1_555 1_555
H48 C39 1_555 1_555
C40 C35 1_555 1_555
H49 C40 1_555 1_555
C41 B2 1_555 1_555
C42 C41 1_555 1_555
H50 C42 1_555 1_555
C43 C42 1_555 1_555
H51 C43 1_555 1_555
C44 C43 1_555 1_555
H52 C44 1_555 1_555
C45 C44 1_555 1_555
H53 C45 1_555 1_555
C46 C41 1_555 1_555
H54 C46 1_555 1_555
C47 B2 1_555 1_555
C48 C47 1_555 1_555
H55 C48 1_555 1_555
C49 C48 1_555 1_555
H56 C49 1_555 1_555
C50 C49 1_555 1_555
H57 C50 1_555 1_555
C51 C50 1_555 1_555
H58 C51 1_555 1_555
C52 C47 1_555 1_555
H59 C52 1_555 1_555
C53 B2 1_555 1_555
C54 C53 1_555 1_555
H60 C54 1_555 1_555
C55 C54 1_555 1_555
H61 C55 1_555 1_555
C56 C55 1_555 1_555
H62 C56 1_555 1_555
C57 C56 1_555 1_555
H63 C57 1_555 1_555
C58 C53 1_555 1_555
H64 C58 1_555 1_555
O1 C59 1_555 1_555
C59 C60 1_555 1_555
C60 H65 1_555 1_555
H66 C60 1_555 1_555
H67 C60 1_555 1_555
C61 C59 1_555 1_555
H68 C61 1_555 1_555
H69 C61 1_555 1_555
H70 C61 1_555 1_555
O2 C62 1_555 1_555
C62 C63 1_555 1_555
C63 H71 1_555 1_555
H72 C63 1_555 1_555
H73 C63 1_555 1_555
C64 C62 1_555 1_555
H74 C64 1_555 1_555
H75 C64 1_555 1_555
H76 C64 1_555 1_555
C15 C16 1_555 1_555
C21 C22 1_555 1_555
C27 C28 1_555 1_555
C33 C34 1_555 1_555
C39 C40 1_555 1_555
C45 C46 1_555 1_555
C51 C52 1_555 1_555
C57 C58 1_555 1_555

#END
