
#######################################################################
#
#                 Cambridge Crystallographic Data Centre
#                                CCDC 
#
#######################################################################
#
# If this CIF has been generated from an entry in the Cambridge 
# Structural Database, then it will include bibliographic, chemical, 
# crystal, experimental, refinement or atomic coordinate data resulting 
# from the CCDC's data processing and validation procedures.
#
#######################################################################

data_ZAPQAL
_chemical_formula_moiety         'C16 H16 O2'
_chemical_name_systematic        
1-methyl-3-(4-methylphenyl)-6,7-dihydro-2-benzofuran-4(5H)-one
_symmetry_cell_setting           triclinic
_symmetry_space_group_name_H-M   'P -1'
_symmetry_Int_Tables_number      2
_space_group_name_Hall           '-P 1'
loop_
_symmetry_equiv_pos_site_id
_symmetry_equiv_pos_as_xyz
1 x,y,z
2 -x,-y,-z
_cell_length_a                   7.5822(4)
_cell_length_b                   8.8509(5)
_cell_length_c                   10.0505(6)
_cell_angle_alpha                93.807(5)
_cell_angle_beta                 110.400(5)
_cell_angle_gamma                92.911(5)
_cell_volume                     628.811
_exptl_crystal_colour            colorless
_exptl_crystal_description       block
_cell_formula_units_Z            2
loop_
_atom_site_label
_atom_site_type_symbol
_atom_site_fract_x
_atom_site_fract_y
_atom_site_fract_z
O1 O 0.7366(2) 0.17497(14) 0.59993(13)
O2 O 0.64415(15) 0.56841(12) 0.34613(11)
C1 C 0.7785(3) 0.8256(2) 0.4409(2)
H1 H 0.8609 0.8358 0.3875
H2 H 0.8330 0.8847 0.5312
H3 H 0.6584 0.8612 0.3887
C2 C 0.7525(2) 0.66380(18) 0.46439(18)
C3 C 0.8129(2) 0.58301(17) 0.57854(17)
C4 C 0.9373(2) 0.6359(2) 0.72863(18)
H4 H 0.8640 0.6870 0.7774
H5 H 1.0377 0.7077 0.7275
C5 C 1.0223(3) 0.5005(2) 0.80807(18)
H6 H 1.1196 0.4655 0.7741
H7 H 1.0810 0.5325 0.9090
C6 C 0.8738(3) 0.3706(2) 0.78702(18)
H8 H 0.7791 0.4051 0.8241
H9 H 0.9327 0.2885 0.8412
C7 C 0.7778(2) 0.31076(19) 0.63170(17)
C8 C 0.7393(2) 0.42788(17) 0.53094(16)
C9 C 0.6385(2) 0.42358(17) 0.38708(16)
C10 C 0.5320(2) 0.30985(17) 0.27060(15)
C11 C 0.4738(2) 0.16477(18) 0.29377(17)
H10 H 0.5079 0.1363 0.3863
C12 C 0.3662(2) 0.06299(18) 0.18050(17)
H11 H 0.3277 -0.0324 0.1988
C13 C 0.3139(2) 0.09922(18) 0.04031(17)
C14 C 0.1973(2) -0.0134(2) -0.08149(18)
H12 H 0.2766 -0.0554 -0.1286
H13 H 0.0995 0.0369 -0.1480
H14 H 0.1414 -0.0934 -0.0456
C15 C 0.3743(2) 0.24308(19) 0.01730(17)
H15 H 0.3428 0.2701 -0.0755
C16 C 0.4800(2) 0.34655(18) 0.12939(17)
H16 H 0.5173 0.4421 0.1107
loop_
_geom_bond_atom_site_label_1
_geom_bond_atom_site_label_2
_geom_bond_site_symmetry_1
_geom_bond_site_symmetry_2
O1 C7 1_555 1_555
O2 C2 1_555 1_555
C1 H1 1_555 1_555
H2 C1 1_555 1_555
H3 C1 1_555 1_555
C2 C1 1_555 1_555
C3 C2 1_555 1_555
C4 C3 1_555 1_555
H4 C4 1_555 1_555
H5 C4 1_555 1_555
C5 C4 1_555 1_555
H6 C5 1_555 1_555
H7 C5 1_555 1_555
C6 C5 1_555 1_555
H8 C6 1_555 1_555
H9 C6 1_555 1_555
C7 C6 1_555 1_555
C8 C3 1_555 1_555
C9 O2 1_555 1_555
C10 C9 1_555 1_555
C11 C10 1_555 1_555
H10 C11 1_555 1_555
C12 C11 1_555 1_555
H11 C12 1_555 1_555
C13 C12 1_555 1_555
C14 C13 1_555 1_555
H12 C14 1_555 1_555
H13 C14 1_555 1_555
H14 C14 1_555 1_555
C15 C13 1_555 1_555
H15 C15 1_555 1_555
C16 C10 1_555 1_555
H16 C16 1_555 1_555
C7 C8 1_555 1_555
C8 C9 1_555 1_555
C15 C16 1_555 1_555

#END
