
#######################################################################
#
#                 Cambridge Crystallographic Data Centre
#                                CCDC 
#
#######################################################################
#
# If this CIF has been generated from an entry in the Cambridge 
# Structural Database, then it will include bibliographic, chemical, 
# crystal, experimental, refinement or atomic coordinate data resulting 
# from the CCDC's data processing and validation procedures.
#
#######################################################################

data_ZAPRIU
_chemical_formula_moiety         'C23 H16 O2'
_chemical_name_systematic        
3-methyl-1-(2-naphthyl)naphtho[2,3-c]furan-4(9H)-one
_symmetry_cell_setting           monoclinic
_symmetry_space_group_name_H-M   'P 21/n'
_symmetry_Int_Tables_number      14
_space_group_name_Hall           '-P 2yn'
loop_
_symmetry_equiv_pos_site_id
_symmetry_equiv_pos_as_xyz
1 x,y,z
2 1/2-x,1/2+y,1/2-z
3 -x,-y,-z
4 1/2+x,1/2-y,1/2+z
_cell_length_a                   5.58064(8)
_cell_length_b                   21.6340(3)
_cell_length_c                   13.33275(19)
_cell_angle_alpha                90
_cell_angle_beta                 101.8686(14)
_cell_angle_gamma                90
_cell_volume                     1575.27
_exptl_crystal_colour            yellow
_exptl_crystal_description       block
_cell_formula_units_Z            4
loop_
_atom_site_label
_atom_site_type_symbol
_atom_site_fract_x
_atom_site_fract_y
_atom_site_fract_z
O1 O -0.04403(15) 0.57348(4) 0.63755(6)
O2 O 0.46558(18) 0.66509(5) 0.87690(6)
C1 C -0.1518(2) 0.60337(6) 0.08701(9)
H1 H -0.0917 0.6176 0.0311
C2 C -0.0244(2) 0.61489(6) 0.18427(9)
H2 H 0.1218 0.6369 0.1939
C3 C -0.1129(2) 0.59368(5) 0.27053(9)
C4 C -0.3348(2) 0.55948(5) 0.25445(9)
C5 C -0.4623(2) 0.54846(6) 0.15234(9)
H3 H -0.6080 0.5262 0.1408
C6 C -0.3732(2) 0.57013(6) 0.07085(9)
H4 H -0.4593 0.5629 0.0044
C7 C -0.4194(2) 0.53799(6) 0.34126(10)
H5 H -0.5633 0.5151 0.3321
C8 C -0.2934(2) 0.55038(6) 0.43823(9)
H6 H -0.3526 0.5356 0.4940
C9 C -0.0733(2) 0.58548(5) 0.45557(9)
C10 C 0.0130(2) 0.60625(5) 0.37178(9)
H7 H 0.1572 0.6291 0.3821
C11 C 0.0543(2) 0.59977(5) 0.55962(9)
C12 C 0.2479(2) 0.63591(5) 0.60229(8)
C13 C 0.2700(2) 0.63192(5) 0.71092(9)
C14 C 0.0890(2) 0.59365(5) 0.72848(9)
C15 C 0.0119(2) 0.57192(6) 0.82232(9)
H8 H -0.1587 0.5809 0.8173
H9 H 0.1065 0.5926 0.8810
H10 H 0.0378 0.5281 0.8295
C16 C 0.4067(2) 0.67732(6) 0.55458(9)
H11 H 0.3050 0.7085 0.5143
H12 H 0.4822 0.6532 0.5082
C17 C 0.6057(2) 0.70912(5) 0.63140(9)
C18 C 0.7767(2) 0.74513(5) 0.59481(10)
H13 H 0.7645 0.7492 0.5245
C19 C 0.9643(2) 0.77480(6) 0.66145(11)
H14 H 1.0763 0.7987 0.6356
C20 C 0.9863(2) 0.76907(6) 0.76661(11)
H15 H 1.1132 0.7888 0.8113
C21 C 0.8188(2) 0.73404(6) 0.80412(10)
H16 H 0.8333 0.7302 0.8746
C22 C 0.6265(2) 0.70396(5) 0.73778(9)
C23 C 0.4527(2) 0.66646(5) 0.78394(9)
loop_
_geom_bond_atom_site_label_1
_geom_bond_atom_site_label_2
_geom_bond_site_symmetry_1
_geom_bond_site_symmetry_2
O1 C11 1_555 1_555
O2 C23 1_555 1_555
C1 H1 1_555 1_555
C2 C1 1_555 1_555
H2 C2 1_555 1_555
C3 C2 1_555 1_555
C4 C3 1_555 1_555
C5 C4 1_555 1_555
H3 C5 1_555 1_555
C6 C1 1_555 1_555
H4 C6 1_555 1_555
C7 C4 1_555 1_555
H5 C7 1_555 1_555
C8 C7 1_555 1_555
H6 C8 1_555 1_555
C9 C8 1_555 1_555
C10 C3 1_555 1_555
H7 C10 1_555 1_555
C11 C9 1_555 1_555
C12 C11 1_555 1_555
C13 C12 1_555 1_555
C14 O1 1_555 1_555
C15 C14 1_555 1_555
H8 C15 1_555 1_555
H9 C15 1_555 1_555
H10 C15 1_555 1_555
C16 C12 1_555 1_555
H11 C16 1_555 1_555
H12 C16 1_555 1_555
C17 C16 1_555 1_555
C18 C17 1_555 1_555
H13 C18 1_555 1_555
C19 C18 1_555 1_555
H14 C19 1_555 1_555
C20 C19 1_555 1_555
H15 C20 1_555 1_555
C21 C20 1_555 1_555
H16 C21 1_555 1_555
C22 C17 1_555 1_555
C23 C13 1_555 1_555
C5 C6 1_555 1_555
C9 C10 1_555 1_555
C13 C14 1_555 1_555
C21 C22 1_555 1_555
C22 C23 1_555 1_555

#END
