
#######################################################################
#
#                 Cambridge Crystallographic Data Centre
#                                CCDC 
#
#######################################################################
#
# If this CIF has been generated from an entry in the Cambridge 
# Structural Database, then it will include bibliographic, chemical, 
# crystal, experimental, refinement or atomic coordinate data resulting 
# from the CCDC's data processing and validation procedures.
#
#######################################################################

data_ZAPTOB
_chemical_formula_moiety         'C17 H16 N4 O6'
_chemical_name_systematic        
4,4'-Dinitro-2,2'-[propane-1,3-diylbis(iminiumylmethanylylidene)]diphenolate
_symmetry_cell_setting           orthorhombic
_symmetry_space_group_name_H-M   'P b c a'
_symmetry_Int_Tables_number      61
_space_group_name_Hall           '-P 2ac 2ab'
loop_
_symmetry_equiv_pos_site_id
_symmetry_equiv_pos_as_xyz
1 x,y,z
2 1/2-x,-y,1/2+z
3 -x,1/2+y,1/2-z
4 1/2+x,1/2-y,-z
5 -x,-y,-z
6 1/2+x,y,1/2-z
7 x,1/2-y,1/2+z
8 1/2-x,1/2+y,z
_cell_length_a                   11.5698(5)
_cell_length_b                   13.0393(6)
_cell_length_c                   22.0393(10)
_cell_angle_alpha                90
_cell_angle_beta                 90
_cell_angle_gamma                90
_cell_volume                     3324.89
_exptl_crystal_colour            yellow
_exptl_crystal_description       block
_cell_formula_units_Z            8
loop_
_atom_site_label
_atom_site_type_symbol
_atom_site_fract_x
_atom_site_fract_y
_atom_site_fract_z
O1 O 0.18305(12) 0.22185(11) 0.21082(6)
O2 O 0.63010(14) 0.28176(13) 0.05617(7)
O3 O 0.50263(15) 0.25797(13) -0.01460(7)
O4 O 0.62220(12) -0.00556(11) 0.48734(6)
O5 O 0.96696(14) -0.02327(15) 0.27155(8)
O6 O 1.08562(13) -0.02659(13) 0.34711(8)
N1 N 0.52991(16) 0.26527(13) 0.03929(9)
N2 N 0.34001(16) 0.22765(13) 0.29410(8)
H1 H 0.491(2) 0.0128(18) 0.4342(13)
N3 N 0.48198(14) 0.01663(13) 0.39362(9)
H2 H 0.266(3) 0.2203(19) 0.2781(13)
N4 N 0.98619(16) -0.02418(14) 0.32658(9)
C1 C 0.26324(17) 0.23326(14) 0.17156(9)
C2 C 0.23969(18) 0.23465(14) 0.10807(9)
H3 H 0.1619 0.2290 0.0947
C3 C 0.32499(18) 0.24381(14) 0.06613(9)
H4 H 0.3065 0.2433 0.0241
C4 C 0.44063(18) 0.25404(14) 0.08474(9)
C5 C 0.46937(17) 0.25358(14) 0.14490(9)
H5 H 0.5479 0.2608 0.1567
C6 C 0.38325(17) 0.24253(14) 0.18915(9)
C7 C 0.41546(18) 0.23887(14) 0.25139(9)
H6 H 0.4948 0.2449 0.2619
C8 C 0.36602(19) 0.22306(16) 0.35868(9)
H7 H 0.3365 0.2858 0.3787
H8 H 0.4508 0.2208 0.3644
C9 C 0.31172(18) 0.12934(15) 0.38808(9)
H9 H 0.2285 0.1280 0.3777
H10 H 0.3179 0.1364 0.4327
C10 C 0.36533(17) 0.02741(15) 0.36953(9)
H11 H 0.3166 -0.0295 0.3847
H12 H 0.3678 0.0229 0.3247
C11 C 0.57442(17) 0.00744(14) 0.36110(9)
H13 H 0.5665 0.0098 0.3182
C12 C 0.68702(17) -0.00597(14) 0.38544(8)
C13 C 0.70501(18) -0.01066(14) 0.45046(9)
C14 C 0.82265(18) -0.02299(16) 0.47050(9)
H14 H 0.8382 -0.0277 0.5127
C15 C 0.91170(18) -0.02810(16) 0.43079(9)
H15 H 0.9885 -0.0358 0.4453
C16 C 0.89073(17) -0.02195(15) 0.36768(9)
C17 C 0.78028(17) -0.01169(14) 0.34546(9)
H16 H 0.7675 -0.0085 0.3029
loop_
_geom_bond_atom_site_label_1
_geom_bond_atom_site_label_2
_geom_bond_site_symmetry_1
_geom_bond_site_symmetry_2
O1 C1 1_555 1_555
O2 N1 1_555 1_555
O3 N1 1_555 1_555
O4 C13 1_555 1_555
O5 N4 1_555 1_555
O6 N4 1_555 1_555
N1 C4 1_555 1_555
N2 H2 1_555 1_555
H1 N3 1_555 1_555
N3 C10 1_555 1_555
N4 C16 1_555 1_555
C1 C2 1_555 1_555
C2 H3 1_555 1_555
C3 C2 1_555 1_555
H4 C3 1_555 1_555
C4 C3 1_555 1_555
C5 C4 1_555 1_555
H5 C5 1_555 1_555
C6 C1 1_555 1_555
C7 N2 1_555 1_555
H6 C7 1_555 1_555
C8 N2 1_555 1_555
H7 C8 1_555 1_555
H8 C8 1_555 1_555
C9 C8 1_555 1_555
H9 C9 1_555 1_555
H10 C9 1_555 1_555
C10 C9 1_555 1_555
H11 C10 1_555 1_555
H12 C10 1_555 1_555
C11 N3 1_555 1_555
H13 C11 1_555 1_555
C12 C11 1_555 1_555
C13 C12 1_555 1_555
C14 C13 1_555 1_555
H14 C14 1_555 1_555
C15 C14 1_555 1_555
H15 C15 1_555 1_555
C16 C15 1_555 1_555
C17 C12 1_555 1_555
H16 C17 1_555 1_555
C5 C6 1_555 1_555
C6 C7 1_555 1_555
C16 C17 1_555 1_555

#END
