
#######################################################################
#
#                 Cambridge Crystallographic Data Centre
#                                CCDC 
#
#######################################################################
#
# If this CIF has been generated from an entry in the Cambridge 
# Structural Database, then it will include bibliographic, chemical, 
# crystal, experimental, refinement or atomic coordinate data resulting 
# from the CCDC's data processing and validation procedures.
#
#######################################################################

data_ZAPWAQ
_chemical_formula_moiety         'C14 H15 Br1 N2 O2'
_chemical_name_systematic        
5-Bromo-N-(3,4-dimethoxybenzyl)pyridin-2-amine
_symmetry_cell_setting           monoclinic
_symmetry_space_group_name_H-M   'P 21/c'
_symmetry_Int_Tables_number      14
_space_group_name_Hall           '-P 2ybc'
loop_
_symmetry_equiv_pos_site_id
_symmetry_equiv_pos_as_xyz
1 x,y,z
2 -x,1/2+y,1/2-z
3 -x,-y,-z
4 x,1/2-y,1/2+z
_cell_length_a                   6.3202(2)
_cell_length_b                   13.7940(4)
_cell_length_c                   15.8582(6)
_cell_angle_alpha                90
_cell_angle_beta                 100.961(4)
_cell_angle_gamma                90
_cell_volume                     1357.31
_exptl_crystal_colour            colorless
_exptl_crystal_description       block
_cell_formula_units_Z            4
loop_
_atom_site_label
_atom_site_type_symbol
_atom_site_fract_x
_atom_site_fract_y
_atom_site_fract_z
Br1 Br 0.29705(4) 0.620125(18) 0.137802(17)
O1 O 0.8391(3) 1.38453(12) 0.14221(11)
O2 O 1.1319(3) 1.40582(12) 0.05188(11)
N1 N 0.4443(3) 0.89466(14) 0.06525(13)
N2 N 0.7225(3) 1.00200(15) 0.10747(13)
H1 H 0.6482 1.0443 0.0722
C1 C 0.4393(4) 0.74052(17) 0.13319(15)
C2 C 0.3514(4) 0.80926(17) 0.07365(16)
H2 H 0.2181 0.7951 0.0368
C3 C 0.6333(4) 0.91502(18) 0.11831(15)
C4 C 0.7300(4) 0.84807(18) 0.18126(16)
H3 H 0.8617 0.8637 0.2186
C5 C 0.6323(4) 0.76009(18) 0.18814(16)
H4 H 0.6958 0.7138 0.2297
C6 C 0.9380(4) 1.02800(18) 0.15245(16)
H5 H 1.0436 0.9803 0.1387
H6 H 0.9432 1.0263 0.2152
C7 C 0.9971(4) 1.12777(17) 0.12650(15)
C8 C 0.8867(4) 1.20894(18) 0.14866(15)
H7 H 0.7767 1.2007 0.1814
C9 C 0.9355(4) 1.30058(17) 0.12366(15)
C10 C 1.0981(4) 1.31318(18) 0.07442(15)
C11 C 1.2084(4) 1.23269(18) 0.05377(16)
H8 H 1.3198 1.2404 0.0217
C12 C 1.1576(4) 1.14027(18) 0.07967(16)
H9 H 1.2342 1.0856 0.0649
C13 C 0.6735(4) 1.37654(19) 0.19176(17)
H10 H 0.5605 1.3329 0.1627
H11 H 0.6116 1.4407 0.1979
H12 H 0.7347 1.3506 0.2487
C14 C 1.2631(4) 1.41893(19) -0.01160(17)
H13 H 1.2102 1.3772 -0.0611
H14 H 1.4126 1.4018 0.0130
H15 H 1.2564 1.4868 -0.0301
loop_
_geom_bond_atom_site_label_1
_geom_bond_atom_site_label_2
_geom_bond_site_symmetry_1
_geom_bond_site_symmetry_2
Br1 C1 1_555 1_555
O1 C9 1_555 1_555
O2 C10 1_555 1_555
N1 C2 1_555 1_555
N2 H1 1_555 1_555
C1 C2 1_555 1_555
C2 H2 1_555 1_555
C3 N1 1_555 1_555
C4 C3 1_555 1_555
H3 C4 1_555 1_555
C5 C1 1_555 1_555
H4 C5 1_555 1_555
C6 N2 1_555 1_555
H5 C6 1_555 1_555
H6 C6 1_555 1_555
C7 C6 1_555 1_555
C8 C7 1_555 1_555
H7 C8 1_555 1_555
C9 C8 1_555 1_555
C10 C9 1_555 1_555
C11 C10 1_555 1_555
H8 C11 1_555 1_555
C12 C7 1_555 1_555
H9 C12 1_555 1_555
C13 O1 1_555 1_555
H10 C13 1_555 1_555
H11 C13 1_555 1_555
H12 C13 1_555 1_555
C14 O2 1_555 1_555
H13 C14 1_555 1_555
H14 C14 1_555 1_555
H15 C14 1_555 1_555
N2 C3 1_555 1_555
C4 C5 1_555 1_555
C11 C12 1_555 1_555

#END
