
#######################################################################
#
#                 Cambridge Crystallographic Data Centre
#                                CCDC 
#
#######################################################################
#
# If this CIF has been generated from an entry in the Cambridge 
# Structural Database, then it will include bibliographic, chemical, 
# crystal, experimental, refinement or atomic coordinate data resulting 
# from the CCDC's data processing and validation procedures.
#
#######################################################################

data_ZAPXUM
_chemical_formula_moiety         'C31 H28 O2'
_chemical_name_systematic        
3,4,5-triphenyl-2-(2-phenylethyl)-3,6-dihydro-2H-pyran-3-ol
_symmetry_cell_setting           orthorhombic
_symmetry_space_group_name_H-M   'P 21 21 21'
_symmetry_Int_Tables_number      19
_space_group_name_Hall           'P 2ac 2ab'
loop_
_symmetry_equiv_pos_site_id
_symmetry_equiv_pos_as_xyz
1 x,y,z
2 1/2-x,-y,1/2+z
3 1/2+x,1/2-y,-z
4 -x,1/2+y,1/2-z
_cell_length_a                   5.83870(10)
_cell_length_b                   15.6232(3)
_cell_length_c                   25.7309(6)
_cell_angle_alpha                90
_cell_angle_beta                 90
_cell_angle_gamma                90
_cell_volume                     2347.15
_exptl_crystal_colour            colorless
_exptl_crystal_description       prism
_cell_formula_units_Z            4
loop_
_atom_site_label
_atom_site_type_symbol
_atom_site_fract_x
_atom_site_fract_y
_atom_site_fract_z
O1 O 0.5667(3) 0.09668(10) 0.37391(6)
H1 H 0.5921 0.1465 0.3821
O2 O 0.3153(3) 0.14765(10) 0.46597(6)
C1 C 0.3293(4) 0.07744(14) 0.38271(9)
C2 C 0.2886(5) 0.06558(14) 0.44156(8)
H2 H 0.1283 0.0451 0.4472
C3 C 0.1270(5) 0.20066(15) 0.45325(9)
H3 H 0.1544 0.2586 0.4675
H4 H -0.0124 0.1776 0.4701
C4 C 0.0850(4) 0.20769(14) 0.39500(9)
C5 C 0.1830(4) 0.15182(13) 0.36213(9)
C6 C 0.1582(4) 0.15452(13) 0.30410(8)
C7 C -0.0395(4) 0.12352(13) 0.28076(9)
H5 H -0.1646 0.1057 0.3018
C8 C -0.0564(5) 0.11821(14) 0.22664(9)
H6 H -0.1917 0.0962 0.2111
C9 C 0.1234(5) 0.14489(14) 0.19593(9)
H7 H 0.1127 0.1408 0.1592
C10 C 0.3196(5) 0.17768(15) 0.21862(9)
H8 H 0.4421 0.1973 0.1974
C11 C 0.3375(5) 0.18200(14) 0.27271(9)
H9 H 0.4732 0.2039 0.2882
C12 C -0.0659(5) 0.27974(14) 0.37970(9)
C13 C -0.2739(5) 0.29232(15) 0.40546(10)
H10 H -0.3167 0.2546 0.4327
C14 C -0.4183(5) 0.35876(15) 0.39195(10)
H11 H -0.5610 0.3653 0.4092
C15 C -0.3551(5) 0.41597(16) 0.35320(10)
H12 H -0.4545 0.4615 0.3437
C16 C -0.1461(5) 0.40598(15) 0.32861(10)
H13 H -0.1001 0.4460 0.3028
C17 C -0.0034(5) 0.33832(14) 0.34118(9)
H14 H 0.1383 0.3317 0.3235
C18 C 0.4525(5) 0.00349(15) 0.46708(8)
H15 H 0.6090 0.0278 0.4662
H16 H 0.4543 -0.0506 0.4471
C19 C 0.3869(5) -0.01575(17) 0.52333(9)
H17 H 0.4059 0.0368 0.5444
H18 H 0.2234 -0.0324 0.5247
C20 C 0.5295(5) -0.08626(15) 0.54664(9)
C21 C 0.4635(6) -0.17115(16) 0.54257(9)
H19 H 0.3237 -0.1851 0.5257
C22 C 0.5986(6) -0.23593(17) 0.56272(11)
H20 H 0.5505 -0.2938 0.5598
C23 C 0.8018(6) -0.2169(2) 0.58694(10)
H21 H 0.8943 -0.2614 0.6008
C24 C 0.8707(6) -0.13286(19) 0.59103(11)
H22 H 1.0120 -0.1193 0.6074
C25 C 0.7346(5) -0.06848(17) 0.57141(10)
H23 H 0.7824 -0.0107 0.5749
C26 C 0.2748(4) -0.00467(14) 0.35370(9)
C27 C 0.4361(5) -0.04122(14) 0.32018(9)
H24 H 0.5824 -0.0155 0.3162
C28 C 0.3824(5) -0.11518(15) 0.29271(10)
H25 H 0.4922 -0.1392 0.2697
C29 C 0.1723(5) -0.15398(15) 0.29834(10)
H26 H 0.1376 -0.2047 0.2796
C30 C 0.0116(5) -0.11827(14) 0.33167(10)
H27 H -0.1336 -0.1448 0.3360
C31 C 0.0631(5) -0.04367(15) 0.35864(9)
H28 H -0.0489 -0.0190 0.3809
loop_
_geom_bond_atom_site_label_1
_geom_bond_atom_site_label_2
_geom_bond_site_symmetry_1
_geom_bond_site_symmetry_2
O1 H1 1_555 1_555
O2 C2 1_555 1_555
C1 O1 1_555 1_555
C2 C1 1_555 1_555
H2 C2 1_555 1_555
C3 O2 1_555 1_555
H3 C3 1_555 1_555
H4 C3 1_555 1_555
C4 C3 1_555 1_555
C5 C1 1_555 1_555
C6 C5 1_555 1_555
C7 C6 1_555 1_555
H5 C7 1_555 1_555
C8 C7 1_555 1_555
H6 C8 1_555 1_555
C9 C8 1_555 1_555
H7 C9 1_555 1_555
C10 C9 1_555 1_555
H8 C10 1_555 1_555
C11 C6 1_555 1_555
H9 C11 1_555 1_555
C12 C4 1_555 1_555
C13 C12 1_555 1_555
H10 C13 1_555 1_555
C14 C13 1_555 1_555
H11 C14 1_555 1_555
C15 C14 1_555 1_555
H12 C15 1_555 1_555
C16 C15 1_555 1_555
H13 C16 1_555 1_555
C17 C12 1_555 1_555
H14 C17 1_555 1_555
C18 C2 1_555 1_555
H15 C18 1_555 1_555
H16 C18 1_555 1_555
C19 C18 1_555 1_555
H17 C19 1_555 1_555
H18 C19 1_555 1_555
C20 C19 1_555 1_555
C21 C20 1_555 1_555
H19 C21 1_555 1_555
C22 C21 1_555 1_555
H20 C22 1_555 1_555
C23 C22 1_555 1_555
H21 C23 1_555 1_555
C24 C23 1_555 1_555
H22 C24 1_555 1_555
C25 C20 1_555 1_555
H23 C25 1_555 1_555
C26 C1 1_555 1_555
C27 C26 1_555 1_555
H24 C27 1_555 1_555
C28 C27 1_555 1_555
H25 C28 1_555 1_555
C29 C28 1_555 1_555
H26 C29 1_555 1_555
C30 C29 1_555 1_555
H27 C30 1_555 1_555
C31 C26 1_555 1_555
H28 C31 1_555 1_555
C4 C5 1_555 1_555
C10 C11 1_555 1_555
C16 C17 1_555 1_555
C24 C25 1_555 1_555
C30 C31 1_555 1_555

#END
