
#######################################################################
#
#                 Cambridge Crystallographic Data Centre
#                                CCDC 
#
#######################################################################
#
# If this CIF has been generated from an entry in the Cambridge 
# Structural Database, then it will include bibliographic, chemical, 
# crystal, experimental, refinement or atomic coordinate data resulting 
# from the CCDC's data processing and validation procedures.
#
#######################################################################

data_ZAPYEW
_chemical_formula_moiety         'C12 H14 O6'
_chemical_name_systematic        
'3-(Ethoxycarbonyl)-2-hydroxy-6-methoxy-4-methylbenzoic acid'
_symmetry_cell_setting           triclinic
_symmetry_space_group_name_H-M   'P -1'
_symmetry_Int_Tables_number      2
_space_group_name_Hall           '-P 1'
loop_
_symmetry_equiv_pos_site_id
_symmetry_equiv_pos_as_xyz
1 x,y,z
2 -x,-y,-z
_cell_length_a                   6.8460(14)
_cell_length_b                   8.0065(16)
_cell_length_c                   11.469(2)
_cell_angle_alpha                97.059(4)
_cell_angle_beta                 95.987(4)
_cell_angle_gamma                98.072(4)
_cell_volume                     612.953
_exptl_crystal_colour            colorless
_exptl_crystal_description       prismatic
_chemical_melting_point          '435-437 K'
_cell_formula_units_Z            2
loop_
_atom_site_label
_atom_site_type_symbol
_atom_site_fract_x
_atom_site_fract_y
_atom_site_fract_z
O1 O 0.1285(4) 0.1888(3) 0.3537(2)
O2 O 0.3292(3) 0.6477(3) 0.66405(18)
O3 O 0.1945(4) 0.1389(3) 0.5664(2)
O4 O 0.2762(4) 0.3453(3) 0.7124(2)
O5 O -0.0464(4) 0.3799(4) 0.1320(2)
O6 O 0.2714(5) 0.3547(4) 0.1310(2)
C1 C 0.1806(4) 0.3544(3) 0.3938(3)
C2 C 0.2325(4) 0.4167(3) 0.5141(2)
C3 C 0.2804(4) 0.5934(4) 0.5465(2)
C4 C 0.2788(4) 0.7035(3) 0.4632(3)
H1 H 0.3110 0.8204 0.4867
C5 C 0.2289(4) 0.6395(4) 0.3439(3)
C6 C 0.1793(4) 0.4666(4) 0.3092(2)
C7 C 0.2327(4) 0.2914(4) 0.5983(3)
C8 C 0.3758(6) 0.8247(4) 0.7062(3)
H2 H 0.4967 0.8708 0.6783
H3 H 0.3928 0.8415 0.7912
H4 H 0.2696 0.8814 0.6777
C9 C 0.2292(6) 0.7624(4) 0.2541(3)
H5 H 0.3583 0.8302 0.2612
H6 H 0.1317 0.8355 0.2682
H7 H 0.1977 0.6999 0.1759
C10 C 0.1172(6) 0.3942(4) 0.1827(3)
C11 C 0.2310(10) 0.2902(7) 0.0054(4)
H8 H 0.1002 0.2215 -0.0116
H9 H 0.2327 0.3847 -0.0402
C12 C 0.376(2) 0.1907(18) -0.0273(7)
H10 H 0.3768 0.0993 0.0196
H11 H 0.5047 0.2605 -0.0141
H12 H 0.3461 0.1445 -0.1096
H13 H 0.144(7) 0.131(5) 0.410(3)
H14 H 0.301(6) 0.457(3) 0.728(4)
C13? C 0.213(4) 0.107(2) -0.0170(14)
H15? H 0.3379 0.3382 -0.0339
H16? H 0.1099 0.3252 -0.0259
H17? H 0.2147 0.0720 -0.0999
H18? H 0.0899 0.0571 0.0065
H19? H 0.3219 0.0709 0.0276
loop_
_geom_bond_atom_site_label_1
_geom_bond_atom_site_label_2
_geom_bond_site_symmetry_1
_geom_bond_site_symmetry_2
O1 C1 1_555 1_555
O2 C3 1_555 1_555
O3 C7 1_555 1_555
O4 C7 1_555 1_555
O5 C10 1_555 1_555
O6 C10 1_555 1_555
C1 C2 1_555 1_555
C2 C3 1_555 1_555
C3 C4 1_555 1_555
C4 H1 1_555 1_555
C5 C4 1_555 1_555
C6 C1 1_555 1_555
C7 C2 1_555 1_555
C8 O2 1_555 1_555
H2 C8 1_555 1_555
H3 C8 1_555 1_555
H4 C8 1_555 1_555
C9 C5 1_555 1_555
H5 C9 1_555 1_555
H6 C9 1_555 1_555
H7 C9 1_555 1_555
C10 C6 1_555 1_555
C11 O6 1_555 1_555
H8 C11 1_555 1_555
H9 C11 1_555 1_555
C12 C11 1_555 1_555
H10 C12 1_555 1_555
H11 C12 1_555 1_555
H12 C12 1_555 1_555
H13 O1 1_555 1_555
H14 O4 1_555 1_555
C5 C6 1_555 1_555

#END
