
#######################################################################
#
#                 Cambridge Crystallographic Data Centre
#                                CCDC 
#
#######################################################################
#
# If this CIF has been generated from an entry in the Cambridge 
# Structural Database, then it will include bibliographic, chemical, 
# crystal, experimental, refinement or atomic coordinate data resulting 
# from the CCDC's data processing and validation procedures.
#
#######################################################################

data_ZAPZUL
_chemical_formula_moiety         'C11 H24 N1 1+,F1 1-'
_chemical_name_systematic        '1,1,3,3,5,5-Hexamethylpiperidinium fluoride'
_symmetry_cell_setting           monoclinic
_symmetry_space_group_name_H-M   'P 21/c'
_symmetry_Int_Tables_number      14
_space_group_name_Hall           '-P 2ybc'
loop_
_symmetry_equiv_pos_site_id
_symmetry_equiv_pos_as_xyz
1 x,y,z
2 -x,1/2+y,1/2-z
3 -x,-y,-z
4 x,1/2-y,1/2+z
_cell_length_a                   10.831(2)
_cell_length_b                   9.799(2)
_cell_length_c                   10.889(1)
_cell_angle_alpha                90
_cell_angle_beta                 95.84(1)
_cell_angle_gamma                90
_cell_volume                     1149.68
_exptl_crystal_colour            colorless
_cell_formula_units_Z            4
loop_
_atom_site_label
_atom_site_type_symbol
_atom_site_fract_x
_atom_site_fract_y
_atom_site_fract_z
F1 F 0.4442(2) -0.2653(2) 0.0393(2)
N1 N 0.3869(2) -0.4385(3) -0.2277(2)
C1 C 0.3827(3) -0.5119(4) -0.3503(3)
C2 C 0.2521(3) -0.5418(3) -0.4177(3)
C3 C 0.1773(3) -0.4085(4) -0.4209(4)
C4 C 0.1755(3) -0.3274(3) -0.3011(3)
C5 C 0.3106(3) -0.3082(3) -0.2407(3)
C6 C 0.5192(3) -0.3916(4) -0.1956(4)
C7 C 0.3567(3) -0.5244(4) -0.1208(4)
C8 C 0.2772(3) -0.5781(4) -0.5492(4)
C9 C 0.1878(3) -0.6645(4) -0.3644(4)
C10 C 0.0888(3) -0.3841(4) -0.2107(4)
C11 C 0.1337(4) -0.1815(4) -0.3341(4)
H1 H 0.4276 -0.4417 -0.4104
H2 H 0.4352 -0.6010 -0.3332
H3 H 0.0913 -0.4257 -0.4612
H4 H 0.2095 -0.3444 -0.4912
H5 H 0.3194 -0.2631 -0.1406
H6 H 0.3613 -0.2457 -0.3050
H7 H 0.5455 -0.3352 -0.2678
H8 H 0.5730 -0.4749 -0.1807
H9 H 0.5177 -0.3368 -0.1052
H10 H 0.2789 -0.5641 -0.1322
H11 H 0.3601 -0.4644 -0.0422
H12 H 0.4123 -0.6024 -0.1061
H13 H 0.2015 -0.6018 -0.6015
H14 H 0.3196 -0.6630 -0.5581
H15 H 0.3106 -0.4988 -0.5956
H16 H 0.1606 -0.6537 -0.2755
H17 H 0.2277 -0.7483 -0.3734
H18 H 0.1121 -0.6810 -0.4219
H19 H 0.0989 -0.4848 -0.1850
H20 H 0.0101 -0.3788 -0.2515
H21 H 0.0915 -0.3271 -0.1267
H22 H 0.0501 -0.1826 -0.3889
H23 H 0.1823 -0.1322 -0.4063
H24 H 0.1304 -0.1260 -0.2588
loop_
_geom_bond_atom_site_label_1
_geom_bond_atom_site_label_2
_geom_bond_site_symmetry_1
_geom_bond_site_symmetry_2
N1 C1 1_555 1_555
C1 C2 1_555 1_555
C2 C3 1_555 1_555
C3 C4 1_555 1_555
C4 C5 1_555 1_555
C5 N1 1_555 1_555
C6 N1 1_555 1_555
C7 N1 1_555 1_555
C8 C2 1_555 1_555
C9 C2 1_555 1_555
C10 C4 1_555 1_555
C11 C4 1_555 1_555
H1 C1 1_555 1_555
H2 C1 1_555 1_555
H3 C3 1_555 1_555
H4 C3 1_555 1_555
H5 C5 1_555 1_555
H6 C5 1_555 1_555
H7 C6 1_555 1_555
H8 C6 1_555 1_555
H9 C6 1_555 1_555
H10 C7 1_555 1_555
H11 C7 1_555 1_555
H12 C7 1_555 1_555
H13 C8 1_555 1_555
H14 C8 1_555 1_555
H15 C8 1_555 1_555
H16 C9 1_555 1_555
H17 C9 1_555 1_555
H18 C9 1_555 1_555
H19 C10 1_555 1_555
H20 C10 1_555 1_555
H21 C10 1_555 1_555
H22 C11 1_555 1_555
H23 C11 1_555 1_555
H24 C11 1_555 1_555

#END
