
#######################################################################
#
#                 Cambridge Crystallographic Data Centre
#                                CCDC 
#
#######################################################################
#
# If this CIF has been generated from an entry in the Cambridge 
# Structural Database, then it will include bibliographic, chemical, 
# crystal, experimental, refinement or atomic coordinate data resulting 
# from the CCDC's data processing and validation procedures.
#
#######################################################################

data_ZAQCUR
_chemical_formula_moiety         'C17 H16 Br1 N1 O2'
_chemical_name_systematic        
(E)-1-(5-Bromo-2-hydroxyphenyl)-3-[4-(dimethylamino)phenyl]prop-2-en-1-one
_symmetry_cell_setting           monoclinic
_symmetry_space_group_name_H-M   'P 21/c'
_symmetry_Int_Tables_number      14
_space_group_name_Hall           '-P 2ybc'
loop_
_symmetry_equiv_pos_site_id
_symmetry_equiv_pos_as_xyz
1 x,y,z
2 -x,1/2+y,1/2-z
3 -x,-y,-z
4 x,1/2-y,1/2+z
_cell_length_a                   15.1905(5)
_cell_length_b                   5.4501(2)
_cell_length_c                   19.7569(9)
_cell_angle_alpha                90
_cell_angle_beta                 106.00(2)
_cell_angle_gamma                90
_cell_volume                     1572.31
_exptl_crystal_colour            red
_exptl_crystal_description       needle
_cell_formula_units_Z            4
loop_
_atom_site_label
_atom_site_type_symbol
_atom_site_fract_x
_atom_site_fract_y
_atom_site_fract_z
Br1 Br 1.08032(7) -0.2556(2) 0.57680(7)
O1 O 0.6988(3) 0.0521(10) 0.6480(2)
C1 C 0.7599(4) 0.0665(12) 0.6153(3)
N1 N 0.5880(3) 1.1541(11) 0.3308(3)
O2 O 0.7796(4) -0.3021(10) 0.7239(3)
H1 H 0.7357 -0.2242 0.7002
C2 C 0.6627(4) 0.6074(12) 0.4911(3)
C3 C 0.6821(4) 0.4141(13) 0.5444(3)
H2 H 0.6394 0.3991 0.5714
C4 C 0.5541(4) 0.9164(12) 0.4255(3)
H3 H 0.4969 0.9979 0.4183
C5 C 0.6124(4) 0.9790(12) 0.3830(3)
C6 C 0.8429(5) -0.2911(12) 0.6878(4)
C7 C 0.6988(4) 0.8490(12) 0.3966(3)
H4 H 0.7404 0.8867 0.3699
C8 C 0.9105(4) -0.1047(14) 0.6015(3)
H5 H 0.9106 0.0160 0.5669
C9 C 0.8391(4) -0.1080(12) 0.6344(3)
C10 C 0.9802(5) -0.2758(13) 0.6193(4)
C11 C 0.5789(5) 0.7398(12) 0.4769(4)
H6 H 0.5380 0.7044 0.5043
C12 C 0.7207(4) 0.6699(12) 0.4483(3)
H7 H 0.7772 0.5849 0.4555
C13 C 0.9150(5) -0.4652(14) 0.7037(4)
H8 H 0.9168 -0.5864 0.7387
C14 C 0.7530(4) 0.2529(11) 0.5605(3)
H9 H 0.7987 0.2610 0.5360
C15 C 0.5060(5) 1.3053(13) 0.3242(4)
H10 H 0.4515 1.2004 0.3123
H11 H 0.5012 1.4277 0.2871
H12 H 0.5105 1.3887 0.3690
C16 C 0.9833(4) -0.4609(14) 0.6688(4)
H13 H 1.0306 -0.5806 0.6784
C17 C 0.6536(6) 1.2333(13) 0.2900(4)
H14 H 0.6841 1.0888 0.2775
H15 H 0.6994 1.3444 0.3190
H16 H 0.6197 1.3183 0.2470
loop_
_geom_bond_atom_site_label_1
_geom_bond_atom_site_label_2
_geom_bond_site_symmetry_1
_geom_bond_site_symmetry_2
Br1 C10 1_555 1_555
O1 C1 1_555 1_555
C1 C9 1_555 1_555
N1 C5 1_555 1_555
O2 H1 1_555 1_555
C2 C3 1_555 1_555
C3 H2 1_555 1_555
C4 H3 1_555 1_555
C5 C4 1_555 1_555
C6 O2 1_555 1_555
C7 C5 1_555 1_555
H4 C7 1_555 1_555
C8 H5 1_555 1_555
C9 C6 1_555 1_555
C10 C8 1_555 1_555
C11 C2 1_555 1_555
H6 C11 1_555 1_555
C12 C2 1_555 1_555
H7 C12 1_555 1_555
C13 C6 1_555 1_555
H8 C13 1_555 1_555
C14 C1 1_555 1_555
H9 C14 1_555 1_555
C15 N1 1_555 1_555
H10 C15 1_555 1_555
H11 C15 1_555 1_555
H12 C15 1_555 1_555
C16 C10 1_555 1_555
H13 C16 1_555 1_555
C17 N1 1_555 1_555
H14 C17 1_555 1_555
H15 C17 1_555 1_555
H16 C17 1_555 1_555
C3 C14 1_555 1_555
C4 C11 1_555 1_555
C7 C12 1_555 1_555
C8 C9 1_555 1_555
C13 C16 1_555 1_555

#END
