
#######################################################################
#
#                 Cambridge Crystallographic Data Centre
#                                CCDC 
#
#######################################################################
#
# If this CIF has been generated from an entry in the Cambridge 
# Structural Database, then it will include bibliographic, chemical, 
# crystal, experimental, refinement or atomic coordinate data resulting 
# from the CCDC's data processing and validation procedures.
#
#######################################################################

data_ZAQCOM
_chemical_formula_moiety         'C6 H14 N1 1+,C6 H5 N1 O3,C6 H4 N1 O3 1-'
_chemical_name_systematic        
'1-methylpiperidinium 4-nitrophenol 4-nitrophenolate'
_symmetry_cell_setting           triclinic
_symmetry_space_group_name_H-M   'P -1'
_symmetry_Int_Tables_number      2
_space_group_name_Hall           '-P 1'
loop_
_symmetry_equiv_pos_site_id
_symmetry_equiv_pos_as_xyz
1 x,y,z
2 -x,-y,-z
_cell_length_a                   6.5076(3)
_cell_length_b                   7.9798(6)
_cell_length_c                   18.3407(14)
_cell_angle_alpha                90.054(6)
_cell_angle_beta                 92.065(5)
_cell_angle_gamma                98.928(5)
_cell_volume                     940.25
_exptl_crystal_colour            yellow
_exptl_crystal_description       RECTANGULAR
_cell_formula_units_Z            2
loop_
_atom_site_label
_atom_site_type_symbol
_atom_site_fract_x
_atom_site_fract_y
_atom_site_fract_z
C1 C -0.0888(3) 1.4300(3) 0.21060(13)
H1 H -0.0386 1.4368 0.1614
H2 H -0.1622 1.3161 0.2178
C2 C 0.0932(3) 1.4647(3) 0.26449(14)
H3 H 0.1744 1.5740 0.2540
H4 H 0.1820 1.3788 0.2591
C3 C 0.0229(4) 1.4650(3) 0.34239(14)
H5 H -0.0403 1.3513 0.3555
H6 H 0.1424 1.4991 0.3752
C4 C -0.1329(4) 1.5859(3) 0.35044(14)
H7 H -0.1853 1.5773 0.3994
H8 H -0.0639 1.7013 0.3437
C5 C -0.3125(3) 1.5475(3) 0.29578(13)
H9 H -0.3885 1.4353 0.3047
H10 H -0.4070 1.6291 0.3012
C6 C -0.4084(4) 1.5286(3) 0.16449(15)
H11 H -0.4993 1.6105 0.1718
H12 H -0.3535 1.5416 0.1166
H13 H -0.4847 1.4164 0.1693
N1 N -0.2347(3) 1.5552(2) 0.21988(10)
H14 H -0.165(3) 1.666(3) 0.2113(13)
C7 C -0.2789(3) 1.0970(3) 0.06933(13)
H15 H -0.4134 1.1040 0.0521
C8 C -0.2475(3) 0.9940(3) 0.12685(12)
H16 H -0.3617 0.9318 0.1486
C9 C -0.0456(3) 0.9806(3) 0.15366(11)
C10 C 0.1224(3) 1.0810(3) 0.12024(12)
H17 H 0.2575 1.0778 0.1379
C11 C 0.0903(3) 1.1832(3) 0.06214(12)
H18 H 0.2027 1.2469 0.0400
C12 C -0.1105(4) 1.1907(3) 0.03683(12)
N2 N -0.1442(4) 1.2956(3) -0.02566(12)
O1 O 0.0075(4) 1.3655(3) -0.05798(11)
O2 O -0.3222(4) 1.3103(3) -0.04374(15)
O3 O -0.0175(2) 0.87889(19) 0.20810(8)
H19 H 0.1067 0.8902 0.2199
C13 C 0.4183(3) 0.9819(3) 0.31006(12)
C14 C 0.6249(3) 0.9915(3) 0.33547(14)
H20 H 0.7170 0.9386 0.3094
C15 C 0.6926(4) 1.0778(3) 0.39839(14)
H21 H 0.8292 1.0811 0.4158
C16 C 0.5574(4) 1.1603(3) 0.43608(13)
C17 C 0.3551(4) 1.1573(3) 0.41134(14)
H22 H 0.2660 1.2150 0.4366
C18 C 0.2856(3) 1.0674(3) 0.34835(13)
H23 H 0.1486 1.0642 0.3315
N3 N 0.6341(5) 1.2538(3) 0.50238(14)
O4 O 0.3566(2) 0.8892(2) 0.25026(9)
O5 O 0.5116(4) 1.3199(3) 0.53744(13)
O6 O 0.8179(4) 1.2614(4) 0.51988(14)
loop_
_geom_bond_atom_site_label_1
_geom_bond_atom_site_label_2
_geom_bond_site_symmetry_1
_geom_bond_site_symmetry_2
C1 H1 1_555 1_555
H2 C1 1_555 1_555
C2 C1 1_555 1_555
H3 C2 1_555 1_555
H4 C2 1_555 1_555
C3 C2 1_555 1_555
H5 C3 1_555 1_555
H6 C3 1_555 1_555
C4 C3 1_555 1_555
H7 C4 1_555 1_555
H8 C4 1_555 1_555
C5 C4 1_555 1_555
H9 C5 1_555 1_555
H10 C5 1_555 1_555
C6 H11 1_555 1_555
H12 C6 1_555 1_555
H13 C6 1_555 1_555
N1 C1 1_555 1_555
H14 N1 1_555 1_555
C7 H15 1_555 1_555
C8 C7 1_555 1_555
H16 C8 1_555 1_555
C9 C8 1_555 1_555
C10 C9 1_555 1_555
H17 C10 1_555 1_555
C11 C10 1_555 1_555
H18 C11 1_555 1_555
C12 C7 1_555 1_555
N2 C12 1_555 1_555
O1 N2 1_555 1_555
O2 N2 1_555 1_555
O3 C9 1_555 1_555
H19 O3 1_555 1_555
C13 C14 1_555 1_555
C14 H20 1_555 1_555
C15 C14 1_555 1_555
H21 C15 1_555 1_555
C16 C15 1_555 1_555
C17 C16 1_555 1_555
H22 C17 1_555 1_555
C18 C13 1_555 1_555
H23 C18 1_555 1_555
N3 C16 1_555 1_555
O4 C13 1_555 1_555
O5 N3 1_555 1_555
O6 N3 1_555 1_555
C5 N1 1_555 1_555
C6 N1 1_555 1_555
C11 C12 1_555 1_555
C17 C18 1_555 1_555

#END
