
#######################################################################
#
#                 Cambridge Crystallographic Data Centre
#                                CCDC 
#
#######################################################################
#
# If this CIF has been generated from an entry in the Cambridge 
# Structural Database, then it will include bibliographic, chemical, 
# crystal, experimental, refinement or atomic coordinate data resulting 
# from the CCDC's data processing and validation procedures.
#
#######################################################################

data_ZAQDEC01
_chemical_formula_moiety         'C13 H8 N4'
_chemical_name_systematic        1H-Imidazo[4,5-f][1,10]phenanthroline
_symmetry_cell_setting           orthorhombic
_symmetry_space_group_name_H-M   'P b c a'
_symmetry_Int_Tables_number      61
_space_group_name_Hall           '-P 2ac 2ab'
loop_
_symmetry_equiv_pos_site_id
_symmetry_equiv_pos_as_xyz
1 x,y,z
2 1/2-x,-y,1/2+z
3 1/2+x,1/2-y,-z
4 -x,1/2+y,1/2-z
5 -x,-y,-z
6 1/2+x,y,1/2-z
7 1/2-x,1/2+y,z
8 x,1/2-y,1/2+z
_cell_length_a                   14.570(4)
_cell_length_b                   7.872(2)
_cell_length_c                   16.980(4)
_cell_angle_alpha                90
_cell_angle_beta                 90
_cell_angle_gamma                90
_cell_volume                     1947.52
_cell_formula_units_Z            8
loop_
_atom_site_label
_atom_site_type_symbol
_atom_site_fract_x
_atom_site_fract_y
_atom_site_fract_z
C1 C 0.95305(14) 0.5015(3) 0.87871(13)
H1 H 1.0165 0.5135 0.8782
C2 C 0.90612(14) 0.5634(3) 0.94346(12)
H2 H 0.9375 0.6143 0.9849
C3 C 0.81271(14) 0.5481(3) 0.94520(12)
H3 H 0.7794 0.5875 0.9882
C4 C 0.76789(12) 0.4724(3) 0.88138(11)
C5 C 0.67032(13) 0.4561(3) 0.87605(11)
C6 C 0.52709(14) 0.4606(3) 0.89793(13)
H4 H 0.4704 0.4758 0.9220
C7 C 0.62951(12) 0.3900(3) 0.81001(11)
C8 C 0.68042(12) 0.3258(3) 0.74465(10)
C9 C 0.64267(14) 0.2487(3) 0.67772(11)
H5 H 0.5795 0.2348 0.6736
C10 C 0.69866(14) 0.1945(3) 0.61887(12)
H6 H 0.6745 0.1441 0.5739
C11 C 0.79313(15) 0.2158(3) 0.62733(12)
H7 H 0.8307 0.1796 0.5864
C12 C 0.77751(12) 0.3383(3) 0.74887(11)
C13 C 0.82133(12) 0.4130(2) 0.81786(11)
N1 N 0.91428(10) 0.4264(2) 0.81734(9)
N2 N 0.60536(11) 0.5006(2) 0.93209(9)
N3 N 0.53671(11) 0.3951(2) 0.82447(10)
H8 H 0.4935 0.3633 0.7933
N4 N 0.83283(11) 0.2843(2) 0.68985(9)
loop_
_geom_bond_atom_site_label_1
_geom_bond_atom_site_label_2
_geom_bond_site_symmetry_1
_geom_bond_site_symmetry_2
C1 H1 1_555 1_555
C2 C1 1_555 1_555
H2 C2 1_555 1_555
C3 C2 1_555 1_555
H3 C3 1_555 1_555
C4 C3 1_555 1_555
C5 C4 1_555 1_555
C6 H4 1_555 1_555
C7 C5 1_555 1_555
C8 C7 1_555 1_555
C9 C8 1_555 1_555
H5 C9 1_555 1_555
C10 C9 1_555 1_555
H6 C10 1_555 1_555
C11 C10 1_555 1_555
H7 C11 1_555 1_555
C12 C8 1_555 1_555
C13 C4 1_555 1_555
N1 C1 1_555 1_555
N2 C5 1_555 1_555
N3 C6 1_555 1_555
H8 N3 1_555 1_555
N4 C11 1_555 1_555
C6 N2 1_555 1_555
C7 N3 1_555 1_555
C12 C13 1_555 1_555
C12 N4 1_555 1_555
C13 N1 1_555 1_555

#END
