
#######################################################################
#
#                 Cambridge Crystallographic Data Centre
#                                CCDC 
#
#######################################################################
#
# If this CIF has been generated from an entry in the Cambridge 
# Structural Database, then it will include bibliographic, chemical, 
# crystal, experimental, refinement or atomic coordinate data resulting 
# from the CCDC's data processing and validation procedures.
#
#######################################################################

data_ZAQGAC
_chemical_formula_moiety         'C25 H21 N3 O4'
_chemical_name_systematic        
"ethyl 3-methyl-1-(4-methylphenyl)-8-oxo-1H,8H-pyrano[2',3':4,5]pyrimido[6,1-b]quinazoline-2-carboxylate"
_symmetry_cell_setting           monoclinic
_symmetry_space_group_name_H-M   'P 21/c'
_symmetry_Int_Tables_number      14
_space_group_name_Hall           '-P 2ybc'
loop_
_symmetry_equiv_pos_site_id
_symmetry_equiv_pos_as_xyz
1 x,y,z
2 -x,1/2+y,1/2-z
3 -x,-y,-z
4 x,1/2-y,1/2+z
_cell_length_a                   10.450(3)
_cell_length_b                   24.217(6)
_cell_length_c                   8.757(2)
_cell_angle_alpha                90
_cell_angle_beta                 104.130(2)
_cell_angle_gamma                90
_cell_volume                     2149.06
_exptl_crystal_colour            colorless
_exptl_crystal_description       BLOCK
_chemical_melting_point          '186-188 deg.C'
_cell_formula_units_Z            4
loop_
_atom_site_label
_atom_site_type_symbol
_atom_site_fract_x
_atom_site_fract_y
_atom_site_fract_z
C1 C 0.41657(19) 0.55553(8) 1.0631(2)
C2 C 0.31207(19) 0.51552(8) 1.0303(3)
C3 C 0.1349(2) 0.47271(9) 0.8667(3)
C4 C 0.43697(19) 0.59356(9) 0.9350(2)
H1 H 0.4456 0.5712 0.8448
C5 C 0.1029(2) 0.44306(9) 0.9898(3)
C6 C 0.5633(2) 0.62610(9) 0.9944(3)
C7 C 0.3757(2) 0.49442(10) 1.3073(3)
H2 H 0.3610 0.4737 1.3908
C8 C 0.3195(2) 0.63256(8) 0.8814(3)
C9 C 0.4904(2) 0.55909(9) 1.2116(3)
C10 C 0.2322(2) 0.62696(10) 0.7364(3)
H3 H 0.2460 0.5995 0.6678
C11 C -0.0086(2) 0.40860(10) 0.9606(3)
H4 H -0.0293 0.3890 1.0427
C12 C 0.6297(2) 0.62687(9) 1.1456(3)
C13 C 0.1851(2) 0.44809(10) 1.1482(3)
C14 C 0.6069(2) 0.66145(10) 0.8782(3)
C15 C 0.0537(2) 0.46667(11) 0.7153(3)
H5 H 0.0734 0.4855 0.6314
C16 C -0.0867(3) 0.40389(11) 0.8114(4)
H6 H -0.1607 0.3812 0.7915
C17 C 0.2971(2) 0.67454(9) 0.9783(3)
H7 H 0.3554 0.6796 1.0761
C18 C 0.7472(2) 0.66000(11) 1.2243(3)
H8 H 0.8026 0.6655 1.1529
H9 H 0.7957 0.6407 1.3161
H10 H 0.7190 0.6952 1.2548
C19 C 0.1246(3) 0.66147(11) 0.6916(3)
H11 H 0.0667 0.6566 0.5935
C20 C 0.1902(3) 0.70906(10) 0.9330(4)
H12 H 0.1774 0.7370 1.0005
C21 C -0.0547(3) 0.43315(11) 0.6899(3)
H13 H -0.1083 0.4299 0.5885
C22 C 0.1011(2) 0.70280(11) 0.7882(4)
C23 C -0.0186(3) 0.73972(14) 0.7422(5)
H14 H -0.0571 0.7363 0.6312
H15 H 0.0072 0.7774 0.7666
H16 H -0.0821 0.7290 0.7994
C24 C 0.4622(4) 0.68277(18) 0.4823(5)
H17 H 0.4223 0.6473 0.4537
H18 H 0.4828 0.6996 0.3919
H19 H 0.4020 0.7060 0.5200
C25 C 0.5803(4) 0.67600(18) 0.6031(4)
H20 H 0.6152 0.7119 0.6408
H21 H 0.6459 0.6571 0.5607
N1 N 0.29245(17) 0.48639(7) 1.1614(2)
N2 N 0.24051(16) 0.50850(7) 0.8882(2)
N3 N 0.4729(2) 0.52872(9) 1.3364(2)
O1 O 0.59325(15) 0.59460(7) 1.25803(18)
O2 O 0.17065(18) 0.42443(8) 1.2643(2)
O3 O 0.5542(2) 0.64420(8) 0.7332(2)
O4 O 0.6777(2) 0.70109(9) 0.9065(3)
loop_
_geom_bond_atom_site_label_1
_geom_bond_atom_site_label_2
_geom_bond_site_symmetry_1
_geom_bond_site_symmetry_2
C1 C2 1_555 1_555
C2 N1 1_555 1_555
C3 C5 1_555 1_555
C4 C1 1_555 1_555
H1 C4 1_555 1_555
C5 C11 1_555 1_555
C6 C4 1_555 1_555
C7 H2 1_555 1_555
C8 C4 1_555 1_555
C9 C1 1_555 1_555
C10 C8 1_555 1_555
H3 C10 1_555 1_555
C11 H4 1_555 1_555
C12 C6 1_555 1_555
C13 C5 1_555 1_555
C14 C6 1_555 1_555
C15 C3 1_555 1_555
H5 C15 1_555 1_555
C16 C11 1_555 1_555
H6 C16 1_555 1_555
C17 C8 1_555 1_555
H7 C17 1_555 1_555
C18 C12 1_555 1_555
H8 C18 1_555 1_555
H9 C18 1_555 1_555
H10 C18 1_555 1_555
C19 C10 1_555 1_555
H11 C19 1_555 1_555
C20 C17 1_555 1_555
H12 C20 1_555 1_555
C21 C15 1_555 1_555
H13 C21 1_555 1_555
C22 C19 1_555 1_555
C23 C22 1_555 1_555
H14 C23 1_555 1_555
H15 C23 1_555 1_555
H16 C23 1_555 1_555
C24 H17 1_555 1_555
H18 C24 1_555 1_555
H19 C24 1_555 1_555
C25 C24 1_555 1_555
H20 C25 1_555 1_555
H21 C25 1_555 1_555
N1 C7 1_555 1_555
N2 C2 1_555 1_555
N3 C7 1_555 1_555
O1 C9 1_555 1_555
O2 C13 1_555 1_555
O3 C14 1_555 1_555
O4 C14 1_555 1_555
C3 N2 1_555 1_555
C9 N3 1_555 1_555
C12 O1 1_555 1_555
C13 N1 1_555 1_555
C16 C21 1_555 1_555
C20 C22 1_555 1_555
C25 O3 1_555 1_555

#END
