
#######################################################################
#
#                 Cambridge Crystallographic Data Centre
#                                CCDC 
#
#######################################################################
#
# If this CIF has been generated from an entry in the Cambridge 
# Structural Database, then it will include bibliographic, chemical, 
# crystal, experimental, refinement or atomic coordinate data resulting 
# from the CCDC's data processing and validation procedures.
#
#######################################################################

data_ZAQGOP
_chemical_formula_moiety         'C14 H18 Cl1 N1 S1'
_chemical_name_systematic        
5-Chloro-4'-ethyl-3H-spiro[1,3-benzothiazole-2,1'-cyclohexane]
_symmetry_cell_setting           orthorhombic
_symmetry_space_group_name_H-M   'P 21 21 21'
_symmetry_Int_Tables_number      19
_space_group_name_Hall           'P 2ac 2ab'
loop_
_symmetry_equiv_pos_site_id
_symmetry_equiv_pos_as_xyz
1 x,y,z
2 1/2-x,-y,1/2+z
3 1/2+x,1/2-y,-z
4 -x,1/2+y,1/2-z
_cell_length_a                   8.989(3)
_cell_length_b                   11.163(4)
_cell_length_c                   13.722(4)
_cell_angle_alpha                90
_cell_angle_beta                 90
_cell_angle_gamma                90
_cell_volume                     1376.92
_exptl_crystal_colour            'light yellow'
_exptl_crystal_description       prism
_cell_formula_units_Z            4
loop_
_atom_site_label
_atom_site_type_symbol
_atom_site_fract_x
_atom_site_fract_y
_atom_site_fract_z
Cl1 Cl 0.49813(9) 0.45066(8) -0.35059(4)
S1 S 0.37029(6) 0.40096(5) 0.09263(4)
N1 N 0.5350(2) 0.25670(18) -0.01023(14)
C1 C 0.3980(2) 0.43112(18) -0.03208(14)
C2 C 0.3365(2) 0.5213(2) -0.08691(16)
C3 C 0.3676(3) 0.5274(2) -0.18623(17)
C4 C 0.4593(3) 0.4430(2) -0.22640(16)
C5 C 0.5230(3) 0.3517(2) -0.17270(16)
C6 C 0.4912(2) 0.34542(18) -0.07400(14)
C7 C 0.5242(2) 0.29047(17) 0.09277(15)
C8 C 0.4828(3) 0.18328(18) 0.15561(16)
C9 C 0.4758(3) 0.21449(19) 0.26303(16)
C10 C 0.6208(3) 0.26917(19) 0.30042(15)
C11 C 0.6605(2) 0.3776(2) 0.23844(15)
C12 C 0.6673(2) 0.3484(2) 0.12979(15)
C13 C 0.6130(3) 0.2992(2) 0.40837(16)
C14 C 0.7593(3) 0.3396(3) 0.4523(2)
H1 H 0.611(2) 0.214(2) -0.0203(19)
H2 H 0.27450 0.57770 -0.05800
H3 H 0.32680 0.58780 -0.22450
H4 H 0.58560 0.29600 -0.20200
H5 H 0.38670 0.15290 0.13500
H6 H 0.55560 0.12030 0.14590
H7 H 0.45400 0.14260 0.30000
H8 H 0.39520 0.27080 0.27370
H9 H 0.69960 0.20940 0.29160
H10 H 0.75630 0.40850 0.25920
H11 H 0.58700 0.43990 0.24900
H12 H 0.68540 0.42150 0.09350
H13 H 0.75000 0.29450 0.11790
H14 H 0.53990 0.36200 0.41780
H15 H 0.57860 0.22900 0.44340
H16 H 0.83630 0.28400 0.43480
H17 H 0.75030 0.34280 0.52190
H18 H 0.78410 0.41770 0.42790
loop_
_geom_bond_atom_site_label_1
_geom_bond_atom_site_label_2
_geom_bond_site_symmetry_1
_geom_bond_site_symmetry_2
Cl1 C4 1_555 1_555
S1 C1 1_555 1_555
N1 C6 1_555 1_555
C1 C2 1_555 1_555
C2 C3 1_555 1_555
C3 C4 1_555 1_555
C4 C5 1_555 1_555
C5 C6 1_555 1_555
C6 C1 1_555 1_555
C7 S1 1_555 1_555
C8 C7 1_555 1_555
C9 C8 1_555 1_555
C10 C9 1_555 1_555
C11 C10 1_555 1_555
C12 C7 1_555 1_555
C13 C10 1_555 1_555
C14 C13 1_555 1_555
H1 N1 1_555 1_555
H2 C2 1_555 1_555
H3 C3 1_555 1_555
H4 C5 1_555 1_555
H5 C8 1_555 1_555
H6 C8 1_555 1_555
H7 C9 1_555 1_555
H8 C9 1_555 1_555
H9 C10 1_555 1_555
H10 C11 1_555 1_555
H11 C11 1_555 1_555
H12 C12 1_555 1_555
H13 C12 1_555 1_555
H14 C13 1_555 1_555
H15 C13 1_555 1_555
H16 C14 1_555 1_555
H17 C14 1_555 1_555
H18 C14 1_555 1_555
N1 C7 1_555 1_555
C11 C12 1_555 1_555

#END
