
#######################################################################
#
#                 Cambridge Crystallographic Data Centre
#                                CCDC 
#
#######################################################################
#
# If this CIF has been generated from an entry in the Cambridge 
# Structural Database, then it will include bibliographic, chemical, 
# crystal, experimental, refinement or atomic coordinate data resulting 
# from the CCDC's data processing and validation procedures.
#
#######################################################################

data_ZAQGIJ
_chemical_formula_moiety         'C18 H16 Cl2 O4'
_chemical_name_systematic        
(2E)-1-(2,4-Dichlorophenyl)-3-(3,4,5-trimethoxyphenyl)prop-2-en-1-one
_symmetry_cell_setting           orthorhombic
_symmetry_space_group_name_H-M   'P b c a'
_symmetry_Int_Tables_number      61
_space_group_name_Hall           '-P 2ac 2ab'
loop_
_symmetry_equiv_pos_site_id
_symmetry_equiv_pos_as_xyz
1 x,y,z
2 1/2-x,-y,1/2+z
3 -x,1/2+y,1/2-z
4 1/2+x,1/2-y,-z
5 -x,-y,-z
6 1/2+x,y,1/2-z
7 x,1/2-y,1/2+z
8 1/2-x,1/2+y,z
_cell_length_a                   9.4305(5)
_cell_length_b                   13.9334(8)
_cell_length_c                   25.6417(14)
_cell_angle_alpha                90
_cell_angle_beta                 90
_cell_angle_gamma                90
_cell_volume                     3369.29
_exptl_crystal_colour            colorless
_exptl_crystal_description       block
_cell_formula_units_Z            8
loop_
_atom_site_label
_atom_site_type_symbol
_atom_site_fract_x
_atom_site_fract_y
_atom_site_fract_z
Cl1 Cl 0.28135(3) 0.217251(16) 0.611803(9)
Cl2 Cl 0.68551(3) 0.053651(17) 0.730224(9)
O1 O 0.85362(8) 0.59918(5) 0.48151(3)
O2 O 0.81150(7) 0.78269(5) 0.51372(3)
O3 O 0.67985(7) 0.82227(5) 0.60144(3)
O4 O 0.22886(7) 0.40914(5) 0.67797(3)
C1 C 0.41001(9) 0.22749(6) 0.65990(3)
C2 C 0.48428(10) 0.14561(6) 0.67434(3)
H1 H 0.4638 0.0865 0.6593
C3 C 0.58992(10) 0.15424(6) 0.71183(3)
C4 C 0.62109(11) 0.24156(7) 0.73518(4)
H2 H 0.6907 0.2458 0.7608
C5 C 0.54655(10) 0.32244(6) 0.71967(3)
H3 H 0.5680 0.3815 0.7346
C6 C 0.43967(9) 0.31692(6) 0.68200(3)
C7 C 0.35648(9) 0.40595(6) 0.66920(3)
C8 C 0.43334(9) 0.48838(6) 0.64771(3)
H4 H 0.3917 0.5488 0.6498
C9 C 0.56145(9) 0.48055(6) 0.62511(3)
H5 H 0.6055 0.4208 0.6259
C10 C 0.63649(9) 0.55929(6) 0.59932(3)
C11 C 0.72028(9) 0.53747(6) 0.55583(3)
H6 H 0.7355 0.4739 0.5462
C12 C 0.78076(9) 0.61202(6) 0.52700(3)
C13 C 0.76521(9) 0.70727(6) 0.54348(3)
C14 C 0.68727(9) 0.72740(6) 0.58881(3)
C15 C 0.62042(9) 0.65414(6) 0.61624(3)
H7 H 0.5657 0.6680 0.6455
C16 C 0.84445(12) 0.50620(8) 0.45782(4)
H8 H 0.8912 0.5074 0.4246
H9 H 0.7466 0.4893 0.4531
H10 H 0.8894 0.4597 0.4799
C17 C 0.96130(10) 0.79619(7) 0.51322(4)
H11 H 0.9849 0.8475 0.4898
H12 H 1.0066 0.7382 0.5018
H13 H 0.9933 0.8119 0.5477
C18 C 0.58610(11) 0.84829(7) 0.64272(4)
H14 H 0.5853 0.9168 0.6465
H15 H 0.6178 0.8194 0.6746
H16 H 0.4921 0.8262 0.6348
loop_
_geom_bond_atom_site_label_1
_geom_bond_atom_site_label_2
_geom_bond_site_symmetry_1
_geom_bond_site_symmetry_2
Cl1 C1 1_555 1_555
Cl2 C3 1_555 1_555
O1 C12 1_555 1_555
O2 C13 1_555 1_555
O3 C14 1_555 1_555
O4 C7 1_555 1_555
C1 C2 1_555 1_555
C2 H1 1_555 1_555
C3 C2 1_555 1_555
C4 C3 1_555 1_555
H2 C4 1_555 1_555
C5 C4 1_555 1_555
H3 C5 1_555 1_555
C6 C1 1_555 1_555
C7 C6 1_555 1_555
C8 C7 1_555 1_555
H4 C8 1_555 1_555
C9 C8 1_555 1_555
H5 C9 1_555 1_555
C10 C9 1_555 1_555
C11 C10 1_555 1_555
H6 C11 1_555 1_555
C12 C11 1_555 1_555
C13 C12 1_555 1_555
C14 C13 1_555 1_555
C15 C10 1_555 1_555
H7 C15 1_555 1_555
C16 O1 1_555 1_555
H8 C16 1_555 1_555
H9 C16 1_555 1_555
H10 C16 1_555 1_555
C17 O2 1_555 1_555
H11 C17 1_555 1_555
H12 C17 1_555 1_555
H13 C17 1_555 1_555
C18 O3 1_555 1_555
H14 C18 1_555 1_555
H15 C18 1_555 1_555
H16 C18 1_555 1_555
C5 C6 1_555 1_555
C14 C15 1_555 1_555

#END
