
#######################################################################
#
#                 Cambridge Crystallographic Data Centre
#                                CCDC 
#
#######################################################################
#
# If this CIF has been generated from an entry in the Cambridge 
# Structural Database, then it will include bibliographic, chemical, 
# crystal, experimental, refinement or atomic coordinate data resulting 
# from the CCDC's data processing and validation procedures.
#
#######################################################################

data_ZAQGEG
_chemical_formula_moiety         'C26 H28 Br1 N1 O3 S2'
_chemical_name_systematic        
3-((4-bromobutyl)sulfanyl)-2-methyl-1-((4-methylphenyl)sulfonyl)-7a-phenyl-1,3a,4,7a-tetrahydro-5H-indol-5-one
_symmetry_cell_setting           triclinic
_symmetry_space_group_name_H-M   'P -1'
_symmetry_Int_Tables_number      2
_space_group_name_Hall           '-P 1'
loop_
_symmetry_equiv_pos_site_id
_symmetry_equiv_pos_as_xyz
1 x,y,z
2 -x,-y,-z
_cell_length_a                   9.5799(13)
_cell_length_b                   10.7564(19)
_cell_length_c                   13.2894(17)
_cell_angle_alpha                81.768(11)
_cell_angle_beta                 69.424(7)
_cell_angle_gamma                87.010(11)
_cell_volume                     1268.84
_exptl_crystal_colour            colorless
_exptl_crystal_description       Prism
_cell_formula_units_Z            2
loop_
_atom_site_label
_atom_site_type_symbol
_atom_site_fract_x
_atom_site_fract_y
_atom_site_fract_z
Br1 Br 0.70440(2) 0.79434(2) 0.355662(17)
S1 S 0.29575(4) 0.00539(4) 0.24314(3)
S2 S 0.09941(5) 0.44355(4) 0.36701(3)
O1 O 0.43664(12) -0.04603(10) 0.18324(9)
O2 O 0.19674(13) -0.06741(10) 0.33763(10)
O3 O 0.43714(14) 0.41342(11) -0.08271(10)
N1 N 0.33314(14) 0.13330(12) 0.28526(10)
C1 C 0.19861(17) 0.05231(15) 0.15329(13)
C2 C 0.04764(18) 0.08272(16) 0.19559(14)
H1 H -0.0047 0.0694 0.2716
C3 C -0.02484(19) 0.13259(17) 0.12511(15)
H2 H -0.1277 0.1533 0.1536
C4 C 0.04979(19) 0.15312(17) 0.01324(14)
C5 C 0.19973(18) 0.11736(16) -0.02787(14)
H3 H 0.2512 0.1274 -0.1040
C6 C 0.27396(18) 0.06738(15) 0.04171(13)
H4 H 0.3758 0.0436 0.0132
C7 C -0.0290(2) 0.21184(19) -0.06201(16)
H5 H -0.0744 0.1458 -0.0841
H6 H 0.0429 0.2589 -0.1263
H7 H -0.1069 0.2690 -0.0246
C8 C 0.44990(17) 0.22852(14) 0.21475(12)
C9 C 0.54588(17) 0.19476(15) 0.10463(13)
H8 H 0.6118 0.1252 0.1021
C10 C 0.54332(18) 0.25687(15) 0.01092(13)
H9 H 0.6169 0.2376 -0.0546
C11 C 0.43128(19) 0.35425(15) 0.00442(13)
C12 C 0.30746(18) 0.37186(15) 0.10875(13)
H10 H 0.2257 0.3128 0.1202
H11 H 0.2676 0.4583 0.1026
C13 C 0.35768(17) 0.34998(15) 0.20779(12)
H12 H 0.4157 0.4242 0.2087
C14 C 0.22746(17) 0.32707(15) 0.31260(13)
C15 C 0.21352(17) 0.20498(15) 0.35316(12)
C16 C 0.10257(18) 0.14537(15) 0.45618(13)
H13 H 0.0562 0.2099 0.5028
H14 H 0.1527 0.0833 0.4934
H15 H 0.0257 0.1037 0.4402
C17 C 0.55887(17) 0.24217(15) 0.27496(13)
C18 C 0.65446(18) 0.34560(16) 0.24280(14)
H16 H 0.6477 0.4094 0.1873
C19 C 0.75966(19) 0.35558(17) 0.29177(15)
H17 H 0.8241 0.4262 0.2696
C20 C 0.77059(19) 0.26285(17) 0.37265(14)
H18 H 0.8414 0.2705 0.4066
C21 C 0.67777(19) 0.15894(17) 0.40377(14)
H19 H 0.6857 0.0949 0.4587
C22 C 0.57284(18) 0.14812(16) 0.35465(13)
H20 H 0.5105 0.0762 0.3757
C23 C 0.21968(19) 0.57952(15) 0.33570(14)
H21 H 0.2720 0.5953 0.2563
H22 H 0.1571 0.6540 0.3577
C24 C 0.33538(19) 0.56454(16) 0.39167(14)
H23 H 0.3917 0.4856 0.3760
H24 H 0.2839 0.5587 0.4711
C25 C 0.4442(2) 0.67541(16) 0.35309(14)
H25 H 0.4931 0.6835 0.2733
H26 H 0.3888 0.7541 0.3716
C26 C 0.5612(2) 0.65579(17) 0.40601(15)
H27 H 0.6147 0.5759 0.3889
H28 H 0.5122 0.6494 0.4857
loop_
_geom_bond_atom_site_label_1
_geom_bond_atom_site_label_2
_geom_bond_site_symmetry_1
_geom_bond_site_symmetry_2
Br1 C26 1_555 1_555
S1 O1 1_555 1_555
S2 C14 1_555 1_555
O2 S1 1_555 1_555
O3 C11 1_555 1_555
N1 S1 1_555 1_555
C1 S1 1_555 1_555
C2 C1 1_555 1_555
H1 C2 1_555 1_555
C3 C2 1_555 1_555
H2 C3 1_555 1_555
C4 C3 1_555 1_555
C5 C4 1_555 1_555
H3 C5 1_555 1_555
C6 C1 1_555 1_555
H4 C6 1_555 1_555
C7 C4 1_555 1_555
H5 C7 1_555 1_555
H6 C7 1_555 1_555
H7 C7 1_555 1_555
C8 N1 1_555 1_555
C9 C8 1_555 1_555
H8 C9 1_555 1_555
C10 C9 1_555 1_555
H9 C10 1_555 1_555
C11 C10 1_555 1_555
C12 C11 1_555 1_555
H10 C12 1_555 1_555
H11 C12 1_555 1_555
C13 C8 1_555 1_555
H12 C13 1_555 1_555
C14 C13 1_555 1_555
C15 N1 1_555 1_555
C16 C15 1_555 1_555
H13 C16 1_555 1_555
H14 C16 1_555 1_555
H15 C16 1_555 1_555
C17 C8 1_555 1_555
C18 C17 1_555 1_555
H16 C18 1_555 1_555
C19 C18 1_555 1_555
H17 C19 1_555 1_555
C20 C19 1_555 1_555
H18 C20 1_555 1_555
C21 C20 1_555 1_555
H19 C21 1_555 1_555
C22 C17 1_555 1_555
H20 C22 1_555 1_555
C23 S2 1_555 1_555
H21 C23 1_555 1_555
H22 C23 1_555 1_555
C24 C23 1_555 1_555
H23 C24 1_555 1_555
H24 C24 1_555 1_555
C25 C24 1_555 1_555
H25 C25 1_555 1_555
H26 C25 1_555 1_555
C26 C25 1_555 1_555
H27 C26 1_555 1_555
H28 C26 1_555 1_555
C5 C6 1_555 1_555
C12 C13 1_555 1_555
C14 C15 1_555 1_555
C21 C22 1_555 1_555

#END
