
#######################################################################
#
#                 Cambridge Crystallographic Data Centre
#                                CCDC 
#
#######################################################################
#
# If this CIF has been generated from an entry in the Cambridge 
# Structural Database, then it will include bibliographic, chemical, 
# crystal, experimental, refinement or atomic coordinate data resulting 
# from the CCDC's data processing and validation procedures.
#
#######################################################################

data_ZAQHEH
_chemical_formula_moiety         'C30 H22 N2 O2'
_chemical_name_systematic        
6-benzoyl-2,10-dimethyl-12a-phenylindolo[1,2-c]quinazolin-12(12aH)-one
_symmetry_cell_setting           monoclinic
_symmetry_space_group_name_H-M   'P 21/c'
_symmetry_Int_Tables_number      14
_space_group_name_Hall           '-P 2ybc'
loop_
_symmetry_equiv_pos_site_id
_symmetry_equiv_pos_as_xyz
1 x,y,z
2 -x,1/2+y,1/2-z
3 -x,-y,-z
4 x,1/2-y,1/2+z
_cell_length_a                   8.878(3)
_cell_length_b                   12.260(3)
_cell_length_c                   21.373(6)
_cell_angle_alpha                90
_cell_angle_beta                 95.593(5)
_cell_angle_gamma                90
_cell_volume                     2315.25
_exptl_crystal_colour            colorless
_exptl_crystal_description       Block
_cell_formula_units_Z            4
loop_
_atom_site_label
_atom_site_type_symbol
_atom_site_fract_x
_atom_site_fract_y
_atom_site_fract_z
C1 C 0.5938(3) -0.0392(2) 0.12234(15)
H1 H 0.5792 -0.0534 0.0794
C2 C 0.6924(4) -0.1020(3) 0.1607(2)
H2 H 0.7437 -0.1591 0.1435
C3 C 0.7157(4) -0.0818(3) 0.2230(2)
H3 H 0.7833 -0.1245 0.2484
C4 C 0.6396(4) 0.0020(3) 0.24894(16)
H4 H 0.6566 0.0163 0.2918
C5 C 0.5388(3) 0.0644(2) 0.21200(14)
H5 H 0.4855 0.1197 0.2299
C6 C 0.5164(3) 0.04504(19) 0.14786(12)
C7 C 0.4142(3) 0.11429(19) 0.10590(12)
C8 C 0.2828(3) 0.17015(19) 0.13193(11)
C9 C 0.0875(3) 0.1722(2) 0.19496(12)
C10 C 0.0394(3) 0.1372(2) 0.25148(13)
H6 H 0.0858 0.0777 0.2724
C11 C -0.0769(4) 0.1904(2) 0.27653(14)
H7 H -0.1061 0.1672 0.3150
C12 C -0.1514(3) 0.2769(2) 0.24649(13)
C13 C -0.1042(3) 0.3117(2) 0.18973(12)
H8 H -0.1527 0.3703 0.1689
C14 C 0.0138(3) 0.26052(19) 0.16366(11)
C15 C 0.0683(3) 0.29033(19) 0.10091(11)
C16 C -0.0120(3) 0.2260(2) 0.04584(11)
C17 C -0.1408(3) 0.1678(3) 0.05079(14)
H9 H -0.1842 0.1681 0.0887
C18 C -0.2083(4) 0.1085(3) 0.00101(16)
H10 H -0.2970 0.0700 0.0053
C19 C -0.1459(4) 0.1062(3) -0.05409(14)
H11 H -0.1889 0.0637 -0.0872
C20 C -0.0207(4) 0.1657(4) -0.06093(15)
H12 H 0.0204 0.1662 -0.0993
C21 C 0.0471(4) 0.2264(3) -0.01098(14)
H13 H 0.1331 0.2674 -0.0162
C22 C 0.0637(3) 0.4143(2) 0.08580(12)
C23 C 0.2187(3) 0.4496(2) 0.08175(11)
C24 C 0.3151(3) 0.36135(19) 0.09499(11)
C25 C 0.4707(3) 0.3749(2) 0.09840(12)
H14 H 0.5363 0.3166 0.1075
C26 C 0.5245(3) 0.4780(2) 0.08772(13)
H15 H 0.6286 0.4880 0.0893
C27 C 0.4313(3) 0.5681(2) 0.07471(13)
C28 C 0.2767(3) 0.5529(2) 0.07134(12)
H16 H 0.2115 0.6113 0.0622
C29 C 0.4984(4) 0.6788(3) 0.06579(18)
H17 H 0.4489 0.7121 0.0286
H18 H 0.6045 0.6715 0.0614
H19 H 0.4847 0.7237 0.1016
C30 C -0.2818(4) 0.3324(3) 0.27332(16)
H20 H -0.3124 0.2902 0.3077
H21 H -0.3651 0.3387 0.2413
H22 H -0.2512 0.4038 0.2880
N1 N 0.2112(2) 0.11843(16) 0.17226(9)
N2 N 0.2322(2) 0.26711(16) 0.10520(9)
O1 O 0.4294(2) 0.12467(16) 0.05026(9)
O2 O -0.0518(2) 0.46806(15) 0.07969(10)
loop_
_geom_bond_atom_site_label_1
_geom_bond_atom_site_label_2
_geom_bond_site_symmetry_1
_geom_bond_site_symmetry_2
C1 H1 1_555 1_555
C2 C1 1_555 1_555
H2 C2 1_555 1_555
C3 C2 1_555 1_555
H3 C3 1_555 1_555
C4 C3 1_555 1_555
H4 C4 1_555 1_555
C5 C4 1_555 1_555
H5 C5 1_555 1_555
C6 C1 1_555 1_555
C7 C6 1_555 1_555
C8 C7 1_555 1_555
C9 C10 1_555 1_555
C10 H6 1_555 1_555
C11 C10 1_555 1_555
H7 C11 1_555 1_555
C12 C11 1_555 1_555
C13 C12 1_555 1_555
H8 C13 1_555 1_555
C14 C9 1_555 1_555
C15 C14 1_555 1_555
C16 C15 1_555 1_555
C17 C16 1_555 1_555
H9 C17 1_555 1_555
C18 C17 1_555 1_555
H10 C18 1_555 1_555
C19 C18 1_555 1_555
H11 C19 1_555 1_555
C20 C19 1_555 1_555
H12 C20 1_555 1_555
C21 C16 1_555 1_555
H13 C21 1_555 1_555
C22 C15 1_555 1_555
C23 C22 1_555 1_555
C24 C23 1_555 1_555
C25 C24 1_555 1_555
H14 C25 1_555 1_555
C26 C25 1_555 1_555
H15 C26 1_555 1_555
C27 C26 1_555 1_555
C28 C23 1_555 1_555
H16 C28 1_555 1_555
C29 C27 1_555 1_555
H17 C29 1_555 1_555
H18 C29 1_555 1_555
H19 C29 1_555 1_555
C30 C12 1_555 1_555
H20 C30 1_555 1_555
H21 C30 1_555 1_555
H22 C30 1_555 1_555
N1 C8 1_555 1_555
N2 C8 1_555 1_555
O1 C7 1_555 1_555
O2 C22 1_555 1_555
C5 C6 1_555 1_555
C9 N1 1_555 1_555
C13 C14 1_555 1_555
C15 N2 1_555 1_555
C20 C21 1_555 1_555
C24 N2 1_555 1_555
C27 C28 1_555 1_555

#END
