
#######################################################################
#
#                 Cambridge Crystallographic Data Centre
#                                CCDC 
#
#######################################################################
#
# If this CIF has been generated from an entry in the Cambridge 
# Structural Database, then it will include bibliographic, chemical, 
# crystal, experimental, refinement or atomic coordinate data resulting 
# from the CCDC's data processing and validation procedures.
#
#######################################################################

data_ZAQMUB
_chemical_formula_moiety         'C17 H21 Br1 N4 O1 S1'
_chemical_name_systematic        
N-(4-Bromophenyl)-2-((1-(cyclohexylmethyl)-1H-1,2,4-triazol-3-yl)sulfanyl)acetamide
_symmetry_cell_setting           triclinic
_symmetry_space_group_name_H-M   'P -1'
_symmetry_Int_Tables_number      2
_space_group_name_Hall           '-P 1'
loop_
_symmetry_equiv_pos_site_id
_symmetry_equiv_pos_as_xyz
1 x,y,z
2 -x,-y,-z
_cell_length_a                   7.2061(8)
_cell_length_b                   9.5210(10)
_cell_length_c                   14.2862(16)
_cell_angle_alpha                104.1320(10)
_cell_angle_beta                 90.8040(10)
_cell_angle_gamma                95.8200(10)
_cell_volume                     944.838
_exptl_crystal_colour            colorless
_exptl_crystal_description       block
_chemical_melting_point          '398.8 K'
_cell_formula_units_Z            2
loop_
_atom_site_label
_atom_site_type_symbol
_atom_site_fract_x
_atom_site_fract_y
_atom_site_fract_z
Br1 Br 1.07267(5) 0.57798(4) 0.86425(2)
N1 N 0.2679(3) 1.0737(2) 0.49703(17)
N2 N 0.1739(3) 0.9382(2) 0.60131(15)
N3 N 0.1580(3) 1.0832(2) 0.64012(16)
N4 N 0.4730(3) 0.6839(2) 0.59376(15)
H1 H 0.5020 0.7572 0.5696
O1 O 0.2434(3) 0.5032(2) 0.59473(15)
S1 S 0.28308(9) 0.78377(7) 0.42896(5)
C1 C 0.2140(4) 1.1586(3) 0.5772(2)
H2 H 0.2151 1.2590 0.5881
C2 C 0.0908(4) 1.1312(3) 0.7364(2)
H3 H -0.0288 1.0766 0.7404
H4 H 0.0714 1.2333 0.7483
C3 C 0.2247(4) 1.1117(3) 0.81422(19)
H5 H 0.2486 1.0092 0.7988
C4 C 0.4098(4) 1.2034(4) 0.8179(2)
H6 H 0.3883 1.3049 0.8277
H7 H 0.4685 1.1743 0.7565
C5 C 0.5408(5) 1.1879(5) 0.8986(3)
H8 H 0.5750 1.0892 0.8847
H9 H 0.6540 1.2537 0.9016
C6 C 0.4501(7) 1.2220(5) 0.9949(3)
H10 H 0.5329 1.2047 1.0440
H11 H 0.4294 1.3241 1.0124
C7 C 0.2675(6) 1.1298(5) 0.9914(2)
H12 H 0.2096 1.1578 1.0531
H13 H 0.2901 1.0285 0.9808
C8 C 0.1356(5) 1.1455(4) 0.9123(2)
H14 H 0.1012 1.2442 0.9268
H15 H 0.0227 1.0797 0.9098
C9 C 0.2392(3) 0.9403(3) 0.51580(18)
C10 C 0.1917(4) 0.6457(3) 0.48677(19)
H16 H 0.0761 0.6752 0.5154
H17 H 0.1590 0.5573 0.4363
C11 C 0.3064(4) 0.6054(3) 0.56361(19)
C12 C 0.6046(3) 0.6588(2) 0.66041(17)
C13 C 0.7805(3) 0.7356(3) 0.66796(18)
H18 H 0.8052 0.8042 0.6320
C14 C 0.9196(4) 0.7118(3) 0.72794(19)
H19 H 1.0376 0.7631 0.7319
C15 C 0.8817(4) 0.6118(3) 0.78159(18)
C16 C 0.7086(4) 0.5367(3) 0.7767(2)
H20 H 0.6845 0.4700 0.8141
C17 C 0.5691(4) 0.5594(3) 0.71644(19)
H21 H 0.4513 0.5082 0.7134
loop_
_geom_bond_atom_site_label_1
_geom_bond_atom_site_label_2
_geom_bond_site_symmetry_1
_geom_bond_site_symmetry_2
Br1 C15 1_555 1_555
N1 C1 1_555 1_555
N2 N3 1_555 1_555
N3 C1 1_555 1_555
N4 H1 1_555 1_555
O1 C11 1_555 1_555
S1 C9 1_555 1_555
C1 H2 1_555 1_555
C2 N3 1_555 1_555
H3 C2 1_555 1_555
H4 C2 1_555 1_555
C3 C2 1_555 1_555
H5 C3 1_555 1_555
C4 C3 1_555 1_555
H6 C4 1_555 1_555
H7 C4 1_555 1_555
C5 C4 1_555 1_555
H8 C5 1_555 1_555
H9 C5 1_555 1_555
C6 C5 1_555 1_555
H10 C6 1_555 1_555
H11 C6 1_555 1_555
C7 C6 1_555 1_555
H12 C7 1_555 1_555
H13 C7 1_555 1_555
C8 C3 1_555 1_555
H14 C8 1_555 1_555
H15 C8 1_555 1_555
C9 N1 1_555 1_555
C10 S1 1_555 1_555
H16 C10 1_555 1_555
H17 C10 1_555 1_555
C11 N4 1_555 1_555
C12 N4 1_555 1_555
C13 C12 1_555 1_555
H18 C13 1_555 1_555
C14 C13 1_555 1_555
H19 C14 1_555 1_555
C15 C14 1_555 1_555
C16 C15 1_555 1_555
H20 C16 1_555 1_555
C17 C12 1_555 1_555
H21 C17 1_555 1_555
N2 C9 1_555 1_555
C7 C8 1_555 1_555
C10 C11 1_555 1_555
C16 C17 1_555 1_555

#END
