
#######################################################################
#
#                 Cambridge Crystallographic Data Centre
#                                CCDC 
#
#######################################################################
#
# If this CIF has been generated from an entry in the Cambridge 
# Structural Database, then it will include bibliographic, chemical, 
# crystal, experimental, refinement or atomic coordinate data resulting 
# from the CCDC's data processing and validation procedures.
#
#######################################################################

data_ZAQNAJ
_chemical_formula_moiety         'C19 H16 O2'
_chemical_name_systematic        3-(indeno[1,2-c]chromen-11-yl)propan-1-ol
_symmetry_cell_setting           triclinic
_symmetry_space_group_name_H-M   'P -1'
_symmetry_Int_Tables_number      2
_space_group_name_Hall           '-P 1'
loop_
_symmetry_equiv_pos_site_id
_symmetry_equiv_pos_as_xyz
1 x,y,z
2 -x,-y,-z
_cell_length_a                   5.0158(3)
_cell_length_b                   12.9738(11)
_cell_length_c                   21.6829(17)
_cell_angle_alpha                93.089(7)
_cell_angle_beta                 94.326(5)
_cell_angle_gamma                93.543(6)
_cell_volume                     1401.85
_exptl_crystal_colour            orange
_exptl_crystal_description       parallelepiped
_cell_formula_units_Z            4
loop_
_atom_site_label
_atom_site_type_symbol
_atom_site_fract_x
_atom_site_fract_y
_atom_site_fract_z
O1 O 0.7173(3) 0.41939(14) 0.48685(8)
O2 O 0.3753(4) -0.03609(18) 0.68076(10)
H1 H 0.512(7) -0.043(3) 0.7037(16)
C1 C 0.4976(5) 0.3548(2) 0.46360(12)
C2 C 0.4232(5) 0.3639(2) 0.40197(12)
H2 H 0.5193 0.4103 0.3794
C3 C 0.2084(5) 0.3051(2) 0.37375(13)
H3 H 0.1590 0.3106 0.3319
C4 C 0.0651(5) 0.2372(2) 0.40793(12)
H4 H -0.0823 0.1974 0.3890
C5 C 0.1389(5) 0.2280(2) 0.46954(12)
H5 H 0.0403 0.1819 0.4917
C6 C 0.3602(4) 0.28693(18) 0.49989(11)
C7 C 0.4555(4) 0.28334(18) 0.56485(11)
C8 C 0.6861(4) 0.35413(18) 0.58590(11)
C9 C 0.8051(5) 0.4157(2) 0.54739(12)
H6 H 0.9547 0.4578 0.5627
C10 C 0.7503(4) 0.34053(18) 0.65117(11)
C11 C 0.9494(5) 0.3853(2) 0.69367(12)
H7 H 1.0731 0.4358 0.6823
C12 C 0.9599(5) 0.3532(2) 0.75344(12)
H8 H 1.0914 0.3825 0.7828
C13 C 0.7763(5) 0.2776(2) 0.77005(12)
H9 H 0.7871 0.2567 0.8105
C14 C 0.5782(5) 0.2326(2) 0.72802(12)
H10 H 0.4562 0.1820 0.7399
C15 C 0.5626(4) 0.26378(19) 0.66769(11)
C16 C 0.3790(4) 0.22907(18) 0.61391(11)
C17 C 0.1569(4) 0.14584(19) 0.61510(11)
H11 H -0.0023 0.1678 0.5926
H12 H 0.1162 0.1383 0.6577
C18 C 0.2210(5) 0.0409(2) 0.58723(12)
H13 H 0.0615 -0.0057 0.5858
H14 H 0.2654 0.0489 0.5449
C19 C 0.4482(5) -0.0082(2) 0.62175(13)
H15 H 0.4935 -0.0694 0.5980
H16 H 0.6051 0.0400 0.6267
O3 O -0.3932(4) 0.44729(17) 0.06890(10)
O4 O 0.1155(5) 0.0517(2) 0.26082(10)
H17 H -0.020(7) 0.051(3) 0.2760(17)
C20 C -0.3660(5) 0.4103(2) 0.12714(13)
C21 C -0.5208(5) 0.4563(2) 0.17057(16)
H18 H -0.6309 0.5085 0.1595
C22 C -0.5088(6) 0.4242(3) 0.22869(16)
H19 H -0.6113 0.4545 0.2578
C23 C -0.3458(6) 0.3468(3) 0.24540(15)
H20 H -0.3396 0.3251 0.2856
C24 C -0.1946(5) 0.3021(2) 0.20348(12)
H21 H -0.0846 0.2507 0.2159
C25 C -0.1985(4) 0.3308(2) 0.14203(12)
C26 C -0.0460(5) 0.2875(2) 0.09339(12)
C27 C -0.0797(5) 0.3349(2) 0.03481(12)
C28 C -0.2430(6) 0.4082(2) 0.02357(15)
H22 H -0.2573 0.4341 -0.0156
C29 C 0.0965(5) 0.2814(2) -0.00701(12)
C30 C 0.1482(6) 0.2944(3) -0.06724(14)
H23 H 0.0643 0.3442 -0.0896
C31 C 0.3250(7) 0.2333(3) -0.09424(15)
H24 H 0.3604 0.2414 -0.1352
C32 C 0.4535(7) 0.1583(3) -0.06058(17)
H25 H 0.5750 0.1176 -0.0791
C33 C 0.3977(5) 0.1449(2) 0.00131(14)
H26 H 0.4797 0.0953 0.0242
C34 C 0.2177(5) 0.2075(2) 0.02692(12)
C35 C 0.1271(5) 0.2114(2) 0.09034(12)
C36 C 0.2126(5) 0.1410(2) 0.13964(13)
H27 H 0.2568 0.1819 0.1782
H28 H 0.3738 0.1095 0.1283
C37 C 0.0007(5) 0.0554(2) 0.15019(13)
H29 H -0.1662 0.0864 0.1574
H30 H -0.0302 0.0101 0.1129
C38 C 0.0778(6) -0.0080(2) 0.20395(14)
H31 H -0.0613 -0.0625 0.2070
H32 H 0.2422 -0.0405 0.1963
loop_
_geom_bond_atom_site_label_1
_geom_bond_atom_site_label_2
_geom_bond_site_symmetry_1
_geom_bond_site_symmetry_2
O1 C1 1_555 1_555
O2 H1 1_555 1_555
C1 C2 1_555 1_555
C2 H2 1_555 1_555
C3 C2 1_555 1_555
H3 C3 1_555 1_555
C4 C3 1_555 1_555
H4 C4 1_555 1_555
C5 C4 1_555 1_555
H5 C5 1_555 1_555
C6 C1 1_555 1_555
C7 C6 1_555 1_555
C8 C7 1_555 1_555
C9 O1 1_555 1_555
H6 C9 1_555 1_555
C10 C8 1_555 1_555
C11 C10 1_555 1_555
H7 C11 1_555 1_555
C12 C11 1_555 1_555
H8 C12 1_555 1_555
C13 C12 1_555 1_555
H9 C13 1_555 1_555
C14 C13 1_555 1_555
H10 C14 1_555 1_555
C15 C10 1_555 1_555
C16 C7 1_555 1_555
C17 C16 1_555 1_555
H11 C17 1_555 1_555
H12 C17 1_555 1_555
C18 C17 1_555 1_555
H13 C18 1_555 1_555
H14 C18 1_555 1_555
C19 O2 1_555 1_555
H15 C19 1_555 1_555
H16 C19 1_555 1_555
O3 C20 1_555 1_555
O4 H17 1_555 1_555
C20 C21 1_555 1_555
C21 H18 1_555 1_555
C22 C21 1_555 1_555
H19 C22 1_555 1_555
C23 C22 1_555 1_555
H20 C23 1_555 1_555
C24 C23 1_555 1_555
H21 C24 1_555 1_555
C25 C20 1_555 1_555
C26 C25 1_555 1_555
C27 C26 1_555 1_555
C28 O3 1_555 1_555
H22 C28 1_555 1_555
C29 C27 1_555 1_555
C30 C29 1_555 1_555
H23 C30 1_555 1_555
C31 C30 1_555 1_555
H24 C31 1_555 1_555
C32 C31 1_555 1_555
H25 C32 1_555 1_555
C33 C32 1_555 1_555
H26 C33 1_555 1_555
C34 C29 1_555 1_555
C35 C26 1_555 1_555
C36 C35 1_555 1_555
H27 C36 1_555 1_555
H28 C36 1_555 1_555
C37 C36 1_555 1_555
H29 C37 1_555 1_555
H30 C37 1_555 1_555
C38 O4 1_555 1_555
H31 C38 1_555 1_555
H32 C38 1_555 1_555
C5 C6 1_555 1_555
C8 C9 1_555 1_555
C14 C15 1_555 1_555
C15 C16 1_555 1_555
C18 C19 1_555 1_555
C24 C25 1_555 1_555
C27 C28 1_555 1_555
C33 C34 1_555 1_555
C34 C35 1_555 1_555
C37 C38 1_555 1_555

#END
