
#######################################################################
#
#                 Cambridge Crystallographic Data Centre
#                                CCDC 
#
#######################################################################
#
# If this CIF has been generated from an entry in the Cambridge 
# Structural Database, then it will include bibliographic, chemical, 
# crystal, experimental, refinement or atomic coordinate data resulting 
# from the CCDC's data processing and validation procedures.
#
#######################################################################

data_ZAQNUD
_chemical_formula_moiety         'C15 H12 F1 N1 O5 S1'
_chemical_name_systematic        
'methyl 3-(5-fluoro-2-((pyridin-2-ylsulfonyl)oxy)phenyl)acrylate'
_symmetry_cell_setting           triclinic
_symmetry_space_group_name_H-M   'P -1'
_symmetry_Int_Tables_number      2
_space_group_name_Hall           '-P 1'
loop_
_symmetry_equiv_pos_site_id
_symmetry_equiv_pos_as_xyz
1 x,y,z
2 -x,-y,-z
_cell_length_a                   8.6099(14)
_cell_length_b                   8.6728(14)
_cell_length_c                   21.142(3)
_cell_angle_alpha                85.598(2)
_cell_angle_beta                 81.402(2)
_cell_angle_gamma                76.491(3)
_cell_volume                     1516.35
_exptl_crystal_colour            colorless
_exptl_crystal_description       block
_cell_formula_units_Z            4
loop_
_atom_site_label
_atom_site_type_symbol
_atom_site_fract_x
_atom_site_fract_y
_atom_site_fract_z
S1 S 0.99554(9) 0.31491(9) 0.40412(3)
F1 F 0.4178(2) 0.2475(3) 0.63243(8)
N1 N 0.9538(3) 0.1419(3) 0.31173(11)
O1 O 1.0558(3) 0.4116(3) 0.35389(10)
O2 O 1.0723(2) 0.2778(3) 0.46010(8)
O3 O 0.8127(2) 0.4089(2) 0.42353(8)
O4 O 0.5445(3) 0.1899(3) 0.27579(9)
O5 O 0.3700(3) 0.0443(2) 0.31810(9)
C1 C 0.9714(3) 0.1375(3) 0.37454(11)
C2 C 0.9611(3) 0.0162(3) 0.41655(11)
H1 H 0.9742 0.0205 0.4592
C3 C 0.9305(4) -0.1139(3) 0.39358(14)
H2 H 0.9227 -0.2013 0.4212
C4 C 0.9107(3) -0.1198(4) 0.33116(14)
H3 H 0.8886 -0.2095 0.3163
C5 C 0.9241(4) 0.0080(4) 0.29091(14)
H4 H 0.9126 0.0039 0.2481
C6 C 0.7182(3) 0.3570(3) 0.47758(11)
C7 C 0.7416(4) 0.3911(3) 0.53769(13)
H5 H 0.8237 0.4405 0.5426
C8 C 0.6415(4) 0.3508(4) 0.59013(13)
H6 H 0.6559 0.3711 0.6312
C9 C 0.5206(4) 0.2806(4) 0.58112(13)
C10 C 0.4956(3) 0.2480(3) 0.52196(12)
H7 H 0.4114 0.2008 0.5177
C11 C 0.5966(3) 0.2853(3) 0.46767(11)
C12 C 0.5725(3) 0.2533(3) 0.40318(11)
H8 H 0.6319 0.2976 0.3692
C13 C 0.4765(3) 0.1692(3) 0.38828(12)
H9 H 0.4112 0.1271 0.4209
C14 C 0.4689(3) 0.1394(3) 0.32141(13)
C15 C 0.3684(5) -0.0104(4) 0.25593(15)
H10 H 0.3153 0.0756 0.2299
H11 H 0.3117 -0.0946 0.2601
H12 H 0.4771 -0.0490 0.2362
S2 S 0.41985(8) 0.80122(8) 0.07292(3)
F2 F 0.0173(2) 0.7373(3) -0.15661(7)
N2 N 0.2632(3) 0.6994(3) 0.17751(10)
O6 O 0.4597(3) 0.9094(3) 0.11096(9)
O7 O 0.5326(2) 0.7291(2) 0.02140(8)
O8 O 0.2613(2) 0.90078(19) 0.04585(8)
O9 O -0.1734(3) 0.7561(3) 0.20027(9)
O10 O -0.2810(2) 0.5696(2) 0.16929(8)
C16 C 0.3488(3) 0.6506(3) 0.12234(11)
C17 C 0.3811(3) 0.4994(3) 0.10157(13)
H13 H 0.4419 0.4722 0.0622
C18 C 0.3188(4) 0.3887(3) 0.14211(14)
H14 H 0.3362 0.2842 0.1303
C19 C 0.2314(4) 0.4350(4) 0.19953(14)
H15 H 0.1895 0.3622 0.2275
C20 C 0.2060(3) 0.5889(4) 0.21542(12)
H16 H 0.1459 0.6187 0.2547
C21 C 0.2052(3) 0.8458(3) -0.00618(11)
C22 C 0.2824(3) 0.8638(3) -0.06699(12)
H17 H 0.3758 0.9025 -0.0735
C23 C 0.2212(3) 0.8244(3) -0.11815(12)
H18 H 0.2723 0.8343 -0.1598
C24 C 0.0824(3) 0.7699(3) -0.10596(12)
C25 C 0.0036(3) 0.7504(3) -0.04604(11)
H19 H -0.0903 0.7127 -0.0404
C26 C 0.0656(3) 0.7878(3) 0.00702(11)
C27 C -0.0148(3) 0.7719(3) 0.07233(11)
H20 H 0.0118 0.8284 0.1032
C28 C -0.1211(3) 0.6856(3) 0.09170(11)
H21 H -0.1518 0.6283 0.0622
C29 C -0.1920(3) 0.6778(3) 0.15909(12)
C30 C -0.3451(4) 0.5396(4) 0.23497(14)
H22 H -0.2585 0.5100 0.2604
H23 H -0.4007 0.4550 0.2372
H24 H -0.4189 0.6338 0.2510
loop_
_geom_bond_atom_site_label_1
_geom_bond_atom_site_label_2
_geom_bond_site_symmetry_1
_geom_bond_site_symmetry_2
S1 O1 1_555 1_555
F1 C9 1_555 1_555
N1 C1 1_555 1_555
O2 S1 1_555 1_555
O3 S1 1_555 1_555
O4 C14 1_555 1_555
O5 C14 1_555 1_555
C1 S1 1_555 1_555
C2 C1 1_555 1_555
H1 C2 1_555 1_555
C3 C2 1_555 1_555
H2 C3 1_555 1_555
C4 C3 1_555 1_555
H3 C4 1_555 1_555
C5 N1 1_555 1_555
H4 C5 1_555 1_555
C6 O3 1_555 1_555
C7 C6 1_555 1_555
H5 C7 1_555 1_555
C8 C7 1_555 1_555
H6 C8 1_555 1_555
C9 C8 1_555 1_555
C10 C9 1_555 1_555
H7 C10 1_555 1_555
C11 C6 1_555 1_555
C12 C11 1_555 1_555
H8 C12 1_555 1_555
C13 C12 1_555 1_555
H9 C13 1_555 1_555
C14 C13 1_555 1_555
C15 O5 1_555 1_555
H10 C15 1_555 1_555
H11 C15 1_555 1_555
H12 C15 1_555 1_555
S2 O6 1_555 1_555
F2 C24 1_555 1_555
N2 C16 1_555 1_555
O7 S2 1_555 1_555
O8 S2 1_555 1_555
O9 C29 1_555 1_555
O10 C29 1_555 1_555
C16 S2 1_555 1_555
C17 C16 1_555 1_555
H13 C17 1_555 1_555
C18 C17 1_555 1_555
H14 C18 1_555 1_555
C19 C18 1_555 1_555
H15 C19 1_555 1_555
C20 N2 1_555 1_555
H16 C20 1_555 1_555
C21 O8 1_555 1_555
C22 C21 1_555 1_555
H17 C22 1_555 1_555
C23 C22 1_555 1_555
H18 C23 1_555 1_555
C24 C23 1_555 1_555
C25 C24 1_555 1_555
H19 C25 1_555 1_555
C26 C21 1_555 1_555
C27 C26 1_555 1_555
H20 C27 1_555 1_555
C28 C27 1_555 1_555
H21 C28 1_555 1_555
C29 C28 1_555 1_555
C30 O10 1_555 1_555
H22 C30 1_555 1_555
H23 C30 1_555 1_555
H24 C30 1_555 1_555
C4 C5 1_555 1_555
C10 C11 1_555 1_555
C19 C20 1_555 1_555
C25 C26 1_555 1_555

#END
