
#######################################################################
#
#                 Cambridge Crystallographic Data Centre
#                                CCDC 
#
#######################################################################
#
# If this CIF has been generated from an entry in the Cambridge 
# Structural Database, then it will include bibliographic, chemical, 
# crystal, experimental, refinement or atomic coordinate data resulting 
# from the CCDC's data processing and validation procedures.
#
#######################################################################

data_ZAQNIR
_chemical_formula_moiety         'C20 H23 N1 O6 S1'
_chemical_name_systematic        
'methyl 3-(3-t-butyl-5-methoxy-2-((pyridin-2-ylsulfonyl)oxy)phenyl)acrylate'
_symmetry_cell_setting           monoclinic
_symmetry_space_group_name_H-M   'P 21/c'
_symmetry_Int_Tables_number      14
_space_group_name_Hall           '-P 2ybc'
loop_
_symmetry_equiv_pos_site_id
_symmetry_equiv_pos_as_xyz
1 x,y,z
2 -x,1/2+y,1/2-z
3 -x,-y,-z
4 x,1/2-y,1/2+z
_cell_length_a                   8.2318(17)
_cell_length_b                   21.453(4)
_cell_length_c                   11.566(3)
_cell_angle_alpha                90
_cell_angle_beta                 94.866(4)
_cell_angle_gamma                90
_cell_volume                     2035.16
_exptl_crystal_colour            colorless
_exptl_crystal_description       block
_cell_formula_units_Z            4
loop_
_atom_site_label
_atom_site_type_symbol
_atom_site_fract_x
_atom_site_fract_y
_atom_site_fract_z
S1 S 0.81897(9) 0.07707(4) 0.70538(7)
N1 N 0.6941(3) 0.00011(12) 0.5504(2)
O1 O 0.6581(2) 0.07027(9) 0.77223(16)
O2 O 0.9586(3) 0.08001(11) 0.7868(2)
O3 O 0.7869(3) 0.12607(10) 0.62396(19)
O4 O 0.9891(3) -0.17956(11) 0.9160(3)
O5 O 0.7903(3) -0.15783(11) 0.7777(2)
O6 O 0.6631(3) 0.05667(10) 1.25112(17)
C1 C 0.8213(3) 0.00656(13) 0.6252(3)
C2 C 0.9497(4) -0.03382(15) 0.6384(3)
H1 H 1.0369 -0.0267 0.6934
C3 C 0.9456(4) -0.08523(16) 0.5679(3)
H2 H 1.0307 -0.1139 0.5738
C4 C 0.8175(4) -0.09362(16) 0.4905(3)
H3 H 0.8126 -0.1282 0.4420
C5 C 0.6930(4) -0.05068(17) 0.4833(3)
H4 H 0.6043 -0.0572 0.4294
C6 C 0.6626(3) 0.07011(12) 0.8959(2)
C7 C 0.6037(3) 0.12155(12) 0.9529(3)
C8 C 0.6073(3) 0.11650(13) 1.0745(3)
H5 H 0.5704 0.1499 1.1164
C9 C 0.6632(3) 0.06439(13) 1.1333(3)
C10 C 0.7174(3) 0.01383(13) 1.0746(2)
H6 H 0.7550 -0.0214 1.1152
C11 C 0.7161(3) 0.01543(12) 0.9549(3)
C12 C 0.7560(3) -0.04109(12) 0.8911(3)
H7 H 0.7054 -0.0461 0.8167
C13 C 0.8584(3) -0.08547(13) 0.9309(3)
H8 H 0.9205 -0.0800 1.0012
C14 C 0.8737(4) -0.14322(15) 0.8642(3)
C15 C 1.0145(5) -0.23909(19) 0.8613(5)
H9 H 1.0996 -0.2614 0.9056
H10 H 1.0454 -0.2324 0.7841
H11 H 0.9155 -0.2629 0.8580
C16 C 0.6159(4) 0.10767(15) 1.3176(3)
H12 H 0.6206 0.0959 1.3979
H13 H 0.5065 0.1197 1.2916
H14 H 0.6883 0.1420 1.3084
C17 C 0.5330(4) 0.18055(13) 0.8898(3)
C18 C 0.4582(5) 0.22589(16) 0.9740(3)
H15 H 0.5396 0.2375 1.0346
H16 H 0.3689 0.2059 1.0074
H17 H 0.4197 0.2625 0.9325
C19 C 0.6705(5) 0.21566(16) 0.8366(4)
H18 H 0.7542 0.2260 0.8964
H19 H 0.6280 0.2532 0.8003
H20 H 0.7156 0.1898 0.7796
C20 C 0.3968(5) 0.16324(18) 0.7965(4)
H21 H 0.3555 0.2004 0.7581
H22 H 0.3104 0.1426 0.8321
H23 H 0.4395 0.1359 0.7407
loop_
_geom_bond_atom_site_label_1
_geom_bond_atom_site_label_2
_geom_bond_site_symmetry_1
_geom_bond_site_symmetry_2
S1 O1 1_555 1_555
N1 C1 1_555 1_555
O1 C6 1_555 1_555
O2 S1 1_555 1_555
O3 S1 1_555 1_555
O4 C14 1_555 1_555
O5 C14 1_555 1_555
O6 C9 1_555 1_555
C1 S1 1_555 1_555
C2 C1 1_555 1_555
H1 C2 1_555 1_555
C3 C2 1_555 1_555
H2 C3 1_555 1_555
C4 C3 1_555 1_555
H3 C4 1_555 1_555
C5 N1 1_555 1_555
H4 C5 1_555 1_555
C6 C7 1_555 1_555
C7 C8 1_555 1_555
C8 H5 1_555 1_555
C9 C8 1_555 1_555
C10 C9 1_555 1_555
H6 C10 1_555 1_555
C11 C6 1_555 1_555
C12 C11 1_555 1_555
H7 C12 1_555 1_555
C13 C12 1_555 1_555
H8 C13 1_555 1_555
C14 C13 1_555 1_555
C15 O4 1_555 1_555
H9 C15 1_555 1_555
H10 C15 1_555 1_555
H11 C15 1_555 1_555
C16 O6 1_555 1_555
H12 C16 1_555 1_555
H13 C16 1_555 1_555
H14 C16 1_555 1_555
C17 C7 1_555 1_555
C18 C17 1_555 1_555
H15 C18 1_555 1_555
H16 C18 1_555 1_555
H17 C18 1_555 1_555
C19 C17 1_555 1_555
H18 C19 1_555 1_555
H19 C19 1_555 1_555
H20 C19 1_555 1_555
C20 C17 1_555 1_555
H21 C20 1_555 1_555
H22 C20 1_555 1_555
H23 C20 1_555 1_555
C4 C5 1_555 1_555
C10 C11 1_555 1_555

#END
