
#######################################################################
#
#                 Cambridge Crystallographic Data Centre
#                                CCDC 
#
#######################################################################
#
# If this CIF has been generated from an entry in the Cambridge 
# Structural Database, then it will include bibliographic, chemical, 
# crystal, experimental, refinement or atomic coordinate data resulting 
# from the CCDC's data processing and validation procedures.
#
#######################################################################

data_ZAQNIQ
_chemical_formula_moiety         'C12 H10 N2 O2'
_chemical_name_systematic        N-(3-Hydroxyphenyl)nicotinamide
_symmetry_cell_setting           monoclinic
_symmetry_space_group_name_H-M   'P 21/c'
_symmetry_Int_Tables_number      14
_space_group_name_Hall           '-P 2ybc'
loop_
_symmetry_equiv_pos_site_id
_symmetry_equiv_pos_as_xyz
1 x,y,z
2 -x,1/2+y,1/2-z
3 -x,-y,-z
4 x,1/2-y,1/2+z
_cell_length_a                   12.1741(13)
_cell_length_b                   5.2613(6)
_cell_length_c                   15.3113(16)
_cell_angle_alpha                90
_cell_angle_beta                 94.428(2)
_cell_angle_gamma                90
_cell_volume                     977.786
_exptl_crystal_colour            colorless
_exptl_crystal_description       block
_cell_formula_units_Z            4
loop_
_atom_site_label
_atom_site_type_symbol
_atom_site_fract_x
_atom_site_fract_y
_atom_site_fract_z
O1 O 0.10112(9) 0.0774(2) 0.89614(8)
H1 H 0.1369 -0.0179 0.9298
N1 N 0.46607(10) 0.4089(3) 0.86950(8)
C1 C 0.28388(12) 0.2438(3) 0.88031(10)
H2 H 0.3155 0.1113 0.9137
O2 O 0.51225(9) 0.8283(2) 0.87911(8)
C2 C 0.73908(12) 0.6822(3) 0.88082(10)
H3 H 0.7221 0.8299 0.8493
N2 N 0.79027(10) 0.2474(3) 0.97897(9)
C3 C 0.17038(12) 0.2524(3) 0.86264(10)
C4 C 0.53822(12) 0.6020(3) 0.88392(10)
C5 C 0.86888(13) 0.3961(3) 0.95025(10)
H4 H 0.9420 0.3493 0.9632
C6 C 0.19122(13) 0.6308(3) 0.77876(10)
H5 H 0.1596 0.7605 0.7441
C7 C 0.30484(13) 0.6289(3) 0.79759(10)
H6 H 0.3490 0.7560 0.7767
C8 C 0.65565(12) 0.5257(3) 0.90684(9)
C9 C 0.35048(12) 0.4310(3) 0.84863(9)
C10 C 0.84752(13) 0.6154(3) 0.90241(11)
H7 H 0.9048 0.7159 0.8851
C11 C 0.68548(12) 0.3122(3) 0.95639(10)
H8 H 0.6298 0.2087 0.9749
C12 C 0.12390(13) 0.4454(3) 0.81013(10)
H9 H 0.0482 0.4501 0.7962
H10 H 0.4898(13) 0.261(4) 0.8741(10)
loop_
_geom_bond_atom_site_label_1
_geom_bond_atom_site_label_2
_geom_bond_site_symmetry_1
_geom_bond_site_symmetry_2
O1 H1 1_555 1_555
N1 C4 1_555 1_555
C1 H2 1_555 1_555
O2 C4 1_555 1_555
C2 H3 1_555 1_555
N2 C5 1_555 1_555
C3 O1 1_555 1_555
C4 C8 1_555 1_555
C5 H4 1_555 1_555
C6 H5 1_555 1_555
C7 C6 1_555 1_555
H6 C7 1_555 1_555
C8 C2 1_555 1_555
C9 N1 1_555 1_555
C10 C2 1_555 1_555
H7 C10 1_555 1_555
C11 N2 1_555 1_555
H8 C11 1_555 1_555
C12 C3 1_555 1_555
H9 C12 1_555 1_555
H10 N1 1_555 1_555
C1 C3 1_555 1_555
C1 C9 1_555 1_555
C5 C10 1_555 1_555
C6 C12 1_555 1_555
C7 C9 1_555 1_555
C8 C11 1_555 1_555

#END
