
#######################################################################
#
#                 Cambridge Crystallographic Data Centre
#                                CCDC 
#
#######################################################################
#
# If this CIF has been generated from an entry in the Cambridge 
# Structural Database, then it will include bibliographic, chemical, 
# crystal, experimental, refinement or atomic coordinate data resulting 
# from the CCDC's data processing and validation procedures.
#
#######################################################################

data_ZAQPAL
_chemical_formula_moiety         'C23 H19 N1 O7 S1'
_chemical_name_systematic        
'dimethyl 2-(4-((pyridin-2-ylsulfonyl)oxy)biphenyl-3-yl)but-2-enedioate'
_symmetry_cell_setting           monoclinic
_symmetry_space_group_name_H-M   'P 21/c'
_symmetry_Int_Tables_number      14
_space_group_name_Hall           '-P 2ybc'
loop_
_symmetry_equiv_pos_site_id
_symmetry_equiv_pos_as_xyz
1 x,y,z
2 -x,1/2+y,1/2-z
3 -x,-y,-z
4 x,1/2-y,1/2+z
_cell_length_a                   7.747(9)
_cell_length_b                   11.177(14)
_cell_length_c                   24.84(3)
_cell_angle_alpha                90
_cell_angle_beta                 93.92(2)
_cell_angle_gamma                90
_cell_volume                     2145.82
_exptl_crystal_colour            colorless
_exptl_crystal_description       block
_cell_formula_units_Z            4
loop_
_atom_site_label
_atom_site_type_symbol
_atom_site_fract_x
_atom_site_fract_y
_atom_site_fract_z
S1 S 1.15406(14) 0.32466(11) 0.07628(6)
N1 N 0.8557(5) 0.4228(4) 0.05109(17)
O1 O 1.3159(5) 0.3698(4) 0.0934(3)
O2 O 1.1316(5) 0.2673(3) 0.02642(17)
O3 O 1.1074(4) 0.2319(3) 0.12275(14)
C1 C 0.6592(6) 0.3429(4) 0.17154(18)
O4 O 0.6547(7) 0.4199(4) 0.25971(16)
O5 O 0.9985(5) 0.3860(3) 0.22573(13)
O6 O 0.9613(7) 0.1998(3) 0.25096(18)
C2 C 0.7348(7) 0.5046(6) 0.0548(2)
H1 H 0.6325 0.4967 0.0333
C3 C 0.7529(9) 0.6009(5) 0.0890(3)
H2 H 0.6650 0.6574 0.0900
C4 C 0.8989(9) 0.6130(4) 0.1210(2)
H3 H 0.9123 0.6770 0.1448
C5 C 1.0277(6) 0.5298(4) 0.11812(18)
H4 H 1.1307 0.5349 0.1395
C6 C 0.9962(5) 0.4382(3) 0.08186(19)
C7 C 0.5167(11) 0.6239(5) 0.2289(3)
H5 H 0.4386 0.5960 0.2545
H6 H 0.4657 0.6906 0.2093
H7 H 0.6233 0.6485 0.2476
O7 O 0.5502(6) 0.5289(3) 0.19178(15)
C8 C 0.6225(6) 0.4331(4) 0.21308(19)
C9 C 1.1118(9) 0.4065(5) 0.2726(3)
H8 H 1.0465 0.4058 0.3040
H9 H 1.1674 0.4827 0.2696
H10 H 1.1979 0.3446 0.2756
C10 C 0.9276(6) 0.2801(3) 0.22063(19)
C11 C 0.7943(5) 0.2722(3) 0.17485(16)
C12 C 0.8155(5) 0.1726(3) 0.13651(16)
C13 C 0.6823(5) 0.0937(3) 0.12480(15)
H11 H 0.5776 0.1062 0.1401
C14 C 0.6981(5) -0.0043(3) 0.09089(15)
C15 C 0.8586(6) -0.0227(3) 0.06992(17)
H12 H 0.8747 -0.0893 0.0484
C16 C 0.9917(6) 0.0548(4) 0.08034(19)
H13 H 1.0967 0.0419 0.0652
C17 C 0.9717(5) 0.1516(3) 0.11301(18)
C18 C 0.5537(5) -0.0858(3) 0.07831(16)
C19 C 0.4361(6) -0.1138(4) 0.11721(18)
H14 H 0.4515 -0.0816 0.1517
C20 C 0.2980(7) -0.1889(5) 0.1042(2)
H15 H 0.2211 -0.2066 0.1303
C21 C 0.2722(6) -0.2370(4) 0.0545(2)
H16 H 0.1778 -0.2866 0.0462
C22 C 0.3888(7) -0.2114(4) 0.01577(19)
H17 H 0.3733 -0.2456 -0.0184
C23 C 0.5256(6) -0.1365(4) 0.02748(16)
H18 H 0.6011 -0.1193 0.0010
loop_
_geom_bond_atom_site_label_1
_geom_bond_atom_site_label_2
_geom_bond_site_symmetry_1
_geom_bond_site_symmetry_2
S1 O1 1_555 1_555
N1 C2 1_555 1_555
O2 S1 1_555 1_555
O3 S1 1_555 1_555
C1 C8 1_555 1_555
O4 C8 1_555 1_555
O5 C9 1_555 1_555
O6 C10 1_555 1_555
C2 H1 1_555 1_555
C3 C2 1_555 1_555
H2 C3 1_555 1_555
C4 C3 1_555 1_555
H3 C4 1_555 1_555
C5 C4 1_555 1_555
H4 C5 1_555 1_555
C6 S1 1_555 1_555
C7 H5 1_555 1_555
H6 C7 1_555 1_555
H7 C7 1_555 1_555
O7 C7 1_555 1_555
C8 O7 1_555 1_555
C9 H8 1_555 1_555
H9 C9 1_555 1_555
H10 C9 1_555 1_555
C10 O5 1_555 1_555
C11 C1 1_555 1_555
C12 C11 1_555 1_555
C13 C12 1_555 1_555
H11 C13 1_555 1_555
C14 C13 1_555 1_555
C15 C14 1_555 1_555
H12 C15 1_555 1_555
C16 C15 1_555 1_555
H13 C16 1_555 1_555
C17 O3 1_555 1_555
C18 C14 1_555 1_555
C19 C18 1_555 1_555
H14 C19 1_555 1_555
C20 C19 1_555 1_555
H15 C20 1_555 1_555
C21 C20 1_555 1_555
H16 C21 1_555 1_555
C22 C21 1_555 1_555
H17 C22 1_555 1_555
C23 C18 1_555 1_555
H18 C23 1_555 1_555
N1 C6 1_555 1_555
C5 C6 1_555 1_555
C10 C11 1_555 1_555
C12 C17 1_555 1_555
C16 C17 1_555 1_555
C22 C23 1_555 1_555

#END
