
#######################################################################
#
#                 Cambridge Crystallographic Data Centre
#                                CCDC 
#
#######################################################################
#
# If this CIF has been generated from an entry in the Cambridge 
# Structural Database, then it will include bibliographic, chemical, 
# crystal, experimental, refinement or atomic coordinate data resulting 
# from the CCDC's data processing and validation procedures.
#
#######################################################################

data_ZAQSAO
_chemical_formula_moiety         'C26 H21 N1 O3'
_chemical_name_systematic        
9,9-dimethyl-9,10-dihydrospiro[benzo[a]xanthene-12,3'-indole]-2',11(1'H,8H)-dione
_symmetry_cell_setting           monoclinic
_symmetry_space_group_name_H-M   'P 21/c'
_symmetry_Int_Tables_number      14
_space_group_name_Hall           '-P 2ybc'
loop_
_symmetry_equiv_pos_site_id
_symmetry_equiv_pos_as_xyz
1 x,y,z
2 -x,1/2+y,1/2-z
3 -x,-y,-z
4 x,1/2-y,1/2+z
_cell_length_a                   8.8039(7)
_cell_length_b                   24.123(2)
_cell_length_c                   10.0751(9)
_cell_angle_alpha                90
_cell_angle_beta                 108.403(3)
_cell_angle_gamma                90
_cell_volume                     2030.29
_exptl_crystal_colour            colorless
_exptl_crystal_description       block
_cell_formula_units_Z            4
loop_
_atom_site_label
_atom_site_type_symbol
_atom_site_fract_x
_atom_site_fract_y
_atom_site_fract_z
N1 N 0.1276(4) 0.55944(12) 0.0109(3)
H1 H 0.0949 0.5346 -0.0531
O1 O 0.2286(3) 0.64030(12) 0.5182(3)
O2 O -0.1218(4) 0.62996(14) 0.0535(3)
O3 O 0.0707(3) 0.51364(11) 0.1920(3)
C1 C 0.0888(5) 0.64908(15) 0.4127(4)
C2 C -0.0321(5) 0.67721(18) 0.4677(4)
H2 H 0.0224 0.7043 0.5377
H3 H -0.0798 0.6498 0.5128
C3 C -0.1658(5) 0.70648(16) 0.3520(4)
C4 C -0.2243(5) 0.66568(17) 0.2298(4)
H4 H -0.2770 0.6349 0.2592
H5 H -0.3035 0.6842 0.1533
C5 C -0.0943(5) 0.64282(16) 0.1763(4)
C6 C 0.0669(4) 0.63343(15) 0.2799(4)
C7 C 0.1981(4) 0.60670(15) 0.2293(4)
C8 C 0.3464(4) 0.59393(14) 0.3572(4)
C9 C 0.3528(5) 0.61178(15) 0.4878(4)
C10 C 0.4841(5) 0.60273(17) 0.6087(5)
H6 H 0.4813 0.6153 0.6951
C11 C 0.6150(5) 0.57544(17) 0.5983(4)
H7 H 0.7020 0.5695 0.6781
C12 C 0.6203(5) 0.55595(16) 0.4671(4)
C13 C 0.4864(5) 0.56520(14) 0.3446(4)
C14 C 0.5004(5) 0.54524(16) 0.2162(4)
H8 H 0.4155 0.5503 0.1343
C15 C 0.6359(5) 0.51860(17) 0.2095(5)
H9 H 0.6411 0.5063 0.1235
C16 C 0.7657(5) 0.50976(18) 0.3296(5)
H10 H 0.8566 0.4916 0.3239
C17 C 0.7583(5) 0.52781(17) 0.4549(5)
H11 H 0.8451 0.5218 0.5348
C18 C 0.1235(4) 0.55367(16) 0.1447(4)
C19 C 0.1916(5) 0.61092(15) -0.0093(4)
C20 C 0.2366(5) 0.64101(15) 0.1146(4)
C21 C 0.3069(5) 0.69226(16) 0.1212(5)
H12 H 0.3349 0.7128 0.2035
C22 C 0.3358(6) 0.71309(17) 0.0013(5)
H13 H 0.3845 0.7475 0.0041
C23 C 0.2915(6) 0.68229(17) -0.1215(5)
H14 H 0.3111 0.6965 -0.2004
C24 C 0.2192(5) 0.63117(16) -0.1291(4)
H15 H 0.1898 0.6108 -0.2117
C25 C -0.3036(6) 0.7222(2) 0.4079(5)
H16 H -0.3467 0.6893 0.4359
H17 H -0.3861 0.7408 0.3359
H18 H -0.2641 0.7464 0.4870
C26 C -0.0998(6) 0.75966(17) 0.3070(5)
H19 H -0.0678 0.7850 0.3844
H20 H -0.1812 0.7765 0.2308
H21 H -0.0090 0.7508 0.2777
loop_
_geom_bond_atom_site_label_1
_geom_bond_atom_site_label_2
_geom_bond_site_symmetry_1
_geom_bond_site_symmetry_2
N1 H1 1_555 1_555
O1 C1 1_555 1_555
O2 C5 1_555 1_555
O3 C18 1_555 1_555
C1 C2 1_555 1_555
C2 H2 1_555 1_555
H3 C2 1_555 1_555
C3 C2 1_555 1_555
C4 C3 1_555 1_555
H4 C4 1_555 1_555
H5 C4 1_555 1_555
C5 C4 1_555 1_555
C6 C1 1_555 1_555
C7 C6 1_555 1_555
C8 C7 1_555 1_555
C9 O1 1_555 1_555
C10 C9 1_555 1_555
H6 C10 1_555 1_555
C11 C10 1_555 1_555
H7 C11 1_555 1_555
C12 C11 1_555 1_555
C13 C8 1_555 1_555
C14 C13 1_555 1_555
H8 C14 1_555 1_555
C15 C14 1_555 1_555
H9 C15 1_555 1_555
C16 C15 1_555 1_555
H10 C16 1_555 1_555
C17 C12 1_555 1_555
H11 C17 1_555 1_555
C18 N1 1_555 1_555
C19 N1 1_555 1_555
C20 C7 1_555 1_555
C21 C20 1_555 1_555
H12 C21 1_555 1_555
C22 C21 1_555 1_555
H13 C22 1_555 1_555
C23 C22 1_555 1_555
H14 C23 1_555 1_555
C24 C19 1_555 1_555
H15 C24 1_555 1_555
C25 C3 1_555 1_555
H16 C25 1_555 1_555
H17 C25 1_555 1_555
H18 C25 1_555 1_555
C26 C3 1_555 1_555
H19 C26 1_555 1_555
H20 C26 1_555 1_555
H21 C26 1_555 1_555
C5 C6 1_555 1_555
C7 C18 1_555 1_555
C8 C9 1_555 1_555
C12 C13 1_555 1_555
C16 C17 1_555 1_555
C19 C20 1_555 1_555
C23 C24 1_555 1_555

#END
