
#######################################################################
#
#                 Cambridge Crystallographic Data Centre
#                                CCDC 
#
#######################################################################
#
# If this CIF has been generated from an entry in the Cambridge 
# Structural Database, then it will include bibliographic, chemical, 
# crystal, experimental, refinement or atomic coordinate data resulting 
# from the CCDC's data processing and validation procedures.
#
#######################################################################

data_ZAQVOE
_chemical_formula_moiety         'C16 H22 Cl1 N1 S1'
_chemical_name_systematic        
4'-tert-Butyl-5-chloro-3H-spiro[1,3-benzothiazole-2,1'-cyclohexane]
_symmetry_cell_setting           monoclinic
_symmetry_space_group_name_H-M   'P 21/c'
_symmetry_Int_Tables_number      14
_space_group_name_Hall           '-P 2ybc'
loop_
_symmetry_equiv_pos_site_id
_symmetry_equiv_pos_as_xyz
1 x,y,z
2 -x,1/2+y,1/2-z
3 -x,-y,-z
4 x,1/2-y,1/2+z
_cell_length_a                   15.2810(18)
_cell_length_b                   8.9830(8)
_cell_length_c                   11.8750(13)
_cell_angle_alpha                90
_cell_angle_beta                 109.580(3)
_cell_angle_gamma                90
_cell_volume                     1535.81
_exptl_crystal_colour            colorless
_exptl_crystal_description       prism
_chemical_melting_point          '453-455 K'
_cell_formula_units_Z            4
loop_
_atom_site_label
_atom_site_type_symbol
_atom_site_fract_x
_atom_site_fract_y
_atom_site_fract_z
Cl1 Cl -0.35486(5) 0.80459(8) 0.13722(7)
S1 S 0.02827(4) 0.69814(6) 0.07426(5)
N1 N -0.00626(14) 0.8895(2) 0.2213(2)
C1 C -0.08493(14) 0.7159(2) 0.07911(17)
C2 C -0.16334(16) 0.6409(2) 0.0125(2)
C3 C -0.24750(16) 0.6684(2) 0.0286(2)
C4 C -0.25028(16) 0.7710(2) 0.1132(2)
C5 C -0.17272(16) 0.8482(2) 0.1807(2)
C6 C -0.08920(15) 0.8210(2) 0.16337(18)
C7 C 0.07535(15) 0.8422(2) 0.1936(2)
C8 C 0.11774(16) 0.9705(2) 0.1463(2)
C9 C 0.20566(15) 0.9285(2) 0.1218(2)
C10 C 0.27931(14) 0.8647(2) 0.23261(18)
C11 C 0.23620(15) 0.7316(2) 0.27578(19)
C12 C 0.14820(15) 0.7730(2) 0.30136(19)
C13 C 0.37389(16) 0.8291(2) 0.2176(2)
C14 C 0.4048(2) 0.9596(3) 0.1572(3)
C15 C 0.44715(18) 0.8047(3) 0.3408(2)
C16 C 0.36933(18) 0.6896(3) 0.1415(2)
H1 H -0.0005(17) 0.955(2) 0.2742(16)
H2 H -0.16000 0.57120 -0.04380
H3 H -0.30100 0.61850 -0.01690
H4 H -0.17650 0.91750 0.23700
H5 H 0.07240 1.00700 0.07300
H6 H 0.13160 1.05100 0.20410
H7 H 0.23040 1.01600 0.09520
H8 H 0.19090 0.85550 0.05810
H9 H 0.29130 0.94100 0.29500
H10 H 0.22180 0.65430 0.21530
H11 H 0.28120 0.69160 0.34790
H12 H 0.12260 0.68450 0.32520
H13 H 0.16360 0.84290 0.36740
H14 H 0.46750 0.94360 0.15950
H15 H 0.40160 1.05020 0.19850
H16 H 0.36470 0.96690 0.07550
H17 H 0.50660 0.78790 0.33200
H18 H 0.43040 0.71970 0.37820
H19 H 0.45040 0.89120 0.38960
H20 H 0.31930 0.69930 0.06700
H21 H 0.35900 0.60370 0.18350
H22 H 0.42680 0.67840 0.12620
loop_
_geom_bond_atom_site_label_1
_geom_bond_atom_site_label_2
_geom_bond_site_symmetry_1
_geom_bond_site_symmetry_2
Cl1 C4 1_555 1_555
S1 C1 1_555 1_555
N1 C6 1_555 1_555
C1 C2 1_555 1_555
C2 C3 1_555 1_555
C3 C4 1_555 1_555
C4 C5 1_555 1_555
C5 C6 1_555 1_555
C6 C1 1_555 1_555
C7 S1 1_555 1_555
C8 C7 1_555 1_555
C9 C8 1_555 1_555
C10 C9 1_555 1_555
C11 C10 1_555 1_555
C12 C7 1_555 1_555
C13 C10 1_555 1_555
C14 C13 1_555 1_555
C15 C13 1_555 1_555
C16 C13 1_555 1_555
H1 N1 1_555 1_555
H2 C2 1_555 1_555
H3 C3 1_555 1_555
H4 C5 1_555 1_555
H5 C8 1_555 1_555
H6 C8 1_555 1_555
H7 C9 1_555 1_555
H8 C9 1_555 1_555
H9 C10 1_555 1_555
H10 C11 1_555 1_555
H11 C11 1_555 1_555
H12 C12 1_555 1_555
H13 C12 1_555 1_555
H14 C14 1_555 1_555
H15 C14 1_555 1_555
H16 C14 1_555 1_555
H17 C15 1_555 1_555
H18 C15 1_555 1_555
H19 C15 1_555 1_555
H20 C16 1_555 1_555
H21 C16 1_555 1_555
H22 C16 1_555 1_555
N1 C7 1_555 1_555
C11 C12 1_555 1_555

#END
