
#######################################################################
#
#                 Cambridge Crystallographic Data Centre
#                                CCDC 
#
#######################################################################
#
# If this CIF has been generated from an entry in the Cambridge 
# Structural Database, then it will include bibliographic, chemical, 
# crystal, experimental, refinement or atomic coordinate data resulting 
# from the CCDC's data processing and validation procedures.
#
#######################################################################

data_ZAQWOF
_chemical_formula_moiety         'C12 H28 P1 1+,C18 H1 B1 F15 O1 1-'
_chemical_name_systematic        
'Tri-t-butylphosphonium hydroxytris(pentafluorophenyl)borate'
_symmetry_cell_setting           triclinic
_symmetry_space_group_name_H-M   'P -1'
_symmetry_Int_Tables_number      2
_space_group_name_Hall           '-P 1'
loop_
_symmetry_equiv_pos_site_id
_symmetry_equiv_pos_as_xyz
1 x,y,z
2 -x,-y,-z
_cell_length_a                   9.798(2)
_cell_length_b                   12.042(2)
_cell_length_c                   15.389(3)
_cell_angle_alpha                112.31(3)
_cell_angle_beta                 94.51(3)
_cell_angle_gamma                108.93(3)
_cell_volume                     1546.12
_exptl_crystal_colour            colorless
_exptl_crystal_description       prism
_cell_formula_units_Z            2
loop_
_atom_site_label
_atom_site_type_symbol
_atom_site_fract_x
_atom_site_fract_y
_atom_site_fract_z
C1 C 0.23991(17) 0.30327(14) 0.67250(11)
C2 C 0.33984(17) 0.36491(15) 0.63024(11)
C3 C 0.37910(19) 0.30153(17) 0.54731(12)
C4 C 0.3198(2) 0.16833(17) 0.50170(11)
C5 C 0.22222(19) 0.10115(15) 0.54084(12)
C6 C 0.18568(18) 0.16856(15) 0.62327(11)
C7 C -0.00162(17) 0.30725(14) 0.73956(10)
C8 C -0.08453(17) 0.32198(14) 0.67075(11)
C9 C -0.23652(18) 0.26740(15) 0.64192(11)
C10 C -0.31631(18) 0.19121(16) 0.68202(12)
C11 C -0.24162(19) 0.17148(16) 0.74982(12)
C12 C -0.08921(18) 0.22759(15) 0.77625(11)
C13 C 0.25420(17) 0.37488(14) 0.86700(11)
C14 C 0.22187(18) 0.44094(15) 0.95346(11)
C15 C 0.2796(2) 0.45011(17) 1.04117(12)
C16 C 0.37549(19) 0.39040(18) 1.04639(12)
C17 C 0.41270(18) 0.32459(16) 0.96440(13)
C18 C 0.35269(18) 0.31783(15) 0.87707(11)
F1 F 0.40912(11) 0.49630(8) 0.67088(7)
F2 F 0.47413(12) 0.36859(11) 0.50949(8)
F3 F 0.35817(14) 0.10532(11) 0.42120(7)
F4 F 0.16501(13) -0.02981(9) 0.49855(7)
F5 F 0.09291(11) 0.09601(8) 0.65966(7)
F6 F -0.01457(10) 0.39236(9) 0.62464(7)
F7 F -0.30771(11) 0.28541(11) 0.57324(8)
F8 F -0.46452(11) 0.13439(11) 0.65281(8)
F9 F -0.31768(12) 0.09451(11) 0.78874(8)
F10 F -0.02586(11) 0.19765(10) 0.84141(7)
F11 F 0.12531(11) 0.49906(10) 0.95367(7)
F12 F 0.24301(13) 0.51617(12) 1.12182(7)
F13 F 0.43409(12) 0.39742(12) 1.13126(8)
F14 F 0.51001(12) 0.26803(10) 0.96855(8)
F15 F 0.39801(12) 0.25147(10) 0.80060(7)
B1 B 0.1813(2) 0.37833(16) 0.76764(12)
O1 O 0.21571(15) 0.51498(10) 0.78731(8)
H28 H 0.304(3) 0.549(2) 0.7996(15)
C19 C 0.8368(2) 0.14093(16) 0.09712(12)
C20 C 0.9725(2) 0.1684(2) 0.05404(14)
H1 H 1.0453 0.1429 0.0805
H2 H 1.0168 0.2614 0.0703
H3 H 0.9424 0.1185 -0.0163
C21 C 0.7709(3) -0.00456(17) 0.07480(16)
H4 H 0.7464 -0.0570 0.0048
H5 H 0.6809 -0.0233 0.0994
H6 H 0.8436 -0.0258 0.1060
C22 C 0.7245(2) 0.1750(2) 0.04734(13)
H7 H 0.7639 0.2688 0.0660
H8 H 0.6308 0.1499 0.0672
H9 H 0.7072 0.1280 -0.0228
C23 C 0.7343(2) 0.20913(17) 0.29229(14)
C24 C 0.7288(3) 0.0981(2) 0.32003(18)
H10 H 0.6500 0.0829 0.3546
H11 H 0.8243 0.1218 0.3617
H12 H 0.7087 0.0187 0.2615
C25 C 0.5834(2) 0.1725(2) 0.22956(17)
H13 H 0.5591 0.0906 0.1724
H14 H 0.5872 0.2413 0.2094
H15 H 0.5072 0.1622 0.2667
C26 C 0.7618(2) 0.33412(19) 0.38274(14)
H16 H 0.6741 0.3231 0.4102
H17 H 0.7811 0.4070 0.3651
H18 H 0.8476 0.3519 0.4305
C27 C 1.0711(2) 0.27172(17) 0.29329(13)
C28 C 1.0933(3) 0.3432(2) 0.40278(14)
H19 H 1.1960 0.3669 0.4344
H20 H 1.0257 0.2863 0.4258
H21 H 1.0726 0.4220 0.4182
C29 C 1.1911(2) 0.3614(2) 0.26475(16)
H22 H 1.1724 0.4403 0.2759
H23 H 1.1889 0.3162 0.1963
H24 H 1.2887 0.3850 0.3038
C30 C 1.0909(2) 0.1425(2) 0.26836(17)
H25 H 1.0789 0.0978 0.1985
H26 H 1.0161 0.0876 0.2892
H27 H 1.1901 0.1597 0.3015
P1 P 0.88590(5) 0.24737(4) 0.22942(3)
H29 H 0.9035(16) 0.3605(13) 0.2343(10)
loop_
_geom_bond_atom_site_label_1
_geom_bond_atom_site_label_2
_geom_bond_site_symmetry_1
_geom_bond_site_symmetry_2
C1 C2 1_555 1_555
C2 C3 1_555 1_555
C3 C4 1_555 1_555
C4 C5 1_555 1_555
C5 C6 1_555 1_555
C6 C1 1_555 1_555
C7 C8 1_555 1_555
C8 C9 1_555 1_555
C9 C10 1_555 1_555
C10 C11 1_555 1_555
C11 C12 1_555 1_555
C12 C7 1_555 1_555
C13 C14 1_555 1_555
C14 C15 1_555 1_555
C15 C16 1_555 1_555
C16 C17 1_555 1_555
C17 C18 1_555 1_555
C18 C13 1_555 1_555
C19 C20 1_555 1_555
C20 H1 1_555 1_555
H2 C20 1_555 1_555
H3 C20 1_555 1_555
C21 C19 1_555 1_555
H4 C21 1_555 1_555
H5 C21 1_555 1_555
H6 C21 1_555 1_555
C22 C19 1_555 1_555
H7 C22 1_555 1_555
H8 C22 1_555 1_555
H9 C22 1_555 1_555
C23 C24 1_555 1_555
C24 H10 1_555 1_555
H11 C24 1_555 1_555
H12 C24 1_555 1_555
C25 C23 1_555 1_555
H13 C25 1_555 1_555
H14 C25 1_555 1_555
H15 C25 1_555 1_555
C26 C23 1_555 1_555
H16 C26 1_555 1_555
H17 C26 1_555 1_555
H18 C26 1_555 1_555
C27 C28 1_555 1_555
C28 H19 1_555 1_555
H20 C28 1_555 1_555
H21 C28 1_555 1_555
C29 C27 1_555 1_555
H22 C29 1_555 1_555
H23 C29 1_555 1_555
H24 C29 1_555 1_555
C30 C27 1_555 1_555
H25 C30 1_555 1_555
H26 C30 1_555 1_555
H27 C30 1_555 1_555
F1 C2 1_555 1_555
F2 C3 1_555 1_555
F3 C4 1_555 1_555
F4 C5 1_555 1_555
F5 C6 1_555 1_555
F6 C8 1_555 1_555
F7 C9 1_555 1_555
F8 C10 1_555 1_555
F9 C11 1_555 1_555
F10 C12 1_555 1_555
F11 C14 1_555 1_555
F12 C15 1_555 1_555
F13 C16 1_555 1_555
F14 C17 1_555 1_555
F15 C18 1_555 1_555
B1 C1 1_555 1_555
O1 B1 1_555 1_555
P1 C19 1_555 1_555
H28 O1 1_555 1_555
H29 P1 1_555 1_555
C7 B1 1_555 1_555
C13 B1 1_555 1_555
C23 P1 1_555 1_555
C27 P1 1_555 1_555

#END
