
#######################################################################
#
#                 Cambridge Crystallographic Data Centre
#                                CCDC 
#
#######################################################################
#
# If this CIF has been generated from an entry in the Cambridge 
# Structural Database, then it will include bibliographic, chemical, 
# crystal, experimental, refinement or atomic coordinate data resulting 
# from the CCDC's data processing and validation procedures.
#
#######################################################################

data_ZAQYEV
_chemical_formula_moiety         'C10 H12 N1 O2 1+,C10 H15 O4 S1 1-'
_chemical_name_systematic        
'(1,3aS,4,9bR)-Tetrahydro-cis-3H-(1)benzopyrano(4,3-c)isoxazole (+)-10-camphorsulfonate'
_symmetry_cell_setting           orthorhombic
_symmetry_space_group_name_H-M   'P 21 21 21'
_symmetry_Int_Tables_number      19
_space_group_name_Hall           'P 2ac 2ab'
loop_
_symmetry_equiv_pos_site_id
_symmetry_equiv_pos_as_xyz
1 x,y,z
2 1/2-x,-y,1/2+z
3 1/2+x,1/2-y,-z
4 -x,1/2+y,1/2-z
_cell_length_a                   7.225(1)
_cell_length_b                   9.635(1)
_cell_length_c                   29.888(3)
_cell_angle_alpha                90
_cell_angle_beta                 90
_cell_angle_gamma                90
_cell_volume                     2080.59
_exptl_crystal_colour            colorless
_cell_formula_units_Z            4
loop_
_atom_site_label
_atom_site_type_symbol
_atom_site_fract_x
_atom_site_fract_y
_atom_site_fract_z
S1 S 0.9195(2) 0.5418(1) 0.18356(4)
O1 O 0.7503(5) 0.4616(4) 0.1825(1)
O2 O 0.9036(5) 0.6617(3) 0.2138(1)
O3 O 1.0783(6) 0.4559(4) 0.1934(1)
O4 O 0.7434(7) 0.6571(6) 0.0500(1)
C1 C 0.9475(8) 0.6183(5) 0.1310(2)
C2 C 0.9856(8) 0.5293(6) 0.0900(2)
C3 C 0.877(1) 0.5835(7) 0.0494(2)
C4 C 0.974(1) 0.5240(8) 0.0086(2)
C5 C 1.127(1) 0.4379(8) 0.0293(2)
C6 C 1.184(1) 0.5261(7) 0.0700(2)
C7 C 0.935(1) 0.3727(7) 0.0915(2)
C8 C 1.040(1) 0.3091(7) 0.0510(2)
C9 C 1.255(1) 0.6714(9) 0.0579(2)
C10 C 1.329(1) 0.4565(9) 0.0999(2)
H1 H 1.227 0.418 0.009
H2 H 0.838 0.669 0.125
H3 H 1.049 0.681 0.134
H4 H 0.893 0.469 -0.009
H5 H 1.024 0.596 -0.010
H6 H 0.981 0.331 0.118
H7 H 0.808 0.357 0.089
H8 H 0.957 0.266 0.030
H9 H 1.132 0.245 0.059
H10 H 1.283 0.372 0.110
H11 H 1.438 0.440 0.082
H12 H 1.359 0.516 0.123
H13 H 1.373 0.662 0.043
H14 H 1.172 0.715 0.038
H15 H 1.270 0.724 0.084
O5 O 0.3217(6) 0.8063(4) 0.2201(1)
O6 O 0.5664(7) 0.6285(5) 0.3410(2)
N1 N 0.2119(6) 0.7467(4) 0.2548(1)
C11 C 0.500(1) 0.7380(6) 0.2207(2)
C12 C 0.5053(9) 0.6461(6) 0.2617(2)
C13 C 0.585(1) 0.7146(6) 0.3029(2)
C14 C 0.3022(8) 0.6144(5) 0.2700(2)
C15 C 0.2532(9) 0.5794(5) 0.3168(2)
C16 C 0.078(1) 0.5355(6) 0.3288(2)
C17 C 0.037(1) 0.4973(6) 0.3713(2)
C18 C 0.176(2) 0.4973(7) 0.4030(3)
C19 C 0.345(1) 0.5422(8) 0.3925(2)
C20 C 0.388(1) 0.5859(6) 0.3491(2)
H16 H 0.515 0.684 0.195
H17 H 0.596 0.805 0.223
H18 H 0.570 0.562 0.255
H19 H 0.524 0.801 0.307
H20 H 0.714 0.733 0.297
H21 H -0.018 0.531 0.307
H22 H -0.085 0.471 0.380
H23 H 0.151 0.465 0.433
H24 H 0.439 0.544 0.415
H25 H 0.263 0.541 0.251
H26 H 0.196 0.809 0.280
H27 H 0.087 0.728 0.244
loop_
_geom_bond_atom_site_label_1
_geom_bond_atom_site_label_2
_geom_bond_site_symmetry_1
_geom_bond_site_symmetry_2
S1 O1 1_555 1_555
O2 S1 1_555 1_555
O3 S1 1_555 1_555
O4 C3 1_555 1_555
C1 S1 1_555 1_555
C2 C1 1_555 1_555
C3 C2 1_555 1_555
C4 C3 1_555 1_555
C5 C4 1_555 1_555
C6 C2 1_555 1_555
C7 C2 1_555 1_555
C8 C5 1_555 1_555
C9 C6 1_555 1_555
C10 C6 1_555 1_555
H1 C5 1_555 1_555
H2 C1 1_555 1_555
H3 C1 1_555 1_555
H4 C4 1_555 1_555
H5 C4 1_555 1_555
H6 C7 1_555 1_555
H7 C7 1_555 1_555
H8 C8 1_555 1_555
H9 C8 1_555 1_555
H10 C10 1_555 1_555
H11 C10 1_555 1_555
H12 C10 1_555 1_555
H13 C9 1_555 1_555
H14 C9 1_555 1_555
H15 C9 1_555 1_555
O5 N1 1_555 1_555
O6 C13 1_555 1_555
N1 C14 1_555 1_555
C11 O5 1_555 1_555
C12 C11 1_555 1_555
C13 C12 1_555 1_555
C14 C12 1_555 1_555
C15 C14 1_555 1_555
C16 C15 1_555 1_555
C17 C16 1_555 1_555
C18 C17 1_555 1_555
C19 C18 1_555 1_555
C20 O6 1_555 1_555
H16 C11 1_555 1_555
H17 C11 1_555 1_555
H18 C12 1_555 1_555
H19 C13 1_555 1_555
H20 C13 1_555 1_555
H21 C16 1_555 1_555
H22 C17 1_555 1_555
H23 C18 1_555 1_555
H24 C19 1_555 1_555
H25 C14 1_555 1_555
H26 N1 1_555 1_555
H27 N1 1_555 1_555
C5 C6 1_555 1_555
C7 C8 1_555 1_555
C15 C20 1_555 1_555
C19 C20 1_555 1_555

#END
