
#######################################################################
#
#                 Cambridge Crystallographic Data Centre
#                                CCDC 
#
#######################################################################
#
# If this CIF has been generated from an entry in the Cambridge 
# Structural Database, then it will include bibliographic, chemical, 
# crystal, experimental, refinement or atomic coordinate data resulting 
# from the CCDC's data processing and validation procedures.
#
#######################################################################

data_ZAQZEY
_chemical_name_common            
Dibenzo[a,e]-17,18-bis(1-methylethylidene)pentacyclo[12.2.1.1$6,9!.0$2,13!.0$5,10!]octadeca-2(13),5(10),7,15-tetraene
_chemical_formula_moiety         'C32 H28'
_chemical_name_systematic        
25,26-Bis(propan-2-ylidene)heptacyclo[20.2.1.1^10,13^.0^2,21^.0^3,8^.0^9,14^.0^15,20^]hexacosa-2(21),3,5,7,9(14),11,15,17,19,23-decaene
_symmetry_cell_setting           triclinic
_symmetry_space_group_name_H-M   'P -1'
_symmetry_Int_Tables_number      2
_space_group_name_Hall           '-P 1'
loop_
_symmetry_equiv_pos_site_id
_symmetry_equiv_pos_as_xyz
1 x,y,z
2 -x,-y,-z
_cell_length_a                   9.3577(2)
_cell_length_b                   9.5500(3)
_cell_length_c                   12.6946(3)
_cell_angle_alpha                94.068(2)
_cell_angle_beta                 94.402(2)
_cell_angle_gamma                100.1620(10)
_cell_volume                     1109.24
_exptl_crystal_colour            colorless
_exptl_crystal_description       prism
_cell_formula_units_Z            2
loop_
_atom_site_label
_atom_site_type_symbol
_atom_site_fract_x
_atom_site_fract_y
_atom_site_fract_z
C1 C 0.51176(11) 0.54105(11) 0.17992(8)
C2 C 0.51490(12) 0.40789(12) 0.12654(8)
H1 H 0.4372 0.3305 0.1315
C3 C 0.62865(12) 0.38631(12) 0.06666(9)
H2 H 0.6276 0.2956 0.0303
C4 C 0.74406(12) 0.49844(13) 0.06037(9)
H3 H 0.8214 0.4856 0.0185
C5 C 0.74507(12) 0.62937(12) 0.11594(8)
H4 H 0.8257 0.7046 0.1134
C6 C 0.63010(11) 0.65370(11) 0.17583(8)
C7 C 0.64466(11) 0.79423(11) 0.23501(8)
C8 C 0.55457(11) 0.88949(11) 0.23640(8)
C9 C 0.41322(11) 0.88530(11) 0.17555(8)
C10 C 0.39865(12) 1.00158(12) 0.11612(9)
H5 H 0.4783 1.0791 0.1185
C11 C 0.27112(13) 1.00619(13) 0.05405(9)
H6 H 0.2650 1.0843 0.0126
C12 C 0.15202(13) 0.89528(13) 0.05307(9)
H7 H 0.0643 0.8969 0.0106
C13 C 0.16272(12) 0.78247(12) 0.11457(9)
H8 H 0.0798 0.7093 0.1160
C14 C 0.29252(11) 0.77331(11) 0.17483(8)
C15 C 0.29265(11) 0.64752(11) 0.23522(8)
C16 C 0.38385(11) 0.55264(11) 0.23830(8)
C17 C 0.31002(12) 0.42739(12) 0.29816(8)
H9 H 0.3744 0.3641 0.3282
C18 C 0.23755(12) 0.51417(12) 0.37755(8)
C19 C 0.15754(11) 0.58407(12) 0.29174(8)
H10 H 0.0945 0.6519 0.3163
C20 C 0.08048(12) 0.44649(13) 0.22486(9)
H11 H -0.0139 0.4310 0.1878
C21 C 0.17094(12) 0.35344(12) 0.22873(9)
H12 H 0.1532 0.2592 0.1951
C22 C 0.64166(12) 1.02883(12) 0.29767(8)
H13 H 0.5837 1.0990 0.3263
C23 C 0.73077(12) 0.95972(12) 0.37897(8)
C24 C 0.79219(11) 0.87001(12) 0.29476(8)
H14 H 0.8601 0.8074 0.3208
C25 C 0.85602(12) 0.99244(12) 0.22954(8)
H15 H 0.9429 0.9993 0.1946
C26 C 0.76665(12) 1.08699(12) 0.23115(9)
H16 H 0.7779 1.1737 0.1977
C27 C 0.24121(13) 0.52483(13) 0.48278(9)
C28 C 0.15625(15) 0.61803(15) 0.54365(10)
H17 H 0.0982 0.6642 0.4938
H18 H 0.2239 0.6912 0.5897
H19 H 0.0914 0.5594 0.5870
C29 C 0.33042(15) 0.44386(16) 0.55141(10)
H20 H 0.3817 0.3853 0.5065
H21 H 0.2660 0.3821 0.5932
H22 H 0.4016 0.5115 0.5993
C30 C 0.75090(13) 0.97426(13) 0.48432(9)
C31 C 0.67789(15) 1.07174(15) 0.55135(10)
H23 H 0.6169 1.1202 0.5054
H24 H 0.7522 1.1430 0.5938
H25 H 0.6170 1.0157 0.5985
C32 C 0.85020(15) 0.89543(15) 0.54657(10)
H26 H 0.8932 0.8342 0.4976
H27 H 0.7940 0.8365 0.5947
H28 H 0.9279 0.9644 0.5878
loop_
_geom_bond_atom_site_label_1
_geom_bond_atom_site_label_2
_geom_bond_site_symmetry_1
_geom_bond_site_symmetry_2
C1 C2 1_555 1_555
C2 H1 1_555 1_555
C3 C2 1_555 1_555
H2 C3 1_555 1_555
C4 C3 1_555 1_555
H3 C4 1_555 1_555
C5 C4 1_555 1_555
H4 C5 1_555 1_555
C6 C1 1_555 1_555
C7 C6 1_555 1_555
C8 C7 1_555 1_555
C9 C8 1_555 1_555
C10 C9 1_555 1_555
H5 C10 1_555 1_555
C11 C10 1_555 1_555
H6 C11 1_555 1_555
C12 C11 1_555 1_555
H7 C12 1_555 1_555
C13 C12 1_555 1_555
H8 C13 1_555 1_555
C14 C9 1_555 1_555
C15 C14 1_555 1_555
C16 C1 1_555 1_555
C17 C16 1_555 1_555
H9 C17 1_555 1_555
C18 C17 1_555 1_555
C19 C15 1_555 1_555
H10 C19 1_555 1_555
C20 C19 1_555 1_555
H11 C20 1_555 1_555
C21 C17 1_555 1_555
H12 C21 1_555 1_555
C22 C8 1_555 1_555
H13 C22 1_555 1_555
C23 C22 1_555 1_555
C24 C7 1_555 1_555
H14 C24 1_555 1_555
C25 C24 1_555 1_555
H15 C25 1_555 1_555
C26 C22 1_555 1_555
H16 C26 1_555 1_555
C27 C18 1_555 1_555
C28 C27 1_555 1_555
H17 C28 1_555 1_555
H18 C28 1_555 1_555
H19 C28 1_555 1_555
C29 C27 1_555 1_555
H20 C29 1_555 1_555
H21 C29 1_555 1_555
H22 C29 1_555 1_555
C30 C23 1_555 1_555
C31 C30 1_555 1_555
H23 C31 1_555 1_555
H24 C31 1_555 1_555
H25 C31 1_555 1_555
C32 C30 1_555 1_555
H26 C32 1_555 1_555
H27 C32 1_555 1_555
H28 C32 1_555 1_555
C5 C6 1_555 1_555
C13 C14 1_555 1_555
C15 C16 1_555 1_555
C18 C19 1_555 1_555
C20 C21 1_555 1_555
C23 C24 1_555 1_555
C25 C26 1_555 1_555

#END
