
#######################################################################
#
#                 Cambridge Crystallographic Data Centre
#                                CCDC 
#
#######################################################################
#
# If this CIF has been generated from an entry in the Cambridge 
# Structural Database, then it will include bibliographic, chemical, 
# crystal, experimental, refinement or atomic coordinate data resulting 
# from the CCDC's data processing and validation procedures.
#
#######################################################################

data_ZAQZUM01
_chemical_formula_moiety         'C24 H14 S6'
_chemical_name_systematic        \a-Hexathienyl
_symmetry_cell_setting           monoclinic
_symmetry_space_group_name_H-M   'P 21/a'
_symmetry_Int_Tables_number      14
_space_group_name_Hall           '-P 2yab'
loop_
_symmetry_equiv_pos_site_id
_symmetry_equiv_pos_as_xyz
1 x,y,z
2 1/2-x,1/2+y,-z
3 -x,-y,-z
4 1/2+x,1/2-y,z
_cell_length_a                   9.1404(7)
_cell_length_b                   5.6843(2)
_cell_length_c                   20.672(2)
_cell_angle_alpha                90
_cell_angle_beta                 97.78(1)
_cell_angle_gamma                90
_cell_volume                     1064.16
_cell_formula_units_Z            2
loop_
_atom_site_label
_atom_site_type_symbol
_atom_site_fract_x
_atom_site_fract_y
_atom_site_fract_z
S1 S 0.6612(3) 0.1625(4) 0.40809(12)
S2 S 0.46671(22) -0.1548(4) 0.22400(10)
S3 S 0.10229(22) 0.1537(4) 0.09188(10)
C1 C 0.7998(10) -0.0117(20) 0.4455(5)
C2 C 0.8166(10) -0.2073(19) 0.4090(5)
C3 C 0.7167(15) -0.224(3) 0.3486(6)
C4 C 0.6246(8) -0.0242(15) 0.3425(4)
C5 C 0.5084(8) 0.0331(13) 0.2901(4)
C6 C 0.4211(9) 0.2269(14) 0.2827(4)
C7 C 0.3175(9) 0.2247(15) 0.2261(4)
C8 C 0.3268(8) 0.0296(13) 0.1876(4)
C9 C 0.2413(8) -0.0330(14) 0.1276(4)
C10 C 0.2475(9) -0.2277(15) 0.0888(4)
C11 C 0.1445(9) -0.2270(15) 0.0317(4)
C12 C 0.0576(7) -0.0308(13) 0.0264(3)
H1 H 0.843(9) 0.037(17) 0.490(4)
H2 H 0.868(10) -0.338(17) 0.439(4)
H3 H 0.708(10) -0.344(18) 0.316(4)
H4 H 0.427(10) 0.338(17) 0.314(4)
H5 H 0.265(10) 0.319(18) 0.209(4)
H6 H 0.307(10) -0.350(17) 0.104(4)
H7 H 0.135(10) -0.346(17) 0.001(4)
C12B C -0.0576(7) 0.0308(13) -0.0264(3)
S3B S -0.10229(22) -0.1537(4) -0.09188(10)
C9B C -0.2413(8) 0.0330(14) -0.1276(4)
C8B C -0.3268(8) -0.0296(13) -0.1876(4)
S2B S -0.46671(22) 0.1548(4) -0.22400(10)
C5B C -0.5084(8) -0.0331(13) -0.2901(4)
C4B C -0.6246(8) 0.0242(15) -0.3425(4)
S1B S -0.6612(3) -0.1625(4) -0.40809(12)
C1B C -0.7998(10) 0.0117(20) -0.4455(5)
C2B C -0.8166(10) 0.2073(19) -0.4090(5)
C3B C -0.7167(15) 0.224(3) -0.3486(6)
H3B H -0.708(10) 0.344(18) -0.316(4)
H2B H -0.868(10) 0.338(17) -0.439(4)
H1B H -0.843(9) -0.037(17) -0.490(4)
C6B C -0.4211(9) -0.2269(14) -0.2827(4)
C7B C -0.3175(9) -0.2247(15) -0.2261(4)
H5B H -0.265(10) -0.319(18) -0.209(4)
H4B H -0.427(10) -0.338(17) -0.314(4)
C10B C -0.2475(9) 0.2277(15) -0.0888(4)
C11B C -0.1445(9) 0.2270(15) -0.0317(4)
H7B H -0.135(10) 0.346(17) -0.001(4)
H6B H -0.307(10) 0.350(17) -0.104(4)
loop_
_geom_bond_atom_site_label_1
_geom_bond_atom_site_label_2
_geom_bond_site_symmetry_1
_geom_bond_site_symmetry_2
S1 C1 1_555 1_555
S2 C5 1_555 1_555
S3 C9 1_555 1_555
C1 C2 1_555 1_555
C2 C3 1_555 1_555
C3 C4 1_555 1_555
C4 S1 1_555 1_555
C5 C4 1_555 1_555
C6 C5 1_555 1_555
C7 C6 1_555 1_555
C8 S2 1_555 1_555
C9 C8 1_555 1_555
C10 C9 1_555 1_555
C11 C10 1_555 1_555
C12 S3 1_555 1_555
H1 C1 1_555 1_555
H2 C2 1_555 1_555
H3 C3 1_555 1_555
H4 C6 1_555 1_555
H5 C7 1_555 1_555
H6 C10 1_555 1_555
H7 C11 1_555 1_555
C12B C12 1_555 1_555
S3B C12B 1_555 1_555
C9B S3B 1_555 1_555
C8B C9B 1_555 1_555
S2B C8B 1_555 1_555
C5B S2B 1_555 1_555
C4B C5B 1_555 1_555
S1B C4B 1_555 1_555
C1B S1B 1_555 1_555
C2B C1B 1_555 1_555
C3B C4B 1_555 1_555
H3B C3B 1_555 1_555
H2B C2B 1_555 1_555
H1B C1B 1_555 1_555
C6B C5B 1_555 1_555
C7B C8B 1_555 1_555
H5B C7B 1_555 1_555
H4B C6B 1_555 1_555
C10B C9B 1_555 1_555
C11B C12B 1_555 1_555
H7B C11B 1_555 1_555
H6B C10B 1_555 1_555
C7 C8 1_555 1_555
C11 C12 1_555 1_555
C2B C3B 1_555 1_555
C6B C7B 1_555 1_555
C10B C11B 1_555 1_555

#END
