
#######################################################################
#
#                 Cambridge Crystallographic Data Centre
#                                CCDC 
#
#######################################################################
#
# If this CIF has been generated from an entry in the Cambridge 
# Structural Database, then it will include bibliographic, chemical, 
# crystal, experimental, refinement or atomic coordinate data resulting 
# from the CCDC's data processing and validation procedures.
#
#######################################################################

data_ZAQZOJ
_chemical_formula_moiety         'C18 H14 Cl1 N1 O3'
_chemical_name_systematic        
5'-chloro-1'-methyl-3-phenyl-3H-spiro[furan-2,3'-indole]-2',5(1'H,4H)-dione
_symmetry_cell_setting           monoclinic
_symmetry_space_group_name_H-M   'P 21'
_symmetry_Int_Tables_number      4
_space_group_name_Hall           'P 2yb'
loop_
_symmetry_equiv_pos_site_id
_symmetry_equiv_pos_as_xyz
1 x,y,z
2 -x,1/2+y,-z
_cell_length_a                   9.020(4)
_cell_length_b                   10.237(4)
_cell_length_c                   9.318(4)
_cell_angle_alpha                90
_cell_angle_beta                 117.399(6)
_cell_angle_gamma                90
_cell_volume                     763.886
_exptl_crystal_colour            colorless
_exptl_crystal_description       PLATE
_cell_formula_units_Z            2
loop_
_atom_site_label
_atom_site_type_symbol
_atom_site_fract_x
_atom_site_fract_y
_atom_site_fract_z
Cl1 Cl -0.04974(17) 0.74994(12) 0.94998(18)
O1 O 0.4388(4) 0.2022(3) 0.8373(5)
O2 O 0.4891(4) 0.3904(3) 1.0898(4)
O3 O 0.7573(5) 0.3830(4) 1.2717(5)
N1 N 0.1802(6) 0.2992(4) 0.7146(6)
C1 C 0.3901(6) 0.4195(5) 0.9196(6)
C2 C 0.3435(7) 0.2920(4) 0.8220(7)
C3 C 0.1027(7) 0.4087(5) 0.7474(7)
C4 C 0.2224(6) 0.4786(5) 0.8760(6)
C5 C 0.1798(7) 0.5861(5) 0.9371(7)
H1 H 0.2621 0.6358 1.0229
C6 C 0.0126(7) 0.6192(5) 0.8692(7)
C7 C -0.1072(7) 0.5518(5) 0.7391(7)
H2 H -0.2207 0.5786 0.6930
C8 C -0.0626(7) 0.4442(5) 0.6749(7)
H3 H -0.1434 0.3976 0.5847
C9 C 0.6543(7) 0.4099(5) 1.1365(7)
C10 C 0.6787(7) 0.4624(5) 0.9983(7)
H4 H 0.7217 0.3936 0.9525
H5 H 0.7580 0.5366 1.0339
C11 C 0.5055(6) 0.5069(5) 0.8746(7)
H6 H 0.4913 0.5994 0.9003
C12 C 0.4575(6) 0.5003(5) 0.6965(7)
C13 C 0.3513(7) 0.5933(5) 0.5937(7)
H7 H 0.3126 0.6618 0.6366
C14 C 0.2996(7) 0.5887(6) 0.4274(7)
H8 H 0.2257 0.6532 0.3580
C15 C 0.3566(8) 0.4895(6) 0.3645(8)
H9 H 0.3218 0.4857 0.2516
C16 C 0.4638(7) 0.3966(6) 0.4657(7)
H10 H 0.5033 0.3290 0.4223
C17 C 0.5145(7) 0.4007(5) 0.6298(7)
H11 H 0.5884 0.3357 0.6984
C18 C 0.0955(8) 0.2057(6) 0.5847(8)
H12 H 0.1782 0.1580 0.5644
H13 H 0.0189 0.2522 0.4863
H14 H 0.0322 0.1440 0.6157
loop_
_geom_bond_atom_site_label_1
_geom_bond_atom_site_label_2
_geom_bond_site_symmetry_1
_geom_bond_site_symmetry_2
Cl1 C6 1_555 1_555
O1 C2 1_555 1_555
O2 C1 1_555 1_555
O3 C9 1_555 1_555
N1 C2 1_555 1_555
C1 C2 1_555 1_555
C3 N1 1_555 1_555
C4 C1 1_555 1_555
C5 C4 1_555 1_555
H1 C5 1_555 1_555
C6 C5 1_555 1_555
C7 C6 1_555 1_555
H2 C7 1_555 1_555
C8 C3 1_555 1_555
H3 C8 1_555 1_555
C9 O2 1_555 1_555
C10 C9 1_555 1_555
H4 C10 1_555 1_555
H5 C10 1_555 1_555
C11 C1 1_555 1_555
H6 C11 1_555 1_555
C12 C11 1_555 1_555
C13 C12 1_555 1_555
H7 C13 1_555 1_555
C14 C13 1_555 1_555
H8 C14 1_555 1_555
C15 C14 1_555 1_555
H9 C15 1_555 1_555
C16 C15 1_555 1_555
H10 C16 1_555 1_555
C17 C12 1_555 1_555
H11 C17 1_555 1_555
C18 N1 1_555 1_555
H12 C18 1_555 1_555
H13 C18 1_555 1_555
H14 C18 1_555 1_555
C3 C4 1_555 1_555
C7 C8 1_555 1_555
C10 C11 1_555 1_555
C16 C17 1_555 1_555

#END
