
#######################################################################
#
#                 Cambridge Crystallographic Data Centre
#                                CCDC 
#
#######################################################################
#
# If this CIF has been generated from an entry in the Cambridge 
# Structural Database, then it will include bibliographic, chemical, 
# crystal, experimental, refinement or atomic coordinate data resulting 
# from the CCDC's data processing and validation procedures.
#
#######################################################################

data_ZARCUQ
_chemical_formula_moiety         'C42 H30 S6,2(C2 H3 Cl3)'
_chemical_name_systematic        
'hexakis(Phenylthio)benzene bis(1,1,1-trichloroethane) clathrate'
_symmetry_cell_setting           rhombohedral
_symmetry_space_group_name_H-M   'R -3'
_symmetry_Int_Tables_number      148
_space_group_name_Hall           '-R 3'
loop_
_symmetry_equiv_pos_site_id
_symmetry_equiv_pos_as_xyz
1 x,y,z
2 -y,x-y,z
3 -x+y,-x,z
4 1/3+x,2/3+y,2/3+z
5 1/3-y,2/3+x-y,2/3+z
6 1/3-x+y,2/3-x,2/3+z
7 2/3+x,1/3+y,1/3+z
8 2/3-y,1/3+x-y,1/3+z
9 2/3-x+y,1/3-x,1/3+z
10 -x,-y,-z
11 y,-x+y,-z
12 x-y,x,-z
13 2/3-x,1/3-y,1/3-z
14 2/3+y,1/3-x+y,1/3-z
15 2/3+x-y,1/3+x,1/3-z
16 1/3-x,2/3-y,2/3-z
17 1/3+y,2/3-x+y,2/3-z
18 1/3+x-y,2/3+x,2/3-z
_cell_length_a                   14.203(2)
_cell_length_b                   14.203(2)
_cell_length_c                   20.571(5)
_cell_angle_alpha                90
_cell_angle_beta                 90
_cell_angle_gamma                120
_cell_volume                     3593.74
_chemical_melting_point          183deg.C
_cell_formula_units_Z            3
loop_
_atom_site_label
_atom_site_type_symbol
_atom_site_fract_x
_atom_site_fract_y
_atom_site_fract_z
S1 S -0.25771(3) -0.14367(3) 0.00376(2)
C1 C -0.11414(10) -0.06464(11) 0.00085(6)
C2 C -0.28150(12) -0.22606(11) 0.07348(7)
C3 C -0.21217(13) -0.19564(14) 0.12672(7)
C4 C -0.24150(16) -0.26323(16) 0.18068(8)
C5 C -0.33999(17) -0.35851(18) 0.18262(10)
C6 C -0.40951(17) -0.38858(17) 0.12962(11)
C7 C -0.37993(14) -0.32293(14) 0.07475(9)
H1 H -0.1421(15) -0.1239(14) 0.1261(9)
H2 H -0.1920(17) -0.2460(17) 0.2169(10)
H3 H -0.3623(19) -0.4039(18) 0.2219(10)
H4 H -0.4848(24) -0.4589(20) 0.1292(11)
H5 H -0.4260(16) -0.3463(18) 0.0346(10)
C1J C -0.06464(11) 0.04950(15) -0.00085(6)
S1J S -0.14367(3) 0.11404(4) -0.00376(2)
C2J C -0.22606(11) 0.05544(16) -0.07348(7)
C3J C -0.19564(14) 0.01653(19) -0.12672(7)
C4J C -0.26323(16) -0.02173(23) -0.18068(8)
C5J C -0.35851(18) -0.01852(25) -0.18262(10)
C6J C -0.38858(17) 0.02093(24) -0.12962(11)
C7J C -0.32293(14) 0.05700(20) -0.07475(9)
H5J H -0.3463(18) 0.0797(24) -0.0346(10)
H4J H -0.4589(20) 0.0259(31) -0.1292(11)
H3J H -0.4039(18) -0.0416(26) -0.2219(10)
H2J H -0.2460(17) -0.0540(24) -0.2169(10)
H1J H -0.1239(14) 0.0182(21) -0.1261(9)
C1B C 0.04950(15) 0.11414(10) 0.00085(6)
S1B S 0.11404(4) 0.25771(3) 0.00376(2)
C2B C 0.05544(16) 0.28150(12) 0.07348(7)
C3B C 0.01653(19) 0.21217(13) 0.12672(7)
C4B C -0.02173(23) 0.24150(16) 0.18068(8)
C5B C -0.01852(25) 0.33999(17) 0.18262(10)
C6B C 0.02093(24) 0.40951(17) 0.12962(11)
C7B C 0.05700(20) 0.37993(14) 0.07475(9)
H5B H 0.0797(24) 0.4260(16) 0.0346(10)
H4B H 0.0259(31) 0.4848(24) 0.1292(11)
H3B H -0.0416(26) 0.3623(19) 0.2219(10)
H2B H -0.0540(24) 0.1920(17) 0.2169(10)
H1B H 0.0182(21) 0.1421(15) 0.1261(9)
C1I C 0.11414(10) 0.06464(11) -0.00085(6)
S1I S 0.25771(3) 0.14367(3) -0.00376(2)
C2I C 0.28150(12) 0.22606(11) -0.07348(7)
C3I C 0.21217(13) 0.19564(14) -0.12672(7)
C4I C 0.24150(16) 0.26323(16) -0.18068(8)
C5I C 0.33999(17) 0.35851(18) -0.18262(10)
C6I C 0.40951(17) 0.38858(17) -0.12962(11)
C7I C 0.37993(14) 0.32293(14) -0.07475(9)
H5I H 0.4260(16) 0.3463(18) -0.0346(10)
H4I H 0.4848(24) 0.4589(20) -0.1292(11)
H3I H 0.3623(19) 0.4039(18) -0.2219(10)
H2I H 0.1920(17) 0.2460(17) -0.2169(10)
H1I H 0.1421(15) 0.1239(14) -0.1261(9)
C1A C 0.06464(11) -0.04950(15) 0.00085(6)
S1A S 0.14367(3) -0.11404(4) 0.00376(2)
C2A C 0.22606(11) -0.05544(16) 0.07348(7)
C3A C 0.19564(14) -0.01653(19) 0.12672(7)
C4A C 0.26323(16) 0.02173(23) 0.18068(8)
C5A C 0.35851(18) 0.01852(25) 0.18262(10)
C6A C 0.38858(17) -0.02093(24) 0.12962(11)
C7A C 0.32293(14) -0.05700(20) 0.07475(9)
H5A H 0.3463(18) -0.0797(24) 0.0346(10)
H4A H 0.4589(20) -0.0259(31) 0.1292(11)
H3A H 0.4039(18) 0.0416(26) 0.2219(10)
H2A H 0.2460(17) 0.0540(24) 0.2169(10)
H1A H 0.1239(14) -0.0182(21) 0.1261(9)
C1K C -0.04950(15) -0.11414(10) -0.00085(6)
S1K S -0.11404(4) -0.25771(3) -0.00376(2)
C2K C -0.05544(16) -0.28150(12) -0.07348(7)
C3K C -0.01653(19) -0.21217(13) -0.12672(7)
C4K C 0.02173(23) -0.24150(16) -0.18068(8)
C5K C 0.01852(25) -0.33999(17) -0.18262(10)
C6K C -0.02093(24) -0.40951(17) -0.12962(11)
C7K C -0.05700(20) -0.37993(14) -0.07475(9)
H5K H -0.0797(24) -0.4260(16) -0.0346(10)
H4K H -0.0259(31) -0.4848(24) -0.1292(11)
H3K H 0.0416(26) -0.3623(19) -0.2219(10)
H2K H 0.0540(24) -0.1920(17) -0.2169(10)
H1K H -0.0182(21) -0.1421(15) -0.1261(9)
C8 C 0.00000 0.00000 0.33994(22)
C9 C 0.00000 0.00000 0.41249(24)
Cl1 Cl -0.12005(5) -0.00706(5) 0.31030(4)
H6 H 0.0645(22) 0.0069(27) 0.4284(12)
H6A H -0.0069(27) 0.0576(35) 0.4284(12)
H6B H -0.0576(35) -0.0645(22) 0.4284(12)
Cl1A Cl 0.00706(5) -0.11299(7) 0.31030(4)
Cl1B Cl 0.11299(7) 0.12005(5) 0.31030(4)
loop_
_geom_bond_atom_site_label_1
_geom_bond_atom_site_label_2
_geom_bond_site_symmetry_1
_geom_bond_site_symmetry_2
S1 C1 1_555 1_555
C1 C1J 1_555 1_555
C2 S1 1_555 1_555
C3 C2 1_555 1_555
C4 C3 1_555 1_555
C5 C4 1_555 1_555
C6 C5 1_555 1_555
C7 C2 1_555 1_555
H1 C3 1_555 1_555
H2 C4 1_555 1_555
H3 C5 1_555 1_555
H4 C6 1_555 1_555
H5 C7 1_555 1_555
C8 C9 1_555 1_555
C9 H6 1_555 1_555
Cl1 C8 1_555 1_555
C1J S1J 1_555 1_555
S1J C2J 1_555 1_555
C2J C3J 1_555 1_555
C3J C4J 1_555 1_555
C4J C5J 1_555 1_555
C5J C6J 1_555 1_555
C6J C7J 1_555 1_555
C7J C2J 1_555 1_555
H5J C7J 1_555 1_555
H4J C6J 1_555 1_555
H3J C5J 1_555 1_555
H2J C4J 1_555 1_555
H1J C3J 1_555 1_555
C1B C1J 1_555 1_555
S1B C1B 1_555 1_555
C2B S1B 1_555 1_555
C3B C2B 1_555 1_555
C4B C3B 1_555 1_555
C5B C4B 1_555 1_555
C6B C5B 1_555 1_555
C7B C2B 1_555 1_555
H5B C7B 1_555 1_555
H4B C6B 1_555 1_555
H3B C5B 1_555 1_555
H2B C4B 1_555 1_555
H1B C3B 1_555 1_555
C1I C1B 1_555 1_555
S1I C1I 1_555 1_555
C2I S1I 1_555 1_555
C3I C2I 1_555 1_555
C4I C3I 1_555 1_555
C5I C4I 1_555 1_555
C6I C5I 1_555 1_555
C7I C2I 1_555 1_555
H5I C7I 1_555 1_555
H4I C6I 1_555 1_555
H3I C5I 1_555 1_555
H2I C4I 1_555 1_555
H1I C3I 1_555 1_555
C1A C1I 1_555 1_555
S1A C1A 1_555 1_555
C2A S1A 1_555 1_555
C3A C2A 1_555 1_555
C4A C3A 1_555 1_555
C5A C4A 1_555 1_555
C6A C5A 1_555 1_555
C7A C2A 1_555 1_555
H5A C7A 1_555 1_555
H4A C6A 1_555 1_555
H3A C5A 1_555 1_555
H2A C4A 1_555 1_555
H1A C3A 1_555 1_555
C1K C1 1_555 1_555
S1K C1K 1_555 1_555
C2K S1K 1_555 1_555
C3K C2K 1_555 1_555
C4K C3K 1_555 1_555
C5K C4K 1_555 1_555
C6K C5K 1_555 1_555
C7K C2K 1_555 1_555
H5K C7K 1_555 1_555
H4K C6K 1_555 1_555
H3K C5K 1_555 1_555
H2K C4K 1_555 1_555
H1K C3K 1_555 1_555
H6A C9 1_555 1_555
H6B C9 1_555 1_555
Cl1A C8 1_555 1_555
Cl1B C8 1_555 1_555
C6 C7 1_555 1_555
C6B C7B 1_555 1_555
C6I C7I 1_555 1_555
C1A C1K 1_555 1_555
C6A C7A 1_555 1_555
C6K C7K 1_555 1_555

#END
