
#######################################################################
#
#                 Cambridge Crystallographic Data Centre
#                                CCDC 
#
#######################################################################
#
# If this CIF has been generated from an entry in the Cambridge 
# Structural Database, then it will include bibliographic, chemical, 
# crystal, experimental, refinement or atomic coordinate data resulting 
# from the CCDC's data processing and validation procedures.
#
#######################################################################

data_ZARDAX
_chemical_formula_moiety         'C42 H30 S6,2(C1 Br1 Cl3)'
_chemical_name_systematic        
'hexakis(Phenylthio)benzene bis(bromotrichloro-methane) clathrate'
_symmetry_cell_setting           rhombohedral
_symmetry_space_group_name_H-M   'R -3'
_symmetry_Int_Tables_number      148
_space_group_name_Hall           '-R 3'
loop_
_symmetry_equiv_pos_site_id
_symmetry_equiv_pos_as_xyz
1 x,y,z
2 -y,x-y,z
3 -x+y,-x,z
4 1/3+x,2/3+y,2/3+z
5 1/3-y,2/3+x-y,2/3+z
6 1/3-x+y,2/3-x,2/3+z
7 2/3+x,1/3+y,1/3+z
8 2/3-y,1/3+x-y,1/3+z
9 2/3-x+y,1/3-x,1/3+z
10 -x,-y,-z
11 y,-x+y,-z
12 x-y,x,-z
13 2/3-x,1/3-y,1/3-z
14 2/3+y,1/3-x+y,1/3-z
15 2/3+x-y,1/3+x,1/3-z
16 1/3-x,2/3-y,2/3-z
17 1/3+y,2/3-x+y,2/3-z
18 1/3+x-y,2/3+x,2/3-z
_cell_length_a                   14.184(2)
_cell_length_b                   14.184(2)
_cell_length_c                   20.623(4)
_cell_angle_alpha                90
_cell_angle_beta                 90
_cell_angle_gamma                120
_cell_volume                     3593.19
_chemical_melting_point          178deg.C
_cell_formula_units_Z            3
loop_
_atom_site_label
_atom_site_type_symbol
_atom_site_fract_x
_atom_site_fract_y
_atom_site_fract_z
S1 S -0.25817(3) -0.14596(4) 0.00338(2)
C2 C -0.1145(1) -0.0660(2) 0.0009(1)
C3 C -0.2830(2) -0.2283(2) 0.0732(1)
C4 C -0.2129(2) -0.1997(2) 0.1259(1)
C5 C -0.2441(2) -0.2676(2) 0.1799(1)
C6 C -0.3445(2) -0.3606(2) 0.1825(1)
C7 C -0.4148(2) -0.3881(2) 0.1304(2)
C8 C -0.3836(2) -0.3229(2) 0.0755(1)
H1 H -0.143(2) -0.128(2) 0.123(1)
H2 H -0.194(2) -0.253(2) 0.213(1)
H3 H -0.370(2) -0.410(2) 0.219(2)
H4 H -0.493(3) -0.454(3) 0.132(2)
H5 H -0.428(2) -0.340(2) 0.038(2)
C2J C -0.0660(2) 0.0485(2) -0.0009(1)
S1J S -0.14596(4) 0.11221(5) -0.00338(2)
C3J C -0.2283(2) 0.0547(3) -0.0732(1)
C4J C -0.1997(2) 0.0132(3) -0.1259(1)
C5J C -0.2676(2) -0.0235(3) -0.1799(1)
C6J C -0.3606(2) -0.0161(3) -0.1825(1)
C7J C -0.3881(2) 0.0267(3) -0.1304(2)
C8J C -0.3229(2) 0.0607(3) -0.0755(1)
H5J H -0.340(2) 0.088(3) -0.038(2)
H4J H -0.454(3) 0.039(4) -0.132(2)
H3J H -0.410(2) -0.040(3) -0.219(2)
H2J H -0.253(2) -0.059(3) -0.213(1)
H1J H -0.128(2) 0.015(3) -0.123(1)
C2B C 0.0485(2) 0.1145(1) 0.0009(1)
S1B S 0.11221(5) 0.25817(3) 0.00338(2)
C3B C 0.0547(3) 0.2830(2) 0.0732(1)
C4B C 0.0132(3) 0.2129(2) 0.1259(1)
C5B C -0.0235(3) 0.2441(2) 0.1799(1)
C6B C -0.0161(3) 0.3445(2) 0.1825(1)
C7B C 0.0267(3) 0.4148(2) 0.1304(2)
C8B C 0.0607(3) 0.3836(2) 0.0755(1)
H5B H 0.088(3) 0.428(2) 0.038(2)
H4B H 0.039(4) 0.493(3) 0.132(2)
H3B H -0.040(3) 0.370(2) 0.219(2)
H2B H -0.059(3) 0.194(2) 0.213(1)
H1B H 0.015(3) 0.143(2) 0.123(1)
C2I C 0.1145(1) 0.0660(2) -0.0009(1)
S1I S 0.25817(3) 0.14596(4) -0.00338(2)
C3I C 0.2830(2) 0.2283(2) -0.0732(1)
C4I C 0.2129(2) 0.1997(2) -0.1259(1)
C5I C 0.2441(2) 0.2676(2) -0.1799(1)
C6I C 0.3445(2) 0.3606(2) -0.1825(1)
C7I C 0.4148(2) 0.3881(2) -0.1304(2)
C8I C 0.3836(2) 0.3229(2) -0.0755(1)
H5I H 0.428(2) 0.340(2) -0.038(2)
H4I H 0.493(3) 0.454(3) -0.132(2)
H3I H 0.370(2) 0.410(2) -0.219(2)
H2I H 0.194(2) 0.253(2) -0.213(1)
H1I H 0.143(2) 0.128(2) -0.123(1)
C2A C 0.0660(2) -0.0485(2) 0.0009(1)
S1A S 0.14596(4) -0.11221(5) 0.00338(2)
C3A C 0.2283(2) -0.0547(3) 0.0732(1)
C4A C 0.1997(2) -0.0132(3) 0.1259(1)
C5A C 0.2676(2) 0.0235(3) 0.1799(1)
C6A C 0.3606(2) 0.0161(3) 0.1825(1)
C7A C 0.3881(2) -0.0267(3) 0.1304(2)
C8A C 0.3229(2) -0.0607(3) 0.0755(1)
H5A H 0.340(2) -0.088(3) 0.038(2)
H4A H 0.454(3) -0.039(4) 0.132(2)
H3A H 0.410(2) 0.040(3) 0.219(2)
H2A H 0.253(2) 0.059(3) 0.213(1)
H1A H 0.128(2) -0.015(3) 0.123(1)
C2K C -0.0485(2) -0.1145(1) -0.0009(1)
S1K S -0.11221(5) -0.25817(3) -0.00338(2)
C3K C -0.0547(3) -0.2830(2) -0.0732(1)
C4K C -0.0132(3) -0.2129(2) -0.1259(1)
C5K C 0.0235(3) -0.2441(2) -0.1799(1)
C6K C 0.0161(3) -0.3445(2) -0.1825(1)
C7K C -0.0267(3) -0.4148(2) -0.1304(2)
C8K C -0.0607(3) -0.3836(2) -0.0755(1)
H5K H -0.088(3) -0.428(2) -0.038(2)
H4K H -0.039(4) -0.493(3) -0.132(2)
H3K H 0.040(3) -0.370(2) -0.219(2)
H2K H 0.059(3) -0.194(2) -0.213(1)
H1K H -0.015(3) -0.143(2) -0.123(1)
C1 C 0.00000 0.00000 0.3297(3)
Cl1 Cl 0.00000 0.00000 0.4158(2)
Br1? Br 0.0138(6) -0.1199(6) 0.2985(5)
Cl2? Cl -0.1213(8) -0.0112(10) 0.2970(7)
C9? C -0.0055(12) 0.0055(10) 0.3360(6)
Br2? Br -0.0017(8) -0.1265(6) 0.3304(4)
Cl3? Cl -0.0391(9) 0.0043(7) 0.4189(5)
Cl4? Cl 0.1222(10) 0.1202(9) 0.3163(7)
Cl5? Cl -0.1116(17) -0.0037(21) 0.2861(12)
loop_
_geom_bond_atom_site_label_1
_geom_bond_atom_site_label_2
_geom_bond_site_symmetry_1
_geom_bond_site_symmetry_2
C1 Cl1 1_555 1_555
S1 C2 1_555 1_555
C2 C2J 1_555 1_555
C3 S1 1_555 1_555
C4 C3 1_555 1_555
C5 C4 1_555 1_555
C6 C5 1_555 1_555
C7 C6 1_555 1_555
C8 C3 1_555 1_555
H1 C4 1_555 1_555
H2 C5 1_555 1_555
H3 C6 1_555 1_555
H4 C7 1_555 1_555
H5 C8 1_555 1_555
C2J S1J 1_555 1_555
S1J C3J 1_555 1_555
C3J C4J 1_555 1_555
C4J C5J 1_555 1_555
C5J C6J 1_555 1_555
C6J C7J 1_555 1_555
C7J C8J 1_555 1_555
C8J C3J 1_555 1_555
H5J C8J 1_555 1_555
H4J C7J 1_555 1_555
H3J C6J 1_555 1_555
H2J C5J 1_555 1_555
H1J C4J 1_555 1_555
C2B C2J 1_555 1_555
S1B C2B 1_555 1_555
C3B S1B 1_555 1_555
C4B C3B 1_555 1_555
C5B C4B 1_555 1_555
C6B C5B 1_555 1_555
C7B C6B 1_555 1_555
C8B C3B 1_555 1_555
H5B C8B 1_555 1_555
H4B C7B 1_555 1_555
H3B C6B 1_555 1_555
H2B C5B 1_555 1_555
H1B C4B 1_555 1_555
C2I C2B 1_555 1_555
S1I C2I 1_555 1_555
C3I S1I 1_555 1_555
C4I C3I 1_555 1_555
C5I C4I 1_555 1_555
C6I C5I 1_555 1_555
C7I C6I 1_555 1_555
C8I C3I 1_555 1_555
H5I C8I 1_555 1_555
H4I C7I 1_555 1_555
H3I C6I 1_555 1_555
H2I C5I 1_555 1_555
H1I C4I 1_555 1_555
C2A C2I 1_555 1_555
S1A C2A 1_555 1_555
C3A S1A 1_555 1_555
C4A C3A 1_555 1_555
C5A C4A 1_555 1_555
C6A C5A 1_555 1_555
C7A C6A 1_555 1_555
C8A C3A 1_555 1_555
H5A C8A 1_555 1_555
H4A C7A 1_555 1_555
H3A C6A 1_555 1_555
H2A C5A 1_555 1_555
H1A C4A 1_555 1_555
C2K C2 1_555 1_555
S1K C2K 1_555 1_555
C3K S1K 1_555 1_555
C4K C3K 1_555 1_555
C5K C4K 1_555 1_555
C6K C5K 1_555 1_555
C7K C6K 1_555 1_555
C8K C3K 1_555 1_555
H5K C8K 1_555 1_555
H4K C7K 1_555 1_555
H3K C6K 1_555 1_555
H2K C5K 1_555 1_555
H1K C4K 1_555 1_555
C7 C8 1_555 1_555
C7B C8B 1_555 1_555
C7I C8I 1_555 1_555
C2A C2K 1_555 1_555
C7A C8A 1_555 1_555
C7K C8K 1_555 1_555

#END
