
#######################################################################
#
#                 Cambridge Crystallographic Data Centre
#                                CCDC 
#
#######################################################################
#
# If this CIF has been generated from an entry in the Cambridge 
# Structural Database, then it will include bibliographic, chemical, 
# crystal, experimental, refinement or atomic coordinate data resulting 
# from the CCDC's data processing and validation procedures.
#
#######################################################################

data_ZARDEE
_chemical_formula_moiety         'C20 H20 F1 N1 O4,0.67(H2 O1)'
_chemical_name_systematic        
'3-[5-(4-fluorophenyl)-5-hydroxypentanoyl]-4-phenyl-1,3-oxazolidin-2-one hydrate'
_symmetry_cell_setting           monoclinic
_symmetry_space_group_name_H-M   'P 21'
_symmetry_Int_Tables_number      4
_space_group_name_Hall           'P 2yb'
loop_
_symmetry_equiv_pos_site_id
_symmetry_equiv_pos_as_xyz
1 x,y,z
2 -x,1/2+y,-z
_cell_length_a                   15.4975(10)
_cell_length_b                   7.8125(5)
_cell_length_c                   24.1875(18)
_cell_angle_alpha                90
_cell_angle_beta                 107.517(8)
_cell_angle_gamma                90
_cell_volume                     2792.68
_exptl_crystal_colour            colorless
_exptl_crystal_description       needle
_cell_formula_units_Z            6
loop_
_atom_site_label
_atom_site_type_symbol
_atom_site_fract_x
_atom_site_fract_y
_atom_site_fract_z
O1 O 0.22186(13) 0.5917(2) 0.27097(8)
N1 N 0.19278(13) 0.3495(2) 0.30979(8)
O2 O 0.20106(12) 0.1166(2) 0.36458(8)
O3 O -0.05047(15) 0.3350(3) 0.44097(10)
H1 H -0.0519 0.4361 0.4497
O4 O 0.08350(12) 0.5607(2) 0.27908(9)
C1 C 0.15345(16) 0.2291(3) 0.33788(10)
C2 C -0.20339(16) 0.3232(3) 0.37583(10)
C3 C 0.05462(17) 0.2476(3) 0.33214(11)
H2 H 0.0198 0.2355 0.2916
H3 H 0.0438 0.3615 0.3445
C4 C 0.28594(16) 0.3244(3) 0.30862(10)
H4 H 0.3257 0.3060 0.3482
C5 C 0.37247(17) -0.0785(3) 0.25634(12)
H5 H 0.4177 -0.1594 0.2707
C6 C 0.15785(17) 0.5051(3) 0.28622(10)
C7 C 0.29514(15) 0.1764(3) 0.27074(10)
C8 C 0.23945(17) 0.1628(3) 0.21409(11)
H6 H 0.1941 0.2434 0.1995
C9 C 0.36096(16) 0.0527(3) 0.29121(10)
H7 H 0.3981 0.0586 0.3294
C10 C 0.25083(18) 0.0304(4) 0.17918(11)
H8 H 0.2133 0.0228 0.1412
C11 C 0.31706(18) -0.0901(3) 0.20003(13)
H9 H 0.3245 -0.1790 0.1763
C12 C -0.07815(18) 0.1388(3) 0.36260(14)
H10 H -0.1133 0.1226 0.3224
H11 H -0.0955 0.0494 0.3850
F1 F -0.47752(14) 0.3445(4) 0.35090(15)
C13 C 0.02166(19) 0.1162(3) 0.36768(13)
H12 H 0.0573 0.1264 0.4081
H13 H 0.0310 0.0022 0.3547
C14 C -0.3316(3) 0.2844(5) 0.41097(18)
H14 H -0.3555 0.2536 0.4405
C15 C -0.3870(2) 0.3373(4) 0.35868(17)
C16 C -0.2391(2) 0.2772(4) 0.41952(13)
H15 H -0.2007 0.2410 0.4551
C17 C -0.26199(18) 0.3771(4) 0.32441(11)
H16 H -0.2392 0.4105 0.2946
C18 C -0.10324(17) 0.3109(3) 0.38279(12)
H17 H -0.0876 0.4008 0.3592
C19 C 0.30596(19) 0.5005(3) 0.28677(14)
H18 H 0.3511 0.5610 0.3170
H19 H 0.3281 0.4877 0.2535
C20 C -0.3539(2) 0.3830(4) 0.31565(15)
H20 H -0.3928 0.4184 0.2802
O5 O -0.10736(13) -0.0727(2) 0.08775(9)
N2 N -0.13039(13) 0.1743(2) 0.04055(8)
O6 O -0.47429(13) 0.4274(2) -0.06100(9)
H21 H -0.5229 0.4237 -0.0867
O7 O -0.13564(12) 0.3822(2) -0.02380(8)
F2 F -0.44779(13) 1.0810(2) -0.20943(9)
C21 C -0.45010(14) 0.7244(3) -0.08478(10)
O8 O -0.24876(14) 0.0229(3) 0.05862(9)
C22 C -0.44538(17) 0.9637(3) -0.16697(13)
C23 C -0.45009(19) 0.7944(3) -0.18126(12)
H22 H -0.4518 0.7598 -0.2184
C24 C 0.02871(15) 0.2855(3) 0.07010(9)
C25 C -0.17600(16) 0.3071(3) 0.00470(11)
C26 C -0.45808(16) 0.5962(3) -0.03945(11)
H23 H -0.5095 0.6306 -0.0263
C27 C -0.16962(17) 0.0417(3) 0.06248(11)
C28 C -0.44054(17) 1.0194(3) -0.11293(13)
H24 H -0.4358 1.1354 -0.1039
C29 C -0.45224(16) 0.6754(3) -0.13935(10)
H25 H -0.4552 0.5595 -0.1486
C30 C -0.44282(17) 0.8985(3) -0.07185(12)
H26 H -0.4394 0.9341 -0.0346
C31 C -0.03547(16) 0.1386(3) 0.04692(10)
H27 H -0.0294 0.1012 0.0096
C32 C 0.10942(16) 0.2918(3) 0.05677(11)
H28 H 0.1215 0.2106 0.0320
C33 C -0.37471(18) 0.5924(4) 0.01321(12)
H29 H -0.3861 0.5140 0.0413
H30 H -0.3666 0.7054 0.0306
C34 C 0.0741(2) 0.5354(4) 0.12905(12)
H31 H 0.0616 0.6187 0.1530
C35 C 0.17225(19) 0.4186(4) 0.08024(15)
H32 H 0.2268 0.4214 0.0717
C36 C -0.28564(17) 0.5395(4) 0.00236(13)
H33 H -0.2863 0.5793 -0.0357
H34 H -0.2358 0.5958 0.0307
C37 C -0.01930(19) -0.0126(4) 0.08834(14)
H35 H 0.0137 -0.1023 0.0756
H36 H 0.0154 0.0226 0.1271
C38 C -0.26961(19) 0.3539(4) 0.00576(18)
H37 H -0.3136 0.2989 -0.0266
H38 H -0.2786 0.3107 0.0412
C39 C 0.0118(2) 0.4079(3) 0.10679(11)
H39 H -0.0418 0.4042 0.1165
C40 C 0.1539(2) 0.5403(4) 0.11621(14)
H40 H 0.1959 0.6259 0.1318
O9 O -0.22269(11) -0.1772(3) 0.41117(8)
O10 O -0.34846(12) -0.0634(3) 0.13565(8)
H41 H -0.3154 -0.0384 0.1160
N3 N -0.34780(13) -0.2339(3) 0.43586(8)
C41 C -0.25569(15) -0.2934(3) 0.18945(9)
C42 C -0.30383(15) -0.1882(3) 0.39561(10)
C43 C -0.27078(15) -0.0930(3) 0.52883(9)
C44 C -0.35969(15) -0.1553(3) 0.33420(9)
H42 H -0.3941 -0.0506 0.3325
H43 H -0.4022 -0.2485 0.3209
F3 F -0.14961(16) -0.7748(3) 0.18369(10)
C45 C -0.35387(16) -0.1066(3) 0.23169(10)
H44 H -0.3815 0.0059 0.2283
H45 H -0.4020 -0.1906 0.2195
C46 C -0.29457(15) -0.1167(3) 0.19187(10)
H46 H -0.2444 -0.0358 0.2058
O11 O -0.50008(14) -0.2329(4) 0.38475(9)
C47 C -0.1848(2) -0.6152(4) 0.18596(12)
C48 C -0.16286(16) -0.3218(4) 0.20818(11)
H47 H -0.1238 -0.2304 0.2219
C49 C -0.18220(16) -0.0352(3) 0.54343(10)
H48 H -0.1387 -0.1003 0.5337
C50 C -0.30037(16) -0.1390(4) 0.29458(10)
H49 H -0.2580 -0.0457 0.3082
H50 H -0.2656 -0.2434 0.2969
C51 C -0.1581(2) 0.1179(4) 0.57229(12)
H51 H -0.0984 0.1549 0.5820
C52 C -0.29644(17) -0.2617(3) 0.49713(10)
H52 H -0.2420 -0.3294 0.5000
C53 C -0.31084(16) -0.4325(4) 0.16908(10)
H53 H -0.3732 -0.4166 0.1563
C54 C -0.3098(2) 0.1605(4) 0.57261(13)
H54 H -0.3530 0.2260 0.5826
C55 C -0.27641(19) -0.5951(4) 0.16702(11)
H55 H -0.3145 -0.6876 0.1532
C56 C -0.4393(2) -0.2631(4) 0.42661(12)
O12 O -0.45079(15) -0.3331(4) 0.47472(9)
C57 C -0.2215(2) 0.2165(4) 0.58683(12)
H56 H -0.2050 0.3200 0.6061
C58 C -0.3653(2) -0.3691(4) 0.51606(12)
H57 H -0.3511 -0.4900 0.5159
H58 H -0.3655 -0.3372 0.5548
C59 C -0.33461(18) 0.0068(3) 0.54337(12)
H59 H -0.3945 -0.0295 0.5335
C60 C -0.12762(18) -0.4843(4) 0.20677(13)
H60 H -0.0655 -0.5027 0.2200
O13 O 0.05185(19) 0.1703(4) 0.53805(15)
H61 H 0.0164 0.2172 0.5081
H62 H 0.0957 0.2374 0.5534
O14 O 0.0698(3) -0.0859(5) 0.23695(19)
H63 H 0.1042 -0.0361 0.2697
H64 H 0.0698 -0.1913 0.2456
loop_
_geom_bond_atom_site_label_1
_geom_bond_atom_site_label_2
_geom_bond_site_symmetry_1
_geom_bond_site_symmetry_2
O1 C6 1_555 1_555
N1 C1 1_555 1_555
O2 C1 1_555 1_555
O3 H1 1_555 1_555
O4 C6 1_555 1_555
C1 C3 1_555 1_555
C2 C16 1_555 1_555
C3 H2 1_555 1_555
H3 C3 1_555 1_555
C4 N1 1_555 1_555
H4 C4 1_555 1_555
C5 H5 1_555 1_555
C6 N1 1_555 1_555
C7 C4 1_555 1_555
C8 C7 1_555 1_555
H6 C8 1_555 1_555
C9 C5 1_555 1_555
H7 C9 1_555 1_555
C10 C8 1_555 1_555
H8 C10 1_555 1_555
C11 C5 1_555 1_555
H9 C11 1_555 1_555
C12 H10 1_555 1_555
H11 C12 1_555 1_555
F1 C15 1_555 1_555
C13 C3 1_555 1_555
H12 C13 1_555 1_555
H13 C13 1_555 1_555
C14 H14 1_555 1_555
C15 C14 1_555 1_555
C16 C14 1_555 1_555
H15 C16 1_555 1_555
C17 C2 1_555 1_555
H16 C17 1_555 1_555
C18 O3 1_555 1_555
H17 C18 1_555 1_555
C19 O1 1_555 1_555
H18 C19 1_555 1_555
H19 C19 1_555 1_555
C20 C15 1_555 1_555
H20 C20 1_555 1_555
O5 C27 1_555 1_555
N2 C25 1_555 1_555
O6 H21 1_555 1_555
O7 C25 1_555 1_555
F2 C22 1_555 1_555
C21 C26 1_555 1_555
O8 C27 1_555 1_555
C22 C23 1_555 1_555
C23 H22 1_555 1_555
C24 C31 1_555 1_555
C25 C38 1_555 1_555
C26 O6 1_555 1_555
H23 C26 1_555 1_555
C27 N2 1_555 1_555
C28 C22 1_555 1_555
H24 C28 1_555 1_555
C29 C21 1_555 1_555
H25 C29 1_555 1_555
C30 C21 1_555 1_555
H26 C30 1_555 1_555
C31 N2 1_555 1_555
H27 C31 1_555 1_555
C32 C24 1_555 1_555
H28 C32 1_555 1_555
C33 C26 1_555 1_555
H29 C33 1_555 1_555
H30 C33 1_555 1_555
C34 H31 1_555 1_555
C35 C32 1_555 1_555
H32 C35 1_555 1_555
C36 C33 1_555 1_555
H33 C36 1_555 1_555
H34 C36 1_555 1_555
C37 O5 1_555 1_555
H35 C37 1_555 1_555
H36 C37 1_555 1_555
C38 C36 1_555 1_555
H37 C38 1_555 1_555
H38 C38 1_555 1_555
C39 C24 1_555 1_555
H39 C39 1_555 1_555
C40 C34 1_555 1_555
H40 C40 1_555 1_555
O9 C42 1_555 1_555
O10 H41 1_555 1_555
N3 C42 1_555 1_555
C41 C46 1_555 1_555
C42 C44 1_555 1_555
C43 C49 1_555 1_555
C44 H42 1_555 1_555
H43 C44 1_555 1_555
F3 C47 1_555 1_555
C45 H44 1_555 1_555
H45 C45 1_555 1_555
C46 O10 1_555 1_555
H46 C46 1_555 1_555
O11 C56 1_555 1_555
C47 C55 1_555 1_555
C48 C41 1_555 1_555
H47 C48 1_555 1_555
C49 H48 1_555 1_555
C50 C44 1_555 1_555
H49 C50 1_555 1_555
H50 C50 1_555 1_555
C51 C49 1_555 1_555
H51 C51 1_555 1_555
C52 N3 1_555 1_555
H52 C52 1_555 1_555
C53 C41 1_555 1_555
H53 C53 1_555 1_555
C54 H54 1_555 1_555
C55 C53 1_555 1_555
H55 C55 1_555 1_555
C56 N3 1_555 1_555
O12 C56 1_555 1_555
C57 C51 1_555 1_555
H56 C57 1_555 1_555
C58 C52 1_555 1_555
H57 C58 1_555 1_555
H58 C58 1_555 1_555
C59 C43 1_555 1_555
H59 C59 1_555 1_555
C60 C47 1_555 1_555
H60 C60 1_555 1_555
O13 H61 1_555 1_555
H62 O13 1_555 1_555
O14 H63 1_555 1_555
H64 O14 1_555 1_555
C2 C18 1_555 1_555
C4 C19 1_555 1_555
C7 C9 1_555 1_555
C10 C11 1_555 1_555
C12 C13 1_555 1_555
C12 C18 1_555 1_555
C17 C20 1_555 1_555
C23 C29 1_555 1_555
C28 C30 1_555 1_555
C31 C37 1_555 1_555
C34 C39 1_555 1_555
C35 C40 1_555 1_555
C43 C52 1_555 1_555
C45 C46 1_555 1_555
C45 C50 1_555 1_555
C48 C60 1_555 1_555
C54 C57 1_555 1_555
C54 C59 1_555 1_555
O12 C58 1_555 1_555

#END
