
#######################################################################
#
#                 Cambridge Crystallographic Data Centre
#                                CCDC 
#
#######################################################################
#
# If this CIF has been generated from an entry in the Cambridge 
# Structural Database, then it will include bibliographic, chemical, 
# crystal, experimental, refinement or atomic coordinate data resulting 
# from the CCDC's data processing and validation procedures.
#
#######################################################################

data_ZARDIF
_chemical_formula_moiety         'C42 H30 S6,2(C2 Cl3 N1)'
_chemical_name_systematic        
'hexakis(Phenylthio)benzene bis(cyanotrichloro-methane) clathrate'
_symmetry_cell_setting           rhombohedral
_symmetry_space_group_name_H-M   'R -3'
_symmetry_Int_Tables_number      148
_space_group_name_Hall           '-R 3'
loop_
_symmetry_equiv_pos_site_id
_symmetry_equiv_pos_as_xyz
1 x,y,z
2 -y,x-y,z
3 -x+y,-x,z
4 1/3+x,2/3+y,2/3+z
5 1/3-y,2/3+x-y,2/3+z
6 1/3-x+y,2/3-x,2/3+z
7 2/3+x,1/3+y,1/3+z
8 2/3-y,1/3+x-y,1/3+z
9 2/3-x+y,1/3-x,1/3+z
10 -x,-y,-z
11 y,-x+y,-z
12 x-y,x,-z
13 2/3-x,1/3-y,1/3-z
14 2/3+y,1/3-x+y,1/3-z
15 2/3+x-y,1/3+x,1/3-z
16 1/3-x,2/3-y,2/3-z
17 1/3+y,2/3-x+y,2/3-z
18 1/3+x-y,2/3+x,2/3-z
_cell_length_a                   14.321(4)
_cell_length_b                   14.321(4)
_cell_length_c                   20.474(6)
_cell_angle_alpha                90
_cell_angle_beta                 90
_cell_angle_gamma                120
_cell_volume                     3636.47
_chemical_melting_point          179deg.C
_cell_formula_units_Z            3
loop_
_atom_site_label
_atom_site_type_symbol
_atom_site_fract_x
_atom_site_fract_y
_atom_site_fract_z
S1 S -0.25534(5) -0.14319(5) 0.00524(3)
C1 C -0.1132(2) -0.0645(2) 0.0010(1)
C2 C -0.2766(2) -0.2263(2) 0.0741(1)
C3 C -0.3701(3) -0.3254(3) 0.0738(2)
C4 C -0.2371(3) -0.2626(3) 0.1820(2)
C5 C -0.3311(3) -0.3599(4) 0.1817(2)
C6 C -0.3979(4) -0.3912(4) 0.1286(3)
C7 C -0.2097(2) -0.1943(3) 0.1283(1)
H1 H -0.420(3) -0.358(3) 0.029(2)
H2 H -0.188(3) -0.245(3) 0.221(2)
H3 H -0.347(4) -0.405(4) 0.220(2)
H4 H -0.473(4) -0.465(4) 0.127(2)
H5 H -0.147(3) -0.124(3) 0.127(2)
C1J C -0.0645(2) 0.0487(3) -0.0010(1)
S1J S -0.14319(5) 0.11215(7) -0.00524(3)
C2J C -0.2263(2) 0.0503(3) -0.0741(1)
C3J C -0.3254(3) 0.0447(4) -0.0738(2)
C6J C -0.3912(4) 0.0067(6) -0.1286(3)
C5J C -0.3599(4) -0.0288(5) -0.1817(2)
C4J C -0.2626(3) -0.0255(4) -0.1820(2)
C7J C -0.1943(3) 0.0154(4) -0.1283(1)
H5J H -0.124(3) 0.023(4) -0.127(2)
H2J H -0.245(3) -0.057(4) -0.221(2)
H3J H -0.405(4) -0.058(6) -0.220(2)
H4J H -0.465(4) 0.008(6) -0.127(2)
H1J H -0.358(3) 0.062(4) -0.029(2)
C1B C 0.0487(3) 0.1132(2) 0.0010(1)
S1B S 0.11215(7) 0.25534(5) 0.00524(3)
C2B C 0.0503(3) 0.2766(2) 0.0741(1)
C3B C 0.0447(4) 0.3701(3) 0.0738(2)
C6B C 0.0067(6) 0.3979(4) 0.1286(3)
C5B C -0.0288(5) 0.3311(3) 0.1817(2)
C4B C -0.0255(4) 0.2371(3) 0.1820(2)
C7B C 0.0154(4) 0.2097(2) 0.1283(1)
H5B H 0.023(4) 0.147(3) 0.127(2)
H2B H -0.057(4) 0.188(3) 0.221(2)
H3B H -0.058(6) 0.347(4) 0.220(2)
H4B H 0.008(6) 0.473(4) 0.127(2)
H1B H 0.062(4) 0.420(3) 0.029(2)
C1I C 0.1132(2) 0.0645(2) -0.0010(1)
S1I S 0.25534(5) 0.14319(5) -0.00524(3)
C2I C 0.2766(2) 0.2263(2) -0.0741(1)
C3I C 0.3701(3) 0.3254(3) -0.0738(2)
C6I C 0.3979(4) 0.3912(4) -0.1286(3)
C5I C 0.3311(3) 0.3599(4) -0.1817(2)
C4I C 0.2371(3) 0.2626(3) -0.1820(2)
C7I C 0.2097(2) 0.1943(3) -0.1283(1)
H5I H 0.147(3) 0.124(3) -0.127(2)
H2I H 0.188(3) 0.245(3) -0.221(2)
H3I H 0.347(4) 0.405(4) -0.220(2)
H4I H 0.473(4) 0.465(4) -0.127(2)
H1I H 0.420(3) 0.358(3) -0.029(2)
C1A C 0.0645(2) -0.0487(3) 0.0010(1)
S1A S 0.14319(5) -0.11215(7) 0.00524(3)
C2A C 0.2263(2) -0.0503(3) 0.0741(1)
C3A C 0.3254(3) -0.0447(4) 0.0738(2)
C6A C 0.3912(4) -0.0067(6) 0.1286(3)
C5A C 0.3599(4) 0.0288(5) 0.1817(2)
C4A C 0.2626(3) 0.0255(4) 0.1820(2)
C7A C 0.1943(3) -0.0154(4) 0.1283(1)
H5A H 0.124(3) -0.023(4) 0.127(2)
H2A H 0.245(3) 0.057(4) 0.221(2)
H3A H 0.405(4) 0.058(6) 0.220(2)
H4A H 0.465(4) -0.008(6) 0.127(2)
H1A H 0.358(3) -0.062(4) 0.029(2)
C1K C -0.0487(3) -0.1132(2) -0.0010(1)
S1K S -0.11215(7) -0.25534(5) -0.00524(3)
C2K C -0.0503(3) -0.2766(2) -0.0741(1)
C3K C -0.0447(4) -0.3701(3) -0.0738(2)
C6K C -0.0067(6) -0.3979(4) -0.1286(3)
C5K C 0.0288(5) -0.3311(3) -0.1817(2)
C4K C 0.0255(4) -0.2371(3) -0.1820(2)
C7K C -0.0154(4) -0.2097(2) -0.1283(1)
H5K H -0.023(4) -0.147(3) -0.127(2)
H2K H 0.057(4) -0.188(3) -0.221(2)
H3K H 0.058(6) -0.347(4) -0.220(2)
H4K H -0.008(6) -0.473(4) -0.127(2)
H1K H -0.062(4) -0.420(3) -0.029(2)
C8? C 0.0028(12) 0.0010(10) 0.3526(5)
C9? C 0.0047(24) -0.0145(21) 0.2822(5)
N1? N 0.006(3) -0.026(2) 0.226(1)
Cl1? Cl -0.1115(10) 0.0149(10) 0.3670(8)
Cl2? Cl 0.0016(11) -0.1082(9) 0.3937(6)
Cl3? Cl 0.1192(10) 0.1251(9) 0.3719(7)
C10? C -0.0032(16) -0.0018(13) 0.3365(9)
C11? C -0.0065(36) 0.0179(32) 0.4059(9)
N2? N -0.009(5) 0.032(4) 0.461(1)
Cl4? Cl 0.0025(10) -0.1216(9) 0.3279(9)
Cl5? Cl 0.1134(18) 0.1076(18) 0.3022(21)
Cl6? Cl -0.1197(13) -0.0141(11) 0.2987(10)
C12? C 0.0023(13) 0.0005(14) 0.3838(6)
C13? C 0.0133(24) -0.0114(26) 0.3146(7)
N3? N 0.025(3) -0.022(3) 0.259(1)
Cl7? Cl -0.1117(10) 0.0144(12) 0.3957(9)
Cl8? Cl -0.0119(13) -0.1114(12) 0.4279(9)
Cl9? Cl 0.1156(14) 0.1180(13) 0.4133(9)
loop_
_geom_bond_atom_site_label_1
_geom_bond_atom_site_label_2
_geom_bond_site_symmetry_1
_geom_bond_site_symmetry_2
S1 C1 1_555 1_555
C1 C1J 1_555 1_555
C2 S1 1_555 1_555
C3 C2 1_555 1_555
C4 C5 1_555 1_555
C5 C6 1_555 1_555
C6 C3 1_555 1_555
C7 C2 1_555 1_555
H1 C3 1_555 1_555
H2 C4 1_555 1_555
H3 C5 1_555 1_555
H4 C6 1_555 1_555
H5 C7 1_555 1_555
C1J S1J 1_555 1_555
S1J C2J 1_555 1_555
C2J C3J 1_555 1_555
C3J C6J 1_555 1_555
C6J C5J 1_555 1_555
C5J C4J 1_555 1_555
C4J C7J 1_555 1_555
C7J C2J 1_555 1_555
H5J C7J 1_555 1_555
H2J C4J 1_555 1_555
H3J C5J 1_555 1_555
H4J C6J 1_555 1_555
H1J C3J 1_555 1_555
C1B C1J 1_555 1_555
S1B C1B 1_555 1_555
C2B S1B 1_555 1_555
C3B C2B 1_555 1_555
C6B C3B 1_555 1_555
C5B C6B 1_555 1_555
C4B C5B 1_555 1_555
C7B C2B 1_555 1_555
H5B C7B 1_555 1_555
H2B C4B 1_555 1_555
H3B C5B 1_555 1_555
H4B C6B 1_555 1_555
H1B C3B 1_555 1_555
C1I C1B 1_555 1_555
S1I C1I 1_555 1_555
C2I S1I 1_555 1_555
C3I C2I 1_555 1_555
C6I C3I 1_555 1_555
C5I C6I 1_555 1_555
C4I C5I 1_555 1_555
C7I C2I 1_555 1_555
H5I C7I 1_555 1_555
H2I C4I 1_555 1_555
H3I C5I 1_555 1_555
H4I C6I 1_555 1_555
H1I C3I 1_555 1_555
C1A C1I 1_555 1_555
S1A C1A 1_555 1_555
C2A S1A 1_555 1_555
C3A C2A 1_555 1_555
C6A C3A 1_555 1_555
C5A C6A 1_555 1_555
C4A C5A 1_555 1_555
C7A C2A 1_555 1_555
H5A C7A 1_555 1_555
H2A C4A 1_555 1_555
H3A C5A 1_555 1_555
H4A C6A 1_555 1_555
H1A C3A 1_555 1_555
C1K C1 1_555 1_555
S1K C1K 1_555 1_555
C2K S1K 1_555 1_555
C3K C2K 1_555 1_555
C6K C3K 1_555 1_555
C5K C6K 1_555 1_555
C4K C5K 1_555 1_555
C7K C2K 1_555 1_555
H5K C7K 1_555 1_555
H2K C4K 1_555 1_555
H3K C5K 1_555 1_555
H4K C6K 1_555 1_555
H1K C3K 1_555 1_555
C4 C7 1_555 1_555
C4B C7B 1_555 1_555
C4I C7I 1_555 1_555
C1A C1K 1_555 1_555
C4A C7A 1_555 1_555
C4K C7K 1_555 1_555

#END
