
#######################################################################
#
#                 Cambridge Crystallographic Data Centre
#                                CCDC 
#
#######################################################################
#
# If this CIF has been generated from an entry in the Cambridge 
# Structural Database, then it will include bibliographic, chemical, 
# crystal, experimental, refinement or atomic coordinate data resulting 
# from the CCDC's data processing and validation procedures.
#
#######################################################################

data_ZARHUX01
_chemical_formula_moiety         'C7 H3 N2 O6 1-,C6 H8 N1 O1 1+'
_chemical_name_systematic        '2-Hydroxyanilinium 3,5-dinitrobenzoate'
_symmetry_cell_setting           monoclinic
_symmetry_space_group_name_H-M   'P 21'
_symmetry_Int_Tables_number      4
_space_group_name_Hall           'P 2yb'
loop_
_symmetry_equiv_pos_site_id
_symmetry_equiv_pos_as_xyz
1 x,y,z
2 -x,1/2+y,-z
_cell_length_a                   9.4853(8)
_cell_length_b                   6.0759(7)
_cell_length_c                   12.0898(13)
_cell_angle_alpha                90
_cell_angle_beta                 95.1980(10)
_cell_angle_gamma                90
_cell_volume                     693.891
_exptl_crystal_colour            colorless
_exptl_crystal_description       block
_cell_formula_units_Z            2
loop_
_atom_site_label
_atom_site_type_symbol
_atom_site_fract_x
_atom_site_fract_y
_atom_site_fract_z
N1 N 0.1274(3) 0.5035(4) -0.11182(17)
H1 H 0.1440 0.6349 -0.1406
H2 H 0.0408 0.5016 -0.0890
H3 H 0.1341 0.4002 -0.1633
O1 O 0.1198(2) 0.1137(4) 0.00255(16)
H4 H 0.1262 0.0050 0.0429
C1 C 0.2227(3) 0.2638(5) 0.0384(2)
C2 C 0.2317(3) 0.4606(5) -0.0174(2)
C3 C 0.3322(3) 0.6147(6) 0.0159(3)
H5 H 0.3382 0.7448 -0.0240
C4 C 0.4237(4) 0.5763(7) 0.1080(3)
H6 H 0.4922 0.6803 0.1309
C5 C 0.4143(4) 0.3851(7) 0.1662(3)
H7 H 0.4745 0.3618 0.2302
C6 C 0.3159(4) 0.2254(6) 0.1311(2)
H8 H 0.3126 0.0933 0.1696
N2 N 0.6068(3) -0.1241(5) 0.4420(3)
N3 N 0.8730(3) 0.4105(5) 0.6799(2)
O2 O 0.8470(3) 0.7223(4) 0.28896(17)
O3 O 0.8189(2) 0.4277(3) 0.18059(15)
O4 O 0.5406(3) -0.1572(5) 0.3529(2)
O5 O 0.6025(3) -0.2447(4) 0.5237(2)
O6 O 0.8554(3) 0.2908(4) 0.75880(18)
O7 O 0.9285(3) 0.5914(4) 0.68779(19)
C7 C 0.8251(3) 0.5231(5) 0.2730(2)
C8 C 0.7993(3) 0.3832(5) 0.3727(2)
C9 C 0.7228(3) 0.1911(5) 0.3612(2)
H9 H 0.6890 0.1411 0.2911
C10 C 0.6967(3) 0.0726(5) 0.4550(2)
C11 C 0.7471(3) 0.1352(5) 0.5592(2)
H10 H 0.7312 0.0512 0.6212
C12 C 0.8229(3) 0.3291(5) 0.5687(2)
C13 C 0.8496(3) 0.4547(5) 0.4782(2)
H11 H 0.9004 0.5852 0.4874
loop_
_geom_bond_atom_site_label_1
_geom_bond_atom_site_label_2
_geom_bond_site_symmetry_1
_geom_bond_site_symmetry_2
N1 H1 1_555 1_555
H2 N1 1_555 1_555
H3 N1 1_555 1_555
O1 H4 1_555 1_555
C1 O1 1_555 1_555
C2 N1 1_555 1_555
C3 C2 1_555 1_555
H5 C3 1_555 1_555
C4 C3 1_555 1_555
H6 C4 1_555 1_555
C5 C4 1_555 1_555
H7 C5 1_555 1_555
C6 C1 1_555 1_555
H8 C6 1_555 1_555
N2 O4 1_555 1_555
N3 O6 1_555 1_555
O2 C7 1_555 1_555
O3 C7 1_555 1_555
O5 N2 1_555 1_555
O7 N3 1_555 1_555
C7 C8 1_555 1_555
C8 C9 1_555 1_555
C9 H9 1_555 1_555
C10 N2 1_555 1_555
C11 C10 1_555 1_555
H10 C11 1_555 1_555
C12 N3 1_555 1_555
C13 C8 1_555 1_555
H11 C13 1_555 1_555
C1 C2 1_555 1_555
C5 C6 1_555 1_555
C9 C10 1_555 1_555
C11 C12 1_555 1_555
C12 C13 1_555 1_555

#END
