
#######################################################################
#
#                 Cambridge Crystallographic Data Centre
#                                CCDC 
#
#######################################################################
#
# If this CIF has been generated from an entry in the Cambridge 
# Structural Database, then it will include bibliographic, chemical, 
# crystal, experimental, refinement or atomic coordinate data resulting 
# from the CCDC's data processing and validation procedures.
#
#######################################################################

data_ZARJUX
_chemical_formula_moiety         'C25 H34 I1 N1 O5'
_chemical_name_systematic        
"Methyl 1S,2R,4S,5R,8R-2-methyl-4-(2'-iodophenyl)-3-aza-6-oxo-7-oxa-8-(1'R,2'S,5'R-menthyloxy)-bicyclo(3.3.0)octane-2-carboxylate"
_symmetry_cell_setting           monoclinic
_symmetry_space_group_name_H-M   'P 21'
_symmetry_Int_Tables_number      4
_space_group_name_Hall           'P 2yb'
loop_
_symmetry_equiv_pos_site_id
_symmetry_equiv_pos_as_xyz
1 x,y,z
2 -x,1/2+y,-z
_cell_length_a                   9.9479(10)
_cell_length_b                   12.1987(13)
_cell_length_c                   10.3961(10)
_cell_angle_alpha                90
_cell_angle_beta                 97.057(9)
_cell_angle_gamma                90
_cell_volume                     1252.02
_exptl_crystal_colour            colorless
_chemical_melting_point          205-206deg.C
_cell_formula_units_Z            2
loop_
_atom_site_label
_atom_site_type_symbol
_atom_site_fract_x
_atom_site_fract_y
_atom_site_fract_z
I1 I 0.773548(13) 0.899820(11) 0.930086(12)
C1 C 0.4602(2) 0.9328(2) 0.5014(2)
C2 C 0.5220(2) 0.8313(2) 0.4405(2)
N1 N 0.5326(2) 0.7520(2) 0.5461(2)
C3 C 0.5826(2) 0.8106(2) 0.6650(2)
C4 C 0.4979(2) 0.9188(2) 0.6491(2)
O1 O 0.25962(13) 0.9039(2) 0.60378(13)
C5 C 0.3633(2) 0.9061(3) 0.7022(2)
O2 O 0.3432(2) 0.8984(2) 0.81296(13)
C6 C 0.3043(2) 0.9388(2) 0.4833(2)
C7 C 0.6600(2) 0.8619(2) 0.3955(2)
C8 C 0.4352(2) 0.7824(2) 0.3230(2)
O3 O 0.4035(2) 0.6881(2) 0.3112(2)
O4 O 0.4010(2) 0.85913(14) 0.2332(2)
C9 C 0.3193(3) 0.8237(2) 0.1153(2)
C10 C 0.5686(2) 0.7423(2) 0.7849(2)
C11 C 0.6432(2) 0.7637(2) 0.9049(2)
C12 C 0.6339(3) 0.6975(2) 1.0122(3)
C13 C 0.5472(3) 0.6082(2) 1.0010(3)
C14 C 0.4706(3) 0.5860(2) 0.8839(3)
C15 C 0.4809(3) 0.6525(2) 0.7770(3)
O5 O 0.26231(14) 1.04595(12) 0.4586(2)
C16 C 0.1216(2) 1.0558(2) 0.4009(2)
C17 C 0.0507(2) 1.1465(2) 0.4683(2)
C18 C -0.0937(3) 1.1597(3) 0.3950(3)
C19 C -0.0920(3) 1.1847(2) 0.2533(3)
C20 C -0.0207(3) 1.0951(2) 0.1857(2)
C21 C 0.1218(2) 1.0776(2) 0.2571(2)
C22 C 0.0533(3) 1.1290(2) 0.6143(3)
C23 C 0.0072(3) 1.2326(3) 0.6822(3)
C24 C -0.0294(3) 1.0306(3) 0.6517(3)
C25 C -0.0146(3) 1.1207(3) 0.0428(3)
H1 H 0.4999(2) 1.0019(2) 0.4708(2)
H2 H 0.5803(29) 0.7074(25) 0.5367(29)
H3 H 0.6804(2) 0.8288(2) 0.6632(2)
H4 H 0.5503(2) 0.9830(2) 0.6884(2)
H5 H 0.2661(2) 0.8897(2) 0.4109(2)
H6 H 0.6455(3) 0.9153(12) 0.3248(13)
H7 H 0.7025(9) 0.7959(3) 0.3650(17)
H8 H 0.7191(7) 0.8938(14) 0.4682(6)
H9 H 0.3099(17) 0.8842(6) 0.0528(8)
H10 H 0.2295(7) 0.8015(16) 0.1353(4)
H11 H 0.3634(11) 0.7614(11) 0.0781(11)
H12 H 0.6864(3) 0.7134(2) 1.0926(3)
H13 H 0.5405(3) 0.5622(2) 1.0738(3)
H14 H 0.4107(3) 0.5250(2) 0.8764(3)
H15 H 0.4272(3) 0.6367(2) 0.6971(3)
H16 H 0.0742(2) 0.9848(2) 0.4120(2)
H17 H 0.1006(2) 1.2162(2) 0.4563(2)
H18 H -0.1453(3) 1.0913(3) 0.4037(3)
H19 H -0.1409(3) 1.2197(3) 0.4354(3)
H20 H -0.0452(3) 1.2554(2) 0.2443(3)
H21 H -0.1863(3) 1.1923(2) 0.2109(3)
H22 H -0.0728(3) 1.0254(2) 0.1910(2)
H23 H 0.1646(2) 1.0148(2) 0.2175(2)
H24 H 0.1773(2) 1.1435(2) 0.2459(2)
H25 H 0.1497(3) 1.1151(2) 0.6503(3)
H26 H 0.0214(22) 1.2220(8) 0.7763(3)
H27 H -0.0892(6) 1.2458(11) 0.6543(18)
H28 H 0.0600(17) 1.2959(4) 0.6590(18)
H29 H -0.1262(3) 1.0466(8) 0.6314(20)
H30 H -0.0083(17) 1.0163(12) 0.7448(5)
H31 H -0.0065(17) 0.9659(5) 0.6029(16)
H32 H 0.0256(22) 1.0585(8) 0.0016(6)
H33 H 0.0410(20) 1.1862(12) 0.0354(3)
H34 H -0.1064(4) 1.1338(19) -0.0004(6)
loop_
_geom_bond_atom_site_label_1
_geom_bond_atom_site_label_2
_geom_bond_site_symmetry_1
_geom_bond_site_symmetry_2
I1 C11 1_555 1_555
C1 C2 1_555 1_555
C2 N1 1_555 1_555
N1 C3 1_555 1_555
C3 C4 1_555 1_555
C4 C1 1_555 1_555
O1 C5 1_555 1_555
C5 C4 1_555 1_555
O2 C5 1_555 1_555
C6 C1 1_555 1_555
C7 C2 1_555 1_555
C8 C2 1_555 1_555
O3 C8 1_555 1_555
O4 C8 1_555 1_555
C9 O4 1_555 1_555
C10 C3 1_555 1_555
C11 C10 1_555 1_555
C12 C11 1_555 1_555
C13 C12 1_555 1_555
C14 C13 1_555 1_555
C15 C10 1_555 1_555
O5 C6 1_555 1_555
C16 O5 1_555 1_555
C17 C16 1_555 1_555
C18 C17 1_555 1_555
C19 C18 1_555 1_555
C20 C19 1_555 1_555
C21 C16 1_555 1_555
C22 C17 1_555 1_555
C23 C22 1_555 1_555
C24 C22 1_555 1_555
C25 C20 1_555 1_555
H1 C1 1_555 1_555
H2 N1 1_555 1_555
H3 C3 1_555 1_555
H4 C4 1_555 1_555
H5 C6 1_555 1_555
H6 C7 1_555 1_555
H7 C7 1_555 1_555
H8 C7 1_555 1_555
H9 C9 1_555 1_555
H10 C9 1_555 1_555
H11 C9 1_555 1_555
H12 C12 1_555 1_555
H13 C13 1_555 1_555
H14 C14 1_555 1_555
H15 C15 1_555 1_555
H16 C16 1_555 1_555
H17 C17 1_555 1_555
H18 C18 1_555 1_555
H19 C18 1_555 1_555
H20 C19 1_555 1_555
H21 C19 1_555 1_555
H22 C20 1_555 1_555
H23 C21 1_555 1_555
H24 C21 1_555 1_555
H25 C22 1_555 1_555
H26 C23 1_555 1_555
H27 C23 1_555 1_555
H28 C23 1_555 1_555
H29 C24 1_555 1_555
H30 C24 1_555 1_555
H31 C24 1_555 1_555
H32 C25 1_555 1_555
H33 C25 1_555 1_555
H34 C25 1_555 1_555
O1 C6 1_555 1_555
C14 C15 1_555 1_555
C20 C21 1_555 1_555

#END
