
#######################################################################
#
#                 Cambridge Crystallographic Data Centre
#                                CCDC 
#
#######################################################################
#
# If this CIF has been generated from an entry in the Cambridge 
# Structural Database, then it will include bibliographic, chemical, 
# crystal, experimental, refinement or atomic coordinate data resulting 
# from the CCDC's data processing and validation procedures.
#
#######################################################################

data_ZARJEJ
_chemical_name_common            
3,3':4',3''-Ter-1,2,5-oxadiazole-4,4''-diamine
_chemical_formula_moiety         'C6 H4 N8 O3'
_chemical_name_systematic        
4-[4-(4-Amino-1,2,5-oxadiazol-3-yl)-1,2,5-oxadiazol-3-yl]-1,2,5-oxadiazol-3-amine
_symmetry_cell_setting           monoclinic
_symmetry_space_group_name_H-M   'C 2/c'
_symmetry_Int_Tables_number      15
_space_group_name_Hall           '-C 2yn'
loop_
_symmetry_equiv_pos_site_id
_symmetry_equiv_pos_as_xyz
1 x,y,z
2 -x,y,1/2-z
3 1/2+x,1/2+y,z
4 1/2-x,1/2+y,1/2-z
5 -x,-y,-z
6 x,-y,1/2+z
7 1/2-x,1/2-y,-z
8 1/2+x,1/2-y,1/2+z
_cell_length_a                   7.1681(9)
_cell_length_b                   10.8147(13)
_cell_length_c                   12.3448(18)
_cell_angle_alpha                90
_cell_angle_beta                 103.1550(10)
_cell_angle_gamma                90
_cell_volume                     931.866
_exptl_crystal_colour            colorless
_exptl_crystal_description       prism
_chemical_melting_point          '456-457 K'
_cell_formula_units_Z            4
_exptl_crystal_recrystallization_method 'ethyl acetate/diethyl ether'
loop_
_atom_site_label
_atom_site_type_symbol
_atom_site_fract_x
_atom_site_fract_y
_atom_site_fract_z
O1 O 0.0000 0.80892(10) 0.7500
O2 O 0.16242(12) 0.35531(8) 0.56878(8)
N1 N 0.09563(14) 0.73719(9) 0.68904(8)
N2 N 0.06415(14) 0.41475(9) 0.63634(9)
N3 N 0.29963(15) 0.43342(9) 0.54042(9)
N4 N 0.3974(2) 0.63687(11) 0.58898(12)
H1 H 0.372(2) 0.7101(14) 0.6165(12)
H2 H 0.480(3) 0.6342(15) 0.5474(15)
C1 C 0.06039(15) 0.62259(9) 0.71097(9)
C2 C 0.13553(15) 0.52528(10) 0.65104(9)
C3 C 0.28563(16) 0.53785(10) 0.59138(10)
O2A O -0.16242(12) 0.35531(8) 0.93122(8)
N1A N -0.09563(14) 0.73719(9) 0.81096(8)
N2A N -0.06415(14) 0.41475(9) 0.86366(9)
N3A N -0.29963(15) 0.43342(9) 0.95958(9)
N4A N -0.3974(2) 0.63687(11) 0.91102(12)
H1A H -0.372(2) 0.7101(14) 0.8835(12)
H2A H -0.480(3) 0.6342(15) 0.9526(15)
C1A C -0.06039(15) 0.62259(9) 0.78903(9)
C2A C -0.13553(15) 0.52528(10) 0.84896(9)
C3A C -0.28563(16) 0.53785(10) 0.90862(10)
loop_
_geom_bond_atom_site_label_1
_geom_bond_atom_site_label_2
_geom_bond_site_symmetry_1
_geom_bond_site_symmetry_2
O1 N1 1_555 1_555
O2 N2 1_555 1_555
N1 C1 1_555 1_555
N2 C2 1_555 1_555
N3 O2 1_555 1_555
N4 H1 1_555 1_555
H2 N4 1_555 1_555
C1 C2 1_555 1_555
C2 C3 1_555 1_555
C3 N3 1_555 1_555
O2A N2A 1_555 1_555
N1A O1 1_555 1_555
N2A C2A 1_555 1_555
N3A O2A 1_555 1_555
N4A H1A 1_555 1_555
H2A N4A 1_555 1_555
C1A C1 1_555 1_555
C2A C1A 1_555 1_555
C3A N3A 1_555 1_555
N4 C3 1_555 1_555
N1A C1A 1_555 1_555
N4A C3A 1_555 1_555
C2A C3A 1_555 1_555

#END
