
#######################################################################
#
#                 Cambridge Crystallographic Data Centre
#                                CCDC 
#
#######################################################################
#
# If this CIF has been generated from an entry in the Cambridge 
# Structural Database, then it will include bibliographic, chemical, 
# crystal, experimental, refinement or atomic coordinate data resulting 
# from the CCDC's data processing and validation procedures.
#
#######################################################################

data_ZARJIO
_chemical_formula_moiety         'C15 H9 N1 O1'
_chemical_name_systematic        chromeno[2,3-b]indole
_symmetry_cell_setting           monoclinic
_symmetry_space_group_name_H-M   'P 21'
_symmetry_Int_Tables_number      4
_space_group_name_Hall           'P 2yb'
loop_
_symmetry_equiv_pos_site_id
_symmetry_equiv_pos_as_xyz
1 x,y,z
2 -x,1/2+y,-z
_cell_length_a                   4.6821(12)
_cell_length_b                   18.786(5)
_cell_length_c                   6.0603(15)
_cell_angle_alpha                90
_cell_angle_beta                 98.751(4)
_cell_angle_gamma                90
_cell_volume                     526.846
_cell_formula_units_Z            2
loop_
_atom_site_label
_atom_site_type_symbol
_atom_site_fract_x
_atom_site_fract_y
_atom_site_fract_z
C1 C 0.7113(6) 0.09225(16) 0.8621(5)
C2 C 0.9235(7) 0.0424(2) 0.9244(6)
H1 H 1.0195 0.0405 1.0704
C3 C 0.9906(7) -0.00481(19) 0.7662(7)
H2 H 1.1368 -0.0380 0.8049
C4 C 0.8419(7) -0.0034(2) 0.5481(6)
H3 H 0.8889 -0.0361 0.4440
C5 C 0.6253(6) 0.04605(18) 0.4850(5)
H4 H 0.5268 0.0470 0.3398
C6 C 0.5588(6) 0.09404(16) 0.6429(5)
C7 C 0.3562(6) 0.15234(16) 0.6424(5)
C8 C 0.4185(6) 0.17950(16) 0.8699(5)
C9 C 0.1491(6) 0.18275(16) 0.4973(5)
H5 H 0.1031 0.1655 0.3524
C10 C -0.0020(6) 0.24331(15) 0.5717(5)
C11 C 0.0693(6) 0.26852(15) 0.7902(5)
C12 C -0.0632(8) 0.3271(2) 0.8671(7)
H6 H -0.0095 0.3433 1.0125
C13 C -0.2775(8) 0.3613(2) 0.7234(7)
H7 H -0.3713 0.4005 0.7728
C14 C -0.3519(7) 0.33762(17) 0.5092(7)
H8 H -0.4948 0.3614 0.4134
C15 C -0.2174(7) 0.27865(18) 0.4323(6)
H9 H -0.2724 0.2629 0.2865
N1 N 0.6197(6) 0.14669(15) 0.9994(4)
O1 O 0.2825(5) 0.23562(12) 0.9421(4)
loop_
_geom_bond_atom_site_label_1
_geom_bond_atom_site_label_2
_geom_bond_site_symmetry_1
_geom_bond_site_symmetry_2
C1 C2 1_555 1_555
C2 H1 1_555 1_555
C3 C2 1_555 1_555
H2 C3 1_555 1_555
C4 C3 1_555 1_555
H3 C4 1_555 1_555
C5 C4 1_555 1_555
H4 C5 1_555 1_555
C6 C1 1_555 1_555
C7 C6 1_555 1_555
C8 C7 1_555 1_555
C9 C7 1_555 1_555
H5 C9 1_555 1_555
C10 C9 1_555 1_555
C11 C10 1_555 1_555
C12 C11 1_555 1_555
H6 C12 1_555 1_555
C13 C12 1_555 1_555
H7 C13 1_555 1_555
C14 C13 1_555 1_555
H8 C14 1_555 1_555
C15 C10 1_555 1_555
H9 C15 1_555 1_555
N1 C1 1_555 1_555
O1 C8 1_555 1_555
C5 C6 1_555 1_555
C8 N1 1_555 1_555
C11 O1 1_555 1_555
C14 C15 1_555 1_555

#END
