
#######################################################################
#
#                 Cambridge Crystallographic Data Centre
#                                CCDC 
#
#######################################################################
#
# If this CIF has been generated from an entry in the Cambridge 
# Structural Database, then it will include bibliographic, chemical, 
# crystal, experimental, refinement or atomic coordinate data resulting 
# from the CCDC's data processing and validation procedures.
#
#######################################################################

data_ZARKAE
_chemical_formula_moiety         'C24 H28 N2 O5'
_chemical_name_systematic        
"Methyl 1R,2S,4R,5S,8R-2-methyl-4-(2'-naphthyl)-6-oxo-3,7-diaza-7-acetyl-8-isopropyloxy-bicyclo(3.3.0)octane-2-carboxylate"
_symmetry_cell_setting           triclinic
_symmetry_space_group_name_H-M   'P -1'
_symmetry_Int_Tables_number      2
_space_group_name_Hall           '-P 1'
loop_
_symmetry_equiv_pos_site_id
_symmetry_equiv_pos_as_xyz
1 x,y,z
2 -x,-y,-z
_cell_length_a                   8.1496(10)
_cell_length_b                   9.7635(12)
_cell_length_c                   14.562(2)
_cell_angle_alpha                107.755(8)
_cell_angle_beta                 99.127(8)
_cell_angle_gamma                92.166(9)
_cell_volume                     1084.93
_exptl_crystal_colour            colorless
_chemical_melting_point          147-150deg.C
_cell_formula_units_Z            2
loop_
_atom_site_label
_atom_site_type_symbol
_atom_site_fract_x
_atom_site_fract_y
_atom_site_fract_z
N1 N 0.4301(3) 0.3004(3) 0.3467(2)
C1 C 0.4920(3) 0.2146(3) 0.2594(2)
C2 C 0.6798(4) 0.2472(3) 0.2633(2)
C3 C 0.3973(4) 0.2446(3) 0.1700(2)
O1 O 0.3067(3) 0.3380(3) 0.1714(2)
O2 O 0.4325(3) 0.1526(2) 0.08787(15)
C4 C 0.3540(5) 0.1706(4) -0.0036(2)
C5 C 0.4571(3) 0.0594(3) 0.2618(2)
C6 C 0.4663(3) 0.0753(3) 0.3713(2)
C7 C 0.4929(3) 0.2422(3) 0.4256(2)
C8 C 0.4104(4) 0.2924(3) 0.5145(2)
C9 C 0.2524(4) 0.3309(3) 0.5095(2)
C10 C 0.1739(4) 0.3679(3) 0.5963(2)
C11 C 0.0107(5) 0.4074(4) 0.5915(3)
C12 C -0.0564(6) 0.4458(4) 0.6755(3)
C13 C 0.0356(6) 0.4414(4) 0.7655(3)
C14 C 0.1909(6) 0.4007(4) 0.7705(3)
C15 C 0.2698(4) 0.3628(3) 0.6836(2)
C16 C 0.4324(5) 0.3248(4) 0.6889(2)
C17 C 0.5020(5) 0.2914(3) 0.6062(2)
C18 C 0.2828(3) -0.0172(3) 0.2098(2)
O3 O 0.3117(2) -0.1580(2) 0.15569(13)
C19 C 0.1776(4) -0.2468(3) 0.0809(2)
C20 C 0.2412(4) -0.3951(3) 0.0498(3)
C21 C 0.1382(5) -0.1872(4) -0.0033(2)
N2 N 0.1928(3) -0.0176(2) 0.2895(2)
C22 C 0.0165(3) -0.0277(3) 0.2742(2)
O4 O -0.0603(2) -0.0398(3) 0.1937(2)
C23 C -0.0656(4) -0.0198(4) 0.3601(2)
C24 C 0.2997(3) 0.0116(3) 0.3794(2)
O5 O 0.2642(2) -0.0114(2) 0.45117(14)
H1 H 0.4644(44) 0.3891(42) 0.3628(26)
H2 H 0.7005(5) 0.3432(9) 0.2607(16)
H3 H 0.7146(7) 0.1791(15) 0.2084(9)
H4 H 0.7415(4) 0.2394(23) 0.3231(8)
H5 H 0.3977(25) 0.1071(21) -0.0568(3)
H6 H 0.3765(28) 0.2687(8) -0.0016(8)
H7 H 0.2356(6) 0.1478(28) -0.0131(10)
H8 H 0.5437(3) -0.0002(3) 0.2359(2)
H9 H 0.5581(3) 0.0255(3) 0.3948(2)
H10 H 0.6130(3) 0.2705(3) 0.4461(2)
H11 H 0.1931(4) 0.3339(3) 0.4502(2)
H12 H -0.0517(5) 0.4078(4) 0.5322(3)
H13 H -0.1638(6) 0.4751(4) 0.6733(3)
H14 H -0.0122(6) 0.4669(4) 0.8216(3)
H15 H 0.2493(6) 0.3965(4) 0.8297(3)
H16 H 0.4933(5) 0.3221(4) 0.7479(2)
H17 H 0.6117(5) 0.2674(3) 0.6099(2)
H18 H 0.2254(3) 0.0335(3) 0.1672(2)
H19 H 0.0776(4) -0.2520(3) 0.1096(2)
H20 H 0.1555(12) -0.4623(7) 0.0033(14)
H21 H 0.2705(30) -0.4265(12) 0.1062(4)
H22 H 0.3377(19) -0.3904(7) 0.0204(17)
H23 H 0.0940(31) -0.0955(14) 0.0190(5)
H24 H 0.0573(25) -0.2530(14) -0.0544(8)
H25 H 0.2383(8) -0.1751(27) -0.0281(13)
H26 H -0.0307(23) 0.0711(11) 0.4103(7)
H27 H -0.0344(23) -0.0971(15) 0.3853(11)
H28 H -0.1846(4) -0.0284(26) 0.3400(4)
loop_
_geom_bond_atom_site_label_1
_geom_bond_atom_site_label_2
_geom_bond_site_symmetry_1
_geom_bond_site_symmetry_2
N1 C1 1_555 1_555
C1 C2 1_555 1_555
C2 H2 1_555 1_555
C3 C1 1_555 1_555
O1 C3 1_555 1_555
O2 C3 1_555 1_555
C4 O2 1_555 1_555
C5 C1 1_555 1_555
C6 C5 1_555 1_555
C7 N1 1_555 1_555
C8 C7 1_555 1_555
C9 C8 1_555 1_555
C10 C9 1_555 1_555
C11 C10 1_555 1_555
C12 C11 1_555 1_555
C13 C12 1_555 1_555
C14 C13 1_555 1_555
C15 C10 1_555 1_555
C16 C15 1_555 1_555
C17 C8 1_555 1_555
C18 C5 1_555 1_555
O3 C18 1_555 1_555
C19 O3 1_555 1_555
C20 C19 1_555 1_555
C21 C19 1_555 1_555
N2 C18 1_555 1_555
C22 N2 1_555 1_555
O4 C22 1_555 1_555
C23 C22 1_555 1_555
C24 C6 1_555 1_555
O5 C24 1_555 1_555
H1 N1 1_555 1_555
H3 C2 1_555 1_555
H4 C2 1_555 1_555
H5 C4 1_555 1_555
H6 C4 1_555 1_555
H7 C4 1_555 1_555
H8 C5 1_555 1_555
H9 C6 1_555 1_555
H10 C7 1_555 1_555
H11 C9 1_555 1_555
H12 C11 1_555 1_555
H13 C12 1_555 1_555
H14 C13 1_555 1_555
H15 C14 1_555 1_555
H16 C16 1_555 1_555
H17 C17 1_555 1_555
H18 C18 1_555 1_555
H19 C19 1_555 1_555
H20 C20 1_555 1_555
H21 C20 1_555 1_555
H22 C20 1_555 1_555
H23 C21 1_555 1_555
H24 C21 1_555 1_555
H25 C21 1_555 1_555
H26 C23 1_555 1_555
H27 C23 1_555 1_555
H28 C23 1_555 1_555
C6 C7 1_555 1_555
C14 C15 1_555 1_555
C16 C17 1_555 1_555
N2 C24 1_555 1_555

#END
