
#######################################################################
#
#                 Cambridge Crystallographic Data Centre
#                                CCDC 
#
#######################################################################
#
# If this CIF has been generated from an entry in the Cambridge 
# Structural Database, then it will include bibliographic, chemical, 
# crystal, experimental, refinement or atomic coordinate data resulting 
# from the CCDC's data processing and validation procedures.
#
#######################################################################

data_ZARNEL
_chemical_formula_moiety         'C48 H38 N4 O4 P1 1+,Cl1 1-,C4 H10 O1'
_chemical_name_systematic        
'bis(Ethane-1,2-diolato-O)-(tetraphenylporphyrinato)-phosphorus(v) chloride diethyl ether solvate'
_symmetry_cell_setting           orthorhombic
_symmetry_space_group_name_H-M   'P 21 21 21'
_symmetry_Int_Tables_number      19
_space_group_name_Hall           'P 2ac 2ab'
loop_
_symmetry_equiv_pos_site_id
_symmetry_equiv_pos_as_xyz
1 x,y,z
2 1/2-x,-y,1/2+z
3 1/2+x,1/2-y,-z
4 -x,1/2+y,1/2-z
_cell_length_a                   12.524(3)
_cell_length_b                   25.177(5)
_cell_length_c                   14.275(3)
_cell_angle_alpha                90
_cell_angle_beta                 90
_cell_angle_gamma                90
_cell_volume                     4501.15
_exptl_crystal_colour            purple
_cell_formula_units_Z            4
loop_
_atom_site_label
_atom_site_type_symbol
_atom_site_fract_x
_atom_site_fract_y
_atom_site_fract_z
P1 P 0.4141(1) 0.0329(1) 0.8724(1)
N1 N 0.3078(3) 0.0455(2) 0.9579(3)
N2 N 0.4633(3) 0.1010(2) 0.8882(3)
N3 N 0.5211(3) 0.0209(2) 0.7853(3)
N4 N 0.3658(3) -0.0356(2) 0.8579(3)
C1 C 0.2089(4) 0.0216(2) 0.9584(4)
C2 C 0.1492(5) 0.0415(3) 1.0384(5)
C3 C 0.2140(5) 0.0750(3) 1.0851(5)
C4 C 0.3117(5) 0.0802(2) 1.0346(4)
C5 C 0.3884(4) 0.1188(2) 1.0449(4)
C6 C 0.4542(5) 0.1315(2) 0.9688(4)
C7 C 0.5025(5) 0.1815(2) 0.9525(5)
C8 C 0.5346(5) 0.1824(2) 0.8625(5)
C9 C 0.5143(5) 0.1323(2) 0.8219(4)
C10 C 0.5558(4) 0.1129(2) 0.7388(4)
C11 C 0.5666(4) 0.0583(2) 0.7266(4)
C12 C 0.6396(5) 0.0322(2) 0.6658(4)
C13 C 0.6451(5) -0.0190(2) 0.6911(4)
C14 C 0.5664(4) -0.0277(2) 0.7636(4)
C15 C 0.5274(4) -0.0764(2) 0.7929(4)
C16 C 0.4262(5) -0.0793(2) 0.8312(4)
C17 C 0.3588(5) -0.1241(2) 0.8291(4)
C18 C 0.2580(5) -0.1079(2) 0.8461(4)
C19 C 0.2614(4) -0.0534(2) 0.8671(4)
C20 C 0.1825(4) -0.0232(2) 0.9069(4)
C21 C 0.3927(5) 0.1539(2) 1.1270(4)
C22 C 0.3116(6) 0.1892(2) 1.1483(5)
C23 C 0.3232(7) 0.2240(3) 1.2229(5)
C24 C 0.4146(7) 0.2241(3) 1.2760(5)
C25 C 0.4938(7) 0.1898(3) 1.2565(5)
C26 C 0.4849(6) 0.1543(3) 1.1819(5)
C27 C 0.5984(4) 0.1527(2) 0.6704(4)
C28 C 0.5277(5) 0.1902(2) 0.6347(5)
C29 C 0.5626(6) 0.2292(3) 0.5746(5)
C30 C 0.6694(6) 0.2296(3) 0.5480(5)
C31 C 0.7387(5) 0.1935(3) 0.5809(4)
C32 C 0.7047(5) 0.1547(2) 0.6436(4)
C33 C 0.5828(4) -0.1271(2) 0.7673(4)
C34 C 0.5934(6) -0.1433(3) 0.6740(5)
C35 C 0.6444(7) -0.1903(3) 0.6540(6)
C36 C 0.6858(6) -0.2215(3) 0.7225(6)
C37 C 0.6728(6) -0.2060(3) 0.8142(6)
C38 C 0.6220(4) -0.1593(2) 0.8370(4)
C39 C 0.0675(4) -0.0402(2) 0.9005(4)
C40 C 0.0294(5) -0.0834(3) 0.9486(4)
C41 C -0.0792(6) -0.0977(3) 0.9380(5)
C42 C -0.1429(6) -0.0699(3) 0.8771(6)
C43 C -0.1032(6) -0.0271(3) 0.8302(6)
C44 C 0.0016(5) -0.0128(3) 0.8413(5)
O1 O 0.3354(3) 0.0504(2) 0.7857(3)
C45 C 0.2694(7) 0.0927(4) 0.7761(6)
C46 C 0.2660(8) 0.1081(4) 0.6660(7)
O2 O 0.2364(7) 0.1611(4) 0.6643(7)
O3 O 0.4995(3) 0.0149(1) 0.9537(2)
C47 C 0.4805(5) -0.0180(2) 1.0332(4)
C48 C 0.5862(5) -0.0334(3) 1.0734(5)
O4 O 0.5762(4) -0.0634(2) 1.1546(3)
H1 H 0.0768 0.0324 1.0536
H2 H 0.1978 0.0927 1.1430
H3 H 0.5100 0.2096 0.9973
H4 H 0.5660 0.2121 0.8306
H5 H 0.6788 0.0487 0.6159
H6 H 0.6914 -0.0455 0.6649
H7 H 0.3815 -0.1600 0.8180
H8 H 0.1949 -0.1295 0.8435
H9 H 0.2478 0.1893 1.1111
H10 H 0.2667 0.2483 1.2378
H11 H 0.4229 0.2491 1.3263
H12 H 0.5564 0.1895 1.2953
H13 H 0.5414 0.1297 1.1683
H14 H 0.4548 0.1892 0.6552
H15 H 0.5134 0.2549 0.5501
H16 H 0.6945 0.2562 0.5053
H17 H 0.8120 0.1944 0.5615
H18 H 0.7544 0.1294 0.6686
H19 H 0.5664 -0.1212 0.6246
H20 H 0.6529 -0.2011 0.5899
H21 H 0.7204 -0.2544 0.7071
H22 H 0.7010 -0.2281 0.8632
H23 H 0.6134 -0.1490 0.9013
H24 H 0.0764 -0.1035 0.9883
H25 H -0.1077 -0.1272 0.9725
H26 H -0.2164 -0.0799 0.8702
H27 H -0.1490 -0.0080 0.7882
H28 H 0.0289 0.0172 0.8077
H29 H 0.2962 0.1230 0.8094
H30 H 0.1993 0.0843 0.7990
H31 H 0.2129 0.0867 0.6356
H32 H 0.3344 0.1010 0.6382
H33 H 0.2335 0.1705 0.6071
H34 H 0.4410 -0.0491 1.0156
H35 H 0.4409 0.0010 1.0799
H36 H 0.6270 -0.0018 1.0855
H37 H 0.6234 -0.0540 1.0272
H38 H 0.6375 -0.0719 1.1752
Cl1 Cl 0.0239(2) 0.1618(1) 0.5782(1)
O5 O 0.9190(6) 0.1330(3) 0.9330(4)
C49 C 1.0830(10) 0.1813(4) 0.9225(10)
C50 C 0.9876(11) 0.1569(5) 0.8738(9)
C51 C 0.8235(10) 0.1145(5) 0.8914(8)
C52 C 0.7567(9) 0.0833(5) 0.9546(9)
H39 H 1.1306 0.1982 0.8789
H40 H 1.0587 0.2069 0.9675
H41 H 1.1200 0.1532 0.9542
H42 H 0.9509 0.1849 0.8414
H43 H 1.0117 0.1316 0.8282
H44 H 0.8398 0.0918 0.8392
H45 H 0.7820 0.1438 0.8685
H46 H 0.6922 0.0708 0.9257
H47 H 0.7975 0.0536 0.9768
H48 H 0.7391 0.1061 1.0063
loop_
_geom_bond_atom_site_label_1
_geom_bond_atom_site_label_2
_geom_bond_site_symmetry_1
_geom_bond_site_symmetry_2
P1 N1 1_555 1_555
N1 C1 1_555 1_555
N2 P1 1_555 1_555
N3 P1 1_555 1_555
N4 P1 1_555 1_555
C1 C2 1_555 1_555
C2 C3 1_555 1_555
C3 C4 1_555 1_555
C4 N1 1_555 1_555
C5 C4 1_555 1_555
C6 N2 1_555 1_555
C7 C6 1_555 1_555
C8 C7 1_555 1_555
C9 N2 1_555 1_555
C10 C9 1_555 1_555
C11 N3 1_555 1_555
C12 C11 1_555 1_555
C13 C12 1_555 1_555
C14 N3 1_555 1_555
C15 C14 1_555 1_555
C16 N4 1_555 1_555
C17 C16 1_555 1_555
C18 C17 1_555 1_555
C19 N4 1_555 1_555
C20 C1 1_555 1_555
C21 C5 1_555 1_555
C22 C21 1_555 1_555
C23 C22 1_555 1_555
C24 C23 1_555 1_555
C25 C24 1_555 1_555
C26 C21 1_555 1_555
C27 C10 1_555 1_555
C28 C27 1_555 1_555
C29 C28 1_555 1_555
C30 C29 1_555 1_555
C31 C30 1_555 1_555
C32 C27 1_555 1_555
C33 C15 1_555 1_555
C34 C33 1_555 1_555
C35 C34 1_555 1_555
C36 C35 1_555 1_555
C37 C36 1_555 1_555
C38 C33 1_555 1_555
C39 C20 1_555 1_555
C40 C39 1_555 1_555
C41 C40 1_555 1_555
C42 C41 1_555 1_555
C43 C42 1_555 1_555
C44 C39 1_555 1_555
O1 P1 1_555 1_555
C45 O1 1_555 1_555
C46 C45 1_555 1_555
O2 C46 1_555 1_555
O3 P1 1_555 1_555
C47 O3 1_555 1_555
C48 C47 1_555 1_555
O4 C48 1_555 1_555
H1 C2 1_555 1_555
H2 C3 1_555 1_555
H3 C7 1_555 1_555
H4 C8 1_555 1_555
H5 C12 1_555 1_555
H6 C13 1_555 1_555
H7 C17 1_555 1_555
H8 C18 1_555 1_555
H9 C22 1_555 1_555
H10 C23 1_555 1_555
H11 C24 1_555 1_555
H12 C25 1_555 1_555
H13 C26 1_555 1_555
H14 C28 1_555 1_555
H15 C29 1_555 1_555
H16 C30 1_555 1_555
H17 C31 1_555 1_555
H18 C32 1_555 1_555
H19 C34 1_555 1_555
H20 C35 1_555 1_555
H21 C36 1_555 1_555
H22 C37 1_555 1_555
H23 C38 1_555 1_555
H24 C40 1_555 1_555
H25 C41 1_555 1_555
H26 C42 1_555 1_555
H27 C43 1_555 1_555
H28 C44 1_555 1_555
H29 C45 1_555 1_555
H30 C45 1_555 1_555
H31 C46 1_555 1_555
H32 C46 1_555 1_555
H33 O2 1_555 1_555
H34 C47 1_555 1_555
H35 C47 1_555 1_555
H36 C48 1_555 1_555
H37 C48 1_555 1_555
H38 O4 1_555 1_555
O5 C50 1_555 1_555
C49 C50 1_555 1_555
C50 H42 1_555 1_555
C51 O5 1_555 1_555
C52 C51 1_555 1_555
H39 C49 1_555 1_555
H40 C49 1_555 1_555
H41 C49 1_555 1_555
H43 C50 1_555 1_555
H44 C51 1_555 1_555
H45 C51 1_555 1_555
H46 C52 1_555 1_555
H47 C52 1_555 1_555
H48 C52 1_555 1_555
C5 C6 1_555 1_555
C8 C9 1_555 1_555
C10 C11 1_555 1_555
C13 C14 1_555 1_555
C15 C16 1_555 1_555
C18 C19 1_555 1_555
C19 C20 1_555 1_555
C25 C26 1_555 1_555
C31 C32 1_555 1_555
C37 C38 1_555 1_555
C43 C44 1_555 1_555

#END
