
#######################################################################
#
#                 Cambridge Crystallographic Data Centre
#                                CCDC 
#
#######################################################################
#
# If this CIF has been generated from an entry in the Cambridge 
# Structural Database, then it will include bibliographic, chemical, 
# crystal, experimental, refinement or atomic coordinate data resulting 
# from the CCDC's data processing and validation procedures.
#
#######################################################################

data_ZARSUJ
_chemical_formula_moiety         'C21 H27 Br1 O4'
_chemical_name_systematic        
'(7-hydroxy-3-(propan-2-yl)octahydronaphtho[1,2-b]oxiren-7b(1aH)-yl)methyl 4-bromobenzoate'
_symmetry_cell_setting           orthorhombic
_symmetry_space_group_name_H-M   'P 21 21 21'
_symmetry_Int_Tables_number      19
_space_group_name_Hall           'P 2ac 2ab'
loop_
_symmetry_equiv_pos_site_id
_symmetry_equiv_pos_as_xyz
1 x,y,z
2 1/2-x,-y,1/2+z
3 1/2+x,1/2-y,-z
4 -x,1/2+y,1/2-z
_cell_length_a                   6.2720(5)
_cell_length_b                   7.7404(6)
_cell_length_c                   40.175(3)
_cell_angle_alpha                90
_cell_angle_beta                 90
_cell_angle_gamma                90
_cell_volume                     1950.41
_exptl_crystal_description       block
_cell_formula_units_Z            4
loop_
_atom_site_label
_atom_site_type_symbol
_atom_site_fract_x
_atom_site_fract_y
_atom_site_fract_z
Br1 Br 0.33752(10) 1.13047(8) 0.54214(2)
C1 C 0.8522(8) 0.6154(6) 0.31704(10)
H1 H 0.9802 0.6888 0.3125
C2 C 0.7821(7) 0.6129(7) 0.35190(10)
C3 C 0.6728(8) 0.4541(6) 0.36546(10)
H2 H 0.7421 0.4318 0.3875
C4 C 0.4348(8) 0.4854(7) 0.37346(12)
H3 H 0.4236 0.5804 0.3903
C5 C 0.3334(9) 0.3228(6) 0.38779(11)
H4 H 0.3962 0.2987 0.4099
H5 H 0.1787 0.3424 0.3908
C6 C 0.3664(9) 0.1678(7) 0.36545(12)
H6 H 0.2956 0.1880 0.3438
H7 H 0.3013 0.0645 0.3758
C7 C 0.6045(8) 0.1363(8) 0.35990(11)
H8 H 0.6723 0.1082 0.3815
H9 H 0.6227 0.0353 0.3450
C8 C 0.7176(7) 0.2921(6) 0.34458(10)
H10 H 0.8739 0.2690 0.3466
C9 C 0.6737(9) 0.3233(6) 0.30706(9)
H11 H 0.5264 0.3717 0.3050
C10 C 0.8297(9) 0.4620(6) 0.29492(10)
H12 H 0.9718 0.4083 0.2922
H13 H 0.7825 0.5022 0.2727
C11 C 0.6839(10) 0.1595(6) 0.28549(10)
H14 H 0.5733 0.0775 0.2940
C12 C 0.6312(11) 0.1991(8) 0.24897(11)
H15 H 0.7403 0.2759 0.2397
H16 H 0.4916 0.2555 0.2476
H17 H 0.6280 0.0911 0.2362
C13 C 0.9008(9) 0.0674(7) 0.28732(13)
H18 H 0.8972 -0.0367 0.2734
H19 H 0.9308 0.0351 0.3104
H20 H 1.0127 0.1452 0.2792
C14 C 0.9079(8) 0.7226(7) 0.37524(11)
H21 H 1.0320 0.6567 0.3837
H22 H 0.9616 0.8260 0.3634
C15 C 0.8822(8) 0.8261(6) 0.43011(11)
C16 C 0.7432(7) 0.8915(6) 0.45688(12)
C17 C 0.8284(9) 0.9097(6) 0.48864(10)
H23 H 0.9708 0.8740 0.4928
C18 C 0.7088(8) 0.9790(6) 0.51426(11)
H24 H 0.7664 0.9895 0.5360
C19 C 0.5046(8) 1.0324(6) 0.50746(11)
C20 C 0.4145(8) 1.0184(7) 0.47625(11)
H25 H 0.2740 1.0589 0.4721
C21 C 0.5342(8) 0.9439(6) 0.45108(11)
H26 H 0.4731 0.9284 0.4297
O1 O 0.6615(6) 0.7102(4) 0.32654(7)
O2 O 0.3107(6) 0.5311(5) 0.34475(8)
H27 H 0.3818 0.5975 0.3325
O3 O 0.7732(5) 0.7752(4) 0.40297(7)
O4 O 1.0740(6) 0.8208(6) 0.43179(9)
loop_
_geom_bond_atom_site_label_1
_geom_bond_atom_site_label_2
_geom_bond_site_symmetry_1
_geom_bond_site_symmetry_2
Br1 C19 1_555 1_555
C1 H1 1_555 1_555
C2 C1 1_555 1_555
C3 C2 1_555 1_555
H2 C3 1_555 1_555
C4 C3 1_555 1_555
H3 C4 1_555 1_555
C5 C4 1_555 1_555
H4 C5 1_555 1_555
H5 C5 1_555 1_555
C6 C5 1_555 1_555
H6 C6 1_555 1_555
H7 C6 1_555 1_555
C7 C6 1_555 1_555
H8 C7 1_555 1_555
H9 C7 1_555 1_555
C8 C3 1_555 1_555
H10 C8 1_555 1_555
C9 C8 1_555 1_555
H11 C9 1_555 1_555
C10 C1 1_555 1_555
H12 C10 1_555 1_555
H13 C10 1_555 1_555
C11 C9 1_555 1_555
H14 C11 1_555 1_555
C12 C11 1_555 1_555
H15 C12 1_555 1_555
H16 C12 1_555 1_555
H17 C12 1_555 1_555
C13 C11 1_555 1_555
H18 C13 1_555 1_555
H19 C13 1_555 1_555
H20 C13 1_555 1_555
C14 C2 1_555 1_555
H21 C14 1_555 1_555
H22 C14 1_555 1_555
C15 C16 1_555 1_555
C16 C17 1_555 1_555
C17 H23 1_555 1_555
C18 C17 1_555 1_555
H24 C18 1_555 1_555
C19 C18 1_555 1_555
C20 C19 1_555 1_555
H25 C20 1_555 1_555
C21 C16 1_555 1_555
H26 C21 1_555 1_555
O1 C1 1_555 1_555
O2 C4 1_555 1_555
H27 O2 1_555 1_555
O3 C14 1_555 1_555
O4 C15 1_555 1_555
C2 O1 1_555 1_555
C7 C8 1_555 1_555
C9 C10 1_555 1_555
C15 O3 1_555 1_555
C20 C21 1_555 1_555

#END
