
#######################################################################
#
#                 Cambridge Crystallographic Data Centre
#                                CCDC 
#
#######################################################################
#
# If this CIF has been generated from an entry in the Cambridge 
# Structural Database, then it will include bibliographic, chemical, 
# crystal, experimental, refinement or atomic coordinate data resulting 
# from the CCDC's data processing and validation procedures.
#
#######################################################################

data_ZARVOG
_chemical_formula_moiety         'C15 H26 N4 2+,C1 H4 O1,H2 O1,2(Cl1 1-)'
_chemical_name_systematic        
"1,1'-methylenebis(2,3,4,5-tetramethyl-1H-imidazol-3-ium) dichloride methanol solvate monohydrate"
_symmetry_cell_setting           triclinic
_symmetry_space_group_name_H-M   'P 1'
_symmetry_Int_Tables_number      1
_space_group_name_Hall           'P 1'
loop_
_symmetry_equiv_pos_site_id
_symmetry_equiv_pos_as_xyz
1 x,y,z
_cell_length_a                   8.5800(17)
_cell_length_b                   9.3570(19)
_cell_length_c                   12.804(3)
_cell_angle_alpha                85.12(3)
_cell_angle_beta                 84.40(3)
_cell_angle_gamma                89.87(3)
_cell_volume                     1019.31
_exptl_crystal_colour            colorless
_exptl_crystal_description       block
_cell_formula_units_Z            2
loop_
_atom_site_label
_atom_site_type_symbol
_atom_site_fract_x
_atom_site_fract_y
_atom_site_fract_z
Cl1 Cl 0.07673(9) 0.68573(8) 0.40892(6)
Cl2 Cl 0.56130(9) 0.14596(9) 0.23437(6)
Cl3 Cl 0.98890(9) 0.51074(9) 0.84991(6)
Cl4 Cl 0.76220(10) 0.02604(10) 0.74884(7)
N1 N 0.3517(3) 0.7393(3) 0.1272(2)
N2 N 0.5098(3) 0.5731(3) 0.0739(2)
N3 N 0.2126(3) 0.9596(3) 0.0950(2)
N4 N 0.0301(4) 1.0801(4) 0.0232(3)
C1 C 0.5034(4) 0.6990(4) 0.1148(3)
C2 C 0.3565(4) 0.5283(4) 0.0624(3)
C3 C 0.2596(4) 0.6314(4) 0.0951(3)
C4 C 0.6431(4) 0.7783(4) 0.1412(3)
H1 H 0.6959 0.7200 0.1943
H2 H 0.6097 0.8691 0.1690
H3 H 0.7156 0.7980 0.0775
C5 C 0.6510(5) 0.4886(5) 0.0489(3)
H4 H 0.7442 0.5482 0.0510
H5 H 0.6497 0.4558 -0.0217
H6 H 0.6533 0.4054 0.1006
C6 C 0.3250(5) 0.3892(4) 0.0204(3)
H7 H 0.2141 0.3834 0.0087
H8 H 0.3503 0.3103 0.0712
H9 H 0.3897 0.3821 -0.0464
C7 C 0.0851(4) 0.6377(5) 0.1045(3)
H10 H 0.0434 0.5528 0.0766
H11 H 0.0519 0.7243 0.0643
H12 H 0.0454 0.6400 0.1787
C8 C 0.0621(4) 1.0036(4) 0.1109(3)
C9 C 0.1624(4) 1.0845(4) -0.0493(3)
C10 C 0.2775(5) 1.0126(4) -0.0041(3)
C11 C -0.0419(4) 0.9734(5) 0.2094(3)
H13 H -0.0587 0.8696 0.2230
H14 H -0.1427 1.0209 0.2024
H15 H 0.0069 1.0095 0.2681
C12 C -0.1186(4) 1.1504(4) 0.0026(3)
H16 H -0.1647 1.1045 -0.0533
H17 H -0.0992 1.2521 -0.0197
H18 H -0.1910 1.1414 0.0669
C13 C 0.1609(5) 1.1596(5) -0.1570(3)
H19 H 0.1390 1.2616 -0.1513
H20 H 0.0796 1.1172 -0.1936
H21 H 0.2632 1.1491 -0.1968
C14 C 0.4446(4) 0.9964(5) -0.0432(3)
H22 H 0.4645 0.8964 -0.0577
H23 H 0.5109 1.0229 0.0103
H24 H 0.4687 1.0590 -0.1081
C15 C 0.2935(4) 0.8690(4) 0.1718(3)
H25 H 0.3821 0.9232 0.1935
H26 H 0.2202 0.8431 0.2352
N5 N 0.2879(3) 0.0931(3) 0.5206(2)
N6 N 0.1306(4) 0.2583(3) 0.5714(2)
N7 N 0.4285(3) -0.1269(3) 0.5504(2)
N8 N 0.6100(3) -0.2496(3) 0.6223(2)
C16 C 0.1355(4) 0.1324(4) 0.5319(3)
C17 C 0.2803(4) 0.3050(4) 0.5843(3)
C18 C 0.3808(4) 0.2015(4) 0.5503(3)
C19 C -0.0007(4) 0.0518(4) 0.5040(3)
H27 H -0.0707 0.0249 0.5678
H28 H 0.0357 -0.0349 0.4715
H29 H -0.0574 0.1122 0.4542
C20 C -0.0121(4) 0.3421(5) 0.5951(3)
H30 H -0.0224 0.4164 0.5375
H31 H -0.0051 0.3873 0.6608
H32 H -0.1037 0.2783 0.6029
C21 C 0.3112(5) 0.4469(5) 0.6232(3)
H33 H 0.4214 0.4529 0.6367
H34 H 0.2442 0.4576 0.6885
H35 H 0.2884 0.5236 0.5699
C22 C 0.5550(4) 0.1981(5) 0.5410(3)
H36 H 0.5951 0.2871 0.5640
H37 H 0.5948 0.1890 0.4675
H38 H 0.5898 0.1161 0.5855
C23 C 0.5804(4) -0.1682(4) 0.5341(3)
C24 C 0.4781(4) -0.2598(4) 0.6947(3)
C25 C 0.3625(4) -0.1848(4) 0.6491(3)
C26 C 0.6858(4) -0.1376(5) 0.4377(3)
H39 H 0.7922 -0.1673 0.4507
H40 H 0.6852 -0.0345 0.4165
H41 H 0.6503 -0.1905 0.3815
C27 C 0.7612(4) -0.3169(5) 0.6417(3)
H42 H 0.8223 -0.3289 0.5743
H43 H 0.7424 -0.4110 0.6808
H44 H 0.8193 -0.2557 0.6830
C28 C 0.4778(5) -0.3378(5) 0.8012(3)
H45 H 0.3719 -0.3375 0.8375
H46 H 0.5501 -0.2901 0.8420
H47 H 0.5114 -0.4369 0.7940
C29 C 0.1924(5) -0.1726(4) 0.6869(3)
H48 H 0.1702 -0.2303 0.7543
H49 H 0.1285 -0.2075 0.6349
H50 H 0.1673 -0.0720 0.6963
C30 C 0.3472(4) -0.0370(4) 0.4746(3)
H51 H 0.2589 -0.0916 0.4529
H52 H 0.4200 -0.0102 0.4112
O1 O 0.6727(4) 0.3477(4) 0.7962(3)
H53 H 0.755(4) 0.379(7) 0.820(5)
H54 H 0.676(8) 0.260(2) 0.783(5)
O2 O 0.8797(5) 0.8104(4) 0.9260(3)
H55 H 0.913(8) 0.726(3) 0.920(5)
H56 H 0.858(8) 0.886(4) 0.891(6)
O3 O 0.2075(4) 0.1752(4) 0.2910(3)
H57 H 0.3024 0.1715 0.2679
C31 C 0.1623(12) 0.3200(9) 0.2958(7)
H58 H 0.1604 0.3456 0.3686
H59 H 0.0578 0.3330 0.2718
H60 H 0.2375 0.3818 0.2504
O6 O -0.5665(4) 0.6652(4) 0.3582(3)
H69 H -0.6577 0.6678 0.3394
C34 C -0.5043(15) 0.5205(13) 0.3524(10)
H70 H -0.4008 0.5251 0.3124
H71 H -0.5752 0.4628 0.3172
H72 H -0.4951 0.4764 0.4237
O4? O 0.0417(17) 0.3994(18) 0.3245(13)
H61? H 0.0769 0.3214 0.3496
C32? C -0.123(2) 0.379(3) 0.3045(18)
H62? H -0.1832 0.4646 0.3224
H63? H -0.1670 0.2951 0.3480
H64? H -0.1280 0.3655 0.2299
O5? O -0.3944(11) 0.4392(10) 0.3152(8)
H65? H -0.4357 0.5191 0.3248
C33? C -0.2408(19) 0.444(2) 0.3329(14)
H66? H -0.2174 0.3622 0.3820
H67? H -0.2191 0.5335 0.3633
H68? H -0.1752 0.4391 0.2662
loop_
_geom_bond_atom_site_label_1
_geom_bond_atom_site_label_2
_geom_bond_site_symmetry_1
_geom_bond_site_symmetry_2
N1 C1 1_555 1_555
N2 C1 1_555 1_555
N3 C8 1_555 1_555
N4 C8 1_555 1_555
C1 C4 1_555 1_555
C2 N2 1_555 1_555
C3 N1 1_555 1_555
C4 H1 1_555 1_555
H2 C4 1_555 1_555
H3 C4 1_555 1_555
C5 N2 1_555 1_555
H4 C5 1_555 1_555
H5 C5 1_555 1_555
H6 C5 1_555 1_555
C6 C2 1_555 1_555
H7 C6 1_555 1_555
H8 C6 1_555 1_555
H9 C6 1_555 1_555
C7 C3 1_555 1_555
H10 C7 1_555 1_555
H11 C7 1_555 1_555
H12 C7 1_555 1_555
C8 C11 1_555 1_555
C9 N4 1_555 1_555
C10 N3 1_555 1_555
C11 H13 1_555 1_555
H14 C11 1_555 1_555
H15 C11 1_555 1_555
C12 N4 1_555 1_555
H16 C12 1_555 1_555
H17 C12 1_555 1_555
H18 C12 1_555 1_555
C13 C9 1_555 1_555
H19 C13 1_555 1_555
H20 C13 1_555 1_555
H21 C13 1_555 1_555
C14 C10 1_555 1_555
H22 C14 1_555 1_555
H23 C14 1_555 1_555
H24 C14 1_555 1_555
C15 N1 1_555 1_555
H25 C15 1_555 1_555
H26 C15 1_555 1_555
N5 C16 1_555 1_555
N6 C16 1_555 1_555
N7 C23 1_555 1_555
N8 C23 1_555 1_555
C16 C19 1_555 1_555
C17 N6 1_555 1_555
C18 N5 1_555 1_555
C19 H27 1_555 1_555
H28 C19 1_555 1_555
H29 C19 1_555 1_555
C20 N6 1_555 1_555
H30 C20 1_555 1_555
H31 C20 1_555 1_555
H32 C20 1_555 1_555
C21 C17 1_555 1_555
H33 C21 1_555 1_555
H34 C21 1_555 1_555
H35 C21 1_555 1_555
C22 C18 1_555 1_555
H36 C22 1_555 1_555
H37 C22 1_555 1_555
H38 C22 1_555 1_555
C23 C26 1_555 1_555
C24 N8 1_555 1_555
C25 N7 1_555 1_555
C26 H39 1_555 1_555
H40 C26 1_555 1_555
H41 C26 1_555 1_555
C27 N8 1_555 1_555
H42 C27 1_555 1_555
H43 C27 1_555 1_555
H44 C27 1_555 1_555
C28 C24 1_555 1_555
H45 C28 1_555 1_555
H46 C28 1_555 1_555
H47 C28 1_555 1_555
C29 C25 1_555 1_555
H48 C29 1_555 1_555
H49 C29 1_555 1_555
H50 C29 1_555 1_555
C30 N5 1_555 1_555
H51 C30 1_555 1_555
H52 C30 1_555 1_555
O1 H53 1_555 1_555
H54 O1 1_555 1_555
O2 H55 1_555 1_555
H56 O2 1_555 1_555
O3 H57 1_555 1_555
C31 O3 1_555 1_555
H58 C31 1_555 1_555
H59 C31 1_555 1_555
H60 C31 1_555 1_555
O6 H69 1_555 1_555
C34 O6 1_555 1_555
H70 C34 1_555 1_555
H71 C34 1_555 1_555
H72 C34 1_555 1_555
N3 C15 1_555 1_555
C2 C3 1_555 1_555
C9 C10 1_555 1_555
N7 C30 1_555 1_555
C17 C18 1_555 1_555
C24 C25 1_555 1_555

#END
