
#######################################################################
#
#                 Cambridge Crystallographic Data Centre
#                                CCDC 
#
#######################################################################
#
# If this CIF has been generated from an entry in the Cambridge 
# Structural Database, then it will include bibliographic, chemical, 
# crystal, experimental, refinement or atomic coordinate data resulting 
# from the CCDC's data processing and validation procedures.
#
#######################################################################

data_ZARVEV
_chemical_formula_moiety         'C23 H20 N2 O3'
_chemical_name_systematic        
'Butyl 2-formyl-5-phenylpyrazolo[5,1-a]isoquinoline-1-carboxylate'
_symmetry_cell_setting           triclinic
_symmetry_space_group_name_H-M   'P -1'
_symmetry_Int_Tables_number      2
_space_group_name_Hall           '-P 1'
loop_
_symmetry_equiv_pos_site_id
_symmetry_equiv_pos_as_xyz
1 x,y,z
2 -x,-y,-z
_cell_length_a                   7.609(3)
_cell_length_b                   9.954(4)
_cell_length_c                   13.193(5)
_cell_angle_alpha                96.213(5)
_cell_angle_beta                 97.796(5)
_cell_angle_gamma                106.563(6)
_cell_volume                     937.503
_exptl_crystal_colour            colorless
_exptl_crystal_description       block
_cell_formula_units_Z            2
loop_
_atom_site_label
_atom_site_type_symbol
_atom_site_fract_x
_atom_site_fract_y
_atom_site_fract_z
N1 N 0.3955(3) 0.47223(18) 0.17614(13)
N2 N 0.4928(3) 0.4892(2) 0.27294(14)
O1 O 0.6634(3) 0.91604(18) 0.14645(13)
O2 O 0.6109(2) 0.92491(15) 0.30885(12)
O3 O 0.8301(4) 0.7834(3) 0.4200(2)
C1 C 0.7058(4) 0.6779(3) 0.3961(2)
H1 H 0.6845 0.6194 0.4463
C2 C 0.2831(3) 0.3395(2) 0.12314(17)
C3 C 0.2525(3) 0.2134(2) 0.17659(17)
C4 C 0.2405(3) 0.0834(2) 0.12081(19)
H2 H 0.2615 0.0784 0.0529
C5 C 0.1977(4) -0.0375(3) 0.1654(2)
H3 H 0.1911 -0.1237 0.1275
C6 C 0.1648(4) -0.0327(3) 0.2652(2)
H4 H 0.1347 -0.1154 0.2946
C7 C 0.1764(4) 0.0955(3) 0.3216(2)
H5 H 0.1549 0.0993 0.3894
C8 C 0.2197(4) 0.2175(3) 0.27804(18)
H6 H 0.2271 0.3035 0.3166
C9 C 0.2011(3) 0.3361(2) 0.02528(17)
H7 H 0.1299 0.2488 -0.0129
C10 C 0.2183(3) 0.4599(2) -0.02245(16)
C11 C 0.1232(4) 0.4529(3) -0.12295(18)
H8 H 0.0526 0.3652 -0.1607
C12 C 0.1334(4) 0.5725(3) -0.16548(19)
H9 H 0.0694 0.5661 -0.2320
C13 C 0.2382(4) 0.7040(3) -0.11073(19)
H10 H 0.2419 0.7855 -0.1399
C14 C 0.3363(4) 0.7145(3) -0.01392(18)
H11 H 0.4099 0.8031 0.0213
C15 C 0.3273(3) 0.5934(2) 0.03285(16)
C16 C 0.4222(3) 0.5978(2) 0.13600(16)
C17 C 0.5423(3) 0.7020(2) 0.21443(17)
C18 C 0.5794(3) 0.6278(2) 0.29537(17)
C19 C 0.6122(3) 0.8561(2) 0.21645(18)
C20 C 0.6799(4) 1.0781(2) 0.32263(18)
H12 H 0.5927 1.1147 0.2822
H13 H 0.7984 1.1079 0.2991
C21 C 0.7035(4) 1.1350(2) 0.43514(19)
H14 H 0.7936 1.1002 0.4747
H15 H 0.5858 1.1008 0.4588
C22 C 0.7677(5) 1.2941(3) 0.4544(2)
H16 H 0.8842 1.3274 0.4293
H17 H 0.6768 1.3280 0.4147
C23 C 0.7957(5) 1.3576(3) 0.5659(2)
H18 H 0.6847 1.3188 0.5933
H19 H 0.8223 1.4587 0.5713
H20 H 0.8980 1.3361 0.6044
C24? C 0.7058(4) 0.6779(3) 0.3961(2)
H21? H 0.8016 0.7621 0.4012
O4? O 0.6986(14) 0.6244(8) 0.4686(6)
loop_
_geom_bond_atom_site_label_1
_geom_bond_atom_site_label_2
_geom_bond_site_symmetry_1
_geom_bond_site_symmetry_2
N1 N2 1_555 1_555
N2 C18 1_555 1_555
O1 C19 1_555 1_555
O2 C19 1_555 1_555
O3 C1 1_555 1_555
C1 H1 1_555 1_555
C2 N1 1_555 1_555
C3 C2 1_555 1_555
C4 C3 1_555 1_555
H2 C4 1_555 1_555
C5 C4 1_555 1_555
H3 C5 1_555 1_555
C6 C5 1_555 1_555
H4 C6 1_555 1_555
C7 C6 1_555 1_555
H5 C7 1_555 1_555
C8 C3 1_555 1_555
H6 C8 1_555 1_555
C9 C2 1_555 1_555
H7 C9 1_555 1_555
C10 C9 1_555 1_555
C11 C10 1_555 1_555
H8 C11 1_555 1_555
C12 C11 1_555 1_555
H9 C12 1_555 1_555
C13 C12 1_555 1_555
H10 C13 1_555 1_555
C14 C13 1_555 1_555
H11 C14 1_555 1_555
C15 C10 1_555 1_555
C16 N1 1_555 1_555
C17 C16 1_555 1_555
C18 C1 1_555 1_555
C19 C17 1_555 1_555
C20 O2 1_555 1_555
H12 C20 1_555 1_555
H13 C20 1_555 1_555
C21 C20 1_555 1_555
H14 C21 1_555 1_555
H15 C21 1_555 1_555
C22 C21 1_555 1_555
H16 C22 1_555 1_555
H17 C22 1_555 1_555
C23 C22 1_555 1_555
H18 C23 1_555 1_555
H19 C23 1_555 1_555
H20 C23 1_555 1_555
C7 C8 1_555 1_555
C14 C15 1_555 1_555
C15 C16 1_555 1_555
C17 C18 1_555 1_555

#END
