
#######################################################################
#
#                 Cambridge Crystallographic Data Centre
#                                CCDC 
#
#######################################################################
#
# If this CIF has been generated from an entry in the Cambridge 
# Structural Database, then it will include bibliographic, chemical, 
# crystal, experimental, refinement or atomic coordinate data resulting 
# from the CCDC's data processing and validation procedures.
#
#######################################################################

data_ZARZEA
_chemical_name_common            5-Methylbenzo[d][2,1,3]selenadiazole
_chemical_formula_moiety         'C7 H6 N2 Se1'
_chemical_name_systematic        5-methyl-1,3-dihydro-2,1,3-benzoselenadiazole
_symmetry_cell_setting           monoclinic
_symmetry_space_group_name_H-M   'P 21/c'
_symmetry_Int_Tables_number      14
_space_group_name_Hall           '-P 2ybc'
loop_
_symmetry_equiv_pos_site_id
_symmetry_equiv_pos_as_xyz
1 x,y,z
2 -x,1/2+y,1/2-z
3 -x,-y,-z
4 x,1/2-y,1/2+z
_cell_length_a                   10.2436(8)
_cell_length_b                   4.7669(4)
_cell_length_c                   14.1543(11)
_cell_angle_alpha                90
_cell_angle_beta                 96.6007(16)
_cell_angle_gamma                90
_cell_volume                     686.576
_exptl_crystal_colour            colorless
_exptl_crystal_description       needle
_cell_formula_units_Z            4
loop_
_atom_site_label
_atom_site_type_symbol
_atom_site_fract_x
_atom_site_fract_y
_atom_site_fract_z
C1 C 0.65487(18) 0.4128(4) 0.91555(13)
C2 C 0.62888(18) 0.5312(4) 0.82258(13)
H1 H 0.5533 0.4764 0.7815
C3 C 0.71401(19) 0.7236(4) 0.79367(13)
H2 H 0.6957 0.8033 0.7321
C4 C 0.83091(18) 0.8116(4) 0.85274(14)
C5 C 0.85896(18) 0.7016(4) 0.94160(14)
H3 H 0.9363 0.7576 0.9806
C6 C 0.77171(18) 0.5015(4) 0.97612(13)
C7 C 0.91893(19) 1.0247(4) 0.81370(14)
H4 H 0.8820 1.2127 0.8195
H5 H 0.9256 0.9838 0.7466
H6 H 1.0065 1.0163 0.8496
N1 N 0.57862(16) 0.2254(4) 0.95243(12)
N2 N 0.79010(18) 0.3861(4) 1.06228(12)
Se1 Se 0.65506(2) 0.15213(4) 1.07010(2)
loop_
_geom_bond_atom_site_label_1
_geom_bond_atom_site_label_2
_geom_bond_site_symmetry_1
_geom_bond_site_symmetry_2
C1 C2 1_555 1_555
C2 H1 1_555 1_555
C3 C2 1_555 1_555
H2 C3 1_555 1_555
C4 C3 1_555 1_555
C5 C4 1_555 1_555
H3 C5 1_555 1_555
C6 C1 1_555 1_555
C7 C4 1_555 1_555
H4 C7 1_555 1_555
H5 C7 1_555 1_555
H6 C7 1_555 1_555
N1 C1 1_555 1_555
N2 C6 1_555 1_555
Se1 N1 1_555 1_555
C5 C6 1_555 1_555
N2 Se1 1_555 1_555

#END
