
#######################################################################
#
#                 Cambridge Crystallographic Data Centre
#                                CCDC 
#
#######################################################################
#
# If this CIF has been generated from an entry in the Cambridge 
# Structural Database, then it will include bibliographic, chemical, 
# crystal, experimental, refinement or atomic coordinate data resulting 
# from the CCDC's data processing and validation procedures.
#
#######################################################################

data_ZASDUV
_chemical_formula_moiety         'C15 H26 N4 2+,H2 O7 P2 2-,3(H2 O1)'
_chemical_name_systematic        
"1,1'-methylenebis(2,3,4,5-tetramethyl-1H-imidazol-3-ium) dihydrogen diphosphate trihydrate"
_symmetry_cell_setting           triclinic
_symmetry_space_group_name_H-M   'P -1'
_symmetry_Int_Tables_number      2
_space_group_name_Hall           '-P 1'
loop_
_symmetry_equiv_pos_site_id
_symmetry_equiv_pos_as_xyz
1 x,y,z
2 -x,-y,-z
_cell_length_a                   8.1939(16)
_cell_length_b                   10.978(2)
_cell_length_c                   13.899(3)
_cell_angle_alpha                72.54(3)
_cell_angle_beta                 80.10(3)
_cell_angle_gamma                76.77(3)
_cell_volume                     1153.79
_exptl_crystal_colour            colorless
_exptl_crystal_description       plate
_cell_formula_units_Z            2
loop_
_atom_site_label
_atom_site_type_symbol
_atom_site_fract_x
_atom_site_fract_y
_atom_site_fract_z
N1 N 0.2410(3) 0.6356(2) 0.1940(2)
N2 N 0.0876(4) 0.8239(3) 0.1914(2)
N3 N 0.4592(4) 0.4497(2) 0.2400(2)
N4 N 0.5544(4) 0.2768(3) 0.3537(2)
C1 C 0.2085(4) 0.7606(3) 0.1382(2)
C2 C 0.0380(5) 0.7383(3) 0.2829(3)
C3 C 0.1310(5) 0.6203(3) 0.2848(2)
C4 C 0.2886(5) 0.8119(3) 0.0342(3)
H1 H 0.2446 0.7808 -0.0135
H2 H 0.4110 0.7815 0.0319
H3 H 0.2632 0.9071 0.0155
C5 C 0.0064(6) 0.9603(3) 0.1582(4)
H4 H 0.0760 1.0059 0.0999
H5 H -0.0062 1.0005 0.2139
H6 H -0.1050 0.9661 0.1386
C6 C -0.0980(6) 0.7828(4) 0.3582(3)
H7 H -0.1177 0.7083 0.4159
H8 H -0.2021 0.8219 0.3260
H9 H -0.0633 0.8475 0.3821
C7 C 0.1248(5) 0.4928(3) 0.3628(2)
H10 H 0.0277 0.5031 0.4138
H11 H 0.2288 0.4639 0.3958
H12 H 0.1139 0.4281 0.3299
C8 C 0.4684(4) 0.3198(3) 0.2728(3)
C9 C 0.6060(5) 0.3810(3) 0.3708(3)
C10 C 0.5471(4) 0.4889(3) 0.2992(2)
C11 C 0.4046(5) 0.2382(3) 0.2261(3)
H13 H 0.4935 0.1637 0.2187
H14 H 0.3714 0.2896 0.1592
H15 H 0.3067 0.2069 0.2695
C12 C 0.6009(6) 0.1401(3) 0.4098(3)
H16 H 0.5285 0.0892 0.3957
H17 H 0.5864 0.1325 0.4827
H18 H 0.7191 0.1070 0.3887
C13 C 0.7121(5) 0.3625(4) 0.4527(3)
H19 H 0.8264 0.3181 0.4349
H20 H 0.6631 0.3098 0.5166
H21 H 0.7166 0.4474 0.4605
C14 C 0.5725(5) 0.6251(3) 0.2788(3)
H22 H 0.4733 0.6757 0.3090
H23 H 0.5882 0.6643 0.2054
H24 H 0.6726 0.6246 0.3088
C15 C 0.3642(4) 0.5347(3) 0.1581(2)
H25 H 0.3051 0.4833 0.1327
H26 H 0.4422 0.5758 0.1012
P1 P 0.19541(12) 0.27941(8) -0.00905(7)
P2 P -0.05180(13) 0.32425(8) 0.16720(7)
O1 O 0.2873(3) 0.3846(2) -0.01517(17)
O2 O 0.0685(3) 0.3254(2) -0.08876(19)
H27 H 0.051(6) 0.412(4) -0.111(3)
O3 O 0.3008(4) 0.1517(2) -0.01476(19)
O4 O -0.2107(3) 0.3718(2) 0.1093(2)
H28 H -0.227(7) 0.439(4) 0.085(4)
O5 O 0.0148(3) 0.4372(2) 0.1723(2)
O6 O -0.0837(4) 0.2251(3) 0.2637(2)
O7 O 0.0844(3) 0.2455(2) 0.09915(17)
O8 O 0.5214(5) 0.0277(3) 0.8576(2)
H29 H 0.459(7) 0.090(5) 0.884(4)
H30 H 0.579(7) -0.025(5) 0.891(4)
O9 O 0.6341(7) 0.0986(3) 0.6579(3)
H31 H 0.728(6) 0.035(5) 0.658(6)
O10 O 0.0985(6) 0.0742(5) 0.4156(3)
H32 H 0.035(10) 0.093(9) 0.367(5)
loop_
_geom_bond_atom_site_label_1
_geom_bond_atom_site_label_2
_geom_bond_site_symmetry_1
_geom_bond_site_symmetry_2
N1 C1 1_555 1_555
N2 C1 1_555 1_555
N3 C8 1_555 1_555
N4 C8 1_555 1_555
C1 C4 1_555 1_555
C2 N2 1_555 1_555
C3 N1 1_555 1_555
C4 H1 1_555 1_555
H2 C4 1_555 1_555
H3 C4 1_555 1_555
C5 N2 1_555 1_555
H4 C5 1_555 1_555
H5 C5 1_555 1_555
H6 C5 1_555 1_555
C6 C2 1_555 1_555
H7 C6 1_555 1_555
H8 C6 1_555 1_555
H9 C6 1_555 1_555
C7 C3 1_555 1_555
H10 C7 1_555 1_555
H11 C7 1_555 1_555
H12 C7 1_555 1_555
C8 C11 1_555 1_555
C9 N4 1_555 1_555
C10 N3 1_555 1_555
C11 H13 1_555 1_555
H14 C11 1_555 1_555
H15 C11 1_555 1_555
C12 N4 1_555 1_555
H16 C12 1_555 1_555
H17 C12 1_555 1_555
H18 C12 1_555 1_555
C13 C9 1_555 1_555
H19 C13 1_555 1_555
H20 C13 1_555 1_555
H21 C13 1_555 1_555
C14 C10 1_555 1_555
H22 C14 1_555 1_555
H23 C14 1_555 1_555
H24 C14 1_555 1_555
C15 N1 1_555 1_555
H25 C15 1_555 1_555
H26 C15 1_555 1_555
P1 O1 1_555 1_555
P2 O4 1_555 1_555
O2 P1 1_555 1_555
H27 O2 1_555 1_555
O3 P1 1_555 1_555
O4 H28 1_555 1_555
O5 P2 1_555 1_555
O6 P2 1_555 1_555
O7 P1 1_555 1_555
O8 H29 1_555 1_555
H30 O8 1_555 1_555
O9 H31 1_555 1_555
O10 H32 1_555 1_555
N3 C15 1_555 1_555
C2 C3 1_555 1_555
C9 C10 1_555 1_555
P2 O7 1_555 1_555

#END
