
#######################################################################
#
#                 Cambridge Crystallographic Data Centre
#                                CCDC 
#
#######################################################################
#
# If this CIF has been generated from an entry in the Cambridge 
# Structural Database, then it will include bibliographic, chemical, 
# crystal, experimental, refinement or atomic coordinate data resulting 
# from the CCDC's data processing and validation procedures.
#
#######################################################################

data_ZASGAE
_chemical_formula_moiety         'C50 H55 Li3 N4 O2 S3'
_chemical_name_systematic        
(\m-N,N',N''-[nitrilotri(ethane-2,1-diyl)]tris[2-(phenylsulfanyl)benzen-1-aminido])-bis(tetrahydrofuran)-tri-lithium
_symmetry_cell_setting           monoclinic
_symmetry_space_group_name_H-M   'P 21/n'
_symmetry_Int_Tables_number      14
_space_group_name_Hall           '-P 2yn'
loop_
_symmetry_equiv_pos_site_id
_symmetry_equiv_pos_as_xyz
1 x,y,z
2 1/2-x,1/2+y,1/2-z
3 -x,-y,-z
4 1/2+x,1/2-y,1/2+z
_cell_length_a                   29.442(4)
_cell_length_b                   10.5918(16)
_cell_length_c                   29.575(4)
_cell_angle_alpha                90
_cell_angle_beta                 98.213(4)
_cell_angle_gamma                90
_cell_volume                     9128.19
_exptl_crystal_colour            colorless
_exptl_crystal_description       block
_cell_formula_units_Z            8
loop_
_atom_site_label
_atom_site_type_symbol
_atom_site_fract_x
_atom_site_fract_y
_atom_site_fract_z
S1 S 0.61262(3) 0.49774(9) 0.61986(3)
S2 S 0.66711(3) 0.28746(9) 0.70734(3)
S3 S 0.68862(3) 0.29927(9) 0.58057(3)
O1 O 0.61892(9) -0.0218(3) 0.72463(8)
O2 O 0.61254(8) 0.1181(2) 0.48725(8)
N1 N 0.53071(9) 0.1096(3) 0.59400(9)
N2 N 0.55911(9) 0.3206(3) 0.55161(9)
N3 N 0.56593(9) 0.2260(3) 0.68045(9)
N4 N 0.62749(9) 0.0835(3) 0.60148(9)
C1 C 0.49724(12) 0.1756(4) 0.56064(12)
H1 H 0.4788 0.2337 0.5770
H2 H 0.4761 0.1131 0.5441
C2 C 0.52059(11) 0.2510(3) 0.52616(11)
H3 H 0.5319 0.1932 0.5039
H4 H 0.4985 0.3106 0.5092
C3 C 0.57309(11) 0.4280(3) 0.53206(11)
C4 C 0.60081(11) 0.5179(3) 0.55937(11)
C5 C 0.61929(12) 0.6227(3) 0.54058(12)
H5 H 0.6381 0.6795 0.5599
C6 C 0.61062(13) 0.6459(4) 0.49359(13)
H6 H 0.6242 0.7160 0.4805
C7 C 0.58176(12) 0.5640(3) 0.46654(12)
H7 H 0.5747 0.5800 0.4347
C8 C 0.56310(12) 0.4595(3) 0.48492(12)
H8 H 0.5429 0.4068 0.4654
C9 C 0.56352(12) 0.5704(3) 0.63808(11)
C10 C 0.51919(13) 0.5430(4) 0.61754(13)
H9 H 0.5143 0.4861 0.5925
C11 C 0.48178(14) 0.5995(4) 0.63400(13)
H10 H 0.4515 0.5824 0.6196
C12 C 0.48863(14) 0.6797(4) 0.67090(13)
H11 H 0.4632 0.7172 0.6822
C13 C 0.53242(16) 0.7051(5) 0.69120(17)
H12 H 0.5372 0.7600 0.7168
C14 C 0.57011(15) 0.6513(4) 0.67468(14)
H13 H 0.6003 0.6707 0.6888
C15 C 0.51217(12) 0.0788(3) 0.63674(12)
H14 H 0.5285 0.0045 0.6514
H15 H 0.4793 0.0569 0.6294
C16 C 0.51759(11) 0.1896(3) 0.66985(11)
H16 H 0.4994 0.2623 0.6561
H17 H 0.5057 0.1659 0.6984
C17 C 0.57435(11) 0.3154(3) 0.71397(11)
C18 C 0.62004(11) 0.3562(3) 0.72987(11)
C19 C 0.62959(12) 0.4477(3) 0.76355(12)
H18 H 0.6603 0.4752 0.7720
C20 C 0.59508(13) 0.4998(4) 0.78515(12)
H19 H 0.6019 0.5601 0.8089
C21 C 0.55043(13) 0.4608(4) 0.77086(13)
H20 H 0.5263 0.4956 0.7851
C22 C 0.54006(12) 0.3729(4) 0.73667(12)
H21 H 0.5089 0.3497 0.7278
C23 C 0.69833(12) 0.2098(3) 0.75577(11)
C24 C 0.68046(12) 0.1860(3) 0.79624(12)
H22 H 0.6507 0.2152 0.7997
C25 C 0.70635(14) 0.1198(4) 0.83121(13)
H23 H 0.6941 0.1040 0.8587
C26 C 0.74993(14) 0.0763(4) 0.82673(14)
H24 H 0.7672 0.0295 0.8507
C27 C 0.76790(14) 0.1021(4) 0.78677(14)
H25 H 0.7980 0.0742 0.7836
C28 C 0.74233(13) 0.1679(4) 0.75153(13)
H26 H 0.7549 0.1847 0.7243
C29 C 0.55090(12) -0.0013(3) 0.57456(12)
H27 H 0.5530 0.0144 0.5419
H28 H 0.5307 -0.0753 0.5764
C30 C 0.59848(12) -0.0305(3) 0.59972(12)
H29 H 0.5961 -0.0592 0.6311
H30 H 0.6126 -0.0991 0.5838
C31 C 0.67362(12) 0.0612(3) 0.61448(11)
C32 C 0.70685(11) 0.1560(4) 0.60856(11)
C33 C 0.75321(12) 0.1402(4) 0.62412(11)
H31 H 0.7740 0.2067 0.6205
C34 C 0.76971(13) 0.0286(4) 0.64496(12)
H32 H 0.8015 0.0181 0.6555
C35 C 0.73876(14) -0.0669(4) 0.65006(12)
H33 H 0.7496 -0.1441 0.6641
C36 C 0.69240(13) -0.0519(4) 0.63510(12)
H34 H 0.6723 -0.1201 0.6388
C37 C 0.70763(11) 0.2889(3) 0.52553(11)
C38 C 0.73813(12) 0.1985(4) 0.51358(12)
H35 H 0.7500 0.1350 0.5347
C39 C 0.75096(12) 0.2029(4) 0.46998(12)
H36 H 0.7711 0.1404 0.4612
C40 C 0.73476(13) 0.2969(4) 0.43944(13)
H37 H 0.7444 0.3002 0.4101
C41 C 0.70458(14) 0.3858(4) 0.45174(12)
H38 H 0.6932 0.4501 0.4308
C42 C 0.69077(12) 0.3814(4) 0.49485(12)
H39 H 0.6697 0.4423 0.5031
C43 C 0.65488(14) -0.1080(4) 0.74292(13)
H40 H 0.6838 -0.0616 0.7527
H41 H 0.6603 -0.1711 0.7196
C44 C 0.63857(19) -0.1719(5) 0.78332(17)
H42 H 0.6260 -0.2567 0.7747
H43 H 0.6641 -0.1811 0.8088
C45 C 0.60249(17) -0.0891(6) 0.79678(16)
H44 H 0.6151 -0.0356 0.8230
H45 H 0.5770 -0.1402 0.8056
C46 C 0.58588(14) -0.0095(4) 0.75649(13)
H46 H 0.5552 -0.0382 0.7421
H47 H 0.5835 0.0798 0.7658
C47 C 0.63631(14) -0.0004(4) 0.48371(13)
H48 H 0.6219 -0.0683 0.4997
H49 H 0.6689 0.0073 0.4975
C48 C 0.63265(15) -0.0295(4) 0.43311(14)
H50 H 0.6053 -0.0817 0.4226
H51 H 0.6604 -0.0736 0.4259
C49 C 0.62834(15) 0.1011(4) 0.41168(14)
H52 H 0.6588 0.1411 0.4121
H53 H 0.6127 0.0975 0.3798
C50 C 0.59974(13) 0.1710(4) 0.44206(12)
H54 H 0.6065 0.2626 0.4421
H55 H 0.5666 0.1582 0.4315
Li1 Li 0.57920(19) 0.2567(6) 0.61451(19)
Li2 Li 0.6182(2) 0.1044(6) 0.67612(19)
Li3 Li 0.61323(19) 0.1997(6) 0.54543(19)
S4 S 0.87710(3) 0.46938(9) 0.38375(3)
S5 S 0.80265(3) 0.70185(9) 0.42030(3)
S6 S 0.83103(3) 0.71957(9) 0.29728(3)
O3 O 0.87975(9) 0.8527(2) 0.51863(8)
O4 O 0.88339(8) 1.0218(3) 0.28683(8)
N5 N 0.96889(10) 0.8490(3) 0.41562(9)
N6 N 0.93154(9) 0.6389(3) 0.45254(9)
N7 N 0.87321(10) 0.9016(3) 0.40701(10)
N8 N 0.93327(9) 0.7611(3) 0.32594(9)
C51 C 0.99882(12) 0.7684(4) 0.44725(12)
H56 H 1.0224 0.8213 0.4655
H57 H 1.0148 0.7077 0.4295
C52 C 0.97201(11) 0.6957(4) 0.47934(12)
H58 H 0.9916 0.6290 0.4954
H59 H 0.9625 0.7537 0.5025
C53 C 0.91291(11) 0.5390(3) 0.47209(12)
C54 C 0.88289(11) 0.4551(3) 0.44419(12)
C55 C 0.85997(12) 0.3570(3) 0.46292(13)
H60 H 0.8399 0.3039 0.4433
C56 C 0.86597(13) 0.3359(4) 0.50958(13)
H61 H 0.8491 0.2718 0.5223
C57 C 0.89706(13) 0.4101(4) 0.53727(13)
H62 H 0.9025 0.3938 0.5692
C58 C 0.92051(12) 0.5081(3) 0.51954(12)
H63 H 0.9422 0.5557 0.5395
C59 C 0.92735(11) 0.3881(3) 0.37164(11)
C60 C 0.93462(13) 0.3849(4) 0.32613(12)
H64 H 0.9132 0.4231 0.3031
C61 C 0.97342(15) 0.3256(4) 0.31455(13)
H65 H 0.9784 0.3240 0.2835
C62 C 1.00463(13) 0.2695(4) 0.34731(13)
H66 H 1.0312 0.2299 0.3390
C63 C 0.99716(13) 0.2707(4) 0.39259(13)
H67 H 1.0184 0.2308 0.4154
C64 C 0.95849(12) 0.3306(4) 0.40454(12)
H68 H 0.9535 0.3318 0.4356
C65 C 0.95173(12) 0.9595(3) 0.43833(12)
H69 H 0.9746 1.0284 0.4400
H70 H 0.9476 0.9366 0.4699
C66 C 0.90634(13) 1.0057(4) 0.41267(12)
H71 H 0.8943 1.0754 0.4299
H72 H 0.9111 1.0384 0.3823
C67 C 0.82841(12) 0.9385(4) 0.39307(11)
C68 C 0.79163(12) 0.8527(4) 0.39509(11)
C69 C 0.74646(13) 0.8840(4) 0.37778(12)
H73 H 0.7229 0.8231 0.3787
C70 C 0.73520(14) 1.0015(5) 0.35928(13)
H74 H 0.7043 1.0223 0.3478
C71 C 0.77015(15) 1.0883(4) 0.35797(13)
H75 H 0.7629 1.1695 0.3453
C72 C 0.81534(14) 1.0597(4) 0.37462(12)
H76 H 0.8382 1.1225 0.3737
C73 C 0.77868(11) 0.7128(4) 0.47284(11)
C74 C 0.75918(13) 0.8208(4) 0.48839(12)
H77 H 0.7576 0.8961 0.4708
C75 C 0.74191(13) 0.8187(4) 0.52995(13)
H78 H 0.7284 0.8926 0.5405
C76 C 0.74435(12) 0.7095(4) 0.55583(13)
H79 H 0.7325 0.7082 0.5841
C77 C 0.76412(14) 0.6019(4) 0.54035(13)
H80 H 0.7658 0.5270 0.5582
C78 C 0.78162(13) 0.6025(4) 0.49886(13)
H81 H 0.7953 0.5287 0.4885
C79 C 0.99011(12) 0.8860(4) 0.37538(12)
H82 H 1.0235 0.8983 0.3846
H83 H 0.9769 0.9673 0.3633
C80 C 0.98222(11) 0.7860(3) 0.33814(12)
H84 H 0.9951 0.8153 0.3108
H85 H 0.9982 0.7071 0.3491
C81 C 0.92302(11) 0.6847(3) 0.28856(11)
C82 C 0.87675(11) 0.6517(3) 0.27173(11)
C83 C 0.86526(13) 0.5697(3) 0.23545(12)
H86 H 0.8340 0.5482 0.2262
C84 C 0.89901(14) 0.5182(4) 0.21230(12)
H87 H 0.8913 0.4616 0.1875
C85 C 0.94398(14) 0.5520(4) 0.22665(12)
H88 H 0.9673 0.5202 0.2106
C86 C 0.95615(13) 0.6303(3) 0.26343(12)
H89 H 0.9877 0.6488 0.2725
C87 C 0.79948(12) 0.8015(3) 0.25037(12)
C88 C 0.75361(13) 0.8286(4) 0.25282(14)
H90 H 0.7398 0.8004 0.2782
C89 C 0.72814(14) 0.8969(4) 0.21807(14)
H91 H 0.6968 0.9148 0.2198
C90 C 0.74744(14) 0.9396(4) 0.18099(14)
H92 H 0.7297 0.9874 0.1576
C91 C 0.79289(13) 0.9116(4) 0.17832(13)
H93 H 0.8063 0.9397 0.1527
C92 C 0.81916(12) 0.8428(3) 0.21270(12)
H94 H 0.8503 0.8240 0.2106
C93 C 0.87080(16) 0.9864(4) 0.52229(14)
H95 H 0.8451 1.0124 0.4988
H96 H 0.8983 1.0361 0.5179
C94 C 0.85859(16) 1.0079(4) 0.56957(14)
H97 H 0.8249 1.0109 0.5690
H98 H 0.8721 1.0876 0.5828
C95 C 0.87917(16) 0.8949(4) 0.59630(14)
H99 H 0.9119 0.9093 0.6083
H100 H 0.8623 0.8750 0.6220
C96 C 0.87376(13) 0.7918(4) 0.56115(12)
H101 H 0.8972 0.7254 0.5690
H102 H 0.8429 0.7530 0.5590
C97 C 0.85131(14) 1.1226(4) 0.27299(14)
H103 H 0.8533 1.1883 0.2970
H104 H 0.8195 1.0894 0.2678
C98 C 0.86402(15) 1.1778(4) 0.22897(14)
H105 H 0.8373 1.1768 0.2045
H106 H 0.8749 1.2659 0.2338
C99 C 0.90210(14) 1.0934(5) 0.21650(15)
H107 H 0.8897 1.0287 0.1939
H108 H 0.9257 1.1435 0.2038
C100 C 0.92174(13) 1.0330(4) 0.26129(13)
H109 H 0.9347 0.9489 0.2561
H110 H 0.9462 1.0866 0.2779
Li4 Li 0.91753(19) 0.7145(6) 0.39026(19)
Li5 Li 0.8805(2) 0.7736(6) 0.4589(2)
Li6 Li 0.8834(2) 0.8898(6) 0.3330(2)
loop_
_geom_bond_atom_site_label_1
_geom_bond_atom_site_label_2
_geom_bond_site_symmetry_1
_geom_bond_site_symmetry_2
S1 C4 1_555 1_555
S2 C18 1_555 1_555
S3 C32 1_555 1_555
O1 C43 1_555 1_555
O2 C47 1_555 1_555
N1 C1 1_555 1_555
N2 C2 1_555 1_555
N3 C16 1_555 1_555
N4 C30 1_555 1_555
C1 H1 1_555 1_555
H2 C1 1_555 1_555
C2 C1 1_555 1_555
H3 C2 1_555 1_555
H4 C2 1_555 1_555
C3 N2 1_555 1_555
C4 C3 1_555 1_555
C5 C4 1_555 1_555
H5 C5 1_555 1_555
C6 C5 1_555 1_555
H6 C6 1_555 1_555
C7 C6 1_555 1_555
H7 C7 1_555 1_555
C8 C3 1_555 1_555
H8 C8 1_555 1_555
C9 S1 1_555 1_555
C10 C9 1_555 1_555
H9 C10 1_555 1_555
C11 C10 1_555 1_555
H10 C11 1_555 1_555
C12 C11 1_555 1_555
H11 C12 1_555 1_555
C13 C12 1_555 1_555
H12 C13 1_555 1_555
C14 C9 1_555 1_555
H13 C14 1_555 1_555
C15 N1 1_555 1_555
H14 C15 1_555 1_555
H15 C15 1_555 1_555
C16 C15 1_555 1_555
H16 C16 1_555 1_555
H17 C16 1_555 1_555
C17 N3 1_555 1_555
C18 C17 1_555 1_555
C19 C18 1_555 1_555
H18 C19 1_555 1_555
C20 C19 1_555 1_555
H19 C20 1_555 1_555
C21 C20 1_555 1_555
H20 C21 1_555 1_555
C22 C17 1_555 1_555
H21 C22 1_555 1_555
C23 S2 1_555 1_555
C24 C23 1_555 1_555
H22 C24 1_555 1_555
C25 C24 1_555 1_555
H23 C25 1_555 1_555
C26 C25 1_555 1_555
H24 C26 1_555 1_555
C27 C26 1_555 1_555
H25 C27 1_555 1_555
C28 C23 1_555 1_555
H26 C28 1_555 1_555
C29 N1 1_555 1_555
H27 C29 1_555 1_555
H28 C29 1_555 1_555
C30 C29 1_555 1_555
H29 C30 1_555 1_555
H30 C30 1_555 1_555
C31 N4 1_555 1_555
C32 C31 1_555 1_555
C33 C32 1_555 1_555
H31 C33 1_555 1_555
C34 C33 1_555 1_555
H32 C34 1_555 1_555
C35 C34 1_555 1_555
H33 C35 1_555 1_555
C36 C31 1_555 1_555
H34 C36 1_555 1_555
C37 S3 1_555 1_555
C38 C37 1_555 1_555
H35 C38 1_555 1_555
C39 C38 1_555 1_555
H36 C39 1_555 1_555
C40 C39 1_555 1_555
H37 C40 1_555 1_555
C41 C40 1_555 1_555
H38 C41 1_555 1_555
C42 C37 1_555 1_555
H39 C42 1_555 1_555
C43 H40 1_555 1_555
H41 C43 1_555 1_555
C44 C43 1_555 1_555
H42 C44 1_555 1_555
H43 C44 1_555 1_555
C45 C44 1_555 1_555
H44 C45 1_555 1_555
H45 C45 1_555 1_555
C46 O1 1_555 1_555
H46 C46 1_555 1_555
H47 C46 1_555 1_555
C47 H48 1_555 1_555
H49 C47 1_555 1_555
C48 C47 1_555 1_555
H50 C48 1_555 1_555
H51 C48 1_555 1_555
C49 C48 1_555 1_555
H52 C49 1_555 1_555
H53 C49 1_555 1_555
C50 O2 1_555 1_555
H54 C50 1_555 1_555
H55 C50 1_555 1_555
Li1 S1 1_555 1_555
Li2 S2 1_555 1_555
Li3 S3 1_555 1_555
S4 C54 1_555 1_555
S5 C68 1_555 1_555
S6 C82 1_555 1_555
O3 C93 1_555 1_555
O4 C97 1_555 1_555
N5 C51 1_555 1_555
N6 C52 1_555 1_555
N7 C66 1_555 1_555
N8 C80 1_555 1_555
C51 H56 1_555 1_555
H57 C51 1_555 1_555
C52 C51 1_555 1_555
H58 C52 1_555 1_555
H59 C52 1_555 1_555
C53 N6 1_555 1_555
C54 C53 1_555 1_555
C55 C54 1_555 1_555
H60 C55 1_555 1_555
C56 C55 1_555 1_555
H61 C56 1_555 1_555
C57 C56 1_555 1_555
H62 C57 1_555 1_555
C58 C53 1_555 1_555
H63 C58 1_555 1_555
C59 S4 1_555 1_555
C60 C59 1_555 1_555
H64 C60 1_555 1_555
C61 C60 1_555 1_555
H65 C61 1_555 1_555
C62 C61 1_555 1_555
H66 C62 1_555 1_555
C63 C62 1_555 1_555
H67 C63 1_555 1_555
C64 C59 1_555 1_555
H68 C64 1_555 1_555
C65 N5 1_555 1_555
H69 C65 1_555 1_555
H70 C65 1_555 1_555
C66 C65 1_555 1_555
H71 C66 1_555 1_555
H72 C66 1_555 1_555
C67 N7 1_555 1_555
C68 C67 1_555 1_555
C69 C68 1_555 1_555
H73 C69 1_555 1_555
C70 C69 1_555 1_555
H74 C70 1_555 1_555
C71 C70 1_555 1_555
H75 C71 1_555 1_555
C72 C67 1_555 1_555
H76 C72 1_555 1_555
C73 S5 1_555 1_555
C74 C73 1_555 1_555
H77 C74 1_555 1_555
C75 C74 1_555 1_555
H78 C75 1_555 1_555
C76 C75 1_555 1_555
H79 C76 1_555 1_555
C77 C76 1_555 1_555
H80 C77 1_555 1_555
C78 C73 1_555 1_555
H81 C78 1_555 1_555
C79 N5 1_555 1_555
H82 C79 1_555 1_555
H83 C79 1_555 1_555
C80 C79 1_555 1_555
H84 C80 1_555 1_555
H85 C80 1_555 1_555
C81 N8 1_555 1_555
C82 C81 1_555 1_555
C83 C82 1_555 1_555
H86 C83 1_555 1_555
C84 C83 1_555 1_555
H87 C84 1_555 1_555
C85 C84 1_555 1_555
H88 C85 1_555 1_555
C86 C81 1_555 1_555
H89 C86 1_555 1_555
C87 S6 1_555 1_555
C88 C87 1_555 1_555
H90 C88 1_555 1_555
C89 C88 1_555 1_555
H91 C89 1_555 1_555
C90 C89 1_555 1_555
H92 C90 1_555 1_555
C91 C90 1_555 1_555
H93 C91 1_555 1_555
C92 C87 1_555 1_555
H94 C92 1_555 1_555
C93 H95 1_555 1_555
H96 C93 1_555 1_555
C94 C93 1_555 1_555
H97 C94 1_555 1_555
H98 C94 1_555 1_555
C95 C94 1_555 1_555
H99 C95 1_555 1_555
H100 C95 1_555 1_555
C96 O3 1_555 1_555
H101 C96 1_555 1_555
H102 C96 1_555 1_555
C97 H103 1_555 1_555
H104 C97 1_555 1_555
C98 C97 1_555 1_555
H105 C98 1_555 1_555
H106 C98 1_555 1_555
C99 C98 1_555 1_555
H107 C99 1_555 1_555
H108 C99 1_555 1_555
C100 O4 1_555 1_555
H109 C100 1_555 1_555
H110 C100 1_555 1_555
Li4 S4 1_555 1_555
Li5 S5 1_555 1_555
Li6 S6 1_555 1_555
O1 Li2 1_555 1_555
O2 Li3 1_555 1_555
N1 Li1 1_555 1_555
N2 Li1 1_555 1_555
N2 Li3 1_555 1_555
N3 Li1 1_555 1_555
N3 Li2 1_555 1_555
N4 Li1 1_555 1_555
N4 Li2 1_555 1_555
N4 Li3 1_555 1_555
C7 C8 1_555 1_555
C13 C14 1_555 1_555
C21 C22 1_555 1_555
C27 C28 1_555 1_555
C35 C36 1_555 1_555
C41 C42 1_555 1_555
C45 C46 1_555 1_555
C49 C50 1_555 1_555
O3 Li5 1_555 1_555
O4 Li6 1_555 1_555
N5 Li4 1_555 1_555
N6 Li4 1_555 1_555
N6 Li5 1_555 1_555
N7 Li4 1_555 1_555
N7 Li5 1_555 1_555
N7 Li6 1_555 1_555
N8 Li4 1_555 1_555
N8 Li6 1_555 1_555
C57 C58 1_555 1_555
C63 C64 1_555 1_555
C71 C72 1_555 1_555
C77 C78 1_555 1_555
C85 C86 1_555 1_555
C91 C92 1_555 1_555
C95 C96 1_555 1_555
C99 C100 1_555 1_555

#END
