
#######################################################################
#
#                 Cambridge Crystallographic Data Centre
#                                CCDC 
#
#######################################################################
#
# If this CIF has been generated from an entry in the Cambridge 
# Structural Database, then it will include bibliographic, chemical, 
# crystal, experimental, refinement or atomic coordinate data resulting 
# from the CCDC's data processing and validation procedures.
#
#######################################################################

data_ZASMOY
_chemical_formula_moiety         'C17 H14 F3 N3 O2 S1'
_chemical_name_systematic        
4-(3-(4-methylphenyl)-4-(trifluoromethyl)-1H-pyrazol-1-yl)benzenesulfonamide
_symmetry_cell_setting           triclinic
_symmetry_space_group_name_H-M   'P -1'
_symmetry_Int_Tables_number      2
_space_group_name_Hall           '-P 1'
loop_
_symmetry_equiv_pos_site_id
_symmetry_equiv_pos_as_xyz
1 x,y,z
2 -x,-y,-z
_cell_length_a                   12.2430(3)
_cell_length_b                   12.3643(3)
_cell_length_c                   12.4341(3)
_cell_angle_alpha                80.9137(13)
_cell_angle_beta                 80.9815(14)
_cell_angle_gamma                70.2690(13)
_cell_volume                     1738.62
_exptl_crystal_colour            colorless
_exptl_crystal_description       block
_cell_formula_units_Z            4
loop_
_atom_site_label
_atom_site_type_symbol
_atom_site_fract_x
_atom_site_fract_y
_atom_site_fract_z
S1 S 0.37869(8) 0.06674(7) 1.14479(6)
O1 O 0.3822(2) -0.01647(18) 1.07575(17)
O2 O 0.3244(2) 0.0603(2) 1.25491(17)
C1 C 0.3084(3) 0.2054(2) 1.0801(2)
C2 C 0.2380(3) 0.2913(3) 1.1415(3)
H1 H 0.2254 0.2756 1.2173
C3 C 0.1863(3) 0.4001(3) 1.0916(3)
H2 H 0.1371 0.4577 1.1332
C4 C 0.2071(3) 0.4240(2) 0.9803(2)
C5 C 0.2763(3) 0.3383(3) 0.9181(3)
H3 H 0.2891 0.3542 0.8424
C6 C 0.3261(3) 0.2295(3) 0.9679(3)
H4 H 0.3725 0.1713 0.9258
C7 C 0.1080(3) 0.6365(3) 0.9770(3)
H5 H 0.0930 0.6423 1.0519
C8 C 0.0833(3) 0.7254(3) 0.8962(3)
C9 C 0.1223(3) 0.6742(2) 0.7968(2)
C10 C 0.0338(4) 0.8488(3) 0.9147(3)
C11 C 0.1209(3) 0.7259(2) 0.6815(2)
C12 C 0.0250(3) 0.8127(3) 0.6442(3)
H6 H -0.0407 0.8417 0.6930
C13 C 0.0260(3) 0.8567(3) 0.5349(3)
H7 H -0.0396 0.9150 0.5114
C14 C 0.1217(3) 0.8163(3) 0.4597(3)
C15 C 0.2166(3) 0.7290(3) 0.4979(3)
H8 H 0.2822 0.7001 0.4489
C16 C 0.2170(3) 0.6834(3) 0.6065(2)
H9 H 0.2819 0.6240 0.6295
C17 C 0.1222(4) 0.8655(3) 0.3410(3)
H10 H 0.0492 0.9250 0.3301
H11 H 0.1848 0.8976 0.3207
H12 H 0.1331 0.8052 0.2964
N1 N 0.5107(3) 0.0572(2) 1.1501(2)
H13 H 0.5665 0.0080 1.1147
H14 H 0.5263 0.1012 1.1884
N2 N 0.1581(2) 0.5383(2) 0.92971(19)
N3 N 0.1674(2) 0.5606(2) 0.81831(19)
F1 F 0.0288(3) 0.86220(19) 1.0180(2)
F2 F -0.0763(3) 0.8974(2) 0.8892(3)
F3 F 0.0882(3) 0.9132(2) 0.8553(2)
S2 S 0.97847(7) -0.38421(7) 0.33879(6)
O3 O 1.0200(2) -0.37080(19) 0.22518(17)
O4 O 1.05937(18) -0.41107(19) 0.41803(17)
C18 C 0.8696(3) -0.2522(2) 0.3651(2)
C19 C 0.8171(3) -0.2342(3) 0.4703(2)
H15 H 0.8385 -0.2925 0.5276
C20 C 0.7331(3) -0.1305(3) 0.4908(2)
H16 H 0.6962 -0.1194 0.5614
C21 C 0.7041(2) -0.0432(3) 0.4059(2)
C22 C 0.7562(3) -0.0602(3) 0.3012(2)
H17 H 0.7362 -0.0013 0.2441
C23 C 0.8386(3) -0.1656(3) 0.2808(2)
H18 H 0.8730 -0.1778 0.2097
C24 C 0.5821(3) 0.1097(3) 0.5239(2)
H19 H 0.5974 0.0700 0.5927
C25 C 0.5160(3) 0.2219(3) 0.5025(2)
C26 C 0.5195(3) 0.2443(3) 0.3868(2)
C27 C 0.4640(3) 0.3020(3) 0.5878(3)
C28 C 0.4749(3) 0.3519(3) 0.3141(2)
C29 C 0.3658(3) 0.4337(3) 0.3361(3)
H20 H 0.3163 0.4196 0.3976
C30 C 0.3306(3) 0.5347(3) 0.2677(3)
H21 H 0.2569 0.5873 0.2834
C31 C 0.4014(3) 0.5606(3) 0.1766(3)
C32 C 0.5091(3) 0.4784(3) 0.1542(3)
H22 H 0.5585 0.4929 0.0928
C33 C 0.5448(3) 0.3757(3) 0.2208(3)
H23 H 0.6170 0.3216 0.2029
C34 C 0.3646(4) 0.6757(3) 0.1051(4)
H24 H 0.4249 0.6777 0.0460
H25 H 0.2936 0.6847 0.0759
H26 H 0.3521 0.7375 0.1484
N4 N 0.9208(3) -0.4828(2) 0.3581(2)
H27 H 0.9190 -0.5176 0.3041
H28 H 0.8912 -0.5019 0.4228
N5 N 0.6216(2) 0.0667(2) 0.42708(19)
N6 N 0.5837(2) 0.1478(2) 0.3418(2)
F4 F 0.5038(3) 0.2554(2) 0.68298(18)
F5 F 0.3498(2) 0.3343(3) 0.6048(2)
F6 F 0.4894(2) 0.39876(19) 0.56472(19)
loop_
_geom_bond_atom_site_label_1
_geom_bond_atom_site_label_2
_geom_bond_site_symmetry_1
_geom_bond_site_symmetry_2
S1 O1 1_555 1_555
O2 S1 1_555 1_555
C1 S1 1_555 1_555
C2 C1 1_555 1_555
H1 C2 1_555 1_555
C3 C2 1_555 1_555
H2 C3 1_555 1_555
C4 C3 1_555 1_555
C5 C4 1_555 1_555
H3 C5 1_555 1_555
C6 C1 1_555 1_555
H4 C6 1_555 1_555
C7 H5 1_555 1_555
C8 C7 1_555 1_555
C9 C8 1_555 1_555
C10 C8 1_555 1_555
C11 C9 1_555 1_555
C12 C11 1_555 1_555
H6 C12 1_555 1_555
C13 C12 1_555 1_555
H7 C13 1_555 1_555
C14 C13 1_555 1_555
C15 C14 1_555 1_555
H8 C15 1_555 1_555
C16 C11 1_555 1_555
H9 C16 1_555 1_555
C17 C14 1_555 1_555
H10 C17 1_555 1_555
H11 C17 1_555 1_555
H12 C17 1_555 1_555
N1 S1 1_555 1_555
H13 N1 1_555 1_555
H14 N1 1_555 1_555
N2 C4 1_555 1_555
N3 C9 1_555 1_555
F1 C10 1_555 1_555
F2 C10 1_555 1_555
F3 C10 1_555 1_555
S2 O3 1_555 1_555
O4 S2 1_555 1_555
C18 S2 1_555 1_555
C19 C18 1_555 1_555
H15 C19 1_555 1_555
C20 C19 1_555 1_555
H16 C20 1_555 1_555
C21 C20 1_555 1_555
C22 C21 1_555 1_555
H17 C22 1_555 1_555
C23 C18 1_555 1_555
H18 C23 1_555 1_555
C24 H19 1_555 1_555
C25 C24 1_555 1_555
C26 C25 1_555 1_555
C27 C25 1_555 1_555
C28 C26 1_555 1_555
C29 C28 1_555 1_555
H20 C29 1_555 1_555
C30 C29 1_555 1_555
H21 C30 1_555 1_555
C31 C30 1_555 1_555
C32 C31 1_555 1_555
H22 C32 1_555 1_555
C33 C28 1_555 1_555
H23 C33 1_555 1_555
C34 C31 1_555 1_555
H24 C34 1_555 1_555
H25 C34 1_555 1_555
H26 C34 1_555 1_555
N4 S2 1_555 1_555
H27 N4 1_555 1_555
H28 N4 1_555 1_555
N5 C21 1_555 1_555
N6 C26 1_555 1_555
F4 C27 1_555 1_555
F5 C27 1_555 1_555
F6 C27 1_555 1_555
C5 C6 1_555 1_555
C7 N2 1_555 1_555
C15 C16 1_555 1_555
N2 N3 1_555 1_555
C22 C23 1_555 1_555
C24 N5 1_555 1_555
C32 C33 1_555 1_555
N5 N6 1_555 1_555

#END
