
#######################################################################
#
#                 Cambridge Crystallographic Data Centre
#                                CCDC 
#
#######################################################################
#
# If this CIF has been generated from an entry in the Cambridge 
# Structural Database, then it will include bibliographic, chemical, 
# crystal, experimental, refinement or atomic coordinate data resulting 
# from the CCDC's data processing and validation procedures.
#
#######################################################################

data_ZASQUI
_chemical_formula_moiety         'C39 H57 Li3 N4 O3 S3'
_chemical_name_systematic        
(\m-(nitrilotriethane-2,1-diyl)tris([2-(methylsulfanyl)phenyl]azanide))-tris(tetrahydrofuran)-tri-lithium
_symmetry_cell_setting           rhombohedral
_symmetry_space_group_name_H-M   'R -3'
_symmetry_Int_Tables_number      148
_space_group_name_Hall           '-R 3'
loop_
_symmetry_equiv_pos_site_id
_symmetry_equiv_pos_as_xyz
1 x,y,z
2 -y,x-y,z
3 -x+y,-x,z
4 2/3+x,1/3+y,1/3+z
5 2/3-y,1/3+x-y,1/3+z
6 2/3-x+y,1/3-x,1/3+z
7 1/3+x,2/3+y,2/3+z
8 1/3-y,2/3+x-y,2/3+z
9 1/3-x+y,2/3-x,2/3+z
10 -x,-y,-z
11 y,-x+y,-z
12 x-y,x,-z
13 1/3-x,2/3-y,2/3-z
14 1/3+y,2/3-x+y,2/3-z
15 1/3+x-y,2/3+x,2/3-z
16 2/3-x,1/3-y,1/3-z
17 2/3+y,1/3-x+y,1/3-z
18 2/3+x-y,1/3+x,1/3-z
_cell_length_a                   13.5674(13)
_cell_length_b                   13.5674(13)
_cell_length_c                   38.628(4)
_cell_angle_alpha                90
_cell_angle_beta                 90
_cell_angle_gamma                120
_cell_volume                     6157.81
_exptl_crystal_colour            colorless
_exptl_crystal_description       BLOCK
_cell_formula_units_Z            6
loop_
_atom_site_label
_atom_site_type_symbol
_atom_site_fract_x
_atom_site_fract_y
_atom_site_fract_z
S1 S 0.49906(6) 0.73703(6) 0.46967(2)
N1 N 0.51901(18) 0.81140(19) 0.39810(5)
O1 O 0.4088(2) 0.9689(2) 0.40437(8)
N2 N 0.3333 0.6667 0.35560(10)
C1 C 0.6216(2) 0.8675(2) 0.41508(7)
C2 C 0.6277(2) 0.8441(2) 0.45081(7)
C3 C 0.7278(2) 0.8988(2) 0.46950(8)
H1 H 0.7273 0.8824 0.4934
C4 C 0.5279(2) 0.8359(3) 0.36120(7)
H2 H 0.5735 0.8062 0.3501
H3 H 0.5683 0.9194 0.3577
C5 C 0.7277(2) 0.9476(2) 0.40008(8)
H4 H 0.7301 0.9658 0.3762
C6 C 0.8294(2) 0.9778(3) 0.45377(9)
H5 H 0.8982 1.0154 0.4667
C7 C 0.4116(3) 0.7831(3) 0.34387(7)
H6 H 0.3772 0.8311 0.3487
H7 H 0.4216 0.7825 0.3185
C8 C 0.8277(2) 1.0000(2) 0.41899(8)
H8 H 0.8966 1.0523 0.4078
C9 C 0.5486(4) 0.6687(4) 0.49918(11)
H9 H 0.4851 0.5939 0.5056
H10 H 0.5795 0.7157 0.5200
H11 H 0.6083 0.6594 0.4880
C10 C 0.3415(7) 1.0241(7) 0.3989(2)
H12 H 0.2873 1.0069 0.4183
H13 H 0.2981 0.9980 0.3770
C11 C 0.5137(6) 1.0469(5) 0.4194(2)
H14 H 0.5776 1.0577 0.4044
H15 H 0.5223 1.0198 0.4423
Li1 Li 0.3644(4) 0.8055(4) 0.40994(13)
C12 C 0.4240(5) 1.1463(5) 0.3975(2)
H16 H 0.3895 1.1922 0.4048
H17 H 0.4564 1.1700 0.3740
C13 C 0.5114(5) 1.1553(5) 0.42271(19)
H18 H 0.4904 1.1643 0.4466
H19 H 0.5868 1.2214 0.4171
S1A S 0.26297(6) 0.76203(8) 0.46967(2)
N1A N 0.18860(19) 0.70761(26) 0.39810(5)
C1A C 0.1325(2) 0.7541(3) 0.41508(7)
C2A C 0.1559(2) 0.7836(3) 0.45081(7)
C3A C 0.1012(2) 0.8290(3) 0.46950(8)
H1A H 0.1176 0.8449 0.4934
C4A C 0.1641(3) 0.6920(4) 0.36120(7)
H2A H 0.1938 0.7673 0.3501
H3A H 0.0806 0.6489 0.3577
C5A C 0.0524(2) 0.7801(3) 0.40008(8)
H4A H 0.0342 0.7643 0.3762
C6A C 0.0222(3) 0.8516(4) 0.45377(9)
H5A H -0.0154 0.8828 0.4667
C7A C 0.2169(3) 0.6285(4) 0.34387(7)
H6A H 0.1689 0.5461 0.3487
H7A H 0.2175 0.6391 0.3185
C8A C 0.0000(2) 0.8277(3) 0.41899(8)
H8A H -0.0523 0.8443 0.4078
C9A C 0.3313(4) 0.8799(6) 0.49918(11)
H9A H 0.4061 0.8912 0.5056
H10A H 0.2843 0.8638 0.5200
H11A H 0.3406 0.9489 0.4880
S1B S 0.23797(8) 0.50094(6) 0.46967(2)
N1B N 0.29239(26) 0.48099(18) 0.39810(5)
C1B C 0.2459(3) 0.3784(2) 0.41508(7)
C2B C 0.2164(3) 0.3723(2) 0.45081(7)
C3B C 0.1710(3) 0.2722(2) 0.46950(8)
H1B H 0.1551 0.2727 0.4934
C4B C 0.3080(4) 0.4721(2) 0.36120(7)
H2B H 0.2327 0.4265 0.3501
H3B H 0.3511 0.4317 0.3577
C5B C 0.2199(3) 0.2723(2) 0.40008(8)
H4B H 0.2357 0.2699 0.3762
C6B C 0.1484(4) 0.1706(2) 0.45377(9)
H5B H 0.1172 0.1018 0.4667
C7B C 0.3715(4) 0.5884(3) 0.34387(7)
H6B H 0.4539 0.6228 0.3487
H7B H 0.3609 0.5784 0.3185
C8B C 0.1723(3) 0.1723(2) 0.41899(8)
H8B H 0.1557 0.1034 0.4078
C9B C 0.1201(6) 0.4514(4) 0.49918(11)
H9B H 0.1088 0.5149 0.5056
H10B H 0.1362 0.4205 0.5200
H11B H 0.0511 0.3917 0.4880
O1A O 0.0311(2) 0.4399(3) 0.40437(8)
C10A C -0.0241(7) 0.3174(10) 0.3989(2)
H12A H -0.0069 0.2804 0.4183
H13A H 0.0020 0.3001 0.3770
C11A C -0.0469(5) 0.4668(8) 0.4194(2)
H14A H -0.0577 0.5199 0.4044
H15A H -0.0198 0.5025 0.4423
Li1A Li 0.1945(4) 0.5589(6) 0.40994(13)
C12A C -0.1463(5) 0.2777(7) 0.3975(2)
H16A H -0.1922 0.1973 0.4048
H17A H -0.1700 0.2864 0.3740
C13A C -0.1553(5) 0.3561(7) 0.42271(19)
H18A H -0.1643 0.3261 0.4466
H19A H -0.2214 0.3654 0.4171
O1B O 0.5601(3) 0.5912(2) 0.40437(8)
C10B C 0.6826(10) 0.6585(7) 0.3989(2)
H12B H 0.7196 0.7127 0.4183
H13B H 0.6999 0.7019 0.3770
C11B C 0.5332(8) 0.4863(6) 0.4194(2)
H14B H 0.4801 0.4224 0.4044
H15B H 0.4975 0.4777 0.4423
Li1B Li 0.4411(6) 0.6356(4) 0.40994(13)
C12B C 0.7223(7) 0.5760(5) 0.3975(2)
H16B H 0.8027 0.6105 0.4048
H17B H 0.7136 0.5436 0.3740
C13B C 0.6439(7) 0.4886(5) 0.42271(19)
H18B H 0.6739 0.5096 0.4466
H19B H 0.6346 0.4132 0.4171
C14? C 0.5288(7) 1.1570(7) 0.3876(3)
H20? H 0.5719 1.1658 0.3661
H21? H 0.5680 1.2295 0.4006
C15? C 0.4096(6) 1.1287(8) 0.3791(3)
H22? H 0.3865 1.1753 0.3929
H23? H 0.4017 1.1403 0.3541
C16? C 0.5238(9) 1.0695(8) 0.4075(3)
H24? H 0.5401 1.0935 0.4320
H25? H 0.5815 1.0505 0.3993
C17? C 0.3451(11) 1.0125(10) 0.3881(3)
H26? H 0.3096 0.9676 0.3669
H27? H 0.2830 1.0020 0.4039
loop_
_geom_bond_atom_site_label_1
_geom_bond_atom_site_label_2
_geom_bond_site_symmetry_1
_geom_bond_site_symmetry_2
S1 C2 1_555 1_555
N1 C1 1_555 1_555
O1 C10 1_555 1_555
N2 C7 1_555 1_555
C1 C2 1_555 1_555
C2 C3 1_555 1_555
C3 H1 1_555 1_555
C4 N1 1_555 1_555
H2 C4 1_555 1_555
H3 C4 1_555 1_555
C5 C1 1_555 1_555
H4 C5 1_555 1_555
C6 C3 1_555 1_555
H5 C6 1_555 1_555
C7 C4 1_555 1_555
H6 C7 1_555 1_555
H7 C7 1_555 1_555
C8 C5 1_555 1_555
H8 C8 1_555 1_555
C9 S1 1_555 1_555
H9 C9 1_555 1_555
H10 C9 1_555 1_555
H11 C9 1_555 1_555
C10 H12 1_555 1_555
H13 C10 1_555 1_555
C11 O1 1_555 1_555
H14 C11 1_555 1_555
H15 C11 1_555 1_555
Li1 N1 1_555 1_555
C12 C10 1_555 1_555
H16 C12 1_555 1_555
H17 C12 1_555 1_555
C13 C11 1_555 1_555
H18 C13 1_555 1_555
H19 C13 1_555 1_555
S1A Li1 1_555 1_555
N1A Li1 1_555 1_555
C1A N1A 1_555 1_555
C2A S1A 1_555 1_555
C3A C2A 1_555 1_555
H1A C3A 1_555 1_555
C4A N1A 1_555 1_555
H2A C4A 1_555 1_555
H3A C4A 1_555 1_555
C5A C1A 1_555 1_555
H4A C5A 1_555 1_555
C6A C3A 1_555 1_555
H5A C6A 1_555 1_555
C7A N2 1_555 1_555
H6A C7A 1_555 1_555
H7A C7A 1_555 1_555
C8A C5A 1_555 1_555
H8A C8A 1_555 1_555
C9A S1A 1_555 1_555
H9A C9A 1_555 1_555
H10A C9A 1_555 1_555
H11A C9A 1_555 1_555
S1B C2B 1_555 1_555
N1B C1B 1_555 1_555
C1B C2B 1_555 1_555
C2B C3B 1_555 1_555
C3B H1B 1_555 1_555
C4B N1B 1_555 1_555
H2B C4B 1_555 1_555
H3B C4B 1_555 1_555
C5B C1B 1_555 1_555
H4B C5B 1_555 1_555
C6B C3B 1_555 1_555
H5B C6B 1_555 1_555
C7B N2 1_555 1_555
H6B C7B 1_555 1_555
H7B C7B 1_555 1_555
C8B C5B 1_555 1_555
H8B C8B 1_555 1_555
C9B S1B 1_555 1_555
H9B C9B 1_555 1_555
H10B C9B 1_555 1_555
H11B C9B 1_555 1_555
O1A C10A 1_555 1_555
C10A H12A 1_555 1_555
H13A C10A 1_555 1_555
C11A O1A 1_555 1_555
H14A C11A 1_555 1_555
H15A C11A 1_555 1_555
Li1A N1A 1_555 1_555
C12A C10A 1_555 1_555
H16A C12A 1_555 1_555
H17A C12A 1_555 1_555
C13A C11A 1_555 1_555
H18A C13A 1_555 1_555
H19A C13A 1_555 1_555
O1B C10B 1_555 1_555
C10B H12B 1_555 1_555
H13B C10B 1_555 1_555
C11B O1B 1_555 1_555
H14B C11B 1_555 1_555
H15B C11B 1_555 1_555
Li1B S1 1_555 1_555
C12B C10B 1_555 1_555
H16B C12B 1_555 1_555
H17B C12B 1_555 1_555
C13B C11B 1_555 1_555
H18B C13B 1_555 1_555
H19B C13B 1_555 1_555
N1 Li1B 1_555 1_555
O1 Li1 1_555 1_555
C6 C8 1_555 1_555
C12 C13 1_555 1_555
C1A C2A 1_555 1_555
C4A C7A 1_555 1_555
C6A C8A 1_555 1_555
S1B Li1A 1_555 1_555
N1B Li1A 1_555 1_555
N1B Li1B 1_555 1_555
C4B C7B 1_555 1_555
C6B C8B 1_555 1_555
O1A Li1A 1_555 1_555
C12A C13A 1_555 1_555
O1B Li1B 1_555 1_555
C12B C13B 1_555 1_555

#END
