
#######################################################################
#
#                 Cambridge Crystallographic Data Centre
#                                CCDC 
#
#######################################################################
#
# If this CIF has been generated from an entry in the Cambridge 
# Structural Database, then it will include bibliographic, chemical, 
# crystal, experimental, refinement or atomic coordinate data resulting 
# from the CCDC's data processing and validation procedures.
#
#######################################################################

data_ZASRAP
_chemical_formula_moiety         'C18 H15 Cl2 N3 O3'
_chemical_name_systematic        
N-(2-chlorophenyl)-2-(4-(2-chlorophenyl)-3,5-dioxopiperazin-1-yl)acetamide
_symmetry_cell_setting           orthorhombic
_symmetry_space_group_name_H-M   'P c a 21'
_symmetry_Int_Tables_number      29
_space_group_name_Hall           'P 2c -2ac'
loop_
_symmetry_equiv_pos_site_id
_symmetry_equiv_pos_as_xyz
1 x,y,z
2 -x,-y,1/2+z
3 1/2+x,-y,z
4 1/2-x,y,1/2+z
_cell_length_a                   23.8215(16)
_cell_length_b                   10.3524(7)
_cell_length_c                   14.3063(9)
_cell_angle_alpha                90
_cell_angle_beta                 90
_cell_angle_gamma                90
_cell_volume                     3528.07
_exptl_crystal_colour            colorless
_exptl_crystal_description       block
_cell_formula_units_Z            8
loop_
_atom_site_label
_atom_site_type_symbol
_atom_site_fract_x
_atom_site_fract_y
_atom_site_fract_z
Cl1 Cl 0.42425(6) 0.94125(14) 0.58735(11)
Cl2 Cl 0.74796(13) 0.7039(3) 0.78038(15)
H1 H 0.503(5) 0.854(12) 0.698(4)
O1 O 0.53015(17) 0.8254(5) 0.8969(3)
O2 O 0.70944(18) 1.0088(4) 0.6124(3)
O3 O 0.67857(17) 0.5819(4) 0.5754(4)
N1 N 0.58402(19) 0.8248(5) 0.6591(3)
N2 N 0.49061(19) 0.8715(4) 0.7537(3)
N3 N 0.69578(16) 0.7927(4) 0.6077(4)
C1 C 0.5877(2) 0.8052(6) 0.7607(4)
H2 H 0.6178 0.8609 0.7859
H3 H 0.5983 0.7143 0.7730
C2 C 0.5331(2) 0.8351(5) 0.8124(4)
C3 C 0.4349(2) 0.9013(5) 0.7743(4)
C4 C 0.3983(2) 0.9348(5) 0.7017(4)
C5 C 0.3426(2) 0.9627(5) 0.7154(4)
H4 H 0.3192 0.9848 0.6641
C6 C 0.3212(2) 0.9579(6) 0.8051(5)
H5 H 0.2827 0.9770 0.8160
C7 C 0.3558(3) 0.9251(6) 0.8788(4)
H6 H 0.3408 0.9222 0.9403
C8 C 0.4119(2) 0.8965(6) 0.8651(4)
H7 H 0.4349 0.8736 0.9168
C9 C 0.6140(2) 0.9374(5) 0.6260(4)
H8 H 0.6068 1.0098 0.6696
H9 H 0.5986 0.9622 0.5643
C10 C 0.6768(2) 0.9200(5) 0.6165(4)
C11 C 0.5982(2) 0.7127(6) 0.6038(5)
H10 H 0.5827 0.7244 0.5402
H11 H 0.5797 0.6362 0.6316
C12 C 0.6605(2) 0.6857(5) 0.5959(4)
C13 C 0.78555(16) 0.7283(4) 0.67838(17)
C14 C 0.75607(11) 0.7706(4) 0.6003(2)
C15 C 0.78407(17) 0.7915(4) 0.51645(17)
H12 H 0.7639 0.8204 0.4631
C16 C 0.84156(18) 0.7699(5) 0.5106(2)
H13 H 0.8607 0.7842 0.4533
C17 C 0.87104(11) 0.7276(5) 0.5886(3)
H14 H 0.9103 0.7129 0.5846
C18 C 0.84304(15) 0.7067(4) 0.6725(2)
H15 H 0.8632 0.6778 0.7259
H17 H 0.860(4) 0.362(12) 0.614(4)
Cl4 Cl 0.95778(5) 0.41257(15) 0.59388(12)
Cl5 Cl 0.97769(6) 0.17592(15) 0.39004(12)
O4 O 0.7584(2) 0.3766(5) 0.7408(3)
O5 O 0.8789(2) 0.5010(4) 0.3470(3)
O6 O 0.8388(2) 0.0747(4) 0.3290(3)
N4 N 0.80282(16) 0.3023(4) 0.5038(3)
N5 N 0.84448(19) 0.3687(4) 0.6681(3)
N6 N 0.86390(17) 0.2855(4) 0.3424(3)
C19 C 0.7621(2) 0.3133(5) 0.5808(4)
H18 H 0.7438 0.2284 0.5903
H19 H 0.7326 0.3759 0.5627
C20 C 0.7883(2) 0.3567(5) 0.6725(4)
C21 C 0.8823(2) 0.4122(5) 0.7364(4)
C22 C 0.9383(2) 0.4343(5) 0.7099(4)
C23 C 0.9780(3) 0.4772(6) 0.7735(5)
H20 H 1.0156 0.4924 0.7542
C24 C 0.9623(4) 0.4975(7) 0.8651(5)
H21 H 0.9895 0.5237 0.9098
C25 C 0.9077(4) 0.4798(6) 0.8914(5)
H22 H 0.8972 0.4978 0.9541
C26 C 0.8669(3) 0.4359(6) 0.8286(4)
H23 H 0.8293 0.4225 0.8486
C27 C 0.8083(2) 0.4209(5) 0.4499(4)
H24 H 0.8177 0.4931 0.4926
H25 H 0.7720 0.4410 0.4196
C28 C 0.8533(2) 0.4097(5) 0.3760(4)
C29 C 0.7891(2) 0.1965(5) 0.4420(4)
H26 H 0.7523 0.2139 0.4121
H27 H 0.7854 0.1163 0.4791
C30 C 0.8322(2) 0.1768(5) 0.3677(4)
C31 C 0.9028(2) 0.2704(5) 0.2660(3)
C32 C 0.9556(2) 0.2188(5) 0.2787(4)
C33 C 0.9916(2) 0.2002(5) 0.2036(4)
H28 H 1.0281 0.1653 0.2130
C34 C 0.9737(3) 0.2332(6) 0.1153(4)
H29 H 0.9977 0.2189 0.0632
C35 C 0.9219(3) 0.2862(6) 0.1018(4)
H30 H 0.9106 0.3098 0.0405
C36 C 0.8853(2) 0.3064(6) 0.1762(4)
H31 H 0.8493 0.3437 0.1663
Cl3? Cl 0.7432(3) 0.8276(8) 0.4197(3)
H16? H 0.7664 0.7140 0.7357
loop_
_geom_bond_atom_site_label_1
_geom_bond_atom_site_label_2
_geom_bond_site_symmetry_1
_geom_bond_site_symmetry_2
Cl1 C4 1_555 1_555
Cl2 C13 1_555 1_555
H1 N2 1_555 1_555
O1 C2 1_555 1_555
O2 C10 1_555 1_555
O3 C12 1_555 1_555
N1 C1 1_555 1_555
N2 C2 1_555 1_555
N3 C10 1_555 1_555
C1 H2 1_555 1_555
H3 C1 1_555 1_555
C2 C1 1_555 1_555
C3 N2 1_555 1_555
C4 C3 1_555 1_555
C5 C4 1_555 1_555
H4 C5 1_555 1_555
C6 C5 1_555 1_555
H5 C6 1_555 1_555
C7 C6 1_555 1_555
H6 C7 1_555 1_555
C8 C3 1_555 1_555
H7 C8 1_555 1_555
C9 N1 1_555 1_555
H8 C9 1_555 1_555
H9 C9 1_555 1_555
C10 C9 1_555 1_555
C11 N1 1_555 1_555
H10 C11 1_555 1_555
H11 C11 1_555 1_555
C12 N3 1_555 1_555
C13 C14 1_555 1_555
C14 N3 1_555 1_555
C15 C14 1_555 1_555
H12 C15 1_555 1_555
C16 C15 1_555 1_555
H13 C16 1_555 1_555
C17 C16 1_555 1_555
H14 C17 1_555 1_555
C18 C13 1_555 1_555
H15 C18 1_555 1_555
H17 N5 1_555 1_555
Cl4 C22 1_555 1_555
Cl5 C32 1_555 1_555
O4 C20 1_555 1_555
O5 C28 1_555 1_555
O6 C30 1_555 1_555
N4 C19 1_555 1_555
N5 C20 1_555 1_555
N6 C28 1_555 1_555
C19 H18 1_555 1_555
H19 C19 1_555 1_555
C20 C19 1_555 1_555
C21 N5 1_555 1_555
C22 C21 1_555 1_555
C23 C22 1_555 1_555
H20 C23 1_555 1_555
C24 C23 1_555 1_555
H21 C24 1_555 1_555
C25 C24 1_555 1_555
H22 C25 1_555 1_555
C26 C21 1_555 1_555
H23 C26 1_555 1_555
C27 N4 1_555 1_555
H24 C27 1_555 1_555
H25 C27 1_555 1_555
C28 C27 1_555 1_555
C29 N4 1_555 1_555
H26 C29 1_555 1_555
H27 C29 1_555 1_555
C30 N6 1_555 1_555
C31 N6 1_555 1_555
C32 C31 1_555 1_555
C33 C32 1_555 1_555
H28 C33 1_555 1_555
C34 C33 1_555 1_555
H29 C34 1_555 1_555
C35 C34 1_555 1_555
H30 C35 1_555 1_555
C36 C31 1_555 1_555
H31 C36 1_555 1_555
C7 C8 1_555 1_555
C11 C12 1_555 1_555
C17 C18 1_555 1_555
C25 C26 1_555 1_555
C29 C30 1_555 1_555
C35 C36 1_555 1_555

#END
