
#######################################################################
#
#                 Cambridge Crystallographic Data Centre
#                                CCDC 
#
#######################################################################
#
# If this CIF has been generated from an entry in the Cambridge 
# Structural Database, then it will include bibliographic, chemical, 
# crystal, experimental, refinement or atomic coordinate data resulting 
# from the CCDC's data processing and validation procedures.
#
#######################################################################

data_ZATBII01
_chemical_formula_moiety         'C29 H32 N8 4+,2(C8 H4 O4 2-)'
_chemical_name_systematic        
'(methanetetrayltetra-4,1-phenylene)tetrakis(aminomethaniminium) bis(terephthalate) unknown solvate'
_symmetry_cell_setting           triclinic
_symmetry_space_group_name_H-M   'P -1'
_symmetry_Int_Tables_number      2
_space_group_name_Hall           '-P 1'
loop_
_symmetry_equiv_pos_site_id
_symmetry_equiv_pos_as_xyz
1 x,y,z
2 -x,-y,-z
_cell_length_a                   13.4321(3)
_cell_length_b                   17.9171(5)
_cell_length_c                   22.5211(5)
_cell_angle_alpha                110.859(2)
_cell_angle_beta                 91.4675(18)
_cell_angle_gamma                100.683(2)
_cell_volume                     4952.18
_exptl_crystal_colour            colorless
_exptl_crystal_description       rod
_cell_formula_units_Z            4
loop_
_atom_site_label
_atom_site_type_symbol
_atom_site_fract_x
_atom_site_fract_y
_atom_site_fract_z
O1 O 0.04453(12) 0.01669(11) 0.12791(8)
C1 C 0.12196(18) -0.01573(15) 0.12083(11)
O2 O 0.13892(14) -0.06641(11) 0.06912(8)
C2 C 0.19682(17) 0.00773(15) 0.17904(11)
C3 C 0.19537(18) 0.07760(16) 0.23214(12)
C4 C 0.25965(19) 0.09627(16) 0.28741(12)
C5 C 0.32539(17) 0.04628(15) 0.28993(11)
C6 C 0.32789(18) -0.02297(15) 0.23656(12)
C7 C 0.26378(18) -0.04173(15) 0.18115(12)
C8 C 0.39638(18) 0.06617(16) 0.34921(11)
O3 O 0.46959(13) 0.03103(12) 0.34412(8)
O4 O 0.37852(15) 0.11830(12) 0.40084(9)
H1 H 0.1511 0.1132 0.2318
H2 H 0.2574 0.1431 0.3232
H3 H 0.3757 -0.0576 0.2376
H4 H 0.2665 -0.0883 0.1452
O5 O 0.73405(13) 0.02371(12) 0.09938(9)
C9 C 0.64137(19) -0.01017(15) 0.09595(12)
O6 O 0.60740(14) -0.05001(12) 0.12934(9)
C10 C 0.56776(18) -0.00348(15) 0.04688(12)
C11 C 0.60112(19) 0.03908(16) 0.00806(13)
C12 C 0.53445(19) 0.04304(16) -0.03851(13)
H5 H 0.6704 0.0672 0.0137
H6 H 0.5615 0.0717 -0.0654
O5A O 0.26595(13) -0.02371(12) -0.09938(9)
C9A C 0.35863(19) 0.01017(15) -0.09595(12)
O6A O 0.39260(14) 0.05001(12) -0.12934(9)
C10A C 0.43224(18) 0.00348(15) -0.04688(12)
C11A C 0.39888(19) -0.03908(16) -0.00806(13)
C12A C 0.46555(19) -0.04304(16) 0.03851(13)
H5A H 0.3296 -0.0672 -0.0137
H6A H 0.4385 -0.0717 0.0654
O7 O 0.77507(14) 1.00228(11) 0.40333(9)
C13 C 0.8698(2) 1.03058(16) 0.40903(12)
O8 O 0.91110(15) 1.07232(13) 0.37865(10)
C14 C 0.9374(2) 1.01419(16) 0.45585(12)
C15 C 0.8998(2) 0.95763(17) 0.48293(13)
C16 C 0.9618(2) 0.94413(17) 0.52700(14)
H7 H 0.8312 0.9268 0.4708
H8 H 0.9334 0.9060 0.5455
O7A O 1.22493(14) 0.99772(11) 0.59667(9)
C13A C 1.1302(2) 0.96942(16) 0.59097(12)
O8A O 1.08890(15) 0.92768(13) 0.62135(10)
C14A C 1.0626(2) 0.98581(16) 0.54415(12)
C15A C 1.1002(2) 1.04237(17) 0.51707(13)
C16A C 1.0382(2) 1.05587(17) 0.47300(14)
H7A H 1.1688 1.0732 0.5292
H8A H 1.0666 1.0940 0.4545
O9 O 0.11427(14) 0.41130(11) 0.36761(9)
C17 C 0.2063(2) 0.44811(16) 0.37357(12)
O10 O 0.27093(16) 0.45645(13) 0.41771(9)
C18 C 0.2397(2) 0.48220(17) 0.32317(13)
C19 C 0.1862(2) 0.44990(17) 0.26290(13)
C20 C 0.2205(2) 0.47705(17) 0.21513(13)
C21 C 0.3050(2) 0.54003(16) 0.22792(13)
C22 C 0.3422(2) 0.56813(17) 0.17515(13)
O11 O 0.39979(16) 0.63690(13) 0.18983(10)
O12 O 0.31133(18) 0.51896(14) 0.11888(10)
C23 C 0.3563(2) 0.57518(19) 0.28890(14)
C24 C 0.3252(2) 0.54485(19) 0.33554(14)
H9 H 0.1264 0.4094 0.2538
H10 H 0.1868 0.4517 0.1734
H11 H 0.4131 0.6202 0.2991
H12 H 0.3640 0.5666 0.3767
O13 O 0.82645(15) 0.47375(12) 0.13413(9)
C25 C 0.78139(19) 0.53128(15) 0.13933(12)
O14 O 0.76914(16) 0.55843(12) 0.09577(9)
C26 C 0.74093(19) 0.57267(15) 0.20189(12)
C27 C 0.78113(19) 0.57007(16) 0.25838(12)
C28 C 0.74782(19) 0.61298(16) 0.31591(12)
C29 C 0.67177(19) 0.65688(15) 0.31765(12)
C30 C 0.6342(2) 0.70304(16) 0.38011(12)
O15 O 0.64994(16) 0.68275(12) 0.42707(9)
O16 O 0.58932(15) 0.75939(12) 0.38141(9)
C31 C 0.6297(2) 0.65764(16) 0.26079(12)
C32 C 0.6654(2) 0.61646(16) 0.20346(12)
H13 H 0.8336 0.5418 0.2583
H14 H 0.7769 0.6113 0.3543
H15 H 0.5782 0.6876 0.2612
H16 H 0.6375 0.6175 0.1645
N1 N 0.48014(16) 0.12237(14) 0.51402(10)
C33 C 0.56502(18) 0.09555(14) 0.50906(11)
N2 N 0.58403(16) 0.04677(13) 0.45333(10)
C34 C 0.64259(18) 0.12137(15) 0.56475(11)
C35 C 0.72160(19) 0.08033(15) 0.56249(12)
C36 C 0.80401(19) 0.11329(16) 0.60885(12)
C37 C 0.80851(18) 0.18720(15) 0.65898(11)
C38 C 0.90870(17) 0.23600(14) 0.70053(11)
C39 C 0.95614(18) 0.28603(15) 0.66076(11)
C40 C 0.93475(18) 0.36208(15) 0.66807(11)
C41 C 0.97033(19) 0.40227(15) 0.62792(12)
C42 C 1.02643(19) 0.36667(16) 0.57817(12)
C43 C 1.06397(19) 0.41013(16) 0.53565(12)
N3 N 1.07200(19) 0.36837(15) 0.47549(11)
N4 N 1.0901(2) 0.48992(15) 0.55886(12)
C44 C 1.04488(19) 0.28941(16) 0.56916(12)
C45 C 1.00996(19) 0.25006(16) 0.60992(12)
C46 C 0.98101(17) 0.18491(14) 0.71378(10)
C47 C 0.94524(18) 0.11205(15) 0.72278(11)
C48 C 1.01068(19) 0.07554(15) 0.74649(12)
C49 C 1.11445(18) 0.11219(15) 0.76223(11)
C50 C 1.18360(18) 0.08011(15) 0.79449(11)
N5 N 1.28133(16) 0.09355(14) 0.78785(11)
N6 N 1.14763(17) 0.04055(14) 0.83136(11)
C51 C 1.15064(18) 0.18350(16) 0.75150(12)
C52 C 1.08540(18) 0.21929(15) 0.72769(12)
C53 C 0.89061(18) 0.28812(15) 0.76918(11)
C54 C 0.95442(18) 0.36323(15) 0.80401(11)
C55 C 0.94259(19) 0.40493(16) 0.86748(12)
C56 C 0.86902(18) 0.37079(16) 0.89796(11)
C57 C 0.80683(19) 0.29461(16) 0.86408(12)
C58 C 0.81720(18) 0.25476(15) 0.80062(11)
C59 C 0.85624(19) 0.41628(16) 0.96562(12)
N7 N 0.83891(19) 0.37823(14) 1.00537(10)
N8 N 0.86349(19) 0.49571(14) 0.98481(11)
C60 C 0.72530(18) 0.22484(15) 0.66325(11)
C61 C 0.64336(18) 0.19306(15) 0.61699(11)
H17 H 0.7185 0.0293 0.5289
H18 H 0.8567 0.0860 0.6059
H19 H 0.8951 0.3871 0.7005
H20 H 0.9544 0.4534 0.6325
H21 H 1.0807 0.2628 0.5340
H22 H 1.0221 0.1979 0.6035
H23 H 0.8748 0.0881 0.7138
H24 H 0.9844 0.0248 0.7513
H25 H 1.2209 0.2082 0.7624
H26 H 1.1112 0.2688 0.7219
H27 H 1.0071 0.3857 0.7838
H28 H 0.9842 0.4569 0.8906
H29 H 0.7569 0.2709 0.8848
H30 H 0.7727 0.2039 0.7772
H31 H 0.7257 0.2739 0.6981
H32 H 0.5867 0.2192 0.6203
H33 H 1.0838(14) 0.0323(18) 0.8361(14)
H34 H 0.6440(15) 0.0372(17) 0.4483(11)
H35 H 0.4668(18) 0.1570(16) 0.5480(10)
H36 H 1.113(3) 0.5155(13) 0.5350(11)
H37 H 1.054(2) 0.3158(11) 0.4610(11)
H38 H 0.5452(18) 0.0367(17) 0.4200(9)
H39 H 1.3036(16) 0.1165(18) 0.7620(13)
H40 H 0.844(2) 0.3274(12) 0.9946(11)
H41 H 1.095(2) 0.3938(13) 0.4503(10)
H42 H 1.087(3) 0.5159(13) 0.5985(9)
H43 H 1.1869(16) 0.0220(18) 0.8501(13)
H44 H 0.844(2) 0.5207(13) 1.0214(11)
H45 H 0.828(3) 0.4040(13) 1.0444(9)
H46 H 0.861(3) 0.5189(13) 0.9578(10)
H47 H 0.4426(18) 0.1159(18) 0.4805(9)
H48 H 1.3217(16) 0.0816(19) 0.8111(13)
N9 N 0.82371(16) 0.11623(15) 0.28469(11)
C62 C 0.72508(19) 0.10810(15) 0.28748(12)
N10 N 0.67949(17) 0.07158(14) 0.32371(11)
C63 C 0.66486(19) 0.14385(16) 0.25316(11)
C64 C 0.56082(19) 0.11164(15) 0.23517(12)
C65 C 0.50248(19) 0.15139(15) 0.20994(12)
C66 C 0.54548(18) 0.22376(15) 0.20218(11)
C67 C 0.47978(18) 0.27783(14) 0.18691(11)
C68 C 0.52188(18) 0.31446(15) 0.13786(12)
C69 C 0.57899(19) 0.27409(16) 0.09106(13)
C70 C 0.6001(2) 0.29831(17) 0.03996(13)
C71 C 0.56802(19) 0.36602(16) 0.03644(12)
C72 C 0.5141(2) 0.40906(16) 0.08440(13)
C73 C 0.48946(19) 0.38226(16) 0.13359(12)
C74 C 0.58680(19) 0.39087(17) -0.01928(13)
N11 N 0.61734(18) 0.46863(15) -0.01010(11)
N12 N 0.5702(2) 0.33524(15) -0.07650(11)
C75 C 0.37352(17) 0.23025(14) 0.15405(11)
C76 C 0.36812(19) 0.15854(16) 0.10088(12)
C77 C 0.2786(2) 0.12007(16) 0.06225(13)
C78 C 0.19156(18) 0.15176(15) 0.07451(11)
C79 C 0.09956(18) 0.11322(16) 0.02840(12)
N13 N 0.01899(17) 0.14574(15) 0.03498(12)
N14 N 0.09861(17) 0.04649(14) -0.02117(11)
C80 C 0.1950(2) 0.22075(17) 0.12906(13)
C81 C 0.28585(19) 0.25974(16) 0.16812(12)
C82 C 0.4834(2) 0.34359(15) 0.25452(12)
C83 C 0.5582(2) 0.41572(17) 0.27295(13)
C84 C 0.5881(2) 0.46107(18) 0.33660(14)
C85 C 0.5445(2) 0.43707(16) 0.38369(12)
C86 C 0.5940(2) 0.47713(16) 0.44984(13)
N15 N 0.58665(19) 0.43657(15) 0.48861(11)
N16 N 0.65096(18) 0.55127(14) 0.46906(11)
C87 C 0.4636(2) 0.36941(17) 0.36565(13)
C88 C 0.4335(2) 0.32365(17) 0.30115(13)
C89 C 0.64977(19) 0.25377(17) 0.21824(13)
C90 C 0.70914(19) 0.21469(17) 0.24336(13)
H49 H 0.5312 0.0637 0.2417
H50 H 0.4313 0.1278 0.1977
H51 H 0.6039 0.2290 0.0953
H52 H 0.6365 0.2671 0.0078
H53 H 0.4923 0.4565 0.0827
H54 H 0.4493 0.4101 0.1648
H55 H 0.4267 0.1345 0.0916
H56 H 0.2761 0.0734 0.0271
H57 H 0.1350 0.2416 0.1397
H58 H 0.2875 0.3072 0.2035
H59 H 0.5889 0.4327 0.2407
H60 H 0.6423 0.5090 0.3481
H61 H 0.4283 0.3544 0.3982
H62 H 0.3776 0.2786 0.2895
H63 H 0.6793 0.3048 0.2135
H64 H 0.7780 0.2362 0.2550
H65 H 0.8531(16) 0.1382(19) 0.2601(13)
H66 H 0.581(3) 0.3491(14) -0.1093(9)
H67 H 0.641(2) 0.5027(13) 0.0279(9)
H68 H 0.1526(16) 0.0267(15) -0.0278(12)
H69 H 0.620(2) 0.4623(14) 0.5287(10)
H70 H 0.7131(16) 0.0500(18) 0.3443(13)
H71 H 0.680(2) 0.5736(15) 0.5096(10)
H72 H 0.632(2) 0.4829(14) -0.0428(10)
H73 H 0.652(2) 0.5815(14) 0.4451(12)
H74 H 0.0202(18) 0.1914(14) 0.0646(12)
H75 H 0.8602(16) 0.1035(19) 0.3105(12)
H76 H 0.6150(14) 0.0666(18) 0.3263(14)
H77 H 0.554(3) 0.2837(11) -0.0824(11)
H78 H 0.0456(16) 0.0244(15) -0.0492(11)
H79 H 0.551(2) 0.3865(13) 0.4775(11)
H80 H -0.0293(17) 0.1258(17) 0.0049(11)
loop_
_geom_bond_atom_site_label_1
_geom_bond_atom_site_label_2
_geom_bond_site_symmetry_1
_geom_bond_site_symmetry_2
O1 C1 1_555 1_555
C1 O2 1_555 1_555
C2 C1 1_555 1_555
C3 C2 1_555 1_555
C4 C3 1_555 1_555
C5 C4 1_555 1_555
C6 C5 1_555 1_555
C7 C2 1_555 1_555
C8 C5 1_555 1_555
O3 C8 1_555 1_555
O4 C8 1_555 1_555
H1 C3 1_555 1_555
H2 C4 1_555 1_555
H3 C6 1_555 1_555
H4 C7 1_555 1_555
O5 C9 1_555 1_555
C9 O6 1_555 1_555
C10 C9 1_555 1_555
C11 C10 1_555 1_555
C12 C11 1_555 1_555
H5 C11 1_555 1_555
H6 C12 1_555 1_555
O7 C13 1_555 1_555
C13 O8 1_555 1_555
C14 C13 1_555 1_555
C15 C14 1_555 1_555
C16 C15 1_555 1_555
H7 C15 1_555 1_555
H8 C16 1_555 1_555
O9 C17 1_555 1_555
C17 O10 1_555 1_555
C18 C17 1_555 1_555
C19 C18 1_555 1_555
C20 C19 1_555 1_555
C21 C20 1_555 1_555
C22 C21 1_555 1_555
O11 C22 1_555 1_555
O12 C22 1_555 1_555
C23 C21 1_555 1_555
C24 C18 1_555 1_555
H9 C19 1_555 1_555
H10 C20 1_555 1_555
H11 C23 1_555 1_555
H12 C24 1_555 1_555
O13 C25 1_555 1_555
C25 O14 1_555 1_555
C26 C25 1_555 1_555
C27 C26 1_555 1_555
C28 C27 1_555 1_555
C29 C28 1_555 1_555
C30 C29 1_555 1_555
O15 C30 1_555 1_555
O16 C30 1_555 1_555
C31 C29 1_555 1_555
C32 C26 1_555 1_555
H13 C27 1_555 1_555
H14 C28 1_555 1_555
H15 C31 1_555 1_555
H16 C32 1_555 1_555
N1 C33 1_555 1_555
C33 N2 1_555 1_555
N2 H34 1_555 1_555
C34 C33 1_555 1_555
C35 C34 1_555 1_555
C36 C35 1_555 1_555
C37 C36 1_555 1_555
C38 C37 1_555 1_555
C39 C38 1_555 1_555
C40 C39 1_555 1_555
C41 C40 1_555 1_555
C42 C41 1_555 1_555
C43 C42 1_555 1_555
N3 C43 1_555 1_555
N4 C43 1_555 1_555
C44 C42 1_555 1_555
C45 C39 1_555 1_555
C46 C38 1_555 1_555
C47 C46 1_555 1_555
C48 C47 1_555 1_555
C49 C48 1_555 1_555
C50 C49 1_555 1_555
N5 C50 1_555 1_555
N6 C50 1_555 1_555
C51 C49 1_555 1_555
C52 C46 1_555 1_555
C53 C38 1_555 1_555
C54 C53 1_555 1_555
C55 C54 1_555 1_555
C56 C55 1_555 1_555
C57 C56 1_555 1_555
C58 C53 1_555 1_555
C59 C56 1_555 1_555
N7 C59 1_555 1_555
N8 C59 1_555 1_555
C60 C37 1_555 1_555
C61 C34 1_555 1_555
H17 C35 1_555 1_555
H18 C36 1_555 1_555
H19 C40 1_555 1_555
H20 C41 1_555 1_555
H21 C44 1_555 1_555
H22 C45 1_555 1_555
H23 C47 1_555 1_555
H24 C48 1_555 1_555
H25 C51 1_555 1_555
H26 C52 1_555 1_555
H27 C54 1_555 1_555
H28 C55 1_555 1_555
H29 C57 1_555 1_555
H30 C58 1_555 1_555
H31 C60 1_555 1_555
H32 C61 1_555 1_555
H33 N6 1_555 1_555
H35 N1 1_555 1_555
H36 N4 1_555 1_555
H37 N3 1_555 1_555
H38 N2 1_555 1_555
H39 N5 1_555 1_555
H40 N7 1_555 1_555
H41 N3 1_555 1_555
H42 N4 1_555 1_555
H43 N6 1_555 1_555
H44 N8 1_555 1_555
H45 N7 1_555 1_555
H46 N8 1_555 1_555
H47 N1 1_555 1_555
H48 N5 1_555 1_555
N9 C62 1_555 1_555
C62 N10 1_555 1_555
N10 H70 1_555 1_555
C63 C62 1_555 1_555
C64 C63 1_555 1_555
C65 C64 1_555 1_555
C66 C65 1_555 1_555
C67 C66 1_555 1_555
C68 C67 1_555 1_555
C69 C68 1_555 1_555
C70 C69 1_555 1_555
C71 C70 1_555 1_555
C72 C71 1_555 1_555
C73 C68 1_555 1_555
C74 C71 1_555 1_555
N11 C74 1_555 1_555
N12 C74 1_555 1_555
C75 C67 1_555 1_555
C76 C75 1_555 1_555
C77 C76 1_555 1_555
C78 C77 1_555 1_555
C79 C78 1_555 1_555
N13 C79 1_555 1_555
N14 C79 1_555 1_555
C80 C78 1_555 1_555
C81 C75 1_555 1_555
C82 C67 1_555 1_555
C83 C82 1_555 1_555
C84 C83 1_555 1_555
C85 C84 1_555 1_555
C86 C85 1_555 1_555
N15 C86 1_555 1_555
N16 C86 1_555 1_555
C87 C85 1_555 1_555
C88 C82 1_555 1_555
C89 C66 1_555 1_555
C90 C63 1_555 1_555
H49 C64 1_555 1_555
H50 C65 1_555 1_555
H51 C69 1_555 1_555
H52 C70 1_555 1_555
H53 C72 1_555 1_555
H54 C73 1_555 1_555
H55 C76 1_555 1_555
H56 C77 1_555 1_555
H57 C80 1_555 1_555
H58 C81 1_555 1_555
H59 C83 1_555 1_555
H60 C84 1_555 1_555
H61 C87 1_555 1_555
H62 C88 1_555 1_555
H63 C89 1_555 1_555
H64 C90 1_555 1_555
H65 N9 1_555 1_555
H66 N12 1_555 1_555
H67 N11 1_555 1_555
H68 N14 1_555 1_555
H69 N15 1_555 1_555
H71 N16 1_555 1_555
H72 N11 1_555 1_555
H73 N16 1_555 1_555
H74 N13 1_555 1_555
H75 N9 1_555 1_555
H76 N10 1_555 1_555
H77 N12 1_555 1_555
H78 N14 1_555 1_555
H79 N15 1_555 1_555
H80 N13 1_555 1_555
O5A C9A 1_555 1_555
C9A O6A 1_555 1_555
C10A C12 1_555 1_555
C11A C10A 1_555 1_555
C12A C10 1_555 1_555
H5A C11A 1_555 1_555
H6A C12A 1_555 1_555
O7A C13A 1_555 1_555
C13A O8A 1_555 1_555
C14A C16 1_555 1_555
C15A C14A 1_555 1_555
C16A C14 1_555 1_555
H7A C15A 1_555 1_555
H8A C16A 1_555 1_555
C6 C7 1_555 1_555
C23 C24 1_555 1_555
C31 C32 1_555 1_555
C44 C45 1_555 1_555
C51 C52 1_555 1_555
C57 C58 1_555 1_555
C60 C61 1_555 1_555
C72 C73 1_555 1_555
C80 C81 1_555 1_555
C87 C88 1_555 1_555
C89 C90 1_555 1_555
C9A C10A 1_555 1_555
C11A C12A 1_555 1_555
C13A C14A 1_555 1_555
C15A C16A 1_555 1_555

#END
