
#######################################################################
#
#                 Cambridge Crystallographic Data Centre
#                                CCDC 
#
#######################################################################
#
# If this CIF has been generated from an entry in the Cambridge 
# Structural Database, then it will include bibliographic, chemical, 
# crystal, experimental, refinement or atomic coordinate data resulting 
# from the CCDC's data processing and validation procedures.
#
#######################################################################

data_ZATBAA
_chemical_formula_moiety         'C11 H17 N2 1+,C7 H5 O2 1-'
_chemical_name_systematic        'amino(4-t-butylphenyl)methaniminium benzoate'
_symmetry_cell_setting           triclinic
_symmetry_space_group_name_H-M   'P -1'
_symmetry_Int_Tables_number      2
_space_group_name_Hall           '-P 1'
loop_
_symmetry_equiv_pos_site_id
_symmetry_equiv_pos_as_xyz
1 x,y,z
2 -x,-y,-z
_cell_length_a                   9.9217(6)
_cell_length_b                   10.0318(5)
_cell_length_c                   18.7148(11)
_cell_angle_alpha                90.632(5)
_cell_angle_beta                 93.900(5)
_cell_angle_gamma                119.479(6)
_cell_volume                     1615.69
_exptl_crystal_colour            colorless
_exptl_crystal_description       lath
_cell_formula_units_Z            4
_exptl_crystal_recrystallization_method acetonitrile
loop_
_atom_site_label
_atom_site_type_symbol
_atom_site_fract_x
_atom_site_fract_y
_atom_site_fract_z
N1 N 0.4947(5) 0.6305(5) 0.4365(2)
N2 N 0.5271(6) 0.8726(5) 0.4368(2)
C1 C 0.5057(6) 0.7483(6) 0.4014(3)
C2 C 0.4949(6) 0.7428(6) 0.3227(3)
C3 C 0.5587(6) 0.6688(6) 0.2851(3)
C4 C 0.5517(6) 0.6653(6) 0.2110(3)
C5 C 0.4855(6) 0.7391(5) 0.1713(3)
C6 C 0.4212(6) 0.8103(6) 0.2092(3)
C7 C 0.4282(6) 0.8144(6) 0.2833(3)
C8 C 0.4812(6) 0.7333(6) 0.0890(3)
C9 C 0.4107(14) 0.8259(11) 0.0561(4)
C10 C 0.3802(10) 0.5706(8) 0.0599(4)
C11 C 0.6473(9) 0.7958(13) 0.0671(4)
H1 H 0.6048 0.6196 0.3108
H2 H 0.5945 0.6141 0.1871
H3 H 0.3722 0.8578 0.1839
H4 H 0.3849 0.8640 0.3077
H5 H 0.4030 0.8136 0.0048
H6 H 0.4778 0.9316 0.0716
H7 H 0.3092 0.7888 0.0729
H8 H 0.3770 0.5684 0.0083
H9 H 0.2769 0.5322 0.0751
H10 H 0.4260 0.5110 0.0785
H11 H 0.6442 0.7887 0.0153
H12 H 0.7105 0.9019 0.0841
H13 H 0.6891 0.7347 0.0878
H14 H 0.477(7) 0.548(3) 0.4132(14)
H15 H 0.526(7) 0.872(4) 0.4833(11)
H16 H 0.486(7) 0.629(4) 0.4826(12)
H17 H 0.539(7) 0.951(3) 0.4136(14)
N3 N 1.0318(6) 0.8770(5) 0.0666(2)
N4 N 0.9813(6) 0.6310(5) 0.0616(2)
C12 C 1.0012(6) 0.7509(6) 0.0990(3)
C13 C 0.9923(6) 0.7433(6) 0.1777(3)
C14 C 1.0824(6) 0.8759(5) 0.2232(3)
C15 C 1.0770(6) 0.8672(5) 0.2957(3)
C16 C 0.9825(6) 0.7292(6) 0.3280(3)
C17 C 0.8938(6) 0.6006(6) 0.2818(3)
C18 C 0.8971(6) 0.6063(6) 0.2081(3)
C19 C 0.9832(6) 0.7243(6) 0.4094(3)
C20 C 0.9346(8) 0.8363(7) 0.4378(3)
C21 C 0.8678(7) 0.5638(6) 0.4332(3)
C22 C 1.1471(7) 0.7697(7) 0.4422(3)
H18 H 1.1454 0.9696 0.2026
H19 H 1.1380 0.9555 0.3250
H20 H 0.8277 0.5054 0.3008
H21 H 0.8348 0.5157 0.1782
H22 H 0.9292 0.8289 0.4887
H23 H 1.0091 0.9388 0.4269
H24 H 0.8348 0.8091 0.4151
H25 H 0.8716 0.5653 0.4849
H26 H 0.8957 0.4897 0.4156
H27 H 0.7636 0.5353 0.4140
H28 H 1.1463 0.7642 0.4939
H29 H 1.2229 0.8740 0.4301
H30 H 1.1772 0.6977 0.4240
H31 H 1.031(7) 0.876(4) 0.0207(11)
H32 H 1.039(7) 0.954(3) 0.0904(15)
H33 H 0.993(7) 0.637(4) 0.0162(12)
H34 H 0.984(7) 0.557(4) 0.0830(14)
O1 O 0.5126(5) 0.1448(4) 0.41660(19)
O2 O 0.4454(5) 0.3274(4) 0.41473(18)
C23 C 0.4804(6) 0.2368(5) 0.3843(3)
C24 C 0.4810(6) 0.2365(5) 0.3039(3)
C25 C 0.5838(6) 0.2054(5) 0.2707(3)
C26 C 0.5847(7) 0.2063(6) 0.1960(3)
C27 C 0.4833(7) 0.2368(6) 0.1559(3)
C28 C 0.3820(6) 0.2697(6) 0.1883(3)
C29 C 0.3826(6) 0.2716(6) 0.2624(3)
H35 H 0.6516 0.1827 0.2987
H36 H 0.6556 0.1864 0.1734
H37 H 0.4824 0.2358 0.1056
H38 H 0.3127 0.2898 0.1603
H39 H 0.3140 0.2955 0.2854
O3 O -0.0132(5) 0.3568(4) 0.08553(19)
O4 O -0.0141(5) 0.1348(4) 0.08378(19)
C30 C -0.0105(6) 0.2472(6) 0.1165(3)
C31 C -0.0067(6) 0.2490(6) 0.1958(3)
C32 C 0.0781(6) 0.3888(6) 0.2367(3)
C33 C 0.0852(7) 0.3907(7) 0.3116(3)
C34 C 0.0007(8) 0.2526(8) 0.3450(3)
C35 C -0.0805(8) 0.1184(7) 0.3057(3)
C36 C -0.0830(7) 0.1156(6) 0.2315(3)
H40 H 0.1306 0.4806 0.2127
H41 H 0.1441 0.4829 0.3393
H42 H 0.0020 0.2535 0.3954
H43 H -0.1370 0.0254 0.3286
H44 H -0.1386 0.0197 0.2052
loop_
_geom_bond_atom_site_label_1
_geom_bond_atom_site_label_2
_geom_bond_site_symmetry_1
_geom_bond_site_symmetry_2
N1 C1 1_555 1_555
N2 C1 1_555 1_555
C1 C2 1_555 1_555
C2 C3 1_555 1_555
C3 C4 1_555 1_555
C4 C5 1_555 1_555
C5 C6 1_555 1_555
C6 C7 1_555 1_555
C7 C2 1_555 1_555
C8 C5 1_555 1_555
C9 C8 1_555 1_555
C10 C8 1_555 1_555
C11 C8 1_555 1_555
H1 C3 1_555 1_555
H2 C4 1_555 1_555
H3 C6 1_555 1_555
H4 C7 1_555 1_555
H5 C9 1_555 1_555
H6 C9 1_555 1_555
H7 C9 1_555 1_555
H8 C10 1_555 1_555
H9 C10 1_555 1_555
H10 C10 1_555 1_555
H11 C11 1_555 1_555
H12 C11 1_555 1_555
H13 C11 1_555 1_555
H14 N1 1_555 1_555
H15 N2 1_555 1_555
H16 N1 1_555 1_555
H17 N2 1_555 1_555
N3 C12 1_555 1_555
N4 C12 1_555 1_555
C12 C13 1_555 1_555
C13 C14 1_555 1_555
C14 C15 1_555 1_555
C15 C16 1_555 1_555
C16 C17 1_555 1_555
C17 C18 1_555 1_555
C18 C13 1_555 1_555
C19 C16 1_555 1_555
C20 C19 1_555 1_555
C21 C19 1_555 1_555
C22 C19 1_555 1_555
H18 C14 1_555 1_555
H19 C15 1_555 1_555
H20 C17 1_555 1_555
H21 C18 1_555 1_555
H22 C20 1_555 1_555
H23 C20 1_555 1_555
H24 C20 1_555 1_555
H25 C21 1_555 1_555
H26 C21 1_555 1_555
H27 C21 1_555 1_555
H28 C22 1_555 1_555
H29 C22 1_555 1_555
H30 C22 1_555 1_555
H31 N3 1_555 1_555
H32 N3 1_555 1_555
H33 N4 1_555 1_555
H34 N4 1_555 1_555
O1 C23 1_555 1_555
O2 C23 1_555 1_555
C23 C24 1_555 1_555
C24 C25 1_555 1_555
C25 C26 1_555 1_555
C26 C27 1_555 1_555
C27 C28 1_555 1_555
C28 C29 1_555 1_555
C29 C24 1_555 1_555
H35 C25 1_555 1_555
H36 C26 1_555 1_555
H37 C27 1_555 1_555
H38 C28 1_555 1_555
H39 C29 1_555 1_555
O3 C30 1_555 1_555
O4 C30 1_555 1_555
C30 C31 1_555 1_555
C31 C32 1_555 1_555
C32 C33 1_555 1_555
C33 C34 1_555 1_555
C34 C35 1_555 1_555
C35 C36 1_555 1_555
C36 C31 1_555 1_555
H40 C32 1_555 1_555
H41 C33 1_555 1_555
H42 C34 1_555 1_555
H43 C35 1_555 1_555
H44 C36 1_555 1_555

#END
