
#######################################################################
#
#                 Cambridge Crystallographic Data Centre
#                                CCDC 
#
#######################################################################
#
# If this CIF has been generated from an entry in the Cambridge 
# Structural Database, then it will include bibliographic, chemical, 
# crystal, experimental, refinement or atomic coordinate data resulting 
# from the CCDC's data processing and validation procedures.
#
#######################################################################

data_ZATBOO
_chemical_formula_moiety         'C29 H32 N8 4+,2(C8 H4 O4 2-),3(H2 O1)'
_chemical_name_systematic        
'(methanetetrayltetra-4,1-phenylene)tetrakis(aminomethaniminium) bis(terephthalate) unknown solvate trihydrate'
_symmetry_cell_setting           orthorhombic
_symmetry_space_group_name_H-M   'F d d d'
_symmetry_Int_Tables_number      70
_space_group_name_Hall           '-F 2uv 2vw'
loop_
_symmetry_equiv_pos_site_id
_symmetry_equiv_pos_as_xyz
1 x,y,z
2 x,1/2+y,1/2+z
3 1/2+x,y,1/2+z
4 1/2+x,1/2+y,z
5 3/4-x,y,3/4-z
6 3/4-x,1/2+y,1/4-z
7 1/4-x,y,1/4-z
8 1/4-x,1/2+y,3/4-z
9 1/4-x,1/4-y,z
10 1/4-x,3/4-y,1/2+z
11 3/4-x,1/4-y,1/2+z
12 3/4-x,3/4-y,z
13 x,1/4-y,1/4-z
14 x,3/4-y,3/4-z
15 1/2+x,1/4-y,3/4-z
16 1/2+x,3/4-y,1/4-z
17 -x,-y,-z
18 -x,1/2-y,1/2-z
19 1/2-x,-y,1/2-z
20 1/2-x,1/2-y,-z
21 1/4+x,-y,1/4+z
22 1/4+x,1/2-y,3/4+z
23 3/4+x,-y,3/4+z
24 3/4+x,1/2-y,1/4+z
25 3/4+x,3/4+y,-z
26 3/4+x,1/4+y,1/2-z
27 1/4+x,3/4+y,1/2-z
28 1/4+x,1/4+y,-z
29 -x,3/4+y,3/4+z
30 -x,1/4+y,1/4+z
31 1/2-x,3/4+y,1/4+z
32 1/2-x,1/4+y,3/4+z
_cell_length_a                   14.7538(4)
_cell_length_b                   19.4911(5)
_cell_length_c                   34.2841(14)
_cell_angle_alpha                90
_cell_angle_beta                 90
_cell_angle_gamma                90
_cell_volume                     9859
_exptl_crystal_colour            colorless
_exptl_crystal_description       plate
_cell_formula_units_Z            8
loop_
_atom_site_label
_atom_site_type_symbol
_atom_site_fract_x
_atom_site_fract_y
_atom_site_fract_z
N1 N 0.15553(18) 0.70452(15) 0.48936(11)
N2 N 0.2180(3) 0.68726(19) 0.43051(16)
C1 C 0.1541(2) 0.71331(16) 0.45261(14)
C2 C 0.0792(2) 0.75294(15) 0.43363(11)
C3 C 0.0475(4) 0.7356(2) 0.39770(11)
C4 C -0.0204(4) 0.77263(18) 0.38048(11)
C5 C -0.0590(2) 0.83000(12) 0.39862(7)
C6 C -0.02612(17) 0.84705(13) 0.43474(8)
C7 C 0.04095(19) 0.80857(14) 0.45309(9)
C8 C -0.1250 0.8750 0.3750
H1 H 0.0701 0.6966 0.3842
H2 H -0.0404 0.7583 0.3555
H3 H -0.0514 0.8865 0.4466
H4 H 0.0615 0.8214 0.4782
H5 H 0.1069 0.7079 0.5035
H6 H 0.2033 0.6859 0.4991
H7 H 0.2253 0.7018 0.4067
H8 H 0.2616 0.6647 0.4410
N1D N -0.40553(18) 0.70452(15) 0.26064(11)
N2D N -0.4680(3) 0.68726(19) 0.31949(16)
C1D C -0.4041(2) 0.71331(16) 0.29739(14)
C2D C -0.3292(2) 0.75294(15) 0.31637(11)
C3D C -0.2975(4) 0.7356(2) 0.35230(11)
C4D C -0.2296(4) 0.77263(18) 0.36952(11)
C5D C -0.1910(2) 0.83000(12) 0.35138(7)
C6D C -0.22388(17) 0.84705(13) 0.31526(8)
C7D C -0.29095(19) 0.80857(14) 0.29691(9)
H1D H -0.3201 0.6966 0.3658
H2D H -0.2096 0.7583 0.3945
H3D H -0.1986 0.8865 0.3034
H4D H -0.3115 0.8214 0.2718
H5D H -0.3569 0.7079 0.2465
H6D H -0.4533 0.6859 0.2509
H7D H -0.4753 0.7018 0.3433
H8D H -0.5116 0.6647 0.3090
N1K N -0.40553(18) 1.04548(15) 0.48936(11)
N2K N -0.4680(3) 1.06274(19) 0.43051(16)
C1K C -0.4041(2) 1.03669(16) 0.45261(14)
C2K C -0.3292(2) 0.99706(15) 0.43363(11)
C3K C -0.2975(4) 1.0144(2) 0.39770(11)
C4K C -0.2296(4) 0.97737(18) 0.38048(11)
C5K C -0.1910(2) 0.92000(12) 0.39862(7)
C6K C -0.22388(17) 0.90295(13) 0.43474(8)
C7K C -0.29095(19) 0.94143(14) 0.45309(9)
H1K H -0.3201 1.0534 0.3842
H2K H -0.2096 0.9917 0.3555
H3K H -0.1986 0.8635 0.4466
H4K H -0.3115 0.9286 0.4782
H5K H -0.3569 1.0421 0.5035
H6K H -0.4533 1.0641 0.4991
H7K H -0.4753 1.0482 0.4067
H8K H -0.5116 1.0853 0.4410
N1M N 0.15553(18) 1.04548(15) 0.26064(11)
N2M N 0.2180(3) 1.06274(19) 0.31949(16)
C1M C 0.1541(2) 1.03669(16) 0.29739(14)
C2M C 0.0792(2) 0.99706(15) 0.31637(11)
C3M C 0.0475(4) 1.0144(2) 0.35230(11)
C4M C -0.0204(4) 0.97737(18) 0.36952(11)
C5M C -0.0590(2) 0.92000(12) 0.35138(7)
C6M C -0.02612(17) 0.90295(13) 0.31526(8)
C7M C 0.04095(19) 0.94143(14) 0.29691(9)
H1M H 0.0701 1.0534 0.3658
H2M H -0.0404 0.9917 0.3945
H3M H -0.0514 0.8635 0.3034
H4M H 0.0615 0.9286 0.2718
H5M H 0.1069 1.0421 0.2465
H6M H 0.2033 1.0641 0.2509
H7M H 0.2253 1.0482 0.3433
H8M H 0.2616 1.0853 0.3090
O1 O 0.3047(4) 0.6150(3) 0.49750(18)
O2 O 0.2660(3) 0.5281(3) 0.53533(13)
C9 C 0.4141(4) 0.5273(4) 0.5063(2)
C10 C 0.4704(5) 0.5568(4) 0.4785(2)
C11 C 0.5566(4) 0.5300(3) 0.47240(16)
C12 C 0.3224(3) 0.5585(3) 0.51337(16)
O1P O 0.6953(4) 0.3850(3) 0.50250(18)
O2P O 0.7340(3) 0.4719(3) 0.46467(13)
C9P C 0.5859(4) 0.4727(4) 0.4937(2)
C10P C 0.5296(5) 0.4432(4) 0.5215(2)
C11P C 0.4434(4) 0.4700(3) 0.52760(16)
C12P C 0.6776(3) 0.4415(3) 0.48663(16)
O3 O 0.4746(5) 0.6915(4) 0.3992(3)
H9 H 0.4386 0.6701 0.4143
H10 H 0.4869 0.7173 0.4185
O4 O 0.2225(10) 0.6016(16) 0.5844(5)
H11 H 0.2399 0.5996 0.5602
H12 H 0.1672 0.6138 0.5844
O4H O 0.0275(10) 0.6484(16) 0.5844(5)
H11H H 0.0101 0.6504 0.5602
H12H H 0.0828 0.6362 0.5844
O5? O 0.3621(4) 0.6240(4) 0.4478(2)
C13? C 0.3531(4) 0.5898(4) 0.4780(2)
C14? C 0.4862(5) 0.4504(4) 0.5290(2)
C15? C 0.4288(5) 0.5432(5) 0.4893(3)
C16? C 0.4145(4) 0.4939(4) 0.5180(3)
O6? O 0.2833(5) 0.5936(4) 0.4993(3)
H13? H 0.4506 0.5945 0.4644
H14? H 0.5944 0.5505 0.4541
H15? H 0.3569 0.4895 0.5301
H16? H 0.4772 0.4169 0.5487
loop_
_geom_bond_atom_site_label_1
_geom_bond_atom_site_label_2
_geom_bond_site_symmetry_1
_geom_bond_site_symmetry_2
N1 C1 1_555 1_555
N2 C1 1_555 1_555
C1 C2 1_555 1_555
C2 C3 1_555 1_555
C3 C4 1_555 1_555
C4 C5 1_555 1_555
C5 C6 1_555 1_555
C6 C7 1_555 1_555
C7 C2 1_555 1_555
C8 C5 1_555 1_555
H1 C3 1_555 1_555
H2 C4 1_555 1_555
H3 C6 1_555 1_555
H4 C7 1_555 1_555
H5 N1 1_555 1_555
H6 N1 1_555 1_555
H7 N2 1_555 1_555
H8 N2 1_555 1_555
O1 C12 1_555 1_555
O2 C12 1_555 1_555
C9 C10 1_555 1_555
C10 C11 1_555 1_555
C11 C9P 1_555 1_555
C12 C9 1_555 1_555
O3 H9 1_555 1_555
H10 O3 1_555 1_555
O4 H11 1_555 1_555
H12 O4 1_555 1_555
N1D C1D 1_555 1_555
N2D C1D 1_555 1_555
C1D C2D 1_555 1_555
C2D C3D 1_555 1_555
C3D C4D 1_555 1_555
C4D C5D 1_555 1_555
C5D C8 1_555 1_555
C6D C5D 1_555 1_555
C7D C2D 1_555 1_555
H1D C3D 1_555 1_555
H2D C4D 1_555 1_555
H3D C6D 1_555 1_555
H4D C7D 1_555 1_555
H5D N1D 1_555 1_555
H6D N1D 1_555 1_555
H7D N2D 1_555 1_555
H8D N2D 1_555 1_555
N1K C1K 1_555 1_555
N2K C1K 1_555 1_555
C1K C2K 1_555 1_555
C2K C3K 1_555 1_555
C3K C4K 1_555 1_555
C4K C5K 1_555 1_555
C5K C8 1_555 1_555
C6K C5K 1_555 1_555
C7K C2K 1_555 1_555
H1K C3K 1_555 1_555
H2K C4K 1_555 1_555
H3K C6K 1_555 1_555
H4K C7K 1_555 1_555
H5K N1K 1_555 1_555
H6K N1K 1_555 1_555
H7K N2K 1_555 1_555
H8K N2K 1_555 1_555
N1M C1M 1_555 1_555
N2M C1M 1_555 1_555
C1M C2M 1_555 1_555
C2M C3M 1_555 1_555
C3M C4M 1_555 1_555
C4M C5M 1_555 1_555
C5M C8 1_555 1_555
C6M C5M 1_555 1_555
C7M C2M 1_555 1_555
H1M C3M 1_555 1_555
H2M C4M 1_555 1_555
H3M C6M 1_555 1_555
H4M C7M 1_555 1_555
H5M N1M 1_555 1_555
H6M N1M 1_555 1_555
H7M N2M 1_555 1_555
H8M N2M 1_555 1_555
O1P C12P 1_555 1_555
O2P C12P 1_555 1_555
C9P C10P 1_555 1_555
C10P C11P 1_555 1_555
C11P C9 1_555 1_555
C12P C9P 1_555 1_555
O4H H11H 1_555 1_555
H12H O4H 1_555 1_555
C6D C7D 1_555 1_555
C6K C7K 1_555 1_555
C6M C7M 1_555 1_555

#END
