
#######################################################################
#
#                 Cambridge Crystallographic Data Centre
#                                CCDC 
#
#######################################################################
#
# If this CIF has been generated from an entry in the Cambridge 
# Structural Database, then it will include bibliographic, chemical, 
# crystal, experimental, refinement or atomic coordinate data resulting 
# from the CCDC's data processing and validation procedures.
#
#######################################################################

data_ZATBEE
_chemical_formula_moiety         'C29 H32 N8 4+,2(C8 H4 O4 2-),18.8(H2 O1)'
_chemical_name_systematic        
'(methanetetrayltetra-4,1-phenylene)tetrakis(aminomethaniminium) bis(terephthalate) hydrate'
_symmetry_cell_setting           tetragonal
_symmetry_space_group_name_H-M   'I 41/a'
_symmetry_Int_Tables_number      88
_space_group_name_Hall           '-I 4ad'
loop_
_symmetry_equiv_pos_site_id
_symmetry_equiv_pos_as_xyz
1 x,y,z
2 1/2+x,1/2+y,1/2+z
3 3/4+y,3/4-x,3/4+z
4 1/4+y,1/4-x,1/4+z
5 1/2-x,-y,1/2+z
6 -x,1/2-y,z
7 3/4-y,1/4+x,1/4+z
8 1/4-y,3/4+x,3/4+z
9 -x,-y,-z
10 1/2-x,1/2-y,1/2-z
11 1/4-y,1/4+x,1/4-z
12 3/4-y,3/4+x,3/4-z
13 1/2+x,y,1/2-z
14 x,1/2+y,-z
15 1/4+y,3/4-x,3/4-z
16 3/4+y,1/4-x,1/4-z
_cell_length_a                   30.0714(3)
_cell_length_b                   30.0714(3)
_cell_length_c                   7.38182(9)
_cell_angle_alpha                90
_cell_angle_beta                 90
_cell_angle_gamma                90
_cell_volume                     6675.3
_exptl_crystal_colour            colorless
_exptl_crystal_description       rod
_cell_formula_units_Z            4
loop_
_atom_site_label
_atom_site_type_symbol
_atom_site_fract_x
_atom_site_fract_y
_atom_site_fract_z
N1 N 0.45682(9) 0.60548(8) 1.2718(3)
N2 N 0.53118(9) 0.59436(8) 1.2294(3)
C1 C 0.49347(9) 0.61265(9) 1.1790(3)
C2 C 0.49279(9) 0.64310(8) 1.0208(3)
C3 C 0.46304(8) 0.67867(9) 1.0225(3)
C4 C 0.46508(9) 0.71092(8) 0.8898(3)
C5 C 0.49688(8) 0.70920(8) 0.7517(3)
C6 C 0.52564(9) 0.67310(8) 0.7472(3)
C7 C 0.52355(9) 0.63998(8) 0.8822(3)
C8 C 0.5000 0.7500 0.6250
H1 H 0.4425 0.6799 1.1163
H2 H 0.4449 0.7351 0.8981
H3 H 0.5449 0.6705 0.6508
H4 H 0.5436 0.6151 0.8789
H5 H 0.4574 0.5953 1.3816
H6 H 0.5324 0.5817 1.3372
H7 H 0.4315 0.6120 1.2289
H8 H 0.5543 0.5980 1.1638
N1J N 0.64452(8) 0.70682(9) -0.0218(3)
N2J N 0.65564(8) 0.78118(9) 0.0206(3)
C1J C 0.63735(9) 0.74347(9) 0.0710(3)
C2J C 0.60690(8) 0.74279(9) 0.2292(3)
C3J C 0.57133(9) 0.71304(8) 0.2275(3)
C4J C 0.53908(8) 0.71508(9) 0.3602(3)
C5J C 0.54080(8) 0.74688(8) 0.4983(3)
C6J C 0.57690(8) 0.77564(9) 0.5028(3)
C7J C 0.61002(8) 0.77355(9) 0.3678(3)
H1J H 0.5701 0.6925 0.1337
H2J H 0.5149 0.6949 0.3519
H3J H 0.5795 0.7949 0.5992
H4J H 0.6349 0.7936 0.3711
H5J H 0.6547 0.7074 -0.1316
H6J H 0.6683 0.7824 -0.0872
H7J H 0.6380 0.6815 0.0211
H8J H 0.6520 0.8043 0.0862
N1E N 0.54318(9) 0.89452(8) 1.2718(3)
N2E N 0.46882(9) 0.90564(8) 1.2294(3)
C1E C 0.50653(9) 0.88735(9) 1.1790(3)
C2E C 0.50721(9) 0.85690(8) 1.0208(3)
C3E C 0.53696(8) 0.82133(9) 1.0225(3)
C4E C 0.53492(9) 0.78908(8) 0.8898(3)
C5E C 0.50312(8) 0.79080(8) 0.7517(3)
C6E C 0.47436(9) 0.82690(8) 0.7472(3)
C7E C 0.47645(9) 0.86002(8) 0.8822(3)
H1E H 0.5575 0.8201 1.1163
H2E H 0.5551 0.7649 0.8981
H3E H 0.4551 0.8295 0.6508
H4E H 0.4564 0.8849 0.8789
H5E H 0.5426 0.9047 1.3816
H6E H 0.4676 0.9183 1.3372
H7E H 0.5685 0.8880 1.2289
H8E H 0.4457 0.9020 1.1638
N1O N 0.35548(8) 0.79318(9) -0.0218(3)
N2O N 0.34436(8) 0.71882(9) 0.0206(3)
C1O C 0.36265(9) 0.75653(9) 0.0710(3)
C2O C 0.39310(8) 0.75721(9) 0.2292(3)
C3O C 0.42867(9) 0.78696(8) 0.2275(3)
C4O C 0.46092(8) 0.78492(9) 0.3602(3)
C5O C 0.45920(8) 0.75312(8) 0.4983(3)
C6O C 0.42310(8) 0.72436(9) 0.5028(3)
C7O C 0.38998(8) 0.72645(9) 0.3678(3)
H1O H 0.4299 0.8075 0.1337
H2O H 0.4851 0.8051 0.3519
H3O H 0.4205 0.7051 0.5992
H4O H 0.3651 0.7064 0.3711
H5O H 0.3453 0.7926 -0.1316
H6O H 0.3317 0.7176 -0.0872
H7O H 0.3620 0.8185 0.0211
H8O H 0.3480 0.6957 0.0862
O1 O 0.52614(8) 0.55031(8) 0.5609(3)
O2 O 0.45304(8) 0.55732(8) 0.6011(3)
C9 C 0.49121(11) 0.54459(10) 0.6522(4)
C10 C 0.49524(11) 0.52120(9) 0.8331(3)
C11 C 0.45999(12) 0.52004(10) 0.9524(4)
C12 C 0.53535(12) 0.50130(10) 0.8813(4)
H9 H 0.4328 0.5334 0.9240
H10 H 0.5591 0.5019 0.8008
O1H O 0.47386(8) 0.44969(8) 1.4391(3)
O2H O 0.54696(8) 0.44268(8) 1.3989(3)
C9H C 0.50879(11) 0.45541(10) 1.3478(4)
C10H C 0.50476(11) 0.47880(9) 1.1669(3)
C11H C 0.54001(12) 0.47996(10) 1.0476(4)
C12H C 0.46465(12) 0.49870(10) 1.1187(4)
H9H H 0.5672 0.4666 1.0760
H10H H 0.4409 0.4981 1.1992
O3 O 0.61410(13) 0.56076(13) 0.6327(5)
H11 H 0.5866 0.5574 0.6105
H12 H 0.6196 0.5368 0.5755
O4 O 0.39303(14) 0.61651(18) 0.7669(5)
H13 H 0.4112 0.5986 0.7168
H14 H 0.3678 0.6225 0.7213
O5 O 0.37173(8) 0.62976(8) 1.1207(3)
H15 H 0.3784 0.6256 1.0101
H16 H 0.3543 0.6143 1.1859
O6 O 0.67051(16) 0.5651(2) 0.9197(7)
H17 H 0.6528 0.5639 0.8301
H18 H 0.6886 0.5804 0.8567
O7 O 0.3683(2) 0.5164(2) 0.5511(9)
H19 H 0.3935 0.5287 0.5660
H20 H 0.3490 0.5103 0.6316
O8 O 0.3045(3) 0.4955(2) 0.8166(13)
H21 H 0.3122 0.4768 0.8971
H22 H 0.2900 0.5123 0.8883
loop_
_geom_bond_atom_site_label_1
_geom_bond_atom_site_label_2
_geom_bond_site_symmetry_1
_geom_bond_site_symmetry_2
N1 C1 1_555 1_555
N2 C1 1_555 1_555
C1 C2 1_555 1_555
C2 C3 1_555 1_555
C3 C4 1_555 1_555
C4 C5 1_555 1_555
C5 C6 1_555 1_555
C6 C7 1_555 1_555
C7 C2 1_555 1_555
C8 C5 1_555 1_555
H1 C3 1_555 1_555
H2 C4 1_555 1_555
H3 C6 1_555 1_555
H4 C7 1_555 1_555
H5 N1 1_555 1_555
H6 N2 1_555 1_555
H7 N1 1_555 1_555
H8 N2 1_555 1_555
O1 C9 1_555 1_555
O2 C9 1_555 1_555
C9 C10 1_555 1_555
C10 C11 1_555 1_555
C11 H9 1_555 1_555
C12 C10 1_555 1_555
H10 C12 1_555 1_555
O3 H11 1_555 1_555
H12 O3 1_555 1_555
O4 H13 1_555 1_555
H14 O4 1_555 1_555
O5 H15 1_555 1_555
H16 O5 1_555 1_555
O6 H17 1_555 1_555
H18 O6 1_555 1_555
O7 H19 1_555 1_555
H20 O7 1_555 1_555
O8 H21 1_555 1_555
H22 O8 1_555 1_555
N1J C1J 1_555 1_555
N2J C1J 1_555 1_555
C1J C2J 1_555 1_555
C2J C3J 1_555 1_555
C3J C4J 1_555 1_555
C4J C5J 1_555 1_555
C5J C8 1_555 1_555
C6J C5J 1_555 1_555
C7J C2J 1_555 1_555
H1J C3J 1_555 1_555
H2J C4J 1_555 1_555
H3J C6J 1_555 1_555
H4J C7J 1_555 1_555
H5J N1J 1_555 1_555
H6J N2J 1_555 1_555
H7J N1J 1_555 1_555
H8J N2J 1_555 1_555
N1E C1E 1_555 1_555
N2E C1E 1_555 1_555
C1E C2E 1_555 1_555
C2E C3E 1_555 1_555
C3E C4E 1_555 1_555
C4E C5E 1_555 1_555
C5E C8 1_555 1_555
C6E C5E 1_555 1_555
C7E C2E 1_555 1_555
H1E C3E 1_555 1_555
H2E C4E 1_555 1_555
H3E C6E 1_555 1_555
H4E C7E 1_555 1_555
H5E N1E 1_555 1_555
H6E N2E 1_555 1_555
H7E N1E 1_555 1_555
H8E N2E 1_555 1_555
N1O C1O 1_555 1_555
N2O C1O 1_555 1_555
C1O C2O 1_555 1_555
C2O C3O 1_555 1_555
C3O C4O 1_555 1_555
C4O C5O 1_555 1_555
C5O C8 1_555 1_555
C6O C5O 1_555 1_555
C7O C2O 1_555 1_555
H1O C3O 1_555 1_555
H2O C4O 1_555 1_555
H3O C6O 1_555 1_555
H4O C7O 1_555 1_555
H5O N1O 1_555 1_555
H6O N2O 1_555 1_555
H7O N1O 1_555 1_555
H8O N2O 1_555 1_555
O1H C9H 1_555 1_555
O2H C9H 1_555 1_555
C9H C10H 1_555 1_555
C10H C11H 1_555 1_555
C11H C12 1_555 1_555
C12H C11 1_555 1_555
H9H C11H 1_555 1_555
H10H C12H 1_555 1_555
C6J C7J 1_555 1_555
C6E C7E 1_555 1_555
C6O C7O 1_555 1_555
C10H C12H 1_555 1_555

#END
