
#######################################################################
#
#                 Cambridge Crystallographic Data Centre
#                                CCDC 
#
#######################################################################
#
# If this CIF has been generated from an entry in the Cambridge 
# Structural Database, then it will include bibliographic, chemical, 
# crystal, experimental, refinement or atomic coordinate data resulting 
# from the CCDC's data processing and validation procedures.
#
#######################################################################

data_ZATBAZ
_chemical_formula_moiety         'C30 H27 N1 O1'
_chemical_name_systematic        
1,3-Diphenyl-3-(2-phenyl-1,2,3,4-tetrahydroisoquinolin-1-yl)propan-1-one
_symmetry_cell_setting           monoclinic
_symmetry_space_group_name_H-M   'P 21/c'
_symmetry_Int_Tables_number      14
_space_group_name_Hall           '-P 2ybc'
loop_
_symmetry_equiv_pos_site_id
_symmetry_equiv_pos_as_xyz
1 x,y,z
2 -x,1/2+y,1/2-z
3 -x,-y,-z
4 x,1/2-y,1/2+z
_cell_length_a                   12.70110(15)
_cell_length_b                   5.87973(7)
_cell_length_c                   29.5998(4)
_cell_angle_alpha                90
_cell_angle_beta                 91.6291(11)
_cell_angle_gamma                90
_cell_volume                     2209.59
_exptl_crystal_colour            colorless
_exptl_crystal_description       rod
_cell_formula_units_Z            4
loop_
_atom_site_label
_atom_site_type_symbol
_atom_site_fract_x
_atom_site_fract_y
_atom_site_fract_z
O1 O 0.35282(8) 0.25393(15) 0.08149(3)
N1 N 0.08569(7) -0.19203(18) 0.13156(3)
C1 C 0.35227(8) 0.0673(2) 0.01122(4)
C2 C 0.32346(10) -0.1192(2) -0.01518(4)
C3 C 0.34296(11) -0.1209(2) -0.06113(4)
C4 C 0.39145(10) 0.0630(2) -0.08090(4)
C5 C 0.42049(10) 0.2498(2) -0.05479(4)
C6 C 0.40081(9) 0.2517(2) -0.00910(4)
C7 C 0.33270(9) 0.0797(2) 0.06077(4)
C8 C 0.28296(9) -0.12216(19) 0.08364(4)
C9 C 0.27833(9) -0.09729(19) 0.13515(4)
C10 C 0.38292(8) -0.15144(19) 0.15872(3)
C11 C 0.43210(9) -0.3616(2) 0.15351(4)
C12 C 0.52831(9) -0.4076(2) 0.17487(4)
C13 C 0.57693(9) -0.2451(2) 0.20237(4)
C14 C 0.52795(9) -0.0375(2) 0.20857(4)
C15 C 0.43201(9) 0.0088(2) 0.18699(4)
C16 C 0.18701(9) -0.2409(2) 0.15508(4)
C17 C 0.17999(9) -0.1978(2) 0.20549(4)
C18 C 0.12953(9) 0.0003(2) 0.21936(4)
C19 C 0.07573(10) 0.1392(2) 0.18303(4)
C20 C 0.01830(9) -0.0147(2) 0.14993(4)
C21 C 0.22342(9) -0.3447(2) 0.23776(4)
C22 C 0.21922(9) -0.2923(2) 0.28354(4)
C23 C 0.17175(10) -0.0922(3) 0.29709(4)
C24 C 0.12607(10) 0.0516(2) 0.26493(4)
C25 C 0.03998(9) -0.3501(2) 0.10180(4)
C26 C -0.06694(10) -0.3333(3) 0.08851(4)
C27 C -0.11202(11) -0.4893(3) 0.05871(5)
C28 C -0.05492(12) -0.6653(3) 0.04113(5)
C29 C 0.05081(12) -0.6812(2) 0.05294(4)
C30 C 0.09834(10) -0.5276(2) 0.08263(4)
H1 H 0.29030 -0.24610 -0.00180
H2 H 0.32290 -0.24880 -0.07900
H3 H 0.40490 0.06140 -0.11230
H4 H 0.45390 0.37630 -0.06830
H5 H 0.42060 0.38020 0.00860
H6 H 0.32360 -0.26070 0.07660
H7 H 0.21050 -0.14290 0.07110
H8 H 0.26250 0.06600 0.14150
H9 H 0.39920 -0.47480 0.13510
H10 H 0.56110 -0.55090 0.17070
H11 H 0.64320 -0.27610 0.21680
H12 H 0.56020 0.07370 0.22770
H13 H 0.39920 0.15180 0.19150
H14 H 0.20360 -0.40550 0.15060
H15 H 0.12860 0.23040 0.16700
H16 H 0.02520 0.24520 0.19670
H17 H -0.04130 -0.08740 0.16520
H18 H -0.01120 0.07810 0.12470
H19 H 0.25610 -0.48170 0.22850
H20 H 0.24880 -0.39340 0.30550
H21 H 0.17050 -0.05380 0.32820
H22 H 0.09200 0.18680 0.27430
H23 H -0.10860 -0.21370 0.10010
H24 H -0.18440 -0.47420 0.05020
H25 H -0.08740 -0.77330 0.02130
H26 H 0.09170 -0.79970 0.04050
H27 H 0.17120 -0.54220 0.09010
loop_
_geom_bond_atom_site_label_1
_geom_bond_atom_site_label_2
_geom_bond_site_symmetry_1
_geom_bond_site_symmetry_2
O1 C7 1_555 1_555
N1 C16 1_555 1_555
C1 C2 1_555 1_555
C2 C3 1_555 1_555
C3 C4 1_555 1_555
C4 C5 1_555 1_555
C5 C6 1_555 1_555
C6 C1 1_555 1_555
C7 C1 1_555 1_555
C8 C7 1_555 1_555
C9 C8 1_555 1_555
C10 C9 1_555 1_555
C11 C10 1_555 1_555
C12 C11 1_555 1_555
C13 C12 1_555 1_555
C14 C13 1_555 1_555
C15 C10 1_555 1_555
C16 C9 1_555 1_555
C17 C16 1_555 1_555
C18 C17 1_555 1_555
C19 C18 1_555 1_555
C20 N1 1_555 1_555
C21 C17 1_555 1_555
C22 C21 1_555 1_555
C23 C22 1_555 1_555
C24 C18 1_555 1_555
C25 N1 1_555 1_555
C26 C25 1_555 1_555
C27 C26 1_555 1_555
C28 C27 1_555 1_555
C29 C28 1_555 1_555
C30 C25 1_555 1_555
H1 C2 1_555 1_555
H2 C3 1_555 1_555
H3 C4 1_555 1_555
H4 C5 1_555 1_555
H5 C6 1_555 1_555
H6 C8 1_555 1_555
H7 C8 1_555 1_555
H8 C9 1_555 1_555
H9 C11 1_555 1_555
H10 C12 1_555 1_555
H11 C13 1_555 1_555
H12 C14 1_555 1_555
H13 C15 1_555 1_555
H14 C16 1_555 1_555
H15 C19 1_555 1_555
H16 C19 1_555 1_555
H17 C20 1_555 1_555
H18 C20 1_555 1_555
H19 C21 1_555 1_555
H20 C22 1_555 1_555
H21 C23 1_555 1_555
H22 C24 1_555 1_555
H23 C26 1_555 1_555
H24 C27 1_555 1_555
H25 C28 1_555 1_555
H26 C29 1_555 1_555
H27 C30 1_555 1_555
C14 C15 1_555 1_555
C19 C20 1_555 1_555
C23 C24 1_555 1_555
C29 C30 1_555 1_555

#END
