
#######################################################################
#
#                 Cambridge Crystallographic Data Centre
#                                CCDC 
#
#######################################################################
#
# If this CIF has been generated from an entry in the Cambridge 
# Structural Database, then it will include bibliographic, chemical, 
# crystal, experimental, refinement or atomic coordinate data resulting 
# from the CCDC's data processing and validation procedures.
#
#######################################################################

data_ZATCII
_chemical_formula_moiety         
'C48 H40 N14 O10,0.5(C4 H10 O1),2(Cl1 1-),2(C16 H36 N1 1+)'
_chemical_name_systematic        
"bis(tetra-n-butylammonium) dichloride 1,1'-(1,2-phenylenebis(carbamoylimino-2,1-phenylenecarbamoylimino-2,1-phenylene))bis(3-(4-nitrophenyl)urea) diethyl ether solvate"
_symmetry_cell_setting           triclinic
_symmetry_space_group_name_H-M   'P -1'
_symmetry_Int_Tables_number      2
_space_group_name_Hall           '-P 1'
loop_
_symmetry_equiv_pos_site_id
_symmetry_equiv_pos_as_xyz
1 x,y,z
2 -x,-y,-z
_cell_length_a                   13.469(2)
_cell_length_b                   13.882(2)
_cell_length_c                   24.624(4)
_cell_angle_alpha                85.928(2)
_cell_angle_beta                 86.382(2)
_cell_angle_gamma                71.005(2)
_cell_volume                     4338.51
_exptl_crystal_colour            yellow
_exptl_crystal_description       block
_cell_formula_units_Z            2
loop_
_atom_site_label
_atom_site_type_symbol
_atom_site_fract_x
_atom_site_fract_y
_atom_site_fract_z
Cl2 Cl 0.37392(7) 0.57573(6) 0.27326(4)
O1 O 0.2595(4) 0.7837(4) -0.10195(18)
O2 O 0.1958(4) 0.9215(3) -0.06327(17)
O3 O 0.6235(3) 0.5308(3) 0.09433(12)
O4 O 0.6216(2) 0.54018(19) 0.37233(10)
O5 O 0.1953(2) 0.9302(2) 0.35160(13)
O6 O 0.1109(2) 0.6991(3) 0.13334(15)
O7 O 0.4904(4) 0.2373(3) 0.18093(19)
O8 O 0.4209(2) 0.3175(2) 0.38392(11)
O9 O 0.0310(5) 0.5734(5) 0.5645(3)
O10 O 0.1022(3) 0.6760(4) 0.59053(17)
N1 N 0.2535(4) 0.8342(4) -0.06398(18)
N2 N 0.4865(3) 0.6690(3) 0.12028(13)
H1 H 0.4643 0.7063 0.1478
N3 N 0.5815(2) 0.5571(2) 0.18391(13)
H2 H 0.5319 0.5919 0.2054
N4 N 0.6335(2) 0.5967(2) 0.28319(12)
H3 H 0.6208 0.6510 0.2621
N5 N 0.5254(2) 0.7017(2) 0.34408(12)
H4 H 0.5079 0.7434 0.3161
N6 N 0.3119(3) 0.7698(2) 0.35559(13)
H5 H 0.3308 0.7118 0.3409
N7 N 0.1870(2) 0.8134(2) 0.29232(14)
H6 H 0.2038 0.7487 0.2890
N8 N 0.2078(3) 0.7567(3) 0.18701(14)
H7 H 0.2692 0.7452 0.1993
N9 N 0.2780(3) 0.6008(3) 0.15132(14)
H8 H 0.3301 0.5953 0.1712
N10 N 0.3885(3) 0.4022(3) 0.18575(13)
H9 H 0.3653 0.4503 0.2081
N11 N 0.5043(2) 0.3246(2) 0.25163(13)
H10 H 0.4756 0.3804 0.2679
N12 N 0.5612(2) 0.3642(2) 0.35265(12)
H11 H 0.5860 0.4142 0.3481
N13 N 0.4436(2) 0.4615(2) 0.41439(12)
H12 H 0.4847 0.4979 0.4111
N14 N 0.1026(4) 0.6086(4) 0.5623(2)
C1 C 0.3171(4) 0.7890(3) -0.01722(17)
C2 C 0.3021(4) 0.8438(3) 0.02847(19)
H13 H 0.2523 0.9085 0.0294
C3 C 0.3608(4) 0.8029(3) 0.07259(18)
H14 H 0.3509 0.8403 0.1035
C4 C 0.4350(3) 0.7066(3) 0.07220(15)
C5 C 0.4506(4) 0.6517(4) 0.02595(18)
H15 H 0.5012 0.5876 0.0248
C6 C 0.3898(4) 0.6934(4) -0.01901(19)
H16 H 0.3986 0.6566 -0.0501
C7 C 0.5684(3) 0.5799(3) 0.12968(16)
C8 C 0.6660(3) 0.4838(3) 0.20901(15)
C9 C 0.6917(3) 0.5037(3) 0.26051(15)
C10 C 0.7746(3) 0.4335(3) 0.28614(18)
H17 H 0.7927 0.4467 0.3200
C11 C 0.8312(3) 0.3441(4) 0.2625(2)
H18 H 0.8867 0.2972 0.2806
C12 C 0.8059(4) 0.3240(3) 0.2121(2)
H19 H 0.8444 0.2637 0.1960
C13 C 0.7236(3) 0.3932(3) 0.18579(18)
H20 H 0.7062 0.3792 0.1519
C14 C 0.5954(3) 0.6080(3) 0.33572(16)
C15 C 0.4790(3) 0.7360(3) 0.39516(15)
C16 C 0.3699(4) 0.7795(3) 0.39951(15)
C17 C 0.3217(4) 0.8268(3) 0.44649(18)
H21 H 0.2495 0.8591 0.4490
C18 C 0.3846(5) 0.8249(4) 0.49018(18)
H22 H 0.3535 0.8564 0.5219
C19 C 0.4911(5) 0.7770(4) 0.48672(19)
H23 H 0.5311 0.7745 0.5165
C20 C 0.5397(4) 0.7324(3) 0.43937(16)
H24 H 0.6121 0.7004 0.4371
C21 C 0.2288(3) 0.8449(3) 0.33470(17)
C22 C 0.1195(3) 0.8772(3) 0.2542(2)
C23 C 0.1289(3) 0.8474(3) 0.2007(2)
C24 C 0.0628(4) 0.9088(4) 0.1620(2)
H25 H 0.0694 0.8891 0.1263
C25 C -0.0124(4) 0.9988(4) 0.1760(3)
H26 H -0.0569 1.0395 0.1500
C26 C -0.0208(4) 1.0271(4) 0.2279(3)
H27 H -0.0712 1.0882 0.2370
C27 C 0.0434(3) 0.9682(3) 0.2681(2)
H28 H 0.0356 0.9891 0.3037
C28 C 0.1932(3) 0.6852(4) 0.15532(17)
C29 C 0.2875(3) 0.5207(4) 0.11684(17)
C30 C 0.3434(3) 0.4203(4) 0.13403(16)
C31 C 0.3526(4) 0.3430(4) 0.0993(2)
H29 H 0.3883 0.2756 0.1100
C32 C 0.3088(5) 0.3665(6) 0.0490(3)
H30 H 0.3158 0.3141 0.0260
C33 C 0.2567(5) 0.4620(7) 0.0324(2)
H31 H 0.2283 0.4758 -0.0018
C34 C 0.2451(4) 0.5402(5) 0.0658(2)
H32 H 0.2085 0.6069 0.0541
C35 C 0.4643(3) 0.3170(3) 0.20373(18)
C36 C 0.5877(3) 0.2506(3) 0.27759(16)
C37 C 0.6161(3) 0.2712(3) 0.32728(16)
C38 C 0.6998(3) 0.2017(3) 0.3531(2)
H33 H 0.7175 0.2160 0.3869
C39 C 0.7578(4) 0.1119(4) 0.3302(2)
H34 H 0.8153 0.0664 0.3475
C40 C 0.7291(4) 0.0918(4) 0.2823(3)
H35 H 0.7660 0.0300 0.2672
C41 C 0.6459(3) 0.1601(3) 0.2542(2)
H36 H 0.6296 0.1453 0.2202
C42 C 0.4714(3) 0.3766(3) 0.38364(14)
C43 C 0.3573(3) 0.4945(3) 0.44988(14)
C44 C 0.3553(3) 0.5705(3) 0.48391(15)
H37 H 0.4109 0.5966 0.4822
C45 C 0.2715(4) 0.6080(3) 0.52039(17)
H38 H 0.2704 0.6595 0.5428
C46 C 0.1905(3) 0.5693(3) 0.52336(18)
C47 C 0.1913(4) 0.4947(4) 0.4908(2)
H39 H 0.1354 0.4689 0.4930
C48 C 0.2741(4) 0.4570(4) 0.4545(2)
H40 H 0.2742 0.4051 0.4326
N15 N 0.8080(3) 0.7669(3) 0.13620(17)
C65 C 0.8186(4) 0.6557(4) 0.1302(2)
H77 H 0.7758 0.6352 0.1589
H78 H 0.7903 0.6503 0.0957
C66 C 0.9293(5) 0.5816(4) 0.1323(3)
H79 H 0.9741 0.6059 0.1063
H80 H 0.9549 0.5807 0.1683
C67 C 0.9384(6) 0.4795(5) 0.1206(4)
H81 H 0.8867 0.4595 0.1438
H82 H 0.9187 0.4808 0.0833
C68 C 1.0362(7) 0.4020(6) 0.1267(4)
H83 H 1.0909 0.4245 0.1088
H84 H 1.0346 0.3415 0.1107
H85 H 1.0497 0.3875 0.1647
C69 C 0.8746(4) 0.8030(4) 0.0916(2)
H86 H 0.8668 0.8737 0.0970
H87 H 0.9478 0.7636 0.0965
C70 C 0.8498(5) 0.7953(6) 0.0332(3)
H88 H 0.7780 0.8371 0.0263
H89 H 0.8576 0.7252 0.0263
C71 C 0.9312(9) 0.8349(11) -0.0063(3)
H90 H 0.9071 0.8458 -0.0432
H91 H 0.9320 0.8999 0.0055
C72 C 1.0271(11) 0.7698(15) -0.0061(6)
H92 H 1.0759 0.8054 -0.0011
H93 H 1.0436 0.7373 -0.0401
H94 H 1.0319 0.7192 0.0232
C73 C 0.6904(4) 0.8280(4) 0.1319(3)
H95 H 0.6695 0.8231 0.0955
H96 H 0.6503 0.7969 0.1573
C74 C 0.6619(5) 0.9412(5) 0.1436(3)
H97 H 0.7097 0.9706 0.1229
H98 H 0.6687 0.9478 0.1820
C75 C 0.5466(6) 0.9992(6) 0.1274(4)
H99 H 0.5010 0.9629 0.1441
H100 H 0.5245 1.0665 0.1418
C76 C 0.5338(6) 1.0100(9) 0.0679(4)
H101 H 0.5962 1.0176 0.0497
H102 H 0.4747 1.0690 0.0593
H103 H 0.5221 0.9503 0.0560
C77 C 0.8473(4) 0.7821(4) 0.1892(2)
H104 H 0.8373 0.8542 0.1912
H105 H 0.9223 0.7464 0.1892
C78 C 0.7975(4) 0.7474(4) 0.2398(2)
H106 H 0.8105 0.6745 0.2399
H107 H 0.7221 0.7813 0.2404
C79 C 0.8432(6) 0.7726(5) 0.2905(3)
H108 H 0.9193 0.7444 0.2878
H109 H 0.8246 0.8461 0.2918
C80 C 0.8033(6) 0.7304(7) 0.3423(3)
H110 H 0.7280 0.7583 0.3452
H111 H 0.8326 0.7487 0.3730
H112 H 0.8238 0.6575 0.3417
N16 N 0.2520(3) 0.1870(3) 0.31125(14)
C49 C 0.2324(4) 0.2995(3) 0.3001(2)
H41 H 0.2702 0.3087 0.2663
H42 H 0.2627 0.3236 0.3289
C50 C 0.1189(4) 0.3671(4) 0.2957(3)
H43 H 0.0812 0.3629 0.3302
H44 H 0.0864 0.3421 0.2681
C51 C 0.1089(9) 0.4806(7) 0.2806(5)
H45 H 0.1599 0.4836 0.2514
H46 H 0.0394 0.5162 0.2674
C52 C 0.1250(8) 0.5288(7) 0.3242(5)
H47 H 0.1013 0.6012 0.3163
H48 H 0.1986 0.5062 0.3312
H49 H 0.0864 0.5127 0.3557
C53 C 0.1946(4) 0.1674(3) 0.36327(18)
H50 H 0.1198 0.2004 0.3591
H51 H 0.2067 0.0946 0.3684
C54 C 0.2250(5) 0.2034(5) 0.4137(2)
H52 H 0.3010 0.1832 0.4142
H53 H 0.1977 0.2773 0.4130
C55 C 0.1845(6) 0.1612(6) 0.4637(3)
H54 H 0.1084 0.1836 0.4633
H55 H 0.2092 0.0874 0.4630
C56 C 0.2138(10) 0.1890(11) 0.5137(4)
H56 H 0.2877 0.1559 0.5181
H57 H 0.1749 0.1683 0.5436
H58 H 0.1986 0.2616 0.5129
C57 C 0.3689(3) 0.1371(3) 0.31426(19)
H59 H 0.3935 0.1680 0.3425
H60 H 0.4019 0.1518 0.2799
C58 C 0.4057(4) 0.0224(4) 0.3260(3)
H61 H 0.3658 0.0060 0.3574
H62 H 0.3919 -0.0102 0.2950
C59 C 0.5213(4) -0.0193(4) 0.3369(3)
H63 H 0.5602 0.0063 0.3081
H64 H 0.5444 -0.0931 0.3359
C60 C 0.5469(6) 0.0096(6) 0.3919(4)
H65 H 0.5320 0.0821 0.3916
H66 H 0.6200 -0.0241 0.3984
H67 H 0.5048 -0.0111 0.4203
C61 C 0.2099(4) 0.1417(4) 0.2666(2)
H68 H 0.2228 0.0698 0.2761
H69 H 0.1344 0.1743 0.2660
C62 C 0.2565(5) 0.1522(6) 0.2102(3)
H70 H 0.2425 0.2239 0.1995
H71 H 0.3321 0.1195 0.2100
C63 C 0.2097(7) 0.1037(9) 0.1705(3)
H72 H 0.2064 0.0397 0.1877
H73 H 0.1377 0.1474 0.1659
C64 C 0.2530(7) 0.0845(9) 0.1220(5)
H74 H 0.2563 0.1466 0.1034
H75 H 0.2119 0.0556 0.1018
H76 H 0.3228 0.0370 0.1250
Cl1 Cl 0.45793(8) 0.81000(6) 0.22229(3)
O11? O 0.9690(10) 0.1096(11) 0.5225(6)
C81? C 0.9564(16) 0.239(2) 0.5874(10)
C82? C 0.9931(17) 0.128(2) 0.5725(12)
C83? C 1.0000 0.0000 0.5000
C84? C 0.9519(17) 0.024(2) 0.4486(11)
loop_
_geom_bond_atom_site_label_1
_geom_bond_atom_site_label_2
_geom_bond_site_symmetry_1
_geom_bond_site_symmetry_2
O1 N1 1_555 1_555
O2 N1 1_555 1_555
O3 C7 1_555 1_555
O4 C14 1_555 1_555
O5 C21 1_555 1_555
O6 C28 1_555 1_555
O7 C35 1_555 1_555
O8 C42 1_555 1_555
O9 N14 1_555 1_555
O10 N14 1_555 1_555
N1 C1 1_555 1_555
N2 H1 1_555 1_555
N3 H2 1_555 1_555
N4 H3 1_555 1_555
N5 H4 1_555 1_555
N6 H5 1_555 1_555
N7 H6 1_555 1_555
N8 H7 1_555 1_555
N9 H8 1_555 1_555
N10 H9 1_555 1_555
N11 H10 1_555 1_555
N12 H11 1_555 1_555
N13 H12 1_555 1_555
N14 C46 1_555 1_555
N15 C65 1_555 1_555
N16 C49 1_555 1_555
C1 C2 1_555 1_555
C2 H13 1_555 1_555
C3 C2 1_555 1_555
H14 C3 1_555 1_555
C4 N2 1_555 1_555
C5 C4 1_555 1_555
H15 C5 1_555 1_555
C6 C1 1_555 1_555
H16 C6 1_555 1_555
C7 N2 1_555 1_555
C8 N3 1_555 1_555
C9 N4 1_555 1_555
C10 C9 1_555 1_555
H17 C10 1_555 1_555
C11 C10 1_555 1_555
H18 C11 1_555 1_555
C12 C11 1_555 1_555
H19 C12 1_555 1_555
C13 C8 1_555 1_555
H20 C13 1_555 1_555
C14 N4 1_555 1_555
C15 N5 1_555 1_555
C16 N6 1_555 1_555
C17 C16 1_555 1_555
H21 C17 1_555 1_555
C18 C17 1_555 1_555
H22 C18 1_555 1_555
C19 C18 1_555 1_555
H23 C19 1_555 1_555
C20 C15 1_555 1_555
H24 C20 1_555 1_555
C21 N6 1_555 1_555
C22 N7 1_555 1_555
C23 N8 1_555 1_555
C24 C23 1_555 1_555
H25 C24 1_555 1_555
C25 C24 1_555 1_555
H26 C25 1_555 1_555
C26 C25 1_555 1_555
H27 C26 1_555 1_555
C27 C22 1_555 1_555
H28 C27 1_555 1_555
C28 N8 1_555 1_555
C29 N9 1_555 1_555
C30 N10 1_555 1_555
C31 C30 1_555 1_555
H29 C31 1_555 1_555
C32 C31 1_555 1_555
H30 C32 1_555 1_555
C33 C32 1_555 1_555
H31 C33 1_555 1_555
C34 C29 1_555 1_555
H32 C34 1_555 1_555
C35 N10 1_555 1_555
C36 N11 1_555 1_555
C37 N12 1_555 1_555
C38 C37 1_555 1_555
H33 C38 1_555 1_555
C39 C38 1_555 1_555
H34 C39 1_555 1_555
C40 C39 1_555 1_555
H35 C40 1_555 1_555
C41 C36 1_555 1_555
H36 C41 1_555 1_555
C42 N12 1_555 1_555
C43 N13 1_555 1_555
C44 C43 1_555 1_555
H37 C44 1_555 1_555
C45 C44 1_555 1_555
H38 C45 1_555 1_555
C46 C45 1_555 1_555
C47 C46 1_555 1_555
H39 C47 1_555 1_555
C48 C43 1_555 1_555
H40 C48 1_555 1_555
C49 H41 1_555 1_555
H42 C49 1_555 1_555
C50 C49 1_555 1_555
H43 C50 1_555 1_555
H44 C50 1_555 1_555
C51 C50 1_555 1_555
H45 C51 1_555 1_555
H46 C51 1_555 1_555
C52 C51 1_555 1_555
H47 C52 1_555 1_555
H48 C52 1_555 1_555
H49 C52 1_555 1_555
C53 N16 1_555 1_555
H50 C53 1_555 1_555
H51 C53 1_555 1_555
C54 C53 1_555 1_555
H52 C54 1_555 1_555
H53 C54 1_555 1_555
C55 C54 1_555 1_555
H54 C55 1_555 1_555
H55 C55 1_555 1_555
C56 C55 1_555 1_555
H56 C56 1_555 1_555
H57 C56 1_555 1_555
H58 C56 1_555 1_555
C57 N16 1_555 1_555
H59 C57 1_555 1_555
H60 C57 1_555 1_555
C58 C57 1_555 1_555
H61 C58 1_555 1_555
H62 C58 1_555 1_555
C59 C58 1_555 1_555
H63 C59 1_555 1_555
H64 C59 1_555 1_555
C60 C59 1_555 1_555
H65 C60 1_555 1_555
H66 C60 1_555 1_555
H67 C60 1_555 1_555
C61 N16 1_555 1_555
H68 C61 1_555 1_555
H69 C61 1_555 1_555
C62 C61 1_555 1_555
H70 C62 1_555 1_555
H71 C62 1_555 1_555
C63 C62 1_555 1_555
H72 C63 1_555 1_555
H73 C63 1_555 1_555
C64 C63 1_555 1_555
H74 C64 1_555 1_555
H75 C64 1_555 1_555
H76 C64 1_555 1_555
C65 H77 1_555 1_555
H78 C65 1_555 1_555
C66 C65 1_555 1_555
H79 C66 1_555 1_555
H80 C66 1_555 1_555
C67 C66 1_555 1_555
H81 C67 1_555 1_555
H82 C67 1_555 1_555
C68 C67 1_555 1_555
H83 C68 1_555 1_555
H84 C68 1_555 1_555
H85 C68 1_555 1_555
C69 N15 1_555 1_555
H86 C69 1_555 1_555
H87 C69 1_555 1_555
C70 C69 1_555 1_555
H88 C70 1_555 1_555
H89 C70 1_555 1_555
C71 C70 1_555 1_555
H90 C71 1_555 1_555
H91 C71 1_555 1_555
C72 C71 1_555 1_555
H92 C72 1_555 1_555
H93 C72 1_555 1_555
H94 C72 1_555 1_555
C73 N15 1_555 1_555
H95 C73 1_555 1_555
H96 C73 1_555 1_555
C74 C73 1_555 1_555
H97 C74 1_555 1_555
H98 C74 1_555 1_555
C75 C74 1_555 1_555
H99 C75 1_555 1_555
H100 C75 1_555 1_555
C76 C75 1_555 1_555
H101 C76 1_555 1_555
H102 C76 1_555 1_555
H103 C76 1_555 1_555
C77 N15 1_555 1_555
H104 C77 1_555 1_555
H105 C77 1_555 1_555
C78 C77 1_555 1_555
H106 C78 1_555 1_555
H107 C78 1_555 1_555
C79 C78 1_555 1_555
H108 C79 1_555 1_555
H109 C79 1_555 1_555
C80 C79 1_555 1_555
H110 C80 1_555 1_555
H111 C80 1_555 1_555
H112 C80 1_555 1_555
N3 C7 1_555 1_555
N5 C14 1_555 1_555
N7 C21 1_555 1_555
N9 C28 1_555 1_555
N11 C35 1_555 1_555
N13 C42 1_555 1_555
C3 C4 1_555 1_555
C5 C6 1_555 1_555
C8 C9 1_555 1_555
C12 C13 1_555 1_555
C15 C16 1_555 1_555
C19 C20 1_555 1_555
C22 C23 1_555 1_555
C26 C27 1_555 1_555
C29 C30 1_555 1_555
C33 C34 1_555 1_555
C36 C37 1_555 1_555
C40 C41 1_555 1_555
C47 C48 1_555 1_555

#END
