
#######################################################################
#
#                 Cambridge Crystallographic Data Centre
#                                CCDC 
#
#######################################################################
#
# If this CIF has been generated from an entry in the Cambridge 
# Structural Database, then it will include bibliographic, chemical, 
# crystal, experimental, refinement or atomic coordinate data resulting 
# from the CCDC's data processing and validation procedures.
#
#######################################################################

data_ZATDAB
_chemical_formula_moiety         'C20 H20 F1 N1 O3'
_chemical_name_systematic        
3-Ethyl-5-(4-fluorophenyl)-9,9-dimethyl-9,9a-dihydro[1,4]oxazino[2,3,4-hi]indole-2,7(3H,8H)-dione
_symmetry_cell_setting           triclinic
_symmetry_space_group_name_H-M   'P -1'
_symmetry_Int_Tables_number      2
_space_group_name_Hall           '-P 1'
loop_
_symmetry_equiv_pos_site_id
_symmetry_equiv_pos_as_xyz
1 x,y,z
2 -x,-y,-z
_cell_length_a                   8.3574(8)
_cell_length_b                   9.8705(9)
_cell_length_c                   11.1365(12)
_cell_angle_alpha                82.1810(10)
_cell_angle_beta                 81.7400(10)
_cell_angle_gamma                85.669(2)
_cell_volume                     899.218
_exptl_crystal_colour            white
_exptl_crystal_description       block
_cell_formula_units_Z            2
loop_
_atom_site_label
_atom_site_type_symbol
_atom_site_fract_x
_atom_site_fract_y
_atom_site_fract_z
F1 F 0.8724(4) -0.2108(3) 0.5862(3)
N1 N 0.5784(5) 0.3762(3) 0.7367(4)
O1 O 0.5268(4) 0.6525(3) 0.6442(3)
O2 O 0.6570(4) 0.6069(3) 0.4666(3)
O3 O 0.1617(5) 0.3949(4) 1.0541(4)
C1 C 0.6233(6) 0.5689(5) 0.5745(5)
C2 C 0.6958(6) 0.4340(4) 0.6345(4)
H1 H 0.7135 0.3697 0.5735
C3 C 0.8587(6) 0.4541(5) 0.6728(5)
H2 H 0.8417 0.5106 0.7388
H3 H 0.9248 0.5033 0.6043
C4 C 0.9514(6) 0.3209(5) 0.7148(5)
H4 H 0.8904 0.2744 0.7862
H5 H 1.0546 0.3412 0.7341
H6 H 0.9673 0.2635 0.6507
C5 C 0.5394(6) 0.2410(4) 0.7795(5)
C6 C 0.4185(6) 0.2456(5) 0.8766(5)
H7 H 0.3718 0.1704 0.9245
C7 C 0.3770(6) 0.3853(5) 0.8913(5)
C8 C 0.4783(6) 0.4619(4) 0.8028(4)
C9 C 0.4820(5) 0.6117(4) 0.7756(4)
H8 H 0.5609 0.6442 0.8207
C10 C 0.2547(7) 0.4556(5) 0.9710(5)
C11 C 0.2559(6) 0.6101(5) 0.9506(4)
H9 H 0.3270 0.6380 1.0033
H10 H 0.1476 0.6471 0.9767
C12 C 0.3108(6) 0.6774(4) 0.8162(5)
C13 C 0.3229(7) 0.8309(5) 0.8172(6)
H11 H 0.3586 0.8730 0.7359
H12 H 0.3991 0.8450 0.8705
H13 H 0.2185 0.8710 0.8459
C14 C 0.1895(6) 0.6515(5) 0.7310(5)
H14 H 0.0814 0.6746 0.7675
H15 H 0.1989 0.5566 0.7189
H16 H 0.2128 0.7071 0.6536
C15 C 0.6252(6) 0.1216(5) 0.7262(6)
C16 C 0.6328(7) 0.1077(5) 0.6037(6)
H17 H 0.5824 0.1747 0.5525
C17 C 0.7150(7) -0.0054(5) 0.5555(6)
H18 H 0.7189 -0.0158 0.4734
C18 C 0.7906(7) -0.1014(5) 0.6343(7)
C19 C 0.7839(7) -0.0935(5) 0.7562(7)
H19 H 0.8323 -0.1622 0.8071
C20 C 0.7028(7) 0.0203(5) 0.8018(6)
H20 H 0.6998 0.0295 0.8841
loop_
_geom_bond_atom_site_label_1
_geom_bond_atom_site_label_2
_geom_bond_site_symmetry_1
_geom_bond_site_symmetry_2
F1 C18 1_555 1_555
N1 C2 1_555 1_555
O1 C1 1_555 1_555
O2 C1 1_555 1_555
O3 C10 1_555 1_555
C1 C2 1_555 1_555
C2 H1 1_555 1_555
C3 C2 1_555 1_555
H2 C3 1_555 1_555
H3 C3 1_555 1_555
C4 C3 1_555 1_555
H4 C4 1_555 1_555
H5 C4 1_555 1_555
H6 C4 1_555 1_555
C5 N1 1_555 1_555
C6 C5 1_555 1_555
H7 C6 1_555 1_555
C7 C6 1_555 1_555
C8 N1 1_555 1_555
C9 O1 1_555 1_555
H8 C9 1_555 1_555
C10 C7 1_555 1_555
C11 C10 1_555 1_555
H9 C11 1_555 1_555
H10 C11 1_555 1_555
C12 C9 1_555 1_555
C13 C12 1_555 1_555
H11 C13 1_555 1_555
H12 C13 1_555 1_555
H13 C13 1_555 1_555
C14 C12 1_555 1_555
H14 C14 1_555 1_555
H15 C14 1_555 1_555
H16 C14 1_555 1_555
C15 C5 1_555 1_555
C16 C15 1_555 1_555
H17 C16 1_555 1_555
C17 C16 1_555 1_555
H18 C17 1_555 1_555
C18 C17 1_555 1_555
C19 C18 1_555 1_555
H19 C19 1_555 1_555
C20 C15 1_555 1_555
H20 C20 1_555 1_555
C7 C8 1_555 1_555
C8 C9 1_555 1_555
C11 C12 1_555 1_555
C19 C20 1_555 1_555

#END
