
#######################################################################
#
#                 Cambridge Crystallographic Data Centre
#                                CCDC 
#
#######################################################################
#
# If this CIF has been generated from an entry in the Cambridge 
# Structural Database, then it will include bibliographic, chemical, 
# crystal, experimental, refinement or atomic coordinate data resulting 
# from the CCDC's data processing and validation procedures.
#
#######################################################################

data_ZATFIL
_chemical_formula_moiety         'C28 H28 N2 O4 S1'
_chemical_name_systematic        
'Butyl (5-((4-methylphenyl)sulfonyl)-5,6-dihydroindolo[1,2-a]quinoxalin-6-yl)acetate'
_symmetry_cell_setting           orthorhombic
_symmetry_space_group_name_H-M   'P b c a'
_symmetry_Int_Tables_number      61
_space_group_name_Hall           '-P 2ac 2ab'
loop_
_symmetry_equiv_pos_site_id
_symmetry_equiv_pos_as_xyz
1 x,y,z
2 1/2-x,-y,1/2+z
3 -x,1/2+y,1/2-z
4 1/2+x,1/2-y,-z
5 -x,-y,-z
6 1/2+x,y,1/2-z
7 x,1/2-y,1/2+z
8 1/2-x,1/2+y,z
_cell_length_a                   19.5308(11)
_cell_length_b                   10.1952(6)
_cell_length_c                   24.8108(14)
_cell_angle_alpha                90
_cell_angle_beta                 90
_cell_angle_gamma                90
_cell_volume                     4940.34
_exptl_crystal_colour            colorless
_exptl_crystal_description       block
_cell_formula_units_Z            8
loop_
_atom_site_label
_atom_site_type_symbol
_atom_site_fract_x
_atom_site_fract_y
_atom_site_fract_z
C1 C 0.1293(2) -0.1847(4) 0.26406(16)
H1 H 0.0977 -0.2408 0.2842
H2 H 0.1763 -0.2155 0.2695
H3 H 0.1181 -0.1884 0.2256
C2 C 0.12298(17) -0.0448(3) 0.28383(12)
C3 C 0.17779(16) 0.0169(3) 0.30866(11)
H4 H 0.2198 -0.0292 0.3127
C4 C 0.17269(14) 0.1441(3) 0.32762(11)
H5 H 0.2107 0.1855 0.3444
C5 C 0.11126(13) 0.2099(3) 0.32170(10)
C6 C 0.05557(14) 0.1501(3) 0.29702(11)
H6 H 0.0134 0.1957 0.2932
C7 C 0.06238(16) 0.0239(3) 0.27816(12)
H7 H 0.0246 -0.0169 0.2609
C8 C 0.00190(12) 0.2899(2) 0.41234(10)
C9 C -0.05672(13) 0.3612(3) 0.40145(11)
H8 H -0.0534 0.4501 0.3903
C10 C -0.12023(14) 0.3028(3) 0.40682(12)
H9 H -0.1606 0.3510 0.3988
C11 C -0.12492(13) 0.1740(3) 0.42393(11)
H10 H -0.1687 0.1349 0.4283
C12 C -0.06673(12) 0.1015(3) 0.43473(10)
H11 H -0.0705 0.0134 0.4469
C13 C -0.00287(12) 0.1583(2) 0.42769(10)
C14 C 0.11487(12) 0.3053(2) 0.45367(10)
H12 H 0.1616 0.3409 0.4463
C15 C 0.11872(11) 0.1585(2) 0.45300(9)
C16 C 0.17044(12) 0.0716(2) 0.45932(10)
H13 H 0.2157 0.0915 0.4708
C17 C 0.14486(12) -0.0558(3) 0.44559(10)
C18 C 0.07531(12) -0.0411(2) 0.43175(10)
C19 C 0.03638(14) -0.1454(3) 0.41284(11)
H14 H -0.0103 -0.1344 0.4032
C20 C 0.06822(15) -0.2657(3) 0.40866(13)
H15 H 0.0430 -0.3386 0.3955
C21 C 0.13677(16) -0.2831(3) 0.42334(14)
H16 H 0.1571 -0.3676 0.4208
C22 C 0.17479(14) -0.1793(3) 0.44138(12)
H17 H 0.2214 -0.1915 0.4510
C23 C 0.08962(12) 0.3621(3) 0.50721(10)
H18 H 0.0767 0.4551 0.5021
H19 H 0.0484 0.3136 0.5192
C24 C 0.14406(14) 0.3527(3) 0.54979(11)
C25 C 0.1646(12) 0.3480(13) 0.6441(7)
H20 H 0.1577 0.4327 0.6629
H21 H 0.2125 0.3442 0.6311
C26 C 0.1509(5) 0.2362(8) 0.6820(3)
H22 H 0.1009 0.2285 0.6878
H23 H 0.1723 0.2556 0.7173
C27 C 0.1784(5) 0.1053(8) 0.6610(3)
H24 H 0.1554 0.0836 0.6266
H25 H 0.2281 0.1139 0.6537
C28 C 0.167(2) -0.005(2) 0.7007(18)
H26 H 0.1957 0.0092 0.7326
H27 H 0.1796 -0.0887 0.6838
H28 H 0.1188 -0.0073 0.7113
N1 N 0.06831(10) 0.3505(2) 0.41025(8)
N2 N 0.05909(10) 0.0917(2) 0.43808(8)
O1 O 0.16829(10) 0.4240(2) 0.35693(8)
O2 O 0.05142(11) 0.4365(2) 0.31819(8)
O3 O 0.20356(11) 0.3631(3) 0.54142(9)
O4 O 0.11705(10) 0.33648(19) 0.59860(8)
S1 S 0.10198(3) 0.36827(7) 0.34877(3)
C29? C 0.1612(17) 0.3445(18) 0.6458(10)
C30? C 0.162(4) 0.302(3) 0.643(3)
C31? C 0.1871(6) 0.2114(13) 0.6630(5)
C32? C 0.1500(16) 0.160(3) 0.6579(12)
C33? C 0.1320(5) 0.1210(10) 0.6826(4)
C34? C 0.1990(10) 0.1129(18) 0.7008(8)
C35? C 0.155(2) -0.009(3) 0.703(2)
C36? C 0.189(3) -0.026(3) 0.718(2)
H29? H 0.1354 0.3846 0.6759
H30? H 0.2007 0.4019 0.6375
H31? H 0.1533 0.3596 0.6742
H32? H 0.2107 0.3147 0.6317
H33? H 0.2107 0.1698 0.6321
H34? H 0.2212 0.2233 0.6921
H35? H 0.1025 0.1496 0.6711
H36? H 0.1553 0.1042 0.6254
H37? H 0.1064 0.1660 0.7116
H38? H 0.0997 0.1053 0.6525
H39? H 0.2464 0.1237 0.6873
H40? H 0.1939 0.1698 0.7329
H41? H 0.1883 -0.0473 0.6781
H42? H 0.1160 -0.0675 0.7072
H43? H 0.1774 0.0030 0.7386
H44? H 0.1487 -0.0332 0.7407
H45? H 0.2296 -0.0562 0.7376
H46? H 0.1830 -0.0815 0.6856
loop_
_geom_bond_atom_site_label_1
_geom_bond_atom_site_label_2
_geom_bond_site_symmetry_1
_geom_bond_site_symmetry_2
C1 H1 1_555 1_555
H2 C1 1_555 1_555
H3 C1 1_555 1_555
C2 C1 1_555 1_555
C3 C2 1_555 1_555
H4 C3 1_555 1_555
C4 C3 1_555 1_555
H5 C4 1_555 1_555
C5 C4 1_555 1_555
C6 C5 1_555 1_555
H6 C6 1_555 1_555
C7 C2 1_555 1_555
H7 C7 1_555 1_555
C8 C9 1_555 1_555
C9 H8 1_555 1_555
C10 C9 1_555 1_555
H9 C10 1_555 1_555
C11 C10 1_555 1_555
H10 C11 1_555 1_555
C12 C11 1_555 1_555
H11 C12 1_555 1_555
C13 C8 1_555 1_555
C14 H12 1_555 1_555
C15 C14 1_555 1_555
C16 C15 1_555 1_555
H13 C16 1_555 1_555
C17 C16 1_555 1_555
C18 C17 1_555 1_555
C19 C18 1_555 1_555
H14 C19 1_555 1_555
C20 C19 1_555 1_555
H15 C20 1_555 1_555
C21 C20 1_555 1_555
H16 C21 1_555 1_555
C22 C17 1_555 1_555
H17 C22 1_555 1_555
C23 C14 1_555 1_555
H18 C23 1_555 1_555
H19 C23 1_555 1_555
C24 C23 1_555 1_555
C25 H20 1_555 1_555
H21 C25 1_555 1_555
C26 C25 1_555 1_555
H22 C26 1_555 1_555
H23 C26 1_555 1_555
C27 C26 1_555 1_555
H24 C27 1_555 1_555
H25 C27 1_555 1_555
C28 C27 1_555 1_555
H26 C28 1_555 1_555
H27 C28 1_555 1_555
H28 C28 1_555 1_555
N1 C8 1_555 1_555
N2 C13 1_555 1_555
O1 S1 1_555 1_555
O2 S1 1_555 1_555
O3 C24 1_555 1_555
O4 C24 1_555 1_555
S1 C5 1_555 1_555
C6 C7 1_555 1_555
C12 C13 1_555 1_555
C14 N1 1_555 1_555
C15 N2 1_555 1_555
C18 N2 1_555 1_555
C21 C22 1_555 1_555
C25 O4 1_555 1_555
N1 S1 1_555 1_555

#END
