
#######################################################################
#
#                 Cambridge Crystallographic Data Centre
#                                CCDC 
#
#######################################################################
#
# If this CIF has been generated from an entry in the Cambridge 
# Structural Database, then it will include bibliographic, chemical, 
# crystal, experimental, refinement or atomic coordinate data resulting 
# from the CCDC's data processing and validation procedures.
#
#######################################################################

data_ZATFAD
_chemical_formula_moiety         'C15 H12 Br1 N1 O1'
_chemical_name_systematic        
3-(4-Bromophenyl)-3,4-dihydroisoquinolin-1(2H)-one
_symmetry_cell_setting           monoclinic
_symmetry_space_group_name_H-M   'P 21/c'
_symmetry_Int_Tables_number      14
_space_group_name_Hall           '-P 2ybc'
loop_
_symmetry_equiv_pos_site_id
_symmetry_equiv_pos_as_xyz
1 x,y,z
2 -x,1/2+y,1/2-z
3 -x,-y,-z
4 x,1/2-y,1/2+z
_cell_length_a                   10.852(3)
_cell_length_b                   13.438(4)
_cell_length_c                   18.449(4)
_cell_angle_alpha                90
_cell_angle_beta                 104.594(9)
_cell_angle_gamma                90
_cell_volume                     2603.6
_exptl_crystal_colour            colorless
_exptl_crystal_description       prism
_cell_formula_units_Z            8
loop_
_atom_site_label
_atom_site_type_symbol
_atom_site_fract_x
_atom_site_fract_y
_atom_site_fract_z
Br1 Br 0.22678(4) 1.07038(3) 0.11629(3)
O1 O 0.1975(2) 0.40252(17) 0.03913(13)
N1 N 0.1514(3) 0.5591(2) 0.07057(15)
C1 C 0.1432(3) 0.4595(2) 0.07455(17)
C2 C 0.0625(3) 0.4194(3) 0.12301(17)
C3 C 0.0299(3) 0.3198(3) 0.11883(18)
H1 H 0.0588 0.2771 0.0855
C4 C -0.0455(3) 0.2817(3) 0.16360(19)
H2 H -0.0689 0.2134 0.1602
C5 C -0.0857(3) 0.3435(3) 0.2125(2)
H3 H -0.1360 0.3173 0.2434
C6 C -0.0537(3) 0.4436(3) 0.21729(19)
H4 H -0.0824 0.4855 0.2512
C7 C 0.0208(3) 0.4833(3) 0.17228(18)
C8 C 0.0608(3) 0.5915(3) 0.17567(18)
H5 H -0.0015 0.6324 0.1936
H6 H 0.1449 0.5992 0.2117
C9 C 0.0685(3) 0.6280(3) 0.09936(19)
H7 H -0.0189 0.6236 0.0651
C10 C 0.1115(3) 0.7350(3) 0.10013(18)
C11 C 0.2392(4) 0.7625(3) 0.1249(2)
H8 H 0.3026 0.7124 0.1389
C12 C 0.2746(4) 0.8608(3) 0.1292(2)
H9 H 0.3617 0.8789 0.1462
C13 C 0.1810(4) 0.9335(3) 0.1081(2)
C14 C 0.0544(3) 0.9080(3) 0.08181(19)
H10 H -0.0089 0.9578 0.0667
C15 C 0.0219(3) 0.8083(3) 0.07786(18)
H11 H -0.0649 0.7900 0.0592
H23 H 0.198(3) 0.585(2) 0.0410(15)
Br2 Br 0.28430(4) 0.53676(3) 0.41295(3)
O2 O 0.3090(2) -0.12581(17) 0.47907(12)
N2 N 0.3233(3) 0.0267(2) 0.42858(15)
C16 C 0.3418(3) -0.0724(2) 0.43223(17)
C17 C 0.4116(3) -0.1151(3) 0.37885(17)
C18 C 0.4139(3) -0.2183(3) 0.37134(18)
H12 H 0.3681 -0.2591 0.3975
C19 C 0.4831(4) -0.2614(3) 0.3257(2)
H13 H 0.4846 -0.3316 0.3200
C20 C 0.5497(4) -0.2004(3) 0.2885(2)
H14 H 0.5982 -0.2292 0.2577
C21 C 0.5466(4) -0.0985(3) 0.2956(2)
H15 H 0.5938 -0.0583 0.2699
C22 C 0.4757(3) -0.0531(3) 0.33975(18)
C23 C 0.4687(3) 0.0577(3) 0.3498(2)
H16 H 0.4778 0.0920 0.3039
H17 H 0.5394 0.0794 0.3921
C24 C 0.3426(4) 0.0856(3) 0.36528(19)
H18 H 0.2740 0.0666 0.3202
C25 C 0.3278(4) 0.1957(3) 0.37903(19)
C26 C 0.2449(3) 0.2520(3) 0.3272(2)
H19 H 0.1945 0.2210 0.2834
C27 C 0.2329(3) 0.3527(3) 0.3370(2)
H20 H 0.1744 0.3907 0.3005
C28 C 0.3059(3) 0.3977(3) 0.4000(2)
C29 C 0.3881(4) 0.3436(3) 0.4537(2)
H21 H 0.4366 0.3745 0.4980
C30 C 0.3994(4) 0.2418(3) 0.4420(2)
H22 H 0.4579 0.2036 0.4784
H24 H 0.284(3) 0.052(2) 0.4620(15)
loop_
_geom_bond_atom_site_label_1
_geom_bond_atom_site_label_2
_geom_bond_site_symmetry_1
_geom_bond_site_symmetry_2
Br1 C13 1_555 1_555
Br2 C28 1_555 1_555
O1 C1 1_555 1_555
O2 C16 1_555 1_555
N1 C1 1_555 1_555
N2 C16 1_555 1_555
C1 C2 1_555 1_555
C2 C3 1_555 1_555
C3 H1 1_555 1_555
C4 C3 1_555 1_555
H2 C4 1_555 1_555
C5 C4 1_555 1_555
H3 C5 1_555 1_555
C6 C5 1_555 1_555
H4 C6 1_555 1_555
C7 C2 1_555 1_555
C8 C7 1_555 1_555
H5 C8 1_555 1_555
H6 C8 1_555 1_555
C9 N1 1_555 1_555
H7 C9 1_555 1_555
C10 C9 1_555 1_555
C11 C10 1_555 1_555
H8 C11 1_555 1_555
C12 C11 1_555 1_555
H9 C12 1_555 1_555
C13 C12 1_555 1_555
C14 C13 1_555 1_555
H10 C14 1_555 1_555
C15 C10 1_555 1_555
H11 C15 1_555 1_555
C16 C17 1_555 1_555
C17 C18 1_555 1_555
C18 H12 1_555 1_555
C19 C18 1_555 1_555
H13 C19 1_555 1_555
C20 C19 1_555 1_555
H14 C20 1_555 1_555
C21 C20 1_555 1_555
H15 C21 1_555 1_555
C22 C17 1_555 1_555
C23 C22 1_555 1_555
H16 C23 1_555 1_555
H17 C23 1_555 1_555
C24 N2 1_555 1_555
H18 C24 1_555 1_555
C25 C24 1_555 1_555
C26 C25 1_555 1_555
H19 C26 1_555 1_555
C27 C26 1_555 1_555
H20 C27 1_555 1_555
C28 C27 1_555 1_555
C29 C28 1_555 1_555
H21 C29 1_555 1_555
C30 C25 1_555 1_555
H22 C30 1_555 1_555
H23 N1 1_555 1_555
H24 N2 1_555 1_555
C6 C7 1_555 1_555
C8 C9 1_555 1_555
C14 C15 1_555 1_555
C21 C22 1_555 1_555
C23 C24 1_555 1_555
C29 C30 1_555 1_555

#END
