
#######################################################################
#
#                 Cambridge Crystallographic Data Centre
#                                CCDC 
#
#######################################################################
#
# If this CIF has been generated from an entry in the Cambridge 
# Structural Database, then it will include bibliographic, chemical, 
# crystal, experimental, refinement or atomic coordinate data resulting 
# from the CCDC's data processing and validation procedures.
#
#######################################################################

data_ZATKIO
_chemical_formula_moiety         'C22 H36 N2 S2 Si2'
_chemical_name_systematic        
bis(6-t-Butyldimethylsilyl)-2-pyridyl-disulfide
_symmetry_cell_setting           monoclinic
_symmetry_space_group_name_H-M   'P 21/c'
_symmetry_Int_Tables_number      14
_space_group_name_Hall           '-P 2ybc'
loop_
_symmetry_equiv_pos_site_id
_symmetry_equiv_pos_as_xyz
1 x,y,z
2 -x,1/2+y,1/2-z
3 -x,-y,-z
4 x,1/2-y,1/2+z
_cell_length_a                   7.775(2)
_cell_length_b                   19.661(4)
_cell_length_c                   17.392(3)
_cell_angle_alpha                90
_cell_angle_beta                 97.18(3)
_cell_angle_gamma                90
_cell_volume                     2637.77
_exptl_crystal_colour            colorless
_cell_formula_units_Z            4
loop_
_atom_site_label
_atom_site_type_symbol
_atom_site_fract_x
_atom_site_fract_y
_atom_site_fract_z
S1 S 0.3185(3) 0.3400(1) 0.4032(1)
S2 S 0.2498(3) 0.3747(1) 0.2936(1)
Si1 Si 0.3868(3) 0.4044(1) 0.6982(1)
Si2 Si -0.2761(3) 0.3857(1) 0.0698(1)
N1 N 0.3349(7) 0.3911(3) 0.5394(3)
N2 N -0.0344(7) 0.3739(3) 0.1999(3)
C1 C 0.2979(9) 0.4107(4) 0.4661(4)
C2 C 0.2524(11) 0.4760(4) 0.4439(5)
C3 C 0.2471(12) 0.5228(5) 0.5005(5)
C4 C 0.2855(11) 0.5048(4) 0.5769(5)
C5 C 0.3307(9) 0.4379(4) 0.5959(4)
C6 C 0.4797(12) 0.4739(4) 0.7625(5)
C7 C 0.5512(12) 0.3369(5) 0.6944(6)
C8 C 0.1834(11) 0.3704(4) 0.7329(5)
C9 C 0.1049(14) 0.3146(6) 0.6805(6)
C10 C 0.2258(12) 0.3413(5) 0.8152(5)
C11 C 0.0505(14) 0.4266(6) 0.7343(7)
C12 C 0.0203(9) 0.3604(4) 0.2743(4)
C13 C -0.0827(9) 0.3375(4) 0.3271(4)
C14 C -0.2551(10) 0.3287(4) 0.3022(4)
C15 C -0.3137(10) 0.3409(4) 0.2254(4)
C16 C -0.2055(9) 0.3644(4) 0.1748(4)
C17 C -0.2003(13) 0.4733(5) 0.0535(6)
C18 C -0.5182(12) 0.3809(5) 0.0536(6)
C19 C -0.1804(9) 0.3231(4) 0.0047(4)
C20 C 0.0178(10) 0.3257(4) 0.0162(5)
C21 C -0.2387(11) 0.2509(4) 0.0216(5)
C22 C -0.2457(12) 0.3404(5) -0.0807(5)
H1 H 0.2255 0.4879 0.3903
H2 H 0.2162 0.5690 0.4871
H3 H 0.2812 0.5381 0.6170
H4 H 0.3945 0.5089 0.7645
H5 H 0.5795 0.4924 0.7425
H6 H 0.5132 0.4563 0.8136
H7 H 0.5828 0.3186 0.7455
H8 H 0.6520 0.3557 0.6756
H9 H 0.5042 0.3013 0.6603
H10 H 0.1876 0.2785 0.6789
H11 H 0.0740 0.3323 0.6292
H12 H 0.0031 0.2974 0.6999
H13 H 0.2761 0.3762 0.8494
H14 H 0.3066 0.3044 0.8144
H15 H 0.1214 0.3250 0.8330
H16 H 0.0985 0.4626 0.7675
H17 H -0.0510 0.4088 0.7535
H18 H 0.0198 0.4438 0.6828
H19 H -0.0356 0.3279 0.3796
H20 H -0.3335 0.3144 0.3375
H21 H -0.4335 0.3328 0.2068
H22 H -0.2340 0.4859 0.0004
H23 H -0.0763 0.4751 0.0648
H24 H -0.2512 0.5042 0.0869
H25 H -0.5583 0.3915 0.0005
H26 H -0.5659 0.4129 0.0869
H27 H -0.5547 0.3358 0.0651
H28 H 0.0557 0.3708 0.0057
H29 H 0.0623 0.2941 -0.0185
H30 H 0.0596 0.3136 0.0687
H31 H -0.3631 0.2488 0.0145
H32 H -0.1962 0.2390 0.0741
H33 H -0.1935 0.2196 -0.0132
H34 H -0.2100 0.3857 -0.0921
H35 H -0.3700 0.3377 -0.0888
H36 H -0.1979 0.3087 -0.1142
loop_
_geom_bond_atom_site_label_1
_geom_bond_atom_site_label_2
_geom_bond_site_symmetry_1
_geom_bond_site_symmetry_2
S1 S2 1_555 1_555
S2 C12 1_555 1_555
Si1 C5 1_555 1_555
Si2 C16 1_555 1_555
N1 C1 1_555 1_555
N2 C12 1_555 1_555
C1 S1 1_555 1_555
C2 C1 1_555 1_555
C3 C2 1_555 1_555
C4 C3 1_555 1_555
C5 N1 1_555 1_555
C6 Si1 1_555 1_555
C7 Si1 1_555 1_555
C8 Si1 1_555 1_555
C9 C8 1_555 1_555
C10 C8 1_555 1_555
C11 C8 1_555 1_555
C12 C13 1_555 1_555
C13 C14 1_555 1_555
C14 C15 1_555 1_555
C15 C16 1_555 1_555
C16 N2 1_555 1_555
C17 Si2 1_555 1_555
C18 Si2 1_555 1_555
C19 Si2 1_555 1_555
C20 C19 1_555 1_555
C21 C19 1_555 1_555
C22 C19 1_555 1_555
H1 C2 1_555 1_555
H2 C3 1_555 1_555
H3 C4 1_555 1_555
H4 C6 1_555 1_555
H5 C6 1_555 1_555
H6 C6 1_555 1_555
H7 C7 1_555 1_555
H8 C7 1_555 1_555
H9 C7 1_555 1_555
H10 C9 1_555 1_555
H11 C9 1_555 1_555
H12 C9 1_555 1_555
H13 C10 1_555 1_555
H14 C10 1_555 1_555
H15 C10 1_555 1_555
H16 C11 1_555 1_555
H17 C11 1_555 1_555
H18 C11 1_555 1_555
H19 C13 1_555 1_555
H20 C14 1_555 1_555
H21 C15 1_555 1_555
H22 C17 1_555 1_555
H23 C17 1_555 1_555
H24 C17 1_555 1_555
H25 C18 1_555 1_555
H26 C18 1_555 1_555
H27 C18 1_555 1_555
H28 C20 1_555 1_555
H29 C20 1_555 1_555
H30 C20 1_555 1_555
H31 C21 1_555 1_555
H32 C21 1_555 1_555
H33 C21 1_555 1_555
H34 C22 1_555 1_555
H35 C22 1_555 1_555
H36 C22 1_555 1_555
C4 C5 1_555 1_555

#END
