
#######################################################################
#
#                 Cambridge Crystallographic Data Centre
#                                CCDC 
#
#######################################################################
#
# If this CIF has been generated from an entry in the Cambridge 
# Structural Database, then it will include bibliographic, chemical, 
# crystal, experimental, refinement or atomic coordinate data resulting 
# from the CCDC's data processing and validation procedures.
#
#######################################################################

data_ZATKOX
_chemical_formula_moiety         'C21 H17 Br1 N2 O3'
_chemical_name_systematic        
'ethyl [4-(3-bromophenyl)-5-cyano-6-(pyridin-2-yl)-4H-pyran-2-yl]acetate'
_symmetry_cell_setting           triclinic
_symmetry_space_group_name_H-M   'P 1'
_symmetry_Int_Tables_number      1
_space_group_name_Hall           'P 1'
loop_
_symmetry_equiv_pos_site_id
_symmetry_equiv_pos_as_xyz
1 x,y,z
_cell_length_a                   4.9283(15)
_cell_length_b                   8.625(3)
_cell_length_c                   11.811(3)
_cell_angle_alpha                105.178(6)
_cell_angle_beta                 98.124(6)
_cell_angle_gamma                90.507(7)
_cell_volume                     479.117
_exptl_crystal_colour            colorless
_exptl_crystal_description       block
_cell_formula_units_Z            1
loop_
_atom_site_label
_atom_site_type_symbol
_atom_site_fract_x
_atom_site_fract_y
_atom_site_fract_z
Br1 Br 1.0315(3) 0.23554(17) 1.24492(13)
C1 C 0.1393(15) 0.5326(9) 0.6669(7)
C2 C 0.0773(14) 0.6428(9) 0.7613(6)
H1 H 0.1661 0.6472 0.8371
C3 C -0.112(2) 0.7448(11) 0.7451(10)
H2 H -0.1519 0.8221 0.8111
C4 C -0.2493(19) 0.7430(11) 0.6380(10)
H3 H -0.3786 0.8189 0.6305
C5 C -0.196(2) 0.6255(14) 0.5379(10)
H4 H -0.2939 0.6174 0.4631
C6 C 0.3628(13) 0.4229(8) 0.6928(6)
C7 C 0.5113(15) 0.4289(8) 0.7972(6)
C8 C 0.7404(14) 0.3141(8) 0.8104(6)
H5 H 0.9129 0.3787 0.8399
C9 C 0.7645(15) 0.2064(9) 0.6911(6)
H6 H 0.9045 0.1345 0.6860
C10 C 0.6023(14) 0.2061(8) 0.5930(6)
C11 C 0.479(2) 0.5446(10) 0.9055(7)
C12 C 0.6212(16) 0.1032(10) 0.4734(6)
H7 H 0.7988 0.0555 0.4740
H8 H 0.6086 0.1691 0.4179
C13 C 0.3951(16) -0.0311(10) 0.4308(7)
C14 C 0.6950(14) 0.2230(9) 0.8996(7)
C15 C 0.8540(16) 0.2607(10) 1.0126(6)
H9 H 0.9922 0.3416 1.0338
C16 C 0.802(2) 0.1769(11) 1.0904(7)
C17 C 0.616(2) 0.0568(12) 1.0686(9)
H10 H 0.5942 0.0024 1.1253
C18 C 0.456(2) 0.0159(11) 0.9591(9)
H11 H 0.3233 -0.0676 0.9407
C19 C 0.4934(16) 0.1001(9) 0.8741(7)
H12 H 0.3821 0.0731 0.8007
N1 N 0.012(2) 0.5205(12) 0.5555(8)
N2 N 0.468(2) 0.6181(12) 0.9972(7)
O1 O 0.3946(10) 0.3131(6) 0.5885(5)
O2 O 0.2304(12) -0.0597(7) 0.4890(5)
O3 O 0.390(4) -0.086(3) 0.3135(11)
C20 C 0.119(5) -0.199(3) 0.240(2)
H13 H -0.0441 -0.1653 0.2759
H14 H 0.0878 -0.1966 0.1579
C21 C 0.194(7) -0.356(4) 0.252(3)
H15 H 0.2971 -0.4058 0.1900
H16 H 0.0304 -0.4214 0.2453
H17 H 0.3027 -0.3457 0.3277
O4? O 0.446(6) -0.143(2) 0.3349(16)
C22? C 0.278(5) -0.276(2) 0.287(2)
H18? H 0.2300 -0.3154 0.3515
H19? H 0.3837 -0.3578 0.2415
C23? C 0.022(5) -0.267(3) 0.210(2)
H20? H -0.0780 -0.1781 0.2481
H21? H -0.0873 -0.3648 0.1938
H22? H 0.0631 -0.2509 0.1362
loop_
_geom_bond_atom_site_label_1
_geom_bond_atom_site_label_2
_geom_bond_site_symmetry_1
_geom_bond_site_symmetry_2
Br1 C16 1_555 1_555
C1 C2 1_555 1_555
C2 H1 1_555 1_555
C3 C2 1_555 1_555
H2 C3 1_555 1_555
C4 C3 1_555 1_555
H3 C4 1_555 1_555
C5 C4 1_555 1_555
H4 C5 1_555 1_555
C6 C1 1_555 1_555
C7 C6 1_555 1_555
C8 C7 1_555 1_555
H5 C8 1_555 1_555
C9 C8 1_555 1_555
H6 C9 1_555 1_555
C10 C9 1_555 1_555
C11 C7 1_555 1_555
C12 C10 1_555 1_555
H7 C12 1_555 1_555
H8 C12 1_555 1_555
C13 C12 1_555 1_555
C14 C8 1_555 1_555
C15 C14 1_555 1_555
H9 C15 1_555 1_555
C16 C15 1_555 1_555
C17 C16 1_555 1_555
H10 C17 1_555 1_555
C18 C17 1_555 1_555
H11 C18 1_555 1_555
C19 C14 1_555 1_555
H12 C19 1_555 1_555
N1 C1 1_555 1_555
N2 C11 1_555 1_555
O1 C6 1_555 1_555
O2 C13 1_555 1_555
O3 C13 1_555 1_555
C20 O3 1_555 1_555
H13 C20 1_555 1_555
H14 C20 1_555 1_555
C21 C20 1_555 1_555
H15 C21 1_555 1_555
H16 C21 1_555 1_555
H17 C21 1_555 1_555
C5 N1 1_555 1_555
C10 O1 1_555 1_555
C18 C19 1_555 1_555

#END
