
#######################################################################
#
#                 Cambridge Crystallographic Data Centre
#                                CCDC 
#
#######################################################################
#
# If this CIF has been generated from an entry in the Cambridge 
# Structural Database, then it will include bibliographic, chemical, 
# crystal, experimental, refinement or atomic coordinate data resulting 
# from the CCDC's data processing and validation procedures.
#
#######################################################################

data_ZATLEO
_chemical_formula_moiety         'C22 H22 O6'
_chemical_name_systematic        
'methyl (8-methoxy-5-oxo-4-phenyl-1,4a,5,10b-tetrahydro-2H,4H-pyrano[3,4-c][1]benzopyran-2-yl)acetate'
_symmetry_cell_setting           monoclinic
_symmetry_space_group_name_H-M   'P 21'
_symmetry_Int_Tables_number      4
_space_group_name_Hall           'P 2yb'
loop_
_symmetry_equiv_pos_site_id
_symmetry_equiv_pos_as_xyz
1 x,y,z
2 -x,1/2+y,-z
_cell_length_a                   5.521(3)
_cell_length_b                   17.785(8)
_cell_length_c                   9.852(5)
_cell_angle_alpha                90
_cell_angle_beta                 91.837(9)
_cell_angle_gamma                90
_cell_volume                     966.88
_exptl_crystal_colour            colorless
_exptl_crystal_description       prism
_cell_formula_units_Z            2
loop_
_atom_site_label
_atom_site_type_symbol
_atom_site_fract_x
_atom_site_fract_y
_atom_site_fract_z
O1 O 0.7796(6) 0.40462(18) 0.4297(3)
O2 O 1.1012(6) 0.44552(19) 0.6967(4)
O3 O 0.9769(6) 0.56124(17) 0.7288(4)
O4 O 0.6893(10) 0.8057(2) 0.8539(5)
O5 O 0.7524(11) 0.4779(5) -0.0220(6)
O6 O 0.4639(9) 0.5173(3) 0.1013(4)
C1 C 0.6600(8) 0.3968(2) 0.5558(5)
H1 H 0.487780 0.388836 0.533349
C2 C 0.6787(8) 0.4708(2) 0.6370(5)
H2 H 0.579004 0.465235 0.716937
C3 C 0.9328(9) 0.4880(3) 0.6869(5)
C4 C 0.5709(9) 0.5354(2) 0.5514(5)
H3 H 0.396872 0.525862 0.538295
C5 C 0.5998(9) 0.6080(3) 0.6279(5)
C6 C 0.7980(9) 0.6166(2) 0.7165(5)
C7 C 0.8376(10) 0.6812(3) 0.7954(6)
H4 H 0.970383 0.684745 0.855590
C8 C 0.6730(12) 0.7394(3) 0.7811(6)
C9 C 0.4777(11) 0.7340(3) 0.6920(6)
H5 H 0.370048 0.773996 0.681829
C10 C 0.4414(10) 0.6687(3) 0.6170(6)
H6 H 0.307194 0.665343 0.557794
C11 C 0.8534(15) 0.8078(4) 0.9663(7)
H7 H 1.014294 0.798011 0.936547
H8 H 0.809339 0.770357 1.031089
H9 H 0.848553 0.856635 1.007739
C12 C 0.6818(9) 0.5370(3) 0.4112(5)
H10 H 0.850341 0.552068 0.420161
H11 H 0.597066 0.573681 0.354387
C13 C 0.6648(10) 0.4593(3) 0.3435(5)
H12 H 0.493908 0.445796 0.328593
C14 C 0.7937(12) 0.4539(3) 0.2096(5)
H13 H 0.951909 0.476988 0.222176
H14 H 0.820029 0.401035 0.190482
C15 C 0.6742(13) 0.4879(4) 0.0889(6)
C16 C 0.3390(12) 0.5495(4) -0.0173(6)
H15 H 0.305868 0.510666 -0.082987
H16 H 0.439416 0.587300 -0.056404
H17 H 0.189419 0.571760 0.009270
C17 C 0.7503(8) 0.3268(2) 0.6262(5)
C18 C 0.9578(10) 0.2888(3) 0.5867(6)
H18 H 1.048882 0.308383 0.517223
C19 C 1.0300(11) 0.2227(3) 0.6489(7)
H19 H 1.169719 0.198486 0.621830
C20 C 0.8959(12) 0.1925(3) 0.7509(8)
H20 H 0.943118 0.147472 0.791927
C21 C 0.6929(13) 0.2291(3) 0.7915(7)
H21 H 0.602157 0.209131 0.860813
C22 C 0.6213(11) 0.2966(3) 0.7291(7)
H22 H 0.483815 0.321243 0.758124
loop_
_geom_bond_atom_site_label_1
_geom_bond_atom_site_label_2
_geom_bond_site_symmetry_1
_geom_bond_site_symmetry_2
O1 C1 1_555 1_555
O2 C3 1_555 1_555
O3 C3 1_555 1_555
O4 C8 1_555 1_555
O5 C15 1_555 1_555
O6 C15 1_555 1_555
C1 H1 1_555 1_555
C2 C1 1_555 1_555
H2 C2 1_555 1_555
C3 C2 1_555 1_555
C4 C2 1_555 1_555
H3 C4 1_555 1_555
C5 C4 1_555 1_555
C6 O3 1_555 1_555
C7 C6 1_555 1_555
H4 C7 1_555 1_555
C8 C7 1_555 1_555
C9 C8 1_555 1_555
H5 C9 1_555 1_555
C10 C5 1_555 1_555
H6 C10 1_555 1_555
C11 O4 1_555 1_555
H7 C11 1_555 1_555
H8 C11 1_555 1_555
H9 C11 1_555 1_555
C12 C4 1_555 1_555
H10 C12 1_555 1_555
H11 C12 1_555 1_555
C13 O1 1_555 1_555
H12 C13 1_555 1_555
C14 C13 1_555 1_555
H13 C14 1_555 1_555
H14 C14 1_555 1_555
C15 C14 1_555 1_555
C16 O6 1_555 1_555
H15 C16 1_555 1_555
H16 C16 1_555 1_555
H17 C16 1_555 1_555
C17 C1 1_555 1_555
C18 C17 1_555 1_555
H18 C18 1_555 1_555
C19 C18 1_555 1_555
H19 C19 1_555 1_555
C20 C19 1_555 1_555
H20 C20 1_555 1_555
C21 C20 1_555 1_555
H21 C21 1_555 1_555
C22 C17 1_555 1_555
H22 C22 1_555 1_555
C5 C6 1_555 1_555
C9 C10 1_555 1_555
C12 C13 1_555 1_555
C21 C22 1_555 1_555

#END
