
#######################################################################
#
#                 Cambridge Crystallographic Data Centre
#                                CCDC 
#
#######################################################################
#
# If this CIF has been generated from an entry in the Cambridge 
# Structural Database, then it will include bibliographic, chemical, 
# crystal, experimental, refinement or atomic coordinate data resulting 
# from the CCDC's data processing and validation procedures.
#
#######################################################################

data_ZATSUK
_chemical_formula_moiety         'C23 H24 N6 O1,3(H2 O1)'
_chemical_name_systematic        
'(ae2)-(2,4,9-tris(pyridin-2-yl)-1,3,5-triazatricyclo[3.3.1.1^3,7^]dec-7-yl)methanol trihydrate'
_symmetry_cell_setting           orthorhombic
_symmetry_space_group_name_H-M   'P 21 21 21'
_symmetry_Int_Tables_number      19
_space_group_name_Hall           'P 2ac 2ab'
loop_
_symmetry_equiv_pos_site_id
_symmetry_equiv_pos_as_xyz
1 x,y,z
2 1/2-x,-y,1/2+z
3 -x,1/2+y,1/2-z
4 1/2+x,1/2-y,-z
_cell_length_a                   9.2160(18)
_cell_length_b                   13.813(3)
_cell_length_c                   17.342(4)
_cell_angle_alpha                90
_cell_angle_beta                 90
_cell_angle_gamma                90
_cell_volume                     2207.65
_exptl_crystal_colour            'pale yellow'
_exptl_crystal_description       irregular
_cell_formula_units_Z            4
loop_
_atom_site_label
_atom_site_type_symbol
_atom_site_fract_x
_atom_site_fract_y
_atom_site_fract_z
C1 C 0.5337(2) 0.49545(13) 0.34976(10)
H1 H 0.5222 0.4325 0.3752
C2 C 0.40134(19) 0.61312(12) 0.27564(10)
H2 H 0.4518 0.6613 0.3073
C3 C 0.6376(2) 0.56974(12) 0.23821(10)
H3 H 0.6663 0.6217 0.2736
C4 C 0.4231(2) 0.42370(12) 0.20773(10)
C5 C 0.5762(2) 0.39976(13) 0.23747(11)
H4 H 0.5726 0.3411 0.2682
H5 H 0.6402 0.3882 0.1940
C6 C 0.4347(2) 0.51725(12) 0.16013(10)
H6 H 0.4975 0.5064 0.1161
H7 H 0.3394 0.5351 0.1410
C7 C 0.3258(2) 0.44555(13) 0.27768(11)
H8 H 0.2295 0.4629 0.2599
H9 H 0.3173 0.3879 0.3093
C8 C 0.2551(2) 0.65809(13) 0.25478(10)
C9 C 0.1404(2) 0.65681(17) 0.30663(13)
H10 H 0.1465 0.6211 0.3520
C10 C 0.0156(2) 0.71006(18) 0.28963(15)
H11 H -0.0620 0.7115 0.3239
C11 C 0.0099(3) 0.76055(18) 0.22104(16)
H12 H -0.0716 0.7969 0.2082
C12 C 0.1269(3) 0.75606(16) 0.17217(14)
H13 H 0.1211 0.7890 0.1255
C13 C 0.7534(2) 0.56609(14) 0.17607(10)
C14 C 0.8773(2) 0.51109(16) 0.18575(13)
H14 H 0.8877 0.4712 0.2286
C15 C 0.9859(2) 0.5163(2) 0.13059(15)
H15 H 1.0706 0.4804 0.1360
C16 C 0.9663(3) 0.5757(2) 0.06751(13)
H16 H 1.0382 0.5815 0.0301
C17 C 0.8382(3) 0.6263(2) 0.06110(13)
H17 H 0.8240 0.6645 0.0176
C18 C 0.6019(2) 0.56263(13) 0.40914(10)
C19 C 0.7506(2) 0.55687(15) 0.42316(11)
H18 H 0.8088 0.5159 0.3939
C20 C 0.8108(2) 0.61316(16) 0.48137(13)
H19 H 0.9097 0.6104 0.4918
C21 C 0.7208(3) 0.67343(16) 0.52350(12)
H20 H 0.7579 0.7126 0.5624
C22 C 0.5735(2) 0.67404(15) 0.50628(11)
H21 H 0.5132 0.7140 0.5352
C23 C 0.3692(2) 0.33761(13) 0.16089(12)
H22 H 0.4400 0.3231 0.1211
H23 H 0.3630 0.2817 0.1945
N1 N 0.63439(17) 0.47977(11) 0.28468(9)
N2 N 0.38577(17) 0.52580(11) 0.32488(9)
N3 N 0.49392(16) 0.59698(11) 0.20800(8)
N4 N 0.2494(2) 0.70682(12) 0.18772(10)
N5 N 0.7324(2) 0.62350(14) 0.11451(10)
N6 N 0.51350(19) 0.62012(12) 0.45013(9)
O1 O 0.23238(17) 0.35211(11) 0.12553(9)
H24 H 0.2433 0.3813 0.0848
O2 O 0.71458(19) 0.93474(14) 0.51398(9)
O3 O 0.4796(3) 0.73453(13) 0.07530(10)
O4 O 0.822(3) 0.8665(6) 0.0401(3)
O5? O 0.893(3) 0.8869(15) 0.0426(6)
loop_
_geom_bond_atom_site_label_1
_geom_bond_atom_site_label_2
_geom_bond_site_symmetry_1
_geom_bond_site_symmetry_2
C1 H1 1_555 1_555
C2 H2 1_555 1_555
C3 H3 1_555 1_555
C4 C5 1_555 1_555
C5 H4 1_555 1_555
H5 C5 1_555 1_555
C6 C4 1_555 1_555
H6 C6 1_555 1_555
H7 C6 1_555 1_555
C7 C4 1_555 1_555
H8 C7 1_555 1_555
H9 C7 1_555 1_555
C8 C2 1_555 1_555
C9 C8 1_555 1_555
H10 C9 1_555 1_555
C10 C9 1_555 1_555
H11 C10 1_555 1_555
C11 C10 1_555 1_555
H12 C11 1_555 1_555
C12 C11 1_555 1_555
H13 C12 1_555 1_555
C13 C3 1_555 1_555
C14 C13 1_555 1_555
H14 C14 1_555 1_555
C15 C14 1_555 1_555
H15 C15 1_555 1_555
C16 C15 1_555 1_555
H16 C16 1_555 1_555
C17 C16 1_555 1_555
H17 C17 1_555 1_555
C18 C1 1_555 1_555
C19 C18 1_555 1_555
H18 C19 1_555 1_555
C20 C19 1_555 1_555
H19 C20 1_555 1_555
C21 C20 1_555 1_555
H20 C21 1_555 1_555
C22 C21 1_555 1_555
H21 C22 1_555 1_555
C23 C4 1_555 1_555
H22 C23 1_555 1_555
H23 C23 1_555 1_555
N1 C1 1_555 1_555
N2 C1 1_555 1_555
N3 C2 1_555 1_555
N4 C8 1_555 1_555
N5 C13 1_555 1_555
N6 C18 1_555 1_555
O1 C23 1_555 1_555
H24 O1 1_555 1_555
C2 N2 1_555 1_555
C3 N1 1_555 1_555
C3 N3 1_555 1_555
C5 N1 1_555 1_555
C6 N3 1_555 1_555
C7 N2 1_555 1_555
C12 N4 1_555 1_555
C17 N5 1_555 1_555
C22 N6 1_555 1_555

#END
