
#######################################################################
#
#                 Cambridge Crystallographic Data Centre
#                                CCDC 
#
#######################################################################
#
# If this CIF has been generated from an entry in the Cambridge 
# Structural Database, then it will include bibliographic, chemical, 
# crystal, experimental, refinement or atomic coordinate data resulting 
# from the CCDC's data processing and validation procedures.
#
#######################################################################

data_ZATSOE
_chemical_formula_moiety         'C23 H24 N6 O1,H2 O1'
_chemical_name_systematic        
'(ae2)-(2,4,9-tris(pyridin-2-yl)-1,3,5-triazatricyclo[3.3.1.1^3,7^]dec-7-yl)methanol monohydrate'
_symmetry_cell_setting           monoclinic
_symmetry_space_group_name_H-M   'P 21/n'
_symmetry_Int_Tables_number      14
_space_group_name_Hall           '-P 2yn'
loop_
_symmetry_equiv_pos_site_id
_symmetry_equiv_pos_as_xyz
1 x,y,z
2 1/2-x,1/2+y,1/2-z
3 -x,-y,-z
4 1/2+x,1/2-y,1/2+z
_cell_length_a                   9.3644(5)
_cell_length_b                   15.8507(6)
_cell_length_c                   14.2272(7)
_cell_angle_alpha                90
_cell_angle_beta                 105.960(3)
_cell_angle_gamma                90
_cell_volume                     2030.38
_exptl_crystal_colour            colorless
_exptl_crystal_description       block
_cell_formula_units_Z            4
loop_
_atom_site_label
_atom_site_type_symbol
_atom_site_fract_x
_atom_site_fract_y
_atom_site_fract_z
O1 O 0.60059(12) 0.43031(6) 0.81509(7)
H1 H 0.6801 0.4360 0.8729
N1 N 0.24375(13) 0.37545(7) 0.56975(8)
N2 N 0.45520(13) 0.38536(7) 0.49751(8)
N3 N 0.37184(13) 0.24669(8) 0.53960(8)
N4 N 0.24454(15) 0.42584(9) 0.32023(9)
N5 N 0.58334(14) 0.17075(8) 0.46593(8)
N6 N 0.16171(14) 0.15018(8) 0.59288(9)
C1 C 0.31117(16) 0.42159(9) 0.50147(10)
H4 H 0.3329 0.4786 0.5283
C2 C 0.43193(16) 0.29514(9) 0.47035(10)
H5 H 0.3562 0.2934 0.4072
C3 C 0.22871(15) 0.28617(9) 0.53862(10)
H6 H 0.1687 0.2861 0.4703
C4 C 0.34644(15) 0.38204(9) 0.66920(10)
H7 H 0.3048 0.3522 0.7150
H8 H 0.3578 0.4408 0.6887
C5 C 0.55841(15) 0.39274(9) 0.59732(10)
H9 H 0.5711 0.4518 0.6156
H10 H 0.6548 0.3703 0.5973
C6 C 0.47483(16) 0.25238(9) 0.63902(10)
H11 H 0.5693 0.2272 0.6392
H12 H 0.4343 0.2210 0.6843
C7 C 0.49939(15) 0.34464(9) 0.67286(10)
C8 C 0.60443(16) 0.34885(9) 0.77512(10)
H13 H 0.5757 0.3072 0.8164
H14 H 0.7047 0.3361 0.7728
C9 C 0.19796(17) 0.43192(9) 0.40206(10)
C10 C 0.14359(19) 0.44294(10) 0.23416(11)
H15 H 0.1739 0.4396 0.1772
C11 C -0.0005(2) 0.46487(11) 0.22621(12)
H16 H -0.0662 0.4768 0.1656
C12 C -0.0458(2) 0.46871(14) 0.31062(13)
H17 H -0.1433 0.4830 0.3074
C13 C 0.05347(19) 0.45136(12) 0.39950(12)
H18 H 0.0237 0.4527 0.4567
C14 C 0.57097(16) 0.25473(9) 0.45440(10)
C15 C 0.70290(16) 0.13308(10) 0.44934(10)
H19 H 0.7134 0.0751 0.4588
C16 C 0.81106(17) 0.17594(10) 0.41900(10)
H20 H 0.8920 0.1475 0.4082
C17 C 0.79543(17) 0.26225(11) 0.40512(11)
H21 H 0.8652 0.2928 0.3837
C18 C 0.67459(17) 0.30260(10) 0.42353(10)
H22 H 0.6628 0.3606 0.4154
C19 C 0.14283(15) 0.23400(10) 0.59506(10)
C20 C 0.08328(17) 0.10125(11) 0.63778(12)
H23 H 0.0953 0.0431 0.6361
C21 C -0.01408(18) 0.13276(12) 0.68622(12)
H24 H -0.0644 0.0969 0.7179
C22 C -0.03502(18) 0.21915(12) 0.68648(12)
H25 H -0.1012 0.2423 0.7176
C23 C 0.04360(16) 0.27097(11) 0.63987(11)
H26 H 0.0303 0.3291 0.6386
O2 O 0.33029(11) 0.06518(6) 0.47948(7)
H2 H 0.4154 0.0971 0.4781
H3 H 0.2895 0.1037 0.5157
loop_
_geom_bond_atom_site_label_1
_geom_bond_atom_site_label_2
_geom_bond_site_symmetry_1
_geom_bond_site_symmetry_2
O1 H1 1_555 1_555
O2 H2 1_555 1_555
H3 O2 1_555 1_555
N1 C1 1_555 1_555
N2 C1 1_555 1_555
N3 C2 1_555 1_555
N4 C9 1_555 1_555
N5 C14 1_555 1_555
N6 C19 1_555 1_555
C1 H4 1_555 1_555
C2 N2 1_555 1_555
H5 C2 1_555 1_555
C3 N1 1_555 1_555
H6 C3 1_555 1_555
C4 N1 1_555 1_555
H7 C4 1_555 1_555
H8 C4 1_555 1_555
C5 N2 1_555 1_555
H9 C5 1_555 1_555
H10 C5 1_555 1_555
C6 N3 1_555 1_555
H11 C6 1_555 1_555
H12 C6 1_555 1_555
C7 C4 1_555 1_555
C8 O1 1_555 1_555
H13 C8 1_555 1_555
H14 C8 1_555 1_555
C9 C1 1_555 1_555
C10 N4 1_555 1_555
H15 C10 1_555 1_555
C11 C10 1_555 1_555
H16 C11 1_555 1_555
C12 C11 1_555 1_555
H17 C12 1_555 1_555
C13 C9 1_555 1_555
H18 C13 1_555 1_555
C14 C2 1_555 1_555
C15 N5 1_555 1_555
H19 C15 1_555 1_555
C16 C15 1_555 1_555
H20 C16 1_555 1_555
C17 C16 1_555 1_555
H21 C17 1_555 1_555
C18 C14 1_555 1_555
H22 C18 1_555 1_555
C19 C3 1_555 1_555
C20 N6 1_555 1_555
H23 C20 1_555 1_555
C21 C20 1_555 1_555
H24 C21 1_555 1_555
C22 C21 1_555 1_555
H25 C22 1_555 1_555
C23 C19 1_555 1_555
H26 C23 1_555 1_555
N3 C3 1_555 1_555
C5 C7 1_555 1_555
C6 C7 1_555 1_555
C7 C8 1_555 1_555
C12 C13 1_555 1_555
C17 C18 1_555 1_555
C22 C23 1_555 1_555

#END
