
#######################################################################
#
#                 Cambridge Crystallographic Data Centre
#                                CCDC 
#
#######################################################################
#
# If this CIF has been generated from an entry in the Cambridge 
# Structural Database, then it will include bibliographic, chemical, 
# crystal, experimental, refinement or atomic coordinate data resulting 
# from the CCDC's data processing and validation procedures.
#
#######################################################################

data_ZATTAR
_chemical_formula_moiety         'C23 H24 N6 O1,H2 O1'
_chemical_name_systematic        
'(e3)-(2,4,9-tris(pyridin-2-yl)-1,3,5-triazatricyclo[3.3.1.1^3,7^]dec-7-yl)methanol monohydrate'
_symmetry_cell_setting           triclinic
_symmetry_space_group_name_H-M   'P -1'
_symmetry_Int_Tables_number      2
_space_group_name_Hall           '-P 1'
loop_
_symmetry_equiv_pos_site_id
_symmetry_equiv_pos_as_xyz
1 x,y,z
2 -x,-y,-z
_cell_length_a                   9.4950(4)
_cell_length_b                   10.8560(5)
_cell_length_c                   10.8600(5)
_cell_angle_alpha                86.974(3)
_cell_angle_beta                 66.316(3)
_cell_angle_gamma                82.209(3)
_cell_volume                     1015.68
_exptl_crystal_colour            colorless
_exptl_crystal_description       block
_cell_formula_units_Z            2
loop_
_atom_site_label
_atom_site_type_symbol
_atom_site_fract_x
_atom_site_fract_y
_atom_site_fract_z
C1 C 0.6873(3) 0.3584(2) 0.4518(2)
H1 H 0.5954 0.3198 0.4597
H2 H 0.6745 0.4458 0.4231
C2 C 0.70172(14) 0.35391(11) 0.59000(11)
C3 C 0.70073(14) 0.22652(11) 0.65972(12)
H3 H 0.6111 0.1872 0.6631
H4 H 0.7965 0.1717 0.6069
C4 C 0.83948(14) 0.41368(11) 0.59045(11)
H5 H 0.9375 0.3619 0.5366
H6 H 0.8409 0.4969 0.5483
C5 C 0.55276(14) 0.43576(11) 0.67732(11)
H7 H 0.5503 0.5191 0.6359
H8 H 0.4616 0.3984 0.6811
C6 C 0.82358(14) 0.30113(10) 0.79353(12)
H9 H 0.8062 0.3151 0.8891
C7 C 0.98017(14) 0.22043(11) 0.73028(12)
C8 C 1.11601(15) 0.27658(12) 0.67452(13)
H10 H 1.1117 0.3646 0.6700
C9 C 1.12018(18) 0.02605(13) 0.69316(17)
H11 H 1.1224 -0.0617 0.7000
C10 C 1.25973(17) 0.07387(13) 0.63536(15)
H12 H 1.3551 0.0205 0.6029
C11 C 1.25716(16) 0.20156(13) 0.62594(14)
H13 H 1.3512 0.2375 0.5866
C12 C 0.68088(13) 0.50206(10) 0.81029(11)
H14 H 0.6743 0.5012 0.9045
C13 C 0.67933(14) 0.63804(10) 0.76620(11)
C14 C 0.81488(15) 0.69427(11) 0.72140(12)
H15 H 0.9108 0.6471 0.7112
C15 C 0.80726(17) 0.82053(12) 0.69190(13)
H16 H 0.8980 0.8610 0.6609
C16 C 0.66541(18) 0.88645(12) 0.70837(14)
H17 H 0.6569 0.9729 0.6891
C17 C 0.53662(17) 0.82390(12) 0.75338(14)
H18 H 0.4396 0.8696 0.7645
C18 C 0.54912(13) 0.32434(10) 0.87705(11)
H19 H 0.5557 0.3378 0.9649
C19 C 0.40082(14) 0.26580(11) 0.91139(11)
C20 C 0.39921(15) 0.13887(12) 0.93718(12)
H20 H 0.4928 0.0862 0.9233
C21 C 0.25849(17) 0.09029(13) 0.98368(14)
H21 H 0.2544 0.0042 1.0032
C22 C 0.12509(17) 0.16914(14) 1.00091(14)
H22 H 0.0276 0.1384 1.0320
C23 C 0.13651(15) 0.29420(13) 0.97190(13)
H23 H 0.0445 0.3480 0.9834
N1 N 0.69104(11) 0.23964(9) 0.79810(10)
N2 N 0.82877(11) 0.42592(8) 0.72953(9)
N3 N 0.54363(11) 0.44873(8) 0.81577(9)
N4 N 0.98077(14) 0.09634(10) 0.74059(13)
N5 N 0.54107(13) 0.70141(9) 0.78248(10)
N6 N 0.27105(12) 0.34371(10) 0.92833(10)
O1 O 0.82455(19) 0.29246(15) 0.35464(15)
H24 H 0.8167 0.2926 0.2803
O2 O 0.75986(12) 0.38844(10) 0.12922(9)
H25 H 0.750(2) 0.4691(17) 0.1099(18)
H26 H 0.664(2) 0.3675(16) 0.1547(17)
C24? C 0.7324(4) 0.3262(3) 0.4461(3)
H27? H 0.8211 0.2601 0.4092
H28? H 0.6402 0.2974 0.4413
H29? H 0.7889 0.4223 0.2899
O3? O 0.7661(2) 0.43669(18) 0.37133(19)
loop_
_geom_bond_atom_site_label_1
_geom_bond_atom_site_label_2
_geom_bond_site_symmetry_1
_geom_bond_site_symmetry_2
C1 H1 1_555 1_555
H2 C1 1_555 1_555
C2 C1 1_555 1_555
C3 C2 1_555 1_555
H3 C3 1_555 1_555
H4 C3 1_555 1_555
C4 C2 1_555 1_555
H5 C4 1_555 1_555
H6 C4 1_555 1_555
C5 C2 1_555 1_555
H7 C5 1_555 1_555
H8 C5 1_555 1_555
C6 H9 1_555 1_555
C7 C6 1_555 1_555
C8 C7 1_555 1_555
H10 C8 1_555 1_555
C9 H11 1_555 1_555
C10 C9 1_555 1_555
H12 C10 1_555 1_555
C11 C8 1_555 1_555
H13 C11 1_555 1_555
C12 H14 1_555 1_555
C13 C12 1_555 1_555
C14 C13 1_555 1_555
H15 C14 1_555 1_555
C15 C14 1_555 1_555
H16 C15 1_555 1_555
C16 C15 1_555 1_555
H17 C16 1_555 1_555
C17 C16 1_555 1_555
H18 C17 1_555 1_555
C18 H19 1_555 1_555
C19 C18 1_555 1_555
C20 C19 1_555 1_555
H20 C20 1_555 1_555
C21 C20 1_555 1_555
H21 C21 1_555 1_555
C22 C21 1_555 1_555
H22 C22 1_555 1_555
C23 C22 1_555 1_555
H23 C23 1_555 1_555
N1 C3 1_555 1_555
N2 C4 1_555 1_555
N3 C5 1_555 1_555
N4 C7 1_555 1_555
N5 C13 1_555 1_555
N6 C19 1_555 1_555
O1 C1 1_555 1_555
H24 O1 1_555 1_555
O2 H25 1_555 1_555
H26 O2 1_555 1_555
C6 N1 1_555 1_555
C6 N2 1_555 1_555
C9 N4 1_555 1_555
C10 C11 1_555 1_555
C12 N2 1_555 1_555
C12 N3 1_555 1_555
C17 N5 1_555 1_555
C18 N1 1_555 1_555
C18 N3 1_555 1_555
C23 N6 1_555 1_555

#END
