
#######################################################################
#
#                 Cambridge Crystallographic Data Centre
#                                CCDC 
#
#######################################################################
#
# If this CIF has been generated from an entry in the Cambridge 
# Structural Database, then it will include bibliographic, chemical, 
# crystal, experimental, refinement or atomic coordinate data resulting 
# from the CCDC's data processing and validation procedures.
#
#######################################################################

data_ZATTIZ
_chemical_formula_moiety         'C23 H24 N6 O1'
_chemical_name_systematic        
(e3)-(2,4,9-tris(pyridin-3-yl)-1,3,5-triazatricyclo[3.3.1.1^3,7^]dec-7-yl)methanol
_symmetry_cell_setting           monoclinic
_symmetry_space_group_name_H-M   'P 21/c'
_symmetry_Int_Tables_number      14
_space_group_name_Hall           '-P 2ybc'
loop_
_symmetry_equiv_pos_site_id
_symmetry_equiv_pos_as_xyz
1 x,y,z
2 -x,1/2+y,1/2-z
3 -x,-y,-z
4 x,1/2-y,1/2+z
_cell_length_a                   9.4820(19)
_cell_length_b                   26.344(5)
_cell_length_c                   7.7390(15)
_cell_angle_alpha                90
_cell_angle_beta                 100.12(3)
_cell_angle_gamma                90
_cell_volume                     1903.08
_exptl_crystal_colour            white
_exptl_crystal_description       irregular
_cell_formula_units_Z            4
loop_
_atom_site_label
_atom_site_type_symbol
_atom_site_fract_x
_atom_site_fract_y
_atom_site_fract_z
N1 N 0.26689(19) 0.37090(7) 0.0062(2)
N2 N 0.40648(19) 0.39782(6) 0.2893(2)
N3 N 0.15648(18) 0.42717(6) 0.1970(2)
N4 N -0.1115(3) 0.36269(11) -0.3522(3)
N5 N 0.7613(2) 0.31421(9) 0.1650(4)
N6 N 0.4307(2) 0.48039(8) 0.7590(3)
C1 C 0.1683(2) 0.41375(8) 0.0144(3)
H1 H 0.2103 0.4432 -0.0348
C2 C 0.4089(2) 0.38606(8) 0.1024(3)
H2 H 0.4331 0.4179 0.0488
C3 C 0.3032(2) 0.44026(8) 0.2868(3)
H3 H 0.3366 0.4671 0.2162
C4 C 0.2049(2) 0.33716(8) 0.2839(3)
C5 C 0.3553(2) 0.35314(8) 0.3761(3)
H4 H 0.3529 0.3612 0.4979
H5 H 0.4214 0.3251 0.3738
C6 C 0.2157(2) 0.32597(8) 0.0921(3)
H6 H 0.2813 0.2979 0.0879
H7 H 0.1224 0.3160 0.0287
C7 C 0.1044(2) 0.38271(7) 0.2854(3)
H8 H 0.0090 0.3737 0.2259
H9 H 0.0988 0.3915 0.4057
C8 C 0.0236(2) 0.40471(8) -0.0999(3)
C9 C 0.0119(3) 0.37304(10) -0.2458(3)
H10 H 0.0950 0.3582 -0.2706
C10 C -0.2298(3) 0.38531(12) -0.3108(4)
H11 H -0.3178 0.3779 -0.3799
C11 C -0.2281(3) 0.41865(10) -0.1728(4)
H12 H -0.3114 0.4341 -0.1513
C12 C -0.0996(3) 0.42785(9) -0.0702(3)
H13 H -0.0947 0.4505 0.0230
C13 C 0.5236(2) 0.34811(9) 0.0756(3)
C14 C 0.5066(3) 0.31802(11) -0.0742(4)
H14 H 0.4219 0.3192 -0.1557
C15 C 0.6164(3) 0.28638(11) -0.1005(5)
H15 H 0.6062 0.2658 -0.1995
C16 C 0.7404(3) 0.28551(11) 0.0197(6)
H16 H 0.8137 0.2640 -0.0001
C17 C 0.6542(3) 0.34489(9) 0.1899(4)
H17 H 0.6678 0.3653 0.2895
C18 C 0.3036(2) 0.46319(7) 0.4668(3)
C19 C 0.4191(3) 0.45727(9) 0.6033(3)
H18 H 0.4931 0.4358 0.5851
C20 C 0.3245(3) 0.51191(9) 0.7802(3)
H19 H 0.3312 0.5289 0.8867
C21 C 0.2061(3) 0.52061(9) 0.6536(3)
H20 H 0.1348 0.5429 0.6742
C22 C 0.1953(3) 0.49560(8) 0.4950(3)
H21 H 0.1156 0.5005 0.4077
C23 C 0.1528(3) 0.29051(8) 0.3689(3)
H22 H 0.2293 0.2656 0.3881
H23 H 0.1313 0.2999 0.4827
O1 O 0.0334(3) 0.26868(11) 0.2712(5)
H24 H -0.0321 0.2894 0.2553
C24? C 0.1528(3) 0.29051(8) 0.3689(3)
H25? H 0.0545 0.2836 0.3145
H26? H 0.2104 0.2616 0.3470
H27? H 0.0901 0.2818 0.5804
O2? O 0.1596(6) 0.29575(13) 0.5514(5)
loop_
_geom_bond_atom_site_label_1
_geom_bond_atom_site_label_2
_geom_bond_site_symmetry_1
_geom_bond_site_symmetry_2
N1 C1 1_555 1_555
N2 C2 1_555 1_555
N3 C1 1_555 1_555
N4 C9 1_555 1_555
N5 C16 1_555 1_555
N6 C19 1_555 1_555
C1 H1 1_555 1_555
C2 N1 1_555 1_555
H2 C2 1_555 1_555
C3 N2 1_555 1_555
H3 C3 1_555 1_555
C4 C5 1_555 1_555
C5 N2 1_555 1_555
H4 C5 1_555 1_555
H5 C5 1_555 1_555
C6 N1 1_555 1_555
H6 C6 1_555 1_555
H7 C6 1_555 1_555
C7 N3 1_555 1_555
H8 C7 1_555 1_555
H9 C7 1_555 1_555
C8 C1 1_555 1_555
C9 C8 1_555 1_555
H10 C9 1_555 1_555
C10 N4 1_555 1_555
H11 C10 1_555 1_555
C11 C10 1_555 1_555
H12 C11 1_555 1_555
C12 C8 1_555 1_555
H13 C12 1_555 1_555
C13 C2 1_555 1_555
C14 C13 1_555 1_555
H14 C14 1_555 1_555
C15 C14 1_555 1_555
H15 C15 1_555 1_555
C16 C15 1_555 1_555
H16 C16 1_555 1_555
C17 N5 1_555 1_555
H17 C17 1_555 1_555
C18 C3 1_555 1_555
C19 C18 1_555 1_555
H18 C19 1_555 1_555
C20 N6 1_555 1_555
H19 C20 1_555 1_555
C21 C20 1_555 1_555
H20 C21 1_555 1_555
C22 C18 1_555 1_555
H21 C22 1_555 1_555
C23 C4 1_555 1_555
H22 C23 1_555 1_555
H23 C23 1_555 1_555
O1 C23 1_555 1_555
H24 O1 1_555 1_555
N3 C3 1_555 1_555
C4 C6 1_555 1_555
C4 C7 1_555 1_555
C11 C12 1_555 1_555
C13 C17 1_555 1_555
C21 C22 1_555 1_555

#END
