
#######################################################################
#
#                 Cambridge Crystallographic Data Centre
#                                CCDC 
#
#######################################################################
#
# If this CIF has been generated from an entry in the Cambridge 
# Structural Database, then it will include bibliographic, chemical, 
# crystal, experimental, refinement or atomic coordinate data resulting 
# from the CCDC's data processing and validation procedures.
#
#######################################################################

data_ZATTUL
_chemical_formula_moiety         'C23 H24 N6 O1,C2 H6 O1'
_chemical_name_systematic        
'(2,4,9-tris(pyridin-4-yl)-1,3,5-triazatricyclo[3.3.1.1^3,7^]dec-7-yl)methanol ethanol solvate'
_symmetry_cell_setting           orthorhombic
_symmetry_space_group_name_H-M   'I b a 2'
_symmetry_Int_Tables_number      45
_space_group_name_Hall           'I 2 -2c'
loop_
_symmetry_equiv_pos_site_id
_symmetry_equiv_pos_as_xyz
1 x,y,z
2 -x,-y,z
3 1/2+x,1/2-y,z
4 1/2-x,1/2+y,z
5 1/2+x,1/2+y,1/2+z
6 1/2-x,1/2-y,1/2+z
7 x,-y,1/2+z
8 -x,y,1/2+z
_cell_length_a                   17.5800(14)
_cell_length_b                   21.6924(16)
_cell_length_c                   12.8140(6)
_cell_angle_alpha                90
_cell_angle_beta                 90
_cell_angle_gamma                90
_cell_volume                     4886.65
_exptl_crystal_colour            colorless
_exptl_crystal_description       needle
_cell_formula_units_Z            8
loop_
_atom_site_label
_atom_site_type_symbol
_atom_site_fract_x
_atom_site_fract_y
_atom_site_fract_z
O1 O 0.64942(19) 0.09559(15) 0.1740(3)
H1 H 0.6775 0.0616 0.1523
N1 N 0.8446(2) 0.16192(18) 0.3535(3)
N2 N 0.8117(2) 0.26582(18) 0.2935(3)
N3 N 0.7294(2) 0.21289(17) 0.4198(3)
N4 N 1.0507(3) 0.2217(3) 0.0862(4)
N5 N 0.6032(3) 0.4217(2) 0.3676(4)
N6 N 0.7259(3) 0.0038(2) 0.5995(4)
C1 C 0.8734(3) 0.2230(2) 0.3216(4)
H2 H 0.8987 0.2406 0.3830
C2 C 0.7631(3) 0.2718(2) 0.3868(3)
H3 H 0.7972 0.2842 0.4435
C3 C 0.7949(3) 0.1716(2) 0.4444(4)
H4 H 0.8256 0.1934 0.4964
C4 C 0.7997(3) 0.1346(2) 0.2662(3)
H5 H 0.7800 0.0947 0.2872
H6 H 0.8325 0.1285 0.2061
C5 C 0.7670(3) 0.2398(2) 0.2070(3)
H7 H 0.7994 0.2352 0.1462
H8 H 0.7262 0.2680 0.1891
C6 C 0.6841(3) 0.1869(2) 0.3338(3)
H9 H 0.6425 0.2147 0.3174
H10 H 0.6626 0.1478 0.3554
C7 C 0.7332(3) 0.1772(2) 0.2361(4)
C8 C 0.6878(3) 0.1508(2) 0.1461(4)
H11 H 0.6508 0.1811 0.1231
H12 H 0.7218 0.1425 0.0881
C9 C 0.9326(3) 0.2209(2) 0.2357(4)
C10 C 0.9779(3) 0.1684(3) 0.2194(4)
H13 H 0.9699 0.1328 0.2583
C11 C 1.0355(3) 0.1707(3) 0.1438(5)
H14 H 1.0646 0.1355 0.1325
C12 C 1.0062(3) 0.2715(3) 0.1063(4)
H15 H 1.0151 0.3072 0.0682
C13 C 0.9497(3) 0.2725(3) 0.1780(4)
H16 H 0.9221 0.3085 0.1884
C14 C 0.7042(3) 0.3235(2) 0.3773(4)
C15 C 0.7195(4) 0.3735(2) 0.3173(4)
H17 H 0.7644 0.3754 0.2791
C16 C 0.6678(4) 0.4218(3) 0.3132(5)
H18 H 0.6786 0.4555 0.2709
C17 C 0.5881(3) 0.3727(2) 0.4248(4)
H19 H 0.5427 0.3716 0.4621
C18 C 0.6366(3) 0.3229(2) 0.4316(4)
H20 H 0.6238 0.2891 0.4727
C19 C 0.7698(3) 0.1110(2) 0.4956(4)
C20 C 0.7004(3) 0.1079(3) 0.5490(4)
H21 H 0.6680 0.1418 0.5520
C21 C 0.6816(3) 0.0529(2) 0.5972(4)
H22 H 0.6346 0.0503 0.6301
C22 C 0.7929(3) 0.0085(2) 0.5495(4)
H23 H 0.8257 -0.0251 0.5516
C23 C 0.8159(3) 0.0604(2) 0.4950(4)
H24 H 0.8618 0.0607 0.4588
loop_
_geom_bond_atom_site_label_1
_geom_bond_atom_site_label_2
_geom_bond_site_symmetry_1
_geom_bond_site_symmetry_2
O1 H1 1_555 1_555
N1 C1 1_555 1_555
N2 C1 1_555 1_555
N3 C2 1_555 1_555
N4 C11 1_555 1_555
N5 C16 1_555 1_555
N6 C21 1_555 1_555
C1 H2 1_555 1_555
C2 N2 1_555 1_555
H3 C2 1_555 1_555
C3 N1 1_555 1_555
H4 C3 1_555 1_555
C4 N1 1_555 1_555
H5 C4 1_555 1_555
H6 C4 1_555 1_555
C5 N2 1_555 1_555
H7 C5 1_555 1_555
H8 C5 1_555 1_555
C6 N3 1_555 1_555
H9 C6 1_555 1_555
H10 C6 1_555 1_555
C7 C4 1_555 1_555
C8 O1 1_555 1_555
H11 C8 1_555 1_555
H12 C8 1_555 1_555
C9 C1 1_555 1_555
C10 C9 1_555 1_555
H13 C10 1_555 1_555
C11 C10 1_555 1_555
H14 C11 1_555 1_555
C12 N4 1_555 1_555
H15 C12 1_555 1_555
C13 C9 1_555 1_555
H16 C13 1_555 1_555
C14 C2 1_555 1_555
C15 C14 1_555 1_555
H17 C15 1_555 1_555
C16 C15 1_555 1_555
H18 C16 1_555 1_555
C17 N5 1_555 1_555
H19 C17 1_555 1_555
C18 C14 1_555 1_555
H20 C18 1_555 1_555
C19 C3 1_555 1_555
C20 C19 1_555 1_555
H21 C20 1_555 1_555
C21 C20 1_555 1_555
H22 C21 1_555 1_555
C22 N6 1_555 1_555
H23 C22 1_555 1_555
C23 C19 1_555 1_555
H24 C23 1_555 1_555
N3 C3 1_555 1_555
C5 C7 1_555 1_555
C6 C7 1_555 1_555
C7 C8 1_555 1_555
C12 C13 1_555 1_555
C17 C18 1_555 1_555
C22 C23 1_555 1_555

#END
