
#######################################################################
#
#                 Cambridge Crystallographic Data Centre
#                                CCDC 
#
#######################################################################
#
# If this CIF has been generated from an entry in the Cambridge 
# Structural Database, then it will include bibliographic, chemical, 
# crystal, experimental, refinement or atomic coordinate data resulting 
# from the CCDC's data processing and validation procedures.
#
#######################################################################

data_ZATZAY
_chemical_formula_moiety         'C26 H22 N2 O6'
_chemical_name_systematic        
"trans-dimethyl 1,1''-dimethyl-2,2''-dioxo-1,1'',2,2''-tetrahydrodispiro[indole-3,1'-cyclohexa[3,5]diene-2',3''-indole]-3',6'-dicarboxylate"
_symmetry_cell_setting           monoclinic
_symmetry_space_group_name_H-M   'P 21/n'
_symmetry_Int_Tables_number      14
_space_group_name_Hall           '-P 2yn'
loop_
_symmetry_equiv_pos_site_id
_symmetry_equiv_pos_as_xyz
1 x,y,z
2 1/2-x,1/2+y,1/2-z
3 -x,-y,-z
4 1/2+x,1/2-y,1/2+z
_cell_length_a                   9.3122(7)
_cell_length_b                   18.0792(13)
_cell_length_c                   13.6843(10)
_cell_angle_alpha                90
_cell_angle_beta                 97.847(3)
_cell_angle_gamma                90
_cell_volume                     2282.28
_exptl_crystal_description       block
_cell_formula_units_Z            4
loop_
_atom_site_label
_atom_site_type_symbol
_atom_site_fract_x
_atom_site_fract_y
_atom_site_fract_z
C1 C 0.4816(4) 0.08826(17) 0.2232(2)
C2 C 0.6945(4) 0.07153(18) 0.1244(2)
C3 C 0.5219(4) -0.02734(18) 0.1359(3)
H1 H 0.4960 -0.0758 0.1190
C4 C 0.6440(4) 0.10934(17) 0.2125(2)
C5 C 0.6387(4) 0.00666(18) 0.0919(3)
H2 H 0.6752 -0.0171 0.0403
C6 C 0.4506(4) 0.00796(17) 0.1992(3)
C7 C 0.3281(4) -0.0297(2) 0.2373(3)
C8 C 0.8300(4) 0.0998(2) 0.0917(3)
C9 C 0.9798(5) 0.1019(3) -0.0328(3)
H3 H 0.9822 0.1547 -0.0406
H4 H 0.9877 0.0786 -0.0949
H5 H 1.0593 0.0867 0.0151
C10 C 0.1038(5) -0.0072(3) 0.2969(4)
H6 H 0.0739 -0.0555 0.2730
H7 H 0.0241 0.0267 0.2832
H8 H 0.1339 -0.0093 0.3668
O1 O 0.9166(3) 0.13560(16) 0.1442(2)
O2 O 0.8438(3) 0.08043(16) 0.00026(19)
O3 O 0.2232(3) 0.01786(15) 0.2482(2)
O4 O 0.3213(4) -0.09416(17) 0.2536(3)
O5 O 0.7740(3) 0.02009(15) 0.33091(19)
O6 O 0.3630(3) 0.13178(12) 0.06112(18)
C11 C 0.6640(4) 0.19272(18) 0.2186(2)
C12 C 0.6144(4) 0.24802(18) 0.1549(3)
H9 H 0.5604 0.2367 0.0944
C13 C 0.7451(4) 0.0837(2) 0.3067(3)
C14 C 0.7485(4) 0.2102(2) 0.3072(3)
C15 C 0.6446(4) 0.3212(2) 0.1806(3)
H10 H 0.6114 0.3591 0.1375
C16 C 0.7770(5) 0.2824(2) 0.3355(3)
H11 H 0.8300 0.2939 0.3962
C17 C 0.7234(5) 0.3371(2) 0.2696(4)
H12 H 0.7417 0.3864 0.2866
N1 N 0.7954(3) 0.14501(17) 0.3574(2)
C18 C 0.8920(5) 0.1415(3) 0.4503(3)
H13 H 0.8487 0.1672 0.5004
H14 H 0.9828 0.1644 0.4426
H15 H 0.9081 0.0908 0.4694
C19 C 0.4466(4) 0.11593(18) 0.3227(3)
C20 C 0.3789(4) 0.13631(17) 0.1507(3)
C21 C 0.3502(4) 0.1748(2) 0.3056(3)
C22 C 0.4910(5) 0.0920(2) 0.4171(3)
H16 H 0.5512 0.0510 0.4289
C23 C 0.3023(5) 0.2136(2) 0.3810(4)
H17 H 0.2393 0.2535 0.3688
C24 C 0.2101(5) 0.2417(2) 0.1599(3)
H18 H 0.2479 0.2901 0.1771
H19 H 0.1188 0.2356 0.1841
H20 H 0.1966 0.2362 0.0895
C25 C 0.3522(6) 0.1907(3) 0.4758(4)
H21 H 0.3233 0.2166 0.5285
C26 C 0.4436(6) 0.1307(3) 0.4952(3)
H22 H 0.4733 0.1160 0.5600
N2 N 0.3122(3) 0.18566(15) 0.2043(2)
loop_
_geom_bond_atom_site_label_1
_geom_bond_atom_site_label_2
_geom_bond_site_symmetry_1
_geom_bond_site_symmetry_2
C1 C4 1_555 1_555
C2 C4 1_555 1_555
C3 H1 1_555 1_555
C4 C11 1_555 1_555
C5 C2 1_555 1_555
H2 C5 1_555 1_555
C6 C1 1_555 1_555
C7 C6 1_555 1_555
C8 C2 1_555 1_555
C9 H3 1_555 1_555
H4 C9 1_555 1_555
H5 C9 1_555 1_555
C10 H6 1_555 1_555
H7 C10 1_555 1_555
H8 C10 1_555 1_555
O1 C8 1_555 1_555
O2 C8 1_555 1_555
O3 C7 1_555 1_555
O4 C7 1_555 1_555
O5 C13 1_555 1_555
O6 C20 1_555 1_555
C11 C12 1_555 1_555
C12 H9 1_555 1_555
C13 C4 1_555 1_555
C14 C11 1_555 1_555
C15 C12 1_555 1_555
H10 C15 1_555 1_555
C16 C14 1_555 1_555
H11 C16 1_555 1_555
C17 C15 1_555 1_555
H12 C17 1_555 1_555
N1 C13 1_555 1_555
C18 N1 1_555 1_555
H13 C18 1_555 1_555
H14 C18 1_555 1_555
H15 C18 1_555 1_555
C19 C1 1_555 1_555
C20 C1 1_555 1_555
C21 C19 1_555 1_555
C22 C19 1_555 1_555
H16 C22 1_555 1_555
C23 C21 1_555 1_555
H17 C23 1_555 1_555
C24 H18 1_555 1_555
H19 C24 1_555 1_555
H20 C24 1_555 1_555
C25 C23 1_555 1_555
H21 C25 1_555 1_555
C26 C22 1_555 1_555
H22 C26 1_555 1_555
N2 C20 1_555 1_555
C3 C5 1_555 1_555
C3 C6 1_555 1_555
C9 O2 1_555 1_555
C10 O3 1_555 1_555
C14 N1 1_555 1_555
C16 C17 1_555 1_555
C21 N2 1_555 1_555
C24 N2 1_555 1_555
C25 C26 1_555 1_555

#END
