
#######################################################################
#
#                 Cambridge Crystallographic Data Centre
#                                CCDC 
#
#######################################################################
#
# If this CIF has been generated from an entry in the Cambridge 
# Structural Database, then it will include bibliographic, chemical, 
# crystal, experimental, refinement or atomic coordinate data resulting 
# from the CCDC's data processing and validation procedures.
#
#######################################################################

data_ZAVBEG
_chemical_compound_source        'Daldinia childiae'
_chemical_name_common            'childinin F'
_chemical_formula_moiety         'C12 H18 O3'
_chemical_name_systematic        4-methoxy-5-methyl-6-pentyl-2H-pyran-2-one
_chemical_properties_biological  'antibacterial activity'
_symmetry_cell_setting           monoclinic
_symmetry_space_group_name_H-M   'P 21/n'
_symmetry_Int_Tables_number      14
_space_group_name_Hall           '-P 2yn'
loop_
_symmetry_equiv_pos_site_id
_symmetry_equiv_pos_as_xyz
1 x,y,z
2 1/2-x,1/2+y,1/2-z
3 -x,-y,-z
4 1/2+x,1/2-y,1/2+z
_cell_length_a                   11.829(18)
_cell_length_b                   8.373(12)
_cell_length_c                   12.972(19)
_cell_angle_alpha                90
_cell_angle_beta                 110.52(2)
_cell_angle_gamma                90
_cell_volume                     1203.28
_exptl_crystal_colour            colorless
_exptl_crystal_description       prism
_cell_formula_units_Z            4
loop_
_atom_site_label
_atom_site_type_symbol
_atom_site_fract_x
_atom_site_fract_y
_atom_site_fract_z
O1 O 0.63991(7) -0.15706(10) 0.95666(7)
O2 O 0.61790(7) 0.32628(9) 1.00857(7)
O3 O 0.71939(8) 0.30844(12) 1.18833(8)
C1 C 0.70632(10) -0.26508(14) 1.04453(11)
H1 H 0.7925 -0.2392 1.0692
H2 H 0.6939 -0.3753 1.0174
H3 H 0.6773 -0.2537 1.1063
C2 C 0.63755(9) 0.00026(13) 0.98173(10)
C3 C 0.57404(9) 0.10000(14) 0.88682(10)
C4 C 0.56698(9) 0.25996(13) 0.90495(9)
C5 C 0.50937(10) 0.38690(14) 0.82013(10)
H4 H 0.4819 0.4759 0.8558
H5 H 0.4376 0.3414 0.7625
C6 C 0.59770(10) 0.45312(14) 0.76533(10)
H6 H 0.6686 0.5012 0.8226
H7 H 0.6267 0.3639 0.7311
C7 C 0.53717(10) 0.57928(13) 0.67717(10)
H8 H 0.5085 0.6686 0.7117
H9 H 0.4659 0.5312 0.6204
C8 C 0.62315(11) 0.64555(16) 0.62128(11)
H10 H 0.6941 0.6941 0.6782
H11 H 0.6524 0.5558 0.5877
C9 C 0.56437(13) 0.77077(16) 0.53217(12)
H12 H 0.4944 0.7236 0.4751
H13 H 0.6230 0.8064 0.4993
H14 H 0.5382 0.8623 0.5653
C10 C 0.68872(9) 0.06469(13) 1.08502(9)
H15 H 0.7303 -0.0020 1.1457
C11 C 0.67915(10) 0.23472(14) 1.10133(10)
C12 C 0.52252(11) 0.02387(15) 0.77437(10)
H16 H 0.4833 0.1058 0.7195
H17 H 0.4631 -0.0574 0.7749
H18 H 0.5877 -0.0262 0.7557
loop_
_geom_bond_atom_site_label_1
_geom_bond_atom_site_label_2
_geom_bond_site_symmetry_1
_geom_bond_site_symmetry_2
O1 C1 1_555 1_555
O2 C4 1_555 1_555
O3 C11 1_555 1_555
C1 H1 1_555 1_555
H2 C1 1_555 1_555
H3 C1 1_555 1_555
C2 O1 1_555 1_555
C3 C2 1_555 1_555
C4 C3 1_555 1_555
C5 C4 1_555 1_555
H4 C5 1_555 1_555
H5 C5 1_555 1_555
C6 C5 1_555 1_555
H6 C6 1_555 1_555
H7 C6 1_555 1_555
C7 C6 1_555 1_555
H8 C7 1_555 1_555
H9 C7 1_555 1_555
C8 C7 1_555 1_555
H10 C8 1_555 1_555
H11 C8 1_555 1_555
C9 C8 1_555 1_555
H12 C9 1_555 1_555
H13 C9 1_555 1_555
H14 C9 1_555 1_555
C10 C2 1_555 1_555
H15 C10 1_555 1_555
C11 O2 1_555 1_555
C12 C3 1_555 1_555
H16 C12 1_555 1_555
H17 C12 1_555 1_555
H18 C12 1_555 1_555
C10 C11 1_555 1_555

#END
