
#######################################################################
#
#                 Cambridge Crystallographic Data Centre
#                                CCDC 
#
#######################################################################
#
# If this CIF has been generated from an entry in the Cambridge 
# Structural Database, then it will include bibliographic, chemical, 
# crystal, experimental, refinement or atomic coordinate data resulting 
# from the CCDC's data processing and validation procedures.
#
#######################################################################

data_ZAVCOQ
_chemical_formula_moiety         'C16 H8 F12 O2 Si1'
_chemical_name_systematic        bis(2,5-bis(trifluoromethyl)phenyl)silanediol
_symmetry_cell_setting           triclinic
_symmetry_space_group_name_H-M   'P -1'
_symmetry_Int_Tables_number      2
_space_group_name_Hall           '-P 1'
loop_
_symmetry_equiv_pos_site_id
_symmetry_equiv_pos_as_xyz
1 x,y,z
2 -x,-y,-z
_cell_length_a                   5.2873(2)
_cell_length_b                   11.8255(4)
_cell_length_c                   14.6695(6)
_cell_angle_alpha                101.7290(10)
_cell_angle_beta                 94.0830(10)
_cell_angle_gamma                97.1720(10)
_cell_volume                     886.618
_exptl_crystal_colour            colorless
_exptl_crystal_description       prism
_cell_formula_units_Z            2
loop_
_atom_site_label
_atom_site_type_symbol
_atom_site_fract_x
_atom_site_fract_y
_atom_site_fract_z
Si1 Si 0.53117(10) 0.44758(5) 0.14380(4)
O1 O 0.2655(3) 0.47291(14) 0.09363(11)
O2 O 0.7479(3) 0.46173(14) 0.07067(11)
C1 C 0.6372(4) 0.56736(17) 0.25139(14)
C2 C 0.5298(4) 0.58851(18) 0.33706(14)
C3 C 0.6130(4) 0.68776(19) 0.40674(16)
C4 C 0.8074(5) 0.77108(19) 0.39232(17)
C5 C 0.9168(4) 0.75244(18) 0.30855(16)
C6 C 0.8346(4) 0.65242(18) 0.23941(15)
C7 C 0.3185(4) 0.50290(18) 0.35825(15)
C8 C 1.1194(5) 0.8428(2) 0.28861(18)
C9 C 0.5153(4) 0.29628(17) 0.16650(14)
C10 C 0.3933(4) 0.19119(18) 0.10727(14)
C11 C 0.4151(4) 0.08341(19) 0.12925(16)
C12 C 0.5604(4) 0.07639(19) 0.21001(17)
C13 C 0.6813(4) 0.17832(18) 0.26875(15)
C14 C 0.6577(4) 0.28646(18) 0.24751(14)
C15 C 0.2329(4) 0.1917(2) 0.01841(16)
C16 C 0.8442(4) 0.1740(2) 0.35600(16)
F1 F 0.4084(3) 0.42684(12) 0.40471(10)
F2 F 0.1834(2) 0.43846(12) 0.27939(9)
F3 F 0.1502(3) 0.55396(13) 0.41062(10)
F4 F 1.3053(6) 0.7994(3) 0.2532(3)
F5 F 1.0272(6) 0.9044(3) 0.2265(3)
F6 F 1.2157(7) 0.9214(3) 0.3728(3)
F7 F 0.0054(3) 0.22656(14) 0.03440(11)
F8 F 0.3484(3) 0.26274(13) -0.03174(10)
F9 F 0.1818(3) 0.08554(13) -0.03862(11)
F10 F 1.0854(11) 0.1775(5) 0.3488(4)
F11 F 0.7902(6) 0.0705(3) 0.3817(2)
F12 F 0.8052(7) 0.2569(3) 0.4272(2)
H1 H 0.273(6) 0.490(3) 0.042(3)
H2 H 0.896(8) 0.456(3) 0.086(3)
H3 H 0.532(5) 0.698(2) 0.464(2)
H4 H 0.862(7) 0.839(3) 0.441(2)
H5 H 0.908(5) 0.641(2) 0.183(2)
H6 H 0.328(6) 0.010(3) 0.085(2)
H7 H 0.586(6) 0.003(3) 0.224(2)
H8 H 0.731(5) 0.355(2) 0.2905(19)
F13? F 1.0942(10) 0.1673(5) 0.3355(4)
F14? F 0.7480(7) 0.0900(3) 0.3986(3)
F15? F 0.8701(7) 0.2766(3) 0.4221(2)
F16? F 1.2916(7) 0.7911(3) 0.2264(3)
F17? F 1.0113(7) 0.9182(3) 0.2485(3)
F18? F 1.2652(7) 0.9043(3) 0.3594(3)
loop_
_geom_bond_atom_site_label_1
_geom_bond_atom_site_label_2
_geom_bond_site_symmetry_1
_geom_bond_site_symmetry_2
Si1 O1 1_555 1_555
O1 H1 1_555 1_555
O2 Si1 1_555 1_555
C1 Si1 1_555 1_555
C2 C1 1_555 1_555
C3 C2 1_555 1_555
C4 C3 1_555 1_555
C5 C4 1_555 1_555
C6 C1 1_555 1_555
C7 C2 1_555 1_555
C8 C5 1_555 1_555
C9 Si1 1_555 1_555
C10 C9 1_555 1_555
C11 C10 1_555 1_555
C12 C11 1_555 1_555
C13 C12 1_555 1_555
C14 C9 1_555 1_555
C15 C10 1_555 1_555
C16 C13 1_555 1_555
F1 C7 1_555 1_555
F2 C7 1_555 1_555
F3 C7 1_555 1_555
F4 C8 1_555 1_555
F5 C8 1_555 1_555
F6 C8 1_555 1_555
F7 C15 1_555 1_555
F8 C15 1_555 1_555
F9 C15 1_555 1_555
F10 C16 1_555 1_555
F11 C16 1_555 1_555
F12 C16 1_555 1_555
H2 O2 1_555 1_555
H3 C3 1_555 1_555
H4 C4 1_555 1_555
H5 C6 1_555 1_555
H6 C11 1_555 1_555
H7 C12 1_555 1_555
H8 C14 1_555 1_555
C5 C6 1_555 1_555
C13 C14 1_555 1_555

#END
