
#######################################################################
#
#                 Cambridge Crystallographic Data Centre
#                                CCDC 
#
#######################################################################
#
# If this CIF has been generated from an entry in the Cambridge 
# Structural Database, then it will include bibliographic, chemical, 
# crystal, experimental, refinement or atomic coordinate data resulting 
# from the CCDC's data processing and validation procedures.
#
#######################################################################

data_ZAVWEB
_chemical_formula_moiety         'C37 H42 Si1'
_chemical_name_systematic        
((13-butylpentacen-6-yl)ethynyl)(triisopropyl)silane
_symmetry_cell_setting           triclinic
_symmetry_space_group_name_H-M   'P -1'
_symmetry_Int_Tables_number      2
_space_group_name_Hall           '-P 1'
loop_
_symmetry_equiv_pos_site_id
_symmetry_equiv_pos_as_xyz
1 x,y,z
2 -x,-y,-z
_cell_length_a                   9.9679(3)
_cell_length_b                   12.5324(2)
_cell_length_c                   12.8009(4)
_cell_angle_alpha                85.442(2)
_cell_angle_beta                 70.791(1)
_cell_angle_gamma                77.302(2)
_cell_volume                     1473.1
_exptl_crystal_colour            blue
_exptl_crystal_description       block
_cell_formula_units_Z            2
loop_
_atom_site_label
_atom_site_type_symbol
_atom_site_fract_x
_atom_site_fract_y
_atom_site_fract_z
Si1 Si 0.82417(4) 0.35622(3) 0.18637(3)
C1 C 0.77603(16) 0.14684(11) 0.31567(12)
C2 C 0.79752(17) 0.22807(12) 0.26126(12)
C3 C 0.67710(17) 0.40049(12) 0.11986(12)
H1 H 0.5911 0.4428 0.1769
C4 C 0.7183(2) 0.47810(15) 0.02119(15)
H2 H 0.6387 0.4985 -0.0101
H3 H 0.8062 0.4414 -0.0353
H4 H 0.7365 0.5440 0.0459
C5 C 0.6272(2) 0.30525(14) 0.08701(14)
H5 H 0.5512 0.3337 0.0532
H6 H 0.5886 0.2619 0.1529
H7 H 0.7097 0.2590 0.0338
C6 C 1.01152(16) 0.33059(11) 0.08327(12)
H8 H 1.0239 0.3991 0.0388
C7 C 1.12677(18) 0.30527(13) 0.14140(14)
H9 H 1.2236 0.2922 0.0859
H10 H 1.1146 0.2399 0.1881
H11 H 1.1160 0.3674 0.1874
C8 C 1.03344(19) 0.23897(13) 0.00321(13)
H12 H 1.1323 0.2279 -0.0493
H13 H 0.9634 0.2592 -0.0373
H14 H 1.0187 0.1712 0.0450
C9 C 0.6655(2) 0.47339(14) 0.38579(14)
H15 H 0.6643 0.5260 0.4389
H16 H 0.6518 0.4035 0.4235
H17 H 0.5870 0.5016 0.3545
C10 C 0.8454(2) 0.56614(12) 0.24269(14)
H18 H 0.8371 0.6148 0.3018
H19 H 0.7763 0.5996 0.2039
H20 H 0.9443 0.5545 0.1903
C11 C 0.81158(17) 0.45631(12) 0.29274(12)
H21 H 0.8876 0.4235 0.3277
C12 C 0.62575(16) -0.21369(11) 0.60964(12)
H22 H 0.5388 -0.2331 0.6013
H23 H 0.6006 -0.1898 0.6868
C13 C 0.74861(17) -0.31526(11) 0.58817(12)
H24 H 0.7783 -0.3364 0.5097
H25 H 0.8335 -0.2974 0.6015
C14 C 0.70407(18) -0.41127(12) 0.66151(14)
H26 H 0.6160 -0.4263 0.6510
H27 H 0.6791 -0.3911 0.7399
C15 C 0.8221(2) -0.51475(13) 0.63740(17)
H28 H 0.7875 -0.5737 0.6869
H29 H 0.9090 -0.5010 0.6493
H30 H 0.8458 -0.5362 0.5604
C16 C 0.74507(16) 0.05464(11) 0.38504(11)
C17 C 0.68107(15) -0.02231(11) 0.35416(11)
C18 C 0.65833(16) -0.01591(11) 0.25101(12)
H31 H 0.6878 0.0411 0.2010
C19 C 0.59443(16) -0.09004(11) 0.21985(12)
C20 C 0.57136(18) -0.08481(13) 0.11494(13)
H32 H 0.6024 -0.0294 0.0632
C21 C 0.50605(19) -0.15753(13) 0.08812(14)
H33 H 0.4923 -0.1530 0.0178
C22 C 0.45779(19) -0.24059(13) 0.16446(14)
H34 H 0.4109 -0.2905 0.1450
C23 C 0.47787(18) -0.24929(12) 0.26417(14)
H35 H 0.4448 -0.3053 0.3142
C24 C 0.54841(16) -0.17515(11) 0.29575(12)
C25 C 0.57254(16) -0.18359(11) 0.39645(12)
H36 H 0.5426 -0.2411 0.4455
C26 C 0.63971(15) -0.11041(10) 0.42964(11)
C27 C 0.66525(15) -0.12022(10) 0.53231(11)
C28 C 0.73306(15) -0.04475(10) 0.56096(11)
C29 C 0.76327(16) -0.05080(11) 0.66210(12)
H37 H 0.7361 -0.1080 0.7127
C30 C 0.82996(16) 0.02205(11) 0.69050(12)
C31 C 0.85947(18) 0.01556(12) 0.79295(13)
H38 H 0.8303 -0.0402 0.8448
C32 C 0.92763(19) 0.08673(13) 0.81767(14)
H39 H 0.9462 0.0804 0.8863
C33 C 0.97205(19) 0.17137(12) 0.74182(14)
H40 H 1.0209 0.2207 0.7599
C34 C 0.94521(17) 0.18215(12) 0.64421(13)
H41 H 0.9749 0.2394 0.5946
C35 C 0.87306(16) 0.10879(11) 0.61468(12)
C36 C 0.84323(15) 0.11758(11) 0.51572(12)
H42 H 0.8704 0.1754 0.4661
C37 C 0.77436(15) 0.04414(11) 0.48622(11)
loop_
_geom_bond_atom_site_label_1
_geom_bond_atom_site_label_2
_geom_bond_site_symmetry_1
_geom_bond_site_symmetry_2
Si1 C2 1_555 1_555
C1 C2 1_555 1_555
C3 Si1 1_555 1_555
H1 C3 1_555 1_555
C4 C3 1_555 1_555
H2 C4 1_555 1_555
H3 C4 1_555 1_555
H4 C4 1_555 1_555
C5 C3 1_555 1_555
H5 C5 1_555 1_555
H6 C5 1_555 1_555
H7 C5 1_555 1_555
C6 Si1 1_555 1_555
H8 C6 1_555 1_555
C7 C6 1_555 1_555
H9 C7 1_555 1_555
H10 C7 1_555 1_555
H11 C7 1_555 1_555
C8 C6 1_555 1_555
H12 C8 1_555 1_555
H13 C8 1_555 1_555
H14 C8 1_555 1_555
C9 H15 1_555 1_555
H16 C9 1_555 1_555
H17 C9 1_555 1_555
C10 H18 1_555 1_555
H19 C10 1_555 1_555
H20 C10 1_555 1_555
C11 Si1 1_555 1_555
H21 C11 1_555 1_555
C12 H22 1_555 1_555
H23 C12 1_555 1_555
C13 C12 1_555 1_555
H24 C13 1_555 1_555
H25 C13 1_555 1_555
C14 C13 1_555 1_555
H26 C14 1_555 1_555
H27 C14 1_555 1_555
C15 C14 1_555 1_555
H28 C15 1_555 1_555
H29 C15 1_555 1_555
H30 C15 1_555 1_555
C16 C1 1_555 1_555
C17 C16 1_555 1_555
C18 C17 1_555 1_555
H31 C18 1_555 1_555
C19 C18 1_555 1_555
C20 C19 1_555 1_555
H32 C20 1_555 1_555
C21 C20 1_555 1_555
H33 C21 1_555 1_555
C22 C21 1_555 1_555
H34 C22 1_555 1_555
C23 C22 1_555 1_555
H35 C23 1_555 1_555
C24 C19 1_555 1_555
C25 C24 1_555 1_555
H36 C25 1_555 1_555
C26 C17 1_555 1_555
C27 C12 1_555 1_555
C28 C27 1_555 1_555
C29 C28 1_555 1_555
H37 C29 1_555 1_555
C30 C29 1_555 1_555
C31 C30 1_555 1_555
H38 C31 1_555 1_555
C32 C31 1_555 1_555
H39 C32 1_555 1_555
C33 C32 1_555 1_555
H40 C33 1_555 1_555
C34 C33 1_555 1_555
H41 C34 1_555 1_555
C35 C30 1_555 1_555
C36 C35 1_555 1_555
H42 C36 1_555 1_555
C37 C16 1_555 1_555
C9 C11 1_555 1_555
C10 C11 1_555 1_555
C23 C24 1_555 1_555
C25 C26 1_555 1_555
C26 C27 1_555 1_555
C28 C37 1_555 1_555
C34 C35 1_555 1_555
C36 C37 1_555 1_555

#END
