
#######################################################################
#
#                 Cambridge Crystallographic Data Centre
#                                CCDC 
#
#######################################################################
#
# If this CIF has been generated from an entry in the Cambridge 
# Structural Database, then it will include bibliographic, chemical, 
# crystal, experimental, refinement or atomic coordinate data resulting 
# from the CCDC's data processing and validation procedures.
#
#######################################################################

data_ZAVYON
_chemical_formula_moiety         'C12 H14 N2 O3'
_chemical_name_systematic        
'2-(3-methyl-2-oxo-2,3-dihydro-1H-benzimidazol-1-yl)ethyl acetate'
_symmetry_cell_setting           monoclinic
_symmetry_space_group_name_H-M   'P 21/c'
_symmetry_Int_Tables_number      14
_space_group_name_Hall           '-P 2ybc'
loop_
_symmetry_equiv_pos_site_id
_symmetry_equiv_pos_as_xyz
1 x,y,z
2 -x,1/2+y,1/2-z
3 -x,-y,-z
4 x,1/2-y,1/2+z
_cell_length_a                   9.3632(5)
_cell_length_b                   16.3177(9)
_cell_length_c                   8.2183(4)
_cell_angle_alpha                90
_cell_angle_beta                 106.697(2)
_cell_angle_gamma                90
_cell_volume                     1202.7
_exptl_crystal_colour            white
_exptl_crystal_description       rod
_cell_formula_units_Z            4
loop_
_atom_site_label
_atom_site_type_symbol
_atom_site_fract_x
_atom_site_fract_y
_atom_site_fract_z
O1 O 0.44120(12) 0.39201(7) 0.90082(14)
O2 O 0.34494(13) 0.41569(8) 0.36545(16)
N1 N 0.24338(13) 0.44255(7) 0.58636(15)
N2 N 0.11404(14) 0.36685(8) 0.37307(16)
O3 O 0.66824(16) 0.34053(10) 1.0014(2)
C1 C 0.11155(16) 0.42129(9) 0.62219(19)
C2 C 0.36350(16) 0.49370(9) 0.68765(19)
H1 H 0.3259 0.5269 0.7642
H2 H 0.3965 0.5305 0.6129
C3 C 0.24532(17) 0.40934(9) 0.4336(2)
C4 C 0.03005(16) 0.37375(8) 0.4862(2)
C5 C 0.49363(16) 0.44473(9) 0.7890(2)
H3 H 0.5344 0.4122 0.7141
H4 H 0.5712 0.4809 0.8546
C6 C 0.5406(2) 0.34115(10) 0.9993(2)
C7 C 0.0570(2) 0.43887(11) 0.7565(2)
H5 H 0.1113 0.4703 0.8478
C8 C -0.10864(18) 0.34259(11) 0.4813(3)
H6 H -0.1629 0.3108 0.3905
C9 C -0.0832(2) 0.40762(13) 0.7504(3)
H7 H -0.1236 0.4189 0.8390
C10 C -0.1630(2) 0.36049(13) 0.6162(3)
H8 H -0.2557 0.3403 0.6165
C11 C 0.4726(3) 0.28852(12) 1.1042(3)
H9 H 0.5494 0.2581 1.1839
H10 H 0.4036 0.2512 1.0319
H11 H 0.4209 0.3222 1.1646
C12 C 0.0733(2) 0.32310(15) 0.2137(3)
H12 H 0.1287 0.3444 0.1414
H13 H -0.0315 0.3298 0.1595
H14 H 0.0954 0.2659 0.2343
loop_
_geom_bond_atom_site_label_1
_geom_bond_atom_site_label_2
_geom_bond_site_symmetry_1
_geom_bond_site_symmetry_2
O1 C5 1_555 1_555
O2 C3 1_555 1_555
N1 C1 1_555 1_555
N2 C3 1_555 1_555
O3 C6 1_555 1_555
C1 C4 1_555 1_555
C2 N1 1_555 1_555
H1 C2 1_555 1_555
H2 C2 1_555 1_555
C3 N1 1_555 1_555
C4 N2 1_555 1_555
C5 C2 1_555 1_555
H3 C5 1_555 1_555
H4 C5 1_555 1_555
C6 O1 1_555 1_555
C7 C1 1_555 1_555
H5 C7 1_555 1_555
C8 C4 1_555 1_555
H6 C8 1_555 1_555
C9 C7 1_555 1_555
H7 C9 1_555 1_555
C10 C8 1_555 1_555
H8 C10 1_555 1_555
C11 C6 1_555 1_555
H9 C11 1_555 1_555
H10 C11 1_555 1_555
H11 C11 1_555 1_555
C12 N2 1_555 1_555
H12 C12 1_555 1_555
H13 C12 1_555 1_555
H14 C12 1_555 1_555
C9 C10 1_555 1_555

#END
