
#######################################################################
#
#                 Cambridge Crystallographic Data Centre
#                                CCDC 
#
#######################################################################
#
# If this CIF has been generated from an entry in the Cambridge 
# Structural Database, then it will include bibliographic, chemical, 
# crystal, experimental, refinement or atomic coordinate data resulting 
# from the CCDC's data processing and validation procedures.
#
#######################################################################

data_ZAWCUX
_chemical_formula_moiety         'C8 H10 N3 O2 1+,Cl1 1-'
_chemical_name_systematic        
'1-(2-Amino-2-oxoethyl)-3-carbamoylpyridinium chloride'
_symmetry_cell_setting           triclinic
_symmetry_space_group_name_H-M   'P -1'
_symmetry_Int_Tables_number      2
_space_group_name_Hall           '-P 1'
loop_
_symmetry_equiv_pos_site_id
_symmetry_equiv_pos_as_xyz
1 x,y,z
2 -x,-y,-z
_cell_length_a                   5.3951(4)
_cell_length_b                   8.1557(7)
_cell_length_c                   11.4412(9)
_cell_angle_alpha                80.447(2)
_cell_angle_beta                 84.791(2)
_cell_angle_gamma                72.016(2)
_cell_volume                     471.766
_exptl_crystal_colour            colorless
_cell_formula_units_Z            2
loop_
_atom_site_label
_atom_site_type_symbol
_atom_site_fract_x
_atom_site_fract_y
_atom_site_fract_z
Cl1 Cl 0.17987(6) 0.20252(4) 0.63083(3)
O1 O 0.80272(18) 0.36874(12) 0.93731(8)
O2 O -0.20506(17) 0.89364(11) 0.82257(8)
N1 N 0.7008(2) 0.15033(14) 1.06252(10)
H1 H 0.8337 0.1318 1.1074
H2 H 0.5931 0.0870 1.0799
N2 N 0.38692(19) 0.43433(13) 0.79969(9)
N3 N -0.2629(2) 0.92321(14) 0.62499(9)
H3 H -0.4097 1.0085 0.6280
H4 H -0.2018 0.8863 0.5570
C1 C 0.6627(2) 0.27455(15) 0.96804(11)
C2 C 0.4344(2) 0.28398(15) 0.89472(11)
H5 H 0.4729 0.1754 0.8594
H6 H 0.2754 0.2940 0.9471
C3 C 0.1641(2) 0.56615(15) 0.80171(10)
H7 H 0.0403 0.5641 0.8661
C4 C 0.1144(2) 0.70489(15) 0.71034(11)
C5 C -0.1345(2) 0.85067(15) 0.72250(11)
C6 C 0.2981(2) 0.70721(16) 0.61705(11)
H8 H 0.2652 0.7998 0.5526
C7 C 0.5308(2) 0.57184(17) 0.61963(11)
H9 H 0.6617 0.5739 0.5585
C8 C 0.5705(2) 0.43491(16) 0.71109(11)
H10 H 0.7271 0.3407 0.7120
loop_
_geom_bond_atom_site_label_1
_geom_bond_atom_site_label_2
_geom_bond_site_symmetry_1
_geom_bond_site_symmetry_2
O1 C1 1_555 1_555
O2 C5 1_555 1_555
N1 H1 1_555 1_555
H2 N1 1_555 1_555
N2 C2 1_555 1_555
N3 H3 1_555 1_555
H4 N3 1_555 1_555
C1 N1 1_555 1_555
C2 C1 1_555 1_555
H5 C2 1_555 1_555
H6 C2 1_555 1_555
C3 N2 1_555 1_555
H7 C3 1_555 1_555
C4 C3 1_555 1_555
C5 N3 1_555 1_555
C6 C4 1_555 1_555
H8 C6 1_555 1_555
C7 C6 1_555 1_555
H9 C7 1_555 1_555
C8 N2 1_555 1_555
H10 C8 1_555 1_555
C4 C5 1_555 1_555
C7 C8 1_555 1_555

#END
