
#######################################################################
#
#                 Cambridge Crystallographic Data Centre
#                                CCDC 
#
#######################################################################
#
# If this CIF has been generated from an entry in the Cambridge 
# Structural Database, then it will include bibliographic, chemical, 
# crystal, experimental, refinement or atomic coordinate data resulting 
# from the CCDC's data processing and validation procedures.
#
#######################################################################

data_ZAWDIM
_chemical_formula_moiety         'C8 H10 N3 O2 1+,N1 O3 1-'
_chemical_name_systematic        
'1-(2-Amino-2-oxoethyl)-3-carbamoylpyridinium nitrate'
_symmetry_cell_setting           triclinic
_symmetry_space_group_name_H-M   'P -1'
_symmetry_Int_Tables_number      2
_space_group_name_Hall           '-P 1'
loop_
_symmetry_equiv_pos_site_id
_symmetry_equiv_pos_as_xyz
1 x,y,z
2 -x,-y,-z
_cell_length_a                   5.4520(3)
_cell_length_b                   6.1264(3)
_cell_length_c                   15.5624(8)
_cell_angle_alpha                99.478(3)
_cell_angle_beta                 92.657(3)
_cell_angle_gamma                99.407(3)
_cell_volume                     504.375
_exptl_crystal_colour            colorless
_exptl_crystal_description       columnar
_cell_formula_units_Z            2
loop_
_atom_site_label
_atom_site_type_symbol
_atom_site_fract_x
_atom_site_fract_y
_atom_site_fract_z
O1 O 1.24498(16) 0.21126(15) 0.84626(6)
O2 O 0.80963(18) -0.27850(16) 0.50168(6)
N1 N 1.1331(2) 0.26090(18) 0.98537(8)
H1 H 1.2842 0.2815 1.0077
H2 H 1.0123 0.2658 1.0189
N2 N 0.77104(18) 0.16475(17) 0.77543(7)
N3 N 1.0893(2) -0.3110(2) 0.60875(8)
H3 H 1.1416 -0.4199 0.5768
H4 H 1.1532 -0.2626 0.6614
C1 C 1.0864(2) 0.2215(2) 0.89940(9)
C2 C 0.8086(2) 0.1836(2) 0.87072(9)
H5 H 0.7252 0.0472 0.8882
H6 H 0.7357 0.3081 0.8993
C3 C 0.8527(2) -0.0039(2) 0.72467(9)
H7 H 0.9277 -0.1057 0.7502
C4 C 0.8262(2) -0.0270(2) 0.63503(9)
C5 C 0.9089(2) -0.2169(2) 0.57660(9)
C6 C 0.7077(2) 0.1251(2) 0.59830(9)
H8 H 0.6855 0.1121 0.5379
C7 C 0.6242(2) 0.2946(2) 0.65229(10)
H9 H 0.5439 0.3961 0.6285
C8 C 0.6591(2) 0.3137(2) 0.74073(10)
H10 H 0.6055 0.4299 0.7772
O3 O 0.03888(15) 0.67602(15) 0.83644(6)
O4 O 0.39283(17) 0.73294(15) 0.77801(7)
O5 O 0.38368(17) 0.75049(17) 0.91876(7)
N4 N 0.27340(19) 0.71964(18) 0.84432(8)
loop_
_geom_bond_atom_site_label_1
_geom_bond_atom_site_label_2
_geom_bond_site_symmetry_1
_geom_bond_site_symmetry_2
O1 C1 1_555 1_555
O2 C5 1_555 1_555
O3 N4 1_555 1_555
O4 N4 1_555 1_555
O5 N4 1_555 1_555
N1 H1 1_555 1_555
H2 N1 1_555 1_555
N2 C2 1_555 1_555
N3 H3 1_555 1_555
H4 N3 1_555 1_555
C1 N1 1_555 1_555
C2 C1 1_555 1_555
H5 C2 1_555 1_555
H6 C2 1_555 1_555
C3 N2 1_555 1_555
H7 C3 1_555 1_555
C4 C3 1_555 1_555
C5 N3 1_555 1_555
C6 C4 1_555 1_555
H8 C6 1_555 1_555
C7 C6 1_555 1_555
H9 C7 1_555 1_555
C8 N2 1_555 1_555
H10 C8 1_555 1_555
C4 C5 1_555 1_555
C7 C8 1_555 1_555

#END
