
#######################################################################
#
#                 Cambridge Crystallographic Data Centre
#                                CCDC 
#
#######################################################################
#
# If this CIF has been generated from an entry in the Cambridge 
# Structural Database, then it will include bibliographic, chemical, 
# crystal, experimental, refinement or atomic coordinate data resulting 
# from the CCDC's data processing and validation procedures.
#
#######################################################################

data_ZAWFAG
_chemical_formula_moiety         'C8 H10 N3 O2 1+,C24 H20 B1 1-'
_chemical_name_systematic        
'1-(2-Amino-2-oxoethyl)-3-carbamoylpyridinium tetraphenylborate'
_symmetry_cell_setting           orthorhombic
_symmetry_space_group_name_H-M   'P c a 21'
_symmetry_Int_Tables_number      29
_space_group_name_Hall           'P 2c -2ac'
loop_
_symmetry_equiv_pos_site_id
_symmetry_equiv_pos_as_xyz
1 x,y,z
2 -x,-y,1/2+z
3 1/2-x,y,1/2+z
4 1/2+x,-y,z
_cell_length_a                   9.7596(3)
_cell_length_b                   15.6860(5)
_cell_length_c                   16.8530(5)
_cell_angle_alpha                90
_cell_angle_beta                 90
_cell_angle_gamma                90
_cell_volume                     2580.01
_exptl_crystal_colour            yellow
_cell_formula_units_Z            4
loop_
_atom_site_label
_atom_site_type_symbol
_atom_site_fract_x
_atom_site_fract_y
_atom_site_fract_z
B1 B 0.8643(2) 0.74555(12) 0.25906(13)
C9 C 0.69662(19) 0.75159(11) 0.24759(11)
C10 C 0.6116(2) 0.67973(12) 0.25751(11)
H11 H 0.6530 0.6262 0.2684
C11 C 0.4697(2) 0.68391(12) 0.25204(12)
H12 H 0.4165 0.6338 0.2592
C12 C 0.4052(2) 0.76103(13) 0.23608(12)
H13 H 0.3083 0.7639 0.2314
C13 C 0.4846(2) 0.83372(13) 0.22712(11)
H14 H 0.4421 0.8870 0.2164
C14 C 0.6272(2) 0.82879(12) 0.23383(11)
H15 H 0.6793 0.8797 0.2289
C15 C 0.94276(18) 0.82705(11) 0.21807(12)
C16 C 0.9030(2) 0.85718(12) 0.14312(12)
H16 H 0.8279 0.8306 0.1173
C17 C 0.9688(2) 0.92421(13) 0.10510(12)
H17 H 0.9364 0.9439 0.0552
C18 C 1.0817(2) 0.96240(13) 0.13999(13)
H18 H 1.1276 1.0080 0.1141
C19 C 1.1267(2) 0.93347(12) 0.21298(13)
H19 H 1.2049 0.9587 0.2370
C20 C 1.0575(2) 0.86722(11) 0.25153(12)
H20 H 1.0892 0.8488 0.3020
C21 C 0.93072(19) 0.66062(11) 0.21645(11)
C22 C 1.06588(19) 0.63543(12) 0.23453(11)
H21 H 1.1177 0.6688 0.2708
C23 C 1.1260(2) 0.56347(12) 0.20109(12)
H22 H 1.2169 0.5481 0.2153
C24 C 1.0538(2) 0.51412(12) 0.14707(12)
H23 H 1.0939 0.4644 0.1249
C25 C 0.9224(2) 0.53838(12) 0.12588(12)
H24 H 0.8723 0.5059 0.0881
C26 C 0.86367(19) 0.61072(12) 0.16016(11)
H25 H 0.7738 0.6267 0.1444
C27 C 0.88753(18) 0.74235(11) 0.35609(12)
C28 C 0.92697(19) 0.66961(12) 0.39864(12)
H26 H 0.9456 0.6186 0.3703
C29 C 0.93997(19) 0.66928(13) 0.48132(12)
H27 H 0.9684 0.6189 0.5079
C30 C 0.9116(2) 0.74199(14) 0.52442(13)
H28 H 0.9210 0.7421 0.5805
C31 C 0.8695(2) 0.81471(13) 0.48504(12)
H29 H 0.8491 0.8650 0.5142
C32 C 0.85671(19) 0.81446(12) 0.40244(12)
H30 H 0.8261 0.8648 0.3766
O1 O 0.07891(14) 0.55826(9) 0.92349(9)
O2 O 0.26206(15) 0.97272(9) 0.90283(11)
N1 N -0.14533(17) 0.52243(10) 0.91397(11)
H1 H -0.1275 0.4702 0.8980
H2 H -0.2308 0.5393 0.9196
N2 N 0.02452(15) 0.72207(10) 0.97312(10)
N3 N 0.03516(18) 0.97105(11) 0.87860(11)
H3 H 0.0364 1.0213 0.8554
H4 H -0.0424 0.9429 0.8831
C1 C -0.04251(19) 0.57628(12) 0.92969(12)
C2 C -0.09105(19) 0.66387(11) 0.95802(12)
H5 H -0.1518 0.6892 0.9173
H6 H -0.1450 0.6570 1.0074
C3 C 0.03415(18) 0.79553(12) 0.93162(11)
H7 H -0.0316 0.8084 0.8918
C4 C 0.13952(18) 0.85192(12) 0.94698(12)
C5 C 0.15011(19) 0.93779(12) 0.90675(13)
C6 C 0.2386(2) 0.82971(12) 1.00268(13)
H8 H 0.3146 0.8662 1.0119
C7 C 0.2259(2) 0.75453(12) 1.04439(13)
H9 H 0.2924 0.7394 1.0831
C8 C 0.1168(2) 0.70157(13) 1.02987(12)
H10 H 0.1061 0.6506 1.0596
loop_
_geom_bond_atom_site_label_1
_geom_bond_atom_site_label_2
_geom_bond_site_symmetry_1
_geom_bond_site_symmetry_2
B1 C9 1_555 1_555
O1 C1 1_555 1_555
O2 C5 1_555 1_555
N1 H1 1_555 1_555
H2 N1 1_555 1_555
N2 C2 1_555 1_555
N3 H3 1_555 1_555
H4 N3 1_555 1_555
C1 N1 1_555 1_555
C2 C1 1_555 1_555
H5 C2 1_555 1_555
H6 C2 1_555 1_555
C3 N2 1_555 1_555
H7 C3 1_555 1_555
C4 C3 1_555 1_555
C5 N3 1_555 1_555
C6 C4 1_555 1_555
H8 C6 1_555 1_555
C7 C6 1_555 1_555
H9 C7 1_555 1_555
C8 N2 1_555 1_555
H10 C8 1_555 1_555
C9 C10 1_555 1_555
C10 H11 1_555 1_555
C11 C10 1_555 1_555
H12 C11 1_555 1_555
C12 C11 1_555 1_555
H13 C12 1_555 1_555
C13 C12 1_555 1_555
H14 C13 1_555 1_555
C14 C9 1_555 1_555
H15 C14 1_555 1_555
C15 B1 1_555 1_555
C16 C15 1_555 1_555
H16 C16 1_555 1_555
C17 C16 1_555 1_555
H17 C17 1_555 1_555
C18 C17 1_555 1_555
H18 C18 1_555 1_555
C19 C18 1_555 1_555
H19 C19 1_555 1_555
C20 C15 1_555 1_555
H20 C20 1_555 1_555
C21 B1 1_555 1_555
C22 C21 1_555 1_555
H21 C22 1_555 1_555
C23 C22 1_555 1_555
H22 C23 1_555 1_555
C24 C23 1_555 1_555
H23 C24 1_555 1_555
C25 C24 1_555 1_555
H24 C25 1_555 1_555
C26 C21 1_555 1_555
H25 C26 1_555 1_555
C27 B1 1_555 1_555
C28 C27 1_555 1_555
H26 C28 1_555 1_555
C29 C28 1_555 1_555
H27 C29 1_555 1_555
C30 C29 1_555 1_555
H28 C30 1_555 1_555
C31 C30 1_555 1_555
H29 C31 1_555 1_555
C32 C27 1_555 1_555
H30 C32 1_555 1_555
C4 C5 1_555 1_555
C7 C8 1_555 1_555
C13 C14 1_555 1_555
C19 C20 1_555 1_555
C25 C26 1_555 1_555
C31 C32 1_555 1_555

#END
