
#######################################################################
#
#                 Cambridge Crystallographic Data Centre
#                                CCDC 
#
#######################################################################
#
# If this CIF has been generated from an entry in the Cambridge 
# Structural Database, then it will include bibliographic, chemical, 
# crystal, experimental, refinement or atomic coordinate data resulting 
# from the CCDC's data processing and validation procedures.
#
#######################################################################

data_ZAWPOE
_chemical_formula_moiety         'C19 H18 N1 O2 1+,C10 H7 O3 S1 1-'
_chemical_name_systematic        
'2-(2-(4-Hydroxy-3-methoxyphenyl)vinyl)-1-methylquinolinium naphthalene-2-sulfonate'
_symmetry_cell_setting           monoclinic
_symmetry_space_group_name_H-M   'P n'
_symmetry_Int_Tables_number      7
_space_group_name_Hall           'P -2yac'
loop_
_symmetry_equiv_pos_site_id
_symmetry_equiv_pos_as_xyz
1 x,y,z
2 1/2+x,-y,1/2+z
_cell_length_a                   7.1438(2)
_cell_length_b                   10.8234(2)
_cell_length_c                   15.2054(3)
_cell_angle_alpha                90
_cell_angle_beta                 99.5620(10)
_cell_angle_gamma                90
_cell_volume                     1159.35
_exptl_crystal_colour            yellow
_exptl_crystal_description       block
_cell_formula_units_Z            2
loop_
_atom_site_label
_atom_site_type_symbol
_atom_site_fract_x
_atom_site_fract_y
_atom_site_fract_z
S1 S -0.15300(8) -0.34519(5) -0.42877(4)
O3 O -0.2130(3) -0.22166(17) -0.45900(11)
O4 O -0.2424(3) -0.44172(15) -0.48635(11)
O5 O 0.0507(2) -0.35649(17) -0.40598(12)
C20 C -0.2424(3) -0.36038(18) -0.32741(14)
C21 C -0.1254(3) -0.36629(19) -0.24689(15)
C22 C -0.1977(3) -0.37073(18) -0.16646(14)
C23 C -0.0804(4) -0.3779(2) -0.08244(16)
C24 C -0.1556(4) -0.3845(2) -0.00549(16)
C25 C -0.3515(4) -0.3795(2) -0.00914(17)
C26 C -0.4697(4) -0.3714(2) -0.08848(16)
C27 C -0.3972(3) -0.36758(18) -0.16941(14)
C28 C -0.5165(3) -0.3634(2) -0.25404(16)
C29 C -0.4419(3) -0.3603(2) -0.33047(16)
H19 H -0.009(4) -0.370(2) -0.2453(16)
H20 H 0.052(4) -0.385(3) -0.0840(19)
H21 H -0.067(4) -0.391(2) 0.0514(18)
H22 H -0.404(4) -0.384(3) 0.040(2)
H23 H -0.603(4) -0.374(2) -0.0899(18)
H24 H -0.662(4) -0.358(2) -0.2597(18)
H25 H -0.516(4) -0.351(3) -0.396(2)
N1 N -0.2427(2) 0.17982(15) -1.13322(11)
O1 O -0.2326(3) -0.24692(15) -0.66233(12)
O2 O -0.2935(3) -0.03931(18) -0.57693(11)
C1 C -0.2425(3) 0.18089(18) -1.22474(13)
C2 C -0.2251(3) 0.2916(2) -1.27183(15)
C3 C -0.2254(3) 0.2870(2) -1.36204(16)
C4 C -0.2414(4) 0.1750(2) -1.40826(17)
C5 C -0.2597(3) 0.0682(2) -1.36407(15)
C6 C -0.2623(3) 0.06843(19) -1.27181(14)
C7 C -0.2869(3) -0.0405(2) -1.22449(16)
C8 C -0.2944(4) -0.0364(2) -1.13713(15)
C9 C -0.2714(3) 0.07499(18) -1.08907(15)
C10 C -0.2828(4) 0.0799(2) -0.99491(15)
C11 C -0.2541(3) -0.0179(2) -0.94145(15)
C12 C -0.2646(3) -0.0203(2) -0.84641(14)
C13 C -0.2408(3) -0.1334(2) -0.80178(15)
C14 C -0.2503(3) -0.14147(19) -0.71230(15)
C15 C -0.2830(3) -0.03530(19) -0.66441(14)
C16 C -0.3075(3) 0.0761(2) -0.70856(15)
C17 C -0.2995(3) 0.0843(2) -0.79857(16)
C18 C -0.2155(4) -0.3609(2) -0.70549(18)
H1 H -0.2045 -0.4265 -0.6625
H2 H -0.1045 -0.3594 -0.7334
H3 H -0.3258 -0.3741 -0.7499
C19 C -0.2014(4) 0.2968(2) -1.08281(16)
H4 H -0.1846 0.3623 -1.1234
H5 H -0.0876 0.2874 -1.0399
H6 H -0.3054 0.3165 -1.0526
H7 H -0.257(5) -0.106(3) -0.554(3)
H8 H -0.222(3) 0.369(2) -1.2425(15)
H9 H -0.214(3) 0.360(2) -1.3942(15)
H10 H -0.240(3) 0.175(2) -1.4697(18)
H11 H -0.273(3) -0.008(2) -1.3937(18)
H12 H -0.300(5) -0.116(3) -1.255(2)
H13 H -0.315(3) -0.108(2) -1.1088(15)
H14 H -0.310(3) 0.162(2) -0.9691(18)
H15 H -0.209(4) -0.098(3) -0.9664(19)
H16 H -0.223(3) -0.203(2) -0.8344(15)
H17 H -0.331(4) 0.148(2) -0.6771(18)
H18 H -0.302(4) 0.162(3) -0.822(2)
loop_
_geom_bond_atom_site_label_1
_geom_bond_atom_site_label_2
_geom_bond_site_symmetry_1
_geom_bond_site_symmetry_2
S1 O3 1_555 1_555
N1 C1 1_555 1_555
O1 C14 1_555 1_555
O2 C15 1_555 1_555
O4 S1 1_555 1_555
O5 S1 1_555 1_555
C1 C2 1_555 1_555
C2 C3 1_555 1_555
C3 C4 1_555 1_555
C4 C5 1_555 1_555
C5 C6 1_555 1_555
C6 C1 1_555 1_555
C7 C6 1_555 1_555
C8 C7 1_555 1_555
C9 N1 1_555 1_555
C10 C9 1_555 1_555
C11 C10 1_555 1_555
C12 C11 1_555 1_555
C13 C12 1_555 1_555
C14 C13 1_555 1_555
C15 C14 1_555 1_555
C16 C15 1_555 1_555
C17 C12 1_555 1_555
C18 O1 1_555 1_555
H1 C18 1_555 1_555
H2 C18 1_555 1_555
H3 C18 1_555 1_555
C19 N1 1_555 1_555
H4 C19 1_555 1_555
H5 C19 1_555 1_555
H6 C19 1_555 1_555
C20 S1 1_555 1_555
C21 C20 1_555 1_555
C22 C21 1_555 1_555
C23 C22 1_555 1_555
C24 C23 1_555 1_555
C25 C24 1_555 1_555
C26 C25 1_555 1_555
C27 C22 1_555 1_555
C28 C27 1_555 1_555
C29 C20 1_555 1_555
H7 O2 1_555 1_555
H8 C2 1_555 1_555
H9 C3 1_555 1_555
H10 C4 1_555 1_555
H11 C5 1_555 1_555
H12 C7 1_555 1_555
H13 C8 1_555 1_555
H14 C10 1_555 1_555
H15 C11 1_555 1_555
H16 C13 1_555 1_555
H17 C16 1_555 1_555
H18 C17 1_555 1_555
H19 C21 1_555 1_555
H20 C23 1_555 1_555
H21 C24 1_555 1_555
H22 C25 1_555 1_555
H23 C26 1_555 1_555
H24 C28 1_555 1_555
H25 C29 1_555 1_555
C8 C9 1_555 1_555
C16 C17 1_555 1_555
C26 C27 1_555 1_555
C28 C29 1_555 1_555

#END
