
#######################################################################
#
#                 Cambridge Crystallographic Data Centre
#                                CCDC 
#
#######################################################################
#
# If this CIF has been generated from an entry in the Cambridge 
# Structural Database, then it will include bibliographic, chemical, 
# crystal, experimental, refinement or atomic coordinate data resulting 
# from the CCDC's data processing and validation procedures.
#
#######################################################################

data_ZAWTEZ
_chemical_formula_moiety         'C34 H36 Si1'
_chemical_name_systematic        
tri-isopropyl((13-methylpentacen-6-yl)ethynyl)silane
_symmetry_cell_setting           monoclinic
_symmetry_space_group_name_H-M   'P 21/c'
_symmetry_Int_Tables_number      14
_space_group_name_Hall           '-P 2ybc'
loop_
_symmetry_equiv_pos_site_id
_symmetry_equiv_pos_as_xyz
1 x,y,z
2 -x,1/2+y,1/2-z
3 -x,-y,-z
4 x,1/2-y,1/2+z
_cell_length_a                   14.7279(2)
_cell_length_b                   24.0124(3)
_cell_length_c                   7.50787(13)
_cell_angle_alpha                90
_cell_angle_beta                 92.2845(15)
_cell_angle_gamma                90
_cell_volume                     2653.06
_exptl_crystal_colour            'metallic dark black'
_exptl_crystal_description       needle
_cell_formula_units_Z            4
loop_
_atom_site_label
_atom_site_type_symbol
_atom_site_fract_x
_atom_site_fract_y
_atom_site_fract_z
C1 C 0.80849(12) 0.61759(8) 0.1226(2)
C2 C 0.79629(13) 0.56779(8) 0.1209(3)
C3 C 0.71110(18) 0.47551(10) -0.0968(3)
H1 H 0.7612 0.4805 -0.1774
C4 C 0.6824(2) 0.41402(12) -0.1133(4)
H2 H 0.7296 0.3908 -0.0619
H3 H 0.6724 0.4047 -0.2368
H4 H 0.6274 0.4083 -0.0514
C5 C 0.6349(3) 0.51497(15) -0.1640(5)
H5 H 0.5839 0.5116 -0.0890
H6 H 0.6165 0.5052 -0.2842
H7 H 0.6567 0.5526 -0.1610
C6 C 0.85828(16) 0.44946(9) 0.1952(4)
H8 H 0.8348 0.4133 0.2324
C7 C 0.9182(2) 0.43943(13) 0.0350(5)
H9 H 0.8856 0.4171 -0.0522
H10 H 0.9727 0.4204 0.0742
H11 H 0.9336 0.4745 -0.0171
C8 C 0.9140(2) 0.47323(13) 0.3499(6)
H12 H 0.9384 0.5086 0.3168
H13 H 0.9629 0.4482 0.3815
H14 H 0.8762 0.4780 0.4501
C9 C 0.67284(19) 0.49415(10) 0.3143(4)
H15 H 0.7099 0.4974 0.4252
C10 C 0.60994(19) 0.54326(11) 0.3179(4)
H16 H 0.6446 0.5770 0.3122
H17 H 0.5775 0.5427 0.4262
H18 H 0.5675 0.5415 0.2176
C11 C 0.6234(2) 0.43924(11) 0.3332(5)
H19 H 0.5828 0.4337 0.2315
H20 H 0.5892 0.4399 0.4394
H21 H 0.6667 0.4094 0.3405
C12 C 0.81643(11) 0.67679(7) 0.1244(2)
C13 C 0.74181(11) 0.70925(7) 0.0596(2)
C14 C 0.66097(12) 0.68420(8) -0.0073(2)
H22 H 0.6573 0.6455 -0.0101
C15 C 0.58699(12) 0.71503(8) -0.0691(2)
C16 C 0.50481(13) 0.68935(9) -0.1369(3)
H23 H 0.5006 0.6507 -0.1405
C17 C 0.43314(13) 0.72061(10) -0.1958(3)
H24 H 0.3804 0.7032 -0.2396
C18 C 0.43774(13) 0.77979(10) -0.1913(3)
H25 H 0.3880 0.8007 -0.2319
C19 C 0.51417(13) 0.80589(9) -0.1280(3)
H26 H 0.5161 0.8446 -0.1259
C20 C 0.59200(12) 0.77474(8) -0.0642(2)
C21 C 0.67110(12) 0.79994(8) 0.0010(2)
H27 H 0.6739 0.8386 0.0034
C22 C 0.74791(11) 0.76930(7) 0.0641(2)
C23 C 0.82797(11) 0.79565(7) 0.1317(2)
C24 C 0.83370(13) 0.85832(7) 0.1348(3)
H28 H 0.8083 0.8730 0.0249
H29 H 0.8962 0.8695 0.1492
H30 H 0.8003 0.8724 0.2325
C25 C 0.90210(11) 0.76308(7) 0.1973(2)
C26 C 0.98340(11) 0.78708(7) 0.2699(2)
H31 H 0.9882 0.8257 0.2742
C27 C 1.05584(11) 0.75547(8) 0.3347(2)
C28 C 1.13707(12) 0.78056(8) 0.4102(3)
H32 H 1.1413 0.8192 0.4166
C29 C 1.20777(13) 0.74887(9) 0.4724(3)
H33 H 1.2599 0.7658 0.5209
C30 C 1.20230(13) 0.68973(9) 0.4635(3)
H34 H 1.2513 0.6684 0.5054
C31 C 1.12674(13) 0.66397(8) 0.3949(3)
H35 H 1.1245 0.6253 0.3912
C32 C 1.05017(11) 0.69569(8) 0.3279(2)
C33 C 0.97160(11) 0.67115(7) 0.2575(2)
H36 H 0.9681 0.6325 0.2530
C34 C 0.89688(11) 0.70279(7) 0.1925(2)
Si1 Si 0.75779(3) 0.49524(2) 0.13460(8)
loop_
_geom_bond_atom_site_label_1
_geom_bond_atom_site_label_2
_geom_bond_site_symmetry_1
_geom_bond_site_symmetry_2
C1 C2 1_555 1_555
C2 Si1 1_555 1_555
C3 H1 1_555 1_555
C4 C3 1_555 1_555
H2 C4 1_555 1_555
H3 C4 1_555 1_555
H4 C4 1_555 1_555
C5 C3 1_555 1_555
H5 C5 1_555 1_555
H6 C5 1_555 1_555
H7 C5 1_555 1_555
C6 H8 1_555 1_555
C7 C6 1_555 1_555
H9 C7 1_555 1_555
H10 C7 1_555 1_555
H11 C7 1_555 1_555
C8 C6 1_555 1_555
H12 C8 1_555 1_555
H13 C8 1_555 1_555
H14 C8 1_555 1_555
C9 H15 1_555 1_555
C10 C9 1_555 1_555
H16 C10 1_555 1_555
H17 C10 1_555 1_555
H18 C10 1_555 1_555
C11 C9 1_555 1_555
H19 C11 1_555 1_555
H20 C11 1_555 1_555
H21 C11 1_555 1_555
C12 C1 1_555 1_555
C13 C12 1_555 1_555
C14 C13 1_555 1_555
H22 C14 1_555 1_555
C15 C14 1_555 1_555
C16 C15 1_555 1_555
H23 C16 1_555 1_555
C17 C16 1_555 1_555
H24 C17 1_555 1_555
C18 C17 1_555 1_555
H25 C18 1_555 1_555
C19 C18 1_555 1_555
H26 C19 1_555 1_555
C20 C15 1_555 1_555
C21 C20 1_555 1_555
H27 C21 1_555 1_555
C22 C13 1_555 1_555
C23 C22 1_555 1_555
C24 C23 1_555 1_555
H28 C24 1_555 1_555
H29 C24 1_555 1_555
H30 C24 1_555 1_555
C25 C23 1_555 1_555
C26 C25 1_555 1_555
H31 C26 1_555 1_555
C27 C26 1_555 1_555
C28 C27 1_555 1_555
H32 C28 1_555 1_555
C29 C28 1_555 1_555
H33 C29 1_555 1_555
C30 C29 1_555 1_555
H34 C30 1_555 1_555
C31 C30 1_555 1_555
H35 C31 1_555 1_555
C32 C27 1_555 1_555
C33 C32 1_555 1_555
H36 C33 1_555 1_555
C34 C12 1_555 1_555
Si1 C3 1_555 1_555
C6 Si1 1_555 1_555
C9 Si1 1_555 1_555
C19 C20 1_555 1_555
C21 C22 1_555 1_555
C25 C34 1_555 1_555
C31 C32 1_555 1_555
C33 C34 1_555 1_555

#END
