
#######################################################################
#
#                 Cambridge Crystallographic Data Centre
#                                CCDC 
#
#######################################################################
#
# If this CIF has been generated from an entry in the Cambridge 
# Structural Database, then it will include bibliographic, chemical, 
# crystal, experimental, refinement or atomic coordinate data resulting 
# from the CCDC's data processing and validation procedures.
#
#######################################################################

data_ZAXDUA
_chemical_formula_moiety         'C25 H22 Br1 N1'
_chemical_name_systematic        
4-(4-bromophenyl)-1-(4-(phenylethynyl)phenyl)piperidine
_symmetry_cell_setting           monoclinic
_symmetry_space_group_name_H-M   'P 21/c'
_symmetry_Int_Tables_number      14
_space_group_name_Hall           '-P 2ybc'
loop_
_symmetry_equiv_pos_site_id
_symmetry_equiv_pos_as_xyz
1 x,y,z
2 -x,1/2+y,1/2-z
3 -x,-y,-z
4 x,1/2-y,1/2+z
_cell_length_a                   5.8554(4)
_cell_length_b                   7.3647(5)
_cell_length_c                   44.547(3)
_cell_angle_alpha                90
_cell_angle_beta                 91.953(2)
_cell_angle_gamma                90
_cell_volume                     1919.9
_exptl_crystal_colour            colorless
_exptl_crystal_description       plate
_cell_formula_units_Z            4
loop_
_atom_site_label
_atom_site_type_symbol
_atom_site_fract_x
_atom_site_fract_y
_atom_site_fract_z
Br1 Br 1.05005(4) 0.24940(3) 0.49123(2)
N1 N 0.8016(3) 0.4718(2) 0.29531(3)
C1 C 0.9946(4) 0.3335(3) 0.45146(4)
C2 C 1.1506(4) 0.2921(3) 0.42999(5)
H1 H 1.2852 0.2254 0.4352
C3 C 1.1070(3) 0.3498(3) 0.40064(4)
H2 H 1.2135 0.3218 0.3857
C4 C 0.9117(3) 0.4471(3) 0.39267(4)
C5 C 0.8553(3) 0.5079(3) 0.36073(4)
H3 H 0.7881 0.6326 0.3616
C6 C 1.0580(3) 0.5143(3) 0.34012(4)
H4 H 1.1770 0.5958 0.3489
H5 H 1.1247 0.3913 0.3385
C7 C 0.9857(3) 0.5820(3) 0.30894(4)
H6 H 0.9337 0.7096 0.3104
H7 H 1.1190 0.5793 0.2959
C8 C 0.7581(3) 0.4869(3) 0.26442(4)
C9 C 0.9150(3) 0.5676(3) 0.24523(4)
H8 H 1.0483 0.6240 0.2536
C10 C 0.8793(3) 0.5664(3) 0.21442(4)
H9 H 0.9909 0.6188 0.2021
C11 C 0.6830(3) 0.4900(3) 0.20099(4)
C12 C 0.6495(3) 0.4787(3) 0.16898(4)
C13 C 0.6182(3) 0.4598(3) 0.14242(5)
C14 C 0.5894(3) 0.4280(3) 0.11064(4)
C15 C 0.3896(3) 0.4801(3) 0.09472(5)
H10 H 0.2701 0.5388 0.1049
C16 C 0.3664(4) 0.4459(3) 0.06420(5)
H11 H 0.2310 0.4817 0.0534
C17 C 0.5398(4) 0.3596(3) 0.04927(4)
H12 H 0.5230 0.3368 0.0283
C18 C 0.7578(3) 0.4874(3) 0.41507(4)
H13 H 0.6237 0.5550 0.4101
C19 C 0.7977(4) 0.4305(3) 0.44441(4)
H14 H 0.6916 0.4576 0.4594
C20 C 0.5581(3) 0.4149(3) 0.25075(5)
H15 H 0.4450 0.3635 0.2630
C21 C 0.5226(3) 0.4171(3) 0.22007(4)
H16 H 0.3850 0.3676 0.2116
C22 C 0.7628(3) 0.3419(3) 0.09524(4)
H17 H 0.8997 0.3072 0.1058
C23 C 0.7373(4) 0.3068(3) 0.06486(5)
H18 H 0.8552 0.2464 0.0547
C24 C 0.6057(3) 0.4498(3) 0.31463(4)
H19 H 0.4969 0.3621 0.3052
H20 H 0.5261 0.5677 0.3164
C25 C 0.6779(3) 0.3826(3) 0.34590(4)
H21 H 0.5422 0.3761 0.3585
H22 H 0.7423 0.2588 0.3444
loop_
_geom_bond_atom_site_label_1
_geom_bond_atom_site_label_2
_geom_bond_site_symmetry_1
_geom_bond_site_symmetry_2
Br1 C1 1_555 1_555
N1 C7 1_555 1_555
C1 C2 1_555 1_555
C2 H1 1_555 1_555
C3 C2 1_555 1_555
H2 C3 1_555 1_555
C4 C3 1_555 1_555
C5 C4 1_555 1_555
H3 C5 1_555 1_555
C6 C5 1_555 1_555
H4 C6 1_555 1_555
H5 C6 1_555 1_555
C7 C6 1_555 1_555
H6 C7 1_555 1_555
H7 C7 1_555 1_555
C8 N1 1_555 1_555
C9 C8 1_555 1_555
H8 C9 1_555 1_555
C10 C9 1_555 1_555
H9 C10 1_555 1_555
C11 C10 1_555 1_555
C12 C11 1_555 1_555
C13 C12 1_555 1_555
C14 C13 1_555 1_555
C15 C14 1_555 1_555
H10 C15 1_555 1_555
C16 C15 1_555 1_555
H11 C16 1_555 1_555
C17 C16 1_555 1_555
H12 C17 1_555 1_555
C18 C4 1_555 1_555
H13 C18 1_555 1_555
C19 C1 1_555 1_555
H14 C19 1_555 1_555
C20 C8 1_555 1_555
H15 C20 1_555 1_555
C21 C11 1_555 1_555
H16 C21 1_555 1_555
C22 C14 1_555 1_555
H17 C22 1_555 1_555
C23 C17 1_555 1_555
H18 C23 1_555 1_555
C24 N1 1_555 1_555
H19 C24 1_555 1_555
H20 C24 1_555 1_555
C25 C5 1_555 1_555
H21 C25 1_555 1_555
H22 C25 1_555 1_555
C18 C19 1_555 1_555
C20 C21 1_555 1_555
C22 C23 1_555 1_555
C24 C25 1_555 1_555

#END
