
#######################################################################
#
#                 Cambridge Crystallographic Data Centre
#                                CCDC 
#
#######################################################################
#
# If this CIF has been generated from an entry in the Cambridge 
# Structural Database, then it will include bibliographic, chemical, 
# crystal, experimental, refinement or atomic coordinate data resulting 
# from the CCDC's data processing and validation procedures.
#
#######################################################################

data_ZAXJUG
_chemical_formula_moiety         'C58 H64 B2 Ba1 N2 O2 P2,2(C4 H8 O1)'
_chemical_name_systematic        
'bis([N-(diphenylmethyl)-P,P-diphenylphosphorimidoyl](trihydrido)borato)-bis(tetrahydrofuran)-barium tetrahydrofuran solvate'
_symmetry_cell_setting           triclinic
_symmetry_space_group_name_H-M   'P -1'
_symmetry_Int_Tables_number      2
_space_group_name_Hall           '-P 1'
loop_
_symmetry_equiv_pos_site_id
_symmetry_equiv_pos_as_xyz
1 x,y,z
2 -x,-y,-z
_cell_length_a                   10.1805(7)
_cell_length_b                   10.6809(6)
_cell_length_c                   15.0344(10)
_cell_angle_alpha                98.317(5)
_cell_angle_beta                 102.864(6)
_cell_angle_gamma                102.762(5)
_cell_volume                     1521.75
_exptl_crystal_colour            colorless
_exptl_crystal_description       block
_cell_formula_units_Z            1
loop_
_atom_site_label
_atom_site_type_symbol
_atom_site_fract_x
_atom_site_fract_y
_atom_site_fract_z
Ba1 Ba 0.0000 0.5000 0.0000
P1 P -0.01556(18) 0.56947(16) 0.23346(12)
O1 O -0.2012(6) 0.6309(6) -0.0607(4)
N1 N 0.0607(6) 0.6583(6) 0.1717(4)
B1 B -0.1423(9) 0.4105(8) 0.1550(6)
C1 C 0.1558(7) 0.7866(7) 0.2189(5)
H1 H 0.2002 0.7814 0.2826
C2 C 0.0835(8) 0.8968(7) 0.2235(5)
C3 C 0.1432(10) 1.0082(8) 0.2942(6)
H2 H 0.2256 1.0128 0.3380
C4 C 0.0825(12) 1.1120(9) 0.3009(7)
H3 H 0.1235 1.1845 0.3495
C5 C -0.0374(11) 1.1087(9) 0.2364(7)
H4 H -0.0760 1.1799 0.2388
C6 C -0.0993(10) 0.9979(10) 0.1680(8)
H5 H -0.1829 0.9933 0.1255
C7 C -0.0398(9) 0.8907(8) 0.1604(6)
H6 H -0.0834 0.8168 0.1133
C8 C 0.2688(8) 0.8175(7) 0.1682(5)
C9 C 0.4085(9) 0.8356(9) 0.2118(6)
H7 H 0.4337 0.8294 0.2741
C10 C 0.5111(9) 0.8622(11) 0.1663(7)
H8 H 0.6043 0.8763 0.1979
C11 C 0.4746(9) 0.8680(10) 0.0727(6)
H9 H 0.5434 0.8832 0.0410
C12 C 0.3362(9) 0.8512(7) 0.0262(6)
H10 H 0.3116 0.8567 -0.0362
C13 C 0.2349(8) 0.8262(7) 0.0744(5)
H11 H 0.1419 0.8150 0.0434
C14 C -0.1055(8) 0.6546(7) 0.3040(6)
C15 C -0.0360(9) 0.7548(7) 0.3801(6)
H12 H 0.0610 0.7766 0.4001
C16 C -0.1109(11) 0.8241(8) 0.4274(7)
H13 H -0.0634 0.8918 0.4784
C17 C -0.2540(11) 0.7920(10) 0.3984(8)
H14 H -0.3031 0.8389 0.4294
C18 C -0.3253(10) 0.6906(10) 0.3237(8)
H15 H -0.4223 0.6675 0.3051
C19 C -0.2526(8) 0.6245(8) 0.2773(6)
H16 H -0.3015 0.5572 0.2263
C20 C 0.1142(7) 0.5267(6) 0.3211(5)
C21 C 0.2431(8) 0.5243(7) 0.3052(5)
H17 H 0.2651 0.5513 0.2530
C22 C 0.3396(8) 0.4818(8) 0.3669(5)
H18 H 0.4245 0.4784 0.3547
C23 C 0.3099(8) 0.4449(7) 0.4454(5)
H19 H 0.3753 0.4184 0.4870
C24 C 0.1821(8) 0.4473(7) 0.4626(5)
H20 H 0.1618 0.4222 0.5158
C25 C 0.0840(8) 0.4873(7) 0.4003(5)
H21 H -0.0020 0.4876 0.4117
C26 C -0.3424(10) 0.5962(12) -0.0521(8)
H22 H -0.3459 0.6317 0.0102
H23 H -0.3792 0.5017 -0.0649
C27 C -0.4243(10) 0.6555(11) -0.1231(7)
H24 H -0.5045 0.6748 -0.1048
H25 H -0.4555 0.5983 -0.1842
C28 C -0.3166(11) 0.7801(11) -0.1213(9)
H26 H -0.3367 0.8083 -0.1802
H27 H -0.3141 0.8502 -0.0716
C29 C -0.1817(9) 0.7420(9) -0.1044(7)
H28 H -0.1585 0.7194 -0.1628
H29 H -0.1066 0.8139 -0.0641
H30 H -0.210(7) 0.345(7) 0.197(5)
H31 H -0.076(8) 0.352(7) 0.126(5)
H32 H -0.226(11) 0.439(10) 0.098(7)
P1A P 0.01556(18) 0.43053(16) -0.23346(12)
O1A O 0.2012(6) 0.3691(6) 0.0607(4)
N1A N -0.0607(6) 0.3417(6) -0.1717(4)
B1A B 0.1423(9) 0.5895(8) -0.1550(6)
C1A C -0.1558(7) 0.2134(7) -0.2189(5)
H1A H -0.2002 0.2186 -0.2826
C2A C -0.0835(8) 0.1032(7) -0.2235(5)
C3A C -0.1432(10) -0.0082(8) -0.2942(6)
H2A H -0.2256 -0.0128 -0.3380
C4A C -0.0825(12) -0.1120(9) -0.3009(7)
H3A H -0.1235 -0.1845 -0.3495
C5A C 0.0374(11) -0.1087(9) -0.2364(7)
H4A H 0.0760 -0.1799 -0.2388
C6A C 0.0993(10) 0.0021(10) -0.1680(8)
H5A H 0.1829 0.0067 -0.1255
C7A C 0.0398(9) 0.1093(8) -0.1604(6)
H6A H 0.0834 0.1832 -0.1133
C8A C -0.2688(8) 0.1825(7) -0.1682(5)
C9A C -0.4085(9) 0.1644(9) -0.2118(6)
H7A H -0.4337 0.1706 -0.2741
C10A C -0.5111(9) 0.1378(11) -0.1663(7)
H8A H -0.6043 0.1237 -0.1979
C11A C -0.4746(9) 0.1320(10) -0.0727(6)
H9A H -0.5434 0.1168 -0.0410
C12A C -0.3362(9) 0.1488(7) -0.0262(6)
H10A H -0.3116 0.1433 0.0362
C13A C -0.2349(8) 0.1738(7) -0.0744(5)
H11A H -0.1419 0.1850 -0.0434
C14A C 0.1055(8) 0.3454(7) -0.3040(6)
C15A C 0.0360(9) 0.2452(7) -0.3801(6)
H12A H -0.0610 0.2234 -0.4001
C16A C 0.1109(11) 0.1759(8) -0.4274(7)
H13A H 0.0634 0.1082 -0.4784
C17A C 0.2540(11) 0.2080(10) -0.3984(8)
H14A H 0.3031 0.1611 -0.4294
C18A C 0.3253(10) 0.3094(10) -0.3237(8)
H15A H 0.4223 0.3325 -0.3051
C19A C 0.2526(8) 0.3755(8) -0.2773(6)
H16A H 0.3015 0.4428 -0.2263
C20A C -0.1142(7) 0.4733(6) -0.3211(5)
C21A C -0.2431(8) 0.4757(7) -0.3052(5)
H17A H -0.2651 0.4487 -0.2530
C22A C -0.3396(8) 0.5182(8) -0.3669(5)
H18A H -0.4245 0.5216 -0.3547
C23A C -0.3099(8) 0.5551(7) -0.4454(5)
H19A H -0.3753 0.5816 -0.4870
C24A C -0.1821(8) 0.5527(7) -0.4626(5)
H20A H -0.1618 0.5778 -0.5158
C25A C -0.0840(8) 0.5127(7) -0.4003(5)
H21A H 0.0020 0.5124 -0.4117
C26A C 0.3424(10) 0.4038(12) 0.0521(8)
H22A H 0.3459 0.3683 -0.0102
H23A H 0.3792 0.4983 0.0649
C27A C 0.4243(10) 0.3445(11) 0.1231(7)
H24A H 0.5045 0.3252 0.1048
H25A H 0.4555 0.4017 0.1842
C28A C 0.3166(11) 0.2199(11) 0.1213(9)
H26A H 0.3367 0.1917 0.1802
H27A H 0.3141 0.1498 0.0716
C29A C 0.1817(9) 0.2580(9) 0.1044(7)
H28A H 0.1585 0.2806 0.1628
H29A H 0.1066 0.1861 0.0641
H30A H 0.210(7) 0.655(7) -0.197(5)
H31A H 0.076(8) 0.648(7) -0.126(5)
H32A H 0.226(11) 0.561(10) -0.098(7)
O2 O 0.3090(9) 0.9029(8) 0.5310(6)
C30 C 0.4054(14) 0.8293(11) 0.5163(9)
H33 H 0.4815 0.8813 0.4976
H34 H 0.3596 0.7510 0.4682
C31 C 0.4582(13) 0.7937(15) 0.6077(10)
H35 H 0.4736 0.7069 0.5983
H36 H 0.5454 0.8563 0.6431
C32 C 0.3505(16) 0.7971(15) 0.6559(11)
H37 H 0.3904 0.8481 0.7189
H38 H 0.3029 0.7091 0.6588
C33 C 0.2533(13) 0.8582(13) 0.6018(8)
H39 H 0.1634 0.7950 0.5746
H40 H 0.2398 0.9312 0.6421
loop_
_geom_bond_atom_site_label_1
_geom_bond_atom_site_label_2
_geom_bond_site_symmetry_1
_geom_bond_site_symmetry_2
Ba1 O1 1_555 1_555
P1 N1 1_555 1_555
O1 C26 1_555 1_555
N1 Ba1 1_555 1_555
B1 P1 1_555 1_555
C1 N1 1_555 1_555
H1 C1 1_555 1_555
C2 C1 1_555 1_555
C3 C2 1_555 1_555
H2 C3 1_555 1_555
C4 C3 1_555 1_555
H3 C4 1_555 1_555
C5 C4 1_555 1_555
H4 C5 1_555 1_555
C6 C5 1_555 1_555
H5 C6 1_555 1_555
C7 C2 1_555 1_555
H6 C7 1_555 1_555
C8 C1 1_555 1_555
C9 C8 1_555 1_555
H7 C9 1_555 1_555
C10 C9 1_555 1_555
H8 C10 1_555 1_555
C11 C10 1_555 1_555
H9 C11 1_555 1_555
C12 C11 1_555 1_555
H10 C12 1_555 1_555
C13 C8 1_555 1_555
H11 C13 1_555 1_555
C14 P1 1_555 1_555
C15 C14 1_555 1_555
H12 C15 1_555 1_555
C16 C15 1_555 1_555
H13 C16 1_555 1_555
C17 C16 1_555 1_555
H14 C17 1_555 1_555
C18 C17 1_555 1_555
H15 C18 1_555 1_555
C19 C14 1_555 1_555
H16 C19 1_555 1_555
C20 P1 1_555 1_555
C21 C20 1_555 1_555
H17 C21 1_555 1_555
C22 C21 1_555 1_555
H18 C22 1_555 1_555
C23 C22 1_555 1_555
H19 C23 1_555 1_555
C24 C23 1_555 1_555
H20 C24 1_555 1_555
C25 C20 1_555 1_555
H21 C25 1_555 1_555
C26 H22 1_555 1_555
H23 C26 1_555 1_555
C27 C26 1_555 1_555
H24 C27 1_555 1_555
H25 C27 1_555 1_555
C28 C27 1_555 1_555
H26 C28 1_555 1_555
H27 C28 1_555 1_555
C29 O1 1_555 1_555
H28 C29 1_555 1_555
H29 C29 1_555 1_555
H30 B1 1_555 1_555
H31 Ba1 1_555 1_555
H32 B1 1_555 1_555
O2 C30 1_555 1_555
C30 H33 1_555 1_555
H34 C30 1_555 1_555
C31 C30 1_555 1_555
H35 C31 1_555 1_555
H36 C31 1_555 1_555
C32 C31 1_555 1_555
H37 C32 1_555 1_555
H38 C32 1_555 1_555
C33 O2 1_555 1_555
H39 C33 1_555 1_555
H40 C33 1_555 1_555
P1A N1A 1_555 1_555
O1A Ba1 1_555 1_555
N1A Ba1 1_555 1_555
B1A P1A 1_555 1_555
C1A N1A 1_555 1_555
H1A C1A 1_555 1_555
C2A C1A 1_555 1_555
C3A C2A 1_555 1_555
H2A C3A 1_555 1_555
C4A C3A 1_555 1_555
H3A C4A 1_555 1_555
C5A C4A 1_555 1_555
H4A C5A 1_555 1_555
C6A C5A 1_555 1_555
H5A C6A 1_555 1_555
C7A C2A 1_555 1_555
H6A C7A 1_555 1_555
C8A C1A 1_555 1_555
C9A C8A 1_555 1_555
H7A C9A 1_555 1_555
C10A C9A 1_555 1_555
H8A C10A 1_555 1_555
C11A C10A 1_555 1_555
H9A C11A 1_555 1_555
C12A C11A 1_555 1_555
H10A C12A 1_555 1_555
C13A C8A 1_555 1_555
H11A C13A 1_555 1_555
C14A P1A 1_555 1_555
C15A C14A 1_555 1_555
H12A C15A 1_555 1_555
C16A C15A 1_555 1_555
H13A C16A 1_555 1_555
C17A C16A 1_555 1_555
H14A C17A 1_555 1_555
C18A C17A 1_555 1_555
H15A C18A 1_555 1_555
C19A C14A 1_555 1_555
H16A C19A 1_555 1_555
C20A P1A 1_555 1_555
C21A C20A 1_555 1_555
H17A C21A 1_555 1_555
C22A C21A 1_555 1_555
H18A C22A 1_555 1_555
C23A C22A 1_555 1_555
H19A C23A 1_555 1_555
C24A C23A 1_555 1_555
H20A C24A 1_555 1_555
C25A C20A 1_555 1_555
H21A C25A 1_555 1_555
C26A O1A 1_555 1_555
H22A C26A 1_555 1_555
H23A C26A 1_555 1_555
C27A C26A 1_555 1_555
H24A C27A 1_555 1_555
H25A C27A 1_555 1_555
C28A C27A 1_555 1_555
H26A C28A 1_555 1_555
H27A C28A 1_555 1_555
C29A O1A 1_555 1_555
H28A C29A 1_555 1_555
H29A C29A 1_555 1_555
H30A B1A 1_555 1_555
H31A Ba1 1_555 1_555
H32A B1A 1_555 1_555
B1 H31 1_555 1_555
C6 C7 1_555 1_555
C12 C13 1_555 1_555
C18 C19 1_555 1_555
C24 C25 1_555 1_555
C28 C29 1_555 1_555
C32 C33 1_555 1_555
B1A H31A 1_555 1_555
C6A C7A 1_555 1_555
C12A C13A 1_555 1_555
C18A C19A 1_555 1_555
C24A C25A 1_555 1_555
C28A C29A 1_555 1_555

#END
