
#######################################################################
#
#                 Cambridge Crystallographic Data Centre
#                                CCDC 
#
#######################################################################
#
# If this CIF has been generated from an entry in the Cambridge 
# Structural Database, then it will include bibliographic, chemical, 
# crystal, experimental, refinement or atomic coordinate data resulting 
# from the CCDC's data processing and validation procedures.
#
#######################################################################

data_ZAXJEQ
_chemical_formula_moiety         'C16 H14 N1 P1 Se1'
_chemical_name_systematic        1-(diphenylphosphoroselenoyl)-1H-pyrrole
_symmetry_cell_setting           triclinic
_symmetry_space_group_name_H-M   'P -1'
_symmetry_Int_Tables_number      2
_space_group_name_Hall           '-P 1'
loop_
_symmetry_equiv_pos_site_id
_symmetry_equiv_pos_as_xyz
1 x,y,z
2 -x,-y,-z
_cell_length_a                   8.7178(10)
_cell_length_b                   9.4336(16)
_cell_length_c                   18.730(3)
_cell_angle_alpha                76.722(14)
_cell_angle_beta                 87.174(11)
_cell_angle_gamma                78.346(12)
_cell_volume                     1468.27
_exptl_crystal_colour            colorless
_exptl_crystal_description       plates
_cell_formula_units_Z            4
loop_
_atom_site_label
_atom_site_type_symbol
_atom_site_fract_x
_atom_site_fract_y
_atom_site_fract_z
Se1 Se 0.66042(16) 0.27728(13) 0.19979(6)
P1 P 0.6003(3) 0.1664(3) 0.12379(13)
C1 C 0.5622(15) -0.1297(13) 0.1491(6)
H1 H 0.4579 -0.0931 0.1358
N1 N 0.6861(12) 0.2159(10) 0.0393(5)
C2 C 0.8757(16) -0.2439(14) 0.1899(6)
H2 H 0.9799 -0.2823 0.2030
C3 C 0.6639(14) -0.0304(14) 0.1484(5)
C4 C 0.7385(17) 0.3708(15) -0.0653(7)
H3 H 0.7482 0.4559 -0.1005
C5 C 0.3381(15) 0.2410(13) 0.0334(6)
H4 H 0.4073 0.2428 -0.0061
C6 C 0.7714(19) -0.3369(15) 0.1905(7)
H5 H 0.8056 -0.4391 0.2052
C7 C 0.1758(19) 0.2754(16) 0.0213(7)
H6 H 0.1375 0.3033 -0.0264
C8 C 0.2893(14) 0.2025(16) 0.1631(7)
H7 H 0.3256 0.1802 0.2110
C9 C 0.126(2) 0.235(2) 0.1498(8)
H8 H 0.0557 0.2333 0.1886
C10 C 0.780(2) 0.212(2) -0.0728(7)
H9 H 0.8229 0.1792 -0.1141
C11 C 0.3955(13) 0.2037(12) 0.1054(5)
C12 C 0.7438(15) 0.1234(15) -0.0078(6)
H10 H 0.7557 0.0206 0.0027
C13 C 0.6844(14) 0.3620(14) 0.0037(6)
H11 H 0.6504 0.4432 0.0247
C14 C 0.0742(17) 0.2683(18) 0.0789(8)
H12 H -0.0329 0.2865 0.0700
C15 C 0.8211(16) -0.0923(14) 0.1692(6)
H13 H 0.8901 -0.0289 0.1691
C16 C 0.6175(17) -0.2807(15) 0.1696(7)
H14 H 0.5502 -0.3455 0.1694
Se2 Se 0.84667(16) 0.00082(14) 0.65877(6)
P2 P 0.9144(3) 0.1964(3) 0.60133(12)
C17 C 1.1798(15) 0.2184(13) 0.5113(6)
H15 H 1.1123 0.2646 0.4722
C18 C 0.8152(13) 0.2783(12) 0.5161(5)
C19 C 0.8764(19) 0.5503(16) 0.6811(7)
H16 H 0.9035 0.6385 0.6851
C20 C 0.8193(15) 0.1952(12) 0.4630(6)
H17 H 0.8720 0.0967 0.4726
C21 C 1.3416(14) 0.1912(14) 0.4999(7)
H18 H 1.3809 0.2177 0.4527
C22 C 0.7464(15) 0.2578(13) 0.3969(6)
H19 H 0.7542 0.2020 0.3614
C23 C 0.7287(13) 0.4236(11) 0.5002(6)
H20 H 0.7206 0.4816 0.5347
C24 C 1.1200(13) 0.1753(11) 0.5820(6)
N2 N 0.8772(13) 0.3350(11) 0.6506(5)
C25 C 0.7455(15) 0.3560(17) 0.6954(6)
H21 H 0.6741 0.2934 0.7088
C26 C 0.6626(18) 0.4000(16) 0.3816(7)
H22 H 0.6118 0.4401 0.3369
C27 C 1.2238(12) 0.1071(13) 0.6393(6)
H23 H 1.1857 0.0765 0.6864
C28 C 0.9534(14) 0.4508(13) 0.6413(5)
H24 H 1.0426 0.4611 0.6128
C29 C 1.3872(18) 0.0838(16) 0.6264(7)
H25 H 1.4567 0.0396 0.6649
C30 C 0.6551(17) 0.4809(15) 0.4327(6)
H26 H 0.5988 0.5781 0.4226
C31 C 0.7424(18) 0.4875(17) 0.7158(7)
H27 H 0.6683 0.5296 0.7463
C32 C 1.4424(17) 0.1270(15) 0.5562(7)
H28 H 1.5497 0.1120 0.5474
loop_
_geom_bond_atom_site_label_1
_geom_bond_atom_site_label_2
_geom_bond_site_symmetry_1
_geom_bond_site_symmetry_2
Se1 P1 1_555 1_555
P1 N1 1_555 1_555
C1 H1 1_555 1_555
N1 C12 1_555 1_555
C2 H2 1_555 1_555
C3 P1 1_555 1_555
C4 H3 1_555 1_555
C5 H4 1_555 1_555
C6 C2 1_555 1_555
H5 C6 1_555 1_555
C7 C5 1_555 1_555
H6 C7 1_555 1_555
C8 H7 1_555 1_555
C9 C8 1_555 1_555
H8 C9 1_555 1_555
C10 C4 1_555 1_555
H9 C10 1_555 1_555
C11 P1 1_555 1_555
C12 C10 1_555 1_555
H10 C12 1_555 1_555
C13 N1 1_555 1_555
H11 C13 1_555 1_555
C14 C7 1_555 1_555
H12 C14 1_555 1_555
C15 C2 1_555 1_555
H13 C15 1_555 1_555
C16 C1 1_555 1_555
H14 C16 1_555 1_555
Se2 P2 1_555 1_555
P2 C18 1_555 1_555
C17 H15 1_555 1_555
C18 C20 1_555 1_555
C19 H16 1_555 1_555
C20 H17 1_555 1_555
C21 C17 1_555 1_555
H18 C21 1_555 1_555
C22 C20 1_555 1_555
H19 C22 1_555 1_555
C23 C18 1_555 1_555
H20 C23 1_555 1_555
C24 P2 1_555 1_555
N2 P2 1_555 1_555
C25 N2 1_555 1_555
H21 C25 1_555 1_555
C26 C22 1_555 1_555
H22 C26 1_555 1_555
C27 C24 1_555 1_555
H23 C27 1_555 1_555
C28 C19 1_555 1_555
H24 C28 1_555 1_555
C29 C27 1_555 1_555
H25 C29 1_555 1_555
C30 C23 1_555 1_555
H26 C30 1_555 1_555
C31 C19 1_555 1_555
H27 C31 1_555 1_555
C32 C21 1_555 1_555
H28 C32 1_555 1_555
C1 C3 1_555 1_555
C3 C15 1_555 1_555
C4 C13 1_555 1_555
C5 C11 1_555 1_555
C6 C16 1_555 1_555
C8 C11 1_555 1_555
C9 C14 1_555 1_555
C17 C24 1_555 1_555
N2 C28 1_555 1_555
C25 C31 1_555 1_555
C26 C30 1_555 1_555
C29 C32 1_555 1_555

#END
