
#######################################################################
#
#                 Cambridge Crystallographic Data Centre
#                                CCDC 
#
#######################################################################
#
# If this CIF has been generated from an entry in the Cambridge 
# Structural Database, then it will include bibliographic, chemical, 
# crystal, experimental, refinement or atomic coordinate data resulting 
# from the CCDC's data processing and validation procedures.
#
#######################################################################

data_ZAXKOB
_chemical_formula_moiety         'C58 H64 B2 Ca1 N2 O2 P2,2(C4 H8 O1)'
_chemical_name_systematic        
'bis([N-(diphenylmethyl)-P,P-diphenylphosphorimidoyl](trihydrido)borato)-bis(tetrahydrofuran)-calcium tetrahydrofuran solvate'
_symmetry_cell_setting           triclinic
_symmetry_space_group_name_H-M   'P -1'
_symmetry_Int_Tables_number      2
_space_group_name_Hall           '-P 1'
loop_
_symmetry_equiv_pos_site_id
_symmetry_equiv_pos_as_xyz
1 x,y,z
2 -x,-y,-z
_cell_length_a                   10.3720(4)
_cell_length_b                   10.7801(5)
_cell_length_c                   14.3830(6)
_cell_angle_alpha                100.239(4)
_cell_angle_beta                 102.076(4)
_cell_angle_gamma                101.623(4)
_cell_volume                     1499.2
_exptl_crystal_colour            colorless
_exptl_crystal_description       block
_cell_formula_units_Z            1
loop_
_atom_site_label
_atom_site_type_symbol
_atom_site_fract_x
_atom_site_fract_y
_atom_site_fract_z
Ca1 Ca 0.5000 0.5000 0.0000
P1 P 0.49223(4) 0.57001(4) 0.22638(3)
N1 N 0.56494(14) 0.65336(13) 0.15975(10)
B1 B 0.3732(2) 0.41184(19) 0.14212(15)
H1 H 0.3092 0.4409 0.0774
H2 H 0.4426 0.3579 0.1097
H3 H 0.3207 0.3576 0.1834
O1 O 0.31184(13) 0.60550(13) -0.05556(9)
C1 C 0.65669(17) 0.78171(16) 0.21092(12)
H4 H 0.6983 0.7763 0.2774
C2 C 0.77057(17) 0.81254(16) 0.16039(13)
C3 C 0.74317(19) 0.83781(18) 0.06786(13)
H5 H 0.6548 0.8378 0.0372
C4 C 0.8458(2) 0.86301(19) 0.02069(15)
H6 H 0.8257 0.8778 -0.0419
C5 C 0.9777(2) 0.8661(2) 0.06638(17)
H7 H 1.0467 0.8835 0.0348
C6 C 1.0071(2) 0.8434(3) 0.1590(2)
H8 H 1.0961 0.8461 0.1901
C7 C 0.9037(2) 0.8166(2) 0.20571(17)
H9 H 0.9241 0.8012 0.2681
C8 C 0.58583(18) 0.89295(16) 0.21894(12)
C9 C 0.4577(2) 0.88304(19) 0.16176(14)
H10 H 0.4097 0.8049 0.1181
C10 C 0.3998(2) 0.9888(2) 0.16893(18)
H11 H 0.3137 0.9809 0.1298
C11 C 0.4691(3) 1.1055(2) 0.23368(18)
H12 H 0.4307 1.1765 0.2377
C12 C 0.5958(3) 1.1154(2) 0.29229(18)
H13 H 0.6426 1.1931 0.3370
C13 C 0.6538(2) 1.01063(19) 0.28516(16)
H14 H 0.7395 1.0187 0.3251
C14 C 0.40088(19) 0.65668(17) 0.30094(13)
C15 C 0.2593(2) 0.6249(2) 0.27336(15)
H15 H 0.2127 0.5575 0.2194
C16 C 0.1869(2) 0.6928(2) 0.32572(19)
H16 H 0.0923 0.6703 0.3068
C17 C 0.2544(3) 0.7931(2) 0.4052(2)
H17 H 0.2057 0.8390 0.4397
C18 C 0.3951(3) 0.8255(2) 0.43381(19)
H18 H 0.4407 0.8929 0.4880
C19 C 0.4691(2) 0.75796(18) 0.38212(15)
H19 H 0.5637 0.7804 0.4017
C20 C 0.61967(17) 0.53144(16) 0.31828(12)
C21 C 0.74835(18) 0.53361(17) 0.30372(13)
H20 H 0.7713 0.5619 0.2505
C22 C 0.84305(18) 0.49390(18) 0.36798(13)
H21 H 0.9289 0.4958 0.3575
C23 C 0.81028(19) 0.45169(18) 0.44729(13)
H22 H 0.8738 0.4251 0.4901
C24 C 0.6825(2) 0.44914(18) 0.46275(13)
H23 H 0.6603 0.4213 0.5163
C25 C 0.58740(18) 0.48807(17) 0.39847(13)
H24 H 0.5014 0.4852 0.4089
C26 C 0.3259(2) 0.71888(19) -0.09760(15)
H25 H 0.3409 0.6972 -0.1622
H26 H 0.4021 0.7883 -0.0568
C27 C 0.1948(2) 0.7599(3) -0.1031(2)
H27 H 0.1722 0.7972 -0.1591
H28 H 0.1999 0.8228 -0.0442
C28 C 0.0912(2) 0.6325(2) -0.11329(16)
H29 H 0.0129 0.6478 -0.0904
H30 H 0.0608 0.5824 -0.1804
C29 C 0.1732(2) 0.5659(2) -0.04844(17)
H31 H 0.1681 0.5920 0.0185
H32 H 0.1393 0.4722 -0.0701
P1A P 0.50777(4) 0.42999(4) -0.22638(3)
N1A N 0.43506(14) 0.34664(13) -0.15975(10)
B1A B 0.6268(2) 0.58816(19) -0.14212(15)
H1A H 0.6908 0.5591 -0.0774
H2A H 0.5574 0.6421 -0.1097
H3A H 0.6793 0.6424 -0.1834
O1A O 0.68816(13) 0.39450(13) 0.05556(9)
C1A C 0.34331(17) 0.21829(16) -0.21092(12)
H4A H 0.3017 0.2237 -0.2774
C2A C 0.22943(17) 0.18746(16) -0.16039(13)
C3A C 0.25683(19) 0.16219(18) -0.06786(13)
H5A H 0.3452 0.1622 -0.0372
C4A C 0.1542(2) 0.13699(19) -0.02069(15)
H6A H 0.1743 0.1222 0.0419
C5A C 0.0223(2) 0.1339(2) -0.06638(17)
H7A H -0.0467 0.1165 -0.0348
C6A C -0.0071(2) 0.1566(3) -0.1590(2)
H8A H -0.0961 0.1539 -0.1901
C7A C 0.0963(2) 0.1834(2) -0.20571(17)
H9A H 0.0759 0.1988 -0.2681
C8A C 0.41417(18) 0.10705(16) -0.21894(12)
C9A C 0.5423(2) 0.11696(19) -0.16176(14)
H10A H 0.5903 0.1951 -0.1181
C10A C 0.6002(2) 0.0112(2) -0.16893(18)
H11A H 0.6863 0.0191 -0.1298
C11A C 0.5309(3) -0.1055(2) -0.23368(18)
H12A H 0.5693 -0.1765 -0.2377
C12A C 0.4042(3) -0.1154(2) -0.29229(18)
H13A H 0.3574 -0.1931 -0.3370
C13A C 0.3462(2) -0.01063(19) -0.28516(16)
H14A H 0.2605 -0.0187 -0.3251
C14A C 0.59912(19) 0.34332(17) -0.30094(13)
C15A C 0.7407(2) 0.3751(2) -0.27336(15)
H15A H 0.7873 0.4425 -0.2194
C16A C 0.8131(2) 0.3072(2) -0.32572(19)
H16A H 0.9077 0.3297 -0.3068
C17A C 0.7456(3) 0.2069(2) -0.4052(2)
H17A H 0.7943 0.1610 -0.4397
C18A C 0.6049(3) 0.1745(2) -0.43381(19)
H18A H 0.5593 0.1071 -0.4880
C19A C 0.5309(2) 0.24204(18) -0.38212(15)
H19A H 0.4363 0.2196 -0.4017
C20A C 0.38033(17) 0.46856(16) -0.31828(12)
C21A C 0.25165(18) 0.46639(17) -0.30372(13)
H20A H 0.2287 0.4381 -0.2505
C22A C 0.15695(18) 0.50610(18) -0.36798(13)
H21A H 0.0711 0.5042 -0.3575
C23A C 0.18972(19) 0.54831(18) -0.44729(13)
H22A H 0.1262 0.5749 -0.4901
C24A C 0.3175(2) 0.55086(18) -0.46275(13)
H23A H 0.3397 0.5787 -0.5163
C25A C 0.41260(18) 0.51193(17) -0.39847(13)
H24A H 0.4986 0.5148 -0.4089
C26A C 0.6741(2) 0.28112(19) 0.09760(15)
H25A H 0.6591 0.3028 0.1622
H26A H 0.5979 0.2117 0.0568
C27A C 0.8052(2) 0.2401(3) 0.1031(2)
H27A H 0.8278 0.2028 0.1591
H28A H 0.8001 0.1772 0.0442
C28A C 0.9088(2) 0.3675(2) 0.11329(16)
H29A H 0.9871 0.3522 0.0904
H30A H 0.9392 0.4176 0.1804
C29A C 0.8268(2) 0.4341(2) 0.04844(17)
H31A H 0.8319 0.4080 -0.0185
H32A H 0.8607 0.5278 0.0701
O2 O 0.1780(3) 0.0998(3) 0.4611(2)
C30 C 0.2369(4) 0.1398(4) 0.3889(3)
H33 H 0.3242 0.1974 0.4172
H34 H 0.2513 0.0543 0.3564
C31 C 0.1428(5) 0.1977(5) 0.3271(3)
H35 H 0.1905 0.2825 0.3221
H36 H 0.1071 0.1422 0.2619
C32 C 0.0352(4) 0.2097(5) 0.3723(3)
H37 H 0.0162 0.2925 0.3929
H38 H -0.0488 0.1453 0.3378
C33 C 0.0672(6) 0.1620(4) 0.4613(3)
H39 H 0.0922 0.2342 0.5180
H40 H -0.0124 0.1004 0.4655
loop_
_geom_bond_atom_site_label_1
_geom_bond_atom_site_label_2
_geom_bond_site_symmetry_1
_geom_bond_site_symmetry_2
Ca1 N1 1_555 1_555
P1 N1 1_555 1_555
N1 C1 1_555 1_555
B1 P1 1_555 1_555
H1 B1 1_555 1_555
H2 B1 1_555 1_555
H3 B1 1_555 1_555
O1 Ca1 1_555 1_555
C1 H4 1_555 1_555
C2 C1 1_555 1_555
C3 C2 1_555 1_555
H5 C3 1_555 1_555
C4 C3 1_555 1_555
H6 C4 1_555 1_555
C5 C4 1_555 1_555
H7 C5 1_555 1_555
C6 C5 1_555 1_555
H8 C6 1_555 1_555
C7 C2 1_555 1_555
H9 C7 1_555 1_555
C8 C1 1_555 1_555
C9 C8 1_555 1_555
H10 C9 1_555 1_555
C10 C9 1_555 1_555
H11 C10 1_555 1_555
C11 C10 1_555 1_555
H12 C11 1_555 1_555
C12 C11 1_555 1_555
H13 C12 1_555 1_555
C13 C8 1_555 1_555
H14 C13 1_555 1_555
C14 P1 1_555 1_555
C15 C14 1_555 1_555
H15 C15 1_555 1_555
C16 C15 1_555 1_555
H16 C16 1_555 1_555
C17 C16 1_555 1_555
H17 C17 1_555 1_555
C18 C17 1_555 1_555
H18 C18 1_555 1_555
C19 C14 1_555 1_555
H19 C19 1_555 1_555
C20 P1 1_555 1_555
C21 C20 1_555 1_555
H20 C21 1_555 1_555
C22 C21 1_555 1_555
H21 C22 1_555 1_555
C23 C22 1_555 1_555
H22 C23 1_555 1_555
C24 C23 1_555 1_555
H23 C24 1_555 1_555
C25 C20 1_555 1_555
H24 C25 1_555 1_555
C26 O1 1_555 1_555
H25 C26 1_555 1_555
H26 C26 1_555 1_555
C27 C26 1_555 1_555
H27 C27 1_555 1_555
H28 C27 1_555 1_555
C28 C27 1_555 1_555
H29 C28 1_555 1_555
H30 C28 1_555 1_555
C29 O1 1_555 1_555
H31 C29 1_555 1_555
H32 C29 1_555 1_555
O2 C30 1_555 1_555
C30 H33 1_555 1_555
H34 C30 1_555 1_555
C31 C30 1_555 1_555
H35 C31 1_555 1_555
H36 C31 1_555 1_555
C32 C31 1_555 1_555
H37 C32 1_555 1_555
H38 C32 1_555 1_555
C33 O2 1_555 1_555
H39 C33 1_555 1_555
H40 C33 1_555 1_555
P1A N1A 1_555 1_555
N1A Ca1 1_555 1_555
B1A P1A 1_555 1_555
H1A B1A 1_555 1_555
H2A B1A 1_555 1_555
H3A B1A 1_555 1_555
O1A Ca1 1_555 1_555
C1A N1A 1_555 1_555
H4A C1A 1_555 1_555
C2A C1A 1_555 1_555
C3A C2A 1_555 1_555
H5A C3A 1_555 1_555
C4A C3A 1_555 1_555
H6A C4A 1_555 1_555
C5A C4A 1_555 1_555
H7A C5A 1_555 1_555
C6A C5A 1_555 1_555
H8A C6A 1_555 1_555
C7A C2A 1_555 1_555
H9A C7A 1_555 1_555
C8A C1A 1_555 1_555
C9A C8A 1_555 1_555
H10A C9A 1_555 1_555
C10A C9A 1_555 1_555
H11A C10A 1_555 1_555
C11A C10A 1_555 1_555
H12A C11A 1_555 1_555
C12A C11A 1_555 1_555
H13A C12A 1_555 1_555
C13A C8A 1_555 1_555
H14A C13A 1_555 1_555
C14A P1A 1_555 1_555
C15A C14A 1_555 1_555
H15A C15A 1_555 1_555
C16A C15A 1_555 1_555
H16A C16A 1_555 1_555
C17A C16A 1_555 1_555
H17A C17A 1_555 1_555
C18A C17A 1_555 1_555
H18A C18A 1_555 1_555
C19A C14A 1_555 1_555
H19A C19A 1_555 1_555
C20A P1A 1_555 1_555
C21A C20A 1_555 1_555
H20A C21A 1_555 1_555
C22A C21A 1_555 1_555
H21A C22A 1_555 1_555
C23A C22A 1_555 1_555
H22A C23A 1_555 1_555
C24A C23A 1_555 1_555
H23A C24A 1_555 1_555
C25A C20A 1_555 1_555
H24A C25A 1_555 1_555
C26A O1A 1_555 1_555
H25A C26A 1_555 1_555
H26A C26A 1_555 1_555
C27A C26A 1_555 1_555
H27A C27A 1_555 1_555
H28A C27A 1_555 1_555
C28A C27A 1_555 1_555
H29A C28A 1_555 1_555
H30A C28A 1_555 1_555
C29A O1A 1_555 1_555
H31A C29A 1_555 1_555
H32A C29A 1_555 1_555
C6 C7 1_555 1_555
C12 C13 1_555 1_555
C18 C19 1_555 1_555
C24 C25 1_555 1_555
C28 C29 1_555 1_555
C32 C33 1_555 1_555
C6A C7A 1_555 1_555
C12A C13A 1_555 1_555
C18A C19A 1_555 1_555
C24A C25A 1_555 1_555
C28A C29A 1_555 1_555

#END
