
#######################################################################
#
#                 Cambridge Crystallographic Data Centre
#                                CCDC 
#
#######################################################################
#
# If this CIF has been generated from an entry in the Cambridge 
# Structural Database, then it will include bibliographic, chemical, 
# crystal, experimental, refinement or atomic coordinate data resulting 
# from the CCDC's data processing and validation procedures.
#
#######################################################################

data_ZAXPUM
_chemical_formula_moiety         'C23 H38 N2 O7 2+,2(Cl1 O4 1-)'
_chemical_name_systematic        
'18-formyl-3,4,5,6,8,9,12,13,14,15-decahydro-2H,11H-4,13-(ethanooxyethanooxyethano)-1,7,10,16,4,13-benzotetraoxadiazacyclooctadecine-4,13-diium diperchlorate'
_symmetry_cell_setting           monoclinic
_symmetry_space_group_name_H-M   'P 21/c'
_symmetry_Int_Tables_number      14
_space_group_name_Hall           '-P 2ybc'
loop_
_symmetry_equiv_pos_site_id
_symmetry_equiv_pos_as_xyz
1 x,y,z
2 -x,1/2+y,1/2-z
3 -x,-y,-z
4 x,1/2-y,1/2+z
_cell_length_a                   9.6049(6)
_cell_length_b                   29.6886(19)
_cell_length_c                   10.9625(7)
_cell_angle_alpha                90
_cell_angle_beta                 112.810(2)
_cell_angle_gamma                90
_cell_volume                     2881.55
_exptl_crystal_colour            yellowish
_exptl_crystal_description       block
_cell_formula_units_Z            4
_exptl_crystal_recrystallization_method acetonitrile/benzene
loop_
_atom_site_label
_atom_site_type_symbol
_atom_site_fract_x
_atom_site_fract_y
_atom_site_fract_z
Cl1 Cl 0.17725(8) 0.50987(2) 0.89445(7)
O1 O 0.1642(3) 0.52048(8) 1.0175(2)
O2 O 0.1353(2) 0.54865(8) 0.8097(2)
O3 O 0.3311(2) 0.49798(8) 0.9192(2)
O4 O 0.0795(3) 0.47309(7) 0.8325(2)
Cl2 Cl 0.26471(9) 0.31270(3) 0.98619(8)
O5 O 0.2128(4) 0.27773(11) 1.0458(3)
O6 O 0.1928(3) 0.35415(10) 0.9899(3)
O7 O 0.2350(3) 0.30096(9) 0.8515(2)
O8 O 0.4241(3) 0.31748(9) 1.0565(3)
O9 O 0.7942(2) 0.39297(7) 0.6364(2)
O10 O 0.4473(3) 0.41595(8) 0.7516(2)
O11 O 0.2932(2) 0.46071(7) 0.5160(2)
O12 O 0.6399(2) 0.41050(7) 0.3885(2)
O13 O 0.4775(3) 0.31729(7) 0.5827(2)
O14 O 0.3144(2) 0.36788(7) 0.3327(2)
O15 O 0.8394(3) 0.29601(9) 0.1331(3)
N1 N 0.6726(3) 0.35210(9) 0.8166(3)
N2 N 0.3503(3) 0.45739(9) 0.2952(3)
H1 H 0.627(5) 0.3647(14) 0.754(4)
H2 H 0.387(4) 0.4419(11) 0.365(3)
C1 C 0.7387(4) 0.37528(10) 0.4143(3)
C2 C 0.7614(4) 0.34953(11) 0.3183(3)
H3 H 0.7028 0.3551 0.2274
C3 C 0.8715(4) 0.31493(11) 0.3547(4)
C4 C 0.9547(4) 0.30663(13) 0.4857(4)
H4 H 1.0289 0.2835 0.5101
C5 C 0.9319(4) 0.33151(12) 0.5826(4)
H5 H 0.9893 0.3251 0.6732
C6 C 0.8250(4) 0.36604(11) 0.5484(3)
C7 C 0.8848(4) 0.38685(11) 0.7743(3)
H6 H 0.8795 0.4144 0.8232
H7 H 0.9915 0.3824 0.7861
C8 C 0.8341(4) 0.34720(11) 0.8316(3)
H8 H 0.8995 0.3443 0.9266
H9 H 0.8450 0.3194 0.7864
C9 C 0.6599(4) 0.38288(11) 0.9205(3)
H10 H 0.6931 0.3667 1.0061
H11 H 0.7272 0.4092 0.9317
C10 C 0.5004(4) 0.39892(12) 0.8832(3)
H12 H 0.4356 0.3737 0.8886
H13 H 0.4970 0.4229 0.9448
C11 C 0.2899(4) 0.40716(13) 0.6756(4)
H14 H 0.2393 0.3987 0.7356
H15 H 0.2796 0.3817 0.6143
C12 C 0.2165(4) 0.44835(12) 0.5983(3)
H16 H 0.1091 0.4421 0.5436
H17 H 0.2212 0.4733 0.6596
C13 C 0.2115(4) 0.49261(12) 0.4175(3)
H18 H 0.1975 0.5210 0.4589
H19 H 0.1109 0.4806 0.3611
C14 C 0.3046(4) 0.50073(11) 0.3369(3)
H20 H 0.2455 0.5187 0.2576
H21 H 0.3960 0.5182 0.3899
C15 C 0.4753(3) 0.46425(11) 0.2463(3)
H22 H 0.4317 0.4755 0.1541
H23 H 0.5459 0.4874 0.3014
C16 C 0.5606(4) 0.42166(11) 0.2507(3)
H24 H 0.4902 0.3971 0.2042
H25 H 0.6330 0.4261 0.2076
C17 C 0.6004(4) 0.30702(10) 0.8124(3)
H26 H 0.5063 0.3108 0.8283
H27 H 0.6697 0.2874 0.8828
C18 C 0.5647(4) 0.28554(11) 0.6794(3)
H28 H 0.6590 0.2783 0.6671
H29 H 0.5068 0.2574 0.6719
C19 C 0.4348(4) 0.30151(11) 0.4503(3)
H30 H 0.4233 0.2683 0.4480
H31 H 0.5144 0.3091 0.4173
C20 C 0.2889(4) 0.32292(10) 0.3640(3)
H32 H 0.2421 0.3053 0.2814
H33 H 0.2185 0.3230 0.4102
C21 C 0.1776(4) 0.39156(11) 0.2618(3)
H34 H 0.1307 0.4019 0.3229
H35 H 0.1051 0.3718 0.1941
C22 C 0.2184(3) 0.43122(11) 0.1971(3)
H36 H 0.1298 0.4514 0.1595
H37 H 0.2453 0.4205 0.1235
C23 C 0.8999(4) 0.28936(13) 0.2522(4)
H38 H 0.9715 0.2656 0.2808
loop_
_geom_bond_atom_site_label_1
_geom_bond_atom_site_label_2
_geom_bond_site_symmetry_1
_geom_bond_site_symmetry_2
Cl1 O1 1_555 1_555
O2 Cl1 1_555 1_555
O3 Cl1 1_555 1_555
O4 Cl1 1_555 1_555
Cl2 O5 1_555 1_555
O6 Cl2 1_555 1_555
O7 Cl2 1_555 1_555
O8 Cl2 1_555 1_555
O9 C6 1_555 1_555
O10 C10 1_555 1_555
O11 C12 1_555 1_555
O12 C1 1_555 1_555
O13 C18 1_555 1_555
O14 C20 1_555 1_555
O15 C23 1_555 1_555
N1 H1 1_555 1_555
N2 H2 1_555 1_555
C1 C2 1_555 1_555
C2 H3 1_555 1_555
C3 C2 1_555 1_555
C4 C3 1_555 1_555
H4 C4 1_555 1_555
C5 C4 1_555 1_555
H5 C5 1_555 1_555
C6 C1 1_555 1_555
C7 O9 1_555 1_555
H6 C7 1_555 1_555
H7 C7 1_555 1_555
C8 N1 1_555 1_555
H8 C8 1_555 1_555
H9 C8 1_555 1_555
C9 N1 1_555 1_555
H10 C9 1_555 1_555
H11 C9 1_555 1_555
C10 C9 1_555 1_555
H12 C10 1_555 1_555
H13 C10 1_555 1_555
C11 O10 1_555 1_555
H14 C11 1_555 1_555
H15 C11 1_555 1_555
C12 C11 1_555 1_555
H16 C12 1_555 1_555
H17 C12 1_555 1_555
C13 O11 1_555 1_555
H18 C13 1_555 1_555
H19 C13 1_555 1_555
C14 N2 1_555 1_555
H20 C14 1_555 1_555
H21 C14 1_555 1_555
C15 N2 1_555 1_555
H22 C15 1_555 1_555
H23 C15 1_555 1_555
C16 O12 1_555 1_555
H24 C16 1_555 1_555
H25 C16 1_555 1_555
C17 N1 1_555 1_555
H26 C17 1_555 1_555
H27 C17 1_555 1_555
C18 C17 1_555 1_555
H28 C18 1_555 1_555
H29 C18 1_555 1_555
C19 O13 1_555 1_555
H30 C19 1_555 1_555
H31 C19 1_555 1_555
C20 C19 1_555 1_555
H32 C20 1_555 1_555
H33 C20 1_555 1_555
C21 O14 1_555 1_555
H34 C21 1_555 1_555
H35 C21 1_555 1_555
C22 N2 1_555 1_555
H36 C22 1_555 1_555
H37 C22 1_555 1_555
C23 C3 1_555 1_555
H38 C23 1_555 1_555
C5 C6 1_555 1_555
C7 C8 1_555 1_555
C13 C14 1_555 1_555
C15 C16 1_555 1_555
C21 C22 1_555 1_555

#END
