
#######################################################################
#
#                 Cambridge Crystallographic Data Centre
#                                CCDC 
#
#######################################################################
#
# If this CIF has been generated from an entry in the Cambridge 
# Structural Database, then it will include bibliographic, chemical, 
# crystal, experimental, refinement or atomic coordinate data resulting 
# from the CCDC's data processing and validation procedures.
#
#######################################################################

data_ZAXQUN
_chemical_formula_moiety         'C28 H21 Cl2 N3 O1'
_chemical_name_systematic        
1-(9-chloro-3-(4-chlorophenyl)-11-phenyl-3,3a,4,5-tetrahydro-2H-pyrazolo[3,4-a]acridin-2-yl)ethanone
_symmetry_cell_setting           monoclinic
_symmetry_space_group_name_H-M   'P 21/c'
_symmetry_Int_Tables_number      14
_space_group_name_Hall           '-P 2ybc'
loop_
_symmetry_equiv_pos_site_id
_symmetry_equiv_pos_as_xyz
1 x,y,z
2 -x,1/2+y,1/2-z
3 -x,-y,-z
4 x,1/2-y,1/2+z
_cell_length_a                   13.299(5)
_cell_length_b                   7.725(5)
_cell_length_c                   23.464(5)
_cell_angle_alpha                90
_cell_angle_beta                 101.291(5)
_cell_angle_gamma                90
_cell_volume                     2363.91
_exptl_crystal_colour            yellow
_exptl_crystal_description       needles
_chemical_melting_point          '192-194 deg.C'
_cell_formula_units_Z            4
_chemical_properties_physical    Moisture-sensitive
_exptl_crystal_recrystallization_method 'ethyl acetate'
loop_
_atom_site_label
_atom_site_type_symbol
_atom_site_fract_x
_atom_site_fract_y
_atom_site_fract_z
C1 C -0.11865(19) 0.2871(3) 0.27608(10)
C2 C -0.1031(2) 0.2793(3) 0.33543(10)
H1 H -0.1577 0.2930 0.3544
C3 C -0.0057(2) 0.2510(4) 0.36656(10)
H2 H 0.0052 0.2477 0.4069
C4 C 0.07635(17) 0.2273(3) 0.33940(9)
C5 C 0.0577(2) 0.2294(4) 0.27955(10)
H3 H 0.1115 0.2098 0.2603
C6 C -0.0396(2) 0.2603(4) 0.24747(10)
H4 H -0.0511 0.2627 0.2071
C7 C 0.18364(19) 0.2135(3) 0.37328(9)
C8 C 0.22928(18) 0.3934(3) 0.39375(9)
C9 C 0.26221(16) 0.3655(3) 0.45815(9)
C10 C 0.32093(15) 0.4990(3) 0.49456(8)
C11 C 0.37113(16) 0.6247(3) 0.46494(9)
C12 C 0.35861(19) 0.6257(3) 0.39960(10)
H5 H 0.4246 0.6519 0.3898
H6 H 0.3120 0.7186 0.3843
C13 C 0.3189(2) 0.4593(3) 0.36937(10)
H7 H 0.2976 0.4798 0.3280
H8 H 0.3730 0.3732 0.3750
C14 C 0.32911(15) 0.5103(3) 0.55395(8)
C15 C 0.39086(15) 0.6451(3) 0.58431(9)
C16 C 0.43815(17) 0.7624(3) 0.55128(10)
C17 C 0.49740(19) 0.9008(3) 0.57964(11)
H9 H 0.5275 0.9793 0.5580
C18 C 0.51070(19) 0.9202(3) 0.63805(11)
H10 H 0.5500 1.0112 0.6565
C19 C 0.46492(18) 0.8024(3) 0.67042(10)
C20 C 0.40577(16) 0.6695(3) 0.64523(9)
H11 H 0.3752 0.5948 0.6678
C21 C 0.27033(16) 0.3922(3) 0.58602(8)
C22 C 0.3185(2) 0.2696(3) 0.62435(10)
H12 H 0.3895 0.2592 0.6311
C23 C 0.2613(3) 0.1612(4) 0.65296(12)
H13 H 0.2943 0.0786 0.6789
C24 C 0.1578(3) 0.1749(4) 0.64343(13)
H14 H 0.1201 0.1018 0.6627
C25 C 0.1088(2) 0.2966(4) 0.60535(14)
H15 H 0.0378 0.3063 0.5988
C26 C 0.16509(18) 0.4051(3) 0.57661(11)
H16 H 0.1316 0.4873 0.5507
C27 C 0.15936(17) -0.0429(3) 0.43646(9)
C28 C 0.1632(2) -0.1018(3) 0.49766(10)
H17 H 0.1905 -0.0108 0.5240
H18 H 0.2062 -0.2022 0.5054
H19 H 0.0952 -0.1301 0.5028
N1 N 0.42745(15) 0.7506(2) 0.49243(8)
N2 N 0.23965(14) 0.2174(2) 0.47682(7)
N3 N 0.19031(15) 0.1223(2) 0.42953(7)
O1 O 0.12778(13) -0.1333(2) 0.39423(7)
Cl1 Cl -0.24114(6) 0.33168(14) 0.23741(3)
Cl2 Cl 0.48628(6) 0.83173(9) 0.74530(3)
H20 H 0.2251(17) 0.154(3) 0.3532(9)
H21 H 0.1736(17) 0.489(3) 0.3847(9)
loop_
_geom_bond_atom_site_label_1
_geom_bond_atom_site_label_2
_geom_bond_site_symmetry_1
_geom_bond_site_symmetry_2
C1 C2 1_555 1_555
C2 H1 1_555 1_555
C3 C2 1_555 1_555
H2 C3 1_555 1_555
C4 C3 1_555 1_555
C5 C4 1_555 1_555
H3 C5 1_555 1_555
C6 C1 1_555 1_555
H4 C6 1_555 1_555
C7 C4 1_555 1_555
C8 C7 1_555 1_555
C9 C8 1_555 1_555
C10 C9 1_555 1_555
C11 C10 1_555 1_555
C12 C11 1_555 1_555
H5 C12 1_555 1_555
H6 C12 1_555 1_555
C13 C8 1_555 1_555
H7 C13 1_555 1_555
H8 C13 1_555 1_555
C14 C10 1_555 1_555
C15 C14 1_555 1_555
C16 C15 1_555 1_555
C17 C16 1_555 1_555
H9 C17 1_555 1_555
C18 C17 1_555 1_555
H10 C18 1_555 1_555
C19 C18 1_555 1_555
C20 C15 1_555 1_555
H11 C20 1_555 1_555
C21 C14 1_555 1_555
C22 C21 1_555 1_555
H12 C22 1_555 1_555
C23 C22 1_555 1_555
H13 C23 1_555 1_555
C24 C23 1_555 1_555
H14 C24 1_555 1_555
C25 C24 1_555 1_555
H15 C25 1_555 1_555
C26 C21 1_555 1_555
H16 C26 1_555 1_555
C27 C28 1_555 1_555
C28 H17 1_555 1_555
H18 C28 1_555 1_555
H19 C28 1_555 1_555
N1 C11 1_555 1_555
N2 C9 1_555 1_555
N3 C7 1_555 1_555
O1 C27 1_555 1_555
Cl1 C1 1_555 1_555
Cl2 C19 1_555 1_555
H20 C7 1_555 1_555
H21 C8 1_555 1_555
C5 C6 1_555 1_555
C12 C13 1_555 1_555
C16 N1 1_555 1_555
C19 C20 1_555 1_555
C25 C26 1_555 1_555
C27 N3 1_555 1_555
N2 N3 1_555 1_555

#END
