
#######################################################################
#
#                 Cambridge Crystallographic Data Centre
#                                CCDC 
#
#######################################################################
#
# If this CIF has been generated from an entry in the Cambridge 
# Structural Database, then it will include bibliographic, chemical, 
# crystal, experimental, refinement or atomic coordinate data resulting 
# from the CCDC's data processing and validation procedures.
#
#######################################################################

data_ZAXWAZ
_chemical_formula_moiety         'C18 H25 N3 O1 S1'
_chemical_name_systematic        
N-t-butyl-5-(t-butylamino)-2-phenyl-1,3-thiazole-4-carboxamide
_symmetry_cell_setting           orthorhombic
_symmetry_space_group_name_H-M   'P 21 21 21'
_symmetry_Int_Tables_number      19
_space_group_name_Hall           'P 2ac 2ab'
loop_
_symmetry_equiv_pos_site_id
_symmetry_equiv_pos_as_xyz
1 x,y,z
2 1/2-x,-y,1/2+z
3 -x,1/2+y,1/2-z
4 1/2+x,1/2-y,-z
_cell_length_a                   8.96987(19)
_cell_length_b                   10.8627(2)
_cell_length_c                   19.4889(5)
_cell_angle_alpha                90
_cell_angle_beta                 90
_cell_angle_gamma                90
_cell_volume                     1898.94
_exptl_crystal_colour            colorless
_exptl_crystal_description       prism
_chemical_melting_point          '88-90 deg.C'
_cell_formula_units_Z            4
_exptl_crystal_recrystallization_method 'petroleum ether'
loop_
_atom_site_label
_atom_site_type_symbol
_atom_site_fract_x
_atom_site_fract_y
_atom_site_fract_z
S1 S 0.96548(4) 0.67020(4) 0.23859(2)
O1 O 1.27720(13) 0.90746(11) 0.36968(6)
N1 N 1.18282(14) 0.80667(11) 0.19924(7)
N2 N 1.38884(16) 0.94480(13) 0.26662(8)
H1 H 1.384(2) 0.9279(18) 0.2256(11)
N3 N 1.02318(19) 0.75843(14) 0.36840(7)
H2 H 1.087(3) 0.805(2) 0.3916(12)
C1 C 1.08587(17) 0.73008(14) 0.17564(8)
C2 C 1.17109(16) 0.82155(13) 0.26934(8)
C3 C 1.05919(17) 0.75515(14) 0.30089(8)
C4 C 1.07608(17) 0.68924(15) 0.10420(8)
C5 C 0.9727(2) 0.60085(17) 0.08467(9)
H3 H 0.9047 0.5686 0.1174
C6 C 0.9686(3) 0.55946(19) 0.01701(11)
H4 H 0.8979 0.4987 0.0039
C7 C 1.0651(3) 0.6054(2) -0.03056(10)
H5 H 1.0610 0.5772 -0.0767
C8 C 1.1687(2) 0.6926(2) -0.01174(10)
H6 H 1.2362 0.7241 -0.0450
C9 C 1.1754(2) 0.73482(17) 0.05523(9)
H7 H 1.2475 0.7948 0.0679
C10 C 1.28266(16) 0.89519(13) 0.30661(8)
C11 C 1.51842(19) 1.01811(15) 0.28898(8)
C12 C 1.6029(3) 1.0511(2) 0.22390(10)
H8 H 1.6311 0.9756 0.1997
H9 H 1.6929 1.0976 0.2359
H10 H 1.5392 1.1014 0.1942
C13 C 1.4658(2) 1.13456(17) 0.32554(11)
H11 H 1.3993 1.1810 0.2952
H12 H 1.5522 1.1855 0.3374
H13 H 1.4121 1.1119 0.3675
C14 C 1.6181(2) 0.9408(2) 0.33524(12)
H14 H 1.5626 0.9167 0.3764
H15 H 1.7058 0.9891 0.3486
H16 H 1.6503 0.8669 0.3105
C15 C 0.9591(2) 0.65630(16) 0.40965(9)
C16 C 0.9518(3) 0.7056(2) 0.48233(10)
H17 H 1.0526 0.7257 0.4982
H18 H 0.9082 0.6431 0.5125
H19 H 0.8899 0.7799 0.4833
C17 C 0.8019(2) 0.6251(2) 0.38506(11)
H20 H 0.7401 0.6994 0.3860
H21 H 0.7584 0.5626 0.4153
H22 H 0.8065 0.5931 0.3381
C18 C 1.0573(3) 0.5422(2) 0.40419(15)
H23 H 1.0593 0.5137 0.3565
H24 H 1.0171 0.4770 0.4336
H25 H 1.1588 0.5625 0.4190
loop_
_geom_bond_atom_site_label_1
_geom_bond_atom_site_label_2
_geom_bond_site_symmetry_1
_geom_bond_site_symmetry_2
S1 C1 1_555 1_555
O1 C10 1_555 1_555
N1 C1 1_555 1_555
N2 H1 1_555 1_555
N3 H2 1_555 1_555
C1 C4 1_555 1_555
C2 N1 1_555 1_555
C3 S1 1_555 1_555
C4 C5 1_555 1_555
C5 H3 1_555 1_555
C6 C5 1_555 1_555
H4 C6 1_555 1_555
C7 C6 1_555 1_555
H5 C7 1_555 1_555
C8 C7 1_555 1_555
H6 C8 1_555 1_555
C9 C4 1_555 1_555
H7 C9 1_555 1_555
C10 N2 1_555 1_555
C11 N2 1_555 1_555
C12 C11 1_555 1_555
H8 C12 1_555 1_555
H9 C12 1_555 1_555
H10 C12 1_555 1_555
C13 C11 1_555 1_555
H11 C13 1_555 1_555
H12 C13 1_555 1_555
H13 C13 1_555 1_555
C14 C11 1_555 1_555
H14 C14 1_555 1_555
H15 C14 1_555 1_555
H16 C14 1_555 1_555
C15 N3 1_555 1_555
C16 C15 1_555 1_555
H17 C16 1_555 1_555
H18 C16 1_555 1_555
H19 C16 1_555 1_555
C17 C15 1_555 1_555
H20 C17 1_555 1_555
H21 C17 1_555 1_555
H22 C17 1_555 1_555
C18 C15 1_555 1_555
H23 C18 1_555 1_555
H24 C18 1_555 1_555
H25 C18 1_555 1_555
N3 C3 1_555 1_555
C2 C3 1_555 1_555
C2 C10 1_555 1_555
C8 C9 1_555 1_555

#END
