
#######################################################################
#
#                 Cambridge Crystallographic Data Centre
#                                CCDC 
#
#######################################################################
#
# If this CIF has been generated from an entry in the Cambridge 
# Structural Database, then it will include bibliographic, chemical, 
# crystal, experimental, refinement or atomic coordinate data resulting 
# from the CCDC's data processing and validation procedures.
#
#######################################################################

data_ZAXWED
_chemical_formula_moiety         'C18 H24 N4 O3 S1,0.25(C4 H8 O2)'
_chemical_name_systematic        
'N-t-butyl-5-(t-butylamino)-2-(4-nitrophenyl)-1,3-thiazole-4-carboxamide ethyl acetate solvate'
_symmetry_cell_setting           monoclinic
_symmetry_space_group_name_H-M   'P 21/c'
_symmetry_Int_Tables_number      14
_space_group_name_Hall           '-P 2ybc'
loop_
_symmetry_equiv_pos_site_id
_symmetry_equiv_pos_as_xyz
1 x,y,z
2 -x,1/2+y,1/2-z
3 -x,-y,-z
4 x,1/2-y,1/2+z
_cell_length_a                   5.93958(16)
_cell_length_b                   47.4069(16)
_cell_length_c                   14.7144(4)
_cell_angle_alpha                90
_cell_angle_beta                 95.762(3)
_cell_angle_gamma                90
_cell_volume                     4122.3
_exptl_crystal_colour            orange
_exptl_crystal_description       plate
_cell_formula_units_Z            8
loop_
_atom_site_label
_atom_site_type_symbol
_atom_site_fract_x
_atom_site_fract_y
_atom_site_fract_z
S2 S -0.16988(7) 0.124399(9) 0.59159(3)
O4 O -0.2491(4) -0.01665(4) 0.39942(14)
O5 O -0.5652(4) -0.00768(4) 0.32339(16)
O6 O -0.5536(2) 0.20545(2) 0.51370(8)
N5 N -0.5260(2) 0.13070(3) 0.47867(9)
N6 N -0.4046(4) -0.00083(4) 0.37694(13)
N7 N -0.7967(2) 0.17625(3) 0.42741(10)
H25 H -0.817(4) 0.1588(5) 0.4117(15)
N8 N -0.2167(2) 0.18058(3) 0.62997(10)
H26 H -0.303(4) 0.1963(5) 0.6121(16)
C19 C -0.3827(3) 0.11146(4) 0.51039(11)
C20 C -0.4784(3) 0.15654(3) 0.51675(10)
C21 C -0.2919(3) 0.15770(4) 0.58265(11)
C22 C -0.3894(3) 0.08216(4) 0.48101(11)
C23 C -0.2116(3) 0.06352(4) 0.50553(13)
H27 H -0.0853 0.0697 0.5453
C24 C -0.2174(4) 0.03631(4) 0.47271(14)
H28 H -0.0963 0.0236 0.4895
C25 C -0.4024(4) 0.02774(4) 0.41484(13)
C26 C -0.5844(3) 0.04543(4) 0.39049(13)
H29 H -0.7112 0.0390 0.3516
C27 C -0.5775(3) 0.07263(4) 0.42398(12)
H30 H -0.7011 0.0850 0.4083
C28 C -0.6121(3) 0.18152(3) 0.48621(10)
C29 C -0.9286(3) 0.19774(3) 0.37255(11)
C30 C -1.1260(3) 0.18201(4) 0.32071(13)
H31 H -1.0673 0.1677 0.2814
H32 H -1.2204 0.1954 0.2831
H33 H -1.2169 0.1729 0.3644
C31 C -1.0214(3) 0.22017(4) 0.43307(13)
H34 H -1.1148 0.2111 0.4760
H35 H -1.1136 0.2336 0.3949
H36 H -0.8954 0.2301 0.4672
C32 C -0.7785(3) 0.21091(4) 0.30591(12)
H37 H -0.6487 0.2201 0.3401
H38 H -0.8656 0.2249 0.2681
H39 H -0.7247 0.1962 0.2667
C33 C -0.0606(3) 0.18203(4) 0.71508(11)
C34 C -0.0626(3) 0.21284(4) 0.74407(13)
H40 H -0.0080 0.2246 0.6962
H41 H 0.0362 0.2153 0.8010
H42 H -0.2173 0.2184 0.7538
C35 C 0.1777(3) 0.17341(4) 0.69670(13)
H43 H 0.1748 0.1542 0.6717
H44 H 0.2776 0.1740 0.7539
H45 H 0.2342 0.1865 0.6527
C36 C -0.1458(3) 0.16349(4) 0.78919(12)
H46 H -0.2975 0.1697 0.8012
H47 H -0.0427 0.1651 0.8453
H48 H -0.1518 0.1438 0.7687
S1 S 0.91019(7) 0.086938(9) 0.98007(3)
O1 O 1.9351(2) 0.07119(3) 1.27809(11)
O2 O 1.9105(2) 0.11271(3) 1.33668(10)
O3 O 0.37809(19) 0.15538(3) 0.92626(8)
N1 N 0.8842(2) 0.13412(3) 1.06488(9)
N2 N 1.8377(2) 0.09380(3) 1.28524(11)
N3 N 0.5853(2) 0.17923(3) 1.04063(10)
H1 H 0.710(4) 0.1774(5) 1.0769(15)
N4 N 0.5250(3) 0.10368(3) 0.87608(11)
H2 H 0.420(5) 0.1181(6) 0.8722(18)
C1 C 1.0096(3) 0.11176(3) 1.06333(11)
C2 C 0.7013(3) 0.13303(3) 0.99991(11)
C3 C 0.6848(3) 0.10901(4) 0.94540(12)
C4 C 1.2200(3) 0.10682(3) 1.12130(11)
C5 C 1.3443(3) 0.08200(4) 1.11351(12)
H3 H 1.2899 0.0680 1.0706
C6 C 1.5457(3) 0.07760(4) 1.16764(12)
H4 H 1.6295 0.0607 1.1624
C7 C 1.6219(3) 0.09809(4) 1.22900(11)
C8 C 1.5021(3) 0.12282(4) 1.23991(12)
H5 H 1.5570 0.1365 1.2837
C9 C 1.3010(3) 0.12701(4) 1.18552(12)
H6 H 1.2171 0.1438 1.1919
C10 C 0.5408(3) 0.15666(3) 0.98609(11)
C11 C 0.4716(3) 0.20679(3) 1.02884(11)
C12 C 0.5803(3) 0.22610(4) 1.10400(12)
H7 H 0.5513 0.2186 1.1638
H8 H 0.5155 0.2451 1.0963
H9 H 0.7439 0.2270 1.1001
C13 C 0.2183(3) 0.20372(4) 1.03823(12)
H10 H 0.1486 0.1918 0.9887
H11 H 0.1469 0.2224 1.0348
H12 H 0.1973 0.1950 1.0972
C14 C 0.5104(3) 0.21921(4) 0.93594(12)
H13 H 0.6732 0.2206 0.9308
H14 H 0.4425 0.2380 0.9300
H15 H 0.4402 0.2070 0.8874
C15 C 0.4971(3) 0.07885(4) 0.81536(13)
C16 C 0.3186(3) 0.08749(5) 0.73835(15)
H16 H 0.1828 0.0942 0.7644
H17 H 0.2797 0.0712 0.6988
H18 H 0.3787 0.1026 0.7024
C17 C 0.4165(4) 0.05350(4) 0.86688(16)
H19 H 0.5275 0.0492 0.9189
H20 H 0.3999 0.0372 0.8259
H21 H 0.2703 0.0578 0.8891
C18 C 0.7160(3) 0.07180(4) 0.77379(13)
H22 H 0.7761 0.0889 0.7477
H23 H 0.6850 0.0577 0.7256
H24 H 0.8274 0.0643 0.8214
O7? O 1.7169(8) 0.01940(10) 1.0715(4)
O8? O 1.9943(15) -0.00386(13) 1.0187(4)
C37? C 2.0308(19) 0.00651(18) 1.1779(7)
H49? H 2.1494 0.0210 1.1841
H50? H 2.1001 -0.0122 1.1838
H51? H 1.9294 0.0091 1.2258
C38? C 1.8995(10) 0.00913(10) 1.0869(5)
C39? C 1.8779(11) -0.00134(12) 0.9260(4)
H52? H 1.7277 -0.0105 0.9238
H53? H 1.8541 0.0189 0.9107
C40? C 2.0089(13) -0.01443(15) 0.8587(5)
H54? H 2.1551 -0.0048 0.8589
H55? H 1.9258 -0.0129 0.7980
H56? H 2.0341 -0.0344 0.8741
loop_
_geom_bond_atom_site_label_1
_geom_bond_atom_site_label_2
_geom_bond_site_symmetry_1
_geom_bond_site_symmetry_2
S1 C1 1_555 1_555
O1 N2 1_555 1_555
O2 N2 1_555 1_555
O3 C10 1_555 1_555
N1 C1 1_555 1_555
N2 C7 1_555 1_555
N3 H1 1_555 1_555
N4 H2 1_555 1_555
C1 C4 1_555 1_555
C2 N1 1_555 1_555
C3 S1 1_555 1_555
C4 C5 1_555 1_555
C5 H3 1_555 1_555
C6 C5 1_555 1_555
H4 C6 1_555 1_555
C7 C6 1_555 1_555
C8 C7 1_555 1_555
H5 C8 1_555 1_555
C9 C4 1_555 1_555
H6 C9 1_555 1_555
C10 N3 1_555 1_555
C11 N3 1_555 1_555
C12 C11 1_555 1_555
H7 C12 1_555 1_555
H8 C12 1_555 1_555
H9 C12 1_555 1_555
C13 C11 1_555 1_555
H10 C13 1_555 1_555
H11 C13 1_555 1_555
H12 C13 1_555 1_555
C14 C11 1_555 1_555
H13 C14 1_555 1_555
H14 C14 1_555 1_555
H15 C14 1_555 1_555
C15 N4 1_555 1_555
C16 C15 1_555 1_555
H16 C16 1_555 1_555
H17 C16 1_555 1_555
H18 C16 1_555 1_555
C17 C15 1_555 1_555
H19 C17 1_555 1_555
H20 C17 1_555 1_555
H21 C17 1_555 1_555
C18 C15 1_555 1_555
H22 C18 1_555 1_555
H23 C18 1_555 1_555
H24 C18 1_555 1_555
S2 C19 1_555 1_555
O4 N6 1_555 1_555
O5 N6 1_555 1_555
O6 C28 1_555 1_555
N5 C19 1_555 1_555
N6 C25 1_555 1_555
N7 H25 1_555 1_555
N8 H26 1_555 1_555
C19 C22 1_555 1_555
C20 N5 1_555 1_555
C21 S2 1_555 1_555
C22 C23 1_555 1_555
C23 H27 1_555 1_555
C24 C23 1_555 1_555
H28 C24 1_555 1_555
C25 C24 1_555 1_555
C26 C25 1_555 1_555
H29 C26 1_555 1_555
C27 C22 1_555 1_555
H30 C27 1_555 1_555
C28 N7 1_555 1_555
C29 N7 1_555 1_555
C30 C29 1_555 1_555
H31 C30 1_555 1_555
H32 C30 1_555 1_555
H33 C30 1_555 1_555
C31 C29 1_555 1_555
H34 C31 1_555 1_555
H35 C31 1_555 1_555
H36 C31 1_555 1_555
C32 C29 1_555 1_555
H37 C32 1_555 1_555
H38 C32 1_555 1_555
H39 C32 1_555 1_555
C33 N8 1_555 1_555
C34 C33 1_555 1_555
H40 C34 1_555 1_555
H41 C34 1_555 1_555
H42 C34 1_555 1_555
C35 C33 1_555 1_555
H43 C35 1_555 1_555
H44 C35 1_555 1_555
H45 C35 1_555 1_555
C36 C33 1_555 1_555
H46 C36 1_555 1_555
H47 C36 1_555 1_555
H48 C36 1_555 1_555
N4 C3 1_555 1_555
C2 C3 1_555 1_555
C2 C10 1_555 1_555
C8 C9 1_555 1_555
N8 C21 1_555 1_555
C20 C21 1_555 1_555
C20 C28 1_555 1_555
C26 C27 1_555 1_555

#END
