
#######################################################################
#
#                 Cambridge Crystallographic Data Centre
#                                CCDC 
#
#######################################################################
#
# If this CIF has been generated from an entry in the Cambridge 
# Structural Database, then it will include bibliographic, chemical, 
# crystal, experimental, refinement or atomic coordinate data resulting 
# from the CCDC's data processing and validation procedures.
#
#######################################################################

data_ZAXZEG
_chemical_formula_moiety         'C22 H26 Br1 N1 O8'
_chemical_name_systematic        
'tetramethyl 6-bromo-4a,9-dimethyl-4,4a,9,9a-tetrahydro-1H-carbazole-1,1,3,3(2H)-tetracarboxylate'
_symmetry_cell_setting           orthorhombic
_symmetry_space_group_name_H-M   'P 21 21 21'
_symmetry_Int_Tables_number      19
_space_group_name_Hall           'P 2ac 2ab'
loop_
_symmetry_equiv_pos_site_id
_symmetry_equiv_pos_as_xyz
1 x,y,z
2 1/2-x,-y,1/2+z
3 -x,1/2+y,1/2-z
4 1/2+x,1/2-y,-z
_cell_length_a                   10.894(2)
_cell_length_b                   11.1730(19)
_cell_length_c                   37.714(7)
_cell_angle_alpha                90
_cell_angle_beta                 90
_cell_angle_gamma                90
_cell_volume                     4590.5
_exptl_crystal_colour            colorless
_exptl_crystal_description       prismatic
_cell_formula_units_Z            8
loop_
_atom_site_label
_atom_site_type_symbol
_atom_site_fract_x
_atom_site_fract_y
_atom_site_fract_z
Br1 Br 0.43698(10) 0.56913(9) 1.12315(2)
N1 N 0.0287(5) 0.5082(5) 1.01720(14)
O1 O -0.1218(6) 0.4411(8) 0.93370(19)
O2 O -0.0394(7) 0.6145(8) 0.94471(18)
O3 O 0.0633(7) 0.2300(6) 0.94462(15)
O4 O 0.1360(5) 0.3491(5) 0.90200(13)
O5 O 0.4251(5) 0.3521(5) 0.92051(13)
O6 O 0.4200(6) 0.5476(5) 0.91142(14)
O7 O 0.3473(6) 0.6750(5) 0.98845(16)
O8 O 0.4943(5) 0.5383(5) 0.99283(15)
C1 C 0.1054(8) 0.6140(7) 1.07083(19)
H1 H 0.0367 0.6630 1.0728
C2 C 0.2017(9) 0.6222(7) 1.09461(19)
H2 H 0.1969 0.6762 1.1133
C3 C 0.3052(8) 0.5512(7) 1.09093(16)
C4 C 0.3120(7) 0.4674(6) 1.06407(16)
H3 H 0.3805 0.4183 1.0619
C5 C 0.2169(7) 0.4578(6) 1.04084(16)
C6 C 0.1148(7) 0.5304(6) 1.04405(16)
C7 C 0.0710(7) 0.4086(6) 0.99573(17)
H4 H 0.0118 0.3430 0.9980
C8 C 0.1959(7) 0.3667(6) 1.01181(16)
C9 C 0.3020(7) 0.3659(5) 0.98501(16)
H5 H 0.3781 0.3530 0.9978
H6 H 0.2908 0.2984 0.9692
C10 C 0.3157(7) 0.4789(6) 0.96267(16)
C11 C 0.1900(7) 0.5293(6) 0.95120(17)
H7 H 0.1727 0.6005 0.9650
H8 H 0.1949 0.5530 0.9265
C12 C 0.0834(7) 0.4416(7) 0.95556(16)
C13 C -0.0352(9) 0.5037(14) 0.9441(2)
C14 C -0.1670(12) 0.6481(14) 0.9375(4)
H9 H -0.1778 0.6591 0.9124
H10 H -0.1860 0.7213 0.9496
H11 H -0.2207 0.5858 0.9456
C15 C 0.0909(8) 0.3278(9) 0.93427(19)
C16 C 0.1463(10) 0.2471(8) 0.8788(2)
H12 H 0.1978 0.1878 0.8897
H13 H 0.1818 0.2717 0.8567
H14 H 0.0663 0.2140 0.8747
C17 C 0.3931(7) 0.4490(8) 0.92963(19)
C18 C 0.4908(11) 0.5324(10) 0.8789(2)
H15 H 0.5551 0.4751 0.8828
H16 H 0.5261 0.6078 0.8721
H17 H 0.4378 0.5043 0.8603
C19 C 0.3848(8) 0.5771(8) 0.98228(19)
C20 C 0.5658(9) 0.6222(9) 1.0138(3)
H18 H 0.5902 0.6885 0.9992
H19 H 0.6374 0.5828 1.0229
H20 H 0.5169 0.6510 1.0332
C21 C -0.1013(7) 0.5164(9) 1.0264(2)
H21 H -0.1172 0.4688 1.0471
H22 H -0.1500 0.4875 1.0070
H23 H -0.1221 0.5983 1.0312
C22 C 0.1844(9) 0.2413(6) 1.02814(19)
H24 H 0.2612 0.2188 1.0387
H25 H 0.1632 0.1848 1.0100
H26 H 0.1215 0.2418 1.0460
Br2 Br 0.79805(10) 0.69467(9) 0.11945(2)
N2 N 0.7931(5) 0.2961(5) 0.22678(14)
O9 O 0.8835(6) 0.2419(4) 0.31939(15)
O10 O 0.7421(5) 0.1275(4) 0.29387(12)
O11 O 0.5047(6) 0.2814(5) 0.29857(15)
O12 O 0.6008(5) 0.3979(5) 0.33722(14)
O13 O 0.5974(6) 0.6676(5) 0.32259(14)
O14 O 0.7994(6) 0.6778(5) 0.33189(13)
O15 O 0.9272(5) 0.6080(5) 0.25230(15)
O16 O 0.7804(5) 0.7458(4) 0.25061(13)
C24 C 0.8940(7) 0.3875(7) 0.17362(19)
H30 H 0.9536 0.3282 0.1716
C25 C 0.8901(7) 0.4810(7) 0.1500(2)
H31 H 0.9480 0.4848 0.1319
C26 C 0.8022(7) 0.5693(6) 0.15264(17)
C27 C 0.7150(7) 0.5648(6) 0.17959(16)
H32 H 0.6560 0.6245 0.1818
C28 C 0.7179(7) 0.4699(6) 0.20304(15)
C29 C 0.8074(7) 0.3833(6) 0.20041(17)
C30 C 0.6840(6) 0.3226(6) 0.24843(16)
H33 H 0.6244 0.2575 0.2459
C31 C 0.6277(6) 0.4425(6) 0.23226(16)
C32 C 0.6178(6) 0.5444(6) 0.25977(17)
H34 H 0.5963 0.6175 0.2474
H35 H 0.5508 0.5258 0.2758
C33 C 0.7325(6) 0.5685(6) 0.28188(16)
C34 C 0.7938(7) 0.4492(6) 0.29406(17)
H36 H 0.8712 0.4402 0.2816
H37 H 0.8120 0.4550 0.3192
C35 C 0.7172(7) 0.3377(6) 0.28784(17)
C36 C 0.7922(8) 0.2317(7) 0.30223(17)
C37 C 0.8090(8) 0.0239(6) 0.3056(2)
H38 H 0.8893 0.0241 0.2952
H39 H 0.7659 -0.0472 0.2986
H40 H 0.8162 0.0256 0.3310
C38 C 0.5934(9) 0.3364(7) 0.3083(2)
C39 C 0.4797(9) 0.4092(9) 0.3552(2)
H41 H 0.4160 0.4146 0.3376
H42 H 0.4791 0.4801 0.3696
H43 H 0.4658 0.3404 0.3698
C40 C 0.6996(10) 0.6453(6) 0.3140(2)
C41 C 0.7752(11) 0.7428(7) 0.36463(18)
H44 H 0.7092 0.7983 0.3609
H45 H 0.8476 0.7858 0.3716
H46 H 0.7529 0.6873 0.3830
C42 C 0.8270(8) 0.6416(7) 0.26038(18)
C43 C 0.8549(10) 0.8201(8) 0.2279(2)
H47 H 0.9238 0.8502 0.2410
H48 H 0.8067 0.8860 0.2193
H49 H 0.8837 0.7736 0.2081
C44 C 0.4999(6) 0.4193(7) 0.21723(18)
H50 H 0.4690 0.4912 0.2065
H51 H 0.4459 0.3949 0.2360
H52 H 0.5043 0.3572 0.1997
C45 C 0.8072(9) 0.1699(6) 0.2153(2)
H53 H 0.7309 0.1417 0.2056
H54 H 0.8296 0.1214 0.2353
H55 H 0.8701 0.1649 0.1975
C23? C -0.234(2) 0.530(3) 0.9309(8)
H27? H -0.2246 0.5931 0.9478
H28? H -0.3089 0.4870 0.9356
H29? H -0.2374 0.5629 0.9074
loop_
_geom_bond_atom_site_label_1
_geom_bond_atom_site_label_2
_geom_bond_site_symmetry_1
_geom_bond_site_symmetry_2
Br1 C3 1_555 1_555
N1 C6 1_555 1_555
O1 C13 1_555 1_555
O2 C13 1_555 1_555
O3 C15 1_555 1_555
O4 C15 1_555 1_555
O5 C17 1_555 1_555
O6 C17 1_555 1_555
O7 C19 1_555 1_555
O8 C19 1_555 1_555
C1 H1 1_555 1_555
C2 C1 1_555 1_555
H2 C2 1_555 1_555
C3 C2 1_555 1_555
C4 C3 1_555 1_555
H3 C4 1_555 1_555
C5 C4 1_555 1_555
C6 C1 1_555 1_555
C7 N1 1_555 1_555
H4 C7 1_555 1_555
C8 C5 1_555 1_555
C9 C8 1_555 1_555
H5 C9 1_555 1_555
H6 C9 1_555 1_555
C10 C9 1_555 1_555
C11 C10 1_555 1_555
H7 C11 1_555 1_555
H8 C11 1_555 1_555
C12 C7 1_555 1_555
C13 C12 1_555 1_555
C14 O2 1_555 1_555
H9 C14 1_555 1_555
H10 C14 1_555 1_555
H11 C14 1_555 1_555
C15 C12 1_555 1_555
C16 O4 1_555 1_555
H12 C16 1_555 1_555
H13 C16 1_555 1_555
H14 C16 1_555 1_555
C17 C10 1_555 1_555
C18 O6 1_555 1_555
H15 C18 1_555 1_555
H16 C18 1_555 1_555
H17 C18 1_555 1_555
C19 C10 1_555 1_555
C20 O8 1_555 1_555
H18 C20 1_555 1_555
H19 C20 1_555 1_555
H20 C20 1_555 1_555
C21 N1 1_555 1_555
H21 C21 1_555 1_555
H22 C21 1_555 1_555
H23 C21 1_555 1_555
C22 C8 1_555 1_555
H24 C22 1_555 1_555
H25 C22 1_555 1_555
H26 C22 1_555 1_555
Br2 C26 1_555 1_555
N2 C29 1_555 1_555
O9 C36 1_555 1_555
O10 C36 1_555 1_555
O11 C38 1_555 1_555
O12 C38 1_555 1_555
O13 C40 1_555 1_555
O14 C40 1_555 1_555
O15 C42 1_555 1_555
O16 C42 1_555 1_555
C24 H30 1_555 1_555
C25 C24 1_555 1_555
H31 C25 1_555 1_555
C26 C25 1_555 1_555
C27 C26 1_555 1_555
H32 C27 1_555 1_555
C28 C27 1_555 1_555
C29 C24 1_555 1_555
C30 N2 1_555 1_555
H33 C30 1_555 1_555
C31 C28 1_555 1_555
C32 C31 1_555 1_555
H34 C32 1_555 1_555
H35 C32 1_555 1_555
C33 C32 1_555 1_555
C34 C33 1_555 1_555
H36 C34 1_555 1_555
H37 C34 1_555 1_555
C35 C30 1_555 1_555
C36 C35 1_555 1_555
C37 O10 1_555 1_555
H38 C37 1_555 1_555
H39 C37 1_555 1_555
H40 C37 1_555 1_555
C38 C35 1_555 1_555
C39 O12 1_555 1_555
H41 C39 1_555 1_555
H42 C39 1_555 1_555
H43 C39 1_555 1_555
C40 C33 1_555 1_555
C41 O14 1_555 1_555
H44 C41 1_555 1_555
H45 C41 1_555 1_555
H46 C41 1_555 1_555
C42 C33 1_555 1_555
C43 O16 1_555 1_555
H47 C43 1_555 1_555
H48 C43 1_555 1_555
H49 C43 1_555 1_555
C44 C31 1_555 1_555
H50 C44 1_555 1_555
H51 C44 1_555 1_555
H52 C44 1_555 1_555
C45 N2 1_555 1_555
H53 C45 1_555 1_555
H54 C45 1_555 1_555
H55 C45 1_555 1_555
C5 C6 1_555 1_555
C7 C8 1_555 1_555
C11 C12 1_555 1_555
C28 C29 1_555 1_555
C30 C31 1_555 1_555
C34 C35 1_555 1_555

#END
