
#######################################################################
#
#                 Cambridge Crystallographic Data Centre
#                                CCDC 
#
#######################################################################
#
# If this CIF has been generated from an entry in the Cambridge 
# Structural Database, then it will include bibliographic, chemical, 
# crystal, experimental, refinement or atomic coordinate data resulting 
# from the CCDC's data processing and validation procedures.
#
#######################################################################

data_ZAYDEK
_chemical_formula_moiety         'C31 H21 N5'
_chemical_name_systematic        
2-(Pyridin-2-yl)-1-(4-(2-(pyridin-2-yl)-1H-indol-1-yl)phenyl)-1H-benzimidazole
_symmetry_cell_setting           orthorhombic
_symmetry_space_group_name_H-M   'P 21 21 21'
_symmetry_Int_Tables_number      19
_space_group_name_Hall           'P 2ac 2ab'
loop_
_symmetry_equiv_pos_site_id
_symmetry_equiv_pos_as_xyz
1 x,y,z
2 1/2+x,1/2-y,-z
3 -x,1/2+y,1/2-z
4 1/2-x,-y,1/2+z
_cell_length_a                   7.578(4)
_cell_length_b                   10.822(5)
_cell_length_c                   28.380(14)
_cell_angle_alpha                90
_cell_angle_beta                 90
_cell_angle_gamma                90
_cell_volume                     2327.42
_cell_formula_units_Z            4
loop_
_atom_site_label
_atom_site_type_symbol
_atom_site_fract_x
_atom_site_fract_y
_atom_site_fract_z
N1 N 0.4145(5) 0.1295(3) 0.26390(13)
N2 N 0.0679(5) 0.1693(4) 0.21474(13)
N3 N 0.5434(5) 0.0557(3) 0.07177(13)
N4 N 0.6308(6) -0.0253(4) 0.00276(14)
N5 N 0.9060(5) -0.0017(4) 0.10336(13)
C1 C 0.5201(6) 0.0953(4) 0.30131(16)
C2 C 0.6919(6) 0.0458(4) 0.30166(18)
H1 H 0.7560 0.0312 0.2734
C3 C 0.7607(7) 0.0200(5) 0.34483(18)
H2 H 0.8751 -0.0158 0.3461
C4 C 0.6765(8) 0.0422(5) 0.38638(19)
H3 H 0.7314 0.0210 0.4154
C5 C 0.5104(7) 0.0958(5) 0.38619(18)
H4 H 0.4512 0.1132 0.4149
C6 C 0.4321(7) 0.1237(4) 0.34332(16)
C7 C 0.2680(6) 0.1784(4) 0.32976(16)
H5 H 0.1789 0.2073 0.3506
C8 C 0.2617(6) 0.1818(4) 0.28265(16)
C9 C 0.1166(6) 0.2300(4) 0.25335(16)
C10 C 0.0354(7) 0.3400(4) 0.26764(18)
H6 H 0.0743 0.3823 0.2951
C11 C -0.1019(7) 0.3853(4) 0.2411(2)
H7 H -0.1617 0.4583 0.2506
C12 C -0.1514(7) 0.3256(5) 0.2013(2)
H8 H -0.2433 0.3575 0.1821
C13 C -0.0656(7) 0.2170(5) 0.18917(19)
H9 H -0.1026 0.1744 0.1616
C14 C 0.4552(6) 0.1125(4) 0.21588(15)
C15 C 0.4451(6) 0.2094(4) 0.18407(16)
H10 H 0.4149 0.2896 0.1950
C16 C 0.4776(6) 0.1914(4) 0.13750(16)
H11 H 0.4679 0.2586 0.1161
C17 C 0.5251(6) 0.0748(4) 0.12083(15)
C18 C 0.5390(6) -0.0225(4) 0.15263(15)
H12 H 0.5714 -0.1023 0.1416
C19 C 0.5068(5) -0.0048(4) 0.19926(15)
H13 H 0.5191 -0.0717 0.2207
C20 C 0.4125(7) 0.0841(4) 0.03906(17)
C21 C 0.2511(7) 0.1464(4) 0.0432(2)
H14 H 0.2113 0.1793 0.0724
C22 C 0.1565(9) 0.1566(5) 0.0036(2)
H15 H 0.0465 0.1986 0.0051
C23 C 0.2094(10) 0.1100(6) -0.0391(2)
H16 H 0.1359 0.1203 -0.0660
C24 C 0.3680(10) 0.0482(6) -0.0436(2)
H17 H 0.4065 0.0167 -0.0731
C25 C 0.4681(8) 0.0342(5) -0.00337(16)
C26 C 0.6680(6) -0.0130(4) 0.04697(16)
C27 C 0.8352(7) -0.0605(4) 0.06695(16)
C28 C 0.9104(7) -0.1656(5) 0.04651(19)
H18 H 0.8556 -0.2055 0.0205
C29 C 1.0649(7) -0.2095(5) 0.06490(19)
H19 H 1.1190 -0.2809 0.0519
C30 C 1.1410(7) -0.1498(5) 0.10213(18)
H20 H 1.2483 -0.1790 0.1154
C31 C 1.0582(6) -0.0460(4) 0.12004(17)
H21 H 1.1126 -0.0039 0.1456
loop_
_geom_bond_atom_site_label_1
_geom_bond_atom_site_label_2
_geom_bond_site_symmetry_1
_geom_bond_site_symmetry_2
N1 C1 1_555 1_555
N2 C9 1_555 1_555
N3 C17 1_555 1_555
N4 C25 1_555 1_555
N5 C27 1_555 1_555
C1 C2 1_555 1_555
C2 H1 1_555 1_555
C3 C2 1_555 1_555
H2 C3 1_555 1_555
C4 C3 1_555 1_555
H3 C4 1_555 1_555
C5 C4 1_555 1_555
H4 C5 1_555 1_555
C6 C1 1_555 1_555
C7 C6 1_555 1_555
H5 C7 1_555 1_555
C8 N1 1_555 1_555
C9 C8 1_555 1_555
C10 C9 1_555 1_555
H6 C10 1_555 1_555
C11 C10 1_555 1_555
H7 C11 1_555 1_555
C12 C11 1_555 1_555
H8 C12 1_555 1_555
C13 N2 1_555 1_555
H9 C13 1_555 1_555
C14 N1 1_555 1_555
C15 C14 1_555 1_555
H10 C15 1_555 1_555
C16 C15 1_555 1_555
H11 C16 1_555 1_555
C17 C16 1_555 1_555
C18 C17 1_555 1_555
H12 C18 1_555 1_555
C19 C14 1_555 1_555
H13 C19 1_555 1_555
C20 N3 1_555 1_555
C21 C20 1_555 1_555
H14 C21 1_555 1_555
C22 C21 1_555 1_555
H15 C22 1_555 1_555
C23 C22 1_555 1_555
H16 C23 1_555 1_555
C24 C23 1_555 1_555
H17 C24 1_555 1_555
C25 C20 1_555 1_555
C26 N3 1_555 1_555
C27 C26 1_555 1_555
C28 C27 1_555 1_555
H18 C28 1_555 1_555
C29 C28 1_555 1_555
H19 C29 1_555 1_555
C30 C29 1_555 1_555
H20 C30 1_555 1_555
C31 N5 1_555 1_555
H21 C31 1_555 1_555
N4 C26 1_555 1_555
C5 C6 1_555 1_555
C7 C8 1_555 1_555
C12 C13 1_555 1_555
C18 C19 1_555 1_555
C24 C25 1_555 1_555
C30 C31 1_555 1_555

#END
