
#######################################################################
#
#                 Cambridge Crystallographic Data Centre
#                                CCDC 
#
#######################################################################
#
# If this CIF has been generated from an entry in the Cambridge 
# Structural Database, then it will include bibliographic, chemical, 
# crystal, experimental, refinement or atomic coordinate data resulting 
# from the CCDC's data processing and validation procedures.
#
#######################################################################

data_ZAYJAN
_chemical_formula_moiety         'C54 H62 N8,1.73(H2 O1),0.3(C1 H4 O1)'
_chemical_name_systematic        
'4,7-bis(4-t-butylphenyl)-2,9-bis(5,5,8,8-tetramethyl-5,6,7,8-tetrahydro-1,2,4-benzotriazin-3-yl)-1,10-phenanthroline methanol solvate hydrate'
_symmetry_cell_setting           monoclinic
_symmetry_space_group_name_H-M   'P 21/c'
_symmetry_Int_Tables_number      14
_space_group_name_Hall           '-P 2ybc'
loop_
_symmetry_equiv_pos_site_id
_symmetry_equiv_pos_as_xyz
1 x,y,z
2 -x,1/2+y,1/2-z
3 -x,-y,-z
4 x,1/2-y,1/2+z
_cell_length_a                   17.8264(8)
_cell_length_b                   15.4605(4)
_cell_length_c                   19.2829(9)
_cell_angle_alpha                90
_cell_angle_beta                 113.954(5)
_cell_angle_gamma                90
_cell_volume                     4856.74
_exptl_crystal_colour            yellow
_exptl_crystal_description       needle
_cell_formula_units_Z            4
loop_
_atom_site_label
_atom_site_type_symbol
_atom_site_fract_x
_atom_site_fract_y
_atom_site_fract_z
N1 N 0.40569(14) 0.43145(15) 0.38861(12)
N2 N 0.43837(14) 0.26418(14) 0.36472(13)
N3 N 0.30002(15) 0.61149(17) 0.42522(15)
N4 N 0.23125(16) 0.63073(19) 0.43397(16)
N5 N 0.26006(15) 0.46400(17) 0.40125(15)
N6 N 0.31479(17) 0.14497(17) 0.32397(18)
N7 N 0.25512(17) 0.08610(19) 0.31460(18)
N8 N 0.41503(14) 0.03367(15) 0.36092(13)
C1 C 0.47798(16) 0.41457(18) 0.38380(15)
C2 C 0.39113(16) 0.51216(18) 0.40297(15)
C3 C 0.44624(17) 0.58084(18) 0.41138(15)
H1 H 0.4333 0.6374 0.4223
C4 C 0.51852(16) 0.56632(17) 0.40382(15)
C5 C 0.53678(16) 0.48003(18) 0.39074(15)
C6 C 0.61296(17) 0.45581(18) 0.38695(16)
H2 H 0.6522 0.4993 0.3911
C7 C 0.62984(18) 0.37313(18) 0.37765(16)
H3 H 0.6810 0.3594 0.3759
C8 C 0.57264(17) 0.30502(18) 0.37036(15)
C9 C 0.58974(17) 0.21707(18) 0.36049(15)
C10 C 0.52996(17) 0.15612(18) 0.35278(16)
H4 H 0.5391 0.0968 0.3459
C11 C 0.45570(17) 0.18261(18) 0.35527(15)
C12 C 0.49645(17) 0.32497(17) 0.37263(15)
C13 C 0.31212(17) 0.53015(19) 0.41039(16)
C14 C 0.17684(19) 0.5678(2) 0.42765(18)
C15 C 0.1019(2) 0.5957(3) 0.4414(2)
C16 C 0.0348(2) 0.5266(3) 0.4089(2)
H5 H -0.0083 0.5374 0.4278
H6 H 0.0092 0.5320 0.3529
C17 C 0.0666(2) 0.4359(3) 0.4295(2)
H7 H 0.0198 0.3953 0.4097
H8 H 0.0916 0.4305 0.4855
C18 C 0.1306(2) 0.4090(2) 0.3988(2)
C19 C 0.19149(18) 0.4830(2) 0.41049(18)
C20 C 0.1294(2) 0.6024(3) 0.5279(2)
H9 H 0.1558 0.5481 0.5518
H10 H 0.0815 0.6131 0.5395
H11 H 0.1685 0.6501 0.5475
C21 C 0.0696(2) 0.6829(3) 0.4055(2)
H12 H 0.1136 0.7260 0.4248
H13 H 0.0239 0.7006 0.4182
H14 H 0.0504 0.6784 0.3502
C22 C 0.0864(2) 0.3916(3) 0.3123(2)
H15 H 0.0543 0.4426 0.2870
H16 H 0.0496 0.3417 0.3035
H17 H 0.1273 0.3793 0.2916
C23 C 0.1755(2) 0.3280(3) 0.4376(3)
H18 H 0.2105 0.3080 0.4126
H19 H 0.1357 0.2828 0.4343
H20 H 0.2096 0.3406 0.4911
C24 C 0.57230(17) 0.64156(17) 0.40753(16)
C25 C 0.59478(18) 0.69895(18) 0.46843(17)
H21 H 0.5820 0.6857 0.5105
C26 C 0.63549(19) 0.77490(19) 0.46815(18)
H22 H 0.6507 0.8125 0.5106
C27 C 0.65485(19) 0.7980(2) 0.40796(18)
C28 C 0.63523(19) 0.7384(2) 0.34875(18)
H23 H 0.6501 0.7508 0.3077
C29 C 0.59477(18) 0.66188(19) 0.34823(17)
H24 H 0.5822 0.6228 0.3070
C30 C 0.6961(3) 0.8847(2) 0.4060(2)
C31 C 0.7868(3) 0.8691(4) 0.4310(5)
H25 H 0.8107 0.8509 0.4843
H26 H 0.8134 0.9225 0.4255
H27 H 0.7954 0.8236 0.3996
C32 C 0.6793(4) 0.9528(3) 0.4579(3)
H28 H 0.6204 0.9548 0.4458
H29 H 0.6979 1.0099 0.4494
H30 H 0.7093 0.9364 0.5113
C33 C 0.6591(3) 0.9236(3) 0.3272(3)
H31 H 0.6734 0.8878 0.2924
H32 H 0.6807 0.9822 0.3286
H33 H 0.5993 0.9261 0.3095
C34 C 0.66945(17) 0.18993(17) 0.35933(16)
C35 C 0.6734(2) 0.16028(19) 0.29295(17)
H34 H 0.6245 0.1560 0.2480
C36 C 0.7478(2) 0.1367(2) 0.29156(18)
H35 H 0.7489 0.1176 0.2452
C37 C 0.82088(19) 0.14036(19) 0.35612(18)
C38 C 0.8151(2) 0.1672(2) 0.42237(19)
H36 H 0.8633 0.1680 0.4681
C39 C 0.74146(19) 0.1930(2) 0.42433(18)
H37 H 0.7405 0.2129 0.4706
C40 C 0.9036(2) 0.1161(2) 0.3545(2)
C41 C 0.9111(9) 0.0193(8) 0.3552(10)
H38 H 0.8945 -0.0049 0.3937
H39 H 0.9682 0.0033 0.3670
H40 H 0.8756 -0.0037 0.3052
C42 C 0.9128(8) 0.1527(11) 0.2868(9)
H41 H 0.8669 0.1334 0.2406
H42 H 0.9646 0.1326 0.2859
H43 H 0.9130 0.2160 0.2894
C43 C 0.9789(6) 0.1491(11) 0.4254(7)
H44 H 0.9759 0.2122 0.4289
H45 H 1.0298 0.1333 0.4205
H46 H 0.9783 0.1226 0.4713
C44 C 0.39114(18) 0.11662(19) 0.34643(16)
C45 C 0.27426(19) 0.0029(2) 0.32892(18)
C46 C 0.2026(2) -0.0584(2) 0.3146(2)
C47 C 0.2359(2) -0.1423(2) 0.3575(2)
H47 H 0.2528 -0.1319 0.4125
H48 H 0.1914 -0.1860 0.3414
C48 C 0.3075(2) -0.1779(2) 0.3449(2)
H49 H 0.2901 -0.1894 0.2901
H50 H 0.3238 -0.2338 0.3720
C49 C 0.3829(2) -0.1175(2) 0.37190(18)
C50 C 0.35639(18) -0.02450(19) 0.35327(16)
C51 C 0.1402(3) -0.0194(3) 0.3419(3)
H51 H 0.1676 -0.0060 0.3961
H52 H 0.0959 -0.0610 0.3335
H53 H 0.1173 0.0337 0.3134
C52 C 0.1607(2) -0.0736(3) 0.2276(2)
H54 H 0.1412 -0.0183 0.2017
H55 H 0.1140 -0.1130 0.2159
H56 H 0.2003 -0.0992 0.2102
C53 C 0.4299(2) -0.1237(2) 0.45801(19)
H57 H 0.4767 -0.0838 0.4746
H58 H 0.4499 -0.1829 0.4719
H59 H 0.3934 -0.1083 0.4827
C54 C 0.4394(2) -0.1440(2) 0.33349(19)
H60 H 0.4107 -0.1362 0.2785
H61 H 0.4550 -0.2048 0.3447
H62 H 0.4889 -0.1078 0.3526
O1 O 0.1060 0.1908 0.2561
H63 H 0.1648 0.1851 0.2901
H64 H 0.0644 0.2325 0.2484
O2 O 0.1415(9) 0.1691(10) 0.1307(8)
H65 H 0.1509 0.1888 0.1741
C55 C 0.1984(15) 0.1131(16) 0.1355(10)
H66 H 0.1745 0.0550 0.1248
H67 H 0.2421 0.1145 0.1868
H68 H 0.2212 0.1279 0.0986
O3 O 0.25175(16) 0.31998(19) 0.28461(15)
H69 H 0.2776 0.3577 0.3218
H70 H 0.2782 0.2727 0.3069
O4 O 0.0388 0.3242 0.1218
H71 H 0.0909 0.3263 0.1429
H72 H 0.0050 0.3262 0.0697
C56? C 0.9419(9) 0.0465(11) 0.4057(10)
H73? H 0.9327 0.0538 0.4521
H74? H 1.0010 0.0465 0.4183
H75? H 0.9181 -0.0086 0.3816
C57? C 0.8909(8) 0.0925(13) 0.2731(8)
H76? H 0.8551 0.0417 0.2564
H77? H 0.9440 0.0795 0.2717
H78? H 0.8653 0.1413 0.2392
C58? C 0.9571(7) 0.1946(7) 0.3752(10)
H79? H 0.9322 0.2398 0.3371
H80? H 1.0113 0.1798 0.3770
H81? H 0.9629 0.2157 0.4250
O5? O 0.1270 0.1984 0.2166
H82? H 0.1615 0.2534 0.2501
H83? H 0.0918 0.2165 0.1692
loop_
_geom_bond_atom_site_label_1
_geom_bond_atom_site_label_2
_geom_bond_site_symmetry_1
_geom_bond_site_symmetry_2
N1 C1 1_555 1_555
N2 C11 1_555 1_555
N3 N4 1_555 1_555
N4 C14 1_555 1_555
N5 C13 1_555 1_555
N6 N7 1_555 1_555
N7 C45 1_555 1_555
N8 C44 1_555 1_555
C1 C5 1_555 1_555
C2 N1 1_555 1_555
C3 C2 1_555 1_555
H1 C3 1_555 1_555
C4 C3 1_555 1_555
C5 C4 1_555 1_555
C6 C5 1_555 1_555
H2 C6 1_555 1_555
C7 C6 1_555 1_555
H3 C7 1_555 1_555
C8 C7 1_555 1_555
C9 C8 1_555 1_555
C10 C9 1_555 1_555
H4 C10 1_555 1_555
C11 C10 1_555 1_555
C12 N2 1_555 1_555
C13 N3 1_555 1_555
C14 C15 1_555 1_555
C15 C16 1_555 1_555
C16 H5 1_555 1_555
H6 C16 1_555 1_555
C17 C16 1_555 1_555
H7 C17 1_555 1_555
H8 C17 1_555 1_555
C18 C17 1_555 1_555
C19 N5 1_555 1_555
C20 C15 1_555 1_555
H9 C20 1_555 1_555
H10 C20 1_555 1_555
H11 C20 1_555 1_555
C21 C15 1_555 1_555
H12 C21 1_555 1_555
H13 C21 1_555 1_555
H14 C21 1_555 1_555
C22 C18 1_555 1_555
H15 C22 1_555 1_555
H16 C22 1_555 1_555
H17 C22 1_555 1_555
C23 C18 1_555 1_555
H18 C23 1_555 1_555
H19 C23 1_555 1_555
H20 C23 1_555 1_555
C24 C4 1_555 1_555
C25 C24 1_555 1_555
H21 C25 1_555 1_555
C26 C25 1_555 1_555
H22 C26 1_555 1_555
C27 C26 1_555 1_555
C28 C27 1_555 1_555
H23 C28 1_555 1_555
C29 C24 1_555 1_555
H24 C29 1_555 1_555
C30 C27 1_555 1_555
C31 C30 1_555 1_555
H25 C31 1_555 1_555
H26 C31 1_555 1_555
H27 C31 1_555 1_555
C32 C30 1_555 1_555
H28 C32 1_555 1_555
H29 C32 1_555 1_555
H30 C32 1_555 1_555
C33 C30 1_555 1_555
H31 C33 1_555 1_555
H32 C33 1_555 1_555
H33 C33 1_555 1_555
C34 C9 1_555 1_555
C35 C34 1_555 1_555
H34 C35 1_555 1_555
C36 C35 1_555 1_555
H35 C36 1_555 1_555
C37 C36 1_555 1_555
C38 C37 1_555 1_555
H36 C38 1_555 1_555
C39 C34 1_555 1_555
H37 C39 1_555 1_555
C40 C37 1_555 1_555
C41 C40 1_555 1_555
H38 C41 1_555 1_555
H39 C41 1_555 1_555
H40 C41 1_555 1_555
C42 C40 1_555 1_555
H41 C42 1_555 1_555
H42 C42 1_555 1_555
H43 C42 1_555 1_555
C43 C40 1_555 1_555
H44 C43 1_555 1_555
H45 C43 1_555 1_555
H46 C43 1_555 1_555
C44 N6 1_555 1_555
C45 C46 1_555 1_555
C46 C47 1_555 1_555
C47 H47 1_555 1_555
H48 C47 1_555 1_555
C48 C47 1_555 1_555
H49 C48 1_555 1_555
H50 C48 1_555 1_555
C49 C48 1_555 1_555
C50 N8 1_555 1_555
C51 C46 1_555 1_555
H51 C51 1_555 1_555
H52 C51 1_555 1_555
H53 C51 1_555 1_555
C52 C46 1_555 1_555
H54 C52 1_555 1_555
H55 C52 1_555 1_555
H56 C52 1_555 1_555
C53 C49 1_555 1_555
H57 C53 1_555 1_555
H58 C53 1_555 1_555
H59 C53 1_555 1_555
C54 C49 1_555 1_555
H60 C54 1_555 1_555
H61 C54 1_555 1_555
H62 C54 1_555 1_555
O1 H63 1_555 1_555
H64 O1 1_555 1_555
O2 H65 1_555 1_555
C55 O2 1_555 1_555
H66 C55 1_555 1_555
H67 C55 1_555 1_555
H68 C55 1_555 1_555
O3 H69 1_555 1_555
H70 O3 1_555 1_555
O4 H71 1_555 1_555
H72 O4 1_555 1_555
C1 C12 1_555 1_555
C2 C13 1_555 1_555
C8 C12 1_555 1_555
C11 C44 1_555 1_555
C14 C19 1_555 1_555
C18 C19 1_555 1_555
C28 C29 1_555 1_555
C38 C39 1_555 1_555
C45 C50 1_555 1_555
C49 C50 1_555 1_555

#END
