
#######################################################################
#
#                 Cambridge Crystallographic Data Centre
#                                CCDC 
#
#######################################################################
#
# If this CIF has been generated from an entry in the Cambridge 
# Structural Database, then it will include bibliographic, chemical, 
# crystal, experimental, refinement or atomic coordinate data resulting 
# from the CCDC's data processing and validation procedures.
#
#######################################################################

data_ZAYQAU
_chemical_formula_moiety         'C23 H22 N2 O1'
_chemical_name_systematic        
(2-benzyl-4-vinyl-1,2,3,4-tetrahydropyrrolo[1,2-a]pyrazin-6-yl)(phenyl)methanone
_symmetry_cell_setting           orthorhombic
_symmetry_space_group_name_H-M   'P 21 21 21'
_symmetry_Int_Tables_number      19
_space_group_name_Hall           'P 2ac 2ab'
loop_
_symmetry_equiv_pos_site_id
_symmetry_equiv_pos_as_xyz
1 x,y,z
2 1/2+x,1/2-y,-z
3 -x,1/2+y,1/2-z
4 1/2-x,-y,1/2+z
_cell_length_a                   8.92130(10)
_cell_length_b                   9.93250(10)
_cell_length_c                   20.8095(3)
_cell_angle_alpha                90
_cell_angle_beta                 90
_cell_angle_gamma                90
_cell_volume                     1843.95
_exptl_crystal_colour            colorless
_exptl_crystal_description       block
_cell_formula_units_Z            4
loop_
_atom_site_label
_atom_site_type_symbol
_atom_site_fract_x
_atom_site_fract_y
_atom_site_fract_z
N1 N 0.72457(10) 0.62516(10) 0.23260(4)
N2 N 0.97439(10) 0.53592(9) 0.30281(4)
O1 O 0.54211(11) 0.52701(9) 0.12810(5)
C1 C 0.61574(12) 0.69779(12) 0.19971(5)
C2 C 0.59074(11) 0.81476(12) 0.23533(5)
H1 H 0.5209 0.8837 0.2251
C3 C 0.68596(13) 0.81294(12) 0.28859(5)
H2 H 0.6930 0.8803 0.3209
C4 C 0.76788(12) 0.69540(12) 0.28571(4)
C5 C 0.87785(12) 0.63774(12) 0.33267(5)
H3 H 0.9409 0.7112 0.3501
H4 H 0.8226 0.5965 0.3689
C6 C 0.88013(13) 0.43932(11) 0.26853(5)
H5 H 0.8011 0.4052 0.2977
H6 H 0.9418 0.3618 0.2545
C7 C 0.80784(11) 0.50522(11) 0.21024(5)
H7 H 0.7357 0.4404 0.1904
C8 C 0.92406(11) 0.54386(11) 0.16098(5)
H8 H 0.9873 0.6185 0.1700
C9 C 0.94279(13) 0.48022(13) 0.10632(5)
H9 H 0.8812 0.4053 0.0960
H10 H 1.0180 0.5091 0.0771
C10 C 1.06401(14) 0.46532(11) 0.35123(5)
H11 H 1.1270 0.3969 0.3296
H12 H 0.9959 0.4176 0.3811
C11 C 1.16331(12) 0.55828(11) 0.38920(5)
C12 C 1.14973(12) 0.56681(13) 0.45558(5)
H13 H 1.0771 0.5134 0.4771
C13 C 1.24129(16) 0.65274(15) 0.49081(7)
H14 H 1.2297 0.6591 0.5361
C14 C 1.34841(16) 0.72840(14) 0.46026(9)
H15 H 1.4118 0.7863 0.4844
C15 C 1.36405(14) 0.72017(13) 0.39389(9)
H16 H 1.4381 0.7726 0.3727
C16 C 1.27221(13) 0.63598(13) 0.35867(7)
H17 H 1.2833 0.6310 0.3133
C17 C 0.53489(11) 0.64594(11) 0.14440(5)
C18 C 0.43521(11) 0.73851(11) 0.10666(4)
C19 C 0.47085(11) 0.87173(11) 0.09318(5)
H18 H 0.5568 0.9117 0.1122
C20 C 0.38141(13) 0.94619(12) 0.05214(5)
H19 H 0.4068 1.0371 0.0429
C21 C 0.25544(13) 0.88963(13) 0.02436(5)
H20 H 0.1955 0.9411 -0.0043
C22 C 0.21704(14) 0.75805(13) 0.03834(6)
H21 H 0.1295 0.7194 0.0201
C23 C 0.30696(12) 0.68258(12) 0.07920(5)
H22 H 0.2808 0.5919 0.0885
loop_
_geom_bond_atom_site_label_1
_geom_bond_atom_site_label_2
_geom_bond_site_symmetry_1
_geom_bond_site_symmetry_2
N1 C1 1_555 1_555
N2 C5 1_555 1_555
O1 C17 1_555 1_555
C1 C2 1_555 1_555
C2 H1 1_555 1_555
C3 C2 1_555 1_555
H2 C3 1_555 1_555
C4 N1 1_555 1_555
C5 C4 1_555 1_555
H3 C5 1_555 1_555
H4 C5 1_555 1_555
C6 N2 1_555 1_555
H5 C6 1_555 1_555
H6 C6 1_555 1_555
C7 N1 1_555 1_555
H7 C7 1_555 1_555
C8 C7 1_555 1_555
H8 C8 1_555 1_555
C9 C8 1_555 1_555
H9 C9 1_555 1_555
H10 C9 1_555 1_555
C10 N2 1_555 1_555
H11 C10 1_555 1_555
H12 C10 1_555 1_555
C11 C10 1_555 1_555
C12 C11 1_555 1_555
H13 C12 1_555 1_555
C13 C12 1_555 1_555
H14 C13 1_555 1_555
C14 C13 1_555 1_555
H15 C14 1_555 1_555
C15 C14 1_555 1_555
H16 C15 1_555 1_555
C16 C11 1_555 1_555
H17 C16 1_555 1_555
C17 C1 1_555 1_555
C18 C17 1_555 1_555
C19 C18 1_555 1_555
H18 C19 1_555 1_555
C20 C19 1_555 1_555
H19 C20 1_555 1_555
C21 C20 1_555 1_555
H20 C21 1_555 1_555
C22 C21 1_555 1_555
H21 C22 1_555 1_555
C23 C18 1_555 1_555
H22 C23 1_555 1_555
C3 C4 1_555 1_555
C6 C7 1_555 1_555
C15 C16 1_555 1_555
C22 C23 1_555 1_555

#END
