
#######################################################################
#
#                 Cambridge Crystallographic Data Centre
#                                CCDC 
#
#######################################################################
#
# If this CIF has been generated from an entry in the Cambridge 
# Structural Database, then it will include bibliographic, chemical, 
# crystal, experimental, refinement or atomic coordinate data resulting 
# from the CCDC's data processing and validation procedures.
#
#######################################################################

data_ZAYTAX
_chemical_formula_moiety         'C19 H23 N1 O2 S2'
_chemical_name_systematic        
2-{[(4-methylphenyl)sulfanyl]methyl}-1-[(4-methylphenyl)sulfonyl]pyrrolidine
_symmetry_cell_setting           monoclinic
_symmetry_space_group_name_H-M   'P 21/c'
_symmetry_Int_Tables_number      14
_space_group_name_Hall           '-P 2ybc'
loop_
_symmetry_equiv_pos_site_id
_symmetry_equiv_pos_as_xyz
1 x,y,z
2 -x,1/2+y,1/2-z
3 -x,-y,-z
4 x,1/2-y,1/2+z
_cell_length_a                   10.7682(5)
_cell_length_b                   18.6312(8)
_cell_length_c                   10.2412(5)
_cell_angle_alpha                90
_cell_angle_beta                 110.1130(10)
_cell_angle_gamma                90
_cell_volume                     1929.34
_exptl_crystal_colour            colorless
_exptl_crystal_description       block
_cell_formula_units_Z            4
loop_
_atom_site_label
_atom_site_type_symbol
_atom_site_fract_x
_atom_site_fract_y
_atom_site_fract_z
S1 S 0.29736(6) 0.58694(3) 0.76066(6)
C1 C 0.5545(3) 0.61017(15) 0.8120(3)
H1 H 0.5733 0.6384 0.8963
H2 H 0.5329 0.6422 0.7327
O1 O 0.22337(17) 0.52969(11) 0.79189(19)
N1 N 0.44736(17) 0.55866(9) 0.79723(17)
S2 S 0.50818(7) 0.34168(3) 0.78435(7)
C2 C 0.6674(3) 0.56245(18) 0.8189(4)
H3 H 0.7082 0.5426 0.9115
H4 H 0.7337 0.5879 0.7926
O2 O 0.3069(2) 0.65463(10) 0.8286(2)
C3 C 0.4725(2) 0.48936(11) 0.7392(2)
H5 H 0.4013 0.4792 0.6513
C4 C 0.6009(3) 0.50362(18) 0.7131(3)
H6 H 0.5839 0.5201 0.6187
H7 H 0.6553 0.4608 0.7292
C5 C 0.3700(2) 0.33100(11) 0.6302(2)
C6 C 0.4811(3) 0.42977(12) 0.8437(2)
H8 H 0.3996 0.4290 0.8642
H9 H 0.5527 0.4406 0.9294
C7 C 0.3887(2) 0.29490(12) 0.5210(3)
H10 H 0.4719 0.2771 0.5303
C8 C 0.1599(2) 0.31141(13) 0.3788(3)
C9 C 0.2848(3) 0.28501(15) 0.3982(3)
H11 H 0.2992 0.2598 0.3264
C10 C 0.0490(3) 0.3056(2) 0.2406(4)
H12 H -0.0333 0.2987 0.2560
H13 H 0.0650 0.2656 0.1896
H14 H 0.0446 0.3490 0.1885
C11 C 0.1421(2) 0.34570(14) 0.4900(3)
H15 H 0.0585 0.3629 0.4812
C12 C 0.2442(3) 0.35527(14) 0.6137(3)
H16 H 0.2286 0.3783 0.6871
C13 C 0.23168(19) 0.60106(11) 0.5796(2)
C14 C 0.1543(2) 0.54838(12) 0.4942(2)
H17 H 0.1362 0.5059 0.5320
C15 C 0.1044(2) 0.55964(15) 0.3524(3)
H18 H 0.0509 0.5248 0.2951
C16 C 0.1321(3) 0.62147(17) 0.2940(3)
C17 C 0.0796(4) 0.6320(3) 0.1367(3)
H19 H 0.0118 0.5973 0.0948
H20 H 0.1505 0.6260 0.1009
H21 H 0.0436 0.6795 0.1153
C18 C 0.2101(3) 0.67307(15) 0.3803(3)
H22 H 0.2302 0.7148 0.3419
C19 C 0.2590(2) 0.66403(12) 0.5222(3)
H23 H 0.3098 0.6998 0.5793
loop_
_geom_bond_atom_site_label_1
_geom_bond_atom_site_label_2
_geom_bond_site_symmetry_1
_geom_bond_site_symmetry_2
S1 O1 1_555 1_555
C1 H1 1_555 1_555
H2 C1 1_555 1_555
N1 S1 1_555 1_555
S2 C5 1_555 1_555
C2 C1 1_555 1_555
H3 C2 1_555 1_555
H4 C2 1_555 1_555
O2 S1 1_555 1_555
C3 N1 1_555 1_555
H5 C3 1_555 1_555
C4 C2 1_555 1_555
H6 C4 1_555 1_555
H7 C4 1_555 1_555
C5 C7 1_555 1_555
C6 S2 1_555 1_555
H8 C6 1_555 1_555
H9 C6 1_555 1_555
C7 H10 1_555 1_555
C8 C9 1_555 1_555
C9 C7 1_555 1_555
H11 C9 1_555 1_555
C10 C8 1_555 1_555
H12 C10 1_555 1_555
H13 C10 1_555 1_555
H14 C10 1_555 1_555
C11 C8 1_555 1_555
H15 C11 1_555 1_555
C12 C5 1_555 1_555
H16 C12 1_555 1_555
C13 S1 1_555 1_555
C14 C13 1_555 1_555
H17 C14 1_555 1_555
C15 C14 1_555 1_555
H18 C15 1_555 1_555
C16 C15 1_555 1_555
C17 C16 1_555 1_555
H19 C17 1_555 1_555
H20 C17 1_555 1_555
H21 C17 1_555 1_555
C18 C16 1_555 1_555
H22 C18 1_555 1_555
C19 C13 1_555 1_555
H23 C19 1_555 1_555
C1 N1 1_555 1_555
C3 C4 1_555 1_555
C3 C6 1_555 1_555
C11 C12 1_555 1_555
C18 C19 1_555 1_555

#END
