
#######################################################################
#
#                 Cambridge Crystallographic Data Centre
#                                CCDC 
#
#######################################################################
#
# If this CIF has been generated from an entry in the Cambridge 
# Structural Database, then it will include bibliographic, chemical, 
# crystal, experimental, refinement or atomic coordinate data resulting 
# from the CCDC's data processing and validation procedures.
#
#######################################################################

data_ZAYWAX
_chemical_formula_moiety         'C14 H12 N2 O6'
_chemical_name_systematic        
"Cyclohepta-3,5-dien-1-yl 3',5'-dinitrobenzoate"
_symmetry_cell_setting           monoclinic
_symmetry_space_group_name_H-M   'P 21/n'
_symmetry_Int_Tables_number      14
_space_group_name_Hall           '-P 2yn'
loop_
_symmetry_equiv_pos_site_id
_symmetry_equiv_pos_as_xyz
1 x,y,z
2 1/2-x,1/2+y,1/2-z
3 -x,-y,-z
4 1/2+x,1/2-y,1/2+z
_cell_length_a                   6.7210(10)
_cell_length_b                   9.002(2)
_cell_length_c                   22.914(5)
_cell_angle_alpha                90
_cell_angle_beta                 91.46(3)
_cell_angle_gamma                90
_cell_volume                     1385.9
_exptl_crystal_colour            yellow
_chemical_melting_point          350.5-351.0K
_cell_formula_units_Z            4
loop_
_atom_site_label
_atom_site_type_symbol
_atom_site_fract_x
_atom_site_fract_y
_atom_site_fract_z
C1 C 0.1692(4) 0.1921(3) 0.96437(11)
H1 H 0.2196(4) 0.1110(3) 0.99065(11)
C2 C 0.2704(5) 0.3371(3) 0.98135(12)
H2 H 0.4086(5) 0.3359(3) 0.96745(12)
H3 H 0.1996(5) 0.4203(3) 0.96159(12)
C3 C 0.2744(5) 0.3640(3) 1.04592(13)
H4 H 0.3905(5) 0.4105(3) 1.06185(13)
C4 C 0.1322(5) 0.3296(3) 1.08373(13)
H5 H 0.1643(5) 0.3492(3) 1.12361(13)
C5 C -0.0635(5) 0.2667(3) 1.07217(14)
H6 H -0.1461(5) 0.2625(3) 1.10516(14)
C6 C -0.1470(5) 0.2138(3) 1.02295(13)
H7 H -0.2824(5) 0.1847(3) 1.02527(13)
C7 C -0.0553(4) 0.1941(3) 0.96451(13)
H8 H -0.1027(4) 0.2755(3) 0.93865(13)
H9 H -0.1046(4) 0.0997(3) 0.94740(13)
C8 C 0.3833(4) 0.0812(3) 0.89432(12)
C9 C 0.3983(4) 0.0323(3) 0.83188(12)
C10 C 0.2440(4) 0.0564(3) 0.79128(11)
H10 H 0.1257(4) 0.1057(3) 0.80225(11)
C11 C 0.2663(4) 0.0069(3) 0.73452(11)
C12 C 0.4354(4) -0.0660(3) 0.71640(12)
H11 H 0.4488(4) -0.0981(3) 0.67719(12)
C13 C 0.5837(4) -0.0897(3) 0.75830(13)
C14 C 0.5700(4) -0.0418(3) 0.81552(12)
H12 H 0.6756(4) -0.0591(3) 0.84303(12)
O1 O 0.2146(3) 0.1551(2) 0.90315(8)
O2 O 0.5107(3) 0.0543(2) 0.93087(9)
O3 O 0.8987(3) -0.1872(2) 0.77612(10)
O4 O 0.7605(3) -0.2233(3) 0.69053(10)
N1 N 0.7607(4) -0.1728(3) 0.74026(12)
N2 N 0.1036(4) 0.0294(3) 0.69128(10)
O5 O 0.1220(4) -0.0247(3) 0.64272(9)
O6 O -0.0433(3) 0.0991(2) 0.70643(9)
loop_
_geom_bond_atom_site_label_1
_geom_bond_atom_site_label_2
_geom_bond_site_symmetry_1
_geom_bond_site_symmetry_2
C1 H1 1_555 1_555
C2 C1 1_555 1_555
H2 C2 1_555 1_555
H3 C2 1_555 1_555
C3 C2 1_555 1_555
H4 C3 1_555 1_555
C4 C3 1_555 1_555
H5 C4 1_555 1_555
C5 C4 1_555 1_555
H6 C5 1_555 1_555
C6 C5 1_555 1_555
H7 C6 1_555 1_555
C7 C1 1_555 1_555
H8 C7 1_555 1_555
H9 C7 1_555 1_555
C8 C9 1_555 1_555
C9 C10 1_555 1_555
C10 H10 1_555 1_555
C11 C10 1_555 1_555
C12 C11 1_555 1_555
H11 C12 1_555 1_555
C13 C12 1_555 1_555
C14 C9 1_555 1_555
H12 C14 1_555 1_555
O1 C1 1_555 1_555
O2 C8 1_555 1_555
O3 N1 1_555 1_555
O4 N1 1_555 1_555
N1 C13 1_555 1_555
N2 C11 1_555 1_555
O5 N2 1_555 1_555
O6 N2 1_555 1_555
C6 C7 1_555 1_555
C8 O1 1_555 1_555
C13 C14 1_555 1_555

#END
