
#######################################################################
#
#                 Cambridge Crystallographic Data Centre
#                                CCDC 
#
#######################################################################
#
# If this CIF has been generated from an entry in the Cambridge 
# Structural Database, then it will include bibliographic, chemical, 
# crystal, experimental, refinement or atomic coordinate data resulting 
# from the CCDC's data processing and validation procedures.
#
#######################################################################

data_ZAYZUW
_chemical_compound_source        'twigs of Callicarpa longissima'
_chemical_formula_moiety         'C20 H30 O4'
_chemical_name_systematic        'Callilongisin A'
_chemical_properties_biological  
'tested for cytotoxicity and anti-inflammatory activity'
_symmetry_cell_setting           monoclinic
_symmetry_space_group_name_H-M   'P 21'
_symmetry_Int_Tables_number      4
_space_group_name_Hall           'P 2yb'
loop_
_symmetry_equiv_pos_site_id
_symmetry_equiv_pos_as_xyz
1 x,y,z
2 -x,1/2+y,-z
_cell_length_a                   12.148(5)
_cell_length_b                   6.279(2)
_cell_length_c                   12.403(8)
_cell_angle_alpha                90
_cell_angle_beta                 94.03(4)
_cell_angle_gamma                90
_cell_volume                     943.728
_exptl_crystal_colour            yellow
_chemical_melting_point          130deg.C
_cell_formula_units_Z            2
loop_
_atom_site_label
_atom_site_type_symbol
_atom_site_fract_x
_atom_site_fract_y
_atom_site_fract_z
O1 O 0.0916(7) 0.0831(14) 0.1139(8)
H1 H 0.0489 -0.0006 0.0820
O2 O 0.0408(9) 0.2860(14) -0.0219(8)
O3 O 0.4607(6) 0.2501(10) 0.2309(7)
O4 O 0.5775(6) 0.1651(13) 0.2383(10)
C1 C 0.2643(10) 0.3695(17) 0.1609(11)
H2 H 0.3047 0.3359 0.0983
H3 H 0.2589 0.2395 0.2024
C2 C 0.1498(9) 0.4372(18) 0.1220(12)
H4 H 0.1107 0.4830 0.1834
H5 H 0.1546 0.5581 0.0738
C3 C 0.0863(9) 0.2665(17) 0.0648(12)
C4 C 0.1988(10) 0.490(2) 0.3876(11)
C5 C 0.3140(8) 0.5117(16) 0.3570(8)
H6 H 0.3501 0.3774 0.3789
C6 C 0.3762(9) 0.6868(19) 0.4269(9)
H7 H 0.3365 0.8201 0.4170
H8 H 0.3755 0.6476 0.5025
C7 C 0.4945(9) 0.7211(17) 0.4001(9)
H9 H 0.5018 0.8639 0.3717
H10 H 0.5421 0.7108 0.4661
C8 C 0.5332(9) 0.5636(15) 0.3192(8)
C9 C 0.4546(9) 0.4775(13) 0.2250(7)
C10 C 0.3352(7) 0.5393(12) 0.2337(8)
C11 C 0.5105(12) 0.542(3) 0.1224(9)
H11 H 0.5125 0.6961 0.1172
H12 H 0.4676 0.4881 0.0593
C12 C 0.6309(11) 0.452(3) 0.1242(11)
H13 H 0.6377 0.3557 0.0639
H14 H 0.6831 0.5675 0.1184
C13 C 0.6541(10) 0.336(2) 0.2284(11)
C14 C 0.6324(10) 0.4809(17) 0.3163(9)
H15 H 0.6876 0.5141 0.3693
C15 C 0.7649(14) 0.224(3) 0.234(3)
H16 H 0.7688 0.2136 0.3131
C16 C 0.7775(16) 0.051(4) 0.223(5)
H17 H 0.8523 0.0144 0.2458
H18 H 0.7630 0.0148 0.1482
H19 H 0.7280 -0.0268 0.2656
C17 C 0.8592(14) 0.381(3) 0.234(2)
H20 H 0.9280 0.3069 0.2464
H21 H 0.8522 0.4841 0.2907
H22 H 0.8573 0.4530 0.1658
C18 C 0.1588(10) 0.292(3) 0.4137(14)
H23 H 0.0859 0.2769 0.4307
H24 H 0.2049 0.1735 0.4142
C19 C 0.1249(11) 0.677(3) 0.3871(15)
H25 H 0.0535 0.6334 0.4073
H26 H 0.1182 0.7378 0.3159
H27 H 0.1551 0.7808 0.4376
C20 C 0.3116(11) 0.7651(18) 0.1933(10)
H28 H 0.3538 0.8645 0.2382
H29 H 0.2344 0.7953 0.1961
H30 H 0.3318 0.7778 0.1201
loop_
_geom_bond_atom_site_label_1
_geom_bond_atom_site_label_2
_geom_bond_site_symmetry_1
_geom_bond_site_symmetry_2
O1 H1 1_555 1_555
O2 C3 1_555 1_555
O3 O4 1_555 1_555
O4 C13 1_555 1_555
C1 H2 1_555 1_555
H3 C1 1_555 1_555
C2 C1 1_555 1_555
H4 C2 1_555 1_555
H5 C2 1_555 1_555
C3 O1 1_555 1_555
C4 C5 1_555 1_555
C5 H6 1_555 1_555
C6 C5 1_555 1_555
H7 C6 1_555 1_555
H8 C6 1_555 1_555
C7 C6 1_555 1_555
H9 C7 1_555 1_555
H10 C7 1_555 1_555
C8 C7 1_555 1_555
C9 O3 1_555 1_555
C10 C1 1_555 1_555
C11 C9 1_555 1_555
H11 C11 1_555 1_555
H12 C11 1_555 1_555
C12 C11 1_555 1_555
H13 C12 1_555 1_555
H14 C12 1_555 1_555
C13 C12 1_555 1_555
C14 C8 1_555 1_555
H15 C14 1_555 1_555
C15 C13 1_555 1_555
H16 C15 1_555 1_555
C16 C15 1_555 1_555
H17 C16 1_555 1_555
H18 C16 1_555 1_555
H19 C16 1_555 1_555
C17 C15 1_555 1_555
H20 C17 1_555 1_555
H21 C17 1_555 1_555
H22 C17 1_555 1_555
C18 C4 1_555 1_555
H23 C18 1_555 1_555
H24 C18 1_555 1_555
C19 C4 1_555 1_555
H25 C19 1_555 1_555
H26 C19 1_555 1_555
H27 C19 1_555 1_555
C20 C10 1_555 1_555
H28 C20 1_555 1_555
H29 C20 1_555 1_555
H30 C20 1_555 1_555
C2 C3 1_555 1_555
C5 C10 1_555 1_555
C8 C9 1_555 1_555
C9 C10 1_555 1_555
C13 C14 1_555 1_555

#END
