
#######################################################################
#
#                 Cambridge Crystallographic Data Centre
#                                CCDC 
#
#######################################################################
#
# If this CIF has been generated from an entry in the Cambridge 
# Structural Database, then it will include bibliographic, chemical, 
# crystal, experimental, refinement or atomic coordinate data resulting 
# from the CCDC's data processing and validation procedures.
#
#######################################################################

data_ZAZBEJ
_chemical_name_common            'waikialide A'
_chemical_formula_moiety         'C14 H20 O2'
_chemical_name_systematic        
3-(Hepta-1,3,5-trien-1-yl)-5-hydroxy-2-methylcyclohexanone
_symmetry_cell_setting           monoclinic
_symmetry_space_group_name_H-M   'P 21'
_symmetry_Int_Tables_number      4
_space_group_name_Hall           'P 2yb'
loop_
_symmetry_equiv_pos_site_id
_symmetry_equiv_pos_as_xyz
1 x,y,z
2 -x,1/2+y,-z
_cell_length_a                   7.274(8)
_cell_length_b                   5.066(6)
_cell_length_c                   17.43(2)
_cell_angle_alpha                90
_cell_angle_beta                 98.53(3)
_cell_angle_gamma                90
_cell_volume                     635.192
_exptl_crystal_colour            colorless
_exptl_crystal_description       plate
_cell_formula_units_Z            2
loop_
_atom_site_label
_atom_site_type_symbol
_atom_site_fract_x
_atom_site_fract_y
_atom_site_fract_z
C1 C 0.6131(9) 0.4680(16) 0.2940(4)
H1 H 0.6537 0.2872 0.2807
C2 C 0.5234(9) 0.4445(16) 0.3683(4)
H2 H 0.4648 0.6194 0.3757
C3 C 0.6689(9) 0.4012(15) 0.4386(4)
C4 C 0.8295(9) 0.5874(16) 0.4473(4)
H3 H 0.9193 0.5392 0.4935
H4 H 0.7855 0.7694 0.4545
C5 C 0.9234(9) 0.5744(16) 0.3752(4)
H5 H 0.9712 0.3917 0.3691
C6 C 0.7866(9) 0.6469(14) 0.3043(4)
H6 H 0.8488 0.6329 0.2577
H7 H 0.7474 0.8327 0.3089
C7 C 0.3690(9) 0.2431(17) 0.3612(4)
H8 H 0.2725 0.2913 0.3181
H9 H 0.3152 0.2385 0.4096
H10 H 0.4189 0.0686 0.3515
O1 O 0.6585(6) 0.2163(10) 0.4832(3)
O2 O 1.0746(6) 0.7604(10) 0.3791(3)
H11 H 1.143(9) 0.755(17) 0.437(4)
C8 C 0.4795(9) 0.5649(16) 0.2266(4)
H12 H 0.4070 0.7149 0.2353
C9 C 0.4519(9) 0.4630(18) 0.1562(4)
H13 H 0.5182 0.3072 0.1473
C10 C 0.3284(10) 0.5719(18) 0.0921(4)
H14 H 0.2645 0.7298 0.1011
C11 C 0.2958(9) 0.4687(18) 0.0203(4)
H15 H 0.3598 0.3116 0.0106
C12 C 0.1689(9) 0.5822(19) -0.0433(4)
H16 H 0.1037 0.7377 -0.0331
C13 C 0.1379(10) 0.4850(18) -0.1139(4)
H17 H 0.2035 0.3300 -0.1243
C14 C 0.0044(10) 0.6038(19) -0.1799(4)
H18 H -0.0568 0.7580 -0.1611
H19 H -0.0895 0.4723 -0.1998
H20 H 0.0733 0.6577 -0.2216
loop_
_geom_bond_atom_site_label_1
_geom_bond_atom_site_label_2
_geom_bond_site_symmetry_1
_geom_bond_site_symmetry_2
C1 H1 1_555 1_555
C2 C1 1_555 1_555
H2 C2 1_555 1_555
C3 C2 1_555 1_555
C4 C3 1_555 1_555
H3 C4 1_555 1_555
H4 C4 1_555 1_555
C5 C4 1_555 1_555
H5 C5 1_555 1_555
C6 C1 1_555 1_555
H6 C6 1_555 1_555
H7 C6 1_555 1_555
C7 C2 1_555 1_555
H8 C7 1_555 1_555
H9 C7 1_555 1_555
H10 C7 1_555 1_555
O1 C3 1_555 1_555
O2 C5 1_555 1_555
H11 O2 1_555 1_555
C8 C1 1_555 1_555
H12 C8 1_555 1_555
C9 C8 1_555 1_555
H13 C9 1_555 1_555
C10 C9 1_555 1_555
H14 C10 1_555 1_555
C11 C10 1_555 1_555
H15 C11 1_555 1_555
C12 C11 1_555 1_555
H16 C12 1_555 1_555
C13 C12 1_555 1_555
H17 C13 1_555 1_555
C14 C13 1_555 1_555
H18 C14 1_555 1_555
H19 C14 1_555 1_555
H20 C14 1_555 1_555
C5 C6 1_555 1_555

#END
