
#######################################################################
#
#                 Cambridge Crystallographic Data Centre
#                                CCDC 
#
#######################################################################
#
# If this CIF has been generated from an entry in the Cambridge 
# Structural Database, then it will include bibliographic, chemical, 
# crystal, experimental, refinement or atomic coordinate data resulting 
# from the CCDC's data processing and validation procedures.
#
#######################################################################

data_ZAZFUE01
_chemical_formula_moiety         'C16 H14 N2 O1'
_chemical_name_systematic        
1'-methyl-1,3-dihydro-2,3'-spirobi[indol]-2'(1'H)-one
_symmetry_cell_setting           monoclinic
_symmetry_space_group_name_H-M   'P 21/c'
_symmetry_Int_Tables_number      14
_space_group_name_Hall           '-P 2ybc'
loop_
_symmetry_equiv_pos_site_id
_symmetry_equiv_pos_as_xyz
1 x,y,z
2 -x,1/2+y,1/2-z
3 -x,-y,-z
4 x,1/2-y,1/2+z
_cell_length_a                   5.5655(9)
_cell_length_b                   14.479(2)
_cell_length_c                   15.828(3)
_cell_angle_alpha                90
_cell_angle_beta                 94.622(3)
_cell_angle_gamma                90
_cell_volume                     1271.32
_exptl_crystal_colour            colorless
_exptl_crystal_description       prismatic
_cell_formula_units_Z            4
loop_
_atom_site_label
_atom_site_type_symbol
_atom_site_fract_x
_atom_site_fract_y
_atom_site_fract_z
N1 N 0.7372(3) 0.77589(11) 0.33552(10)
N2 N 1.0581(3) 0.95851(11) 0.25914(10)
O1 O 1.2183(3) 0.81275(10) 0.26428(9)
C1 C 0.6997(3) 0.73115(12) 0.41224(12)
C2 C 0.5272(4) 0.66573(13) 0.42676(13)
H1 H 0.4146 0.6469 0.3836
C3 C 0.5271(4) 0.62892(15) 0.50771(15)
H2 H 0.4106 0.5856 0.5190
C4 C 0.6960(5) 0.65522(16) 0.57172(15)
H3 H 0.6942 0.6289 0.6253
C5 C 0.8674(4) 0.72049(15) 0.55638(13)
H4 H 0.9818 0.7383 0.5994
C6 C 0.8683(3) 0.75925(13) 0.47682(12)
C7 C 1.0292(3) 0.83017(13) 0.44218(12)
H5 H 1.1876 0.8048 0.4350
H6 H 1.0465 0.8836 0.4791
C8 C 0.8961(3) 0.85586(12) 0.35529(11)
C9 C 1.0776(3) 0.87017(13) 0.28751(11)
C10 C 0.8792(3) 1.00686(13) 0.29889(11)
C11 C 0.7706(3) 0.94830(12) 0.35414(10)
C12 C 0.5820(3) 0.97992(13) 0.39708(12)
H7 H 0.5049 0.9410 0.4330
C13 C 0.5084(4) 1.07135(14) 0.38587(13)
H8 H 0.3801 1.0935 0.4142
C14 C 0.6239(4) 1.12926(14) 0.33332(13)
H9 H 0.5746 1.1905 0.3277
C15 C 0.8118(4) 1.09817(13) 0.28860(12)
H10 H 0.8896 1.1373 0.2530
C16 C 1.1961(4) 0.99611(18) 0.19351(13)
H11 H 1.3138 0.9517 0.1788
H12 H 1.2762 1.0515 0.2138
H13 H 1.0898 1.0101 0.1444
H14 H 0.605(4) 0.7907(15) 0.3016(14)
loop_
_geom_bond_atom_site_label_1
_geom_bond_atom_site_label_2
_geom_bond_site_symmetry_1
_geom_bond_site_symmetry_2
N1 C1 1_555 1_555
N2 C9 1_555 1_555
O1 C9 1_555 1_555
C1 C2 1_555 1_555
C2 H1 1_555 1_555
C3 C2 1_555 1_555
H2 C3 1_555 1_555
C4 C3 1_555 1_555
H3 C4 1_555 1_555
C5 C4 1_555 1_555
H4 C5 1_555 1_555
C6 C1 1_555 1_555
C7 C6 1_555 1_555
H5 C7 1_555 1_555
H6 C7 1_555 1_555
C8 N1 1_555 1_555
C9 C8 1_555 1_555
C10 N2 1_555 1_555
C11 C8 1_555 1_555
C12 C11 1_555 1_555
H7 C12 1_555 1_555
C13 C12 1_555 1_555
H8 C13 1_555 1_555
C14 C13 1_555 1_555
H9 C14 1_555 1_555
C15 C10 1_555 1_555
H10 C15 1_555 1_555
C16 N2 1_555 1_555
H11 C16 1_555 1_555
H12 C16 1_555 1_555
H13 C16 1_555 1_555
H14 N1 1_555 1_555
C5 C6 1_555 1_555
C7 C8 1_555 1_555
C10 C11 1_555 1_555
C14 C15 1_555 1_555

#END
