
#######################################################################
#
#                 Cambridge Crystallographic Data Centre
#                                CCDC 
#
#######################################################################
#
# If this CIF has been generated from an entry in the Cambridge 
# Structural Database, then it will include bibliographic, chemical, 
# crystal, experimental, refinement or atomic coordinate data resulting 
# from the CCDC's data processing and validation procedures.
#
#######################################################################

data_ZAZHUG
_chemical_formula_moiety         'C19 H13 F17 N2 O1'
_chemical_name_systematic        
2,2,3,3,4,4,5,5,6,6,7,7,8,8,9,9,9-heptadecafluoro-N-(morpholin-4-yl)-1-phenylnonan-1-imine
_symmetry_cell_setting           monoclinic
_symmetry_space_group_name_H-M   'P 21/c'
_symmetry_Int_Tables_number      14
_space_group_name_Hall           '-P 2ybc'
loop_
_symmetry_equiv_pos_site_id
_symmetry_equiv_pos_as_xyz
1 x,y,z
2 -x,1/2+y,1/2-z
3 -x,-y,-z
4 x,1/2-y,1/2+z
_cell_length_a                   21.570(4)
_cell_length_b                   5.4827(9)
_cell_length_c                   19.132(3)
_cell_angle_alpha                90
_cell_angle_beta                 104.557(4)
_cell_angle_gamma                90
_cell_volume                     2189.95
_exptl_crystal_description       sheet
_cell_formula_units_Z            4
loop_
_atom_site_label
_atom_site_type_symbol
_atom_site_fract_x
_atom_site_fract_y
_atom_site_fract_z
C1 C 0.1993(2) 0.7389(8) 0.2542(2)
C2 C 0.0740(2) 1.1740(10) 0.0901(3)
H1 H 0.0357 1.0860 0.0965
H2 H 0.0671 1.3504 0.0963
C3 C 0.1318(2) 1.0917(9) 0.1476(3)
H3 H 0.1701 1.1850 0.1436
H4 H 0.1248 1.1208 0.1961
C4 C 0.1493(2) 0.7871(10) 0.0645(2)
H5 H 0.1548 0.6107 0.0569
H6 H 0.1877 0.8737 0.0580
C5 C 0.0904(2) 0.8794(11) 0.0104(3)
H7 H 0.0952 0.8502 -0.0391
H8 H 0.0525 0.7875 0.0160
C6 C 0.1554(2) 0.8480(9) 0.2938(2)
C7 C 0.1738(3) 1.0175(10) 0.3477(3)
H9 H 0.2173 1.0685 0.3622
C8 C 0.1300(3) 1.1135(11) 0.3806(3)
H10 H 0.1432 1.2321 0.4175
C9 C 0.0670(3) 1.0409(11) 0.3609(3)
H11 H 0.0367 1.1114 0.3833
C10 C 0.0484(3) 0.8660(11) 0.3088(3)
H12 H 0.0051 0.8128 0.2955
C11 C 0.0922(2) 0.7674(10) 0.2757(3)
H13 H 0.0793 0.6436 0.2402
C12 C 0.2594(3) 0.6093(14) 0.2963(5)
C13 C 0.3211(3) 0.7621(16) 0.3074(5)
C14 C 0.3842(3) 0.6206(16) 0.3318(5)
C15 C 0.4435(3) 0.7809(16) 0.3615(5)
C16 C 0.5085(3) 0.6588(16) 0.3664(5)
C17 C 0.5666(4) 0.7973(17) 0.4119(5)
C18 C 0.6318(4) 0.7223(18) 0.3997(5)
C19 C 0.6905(5) 0.823(2) 0.4535(6)
F1 F 0.2544(6) 0.543(3) 0.3617(5)
F2 F 0.2671(6) 0.4018(15) 0.2605(9)
F3 F 0.3196(5) 0.9381(16) 0.3567(6)
F4 F 0.3201(5) 0.877(2) 0.2459(5)
F5 F 0.3936(4) 0.4914(18) 0.2754(5)
F6 F 0.3789(5) 0.460(2) 0.3829(6)
F7 F 0.4424(4) 0.8553(18) 0.4276(4)
F8 F 0.4398(6) 0.9793(19) 0.3197(7)
F9 F 0.5161(4) 0.632(2) 0.2990(4)
F10 F 0.5079(5) 0.4343(16) 0.3925(6)
F11 F 0.5692(5) 0.765(2) 0.4823(4)
F12 F 0.5593(5) 1.0354(14) 0.3983(6)
F13 F 0.6334(5) 0.791(2) 0.3329(5)
F14 F 0.6354(5) 0.4795(15) 0.4007(7)
F15 F 0.6974(5) 0.717(2) 0.5171(5)
F16 F 0.6850(6) 1.0597(17) 0.4633(7)
F17 F 0.7426(5) 0.783(2) 0.4299(7)
N1 N 0.19285(18) 0.7226(7) 0.1860(2)
N2 N 0.14191(18) 0.8290(7) 0.1376(2)
O1 O 0.08071(17) 1.1320(7) 0.01962(18)
C20? C 0.2599(3) 0.6059(15) 0.2961(5)
C21? C 0.3228(4) 0.744(2) 0.2986(6)
C22? C 0.3846(4) 0.635(2) 0.3467(6)
C23? C 0.4476(4) 0.756(2) 0.3393(5)
C24? C 0.5077(4) 0.693(2) 0.3984(5)
C25? C 0.5718(4) 0.769(2) 0.3831(5)
C26? C 0.6309(4) 0.727(2) 0.4446(5)
C27? C 0.6949(5) 0.811(3) 0.4329(7)
F18? F 0.2568(6) 0.582(3) 0.3655(6)
F19? F 0.2628(6) 0.3827(17) 0.2704(10)
F20? F 0.3296(7) 0.775(3) 0.2322(6)
F21? F 0.3167(7) 0.9689(19) 0.3256(10)
F22? F 0.3820(6) 0.658(3) 0.4158(5)
F23? F 0.3874(5) 0.3988(16) 0.3327(9)
F24? F 0.4564(5) 0.691(3) 0.2748(5)
F25? F 0.4395(6) 0.9975(17) 0.3386(8)
F26? F 0.5041(6) 0.802(2) 0.4604(5)
F27? F 0.5093(7) 0.4530(19) 0.4115(9)
F28? F 0.5788(6) 0.647(3) 0.3247(6)
F29? F 0.5680(7) 1.007(2) 0.3641(9)
F30? F 0.6234(6) 0.851(3) 0.5033(6)
F31? F 0.6353(8) 0.494(2) 0.4655(9)
F32? F 0.7049(6) 0.732(3) 0.3724(6)
F33? F 0.6954(9) 1.054(2) 0.4342(10)
F34? F 0.7416(6) 0.734(3) 0.4885(7)
C28? C 0.2594(3) 0.6093(14) 0.2963(5)
C29? C 0.3213(4) 0.7582(17) 0.3042(6)
C30? C 0.3839(4) 0.6223(19) 0.3399(6)
C31? C 0.4440(4) 0.7834(18) 0.3557(6)
C32? C 0.5082(4) 0.6465(19) 0.3755(6)
C33? C 0.5667(4) 0.807(2) 0.4076(6)
C34? C 0.6323(4) 0.694(2) 0.4119(6)
C35? C 0.6906(5) 0.846(2) 0.4508(7)
F35? F 0.3183(7) 0.963(2) 0.3406(10)
F36? F 0.3250(7) 0.823(3) 0.2375(7)
F37? F 0.3911(5) 0.440(2) 0.2953(8)
F38? F 0.3781(5) 0.521(3) 0.4011(6)
F39? F 0.4426(5) 0.935(2) 0.4101(6)
F40? F 0.4420(6) 0.921(2) 0.2971(6)
F41? F 0.5161(5) 0.535(2) 0.3160(6)
F42? F 0.5046(8) 0.468(3) 0.4225(8)
F43? F 0.5651(5) 0.875(2) 0.4745(5)
F44? F 0.5611(8) 1.014(2) 0.3683(9)
F45? F 0.6378(6) 0.653(3) 0.3449(6)
F46? F 0.6367(8) 0.477(2) 0.4439(9)
F47? F 0.6875(7) 0.893(3) 0.5172(6)
F48? F 0.6914(9) 1.048(3) 0.4129(10)
F49? F 0.7443(5) 0.722(3) 0.4545(9)
C36? C 0.3226(4) 0.732(2) 0.2937(6)
C37? C 0.3832(4) 0.6506(19) 0.3499(5)
C38? C 0.4466(4) 0.731(2) 0.3336(5)
C39? C 0.5059(4) 0.717(2) 0.3977(5)
C40? C 0.5701(4) 0.757(2) 0.3785(5)
C41? C 0.6288(4) 0.793(2) 0.4417(5)
C42? C 0.6933(5) 0.802(2) 0.4235(6)
F50? F 0.3322(5) 0.707(3) 0.2272(5)
F51? F 0.3148(5) 0.9717(15) 0.3030(7)
F52? F 0.3816(5) 0.743(2) 0.4148(5)
F53? F 0.3833(5) 0.4085(16) 0.3562(8)
F54? F 0.4562(5) 0.592(2) 0.2795(5)
F55? F 0.4998(5) 0.890(2) 0.4459(6)
F56? F 0.5068(7) 0.505(2) 0.4317(7)
F57? F 0.5808(5) 0.5619(19) 0.3401(6)
F58? F 0.5650(5) 0.9521(18) 0.3353(6)
F59? F 0.6217(6) 1.003(2) 0.4754(7)
F60? F 0.6292(6) 0.617(3) 0.4903(7)
F61? F 0.7061(6) 0.597(2) 0.3943(8)
F62? F 0.6949(6) 0.985(3) 0.3784(8)
F63? F 0.7385(5) 0.849(3) 0.4835(6)
F64? F 0.4401(7) 0.961(2) 0.3092(9)
C43? C 0.2599(3) 0.6059(15) 0.2961(5)
loop_
_geom_bond_atom_site_label_1
_geom_bond_atom_site_label_2
_geom_bond_site_symmetry_1
_geom_bond_site_symmetry_2
C1 C6 1_555 1_555
C2 H1 1_555 1_555
H2 C2 1_555 1_555
C3 C2 1_555 1_555
H3 C3 1_555 1_555
H4 C3 1_555 1_555
C4 H5 1_555 1_555
H6 C4 1_555 1_555
C5 C4 1_555 1_555
H7 C5 1_555 1_555
H8 C5 1_555 1_555
C6 C7 1_555 1_555
C7 H9 1_555 1_555
C8 C7 1_555 1_555
H10 C8 1_555 1_555
C9 C8 1_555 1_555
H11 C9 1_555 1_555
C10 C9 1_555 1_555
H12 C10 1_555 1_555
C11 C6 1_555 1_555
H13 C11 1_555 1_555
C12 C1 1_555 1_555
C13 C12 1_555 1_555
C14 C13 1_555 1_555
C15 C14 1_555 1_555
C16 C15 1_555 1_555
C17 C16 1_555 1_555
C18 C17 1_555 1_555
C19 C18 1_555 1_555
F1 C12 1_555 1_555
F2 C12 1_555 1_555
F3 C13 1_555 1_555
F4 C13 1_555 1_555
F5 C14 1_555 1_555
F6 C14 1_555 1_555
F7 C15 1_555 1_555
F8 C15 1_555 1_555
F9 C16 1_555 1_555
F10 C16 1_555 1_555
F11 C17 1_555 1_555
F12 C17 1_555 1_555
F13 C18 1_555 1_555
F14 C18 1_555 1_555
F15 C19 1_555 1_555
F16 C19 1_555 1_555
F17 C19 1_555 1_555
N1 C1 1_555 1_555
N2 C3 1_555 1_555
O1 C2 1_555 1_555
C4 N2 1_555 1_555
C5 O1 1_555 1_555
C10 C11 1_555 1_555
N1 N2 1_555 1_555

#END
