
#######################################################################
#
#                 Cambridge Crystallographic Data Centre
#                                CCDC 
#
#######################################################################
#
# If this CIF has been generated from an entry in the Cambridge 
# Structural Database, then it will include bibliographic, chemical, 
# crystal, experimental, refinement or atomic coordinate data resulting 
# from the CCDC's data processing and validation procedures.
#
#######################################################################

data_ZAZPAR
_chemical_formula_moiety         'C16 H32 Li1 O4 1+,C10 H12 B2 Li1 1-'
_chemical_name_systematic        
'tetrakis(Tetrahydrofuran)-lithium bis(\h^6^-1-H-boratabenzene)-lithium'
_symmetry_cell_setting           monoclinic
_symmetry_space_group_name_H-M   'C 2/c'
_symmetry_Int_Tables_number      15
_space_group_name_Hall           '-C 2yn'
loop_
_symmetry_equiv_pos_site_id
_symmetry_equiv_pos_as_xyz
1 x,y,z
2 -x,y,1/2-z
3 1/2+x,1/2+y,z
4 1/2-x,1/2+y,1/2-z
5 -x,-y,-z
6 x,-y,1/2+z
7 1/2-x,1/2-y,-z
8 1/2+x,1/2-y,1/2+z
_cell_length_a                   16.213(2)
_cell_length_b                   8.403(2)
_cell_length_c                   20.775(4)
_cell_angle_alpha                90
_cell_angle_beta                 95.15(1)
_cell_angle_gamma                90
_cell_volume                     2818.92
_exptl_crystal_colour            colorless
_cell_formula_units_Z            4
loop_
_atom_site_label
_atom_site_type_symbol
_atom_site_fract_x
_atom_site_fract_y
_atom_site_fract_z
O1 O 0.4593(1) 0.2100(3) 0.6816(1)
O2 O 0.5841(2) 0.4865(3) 0.7211(1)
C1 C 0.5060(2) 0.0730(4) 0.6661(2)
C2 C 0.4135(2) 0.2633(5) 0.6239(2)
C3 C 0.4393(3) 0.1691(5) 0.5702(2)
C4 C 0.5144(2) 0.0832(5) 0.5954(2)
C5 C 0.6689(3) 0.4452(5) 0.7258(2)
C6 C 0.6498(4) 0.6944(6) 0.6773(3)
C7 C 0.7131(3) 0.5710(6) 0.6943(2)
C8 C 0.5746(3) 0.6347(6) 0.6886(3)
Li1 Li 0.5000 0.353(1) 0.7500
H1 H 0.5589 0.0744 0.6899
H2 H 0.4774 -0.0213 0.6760
H3 H 0.3550 0.2534 0.6272
H4 H 0.4246 0.3750 0.6168
H5 H 0.3972 0.0931 0.5556
H6 H 0.4510 0.2329 0.5344
H7 H 0.5641 0.1379 0.5870
H8 H 0.5177 -0.0230 0.5773
H9 H 0.6890 0.4392 0.7713
H10 H 0.6770 0.3453 0.7068
H11 H 0.6635 0.7893 0.7028
H12 H 0.6528 0.7251 0.6325
H13 H 0.7582 0.6123 0.7231
H14 H 0.7360 0.5302 0.6569
H15 H 0.5427 0.6234 0.6474
H16 H 0.5473 0.7107 0.7135
O1A O 0.5407(1) 0.2100(3) 0.8184(1)
O2A O 0.4159(2) 0.4865(3) 0.7789(1)
C1A C 0.4940(2) 0.0730(4) 0.8339(2)
C2A C 0.5865(2) 0.2633(5) 0.8761(2)
C5A C 0.3311(3) 0.4452(5) 0.7742(2)
C8A C 0.4254(3) 0.6347(6) 0.8114(3)
C4A C 0.4856(2) 0.0832(5) 0.9046(2)
H1A H 0.4411 0.0744 0.8101
H2A H 0.5226 -0.0213 0.8240
C3A C 0.5607(3) 0.1691(5) 0.9298(2)
H3A H 0.6450 0.2534 0.8728
H4A H 0.5754 0.3750 0.8832
C7A C 0.2869(3) 0.5710(6) 0.8057(2)
H9A H 0.3110 0.4392 0.7287
H10A H 0.3230 0.3453 0.7932
C6A C 0.3502(4) 0.6944(6) 0.8227(3)
H15A H 0.4573 0.6234 0.8526
H16A H 0.4527 0.7107 0.7865
H7A H 0.4359 0.1379 0.9130
H8A H 0.4823 -0.0230 0.9227
H5A H 0.6028 0.0931 0.9444
H6A H 0.5490 0.2329 0.9656
H13A H 0.2418 0.6123 0.7769
H14A H 0.2640 0.5302 0.8431
H11A H 0.3365 0.7893 0.7972
H12A H 0.3472 0.7251 0.8675
C9 C 0.2060(3) 0.0244(4) 0.4950(2)
C10 C 0.2589(2) 0.0033(4) 0.4473(2)
C11 C 0.2424(2) -0.1084(5) 0.3971(2)
C12 C 0.1141(2) -0.1800(4) 0.4482(2)
C13 C 0.1346(2) -0.0667(5) 0.4956(2)
B1 B 0.1664(3) -0.2064(5) 0.3959(2)
Li2 Li 0.2500 -0.25 0.5000
H17 H 0.152(2) -0.284(3) 0.364(1)
H18 H 0.2183 0.1003 0.5283
H19 H 0.3084 0.0681 0.4475
H20 H 0.2808 -0.1228 0.3645
H21 H 0.0635 -0.2423 0.4501
H22 H 0.0983 -0.0488 0.5294
C9F C 0.2940(3) -0.5244(4) 0.5050(2)
C10F C 0.2411(2) -0.5033(4) 0.5527(2)
C11F C 0.2576(2) -0.3916(5) 0.6029(2)
C12F C 0.3859(2) -0.3200(4) 0.5518(2)
C13F C 0.3654(2) -0.4333(5) 0.5044(2)
B1F B 0.3336(3) -0.2936(5) 0.6041(2)
H18F H 0.2817 -0.6003 0.4717
H19F H 0.1916 -0.5681 0.5525
H20F H 0.2192 -0.3772 0.6355
H21F H 0.4365 -0.2577 0.5499
H22F H 0.4017 -0.4512 0.4706
H17F H 0.348(2) -0.216(3) 0.636(1)
loop_
_geom_bond_atom_site_label_1
_geom_bond_atom_site_label_2
_geom_bond_site_symmetry_1
_geom_bond_site_symmetry_2
O1 C1 1_555 1_555
O2 C5 1_555 1_555
C1 C4 1_555 1_555
C2 O1 1_555 1_555
C3 C2 1_555 1_555
C4 C3 1_555 1_555
C5 C7 1_555 1_555
C6 C7 1_555 1_555
C7 H13 1_555 1_555
C8 O2 1_555 1_555
Li1 O1 1_555 1_555
H1 C1 1_555 1_555
H2 C1 1_555 1_555
H3 C2 1_555 1_555
H4 C2 1_555 1_555
H5 C3 1_555 1_555
H6 C3 1_555 1_555
H7 C4 1_555 1_555
H8 C4 1_555 1_555
H9 C5 1_555 1_555
H10 C5 1_555 1_555
H11 C6 1_555 1_555
H12 C6 1_555 1_555
H14 C7 1_555 1_555
H15 C8 1_555 1_555
H16 C8 1_555 1_555
C9 C10 1_555 1_555
C10 C11 1_555 1_555
C11 B1 1_555 1_555
C12 C13 1_555 1_555
C13 C9 1_555 1_555
B1 C12 1_555 1_555
Li2 C9 1_555 1_555
H17 B1 1_555 1_555
H18 C9 1_555 1_555
H19 C10 1_555 1_555
H20 C11 1_555 1_555
H21 C12 1_555 1_555
H22 C13 1_555 1_555
O1A Li1 1_555 1_555
O2A Li1 1_555 1_555
C1A O1A 1_555 1_555
C2A O1A 1_555 1_555
C5A O2A 1_555 1_555
C8A O2A 1_555 1_555
C4A C1A 1_555 1_555
H1A C1A 1_555 1_555
H2A C1A 1_555 1_555
C3A C2A 1_555 1_555
H3A C2A 1_555 1_555
H4A C2A 1_555 1_555
C7A C5A 1_555 1_555
H9A C5A 1_555 1_555
H10A C5A 1_555 1_555
C6A C8A 1_555 1_555
H15A C8A 1_555 1_555
H16A C8A 1_555 1_555
H7A C4A 1_555 1_555
H8A C4A 1_555 1_555
H5A C3A 1_555 1_555
H6A C3A 1_555 1_555
H13A C7A 1_555 1_555
H14A C7A 1_555 1_555
H11A C6A 1_555 1_555
H12A C6A 1_555 1_555
C9F Li2 1_555 1_555
C10F Li2 1_555 1_555
C11F Li2 1_555 1_555
C12F Li2 1_555 1_555
C13F Li2 1_555 1_555
B1F Li2 1_555 1_555
H18F C9F 1_555 1_555
H19F C10F 1_555 1_555
H20F C11F 1_555 1_555
H21F C12F 1_555 1_555
H22F C13F 1_555 1_555
H17F B1F 1_555 1_555
O2 Li1 1_555 1_555
C6 C8 1_555 1_555
C10 Li2 1_555 1_555
C11 Li2 1_555 1_555
C12 Li2 1_555 1_555
C13 Li2 1_555 1_555
B1 Li2 1_555 1_555
C4A C3A 1_555 1_555
C7A C6A 1_555 1_555
C9F C10F 1_555 1_555
C9F C13F 1_555 1_555
C10F C11F 1_555 1_555
C11F B1F 1_555 1_555
C12F C13F 1_555 1_555
C12F B1F 1_555 1_555

#END
