
#######################################################################
#
#                 Cambridge Crystallographic Data Centre
#                                CCDC 
#
#######################################################################
#
# If this CIF has been generated from an entry in the Cambridge 
# Structural Database, then it will include bibliographic, chemical, 
# crystal, experimental, refinement or atomic coordinate data resulting 
# from the CCDC's data processing and validation procedures.
#
#######################################################################

data_ZAZRAV
_chemical_formula_moiety         'C68 H70 N4 S4'
_chemical_name_systematic        
5,10,15,20-tetrakis((5-hexyl-2-thienyl)ethynyl)porphyrin
_symmetry_cell_setting           triclinic
_symmetry_space_group_name_H-M   'P -1'
_symmetry_Int_Tables_number      2
_space_group_name_Hall           '-P 1'
loop_
_symmetry_equiv_pos_site_id
_symmetry_equiv_pos_as_xyz
1 x,y,z
2 -x,-y,-z
_cell_length_a                   12.583(3)
_cell_length_b                   15.696(3)
_cell_length_c                   16.681(3)
_cell_angle_alpha                71.26(3)
_cell_angle_beta                 85.87(3)
_cell_angle_gamma                68.04(3)
_cell_volume                     2889.18
_exptl_crystal_colour            'dark green'
_exptl_crystal_description       rod
_cell_formula_units_Z            2
loop_
_atom_site_label
_atom_site_type_symbol
_atom_site_fract_x
_atom_site_fract_y
_atom_site_fract_z
C1 C 0.1458(3) 0.0610(3) 0.6203(2)
C2 C 0.2414(3) 0.0296(3) 0.6802(2)
H1 H 0.2379 0.0402 0.7335
C3 C 0.3362(3) -0.0174(3) 0.6457(2)
H2 H 0.4123 -0.0470 0.6703
C4 C 0.3001(3) -0.0142(3) 0.5643(2)
C5 C 0.3750(3) -0.0575(3) 0.5088(2)
C6 C 0.3435(3) -0.0501(3) 0.4273(2)
C7 C 0.4172(4) -0.0912(3) 0.3698(3)
H3 H 0.4968 -0.1294 0.3802
C8 C 0.3543(3) -0.0666(3) 0.2976(3)
H4 H 0.3818 -0.0840 0.2483
C9 C 0.2389(3) -0.0094(3) 0.3093(2)
C10 C 0.1461(3) 0.0306(3) 0.2497(2)
C11 C 0.0322(3) 0.0854(3) 0.2610(2)
C12 C -0.0614(4) 0.1239(3) 0.1983(3)
H5 H -0.0567 0.1183 0.1430
C13 C -0.1569(3) 0.1694(3) 0.2334(2)
H6 H -0.2322 0.2020 0.2075
C14 C -0.1228(3) 0.1590(3) 0.3176(2)
C15 C -0.1977(3) 0.1975(3) 0.3749(2)
C16 C -0.1675(3) 0.1862(3) 0.4578(3)
C17 C -0.2422(3) 0.2265(3) 0.5166(3)
H7 H -0.3221 0.2638 0.5066
C18 C -0.1797(3) 0.2025(3) 0.5880(3)
H8 H -0.2075 0.2194 0.6374
C19 C -0.0627(3) 0.1465(3) 0.5762(3)
C20 C 0.0309(3) 0.1118(3) 0.6339(2)
C21 C 0.4929(3) -0.1118(3) 0.5355(2)
C22 C 0.5925(3) -0.1578(3) 0.5523(2)
C23 C 0.7123(3) -0.2124(3) 0.5672(3)
C24 C 0.7857(3) -0.2289(3) 0.6328(3)
H9 H 0.7619 -0.2049 0.6793
C25 C 0.8999(3) -0.2853(3) 0.6230(3)
H10 H 0.9610 -0.3030 0.6627
C26 C 0.9154(3) -0.3122(3) 0.5526(2)
C27 C 1.0243(3) -0.3740(3) 0.5216(3)
H11 H 1.0107 -0.4281 0.5115
H12 H 1.0415 -0.3342 0.4667
C28 C 1.1276(3) -0.4156(3) 0.5829(3)
H13 H 1.1090 -0.4524 0.6388
H14 H 1.1441 -0.3616 0.5904
C29 C 1.2348(3) -0.4822(3) 0.5534(3)
H15 H 1.2176 -0.5350 0.5440
H16 H 1.2551 -0.4448 0.4986
C30 C 1.3371(3) -0.5263(3) 0.6169(3)
H17 H 1.3595 -0.4738 0.6214
H18 H 1.3137 -0.5571 0.6733
C31 C 1.4404(3) -0.6010(3) 0.5939(3)
H19 H 1.4693 -0.5693 0.5404
H20 H 1.4172 -0.6509 0.5845
C32 C 1.5363(4) -0.6496(3) 0.6633(3)
H21 H 1.5684 -0.6025 0.6662
H22 H 1.5968 -0.7039 0.6504
H23 H 1.5055 -0.6737 0.7179
C33 C 0.1718(3) 0.0135(3) 0.1699(3)
C34 C 0.2009(3) -0.0063(3) 0.1062(3)
C35 C 0.2443(3) -0.0309(3) 0.0320(3)
C36 C 0.1915(4) -0.0420(3) -0.0298(3)
H24 H 0.1121 -0.0311 -0.0317
C37 C 0.2665(4) -0.0712(3) -0.0909(3)
H25 H 0.2431 -0.0818 -0.1385
C38 C 0.3756(4) -0.0825(4) -0.0745(3)
C39 C 0.4772(4) -0.1075(4) -0.1310(3)
H26 H 0.4557 -0.1299 -0.1742
H27 H 0.4924 -0.0480 -0.1612
C40 C 0.5874(4) -0.1855(4) -0.0819(3)
H28 H 0.5730 -0.2452 -0.0508
H29 H 0.6115 -0.1628 -0.0400
C41 C 0.6833(4) -0.2078(4) -0.1434(3)
H30 H 0.7070 -0.1517 -0.1673
H31 H 0.6549 -0.2201 -0.1908
C42 C 0.7864(5) -0.2976(5) -0.0953(4)
H32 H 0.7594 -0.3516 -0.0688
H33 H 0.8427 -0.3168 -0.1370
C43 C 0.8433(5) -0.2866(5) -0.0319(4)
H34 H 0.7870 -0.2667 0.0095
H35 H 0.8714 -0.2334 -0.0584
C44 C 0.9453(5) -0.3775(4) 0.0164(4)
H36 H 0.9197 -0.4319 0.0404
H37 H 0.9753 -0.3648 0.0621
H38 H 1.0058 -0.3937 -0.0227
C45 C -0.3152(4) 0.2535(3) 0.3460(3)
C46 C -0.4130(4) 0.3021(3) 0.3211(3)
C47 C -0.5300(3) 0.3602(3) 0.2972(3)
C48 C -0.5941(4) 0.3822(3) 0.2248(3)
H39 H -0.5645 0.3592 0.1785
C49 C -0.7098(4) 0.4435(3) 0.2274(3)
H40 H -0.7654 0.4655 0.1823
C50 C -0.7349(3) 0.4681(3) 0.2995(3)
C51 C -0.8453(3) 0.5302(3) 0.3245(3)
H41 H -0.8343 0.5860 0.3330
H42 H -0.8645 0.4924 0.3796
C52 C -0.9471(3) 0.5688(3) 0.2610(3)
H43 H -0.9277 0.6045 0.2049
H44 H -0.9623 0.5137 0.2548
C53 C -1.0550(3) 0.6360(3) 0.2891(3)
H45 H -1.0376 0.6883 0.2994
H46 H -1.0769 0.5988 0.3433
C54 C -1.1565(3) 0.6816(3) 0.2242(3)
H47 H -1.1325 0.7140 0.1686
H48 H -1.1782 0.6296 0.2176
C55 C -1.2608(4) 0.7550(3) 0.2489(3)
H49 H -1.2375 0.8034 0.2612
H50 H -1.2901 0.7213 0.3012
C56 C -1.3564(4) 0.8069(4) 0.1791(3)
H51 H -1.3287 0.8426 0.1279
H52 H -1.4224 0.8523 0.1980
H53 H -1.3795 0.7592 0.1666
C57 C 0.0038(3) 0.1329(3) 0.7117(3)
C58 C -0.0280(3) 0.1555(3) 0.7739(3)
C59 C -0.0809(3) 0.1936(3) 0.8398(2)
C60 C -0.0372(4) 0.1948(3) 0.9119(2)
H54 H 0.0417 0.1634 0.9300
C61 C -0.1215(4) 0.2474(3) 0.9566(3)
H55 H -0.1048 0.2552 1.0079
C62 C -0.2281(3) 0.2856(3) 0.9195(2)
C63 C -0.3389(3) 0.3474(3) 0.9502(2)
H56 H -0.3296 0.4058 0.9540
H57 H -0.3512 0.3098 1.0080
C64 C -0.4457(3) 0.3790(3) 0.8925(3)
H58 H -0.4608 0.3210 0.8939
H59 H -0.4306 0.4103 0.8334
C65 C -0.5526(3) 0.4498(3) 0.9194(2)
H60 H -0.5367 0.5066 0.9205
H61 H -0.5702 0.4176 0.9774
C66 C -0.6570(3) 0.4840(3) 0.8583(3)
H62 H -0.6365 0.5106 0.7996
H63 H -0.6766 0.4277 0.8611
C67 C -0.7624(3) 0.5617(3) 0.8789(3)
H64 H -0.7423 0.6170 0.8786
H65 H -0.7858 0.5343 0.9364
C68 C -0.8633(3) 0.5977(4) 0.8141(3)
H66 H -0.8403 0.6247 0.7572
H67 H -0.9289 0.6479 0.8281
H68 H -0.8851 0.5434 0.8158
N1 N 0.1841(2) 0.0340(2) 0.55018(19)
N2 N 0.2361(3) -0.0009(2) 0.38807(19)
H69 H 0.1748 0.0312 0.4103
N3 N -0.0071(3) 0.1079(2) 0.33332(19)
N4 N -0.0598(3) 0.1388(2) 0.49662(19)
H70 H 0.0018 0.1080 0.4739
S1 S 0.78713(9) -0.26752(8) 0.49465(7)
S2 S 0.38893(10) -0.05872(11) 0.01601(8)
S3 S -0.61457(9) 0.41521(9) 0.36653(7)
S4 S -0.22806(9) 0.25847(9) 0.82807(7)
loop_
_geom_bond_atom_site_label_1
_geom_bond_atom_site_label_2
_geom_bond_site_symmetry_1
_geom_bond_site_symmetry_2
C1 C2 1_555 1_555
C2 H1 1_555 1_555
C3 C2 1_555 1_555
H2 C3 1_555 1_555
C4 C3 1_555 1_555
C5 C4 1_555 1_555
C6 C5 1_555 1_555
C7 C6 1_555 1_555
H3 C7 1_555 1_555
C8 C7 1_555 1_555
H4 C8 1_555 1_555
C9 C8 1_555 1_555
C10 C9 1_555 1_555
C11 C10 1_555 1_555
C12 C11 1_555 1_555
H5 C12 1_555 1_555
C13 C12 1_555 1_555
H6 C13 1_555 1_555
C14 C13 1_555 1_555
C15 C14 1_555 1_555
C16 C15 1_555 1_555
C17 C16 1_555 1_555
H7 C17 1_555 1_555
C18 C17 1_555 1_555
H8 C18 1_555 1_555
C19 C18 1_555 1_555
C20 C1 1_555 1_555
C21 C5 1_555 1_555
C22 C21 1_555 1_555
C23 C22 1_555 1_555
C24 C23 1_555 1_555
H9 C24 1_555 1_555
C25 C24 1_555 1_555
H10 C25 1_555 1_555
C26 C25 1_555 1_555
C27 C26 1_555 1_555
H11 C27 1_555 1_555
H12 C27 1_555 1_555
C28 C27 1_555 1_555
H13 C28 1_555 1_555
H14 C28 1_555 1_555
C29 C28 1_555 1_555
H15 C29 1_555 1_555
H16 C29 1_555 1_555
C30 C29 1_555 1_555
H17 C30 1_555 1_555
H18 C30 1_555 1_555
C31 C30 1_555 1_555
H19 C31 1_555 1_555
H20 C31 1_555 1_555
C32 C31 1_555 1_555
H21 C32 1_555 1_555
H22 C32 1_555 1_555
H23 C32 1_555 1_555
C33 C10 1_555 1_555
C34 C33 1_555 1_555
C35 C34 1_555 1_555
C36 C35 1_555 1_555
H24 C36 1_555 1_555
C37 C36 1_555 1_555
H25 C37 1_555 1_555
C38 C37 1_555 1_555
C39 C38 1_555 1_555
H26 C39 1_555 1_555
H27 C39 1_555 1_555
C40 C39 1_555 1_555
H28 C40 1_555 1_555
H29 C40 1_555 1_555
C41 C40 1_555 1_555
H30 C41 1_555 1_555
H31 C41 1_555 1_555
C42 C41 1_555 1_555
H32 C42 1_555 1_555
H33 C42 1_555 1_555
C43 C42 1_555 1_555
H34 C43 1_555 1_555
H35 C43 1_555 1_555
C44 C43 1_555 1_555
H36 C44 1_555 1_555
H37 C44 1_555 1_555
H38 C44 1_555 1_555
C45 C15 1_555 1_555
C46 C45 1_555 1_555
C47 C46 1_555 1_555
C48 C47 1_555 1_555
H39 C48 1_555 1_555
C49 C48 1_555 1_555
H40 C49 1_555 1_555
C50 C49 1_555 1_555
C51 C50 1_555 1_555
H41 C51 1_555 1_555
H42 C51 1_555 1_555
C52 C51 1_555 1_555
H43 C52 1_555 1_555
H44 C52 1_555 1_555
C53 C52 1_555 1_555
H45 C53 1_555 1_555
H46 C53 1_555 1_555
C54 C53 1_555 1_555
H47 C54 1_555 1_555
H48 C54 1_555 1_555
C55 C54 1_555 1_555
H49 C55 1_555 1_555
H50 C55 1_555 1_555
C56 C55 1_555 1_555
H51 C56 1_555 1_555
H52 C56 1_555 1_555
H53 C56 1_555 1_555
C57 C20 1_555 1_555
C58 C57 1_555 1_555
C59 C58 1_555 1_555
C60 C59 1_555 1_555
H54 C60 1_555 1_555
C61 C60 1_555 1_555
H55 C61 1_555 1_555
C62 C61 1_555 1_555
C63 C62 1_555 1_555
H56 C63 1_555 1_555
H57 C63 1_555 1_555
C64 C63 1_555 1_555
H58 C64 1_555 1_555
H59 C64 1_555 1_555
C65 C64 1_555 1_555
H60 C65 1_555 1_555
H61 C65 1_555 1_555
C66 C65 1_555 1_555
H62 C66 1_555 1_555
H63 C66 1_555 1_555
C67 C66 1_555 1_555
H64 C67 1_555 1_555
H65 C67 1_555 1_555
C68 C67 1_555 1_555
H66 C68 1_555 1_555
H67 C68 1_555 1_555
H68 C68 1_555 1_555
N1 C1 1_555 1_555
N2 C6 1_555 1_555
H69 N2 1_555 1_555
N3 C11 1_555 1_555
N4 C16 1_555 1_555
H70 N4 1_555 1_555
S1 C23 1_555 1_555
S2 C35 1_555 1_555
S3 C47 1_555 1_555
S4 C59 1_555 1_555
C4 N1 1_555 1_555
C9 N2 1_555 1_555
C14 N3 1_555 1_555
C19 C20 1_555 1_555
C19 N4 1_555 1_555
C26 S1 1_555 1_555
C38 S2 1_555 1_555
C50 S3 1_555 1_555
C62 S4 1_555 1_555

#END
