
#######################################################################
#
#                 Cambridge Crystallographic Data Centre
#                                CCDC 
#
#######################################################################
#
# If this CIF has been generated from an entry in the Cambridge 
# Structural Database, then it will include bibliographic, chemical, 
# crystal, experimental, refinement or atomic coordinate data resulting 
# from the CCDC's data processing and validation procedures.
#
#######################################################################

data_ZAZTIF
_chemical_formula_moiety         'C23 H20 O5'
_chemical_name_systematic        
'Ethyl 3-hydroxy-9-methyl-6-oxo-7-phenyl-7,8-dihydro-6H-benzo[c]chromene-8-carboxylate'
_symmetry_cell_setting           monoclinic
_symmetry_space_group_name_H-M   'P 21/n'
_symmetry_Int_Tables_number      14
_space_group_name_Hall           '-P 2yn'
loop_
_symmetry_equiv_pos_site_id
_symmetry_equiv_pos_as_xyz
1 x,y,z
2 1/2-x,1/2+y,1/2-z
3 -x,-y,-z
4 1/2+x,1/2-y,1/2+z
_cell_length_a                   8.2190(16)
_cell_length_b                   13.745(3)
_cell_length_c                   16.562(3)
_cell_angle_alpha                90
_cell_angle_beta                 95.08(3)
_cell_angle_gamma                90
_cell_volume                     1863.66
_cell_formula_units_Z            4
loop_
_atom_site_label
_atom_site_type_symbol
_atom_site_fract_x
_atom_site_fract_y
_atom_site_fract_z
O1 O 0.6390(2) 0.52622(15) 0.28892(11)
C1 C 0.8098(4) 0.5848(3) 0.4003(2)
H1 H 0.9093 0.6189 0.4166
H2 H 0.8143 0.5208 0.4235
H3 H 0.7190 0.6197 0.4189
O2 O 0.6718(2) 0.54563(17) 0.15771(12)
C2 C 0.7897(3) 0.5773(2) 0.31216(19)
H4 H 0.7862 0.6418 0.2882
H5 H 0.8811 0.5423 0.2929
O3 O 0.04337(19) 0.73437(11) 0.20255(8)
C3 C 0.5928(3) 0.51662(18) 0.21049(16)
O4 O 0.1592(2) 0.67849(12) 0.31700(9)
C4 C 0.4304(3) 0.46337(17) 0.19845(14)
H6 H 0.4490 0.3979 0.2207
O5 O -0.2223(2) 0.87529(13) -0.02951(10)
H7 H -0.2579 0.8596 -0.0755
C5 C 0.3781(3) 0.45114(17) 0.10966(14)
C6 C 0.2646(3) 0.50950(17) 0.07329(14)
H8 H 0.2333 0.5003 0.0185
C7 C 0.1874(3) 0.58757(16) 0.11645(13)
C8 C 0.2102(3) 0.59050(16) 0.19901(13)
C9 C 0.2992(3) 0.51132(16) 0.24727(13)
H9 H 0.3564 0.5418 0.2952
C10 C 0.4598(3) 0.37296(19) 0.06512(17)
H10 H 0.4167 0.3728 0.0093
H11 H 0.4399 0.3110 0.0891
H12 H 0.5753 0.3850 0.0684
C11 C 0.1806(3) 0.43662(16) 0.27729(13)
C12 C 0.1995(3) 0.4041(2) 0.35584(16)
H13 H 0.2819 0.4302 0.3915
C13 C 0.0978(4) 0.3329(2) 0.38319(19)
H14 H 0.1132 0.3114 0.4366
C14 C -0.0253(4) 0.2942(2) 0.3316(2)
H15 H -0.0923 0.2456 0.3495
C15 C -0.0484(4) 0.3278(2) 0.25370(19)
H16 H -0.1328 0.3029 0.2186
C16 C 0.0539(3) 0.39908(19) 0.22693(15)
H17 H 0.0364 0.4218 0.1740
C17 C 0.0862(3) 0.66058(15) 0.07393(13)
C18 C 0.0141(3) 0.73146(16) 0.11919(13)
C19 C 0.1417(3) 0.66735(16) 0.24377(13)
C20 C 0.0504(3) 0.66602(18) -0.00996(14)
H18 H 0.0964 0.6207 -0.0429
C21 C -0.0509(3) 0.73639(18) -0.04509(14)
H19 H -0.0728 0.7382 -0.1011
C22 C -0.1207(3) 0.80474(17) 0.00272(14)
C23 C -0.0863(3) 0.80313(17) 0.08540(14)
H20 H -0.1303 0.8497 0.1179
loop_
_geom_bond_atom_site_label_1
_geom_bond_atom_site_label_2
_geom_bond_site_symmetry_1
_geom_bond_site_symmetry_2
O1 C2 1_555 1_555
C1 H1 1_555 1_555
H2 C1 1_555 1_555
H3 C1 1_555 1_555
O2 C3 1_555 1_555
C2 C1 1_555 1_555
H4 C2 1_555 1_555
H5 C2 1_555 1_555
O3 C18 1_555 1_555
C3 O1 1_555 1_555
O4 C19 1_555 1_555
C4 C3 1_555 1_555
H6 C4 1_555 1_555
O5 H7 1_555 1_555
C5 C4 1_555 1_555
C6 C5 1_555 1_555
H8 C6 1_555 1_555
C7 C6 1_555 1_555
C8 C7 1_555 1_555
C9 C4 1_555 1_555
H9 C9 1_555 1_555
C10 C5 1_555 1_555
H10 C10 1_555 1_555
H11 C10 1_555 1_555
H12 C10 1_555 1_555
C11 C9 1_555 1_555
C12 C11 1_555 1_555
H13 C12 1_555 1_555
C13 C12 1_555 1_555
H14 C13 1_555 1_555
C14 C13 1_555 1_555
H15 C14 1_555 1_555
C15 C14 1_555 1_555
H16 C15 1_555 1_555
C16 C11 1_555 1_555
H17 C16 1_555 1_555
C17 C7 1_555 1_555
C18 C17 1_555 1_555
C19 O3 1_555 1_555
C20 C17 1_555 1_555
H18 C20 1_555 1_555
C21 C20 1_555 1_555
H19 C21 1_555 1_555
C22 O5 1_555 1_555
C23 C18 1_555 1_555
H20 C23 1_555 1_555
C8 C9 1_555 1_555
C8 C19 1_555 1_555
C15 C16 1_555 1_555
C21 C22 1_555 1_555
C22 C23 1_555 1_555

#END
