
#######################################################################
#
#                 Cambridge Crystallographic Data Centre
#                                CCDC 
#
#######################################################################
#
# If this CIF has been generated from an entry in the Cambridge 
# Structural Database, then it will include bibliographic, chemical, 
# crystal, experimental, refinement or atomic coordinate data resulting 
# from the CCDC's data processing and validation procedures.
#
#######################################################################

data_ZAZTOL
_chemical_formula_moiety         'C24 H20 O5'
_chemical_name_systematic        
'Ethyl 3-hydroxy-9-methyl-7-(4-methylphenyl)-6-oxo-6H-benzo[c]chromene-8-carboxylate'
_symmetry_cell_setting           monoclinic
_symmetry_space_group_name_H-M   'P 21/c'
_symmetry_Int_Tables_number      14
_space_group_name_Hall           '-P 2ybc'
loop_
_symmetry_equiv_pos_site_id
_symmetry_equiv_pos_as_xyz
1 x,y,z
2 -x,1/2+y,1/2-z
3 -x,-y,-z
4 x,1/2-y,1/2+z
_cell_length_a                   10.4215(6)
_cell_length_b                   14.3553(8)
_cell_length_c                   13.4989(7)
_cell_angle_alpha                90
_cell_angle_beta                 98.243(4)
_cell_angle_gamma                90
_cell_volume                     1998.62
_exptl_crystal_colour            colorless
_exptl_crystal_description       block
_cell_formula_units_Z            4
loop_
_atom_site_label
_atom_site_type_symbol
_atom_site_fract_x
_atom_site_fract_y
_atom_site_fract_z
C1 C 0.9921(4) 0.7791(3) 0.6711(3)
H1 H 1.0115 0.8444 0.6684
H2 H 1.0146 0.7488 0.6125
H3 H 1.0412 0.7522 0.7298
C2 C 0.8535(3) 0.7668(3) 0.6750(3)
H4 H 0.8029 0.7988 0.6194
H5 H 0.8312 0.7011 0.6707
C3 C 0.7014(3) 0.81461(19) 0.7789(2)
C4 C 0.6832(2) 0.86779(17) 0.87101(18)
C5 C 0.7243(2) 0.95993(17) 0.88184(18)
C6 C 0.7367(3) 1.0295(2) 0.7128(2)
H6 H 0.6470 1.0251 0.6975
C7 C 0.7972(3) 1.00172(18) 0.80568(19)
C8 C 0.9305(3) 1.0078(2) 0.8245(2)
H7 H 0.9736 0.9898 0.8867
C9 C 1.0004(3) 1.0398(2) 0.7529(3)
H8 H 1.0904 1.0415 0.7669
C10 C 0.8083(3) 1.0638(3) 0.6421(2)
H9 H 0.7655 1.0835 0.5804
C11 C 0.9408(3) 1.0695(2) 0.6609(2)
C12 C 1.0184(4) 1.1086(3) 0.5832(3)
H10 H 1.0245 1.1750 0.5902
H11 H 0.9758 1.0933 0.5173
H12 H 1.1038 1.0820 0.5930
C13 C 0.5769(3) 0.72337(18) 0.9330(2)
H13 H 0.5449 0.7037 0.9928
H14 H 0.6480 0.6842 0.9214
H15 H 0.5089 0.7189 0.8772
C14 C 0.6225(2) 0.82275(17) 0.94471(18)
C15 C 0.6110(2) 0.87042(17) 1.03175(18)
H16 H 0.5749 0.8402 1.0821
C16 C 0.6520(2) 0.96259(16) 1.04655(17)
C17 C 0.7023(2) 1.00878(17) 0.96909(17)
C18 C 0.7239(3) 1.10923(18) 0.97635(19)
C19 C 0.6861(2) 1.10421(17) 1.14843(18)
C20 C 0.6474(2) 1.01183(17) 1.14049(17)
C21 C 0.6159(2) 0.97043(18) 1.22797(19)
H17 H 0.5891 0.9086 1.2262
C22 C 0.6238(3) 1.01913(18) 1.31610(19)
H18 H 0.6027 0.9901 1.3732
C23 C 0.6633(3) 1.11178(18) 1.32018(18)
C24 C 0.6934(3) 1.15539(17) 1.23542(18)
H19 H 0.7180 1.2177 1.2369
H20 H 0.695(3) 1.213(3) 1.400(3)
O1 O 0.82521(19) 0.80525(14) 0.76974(14)
O2 O 0.6151(2) 0.78266(16) 0.72033(15)
O3 O 0.71862(18) 1.15170(11) 1.06601(12)
O4 O 0.7416(2) 1.16084(13) 0.90863(14)
O5 O 0.6704(2) 1.15548(15) 1.40996(14)
loop_
_geom_bond_atom_site_label_1
_geom_bond_atom_site_label_2
_geom_bond_site_symmetry_1
_geom_bond_site_symmetry_2
C1 H1 1_555 1_555
H2 C1 1_555 1_555
H3 C1 1_555 1_555
C2 C1 1_555 1_555
H4 C2 1_555 1_555
H5 C2 1_555 1_555
C3 C4 1_555 1_555
C4 C5 1_555 1_555
C5 C7 1_555 1_555
C6 H6 1_555 1_555
C7 C6 1_555 1_555
C8 C7 1_555 1_555
H7 C8 1_555 1_555
C9 C8 1_555 1_555
H8 C9 1_555 1_555
C10 C6 1_555 1_555
H9 C10 1_555 1_555
C11 C9 1_555 1_555
C12 C11 1_555 1_555
H10 C12 1_555 1_555
H11 C12 1_555 1_555
H12 C12 1_555 1_555
C13 H13 1_555 1_555
H14 C13 1_555 1_555
H15 C13 1_555 1_555
C14 C4 1_555 1_555
C15 C14 1_555 1_555
H16 C15 1_555 1_555
C16 C15 1_555 1_555
C17 C5 1_555 1_555
C18 C17 1_555 1_555
C19 C20 1_555 1_555
C20 C16 1_555 1_555
C21 C20 1_555 1_555
H17 C21 1_555 1_555
C22 C21 1_555 1_555
H18 C22 1_555 1_555
C23 C22 1_555 1_555
C24 C19 1_555 1_555
H19 C24 1_555 1_555
H20 O5 1_555 1_555
O1 C2 1_555 1_555
O2 C3 1_555 1_555
O3 C18 1_555 1_555
O4 C18 1_555 1_555
O5 C23 1_555 1_555
C3 O1 1_555 1_555
C10 C11 1_555 1_555
C13 C14 1_555 1_555
C16 C17 1_555 1_555
C19 O3 1_555 1_555
C23 C24 1_555 1_555

#END
