
#######################################################################
#
#                 Cambridge Crystallographic Data Centre
#                                CCDC 
#
#######################################################################
#
# If this CIF has been generated from an entry in the Cambridge 
# Structural Database, then it will include bibliographic, chemical, 
# crystal, experimental, refinement or atomic coordinate data resulting 
# from the CCDC's data processing and validation procedures.
#
#######################################################################

data_ZEBCIU
_chemical_name_common            decursin
_chemical_formula_moiety         'C19 H20 O5'
_chemical_name_systematic        
"(S)-7,8-Dihydro-8,8-dimethyl-2-oxo-2H,6H-benzo(1,2-b:5,4-b')dipyran-7-yl 3-methyl-2-butenoate"
_symmetry_cell_setting           orthorhombic
_symmetry_space_group_name_H-M   'P 21 21 21'
_symmetry_Int_Tables_number      19
_space_group_name_Hall           'P 2ac 2ab'
loop_
_symmetry_equiv_pos_site_id
_symmetry_equiv_pos_as_xyz
1 x,y,z
2 1/2-x,-y,1/2+z
3 1/2+x,1/2-y,-z
4 -x,1/2+y,1/2-z
_cell_length_a                   9.591(4)
_cell_length_b                   10.694(4)
_cell_length_c                   17.043(7)
_cell_angle_alpha                90
_cell_angle_beta                 90
_cell_angle_gamma                90
_cell_volume                     1748.03
_exptl_crystal_colour            colorless
_exptl_crystal_description       rhombic
_cell_formula_units_Z            4
loop_
_atom_site_label
_atom_site_type_symbol
_atom_site_fract_x
_atom_site_fract_y
_atom_site_fract_z
O1 O 0.5574(2) 0.5678(2) 0.57108(12)
O2 O 0.3994(2) 0.46437(19) 0.63997(11)
O3 O 0.02453(18) 0.28459(18) 0.77757(10)
O4 O 0.06353(19) 0.09751(18) 0.88797(10)
O5 O 0.1001(2) 0.0378(2) 1.01339(11)
C1 C 0.5254(3) 0.5279(3) 0.63501(17)
C2 C 0.6054(3) 0.5403(3) 0.70708(18)
H1 H 0.690(4) 0.578(3) 0.7007(18)
C3 C 0.5584(3) 0.4946(3) 0.77579(17)
H2 H 0.610(3) 0.503(3) 0.8224(19)
C4 C 0.4258(3) 0.4324(2) 0.78014(15)
C5 C 0.3478(3) 0.4209(2) 0.71074(14)
C6 C 0.2156(3) 0.3698(3) 0.71047(15)
H3 H 0.165(3) 0.365(3) 0.6631(17)
C7 C 0.1577(3) 0.3309(2) 0.78146(15)
C8 C 0.2330(3) 0.3379(2) 0.85239(15)
C9 C 0.3664(3) 0.3872(2) 0.84996(14)
H4 H 0.422(3) 0.392(3) 0.8979(16)
C10 C 0.1697(3) 0.2938(3) 0.92896(14)
H5 H 0.236(3) 0.245(3) 0.9558(18)
H6 H 0.152(3) 0.367(3) 0.9649(17)
C11 C 0.0339(3) 0.2231(3) 0.91558(15)
H7 H -0.022(3) 0.218(3) 0.9642(16)
C12 C -0.0547(3) 0.2855(3) 0.85108(15)
C13 C -0.0894(3) 0.4204(3) 0.87272(17)
H8 H -0.006(4) 0.473(3) 0.8824(18)
H9 H -0.139(3) 0.459(3) 0.8314(18)
H10 H -0.147(4) 0.422(3) 0.921(2)
C14 C -0.1863(3) 0.2115(3) 0.83289(19)
H11 H -0.155(4) 0.125(4) 0.8157(19)
H12 H -0.246(4) 0.202(4) 0.880(2)
H13 H -0.242(3) 0.251(3) 0.7923(19)
C15 C 0.0987(3) 0.0129(3) 0.94407(15)
C16 C 0.1314(3) -0.1080(3) 0.90690(16)
H14 H 0.103(3) -0.116(3) 0.8554(17)
C17 C 0.1964(4) -0.2025(3) 0.94160(18)
C18 C 0.2494(6) -0.2045(4) 1.0249(2)
H15 H 0.176(6) -0.254(6) 1.059(3)
H16 H 0.239(6) -0.123(6) 1.051(3)
H17 H 0.332(6) -0.259(6) 1.031(3)
C19 C 0.2259(7) -0.3218(4) 0.8970(3)
H18 H 0.176(4) -0.321(3) 0.844(2)
H19 H 0.191(6) -0.389(5) 0.930(3)
H20 H 0.321(6) -0.325(5) 0.891(3)
loop_
_geom_bond_atom_site_label_1
_geom_bond_atom_site_label_2
_geom_bond_site_symmetry_1
_geom_bond_site_symmetry_2
O1 C1 1_555 1_555
O2 C1 1_555 1_555
O3 C7 1_555 1_555
O4 C11 1_555 1_555
O5 C15 1_555 1_555
C1 C2 1_555 1_555
C2 H1 1_555 1_555
C3 C2 1_555 1_555
H2 C3 1_555 1_555
C4 C3 1_555 1_555
C5 O2 1_555 1_555
C6 C5 1_555 1_555
H3 C6 1_555 1_555
C7 C6 1_555 1_555
C8 C7 1_555 1_555
C9 C4 1_555 1_555
H4 C9 1_555 1_555
C10 C8 1_555 1_555
H5 C10 1_555 1_555
H6 C10 1_555 1_555
C11 C10 1_555 1_555
H7 C11 1_555 1_555
C12 O3 1_555 1_555
C13 C12 1_555 1_555
H8 C13 1_555 1_555
H9 C13 1_555 1_555
H10 C13 1_555 1_555
C14 C12 1_555 1_555
H11 C14 1_555 1_555
H12 C14 1_555 1_555
H13 C14 1_555 1_555
C15 O4 1_555 1_555
C16 C15 1_555 1_555
H14 C16 1_555 1_555
C17 C16 1_555 1_555
C18 C17 1_555 1_555
H15 C18 1_555 1_555
H16 C18 1_555 1_555
H17 C18 1_555 1_555
C19 C17 1_555 1_555
H18 C19 1_555 1_555
H19 C19 1_555 1_555
H20 C19 1_555 1_555
C4 C5 1_555 1_555
C8 C9 1_555 1_555
C11 C12 1_555 1_555

#END
