
#######################################################################
#
#                 Cambridge Crystallographic Data Centre
#                                CCDC 
#
#######################################################################
#
# If this CIF has been generated from an entry in the Cambridge 
# Structural Database, then it will include bibliographic, chemical, 
# crystal, experimental, refinement or atomic coordinate data resulting 
# from the CCDC's data processing and validation procedures.
#
#######################################################################

data_ZEBJIC
_chemical_formula_moiety         'C42 H44 O4 Si4'
_chemical_name_systematic        
2,6-dimethyl-4,4,8,8-tetraphenyl-2,6-bis(2-phenylethyl)-1,3,5,7,2,4,6,8-tetroxatetrasilocane
_symmetry_cell_setting           orthorhombic
_symmetry_space_group_name_H-M   'P b c a'
_symmetry_Int_Tables_number      61
_space_group_name_Hall           '-P 2ac 2ab'
loop_
_symmetry_equiv_pos_site_id
_symmetry_equiv_pos_as_xyz
1 x,y,z
2 1/2-x,-y,1/2+z
3 1/2+x,1/2-y,-z
4 -x,1/2+y,1/2-z
5 -x,-y,-z
6 1/2+x,y,1/2-z
7 1/2-x,1/2+y,z
8 x,1/2-y,1/2+z
_cell_length_a                   18.766(5)
_cell_length_b                   10.428(3)
_cell_length_c                   19.818(5)
_cell_angle_alpha                90
_cell_angle_beta                 90
_cell_angle_gamma                90
_cell_volume                     3878.22
_exptl_crystal_colour            colorless
_cell_formula_units_Z            4
loop_
_atom_site_label
_atom_site_type_symbol
_atom_site_fract_x
_atom_site_fract_y
_atom_site_fract_z
Si1 Si 0.46224(4) 0.42699(6) 0.39973(3)
C1 C 0.51587(12) 0.4400(2) 0.32146(12)
C2 C 0.55131(13) 0.5522(2) 0.30332(12)
H1 H 0.5463 0.6265 0.3306
C3 C 0.59407(13) 0.5572(2) 0.24569(13)
H2 H 0.6185 0.634 0.2343
C4 C 0.60061(14) 0.4496(3) 0.20530(13)
H3 H 0.6293 0.4528 0.1658
C5 C 0.56581(13) 0.3380(3) 0.22207(13)
H4 H 0.5704 0.2642 0.1943
C6 C 0.52387(13) 0.3340(2) 0.27992(12)
H5 H 0.5001 0.2566 0.2913
C7 C 0.38035(12) 0.3332(2) 0.38421(12)
C8 C 0.36302(14) 0.2236(3) 0.42124(13)
H6 H 0.3938 0.1953 0.4562
C9 C 0.30073(15) 0.1551(3) 0.40726(15)
H7 H 0.2895 0.0809 0.433
C10 C 0.25573(15) 0.1939(3) 0.35687(16)
H8 H 0.2133 0.1472 0.3481
C11 C 0.27194(14) 0.3003(3) 0.31906(16)
H9 H 0.2408 0.3269 0.2839
C12 C 0.33388(13) 0.3693(2) 0.33212(13)
H10 H 0.3449 0.4421 0.3053
O1 O 0.44262(9) 0.57130(15) 0.42435(8)
Si2 Si 0.42240(3) 0.64739(6) 0.49426(3)
C13 C 0.40135(14) 0.8146(2) 0.47311(13)
H11 H 0.3932 0.8632 0.5147
H12 H 0.3584 0.8172 0.4451
H13 H 0.4413 0.8525 0.4483
C14 C 0.34664(13) 0.5649(2) 0.53633(12)
H14 H 0.3099 0.5454 0.502
H15 H 0.3638 0.4822 0.5547
C15 C 0.31174(13) 0.6412(3) 0.59366(13)
H16 H 0.3446 0.6421 0.6327
H17 H 0.3055 0.7311 0.5786
C16 C 0.24031(13) 0.5904(2) 0.61678(12)
C17 C 0.17802(14) 0.6539(3) 0.59942(13)
H18 H 0.1805 0.7296 0.5729
C18 C 0.11194(15) 0.6081(3) 0.62034(16)
H19 H 0.0697 0.6521 0.6076
C19 C 0.10764(16) 0.4993(3) 0.65953(15)
H20 H 0.0627 0.4686 0.6746
C20 C 0.23485(15) 0.4813(3) 0.65583(13)
H21 H 0.2769 0.4368 0.6687
C21 C 0.16907(16) 0.4356(3) 0.67655(14)
H22 H 0.1665 0.3595 0.7028
O2 O 0.49346(8) 0.64758(15) 0.54188(8)
Si1D Si 0.53776(4) 0.57301(6) 0.60027(3)
C1D C 0.48413(12) 0.5600(2) 0.67854(12)
C2D C 0.44869(13) 0.4478(2) 0.69668(12)
H1D H 0.4537 0.3735 0.6694
C3D C 0.40593(13) 0.4428(2) 0.75431(13)
H2D H 0.3815 0.366 0.7657
C4D C 0.39939(14) 0.5504(3) 0.79470(13)
H3D H 0.3707 0.5472 0.8342
C5D C 0.43419(13) 0.6620(3) 0.77793(13)
H4D H 0.4296 0.7358 0.8057
C6D C 0.47613(13) 0.6660(2) 0.72008(12)
H5D H 0.4999 0.7434 0.7087
C7D C 0.61965(12) 0.6668(2) 0.61579(12)
C8D C 0.63698(14) 0.7764(3) 0.57876(13)
H6D H 0.6062 0.8047 0.5438
C9D C 0.69927(15) 0.8449(3) 0.59274(15)
H7D H 0.7105 0.9191 0.567
C10D C 0.74427(15) 0.8061(3) 0.64313(16)
H8D H 0.7867 0.8528 0.6519
C11D C 0.72806(14) 0.6997(3) 0.68094(16)
H9D H 0.7592 0.6731 0.7161
C12D C 0.66612(13) 0.6307(2) 0.66788(13)
H10D H 0.6551 0.5579 0.6947
O1D O 0.55738(9) 0.42870(15) 0.57565(8)
Si2D Si 0.57760(3) 0.35261(6) 0.50574(3)
C13D C 0.59865(14) 0.1854(2) 0.52689(13)
H11D H 0.6068 0.1368 0.4853
H12D H 0.6416 0.1828 0.5549
H13D H 0.5587 0.1475 0.5517
C14D C 0.65336(13) 0.4351(2) 0.46367(12)
H14D H 0.6901 0.4546 0.498
H15D H 0.6362 0.5178 0.4453
C15D C 0.68826(13) 0.3588(3) 0.40634(13)
H16D H 0.6554 0.3579 0.3673
H17D H 0.6945 0.2689 0.4214
C16D C 0.75969(13) 0.4096(2) 0.38322(12)
C17D C 0.82198(14) 0.3461(3) 0.40058(13)
H18D H 0.8195 0.2704 0.4271
C18D C 0.88806(15) 0.3919(3) 0.37966(16)
H19D H 0.9303 0.3479 0.3924
C19D C 0.89236(16) 0.5007(3) 0.34047(15)
H20D H 0.9373 0.5314 0.3254
C20D C 0.76515(15) 0.5187(3) 0.34417(13)
H21D H 0.7231 0.5632 0.3313
C21D C 0.83093(16) 0.5644(3) 0.32345(14)
H22D H 0.8335 0.6405 0.2972
O2D O 0.50654(8) 0.35242(15) 0.45812(8)
loop_
_geom_bond_atom_site_label_1
_geom_bond_atom_site_label_2
_geom_bond_site_symmetry_1
_geom_bond_site_symmetry_2
Si1 C1 1_555 1_555
C1 C2 1_555 1_555
C2 H1 1_555 1_555
C3 C2 1_555 1_555
H2 C3 1_555 1_555
C4 C3 1_555 1_555
H3 C4 1_555 1_555
C5 C4 1_555 1_555
H4 C5 1_555 1_555
C6 C1 1_555 1_555
H5 C6 1_555 1_555
C7 Si1 1_555 1_555
C8 C7 1_555 1_555
H6 C8 1_555 1_555
C9 C8 1_555 1_555
H7 C9 1_555 1_555
C10 C9 1_555 1_555
H8 C10 1_555 1_555
C11 C10 1_555 1_555
H9 C11 1_555 1_555
C12 C7 1_555 1_555
H10 C12 1_555 1_555
O1 Si1 1_555 1_555
Si2 O1 1_555 1_555
C13 Si2 1_555 1_555
H11 C13 1_555 1_555
H12 C13 1_555 1_555
H13 C13 1_555 1_555
C14 Si2 1_555 1_555
H14 C14 1_555 1_555
H15 C14 1_555 1_555
C15 C14 1_555 1_555
H16 C15 1_555 1_555
H17 C15 1_555 1_555
C16 C15 1_555 1_555
C17 C16 1_555 1_555
H18 C17 1_555 1_555
C18 C17 1_555 1_555
H19 C18 1_555 1_555
C19 C18 1_555 1_555
H20 C19 1_555 1_555
C20 C16 1_555 1_555
H21 C20 1_555 1_555
C21 C19 1_555 1_555
H22 C21 1_555 1_555
O2 Si2 1_555 1_555
Si1D O2 1_555 1_555
C1D Si1D 1_555 1_555
C2D C1D 1_555 1_555
H1D C2D 1_555 1_555
C3D C2D 1_555 1_555
H2D C3D 1_555 1_555
C4D C3D 1_555 1_555
H3D C4D 1_555 1_555
C5D C4D 1_555 1_555
H4D C5D 1_555 1_555
C6D C1D 1_555 1_555
H5D C6D 1_555 1_555
C7D Si1D 1_555 1_555
C8D C7D 1_555 1_555
H6D C8D 1_555 1_555
C9D C8D 1_555 1_555
H7D C9D 1_555 1_555
C10D C9D 1_555 1_555
H8D C10D 1_555 1_555
C11D C10D 1_555 1_555
H9D C11D 1_555 1_555
C12D C7D 1_555 1_555
H10D C12D 1_555 1_555
O1D Si1D 1_555 1_555
Si2D O1D 1_555 1_555
C13D Si2D 1_555 1_555
H11D C13D 1_555 1_555
H12D C13D 1_555 1_555
H13D C13D 1_555 1_555
C14D Si2D 1_555 1_555
H14D C14D 1_555 1_555
H15D C14D 1_555 1_555
C15D C14D 1_555 1_555
H16D C15D 1_555 1_555
H17D C15D 1_555 1_555
C16D C15D 1_555 1_555
C17D C16D 1_555 1_555
H18D C17D 1_555 1_555
C18D C17D 1_555 1_555
H19D C18D 1_555 1_555
C19D C18D 1_555 1_555
H20D C19D 1_555 1_555
C20D C16D 1_555 1_555
H21D C20D 1_555 1_555
C21D C19D 1_555 1_555
H22D C21D 1_555 1_555
O2D Si1 1_555 1_555
C5 C6 1_555 1_555
C11 C12 1_555 1_555
C20 C21 1_555 1_555
C5D C6D 1_555 1_555
C11D C12D 1_555 1_555
Si2D O2D 1_555 1_555
C20D C21D 1_555 1_555

#END
