
#######################################################################
#
#                 Cambridge Crystallographic Data Centre
#                                CCDC 
#
#######################################################################
#
# If this CIF has been generated from an entry in the Cambridge 
# Structural Database, then it will include bibliographic, chemical, 
# crystal, experimental, refinement or atomic coordinate data resulting 
# from the CCDC's data processing and validation procedures.
#
#######################################################################

data_ZEBKOI
_chemical_formula_moiety         'C12 H8 S1,2(C6 F4 I2)'
_chemical_name_systematic        
'Dibenzo[b,d]thiophene bis(1,2,4,5-tetrafluoro-3,6-diiodobenzene)'
_symmetry_cell_setting           triclinic
_symmetry_space_group_name_H-M   'P -1'
_symmetry_Int_Tables_number      2
_space_group_name_Hall           '-P 1'
loop_
_symmetry_equiv_pos_site_id
_symmetry_equiv_pos_as_xyz
1 x,y,z
2 -x,-y,-z
_cell_length_a                   6.1468(15)
_cell_length_b                   9.385(2)
_cell_length_c                   12.214(3)
_cell_angle_alpha                74.322(4)
_cell_angle_beta                 89.801(4)
_cell_angle_gamma                82.231(4)
_cell_volume                     671.753
_exptl_crystal_colour            colorless
_cell_formula_units_Z            1
loop_
_atom_site_label
_atom_site_type_symbol
_atom_site_fract_x
_atom_site_fract_y
_atom_site_fract_z
C7 C 0.379(3) 0.653(2) -0.0022(14)
C8 C 0.355(4) 0.808(2) -0.040(2)
C9 C 0.515(5) 0.8785(12) -0.106(2)
C10 C 0.699(4) 0.7936(19) -0.134(2)
C11 C 0.722(3) 0.6386(18) -0.0966(13)
C12 C 0.562(4) 0.5683(12) -0.0307(12)
C13 C 0.433(3) 0.596(2) -0.0115(15)
C14 C 0.282(3) 0.716(3) 0.0002(16)
C15 C 0.334(5) 0.855(3) -0.054(3)
C16 C 0.534(6) 0.873(3) -0.110(4)
C17 C 0.671(6) 0.760(4) -0.122(3)
C18 C 0.616(3) 0.617(3) -0.0704(16)
S1 S 0.2071(7) 0.5418(6) 0.0770(4)
C7A C 0.621(3) 0.347(2) 0.0022(14)
C8A C 0.645(4) 0.192(2) 0.040(2)
C9A C 0.485(5) 0.1215(12) 0.106(2)
C10A C 0.301(4) 0.2064(19) 0.134(2)
C11A C 0.278(3) 0.3614(18) 0.0966(13)
C12A C 0.438(4) 0.4317(12) 0.0307(12)
C13A C 0.567(3) 0.404(2) 0.0115(15)
C14A C 0.718(3) 0.284(3) -0.0002(16)
C15A C 0.666(5) 0.145(3) 0.054(3)
C16A C 0.466(6) 0.127(3) 0.110(4)
C17A C 0.329(6) 0.240(4) 0.122(3)
C18A C 0.384(3) 0.383(3) 0.0704(16)
S1A S 0.7929(7) 0.4582(6) -0.0770(4)
C1 C 0.1313(10) 0.2832(7) 0.6506(6)
C2 C -0.0372(12) 0.2016(8) 0.6761(6)
C3 C -0.1593(11) 0.1706(8) 0.5927(6)
C4 C -0.1080(10) 0.2194(7) 0.4799(6)
C5 C 0.0593(10) 0.3013(8) 0.4534(6)
C6 C 0.1784(11) 0.3332(8) 0.5363(7)
F1 F -0.0895(9) 0.1471(7) 0.7850(4)
F2 F -0.3202(9) 0.0884(7) 0.6232(5)
F3 F 0.1149(8) 0.3528(7) 0.3459(4)
F4 F 0.3430(8) 0.4129(6) 0.5070(5)
I1 I 0.31350(10) 0.33015(7) 0.77517(5)
I2 I -0.29134(9) 0.17452(6) 0.35304(5)
H1? H 0.2322 0.8649 -0.0206
H2? H 0.4992 0.9822 -0.1305
H3? H 0.8056 0.8406 -0.1781
H4? H 0.8451 0.5818 -0.1156
H5? H 0.8445 0.2978 -0.0412
H6? H 0.7637 0.0604 0.0528
H7? H 0.4309 0.0314 0.1389
H8? H 0.2014 0.2264 0.1627
loop_
_geom_bond_atom_site_label_1
_geom_bond_atom_site_label_2
_geom_bond_site_symmetry_1
_geom_bond_site_symmetry_2
C1 C2 1_555 1_555
C2 C3 1_555 1_555
C3 C4 1_555 1_555
C4 C5 1_555 1_555
C5 C6 1_555 1_555
C6 C1 1_555 1_555
C7 C8 1_555 1_555
C8 C9 1_555 1_555
C9 C10 1_555 1_555
C10 C11 1_555 1_555
C11 C12 1_555 1_555
C12 C7 1_555 1_555
C13 C7 1_555 1_555
C14 C7 1_555 1_555
C15 C8 1_555 1_555
C16 C8 1_555 1_555
C17 C9 1_555 1_555
C18 C11 1_555 1_555
F1 C2 1_555 1_555
F2 C3 1_555 1_555
F3 C5 1_555 1_555
F4 C6 1_555 1_555
I1 C1 1_555 1_555
I2 C4 1_555 1_555
S1 C7 1_555 1_555
C7A C8A 1_555 1_555
C8A C9A 1_555 1_555
C9A C10A 1_555 1_555
C10A C11A 1_555 1_555
C11A S1 1_555 1_555
C12A C12 1_555 1_555
C13A C12 1_555 1_555
C14A C7A 1_555 1_555
C15A C8A 1_555 1_555
C16A C8A 1_555 1_555
C17A C9A 1_555 1_555
C18A S1 1_555 1_555
S1A C11 1_555 1_555
C8 C14 1_555 1_555
C9 C15 1_555 1_555
C9 C16 1_555 1_555
C10 C16 1_555 1_555
C10 C17 1_555 1_555
C11 C17 1_555 1_555
C12 C13 1_555 1_555
C12 C18 1_555 1_555
C12 S1A 1_555 1_555
C13 C14 1_555 1_555
C13 C18 1_555 1_555
C13 S1 1_555 1_555
C13 C12A 1_555 1_555
C14 C15 1_555 1_555
C14 S1 1_555 1_555
C15 C16 1_555 1_555
C16 C17 1_555 1_555
C17 C18 1_555 1_555
C18 S1A 1_555 1_555
S1 C12A 1_555 1_555
C7A C12A 1_555 1_555
C7A C13A 1_555 1_555
C7A S1A 1_555 1_555
C8A C14A 1_555 1_555
C9A C15A 1_555 1_555
C9A C16A 1_555 1_555
C10A C16A 1_555 1_555
C10A C17A 1_555 1_555
C11A C12A 1_555 1_555
C11A C17A 1_555 1_555
C11A C18A 1_555 1_555
C12A C13A 1_555 1_555
C12A C18A 1_555 1_555
C13A C14A 1_555 1_555
C13A C18A 1_555 1_555
C13A S1A 1_555 1_555
C14A C15A 1_555 1_555
C14A S1A 1_555 1_555
C15A C16A 1_555 1_555
C16A C17A 1_555 1_555
C17A C18A 1_555 1_555

#END
