
#######################################################################
#
#                 Cambridge Crystallographic Data Centre
#                                CCDC 
#
#######################################################################
#
# If this CIF has been generated from an entry in the Cambridge 
# Structural Database, then it will include bibliographic, chemical, 
# crystal, experimental, refinement or atomic coordinate data resulting 
# from the CCDC's data processing and validation procedures.
#
#######################################################################

data_ZEBRUW
_chemical_formula_moiety         'C16 H18 O1 S1'
_chemical_name_systematic        1-t-butyl-4-(phenylsulfinyl)benzene
_symmetry_cell_setting           orthorhombic
_symmetry_space_group_name_H-M   'P 21 21 21'
_symmetry_Int_Tables_number      19
_space_group_name_Hall           'P 2ac 2ab'
loop_
_symmetry_equiv_pos_site_id
_symmetry_equiv_pos_as_xyz
1 x,y,z
2 1/2-x,-y,1/2+z
3 1/2+x,1/2-y,-z
4 -x,1/2+y,1/2-z
_cell_length_a                   5.7924(3)
_cell_length_b                   8.1095(3)
_cell_length_c                   29.6243(13)
_cell_angle_alpha                90
_cell_angle_beta                 90
_cell_angle_gamma                90
_cell_volume                     1391.56
_exptl_crystal_description       prism
_cell_formula_units_Z            4
loop_
_atom_site_label
_atom_site_type_symbol
_atom_site_fract_x
_atom_site_fract_y
_atom_site_fract_z
S1 S 0.94812(7) 0.56315(5) 0.34766(2)
O1 O 0.8579(2) 0.71936(15) 0.36794(4)
C1 C 0.8261(3) 0.55174(19) 0.29188(5)
C2 C 0.6237(3) 0.6369(2) 0.28285(6)
H1 H 0.5480 0.6942 0.3057
C3 C 0.5353(3) 0.6356(2) 0.23917(6)
H2 H 0.3998 0.6923 0.2326
C4 C 0.6506(3) 0.5490(2) 0.20538(5)
H3 H 0.5907 0.5474 0.1763
C5 C 0.8539(3) 0.4652(2) 0.21470(6)
H4 H 0.9298 0.4079 0.1919
C6 C 0.9441(3) 0.46705(19) 0.25838(5)
H5 H 1.0812 0.4124 0.2649
C7 C 0.7887(3) 0.39843(19) 0.37341(5)
C8 C 0.5942(3) 0.4339(2) 0.39879(5)
H6 H 0.5390 0.5414 0.4005
C9 C 0.4820(3) 0.3073(2) 0.42172(5)
H7 H 0.3507 0.3313 0.4385
C10 C 0.5623(3) 0.14502(18) 0.42001(5)
C11 C 0.7550(3) 0.11221(19) 0.39289(6)
H8 H 0.8073 0.0043 0.3901
C12 C 0.8696(3) 0.2375(2) 0.37005(6)
H9 H 0.9992 0.2139 0.3527
C13 C 0.4498(3) 0.00474(19) 0.44691(5)
C14 C 0.2683(3) 0.0691(2) 0.48011(5)
H10 H 0.1457 0.1215 0.4637
H11 H 0.3383 0.1475 0.5002
H12 H 0.2071 -0.0213 0.4973
C15 C 0.6353(3) -0.0883(2) 0.47397(6)
H13 H 0.7112 -0.0132 0.4942
H14 H 0.7465 -0.1347 0.4536
H15 H 0.5639 -0.1750 0.4911
C16 C 0.3347(3) -0.1160(2) 0.41386(6)
H16 H 0.2666 -0.2054 0.4304
H17 H 0.4486 -0.1586 0.3934
H18 H 0.2170 -0.0595 0.3971
loop_
_geom_bond_atom_site_label_1
_geom_bond_atom_site_label_2
_geom_bond_site_symmetry_1
_geom_bond_site_symmetry_2
S1 O1 1_555 1_555
C1 S1 1_555 1_555
C2 C1 1_555 1_555
H1 C2 1_555 1_555
C3 C2 1_555 1_555
H2 C3 1_555 1_555
C4 C3 1_555 1_555
H3 C4 1_555 1_555
C5 C4 1_555 1_555
H4 C5 1_555 1_555
C6 C1 1_555 1_555
H5 C6 1_555 1_555
C7 S1 1_555 1_555
C8 C7 1_555 1_555
H6 C8 1_555 1_555
C9 C8 1_555 1_555
H7 C9 1_555 1_555
C10 C9 1_555 1_555
C11 C10 1_555 1_555
H8 C11 1_555 1_555
C12 C7 1_555 1_555
H9 C12 1_555 1_555
C13 C10 1_555 1_555
C14 C13 1_555 1_555
H10 C14 1_555 1_555
H11 C14 1_555 1_555
H12 C14 1_555 1_555
C15 C13 1_555 1_555
H13 C15 1_555 1_555
H14 C15 1_555 1_555
H15 C15 1_555 1_555
C16 C13 1_555 1_555
H16 C16 1_555 1_555
H17 C16 1_555 1_555
H18 C16 1_555 1_555
C5 C6 1_555 1_555
C11 C12 1_555 1_555

#END
