
#######################################################################
#
#                 Cambridge Crystallographic Data Centre
#                                CCDC 
#
#######################################################################
#
# If this CIF has been generated from an entry in the Cambridge 
# Structural Database, then it will include bibliographic, chemical, 
# crystal, experimental, refinement or atomic coordinate data resulting 
# from the CCDC's data processing and validation procedures.
#
#######################################################################

data_ZEBWOV
_chemical_formula_moiety         'C17 H14 N2 O4 S1,0.5(C1 H2 Cl2)'
_chemical_name_systematic        
'(S)-3-Methoxycarbonyl-3-(3-indolyl)-2,3-dihydrobenzo[d]isothiazole-1,1-dioxide dichloromethane solvate'
_symmetry_cell_setting           triclinic
_symmetry_space_group_name_H-M   'P 1'
_symmetry_Int_Tables_number      1
_space_group_name_Hall           'P 1'
loop_
_symmetry_equiv_pos_site_id
_symmetry_equiv_pos_as_xyz
1 x,y,z
_cell_length_a                   8.2173(5)
_cell_length_b                   10.0044(6)
_cell_length_c                   11.8002(7)
_cell_angle_alpha                103.879(2)
_cell_angle_beta                 107.903(2)
_cell_angle_gamma                97.3020(10)
_cell_volume                     874.726
_exptl_crystal_colour            colorless
_exptl_crystal_description       chunk
_chemical_melting_point          '224.5-226.6 deg.C'
_cell_formula_units_Z            2
loop_
_atom_site_label
_atom_site_type_symbol
_atom_site_fract_x
_atom_site_fract_y
_atom_site_fract_z
C1 C 0.2299(10) 0.2541(11) 0.0487(9)
H1 H 0.2521 0.2319 -0.0291
H2 H 0.3420 0.2819 0.1165
Cl1 Cl 0.1221(3) 0.3958(3) 0.0573(3)
Cl2 Cl 0.1069(4) 0.1058(3) 0.0573(3)
C2 C 0.5849(6) 0.9720(5) 0.3597(5)
C3 C 0.7103(6) 0.9177(5) 0.2999(5)
C4 C 0.8807(6) 0.9817(6) 0.3336(5)
H3 H 0.9378 1.0640 0.3988
C5 C 0.8349(7) 0.7894(6) 0.1744(5)
C6 C 0.8547(9) 0.6831(7) 0.0831(6)
H4 H 0.9610 0.6834 0.0705
C7 C 0.7097(10) 0.5774(7) 0.0122(6)
H5 H 0.7185 0.5040 -0.0496
C8 C 0.5505(9) 0.5764(7) 0.0298(5)
H6 H 0.4549 0.5031 -0.0202
C9 C 0.5320(7) 0.6837(6) 0.1213(5)
H7 H 0.4246 0.6830 0.1321
C10 C 0.6777(6) 0.7933(5) 0.1972(5)
C11 C 0.6282(7) 1.1991(6) 0.5128(5)
C12 C 0.7088(8) 1.3078(7) 0.6232(6)
H8 H 0.6729 1.3930 0.6347
C13 C 0.8433(8) 1.2854(8) 0.7148(7)
H9 H 0.9015 1.3571 0.7890
C14 C 0.8927(8) 1.1583(8) 0.6979(6)
H10 H 0.9819 1.1448 0.7622
C15 C 0.8132(7) 1.0489(7) 0.5872(6)
H11 H 0.8470 0.9629 0.5772
C16 C 0.6811(6) 1.0727(6) 0.4920(5)
C17 C 0.4542(7) 0.8482(6) 0.3615(6)
C18 C 0.4207(10) 0.6437(7) 0.4230(8)
H12 H 0.3535 0.6730 0.4745
H13 H 0.4917 0.5833 0.4562
H14 H 0.3428 0.5933 0.3398
N1 N 0.4851(6) 1.0619(5) 0.2918(4)
H15 H 0.3823 1.0078 0.2362
N2 N 0.9570(6) 0.9076(5) 0.2576(5)
H16 H 1.0489 0.8808 0.3041
O1 O 0.2938(4) 1.1501(4) 0.4148(4)
O2 O 0.4534(5) 1.3118(4) 0.3417(4)
O3 O 0.2991(5) 0.8274(4) 0.3092(5)
O4 O 0.5331(5) 0.7672(4) 0.4208(4)
S1 S 0.44669(14) 1.19213(13) 0.38659(12)
C19 C 0.1239(7) 0.6917(6) 0.6943(5)
C20 C 0.2204(6) 0.8330(6) 0.6947(5)
C21 C 0.1915(7) 0.8908(6) 0.5995(6)
H17 H 0.1129 0.8466 0.5189
C22 C 0.3960(6) 1.0520(5) 0.7630(5)
C23 C 0.5221(8) 1.1703(7) 0.8418(6)
H18 H 0.5465 1.2481 0.8149
C24 C 0.6099(9) 1.1699(7) 0.9604(6)
H19 H 0.6949 1.2485 1.0155
C25 C 0.5727(8) 1.0514(7) 0.9997(6)
H20 H 0.6377 1.0515 1.0797
C26 C 0.4444(7) 0.9366(6) 0.9243(5)
H21 H 0.4175 0.8612 0.9535
C27 C 0.3531(6) 0.9340(5) 0.8013(4)
C28 C 0.0970(7) 0.4774(6) 0.5334(6)
C29 C 0.0338(8) 0.3791(7) 0.4153(6)
H22 H 0.0827 0.3013 0.3974
C30 C -0.1034(9) 0.4024(7) 0.3267(7)
H23 H -0.1468 0.3397 0.2466
C31 C -0.1788(8) 0.5157(7) 0.3527(6)
H24 H -0.2739 0.5269 0.2910
C32 C -0.1151(7) 0.6129(6) 0.4693(6)
H25 H -0.1661 0.6895 0.4867
C33 C 0.0264(7) 0.5942(6) 0.5600(5)
C34 C -0.0026(8) 0.7135(6) 0.7655(6)
C35 C -0.2400(8) 0.8145(8) 0.7863(7)
H26 H -0.3245 0.7282 0.7638
H27 H -0.2985 0.8848 0.7598
H28 H -0.1816 0.8466 0.8751
N3 N 0.2488(6) 0.6145(5) 0.7562(4)
H29 H 0.2085 0.5846 0.8107
N4 N 0.2940(6) 1.0229(5) 0.6387(4)
H30 H 0.3641 1.0269 0.5936
O5 O 0.4328(5) 0.5119(5) 0.6385(4)
O6 O 0.2530(6) 0.3579(5) 0.7033(5)
O7 O -0.0018(7) 0.6608(6) 0.8468(5)
O8 O -0.1117(5) 0.7901(4) 0.7257(4)
S2 S 0.27382(16) 0.47790(14) 0.66054(13)
loop_
_geom_bond_atom_site_label_1
_geom_bond_atom_site_label_2
_geom_bond_site_symmetry_1
_geom_bond_site_symmetry_2
C1 H1 1_555 1_555
H2 C1 1_555 1_555
Cl1 C1 1_555 1_555
Cl2 C1 1_555 1_555
C2 C3 1_555 1_555
C3 C4 1_555 1_555
C4 H3 1_555 1_555
C5 C6 1_555 1_555
C6 H4 1_555 1_555
C7 C6 1_555 1_555
H5 C7 1_555 1_555
C8 C7 1_555 1_555
H6 C8 1_555 1_555
C9 C8 1_555 1_555
H7 C9 1_555 1_555
C10 C3 1_555 1_555
C11 C12 1_555 1_555
C12 H8 1_555 1_555
C13 C12 1_555 1_555
H9 C13 1_555 1_555
C14 C13 1_555 1_555
H10 C14 1_555 1_555
C15 C14 1_555 1_555
H11 C15 1_555 1_555
C16 C2 1_555 1_555
C17 C2 1_555 1_555
C18 H12 1_555 1_555
H13 C18 1_555 1_555
H14 C18 1_555 1_555
N1 C2 1_555 1_555
H15 N1 1_555 1_555
N2 C4 1_555 1_555
H16 N2 1_555 1_555
O1 S1 1_555 1_555
O2 S1 1_555 1_555
O3 C17 1_555 1_555
O4 C17 1_555 1_555
S1 C11 1_555 1_555
C19 C20 1_555 1_555
C20 C21 1_555 1_555
C21 H17 1_555 1_555
C22 C23 1_555 1_555
C23 H18 1_555 1_555
C24 C23 1_555 1_555
H19 C24 1_555 1_555
C25 C24 1_555 1_555
H20 C25 1_555 1_555
C26 C25 1_555 1_555
H21 C26 1_555 1_555
C27 C20 1_555 1_555
C28 C29 1_555 1_555
C29 H22 1_555 1_555
C30 C29 1_555 1_555
H23 C30 1_555 1_555
C31 C30 1_555 1_555
H24 C31 1_555 1_555
C32 C31 1_555 1_555
H25 C32 1_555 1_555
C33 C19 1_555 1_555
C34 C19 1_555 1_555
C35 H26 1_555 1_555
H27 C35 1_555 1_555
H28 C35 1_555 1_555
N3 C19 1_555 1_555
H29 N3 1_555 1_555
N4 C21 1_555 1_555
H30 N4 1_555 1_555
O5 S2 1_555 1_555
O6 S2 1_555 1_555
O7 C34 1_555 1_555
O8 C34 1_555 1_555
S2 C28 1_555 1_555
C5 C10 1_555 1_555
C5 N2 1_555 1_555
C9 C10 1_555 1_555
C11 C16 1_555 1_555
C15 C16 1_555 1_555
C18 O4 1_555 1_555
N1 S1 1_555 1_555
C22 C27 1_555 1_555
C22 N4 1_555 1_555
C26 C27 1_555 1_555
C28 C33 1_555 1_555
C32 C33 1_555 1_555
C35 O8 1_555 1_555
N3 S2 1_555 1_555

#END
