
#######################################################################
#
#                 Cambridge Crystallographic Data Centre
#                                CCDC 
#
#######################################################################
#
# If this CIF has been generated from an entry in the Cambridge 
# Structural Database, then it will include bibliographic, chemical, 
# crystal, experimental, refinement or atomic coordinate data resulting 
# from the CCDC's data processing and validation procedures.
#
#######################################################################

data_ZEBXEL
_chemical_name_common            '(S)-Oxiracetam gallic acid'
_chemical_formula_moiety         'C6 H10 N2 O3,C7 H6 O5'
_chemical_name_systematic        
'(S)-2-(4-Hydroxy-2-oxopyrrolidin-1-yl)acetamide 3,4,5-trihydroxybenzoic acid'
_chemical_properties_biological  'Oxiracetam is a nootropic drug'
_symmetry_cell_setting           monoclinic
_symmetry_space_group_name_H-M   'P 21'
_symmetry_Int_Tables_number      4
_space_group_name_Hall           'P 2yb'
loop_
_symmetry_equiv_pos_site_id
_symmetry_equiv_pos_as_xyz
1 x,y,z
2 -x,1/2+y,-z
_cell_length_a                   12.46022(13)
_cell_length_b                   8.87772(8)
_cell_length_c                   12.73088(12)
_cell_angle_alpha                90
_cell_angle_beta                 103.0525(10)
_cell_angle_gamma                90
_cell_volume                     1371.88
_exptl_crystal_colour            colorless
_exptl_crystal_description       block
_cell_formula_units_Z            4
loop_
_atom_site_label
_atom_site_type_symbol
_atom_site_fract_x
_atom_site_fract_y
_atom_site_fract_z
C1 C 0.06425(15) 0.4609(2) 0.19519(15)
C2 C 0.07971(16) 0.2924(2) 0.21503(16)
H1 H 0.1175 0.2761 0.2913
H2 H 0.0063 0.2443 0.2033
C3 C 0.25194(15) 0.2115(2) 0.16934(15)
C4 C 0.28669(16) 0.1060(2) 0.09069(16)
H3 H 0.3063 0.0058 0.1236
H4 H 0.3506 0.1468 0.0657
C5 C 0.18498(16) 0.0961(2) -0.00228(16)
H5 H 0.1776 -0.0057 -0.0369
C6 C 0.09011(16) 0.1293(2) 0.05235(15)
H6 H 0.0310 0.1870 0.0039
H7 H 0.0587 0.0351 0.0743
N1 N -0.01133(16) 0.5223(2) 0.24009(16)
N2 N 0.14257(13) 0.21912(19) 0.14669(13)
O1 O 0.12081(12) 0.53230(16) 0.14445(11)
O2 O 0.31439(11) 0.27758(18) 0.24581(11)
O3 O 0.18543(11) 0.21245(16) -0.07854(11)
H21 H 0.2413 0.2035 -0.1047
H31 H -0.052(2) 0.470(3) 0.272(2)
H32 H -0.025(2) 0.618(2) 0.234(2)
C7 C 0.43258(16) 0.2315(2) 0.79979(15)
C8 C 0.42435(17) 0.4027(2) 0.79460(17)
H8 H 0.4997 0.4453 0.8138
H9 H 0.3912 0.4327 0.7194
C9 C 0.25127(16) 0.4882(2) 0.83563(15)
C10 C 0.21453(18) 0.5704(3) 0.92470(18)
H10 H 0.1672 0.5049 0.9581
H11 H 0.1726 0.6621 0.8966
C11 C 0.32004(18) 0.6118(3) 1.00681(17)
H12 H 0.3126 0.5880 1.0816
C12 C 0.40873(17) 0.5130(3) 0.97618(18)
H13 H 0.4778 0.5704 0.9808
H14 H 0.4245 0.4238 1.0239
N3 N 0.50114(15) 0.1717(2) 0.74667(14)
H19 H 0.5078 0.0732 0.7439
H20 H 0.5403 0.2302 0.7139
N4 N 0.36042(13) 0.46802(19) 0.86433(13)
O4 O 0.37443(11) 0.15597(16) 0.84812(11)
O5 O 0.19034(11) 0.44423(17) 0.74991(11)
O16 O 0.34925(16) 0.7681(2) 0.99874(15)
H30 H 0.3242 0.7986 0.9355
C13 C 0.15015(16) 0.1865(3) 0.54415(15)
C14 C 0.17305(16) 0.0758(2) 0.46488(15)
C15 C 0.28132(16) 0.0397(2) 0.46030(15)
H15 H 0.3419 0.0836 0.5097
C16 C 0.29884(16) -0.0605(2) 0.38298(16)
C17 C 0.21110(16) -0.1235(2) 0.30773(15)
C18 C 0.10316(16) -0.0840(2) 0.31221(15)
C19 C 0.08454(16) 0.0122(2) 0.39201(16)
H16 H 0.0113 0.0347 0.3969
O11 O 0.05780(12) 0.22995(19) 0.54721(12)
O12 O 0.23834(12) 0.2369(2) 0.61288(12)
H26 H 0.2197 0.3027 0.6527
O13 O 0.40262(11) -0.10362(17) 0.37502(12)
H27 H 0.4495 -0.0670 0.4267
O14 O 0.23503(11) -0.21627(18) 0.23160(12)
H28 H 0.1804 -0.2713 0.2067
O15 O 0.02039(11) -0.14476(17) 0.23479(11)
H29 H -0.0408 -0.1166 0.2451
C20 C 0.35084(16) 0.5206(2) 0.45263(15)
C21 C 0.32781(15) 0.6254(2) 0.53531(15)
C22 C 0.21972(16) 0.6606(2) 0.53939(15)
H17 H 0.1595 0.6194 0.4881
C23 C 0.20148(16) 0.7570(2) 0.61978(16)
C24 C 0.28987(16) 0.8147(2) 0.69722(15)
C25 C 0.39758(16) 0.7792(2) 0.69085(15)
C26 C 0.41695(16) 0.6867(2) 0.60918(14)
H18 H 0.4902 0.6655 0.6037
O6 O 0.44324(11) 0.47918(18) 0.44833(11)
O7 O 0.26235(12) 0.4742(2) 0.38251(12)
H22 H 0.2809 0.4135 0.3392
O8 O 0.09859(11) 0.79871(17) 0.62858(12)
H23 H 0.0531 0.7795 0.5706
O9 O 0.26729(11) 0.90183(17) 0.77781(11)
H24 H 0.3149 0.9701 0.7935
O10 O 0.48023(11) 0.83968(17) 0.76869(11)
H25 H 0.5415 0.8151 0.7568
loop_
_geom_bond_atom_site_label_1
_geom_bond_atom_site_label_2
_geom_bond_site_symmetry_1
_geom_bond_site_symmetry_2
C1 C2 1_555 1_555
C2 H1 1_555 1_555
H2 C2 1_555 1_555
C3 C4 1_555 1_555
C4 H3 1_555 1_555
H4 C4 1_555 1_555
C5 C4 1_555 1_555
H5 C5 1_555 1_555
C6 C5 1_555 1_555
H6 C6 1_555 1_555
H7 C6 1_555 1_555
C7 C8 1_555 1_555
C8 H8 1_555 1_555
H9 C8 1_555 1_555
C9 C10 1_555 1_555
C10 H10 1_555 1_555
H11 C10 1_555 1_555
C11 C10 1_555 1_555
H12 C11 1_555 1_555
C12 C11 1_555 1_555
H13 C12 1_555 1_555
H14 C12 1_555 1_555
C13 C14 1_555 1_555
C14 C15 1_555 1_555
C15 H15 1_555 1_555
C16 C15 1_555 1_555
C17 C16 1_555 1_555
C18 C17 1_555 1_555
C19 C14 1_555 1_555
H16 C19 1_555 1_555
C20 C21 1_555 1_555
C21 C22 1_555 1_555
C22 H17 1_555 1_555
C23 C22 1_555 1_555
C24 C23 1_555 1_555
C25 C24 1_555 1_555
C26 C21 1_555 1_555
H18 C26 1_555 1_555
N1 C1 1_555 1_555
N2 C2 1_555 1_555
N3 C7 1_555 1_555
H19 N3 1_555 1_555
H20 N3 1_555 1_555
N4 C8 1_555 1_555
O1 C1 1_555 1_555
O2 C3 1_555 1_555
O3 C5 1_555 1_555
H21 O3 1_555 1_555
O4 C7 1_555 1_555
O5 C9 1_555 1_555
O6 C20 1_555 1_555
O7 C20 1_555 1_555
H22 O7 1_555 1_555
O8 C23 1_555 1_555
H23 O8 1_555 1_555
O9 C24 1_555 1_555
H24 O9 1_555 1_555
O10 C25 1_555 1_555
H25 O10 1_555 1_555
O11 C13 1_555 1_555
O12 C13 1_555 1_555
H26 O12 1_555 1_555
O13 C16 1_555 1_555
H27 O13 1_555 1_555
O14 C17 1_555 1_555
H28 O14 1_555 1_555
O15 C18 1_555 1_555
H29 O15 1_555 1_555
O16 C11 1_555 1_555
H30 O16 1_555 1_555
H31 N1 1_555 1_555
H32 N1 1_555 1_555
C3 N2 1_555 1_555
C6 N2 1_555 1_555
C9 N4 1_555 1_555
C12 N4 1_555 1_555
C18 C19 1_555 1_555
C25 C26 1_555 1_555

#END
