
#######################################################################
#
#                 Cambridge Crystallographic Data Centre
#                                CCDC 
#
#######################################################################
#
# If this CIF has been generated from an entry in the Cambridge 
# Structural Database, then it will include bibliographic, chemical, 
# crystal, experimental, refinement or atomic coordinate data resulting 
# from the CCDC's data processing and validation procedures.
#
#######################################################################

data_ZECFIY
_chemical_formula_moiety         'C22 H24 N2 O1'
_chemical_name_systematic        
1-(5-Benzyl-1-t-butyl-3-phenyl-1H-pyrazol-4-yl)ethanone
_symmetry_cell_setting           triclinic
_symmetry_space_group_name_H-M   'P -1'
_symmetry_Int_Tables_number      2
_space_group_name_Hall           '-P 1'
loop_
_symmetry_equiv_pos_site_id
_symmetry_equiv_pos_as_xyz
1 x,y,z
2 -x,-y,-z
_cell_length_a                   8.9547(5)
_cell_length_b                   10.1422(6)
_cell_length_c                   10.5322(6)
_cell_angle_alpha                94.321(2)
_cell_angle_beta                 94.209(2)
_cell_angle_gamma                97.703(2)
_cell_volume                     941.832
_exptl_crystal_colour            colorless
_exptl_crystal_description       block
_cell_formula_units_Z            2
loop_
_atom_site_label
_atom_site_type_symbol
_atom_site_fract_x
_atom_site_fract_y
_atom_site_fract_z
O1 O 0.39364(16) 0.27871(14) -0.01524(12)
N1 N 0.34498(14) 0.30589(12) 0.38158(11)
N2 N 0.28695(14) 0.42343(12) 0.38683(11)
C1 C 0.12178(18) 0.64086(16) 0.31545(16)
H1 H 0.0754 0.5923 0.3767
C2 C 0.0865(2) 0.76721(18) 0.2958(2)
H2 H 0.0174 0.8035 0.3449
C3 C 0.1528(2) 0.83925(17) 0.2042(2)
H3 H 0.1272 0.9232 0.1904
C4 C 0.2566(2) 0.78711(16) 0.13320(17)
H4 H 0.3016 0.8357 0.0712
C5 C 0.29428(18) 0.66267(15) 0.15373(15)
H5 H 0.3665 0.6288 0.1065
C6 C 0.22622(16) 0.58708(14) 0.24372(14)
C7 C 0.27229(16) 0.45580(14) 0.26722(13)
C8 C 0.32086(16) 0.35841(14) 0.18233(13)
C9 C 0.36877(16) 0.26447(14) 0.25993(13)
C10 C 0.42934(17) 0.13858(14) 0.21877(15)
H6 H 0.3796 0.1044 0.1356
H7 H 0.4013 0.0729 0.2782
C11 C 0.59894(17) 0.15012(15) 0.21006(14)
C12 C 0.6959(2) 0.26804(18) 0.2379(2)
H8 H 0.6576 0.3460 0.2624
C13 C 0.8500(2) 0.2710(2) 0.2294(2)
H9 H 0.9144 0.3511 0.2484
C14 C 0.9082(2) 0.1569(2) 0.1933(2)
H10 H 1.0118 0.1592 0.1888
C15 C 0.8129(2) 0.0398(2) 0.1640(2)
H11 H 0.8517 -0.0377 0.1384
C16 C 0.6595(2) 0.03623(17) 0.17219(16)
H12 H 0.5957 -0.0439 0.1520
C17 C 0.30913(18) 0.34212(15) 0.04138(15)
C18 C 0.1832(2) 0.3945(2) -0.03221(18)
H13 H 0.1910 0.3767 -0.1221
H14 H 0.1903 0.4891 -0.0116
H15 H 0.0878 0.3514 -0.0100
C19 C 0.35936(19) 0.23754(16) 0.50262(14)
C20 C 0.2359(2) 0.11703(19) 0.49284(17)
H16 H 0.2509 0.0555 0.4227
H17 H 0.1388 0.1461 0.4790
H18 H 0.2404 0.0737 0.5707
C21 C 0.5170(2) 0.1976(2) 0.52181(17)
H19 H 0.5323 0.1355 0.4522
H20 H 0.5267 0.1566 0.6006
H21 H 0.5913 0.2756 0.5247
C22 C 0.3378(2) 0.33573(19) 0.61497(16)
H22 H 0.4166 0.4107 0.6210
H23 H 0.3420 0.2920 0.6926
H24 H 0.2414 0.3662 0.6018
loop_
_geom_bond_atom_site_label_1
_geom_bond_atom_site_label_2
_geom_bond_site_symmetry_1
_geom_bond_site_symmetry_2
O1 C17 1_555 1_555
N1 N2 1_555 1_555
N2 C7 1_555 1_555
C1 H1 1_555 1_555
C2 C1 1_555 1_555
H2 C2 1_555 1_555
C3 C2 1_555 1_555
H3 C3 1_555 1_555
C4 C3 1_555 1_555
H4 C4 1_555 1_555
C5 C4 1_555 1_555
H5 C5 1_555 1_555
C6 C1 1_555 1_555
C7 C6 1_555 1_555
C8 C7 1_555 1_555
C9 N1 1_555 1_555
C10 C9 1_555 1_555
H6 C10 1_555 1_555
H7 C10 1_555 1_555
C11 C10 1_555 1_555
C12 C11 1_555 1_555
H8 C12 1_555 1_555
C13 C12 1_555 1_555
H9 C13 1_555 1_555
C14 C13 1_555 1_555
H10 C14 1_555 1_555
C15 C14 1_555 1_555
H11 C15 1_555 1_555
C16 C11 1_555 1_555
H12 C16 1_555 1_555
C17 C8 1_555 1_555
C18 C17 1_555 1_555
H13 C18 1_555 1_555
H14 C18 1_555 1_555
H15 C18 1_555 1_555
C19 N1 1_555 1_555
C20 C19 1_555 1_555
H16 C20 1_555 1_555
H17 C20 1_555 1_555
H18 C20 1_555 1_555
C21 C19 1_555 1_555
H19 C21 1_555 1_555
H20 C21 1_555 1_555
H21 C21 1_555 1_555
C22 C19 1_555 1_555
H22 C22 1_555 1_555
H23 C22 1_555 1_555
H24 C22 1_555 1_555
C5 C6 1_555 1_555
C8 C9 1_555 1_555
C15 C16 1_555 1_555

#END
