
#######################################################################
#
#                 Cambridge Crystallographic Data Centre
#                                CCDC 
#
#######################################################################
#
# If this CIF has been generated from an entry in the Cambridge 
# Structural Database, then it will include bibliographic, chemical, 
# crystal, experimental, refinement or atomic coordinate data resulting 
# from the CCDC's data processing and validation procedures.
#
#######################################################################

data_ZECGAR
_chemical_formula_moiety         'C19 H21 F1 O4 S1'
_chemical_name_systematic        
'(3-Fluoro-2-phenyltetrahydro-2H-pyran-2-yl)(phenyl)methyl methanesulfonate'
_symmetry_cell_setting           orthorhombic
_symmetry_space_group_name_H-M   'P 21 21 21'
_symmetry_Int_Tables_number      19
_space_group_name_Hall           'P 2ac 2ab'
loop_
_symmetry_equiv_pos_site_id
_symmetry_equiv_pos_as_xyz
1 x,y,z
2 1/2-x,-y,1/2+z
3 -x,1/2+y,1/2-z
4 1/2+x,1/2-y,-z
_cell_length_a                   10.820(4)
_cell_length_b                   12.173(5)
_cell_length_c                   13.924(6)
_cell_angle_alpha                90
_cell_angle_beta                 90
_cell_angle_gamma                90
_cell_volume                     1833.96
_exptl_crystal_colour            colorless
_exptl_crystal_description       block
_cell_formula_units_Z            4
loop_
_atom_site_label
_atom_site_type_symbol
_atom_site_fract_x
_atom_site_fract_y
_atom_site_fract_z
S1 S 0.99070(18) 0.54341(17) 0.24830(16)
F1 F 0.9031(4) 0.7431(4) 0.4267(3)
O1 O 0.6958(4) 0.8263(4) 0.3217(3)
C1 C 0.7185(6) 0.7143(6) 0.3368(4)
C2 C 0.8068(6) 0.6853(5) 0.2524(5)
H1 H 0.8771 0.7360 0.2542
C3 C 0.7811(6) 0.6991(7) 0.4333(5)
H2 H 0.7866 0.6204 0.4474
O2 O 1.0252(6) 0.4653(6) 0.3166(5)
C4 C 0.7539(6) 0.6857(6) 0.1507(4)
C5 C 0.5971(7) 0.6432(6) 0.3316(4)
C6 C 0.5884(8) 0.5405(7) 0.3692(5)
H3 H 0.6563 0.5100 0.4002
C7 C 0.6276(7) 0.6124(7) 0.0237(5)
H4 H 0.5738 0.5586 0.0013
O3 O 0.8524(4) 0.5751(4) 0.2727(3)
C8 C 0.4934(7) 0.6880(7) 0.2861(4)
H5 H 0.4979 0.7583 0.2602
C9 C 0.6295(8) 0.8809(6) 0.3995(5)
H6 H 0.6182 0.9578 0.3835
H7 H 0.5484 0.8479 0.4065
C10 C 0.6747(7) 0.6060(6) 0.1163(5)
H8 H 0.6528 0.5473 0.1555
C11 C 0.7833(7) 0.7712(6) 0.0919(5)
H9 H 0.8344 0.8270 0.1141
C12 C 0.6965(8) 0.8720(7) 0.4900(6)
H10 H 0.6489 0.9058 0.5411
H11 H 0.7749 0.9102 0.4851
C13 C 0.7182(7) 0.7536(7) 0.5125(5)
H12 H 0.7680 0.7476 0.5702
H13 H 0.6397 0.7176 0.5245
O4 O 1.0630(5) 0.6393(5) 0.2379(5)
C14 C 0.6596(8) 0.6964(8) -0.0331(5)
H14 H 0.6282 0.7005 -0.0952
C15 C 0.7375(9) 0.7754(8) -0.0009(6)
H15 H 0.7604 0.8327 -0.0413
C16 C 0.3784(9) 0.5284(11) 0.3164(7)
H16 H 0.3046 0.4898 0.3114
C17 C 0.4786(10) 0.4796(7) 0.3623(6)
H17 H 0.4730 0.4090 0.3874
C18 C 0.3858(8) 0.6302(9) 0.2792(6)
H18 H 0.3177 0.6611 0.2487
C19 C 0.9773(11) 0.4789(10) 0.1412(7)
H19 H 1.0578 0.4583 0.1185
H20 H 0.9392 0.5274 0.0956
H21 H 0.9273 0.4143 0.1486
loop_
_geom_bond_atom_site_label_1
_geom_bond_atom_site_label_2
_geom_bond_site_symmetry_1
_geom_bond_site_symmetry_2
S1 O2 1_555 1_555
F1 C3 1_555 1_555
O1 C1 1_555 1_555
C1 C2 1_555 1_555
C2 H1 1_555 1_555
C3 C1 1_555 1_555
H2 C3 1_555 1_555
C4 C2 1_555 1_555
C5 C1 1_555 1_555
C6 C5 1_555 1_555
H3 C6 1_555 1_555
C7 H4 1_555 1_555
O3 S1 1_555 1_555
C8 C5 1_555 1_555
H5 C8 1_555 1_555
C9 O1 1_555 1_555
H6 C9 1_555 1_555
H7 C9 1_555 1_555
C10 C4 1_555 1_555
H8 C10 1_555 1_555
C11 C4 1_555 1_555
H9 C11 1_555 1_555
C12 C9 1_555 1_555
H10 C12 1_555 1_555
H11 C12 1_555 1_555
C13 C3 1_555 1_555
H12 C13 1_555 1_555
H13 C13 1_555 1_555
O4 S1 1_555 1_555
C14 C7 1_555 1_555
H14 C14 1_555 1_555
C15 C11 1_555 1_555
H15 C15 1_555 1_555
C16 H16 1_555 1_555
C17 C6 1_555 1_555
H17 C17 1_555 1_555
C18 C8 1_555 1_555
H18 C18 1_555 1_555
C19 S1 1_555 1_555
H19 C19 1_555 1_555
H20 C19 1_555 1_555
H21 C19 1_555 1_555
C2 O3 1_555 1_555
C7 C10 1_555 1_555
C12 C13 1_555 1_555
C14 C15 1_555 1_555
C16 C17 1_555 1_555
C16 C18 1_555 1_555

#END
