
#######################################################################
#
#                 Cambridge Crystallographic Data Centre
#                                CCDC 
#
#######################################################################
#
# If this CIF has been generated from an entry in the Cambridge 
# Structural Database, then it will include bibliographic, chemical, 
# crystal, experimental, refinement or atomic coordinate data resulting 
# from the CCDC's data processing and validation procedures.
#
#######################################################################

data_ZECKUQ
_chemical_formula_moiety         'C20 H23 F1 N2 O4,0.5(H2 O1)'
_chemical_name_systematic        
'11-(4-fluorobenzene-1-carbonyl)-12,12-dimethoxy-1,2,3,4,6,7,9,10-octahydro-8H-6,10-methanopyrimido[1,2-a]azocin-8-one hemihydrate'
_symmetry_cell_setting           monoclinic
_symmetry_space_group_name_H-M   'P c'
_symmetry_Int_Tables_number      7
_space_group_name_Hall           'P -2yc'
loop_
_symmetry_equiv_pos_site_id
_symmetry_equiv_pos_as_xyz
1 x,y,z
2 x,-y,1/2+z
_cell_length_a                   12.3686(8)
_cell_length_b                   15.9846(11)
_cell_length_c                   9.9812(7)
_cell_angle_alpha                90
_cell_angle_beta                 113.5910(10)
_cell_angle_gamma                90
_cell_volume                     1808.43
_exptl_crystal_colour            yellow
_exptl_crystal_description       prism
_cell_formula_units_Z            4
loop_
_atom_site_label
_atom_site_type_symbol
_atom_site_fract_x
_atom_site_fract_y
_atom_site_fract_z
F1 F 0.15664(10) 0.96013(6) -0.04095(11)
O1 O -0.08807(10) 0.54126(7) 0.28338(12)
O2 O 0.36444(9) 0.69761(7) 0.45252(12)
O3 O 0.11926(9) 0.78395(6) 0.67740(12)
O4 O -0.07955(9) 0.78553(6) 0.51652(11)
N1 N 0.13366(11) 0.60873(7) 0.63775(13)
N2 N 0.31241(11) 0.59347(8) 0.61619(14)
H1 H 0.3620 0.6124 0.5802
C1 C 0.17814(14) 0.90344(9) 0.06956(17)
C2 C 0.11926(14) 0.82835(10) 0.03888(17)
H2 H 0.0643 0.8155 -0.0572
C3 C 0.14268(13) 0.77159(9) 0.15300(16)
H3 H 0.1025 0.7194 0.1347
C4 C 0.22425(13) 0.79026(9) 0.29369(15)
C5 C 0.25908(13) 0.72417(8) 0.41182(15)
C6 C 0.17642(12) 0.69613(8) 0.46593(15)
C7 C 0.05598(12) 0.73604(9) 0.42165(15)
H4 H 0.0592 0.7937 0.3846
C8 C -0.04668(13) 0.68770(9) 0.30210(16)
H5 H -0.1186 0.7229 0.2684
H6 H -0.0260 0.6777 0.2173
C9 C -0.07333(12) 0.60473(9) 0.35525(16)
C10 C 0.28340(14) 0.86637(9) 0.31980(17)
H7 H 0.3401 0.8791 0.4150
C11 C 0.25985(15) 0.92391(9) 0.20705(18)
H8 H 0.2993 0.9763 0.2244
C12 C 0.20785(12) 0.63152(8) 0.57554(15)
C13 C 0.16179(14) 0.53976(9) 0.74368(17)
H9 H 0.0880 0.5117 0.7354
H10 H 0.2010 0.5623 0.8441
C14 C 0.24195(14) 0.47705(9) 0.71616(18)
H11 H 0.1998 0.4493 0.6206
H12 H 0.2663 0.4336 0.7933
C15 C 0.34955(14) 0.52250(9) 0.71655(18)
H13 H 0.3983 0.5425 0.8165
H14 H 0.3979 0.4838 0.6860
C16 C 0.02423(12) 0.65432(9) 0.61373(15)
H15 H 0.0147 0.6579 0.7084
C17 C -0.08163(13) 0.60673(9) 0.50237(16)
H16 H -0.0827 0.5489 0.5371
H17 H -0.1559 0.6346 0.4928
C18 C 0.03026(13) 0.74319(8) 0.55938(16)
C19 C 0.14888(14) 0.86607(9) 0.64533(18)
H18 H 0.0764 0.8976 0.5919
H19 H 0.1949 0.8617 0.5854
H20 H 0.1956 0.8951 0.7368
C20 C -0.11694(15) 0.80206(11) 0.63284(18)
H21 H -0.0568 0.8355 0.7086
H22 H -0.1279 0.7490 0.6750
H23 H -0.1916 0.8329 0.5943
F2 F 0.56229(9) 0.44913(6) 0.58182(11)
O5 O 0.47810(12) 0.93890(8) 0.71000(13)
O6 O 0.85777(10) 0.75081(7) 0.93665(12)
O7 O 0.60104(10) 0.74741(7) 1.19446(12)
O8 O 0.40733(10) 0.78584(7) 1.04447(13)
N3 N 0.67679(11) 0.90305(8) 1.12426(14)
N4 N 0.84921(11) 0.87810(8) 1.08946(14)
H24 H 0.8861 0.8478 1.0471
C21 C 0.47454(13) 0.89546(9) 0.80844(17)
C22 C 0.46849(13) 0.80143(9) 0.79963(17)
H25 H 0.4869 0.7822 0.7168
H26 H 0.3877 0.7826 0.7821
C23 C 0.55746(13) 0.76283(9) 0.94362(16)
H27 H 0.5494 0.7006 0.9369
C24 C 0.68436(13) 0.78576(8) 0.97386(16)
C25 C 0.75110(13) 0.73693(9) 0.91847(15)
C26 C 0.69586(12) 0.66007(9) 0.82900(15)
C27 C 0.71227(13) 0.58180(9) 0.89572(16)
H28 H 0.7541 0.5772 0.9986
C28 C 0.66765(13) 0.51045(9) 0.81239(17)
H29 H 0.6779 0.4569 0.8572
C29 C 0.60798(13) 0.51912(9) 0.66288(17)
C30 C 0.63467(13) 0.66665(9) 0.67769(16)
H30 H 0.6236 0.7200 0.6323
C31 C 0.58971(13) 0.59545(9) 0.59275(16)
H31 H 0.5478 0.5994 0.4898
C32 C 0.47270(14) 0.93420(9) 0.94646(17)
H32 H 0.3905 0.9345 0.9393
H33 H 0.4993 0.9930 0.9533
C33 C 0.55127(13) 0.88779(9) 1.08669(16)
H34 H 0.5317 0.9085 1.1689
C34 C 0.73774(13) 0.85734(8) 1.06370(15)
C35 C 0.91413(14) 0.94722(9) 1.18259(17)
H35 H 0.9099 0.9971 1.1218
H36 H 0.9981 0.9316 1.2349
C36 C 0.86110(14) 0.96735(10) 1.29217(17)
H37 H 0.8782 0.9215 1.3644
H38 H 0.8964 1.0195 1.3453
C37 C 0.72869(14) 0.97807(10) 1.21176(19)
H39 H 0.6928 0.9874 1.2832
H40 H 0.7119 1.0276 1.1470
C38 C 0.52758(13) 0.79323(8) 1.07035(16)
C39 C 0.59007(17) 0.76793(12) 1.32748(19)
H41 H 0.5072 0.7633 1.3134
H42 H 0.6175 0.8253 1.3558
H43 H 0.6380 0.7293 1.4046
C40 C 0.36089(16) 0.70252(10) 1.0205(2)
H44 H 0.4041 0.6682 1.1068
H45 H 0.3697 0.6784 0.9352
H46 H 0.2771 0.7039 1.0033
O9 O 0.99813(11) 0.61668(7) 0.92931(13)
H47 H 0.9580 0.5750 0.8848
H48 H 0.9466 0.6558 0.9199
loop_
_geom_bond_atom_site_label_1
_geom_bond_atom_site_label_2
_geom_bond_site_symmetry_1
_geom_bond_site_symmetry_2
F1 C1 1_555 1_555
O1 C9 1_555 1_555
O2 C5 1_555 1_555
O3 C18 1_555 1_555
O4 C18 1_555 1_555
N1 C12 1_555 1_555
N2 H1 1_555 1_555
C1 C2 1_555 1_555
C2 H2 1_555 1_555
C3 C2 1_555 1_555
H3 C3 1_555 1_555
C4 C3 1_555 1_555
C5 C4 1_555 1_555
C6 C5 1_555 1_555
C7 C6 1_555 1_555
H4 C7 1_555 1_555
C8 C7 1_555 1_555
H5 C8 1_555 1_555
H6 C8 1_555 1_555
C9 C8 1_555 1_555
C10 C4 1_555 1_555
H7 C10 1_555 1_555
C11 C1 1_555 1_555
H8 C11 1_555 1_555
C12 N2 1_555 1_555
C13 N1 1_555 1_555
H9 C13 1_555 1_555
H10 C13 1_555 1_555
C14 C13 1_555 1_555
H11 C14 1_555 1_555
H12 C14 1_555 1_555
C15 N2 1_555 1_555
H13 C15 1_555 1_555
H14 C15 1_555 1_555
C16 N1 1_555 1_555
H15 C16 1_555 1_555
C17 C9 1_555 1_555
H16 C17 1_555 1_555
H17 C17 1_555 1_555
C18 C7 1_555 1_555
C19 O3 1_555 1_555
H18 C19 1_555 1_555
H19 C19 1_555 1_555
H20 C19 1_555 1_555
C20 O4 1_555 1_555
H21 C20 1_555 1_555
H22 C20 1_555 1_555
H23 C20 1_555 1_555
F2 C29 1_555 1_555
O5 C21 1_555 1_555
O6 C25 1_555 1_555
O7 C38 1_555 1_555
O8 C38 1_555 1_555
N3 C33 1_555 1_555
N4 H24 1_555 1_555
C21 C22 1_555 1_555
C22 H25 1_555 1_555
H26 C22 1_555 1_555
C23 C22 1_555 1_555
H27 C23 1_555 1_555
C24 C23 1_555 1_555
C25 C24 1_555 1_555
C26 C25 1_555 1_555
C27 C26 1_555 1_555
H28 C27 1_555 1_555
C28 C27 1_555 1_555
H29 C28 1_555 1_555
C29 C28 1_555 1_555
C30 C26 1_555 1_555
H30 C30 1_555 1_555
C31 C29 1_555 1_555
H31 C31 1_555 1_555
C32 C21 1_555 1_555
H32 C32 1_555 1_555
H33 C32 1_555 1_555
C33 C32 1_555 1_555
H34 C33 1_555 1_555
C34 N3 1_555 1_555
C35 N4 1_555 1_555
H35 C35 1_555 1_555
H36 C35 1_555 1_555
C36 C35 1_555 1_555
H37 C36 1_555 1_555
H38 C36 1_555 1_555
C37 N3 1_555 1_555
H39 C37 1_555 1_555
H40 C37 1_555 1_555
C38 C23 1_555 1_555
C39 O7 1_555 1_555
H41 C39 1_555 1_555
H42 C39 1_555 1_555
H43 C39 1_555 1_555
C40 O8 1_555 1_555
H44 C40 1_555 1_555
H45 C40 1_555 1_555
H46 C40 1_555 1_555
O9 H47 1_555 1_555
H48 O9 1_555 1_555
C6 C12 1_555 1_555
C10 C11 1_555 1_555
C14 C15 1_555 1_555
C16 C17 1_555 1_555
C16 C18 1_555 1_555
N4 C34 1_555 1_555
C24 C34 1_555 1_555
C30 C31 1_555 1_555
C33 C38 1_555 1_555
C36 C37 1_555 1_555

#END
