
#######################################################################
#
#                 Cambridge Crystallographic Data Centre
#                                CCDC 
#
#######################################################################
#
# If this CIF has been generated from an entry in the Cambridge 
# Structural Database, then it will include bibliographic, chemical, 
# crystal, experimental, refinement or atomic coordinate data resulting 
# from the CCDC's data processing and validation procedures.
#
#######################################################################

data_ZECPUV
_chemical_formula_moiety         
'C20 H26 N4 4+,4(Cl1 O4 1-),2(C2 H6 O1 S1),H2 O1'
_chemical_name_systematic        
'2,7-bis(3-azaniumylpropyl)benzo[lmn][3,8]phenanthroline-2,7-diium tetrakis(perchlorate) dimethyl sulfoxide monohydrate'
_symmetry_cell_setting           monoclinic
_symmetry_space_group_name_H-M   'C 2/c'
_symmetry_Int_Tables_number      15
_space_group_name_Hall           '-C 2yn'
loop_
_symmetry_equiv_pos_site_id
_symmetry_equiv_pos_as_xyz
1 x,y,z
2 -x,y,1/2-z
3 1/2+x,1/2+y,z
4 1/2-x,1/2+y,1/2-z
5 -x,-y,-z
6 x,-y,1/2+z
7 1/2-x,1/2-y,-z
8 1/2+x,1/2-y,1/2+z
_cell_length_a                   25.583(6)
_cell_length_b                   6.6915(15)
_cell_length_c                   22.004(5)
_cell_angle_alpha                90
_cell_angle_beta                 92.05(2)
_cell_angle_gamma                90
_cell_volume                     3764.42
_exptl_crystal_colour            'light yellow'
_exptl_crystal_description       block
_cell_formula_units_Z            4
_exptl_crystal_recrystallization_method 
'acetonitrile / dimethyl sulfoxide / benzene'
loop_
_atom_site_label
_atom_site_type_symbol
_atom_site_fract_x
_atom_site_fract_y
_atom_site_fract_z
Cl1 Cl 0.16582(18) 0.4441(7) 0.31374(19)
O1 O 0.1784(5) 0.6352(18) 0.2897(6)
O2 O 0.1743(5) 0.4417(17) 0.3780(5)
O3 O 0.1117(5) 0.3972(18) 0.2990(5)
O4 O 0.1988(5) 0.297(2) 0.2874(5)
Cl2 Cl 0.0985(2) 0.4782(7) 0.0862(2)
O5 O 0.1007(9) 0.622(2) 0.0423(8)
O6 O 0.0460(9) 0.480(3) 0.1082(10)
O7 O 0.1325(6) 0.5246(18) 0.1370(6)
O8 O 0.1077(6) 0.284(2) 0.0649(6)
N1 N 0.2018(5) 0.046(2) 0.1290(5)
N2 N 0.0732(12) -0.250(4) 0.2286(13)
H1 H 0.0645 -0.3135 0.2633
H2 H 0.0969 -0.3242 0.2087
H3 H 0.0440 -0.2320 0.2043
C1 C 0.1958(7) -0.059(2) 0.0772(7)
H4 H 0.1796 -0.1867 0.0770
C2 C 0.2140(7) 0.023(2) 0.0236(6)
C3 C 0.2396(6) 0.208(3) 0.0260(6)
C4 C 0.2450(6) 0.308(3) 0.0820(7)
C5 C 0.2253(7) 0.223(3) 0.1339(7)
H5 H 0.2285 0.2892 0.1720
C6 C 0.2072(7) -0.079(3) -0.0341(7)
H6 H 0.1892 -0.2030 -0.0365
C7 C 0.2739(7) 0.499(3) 0.0836(8)
H7 H 0.2792 0.5659 0.1214
C8 C 0.1785(7) -0.044(3) 0.1850(7)
H8 H 0.1997 -0.0060 0.2217
H9 H 0.1781 -0.1914 0.1819
C9 C 0.1229(7) 0.035(3) 0.1895(7)
H10 H 0.1238 0.1833 0.1912
H11 H 0.1021 -0.0040 0.1526
C10 C 0.0973(7) -0.044(3) 0.2448(8)
H12 H 0.0697 0.0492 0.2576
H13 H 0.1235 -0.0581 0.2788
N1F N 0.2982(5) 0.454(2) -0.1290(5)
N2F N 0.4268(12) 0.750(4) -0.2286(13)
H1F H 0.4355 0.8135 -0.2633
H2F H 0.4031 0.8242 -0.2087
H3F H 0.4560 0.7320 -0.2043
C1F C 0.3042(7) 0.559(2) -0.0772(7)
H4F H 0.3204 0.6867 -0.0770
C2F C 0.2860(7) 0.477(2) -0.0236(6)
C3F C 0.2604(6) 0.292(3) -0.0260(6)
C4F C 0.2550(6) 0.192(3) -0.0820(7)
C5F C 0.2747(7) 0.277(3) -0.1339(7)
H5F H 0.2715 0.2108 -0.1720
C6F C 0.2928(7) 0.579(3) 0.0341(7)
H6F H 0.3108 0.7030 0.0365
C7F C 0.2261(7) 0.001(3) -0.0836(8)
H7F H 0.2208 -0.0659 -0.1214
C8F C 0.3215(7) 0.544(3) -0.1850(7)
H8F H 0.3003 0.5060 -0.2217
H9F H 0.3219 0.6914 -0.1819
C9F C 0.3771(7) 0.465(3) -0.1895(7)
H10F H 0.3762 0.3167 -0.1912
H11F H 0.3979 0.5040 -0.1526
C10F C 0.4027(7) 0.544(3) -0.2448(8)
H12F H 0.4303 0.4508 -0.2576
H13F H 0.3765 0.5581 -0.2788
S1 S 0.0198(3) 0.8989(11) 0.4120(3)
O9 O 0.0082(7) 0.898(2) 0.3441(7)
C11 C 0.0522(12) 1.130(4) 0.4267(13)
H14 H 0.0296 1.2403 0.4127
H15 H 0.0850 1.1336 0.4050
H16 H 0.0598 1.1434 0.4705
C12 C 0.0706(13) 0.735(4) 0.4179(10)
H17 H 0.0587 0.6023 0.4041
H18 H 0.0832 0.7263 0.4604
H19 H 0.0990 0.7803 0.3927
O10 O 0.0108(13) -0.548(4) 0.2299(13)
N3? N 0.0467(13) 0.062(5) 0.2519(14)
H20? H 0.0291 0.0045 0.2826
H21? H 0.0272 0.0527 0.2167
H22? H 0.0530 0.1926 0.2608
H23? H 0.0911 -0.1894 0.2404
H24? H 0.1204 -0.0222 0.2813
loop_
_geom_bond_atom_site_label_1
_geom_bond_atom_site_label_2
_geom_bond_site_symmetry_1
_geom_bond_site_symmetry_2
Cl1 O1 1_555 1_555
O2 Cl1 1_555 1_555
O3 Cl1 1_555 1_555
O4 Cl1 1_555 1_555
Cl2 O5 1_555 1_555
O6 Cl2 1_555 1_555
O7 Cl2 1_555 1_555
O8 Cl2 1_555 1_555
N1 C1 1_555 1_555
N2 H1 1_555 1_555
H2 N2 1_555 1_555
H3 N2 1_555 1_555
C1 H4 1_555 1_555
C2 C1 1_555 1_555
C3 C2 1_555 1_555
C4 C3 1_555 1_555
C5 N1 1_555 1_555
H5 C5 1_555 1_555
C6 C2 1_555 1_555
H6 C6 1_555 1_555
C7 C4 1_555 1_555
H7 C7 1_555 1_555
C8 N1 1_555 1_555
H8 C8 1_555 1_555
H9 C8 1_555 1_555
C9 C8 1_555 1_555
H10 C9 1_555 1_555
H11 C9 1_555 1_555
C10 N2 1_555 1_555
H12 C10 1_555 1_555
H13 C10 1_555 1_555
S1 O9 1_555 1_555
C11 S1 1_555 1_555
H14 C11 1_555 1_555
H15 C11 1_555 1_555
H16 C11 1_555 1_555
C12 S1 1_555 1_555
H17 C12 1_555 1_555
H18 C12 1_555 1_555
H19 C12 1_555 1_555
N1F C1F 1_555 1_555
N2F H1F 1_555 1_555
H2F N2F 1_555 1_555
H3F N2F 1_555 1_555
C1F H4F 1_555 1_555
C2F C1F 1_555 1_555
C3F C3 1_555 1_555
C4F C3F 1_555 1_555
C5F N1F 1_555 1_555
H5F C5F 1_555 1_555
C6F C7 1_555 1_555
H6F C6F 1_555 1_555
C7F C6 1_555 1_555
H7F C7F 1_555 1_555
C8F N1F 1_555 1_555
H8F C8F 1_555 1_555
H9F C8F 1_555 1_555
C9F C8F 1_555 1_555
H10F C9F 1_555 1_555
H11F C9F 1_555 1_555
C10F N2F 1_555 1_555
H12F C10F 1_555 1_555
H13F C10F 1_555 1_555
C4 C5 1_555 1_555
C9 C10 1_555 1_555
C2F C3F 1_555 1_555
C2F C6F 1_555 1_555
C4F C5F 1_555 1_555
C4F C7F 1_555 1_555
C9F C10F 1_555 1_555

#END
