
#######################################################################
#
#                 Cambridge Crystallographic Data Centre
#                                CCDC 
#
#######################################################################
#
# If this CIF has been generated from an entry in the Cambridge 
# Structural Database, then it will include bibliographic, chemical, 
# crystal, experimental, refinement or atomic coordinate data resulting 
# from the CCDC's data processing and validation procedures.
#
#######################################################################

data_ZECVOV
_chemical_formula_moiety         
'2(C38 H34 N10 4+),3(C15 H9 O2 1-),4(F6 P1 1-),26(H2 O1),H1 O1 1-'
_chemical_name_systematic        
'bis(3,6,12,15,22,25,31,34,42,47-decaazanonacyclo[34.2.2.2^17,20^.1^3,6^.1^7,11^.1^12,15^.1^22,25^.1^26,30^.1^31,34^]octatetraconta-1(38),3(48),4,7(47),8,10,13,15(46),17,19,22(43),23,26(42),27,29,32,34(41),36,39,44-icosaene-3,15,22,34-tetraium) tris(anthracene-9-carboxylate) tetrakis(hexafluorophosphate) hydroxide hydrate unknown solvate'
_symmetry_cell_setting           monoclinic
_symmetry_space_group_name_H-M   'P 21/n'
_symmetry_Int_Tables_number      14
_space_group_name_Hall           '-P 2yn'
loop_
_symmetry_equiv_pos_site_id
_symmetry_equiv_pos_as_xyz
1 x,y,z
2 1/2-x,1/2+y,1/2-z
3 -x,-y,-z
4 1/2+x,1/2-y,1/2+z
_cell_length_a                   14.4588(18)
_cell_length_b                   22.751(5)
_cell_length_c                   20.902(3)
_cell_angle_alpha                90
_cell_angle_beta                 105.926(14)
_cell_angle_gamma                90
_cell_volume                     6611.85
_exptl_crystal_colour            yellow
_exptl_crystal_description       prism
_cell_formula_units_Z            2
loop_
_atom_site_label
_atom_site_type_symbol
_atom_site_fract_x
_atom_site_fract_y
_atom_site_fract_z
P2 P 0.2455(3) 0.34748(19) 0.2174(2)
F7 F 0.2737(13) 0.4127(4) 0.2351(8)
F8 F 0.3492(7) 0.3232(7) 0.2296(8)
F9 F 0.2024(12) 0.2836(5) 0.1960(8)
F10 F 0.1339(7) 0.3659(8) 0.1984(8)
F11 F 0.2421(6) 0.3332(4) 0.2904(3)
F12 F 0.2445(8) 0.3643(5) 0.1447(4)
N1 N 0.5245(5) 0.6492(3) 0.4515(3)
N2 N 0.5782(5) 0.7158(3) 0.3987(3)
N3 N 0.6543(4) 0.7054(3) 0.3150(3)
N4 N 0.7280(5) 0.6832(3) 0.2343(3)
N5 N 0.7390(5) 0.5996(3) 0.1882(3)
N6 N 1.0259(5) 0.3399(3) 0.3460(3)
N7 N 0.9722(5) 0.2680(3) 0.3926(3)
N8 N 0.8937(4) 0.2763(3) 0.4734(4)
N9 N 0.8171(5) 0.2988(3) 0.5536(4)
N10 N 0.8069(5) 0.3849(3) 0.5956(4)
C1 C 0.5706(6) 0.6575(3) 0.4064(4)
H1 H 0.5939 0.6284 0.3838
C2 C 0.5019(6) 0.7024(4) 0.4738(5)
H2 H 0.4693 0.7083 0.5059
C3 C 0.5348(7) 0.7439(4) 0.4415(5)
H3 H 0.5297 0.7843 0.4466
C4 C 0.6253(6) 0.7424(3) 0.3547(4)
C5 C 0.6371(6) 0.8032(4) 0.3528(4)
H4 H 0.6141 0.8283 0.3800
C6 C 0.6843(6) 0.8241(4) 0.3086(4)
H5 H 0.6946 0.8643 0.3065
C7 C 0.7164(6) 0.7871(4) 0.2678(4)
H6 H 0.7483 0.8010 0.2378
C8 C 0.6983(6) 0.7266(4) 0.2739(4)
C9 C 0.7052(6) 0.6260(4) 0.2330(4)
H7 H 0.6712 0.6080 0.2594
C10 C 0.7801(6) 0.6931(4) 0.1899(5)
H8 H 0.8056 0.7288 0.1813
C11 C 0.7874(7) 0.6395(4) 0.1602(5)
H9 H 0.8189 0.6320 0.1277
C12 C 0.7292(6) 0.5362(4) 0.1723(4)
H10 H 0.7235 0.5310 0.1254
H11 H 0.6704 0.5218 0.1806
C13 C 0.8124(7) 0.4996(4) 0.2120(4)
C14 C 0.8043(6) 0.4710(3) 0.2695(4)
H12 H 0.7476 0.4733 0.2821
C15 C 0.8819(6) 0.4394(3) 0.3072(4)
H13 H 0.8773 0.4209 0.3459
C16 C 0.9641(6) 0.4348(4) 0.2891(4)
C17 C 0.9730(7) 0.4617(4) 0.2312(4)
H14 H 1.0297 0.4589 0.2186
C18 C 0.8946(7) 0.4930(4) 0.1930(5)
H15 H 0.8985 0.5099 0.1533
C19 C 1.0513(6) 0.4016(4) 0.3321(5)
H16 H 1.1015 0.4007 0.3095
H17 H 1.0761 0.4223 0.3739
C20 C 0.9880(6) 0.3261(3) 0.3943(4)
H18 H 0.9744 0.3523 0.4247
C21 C 1.0392(6) 0.2900(4) 0.3111(4)
H19 H 1.0658 0.2876 0.2754
C22 C 1.0039(6) 0.2449(4) 0.3414(4)
H20 H 1.0017 0.2055 0.3293
C23 C 0.9303(6) 0.2401(4) 0.4383(4)
C24 C 0.9238(6) 0.1795(4) 0.4437(4)
H21 H 0.9495 0.1546 0.4177
C25 C 0.8795(6) 0.1575(4) 0.4874(4)
H22 H 0.8751 0.1170 0.4919
C26 C 0.8391(6) 0.1958(4) 0.5269(5)
H23 H 0.8078 0.1823 0.5575
C27 C 0.8510(6) 0.2557(4) 0.5154(4)
C28 C 0.8476(6) 0.3556(4) 0.5563(4)
H24 H 0.8898 0.3710 0.5342
C29 C 0.7572(6) 0.2944(4) 0.5921(5)
H25 H 0.7269 0.2601 0.5998
C30 C 0.7476(6) 0.3489(4) 0.6184(5)
H26 H 0.7090 0.3589 0.6458
C31 C 0.8246(6) 0.4486(4) 0.6129(6)
H27 H 0.8818 0.4613 0.6011
H28 H 0.8361 0.4535 0.6605
C32 C 0.7400(5) 0.4866(3) 0.5769(4)
C33 C 0.6971(6) 0.5246(4) 0.6117(4)
H29 H 0.7199 0.5269 0.6577
C34 C 0.6199(6) 0.5594(3) 0.5780(4)
H30 H 0.5914 0.5852 0.6014
C35 C 0.5859(5) 0.5556(3) 0.5100(4)
C36 C 0.6288(5) 0.5165(3) 0.4748(4)
H31 H 0.6041 0.5129 0.4289
C37 C 0.7074(6) 0.4835(3) 0.5079(5)
H32 H 0.7383 0.4595 0.4843
C38 C 0.4978(6) 0.5902(3) 0.4738(4)
H33 H 0.4618 0.5681 0.4353
H34 H 0.4567 0.5959 0.5030
C39 C 0.8165(6) 0.5712(3) 0.4061(4)
C40 C 0.8523(5) 0.6337(3) 0.4113(4)
C41 C 0.9067(5) 0.6526(3) 0.3692(4)
C42 C 0.9376(5) 0.6132(4) 0.3245(4)
H35 H 0.9202 0.5737 0.3228
C43 C 0.9912(6) 0.6328(4) 0.2855(4)
H36 H 1.0124 0.6067 0.2583
C44 C 1.0155(6) 0.6935(4) 0.2856(4)
H37 H 1.0507 0.7069 0.2574
C45 C 0.9879(5) 0.7319(4) 0.3263(4)
H38 H 1.0050 0.7713 0.3258
C46 C 0.9331(5) 0.7131(3) 0.3700(4)
C47 C 0.9044(5) 0.7524(3) 0.4127(4)
H39 H 0.9207 0.7919 0.4123
C48 C 0.8529(5) 0.7337(3) 0.4549(4)
C49 C 0.8234(6) 0.7724(4) 0.4985(4)
H40 H 0.8378 0.8122 0.4976
C50 C 0.7744(6) 0.7529(4) 0.5417(4)
H41 H 0.7543 0.7797 0.5688
C51 C 0.7541(6) 0.6922(4) 0.5456(4)
H42 H 0.7239 0.6789 0.5768
C52 C 0.7790(5) 0.6535(4) 0.5032(4)
H43 H 0.7641 0.6139 0.5054
C53 C 0.8277(5) 0.6723(3) 0.4549(4)
O1 O 0.8729(4) 0.5326(2) 0.4396(3)
O2 O 0.7326(4) 0.5625(2) 0.3694(3)
C54 C 0.4454(7) 0.5398(4) -0.0453(6)
C55 C 0.4083(7) 0.5256(5) 0.0118(6)
C56 C 0.4678(7) 0.4828(4) 0.0558(6)
C57 C 0.4374(8) 0.4631(5) 0.1128(6)
H44 H 0.3804 0.4775 0.1191
C58 C 0.4897(8) 0.4245(4) 0.1565(6)
H45 H 0.4681 0.4123 0.1924
C59 C 0.5775(8) 0.4022(4) 0.1488(6)
H46 H 0.6140 0.3763 0.1802
C60 C 0.6085(8) 0.4186(4) 0.0958(6)
H47 H 0.6658 0.4029 0.0912
O3 O 0.2397(8) 0.5423(10) -0.0155(13)
O4 O 0.3251(11) 0.5856(6) 0.0744(7)
C61 C 0.3198(10) 0.5529(14) 0.0253(13)
C54B C 0.5546(7) 0.4602(4) 0.0453(6)
C55B C 0.5917(7) 0.4744(5) -0.0118(6)
C56B C 0.5322(7) 0.5172(4) -0.0558(6)
C57B C 0.5626(8) 0.5369(5) -0.1128(6)
H44B H 0.6196 0.5225 -0.1191
C58B C 0.5103(8) 0.5755(4) -0.1565(6)
H45B H 0.5319 0.5877 -0.1924
C59B C 0.4225(8) 0.5978(4) -0.1488(6)
H46B H 0.3860 0.6237 -0.1802
C60B C 0.3915(8) 0.5814(4) -0.0958(6)
H47B H 0.3342 0.5971 -0.0912
O3B O 0.7603(8) 0.4577(10) 0.0155(13)
O4B O 0.6749(11) 0.4144(6) -0.0744(7)
C61B C 0.6802(10) 0.4471(14) -0.0253(13)
O5 O 0.9589(4) 0.4282(2) 0.4810(3)
O6 O 0.5663(6) 0.5254(4) 0.2873(4)
P1 P 0.62773(19) 0.34519(11) 0.37011(12)
F1 F 0.5180(5) 0.3454(5) 0.3708(4)
F2 F 0.7358(4) 0.3394(3) 0.3699(3)
F3 F 0.5981(5) 0.3260(4) 0.2959(3)
F4 F 0.6195(8) 0.4109(3) 0.3520(4)
F5 F 0.6558(4) 0.3591(3) 0.4467(3)
F6 F 0.6328(7) 0.2771(3) 0.3903(4)
F13? F 0.3345(9) 0.3917(7) 0.2473(8)
F14? F 0.3188(11) 0.2977(6) 0.2160(8)
F15? F 0.1537(9) 0.3091(7) 0.1861(8)
F16? F 0.1794(12) 0.4030(6) 0.2175(8)
H48? H 0.6441 0.6682 0.3166
H49? H 0.8981 0.3136 0.4685
loop_
_geom_bond_atom_site_label_1
_geom_bond_atom_site_label_2
_geom_bond_site_symmetry_1
_geom_bond_site_symmetry_2
P1 F1 1_555 1_555
F2 P1 1_555 1_555
F3 P1 1_555 1_555
F4 P1 1_555 1_555
F5 P1 1_555 1_555
F6 P1 1_555 1_555
P2 F7 1_555 1_555
F8 P2 1_555 1_555
F9 P2 1_555 1_555
F10 P2 1_555 1_555
F11 P2 1_555 1_555
F12 P2 1_555 1_555
N1 C1 1_555 1_555
N2 C1 1_555 1_555
N3 C4 1_555 1_555
N4 C8 1_555 1_555
N5 C9 1_555 1_555
N6 C19 1_555 1_555
N7 C20 1_555 1_555
N8 C23 1_555 1_555
N9 C27 1_555 1_555
N10 C28 1_555 1_555
C1 H1 1_555 1_555
C2 N1 1_555 1_555
H2 C2 1_555 1_555
C3 N2 1_555 1_555
H3 C3 1_555 1_555
C4 N2 1_555 1_555
C5 C4 1_555 1_555
H4 C5 1_555 1_555
C6 C5 1_555 1_555
H5 C6 1_555 1_555
C7 C6 1_555 1_555
H6 C7 1_555 1_555
C8 N3 1_555 1_555
C9 N4 1_555 1_555
H7 C9 1_555 1_555
C10 N4 1_555 1_555
H8 C10 1_555 1_555
C11 N5 1_555 1_555
H9 C11 1_555 1_555
C12 N5 1_555 1_555
H10 C12 1_555 1_555
H11 C12 1_555 1_555
C13 C12 1_555 1_555
C14 C13 1_555 1_555
H12 C14 1_555 1_555
C15 C14 1_555 1_555
H13 C15 1_555 1_555
C16 C15 1_555 1_555
C17 C16 1_555 1_555
H14 C17 1_555 1_555
C18 C13 1_555 1_555
H15 C18 1_555 1_555
C19 C16 1_555 1_555
H16 C19 1_555 1_555
H17 C19 1_555 1_555
C20 N6 1_555 1_555
H18 C20 1_555 1_555
C21 N6 1_555 1_555
H19 C21 1_555 1_555
C22 N7 1_555 1_555
H20 C22 1_555 1_555
C23 N7 1_555 1_555
C24 C23 1_555 1_555
H21 C24 1_555 1_555
C25 C24 1_555 1_555
H22 C25 1_555 1_555
C26 C25 1_555 1_555
H23 C26 1_555 1_555
C27 N8 1_555 1_555
C28 N9 1_555 1_555
H24 C28 1_555 1_555
C29 N9 1_555 1_555
H25 C29 1_555 1_555
C30 N10 1_555 1_555
H26 C30 1_555 1_555
C31 N10 1_555 1_555
H27 C31 1_555 1_555
H28 C31 1_555 1_555
C32 C31 1_555 1_555
C33 C32 1_555 1_555
H29 C33 1_555 1_555
C34 C33 1_555 1_555
H30 C34 1_555 1_555
C35 C34 1_555 1_555
C36 C35 1_555 1_555
H31 C36 1_555 1_555
C37 C32 1_555 1_555
H32 C37 1_555 1_555
C38 N1 1_555 1_555
H33 C38 1_555 1_555
H34 C38 1_555 1_555
C39 C40 1_555 1_555
C40 C41 1_555 1_555
C41 C42 1_555 1_555
C42 H35 1_555 1_555
C43 C42 1_555 1_555
H36 C43 1_555 1_555
C44 C43 1_555 1_555
H37 C44 1_555 1_555
C45 C44 1_555 1_555
H38 C45 1_555 1_555
C46 C41 1_555 1_555
C47 C46 1_555 1_555
H39 C47 1_555 1_555
C48 C47 1_555 1_555
C49 C48 1_555 1_555
H40 C49 1_555 1_555
C50 C49 1_555 1_555
H41 C50 1_555 1_555
C51 C50 1_555 1_555
H42 C51 1_555 1_555
C52 C51 1_555 1_555
H43 C52 1_555 1_555
C53 C40 1_555 1_555
O1 C39 1_555 1_555
O2 C39 1_555 1_555
C54 C55 1_555 1_555
C55 C56 1_555 1_555
C56 C57 1_555 1_555
C57 H44 1_555 1_555
C58 C57 1_555 1_555
H45 C58 1_555 1_555
C59 C58 1_555 1_555
H46 C59 1_555 1_555
C60 C59 1_555 1_555
H47 C60 1_555 1_555
O3 C61 1_555 1_555
O4 C61 1_555 1_555
C61 C55 1_555 1_555
C54B C56 1_555 1_555
C55B C54B 1_555 1_555
C56B C54 1_555 1_555
C57B C56B 1_555 1_555
H44B C57B 1_555 1_555
C58B C57B 1_555 1_555
H45B C58B 1_555 1_555
C59B C58B 1_555 1_555
H46B C59B 1_555 1_555
C60B C54 1_555 1_555
H47B C60B 1_555 1_555
O3B C61B 1_555 1_555
O4B C61B 1_555 1_555
C61B C55B 1_555 1_555
C2 C3 1_555 1_555
C7 C8 1_555 1_555
C10 C11 1_555 1_555
C17 C18 1_555 1_555
C21 C22 1_555 1_555
C26 C27 1_555 1_555
C29 C30 1_555 1_555
C35 C38 1_555 1_555
C36 C37 1_555 1_555
C45 C46 1_555 1_555
C48 C53 1_555 1_555
C52 C53 1_555 1_555
C60 C54B 1_555 1_555
C55B C56B 1_555 1_555
C59B C60B 1_555 1_555

#END
