
#######################################################################
#
#                 Cambridge Crystallographic Data Centre
#                                CCDC 
#
#######################################################################
#
# If this CIF has been generated from an entry in the Cambridge 
# Structural Database, then it will include bibliographic, chemical, 
# crystal, experimental, refinement or atomic coordinate data resulting 
# from the CCDC's data processing and validation procedures.
#
#######################################################################

data_ZECVIP
_chemical_formula_moiety         
'C38 H34 N10 4+,2(C15 H7 O4 1-),C15 H9 O2 1-,2(C3 H7 N1 O1),F6 P1 1-,4(H2 O1)'
_chemical_name_systematic        
'3,6,12,15,22,25,31,34,42,47-decaazanonacyclo[34.2.2.2^17,20^.1^3,6^.1^7,11^.1^12,15^.1^22,25^.1^26,30^.1^31,34^]octatetraconta-1(38),3(48),4,7(47),8,10,13,15(46),17,19,22(43),23,26(42),27,29,32,34(41),36,39,44-icosaene-3,15,22,34-tetraium bis(9,10-dioxo-9,10-dihydroanthracene-1-carboxylate) anthracene-1-carboxylate hexafluorophosphate tetrahydrate'
_symmetry_cell_setting           monoclinic
_symmetry_space_group_name_H-M   'P 21/m'
_symmetry_Int_Tables_number      11
_space_group_name_Hall           '-P 2yb'
loop_
_symmetry_equiv_pos_site_id
_symmetry_equiv_pos_as_xyz
1 x,y,z
2 -x,1/2+y,-z
3 -x,-y,-z
4 x,1/2-y,z
_cell_length_a                   10.1915(4)
_cell_length_b                   19.5522(10)
_cell_length_c                   20.3473(9)
_cell_angle_alpha                90
_cell_angle_beta                 91.474(4)
_cell_angle_gamma                90
_cell_volume                     4053.19
_exptl_crystal_colour            colorless
_exptl_crystal_description       prism
_cell_formula_units_Z            2
loop_
_atom_site_label
_atom_site_type_symbol
_atom_site_fract_x
_atom_site_fract_y
_atom_site_fract_z
P1 P 0.0000 0.5000 0.5000
F1 F -0.1494(2) 0.52407(16) 0.49277(13)
F2 F 0.0466(3) 0.5712(2) 0.4738(2)
F3 F -0.0108(3) 0.4724(2) 0.42724(13)
F1B F 0.1494(2) 0.47593(16) 0.50723(13)
F2B F -0.0466(3) 0.4288(2) 0.5262(2)
F3B F 0.0108(3) 0.5276(2) 0.57276(13)
N1 N 0.4356(3) 0.41814(15) 0.04780(14)
N2 N 0.2982(3) 0.43008(15) 0.12592(14)
N3 N 0.3357(3) 0.42787(14) 0.23855(13)
N4 N 0.3907(3) 0.42287(16) 0.34920(14)
N5 N 0.5796(4) 0.41234(17) 0.39731(15)
C1 C 0.6374(3) 0.2856(2) 0.05514(16)
H1 H 0.6877 0.3093 0.0864
C2 C 0.5625(3) 0.32133(19) 0.00866(15)
C3 C 0.4893(3) 0.28550(19) -0.03861(15)
H2 H 0.4402 0.3092 -0.0703
C4 C 0.5543(4) 0.39831(19) 0.01244(17)
H3 H 0.6316 0.4162 0.0353
H4 H 0.5508 0.4174 -0.0315
C5 C 0.4233(3) 0.41556(18) 0.11241(16)
H5 H 0.4898 0.4054 0.1430
C6 C 0.3163(4) 0.4352(2) 0.01910(19)
H6 H 0.2986 0.4405 -0.0257
C7 C 0.2302(4) 0.4428(2) 0.06732(19)
H7 H 0.1419 0.4543 0.0624
C8 C 0.2458(3) 0.42921(18) 0.19020(17)
C9 C 0.1114(4) 0.4287(2) 0.1983(2)
H8 H 0.0525 0.4307 0.1627
C10 C 0.0695(4) 0.4252(3) 0.2619(2)
H9 H -0.0199 0.4241 0.2700
C11 C 0.1593(4) 0.4232(2) 0.3141(2)
H10 H 0.1325 0.4209 0.3574
C12 C 0.2907(4) 0.42485(19) 0.29892(17)
C13 C 0.5179(4) 0.41084(19) 0.33893(17)
H11 H 0.5559 0.4029 0.2986
C14 C 0.3722(5) 0.4320(2) 0.41610(18)
H12 H 0.2934 0.4412 0.4364
C15 C 0.4905(6) 0.4249(2) 0.44530(19)
H13 H 0.5091 0.4279 0.4902
C16 C 0.7207(5) 0.3972(3) 0.4093(2)
H14 H 0.7503 0.4177 0.4505
H15 H 0.7718 0.4167 0.3743
C17 C 0.7590(3) 0.2855(3) 0.35395(18)
H16 H 0.7711 0.3092 0.3150
C18 C 0.7409(4) 0.3211(2) 0.41188(19)
C19 C 0.7296(4) 0.2858(2) 0.47068(17)
H17 H 0.7221 0.3096 0.5100
N1C N 0.4356(3) 0.08186(15) 0.04780(14)
N2C N 0.2982(3) 0.06992(15) 0.12592(14)
N3C N 0.3357(3) 0.07213(14) 0.23855(13)
N4C N 0.3907(3) 0.07713(16) 0.34920(14)
N5C N 0.5796(4) 0.08766(17) 0.39731(15)
C1C C 0.6374(3) 0.2144(2) 0.05514(16)
H1C H 0.6877 0.1907 0.0864
C2C C 0.5625(3) 0.17867(19) 0.00866(15)
C3C C 0.4893(3) 0.21450(19) -0.03861(15)
H2C H 0.4402 0.1908 -0.0703
C4C C 0.5543(4) 0.10169(19) 0.01244(17)
H3C H 0.6316 0.0838 0.0353
H4C H 0.5508 0.0826 -0.0315
C5C C 0.4233(3) 0.08444(18) 0.11241(16)
H5C H 0.4898 0.0946 0.1430
C6C C 0.3163(4) 0.0648(2) 0.01910(19)
H6C H 0.2986 0.0595 -0.0257
C7C C 0.2302(4) 0.0572(2) 0.06732(19)
H7C H 0.1419 0.0457 0.0624
C8C C 0.2458(3) 0.07079(18) 0.19020(17)
C9C C 0.1114(4) 0.0713(2) 0.1983(2)
H8C H 0.0525 0.0693 0.1627
C10C C 0.0695(4) 0.0748(3) 0.2619(2)
H9C H -0.0199 0.0759 0.2700
C11C C 0.1593(4) 0.0768(2) 0.3141(2)
H10C H 0.1325 0.0791 0.3574
C12C C 0.2907(4) 0.07515(19) 0.29892(17)
C13C C 0.5179(4) 0.08916(19) 0.33893(17)
H11C H 0.5559 0.0971 0.2986
C14C C 0.3722(5) 0.0680(2) 0.41610(18)
H12C H 0.2934 0.0588 0.4364
C15C C 0.4905(6) 0.0751(2) 0.44530(19)
H13C H 0.5091 0.0721 0.4902
C16C C 0.7207(5) 0.1028(3) 0.4093(2)
H14C H 0.7503 0.0823 0.4505
H15C H 0.7718 0.0833 0.3743
C17C C 0.7590(3) 0.2145(3) 0.35395(18)
H16C H 0.7711 0.1908 0.3150
C18C C 0.7409(4) 0.1789(2) 0.41188(19)
C19C C 0.7296(4) 0.2142(2) 0.47068(17)
H17C H 0.7221 0.1904 0.5100
N6 N 0.5537(10) 0.7500 0.2774(5)
C20 C 0.4506(12) 0.7500 0.3142(5)
H18 H 0.3687 0.7500 0.2930
C21 C 0.5433(16) 0.7500 0.2059(5)
H19 H 0.6296 0.7500 0.1881
H20 H 0.4967 0.7901 0.1912
C22 C 0.6873(10) 0.7500 0.3072(6)
H21 H 0.7507 0.7500 0.2731
H22 H 0.6991 0.7099 0.3339
O1 O 0.4527(12) 0.7500 0.3759(4)
H20C H 0.4967 0.7099 0.1912
H22C H 0.6991 0.7901 0.3339
C23 C 0.6967(4) 0.5542(2) 0.16011(18)
C24 C 0.6656(4) 0.5601(2) 0.23240(18)
C25 C 0.7720(4) 0.5546(2) 0.2764(2)
H23 H 0.8544 0.5443 0.2606
C26 C 0.7577(5) 0.5644(2) 0.3434(2)
H24 H 0.8303 0.5613 0.3719
C27 C 0.6362(4) 0.5786(2) 0.36765(18)
H25 H 0.6266 0.5854 0.4125
C28 C 0.5273(4) 0.58284(19) 0.32515(17)
C29 C 0.3973(4) 0.5975(2) 0.35287(18)
C30 C 0.2856(4) 0.6115(2) 0.30676(18)
C31 C 0.1665(5) 0.6332(3) 0.3310(2)
H26 H 0.1571 0.6387 0.3760
C32 C 0.0622(5) 0.6467(3) 0.2885(2)
H27 H -0.0163 0.6630 0.3047
C33 C 0.0744(5) 0.6358(3) 0.2215(2)
H28 H 0.0028 0.6433 0.1931
C34 C 0.1922(4) 0.6139(2) 0.1965(2)
H29 H 0.1998 0.6070 0.1516
C35 C 0.2993(4) 0.6021(2) 0.23876(18)
C36 C 0.4253(4) 0.57991(19) 0.21142(17)
C37 C 0.5418(4) 0.57423(18) 0.25681(17)
O2 O 0.7200(3) 0.60834(17) 0.13076(14)
O3 O 0.7059(3) 0.49389(15) 0.13736(13)
O4 O 0.4347(3) 0.56752(14) 0.15258(12)
O5 O 0.3819(3) 0.5972(2) 0.41232(14)
C38 C -0.0698(5) 0.2500 0.1839(3)
C39 C 0.0791(5) 0.2500 0.1797(3)
C40 C 0.1592(5) 0.2500 0.2388(2)
C41 C 0.1064(5) 0.2500 0.3014(3)
H30 H 0.0157 0.2500 0.3050
C42 C 0.1842(5) 0.2500 0.3585(3)
C43 C 0.1312(6) 0.2500 0.4224(3)
H31 H 0.0406 0.2500 0.4269
C44 C 0.2102(7) 0.2500 0.4770(3)
H32 H 0.1732 0.2500 0.5183
C45 C 0.3488(6) 0.2500 0.4719(3)
H33 H 0.4022 0.2500 0.5097
C46 C 0.4034(5) 0.2500 0.4118(3)
H34 H 0.4943 0.2500 0.4089
C47 C 0.3243(5) 0.2500 0.3528(3)
C48 C 0.3780(5) 0.2500 0.2904(3)
H35 H 0.4688 0.2500 0.2868
C49 C 0.2998(5) 0.2500 0.2332(3)
C50 C 0.3546(5) 0.2500 0.1693(3)
H36 H 0.4453 0.2500 0.1652
C51 C 0.2759(5) 0.2500 0.1144(3)
H37 H 0.3130 0.2500 0.0731
C52 C 0.1370(6) 0.2500 0.1198(3)
H38 H 0.0844 0.2500 0.0818
O6 O -0.1230(5) 0.2955(3) 0.2067(3)
O6C O -0.1230(5) 0.2045(3) 0.2067(3)
O7 O 0.6686(3) 0.38266(17) 0.21430(13)
O8 O -0.0965(6) 0.4158(5) 0.0760(5)
N7? N 0.6098(10) 0.7500 0.2675(5)
C53? C 0.6011(12) 0.7500 0.3315(5)
H39? H 0.6763 0.7500 0.3584
C54? C 0.5023(13) 0.7500 0.2197(6)
H40? H 0.5364 0.7500 0.1762
H41? H 0.4495 0.7901 0.2256
C55? C 0.7398(11) 0.7500 0.2458(6)
H42? H 0.7395 0.7500 0.1986
H43? H 0.7844 0.7099 0.2620
O9? O 0.4936(11) 0.7500 0.3550(5)
H44? H 0.4495 0.7901 0.2256
H45? H 0.7844 0.7099 0.2620
O10? O -0.1268(6) 0.3097(4) 0.1645(4)
O11? O -0.0756(5) 0.4761(4) 0.0663(3)
N8? N -0.0128(6) 0.2860(3) -0.0625(4)
C56? C -0.0151(8) 0.3503(4) -0.0445(4)
C57? C -0.1358(7) 0.2500 -0.0771(4)
C58? C 0.1113(7) 0.2500 -0.0749(4)
O12? O -0.1093(8) 0.3859(4) -0.0345(4)
loop_
_geom_bond_atom_site_label_1
_geom_bond_atom_site_label_2
_geom_bond_site_symmetry_1
_geom_bond_site_symmetry_2
P1 F1 1_555 1_555
F2 P1 1_555 1_555
F3 P1 1_555 1_555
N1 C4 1_555 1_555
N2 C5 1_555 1_555
N3 C8 1_555 1_555
N4 C12 1_555 1_555
N5 C13 1_555 1_555
C1 H1 1_555 1_555
C2 C1 1_555 1_555
C3 C2 1_555 1_555
H2 C3 1_555 1_555
C4 C2 1_555 1_555
H3 C4 1_555 1_555
H4 C4 1_555 1_555
C5 N1 1_555 1_555
H5 C5 1_555 1_555
C6 N1 1_555 1_555
H6 C6 1_555 1_555
C7 N2 1_555 1_555
H7 C7 1_555 1_555
C8 N2 1_555 1_555
C9 C8 1_555 1_555
H8 C9 1_555 1_555
C10 C9 1_555 1_555
H9 C10 1_555 1_555
C11 C10 1_555 1_555
H10 C11 1_555 1_555
C12 N3 1_555 1_555
C13 N4 1_555 1_555
H11 C13 1_555 1_555
C14 N4 1_555 1_555
H12 C14 1_555 1_555
C15 N5 1_555 1_555
H13 C15 1_555 1_555
C16 N5 1_555 1_555
H14 C16 1_555 1_555
H15 C16 1_555 1_555
C17 H16 1_555 1_555
C18 C16 1_555 1_555
C19 C18 1_555 1_555
H17 C19 1_555 1_555
N6 C20 1_555 1_555
C20 H18 1_555 1_555
C21 N6 1_555 1_555
H19 C21 1_555 1_555
H20 C21 1_555 1_555
C22 N6 1_555 1_555
H21 C22 1_555 1_555
H22 C22 1_555 1_555
O1 C20 1_555 1_555
C23 C24 1_555 1_555
C24 C25 1_555 1_555
C25 H23 1_555 1_555
C26 C25 1_555 1_555
H24 C26 1_555 1_555
C27 C26 1_555 1_555
H25 C27 1_555 1_555
C28 C27 1_555 1_555
C29 C28 1_555 1_555
C30 C29 1_555 1_555
C31 C30 1_555 1_555
H26 C31 1_555 1_555
C32 C31 1_555 1_555
H27 C32 1_555 1_555
C33 C32 1_555 1_555
H28 C33 1_555 1_555
C34 C33 1_555 1_555
H29 C34 1_555 1_555
C35 C30 1_555 1_555
C36 C35 1_555 1_555
C37 C24 1_555 1_555
O2 C23 1_555 1_555
O3 C23 1_555 1_555
O4 C36 1_555 1_555
O5 C29 1_555 1_555
C38 C39 1_555 1_555
C39 C40 1_555 1_555
C40 C41 1_555 1_555
C41 H30 1_555 1_555
C42 C41 1_555 1_555
C43 C42 1_555 1_555
H31 C43 1_555 1_555
C44 C43 1_555 1_555
H32 C44 1_555 1_555
C45 C44 1_555 1_555
H33 C45 1_555 1_555
C46 C45 1_555 1_555
H34 C46 1_555 1_555
C47 C42 1_555 1_555
C48 C47 1_555 1_555
H35 C48 1_555 1_555
C49 C40 1_555 1_555
C50 C49 1_555 1_555
H36 C50 1_555 1_555
C51 C50 1_555 1_555
H37 C51 1_555 1_555
C52 C39 1_555 1_555
H38 C52 1_555 1_555
O6 C38 1_555 1_555
F1B P1 1_555 1_555
F2B P1 1_555 1_555
F3B P1 1_555 1_555
N1C C4C 1_555 1_555
N2C C5C 1_555 1_555
N3C C8C 1_555 1_555
N4C C12C 1_555 1_555
N5C C13C 1_555 1_555
C1C C1 1_555 1_555
H1C C1C 1_555 1_555
C2C C1C 1_555 1_555
C3C C3 1_555 1_555
H2C C3C 1_555 1_555
C4C C2C 1_555 1_555
H3C C4C 1_555 1_555
H4C C4C 1_555 1_555
C5C N1C 1_555 1_555
H5C C5C 1_555 1_555
C6C N1C 1_555 1_555
H6C C6C 1_555 1_555
C7C N2C 1_555 1_555
H7C C7C 1_555 1_555
C8C N2C 1_555 1_555
C9C C8C 1_555 1_555
H8C C9C 1_555 1_555
C10C C9C 1_555 1_555
H9C C10C 1_555 1_555
C11C C10C 1_555 1_555
H10C C11C 1_555 1_555
C12C N3C 1_555 1_555
C13C N4C 1_555 1_555
H11C C13C 1_555 1_555
C14C N4C 1_555 1_555
H12C C14C 1_555 1_555
C15C N5C 1_555 1_555
H13C C15C 1_555 1_555
C16C N5C 1_555 1_555
H14C C16C 1_555 1_555
H15C C16C 1_555 1_555
C17C C17 1_555 1_555
H16C C17C 1_555 1_555
C18C C16C 1_555 1_555
C19C C19 1_555 1_555
H17C C19C 1_555 1_555
H20C C21 1_555 1_555
H22C C22 1_555 1_555
O6C C38 1_555 1_555
C6 C7 1_555 1_555
C11 C12 1_555 1_555
C14 C15 1_555 1_555
C17 C18 1_555 1_555
C28 C37 1_555 1_555
C34 C35 1_555 1_555
C36 C37 1_555 1_555
C46 C47 1_555 1_555
C48 C49 1_555 1_555
C51 C52 1_555 1_555
C2C C3C 1_555 1_555
C6C C7C 1_555 1_555
C11C C12C 1_555 1_555
C14C C15C 1_555 1_555
C17C C18C 1_555 1_555
C18C C19C 1_555 1_555

#END
