
#######################################################################
#
#                 Cambridge Crystallographic Data Centre
#                                CCDC 
#
#######################################################################
#
# If this CIF has been generated from an entry in the Cambridge 
# Structural Database, then it will include bibliographic, chemical, 
# crystal, experimental, refinement or atomic coordinate data resulting 
# from the CCDC's data processing and validation procedures.
#
#######################################################################

data_ZECYIP
_chemical_formula_moiety         'C8 H8 N1 O1 P1 S2 Se1'
_chemical_name_systematic        
2,4-Dithioxo-4-phenoxy-1,3,4-selenazaphospholidine
_symmetry_cell_setting           monoclinic
_symmetry_space_group_name_H-M   'P 21/n'
_symmetry_Int_Tables_number      14
_space_group_name_Hall           '-P 2yn'
loop_
_symmetry_equiv_pos_site_id
_symmetry_equiv_pos_as_xyz
1 x,y,z
2 1/2-x,1/2+y,1/2-z
3 -x,-y,-z
4 1/2+x,1/2-y,1/2+z
_cell_length_a                   9.600(3)
_cell_length_b                   6.512(3)
_cell_length_c                   19.101(6)
_cell_angle_alpha                90
_cell_angle_beta                 93.68(2)
_cell_angle_gamma                90
_cell_volume                     1191.64
_chemical_melting_point          126deg.C
_cell_formula_units_Z            4
loop_
_atom_site_label
_atom_site_type_symbol
_atom_site_fract_x
_atom_site_fract_y
_atom_site_fract_z
Se1 Se 0.10493(6) 0.2282(1) 0.45706(4)
S1 S 0.5168(2) -0.0889(3) 0.39128(8)
S2 S 0.2827(1) 0.5648(2) 0.53350(8)
P1 P 0.3618(1) 0.0933(2) 0.38767(7)
O1 O 0.3216(4) 0.1958(7) 0.3133(2)
N1 N 0.3807(4) 0.2886(7) 0.4448(2)
C1 C 0.2743(5) 0.3669(9) 0.4784(3)
C2 C 0.1937(6) 0.007(1) 0.4103(3)
C3 C 0.4258(5) 0.2528(8) 0.2682(3)
C4 C 0.4841(7) 0.445(1) 0.2764(3)
C5 C 0.5884(7) 0.493(2) 0.2309(5)
C6 C 0.6240(7) 0.352(2) 0.1807(4)
C7 C 0.5615(8) 0.171(1) 0.1743(4)
C8 C 0.4620(7) 0.122(1) 0.2185(3)
H1 H 0.450(5) 0.326(9) 0.456(3)
H2 H 0.135(5) -0.054(9) 0.375(3)
H3 H 0.211(5) -0.095(8) 0.444(3)
H4 H 0.469(5) 0.516(9) 0.307(3)
H5 H 0.614(5) 0.579(8) 0.242(3)
H6 H 0.683(6) 0.39(1) 0.163(3)
H7 H 0.586(8) 0.08(2) 0.139(5)
H8 H 0.436(7) 0.01(1) 0.217(4)
loop_
_geom_bond_atom_site_label_1
_geom_bond_atom_site_label_2
_geom_bond_site_symmetry_1
_geom_bond_site_symmetry_2
Se1 C1 1_555 1_555
S1 P1 1_555 1_555
S2 C1 1_555 1_555
P1 O1 1_555 1_555
O1 C3 1_555 1_555
N1 P1 1_555 1_555
C1 N1 1_555 1_555
C2 Se1 1_555 1_555
C3 C4 1_555 1_555
C4 C5 1_555 1_555
C5 C6 1_555 1_555
C6 C7 1_555 1_555
C7 C8 1_555 1_555
C8 C3 1_555 1_555
H1 N1 1_555 1_555
H2 C2 1_555 1_555
H3 C2 1_555 1_555
H4 C4 1_555 1_555
H5 C5 1_555 1_555
H6 C6 1_555 1_555
H7 C7 1_555 1_555
H8 C8 1_555 1_555
P1 C2 1_555 1_555

#END
