
#######################################################################
#
#                 Cambridge Crystallographic Data Centre
#                                CCDC 
#
#######################################################################
#
# If this CIF has been generated from an entry in the Cambridge 
# Structural Database, then it will include bibliographic, chemical, 
# crystal, experimental, refinement or atomic coordinate data resulting 
# from the CCDC's data processing and validation procedures.
#
#######################################################################

data_ZEDGUN
_chemical_name_common            
'(mu-tetrakis(spirocyclopentano)cucurbit[4]uril)-hexa-aqua-di-calcium tetrakis(chloride) tetrahydrate'
_chemical_formula_moiety         'C44 H68 Ca2 N16 O14 4+,4(Cl1 1-),4(H2 O1)'
_chemical_name_systematic        
"(\m-cyclotetra(4,6-dimethylene-3,7-dioxo-2,4,6,8-tetraazaspiro[bicyclo[3.3.1]nonane-9,1'-cyclopentane]-2,8-diyl))-hexa-aqua-di-calcium tetrakis(chloride) tetrahydrate"
_symmetry_cell_setting           monoclinic
_symmetry_space_group_name_H-M   'P 21/c'
_symmetry_Int_Tables_number      14
_space_group_name_Hall           '-P 2ybc'
loop_
_symmetry_equiv_pos_site_id
_symmetry_equiv_pos_as_xyz
1 x,y,z
2 -x,1/2+y,1/2-z
3 -x,-y,-z
4 x,1/2-y,1/2+z
_cell_length_a                   12.6660(10)
_cell_length_b                   20.7418(16)
_cell_length_c                   11.6720(9)
_cell_angle_alpha                90
_cell_angle_beta                 111.6460(10)
_cell_angle_gamma                90
_cell_volume                     2850.18
_exptl_crystal_colour            colorless
_exptl_crystal_description       block
_cell_formula_units_Z            2
loop_
_atom_site_label
_atom_site_type_symbol
_atom_site_fract_x
_atom_site_fract_y
_atom_site_fract_z
Ca1 Ca 0.17521(4) 0.49477(2) 0.75795(4)
N1 N 0.26203(15) 0.43809(8) 1.13764(16)
N2 N 0.13739(15) 0.35886(8) 1.01882(16)
N3 N -0.04572(14) 0.36216(8) 0.84607(16)
N4 N -0.16638(15) 0.44132(9) 0.72337(16)
N5 N -0.16175(15) 0.55996(9) 0.71883(16)
N6 N -0.03516(15) 0.63735(9) 0.84044(16)
N7 N 0.14839(15) 0.63632(8) 1.01333(16)
N8 N 0.26829(15) 0.55631(8) 1.13438(16)
O1 O 0.22391(14) 0.42882(8) 0.93294(14)
O2 O 0.01463(13) 0.43118(8) 0.73228(15)
O3 O 0.02129(13) 0.56298(8) 0.73256(15)
O4 O 0.23837(14) 0.56619(8) 0.93079(14)
O5 O 0.37952(15) 0.47546(11) 0.81668(18)
H1 H 0.410(4) 0.457(2) 0.755(4)
H2 H 0.396(5) 0.439(3) 0.872(6)
O6 O 0.1749(2) 0.41893(12) 0.6074(2)
H3 H 0.231(4) 0.413(2) 0.579(4)
H4 H 0.129(5) 0.392(3) 0.575(5)
O7 O 0.21282(19) 0.57774(10) 0.6384(2)
H5 H 0.164(3) 0.6031(18) 0.593(3)
H6 H 0.2705(19) 0.5827(17) 0.625(3)
C1 C 0.20803(17) 0.40964(10) 1.02521(19)
C2 C 0.12514(18) 0.33174(10) 1.12909(19)
H7 H 0.1073 0.2853 1.1148
C3 C 0.23849(17) 0.33879(10) 1.23815(19)
C4 C 0.25449(17) 0.41178(10) 1.25128(19)
H8 H 0.3270 0.4207 1.3203
C5 C 0.06736(17) 0.33327(10) 0.89780(19)
H9 H 0.1067 0.3405 0.8406
H10 H 0.0592 0.2866 0.9048
C6 C -0.06205(18) 0.41261(10) 0.76582(19)
C7 C -0.26089(17) 0.41583(10) 0.75329(19)
H11 H -0.3325 0.4256 0.6837
C8 C -0.25001(17) 0.34275(10) 0.76740(19)
C9 C -0.13757(17) 0.33447(10) 0.87708(19)
H12 H -0.1228 0.2878 0.8926
C10 C -0.18168(19) 0.49964(9) 0.6487(2)
H13 H -0.2594 0.5001 0.5875
H14 H -0.1298 0.4978 0.6039
C11 C -0.05511(18) 0.58549(10) 0.76300(19)
C12 C 0.08028(17) 0.66297(10) 0.89226(19)
H15 H 0.0763 0.7099 0.8995
H16 H 0.1188 0.6539 0.8350
C13 C 0.21864(17) 0.58508(10) 1.02165(19)
C14 C 0.33009(18) 0.49596(9) 1.1437(2)
H17 H 0.3955 0.4957 1.2217
H18 H 0.3592 0.4943 1.0767
C15 C 0.33685(19) 0.30477(11) 1.2131(2)
H19 H 0.3073 0.2802 1.1360
H20 H 0.3914 0.3366 1.2063
C16 C 0.3932(5) 0.2602(4) 1.3203(6)
H21 H 0.4534 0.2825 1.3868
H22 H 0.4257 0.2225 1.2948
C17 C 0.2949(10) 0.2406(6) 1.3612(12)
H23 H 0.2444 0.2092 1.3044
H24 H 0.3233 0.2228 1.4449
C18 C 0.2354(2) 0.30565(11) 1.3557(2)
H25 H 0.2758 0.3316 1.4291
H26 H 0.1570 0.2993 1.3500
C19 C -0.2482(2) 0.30837(11) 0.6505(2)
H27 H -0.2929 0.3323 0.5759
H28 H -0.1703 0.3037 0.6533
C20 C -0.3014(8) 0.2425(4) 0.6534(9)
H29 H -0.3290 0.2222 0.5718
H30 H -0.2471 0.2135 0.7126
C21 C -0.3994(6) 0.2596(3) 0.6940(7)
H31 H -0.4641 0.2767 0.6250
H32 H -0.4243 0.2218 0.7278
C22 C -0.34954(19) 0.31067(11) 0.7927(2)
H33 H -0.3221 0.2909 0.8747
H34 H -0.4073 0.3429 0.7890
N1B N -0.26203(15) 0.56191(8) 0.86236(16)
N2B N -0.13739(15) 0.64114(8) 0.98118(16)
N3B N 0.04572(14) 0.63784(8) 1.15393(16)
N4B N 0.16638(15) 0.55868(9) 1.27663(16)
N5B N 0.16175(15) 0.44004(9) 1.28117(16)
N6B N 0.03516(15) 0.36265(9) 1.15956(16)
N7B N -0.14839(15) 0.36368(8) 0.98667(16)
N8B N -0.26829(15) 0.44369(8) 0.86562(16)
O1B O -0.22391(14) 0.57118(8) 1.06706(14)
O2B O -0.01463(13) 0.56882(8) 1.26772(15)
O3B O -0.02129(13) 0.43702(8) 1.26744(15)
O4B O -0.23837(14) 0.43381(8) 1.06921(14)
C1B C -0.20803(17) 0.59036(10) 0.97479(19)
C2B C -0.12514(18) 0.66826(10) 0.87091(19)
H7B H -0.1073 0.7147 0.8852
C3B C -0.23849(17) 0.66121(10) 0.76185(19)
C4B C -0.25449(17) 0.58822(10) 0.74872(19)
H8B H -0.3270 0.5793 0.6797
C5B C -0.06736(17) 0.66673(10) 1.10220(19)
H9B H -0.1067 0.6595 1.1594
H10B H -0.0592 0.7134 1.0952
C6B C 0.06205(18) 0.58739(10) 1.23418(19)
C7B C 0.26089(17) 0.58417(10) 1.24671(19)
H11B H 0.3325 0.5744 1.3163
C8B C 0.25001(17) 0.65725(10) 1.23260(19)
C9B C 0.13757(17) 0.66553(10) 1.12292(19)
H12B H 0.1228 0.7122 1.1074
C10B C 0.18168(19) 0.50036(9) 1.3513(2)
H13B H 0.2594 0.4999 1.4125
H14B H 0.1298 0.5022 1.3961
C11B C 0.05511(18) 0.41451(10) 1.23700(19)
C12B C -0.08028(17) 0.33703(10) 1.10774(19)
H15B H -0.0763 0.2901 1.1005
H16B H -0.1188 0.3461 1.1650
C13B C -0.21864(17) 0.41492(10) 0.97835(19)
C14B C -0.33009(18) 0.50404(9) 0.8563(2)
H17B H -0.3955 0.5043 0.7783
H18B H -0.3592 0.5057 0.9233
C15B C -0.33685(19) 0.69523(11) 0.7869(2)
H19B H -0.3073 0.7198 0.8640
H20B H -0.3914 0.6634 0.7937
C16B C -0.3932(5) 0.7398(4) 0.6797(6)
H21B H -0.4534 0.7175 0.6132
H22B H -0.4257 0.7775 0.7052
C17B C -0.2949(10) 0.7594(6) 0.6388(12)
H23B H -0.2444 0.7908 0.6956
H24B H -0.3233 0.7772 0.5551
C18B C -0.2354(2) 0.69435(11) 0.6443(2)
H25B H -0.2758 0.6684 0.5709
H26B H -0.1570 0.7007 0.6500
C19B C 0.2482(2) 0.69163(11) 1.3495(2)
H27B H 0.2929 0.6677 1.4241
H28B H 0.1703 0.6963 1.3467
C20B C 0.3014(8) 0.7575(4) 1.3466(9)
H29B H 0.3290 0.7778 1.4282
H30B H 0.2471 0.7865 1.2874
C21B C 0.3994(6) 0.7404(3) 1.3060(7)
H31B H 0.4641 0.7233 1.3750
H32B H 0.4243 0.7782 1.2722
C22B C 0.34954(19) 0.68933(11) 1.2073(2)
H33B H 0.3221 0.7091 1.1253
H34B H 0.4073 0.6571 1.2110
Ca1B Ca -0.17521(4) 0.50523(2) 1.24205(4)
O5B O -0.37952(15) 0.52454(11) 1.18332(18)
H1B H -0.410(4) 0.543(2) 1.245(4)
H2B H -0.396(5) 0.561(3) 1.128(6)
O6B O -0.1749(2) 0.58107(12) 1.3926(2)
H3B H -0.231(4) 0.587(2) 1.421(4)
H4B H -0.129(5) 0.608(3) 1.425(5)
O7B O -0.21282(19) 0.42226(10) 1.3616(2)
H5B H -0.164(3) 0.3969(18) 1.407(3)
H6B H -0.2705(19) 0.4173(17) 1.375(3)
Cl1 Cl 0.42946(5) 0.42264(3) 0.58834(6)
Cl2 Cl 0.02087(6) 0.67977(3) 0.51027(6)
O8 O 0.5102(2) 0.40822(14) 0.0373(3)
H51 H 0.573(3) 0.397(2) 0.032(4)
H52 H 0.522(4) 0.407(2) 0.114(2)
O9 O 0.42663(19) 0.57545(11) 0.5935(2)
H53 H 0.457(3) 0.5885(14) 0.553(3)
H54 H 0.425(3) 0.5365(9) 0.594(3)
H35? H 0.3209 0.3018 1.1245
H36? H 0.4088 0.3277 1.2530
C23? C 0.3404(11) 0.2390(4) 1.2687(12)
H37? H 0.2808 0.2112 1.2136
H38? H 0.4144 0.2185 1.2861
C24? C 0.3207(17) 0.2524(11) 1.385(2)
H39? H 0.2915 0.2139 1.4125
H40? H 0.3916 0.2655 1.4512
H41? H 0.2550 0.3365 1.4240
H42? H 0.1595 0.2884 1.3409
H43? H -0.2702 0.3384 0.5807
H44? H -0.1719 0.2920 0.6644
C25? C -0.3305(14) 0.2545(10) 0.6248(16)
H45? H -0.2992 0.2156 0.6015
H46? H -0.4015 0.2658 0.5575
C26? C -0.3511(13) 0.2433(5) 0.7422(14)
H47? H -0.2911 0.2165 0.7997
H48? H -0.4247 0.2224 0.7255
H49? H -0.3353 0.3097 0.8811
H50? H -0.4213 0.3332 0.7494
loop_
_geom_bond_atom_site_label_1
_geom_bond_atom_site_label_2
_geom_bond_site_symmetry_1
_geom_bond_site_symmetry_2
Ca1 O1 1_555 1_555
N1 C1 1_555 1_555
N2 C1 1_555 1_555
N3 C5 1_555 1_555
N4 C6 1_555 1_555
N5 C10 1_555 1_555
N6 C11 1_555 1_555
N7 C12 1_555 1_555
N8 C13 1_555 1_555
O1 C1 1_555 1_555
O2 Ca1 1_555 1_555
O3 Ca1 1_555 1_555
O4 Ca1 1_555 1_555
O5 Ca1 1_555 1_555
H1 O5 1_555 1_555
H2 O5 1_555 1_555
O6 Ca1 1_555 1_555
H3 O6 1_555 1_555
H4 O6 1_555 1_555
O7 Ca1 1_555 1_555
H5 O7 1_555 1_555
H6 O7 1_555 1_555
C2 N2 1_555 1_555
H7 C2 1_555 1_555
C3 C2 1_555 1_555
C4 N1 1_555 1_555
H8 C4 1_555 1_555
C5 N2 1_555 1_555
H9 C5 1_555 1_555
H10 C5 1_555 1_555
C6 N3 1_555 1_555
C7 N4 1_555 1_555
H11 C7 1_555 1_555
C8 C7 1_555 1_555
C9 N3 1_555 1_555
H12 C9 1_555 1_555
C10 N4 1_555 1_555
H13 C10 1_555 1_555
H14 C10 1_555 1_555
C11 N5 1_555 1_555
C12 N6 1_555 1_555
H15 C12 1_555 1_555
H16 C12 1_555 1_555
C13 N7 1_555 1_555
C14 N1 1_555 1_555
H17 C14 1_555 1_555
H18 C14 1_555 1_555
C15 C3 1_555 1_555
H19 C15 1_555 1_555
H20 C15 1_555 1_555
C16 C15 1_555 1_555
H21 C16 1_555 1_555
H22 C16 1_555 1_555
C17 C16 1_555 1_555
H23 C17 1_555 1_555
H24 C17 1_555 1_555
C18 C3 1_555 1_555
H25 C18 1_555 1_555
H26 C18 1_555 1_555
C19 C8 1_555 1_555
H27 C19 1_555 1_555
H28 C19 1_555 1_555
C20 C19 1_555 1_555
H29 C20 1_555 1_555
H30 C20 1_555 1_555
C21 C20 1_555 1_555
H31 C21 1_555 1_555
H32 C21 1_555 1_555
C22 C8 1_555 1_555
H33 C22 1_555 1_555
H34 C22 1_555 1_555
O8 H51 1_555 1_555
H52 O8 1_555 1_555
O9 H53 1_555 1_555
H54 O9 1_555 1_555
N1B C1B 1_555 1_555
N2B C1B 1_555 1_555
N3B C5B 1_555 1_555
N4B C6B 1_555 1_555
N5B C4 1_555 1_555
N6B C2 1_555 1_555
N7B C9 1_555 1_555
N8B C7 1_555 1_555
O1B C1B 1_555 1_555
O2B C6B 1_555 1_555
O3B C11B 1_555 1_555
O4B C13B 1_555 1_555
C2B N6 1_555 1_555
H7B C2B 1_555 1_555
C3B C2B 1_555 1_555
C4B N5 1_555 1_555
H8B C4B 1_555 1_555
C5B N2B 1_555 1_555
H9B C5B 1_555 1_555
H10B C5B 1_555 1_555
C6B N3B 1_555 1_555
C7B N8 1_555 1_555
H11B C7B 1_555 1_555
C8B C7B 1_555 1_555
C9B N7 1_555 1_555
H12B C9B 1_555 1_555
C10B N4B 1_555 1_555
H13B C10B 1_555 1_555
H14B C10B 1_555 1_555
C11B N5B 1_555 1_555
C12B N6B 1_555 1_555
H15B C12B 1_555 1_555
H16B C12B 1_555 1_555
C13B N7B 1_555 1_555
C14B N1B 1_555 1_555
H17B C14B 1_555 1_555
H18B C14B 1_555 1_555
C15B C3B 1_555 1_555
H19B C15B 1_555 1_555
H20B C15B 1_555 1_555
C16B C15B 1_555 1_555
H21B C16B 1_555 1_555
H22B C16B 1_555 1_555
C17B C16B 1_555 1_555
H23B C17B 1_555 1_555
H24B C17B 1_555 1_555
C18B C3B 1_555 1_555
H25B C18B 1_555 1_555
H26B C18B 1_555 1_555
C19B C8B 1_555 1_555
H27B C19B 1_555 1_555
H28B C19B 1_555 1_555
C20B C19B 1_555 1_555
H29B C20B 1_555 1_555
H30B C20B 1_555 1_555
C21B C20B 1_555 1_555
H31B C21B 1_555 1_555
H32B C21B 1_555 1_555
C22B C8B 1_555 1_555
H33B C22B 1_555 1_555
H34B C22B 1_555 1_555
Ca1B O1B 1_555 1_555
O5B Ca1B 1_555 1_555
H1B O5B 1_555 1_555
H2B O5B 1_555 1_555
O6B Ca1B 1_555 1_555
H3B O6B 1_555 1_555
H4B O6B 1_555 1_555
O7B Ca1B 1_555 1_555
H5B O7B 1_555 1_555
H6B O7B 1_555 1_555
N8 C14 1_555 1_555
O2 C6 1_555 1_555
O3 C11 1_555 1_555
O4 C13 1_555 1_555
C3 C4 1_555 1_555
C8 C9 1_555 1_555
C17 C18 1_555 1_555
C21 C22 1_555 1_555
N1B C4B 1_555 1_555
N2B C2B 1_555 1_555
N3B C9B 1_555 1_555
N4B C7B 1_555 1_555
N5B C10B 1_555 1_555
N6B C11B 1_555 1_555
N7B C12B 1_555 1_555
N8B C13B 1_555 1_555
N8B C14B 1_555 1_555
O2B Ca1B 1_555 1_555
O3B Ca1B 1_555 1_555
O4B Ca1B 1_555 1_555
C3B C4B 1_555 1_555
C8B C9B 1_555 1_555
C17B C18B 1_555 1_555
C21B C22B 1_555 1_555

#END
