
#######################################################################
#
#                 Cambridge Crystallographic Data Centre
#                                CCDC 
#
#######################################################################
#
# If this CIF has been generated from an entry in the Cambridge 
# Structural Database, then it will include bibliographic, chemical, 
# crystal, experimental, refinement or atomic coordinate data resulting 
# from the CCDC's data processing and validation procedures.
#
#######################################################################

data_ZEDJUP
_chemical_name_common            
9,10-bis(3,5-bis(Trifluoromethyl)styryl)anthracene
_chemical_formula_moiety         'C34 H18 F12'
_chemical_name_systematic        
9,10-bis(2-(3,5-bis(Trifluoromethyl)phenyl)vinyl)anthracene
_symmetry_cell_setting           monoclinic
_symmetry_space_group_name_H-M   'P 21/c'
_symmetry_Int_Tables_number      14
_space_group_name_Hall           '-P 2ybc'
loop_
_symmetry_equiv_pos_site_id
_symmetry_equiv_pos_as_xyz
1 x,y,z
2 -x,1/2+y,1/2-z
3 -x,-y,-z
4 x,1/2-y,1/2+z
_cell_length_a                   4.875(1)
_cell_length_b                   13.857(3)
_cell_length_c                   20.296(4)
_cell_angle_alpha                90
_cell_angle_beta                 92.85(3)
_cell_angle_gamma                90
_cell_volume                     1369.36
_exptl_crystal_colour            yellow
_exptl_crystal_description       needle
_cell_formula_units_Z            2
loop_
_atom_site_label
_atom_site_type_symbol
_atom_site_fract_x
_atom_site_fract_y
_atom_site_fract_z
C1 C -0.1852(17) 0.0643(7) -0.0306(4)
C2 C -0.3741(17) 0.1336(7) -0.0554(4)
H1 H -0.5040 0.1143 -0.0878
C3 C -0.379(2) 0.2266(7) -0.0350(5)
H2 H -0.5104 0.2700 -0.0519
C4 C -0.1783(19) 0.2541(7) 0.0123(4)
H3 H -0.1685 0.3187 0.0245
C5 C 0.0009(18) 0.1929(7) 0.0412(4)
H4 H 0.1230 0.2142 0.0747
C6 C 0.0054(17) 0.0949(7) 0.0206(4)
C7 C -0.1888(17) -0.0315(7) -0.0515(4)
C8 C -0.3765(18) -0.0655(6) -0.1039(4)
H5 H -0.4916 -0.1166 -0.0944
C9 C -0.3971(17) -0.0301(6) -0.1633(5)
H6 H -0.2845 0.0223 -0.1715
C10 C -0.5721(19) -0.0623(6) -0.2173(5)
C11 C -0.7454(18) -0.1416(7) -0.2152(4)
H7 H -0.7559 -0.1751 -0.1757
C12 C -0.9015(19) -0.1727(8) -0.2690(5)
C13 C -0.8913(18) -0.1242(7) -0.3271(5)
H8 H -0.9961 -0.1457 -0.3637
C14 C -0.727(2) -0.0431(7) -0.3325(4)
C15 C -0.5746(17) -0.0148(6) -0.2775(4)
H9 H -0.4655 0.0399 -0.2806
C16 C -0.721(5) 0.0120(18) -0.3944(6)
C17 C -1.053(4) -0.2641(11) -0.2663(7)
F1 F -0.602(7) 0.0968(15) -0.3910(7)
F2 F -0.512(6) -0.0354(17) -0.4295(11)
F3 F -0.920(5) 0.006(3) -0.4366(13)
F4 F -0.920(5) -0.3311(16) -0.280(2)
F5 F -1.196(7) -0.269(2) -0.2059(11)
F6 F -1.276(4) -0.257(2) -0.3080(12)
C1B C 0.1852(17) -0.0643(7) 0.0306(4)
C2B C 0.3741(17) -0.1336(7) 0.0554(4)
H1B H 0.5040 -0.1143 0.0878
C3B C 0.379(2) -0.2266(7) 0.0350(5)
H2B H 0.5104 -0.2700 0.0519
C4B C 0.1783(19) -0.2541(7) -0.0123(4)
H3B H 0.1685 -0.3187 -0.0245
C5B C -0.0009(18) -0.1929(7) -0.0412(4)
H4B H -0.1230 -0.2142 -0.0747
C6B C -0.0054(17) -0.0949(7) -0.0206(4)
C7B C 0.1888(17) 0.0315(7) 0.0515(4)
C8B C 0.3765(18) 0.0655(6) 0.1039(4)
H5B H 0.4916 0.1166 0.0944
C9B C 0.3971(17) 0.0301(6) 0.1633(5)
H6B H 0.2845 -0.0223 0.1715
C10B C 0.5721(19) 0.0623(6) 0.2173(5)
C11B C 0.7454(18) 0.1416(7) 0.2152(4)
H7B H 0.7559 0.1751 0.1757
C12B C 0.9015(19) 0.1727(8) 0.2690(5)
C13B C 0.8913(18) 0.1242(7) 0.3271(5)
H8B H 0.9961 0.1457 0.3637
C14B C 0.727(2) 0.0431(7) 0.3325(4)
C15B C 0.5746(17) 0.0148(6) 0.2775(4)
H9B H 0.4655 -0.0399 0.2806
C16B C 0.721(5) -0.0120(18) 0.3944(6)
C17B C 1.053(4) 0.2641(11) 0.2663(7)
F1B F 0.602(7) -0.0968(15) 0.3910(7)
F2B F 0.512(6) 0.0354(17) 0.4295(11)
F3B F 0.920(5) -0.006(3) 0.4366(13)
F4B F 0.920(5) 0.3311(16) 0.280(2)
F5B F 1.196(7) 0.269(2) 0.2059(11)
F6B F 1.276(4) 0.257(2) 0.3080(12)
F7? F 0.895(14) -0.087(2) 0.3936(13)
F8? F 0.493(15) -0.045(7) 0.397(4)
F9? F 0.789(15) 0.0359(19) 0.4386(12)
F10? F -1.175(19) -0.289(5) -0.320(2)
F11? F -0.920(7) -0.340(2) -0.241(4)
F12? F -1.219(9) -0.2639(18) -0.228(3)
loop_
_geom_bond_atom_site_label_1
_geom_bond_atom_site_label_2
_geom_bond_site_symmetry_1
_geom_bond_site_symmetry_2
C1 C2 1_555 1_555
C2 H1 1_555 1_555
C3 C2 1_555 1_555
H2 C3 1_555 1_555
C4 C3 1_555 1_555
H3 C4 1_555 1_555
C5 C4 1_555 1_555
H4 C5 1_555 1_555
C6 C1 1_555 1_555
C7 C1 1_555 1_555
C8 C7 1_555 1_555
H5 C8 1_555 1_555
C9 C8 1_555 1_555
H6 C9 1_555 1_555
C10 C9 1_555 1_555
C11 C10 1_555 1_555
H7 C11 1_555 1_555
C12 C11 1_555 1_555
C13 C12 1_555 1_555
H8 C13 1_555 1_555
C14 C13 1_555 1_555
C15 C10 1_555 1_555
H9 C15 1_555 1_555
C16 C14 1_555 1_555
C17 C12 1_555 1_555
F1 C16 1_555 1_555
F2 C16 1_555 1_555
F3 C16 1_555 1_555
F4 C17 1_555 1_555
F5 C17 1_555 1_555
F6 C17 1_555 1_555
C1B C2B 1_555 1_555
C2B H1B 1_555 1_555
C3B C2B 1_555 1_555
H2B C3B 1_555 1_555
C4B C3B 1_555 1_555
H3B C4B 1_555 1_555
C5B C4B 1_555 1_555
H4B C5B 1_555 1_555
C6B C7 1_555 1_555
C7B C6 1_555 1_555
C8B C7B 1_555 1_555
H5B C8B 1_555 1_555
C9B C8B 1_555 1_555
H6B C9B 1_555 1_555
C10B C9B 1_555 1_555
C11B C10B 1_555 1_555
H7B C11B 1_555 1_555
C12B C11B 1_555 1_555
C13B C12B 1_555 1_555
H8B C13B 1_555 1_555
C14B C13B 1_555 1_555
C15B C10B 1_555 1_555
H9B C15B 1_555 1_555
C16B C14B 1_555 1_555
C17B C12B 1_555 1_555
F1B C16B 1_555 1_555
F2B C16B 1_555 1_555
F3B C16B 1_555 1_555
F4B C17B 1_555 1_555
F5B C17B 1_555 1_555
F6B C17B 1_555 1_555
C5 C6 1_555 1_555
C14 C15 1_555 1_555
C1B C6B 1_555 1_555
C1B C7B 1_555 1_555
C5B C6B 1_555 1_555
C14B C15B 1_555 1_555

#END
