
#######################################################################
#
#                 Cambridge Crystallographic Data Centre
#                                CCDC 
#
#######################################################################
#
# If this CIF has been generated from an entry in the Cambridge 
# Structural Database, then it will include bibliographic, chemical, 
# crystal, experimental, refinement or atomic coordinate data resulting 
# from the CCDC's data processing and validation procedures.
#
#######################################################################

data_ZEDKAW
_chemical_name_common            9,10-bis(3,5-Dimethylstyryl)anthracene
_chemical_formula_moiety         'C34 H30'
_chemical_name_systematic        
9,10-bis(2-(3,5-Dimethylphenyl)vinyl)anthracene
_symmetry_cell_setting           monoclinic
_symmetry_space_group_name_H-M   'P 21/c'
_symmetry_Int_Tables_number      14
_space_group_name_Hall           '-P 2ybc'
loop_
_symmetry_equiv_pos_site_id
_symmetry_equiv_pos_as_xyz
1 x,y,z
2 -x,1/2+y,1/2-z
3 -x,-y,-z
4 x,1/2-y,1/2+z
_cell_length_a                   7.7071(15)
_cell_length_b                   30.672(6)
_cell_length_c                   5.2356(10)
_cell_angle_alpha                90
_cell_angle_beta                 94.83(3)
_cell_angle_gamma                90
_cell_volume                     1233.26
_cell_formula_units_Z            2
loop_
_atom_site_label
_atom_site_type_symbol
_atom_site_fract_x
_atom_site_fract_y
_atom_site_fract_z
C1 C 0.3441(5) 0.69856(14) 0.5726(11)
H1 H 0.2713 0.6851 0.6901
H2 H 0.2993 0.6922 0.3999
H3 H 0.3455 0.7295 0.5987
C2 C 0.5272(4) 0.68088(9) 0.6182(7)
C3 C 0.6429(5) 0.69796(9) 0.8081(6)
H4 H 0.6078 0.7211 0.9064
C4 C 0.8095(4) 0.68154(9) 0.8555(6)
C5 C 0.9345(6) 0.70066(13) 1.0601(8)
H5 H 1.0344 0.6820 1.0878
H6 H 0.8785 0.7033 1.2164
H7 H 0.9708 0.7290 1.0073
C6 C 0.8585(4) 0.64681(9) 0.7063(6)
H8 H 0.9699 0.6352 0.7361
C7 C 0.7451(4) 0.62901(9) 0.5140(6)
C8 C 0.5810(5) 0.64694(9) 0.4736(7)
H9 H 0.5041 0.6356 0.3438
C9 C 0.7883(5) 0.59246(11) 0.3439(7)
H10 H 0.7029 0.5852 0.2149
C10 C 0.9264(5) 0.56995(11) 0.3518(7)
H11 H 1.0134 0.5764 0.4803
C11 C 0.9604(4) 0.53409(9) 0.1719(6)
C12 C 1.1043(4) 0.53780(9) 0.0263(5)
C13 C 1.2115(4) 0.57575(10) 0.0400(6)
H12 H 1.1877 0.5980 0.1526
C14 C 1.3467(5) 0.58026(11) -0.1065(7)
H13 H 1.4164 0.6050 -0.0909
C15 C 1.3818(5) 0.54750(11) -0.2823(8)
H14 H 1.4735 0.5510 -0.3852
C16 C 1.2840(5) 0.51092(11) -0.3037(8)
H15 H 1.3086 0.4898 -0.4231
C17 C 1.1442(4) 0.50393(9) -0.1478(6)
C1B C 1.6559(5) 0.30144(14) -0.5726(11)
H1B H 1.7287 0.3149 -0.6901
H2B H 1.7007 0.3078 -0.3999
H3B H 1.6545 0.2705 -0.5987
C2B C 1.4728(4) 0.31912(9) -0.6182(7)
C3B C 1.3571(5) 0.30204(9) -0.8081(6)
H4B H 1.3922 0.2789 -0.9064
C4B C 1.1905(4) 0.31846(9) -0.8555(6)
C5B C 1.0655(6) 0.29934(13) -1.0601(8)
H5B H 0.9656 0.3180 -1.0878
H6B H 1.1215 0.2967 -1.2164
H7B H 1.0292 0.2710 -1.0073
C6B C 1.1415(4) 0.35319(9) -0.7063(6)
H8B H 1.0301 0.3648 -0.7361
C7B C 1.2549(4) 0.37099(9) -0.5140(6)
C8B C 1.4190(5) 0.35306(9) -0.4736(7)
H9B H 1.4959 0.3644 -0.3438
C9B C 1.2117(5) 0.40754(11) -0.3439(7)
H10B H 1.2971 0.4148 -0.2149
C10B C 1.0736(5) 0.43005(11) -0.3518(7)
H11B H 0.9866 0.4236 -0.4803
C11B C 1.0396(4) 0.46591(9) -0.1719(6)
C12B C 0.8957(4) 0.46220(9) -0.0263(5)
C13B C 0.7885(4) 0.42425(10) -0.0400(6)
H12B H 0.8123 0.4020 -0.1526
C14B C 0.6533(5) 0.41974(11) 0.1065(7)
H13B H 0.5836 0.3950 0.0909
C15B C 0.6182(5) 0.45250(11) 0.2823(8)
H14B H 0.5265 0.4490 0.3852
C16B C 0.7160(5) 0.48908(11) 0.3037(8)
H15B H 0.6914 0.5102 0.4231
C17B C 0.8558(4) 0.49607(9) 0.1478(6)
loop_
_geom_bond_atom_site_label_1
_geom_bond_atom_site_label_2
_geom_bond_site_symmetry_1
_geom_bond_site_symmetry_2
C1 H1 1_555 1_555
H2 C1 1_555 1_555
H3 C1 1_555 1_555
C2 C1 1_555 1_555
C3 C2 1_555 1_555
H4 C3 1_555 1_555
C4 C3 1_555 1_555
C5 C4 1_555 1_555
H5 C5 1_555 1_555
H6 C5 1_555 1_555
H7 C5 1_555 1_555
C6 C4 1_555 1_555
H8 C6 1_555 1_555
C7 C6 1_555 1_555
C8 C2 1_555 1_555
H9 C8 1_555 1_555
C9 C7 1_555 1_555
H10 C9 1_555 1_555
C10 C9 1_555 1_555
H11 C10 1_555 1_555
C11 C10 1_555 1_555
C12 C11 1_555 1_555
C13 C12 1_555 1_555
H12 C13 1_555 1_555
C14 C13 1_555 1_555
H13 C14 1_555 1_555
C15 C14 1_555 1_555
H14 C15 1_555 1_555
C16 C15 1_555 1_555
H15 C16 1_555 1_555
C17 C12 1_555 1_555
C1B H1B 1_555 1_555
H2B C1B 1_555 1_555
H3B C1B 1_555 1_555
C2B C1B 1_555 1_555
C3B C2B 1_555 1_555
H4B C3B 1_555 1_555
C4B C3B 1_555 1_555
C5B C4B 1_555 1_555
H5B C5B 1_555 1_555
H6B C5B 1_555 1_555
H7B C5B 1_555 1_555
C6B C4B 1_555 1_555
H8B C6B 1_555 1_555
C7B C6B 1_555 1_555
C8B C2B 1_555 1_555
H9B C8B 1_555 1_555
C9B C7B 1_555 1_555
H10B C9B 1_555 1_555
C10B C9B 1_555 1_555
H11B C10B 1_555 1_555
C11B C17 1_555 1_555
C12B C11B 1_555 1_555
C13B C12B 1_555 1_555
H12B C13B 1_555 1_555
C14B C13B 1_555 1_555
H13B C14B 1_555 1_555
C15B C14B 1_555 1_555
H14B C15B 1_555 1_555
C16B C15B 1_555 1_555
H15B C16B 1_555 1_555
C17B C11 1_555 1_555
C7 C8 1_555 1_555
C16 C17 1_555 1_555
C7B C8B 1_555 1_555
C10B C11B 1_555 1_555
C12B C17B 1_555 1_555
C16B C17B 1_555 1_555

#END
