
#######################################################################
#
#                 Cambridge Crystallographic Data Centre
#                                CCDC 
#
#######################################################################
#
# If this CIF has been generated from an entry in the Cambridge 
# Structural Database, then it will include bibliographic, chemical, 
# crystal, experimental, refinement or atomic coordinate data resulting 
# from the CCDC's data processing and validation procedures.
#
#######################################################################

data_ZEDLUS
_chemical_formula_moiety         'C18 H22 N4 O5'
_chemical_name_systematic        
'methyl 3-{1-[bis(propan-2-yl)carbamoyl]-5-nitro-1H-indazol-7-yl}prop-2-enoate'
_symmetry_cell_setting           triclinic
_symmetry_space_group_name_H-M   'P -1'
_symmetry_Int_Tables_number      2
_space_group_name_Hall           '-P 1'
loop_
_symmetry_equiv_pos_site_id
_symmetry_equiv_pos_as_xyz
1 x,y,z
2 -x,-y,-z
_cell_length_a                   7.5054(16)
_cell_length_b                   7.5538(15)
_cell_length_c                   16.847(3)
_cell_angle_alpha                97.046(5)
_cell_angle_beta                 96.419(5)
_cell_angle_gamma                91.110(4)
_cell_volume                     941.443
_cell_formula_units_Z            2
loop_
_atom_site_label
_atom_site_type_symbol
_atom_site_fract_x
_atom_site_fract_y
_atom_site_fract_z
N1 N 0.0233(2) 0.6363(3) 0.2327(1)
N2 N -0.1257(3) 0.5461(3) 0.2520(1)
N3 N -0.1931(3) 0.7000(3) -0.0874(1)
N4 N 0.2297(3) 0.6029(3) 0.3454(1)
O1 O 0.6787(3) 1.0624(3) 0.0986(1)
O2 O 0.6138(2) 0.9689(3) 0.2120(1)
O3 O 0.1768(2) 0.8756(2) 0.3069(1)
O4 O -0.3406(3) 0.6323(3) -0.1134(1)
O5 O -0.0969(3) 0.7706(3) -0.1284(1)
C1 C -0.2378(3) 0.5242(4) 0.1862(2)
C2 C -0.1704(3) 0.5995(3) 0.1222(2)
C3 C -0.2363(3) 0.6074(3) 0.0427(2)
C4 C -0.1302(3) 0.6917(3) -0.0025(2)
C5 C 0.0383(3) 0.7665(3) 0.0280(2)
C6 C 0.1103(3) 0.7592(3) 0.1070(1)
C7 C -0.0021(3) 0.6744(3) 0.1545(2)
C8 C 0.2896(3) 0.8324(3) 0.1378(2)
C9 C 0.4061(3) 0.9035(4) 0.0983(2)
C10 C 0.5788(3) 0.9861(4) 0.1344(2)
C11 C 0.7785(4) 1.0517(4) 0.2532(2)
C12 C 0.1510(3) 0.7150(4) 0.2984(2)
C13 C 0.2117(4) 0.4054(3) 0.3294(2)
C14 C 0.1095(4) 0.3314(4) 0.3911(2)
C15 C 0.3931(4) 0.3210(4) 0.3244(2)
C16 C 0.3433(4) 0.6805(4) 0.4193(2)
C17 C 0.2388(6) 0.8004(5) 0.4750(2)
C18 C 0.5142(5) 0.7698(5) 0.4008(2)
H1 H -0.3493 0.4657 0.1818
H2 H -0.3480 0.5572 0.0210
H3 H 0.1046 0.8231 -0.0056
H4 H 0.3249 0.8276 0.1922
H5 H 0.3774 0.9016 0.0430
H6 H 0.8736 1.0288 0.2201
H7 H 0.8071 1.0035 0.3030
H8 H 0.7646 1.1781 0.2640
H9 H 0.1410 0.3754 0.2767
H10 H 0.1755 0.3588 0.4435
H11 H 0.0941 0.2043 0.3780
H12 H -0.0059 0.3841 0.3909
H13 H 0.4550 0.3732 0.2857
H14 H 0.3758 0.1949 0.3082
H15 H 0.4629 0.3414 0.3762
H16 H 0.3806 0.5802 0.4483
H17 H 0.2101 0.9075 0.4515
H18 H 0.3101 0.8307 0.5260
H19 H 0.1300 0.7391 0.4826
H20 H 0.5765 0.6868 0.3669
H21 H 0.5895 0.8073 0.4501
H22 H 0.4846 0.8718 0.3737
loop_
_geom_bond_atom_site_label_1
_geom_bond_atom_site_label_2
_geom_bond_site_symmetry_1
_geom_bond_site_symmetry_2
N1 N2 1_555 1_555
N2 C1 1_555 1_555
N3 O4 1_555 1_555
N4 C12 1_555 1_555
O1 C10 1_555 1_555
O2 C10 1_555 1_555
O3 C12 1_555 1_555
O5 N3 1_555 1_555
C1 C2 1_555 1_555
C2 C3 1_555 1_555
C3 C4 1_555 1_555
C4 N3 1_555 1_555
C5 C4 1_555 1_555
C6 C5 1_555 1_555
C7 N1 1_555 1_555
C8 C6 1_555 1_555
C9 C8 1_555 1_555
C10 C9 1_555 1_555
C11 O2 1_555 1_555
C12 N1 1_555 1_555
C13 N4 1_555 1_555
C14 C13 1_555 1_555
C15 C13 1_555 1_555
C16 N4 1_555 1_555
C17 C16 1_555 1_555
C18 C16 1_555 1_555
H1 C1 1_555 1_555
H2 C3 1_555 1_555
H3 C5 1_555 1_555
H4 C8 1_555 1_555
H5 C9 1_555 1_555
H6 C11 1_555 1_555
H7 C11 1_555 1_555
H8 C11 1_555 1_555
H9 C13 1_555 1_555
H10 C14 1_555 1_555
H11 C14 1_555 1_555
H12 C14 1_555 1_555
H13 C15 1_555 1_555
H14 C15 1_555 1_555
H15 C15 1_555 1_555
H16 C16 1_555 1_555
H17 C17 1_555 1_555
H18 C17 1_555 1_555
H19 C17 1_555 1_555
H20 C18 1_555 1_555
H21 C18 1_555 1_555
H22 C18 1_555 1_555
C2 C7 1_555 1_555
C6 C7 1_555 1_555

#END
