
#######################################################################
#
#                 Cambridge Crystallographic Data Centre
#                                CCDC 
#
#######################################################################
#
# If this CIF has been generated from an entry in the Cambridge 
# Structural Database, then it will include bibliographic, chemical, 
# crystal, experimental, refinement or atomic coordinate data resulting 
# from the CCDC's data processing and validation procedures.
#
#######################################################################

data_ZEDWOW
_chemical_formula_moiety         'C34 H11 B1 F18 O1,C1 H2 Cl2'
_chemical_name_systematic        
'(2-(4-Methoxyphenyl)-1-(pentafluorophenyl)-2-(4-(trifluoromethyl)phenyl)vinyl)(bis(pentafluorophenyl))borane dichloromethane solvate'
_symmetry_cell_setting           monoclinic
_symmetry_space_group_name_H-M   'P 21/c'
_symmetry_Int_Tables_number      14
_space_group_name_Hall           '-P 2ybc'
loop_
_symmetry_equiv_pos_site_id
_symmetry_equiv_pos_as_xyz
1 x,y,z
2 -x,1/2+y,1/2-z
3 -x,-y,-z
4 x,1/2-y,1/2+z
_cell_length_a                   12.2093(4)
_cell_length_b                   13.0466(4)
_cell_length_c                   22.3254(7)
_cell_angle_alpha                90
_cell_angle_beta                 105.050(2)
_cell_angle_gamma                90
_cell_volume                     3434.23
_cell_formula_units_Z            4
loop_
_atom_site_label
_atom_site_type_symbol
_atom_site_fract_x
_atom_site_fract_y
_atom_site_fract_z
O1 O 0.4025(2) -0.0513(2) 0.59335(13)
B1 B 0.2295(4) 0.3012(3) 0.41662(19)
F1 F 0.0339(2) 0.1618(2) 0.37864(10)
F2 F -0.0793(2) 0.0814(2) 0.45460(12)
F3 F -0.0223(2) 0.1306(2) 0.57677(12)
F4 F 0.1524(2) 0.2607(2) 0.62271(11)
F5 F 0.2730(2) 0.3365(2) 0.54887(10)
F6 F 0.4470(2) 0.37744(19) 0.40876(13)
F7 F 0.5197(3) 0.5709(2) 0.42707(19)
F8 F 0.3869(3) 0.7162(2) 0.45903(17)
F9 F 0.1772(3) 0.66699(19) 0.46999(13)
F10 F 0.1003(2) 0.47466(18) 0.44874(12)
F11 F 0.4179(2) 0.25573(19) 0.28990(11)
F12 F 0.3945(2) 0.3739(2) 0.18969(13)
F13 F 0.2063(3) 0.4921(3) 0.14894(14)
F14 F 0.0413(2) 0.4897(2) 0.20954(13)
F15 F 0.0629(2) 0.37048(19) 0.31059(11)
F16 F 0.1728(4) -0.1716(3) 0.13175(16)
F17 F 0.3237(3) -0.1054(3) 0.11925(15)
F18 F 0.1653(3) -0.0326(3) 0.08308(13)
C1 C 0.1587(3) 0.2539(3) 0.46009(17)
C2 C 0.0679(3) 0.1880(3) 0.43909(17)
C3 C 0.0074(3) 0.1461(3) 0.4775(2)
C4 C 0.0358(4) 0.1703(3) 0.5391(2)
C5 C 0.1246(4) 0.2366(3) 0.56230(18)
C6 C 0.1839(3) 0.2758(3) 0.52325(18)
C7 C 0.2703(3) 0.4169(3) 0.42797(17)
C8 C 0.3766(4) 0.4471(3) 0.4227(2)
C9 C 0.4162(4) 0.5459(4) 0.4328(2)
C10 C 0.3485(4) 0.6202(3) 0.4488(2)
C11 C 0.2431(4) 0.5944(3) 0.45483(19)
C12 C 0.2055(4) 0.4949(3) 0.44405(18)
C13 C 0.2395(3) 0.3072(3) 0.30313(17)
C14 C 0.3230(3) 0.3116(3) 0.27108(18)
C15 C 0.3130(4) 0.3734(3) 0.2201(2)
C16 C 0.2179(4) 0.4327(4) 0.1991(2)
C17 C 0.1339(4) 0.4314(3) 0.2299(2)
C18 C 0.1463(4) 0.3700(3) 0.28085(18)
C19 C 0.3105(3) 0.0868(3) 0.41965(17)
C20 C 0.2721(3) -0.0122(3) 0.42673(18)
H1 H 0.2270 -0.0473 0.3916
C21 C 0.2987(3) -0.0600(3) 0.48428(18)
H2 H 0.2698 -0.1263 0.4889
C22 C 0.3681(3) -0.0097(3) 0.53527(17)
C23 C 0.4097(3) 0.0873(3) 0.52887(18)
H3 H 0.4572 0.1211 0.5637
C24 C 0.3818(3) 0.1344(3) 0.47166(17)
H4 H 0.4114 0.2005 0.4674
C25 C 0.2648(3) 0.0819(3) 0.30208(17)
C26 C 0.3498(4) 0.0165(3) 0.29470(19)
H5 H 0.4161 0.0076 0.3277
C27 C 0.3387(4) -0.0362(3) 0.2394(2)
H6 H 0.3982 -0.0795 0.2344
C28 C 0.2414(4) -0.0258(3) 0.19164(18)
C29 C 0.1542(3) 0.0368(3) 0.19920(18)
H7 H 0.0863 0.0424 0.1669
C30 C 0.1658(3) 0.0910(3) 0.25354(18)
H8 H 0.1064 0.1348 0.2581
C31 C 0.2500(3) 0.2438(3) 0.36029(17)
C32 C 0.2744(3) 0.1413(3) 0.36022(17)
C33 C 0.3659(4) -0.1522(3) 0.6018(2)
H9 H 0.3962 -0.1727 0.6452
H10 H 0.3934 -0.1996 0.5749
H11 H 0.2828 -0.1542 0.5912
C34 C 0.2278(4) -0.0835(3) 0.1323(2)
C35 C 0.1736(7) 0.7312(7) 0.2608(4)
H12 H 0.1792 0.8031 0.2479
H13 H 0.1259 0.6935 0.2249
Cl1 Cl 0.3088(2) 0.67713(19) 0.28076(11)
Cl2 Cl 0.10801(17) 0.72893(19) 0.32067(9)
loop_
_geom_bond_atom_site_label_1
_geom_bond_atom_site_label_2
_geom_bond_site_symmetry_1
_geom_bond_site_symmetry_2
O1 C22 1_555 1_555
B1 C1 1_555 1_555
F1 C2 1_555 1_555
F2 C3 1_555 1_555
F3 C4 1_555 1_555
F4 C5 1_555 1_555
F5 C6 1_555 1_555
F6 C8 1_555 1_555
F7 C9 1_555 1_555
F8 C10 1_555 1_555
F9 C11 1_555 1_555
F10 C12 1_555 1_555
F11 C14 1_555 1_555
F12 C15 1_555 1_555
F13 C16 1_555 1_555
F14 C17 1_555 1_555
F15 C18 1_555 1_555
F16 C34 1_555 1_555
F17 C34 1_555 1_555
F18 C34 1_555 1_555
C1 C2 1_555 1_555
C2 C3 1_555 1_555
C3 C4 1_555 1_555
C4 C5 1_555 1_555
C5 C6 1_555 1_555
C6 C1 1_555 1_555
C7 B1 1_555 1_555
C8 C7 1_555 1_555
C9 C8 1_555 1_555
C10 C9 1_555 1_555
C11 C10 1_555 1_555
C12 C7 1_555 1_555
C13 C14 1_555 1_555
C14 C15 1_555 1_555
C15 C16 1_555 1_555
C16 C17 1_555 1_555
C17 C18 1_555 1_555
C18 C13 1_555 1_555
C19 C20 1_555 1_555
C20 H1 1_555 1_555
C21 C20 1_555 1_555
H2 C21 1_555 1_555
C22 C21 1_555 1_555
C23 C22 1_555 1_555
H3 C23 1_555 1_555
C24 C19 1_555 1_555
H4 C24 1_555 1_555
C25 C26 1_555 1_555
C26 H5 1_555 1_555
C27 C26 1_555 1_555
H6 C27 1_555 1_555
C28 C27 1_555 1_555
C29 C28 1_555 1_555
H7 C29 1_555 1_555
C30 C25 1_555 1_555
H8 C30 1_555 1_555
C31 B1 1_555 1_555
C32 C19 1_555 1_555
C33 O1 1_555 1_555
H9 C33 1_555 1_555
H10 C33 1_555 1_555
H11 C33 1_555 1_555
C34 C28 1_555 1_555
C35 H12 1_555 1_555
H13 C35 1_555 1_555
Cl1 C35 1_555 1_555
Cl2 C35 1_555 1_555
C11 C12 1_555 1_555
C13 C31 1_555 1_555
C23 C24 1_555 1_555
C25 C32 1_555 1_555
C29 C30 1_555 1_555
C31 C32 1_555 1_555

#END
