
#######################################################################
#
#                 Cambridge Crystallographic Data Centre
#                                CCDC 
#
#######################################################################
#
# If this CIF has been generated from an entry in the Cambridge 
# Structural Database, then it will include bibliographic, chemical, 
# crystal, experimental, refinement or atomic coordinate data resulting 
# from the CCDC's data processing and validation procedures.
#
#######################################################################

data_ZEFFEX02
_chemical_name_common            'bis(N,N-Dimethylurea) oxalic acid'
_chemical_formula_moiety         '2(C3 H8 N2 O1),C2 H2 O4'
_chemical_name_systematic        'bis(N,N-Dimethylurea) ethanedioic acid'
_symmetry_cell_setting           monoclinic
_symmetry_space_group_name_H-M   'P 21/c'
_symmetry_Int_Tables_number      14
_space_group_name_Hall           '-P 2ybc'
loop_
_symmetry_equiv_pos_site_id
_symmetry_equiv_pos_as_xyz
1 x,y,z
2 -x,1/2+y,1/2-z
3 -x,-y,-z
4 x,1/2-y,1/2+z
_cell_length_a                   7.770(5)
_cell_length_b                   6.440(5)
_cell_length_c                   13.600(5)
_cell_angle_alpha                90
_cell_angle_beta                 111.140(10)
_cell_angle_gamma                90
_cell_volume                     634.73
_exptl_crystal_colour            colorless
_exptl_crystal_description       prism
_cell_formula_units_Z            2
loop_
_atom_site_label
_atom_site_type_symbol
_atom_site_fract_x
_atom_site_fract_y
_atom_site_fract_z
O1 O 0.5002(3) 0.2552(3) 0.3807(2)
N1 N 0.34711(18) 0.5576(2) 0.33990(13)
N2 N 0.66714(17) 0.55395(19) 0.41247(13)
C1 C 0.5065(2) 0.4537(2) 0.37850(17)
C2 C 0.3420(3) 0.7827(3) 0.3351(2)
H1 H 0.3833(18) 0.8514(10) 0.4079(8)
H2 H 0.2135(11) 0.8321(10) 0.2886(12)
H3 H 0.4373(12) 0.8416(9) 0.3021(7)
C3 C 0.1716(3) 0.4446(4) 0.3048(3)
H4 H 0.1145(17) 0.447(3) 0.2337(8)
H5 H 0.0895(13) 0.5025(15) 0.3409(11)
H6 H 0.1855(11) 0.3038(15) 0.3319(13)
H7 H 0.7849(6) 0.4691(6) 0.4447(5)
H8 H 0.6792(6) 0.7093(6) 0.4170(4)
O2 O 0.7599(3) 0.0165(3) 0.4367(3)
O3 O 0.9671(4) 0.2652(3) 0.5014(3)
C4 C 0.9249(2) 0.0853(2) 0.48320(18)
H9 H 0.6407(6) 0.1488(6) 0.4106(4)
O2B O 1.2401(3) -0.0165(3) 0.5633(3)
O3B O 1.0329(4) -0.2652(3) 0.4986(3)
C4B C 1.0751(2) -0.0853(2) 0.51680(18)
H9B H 1.3593(6) -0.1488(6) 0.5894(4)
loop_
_geom_bond_atom_site_label_1
_geom_bond_atom_site_label_2
_geom_bond_site_symmetry_1
_geom_bond_site_symmetry_2
O1 C1 1_555 1_555
O2 C4 1_555 1_555
O3 C4 1_555 1_555
N1 C1 1_555 1_555
N2 C1 1_555 1_555
C2 N1 1_555 1_555
H1 C2 1_555 1_555
H2 C2 1_555 1_555
H3 C2 1_555 1_555
C3 N1 1_555 1_555
H4 C3 1_555 1_555
H5 C3 1_555 1_555
H6 C3 1_555 1_555
C4 C4B 1_555 1_555
H7 N2 1_555 1_555
H8 N2 1_555 1_555
H9 O2 1_555 1_555
O2B C4B 1_555 1_555
O3B C4B 1_555 1_555
H9B O2B 1_555 1_555

#END
