
#######################################################################
#
#                 Cambridge Crystallographic Data Centre
#                                CCDC 
#
#######################################################################
#
# If this CIF has been generated from an entry in the Cambridge 
# Structural Database, then it will include bibliographic, chemical, 
# crystal, experimental, refinement or atomic coordinate data resulting 
# from the CCDC's data processing and validation procedures.
#
#######################################################################

data_ZEFFEX08
_chemical_name_common            'bis(N,N-Dimethylurea) oxalic acid'
_chemical_formula_moiety         '2(C3 H8 N2 O1),C2 H2 O4'
_chemical_name_systematic        'bis(N,N-Dimethylurea) ethanedioic acid'
_symmetry_cell_setting           monoclinic
_symmetry_space_group_name_H-M   'P 21/c'
_symmetry_Int_Tables_number      14
_space_group_name_Hall           '-P 2ybc'
loop_
_symmetry_equiv_pos_site_id
_symmetry_equiv_pos_as_xyz
1 x,y,z
2 -x,1/2+y,1/2-z
3 -x,-y,-z
4 x,1/2-y,1/2+z
_cell_length_a                   7.8936(4)
_cell_length_b                   6.4695(3)
_cell_length_c                   13.8871(7)
_cell_angle_alpha                90
_cell_angle_beta                 112.474(3)
_cell_angle_gamma                90
_cell_volume                     655.321
_exptl_crystal_colour            colorless
_exptl_crystal_description       prism
_cell_formula_units_Z            2
loop_
_atom_site_label
_atom_site_type_symbol
_atom_site_fract_x
_atom_site_fract_y
_atom_site_fract_z
O1 O 0.50295(18) 0.25554(19) 0.37984(11)
N1 N 0.34960(19) 0.5545(2) 0.34051(12)
N2 N 0.6666(2) 0.5530(3) 0.41198(13)
C1 C 0.5078(2) 0.4513(3) 0.37785(12)
C2 C 0.3419(3) 0.7783(3) 0.33571(18)
H1 H 0.3777 0.8334 0.4049
H2 H 0.2191 0.8215 0.2944
H3 H 0.4238 0.8283 0.3046
C3 C 0.1773(3) 0.4411(4) 0.3044(2)
H4 H 0.1820 0.3314 0.2590
H5 H 0.0784 0.5332 0.2674
H6 H 0.1579 0.3840 0.3632
H7 H 0.762(3) 0.468(4) 0.4422(15)
H8 H 0.669(3) 0.687(3) 0.4149(16)
O2 O 0.76191(16) 0.0170(2) 0.43841(12)
O3 O 0.9674(2) 0.2628(2) 0.49836(19)
C4 C 0.9253(2) 0.0847(2) 0.48250(14)
H9 H 0.657(5) 0.147(5) 0.412(2)
O2B O 1.23809(16) -0.0170(2) 0.56159(12)
O3B O 1.0326(2) -0.2628(2) 0.50164(19)
C4B C 1.0747(2) -0.0847(2) 0.51750(14)
H9B H 1.343(5) -0.147(5) 0.588(2)
loop_
_geom_bond_atom_site_label_1
_geom_bond_atom_site_label_2
_geom_bond_site_symmetry_1
_geom_bond_site_symmetry_2
O1 C1 1_555 1_555
O2 C4 1_555 1_555
O3 C4 1_555 1_555
N1 C1 1_555 1_555
N2 C1 1_555 1_555
C2 N1 1_555 1_555
H1 C2 1_555 1_555
H2 C2 1_555 1_555
H3 C2 1_555 1_555
C3 N1 1_555 1_555
H4 C3 1_555 1_555
H5 C3 1_555 1_555
H6 C3 1_555 1_555
C4 C4B 1_555 1_555
H7 N2 1_555 1_555
H8 N2 1_555 1_555
H9 O2 1_555 1_555
O2B C4B 1_555 1_555
O3B C4B 1_555 1_555
H9B O2B 1_555 1_555

#END
