
#######################################################################
#
#                 Cambridge Crystallographic Data Centre
#                                CCDC 
#
#######################################################################
#
# If this CIF has been generated from an entry in the Cambridge 
# Structural Database, then it will include bibliographic, chemical, 
# crystal, experimental, refinement or atomic coordinate data resulting 
# from the CCDC's data processing and validation procedures.
#
#######################################################################

data_ZEFFEX
_chemical_name_common            'bis(N,N-Dimethylurea) oxalic acid'
_chemical_formula_moiety         'C3 H9 N2 O1 1+,C3 H8 N2 O1,C2 H1 O4 1-'
_chemical_name_systematic        'bis(N,N-Dimethylurea) ethanedioic acid'
_symmetry_cell_setting           monoclinic
_symmetry_space_group_name_H-M   'P 21/c'
_symmetry_Int_Tables_number      14
_space_group_name_Hall           '-P 2ybc'
loop_
_symmetry_equiv_pos_site_id
_symmetry_equiv_pos_as_xyz
1 x,y,z
2 -x,1/2+y,1/2-z
3 -x,-y,-z
4 x,1/2-y,1/2+z
_cell_length_a                   14.992(2)
_cell_length_b                   6.4333(7)
_cell_length_c                   13.610(2)
_cell_angle_alpha                90
_cell_angle_beta                 107.306(12)
_cell_angle_gamma                90
_cell_volume                     1253.23
_exptl_crystal_colour            colorless
_exptl_crystal_description       prism
_cell_formula_units_Z            4
loop_
_atom_site_label
_atom_site_type_symbol
_atom_site_fract_x
_atom_site_fract_y
_atom_site_fract_z
O1 O 0.48080(7) 0.23914(15) 0.37132(8)
N1 N 0.56703(9) -0.0589(2) 0.39715(10)
N2 N 0.40500(8) -0.06629(19) 0.34393(10)
C1 C 0.48534(10) 0.0396(2) 0.37111(10)
C2 C 0.40442(12) -0.2926(2) 0.34167(14)
C3 C 0.31603(11) 0.0451(3) 0.31512(15)
H2 H 0.6198(14) 0.019(3) 0.4180(14)
H4 H 0.4317(14) -0.347(3) 0.2904(15)
H6 H 0.5686(14) -0.200(3) 0.3967(14)
H8 H 0.317(2) 0.151(5) 0.274(3)
H9 H 0.4382(14) -0.350(3) 0.4063(15)
H12 H 0.293(2) 0.068(5) 0.369(3)
H13 H 0.268(2) -0.045(5) 0.271(3)
H15 H 0.3402(18) -0.344(3) 0.3223(18)
H17 H 0.5490(18) 0.343(4) 0.3915(19)
O2 O 0.98321(7) 0.75111(15) 0.60451(8)
N3 N 1.05724(8) 1.05468(19) 0.65519(9)
N4 N 0.89767(9) 1.0495(2) 0.57324(10)
C4 C 0.97897(10) 0.9489(2) 0.61005(10)
C5 C 1.05707(11) 1.2809(2) 0.66369(13)
C6 C 1.14635(11) 0.9461(3) 0.69471(13)
H1 H 0.8957(13) 1.187(3) 0.5694(14)
H3 H 1.1958(14) 1.011(3) 0.6711(15)
H5 H 0.8471(14) 0.970(3) 0.5362(14)
H7 H 1.0067(13) 1.327(3) 0.6902(13)
H10 H 1.0524(14) 1.343(3) 0.5990(15)
H11 H 1.1162(16) 1.326(3) 0.7114(16)
H14 H 1.1665(15) 0.953(3) 0.7698(18)
H16 H 1.1369(19) 0.807(4) 0.671(2)
O3 O 0.61303(7) 0.47901(16) 0.41178(8)
O4 O 0.71833(8) 0.22795(16) 0.46794(11)
O5 O 0.85156(7) 0.51271(16) 0.54501(8)
O6 O 0.75460(8) 0.75993(16) 0.45950(9)
C7 C 0.77198(10) 0.5805(2) 0.48746(11)
C8 C 0.69567(10) 0.4098(2) 0.45340(11)
H18 H 0.9084(18) 0.645(4) 0.5689(18)
loop_
_geom_bond_atom_site_label_1
_geom_bond_atom_site_label_2
_geom_bond_site_symmetry_1
_geom_bond_site_symmetry_2
O1 C1 1_555 1_555
N1 C1 1_555 1_555
N2 C1 1_555 1_555
C2 N2 1_555 1_555
C3 N2 1_555 1_555
O2 C4 1_555 1_555
N3 C4 1_555 1_555
N4 C4 1_555 1_555
C5 N3 1_555 1_555
C6 N3 1_555 1_555
O3 C8 1_555 1_555
O4 C8 1_555 1_555
O5 C7 1_555 1_555
O6 C7 1_555 1_555
C7 C8 1_555 1_555
H1 N4 1_555 1_555
H2 N1 1_555 1_555
H3 C6 1_555 1_555
H4 C2 1_555 1_555
H5 N4 1_555 1_555
H6 N1 1_555 1_555
H7 C5 1_555 1_555
H8 C3 1_555 1_555
H9 C2 1_555 1_555
H10 C5 1_555 1_555
H11 C5 1_555 1_555
H12 C3 1_555 1_555
H13 C3 1_555 1_555
H14 C6 1_555 1_555
H15 C2 1_555 1_555
H16 C6 1_555 1_555
H17 O1 1_555 1_555
H18 O5 1_555 1_555

#END
