
#######################################################################
#
#                 Cambridge Crystallographic Data Centre
#                                CCDC 
#
#######################################################################
#
# If this CIF has been generated from an entry in the Cambridge 
# Structural Database, then it will include bibliographic, chemical, 
# crystal, experimental, refinement or atomic coordinate data resulting 
# from the CCDC's data processing and validation procedures.
#
#######################################################################

data_ZEFFEX04
_chemical_name_common            'bis(N,N-Dimethylurea) oxalic acid'
_chemical_formula_moiety         '2(C3 H8 N2 O1),C2 H2 O4'
_chemical_name_systematic        'bis(N,N-Dimethylurea) ethanedioic acid'
_symmetry_cell_setting           monoclinic
_symmetry_space_group_name_H-M   'P 21/c'
_symmetry_Int_Tables_number      14
_space_group_name_Hall           '-P 2ybc'
loop_
_symmetry_equiv_pos_site_id
_symmetry_equiv_pos_as_xyz
1 x,y,z
2 -x,1/2+y,1/2-z
3 -x,-y,-z
4 x,1/2-y,1/2+z
_cell_length_a                   7.790(5)
_cell_length_b                   6.450(5)
_cell_length_c                   13.660(5)
_cell_angle_alpha                90
_cell_angle_beta                 111.410(10)
_cell_angle_gamma                90
_cell_volume                     638.99
_exptl_crystal_colour            colorless
_exptl_crystal_description       prism
_cell_formula_units_Z            2
loop_
_atom_site_label
_atom_site_type_symbol
_atom_site_fract_x
_atom_site_fract_y
_atom_site_fract_z
O1 O 0.5008(3) 0.2551(3) 0.3802(3)
N1 N 0.34768(19) 0.5567(2) 0.34003(15)
N2 N 0.66678(19) 0.5539(2) 0.41237(15)
C1 C 0.5066(2) 0.4529(3) 0.37821(19)
C2 C 0.3411(3) 0.7818(4) 0.3351(3)
H1 H 0.3874(19) 0.8501(12) 0.4081(8)
H2 H 0.2133(12) 0.8321(12) 0.2910(13)
H3 H 0.4343(14) 0.8421(10) 0.3034(8)
C3 C 0.1721(4) 0.4440(4) 0.3051(3)
H4 H 0.1048(18) 0.460(3) 0.2334(9)
H5 H 0.0951(14) 0.489(2) 0.3425(12)
H6 H 0.1888(12) 0.2996(16) 0.3239(18)
H7 H 0.7852(6) 0.4705(7) 0.4438(5)
H8 H 0.6790(6) 0.7091(7) 0.4173(4)
O2 O 0.7602(3) 0.0162(3) 0.4372(3)
O3 O 0.9676(4) 0.2654(4) 0.5007(3)
C4 C 0.9246(3) 0.0853(3) 0.4828(2)
H9 H 0.6421(6) 0.1491(7) 0.4108(5)
O2B O 1.2398(3) -0.0162(3) 0.5628(3)
O3B O 1.0324(4) -0.2654(4) 0.4993(3)
C4B C 1.0754(3) -0.0853(3) 0.5172(2)
H9B H 1.3579(6) -0.1491(7) 0.5892(5)
loop_
_geom_bond_atom_site_label_1
_geom_bond_atom_site_label_2
_geom_bond_site_symmetry_1
_geom_bond_site_symmetry_2
O1 C1 1_555 1_555
O2 C4 1_555 1_555
O3 C4 1_555 1_555
N1 C1 1_555 1_555
N2 C1 1_555 1_555
C2 N1 1_555 1_555
H1 C2 1_555 1_555
H2 C2 1_555 1_555
H3 C2 1_555 1_555
C3 N1 1_555 1_555
H4 C3 1_555 1_555
H5 C3 1_555 1_555
H6 C3 1_555 1_555
C4 C4B 1_555 1_555
H7 N2 1_555 1_555
H8 N2 1_555 1_555
H9 O2 1_555 1_555
O2B C4B 1_555 1_555
O3B C4B 1_555 1_555
H9B O2B 1_555 1_555

#END
