
#######################################################################
#
#                 Cambridge Crystallographic Data Centre
#                                CCDC 
#
#######################################################################
#
# If this CIF has been generated from an entry in the Cambridge 
# Structural Database, then it will include bibliographic, chemical, 
# crystal, experimental, refinement or atomic coordinate data resulting 
# from the CCDC's data processing and validation procedures.
#
#######################################################################

data_ZEFMII01
_chemical_formula_moiety         'C43 H51 N3 O11,0.5(H2 O1)'
_chemical_name_systematic        'Rifaximin alpha hemihydrate'
_chemical_properties_biological  
'broad spectrum locally acting antibiotic against Gram-positive and Gram-negative, aerobic and anaerobic organisms'
_symmetry_cell_setting           monoclinic
_symmetry_space_group_name_H-M   'P 21'
_symmetry_Int_Tables_number      4
_space_group_name_Hall           'P 2yb'
loop_
_symmetry_equiv_pos_site_id
_symmetry_equiv_pos_as_xyz
1 x,y,z
2 -x,1/2+y,-z
_cell_length_a                   14.579(4)
_cell_length_b                   20.232(4)
_cell_length_c                   16.329(4)
_cell_angle_alpha                90
_cell_angle_beta                 111.23(3)
_cell_angle_gamma                90
_cell_volume                     4489.57
_cell_formula_units_Z            4
loop_
_atom_site_label
_atom_site_type_symbol
_atom_site_fract_x
_atom_site_fract_y
_atom_site_fract_z
C1 C 0.2169(10) 0.6274(7) 0.8810(8)
C2 C 0.1172(9) 0.6065(6) 0.8439(7)
C3 C 0.0426(10) 0.6401(7) 0.8537(8)
C4 C 0.0664(11) 0.6985(7) 0.9041(9)
C5 C 0.1649(8) 0.7214(8) 0.9408(8)
C6 C 0.2443(10) 0.6870(7) 0.9303(9)
C7 C 0.3460(9) 0.6999(7) 0.9739(9)
C8 C 0.4147(11) 0.6615(7) 0.9589(10)
C9 C 0.3919(11) 0.6047(8) 0.9086(11)
C10 C 0.2965(11) 0.5884(8) 0.8691(10)
C11 C -0.2072(11) 0.5698(8) 1.0578(10)
C12 C -0.0490(9) 0.5795(7) 1.1918(10)
H1 H -0.0565 0.6274 1.1952
C13 C -0.0875(9) 0.7455(8) 0.9204(10)
H2 H -0.1294 0.7106 0.8945
C14 C -0.1253(12) 0.8010(8) 0.9487(10)
H3 H -0.1916 0.8023 0.9412
C15 C -0.0649(11) 0.8540(7) 0.9877(13)
C16 C 0.0361(12) 0.8518(8) 1.0036(10)
H4 H 0.0775 0.8859 1.0336
C17 C 0.0725(10) 0.7982(8) 0.9737(10)
C18 C 0.3948(10) 0.7517(9) 1.0325(9)
C19 C 0.5114(11) 0.7424(8) 1.0561(9)
C20 C -0.1344(9) 0.6347(9) 0.7631(10)
C21 C -0.2254(11) 0.5918(9) 0.7484(10)
C22 C -0.2588(10) 0.5644(7) 0.8028(9)
H5 H -0.2594 0.5171 0.793
C23 C -0.2489(10) 0.5565(8) 0.9603(11)
H6 H -0.256 0.5089 0.9545
C24 C -0.0947(10) 0.5607(6) 1.0968(10)
H7 H -0.0654 0.588 1.0632
C25 C 0.0621(9) 0.5647(7) 1.2283(10)
H8 H 0.0876 0.5809 1.289
C26 C 0.1238(10) 0.5976(7) 1.1809(10)
H9 H 0.1048 0.5769 1.1228
C27 C 0.2344(10) 0.5845(7) 1.2282(9)
H10 H 0.244 0.5375 1.2433
C28 C 0.2986(11) 0.6035(8) 1.1725(10)
C29 C 0.4095(9) 0.6065(7) 1.2293(10)
H11 H 0.4177 0.6353 1.2798
C30 C 0.4674(10) 0.6372(9) 1.1761(10)
H12 H 0.4772 0.6132 1.1314
C31 C 0.5023(10) 0.6968(8) 1.1943(11)
H13 H 0.4931 0.7201 1.2397
C32 C 0.4796(11) 0.5595(8) 0.9047(13)
H14 H 0.5413 0.5778 0.9421
H15 H 0.4778 0.5576 0.8454
H16 H 0.4726 0.5157 0.9243
C33 C -0.1114(12) 0.9156(8) 1.0076(11)
H17 H -0.1803 0.9081 0.9941
H18 H -0.103 0.9516 0.9725
H19 H -0.0805 0.9265 1.0687
C34 C 0.5648(10) 0.7968(9) 1.0349(10)
H20 H 0.5634 0.8347 1.0698
H21 H 0.5342 0.8077 0.9737
H22 H 0.6317 0.7838 1.0471
C35 C -0.2828(14) 0.5840(12) 0.6424(11)
H23 H -0.2464 0.6064 0.6122
H24 H -0.3473 0.6031 0.6259
H25 H -0.2885 0.538 0.627
C36 C -0.2344(10) 0.6367(8) 1.0665(10)
H26 H -0.211 0.6486 1.1275
H27 H -0.3047 0.6408 1.0421
H28 H -0.2056 0.6655 1.0356
C37 C -0.0924(11) 0.5495(7) 1.2504(9)
H29 H -0.0613 0.567 1.3086
H30 H -0.0829 0.5025 1.2517
H31 H -0.1615 0.5591 1.2297
C38 C 0.1034(11) 0.6731(7) 1.1653(11)
H32 H 0.0344 0.6801 1.1338
H33 H 0.14 0.6902 1.1316
H34 H 0.1231 0.6955 1.2208
C39 C 0.3039(17) 0.5942(14) 1.3897(14)
C40 C 0.3426(16) 0.6483(11) 1.4613(12)
H35 H 0.34 0.6905 1.4337
H36 H 0.4093 0.6385 1.4978
H37 H 0.3024 0.6493 1.4966
C41 C 0.2785(10) 0.5556(7) 1.0968(10)
H38 H 0.3204 0.5658 1.0648
H39 H 0.2109 0.5593 1.0584
H40 H 0.2913 0.5113 1.1192
C42 C 0.5400(14) 0.5409(11) 1.3254(13)
H41 H 0.5603 0.4966 1.3448
H42 H 0.5427 0.5676 1.3748
H43 H 0.583 0.5591 1.2985
N1 N 0.0115(9) 0.7412(6) 0.9299(7)
N2 N 0.1669(8) 0.7802(5) 0.9842(8)
N3 N -0.0548(8) 0.6061(6) 0.8249(7)
H44 H -0.0606 0.5686 0.8473
O1 O 0.5111(6) 0.6806(6) 1.0086(8)
O2 O 0.2716(7) 0.5350(5) 0.8162(8)
H45 H 0.2115 0.5321 0.7943
O3 O 0.0982(7) 0.5491(5) 0.7964(7)
O4 O 0.3676(7) 0.7995(6) 1.0609(7)
O5 O -0.1377(7) 0.6911(6) 0.7392(7)
O6 O -0.0772(7) 0.4922(5) 1.0828(7)
O7 O 0.0838(6) 0.4962(5) 1.2319(7)
O8 O 0.2682(7) 0.6235(5) 1.3099(8)
O9 O 0.4403(8) 0.5398(5) 1.2622(9)
O10 O 0.5537(7) 0.7261(6) 1.1458(7)
O11 O 0.2994(11) 0.5361(9) 1.3963(8)
C43 C -0.2097(11) 0.5756(7) 0.9003(12)
H46 H -0.149 0.5969 0.9205
C44 C -0.0402(11) 0.6562(10) 0.6002(9)
H47 H -0.0883 0.6807 0.6116
C45 C 0.1047(11) 0.5787(7) 0.5740(8)
H48 H 0.1539 0.5536 0.5654
C46 C 0.1281(10) 0.6403(6) 0.6229(7)
C47 C 0.0055(10) 0.5580(7) 0.5398(9)
C48 C -0.0671(10) 0.6013(7) 0.5507(9)
H49 H -0.1335 0.5914 0.5231
C49 C 0.2033(10) 0.7271(5) 0.7037(9)
C50 C 0.1009(8) 0.7336(6) 0.6854(7)
C51 C 0.0687(9) 0.7876(6) 0.7214(8)
C52 C 0.1334(9) 0.8339(6) 0.7706(9)
C53 C 0.2415(9) 0.8264(7) 0.7860(8)
C54 C 0.2772(10) 0.7711(7) 0.7497(8)
C55 C 0.3720(8) 0.7710(6) 0.7618(9)
C56 C 0.4360(8) 0.8248(6) 0.8063(8)
C57 C 0.4088(9) 0.8767(7) 0.8400(7)
C58 C 0.3086(10) 0.8826(7) 0.8307(8)
C59 C 0.4291(10) 0.7261(8) 0.7303(8)
C60 C 0.5376(9) 0.7517(7) 0.7653(9)
C61 C -0.0868(8) 0.8504(7) 0.6642(10)
C62 C -0.1937(10) 0.8479(7) 0.6475(11)
C63 C -0.2513(11) 0.8298(7) 0.5628(13)
H50 H -0.2983 0.8654 0.5406
C64 C -0.2186(9) 0.8136(7) 0.4931(11)
H51 H -0.151 0.8142 0.5064
C65 C -0.2734(11) 0.7979(8) 0.4118(14)
H52 H -0.3192 0.8342 0.3902
C66 C -0.2352(10) 0.7805(7) 0.3345(11)
C67 C -0.1348(9) 0.8112(8) 0.3500(10)
H53 H -0.0896 0.797 0.4079
C68 C -0.0842(10) 0.8007(9) 0.2845(11)
H54 H -0.0739 0.7528 0.2845
C69 C 0.0160(10) 0.8295(7) 0.3077(9)
H55 H 0.0433 0.8134 0.2647
C70 C 0.0944(12) 0.8144(8) 0.4031(10)
H56 H 0.0713 0.8346 0.4467
C71 C 0.1956(10) 0.8439(7) 0.4146(10)
H57 H 0.1872 0.8901 0.3954
C72 C 0.2679(8) 0.8406(8) 0.5094(9)
H58 H 0.2668 0.7958 0.5319
C73 C 0.3720(10) 0.8549(7) 0.5103(9)
H59 H 0.3845 0.8274 0.466
C74 C 0.4505(10) 0.8389(7) 0.6035(10)
H60 H 0.4564 0.8666 0.6505
C75 C 0.5078(9) 0.7871(7) 0.6158(9)
H61 H 0.5073 0.7666 0.5647
C76 C 0.4792(10) 0.9330(7) 0.8807(10)
H62 H 0.4463 0.9659 0.9024
H63 H 0.5009 0.9524 0.8372
H64 H 0.535 0.9165 0.9284
C77 C -0.0224(12) 0.4965(8) 0.4996(10)
H65 H 0.0349 0.473 0.4998
H66 H -0.0667 0.5027 0.4401
H67 H -0.0547 0.4714 0.5312
C78 C 0.6065(9) 0.7081(8) 0.8314(10)
H68 H 0.5847 0.7026 0.8798
H69 H 0.6709 0.7275 0.852
H70 H 0.6087 0.6659 0.8055
C79 C -0.2298(10) 0.8648(8) 0.7182(10)
H71 H -0.175 0.8748 0.7709
H72 H -0.2656 0.8279 0.7288
H73 H -0.2724 0.9025 0.7011
C80 C -0.2285(13) 0.7042(9) 0.3264(13)
H74 H -0.2024 0.6939 0.2817
H75 H -0.2929 0.6852 0.311
H76 H -0.186 0.6863 0.3816
C81 C -0.1500(11) 0.8165(9) 0.1916(11)
H77 H -0.1168 0.8057 0.1522
H78 H -0.1657 0.8628 0.187
H79 H -0.2096 0.7912 0.1764
C82 C 0.0990(11) 0.7358(8) 0.4172(12)
H80 H 0.0352 0.7198 0.4122
H81 H 0.1458 0.7254 0.4745
H82 H 0.1188 0.7151 0.3733
C83 C 0.2580(14) 0.8370(9) 0.2966(12)
C84 C 0.3135(15) 0.7986(10) 0.2548(14)
H83 H 0.3187 0.7537 0.2748
H84 H 0.3782 0.8171 0.2698
H85 H 0.2802 0.7998 0.1922
C85 C 0.2406(11) 0.8872(8) 0.5647(11)
H86 H 0.2875 0.8847 0.6237
H87 H 0.1763 0.8764 0.5643
H88 H 0.24 0.9312 0.5425
C86 C 0.46597(19) 0.93832(13) 0.46779(18)
H89 H 0.4665 0.9848 0.456
H90 H 0.4629 0.9137 0.4166
H91 H 0.5249 0.9268 0.516
N4 N 0.05965(19) 0.67831(13) 0.63577(18)
N5 N 0.21887(19) 0.66882(13) 0.66445(18)
N6 N -0.03749(19) 0.79704(13) 0.70147(18)
H92 H -0.0693 0.7657 0.715
O12 O 0.53205(19) 0.81763(13) 0.80249(18)
O13 O 0.27636(19) 0.92424(13) 0.87051(18)
H93 H 0.218 0.917 0.8605
O14 O 0.10751(19) 0.88140(13) 0.81471(18)
O15 O 0.37912(19) 0.92241(13) 0.49066(18)
O16 O 0.41077(19) 0.66970(13) 0.69201(18)
O17 O -0.05127(19) 0.90097(13) 0.64638(18)
O18 O -0.14685(19) 0.88345(13) 0.35231(18)
O19 O 0.00709(19) 0.89886(13) 0.29884(18)
O20 O 0.23244(19) 0.80714(13) 0.35893(18)
O21 O 0.56826(19) 0.75864(13) 0.69200(18)
O22 O 0.24339(19) 0.89555(13) 0.27927(18)
O23 O -0.06744(19) 0.46731(13) 0.82327(18)
H94? H -0.3269 0.5781 0.7865
H95? H -0.3151 0.5743 0.9397
H96? H -0.289 0.7919 0.569
H97? H -0.3124 0.7602 0.4164
loop_
_geom_bond_atom_site_label_1
_geom_bond_atom_site_label_2
_geom_bond_site_symmetry_1
_geom_bond_site_symmetry_2
C1 C2 1_555 1_555
C2 C3 1_555 1_555
C3 C4 1_555 1_555
C4 C5 1_555 1_555
C5 C6 1_555 1_555
C6 C1 1_555 1_555
C7 C6 1_555 1_555
C8 C7 1_555 1_555
C9 C8 1_555 1_555
C10 C1 1_555 1_555
C11 C23 1_555 1_555
C12 H1 1_555 1_555
C13 H2 1_555 1_555
C14 C13 1_555 1_555
H3 C14 1_555 1_555
C15 C14 1_555 1_555
C16 C15 1_555 1_555
H4 C16 1_555 1_555
C17 C16 1_555 1_555
C18 C7 1_555 1_555
C19 C18 1_555 1_555
C20 C21 1_555 1_555
C21 C22 1_555 1_555
C22 H5 1_555 1_555
C23 H6 1_555 1_555
C24 C11 1_555 1_555
H7 C24 1_555 1_555
C25 C12 1_555 1_555
H8 C25 1_555 1_555
C26 C25 1_555 1_555
H9 C26 1_555 1_555
C27 C26 1_555 1_555
H10 C27 1_555 1_555
C28 C27 1_555 1_555
C29 C28 1_555 1_555
H11 C29 1_555 1_555
C30 C29 1_555 1_555
H12 C30 1_555 1_555
C31 C30 1_555 1_555
H13 C31 1_555 1_555
C32 C9 1_555 1_555
H14 C32 1_555 1_555
H15 C32 1_555 1_555
H16 C32 1_555 1_555
C33 C15 1_555 1_555
H17 C33 1_555 1_555
H18 C33 1_555 1_555
H19 C33 1_555 1_555
C34 C19 1_555 1_555
H20 C34 1_555 1_555
H21 C34 1_555 1_555
H22 C34 1_555 1_555
C35 C21 1_555 1_555
H23 C35 1_555 1_555
H24 C35 1_555 1_555
H25 C35 1_555 1_555
C36 C11 1_555 1_555
H26 C36 1_555 1_555
H27 C36 1_555 1_555
H28 C36 1_555 1_555
C37 C12 1_555 1_555
H29 C37 1_555 1_555
H30 C37 1_555 1_555
H31 C37 1_555 1_555
C38 C26 1_555 1_555
H32 C38 1_555 1_555
H33 C38 1_555 1_555
H34 C38 1_555 1_555
C39 C40 1_555 1_555
C40 H35 1_555 1_555
H36 C40 1_555 1_555
H37 C40 1_555 1_555
C41 C28 1_555 1_555
H38 C41 1_555 1_555
H39 C41 1_555 1_555
H40 C41 1_555 1_555
C42 H41 1_555 1_555
H42 C42 1_555 1_555
H43 C42 1_555 1_555
N1 C4 1_555 1_555
N2 C5 1_555 1_555
N3 C3 1_555 1_555
H44 N3 1_555 1_555
O1 C8 1_555 1_555
O2 C10 1_555 1_555
H45 O2 1_555 1_555
O3 C2 1_555 1_555
O4 C18 1_555 1_555
O5 C20 1_555 1_555
O6 C24 1_555 1_555
O7 C25 1_555 1_555
O8 C27 1_555 1_555
O9 C29 1_555 1_555
O10 C19 1_555 1_555
O11 C39 1_555 1_555
C43 C22 1_555 1_555
H46 C43 1_555 1_555
C44 H47 1_555 1_555
C45 H48 1_555 1_555
C46 C45 1_555 1_555
C47 C45 1_555 1_555
C48 C44 1_555 1_555
H49 C48 1_555 1_555
C49 C50 1_555 1_555
C50 C51 1_555 1_555
C51 C52 1_555 1_555
C52 C53 1_555 1_555
C53 C54 1_555 1_555
C54 C49 1_555 1_555
C55 C54 1_555 1_555
C56 C55 1_555 1_555
C57 C56 1_555 1_555
C58 C53 1_555 1_555
C59 C55 1_555 1_555
C60 C59 1_555 1_555
C61 C62 1_555 1_555
C62 C63 1_555 1_555
C63 H50 1_555 1_555
C64 C63 1_555 1_555
H51 C64 1_555 1_555
C65 C64 1_555 1_555
H52 C65 1_555 1_555
C66 C65 1_555 1_555
C67 C66 1_555 1_555
H53 C67 1_555 1_555
C68 C67 1_555 1_555
H54 C68 1_555 1_555
C69 C68 1_555 1_555
H55 C69 1_555 1_555
C70 C69 1_555 1_555
H56 C70 1_555 1_555
C71 C70 1_555 1_555
H57 C71 1_555 1_555
C72 C71 1_555 1_555
H58 C72 1_555 1_555
C73 C72 1_555 1_555
H59 C73 1_555 1_555
C74 C73 1_555 1_555
H60 C74 1_555 1_555
C75 C74 1_555 1_555
H61 C75 1_555 1_555
C76 C57 1_555 1_555
H62 C76 1_555 1_555
H63 C76 1_555 1_555
H64 C76 1_555 1_555
C77 C47 1_555 1_555
H65 C77 1_555 1_555
H66 C77 1_555 1_555
H67 C77 1_555 1_555
C78 C60 1_555 1_555
H68 C78 1_555 1_555
H69 C78 1_555 1_555
H70 C78 1_555 1_555
C79 C62 1_555 1_555
H71 C79 1_555 1_555
H72 C79 1_555 1_555
H73 C79 1_555 1_555
C80 C66 1_555 1_555
H74 C80 1_555 1_555
H75 C80 1_555 1_555
H76 C80 1_555 1_555
C81 C68 1_555 1_555
H77 C81 1_555 1_555
H78 C81 1_555 1_555
H79 C81 1_555 1_555
C82 C70 1_555 1_555
H80 C82 1_555 1_555
H81 C82 1_555 1_555
H82 C82 1_555 1_555
C83 C84 1_555 1_555
C84 H83 1_555 1_555
H84 C84 1_555 1_555
H85 C84 1_555 1_555
C85 C72 1_555 1_555
H86 C85 1_555 1_555
H87 C85 1_555 1_555
H88 C85 1_555 1_555
C86 H89 1_555 1_555
H90 C86 1_555 1_555
H91 C86 1_555 1_555
N4 C44 1_555 1_555
N5 C46 1_555 1_555
N6 C51 1_555 1_555
H92 N6 1_555 1_555
O12 C56 1_555 1_555
O13 C58 1_555 1_555
H93 O13 1_555 1_555
O14 C52 1_555 1_555
O15 C73 1_555 1_555
O16 C59 1_555 1_555
O17 C61 1_555 1_555
O18 C67 1_555 1_555
O19 C69 1_555 1_555
O20 C71 1_555 1_555
O21 C60 1_555 1_555
O22 C83 1_555 1_555
C9 C10 1_555 1_555
C12 C24 1_555 1_555
C13 N1 1_555 1_555
C17 N1 1_555 1_555
C17 N2 1_555 1_555
C19 O1 1_555 1_555
C20 N3 1_555 1_555
C23 C43 1_555 1_555
C31 O10 1_555 1_555
C39 O8 1_555 1_555
C42 O9 1_555 1_555
C46 N4 1_555 1_555
C47 C48 1_555 1_555
C49 N5 1_555 1_555
C50 N4 1_555 1_555
C57 C58 1_555 1_555
C60 O12 1_555 1_555
C61 N6 1_555 1_555
C75 O21 1_555 1_555
C83 O20 1_555 1_555
C86 O15 1_555 1_555

#END
