
#######################################################################
#
#                 Cambridge Crystallographic Data Centre
#                                CCDC 
#
#######################################################################
#
# If this CIF has been generated from an entry in the Cambridge 
# Structural Database, then it will include bibliographic, chemical, 
# crystal, experimental, refinement or atomic coordinate data resulting 
# from the CCDC's data processing and validation procedures.
#
#######################################################################

data_ZEFMIG
_chemical_formula_moiety         'C16 H15 N1 O2'
_chemical_name_systematic        
N-Phenyl-6,8-dimethyl-3-azabicyclo(3.2.2)nona-6,8-diene-2,4-dione
_symmetry_cell_setting           monoclinic
_symmetry_space_group_name_H-M   'P 21/a'
_symmetry_Int_Tables_number      14
_space_group_name_Hall           '-P 2yab'
loop_
_symmetry_equiv_pos_site_id
_symmetry_equiv_pos_as_xyz
1 x,y,z
2 1/2-x,1/2+y,-z
3 -x,-y,-z
4 1/2+x,1/2-y,z
_cell_length_a                   14.588(5)
_cell_length_b                   8.561(1)
_cell_length_c                   11.381(8)
_cell_angle_alpha                90
_cell_angle_beta                 104.87(6)
_cell_angle_gamma                90
_cell_volume                     1373.75
_exptl_crystal_colour            colorless
_chemical_melting_point          133.5-134.5deg.C
_cell_formula_units_Z            4
loop_
_atom_site_label
_atom_site_type_symbol
_atom_site_fract_x
_atom_site_fract_y
_atom_site_fract_z
O1 O 0.0255(1) 0.4806(2) 0.2835(2)
O2 O -0.2188(1) 0.8110(3) 0.2588(3)
N1 N -0.0962(1) 0.6491(2) 0.2642(2)
C1 C -0.0920(2) 0.9280(3) 0.1940(3)
C2 C -0.1418(2) 0.7952(3) 0.2414(3)
C3 C -0.0033(2) 0.6123(3) 0.2587(2)
C4 C 0.0564(2) 0.7369(3) 0.2213(3)
C5 C 0.0078(2) 0.7857(3) 0.0919(3)
C6 C -0.0650(2) 0.8789(4) 0.0810(3)
C7 C -0.0046(2) 0.9723(3) 0.2934(2)
C8 C 0.0670(2) 0.8768(3) 0.3045(3)
C9 C 0.0482(3) 0.7238(4) -0.0078(3)
C10 C -0.0081(3) 1.1129(3) 0.3679(3)
C11 C -0.1512(2) 0.5240(3) 0.2974(2)
C12 C -0.1500(2) 0.5006(3) 0.4173(3)
C13 C -0.2041(2) 0.3804(4) 0.4464(3)
C14 C -0.2567(2) 0.2864(3) 0.3575(3)
C15 C -0.2572(2) 0.3089(4) 0.2387(4)
C16 C -0.2052(2) 0.4298(3) 0.2068(3)
H1 H -0.135(2) 1.011(3) 0.179(2)
H2 H 0.115(2) 0.694(3) 0.221(2)
H3 H -0.103(2) 0.926(3) 0.003(2)
H4 H 0.123(2) 0.891(3) 0.366(2)
H5 H 0.008(2) 0.760(3) -0.085(2)
H6 H 0.119(2) 0.758(3) 0.004(2)
H7 H 0.053(2) 0.612(3) -0.006(2)
H8 H 0.058(2) 1.128(3) 0.444(2)
H9 H -0.016(2) 1.204(3) 0.320(2)
H10 H -0.059(2) 1.092(3) 0.401(2)
H11 H -0.113(2) 0.568(3) 0.478(2)
H12 H -0.201(2) 0.364(3) 0.524(2)
H13 H -0.295(2) 0.207(3) 0.376(2)
H14 H -0.293(2) 0.244(3) 0.167(2)
loop_
_geom_bond_atom_site_label_1
_geom_bond_atom_site_label_2
_geom_bond_site_symmetry_1
_geom_bond_site_symmetry_2
O1 C3 1_555 1_555
O2 C2 1_555 1_555
N1 C2 1_555 1_555
C1 C2 1_555 1_555
C3 N1 1_555 1_555
C4 C3 1_555 1_555
C5 C4 1_555 1_555
C6 C1 1_555 1_555
C7 C1 1_555 1_555
C8 C4 1_555 1_555
C9 C5 1_555 1_555
C10 C7 1_555 1_555
C11 N1 1_555 1_555
C12 C11 1_555 1_555
C13 C12 1_555 1_555
C14 C13 1_555 1_555
C15 C14 1_555 1_555
C16 C11 1_555 1_555
H1 C1 1_555 1_555
H2 C4 1_555 1_555
H3 C6 1_555 1_555
H4 C8 1_555 1_555
H5 C9 1_555 1_555
H6 C9 1_555 1_555
H7 C9 1_555 1_555
H8 C10 1_555 1_555
H9 C10 1_555 1_555
H10 C10 1_555 1_555
H11 C12 1_555 1_555
H12 C13 1_555 1_555
H13 C14 1_555 1_555
H14 C15 1_555 1_555
C5 C6 1_555 1_555
C7 C8 1_555 1_555
C15 C16 1_555 1_555

#END
