
#######################################################################
#
#                 Cambridge Crystallographic Data Centre
#                                CCDC 
#
#######################################################################
#
# If this CIF has been generated from an entry in the Cambridge 
# Structural Database, then it will include bibliographic, chemical, 
# crystal, experimental, refinement or atomic coordinate data resulting 
# from the CCDC's data processing and validation procedures.
#
#######################################################################

data_ZEFMUU
_chemical_name_common            Normix
_chemical_formula_moiety         'C43 H51 N3 O11'
_chemical_name_systematic        'Rifaximin \a'
_chemical_properties_biological  
'broad spectrum locally acting antibiotic against Gram-positive and Gram-negative, aerobic and anaerobic organisms'
_symmetry_cell_setting           monoclinic
_symmetry_space_group_name_H-M   'P 21'
_symmetry_Int_Tables_number      4
_space_group_name_Hall           'P 2yb'
loop_
_symmetry_equiv_pos_site_id
_symmetry_equiv_pos_as_xyz
1 x,y,z
2 -x,1/2+y,-z
_cell_length_a                   14.232(4)
_cell_length_b                   19.822(4)
_cell_length_c                   16.164(4)
_cell_angle_alpha                90
_cell_angle_beta                 108.74(3)
_cell_angle_gamma                90
_cell_volume                     4318.23
_cell_formula_units_Z            4
loop_
_atom_site_label
_atom_site_type_symbol
_atom_site_fract_x
_atom_site_fract_y
_atom_site_fract_z
C1 C 0.2347(9) 0.6240(7) 0.8869(7)
C2 C 0.1339(10) 0.6049(7) 0.8552(7)
C3 C 0.0577(9) 0.6399(6) 0.8713(7)
C4 C 0.0880(10) 0.7015(6) 0.9191(7)
C5 C 0.1836(9) 0.7210(7) 0.9493(7)
C6 C 0.2613(8) 0.6854(6) 0.9369(6)
C7 C 0.3622(10) 0.7010(7) 0.9696(7)
C8 C 0.4331(10) 0.6593(8) 0.9581(8)
C9 C 0.4094(12) 0.5981(7) 0.9050(8)
C10 C 0.3105(10) 0.5842(8) 0.8697(8)
C11 C -0.1931(9) 0.5660(6) 1.0745(7)
H1 H -0.2236 0.5374 1.1082
C12 C -0.0385(8) 0.5817(6) 1.2075(7)
H2 H -0.0502 0.6305 1.2065
C13 C -0.0659(10) 0.7574(7) 0.9364(6)
H3 H -0.1109 0.7241 0.9084
C14 C -0.0970(11) 0.8118(9) 0.9671(9)
H4 H -0.1636 0.8143 0.9630
C15 C -0.0349(15) 0.8656(8) 1.0054(8)
C16 C 0.0645(12) 0.8602(7) 1.0190(8)
H5 H 0.1089 0.8938 1.0473
C17 C 0.0969(10) 0.7998(7) 0.9872(7)
C18 C 0.4156(10) 0.7531(8) 1.0276(8)
C19 C 0.5243(9) 0.7361(7) 1.0476(8)
C20 C -0.1190(9) 0.6265(7) 0.7867(8)
C21 C -0.2004(8) 0.5775(7) 0.7642(7)
C22 C -0.2334(8) 0.5507(6) 0.8262(7)
H6 H -0.2820 0.5175 0.8083
C23 C -0.2274(9) 0.5407(6) 0.9799(8)
H7 H -0.2695 0.5035 0.9662
C24 C -0.0807(8) 0.5572(5) 1.1120(6)
H8 H -0.0506 0.5846 1.0767
C25 C 0.0748(8) 0.5716(6) 1.2441(7)
H9 H 0.0976 0.5926 1.3021
C26 C 0.1355(8) 0.5999(5) 1.1934(7)
H10 H 0.1155 0.5759 1.1374
C27 C 0.2481(8) 0.5878(6) 1.2351(6)
H11 H 0.2579 0.5403 1.2522
C28 C 0.3116(8) 0.6032(6) 1.1799(6)
H12 H 0.2914 0.6477 1.1538
C29 C 0.4190(9) 0.6075(6) 1.2295(7)
H13 H 0.4280 0.6372 1.2799
C30 C 0.4810(11) 0.6341(7) 1.1759(9)
H14 H 0.4914 0.6067 1.1329
C31 C 0.5196(10) 0.6933(9) 1.1882(9)
H15 H 0.5126 0.7175 1.2351
C32 C 0.4920(10) 0.5546(8) 0.8937(10)
H16 H 0.5550 0.5748 0.9242
H17 H 0.4847 0.5511 0.8327
H18 H 0.4886 0.5105 0.9170
C33 C -0.0721(12) 0.9295(7) 1.0350(11)
H19 H -0.1428 0.9272 1.0210
H20 H -0.0550 0.9675 1.0059
H21 H -0.0420 0.9345 1.0970
C34 C 0.5845(9) 0.7911(7) 1.0280(8)
H22 H 0.5583 0.8027 0.9672
H23 H 0.6520 0.7763 1.0413
H24 H 0.5823 0.8299 1.0629
C35 C -0.2462(12) 0.5615(9) 0.6696(7)
H25 H -0.2116 0.5853 0.6365
H26 H -0.3146 0.5750 0.6506
H27 H -0.2420 0.5138 0.6609
C36 C -0.2276(11) 0.6370(7) 1.0788(8)
H28 H -0.2064 0.6520 1.1384
H29 H -0.2988 0.6386 1.0557
H30 H -0.1999 0.6659 1.0449
C37 C -0.0903(10) 0.5511(6) 1.2693(8)
H31 H -0.1607 0.5575 1.2449
H32 H -0.0665 0.5730 1.3252
H33 H -0.0759 0.5037 1.2764
C38 C 0.1145(9) 0.6739(6) 1.1718(7)
H34 H 0.1538 0.6893 1.1371
H35 H 0.1310 0.6996 1.2250
H36 H 0.0454 0.6798 1.1397
C39 C 0.3095(11) 0.5970(10) 1.3932(7)
C40 C 0.3578(12) 0.6454(11) 1.4654(9)
H37 H 0.3590 0.6896 1.4414
H38 H 0.4245 0.6310 1.4953
H39 H 0.3210 0.6468 1.5057
C41 C 0.2894(10) 0.5520(8) 1.1035(8)
H40 H 0.2193 0.5512 1.0729
H41 H 0.3109 0.5078 1.1262
H42 H 0.3241 0.5651 1.0641
C42 C 0.5511(13) 0.5412(10) 1.3228(12)
H43 H 0.5693 0.4957 1.3414
H44 H 0.5530 0.5684 1.3724
H45 H 0.5969 0.5590 1.2958
N1 N 0.0314(8) 0.7503(5) 0.9457(5)
N2 N 0.1899(8) 0.7845(5) 0.9908(5)
N3 N -0.0357(8) 0.6094(5) 0.8484(6)
H46 H -0.0397 0.5745 0.8788
O1 O 0.5289(6) 0.6762(5) 1.0001(6)
O2 O 0.2838(8) 0.5289(5) 0.8249(6)
O3 O 0.1105(7) 0.5466(5) 0.8096(5)
H47 H 0.1610 0.5295 0.8049
O4 O 0.3851(7) 0.8028(5) 1.0587(6)
O5 O -0.1277(6) 0.6823(5) 0.7523(5)
O6 O -0.0580(7) 0.4903(4) 1.1024(5)
H48 H 0.0024 0.4851 1.1214
O7 O 0.0953(6) 0.5015(4) 1.2559(5)
H49 H 0.0635 0.4853 1.2854
O8 O 0.2808(6) 0.6284(4) 1.3144(5)
O9 O 0.4514(7) 0.5420(5) 1.2602(7)
O10 O 0.5708(6) 0.7253(5) 1.1387(5)
O11 O 0.2982(11) 0.5394(7) 1.4030(7)
C43 C -0.2009(8) 0.5681(7) 0.9176(8)
H50 H -0.1555 0.6033 0.9341
C44 C -0.0253(9) 0.6548(7) 0.6017(8)
H51 H -0.0754 0.6819 0.6092
C45 C 0.1211(12) 0.5733(7) 0.5793(8)
H52 H 0.1714 0.5461 0.5728
C46 C 0.1457(11) 0.6331(7) 0.6260(7)
C47 C 0.0261(12) 0.5538(7) 0.5434(7)
C48 C -0.0465(11) 0.5964(8) 0.5543(7)
H53 H -0.1127 0.5846 0.5281
C49 C 0.2171(9) 0.7211(6) 0.7058(7)
C50 C 0.1157(8) 0.7285(6) 0.6895(7)
C51 C 0.0781(8) 0.7829(6) 0.7270(8)
C52 C 0.1449(10) 0.8283(6) 0.7779(7)
C53 C 0.2463(9) 0.8223(5) 0.7887(6)
C54 C 0.2839(9) 0.7670(6) 0.7502(7)
C55 C 0.3898(8) 0.7674(6) 0.7625(7)
C56 C 0.4460(9) 0.8221(7) 0.7994(7)
C57 C 0.4189(9) 0.8762(6) 0.8394(7)
C58 C 0.3169(10) 0.8737(6) 0.8360(7)
C59 C 0.4446(8) 0.7242(7) 0.7268(8)
C60 C 0.5507(8) 0.7534(7) 0.7546(7)
C61 C -0.0730(9) 0.8460(8) 0.6684(7)
C62 C -0.1827(9) 0.8492(6) 0.6521(8)
C63 C -0.2464(12) 0.8404(8) 0.5728(9)
H54 H -0.3139 0.8441 0.5645
C64 C -0.2135(12) 0.8248(8) 0.4962(9)
H55 H -0.1451 0.8257 0.5079
C65 C -0.2621(11) 0.8107(10) 0.4190(12)
H56 H -0.3305 0.8137 0.4063
C66 C -0.2309(10) 0.7904(11) 0.3453(9)
H57 H -0.2813 0.8055 0.2914
C67 C -0.1328(9) 0.8249(8) 0.3517(8)
H58 H -0.0880 0.8167 0.4111
C68 C -0.0779(9) 0.7999(7) 0.2889(6)
H59 H -0.0704 0.7510 0.2963
C69 C 0.0237(9) 0.8287(6) 0.3080(7)
H60 H 0.0528 0.8085 0.2665
C70 C 0.0989(8) 0.8166(6) 0.4027(6)
H61 H 0.0723 0.8395 0.4441
C71 C 0.2016(8) 0.8470(6) 0.4137(6)
H62 H 0.1933 0.8945 0.3963
C72 C 0.2730(8) 0.8425(6) 0.5035(6)
H63 H 0.2715 0.7956 0.5222
C73 C 0.3806(8) 0.8572(6) 0.5094(6)
H64 H 0.3973 0.8305 0.4650
C74 C 0.4530(10) 0.8416(7) 0.5964(7)
H65 H 0.4532 0.8672 0.6447
C75 C 0.5164(10) 0.7920(7) 0.6058(8)
H66 H 0.5172 0.7713 0.5544
C76 C 0.4845(12) 0.9330(7) 0.8823(9)
H67 H 0.4480 0.9641 0.9059
H68 H 0.5078 0.9558 0.8402
H69 H 0.5402 0.9159 0.9287
C77 C -0.0031(12) 0.4892(7) 0.4949(9)
H70 H -0.0741 0.4851 0.4753
H71 H 0.0257 0.4521 0.5327
H72 H 0.0202 0.4888 0.4454
C78 C 0.6323(9) 0.7113(7) 0.8163(8)
H73 H 0.6151 0.7008 0.8676
H74 H 0.6934 0.7361 0.8326
H75 H 0.6401 0.6702 0.7877
C79 C -0.2141(11) 0.8614(7) 0.7299(8)
H76 H -0.1565 0.8665 0.7806
H77 H -0.2527 0.8238 0.7382
H78 H -0.2534 0.9017 0.7214
C80 C -0.2232(11) 0.7141(11) 0.3426(10)
H79 H -0.2033 0.7012 0.2934
H80 H -0.2865 0.6944 0.3371
H81 H -0.1749 0.6985 0.3955
C81 C -0.1424(10) 0.8131(8) 0.1911(7)
H82 H -0.2073 0.7942 0.1805
H83 H -0.1113 0.7924 0.1530
H84 H -0.1481 0.8608 0.1804
C82 C 0.1026(9) 0.7418(6) 0.4231(7)
H85 H 0.0367 0.7256 0.4153
H86 H 0.1435 0.7344 0.4824
H87 H 0.1299 0.7180 0.3844
C83 C 0.2540(13) 0.8408(9) 0.2841(9)
C84 C 0.3218(12) 0.8051(9) 0.2494(10)
H88 H 0.3389 0.7625 0.2788
H89 H 0.3809 0.8314 0.2586
H90 H 0.2908 0.7975 0.1880
C85 C 0.2410(9) 0.8861(7) 0.5683(7)
H91 H 0.2892 0.8821 0.6254
H92 H 0.1776 0.8711 0.5701
H93 H 0.2363 0.9324 0.5499
C86 C 0.4723(13) 0.9471(9) 0.4717(12)
H94 H 0.4700 0.9944 0.4583
H95 H 0.4781 0.9217 0.4231
H96 H 0.5285 0.9381 0.5224
N4 N 0.0733(8) 0.6720(5) 0.6377(5)
N5 N 0.2363(8) 0.6616(5) 0.6658(6)
N6 N -0.0254(8) 0.7916(5) 0.7077(7)
H97 H -0.0588 0.7601 0.7221
O12 O 0.5422(6) 0.8172(4) 0.7968(5)
O13 O 0.2831(6) 0.9204(4) 0.8754(6)
H98 H 0.2237 0.9143 0.8668
O14 O 0.1113(6) 0.8773(4) 0.8174(5)
O15 O 0.3835(6) 0.9280(5) 0.4887(5)
O16 O 0.4264(6) 0.6695(5) 0.6884(5)
O17 O -0.0321(7) 0.8929(6) 0.6455(6)
O18 O -0.1460(8) 0.8954(6) 0.3431(9)
H99 H -0.0927 0.9135 0.3475
O19 O 0.0185(6) 0.9004(5) 0.2930(5)
H100 H 0.0748 0.9155 0.3031
O20 O 0.2453(5) 0.8110(4) 0.3559(5)
O21 O 0.5824(6) 0.7662(5) 0.6821(5)
O22 O 0.2155(13) 0.8936(7) 0.2610(7)
H101? H -0.1532 0.5403 0.7709
H102? H -0.1821 0.8979 0.6418
loop_
_geom_bond_atom_site_label_1
_geom_bond_atom_site_label_2
_geom_bond_site_symmetry_1
_geom_bond_site_symmetry_2
C1 C2 1_555 1_555
C2 C3 1_555 1_555
C3 C4 1_555 1_555
C4 C5 1_555 1_555
C5 C6 1_555 1_555
C6 C1 1_555 1_555
C7 C6 1_555 1_555
C8 C7 1_555 1_555
C9 C8 1_555 1_555
C10 C1 1_555 1_555
C11 H1 1_555 1_555
C12 H2 1_555 1_555
C13 H3 1_555 1_555
C14 C13 1_555 1_555
H4 C14 1_555 1_555
C15 C14 1_555 1_555
C16 C15 1_555 1_555
H5 C16 1_555 1_555
C17 C16 1_555 1_555
C18 C7 1_555 1_555
C19 C18 1_555 1_555
C20 C21 1_555 1_555
C21 C22 1_555 1_555
C22 H6 1_555 1_555
C23 C11 1_555 1_555
H7 C23 1_555 1_555
C24 C11 1_555 1_555
H8 C24 1_555 1_555
C25 C12 1_555 1_555
H9 C25 1_555 1_555
C26 C25 1_555 1_555
H10 C26 1_555 1_555
C27 C26 1_555 1_555
H11 C27 1_555 1_555
C28 C27 1_555 1_555
H12 C28 1_555 1_555
C29 C28 1_555 1_555
H13 C29 1_555 1_555
C30 C29 1_555 1_555
H14 C30 1_555 1_555
C31 C30 1_555 1_555
H15 C31 1_555 1_555
C32 C9 1_555 1_555
H16 C32 1_555 1_555
H17 C32 1_555 1_555
H18 C32 1_555 1_555
C33 C15 1_555 1_555
H19 C33 1_555 1_555
H20 C33 1_555 1_555
H21 C33 1_555 1_555
C34 C19 1_555 1_555
H22 C34 1_555 1_555
H23 C34 1_555 1_555
H24 C34 1_555 1_555
C35 C21 1_555 1_555
H25 C35 1_555 1_555
H26 C35 1_555 1_555
H27 C35 1_555 1_555
C36 C11 1_555 1_555
H28 C36 1_555 1_555
H29 C36 1_555 1_555
H30 C36 1_555 1_555
C37 C12 1_555 1_555
H31 C37 1_555 1_555
H32 C37 1_555 1_555
H33 C37 1_555 1_555
C38 C26 1_555 1_555
H34 C38 1_555 1_555
H35 C38 1_555 1_555
H36 C38 1_555 1_555
C39 C40 1_555 1_555
C40 H37 1_555 1_555
H38 C40 1_555 1_555
H39 C40 1_555 1_555
C41 C28 1_555 1_555
H40 C41 1_555 1_555
H41 C41 1_555 1_555
H42 C41 1_555 1_555
C42 H43 1_555 1_555
H44 C42 1_555 1_555
H45 C42 1_555 1_555
N1 C4 1_555 1_555
N2 C5 1_555 1_555
N3 C3 1_555 1_555
H46 N3 1_555 1_555
O1 C8 1_555 1_555
O2 C10 1_555 1_555
O3 C2 1_555 1_555
H47 O3 1_555 1_555
O4 C18 1_555 1_555
O5 C20 1_555 1_555
O6 C24 1_555 1_555
H48 O6 1_555 1_555
O7 C25 1_555 1_555
H49 O7 1_555 1_555
O8 C27 1_555 1_555
O9 C29 1_555 1_555
O10 C19 1_555 1_555
O11 C39 1_555 1_555
C43 C22 1_555 1_555
H50 C43 1_555 1_555
C44 H51 1_555 1_555
C45 H52 1_555 1_555
C46 C45 1_555 1_555
C47 C45 1_555 1_555
C48 C44 1_555 1_555
H53 C48 1_555 1_555
C49 C50 1_555 1_555
C50 C51 1_555 1_555
C51 C52 1_555 1_555
C52 C53 1_555 1_555
C53 C54 1_555 1_555
C54 C49 1_555 1_555
C55 C54 1_555 1_555
C56 C55 1_555 1_555
C57 C56 1_555 1_555
C58 C53 1_555 1_555
C59 C55 1_555 1_555
C60 C59 1_555 1_555
C61 C62 1_555 1_555
C62 C63 1_555 1_555
C63 H54 1_555 1_555
C64 C63 1_555 1_555
H55 C64 1_555 1_555
C65 C64 1_555 1_555
H56 C65 1_555 1_555
C66 C65 1_555 1_555
H57 C66 1_555 1_555
C67 C66 1_555 1_555
H58 C67 1_555 1_555
C68 C67 1_555 1_555
H59 C68 1_555 1_555
C69 C68 1_555 1_555
H60 C69 1_555 1_555
C70 C69 1_555 1_555
H61 C70 1_555 1_555
C71 C70 1_555 1_555
H62 C71 1_555 1_555
C72 C71 1_555 1_555
H63 C72 1_555 1_555
C73 C72 1_555 1_555
H64 C73 1_555 1_555
C74 C73 1_555 1_555
H65 C74 1_555 1_555
C75 C74 1_555 1_555
H66 C75 1_555 1_555
C76 C57 1_555 1_555
H67 C76 1_555 1_555
H68 C76 1_555 1_555
H69 C76 1_555 1_555
C77 C47 1_555 1_555
H70 C77 1_555 1_555
H71 C77 1_555 1_555
H72 C77 1_555 1_555
C78 C60 1_555 1_555
H73 C78 1_555 1_555
H74 C78 1_555 1_555
H75 C78 1_555 1_555
C79 C62 1_555 1_555
H76 C79 1_555 1_555
H77 C79 1_555 1_555
H78 C79 1_555 1_555
C80 C66 1_555 1_555
H79 C80 1_555 1_555
H80 C80 1_555 1_555
H81 C80 1_555 1_555
C81 C68 1_555 1_555
H82 C81 1_555 1_555
H83 C81 1_555 1_555
H84 C81 1_555 1_555
C82 C70 1_555 1_555
H85 C82 1_555 1_555
H86 C82 1_555 1_555
H87 C82 1_555 1_555
C83 C84 1_555 1_555
C84 H88 1_555 1_555
H89 C84 1_555 1_555
H90 C84 1_555 1_555
C85 C72 1_555 1_555
H91 C85 1_555 1_555
H92 C85 1_555 1_555
H93 C85 1_555 1_555
C86 H94 1_555 1_555
H95 C86 1_555 1_555
H96 C86 1_555 1_555
N4 C44 1_555 1_555
N5 C46 1_555 1_555
N6 C51 1_555 1_555
H97 N6 1_555 1_555
O12 C56 1_555 1_555
O13 C58 1_555 1_555
H98 O13 1_555 1_555
O14 C52 1_555 1_555
O15 C73 1_555 1_555
O16 C59 1_555 1_555
O17 C61 1_555 1_555
O18 C67 1_555 1_555
H99 O18 1_555 1_555
O19 C69 1_555 1_555
H100 O19 1_555 1_555
O20 C71 1_555 1_555
O21 C60 1_555 1_555
O22 C83 1_555 1_555
C9 C10 1_555 1_555
C12 C24 1_555 1_555
C13 N1 1_555 1_555
C17 N1 1_555 1_555
C17 N2 1_555 1_555
C19 O1 1_555 1_555
C20 N3 1_555 1_555
C23 C43 1_555 1_555
C31 O10 1_555 1_555
C39 O8 1_555 1_555
C42 O9 1_555 1_555
C46 N4 1_555 1_555
C47 C48 1_555 1_555
C49 N5 1_555 1_555
C50 N4 1_555 1_555
C57 C58 1_555 1_555
C60 O12 1_555 1_555
C61 N6 1_555 1_555
C75 O21 1_555 1_555
C83 O20 1_555 1_555
C86 O15 1_555 1_555

#END
