
#######################################################################
#
#                 Cambridge Crystallographic Data Centre
#                                CCDC 
#
#######################################################################
#
# If this CIF has been generated from an entry in the Cambridge 
# Structural Database, then it will include bibliographic, chemical, 
# crystal, experimental, refinement or atomic coordinate data resulting 
# from the CCDC's data processing and validation procedures.
#
#######################################################################

data_ZEFNEF
_chemical_formula_moiety         
'0.5(C43 H51 N3 O11),3(H2 O1),0.5(C43 H51 N3 O11)'
_chemical_name_systematic        'Rifaximin beta trihydrate'
_chemical_properties_biological  
'broad spectrum locally acting antibiotic against Gram-positive and Gram-negative, aerobic and anaerobic organisms'
_symmetry_cell_setting           monoclinic
_symmetry_space_group_name_H-M   'P 21'
_symmetry_Int_Tables_number      4
_space_group_name_Hall           'P 2yb'
loop_
_symmetry_equiv_pos_site_id
_symmetry_equiv_pos_as_xyz
1 x,y,z
2 -x,1/2+y,-z
_cell_length_a                   13.7960(8)
_cell_length_b                   19.944(4)
_cell_length_c                   16.607(6)
_cell_angle_alpha                90
_cell_angle_beta                 92.1800(10)
_cell_angle_gamma                90
_cell_volume                     4566.07
_cell_formula_units_Z            4
loop_
_atom_site_label
_atom_site_type_symbol
_atom_site_fract_x
_atom_site_fract_y
_atom_site_fract_z
N1 N 1.0325(15) 0.9347(10) 1.1325(12)
H1 H 1.0589 0.9156 1.0924
N2 N 0.8292(16) 0.7915(8) 1.2669(9)
H2 H 0.7833 0.7731 1.2926
O1 O 0.8719(14) 1.0044(15) 1.0652(13)
H3 H 0.8238 1.0111 1.0358
O2 O 0.7058(12) 1.0261(10) 1.0485(12)
O3 O 0.4770(11) 0.9040(10) 1.1976(11)
O4 O 0.6251(16) 0.7799(9) 1.2870(16)
O5 O 0.4599(15) 0.8600(11) 1.3317(15)
O6 O 0.6412(19) 1.0381(12) 1.4565(13)
O7 O 0.7772(14) 0.9131(9) 1.5734(13)
O8 O 0.7549(19) 1.0103(12) 1.6457(12)
O9 O 0.9890(16) 1.0162(11) 1.5804(12)
H4 H 0.9969 1.0368 1.5385
O10 O 1.1379(16) 1.0312(11) 1.4864(15)
H5 H 1.1892 1.0386 1.5115
O11 O 1.0363(15) 1.0063(11) 1.2181(12)
C1 C 0.8547(9) 0.9567(7) 1.1137(8)
C2 C 0.9298(8) 0.9161(9) 1.1433(9)
C3 C 0.9101(9) 0.8626(8) 1.1937(8)
C4 C 0.8153(10) 0.8496(6) 1.2145(6)
C5 C 0.7401(8) 0.8902(5) 1.1849(5)
C6 C 0.7598(8) 0.9437(6) 1.1345(6)
C7 C 0.6847(11) 0.9843(6) 1.1049(8)
C8 C 0.5899(9) 0.9713(8) 1.1257(9)
C9 C 0.5702(8) 0.9177(8) 1.1760(8)
C10 C 0.6453(9) 0.8772(7) 1.2056(6)
C11 C 0.593(2) 0.8330(11) 1.2511(10)
C12 C 0.496(3) 0.8486(12) 1.2459(14)
C13 C 0.427(3) 0.8068(19) 1.212(2)
H6 H 0.4242 0.7663 1.2435
H7 H 0.4429 0.7961 1.1582
H8 H 0.3648 0.8287 1.2121
C14 C 0.510(2) 1.0151(18) 1.1012(19)
H9 H 0.4502 0.9971 1.1204
H10 H 0.5052 1.0180 1.0435
H11 H 0.5203 1.0590 1.1235
C15 C 1.085(2) 0.9721(14) 1.1704(16)
C16 C 1.1794(18) 0.9828(14) 1.1621(15)
C17 C 1.251(3) 0.9743(16) 1.225(2)
H12 H 1.3168 0.9820 1.2172
C18 C 1.212(3) 0.9504(19) 1.311(2)
H13 H 1.1486 0.9347 1.3152
C19 C 1.262(3) 0.9530(18) 1.368(2)
H14 H 1.3231 0.9715 1.3601
C20 C 1.243(3) 0.9288(17) 1.460(2)
H15 H 1.2900 0.9464 1.4998
C21 C 1.127(2) 0.9567(14) 1.4732(17)
H16 H 1.0813 0.9453 1.4285
C22 C 1.096(3) 0.9282(19) 1.556(2)
H17 H 1.0943 0.8795 1.5476
C23 C 0.9852(19) 0.9485(13) 1.5644(15)
H18 H 0.9594 0.9251 1.6108
C24 C 0.923(2) 0.9286(18) 1.4864(19)
H19 H 0.9471 0.9516 1.4389
C25 C 0.8118(18) 0.9550(15) 1.5076(16)
H20 H 0.8113 1.0027 1.5216
C26 C 0.748(2) 0.9404(15) 1.4295(16)
H21 H 0.7546 0.8934 1.4131
C27 C 0.639(2) 0.9580(14) 1.4448(17)
H22 H 0.6204 0.9372 1.4956
C28 C 0.572(2) 0.9375(17) 1.383(2)
H23 H 0.5675 0.9619 1.3356
C29 C 0.514(3) 0.883(2) 1.391(3)
H24 H 0.5128 0.8619 1.4412
C30 C 1.221(2) 0.9845(16) 1.0847(17)
H25 H 1.1705 0.9906 1.0439
H26 H 1.2542 0.9431 1.0755
H27 H 1.2661 1.0211 1.0827
C31 C 1.246(2) 0.8552(15) 1.4506(18)
H28 H 1.2314 0.8343 1.5007
H29 H 1.3103 0.8421 1.4359
H30 H 1.2000 0.8413 1.4094
C32 C 1.171(3) 0.9378(18) 1.629(2)
H31 H 1.2326 0.9202 1.6155
H32 H 1.1479 0.9145 1.6753
H33 H 1.1769 0.9847 1.6414
C33 C 0.928(2) 0.8548(13) 1.4763(16)
H34 H 0.8876 0.8418 1.4303
H35 H 0.9044 0.8334 1.5237
H36 H 0.9933 0.8413 1.4684
C34 C 0.7719(17) 0.9891(12) 1.3577(13)
H37 H 0.8348 0.9785 1.3384
H38 H 0.7714 1.0346 1.3764
H39 H 0.7239 0.9837 1.3148
C35 C 0.755(2) 0.9461(19) 1.637(2)
C36 C 0.7031(19) 0.9070(15) 1.6980(15)
H40 H 0.7099 0.8600 1.6873
H41 H 0.6356 0.9188 1.6955
H42 H 0.7302 0.9169 1.7508
C37 C 0.553(4) 1.044(3) 1.504(3)
H43 H 0.5391 1.0905 1.5130
H44 H 0.5644 1.0222 1.5555
H45 H 0.4996 1.0231 1.4759
N3 N 0.9740(13) 0.8162(7) 1.2299(7)
C38 C 1.0742(13) 0.8080(8) 1.2316(9)
H46 H 1.1127 0.8382 1.2045
C39 C 1.1167(9) 0.7548(9) 1.2739(9)
H47 H 1.1837 0.7494 1.2751
C40 C 1.0592(12) 0.7098(7) 1.3144(8)
C41 C 0.9591(12) 0.7179(8) 1.3127(9)
H48 H 0.9206 0.6877 1.3398
C42 C 0.9165(9) 0.7711(9) 1.2705(9)
C43 C 1.122(2) 0.6726(18) 1.360(2)
H49 H 1.1862 0.6765 1.3398
H50 H 1.1025 0.6264 1.3588
H51 H 1.1230 0.6884 1.4150
N4 N 1.0397(18) 0.7575(13) 1.0047(12)
H52 H 1.0538 0.7394 0.9596
N5 N 0.7819(18) 0.8954(9) 0.9166(10)
H53 H 0.7252 0.9116 0.9056
O12 O 0.9104(14) 0.6678(12) 1.0798(10)
O13 O 0.7397(15) 0.6408(12) 1.1173(13)
H54 H 0.7975 0.6325 1.1130
O14 O 0.4846(9) 0.7713(9) 1.0195(10)
O15 O 0.5998(14) 0.9028(11) 0.9173(11)
O16 O 0.4292(14) 0.8089(10) 0.8813(11)
O17 O 0.563(2) 0.6316(11) 0.7380(15)
O18 O 0.7227(13) 0.7289(8) 0.6402(12)
O19 O 0.6815(15) 0.6427(12) 0.5630(12)
O20 O 0.9155(13) 0.6002(9) 0.6485(10)
H55 H 0.9556 0.5870 0.6826
O21 O 1.0946(17) 0.6028(11) 0.7371(12)
H56 H 1.1203 0.5823 0.7008
O22 O 1.122(2) 0.8260(16) 1.0566(16)
C44 C 0.8769(8) 0.7223(4) 1.0375(8)
C45 C 0.9402(7) 0.7669(6) 1.0024(8)
C46 C 0.9041(9) 0.8237(5) 0.9630(8)
C47 C 0.8049(10) 0.8358(4) 0.9587(7)
C48 C 0.7416(8) 0.7912(4) 0.9937(5)
C49 C 0.7776(8) 0.7344(3) 1.0331(6)
C50 C 0.7143(10) 0.6898(5) 1.0682(8)
C51 C 0.6151(9) 0.7019(7) 1.0639(8)
C52 C 0.5791(7) 0.7587(8) 1.0245(8)
C53 C 0.6423(8) 0.8033(6) 0.9894(7)
C54 C 0.5765(15) 0.8444(9) 0.9523(10)
C55 C 0.4793(19) 0.8268(12) 0.9662(12)
C56 C 0.414(2) 0.8751(14) 0.9886(16)
H57 H 0.3503 0.8563 0.9881
H58 H 0.4156 0.9119 0.9514
H59 H 0.4318 0.8908 1.0418
C57 C 0.543(2) 0.6560(17) 1.1024(19)
H60 H 0.5767 0.6178 1.1250
H61 H 0.4958 0.6413 1.0625
H62 H 0.5116 0.6797 1.1443
C58 C 1.120(3) 0.764(2) 1.046(3)
C59 C 1.2122(19) 0.7069(13) 1.0357(15)
C60 C 1.242(3) 0.695(2) 0.958(3)
H63 H 1.2950 0.6659 0.9580
C61 C 1.213(2) 0.7142(18) 0.877(2)
H64 H 1.1796 0.7545 0.8696
C62 C 1.2321(19) 0.6754(15) 0.8070(16)
H65 H 1.2651 0.6350 0.8132
C63 C 1.2020(19) 0.6971(13) 0.7275(16)
H66 H 1.2408 0.6755 0.6867
C64 C 1.095(2) 0.6749(17) 0.7192(19)
H67 H 1.0622 0.6967 0.7634
C65 C 1.0332(18) 0.6878(13) 0.6441(15)
H68 H 1.0346 0.7368 0.6399
C66 C 0.921(2) 0.6723(16) 0.6418(19)
H69 H 0.8894 0.6884 0.5918
C67 C 0.8684(17) 0.6997(12) 0.7197(14)
H70 H 0.8905 0.6737 0.7670
C68 C 0.762(2) 0.6900(16) 0.7061(17)
H71 H 0.7507 0.6426 0.6935
C69 C 0.7019(19) 0.7079(15) 0.7807(16)
H72 H 0.7143 0.7540 0.7986
C70 C 0.5835(17) 0.6974(13) 0.7487(14)
H73 H 0.5715 0.7215 0.6979
C71 C 0.523(3) 0.729(2) 0.815(3)
H74 H 0.5144 0.7025 0.8603
C72 C 0.487(2) 0.7800(18) 0.817(2)
H75 H 0.4945 0.8070 0.7721
C73 C 1.249(2) 0.6742(18) 1.1189(19)
H76 H 1.2243 0.6995 1.1628
H77 H 1.3186 0.6746 1.1224
H78 H 1.2263 0.6288 1.1217
C74 C 1.200(3) 0.7705(16) 0.717(2)
H79 H 1.1813 0.7808 0.6617
H80 H 1.2641 0.7883 0.7284
H81 H 1.1552 0.7901 0.7521
C75 C 1.0789(18) 0.6687(13) 0.5787(14)
H82 H 1.0442 0.6850 0.5314
H83 H 1.0819 0.6206 0.5769
H84 H 1.1435 0.6867 0.5806
C76 C 0.8979(18) 0.7780(12) 0.7332(16)
H85 H 0.8657 0.7952 0.7791
H86 H 0.8784 0.8034 0.6862
H87 H 0.9668 0.7815 0.7423
C77 C 0.7251(15) 0.6608(10) 0.8435(12)
H88 H 0.7921 0.6656 0.8603
H89 H 0.7138 0.6161 0.8239
H90 H 0.6851 0.6691 0.8884
C78 C 0.693(3) 0.704(3) 0.557(3)
C79 C 0.652(2) 0.7472(18) 0.507(2)
H91 H 0.6499 0.7905 0.5322
H92 H 0.5870 0.7328 0.4930
H93 H 0.6886 0.7500 0.4592
C80 C 0.480(4) 0.634(3) 0.691(3)
H94 H 0.4572 0.5898 0.6800
H95 H 0.4931 0.6566 0.6412
H96 H 0.4316 0.6590 0.7186
N6 N 0.9447(17) 0.8787(8) 0.9235(9)
C81 C 1.0409(14) 0.8913(9) 0.9067(11)
H97 H 1.0893 0.8618 0.9247
C82 C 1.0649(12) 0.9480(10) 0.8631(12)
H98 H 1.1293 0.9564 0.8518
C83 C 0.9926(17) 0.9921(8) 0.8362(10)
C84 C 0.8964(14) 0.9795(10) 0.8530(12)
H99 H 0.8481 1.0090 0.8350
C85 C 0.8724(12) 0.9228(11) 0.8966(12)
C86 C 1.0082(10) 1.0508(7) 0.7934(8)
H100 H 1.0758 1.0547 0.7825
H101 H 0.9887 1.0886 0.8247
H102 H 0.9707 1.0497 0.7435
O23 O 0.3236(10) 0.5345(7) 0.1236(8)
O24 O 0.3732(10) 0.5969(7) 0.2711(8)
O25 O 0.9837(10) 0.6072(7) 0.9253(8)
O26 O 0.6939(10) 0.5352(7) 0.2227(8)
O27 O 0.5137(10) 0.4834(7) 0.2142(8)
O28 O 0.5404(10) 0.6668(7) 0.3571(8)
H103? H 1.1753 1.0316 1.1677
H104? H 1.2607 0.7425 1.0422
loop_
_geom_bond_atom_site_label_1
_geom_bond_atom_site_label_2
_geom_bond_site_symmetry_1
_geom_bond_site_symmetry_2
N1 H1 1_555 1_555
N2 H2 1_555 1_555
O1 H3 1_555 1_555
O2 C7 1_555 1_555
O3 C9 1_555 1_555
O4 C11 1_555 1_555
O5 C12 1_555 1_555
O6 C27 1_555 1_555
O7 C25 1_555 1_555
O8 C35 1_555 1_555
O9 H4 1_555 1_555
O10 H5 1_555 1_555
O11 C15 1_555 1_555
C1 O1 1_555 1_555
C2 N1 1_555 1_555
C3 C2 1_555 1_555
C4 N2 1_555 1_555
C5 C4 1_555 1_555
C6 C1 1_555 1_555
C7 C6 1_555 1_555
C8 C7 1_555 1_555
C9 C8 1_555 1_555
C10 C5 1_555 1_555
C11 C10 1_555 1_555
C12 O3 1_555 1_555
C13 C12 1_555 1_555
H6 C13 1_555 1_555
H7 C13 1_555 1_555
H8 C13 1_555 1_555
C14 C8 1_555 1_555
H9 C14 1_555 1_555
H10 C14 1_555 1_555
H11 C14 1_555 1_555
C15 N1 1_555 1_555
C16 C15 1_555 1_555
C17 C16 1_555 1_555
H12 C17 1_555 1_555
C18 C17 1_555 1_555
H13 C18 1_555 1_555
C19 C18 1_555 1_555
H14 C19 1_555 1_555
C20 C19 1_555 1_555
H15 C20 1_555 1_555
C21 O10 1_555 1_555
H16 C21 1_555 1_555
C22 C21 1_555 1_555
H17 C22 1_555 1_555
C23 O9 1_555 1_555
H18 C23 1_555 1_555
C24 C23 1_555 1_555
H19 C24 1_555 1_555
C25 C24 1_555 1_555
H20 C25 1_555 1_555
C26 C25 1_555 1_555
H21 C26 1_555 1_555
C27 C26 1_555 1_555
H22 C27 1_555 1_555
C28 C27 1_555 1_555
H23 C28 1_555 1_555
C29 O5 1_555 1_555
H24 C29 1_555 1_555
C30 C16 1_555 1_555
H25 C30 1_555 1_555
H26 C30 1_555 1_555
H27 C30 1_555 1_555
C31 C20 1_555 1_555
H28 C31 1_555 1_555
H29 C31 1_555 1_555
H30 C31 1_555 1_555
C32 C22 1_555 1_555
H31 C32 1_555 1_555
H32 C32 1_555 1_555
H33 C32 1_555 1_555
C33 C24 1_555 1_555
H34 C33 1_555 1_555
H35 C33 1_555 1_555
H36 C33 1_555 1_555
C34 C26 1_555 1_555
H37 C34 1_555 1_555
H38 C34 1_555 1_555
H39 C34 1_555 1_555
C35 O7 1_555 1_555
C36 C35 1_555 1_555
H40 C36 1_555 1_555
H41 C36 1_555 1_555
H42 C36 1_555 1_555
C37 O6 1_555 1_555
H43 C37 1_555 1_555
H44 C37 1_555 1_555
H45 C37 1_555 1_555
N3 C3 1_555 1_555
C38 N3 1_555 1_555
H46 C38 1_555 1_555
C39 C38 1_555 1_555
H47 C39 1_555 1_555
C40 C39 1_555 1_555
C41 C40 1_555 1_555
H48 C41 1_555 1_555
C42 N2 1_555 1_555
C43 C40 1_555 1_555
H49 C43 1_555 1_555
H50 C43 1_555 1_555
H51 C43 1_555 1_555
N4 H52 1_555 1_555
N5 H53 1_555 1_555
O12 C44 1_555 1_555
O13 H54 1_555 1_555
O14 C52 1_555 1_555
O15 C54 1_555 1_555
O16 C55 1_555 1_555
O17 C70 1_555 1_555
O18 C68 1_555 1_555
O19 C78 1_555 1_555
O20 H55 1_555 1_555
O21 H56 1_555 1_555
O22 C58 1_555 1_555
C44 C45 1_555 1_555
C45 N4 1_555 1_555
C46 C45 1_555 1_555
C47 N5 1_555 1_555
C48 C47 1_555 1_555
C49 C44 1_555 1_555
C50 O13 1_555 1_555
C51 C50 1_555 1_555
C52 C51 1_555 1_555
C53 C48 1_555 1_555
C54 C53 1_555 1_555
C55 O14 1_555 1_555
C56 C55 1_555 1_555
H57 C56 1_555 1_555
H58 C56 1_555 1_555
H59 C56 1_555 1_555
C57 C51 1_555 1_555
H60 C57 1_555 1_555
H61 C57 1_555 1_555
H62 C57 1_555 1_555
C58 N4 1_555 1_555
C59 C58 1_555 1_555
C60 C59 1_555 1_555
H63 C60 1_555 1_555
C61 C60 1_555 1_555
H64 C61 1_555 1_555
C62 C61 1_555 1_555
H65 C62 1_555 1_555
C63 C62 1_555 1_555
H66 C63 1_555 1_555
C64 O21 1_555 1_555
H67 C64 1_555 1_555
C65 C64 1_555 1_555
H68 C65 1_555 1_555
C66 O20 1_555 1_555
H69 C66 1_555 1_555
C67 C66 1_555 1_555
H70 C67 1_555 1_555
C68 C67 1_555 1_555
H71 C68 1_555 1_555
C69 C68 1_555 1_555
H72 C69 1_555 1_555
C70 C69 1_555 1_555
H73 C70 1_555 1_555
C71 C70 1_555 1_555
H74 C71 1_555 1_555
C72 O16 1_555 1_555
H75 C72 1_555 1_555
C73 C59 1_555 1_555
H76 C73 1_555 1_555
H77 C73 1_555 1_555
H78 C73 1_555 1_555
C74 C63 1_555 1_555
H79 C74 1_555 1_555
H80 C74 1_555 1_555
H81 C74 1_555 1_555
C75 C65 1_555 1_555
H82 C75 1_555 1_555
H83 C75 1_555 1_555
H84 C75 1_555 1_555
C76 C67 1_555 1_555
H85 C76 1_555 1_555
H86 C76 1_555 1_555
H87 C76 1_555 1_555
C77 C69 1_555 1_555
H88 C77 1_555 1_555
H89 C77 1_555 1_555
H90 C77 1_555 1_555
C78 O18 1_555 1_555
C79 C78 1_555 1_555
H91 C79 1_555 1_555
H92 C79 1_555 1_555
H93 C79 1_555 1_555
C80 O17 1_555 1_555
H94 C80 1_555 1_555
H95 C80 1_555 1_555
H96 C80 1_555 1_555
N6 C46 1_555 1_555
C81 N6 1_555 1_555
H97 C81 1_555 1_555
C82 C81 1_555 1_555
H98 C82 1_555 1_555
C83 C82 1_555 1_555
C84 C83 1_555 1_555
H99 C84 1_555 1_555
C85 N5 1_555 1_555
C86 C83 1_555 1_555
H100 C86 1_555 1_555
H101 C86 1_555 1_555
H102 C86 1_555 1_555
C1 C2 1_555 1_555
C3 C4 1_555 1_555
C5 C6 1_555 1_555
C9 C10 1_555 1_555
C11 C12 1_555 1_555
C20 C21 1_555 1_555
C22 C23 1_555 1_555
C28 C29 1_555 1_555
N3 C42 1_555 1_555
C41 C42 1_555 1_555
C46 C47 1_555 1_555
C48 C49 1_555 1_555
C49 C50 1_555 1_555
C52 C53 1_555 1_555
C54 C55 1_555 1_555
C63 C64 1_555 1_555
C65 C66 1_555 1_555
C71 C72 1_555 1_555
N6 C85 1_555 1_555
C84 C85 1_555 1_555

#END
