
#######################################################################
#
#                 Cambridge Crystallographic Data Centre
#                                CCDC 
#
#######################################################################
#
# If this CIF has been generated from an entry in the Cambridge 
# Structural Database, then it will include bibliographic, chemical, 
# crystal, experimental, refinement or atomic coordinate data resulting 
# from the CCDC's data processing and validation procedures.
#
#######################################################################

data_ZEFWIQ01
_chemical_formula_moiety         'C20 H8 S4'
_chemical_name_systematic        
"[1,2]Dithiolo[3',4',5':9,10]perylo[3,4-cd][1,2]dithiole"
_symmetry_cell_setting           monoclinic
_symmetry_space_group_name_H-M   'P 21/n'
_symmetry_Int_Tables_number      14
_space_group_name_Hall           '-P 2yn'
loop_
_symmetry_equiv_pos_site_id
_symmetry_equiv_pos_as_xyz
1 x,y,z
2 1/2-x,1/2+y,1/2-z
3 -x,-y,-z
4 1/2+x,1/2-y,1/2+z
_cell_length_a                   16.1736(7)
_cell_length_b                   3.9548(2)
_cell_length_c                   22.2854(9)
_cell_angle_alpha                90
_cell_angle_beta                 94.941(2)
_cell_angle_gamma                90
_cell_volume                     1420.15
_exptl_crystal_colour            green
_exptl_crystal_description       needle
_cell_formula_units_Z            4
loop_
_atom_site_label
_atom_site_type_symbol
_atom_site_fract_x
_atom_site_fract_y
_atom_site_fract_z
S1 S 0.34144(12) -0.2991(5) 0.28298(10)
S2 S 0.45885(11) -0.5101(5) 0.27407(10)
C1 C 0.3659(5) -0.141(2) 0.3568(4)
C2 C 0.3113(5) 0.035(2) 0.3894(4)
H1 H 0.2564 0.0800 0.3725
C3 C 0.3368(5) 0.144(2) 0.4465(4)
H2 H 0.2985 0.2646 0.4686
C4 C 0.4169(5) 0.086(2) 0.4736(4)
C5 C 0.4727(5) -0.107(2) 0.4411(4)
C6 C 0.5559(5) -0.192(2) 0.4649(4)
C7 C 0.6052(5) -0.378(2) 0.4289(4)
H3 H 0.6594 -0.4405 0.4448
C8 C 0.5789(5) -0.474(2) 0.3713(4)
H4 H 0.6155 -0.5964 0.3481
C9 C 0.4997(5) -0.396(2) 0.3464(4)
C10 C 0.4465(5) -0.211(2) 0.3817(4)
S1B S 0.65856(12) 0.2991(5) 0.71702(10)
S2B S 0.54115(11) 0.5101(5) 0.72593(10)
C1B C 0.6341(5) 0.141(2) 0.6432(4)
C2B C 0.6887(5) -0.035(2) 0.6106(4)
H1B H 0.7436 -0.0800 0.6275
C3B C 0.6632(5) -0.144(2) 0.5535(4)
H2B H 0.7015 -0.2646 0.5314
C4B C 0.5831(5) -0.086(2) 0.5264(4)
C5B C 0.5273(5) 0.107(2) 0.5589(4)
C6B C 0.4441(5) 0.192(2) 0.5351(4)
C7B C 0.3948(5) 0.378(2) 0.5711(4)
H3B H 0.3406 0.4405 0.5552
C8B C 0.4211(5) 0.474(2) 0.6287(4)
H4B H 0.3845 0.5964 0.6519
C9B C 0.5003(5) 0.396(2) 0.6536(4)
C10B C 0.5535(5) 0.211(2) 0.6183(4)
S3 S 0.60754(11) 0.0071(5) 0.21962(10)
S4 S 0.71762(12) 0.2018(5) 0.19018(10)
C11 C 0.5451(5) 0.121(2) 0.1539(4)
C12 C 0.4612(5) 0.050(2) 0.1435(4)
H5 H 0.4331 -0.0656 0.1731
C13 C 0.4191(5) 0.148(2) 0.0900(4)
H6 H 0.3615 0.0987 0.0837
C14 C 0.4572(5) 0.318(2) 0.0443(4)
C15 C 0.5436(5) 0.398(2) 0.0546(4)
C16 C 0.5876(5) 0.575(2) 0.0119(4)
C17 C 0.6708(5) 0.645(2) 0.0272(4)
H7 H 0.7004 0.7705 -0.0003
C18 C 0.7135(5) 0.539(2) 0.0822(4)
H8 H 0.7706 0.5917 0.0912
C19 C 0.6710(5) 0.361(2) 0.1219(4)
C20 C 0.5852(5) 0.292(2) 0.1104(4)
S3B S 0.39246(11) 0.9929(5) -0.21962(10)
S4B S 0.28238(12) 0.7982(5) -0.19018(10)
C11B C 0.4549(5) 0.879(2) -0.1539(4)
C12B C 0.5388(5) 0.950(2) -0.1435(4)
H5B H 0.5669 1.0656 -0.1731
C13B C 0.5809(5) 0.852(2) -0.0900(4)
H6B H 0.6385 0.9013 -0.0837
C14B C 0.5428(5) 0.682(2) -0.0443(4)
C15B C 0.4564(5) 0.602(2) -0.0546(4)
C16B C 0.4124(5) 0.425(2) -0.0119(4)
C17B C 0.3292(5) 0.355(2) -0.0272(4)
H7B H 0.2996 0.2295 0.0003
C18B C 0.2865(5) 0.461(2) -0.0822(4)
H8B H 0.2294 0.4083 -0.0912
C19B C 0.3290(5) 0.639(2) -0.1219(4)
C20B C 0.4148(5) 0.708(2) -0.1104(4)
loop_
_geom_bond_atom_site_label_1
_geom_bond_atom_site_label_2
_geom_bond_site_symmetry_1
_geom_bond_site_symmetry_2
S1 S2 1_555 1_555
S2 C9 1_555 1_555
C1 S1 1_555 1_555
C2 C1 1_555 1_555
H1 C2 1_555 1_555
C3 C2 1_555 1_555
H2 C3 1_555 1_555
C4 C3 1_555 1_555
C5 C4 1_555 1_555
C6 C5 1_555 1_555
C7 C6 1_555 1_555
H3 C7 1_555 1_555
C8 C7 1_555 1_555
H4 C8 1_555 1_555
C9 C8 1_555 1_555
C10 C1 1_555 1_555
S3 S4 1_555 1_555
S4 C19 1_555 1_555
C11 S3 1_555 1_555
C12 C11 1_555 1_555
H5 C12 1_555 1_555
C13 C12 1_555 1_555
H6 C13 1_555 1_555
C14 C13 1_555 1_555
C15 C14 1_555 1_555
C16 C15 1_555 1_555
C17 C16 1_555 1_555
H7 C17 1_555 1_555
C18 C17 1_555 1_555
H8 C18 1_555 1_555
C19 C18 1_555 1_555
C20 C11 1_555 1_555
S1B S2B 1_555 1_555
S2B C9B 1_555 1_555
C1B S1B 1_555 1_555
C2B C1B 1_555 1_555
H1B C2B 1_555 1_555
C3B C2B 1_555 1_555
H2B C3B 1_555 1_555
C4B C6 1_555 1_555
C5B C4B 1_555 1_555
C6B C4 1_555 1_555
C7B C6B 1_555 1_555
H3B C7B 1_555 1_555
C8B C7B 1_555 1_555
H4B C8B 1_555 1_555
C9B C8B 1_555 1_555
C10B C1B 1_555 1_555
S3B S4B 1_555 1_555
S4B C19B 1_555 1_555
C11B S3B 1_555 1_555
C12B C11B 1_555 1_555
H5B C12B 1_555 1_555
C13B C12B 1_555 1_555
H6B C13B 1_555 1_555
C14B C16 1_555 1_555
C15B C14B 1_555 1_555
C16B C14 1_555 1_555
C17B C16B 1_555 1_555
H7B C17B 1_555 1_555
C18B C17B 1_555 1_555
H8B C18B 1_555 1_555
C19B C18B 1_555 1_555
C20B C11B 1_555 1_555
C5 C10 1_555 1_555
C9 C10 1_555 1_555
C15 C20 1_555 1_555
C19 C20 1_555 1_555
C3B C4B 1_555 1_555
C5B C6B 1_555 1_555
C5B C10B 1_555 1_555
C9B C10B 1_555 1_555
C13B C14B 1_555 1_555
C15B C16B 1_555 1_555
C15B C20B 1_555 1_555
C19B C20B 1_555 1_555

#END
