
#######################################################################
#
#                 Cambridge Crystallographic Data Centre
#                                CCDC 
#
#######################################################################
#
# If this CIF has been generated from an entry in the Cambridge 
# Structural Database, then it will include bibliographic, chemical, 
# crystal, experimental, refinement or atomic coordinate data resulting 
# from the CCDC's data processing and validation procedures.
#
#######################################################################

data_ZEFYIV
_chemical_formula_moiety         'C58 H52'
_chemical_name_systematic        
2,15,18,19-tetrabutyldibenzo[fg,mn]phenanthro[2,1,10,9,8,7-vwxyza]heptaphene
_symmetry_cell_setting           triclinic
_symmetry_space_group_name_H-M   'P -1'
_symmetry_Int_Tables_number      2
_space_group_name_Hall           '-P 1'
loop_
_symmetry_equiv_pos_site_id
_symmetry_equiv_pos_as_xyz
1 x,y,z
2 -x,-y,-z
_cell_length_a                   8.9025(2)
_cell_length_b                   14.8438(3)
_cell_length_c                   17.2013(5)
_cell_angle_alpha                64.971(2)
_cell_angle_beta                 80.154(2)
_cell_angle_gamma                75.196(2)
_cell_volume                     1986.13
_exptl_crystal_colour            yellow
_exptl_crystal_description       Prism
_cell_formula_units_Z            2
loop_
_atom_site_label
_atom_site_type_symbol
_atom_site_fract_x
_atom_site_fract_y
_atom_site_fract_z
C1 C 0.51122(13) 1.26325(8) 0.37313(8)
H1 H 0.5665 1.3054 0.3271
C2 C 0.45789(13) 1.18941(8) 0.36383(7)
H2 H 0.4786 1.1822 0.3117
C3 C 0.32232(14) 1.04088(9) 0.34232(7)
H3 H 0.3707 1.0856 0.2946
C4 C 0.26201(14) 0.96859(9) 0.33366(8)
H4 H 0.2693 0.9658 0.2801
C5 C 0.16493(17) 1.57609(10) 0.42434(10)
H5 H 0.1467 1.5859 0.3676
H6 H 0.2135 1.6287 0.4206
H7 H 0.0675 1.5787 0.4582
C6 C 0.27116(15) 1.47309(9) 0.46647(8)
H8 H 0.2223 1.4205 0.4688
H9 H 0.2830 1.4617 0.5251
C7 C 0.43161(14) 1.46378(8) 0.41929(8)
H10 H 0.4813 1.5152 0.4184
H11 H 0.4193 1.4773 0.3602
C8 C 0.53895(14) 1.35914(9) 0.45949(8)
H12 H 0.6431 1.3622 0.4318
H13 H 0.5445 1.3427 0.5200
C9 C 0.48348(13) 1.27586(8) 0.45085(7)
C10 C 0.37272(12) 1.12459(8) 0.43148(7)
C11 C 0.31161(13) 1.04749(8) 0.42154(7)
C12 C 0.19099(14) 0.90047(9) 0.40400(7)
H14 H 0.1518 0.8520 0.3972
C13 C 0.40264(13) 1.21125(8) 0.51836(7)
H15 H 0.3853 1.2180 0.5707
C14 C 0.34547(13) 1.13531(8) 0.51052(7)
C15 C 0.23687(12) 0.97869(8) 0.49377(7)
C16 C 0.17731(13) 0.90347(8) 0.48501(7)
C17 C 0.26091(13) 1.06794(8) 0.58266(7)
C18 C 0.21775(12) 0.98657(8) 0.57549(7)
C19 C 0.10026(12) 0.83387(8) 0.55991(7)
C20 C 0.02860(13) 0.76288(8) 0.55368(7)
H16 H 0.0340 0.7584 0.5009
C21 C 0.21347(13) 1.08257(8) 0.65923(7)
H17 H 0.2255 1.1419 0.6613
C22 C 0.15308(12) 0.91403(8) 0.64946(7)
C23 C 0.09334(12) 0.83698(8) 0.64111(7)
C24 C -0.04894(13) 0.70019(8) 0.62357(7)
H18 H -0.0963 0.6553 0.6166
C25 C -0.22485(16) 1.27511(10) 0.82633(9)
H19 H -0.2978 1.2818 0.7881
H20 H -0.1620 1.3254 0.7973
H21 H -0.2804 1.2847 0.8761
C26 C -0.12082(15) 1.16968(9) 0.85390(8)
H22 H -0.1825 1.1198 0.8906
H23 H -0.0403 1.1659 0.8873
C27 C -0.04440(14) 1.14350(8) 0.77748(7)
H24 H 0.0041 1.1985 0.7363
H25 H -0.1237 1.1366 0.7492
C28 C 0.07850(14) 1.04485(8) 0.80554(7)
H26 H 0.1605 1.0534 0.8308
H27 H 0.0311 0.9910 0.8495
C29 C 0.14983(13) 1.01321(8) 0.73175(7)
C30 C 0.13955(12) 0.91962(8) 0.73041(7)
C31 C 0.01664(12) 0.76997(8) 0.71412(7)
C32 C -0.05872(12) 0.70204(8) 0.70522(7)
C33 C 0.10436(12) 0.83266(8) 0.80726(7)
C34 C 0.02469(12) 0.76656(8) 0.79822(7)
C35 C -0.14314(12) 0.63707(8) 0.77958(7)
C36 C -0.23600(13) 0.57846(8) 0.77150(8)
H28 H -0.2446 0.5808 0.7175
C37 C 0.42670(15) 0.76524(10) 0.93968(10)
H29 H 0.4842 0.7452 0.8943
H30 H 0.3939 0.7059 0.9850
C38 C 0.28274(13) 0.84725(8) 0.90392(7)
H31 H 0.2421 0.8801 0.9436
H32 H 0.3137 0.8983 0.8497
C39 C 0.15385(13) 0.80686(8) 0.88960(7)
C40 C -0.04057(12) 0.69404(8) 0.87205(7)
C41 C -0.13204(12) 0.63225(8) 0.86252(7)
C42 C -0.31496(13) 0.51726(8) 0.84283(8)
H33 H -0.3776 0.4799 0.8361
C43 C 0.08966(13) 0.73530(8) 0.96054(7)
H34 H 0.1188 0.7206 1.0147
C44 C -0.01733(12) 0.68378(8) 0.95459(7)
C45 C -0.20953(12) 0.56694(8) 0.93596(7)
C46 C -0.30175(13) 0.51102(8) 0.92397(8)
H35 H -0.3550 0.4690 0.9713
C47 C -0.09907(12) 0.61891(8) 1.03052(7)
C48 C -0.19373(12) 0.56110(8) 1.02144(7)
C49 C -0.09131(13) 0.61634(8) 1.11224(7)
H36 H -0.0290 0.6547 1.1178
C50 C -0.27180(13) 0.50024(8) 1.09624(8)
H37 H -0.3312 0.4595 1.0920
C51 C -0.45112(18) 0.82811(12) 1.21925(11)
H38 H -0.3900 0.8627 1.1685
H39 H -0.4363 0.8446 1.2653
H40 H -0.5592 0.8491 1.2078
C52 C -0.16866(15) 0.56500(9) 1.27012(8)
H41 H -0.0625 0.5412 1.2872
H42 H -0.2317 0.5203 1.3135
C53 C -0.17246(13) 0.55918(8) 1.18481(7)
C54 C -0.26213(14) 0.49967(8) 1.17548(8)
H43 H -0.3159 0.4592 1.2236
C55 C 0.6174(2) 0.88093(14) 0.90554(13)
H44 H 0.5414 0.9389 0.8745
H45 H 0.6783 0.8518 0.8669
H46 H 0.6845 0.9015 0.9303
C56 C 0.53576(19) 0.80295(12) 0.97626(12)
H47 H 0.4747 0.8325 1.0153
H48 H 0.6130 0.7455 1.0087
C57 C -0.39928(17) 0.71216(11) 1.24516(10)
H49 H -0.4647 0.6779 1.2948
H50 H -0.4145 0.6961 1.1983
C58 C -0.22833(18) 0.67167(10) 1.26669(9)
H51 H -0.1651 0.7165 1.2235
H52 H -0.2179 0.6718 1.3219
C59? C 0.5659(6) 0.8219(4) 0.9178(4)
H53? H 0.6650 0.7775 0.9131
H54? H 0.5528 0.8820 0.8645
C60? C 0.5554(8) 0.8504(5) 0.9950(4)
H55? H 0.4605 0.8988 0.9952
H56? H 0.6427 0.8796 0.9906
H57? H 0.5566 0.7905 1.0473
C61? C -0.3154(12) 0.7639(8) 1.2042(7)
H58? H -0.2241 0.7871 1.2061
H59? H -0.3133 0.7624 1.1482
C62? C -0.3180(13) 0.6680(7) 1.2690(6)
H60? H -0.4153 0.6508 1.2676
H61? H -0.3216 0.6737 1.3235
loop_
_geom_bond_atom_site_label_1
_geom_bond_atom_site_label_2
_geom_bond_site_symmetry_1
_geom_bond_site_symmetry_2
C1 H1 1_555 1_555
C2 C1 1_555 1_555
H2 C2 1_555 1_555
C3 H3 1_555 1_555
C4 C3 1_555 1_555
H4 C4 1_555 1_555
C5 H5 1_555 1_555
H6 C5 1_555 1_555
H7 C5 1_555 1_555
C6 C5 1_555 1_555
H8 C6 1_555 1_555
H9 C6 1_555 1_555
C7 C6 1_555 1_555
H10 C7 1_555 1_555
H11 C7 1_555 1_555
C8 C7 1_555 1_555
H12 C8 1_555 1_555
H13 C8 1_555 1_555
C9 C1 1_555 1_555
C10 C2 1_555 1_555
C11 C3 1_555 1_555
C12 C4 1_555 1_555
H14 C12 1_555 1_555
C13 C9 1_555 1_555
H15 C13 1_555 1_555
C14 C10 1_555 1_555
C15 C11 1_555 1_555
C16 C12 1_555 1_555
C17 C14 1_555 1_555
C18 C15 1_555 1_555
C19 C16 1_555 1_555
C20 C19 1_555 1_555
H16 C20 1_555 1_555
C21 C17 1_555 1_555
H17 C21 1_555 1_555
C22 C18 1_555 1_555
C23 C19 1_555 1_555
C24 C20 1_555 1_555
H18 C24 1_555 1_555
C25 H19 1_555 1_555
H20 C25 1_555 1_555
H21 C25 1_555 1_555
C26 C25 1_555 1_555
H22 C26 1_555 1_555
H23 C26 1_555 1_555
C27 C26 1_555 1_555
H24 C27 1_555 1_555
H25 C27 1_555 1_555
C28 C27 1_555 1_555
H26 C28 1_555 1_555
H27 C28 1_555 1_555
C29 C21 1_555 1_555
C30 C22 1_555 1_555
C31 C23 1_555 1_555
C32 C24 1_555 1_555
C33 C30 1_555 1_555
C34 C31 1_555 1_555
C35 C32 1_555 1_555
C36 C35 1_555 1_555
H28 C36 1_555 1_555
C37 H29 1_555 1_555
H30 C37 1_555 1_555
C38 C37 1_555 1_555
H31 C38 1_555 1_555
H32 C38 1_555 1_555
C39 C33 1_555 1_555
C40 C34 1_555 1_555
C41 C35 1_555 1_555
C42 C36 1_555 1_555
H33 C42 1_555 1_555
C43 C39 1_555 1_555
H34 C43 1_555 1_555
C44 C40 1_555 1_555
C45 C41 1_555 1_555
C46 C42 1_555 1_555
H35 C46 1_555 1_555
C47 C44 1_555 1_555
C48 C45 1_555 1_555
C49 C47 1_555 1_555
H36 C49 1_555 1_555
C50 C48 1_555 1_555
H37 C50 1_555 1_555
C51 H38 1_555 1_555
H39 C51 1_555 1_555
H40 C51 1_555 1_555
C52 H41 1_555 1_555
H42 C52 1_555 1_555
C53 C49 1_555 1_555
C54 C50 1_555 1_555
H43 C54 1_555 1_555
C55 H44 1_555 1_555
H45 C55 1_555 1_555
H46 C55 1_555 1_555
C56 C37 1_555 1_555
H47 C56 1_555 1_555
H48 C56 1_555 1_555
C57 C51 1_555 1_555
H49 C57 1_555 1_555
H50 C57 1_555 1_555
C58 C52 1_555 1_555
H51 C58 1_555 1_555
H52 C58 1_555 1_555
C8 C9 1_555 1_555
C10 C11 1_555 1_555
C13 C14 1_555 1_555
C15 C16 1_555 1_555
C17 C18 1_555 1_555
C22 C23 1_555 1_555
C28 C29 1_555 1_555
C29 C30 1_555 1_555
C31 C32 1_555 1_555
C33 C34 1_555 1_555
C38 C39 1_555 1_555
C40 C41 1_555 1_555
C43 C44 1_555 1_555
C45 C46 1_555 1_555
C47 C48 1_555 1_555
C52 C53 1_555 1_555
C53 C54 1_555 1_555
C55 C56 1_555 1_555
C57 C58 1_555 1_555

#END
