
#######################################################################
#
#                 Cambridge Crystallographic Data Centre
#                                CCDC 
#
#######################################################################
#
# If this CIF has been generated from an entry in the Cambridge 
# Structural Database, then it will include bibliographic, chemical, 
# crystal, experimental, refinement or atomic coordinate data resulting 
# from the CCDC's data processing and validation procedures.
#
#######################################################################

data_ZEFYOB
_chemical_formula_moiety         'C12 H16 O3'
_chemical_name_systematic        
4,4,7-trimethyl-3,5-dioxatricyclo[5.2.2.0^2,6^]undec-10-en-8-one
_symmetry_cell_setting           trigonal
_symmetry_space_group_name_H-M   'P 32 2 1'
_symmetry_Int_Tables_number      154
_space_group_name_Hall           'P 32 2"'
loop_
_symmetry_equiv_pos_site_id
_symmetry_equiv_pos_as_xyz
1 x,y,z
2 -y,x-y,2/3+z
3 -x+y,-x,1/3+z
4 y,x,-z
5 x-y,-y,1/3-z
6 -x,-x+y,2/3-z
_cell_length_a                   10.5437(1)
_cell_length_b                   10.5437(1)
_cell_length_c                   17.0184(1)
_cell_angle_alpha                90
_cell_angle_beta                 90
_cell_angle_gamma                120
_cell_volume                     1638.46
_exptl_crystal_colour            colorless
_exptl_crystal_description       block
_cell_formula_units_Z            6
loop_
_atom_site_label
_atom_site_type_symbol
_atom_site_fract_x
_atom_site_fract_y
_atom_site_fract_z
O1 O 0.83984(12) 0.94941(9) 0.07653(5)
O2 O 0.57351(8) 0.58413(8) 0.26304(4)
O3 O 0.75023(9) 0.52333(8) 0.27699(4)
C1 C 0.74265(16) 0.54570(13) 0.10733(6)
C2 C 0.64116(15) 0.58356(11) 0.10017(6)
C3 C 0.67183(13) 0.72306(11) 0.14224(6)
C4 C 0.70127(12) 0.70455(11) 0.22992(5)
C5 C 0.82043(12) 0.66105(12) 0.23773(6)
C6 C 0.87349(15) 0.64706(14) 0.15573(7)
C7 C 0.82080(15) 0.83903(12) 0.10926(6)
C8 C 0.94049(16) 0.80108(14) 0.11952(8)
C9 C 0.55539(15) 0.76585(14) 0.13223(7)
C10 C 0.62179(11) 0.50852(11) 0.31355(5)
C11 C 0.50614(13) 0.34889(12) 0.31444(7)
C12 C 0.65687(15) 0.57787(15) 0.39479(6)
H1 H 0.7393(17) 0.4605(18) 0.0857(9)
H2 H 0.5477(16) 0.5313(16) 0.0711(8)
H3 H 0.7287(14) 0.7992(15) 0.2575(7)
H4 H 0.9057(15) 0.7379(16) 0.2691(8)
H5 H 0.9438(17) 0.6177(16) 0.1599(8)
H6 H 1.0204(19) 0.8759(19) 0.1536(9)
H7 H 0.9828(18) 0.8084(18) 0.0680(10)
H8 H 0.5818(19) 0.859(2) 0.1604(10)
H9 H 0.548(2) 0.7825(19) 0.0778(10)
H10 H 0.460(2) 0.690(2) 0.1545(10)
H11 H 0.5379(18) 0.2938(18) 0.3459(9)
H12 H 0.4134(17) 0.3386(18) 0.3376(9)
H13 H 0.4862(18) 0.3084(17) 0.2585(9)
H14 H 0.6939(19) 0.5299(19) 0.4256(10)
H15 H 0.7343(19) 0.6828(19) 0.3912(10)
H16 H 0.5668(19) 0.5739(18) 0.4199(9)
loop_
_geom_bond_atom_site_label_1
_geom_bond_atom_site_label_2
_geom_bond_site_symmetry_1
_geom_bond_site_symmetry_2
O1 C7 1_555 1_555
O2 C4 1_555 1_555
O3 C5 1_555 1_555
C1 C2 1_555 1_555
C2 C3 1_555 1_555
C3 C4 1_555 1_555
C4 C5 1_555 1_555
C5 C6 1_555 1_555
C6 C1 1_555 1_555
C7 C3 1_555 1_555
C8 C6 1_555 1_555
C9 C3 1_555 1_555
C10 O2 1_555 1_555
C11 C10 1_555 1_555
C12 C10 1_555 1_555
H1 C1 1_555 1_555
H2 C2 1_555 1_555
H3 C4 1_555 1_555
H4 C5 1_555 1_555
H5 C6 1_555 1_555
H6 C8 1_555 1_555
H7 C8 1_555 1_555
H8 C9 1_555 1_555
H9 C9 1_555 1_555
H10 C9 1_555 1_555
H11 C11 1_555 1_555
H12 C11 1_555 1_555
H13 C11 1_555 1_555
H14 C12 1_555 1_555
H15 C12 1_555 1_555
H16 C12 1_555 1_555
O3 C10 1_555 1_555
C7 C8 1_555 1_555

#END
