
#######################################################################
#
#                 Cambridge Crystallographic Data Centre
#                                CCDC 
#
#######################################################################
#
# If this CIF has been generated from an entry in the Cambridge 
# Structural Database, then it will include bibliographic, chemical, 
# crystal, experimental, refinement or atomic coordinate data resulting 
# from the CCDC's data processing and validation procedures.
#
#######################################################################

data_ZEFZAO
_chemical_formula_moiety         'C11 H16 O4'
_chemical_name_systematic        
5-(1,3-dioxolan-2-yl(hydroxy)methyl)-2-methylcyclohex-2-en-1-one
_symmetry_cell_setting           orthorhombic
_symmetry_space_group_name_H-M   'P 21 21 21'
_symmetry_Int_Tables_number      19
_space_group_name_Hall           'P 2ac 2ab'
loop_
_symmetry_equiv_pos_site_id
_symmetry_equiv_pos_as_xyz
1 x,y,z
2 1/2+x,1/2-y,-z
3 -x,1/2+y,1/2-z
4 1/2-x,-y,1/2+z
_cell_length_a                   5.2471(3)
_cell_length_b                   10.1800(4)
_cell_length_c                   19.7165(9)
_cell_angle_alpha                90
_cell_angle_beta                 90
_cell_angle_gamma                90
_cell_volume                     1053.17
_exptl_crystal_colour            colorless
_exptl_crystal_description       lath
_cell_formula_units_Z            4
_exptl_crystal_recrystallization_method 
'ethyl acetate / petroleum spirits / n-hexane.'
loop_
_atom_site_label
_atom_site_type_symbol
_atom_site_fract_x
_atom_site_fract_y
_atom_site_fract_z
O1 O 0.2746(6) 0.4882(3) 0.71019(13)
O2 O 1.0307(5) 0.5304(3) 0.53570(13)
O3 O 0.4391(5) 0.5606(3) 0.44083(12)
O4 O 0.8250(5) 0.6545(3) 0.42097(12)
C1 C 0.2688(8) 0.2133(4) 0.72489(17)
C2 C 0.4320(8) 0.2838(3) 0.67412(16)
C3 C 0.5966(8) 0.2230(4) 0.63346(16)
C4 C 0.7527(8) 0.2878(3) 0.57959(17)
C5 C 0.6380(7) 0.4191(3) 0.55896(14)
C6 C 0.5891(7) 0.5001(3) 0.62276(15)
C7 C 0.4151(8) 0.4294(3) 0.67167(16)
C8 C 0.7989(6) 0.4875(4) 0.50548(16)
C9 C 0.6682(7) 0.6037(3) 0.47252(17)
C10 C 0.4214(8) 0.6262(5) 0.37728(18)
C11 C 0.6746(8) 0.6769(5) 0.3631(2)
H1 H 1.161(10) 0.547(5) 0.505(2)
H2 H 0.2777 0.1208 0.7187
H3 H 0.0958 0.2407 0.7198
H4 H 0.3236 0.2361 0.7708
H5 H 0.6202 0.1308 0.6385
H6 H 0.7610 0.2311 0.5395
H7 H 0.9254 0.3024 0.5965
H8 H 0.4689 0.4013 0.5393
H9 H 0.5035 0.5827 0.6101
H10 H 0.7479 0.5197 0.6454
H11 H 0.8371 0.4240 0.4697
H12 H 0.6347 0.6741 0.5056
H13 H 0.3564 0.5652 0.3435
H14 H 0.3015 0.6984 0.3831
H15 H 0.7495 0.6339 0.3247
H16 H 0.6682 0.7682 0.3541
loop_
_geom_bond_atom_site_label_1
_geom_bond_atom_site_label_2
_geom_bond_site_symmetry_1
_geom_bond_site_symmetry_2
O1 C7 1_555 1_555
O2 C8 1_555 1_555
O3 C9 1_555 1_555
O4 C9 1_555 1_555
C1 C2 1_555 1_555
C2 C3 1_555 1_555
C3 C4 1_555 1_555
C4 C5 1_555 1_555
C5 C6 1_555 1_555
C6 C7 1_555 1_555
C7 C2 1_555 1_555
C8 C5 1_555 1_555
C9 C8 1_555 1_555
C10 O3 1_555 1_555
C11 O4 1_555 1_555
H1 O2 1_555 1_555
H2 C1 1_555 1_555
H3 C1 1_555 1_555
H4 C1 1_555 1_555
H5 C3 1_555 1_555
H6 C4 1_555 1_555
H7 C4 1_555 1_555
H8 C5 1_555 1_555
H9 C6 1_555 1_555
H10 C6 1_555 1_555
H11 C8 1_555 1_555
H12 C9 1_555 1_555
H13 C10 1_555 1_555
H14 C10 1_555 1_555
H15 C11 1_555 1_555
H16 C11 1_555 1_555
C10 C11 1_555 1_555

#END
