
#######################################################################
#
#                 Cambridge Crystallographic Data Centre
#                                CCDC 
#
#######################################################################
#
# If this CIF has been generated from an entry in the Cambridge 
# Structural Database, then it will include bibliographic, chemical, 
# crystal, experimental, refinement or atomic coordinate data resulting 
# from the CCDC's data processing and validation procedures.
#
#######################################################################

data_ZEFZIW
_chemical_formula_moiety         'C13 H18 O5'
_chemical_name_systematic        
'3-hydroxy-1-methylbicyclo[2.2.2]oct-7-ene-2,6-diyl diacetate'
_symmetry_cell_setting           orthorhombic
_symmetry_space_group_name_H-M   'P 21 21 21'
_symmetry_Int_Tables_number      19
_space_group_name_Hall           'P 2ac 2ab'
loop_
_symmetry_equiv_pos_site_id
_symmetry_equiv_pos_as_xyz
1 x,y,z
2 1/2+x,1/2-y,-z
3 -x,1/2+y,1/2-z
4 1/2-x,-y,1/2+z
_cell_length_a                   7.0640(1)
_cell_length_b                   8.5640(1)
_cell_length_c                   21.1355(2)
_cell_angle_alpha                90
_cell_angle_beta                 90
_cell_angle_gamma                90
_cell_volume                     1278.62
_exptl_crystal_colour            colorless
_exptl_crystal_description       block
_cell_formula_units_Z            4
_exptl_crystal_recrystallization_method 'ethyl acetate / petroleum benzene'
loop_
_atom_site_label
_atom_site_type_symbol
_atom_site_fract_x
_atom_site_fract_y
_atom_site_fract_z
O1 O 0.76862(10) 0.32765(9) 0.66175(3)
O2 O 0.93924(13) 0.12442(10) 0.62595(4)
O3 O 0.94832(14) 0.32388(11) 0.50897(4)
O4 O 0.51371(11) 0.76016(9) 0.62979(4)
O5 O 0.66749(14) 0.87756(11) 0.70927(4)
C1 C 0.56792(15) 0.49424(12) 0.59788(5)
C2 C 0.53269(18) 0.53614(12) 0.52929(5)
C3 C 0.68279(19) 0.58311(13) 0.49722(5)
C4 C 0.86381(18) 0.58674(13) 0.53472(5)
C5 C 0.90041(16) 0.42296(13) 0.56057(5)
C6 C 0.72217(15) 0.36650(12) 0.59623(5)
C7 C 0.65769(15) 0.63812(12) 0.62982(5)
C8 C 0.83360(17) 0.69249(14) 0.59303(5)
C9 C 0.39023(15) 0.43936(13) 0.63175(6)
C10 C 0.88139(16) 0.20207(13) 0.66933(5)
C11 C 0.92643(18) 0.17575(15) 0.73794(6)
C12 C 0.54105(17) 0.87644(13) 0.67155(5)
C13 C 0.3969(2) 1.00296(15) 0.66352(7)
H1 H 0.974(3) 0.230(2) 0.5249(8)
H2 H 0.4087 0.5300 0.5125
H3 H 0.6787 0.6121 0.4542
H4 H 0.9688 0.6199 0.5101
H5 H 1.0043 0.4276 0.5908
H6 H 0.6713 0.2698 0.5767
H7 H 0.6881 0.6140 0.6740
H8 H 0.9463 0.6876 0.6201
H9 H 0.8163 0.8008 0.5812
H10 H 0.4163 0.4152 0.6757
H11 H 0.2949 0.5222 0.6301
H12 H 0.3357 0.3475 0.6109
H13 H 0.9647 0.0708 0.7435
H14 H 1.0258 0.2487 0.7504
H15 H 0.8190 0.1971 0.7640
H16 H 0.4096 1.0784 0.6958
H17 H 0.2737 0.9620 0.6645
H18 H 0.4143 1.0534 0.6221
loop_
_geom_bond_atom_site_label_1
_geom_bond_atom_site_label_2
_geom_bond_site_symmetry_1
_geom_bond_site_symmetry_2
O1 C6 1_555 1_555
O2 C10 1_555 1_555
O3 C5 1_555 1_555
O4 C7 1_555 1_555
O5 C12 1_555 1_555
C1 C2 1_555 1_555
C2 C3 1_555 1_555
C3 C4 1_555 1_555
C4 C5 1_555 1_555
C5 C6 1_555 1_555
C6 C1 1_555 1_555
C7 C1 1_555 1_555
C8 C4 1_555 1_555
C9 C1 1_555 1_555
C10 O1 1_555 1_555
C11 C10 1_555 1_555
C12 O4 1_555 1_555
C13 C12 1_555 1_555
H1 O3 1_555 1_555
H2 C2 1_555 1_555
H3 C3 1_555 1_555
H4 C4 1_555 1_555
H5 C5 1_555 1_555
H6 C6 1_555 1_555
H7 C7 1_555 1_555
H8 C8 1_555 1_555
H9 C8 1_555 1_555
H10 C9 1_555 1_555
H11 C9 1_555 1_555
H12 C9 1_555 1_555
H13 C11 1_555 1_555
H14 C11 1_555 1_555
H15 C11 1_555 1_555
H16 C13 1_555 1_555
H17 C13 1_555 1_555
H18 C13 1_555 1_555
C7 C8 1_555 1_555

#END
