
#######################################################################
#
#                 Cambridge Crystallographic Data Centre
#                                CCDC 
#
#######################################################################
#
# If this CIF has been generated from an entry in the Cambridge 
# Structural Database, then it will include bibliographic, chemical, 
# crystal, experimental, refinement or atomic coordinate data resulting 
# from the CCDC's data processing and validation procedures.
#
#######################################################################

data_ZEGJAY
_chemical_formula_moiety         'C31 H25 N1 O4 S2 Si1'
_chemical_name_systematic        
"4-(4-((Trimethylsilyl)ethynyl)phenyl)dinaphtho[2,1-d:1',2'-f][1,3,2]dithiazepine 3,3,5,5-tetraoxide"
_symmetry_cell_setting           monoclinic
_symmetry_space_group_name_H-M   'P 21'
_symmetry_Int_Tables_number      4
_space_group_name_Hall           'P 2yb'
loop_
_symmetry_equiv_pos_site_id
_symmetry_equiv_pos_as_xyz
1 x,y,z
2 -x,1/2+y,-z
_cell_length_a                   9.5751(3)
_cell_length_b                   14.6142(5)
_cell_length_c                   10.3886(3)
_cell_angle_alpha                90
_cell_angle_beta                 102.503(2)
_cell_angle_gamma                90
_cell_volume                     1419.23
_exptl_crystal_colour            colorless
_exptl_crystal_description       cube
_cell_formula_units_Z            2
loop_
_atom_site_label
_atom_site_type_symbol
_atom_site_fract_x
_atom_site_fract_y
_atom_site_fract_z
S1 S 0.17349(5) 0.44433(4) 0.86548(5)
S2 S 0.20244(5) 0.62586(4) 0.75095(5)
Si1 Si -0.70167(6) 0.31306(5) 0.35012(6)
O1 O 0.15349(17) 0.35710(12) 0.80216(17)
O2 O 0.09752(15) 0.46203(11) 0.96758(14)
O3 O 0.34314(16) 0.61460(12) 0.72776(14)
O4 O 0.10066(17) 0.68231(12) 0.66450(15)
N1 N 0.12515(19) 0.52167(14) 0.74307(18)
C1 C 0.4048(2) 0.54342(15) 0.9959(2)
C2 C 0.3572(2) 0.46588(15) 0.9233(2)
C3 C 0.4500(2) 0.39768(17) 0.8929(2)
C4 C 0.5929(2) 0.40658(17) 0.9401(2)
C5 C 0.7991(2) 0.49297(18) 1.0659(2)
C6 C 0.8544(3) 0.56858(18) 1.1356(3)
C7 C 0.7631(3) 0.63960(17) 1.1574(2)
C8 C 0.6179(2) 0.63300(16) 1.1117(2)
C9 C 0.5559(2) 0.55457(15) 1.0423(2)
C10 C 0.6496(2) 0.48370(17) 1.0166(2)
C11 C 0.3020(2) 0.61538(15) 1.01969(19)
C12 C 0.2101(2) 0.65847(16) 0.9157(2)
C13 C 0.1084(2) 0.72423(15) 0.9343(2)
C14 C 0.1000(2) 0.74930(17) 1.0584(2)
C15 C 0.1828(3) 0.73445(17) 1.2998(2)
C16 C 0.2666(3) 0.69311(17) 1.4065(2)
C17 C 0.3602(3) 0.62241(18) 1.3893(2)
C18 C 0.3722(2) 0.59545(16) 1.2649(2)
C19 C 0.2910(2) 0.63956(15) 1.1519(2)
C20 C 0.1913(2) 0.70811(16) 1.1698(2)
C21 C -0.0193(2) 0.50632(17) 0.6675(2)
C22 C -0.1372(2) 0.52208(17) 0.7209(2)
C23 C -0.2718(2) 0.49493(17) 0.6519(2)
C24 C -0.2877(2) 0.45167(17) 0.5303(2)
C25 C -0.1680(3) 0.4395(2) 0.4753(2)
C26 C -0.0340(3) 0.4662(2) 0.5446(2)
C27 C -0.4235(3) 0.41331(18) 0.4651(2)
C28 C -0.5341(3) 0.37613(18) 0.4151(2)
C29 C -0.7417(3) 0.2452(2) 0.4897(3)
C30 C -0.8455(3) 0.39816(19) 0.2895(2)
C31 C -0.6724(3) 0.2409(2) 0.2107(3)
H1 H 0.409(3) 0.344(2) 0.845(3)
H2 H 0.658(3) 0.358(2) 0.929(3)
H3 H 0.854(3) 0.444(3) 1.051(3)
H4 H 0.958(3) 0.570(2) 1.173(3)
H5 H 0.565(3) 0.679(2) 1.129(2)
H6 H 0.048(4) 0.760(3) 0.861(3)
H7 H 0.031(3) 0.793(2) 1.063(2)
H8 H 0.115(3) 0.785(2) 1.309(3)
H9 H 0.257(3) 0.710(2) 1.491(3)
H10 H 0.436(3) 0.5437(18) 1.254(2)
H11 H -0.131(3) 0.549(2) 0.796(3)
H12 H -0.353(3) 0.508(2) 0.688(3)
H13 H -0.182(4) 0.411(3) 0.385(4)
H14 H 0.060(3) 0.452(3) 0.518(3)
H15 H -0.753(3) 0.284(2) 0.559(3)
H16 H -0.831(4) 0.200(3) 0.463(3)
H17 H -0.666(4) 0.200(3) 0.530(4)
H18 H -0.834(3) 0.456(2) 0.344(3)
H19 H -0.942(4) 0.375(3) 0.283(3)
H20 H -0.849(4) 0.412(3) 0.197(4)
H21 H -0.638(3) 0.293(3) 0.144(3)
H22 H -0.762(4) 0.210(3) 0.174(3)
H23 H -0.602(4) 0.194(3) 0.248(3)
H24 H 0.798(4) 0.697(3) 1.200(3)
H25 H 0.421(3) 0.597(2) 1.461(3)
loop_
_geom_bond_atom_site_label_1
_geom_bond_atom_site_label_2
_geom_bond_site_symmetry_1
_geom_bond_site_symmetry_2
S1 O1 1_555 1_555
S2 O3 1_555 1_555
Si1 C28 1_555 1_555
O2 S1 1_555 1_555
O4 S2 1_555 1_555
N1 S1 1_555 1_555
C1 C2 1_555 1_555
C2 S1 1_555 1_555
C3 C2 1_555 1_555
C4 C3 1_555 1_555
C5 C6 1_555 1_555
C6 C7 1_555 1_555
C7 C8 1_555 1_555
C8 C9 1_555 1_555
C9 C1 1_555 1_555
C10 C4 1_555 1_555
C11 C1 1_555 1_555
C12 S2 1_555 1_555
C13 C12 1_555 1_555
C14 C13 1_555 1_555
C15 C16 1_555 1_555
C16 C17 1_555 1_555
C17 C18 1_555 1_555
C18 C19 1_555 1_555
C19 C11 1_555 1_555
C20 C14 1_555 1_555
C21 N1 1_555 1_555
C22 C21 1_555 1_555
C23 C22 1_555 1_555
C24 C23 1_555 1_555
C25 C24 1_555 1_555
C26 C21 1_555 1_555
C27 C24 1_555 1_555
C28 C27 1_555 1_555
C29 Si1 1_555 1_555
C30 Si1 1_555 1_555
C31 Si1 1_555 1_555
H1 C3 1_555 1_555
H2 C4 1_555 1_555
H3 C5 1_555 1_555
H4 C6 1_555 1_555
H5 C8 1_555 1_555
H6 C13 1_555 1_555
H7 C14 1_555 1_555
H8 C15 1_555 1_555
H9 C16 1_555 1_555
H10 C18 1_555 1_555
H11 C22 1_555 1_555
H12 C23 1_555 1_555
H13 C25 1_555 1_555
H14 C26 1_555 1_555
H15 C29 1_555 1_555
H16 C29 1_555 1_555
H17 C29 1_555 1_555
H18 C30 1_555 1_555
H19 C30 1_555 1_555
H20 C30 1_555 1_555
H21 C31 1_555 1_555
H22 C31 1_555 1_555
H23 C31 1_555 1_555
H24 C7 1_555 1_555
H25 C17 1_555 1_555
S2 N1 1_555 1_555
C5 C10 1_555 1_555
C9 C10 1_555 1_555
C11 C12 1_555 1_555
C15 C20 1_555 1_555
C19 C20 1_555 1_555
C25 C26 1_555 1_555

#END
