
#######################################################################
#
#                 Cambridge Crystallographic Data Centre
#                                CCDC 
#
#######################################################################
#
# If this CIF has been generated from an entry in the Cambridge 
# Structural Database, then it will include bibliographic, chemical, 
# crystal, experimental, refinement or atomic coordinate data resulting 
# from the CCDC's data processing and validation procedures.
#
#######################################################################

data_ZEGLOM
_chemical_formula_moiety         'C16 H10 B2 O6'
_chemical_name_systematic        
2,6-Diphenyl-1,3,5,7-tetraoxa-2,6-dibora-4,8-octalindione
_symmetry_cell_setting           monoclinic
_symmetry_space_group_name_H-M   'P 21/c'
_symmetry_Int_Tables_number      14
_space_group_name_Hall           '-P 2ybc'
loop_
_symmetry_equiv_pos_site_id
_symmetry_equiv_pos_as_xyz
1 x,y,z
2 -x,1/2+y,1/2-z
3 -x,-y,-z
4 x,1/2-y,1/2+z
_cell_length_a                   14.846(6)
_cell_length_b                   5.362(8)
_cell_length_c                   9.214(2)
_cell_angle_alpha                90
_cell_angle_beta                 97.73(3)
_cell_angle_gamma                90
_cell_volume                     726.808
_cell_formula_units_Z            2
loop_
_atom_site_label
_atom_site_type_symbol
_atom_site_fract_x
_atom_site_fract_y
_atom_site_fract_z
C1 C 1.02250 0.22190 0.88140
O1 O 0.93300 0.13970 0.86530
B1 B 0.86250 0.25780 0.92100
O2 O 0.87780 0.46840 1.00440
C2 C 1.03280 0.44000 0.97160
O3 O 1.07960 0.11000 0.82990
C3 C 0.76480 0.14960 0.89260
C4 C 0.74760 -0.06360 0.80660
C5 C 0.65960 -0.15970 0.77950
C6 C 0.58880 -0.04260 0.83830
C7 C 0.60600 0.17060 0.92430
C8 C 0.69400 0.26670 0.95150
H1 H 0.79630 -0.14420 0.76610
H2 H 0.64770 -0.30650 0.72030
H3 H 0.52830 -0.10870 0.81970
H4 H 0.55730 0.25120 0.96490
H5 H 0.70580 0.41350 1.01070
C2B C 0.96720 0.56000 1.02840
O2B O 1.12220 0.53160 0.99560
C1B C 0.97750 0.77810 1.11860
B1B B 1.13750 0.74220 1.07900
O1B O 1.06700 0.86030 1.13470
O3B O 0.92040 0.89000 1.17010
C3B C 1.23520 0.85040 1.10740
C4B C 1.25240 1.06360 1.19340
C8B C 1.30600 0.73330 1.04850
C5B C 1.34040 1.15970 1.22050
H1B H 1.20370 1.14420 1.23390
C7B C 1.39400 0.82940 1.07570
H5B H 1.29420 0.58650 0.98930
C6B C 1.41120 1.04260 1.16170
H2B H 1.35230 1.30650 1.27970
H4B H 1.44270 0.74880 1.03510
H3B H 1.47170 1.10870 1.18030
loop_
_geom_bond_atom_site_label_1
_geom_bond_atom_site_label_2
_geom_bond_site_symmetry_1
_geom_bond_site_symmetry_2
C1 O1 1_555 1_555
O1 B1 1_555 1_555
B1 O2 1_555 1_555
O2 C2B 1_555 1_555
C2 C1 1_555 1_555
O3 C1 1_555 1_555
C3 B1 1_555 1_555
C4 C3 1_555 1_555
C5 C4 1_555 1_555
C6 C5 1_555 1_555
C7 C6 1_555 1_555
C8 C3 1_555 1_555
H1 C4 1_555 1_555
H2 C5 1_555 1_555
H3 C6 1_555 1_555
H4 C7 1_555 1_555
H5 C8 1_555 1_555
C2B C2 1_555 1_555
O2B C2 1_555 1_555
C1B C2B 1_555 1_555
B1B O2B 1_555 1_555
O1B C1B 1_555 1_555
O3B C1B 1_555 1_555
C3B B1B 1_555 1_555
C4B C3B 1_555 1_555
C8B C3B 1_555 1_555
C5B C4B 1_555 1_555
H1B C4B 1_555 1_555
C7B C8B 1_555 1_555
H5B C8B 1_555 1_555
C6B C5B 1_555 1_555
H2B C5B 1_555 1_555
H4B C7B 1_555 1_555
H3B C6B 1_555 1_555
C7 C8 1_555 1_555
B1B O1B 1_555 1_555
C7B C6B 1_555 1_555

#END
