
#######################################################################
#
#                 Cambridge Crystallographic Data Centre
#                                CCDC 
#
#######################################################################
#
# If this CIF has been generated from an entry in the Cambridge 
# Structural Database, then it will include bibliographic, chemical, 
# crystal, experimental, refinement or atomic coordinate data resulting 
# from the CCDC's data processing and validation procedures.
#
#######################################################################

data_ZEGNUX
_chemical_formula_moiety         'C28 H26 O2'
_chemical_name_systematic        2,8-dibutylindeno[1,2-b]fluorene-6,12-dione
_symmetry_cell_setting           triclinic
_symmetry_space_group_name_H-M   'P -1'
_symmetry_Int_Tables_number      2
_space_group_name_Hall           '-P 1'
loop_
_symmetry_equiv_pos_site_id
_symmetry_equiv_pos_as_xyz
1 x,y,z
2 -x,-y,-z
_cell_length_a                   4.8449(6)
_cell_length_b                   7.9008(13)
_cell_length_c                   14.377(2)
_cell_angle_alpha                96.307(13)
_cell_angle_beta                 92.322(11)
_cell_angle_gamma                102.277(12)
_cell_volume                     533.334
_exptl_crystal_colour            'dark orange'
_exptl_crystal_description       needle
_cell_formula_units_Z            1
loop_
_atom_site_label
_atom_site_type_symbol
_atom_site_fract_x
_atom_site_fract_y
_atom_site_fract_z
O1 O 0.3505(4) -0.2761(2) 0.83205(14)
C1 C 0.4885(5) 0.0388(3) 0.83309(17)
C2 C 0.3335(5) -0.1289(3) 0.86162(17)
C3 C 0.1482(5) -0.0777(3) 0.93584(16)
C4 C 0.1897(5) 0.1047(3) 0.94929(16)
C5 C 0.0395(5) 0.1850(3) 1.01407(17)
H1 H 0.0636 0.3058 1.0236
C6 C 0.4026(5) 0.1776(3) 0.88428(16)
C7 C 0.5167(5) 0.3462(3) 0.86991(18)
H2 H 0.4614 0.4393 0.9037
C8 C 0.7187(6) 0.3746(4) 0.80315(19)
H3 H 0.7975 0.4886 0.7932
C9 C 0.8056(5) 0.2389(4) 0.75132(18)
C10 C 0.6875(5) 0.0677(4) 0.76704(18)
H4 H 0.7423 -0.0257 0.7334
C11 C 1.0125(6) 0.2716(4) 0.67599(18)
H5 H 1.1408 0.1929 0.6779
H6 H 1.1241 0.3901 0.6885
C12 C 0.8630(6) 0.2452(4) 0.57865(19)
H7 H 0.7420 0.1292 0.5684
H8 H 0.7425 0.3285 0.5764
C13 C 1.0612(7) 0.2661(4) 0.4997(2)
H9 H 1.1812 0.1824 0.5015
H10 H 1.1826 0.3820 0.5098
C14 C 0.9059(9) 0.2395(5) 0.4027(2)
H11 H 1.0410 0.2636 0.3562
H12 H 0.7783 0.3171 0.4015
H13 H 0.8009 0.1210 0.3895
O1A O -0.3505(4) 0.2761(2) 1.16795(14)
C1A C -0.4885(5) -0.0388(3) 1.16691(17)
C2A C -0.3335(5) 0.1289(3) 1.13838(17)
C3A C -0.1482(5) 0.0777(3) 1.06416(16)
C4A C -0.1897(5) -0.1047(3) 1.05071(16)
C5A C -0.0395(5) -0.1850(3) 0.98593(17)
H1A H -0.0636 -0.3058 0.9764
C6A C -0.4026(5) -0.1776(3) 1.11572(16)
C7A C -0.5167(5) -0.3462(3) 1.13009(18)
H2A H -0.4614 -0.4393 1.0963
C8A C -0.7187(6) -0.3746(4) 1.19685(19)
H3A H -0.7975 -0.4886 1.2068
C9A C -0.8056(5) -0.2389(4) 1.24868(18)
C10A C -0.6875(5) -0.0677(4) 1.23296(18)
H4A H -0.7423 0.0257 1.2666
C11A C -1.0125(6) -0.2716(4) 1.32401(18)
H5A H -1.1408 -0.1929 1.3221
H6A H -1.1241 -0.3901 1.3115
C12A C -0.8630(6) -0.2452(4) 1.42135(19)
H7A H -0.7420 -0.1292 1.4316
H8A H -0.7425 -0.3285 1.4236
C13A C -1.0612(7) -0.2661(4) 1.5003(2)
H9A H -1.1812 -0.1824 1.4985
H10A H -1.1826 -0.3820 1.4902
C14A C -0.9059(9) -0.2395(5) 1.5973(2)
H11A H -1.0410 -0.2636 1.6438
H12A H -0.7783 -0.3171 1.5985
H13A H -0.8009 -0.1210 1.6105
loop_
_geom_bond_atom_site_label_1
_geom_bond_atom_site_label_2
_geom_bond_site_symmetry_1
_geom_bond_site_symmetry_2
O1 C2 1_555 1_555
C1 C2 1_555 1_555
C2 C3 1_555 1_555
C3 C4 1_555 1_555
C4 C5 1_555 1_555
C5 H1 1_555 1_555
C6 C1 1_555 1_555
C7 C6 1_555 1_555
H2 C7 1_555 1_555
C8 C7 1_555 1_555
H3 C8 1_555 1_555
C9 C8 1_555 1_555
C10 C1 1_555 1_555
H4 C10 1_555 1_555
C11 C9 1_555 1_555
H5 C11 1_555 1_555
H6 C11 1_555 1_555
C12 C11 1_555 1_555
H7 C12 1_555 1_555
H8 C12 1_555 1_555
C13 C12 1_555 1_555
H9 C13 1_555 1_555
H10 C13 1_555 1_555
C14 C13 1_555 1_555
H11 C14 1_555 1_555
H12 C14 1_555 1_555
H13 C14 1_555 1_555
O1A C2A 1_555 1_555
C1A C2A 1_555 1_555
C2A C3A 1_555 1_555
C3A C5 1_555 1_555
C4A C3A 1_555 1_555
C5A C3 1_555 1_555
H1A C5A 1_555 1_555
C6A C1A 1_555 1_555
C7A C6A 1_555 1_555
H2A C7A 1_555 1_555
C8A C7A 1_555 1_555
H3A C8A 1_555 1_555
C9A C8A 1_555 1_555
C10A C1A 1_555 1_555
H4A C10A 1_555 1_555
C11A C9A 1_555 1_555
H5A C11A 1_555 1_555
H6A C11A 1_555 1_555
C12A C11A 1_555 1_555
H7A C12A 1_555 1_555
H8A C12A 1_555 1_555
C13A C12A 1_555 1_555
H9A C13A 1_555 1_555
H10A C13A 1_555 1_555
C14A C13A 1_555 1_555
H11A C14A 1_555 1_555
H12A C14A 1_555 1_555
H13A C14A 1_555 1_555
C4 C6 1_555 1_555
C9 C10 1_555 1_555
C4A C5A 1_555 1_555
C4A C6A 1_555 1_555
C9A C10A 1_555 1_555

#END
