
#######################################################################
#
#                 Cambridge Crystallographic Data Centre
#                                CCDC 
#
#######################################################################
#
# If this CIF has been generated from an entry in the Cambridge 
# Structural Database, then it will include bibliographic, chemical, 
# crystal, experimental, refinement or atomic coordinate data resulting 
# from the CCDC's data processing and validation procedures.
#
#######################################################################

data_ZEGPEJ
_chemical_formula_moiety         'C36 H44 N2 O2'
_chemical_name_systematic        
2,8-bis(dibutylamino)indeno[1,2-b]fluorene-6,12-dione
_symmetry_cell_setting           monoclinic
_symmetry_space_group_name_H-M   'P 21/c'
_symmetry_Int_Tables_number      14
_space_group_name_Hall           '-P 2ybc'
loop_
_symmetry_equiv_pos_site_id
_symmetry_equiv_pos_as_xyz
1 x,y,z
2 -x,1/2+y,1/2-z
3 -x,-y,-z
4 x,1/2-y,1/2+z
_cell_length_a                   17.8003(16)
_cell_length_b                   8.5950(5)
_cell_length_c                   10.2601(9)
_cell_angle_alpha                90
_cell_angle_beta                 106.002(9)
_cell_angle_gamma                90
_cell_volume                     1508.91
_exptl_crystal_colour            'dark black'
_exptl_crystal_description       plate
_cell_formula_units_Z            2
loop_
_atom_site_label
_atom_site_type_symbol
_atom_site_fract_x
_atom_site_fract_y
_atom_site_fract_z
C1 C 0.07651(16) 0.7300(3) 0.1911(3)
O1 O 0.12884(14) 0.3597(2) 0.3345(2)
C2 C 0.17732(17) 0.8649(3) 0.4270(3)
C3 C 0.16716(17) 0.7023(3) 0.4165(3)
H1 H 0.1937 0.6379 0.4871
C4 C 0.11772(17) 0.6395(3) 0.3009(3)
C5 C 0.08726(17) 0.8880(3) 0.1983(3)
H2 H 0.0617 0.9507 0.1257
C6 C 0.01790(17) 0.3446(3) 0.0450(3)
H3 H 0.0301 0.2435 0.0757
N1 N 0.22457(14) 0.9335(3) 0.5421(3)
C7 C 0.10229(18) 0.4732(3) 0.2647(3)
C8 C 0.03201(16) 0.6263(3) 0.0815(3)
C9 C 0.13655(18) 0.9544(3) 0.3145(3)
H4 H 0.1428 1.0619 0.3181
C10 C 0.04904(16) 0.4709(3) 0.1242(3)
C11 C 0.2408(2) 1.1005(3) 0.5477(3)
H5 H 0.2573 1.1327 0.6419
H6 H 0.1929 1.1555 0.5044
C12 C 0.26717(18) 0.8395(3) 0.6563(3)
H7 H 0.2335 0.7546 0.6673
H8 H 0.2770 0.9031 0.7374
C13 C 0.34434(19) 0.7708(4) 0.6490(3)
H9 H 0.3357 0.7072 0.5681
H10 H 0.3797 0.8544 0.6420
C14 C 0.3035(2) 1.1481(4) 0.4797(4)
H11 H 0.3496 1.0847 0.5163
H12 H 0.2845 1.1257 0.3835
C15 C 0.3267(2) 1.3155(4) 0.4969(4)
H13 H 0.3441 1.3394 0.5929
H14 H 0.2812 1.3795 0.4570
C16 C 0.3816(2) 0.6731(4) 0.7715(4)
H15 H 0.3463 0.5883 0.7758
H16 H 0.3873 0.7364 0.8519
C17 C 0.3904(2) 1.3566(4) 0.4329(4)
H17 H 0.3728 1.3369 0.3372
H18 H 0.4358 1.2944 0.4724
H19 H 0.4034 1.4647 0.4481
C18 C 0.4604(2) 0.6050(5) 0.7754(5)
H20 H 0.4560 0.5439 0.6953
H21 H 0.4781 0.5402 0.8541
H22 H 0.4972 0.6876 0.7792
C1B C -0.07651(16) 0.2700(3) -0.1911(3)
O1B O -0.12884(14) 0.6403(2) -0.3345(2)
C2B C -0.17732(17) 0.1351(3) -0.4270(3)
C3B C -0.16716(17) 0.2977(3) -0.4165(3)
H1B H -0.1937 0.3621 -0.4871
C4B C -0.11772(17) 0.3605(3) -0.3009(3)
C5B C -0.08726(17) 0.1120(3) -0.1983(3)
H2B H -0.0617 0.0493 -0.1257
C6B C -0.01790(17) 0.6554(3) -0.0450(3)
H3B H -0.0301 0.7565 -0.0757
N1B N -0.22457(14) 0.0665(3) -0.5421(3)
C7B C -0.10229(18) 0.5268(3) -0.2647(3)
C8B C -0.03201(16) 0.3737(3) -0.0815(3)
C9B C -0.13655(18) 0.0456(3) -0.3145(3)
H4B H -0.1428 -0.0619 -0.3181
C10B C -0.04904(16) 0.5291(3) -0.1242(3)
C11B C -0.2408(2) -0.1005(3) -0.5477(3)
H5B H -0.2573 -0.1327 -0.6419
H6B H -0.1929 -0.1555 -0.5044
C12B C -0.26717(18) 0.1605(3) -0.6563(3)
H7B H -0.2335 0.2454 -0.6673
H8B H -0.2770 0.0969 -0.7374
C13B C -0.34434(19) 0.2292(4) -0.6490(3)
H9B H -0.3357 0.2928 -0.5681
H10B H -0.3797 0.1456 -0.6420
C14B C -0.3035(2) -0.1481(4) -0.4797(4)
H11B H -0.3496 -0.0847 -0.5163
H12B H -0.2845 -0.1257 -0.3835
C15B C -0.3267(2) -0.3155(4) -0.4969(4)
H13B H -0.3441 -0.3394 -0.5929
H14B H -0.2812 -0.3795 -0.4570
C16B C -0.3816(2) 0.3269(4) -0.7715(4)
H15B H -0.3463 0.4117 -0.7758
H16B H -0.3873 0.2636 -0.8519
C17B C -0.3904(2) -0.3566(4) -0.4329(4)
H17B H -0.3728 -0.3369 -0.3372
H18B H -0.4358 -0.2944 -0.4724
H19B H -0.4034 -0.4647 -0.4481
C18B C -0.4604(2) 0.3950(5) -0.7754(5)
H20B H -0.4560 0.4561 -0.6953
H21B H -0.4781 0.4598 -0.8541
H22B H -0.4972 0.3124 -0.7792
loop_
_geom_bond_atom_site_label_1
_geom_bond_atom_site_label_2
_geom_bond_site_symmetry_1
_geom_bond_site_symmetry_2
C1 C4 1_555 1_555
O1 C7 1_555 1_555
C2 C3 1_555 1_555
C3 H1 1_555 1_555
C4 C3 1_555 1_555
C5 C1 1_555 1_555
H2 C5 1_555 1_555
C6 H3 1_555 1_555
N1 C2 1_555 1_555
C7 C4 1_555 1_555
C8 C1 1_555 1_555
C9 C2 1_555 1_555
H4 C9 1_555 1_555
C10 C6 1_555 1_555
C11 N1 1_555 1_555
H5 C11 1_555 1_555
H6 C11 1_555 1_555
C12 N1 1_555 1_555
H7 C12 1_555 1_555
H8 C12 1_555 1_555
C13 C12 1_555 1_555
H9 C13 1_555 1_555
H10 C13 1_555 1_555
C14 C11 1_555 1_555
H11 C14 1_555 1_555
H12 C14 1_555 1_555
C15 C14 1_555 1_555
H13 C15 1_555 1_555
H14 C15 1_555 1_555
C16 C13 1_555 1_555
H15 C16 1_555 1_555
H16 C16 1_555 1_555
C17 C15 1_555 1_555
H17 C17 1_555 1_555
H18 C17 1_555 1_555
H19 C17 1_555 1_555
C18 C16 1_555 1_555
H20 C18 1_555 1_555
H21 C18 1_555 1_555
H22 C18 1_555 1_555
C1B C4B 1_555 1_555
O1B C7B 1_555 1_555
C2B C3B 1_555 1_555
C3B H1B 1_555 1_555
C4B C3B 1_555 1_555
C5B C1B 1_555 1_555
H2B C5B 1_555 1_555
C6B C8 1_555 1_555
H3B C6B 1_555 1_555
N1B C2B 1_555 1_555
C7B C4B 1_555 1_555
C8B C6 1_555 1_555
C9B C2B 1_555 1_555
H4B C9B 1_555 1_555
C10B C6B 1_555 1_555
C11B N1B 1_555 1_555
H5B C11B 1_555 1_555
H6B C11B 1_555 1_555
C12B N1B 1_555 1_555
H7B C12B 1_555 1_555
H8B C12B 1_555 1_555
C13B C12B 1_555 1_555
H9B C13B 1_555 1_555
H10B C13B 1_555 1_555
C14B C11B 1_555 1_555
H11B C14B 1_555 1_555
H12B C14B 1_555 1_555
C15B C14B 1_555 1_555
H13B C15B 1_555 1_555
H14B C15B 1_555 1_555
C16B C13B 1_555 1_555
H15B C16B 1_555 1_555
H16B C16B 1_555 1_555
C17B C15B 1_555 1_555
H17B C17B 1_555 1_555
H18B C17B 1_555 1_555
H19B C17B 1_555 1_555
C18B C16B 1_555 1_555
H20B C18B 1_555 1_555
H21B C18B 1_555 1_555
H22B C18B 1_555 1_555
C5 C9 1_555 1_555
C7 C10 1_555 1_555
C8 C10 1_555 1_555
C1B C8B 1_555 1_555
C5B C9B 1_555 1_555
C7B C10B 1_555 1_555
C8B C10B 1_555 1_555

#END
