
#######################################################################
#
#                 Cambridge Crystallographic Data Centre
#                                CCDC 
#
#######################################################################
#
# If this CIF has been generated from an entry in the Cambridge 
# Structural Database, then it will include bibliographic, chemical, 
# crystal, experimental, refinement or atomic coordinate data resulting 
# from the CCDC's data processing and validation procedures.
#
#######################################################################

data_ZEGPIN
_chemical_formula_moiety         'C27 H22 N2 O2'
_chemical_name_systematic        
3-methyl-1,4,8-triphenyl-4,5-dihydrooxocino[2,3-c]pyrazol-6(1H)-one
_symmetry_cell_setting           orthorhombic
_symmetry_space_group_name_H-M   'P b c a'
_symmetry_Int_Tables_number      61
_space_group_name_Hall           '-P 2ac 2ab'
loop_
_symmetry_equiv_pos_site_id
_symmetry_equiv_pos_as_xyz
1 x,y,z
2 1/2-x,-y,1/2+z
3 -x,1/2+y,1/2-z
4 1/2+x,1/2-y,-z
5 -x,-y,-z
6 1/2+x,y,1/2-z
7 x,1/2-y,1/2+z
8 1/2-x,1/2+y,z
_cell_length_a                   47.2338(13)
_cell_length_b                   11.9484(3)
_cell_length_c                   7.3613(2)
_cell_angle_alpha                90
_cell_angle_beta                 90
_cell_angle_gamma                90
_cell_volume                     4154.48
_cell_formula_units_Z            8
loop_
_atom_site_label
_atom_site_type_symbol
_atom_site_fract_x
_atom_site_fract_y
_atom_site_fract_z
O1 O 0.37472(5) 0.5126(2) 0.3769(4)
O2 O 0.33144(6) 0.8008(2) 0.5320(4)
N1 N 0.38888(7) 0.4254(3) 0.6473(5)
N2 N 0.37931(7) 0.3978(3) 0.8162(5)
C1 C 0.36889(8) 0.4806(3) 0.5525(5)
C2 C 0.34520(8) 0.4910(3) 0.6567(5)
C3 C 0.35287(8) 0.4370(3) 0.8204(6)
C4 C 0.33516(9) 0.4221(4) 0.9873(6)
H1 H 0.345787 0.378887 1.077678
H2 H 0.317736 0.381951 0.955859
H3 H 0.330354 0.495555 1.037749
C5 C 0.41731(7) 0.4001(3) 0.5940(5)
C6 C 0.43872(8) 0.4715(3) 0.6449(6)
H4 H 0.434602 0.536998 0.712995
C7 C 0.46605(9) 0.4472(4) 0.5964(6)
H5 H 0.480964 0.495493 0.633263
C8 C 0.47205(9) 0.3539(4) 0.4950(6)
H6 H 0.491053 0.337733 0.461703
C9 C 0.45039(9) 0.2831(3) 0.4413(6)
H7 H 0.454459 0.219217 0.369138
C10 C 0.42266(8) 0.3058(3) 0.4932(6)
H8 H 0.407699 0.256916 0.459525
C11 C 0.38528(8) 0.6218(3) 0.3558(5)
C12 C 0.36984(8) 0.7106(3) 0.3990(6)
H9 H 0.379053 0.780911 0.387149
C13 C 0.34031(8) 0.7148(3) 0.4629(5)
C14 C 0.32031(8) 0.6168(3) 0.4372(5)
H10 H 0.327354 0.568702 0.337468
H11 H 0.301381 0.645072 0.402306
C15 C 0.31774(7) 0.5467(3) 0.6122(5)
H12 H 0.313295 0.599480 0.713753
C16 C 0.41421(8) 0.6227(3) 0.2826(5)
C17 C 0.43241(8) 0.7120(3) 0.3177(6)
H13 H 0.425877 0.773973 0.386875
C18 C 0.45962(9) 0.7113(4) 0.2533(6)
H14 H 0.471863 0.772331 0.279212
C19 C 0.46942(9) 0.6218(4) 0.1502(6)
H15 H 0.488304 0.621072 0.105742
C20 C 0.45122(9) 0.5335(4) 0.1131(6)
H16 H 0.457662 0.472327 0.041735
C21 C 0.42402(9) 0.5336(4) 0.1786(6)
H17 H 0.411811 0.472483 0.152628
C22 C 0.29301(8) 0.4666(3) 0.5947(5)
C23 C 0.26654(9) 0.5001(4) 0.6532(6)
H18 H 0.264351 0.571442 0.708520
C24 C 0.24328(9) 0.4318(5) 0.6326(7)
H19 H 0.225244 0.456323 0.673517
C25 C 0.24601(9) 0.3293(4) 0.5538(8)
H20 H 0.229987 0.281913 0.540734
C26 C 0.27218(11) 0.2947(4) 0.4933(8)
H21 H 0.274105 0.223394 0.437752
C27 C 0.29572(9) 0.3629(4) 0.5125(7)
H22 H 0.313650 0.338514 0.469475
loop_
_geom_bond_atom_site_label_1
_geom_bond_atom_site_label_2
_geom_bond_site_symmetry_1
_geom_bond_site_symmetry_2
O1 C1 1_555 1_555
O2 C13 1_555 1_555
N1 N2 1_555 1_555
N2 C3 1_555 1_555
C1 N1 1_555 1_555
C2 C1 1_555 1_555
C3 C2 1_555 1_555
C4 C3 1_555 1_555
H1 C4 1_555 1_555
H2 C4 1_555 1_555
H3 C4 1_555 1_555
C5 N1 1_555 1_555
C6 C5 1_555 1_555
H4 C6 1_555 1_555
C7 C6 1_555 1_555
H5 C7 1_555 1_555
C8 C7 1_555 1_555
H6 C8 1_555 1_555
C9 C8 1_555 1_555
H7 C9 1_555 1_555
C10 C5 1_555 1_555
H8 C10 1_555 1_555
C11 O1 1_555 1_555
C12 C11 1_555 1_555
H9 C12 1_555 1_555
C13 C12 1_555 1_555
C14 C13 1_555 1_555
H10 C14 1_555 1_555
H11 C14 1_555 1_555
C15 C2 1_555 1_555
H12 C15 1_555 1_555
C16 C11 1_555 1_555
C17 C16 1_555 1_555
H13 C17 1_555 1_555
C18 C17 1_555 1_555
H14 C18 1_555 1_555
C19 C18 1_555 1_555
H15 C19 1_555 1_555
C20 C19 1_555 1_555
H16 C20 1_555 1_555
C21 C16 1_555 1_555
H17 C21 1_555 1_555
C22 C15 1_555 1_555
C23 C22 1_555 1_555
H18 C23 1_555 1_555
C24 C23 1_555 1_555
H19 C24 1_555 1_555
C25 C24 1_555 1_555
H20 C25 1_555 1_555
C26 C25 1_555 1_555
H21 C26 1_555 1_555
C27 C22 1_555 1_555
H22 C27 1_555 1_555
C9 C10 1_555 1_555
C14 C15 1_555 1_555
C20 C21 1_555 1_555
C26 C27 1_555 1_555

#END
