
#######################################################################
#
#                 Cambridge Crystallographic Data Centre
#                                CCDC 
#
#######################################################################
#
# If this CIF has been generated from an entry in the Cambridge 
# Structural Database, then it will include bibliographic, chemical, 
# crystal, experimental, refinement or atomic coordinate data resulting 
# from the CCDC's data processing and validation procedures.
#
#######################################################################

data_ZEGQOU
_chemical_formula_moiety         'C16 H9 F9 N2 O2'
_chemical_name_systematic        
2-[(1,3-dioxo-1,3-dihydro-2H-isoindol-2-yl)methyl]-4,4,5,5,6,6,7,7,7-nonafluoroheptanenitrile
_symmetry_cell_setting           triclinic
_symmetry_space_group_name_H-M   'P -1'
_symmetry_Int_Tables_number      2
_space_group_name_Hall           '-P 1'
loop_
_symmetry_equiv_pos_site_id
_symmetry_equiv_pos_as_xyz
1 x,y,z
2 -x,-y,-z
_cell_length_a                   5.7476(7)
_cell_length_b                   11.2870(13)
_cell_length_c                   14.0380(17)
_cell_angle_alpha                76.581(10)
_cell_angle_beta                 85.498(10)
_cell_angle_gamma                83.205(10)
_cell_volume                     878.376
_exptl_crystal_colour            'light colorless'
_exptl_crystal_description       block
_cell_formula_units_Z            2
loop_
_atom_site_label
_atom_site_type_symbol
_atom_site_fract_x
_atom_site_fract_y
_atom_site_fract_z
F1 F 0.3411(10) -0.1831(3) 0.2581(3)
F2 F 0.0024(8) -0.1302(4) 0.3151(3)
F3 F 0.5317(9) -0.0932(5) 0.3956(4)
F4 F 0.1987(11) -0.0451(4) 0.4495(3)
F5 F 0.5773(15) -0.2300(8) 0.5760(5)
F6 F 0.3989(13) -0.3870(5) 0.6177(4)
F7 F 0.244(2) -0.2135(9) 0.6200(5)
O1 O -0.2137(6) 0.3066(3) 0.0127(3)
O2 O 0.3950(6) 0.2935(3) 0.2056(3)
N1 N 0.1081(6) 0.2686(3) 0.1084(3)
N2 N -0.2416(8) -0.0051(4) 0.1098(4)
C1 C -0.1008(8) 0.3346(4) 0.0710(4)
C2 C -0.1408(9) 0.4413(4) 0.1170(3)
C3 C -0.3213(10) 0.5344(4) 0.1082(4)
H1 H -0.4452 0.5372 0.0686
C4 C -0.3115(12) 0.6228(5) 0.1599(5)
H2 H -0.4311 0.6867 0.1552
C5 C -0.1286(12) 0.6189(5) 0.2185(5)
H3 H -0.1280 0.6802 0.2529
C6 C 0.0534(11) 0.5268(5) 0.2277(4)
H4 H 0.1770 0.5245 0.2673
C7 C 0.0439(9) 0.4375(4) 0.1753(3)
C8 C 0.2097(9) 0.3284(4) 0.1691(3)
C9 C 0.2306(8) 0.1672(4) 0.0721(3)
H5 H 0.3978 0.1737 0.0694
H6 H 0.1863 0.1739 0.0056
C10 C 0.1822(8) 0.0396(4) 0.1339(3)
H7 H 0.2899 -0.0212 0.1084
C11 C 0.2340(9) 0.0257(4) 0.2418(3)
H8 H 0.3885 0.0508 0.2447
H9 H 0.1208 0.0803 0.2702
C12 C 0.2256(10) -0.1019(4) 0.3022(4)
C13 C 0.3140(10) -0.1231(5) 0.4050(4)
C14 C 0.3167(18) -0.2517(8) 0.4703(6)
C15 C 0.388(2) -0.2718(11) 0.5724(8)
C16 C -0.0575(9) 0.0151(4) 0.1218(3)
F8 F 0.528(2) -0.3182(9) 0.4283(7)
F9 F 0.141(3) -0.3107(12) 0.4627(9)
F10? F 0.328(5) -0.3363(14) 0.4333(12)
F11? F 0.047(3) -0.2342(19) 0.5110(14)
loop_
_geom_bond_atom_site_label_1
_geom_bond_atom_site_label_2
_geom_bond_site_symmetry_1
_geom_bond_site_symmetry_2
F1 C12 1_555 1_555
F2 C12 1_555 1_555
F3 C13 1_555 1_555
F4 C13 1_555 1_555
F5 C15 1_555 1_555
F6 C15 1_555 1_555
F7 C15 1_555 1_555
O1 C1 1_555 1_555
O2 C8 1_555 1_555
N1 C1 1_555 1_555
N2 C16 1_555 1_555
C1 C2 1_555 1_555
C2 C3 1_555 1_555
C3 H1 1_555 1_555
C4 C3 1_555 1_555
H2 C4 1_555 1_555
C5 C4 1_555 1_555
H3 C5 1_555 1_555
C6 C5 1_555 1_555
H4 C6 1_555 1_555
C7 C2 1_555 1_555
C8 N1 1_555 1_555
C9 N1 1_555 1_555
H5 C9 1_555 1_555
H6 C9 1_555 1_555
C10 C9 1_555 1_555
H7 C10 1_555 1_555
C11 C10 1_555 1_555
H8 C11 1_555 1_555
H9 C11 1_555 1_555
C12 C11 1_555 1_555
C13 C12 1_555 1_555
C14 C13 1_555 1_555
C15 C14 1_555 1_555
C16 C10 1_555 1_555
F8 C14 1_555 1_555
F9 C14 1_555 1_555
C6 C7 1_555 1_555
C7 C8 1_555 1_555

#END
