
#######################################################################
#
#                 Cambridge Crystallographic Data Centre
#                                CCDC 
#
#######################################################################
#
# If this CIF has been generated from an entry in the Cambridge 
# Structural Database, then it will include bibliographic, chemical, 
# crystal, experimental, refinement or atomic coordinate data resulting 
# from the CCDC's data processing and validation procedures.
#
#######################################################################

data_ZEGZIX
_chemical_formula_moiety         'C19 H22 N4 2+,2(C9 H5 O6 1-)'
_chemical_name_systematic        
"1,1'-(propane-1,3-diyl)bis(2-methyl-1H-benzimidazol-3-ium) bis(2,4-dicarboxybenzoate)"
_symmetry_cell_setting           triclinic
_symmetry_space_group_name_H-M   'P -1'
_symmetry_Int_Tables_number      2
_space_group_name_Hall           '-P 1'
loop_
_symmetry_equiv_pos_site_id
_symmetry_equiv_pos_as_xyz
1 x,y,z
2 -x,-y,-z
_cell_length_a                   9.7105(6)
_cell_length_b                   11.3812(9)
_cell_length_c                   16.4876(13)
_cell_angle_alpha                77.818(7)
_cell_angle_beta                 85.186(6)
_cell_angle_gamma                66.485(7)
_cell_volume                     1633.22
_exptl_crystal_colour            colorless
_exptl_crystal_description       block
_cell_formula_units_Z            2
loop_
_atom_site_label
_atom_site_type_symbol
_atom_site_fract_x
_atom_site_fract_y
_atom_site_fract_z
O1 O 0.95122(15) 0.63780(14) 0.35947(8)
O2 O 1.17435(15) 0.59161(14) 0.30244(9)
H1 H 1.227(3) 0.626(3) 0.2704(15)
O3 O 1.30165(15) 0.71326(14) 0.21593(8)
O4 O 1.24331(15) 0.91651(15) 0.14858(9)
O5 O 0.52095(15) 0.86171(14) 0.17760(9)
H2 H 0.4312(14) 0.884(3) 0.1666(19)
O6 O 0.49394(15) 1.05655(14) 0.10100(9)
C1 C 0.7341(2) 0.91400(19) 0.15579(11)
C2 C 0.8117(2) 0.81641(18) 0.22084(11)
H3 H 0.7601 0.7744 0.2576
C3 C 0.9657(2) 0.77908(18) 0.23291(11)
C4 C 1.0413(2) 0.84757(19) 0.17856(11)
C5 C 0.9602(2) 0.94732(19) 0.11503(12)
H4 H 1.0091 0.9935 0.0797
C6 C 0.8091(2) 0.98034(19) 0.10248(12)
H5 H 0.7582 1.0464 0.0587
C7 C 1.0333(2) 0.66437(19) 0.30362(11)
C8 C 1.2064(2) 0.8249(2) 0.18214(12)
C9 C 0.5705(2) 0.95136(19) 0.14239(12)
N1 N 0.75208(17) 0.45720(16) 0.39813(9)
N2 N 0.83788(18) 0.46743(17) 0.51287(10)
H6 H 0.899(3) 0.444(2) 0.5561(15)
N3 N 0.79707(17) 0.57100(16) 0.09528(9)
N4 N 0.72060(19) 0.73222(18) -0.00974(10)
H7 H 0.660(3) 0.791(3) -0.0458(15)
C10 C 0.6368(2) 0.55606(19) 0.43083(11)
C11 C 0.4933(2) 0.6380(2) 0.40227(12)
H8 H 0.4573 0.6346 0.3527
C12 C 0.4062(2) 0.7255(2) 0.45169(13)
H9 H 0.3091 0.7824 0.4350
C13 C 0.4620(2) 0.7295(2) 0.52619(13)
H10 H 0.4004 0.7891 0.5578
C14 C 0.6046(2) 0.6484(2) 0.55434(12)
H11 H 0.6406 0.6519 0.6039
C15 C 0.6920(2) 0.56111(19) 0.50470(11)
C16 C 0.8715(2) 0.40741(19) 0.44859(11)
C17 C 1.0182(2) 0.3041(2) 0.43507(13)
H12 H 1.0892 0.2961 0.4752
H13 H 1.0536 0.3265 0.3802
H14 H 1.0072 0.2226 0.4410
C18 C 0.7476(2) 0.4199(2) 0.31891(11)
H15 H 0.6524 0.4132 0.3136
H16 H 0.8272 0.3351 0.3175
C19 C 0.7666(2) 0.5204(2) 0.24686(11)
H17 H 0.6765 0.5999 0.2410
H18 H 0.8498 0.5412 0.2582
C20 C 0.7962(2) 0.4690(2) 0.16667(11)
H19 H 0.8924 0.3954 0.1703
H20 H 0.7191 0.4385 0.1587
C21 C 0.6792(2) 0.6503(2) 0.04632(12)
C22 C 0.8706(2) 0.70622(19) 0.00096(12)
C23 C 0.9666(2) 0.7594(2) -0.04349(12)
H21 H 0.9340 0.8266 -0.0896
C24 C 1.1126(2) 0.7074(2) -0.01590(13)
H22 H 1.1804 0.7409 -0.0437
C25 C 1.1618(2) 0.6052(2) 0.05304(13)
H23 H 1.2614 0.5729 0.0698
C26 C 1.0666(2) 0.5511(2) 0.09685(12)
H24 H 1.0992 0.4833 0.1426
C27 C 0.9200(2) 0.60346(19) 0.06875(11)
C28 C 0.5290(2) 0.6456(2) 0.05304(13)
H25 H 0.4712 0.6992 0.0046
H26 H 0.4791 0.6776 0.1015
H27 H 0.5390 0.5571 0.0574
O7 O 0.36446(17) 0.33877(17) 0.17211(10)
H28 H 0.313(4) 0.304(4) 0.203(2)
O8 O 0.59697(16) 0.31199(15) 0.14102(9)
O9 O 0.22864(16) 0.22821(16) 0.26210(10)
O10 O 0.27699(16) 0.03699(16) 0.34378(11)
O11 O 1.03024(16) -0.11009(15) 0.40101(10)
O12 O 1.00128(16) 0.08318(15) 0.31972(10)
H29 H 1.0939(13) 0.061(2) 0.3286(15)
C29 C 0.7902(2) 0.02891(19) 0.34126(12)
C30 C 0.7135(2) -0.0416(2) 0.38837(12)
H30 H 0.7628 -0.1120 0.4303
C31 C 0.5628(2) -0.0067(2) 0.37261(12)
H31 H 0.5122 -0.0543 0.4049
C32 C 0.4847(2) 0.09701(19) 0.31011(12)
C33 C 0.5630(2) 0.16761(19) 0.26005(11)
C34 C 0.7153(2) 0.13005(19) 0.27708(12)
H32 H 0.7682 0.1748 0.2440
C35 C 0.9531(2) -0.0076(2) 0.35742(12)
C36 C 0.5068(2) 0.2793(2) 0.18600(12)
C37 C 0.3189(2) 0.1218(2) 0.30387(12)
loop_
_geom_bond_atom_site_label_1
_geom_bond_atom_site_label_2
_geom_bond_site_symmetry_1
_geom_bond_site_symmetry_2
O1 C7 1_555 1_555
O2 H1 1_555 1_555
O3 C8 1_555 1_555
O4 C8 1_555 1_555
O5 H2 1_555 1_555
O6 C9 1_555 1_555
C1 C2 1_555 1_555
C2 H3 1_555 1_555
C3 C2 1_555 1_555
C4 C3 1_555 1_555
C5 C4 1_555 1_555
H4 C5 1_555 1_555
C6 C1 1_555 1_555
H5 C6 1_555 1_555
C7 O2 1_555 1_555
C8 C4 1_555 1_555
C9 O5 1_555 1_555
N1 C10 1_555 1_555
N2 H6 1_555 1_555
N3 C20 1_555 1_555
N4 H7 1_555 1_555
C10 C11 1_555 1_555
C11 H8 1_555 1_555
C12 C11 1_555 1_555
H9 C12 1_555 1_555
C13 C12 1_555 1_555
H10 C13 1_555 1_555
C14 C13 1_555 1_555
H11 C14 1_555 1_555
C15 N2 1_555 1_555
C16 N1 1_555 1_555
C17 C16 1_555 1_555
H12 C17 1_555 1_555
H13 C17 1_555 1_555
H14 C17 1_555 1_555
C18 N1 1_555 1_555
H15 C18 1_555 1_555
H16 C18 1_555 1_555
C19 C18 1_555 1_555
H17 C19 1_555 1_555
H18 C19 1_555 1_555
C20 C19 1_555 1_555
H19 C20 1_555 1_555
H20 C20 1_555 1_555
C21 N3 1_555 1_555
C22 N4 1_555 1_555
C23 C22 1_555 1_555
H21 C23 1_555 1_555
C24 C23 1_555 1_555
H22 C24 1_555 1_555
C25 C24 1_555 1_555
H23 C25 1_555 1_555
C26 C25 1_555 1_555
H24 C26 1_555 1_555
C27 N3 1_555 1_555
C28 C21 1_555 1_555
H25 C28 1_555 1_555
H26 C28 1_555 1_555
H27 C28 1_555 1_555
O7 H28 1_555 1_555
O8 C36 1_555 1_555
O9 C37 1_555 1_555
O10 C37 1_555 1_555
O11 C35 1_555 1_555
O12 H29 1_555 1_555
C29 C30 1_555 1_555
C30 H30 1_555 1_555
C31 C30 1_555 1_555
H31 C31 1_555 1_555
C32 C31 1_555 1_555
C33 C32 1_555 1_555
C34 C29 1_555 1_555
H32 C34 1_555 1_555
C35 O12 1_555 1_555
C36 O7 1_555 1_555
C37 C32 1_555 1_555
C1 C9 1_555 1_555
C3 C7 1_555 1_555
C5 C6 1_555 1_555
N2 C16 1_555 1_555
N4 C21 1_555 1_555
C10 C15 1_555 1_555
C14 C15 1_555 1_555
C22 C27 1_555 1_555
C26 C27 1_555 1_555
C29 C35 1_555 1_555
C33 C34 1_555 1_555
C33 C36 1_555 1_555

#END
