
#######################################################################
#
#                 Cambridge Crystallographic Data Centre
#                                CCDC 
#
#######################################################################
#
# If this CIF has been generated from an entry in the Cambridge 
# Structural Database, then it will include bibliographic, chemical, 
# crystal, experimental, refinement or atomic coordinate data resulting 
# from the CCDC's data processing and validation procedures.
#
#######################################################################

data_ZEHCUM
_chemical_formula_moiety         'C24 H48 Cl3 Mg2 O6 1+,C30 H32 B1 1-'
_chemical_name_systematic        
'tris(\m~2~-chloro)-hexakis(tetrahydrofuran)-di-magnesium tris(3,5-dimethylphenyl)(phenyl)borate'
_symmetry_cell_setting           monoclinic
_symmetry_space_group_name_H-M   'P 21/n'
_symmetry_Int_Tables_number      14
_space_group_name_Hall           '-P 2yn'
loop_
_symmetry_equiv_pos_site_id
_symmetry_equiv_pos_as_xyz
1 x,y,z
2 1/2-x,1/2+y,1/2-z
3 -x,-y,-z
4 1/2+x,1/2-y,1/2+z
_cell_length_a                   16.076(4)
_cell_length_b                   23.952(5)
_cell_length_c                   17.490(4)
_cell_angle_alpha                90
_cell_angle_beta                 108.075(3)
_cell_angle_gamma                90
_cell_volume                     6402.22
_exptl_crystal_colour            colorless
_exptl_crystal_description       block
_cell_formula_units_Z            4
loop_
_atom_site_label
_atom_site_type_symbol
_atom_site_fract_x
_atom_site_fract_y
_atom_site_fract_z
Mg1 Mg 0.17264(10) 0.35347(7) 0.41738(9)
Mg2 Mg 0.03137(10) 0.34787(7) 0.50963(9)
Cl1 Cl 0.18400(7) 0.30959(5) 0.55131(7)
Cl2 Cl 0.02034(7) 0.31434(5) 0.36926(7)
Cl3 Cl 0.10160(7) 0.43476(5) 0.46761(6)
O1 O 0.2987(2) 0.38757(17) 0.4639(2)
O2 O 0.1620(3) 0.39397(16) 0.3096(2)
O3 O 0.2291(2) 0.28459(17) 0.3789(2)
O4 O -0.0208(2) 0.27425(16) 0.5401(2)
O5 O 0.0441(3) 0.38098(15) 0.6231(2)
O6 O -0.0946(2) 0.38132(15) 0.46801(19)
C31 C 0.3333(4) 0.4119(3) 0.5422(3)
H33 H 0.3607 0.3831 0.5828
H34 H 0.2868 0.4310 0.5584
C32 C 0.4017(4) 0.4539(3) 0.5333(4)
H35 H 0.3755 0.4914 0.5187
H36 H 0.4512 0.4568 0.5837
C33 C 0.4306(4) 0.4302(3) 0.4676(4)
H37 H 0.4286 0.4590 0.4265
H38 H 0.4914 0.4162 0.4890
C34 C 0.3704(5) 0.3840(4) 0.4320(5)
H39 H 0.3492 0.3875 0.3726
H40 H 0.4006 0.3477 0.4461
C35 C 0.1792(8) 0.4522(5) 0.3075(6)
H41 H 0.2269 0.4636 0.3561
H42 H 0.1263 0.4743 0.3045
C36 C 0.2071(9) 0.4612(6) 0.2295(8)
H43 H 0.1944 0.4996 0.2080
H44 H 0.2697 0.4526 0.2389
C37 C 0.1484(7) 0.4190(4) 0.1763(4)
H45 H 0.1715 0.4072 0.1325
H46 H 0.0886 0.4340 0.1524
C38 C 0.1490(7) 0.3716(3) 0.2321(4)
H47 H 0.0927 0.3512 0.2139
H48 H 0.1967 0.3452 0.2331
C39 C 0.1834(4) 0.2440(3) 0.3195(3)
H49 H 0.2131 0.2390 0.2781
H50 H 0.1223 0.2559 0.2929
C40 C 0.1858(6) 0.1909(3) 0.3657(6)
H51 H 0.1959 0.1583 0.3348
H52 H 0.1304 0.1854 0.3781
C41 C 0.2624(7) 0.1990(4) 0.4427(5)
H53 H 0.2417 0.1990 0.4904
H54 H 0.3062 0.1689 0.4488
C42 C 0.3009(4) 0.2544(4) 0.4331(4)
H55 H 0.3230 0.2739 0.4854
H56 H 0.3495 0.2500 0.4100
C43 C -0.0896(4) 0.2433(3) 0.4818(4)
H57 H -0.1119 0.2645 0.4310
H58 H -0.1389 0.2358 0.5031
C44 C -0.0479(6) 0.1893(3) 0.4681(6)
H59 H -0.0274 0.1919 0.4204
H60 H -0.0894 0.1577 0.4607
C45 C 0.0318(6) 0.1820(4) 0.5478(8)
H61 H 0.0263 0.1470 0.5759
H62 H 0.0881 0.1816 0.5358
C46 C 0.0257(4) 0.2322(3) 0.5977(4)
H63 H -0.0068 0.2230 0.6357
H64 H 0.0848 0.2457 0.6287
C47 C 0.0885(7) 0.3574(4) 0.6984(4)
H65 H 0.1456 0.3419 0.6982
H66 H 0.0534 0.3268 0.7111
C48 C 0.1018(9) 0.4029(4) 0.7587(4)
H67 H 0.0745 0.3934 0.8006
H68 H 0.1648 0.4103 0.7848
C49 C 0.0596(9) 0.4495(5) 0.7123(7)
H69 H 0.0186 0.4662 0.7381
H70 H 0.1043 0.4781 0.7126
C50 C 0.0146(6) 0.4365(3) 0.6346(4)
H71 H 0.0280 0.4633 0.5970
H72 H -0.0493 0.4368 0.6260
C51 C -0.1693(4) 0.3700(3) 0.4973(4)
H73 H -0.1497 0.3634 0.5561
H74 H -0.2030 0.3372 0.4698
C52 C -0.2226(3) 0.4221(2) 0.4767(4)
H75 H -0.2040 0.4495 0.5211
H76 H -0.2855 0.4138 0.4661
C53 C -0.2060(4) 0.4442(2) 0.4024(3)
H77 H -0.2574 0.4379 0.3544
H78 H -0.1931 0.4847 0.4076
C54 C -0.1289(4) 0.4123(4) 0.3962(4)
H79 H -0.1467 0.3869 0.3493
H80 H -0.0840 0.4383 0.3890
B1 B 0.1071(4) 0.2731(3) 0.9731(3)
C1 C 0.1901(3) 0.3117(2) 1.0217(3)
C2 C 0.2114(4) 0.3618(3) 0.9909(3)
H1 H 0.1740 0.3744 0.9404
C3 C 0.2862(5) 0.3951(3) 1.0311(4)
H2 H 0.2997 0.4279 1.0069
C4 C 0.3377(5) 0.3781(3) 1.1057(4)
H3 H 0.3869 0.4000 1.1342
C5 C 0.3190(4) 0.3297(3) 1.1396(4)
H4 H 0.3553 0.3185 1.1913
C6 C 0.2478(4) 0.2973(3) 1.0989(3)
H5 H 0.2369 0.2639 1.1236
C7 C 0.0792(3) 0.2333(2) 1.0383(3)
C8 C 0.0157(3) 0.2491(2) 1.0739(3)
H6 H -0.0151 0.2831 1.0582
C9 C -0.0032(3) 0.2155(2) 1.1326(3)
C10 C 0.0421(3) 0.1656(3) 1.1566(3)
H7 H 0.0300 0.1433 1.1968
C11 C 0.1053(3) 0.1481(2) 1.1221(3)
C12 C 0.1220(3) 0.1821(2) 1.0648(3)
H8 H 0.1653 0.1702 1.0417
C13 C -0.0710(4) 0.2343(3) 1.1702(3)
H9 H -0.0761 0.2065 1.2097
H10 H -0.1276 0.2384 1.1284
H11 H -0.0534 0.2703 1.1972
C14 C 0.1535(4) 0.0939(3) 1.1480(4)
H12 H 0.1949 0.0880 1.1178
H13 H 0.1114 0.0630 1.1373
H14 H 0.1854 0.0954 1.2057
C15 C 0.0248(3) 0.3146(2) 0.9245(3)
C16 C 0.0054(4) 0.3638(3) 0.9582(4)
H15 H 0.0395 0.3737 1.0112
C17 C -0.0625(5) 0.3986(3) 0.9163(5)
C18 C -0.1130(5) 0.3873(3) 0.8408(5)
H16 H -0.1595 0.4115 0.8132
C19 C -0.0953(4) 0.3396(4) 0.8046(4)
C20 C -0.0302(4) 0.3030(3) 0.8462(3)
H17 H -0.0224 0.2690 0.8211
C21 C -0.0743(13) 0.4529(9) 0.9627(10)
H18 H -0.1228 0.4751 0.9284
H19 H -0.0204 0.4750 0.9765
H20 H -0.0872 0.4424 1.0120
C22 C -0.1401(8) 0.3302(6) 0.7302(9)
H21 H -0.1836 0.3599 0.7110
H22 H -0.1700 0.2941 0.7261
H23 H -0.1007 0.3295 0.6973
C23 C 0.1323(3) 0.2356(2) 0.9050(3)
C24 C 0.1910(3) 0.2517(3) 0.8665(3)
H24 H 0.2234 0.2851 0.8836
C25 C 0.2059(3) 0.2211(3) 0.8025(3)
C26 C 0.1615(4) 0.1724(3) 0.7789(3)
H25 H 0.1722 0.1514 0.7369
C27 C 0.1013(4) 0.1527(3) 0.8144(3)
C28 C 0.0876(3) 0.1843(2) 0.8783(3)
H26 H 0.0475 0.1708 0.9040
C29 C 0.2729(4) 0.2442(3) 0.7646(4)
H27 H 0.2765 0.2193 0.7212
H28 H 0.3304 0.2464 0.8057
H29 H 0.2548 0.2815 0.7428
C30 C 0.0532(4) 0.0989(3) 0.7899(4)
H30 H 0.0702 0.0822 0.7458
H31 H -0.0099 0.1061 0.7719
H32 H 0.0679 0.0733 0.8358
loop_
_geom_bond_atom_site_label_1
_geom_bond_atom_site_label_2
_geom_bond_site_symmetry_1
_geom_bond_site_symmetry_2
Mg1 Cl1 1_555 1_555
Mg2 Cl1 1_555 1_555
Cl2 Mg1 1_555 1_555
Cl3 Mg1 1_555 1_555
B1 C1 1_555 1_555
C1 C2 1_555 1_555
C2 H1 1_555 1_555
C3 C2 1_555 1_555
H2 C3 1_555 1_555
C4 C3 1_555 1_555
H3 C4 1_555 1_555
C5 C4 1_555 1_555
H4 C5 1_555 1_555
C6 C1 1_555 1_555
H5 C6 1_555 1_555
C7 B1 1_555 1_555
C8 C7 1_555 1_555
H6 C8 1_555 1_555
C9 C8 1_555 1_555
C10 C9 1_555 1_555
H7 C10 1_555 1_555
C11 C10 1_555 1_555
C12 C7 1_555 1_555
H8 C12 1_555 1_555
C13 C9 1_555 1_555
H9 C13 1_555 1_555
H10 C13 1_555 1_555
H11 C13 1_555 1_555
C14 C11 1_555 1_555
H12 C14 1_555 1_555
H13 C14 1_555 1_555
H14 C14 1_555 1_555
C15 B1 1_555 1_555
C16 C15 1_555 1_555
H15 C16 1_555 1_555
C17 C16 1_555 1_555
C18 C17 1_555 1_555
H16 C18 1_555 1_555
C19 C18 1_555 1_555
C20 C15 1_555 1_555
H17 C20 1_555 1_555
C21 C17 1_555 1_555
H18 C21 1_555 1_555
H19 C21 1_555 1_555
H20 C21 1_555 1_555
C22 C19 1_555 1_555
H21 C22 1_555 1_555
H22 C22 1_555 1_555
H23 C22 1_555 1_555
C23 B1 1_555 1_555
C24 C23 1_555 1_555
H24 C24 1_555 1_555
C25 C24 1_555 1_555
C26 C25 1_555 1_555
H25 C26 1_555 1_555
C27 C26 1_555 1_555
C28 C23 1_555 1_555
H26 C28 1_555 1_555
C29 C25 1_555 1_555
H27 C29 1_555 1_555
H28 C29 1_555 1_555
H29 C29 1_555 1_555
C30 C27 1_555 1_555
H30 C30 1_555 1_555
H31 C30 1_555 1_555
H32 C30 1_555 1_555
O1 Mg1 1_555 1_555
O2 Mg1 1_555 1_555
O3 Mg1 1_555 1_555
O4 Mg2 1_555 1_555
O5 Mg2 1_555 1_555
O6 Mg2 1_555 1_555
C31 O1 1_555 1_555
H33 C31 1_555 1_555
H34 C31 1_555 1_555
C32 C31 1_555 1_555
H35 C32 1_555 1_555
H36 C32 1_555 1_555
C33 C32 1_555 1_555
H37 C33 1_555 1_555
H38 C33 1_555 1_555
C34 O1 1_555 1_555
H39 C34 1_555 1_555
H40 C34 1_555 1_555
C35 O2 1_555 1_555
H41 C35 1_555 1_555
H42 C35 1_555 1_555
C36 C35 1_555 1_555
H43 C36 1_555 1_555
H44 C36 1_555 1_555
C37 C36 1_555 1_555
H45 C37 1_555 1_555
H46 C37 1_555 1_555
C38 O2 1_555 1_555
H47 C38 1_555 1_555
H48 C38 1_555 1_555
C39 O3 1_555 1_555
H49 C39 1_555 1_555
H50 C39 1_555 1_555
C40 C39 1_555 1_555
H51 C40 1_555 1_555
H52 C40 1_555 1_555
C41 C40 1_555 1_555
H53 C41 1_555 1_555
H54 C41 1_555 1_555
C42 O3 1_555 1_555
H55 C42 1_555 1_555
H56 C42 1_555 1_555
C43 O4 1_555 1_555
H57 C43 1_555 1_555
H58 C43 1_555 1_555
C44 C43 1_555 1_555
H59 C44 1_555 1_555
H60 C44 1_555 1_555
C45 C44 1_555 1_555
H61 C45 1_555 1_555
H62 C45 1_555 1_555
C46 O4 1_555 1_555
H63 C46 1_555 1_555
H64 C46 1_555 1_555
C47 O5 1_555 1_555
H65 C47 1_555 1_555
H66 C47 1_555 1_555
C48 C47 1_555 1_555
H67 C48 1_555 1_555
H68 C48 1_555 1_555
C49 C48 1_555 1_555
H69 C49 1_555 1_555
H70 C49 1_555 1_555
C50 O5 1_555 1_555
H71 C50 1_555 1_555
H72 C50 1_555 1_555
C51 O6 1_555 1_555
H73 C51 1_555 1_555
H74 C51 1_555 1_555
C52 C51 1_555 1_555
H75 C52 1_555 1_555
H76 C52 1_555 1_555
C53 C52 1_555 1_555
H77 C53 1_555 1_555
H78 C53 1_555 1_555
C54 O6 1_555 1_555
H79 C54 1_555 1_555
H80 C54 1_555 1_555
Mg2 Cl2 1_555 1_555
Mg2 Cl3 1_555 1_555
C5 C6 1_555 1_555
C11 C12 1_555 1_555
C19 C20 1_555 1_555
C27 C28 1_555 1_555
C33 C34 1_555 1_555
C37 C38 1_555 1_555
C41 C42 1_555 1_555
C45 C46 1_555 1_555
C49 C50 1_555 1_555
C53 C54 1_555 1_555

#END
