
#######################################################################
#
#                 Cambridge Crystallographic Data Centre
#                                CCDC 
#
#######################################################################
#
# If this CIF has been generated from an entry in the Cambridge 
# Structural Database, then it will include bibliographic, chemical, 
# crystal, experimental, refinement or atomic coordinate data resulting 
# from the CCDC's data processing and validation procedures.
#
#######################################################################

data_ZEHDOH
_chemical_formula_moiety         'C15 H17 Cl1 N2 O3'
_chemical_name_systematic        
't-Butyl 1-(4-chlorophenyl)-3-methyl-1H-pyrazol-5-yl carbonate'
_symmetry_cell_setting           triclinic
_symmetry_space_group_name_H-M   'P -1'
_symmetry_Int_Tables_number      2
_space_group_name_Hall           '-P 1'
loop_
_symmetry_equiv_pos_site_id
_symmetry_equiv_pos_as_xyz
1 x,y,z
2 -x,-y,-z
_cell_length_a                   11.3854(12)
_cell_length_b                   12.1629(13)
_cell_length_c                   12.6647(13)
_cell_angle_alpha                97.717(2)
_cell_angle_beta                 95.368(2)
_cell_angle_gamma                111.818(2)
_cell_volume                     1593.69
_cell_formula_units_Z            4
loop_
_atom_site_label
_atom_site_type_symbol
_atom_site_fract_x
_atom_site_fract_y
_atom_site_fract_z
Cl1 Cl 0.68892(6) -0.30831(4) 0.17850(4)
O1 O 0.74516(11) 0.27123(10) 0.11190(8)
O2 O 0.74269(13) 0.27700(14) 0.29033(9)
O3 O 0.91885(11) 0.29924(10) 0.21379(8)
N1 N 1.05536(14) 0.24075(13) 0.45187(10)
N2 N 0.97937(13) 0.20851(12) 0.35263(9)
C1 C 0.5189(2) 0.1503(2) 0.1172(2)
H1 H 0.5396 0.0822 0.0941
H2 H 0.4332 0.1346 0.0849
H3 H 0.5249 0.1641 0.1944
C2 C 0.5978(2) 0.2459(3) -0.03875(16)
H4 H 0.6620 0.3142 -0.0581
H5 H 0.5143 0.2406 -0.0673
H6 H 0.6085 0.1738 -0.0680
C3 C 0.61121(18) 0.26013(17) 0.08324(13)
C4 C 0.6006(2) 0.3742(2) 0.1356(2)
H7 H 0.6103 0.3794 0.2124
H8 H 0.5182 0.3734 0.1098
H9 H 0.6665 0.4425 0.1179
C5 C 0.79278(17) 0.28189(14) 0.21278(12)
C6 C 0.98506(16) 0.30872(15) 0.31396(12)
C7 C 1.06437(18) 0.40622(15) 0.38514(13)
H10 H 1.0865 0.4866 0.3794
C8 C 1.10645(18) 0.36024(16) 0.47008(13)
C9 C 1.1991(2) 0.42801(18) 0.57087(15)
H11 H 1.1940 0.3749 0.6215
H12 H 1.1783 0.4936 0.6020
H13 H 1.2844 0.4590 0.5538
C10 C 0.90630(15) 0.08541(14) 0.30898(11)
C11 C 0.85641(17) 0.00692(15) 0.37804(12)
H14 H 0.8677 0.0360 0.4516
C12 C 0.81934(17) -0.07794(15) 0.15886(12)
H15 H 0.8059 -0.1072 0.0852
C13 C 0.88738(16) 0.04236(15) 0.19901(12)
H16 H 0.9208 0.0950 0.1525
C14 C 0.77127(16) -0.15462(14) 0.22884(13)
C15 C 0.79061(18) -0.11321(16) 0.33859(13)
H17 H 0.7592 -0.1665 0.3851
Cl2 Cl -0.00674(6) -0.41307(5) 0.16138(5)
O4 O 0.32882(11) 0.16166(10) 0.38915(8)
O5 O 0.51341(14) 0.32571(13) 0.43532(11)
O6 O 0.46237(11) 0.16674(10) 0.52131(8)
N3 N 0.21416(13) 0.11738(12) 0.21659(9)
N4 N 0.18379(14) 0.17149(12) 0.13511(10)
C16 C 0.05692(17) -0.25652(15) 0.17820(14)
C17 C 0.10239(18) -0.20269(16) 0.09296(14)
H18 H 0.0969 -0.2496 0.0269
C18 C 0.15590(17) -0.07904(15) 0.10656(12)
H19 H 0.1878 -0.0420 0.0498
C19 C 0.16225(15) -0.00978(14) 0.20471(11)
C20 C 0.11459(15) -0.06496(15) 0.28875(12)
H20 H 0.1181 -0.0185 0.3545
C21 C 0.06180(16) -0.18877(16) 0.27514(13)
H21 H 0.0296 -0.2261 0.3316
C22 C 0.28924(16) 0.20226(15) 0.30166(11)
C23 C 0.30878(18) 0.31243(16) 0.27831(13)
H22 H 0.3565 0.3871 0.3216
C24 C 0.24070(17) 0.28838(15) 0.17397(12)
C25 C 0.2273(2) 0.37756(17) 0.10779(15)
H23 H 0.1832 0.3361 0.0368
H24 H 0.3108 0.4347 0.1028
H25 H 0.1795 0.4190 0.1414
C26 C 0.44560(18) 0.22980(16) 0.44888(12)
C27 C 0.5615(2) 0.11358(18) 0.66471(14)
H26 H 0.4891 0.1079 0.7001
H27 H 0.6356 0.1331 0.7178
H28 H 0.5443 0.0379 0.6191
C28 C 0.58623(17) 0.21109(16) 0.59701(12)
C29 C 0.6079(2) 0.33017(18) 0.66497(15)
H29 H 0.6224 0.3902 0.6202
H30 H 0.6814 0.3531 0.7196
H31 H 0.5339 0.3232 0.6985
C30 C 0.6929(2) 0.2181(2) 0.53224(15)
H32 H 0.6736 0.1407 0.4889
H33 H 0.7719 0.2418 0.5804
H34 H 0.7009 0.2763 0.4863
loop_
_geom_bond_atom_site_label_1
_geom_bond_atom_site_label_2
_geom_bond_site_symmetry_1
_geom_bond_site_symmetry_2
Cl1 C14 1_555 1_555
O1 C3 1_555 1_555
O2 C5 1_555 1_555
O3 C5 1_555 1_555
N1 N2 1_555 1_555
N2 C6 1_555 1_555
C1 H1 1_555 1_555
H2 C1 1_555 1_555
H3 C1 1_555 1_555
C2 H4 1_555 1_555
H5 C2 1_555 1_555
H6 C2 1_555 1_555
C3 C1 1_555 1_555
C4 C3 1_555 1_555
H7 C4 1_555 1_555
H8 C4 1_555 1_555
H9 C4 1_555 1_555
C5 O1 1_555 1_555
C6 O3 1_555 1_555
C7 C6 1_555 1_555
H10 C7 1_555 1_555
C8 N1 1_555 1_555
C9 C8 1_555 1_555
H11 C9 1_555 1_555
H12 C9 1_555 1_555
H13 C9 1_555 1_555
C10 N2 1_555 1_555
C11 C10 1_555 1_555
H14 C11 1_555 1_555
C12 H15 1_555 1_555
C13 C10 1_555 1_555
H16 C13 1_555 1_555
C14 C12 1_555 1_555
C15 C11 1_555 1_555
H17 C15 1_555 1_555
Cl2 C16 1_555 1_555
O4 C22 1_555 1_555
O5 C26 1_555 1_555
O6 C26 1_555 1_555
N3 N4 1_555 1_555
N4 C24 1_555 1_555
C16 C17 1_555 1_555
C17 H18 1_555 1_555
C18 C17 1_555 1_555
H19 C18 1_555 1_555
C19 N3 1_555 1_555
C20 C19 1_555 1_555
H20 C20 1_555 1_555
C21 C16 1_555 1_555
H21 C21 1_555 1_555
C22 N3 1_555 1_555
C23 C22 1_555 1_555
H22 C23 1_555 1_555
C24 C23 1_555 1_555
C25 C24 1_555 1_555
H23 C25 1_555 1_555
H24 C25 1_555 1_555
H25 C25 1_555 1_555
C26 O4 1_555 1_555
C27 H26 1_555 1_555
H27 C27 1_555 1_555
H28 C27 1_555 1_555
C28 O6 1_555 1_555
C29 C28 1_555 1_555
H29 C29 1_555 1_555
H30 C29 1_555 1_555
H31 C29 1_555 1_555
C30 C28 1_555 1_555
H32 C30 1_555 1_555
H33 C30 1_555 1_555
H34 C30 1_555 1_555
C2 C3 1_555 1_555
C7 C8 1_555 1_555
C12 C13 1_555 1_555
C14 C15 1_555 1_555
C18 C19 1_555 1_555
C20 C21 1_555 1_555
C27 C28 1_555 1_555

#END
