
#######################################################################
#
#                 Cambridge Crystallographic Data Centre
#                                CCDC 
#
#######################################################################
#
# If this CIF has been generated from an entry in the Cambridge 
# Structural Database, then it will include bibliographic, chemical, 
# crystal, experimental, refinement or atomic coordinate data resulting 
# from the CCDC's data processing and validation procedures.
#
#######################################################################

data_ZEHDIB
_chemical_formula_moiety         'C23 H24 Cl1 N3 O5'
_chemical_name_systematic        
't-Butyl 2-(4-chlorophenyl)-5-methyl-4-(2-nitro-1-phenylethyl)-3-oxo-2,3-dihydro-1H-pyrazole-1-carboxylate'
_symmetry_cell_setting           monoclinic
_symmetry_space_group_name_H-M   'P 21/n'
_symmetry_Int_Tables_number      14
_space_group_name_Hall           '-P 2yn'
loop_
_symmetry_equiv_pos_site_id
_symmetry_equiv_pos_as_xyz
1 x,y,z
2 1/2-x,1/2+y,1/2-z
3 -x,-y,-z
4 1/2+x,1/2-y,1/2+z
_cell_length_a                   9.3812(14)
_cell_length_b                   19.472(3)
_cell_length_c                   13.1900(19)
_cell_angle_alpha                90
_cell_angle_beta                 106.254(2)
_cell_angle_gamma                90
_cell_volume                     2313.12
_exptl_crystal_colour            colorless
_exptl_crystal_description       block
_cell_formula_units_Z            4
loop_
_atom_site_label
_atom_site_type_symbol
_atom_site_fract_x
_atom_site_fract_y
_atom_site_fract_z
Cl1 Cl 0.74846(9) 0.02488(4) -0.06195(4)
O1 O 1.09262(12) 0.05685(6) 0.39610(9)
N1 N 1.02618(14) 0.16419(7) 0.41922(10)
O2 O 1.26780(13) 0.13224(7) 0.48004(11)
N2 N 0.88151(14) 0.14594(7) 0.36316(10)
O3 O 0.64939(14) 0.18836(8) 0.35353(11)
C1 C 1.14360(17) 0.11637(9) 0.43681(12)
C2 C 0.85057(16) 0.11883(8) 0.25924(11)
C3 C 0.78262(18) 0.18853(9) 0.39462(12)
C4 C 1.01678(18) 0.21443(8) 0.49280(12)
C5 C 0.93769(19) 0.13462(9) 0.19483(13)
H1 H 1.0175 0.1645 0.2178
C6 C 0.74433(18) 0.25301(10) 0.61944(14)
C7 C 0.72833(19) 0.07649(9) 0.22438(12)
H2 H 0.6686 0.0669 0.2682
C8 C 0.6952(2) 0.04863(10) 0.12464(14)
H3 H 0.6123 0.0207 0.1001
C9 C 0.7859(2) 0.06255(10) 0.06218(12)
C10 C 0.87313(18) 0.22998(8) 0.47927(13)
C11 C 1.1972(2) 0.00079(10) 0.38820(16)
C12 C 0.6172(2) 0.21345(11) 0.59146(15)
H4 H 0.5676 0.2067 0.5205
C13 C 0.8145(2) 0.28370(10) 0.53862(15)
H5 H 0.8996 0.3111 0.5779
C14 C 0.5634(2) 0.18392(11) 0.66823(18)
H6 H 0.4771 0.1578 0.6486
N3 N 0.7885(3) 0.36432(11) 0.3906(2)
C15 C 0.9057(2) 0.10565(11) 0.09537(14)
H7 H 0.9650 0.1153 0.0512
C16 C 0.8157(2) 0.26211(12) 0.72534(16)
H8 H 0.9014 0.2887 0.7452
O4 O 0.9123(3) 0.38626(11) 0.4254(2)
C17 C 1.1489(2) 0.24180(12) 0.57122(16)
H9 H 1.1220 0.2821 0.6036
H10 H 1.2232 0.2535 0.5368
H11 H 1.1876 0.2077 0.6243
C18 C 0.6354(3) 0.19255(13) 0.77300(19)
H12 H 0.5994 0.1718 0.8244
C19 C 1.2796(3) -0.02193(14) 0.4980(2)
H13 H 1.3527 0.0119 0.5300
H14 H 1.3278 -0.0650 0.4945
H15 H 1.2110 -0.0272 0.5394
C20 C 0.7622(3) 0.23253(14) 0.80158(17)
H16 H 0.8112 0.2393 0.8726
C21 C 0.7103(3) 0.33184(12) 0.4627(2)
H17 H 0.6246 0.3065 0.4215
H18 H 0.6758 0.3672 0.5020
C22 C 1.2989(3) 0.02594(15) 0.32562(19)
H19 H 1.2410 0.0466 0.2612
H20 H 1.3540 -0.0121 0.3095
H21 H 1.3665 0.0593 0.3664
C23 C 1.0919(3) -0.05351(13) 0.3302(3)
H22 H 1.0236 -0.0652 0.3698
H23 H 1.1470 -0.0936 0.3217
H24 H 1.0378 -0.0364 0.2620
O5 O 0.7206(4) 0.36602(19) 0.2977(3)
loop_
_geom_bond_atom_site_label_1
_geom_bond_atom_site_label_2
_geom_bond_site_symmetry_1
_geom_bond_site_symmetry_2
Cl1 C9 1_555 1_555
O1 C1 1_555 1_555
N1 N2 1_555 1_555
O2 C1 1_555 1_555
N2 C2 1_555 1_555
O3 C3 1_555 1_555
C1 N1 1_555 1_555
C2 C5 1_555 1_555
C3 N2 1_555 1_555
C4 N1 1_555 1_555
C5 H1 1_555 1_555
C6 C12 1_555 1_555
C7 C2 1_555 1_555
H2 C7 1_555 1_555
C8 C7 1_555 1_555
H3 C8 1_555 1_555
C9 C8 1_555 1_555
C10 C3 1_555 1_555
C11 O1 1_555 1_555
C12 H4 1_555 1_555
C13 C6 1_555 1_555
H5 C13 1_555 1_555
C14 C12 1_555 1_555
H6 C14 1_555 1_555
N3 O4 1_555 1_555
C15 C5 1_555 1_555
H7 C15 1_555 1_555
C16 C6 1_555 1_555
H8 C16 1_555 1_555
C17 C4 1_555 1_555
H9 C17 1_555 1_555
H10 C17 1_555 1_555
H11 C17 1_555 1_555
C18 C14 1_555 1_555
H12 C18 1_555 1_555
C19 C11 1_555 1_555
H13 C19 1_555 1_555
H14 C19 1_555 1_555
H15 C19 1_555 1_555
C20 C16 1_555 1_555
H16 C20 1_555 1_555
C21 C13 1_555 1_555
H17 C21 1_555 1_555
H18 C21 1_555 1_555
C22 C11 1_555 1_555
H19 C22 1_555 1_555
H20 C22 1_555 1_555
H21 C22 1_555 1_555
C23 C11 1_555 1_555
H22 C23 1_555 1_555
H23 C23 1_555 1_555
H24 C23 1_555 1_555
O5 N3 1_555 1_555
C4 C10 1_555 1_555
C9 C15 1_555 1_555
C10 C13 1_555 1_555
N3 C21 1_555 1_555
C18 C20 1_555 1_555

#END
