
#######################################################################
#
#                 Cambridge Crystallographic Data Centre
#                                CCDC 
#
#######################################################################
#
# If this CIF has been generated from an entry in the Cambridge 
# Structural Database, then it will include bibliographic, chemical, 
# crystal, experimental, refinement or atomic coordinate data resulting 
# from the CCDC's data processing and validation procedures.
#
#######################################################################

data_ZEHDEX
_chemical_formula_moiety         'C12 H14 N4 O2'
_chemical_name_systematic        2-(1-Nitrocyclohexyl)-2H-benzotriazole
_symmetry_cell_setting           orthorhombic
_symmetry_space_group_name_H-M   'P 21 21 21'
_symmetry_Int_Tables_number      19
_space_group_name_Hall           'P 2ac 2ab'
loop_
_symmetry_equiv_pos_site_id
_symmetry_equiv_pos_as_xyz
1 x,y,z
2 1/2-x,-y,1/2+z
3 -x,1/2+y,1/2-z
4 1/2+x,1/2-y,-z
_cell_length_a                   5.9246(9)
_cell_length_b                   11.7114(19)
_cell_length_c                   16.898(3)
_cell_angle_alpha                90
_cell_angle_beta                 90
_cell_angle_gamma                90
_cell_volume                     1172.47
_exptl_crystal_colour            colorless
_exptl_crystal_description       rod
_cell_formula_units_Z            4
loop_
_atom_site_label
_atom_site_type_symbol
_atom_site_fract_x
_atom_site_fract_y
_atom_site_fract_z
C1 C 0.8295(2) 1.01585(10) 0.01443(8)
C2 C 0.6532(2) 1.04456(11) -0.04834(8)
H1 H 0.7191 1.0976 -0.0877
H2 H 0.5229 1.0830 -0.0232
C3 C 0.5733(2) 0.93547(11) -0.09007(8)
H3 H 0.4916 0.8868 -0.0517
H4 H 0.4667 0.9561 -0.1328
C4 C 0.7699(2) 0.86778(12) -0.12524(8)
H5 H 0.7123 0.7966 -0.1496
H6 H 0.8442 0.9135 -0.1671
C5 C 0.9406(3) 0.83846(11) -0.06097(9)
H7 H 1.0702 0.7979 -0.0849
H8 H 0.8696 0.7867 -0.0219
C6 C 1.0252(2) 0.94600(11) -0.01876(8)
H9 H 1.1274 0.9238 0.0249
H10 H 1.1122 0.9934 -0.0565
C7 C 0.6992(2) 0.86445(11) 0.18696(8)
C8 C 0.7195(3) 0.78665(12) 0.25099(8)
H11 H 0.8501 0.7406 0.2579
C9 C 0.5411(3) 0.78146(12) 0.30226(9)
H12 H 0.5475 0.7295 0.3454
C10 C 0.3452(3) 0.85165(13) 0.29304(8)
H13 H 0.2274 0.8459 0.3310
C11 C 0.3213(3) 0.92708(12) 0.23139(8)
H14 H 0.1904 0.9732 0.2256
C12 C 0.5029(2) 0.93218(11) 0.17684(8)
N1 N 0.9373(2) 1.12872(10) 0.04570(8)
N2 N 0.8427(2) 0.88520(10) 0.12656(7)
N3 N 0.7277(2) 0.96120(9) 0.08312(7)
N4 N 0.5248(2) 0.99377(10) 0.10969(7)
O1 O 1.0250(3) 1.18992(9) -0.00405(7)
O2 O 0.9340(2) 1.14810(10) 0.11666(7)
loop_
_geom_bond_atom_site_label_1
_geom_bond_atom_site_label_2
_geom_bond_site_symmetry_1
_geom_bond_site_symmetry_2
C1 C2 1_555 1_555
C2 H1 1_555 1_555
H2 C2 1_555 1_555
C3 C2 1_555 1_555
H3 C3 1_555 1_555
H4 C3 1_555 1_555
C4 C3 1_555 1_555
H5 C4 1_555 1_555
H6 C4 1_555 1_555
C5 C4 1_555 1_555
H7 C5 1_555 1_555
H8 C5 1_555 1_555
C6 C1 1_555 1_555
H9 C6 1_555 1_555
H10 C6 1_555 1_555
C7 C8 1_555 1_555
C8 H11 1_555 1_555
C9 C8 1_555 1_555
H12 C9 1_555 1_555
C10 C9 1_555 1_555
H13 C10 1_555 1_555
C11 C10 1_555 1_555
H14 C11 1_555 1_555
C12 C7 1_555 1_555
N1 C1 1_555 1_555
N2 C7 1_555 1_555
N3 C1 1_555 1_555
N4 C12 1_555 1_555
O1 N1 1_555 1_555
O2 N1 1_555 1_555
C5 C6 1_555 1_555
C11 C12 1_555 1_555
N2 N3 1_555 1_555
N3 N4 1_555 1_555

#END
