
#######################################################################
#
#                 Cambridge Crystallographic Data Centre
#                                CCDC 
#
#######################################################################
#
# If this CIF has been generated from an entry in the Cambridge 
# Structural Database, then it will include bibliographic, chemical, 
# crystal, experimental, refinement or atomic coordinate data resulting 
# from the CCDC's data processing and validation procedures.
#
#######################################################################

data_ZEHSOU
_chemical_compound_source        'from root bark of Tripterigium wilfordii'
_chemical_formula_moiety         '2(C29 H38 O4),2(C3 H8 O1)'
_chemical_name_systematic        
'bis(rel-(3S,3aR,5R,7aR)-3-(3-(6,7-Dihydroxy-2,5-dimethyl-1-naphthyl)-1,1-dimethylpropyl)octahydro-5,7a-dimethyl-5,3-indenecarbolactone) propan-2-ol solvate'
_symmetry_cell_setting           monoclinic
_symmetry_space_group_name_H-M   'P 21'
_symmetry_Int_Tables_number      4
_space_group_name_Hall           'P 2yb'
loop_
_symmetry_equiv_pos_site_id
_symmetry_equiv_pos_as_xyz
1 x,y,z
2 -x,1/2+y,-z
_cell_length_a                   10.362(2)
_cell_length_b                   24.887(2)
_cell_length_c                   12.310(2)
_cell_angle_alpha                90
_cell_angle_beta                 112.85(1)
_cell_angle_gamma                90
_cell_volume                     2925.37
_exptl_crystal_colour            colorless
_chemical_melting_point          244-246deg.C
_cell_formula_units_Z            2
loop_
_atom_site_label
_atom_site_type_symbol
_atom_site_fract_x
_atom_site_fract_y
_atom_site_fract_z
O1 O 0.689(1) 0.1611 1.1066(8)
O2 O 0.656(1) 0.0794(6) 1.2340(9)
O3 O 0.3894(9) 0.2318(5) 0.6297(8)
O4 O 0.419(1) 0.2904(6) 0.7687(8)
C1 C 0.643(1) 0.1058(6) 0.937(1)
C2 C 0.658(1) 0.1136(6) 1.051(1)
C3 C 0.642(2) 0.0682(8) 1.117(1)
C4 C 0.604(1) 0.0188(7) 1.072(1)
C5 C 0.584(1) 0.0107(6) 0.950(1)
C6 C 0.547(2) -0.0409(7) 0.897(2)
C7 C 0.531(2) -0.0478(7) 0.782(2)
C8 C 0.552(2) -0.0059(7) 0.712(1)
C9 C 0.592(1) 0.0453(7) 0.764(1)
C10 C 0.607(1) 0.0544(7) 0.884(1)
C11 C 0.625(1) 0.0912(7) 0.696(1)
C12 C 0.497(1) 0.1279(7) 0.637(1)
C13 C 0.524(1) 0.1730(7) 0.559(1)
C14 C 0.393(1) 0.2116(6) 0.517(1)
C15 C 0.250(1) 0.1830(7) 0.452(1)
C16 C 0.178(2) 0.2137(8) 0.333(1)
C17 C 0.239(2) 0.2713(7) 0.362(1)
C18 C 0.395(2) 0.2595(7) 0.436(1)
C19 C 0.475(2) 0.309(67) 0.503(1)
C20 C 0.408(2) 0.3292(7) 0.585(1)
C21 C 0.251(2) 0.3474(8) 0.512(1)
C22 C 0.164(2) 0.3015(8) 0.433(1)
C23 C 0.585(2) -0.0266(7) 1.147(1)
C24 C 0.539(2) -0.0183(8) 0.586(2)
C25 C 0.660(1) 0.2025(7) 0.625(1)
C26 C 0.530(2) 0.1455(7) 0.444(1)
C27 C 0.223(2) 0.3046(8) 0.249(1)
C28 C 0.408(2) 0.2831(7) 0.670(1)
C29 C 0.489(2) 0.3760(7) 0.661(2)
O5 O 0.850(1) 0.1567(5) 0.3935(8)
O6 O 0.711(1) 0.2425(6) 0.2779(9)
O7 O 0.9950(9) 0.0762(5) 0.8573(8)
O8 O 0.894(1) 0.0226(5) 0.7091(9)
C30 C 0.971(1) 0.2081(6) 0.568(1)
C31 C 0.875(1) 0.2041(6) 0.454(1)
C32 C 0.800(1) 0.2503(7) 0.392(1)
C33 C 0.812(2) 0.2995(7) 0.446(1)
C34 C 0.906(1) 0.3052(7) 0.566(1)
C35 C 0.919(2) 0.3535(7) 0.627(1)
C36 C 1.016(2) 0.3579(7) 0.745(2)
C37 C 1.100(2) 0.3145(7) 0.804(1)
C38 C 1.087(1) 0.2655(6) 0.748(1)
C39 C 0.988(1) 0.2594(7) 0.628(1)
C40 C 1.182(1) 0.2177(6) 0.810(1)
C41 C 1.107(1) 0.1786(6) 0.865(1)
C42 C 1.203(1) 0.1320(6) 0.934(1)
C43 C 1.108(1) 0.0920(6) 0.972(1)
C44 C 1.033(2) 0.1197(7) 1.045(1)
C45 C 1.071(2) 0.0847(7) 1.158(1)
C46 C 1.098(2) 0.0277(8) 1.119(1)
C47 C 1.182(1) 0.0396(7) 1.043(1)
C48 C 1.190(1) -0.0075(7) 0.970(1)
C49 C 1.041(2) -0.0231(8) 0.886(1)
C50 C 0.957(2) -0.0403(7) 0.960(1)
C51 C 0.953(2) 0.0011(8) 1.044(1)
C52 C 0.733(2) 0.3471(7) 0.377(1)
C53 C 1.208(2) 0.3248(8) 0.930(1)
C54 C 1.273(1) 0.1050(7) 0.862(1)
C55 C 1.318(1) 0.1569(8) 1.049(1)
C56 C 1.188(2) -0.0095(8) 1.228(2)
C57 C 0.970(2) 0.0269(7) 0.807(1)
C58 C 1.040(2) -0.0693(7) 0.803(2)
O9 O 0.636(1) 0.2405(6) 0.950(1)
C59 C 0.730(3) 0.287(1) 0.986(3)
C60 C 0.835(3) 0.293(2) 0.968(4)
C61 C 0.656(3) 0.3319(10) 1.019(2)
O10 O 0.959(1) 0.0740(6) 0.535(1)
C62 C 1.011(3) 0.0308(9) 0.478(2)
C63 C 1.154(2) 0.014(1) 0.551(2)
C64 C 0.908(2) -0.0146(9) 0.445(2)
loop_
_geom_bond_atom_site_label_1
_geom_bond_atom_site_label_2
_geom_bond_site_symmetry_1
_geom_bond_site_symmetry_2
O1 C2 1_555 1_555
O2 C3 1_555 1_555
O3 C14 1_555 1_555
O4 C28 1_555 1_555
O5 C31 1_555 1_555
O6 C32 1_555 1_555
O7 C43 1_555 1_555
O8 C57 1_555 1_555
O9 C59 1_555 1_555
O10 C62 1_555 1_555
C1 C2 1_555 1_555
C2 C3 1_555 1_555
C3 C4 1_555 1_555
C4 C5 1_555 1_555
C5 C6 1_555 1_555
C6 C7 1_555 1_555
C7 C8 1_555 1_555
C8 C9 1_555 1_555
C9 C10 1_555 1_555
C10 C1 1_555 1_555
C11 C9 1_555 1_555
C12 C11 1_555 1_555
C13 C12 1_555 1_555
C14 C13 1_555 1_555
C15 C14 1_555 1_555
C16 C15 1_555 1_555
C17 C16 1_555 1_555
C18 C14 1_555 1_555
C19 C18 1_555 1_555
C20 C19 1_555 1_555
C21 C20 1_555 1_555
C22 C17 1_555 1_555
C23 C4 1_555 1_555
C24 C8 1_555 1_555
C25 C13 1_555 1_555
C26 C13 1_555 1_555
C27 C17 1_555 1_555
C28 O3 1_555 1_555
C29 C20 1_555 1_555
C30 C31 1_555 1_555
C31 C32 1_555 1_555
C32 C33 1_555 1_555
C33 C34 1_555 1_555
C34 C35 1_555 1_555
C35 C36 1_555 1_555
C36 C37 1_555 1_555
C37 C38 1_555 1_555
C38 C39 1_555 1_555
C39 C30 1_555 1_555
C40 C38 1_555 1_555
C41 C40 1_555 1_555
C42 C41 1_555 1_555
C43 C42 1_555 1_555
C44 C43 1_555 1_555
C45 C44 1_555 1_555
C46 C45 1_555 1_555
C47 C43 1_555 1_555
C48 C47 1_555 1_555
C49 C48 1_555 1_555
C50 C49 1_555 1_555
C51 C46 1_555 1_555
C52 C33 1_555 1_555
C53 C37 1_555 1_555
C54 C42 1_555 1_555
C55 C42 1_555 1_555
C56 C46 1_555 1_555
C57 O7 1_555 1_555
C58 C49 1_555 1_555
C59 C60 1_555 1_555
C61 C59 1_555 1_555
C62 C63 1_555 1_555
C64 C62 1_555 1_555
C5 C10 1_555 1_555
C17 C18 1_555 1_555
C20 C28 1_555 1_555
C21 C22 1_555 1_555
C34 C39 1_555 1_555
C46 C47 1_555 1_555
C49 C57 1_555 1_555
C50 C51 1_555 1_555

#END
