
#######################################################################
#
#                 Cambridge Crystallographic Data Centre
#                                CCDC 
#
#######################################################################
#
# If this CIF has been generated from an entry in the Cambridge 
# Structural Database, then it will include bibliographic, chemical, 
# crystal, experimental, refinement or atomic coordinate data resulting 
# from the CCDC's data processing and validation procedures.
#
#######################################################################

data_ZEJFOM
_chemical_formula_moiety         'C28 H25 N3 O1'
_chemical_name_systematic        
5-(diphenylamino)-3-isopropyl-1-phenyl-1,3-dihydro-2H-benzimidazol-2-one
_symmetry_cell_setting           monoclinic
_symmetry_space_group_name_H-M   'P 21/n'
_symmetry_Int_Tables_number      14
_space_group_name_Hall           '-P 2yn'
loop_
_symmetry_equiv_pos_site_id
_symmetry_equiv_pos_as_xyz
1 x,y,z
2 1/2-x,1/2+y,1/2-z
3 -x,-y,-z
4 1/2+x,1/2-y,1/2+z
_cell_length_a                   7.9689(6)
_cell_length_b                   11.6429(9)
_cell_length_c                   24.549(2)
_cell_angle_alpha                90
_cell_angle_beta                 97.043(2)
_cell_angle_gamma                90
_cell_volume                     2260.5
_exptl_crystal_colour            yellow
_exptl_crystal_description       block
_cell_formula_units_Z            4
loop_
_atom_site_label
_atom_site_type_symbol
_atom_site_fract_x
_atom_site_fract_y
_atom_site_fract_z
O1 O 0.9782(2) 0.20081(15) 0.23642(7)
N1 N 0.5689(2) 0.33634(16) -0.03104(7)
N2 N 0.7809(2) 0.26457(16) 0.16448(8)
N3 N 1.0022(2) 0.16395(15) 0.14440(7)
C1 C 0.3955(3) 0.1630(2) -0.03449(11)
H1 H 0.4808 0.1251 -0.0122
C2 C 0.2493(4) 0.1057(3) -0.05299(14)
H2 H 0.2364 0.0294 -0.0431
C3 C 0.1222(4) 0.1595(4) -0.08582(14)
H3 H 0.0249 0.1193 -0.0992
C4 C 0.1392(3) 0.2736(3) -0.09889(12)
H4 H 0.0519 0.3113 -0.1204
C5 C 0.2861(3) 0.3324(3) -0.08010(11)
H5 H 0.2963 0.4096 -0.0887
C6 C 0.4175(3) 0.27705(19) -0.04871(9)
C7 C 0.6489(3) 0.40425(18) -0.06872(9)
C8 C 0.6240(3) 0.3855(2) -0.12486(10)
H6 H 0.5502 0.3283 -0.1393
C9 C 0.7086(3) 0.4515(3) -0.15935(11)
H7 H 0.6907 0.4385 -0.1970
C10 C 0.8177(4) 0.5354(3) -0.13910(14)
H8 H 0.8743 0.5795 -0.1626
C11 C 0.8433(4) 0.5542(2) -0.08339(15)
H9 H 0.9183 0.6111 -0.0693
C12 C 0.7595(3) 0.4899(2) -0.04820(11)
H10 H 0.7772 0.5040 -0.0106
C13 C 0.6826(3) 0.28718(18) 0.01293(9)
C14 C 0.8175(3) 0.22144(19) 0.00068(10)
H11 H 0.8311 0.2085 -0.0359
C15 C 0.9329(3) 0.17424(19) 0.04128(9)
H12 H 1.0233 0.1301 0.0327
C16 C 0.9084(3) 0.19539(17) 0.09481(9)
C17 C 0.7712(3) 0.25971(17) 0.10764(9)
C18 C 0.6558(3) 0.30701(18) 0.06688(9)
H13 H 0.5643 0.3502 0.0754
C19 C 0.9244(3) 0.20901(19) 0.18774(10)
C20 C 1.1658(3) 0.0018(2) 0.18443(10)
H14 H 1.0795 -0.0152 0.2055
C21 C 1.3073(4) -0.0672(2) 0.18755(11)
H15 H 1.3176 -0.1297 0.2113
C22 C 1.4327(4) -0.0439(3) 0.15565(12)
H16 H 1.5262 -0.0921 0.1568
C23 C 1.4205(3) 0.0504(3) 0.12201(12)
H17 H 1.5069 0.0667 0.1010
C24 C 1.2812(3) 0.1212(2) 0.11911(11)
H18 H 1.2738 0.1855 0.0965
C25 C 1.1522(3) 0.09562(18) 0.15019(9)
C26 C 0.6653(3) 0.3298(2) 0.19534(10)
H19 H 0.5666 0.3484 0.1689
C27 C 0.7418(3) 0.4428(2) 0.21426(12)
H20 H 0.6646 0.4839 0.2342
H21 H 0.8457 0.4297 0.2377
H22 H 0.7642 0.4873 0.1830
C28 C 0.6000(4) 0.2587(3) 0.23894(13)
H23 H 0.5255 0.3043 0.2580
H24 H 0.5396 0.1938 0.2224
H25 H 0.6932 0.2325 0.2644
loop_
_geom_bond_atom_site_label_1
_geom_bond_atom_site_label_2
_geom_bond_site_symmetry_1
_geom_bond_site_symmetry_2
O1 C19 1_555 1_555
N1 C6 1_555 1_555
N2 C17 1_555 1_555
N3 C16 1_555 1_555
C1 H1 1_555 1_555
C2 C1 1_555 1_555
H2 C2 1_555 1_555
C3 C2 1_555 1_555
H3 C3 1_555 1_555
C4 C3 1_555 1_555
H4 C4 1_555 1_555
C5 C4 1_555 1_555
H5 C5 1_555 1_555
C6 C1 1_555 1_555
C7 N1 1_555 1_555
C8 C7 1_555 1_555
H6 C8 1_555 1_555
C9 C8 1_555 1_555
H7 C9 1_555 1_555
C10 C9 1_555 1_555
H8 C10 1_555 1_555
C11 C10 1_555 1_555
H9 C11 1_555 1_555
C12 C7 1_555 1_555
H10 C12 1_555 1_555
C13 N1 1_555 1_555
C14 C13 1_555 1_555
H11 C14 1_555 1_555
C15 C14 1_555 1_555
H12 C15 1_555 1_555
C16 C15 1_555 1_555
C17 C16 1_555 1_555
C18 C13 1_555 1_555
H13 C18 1_555 1_555
C19 N2 1_555 1_555
C20 H14 1_555 1_555
C21 C20 1_555 1_555
H15 C21 1_555 1_555
C22 C21 1_555 1_555
H16 C22 1_555 1_555
C23 C22 1_555 1_555
H17 C23 1_555 1_555
C24 C23 1_555 1_555
H18 C24 1_555 1_555
C25 N3 1_555 1_555
C26 N2 1_555 1_555
H19 C26 1_555 1_555
C27 C26 1_555 1_555
H20 C27 1_555 1_555
H21 C27 1_555 1_555
H22 C27 1_555 1_555
C28 C26 1_555 1_555
H23 C28 1_555 1_555
H24 C28 1_555 1_555
H25 C28 1_555 1_555
N3 C19 1_555 1_555
C5 C6 1_555 1_555
C11 C12 1_555 1_555
C17 C18 1_555 1_555
C20 C25 1_555 1_555
C24 C25 1_555 1_555

#END
