
#######################################################################
#
#                 Cambridge Crystallographic Data Centre
#                                CCDC 
#
#######################################################################
#
# If this CIF has been generated from an entry in the Cambridge 
# Structural Database, then it will include bibliographic, chemical, 
# crystal, experimental, refinement or atomic coordinate data resulting 
# from the CCDC's data processing and validation procedures.
#
#######################################################################

data_ZEJGAZ
_chemical_formula_moiety         'C129 H156 N4 O26'
_chemical_name_systematic        
"34,34'-(2,2'-{propane-2,2-diylbis[(4,1-phenylene)oxy(1-oxoethane-2,1-diyl)azanediylhexane-6,1-diylazanediyl]}bis(2-oxoethan-1-olato))-bis(4-butoxy-9,14,19,24,26,28,30,32-octamethoxyhexacyclo[21.2.2.2^3,6^.2^8,11^.2^13,16^.2^18,21^]pentatriaconta-1(25),3,5,8,10,13,15,18,20,23,26,28,30,32,34-pentadecaene) unknown solvate"
_symmetry_cell_setting           orthorhombic
_symmetry_space_group_name_H-M   'P b c n'
_symmetry_Int_Tables_number      60
_space_group_name_Hall           '-P 2n 2ab'
loop_
_symmetry_equiv_pos_site_id
_symmetry_equiv_pos_as_xyz
1 x,y,z
2 1/2-x,1/2-y,1/2+z
3 1/2+x,1/2-y,-z
4 -x,y,1/2-z
5 -x,-y,-z
6 1/2+x,1/2+y,1/2-z
7 1/2-x,1/2+y,z
8 x,-y,1/2+z
_cell_length_a                   14.107(3)
_cell_length_b                   23.359(4)
_cell_length_c                   42.774(8)
_cell_angle_alpha                90
_cell_angle_beta                 90
_cell_angle_gamma                90
_cell_volume                     14095.1
_exptl_crystal_colour            colorless
_exptl_crystal_description       block
_cell_formula_units_Z            4
loop_
_atom_site_label
_atom_site_type_symbol
_atom_site_fract_x
_atom_site_fract_y
_atom_site_fract_z
C1 C 0.1758(8) -0.0295(4) 0.0536(2)
H1 H 0.1236 -0.0546 0.0482
H2 H 0.2331 -0.0456 0.0447
C2 C 0.1583(8) 0.0298(4) 0.03895(19)
C3 C 0.2340(8) 0.0647(5) 0.0299(2)
H3 H 0.2961 0.0530 0.0334
C4 C 0.2152(9) 0.1178(5) 0.0155(2)
C5 C 0.1232(9) 0.1359(5) 0.0124(2)
C6 C 0.0491(8) 0.1019(4) 0.0210(2)
H4 H -0.0128 0.1141 0.0178
C7 C 0.0662(8) 0.0496(5) 0.0344(2)
C8 C -0.1027(9) 0.0259(7) 0.0373(4)
H5 H -0.1229 0.0561 0.0510
H6 H -0.1422 -0.0071 0.0403
H7 H -0.1074 0.0385 0.0160
C9 C 0.3827(9) 0.1345(7) 0.0123(4)
H8 H 0.3836 0.1100 0.0303
H9 H 0.4237 0.1667 0.0159
H10 H 0.4044 0.1136 -0.0056
C10 C 0.1006(8) 0.1963(4) -0.0013(2)
H11 H 0.1500 0.2073 -0.0159
H12 H 0.0410 0.1949 -0.0126
C11 C 0.0940(10) 0.2412(4) 0.0251(2)
C12 C 0.1771(8) 0.2685(5) 0.0356(3)
H13 H 0.2353 0.2614 0.0261
C13 C 0.1703(9) 0.3058(4) 0.0601(3)
C14 C 0.0881(8) 0.3178(4) 0.0739(2)
C15 C 0.0075(8) 0.2917(4) 0.0622(2)
H14 H -0.0511 0.3012 0.0708
C16 C 0.0110(8) 0.2535(4) 0.0393(2)
C17 C -0.1577(8) 0.2351(5) 0.0413(2)
H15 H -0.1534 0.2282 0.0634
H16 H -0.2041 0.2100 0.0323
H17 H -0.1761 0.2741 0.0377
C18 C 0.3397(9) 0.3180(5) 0.0587(3)
H18 H 0.3518 0.2778 0.0610
H19 H 0.3885 0.3394 0.0691
H20 H 0.3390 0.3279 0.0369
C19 C 0.0824(7) 0.3593(4) 0.1020(2)
H21 H 0.1330 0.3873 0.1005
H22 H 0.0225 0.3797 0.1014
C20 C 0.0909(7) 0.3277(4) 0.1322(2)
C21 C 0.1818(7) 0.3204(4) 0.1456(2)
H23 H 0.2348 0.3373 0.1365
C22 C 0.1909(7) 0.2863(4) 0.1734(2)
C23 C 0.1164(7) 0.2627(4) 0.1874(2)
C24 C 0.0268(7) 0.2707(4) 0.1745(2)
H24 H -0.0253 0.2534 0.1839
C25 C 0.0130(7) 0.3040(4) 0.1476(2)
C26 C -0.1568(9) 0.3025(6) 0.1516(3)
H25 H -0.1523 0.3223 0.1712
H26 H -0.1638 0.2622 0.1554
H27 H -0.2108 0.3163 0.1402
C27 C 0.3530(8) 0.3084(6) 0.1749(3)
H28 H 0.4043 0.3084 0.1896
H29 H 0.3349 0.3471 0.1703
H30 H 0.3730 0.2898 0.1560
C28 C 0.1250(6) 0.2279(4) 0.2175(2)
H31 H 0.0670 0.2319 0.2295
H32 H 0.1766 0.2431 0.2300
C29 C 0.1432(6) 0.1639(4) 0.21122(16)
C30 C 0.2365(6) 0.1450(4) 0.20834(18)
H33 H 0.2863 0.1705 0.2113
C31 C 0.2555(6) 0.0879(4) 0.20109(19)
C32 C 0.1824(7) 0.0502(4) 0.19823(18)
C33 C 0.0905(7) 0.0675(4) 0.20243(16)
H34 H 0.0412 0.0412 0.2011
C34 C 0.0711(7) 0.1259(4) 0.20886(16)
C35 C 0.4239(7) 0.1067(5) 0.2009(3)
H35 H 0.4253 0.1352 0.1848
H36 H 0.4820 0.0852 0.2005
H37 H 0.4171 0.1249 0.2209
C36 C -0.0952(7) 0.1064(5) 0.2121(2)
H38 H -0.0932 0.0843 0.1932
H39 H -0.1549 0.1259 0.2135
H40 H -0.0880 0.0813 0.2297
C37 C 0.2022(6) -0.0120(3) 0.18929(19)
H41 H 0.2167 -0.0411 0.2034
C38 C 0.1949(6) -0.0195(3) 0.1551(2)
C39 C 0.2736(6) -0.0097(3) 0.1355(2)
H42 H 0.3312 -0.0001 0.1447
C40 C 0.2694(7) -0.0136(3) 0.1033(2)
C41 C 0.1858(8) -0.0278(3) 0.0892(2)
C42 C 0.1046(7) -0.0387(3) 0.1076(2)
H43 H 0.0475 -0.0487 0.0982
C43 C 0.1105(7) -0.0344(3) 0.1394(2)
C44 C -0.0523(8) -0.0600(5) 0.1465(3)
H44 H -0.0463 -0.0972 0.1367
H45 H -0.0743 -0.0328 0.1310
C45 C -0.1217(8) -0.0629(6) 0.1738(3)
H46 H -0.1232 -0.0259 0.1841
H47 H -0.1847 -0.0704 0.1657
C46 C -0.0979(9) -0.1078(6) 0.1975(3)
H48 H -0.0342 -0.1019 0.2055
H49 H -0.1010 -0.1455 0.1881
C47 C -0.1718(10) -0.1028(7) 0.2247(4)
H50 H -0.1752 -0.0637 0.2316
H51 H -0.1526 -0.1268 0.2418
H52 H -0.2329 -0.1147 0.2173
C48 C 0.4312(8) 0.0187(5) 0.0963(3)
H53 H 0.4799 0.0156 0.0804
H54 H 0.4501 -0.0054 0.1137
C49 C 0.4282(9) 0.0778(5) 0.1071(3)
C50 C 0.3278(10) 0.1677(5) 0.1124(4)
H55 H 0.3368 0.1670 0.1349
H56 H 0.3708 0.1959 0.1037
C51 C 0.2336(10) 0.1827(5) 0.1054(3)
H57 H 0.2276 0.1837 0.0828
H58 H 0.2234 0.2214 0.1128
C52 C 0.1557(8) 0.1469(4) 0.1176(3)
H59 H 0.1674 0.1077 0.1113
H60 H 0.1580 0.1482 0.1402
C53 C 0.0590(9) 0.1624(6) 0.1077(3)
H61 H 0.0550 0.1600 0.0851
H62 H 0.0466 0.2018 0.1136
C54 C -0.0171(9) 0.1241(6) 0.1220(3)
H63 H -0.0113 0.0856 0.1137
H64 H -0.0088 0.1224 0.1444
C55 C -0.1148(10) 0.1481(7) 0.1143(3)
H65 H -0.1186 0.1875 0.1214
H66 H -0.1237 0.1480 0.0918
C56 C -0.2423(10) 0.0714(7) 0.1154(3)
C57 C -0.3069(10) 0.0368(7) 0.1337(3)
H67 H -0.3719 0.0447 0.1276
H68 H -0.2944 -0.0035 0.1301
C58 C -0.3473(11) 0.0161(6) 0.1841(3)
C59 C -0.4084(12) -0.0259(6) 0.1740(4)
H69 H -0.4152 -0.0328 0.1527
C60 C -0.4575(12) -0.0566(6) 0.1943(6)
H70 H -0.4965 -0.0857 0.1869
C61 C -0.4531(8) -0.0469(4) 0.2276(4)
C62 C -0.3920(7) -0.0046(4) 0.2375(3)
H71 H -0.3853 0.0027 0.2587
C63 C -0.3395(9) 0.0279(5) 0.2157(3)
H72 H -0.2998 0.0571 0.2226
C64 C -0.5000 -0.0820(7) 0.2500
C65 C -0.5751(10) -0.1245(5) 0.2356(4)
H73 H -0.5876 -0.1548 0.2502
H74 H -0.5506 -0.1403 0.2165
H75 H -0.6328 -0.1041 0.2313
N1 N 0.3497(8) 0.1071(3) 0.0983(2)
H76 H 0.3114 0.0924 0.0849
N2 N -0.1907(8) 0.1148(4) 0.1290(2)
H77 H -0.2044 0.1232 0.1480
O1 O -0.0028(6) 0.0107(3) 0.04440(16)
O2 O 0.2870(6) 0.1546(4) 0.00689(18)
O3 O -0.0673(6) 0.2247(3) 0.02706(15)
O4 O 0.2521(6) 0.3312(3) 0.07200(18)
O5 O -0.0718(5) 0.3125(3) 0.13356(17)
O6 O 0.2772(5) 0.2796(3) 0.18728(17)
O7 O -0.0197(5) 0.1474(3) 0.21191(14)
O8 O 0.3440(5) 0.0681(2) 0.19564(13)
O9 O 0.0365(5) -0.0422(3) 0.15895(15)
O10 O 0.3448(5) -0.0035(3) 0.08373(16)
O11 O 0.4896(7) 0.0998(4) 0.1220(3)
O12 O -0.2316(10) 0.0713(13) 0.0877(3)
O13 O -0.2935(7) 0.0501(4) 0.1652(2)
C1C C -1.1758(8) -0.0295(4) 0.4464(2)
H1C H -1.1236 -0.0546 0.4518
H2C H -1.2331 -0.0456 0.4553
C2C C -1.1583(8) 0.0298(4) 0.46105(19)
C3C C -1.2340(8) 0.0647(5) 0.4701(2)
H3C H -1.2961 0.0530 0.4666
C4C C -1.2152(9) 0.1178(5) 0.4845(2)
C5C C -1.1232(9) 0.1359(5) 0.4876(2)
C6C C -1.0491(8) 0.1019(4) 0.4790(2)
H4C H -0.9872 0.1141 0.4822
C7C C -1.0662(8) 0.0496(5) 0.4656(2)
C8C C -0.8973(9) 0.0259(7) 0.4627(4)
H5C H -0.8771 0.0561 0.4490
H6C H -0.8578 -0.0071 0.4597
H7C H -0.8926 0.0385 0.4840
C9C C -1.3827(9) 0.1345(7) 0.4877(4)
H8C H -1.3836 0.1100 0.4697
H9C H -1.4237 0.1667 0.4841
H10C H -1.4044 0.1136 0.5056
C10C C -1.1006(8) 0.1963(4) 0.5013(2)
H11C H -1.1500 0.2073 0.5159
H12C H -1.0410 0.1949 0.5126
C11C C -1.0940(10) 0.2412(4) 0.4749(2)
C12C C -1.1771(8) 0.2685(5) 0.4644(3)
H13C H -1.2353 0.2614 0.4739
C13C C -1.1703(9) 0.3058(4) 0.4399(3)
C14C C -1.0881(8) 0.3178(4) 0.4261(2)
C15C C -1.0075(8) 0.2917(4) 0.4378(2)
H14C H -0.9489 0.3012 0.4292
C16C C -1.0110(8) 0.2535(4) 0.4607(2)
C17C C -0.8423(8) 0.2351(5) 0.4587(2)
H15C H -0.8466 0.2282 0.4366
H16C H -0.7959 0.2100 0.4677
H17C H -0.8239 0.2741 0.4623
C18C C -1.3397(9) 0.3180(5) 0.4413(3)
H18C H -1.3518 0.2778 0.4390
H19C H -1.3885 0.3394 0.4309
H20C H -1.3390 0.3279 0.4631
C19C C -1.0824(7) 0.3593(4) 0.3980(2)
H21C H -1.1330 0.3873 0.3995
H22C H -1.0225 0.3797 0.3986
C20C C -1.0909(7) 0.3277(4) 0.3678(2)
C21C C -1.1818(7) 0.3204(4) 0.3544(2)
H23C H -1.2348 0.3373 0.3635
C22C C -1.1909(7) 0.2863(4) 0.3266(2)
C23C C -1.1164(7) 0.2627(4) 0.3126(2)
C24C C -1.0268(7) 0.2707(4) 0.3255(2)
H24C H -0.9747 0.2534 0.3161
C25C C -1.0130(7) 0.3040(4) 0.3524(2)
C26C C -0.8432(9) 0.3025(6) 0.3484(3)
H25C H -0.8477 0.3223 0.3288
H26C H -0.8362 0.2622 0.3446
H27C H -0.7892 0.3163 0.3598
C27C C -1.3530(8) 0.3084(6) 0.3251(3)
H28C H -1.4043 0.3084 0.3104
H29C H -1.3349 0.3471 0.3297
H30C H -1.3730 0.2898 0.3440
C28C C -1.1250(6) 0.2279(4) 0.2825(2)
H31C H -1.0670 0.2319 0.2705
H32C H -1.1766 0.2431 0.2700
C29C C -1.1432(6) 0.1639(4) 0.28878(16)
C30C C -1.2365(6) 0.1450(4) 0.29166(18)
H33C H -1.2863 0.1705 0.2887
C31C C -1.2555(6) 0.0879(4) 0.29891(19)
C32C C -1.1824(7) 0.0502(4) 0.30177(18)
C33C C -1.0905(7) 0.0675(4) 0.29757(16)
H34C H -1.0412 0.0412 0.2989
C34C C -1.0711(7) 0.1259(4) 0.29114(16)
C35C C -1.4239(7) 0.1067(5) 0.2991(3)
H35C H -1.4253 0.1352 0.3152
H36C H -1.4820 0.0852 0.2995
H37C H -1.4171 0.1249 0.2791
C36C C -0.9048(7) 0.1064(5) 0.2879(2)
H38C H -0.9068 0.0843 0.3068
H39C H -0.8451 0.1259 0.2865
H40C H -0.9120 0.0813 0.2703
C37C C -1.2022(6) -0.0120(3) 0.31071(19)
H41C H -1.2167 -0.0411 0.2966
C38C C -1.1949(6) -0.0195(3) 0.3449(2)
C39C C -1.2736(6) -0.0097(3) 0.3645(2)
H42C H -1.3312 -0.0001 0.3553
C40C C -1.2694(7) -0.0136(3) 0.3967(2)
C41C C -1.1858(8) -0.0278(3) 0.4108(2)
C42C C -1.1046(7) -0.0387(3) 0.3924(2)
H43C H -1.0475 -0.0487 0.4018
C43C C -1.1105(7) -0.0344(3) 0.3606(2)
C44C C -0.9477(8) -0.0600(5) 0.3535(3)
H44C H -0.9537 -0.0972 0.3633
H45C H -0.9257 -0.0328 0.3690
C45C C -0.8783(8) -0.0629(6) 0.3262(3)
H46C H -0.8768 -0.0259 0.3159
H47C H -0.8153 -0.0704 0.3343
C46C C -0.9021(9) -0.1078(6) 0.3025(3)
H48C H -0.9658 -0.1019 0.2945
H49C H -0.8990 -0.1455 0.3119
C47C C -0.8282(10) -0.1028(7) 0.2753(4)
H50C H -0.8248 -0.0637 0.2684
H51C H -0.8474 -0.1268 0.2582
H52C H -0.7671 -0.1147 0.2827
C48C C -1.4312(8) 0.0187(5) 0.4037(3)
H53C H -1.4799 0.0156 0.4196
H54C H -1.4501 -0.0054 0.3863
C49C C -1.4282(9) 0.0778(5) 0.3929(3)
C50C C -1.3278(10) 0.1677(5) 0.3876(4)
H55C H -1.3368 0.1670 0.3651
H56C H -1.3708 0.1959 0.3963
C51C C -1.2336(10) 0.1827(5) 0.3946(3)
H57C H -1.2276 0.1837 0.4172
H58C H -1.2234 0.2214 0.3872
C52C C -1.1557(8) 0.1469(4) 0.3824(3)
H59C H -1.1674 0.1077 0.3887
H60C H -1.1580 0.1482 0.3598
C53C C -1.0590(9) 0.1624(6) 0.3923(3)
H61C H -1.0550 0.1600 0.4149
H62C H -1.0466 0.2018 0.3864
C54C C -0.9829(9) 0.1241(6) 0.3780(3)
H63C H -0.9887 0.0856 0.3863
H64C H -0.9912 0.1224 0.3556
C55C C -0.8852(10) 0.1481(7) 0.3857(3)
H65C H -0.8814 0.1875 0.3786
H66C H -0.8763 0.1480 0.4082
C56C C -0.7577(10) 0.0714(7) 0.3846(3)
C57C C -0.6931(10) 0.0368(7) 0.3663(3)
H67C H -0.6281 0.0447 0.3724
H68C H -0.7056 -0.0035 0.3699
C58C C -0.6527(11) 0.0161(6) 0.3159(3)
C59C C -0.5916(12) -0.0259(6) 0.3260(4)
H69C H -0.5848 -0.0328 0.3473
C60C C -0.5425(12) -0.0566(6) 0.3057(6)
H70C H -0.5035 -0.0857 0.3131
C61C C -0.5469(8) -0.0469(4) 0.2724(4)
C62C C -0.6080(7) -0.0046(4) 0.2625(3)
H71C H -0.6147 0.0027 0.2413
C63C C -0.6605(9) 0.0279(5) 0.2843(3)
H72C H -0.7002 0.0571 0.2774
C65C C -0.4249(10) -0.1245(5) 0.2644(4)
H73C H -0.4124 -0.1548 0.2498
H74C H -0.4494 -0.1403 0.2835
H75C H -0.3672 -0.1041 0.2687
N1C N -1.3497(8) 0.1071(3) 0.4017(2)
H76C H -1.3114 0.0924 0.4151
N2C N -0.8093(8) 0.1148(4) 0.3710(2)
H77C H -0.7956 0.1232 0.3520
O1C O -0.9972(6) 0.0107(3) 0.45560(16)
O2C O -1.2870(6) 0.1546(4) 0.49311(18)
O3C O -0.9327(6) 0.2247(3) 0.47294(15)
O4C O -1.2521(6) 0.3312(3) 0.42800(18)
O5C O -0.9282(5) 0.3125(3) 0.36644(17)
O6C O -1.2772(5) 0.2796(3) 0.31272(17)
O7C O -0.9803(5) 0.1474(3) 0.28809(14)
O8C O -1.3440(5) 0.0681(2) 0.30436(13)
O9C O -1.0365(5) -0.0422(3) 0.34105(15)
O10C O -1.3448(5) -0.0035(3) 0.41627(16)
O11C O -1.4896(7) 0.0998(4) 0.3780(3)
O12C O -0.7684(10) 0.0713(13) 0.4123(3)
O13C O -0.7065(7) 0.0501(4) 0.3348(2)
loop_
_geom_bond_atom_site_label_1
_geom_bond_atom_site_label_2
_geom_bond_site_symmetry_1
_geom_bond_site_symmetry_2
C1 H1 1_555 1_555
H2 C1 1_555 1_555
C2 C1 1_555 1_555
C3 C2 1_555 1_555
H3 C3 1_555 1_555
C4 C3 1_555 1_555
C5 C4 1_555 1_555
C6 C5 1_555 1_555
H4 C6 1_555 1_555
C7 C2 1_555 1_555
C8 H5 1_555 1_555
H6 C8 1_555 1_555
H7 C8 1_555 1_555
C9 H8 1_555 1_555
H9 C9 1_555 1_555
H10 C9 1_555 1_555
C10 C5 1_555 1_555
H11 C10 1_555 1_555
H12 C10 1_555 1_555
C11 C10 1_555 1_555
C12 C11 1_555 1_555
H13 C12 1_555 1_555
C13 C12 1_555 1_555
C14 C13 1_555 1_555
C15 C14 1_555 1_555
H14 C15 1_555 1_555
C16 C11 1_555 1_555
C17 H15 1_555 1_555
H16 C17 1_555 1_555
H17 C17 1_555 1_555
C18 H18 1_555 1_555
H19 C18 1_555 1_555
H20 C18 1_555 1_555
C19 C14 1_555 1_555
H21 C19 1_555 1_555
H22 C19 1_555 1_555
C20 C19 1_555 1_555
C21 C20 1_555 1_555
H23 C21 1_555 1_555
C22 C21 1_555 1_555
C23 C22 1_555 1_555
C24 C23 1_555 1_555
H24 C24 1_555 1_555
C25 C20 1_555 1_555
C26 H25 1_555 1_555
H26 C26 1_555 1_555
H27 C26 1_555 1_555
C27 H28 1_555 1_555
H29 C27 1_555 1_555
H30 C27 1_555 1_555
C28 C23 1_555 1_555
H31 C28 1_555 1_555
H32 C28 1_555 1_555
C29 C28 1_555 1_555
C30 C29 1_555 1_555
H33 C30 1_555 1_555
C31 C30 1_555 1_555
C32 C31 1_555 1_555
C33 C32 1_555 1_555
H34 C33 1_555 1_555
C34 C29 1_555 1_555
C35 H35 1_555 1_555
H36 C35 1_555 1_555
H37 C35 1_555 1_555
C36 H38 1_555 1_555
H39 C36 1_555 1_555
H40 C36 1_555 1_555
C37 C32 1_555 1_555
H41 C37 1_555 1_555
C38 C37 1_555 1_555
C39 C38 1_555 1_555
H42 C39 1_555 1_555
C40 C39 1_555 1_555
C41 C1 1_555 1_555
C42 C41 1_555 1_555
H43 C42 1_555 1_555
C43 C38 1_555 1_555
C44 H44 1_555 1_555
H45 C44 1_555 1_555
C45 C44 1_555 1_555
H46 C45 1_555 1_555
H47 C45 1_555 1_555
C46 C45 1_555 1_555
H48 C46 1_555 1_555
H49 C46 1_555 1_555
C47 C46 1_555 1_555
H50 C47 1_555 1_555
H51 C47 1_555 1_555
H52 C47 1_555 1_555
C48 H53 1_555 1_555
H54 C48 1_555 1_555
C49 C48 1_555 1_555
C50 H55 1_555 1_555
H56 C50 1_555 1_555
C51 C50 1_555 1_555
H57 C51 1_555 1_555
H58 C51 1_555 1_555
C52 C51 1_555 1_555
H59 C52 1_555 1_555
H60 C52 1_555 1_555
C53 C52 1_555 1_555
H61 C53 1_555 1_555
H62 C53 1_555 1_555
C54 C53 1_555 1_555
H63 C54 1_555 1_555
H64 C54 1_555 1_555
C55 C54 1_555 1_555
H65 C55 1_555 1_555
H66 C55 1_555 1_555
C56 C57 1_555 1_555
C57 H67 1_555 1_555
H68 C57 1_555 1_555
C58 C59 1_555 1_555
C59 H69 1_555 1_555
C60 C59 1_555 1_555
H70 C60 1_555 1_555
C61 C60 1_555 1_555
C62 C61 1_555 1_555
H71 C62 1_555 1_555
C63 C58 1_555 1_555
H72 C63 1_555 1_555
C64 C61 1_555 1_555
C65 C64 1_555 1_555
H73 C65 1_555 1_555
H74 C65 1_555 1_555
H75 C65 1_555 1_555
N1 C49 1_555 1_555
H76 N1 1_555 1_555
N2 C55 1_555 1_555
H77 N2 1_555 1_555
O1 C7 1_555 1_555
O2 C4 1_555 1_555
O3 C16 1_555 1_555
O4 C13 1_555 1_555
O5 C25 1_555 1_555
O6 C22 1_555 1_555
O7 C34 1_555 1_555
O8 C31 1_555 1_555
O9 C43 1_555 1_555
O10 C40 1_555 1_555
O11 C49 1_555 1_555
O12 C56 1_555 1_555
O13 C57 1_555 1_555
C1C H1C 1_555 1_555
H2C C1C 1_555 1_555
C2C C1C 1_555 1_555
C3C C2C 1_555 1_555
H3C C3C 1_555 1_555
C4C C3C 1_555 1_555
C5C C4C 1_555 1_555
C6C C5C 1_555 1_555
H4C C6C 1_555 1_555
C7C C2C 1_555 1_555
C8C H5C 1_555 1_555
H6C C8C 1_555 1_555
H7C C8C 1_555 1_555
C9C H8C 1_555 1_555
H9C C9C 1_555 1_555
H10C C9C 1_555 1_555
C10C C5C 1_555 1_555
H11C C10C 1_555 1_555
H12C C10C 1_555 1_555
C11C C10C 1_555 1_555
C12C C11C 1_555 1_555
H13C C12C 1_555 1_555
C13C C12C 1_555 1_555
C14C C13C 1_555 1_555
C15C C14C 1_555 1_555
H14C C15C 1_555 1_555
C16C C11C 1_555 1_555
C17C H15C 1_555 1_555
H16C C17C 1_555 1_555
H17C C17C 1_555 1_555
C18C H18C 1_555 1_555
H19C C18C 1_555 1_555
H20C C18C 1_555 1_555
C19C C14C 1_555 1_555
H21C C19C 1_555 1_555
H22C C19C 1_555 1_555
C20C C19C 1_555 1_555
C21C C20C 1_555 1_555
H23C C21C 1_555 1_555
C22C C21C 1_555 1_555
C23C C22C 1_555 1_555
C24C C23C 1_555 1_555
H24C C24C 1_555 1_555
C25C C20C 1_555 1_555
C26C H25C 1_555 1_555
H26C C26C 1_555 1_555
H27C C26C 1_555 1_555
C27C H28C 1_555 1_555
H29C C27C 1_555 1_555
H30C C27C 1_555 1_555
C28C C23C 1_555 1_555
H31C C28C 1_555 1_555
H32C C28C 1_555 1_555
C29C C28C 1_555 1_555
C30C C29C 1_555 1_555
H33C C30C 1_555 1_555
C31C C30C 1_555 1_555
C32C C31C 1_555 1_555
C33C C32C 1_555 1_555
H34C C33C 1_555 1_555
C34C C29C 1_555 1_555
C35C H35C 1_555 1_555
H36C C35C 1_555 1_555
H37C C35C 1_555 1_555
C36C H38C 1_555 1_555
H39C C36C 1_555 1_555
H40C C36C 1_555 1_555
C37C C32C 1_555 1_555
H41C C37C 1_555 1_555
C38C C37C 1_555 1_555
C39C C38C 1_555 1_555
H42C C39C 1_555 1_555
C40C C39C 1_555 1_555
C41C C1C 1_555 1_555
C42C C41C 1_555 1_555
H43C C42C 1_555 1_555
C43C C38C 1_555 1_555
C44C H44C 1_555 1_555
H45C C44C 1_555 1_555
C45C C44C 1_555 1_555
H46C C45C 1_555 1_555
H47C C45C 1_555 1_555
C46C C45C 1_555 1_555
H48C C46C 1_555 1_555
H49C C46C 1_555 1_555
C47C C46C 1_555 1_555
H50C C47C 1_555 1_555
H51C C47C 1_555 1_555
H52C C47C 1_555 1_555
C48C H53C 1_555 1_555
H54C C48C 1_555 1_555
C49C C48C 1_555 1_555
C50C H55C 1_555 1_555
H56C C50C 1_555 1_555
C51C C50C 1_555 1_555
H57C C51C 1_555 1_555
H58C C51C 1_555 1_555
C52C C51C 1_555 1_555
H59C C52C 1_555 1_555
H60C C52C 1_555 1_555
C53C C52C 1_555 1_555
H61C C53C 1_555 1_555
H62C C53C 1_555 1_555
C54C C53C 1_555 1_555
H63C C54C 1_555 1_555
H64C C54C 1_555 1_555
C55C C54C 1_555 1_555
H65C C55C 1_555 1_555
H66C C55C 1_555 1_555
C56C C57C 1_555 1_555
C57C H67C 1_555 1_555
H68C C57C 1_555 1_555
C58C C59C 1_555 1_555
C59C H69C 1_555 1_555
C60C C59C 1_555 1_555
H70C C60C 1_555 1_555
C61C C64 1_555 1_555
C62C C61C 1_555 1_555
H71C C62C 1_555 1_555
C63C C58C 1_555 1_555
H72C C63C 1_555 1_555
C65C C64 1_555 1_555
H73C C65C 1_555 1_555
H74C C65C 1_555 1_555
H75C C65C 1_555 1_555
N1C C49C 1_555 1_555
H76C N1C 1_555 1_555
N2C C55C 1_555 1_555
H77C N2C 1_555 1_555
O1C C7C 1_555 1_555
O2C C4C 1_555 1_555
O3C C16C 1_555 1_555
O4C C13C 1_555 1_555
O5C C25C 1_555 1_555
O6C C22C 1_555 1_555
O7C C34C 1_555 1_555
O8C C31C 1_555 1_555
O9C C43C 1_555 1_555
O10C C40C 1_555 1_555
O11C C49C 1_555 1_555
O12C C56C 1_555 1_555
O13C C57C 1_555 1_555
C6 C7 1_555 1_555
C8 O1 1_555 1_555
C9 O2 1_555 1_555
C15 C16 1_555 1_555
C17 O3 1_555 1_555
C18 O4 1_555 1_555
C24 C25 1_555 1_555
C26 O5 1_555 1_555
C27 O6 1_555 1_555
C33 C34 1_555 1_555
C35 O8 1_555 1_555
C36 O7 1_555 1_555
C40 C41 1_555 1_555
C42 C43 1_555 1_555
C44 O9 1_555 1_555
C48 O10 1_555 1_555
C50 N1 1_555 1_555
C56 N2 1_555 1_555
C58 O13 1_555 1_555
C62 C63 1_555 1_555
C6C C7C 1_555 1_555
C8C O1C 1_555 1_555
C9C O2C 1_555 1_555
C15C C16C 1_555 1_555
C17C O3C 1_555 1_555
C18C O4C 1_555 1_555
C24C C25C 1_555 1_555
C26C O5C 1_555 1_555
C27C O6C 1_555 1_555
C33C C34C 1_555 1_555
C35C O8C 1_555 1_555
C36C O7C 1_555 1_555
C40C C41C 1_555 1_555
C42C C43C 1_555 1_555
C44C O9C 1_555 1_555
C48C O10C 1_555 1_555
C50C N1C 1_555 1_555
C56C N2C 1_555 1_555
C58C O13C 1_555 1_555
C60C C61C 1_555 1_555
C62C C63C 1_555 1_555

#END
