
#######################################################################
#
#                 Cambridge Crystallographic Data Centre
#                                CCDC 
#
#######################################################################
#
# If this CIF has been generated from an entry in the Cambridge 
# Structural Database, then it will include bibliographic, chemical, 
# crystal, experimental, refinement or atomic coordinate data resulting 
# from the CCDC's data processing and validation procedures.
#
#######################################################################

data_ZEJKOQ
_chemical_formula_moiety         'C36 H54 Cl2 O2 Si2'
_chemical_name_systematic        
1,6-bis(4-Chlorophenyl)-2,5-bis(tri-isopropylsilyl)hexa-2,3,4-triene-1,6-diol
_symmetry_cell_setting           monoclinic
_symmetry_space_group_name_H-M   'C 2/c'
_symmetry_Int_Tables_number      15
_space_group_name_Hall           '-C 2yn'
loop_
_symmetry_equiv_pos_site_id
_symmetry_equiv_pos_as_xyz
1 x,y,z
2 -x,y,1/2-z
3 1/2+x,1/2+y,z
4 1/2-x,1/2+y,1/2-z
5 -x,-y,-z
6 x,-y,1/2+z
7 1/2-x,1/2-y,-z
8 1/2+x,1/2-y,1/2+z
_cell_length_a                   16.7203(14)
_cell_length_b                   19.0221(16)
_cell_length_c                   24.150(2)
_cell_angle_alpha                90
_cell_angle_beta                 91.686(2)
_cell_angle_gamma                90
_cell_volume                     7677.71
_exptl_crystal_colour            colorless
_exptl_crystal_description       prismatic
_cell_formula_units_Z            8
loop_
_atom_site_label
_atom_site_type_symbol
_atom_site_fract_x
_atom_site_fract_y
_atom_site_fract_z
Cl1 Cl 0.13252(7) 0.01329(7) 0.56766(5)
Cl2 Cl 0.52766(7) -0.32782(5) 0.67053(6)
Si1 Si 0.53878(5) 0.21289(4) 0.57873(4)
Si2 Si 0.76017(5) -0.00083(4) 0.65072(3)
O1 O 0.43057(12) 0.13617(14) 0.71929(8)
H1 H 0.4120 0.1015 0.7119
O2 O 0.57722(11) -0.00671(11) 0.76636(8)
H2 H 0.5694 0.0240 0.7453
C1 C 0.42486(17) 0.15876(15) 0.66249(12)
H3 H 0.4137 0.2093 0.6627
C2 C 0.50269(16) 0.14826(14) 0.63260(11)
C3 C 0.55361(17) 0.09869(15) 0.64920(12)
C4 C 0.60590(17) 0.05398(15) 0.66499(11)
C5 C 0.65955(15) 0.00797(14) 0.68398(11)
C6 C 0.63853(16) -0.03758(14) 0.73381(11)
H4 H 0.6868 -0.0423 0.7575
C7 C 0.35365(17) 0.12290(16) 0.63455(12)
C8 C 0.3565(2) 0.05356(17) 0.61839(12)
H5 H 0.4047 0.0293 0.6212
C9 C 0.2889(2) 0.01940(19) 0.59807(13)
H6 H 0.2913 -0.0276 0.5877
C10 C 0.2180(2) 0.0557(2) 0.59335(14)
C11 C 0.2143(2) 0.1246(2) 0.60761(17)
H7 H 0.1665 0.1492 0.6030
C12 C 0.2815(2) 0.15811(18) 0.62891(15)
H8 H 0.2783 0.2050 0.6396
C13 C 0.61190(17) -0.11042(15) 0.71691(12)
C14 C 0.65043(19) -0.16952(17) 0.73827(13)
H9 H 0.6937 -0.1641 0.7630
C15 C 0.6255(2) -0.23645(18) 0.72330(17)
H10 H 0.6526 -0.2757 0.7371
C16 C 0.5613(2) -0.24400(19) 0.68834(18)
C17 C 0.52205(19) -0.18731(19) 0.66656(15)
H11 H 0.4781 -0.1933 0.6425
C18 C 0.54827(18) -0.12071(16) 0.68062(13)
H12 H 0.5222 -0.0819 0.6652
C19 C 0.4529(2) 0.27042(17) 0.55371(14)
H13 H 0.4226 0.2819 0.5866
C20 C 0.3945(2) 0.2336(2) 0.51408(16)
H14 H 0.3475 0.2621 0.5088
H15 H 0.3799 0.1890 0.5293
H16 H 0.4192 0.2265 0.4791
C21 C 0.4780(3) 0.3413(2) 0.52886(19)
H17 H 0.5073 0.3331 0.4959
H18 H 0.5112 0.3663 0.5553
H19 H 0.4312 0.3686 0.5199
C22 C 0.6171(2) 0.2639(2) 0.61921(18)
H20 H 0.6472 0.2257 0.6374
C23 C 0.5833(3) 0.3020(2) 0.6693(2)
H21 H 0.6266 0.3210 0.6917
H22 H 0.5534 0.2695 0.6909
H23 H 0.5489 0.3395 0.6568
C24 C 0.6795(3) 0.3016(3) 0.5943(3)
H24 H 0.6597 0.3463 0.5816
H25 H 0.6986 0.2753 0.5634
H26 H 0.7225 0.3086 0.6209
C25 C 0.58711(19) 0.16017(18) 0.52281(13)
H27 H 0.6351 0.1391 0.5402
C26 C 0.6167(3) 0.2043(2) 0.47390(16)
H28 H 0.6472 0.1751 0.4500
H29 H 0.6496 0.2421 0.4878
H30 H 0.5715 0.2233 0.4535
C27 C 0.5373(2) 0.0992(2) 0.50038(16)
H31 H 0.4910 0.1170 0.4807
H32 H 0.5209 0.0703 0.5306
H33 H 0.5687 0.0717 0.4757
C28 C 0.78437(19) 0.08865(17) 0.62252(14)
H34 H 0.7361 0.1041 0.6020
C29 C 0.8001(2) 0.14417(19) 0.66712(17)
H35 H 0.8504 0.1348 0.6858
H36 H 0.7580 0.1428 0.6933
H37 H 0.8016 0.1898 0.6503
C30 C 0.8515(3) 0.0892(2) 0.58073(19)
H38 H 0.8602 0.1365 0.5683
H39 H 0.8365 0.0602 0.5496
H40 H 0.8997 0.0714 0.5980
C31 C 0.83371(18) -0.0357(2) 0.70455(14)
H41 H 0.8124 -0.0811 0.7164
C32 C 0.8459(2) 0.0083(2) 0.75748(16)
H42 H 0.8696 -0.0204 0.7862
H43 H 0.7951 0.0256 0.7691
H44 H 0.8806 0.0472 0.7502
C33 C 0.9163(2) -0.0514(3) 0.6804(2)
H45 H 0.9410 -0.0081 0.6696
H46 H 0.9097 -0.0814 0.6487
H47 H 0.9496 -0.0743 0.7080
C34 C 0.75358(18) -0.06392(16) 0.59108(13)
H48 H 0.8037 -0.0589 0.5714
C35 C 0.7469(2) -0.14150(18) 0.60589(16)
H49 H 0.6947 -0.1507 0.6198
H50 H 0.7869 -0.1531 0.6337
H51 H 0.7549 -0.1695 0.5735
C36 C 0.6867(2) -0.0432(2) 0.54974(14)
H52 H 0.6855 -0.0756 0.5192
H53 H 0.6962 0.0035 0.5363
H54 H 0.6363 -0.0445 0.5677
loop_
_geom_bond_atom_site_label_1
_geom_bond_atom_site_label_2
_geom_bond_site_symmetry_1
_geom_bond_site_symmetry_2
Cl1 C10 1_555 1_555
Cl2 C16 1_555 1_555
Si1 C2 1_555 1_555
Si2 C5 1_555 1_555
O1 H1 1_555 1_555
O2 H2 1_555 1_555
C1 O1 1_555 1_555
H3 C1 1_555 1_555
C2 C1 1_555 1_555
C3 C2 1_555 1_555
C4 C3 1_555 1_555
C5 C4 1_555 1_555
C6 O2 1_555 1_555
H4 C6 1_555 1_555
C7 C1 1_555 1_555
C8 C7 1_555 1_555
H5 C8 1_555 1_555
C9 C8 1_555 1_555
H6 C9 1_555 1_555
C10 C9 1_555 1_555
C11 C10 1_555 1_555
H7 C11 1_555 1_555
C12 C7 1_555 1_555
H8 C12 1_555 1_555
C13 C6 1_555 1_555
C14 C13 1_555 1_555
H9 C14 1_555 1_555
C15 C14 1_555 1_555
H10 C15 1_555 1_555
C16 C15 1_555 1_555
C17 C16 1_555 1_555
H11 C17 1_555 1_555
C18 C13 1_555 1_555
H12 C18 1_555 1_555
C19 Si1 1_555 1_555
H13 C19 1_555 1_555
C20 C19 1_555 1_555
H14 C20 1_555 1_555
H15 C20 1_555 1_555
H16 C20 1_555 1_555
C21 C19 1_555 1_555
H17 C21 1_555 1_555
H18 C21 1_555 1_555
H19 C21 1_555 1_555
C22 Si1 1_555 1_555
H20 C22 1_555 1_555
C23 C22 1_555 1_555
H21 C23 1_555 1_555
H22 C23 1_555 1_555
H23 C23 1_555 1_555
C24 C22 1_555 1_555
H24 C24 1_555 1_555
H25 C24 1_555 1_555
H26 C24 1_555 1_555
C25 Si1 1_555 1_555
H27 C25 1_555 1_555
C26 C25 1_555 1_555
H28 C26 1_555 1_555
H29 C26 1_555 1_555
H30 C26 1_555 1_555
C27 C25 1_555 1_555
H31 C27 1_555 1_555
H32 C27 1_555 1_555
H33 C27 1_555 1_555
C28 Si2 1_555 1_555
H34 C28 1_555 1_555
C29 C28 1_555 1_555
H35 C29 1_555 1_555
H36 C29 1_555 1_555
H37 C29 1_555 1_555
C30 C28 1_555 1_555
H38 C30 1_555 1_555
H39 C30 1_555 1_555
H40 C30 1_555 1_555
C31 Si2 1_555 1_555
H41 C31 1_555 1_555
C32 C31 1_555 1_555
H42 C32 1_555 1_555
H43 C32 1_555 1_555
H44 C32 1_555 1_555
C33 C31 1_555 1_555
H45 C33 1_555 1_555
H46 C33 1_555 1_555
H47 C33 1_555 1_555
C34 Si2 1_555 1_555
H48 C34 1_555 1_555
C35 C34 1_555 1_555
H49 C35 1_555 1_555
H50 C35 1_555 1_555
H51 C35 1_555 1_555
C36 C34 1_555 1_555
H52 C36 1_555 1_555
H53 C36 1_555 1_555
H54 C36 1_555 1_555
C5 C6 1_555 1_555
C11 C12 1_555 1_555
C17 C18 1_555 1_555

#END
