
#######################################################################
#
#                 Cambridge Crystallographic Data Centre
#                                CCDC 
#
#######################################################################
#
# If this CIF has been generated from an entry in the Cambridge 
# Structural Database, then it will include bibliographic, chemical, 
# crystal, experimental, refinement or atomic coordinate data resulting 
# from the CCDC's data processing and validation procedures.
#
#######################################################################

data_ZEJLIJ
_chemical_formula_moiety         'C18 H14 N2 O2 S2'
_chemical_name_systematic        
(+-)-(3R*,4S*)-3-(2-Pyridyl)-4-(2-oxo-3-(1,2-dihydropyridin-2-ylidene)-2,3-dihydrothiophen-5-yl)-4,5-dihydrothiophen-2(3H)-one
_symmetry_cell_setting           triclinic
_symmetry_space_group_name_H-M   'P -1'
_symmetry_Int_Tables_number      2
_space_group_name_Hall           '-P 1'
loop_
_symmetry_equiv_pos_site_id
_symmetry_equiv_pos_as_xyz
1 x,y,z
2 -x,-y,-z
_cell_length_a                   10.292(2)
_cell_length_b                   10.802(2)
_cell_length_c                   15.919(3)
_cell_angle_alpha                108.11(1)
_cell_angle_beta                 96.77(2)
_cell_angle_gamma                97.40(2)
_cell_volume                     1644.52
_exptl_crystal_colour            yellow
_chemical_melting_point          '203-205 deg.C'
_cell_formula_units_Z            4
loop_
_atom_site_label
_atom_site_type_symbol
_atom_site_fract_x
_atom_site_fract_y
_atom_site_fract_z
S1 S 0.6154(1) -0.1619(1) -0.07443(9)
S2 S 0.7910(1) 0.0797(1) 0.24554(8)
O1 O 0.6728(3) -0.3828(3) -0.0562(2)
O2 O 0.8912(3) 0.2957(3) 0.3881(2)
N1 N 0.9845(4) -0.2451(4) 0.0182(3)
N2 N 1.1025(4) 0.4555(4) 0.3741(3)
C1 C 0.6914(4) -0.2645(5) -0.0234(3)
C2 C 0.7829(4) -0.1831(4) 0.0641(3)
C3 C 0.8128(5) -0.0417(5) 0.0634(3)
C4 C 0.6855(6) -0.0135(5) 0.0185(4)
C5 C 0.8697(4) 0.0639(4) 0.1524(3)
C6 C 0.9725(5) 0.1609(5) 0.1696(3)
C7 C 0.9968(4) 0.2576(4) 0.2575(3)
C8 C 0.9029(5) 0.2299(4) 0.3094(3)
C9 C 1.0961(4) 0.3723(4) 0.2893(3)
C10 C 1.1885(5) 0.4111(5) 0.2408(4)
C11 C 1.2784(5) 0.5250(6) 0.2784(4)
C12 C 1.2791(6) 0.6058(6) 0.3645(4)
C13 C 1.1919(6) 0.5693(5) 0.4117(4)
C14 C 0.9030(4) -0.2463(4) 0.0764(3)
C15 C 0.9228(6) -0.3032(5) 0.1405(4)
C16 C 1.0319(7) -0.3668(6) 0.1448(5)
C17 C 1.1155(6) -0.3663(6) 0.0857(5)
C18 C 1.0897(6) -0.3062(6) 0.0243(5)
H1 H 1.042(4) 0.424(4) 0.404(3)
H2 H 0.729(4) -0.187(3) 0.113(2)
H3 H 0.878(4) -0.040(4) 0.027(3)
H4 H 1.020(3) 0.172(3) 0.128(2)
H5 H 1.191(4) 0.357(4) 0.186(3)
H6 H 1.338(5) 0.549(4) 0.244(3)
H7 H 1.336(5) 0.694(5) 0.393(3)
H8 H 1.191(4) 0.620(4) 0.471(3)
H9 H 0.871(4) -0.293(4) 0.181(3)
H10 H 1.051(7) -0.396(6) 0.192(4)
H11 H 1.183(6) -0.409(5) 0.089(4)
H12 H 1.140(6) -0.298(5) -0.020(4)
H13 H 0.618(4) 0.001(4) 0.063(3)
H14 H 0.697(5) 0.051(5) -0.007(3)
S3 S -0.4691(2) -0.3477(1) -0.4213(1)
S4 S -0.4017(1) 0.0824(1) -0.18436(8)
O3 O -0.2378(4) -0.2984(4) -0.4710(2)
O4 O -0.4552(3) 0.3062(3) -0.0762(2)
N3 N -0.2623(4) -0.0024(4) -0.4758(3)
N4 N -0.5940(4) 0.4470(4) -0.1509(3)
C19 C -0.3185(6) -0.2525(5) -0.4274(3)
C20 C -0.3074(5) -0.1089(5) -0.3678(3)
C21 C -0.4499(5) -0.0848(4) -0.3655(3)
C22 C -0.5265(6) -0.2067(5) -0.3515(4)
C23 C -0.4659(5) 0.0421(4) -0.2981(3)
C24 C -0.5322(5) 0.1331(5) -0.3124(3)
C25 C -0.5378(4) 0.2425(4) -0.2340(3)
C26 C -0.4695(4) 0.2309(4) -0.1557(3)
C27 C -0.6005(4) 0.3518(4) -0.2323(3)
C28 C -0.6695(5) 0.3753(5) -0.3054(3)
C29 C -0.7233(6) 0.4870(6) -0.2932(4)
C30 C -0.7121(6) 0.5808(6) -0.2084(4)
C31 C -0.6459(5) 0.5579(5) -0.1384(4)
C32 C -0.2188(5) -0.0162(4) -0.3975(3)
C33 C -0.0958(6) 0.0500(6) -0.3466(4)
C34 C -0.0162(7) 0.1299(6) -0.3796(5)
C35 C -0.0592(7) 0.1444(6) -0.4587(5)
C36 C -0.1808(7) 0.0799(6) -0.5038(4)
H15 H -0.549(4) 0.428(4) -0.109(3)
H16 H -0.278(4) -0.109(4) -0.307(3)
H17 H -0.484(4) -0.084(4) -0.432(3)
H18 H -0.570(4) 0.128(4) -0.369(3)
H19 H -0.681(4) 0.310(4) -0.364(3)
H20 H -0.760(5) 0.501(5) -0.338(3)
H21 H -0.749(5) 0.667(5) -0.196(3)
H22 H -0.634(4) 0.614(4) -0.081(3)
H23 H -0.075(5) 0.040(5) -0.293(3)
H24 H 0.066(5) 0.171(4) -0.340(3)
H25 H -0.005(5) 0.204(5) -0.480(3)
H26 H -0.215(4) 0.088(4) -0.560(3)
H27 H -0.503(5) -0.207(5) -0.288(3)
H28 H -0.618(5) -0.222(5) -0.371(3)
loop_
_geom_bond_atom_site_label_1
_geom_bond_atom_site_label_2
_geom_bond_site_symmetry_1
_geom_bond_site_symmetry_2
S1 C1 1_555 1_555
S2 C5 1_555 1_555
O1 C1 1_555 1_555
O2 C8 1_555 1_555
N1 C14 1_555 1_555
N2 C9 1_555 1_555
C1 C2 1_555 1_555
C2 C3 1_555 1_555
C3 C4 1_555 1_555
C4 S1 1_555 1_555
C5 C3 1_555 1_555
C6 C5 1_555 1_555
C7 C6 1_555 1_555
C8 S2 1_555 1_555
C9 C7 1_555 1_555
C10 C9 1_555 1_555
C11 C10 1_555 1_555
C12 C11 1_555 1_555
C13 N2 1_555 1_555
C14 C2 1_555 1_555
C15 C14 1_555 1_555
C16 C15 1_555 1_555
C17 C16 1_555 1_555
C18 N1 1_555 1_555
H1 N2 1_555 1_555
H2 C2 1_555 1_555
H3 C3 1_555 1_555
H4 C6 1_555 1_555
H5 C10 1_555 1_555
H6 C11 1_555 1_555
H7 C12 1_555 1_555
H8 C13 1_555 1_555
H9 C15 1_555 1_555
H10 C16 1_555 1_555
H11 C17 1_555 1_555
H12 C18 1_555 1_555
H13 C4 1_555 1_555
H14 C4 1_555 1_555
S3 C19 1_555 1_555
S4 C23 1_555 1_555
O3 C19 1_555 1_555
O4 C26 1_555 1_555
N3 C32 1_555 1_555
N4 C27 1_555 1_555
C19 C20 1_555 1_555
C20 C21 1_555 1_555
C21 C22 1_555 1_555
C22 S3 1_555 1_555
C23 C21 1_555 1_555
C24 C23 1_555 1_555
C25 C24 1_555 1_555
C26 S4 1_555 1_555
C27 C25 1_555 1_555
C28 C27 1_555 1_555
C29 C28 1_555 1_555
C30 C29 1_555 1_555
C31 N4 1_555 1_555
C32 C20 1_555 1_555
C33 C32 1_555 1_555
C34 C33 1_555 1_555
C35 C34 1_555 1_555
C36 N3 1_555 1_555
H15 N4 1_555 1_555
H16 C20 1_555 1_555
H17 C21 1_555 1_555
H18 C24 1_555 1_555
H19 C28 1_555 1_555
H20 C29 1_555 1_555
H21 C30 1_555 1_555
H22 C31 1_555 1_555
H23 C33 1_555 1_555
H24 C34 1_555 1_555
H25 C35 1_555 1_555
H26 C36 1_555 1_555
H27 C22 1_555 1_555
H28 C22 1_555 1_555
C7 C8 1_555 1_555
C12 C13 1_555 1_555
C17 C18 1_555 1_555
C25 C26 1_555 1_555
C30 C31 1_555 1_555
C35 C36 1_555 1_555

#END
