
#######################################################################
#
#                 Cambridge Crystallographic Data Centre
#                                CCDC 
#
#######################################################################
#
# If this CIF has been generated from an entry in the Cambridge 
# Structural Database, then it will include bibliographic, chemical, 
# crystal, experimental, refinement or atomic coordinate data resulting 
# from the CCDC's data processing and validation procedures.
#
#######################################################################

data_ZEJMUW
_chemical_formula_moiety         'C21 H23 N2 O2 1+,I1 1-'
_chemical_name_systematic        '(-)-Strychninium iodide'
_symmetry_cell_setting           monoclinic
_symmetry_space_group_name_H-M   'P 21'
_symmetry_Int_Tables_number      4
_space_group_name_Hall           'P 2yb'
loop_
_symmetry_equiv_pos_site_id
_symmetry_equiv_pos_as_xyz
1 x,y,z
2 -x,1/2+y,-z
_cell_length_a                   7.805(2)
_cell_length_b                   7.667(2)
_cell_length_c                   16.290(5)
_cell_angle_alpha                90
_cell_angle_beta                 92.46(2)
_cell_angle_gamma                90
_cell_volume                     973.91
_cell_formula_units_Z            2
loop_
_atom_site_label
_atom_site_type_symbol
_atom_site_fract_x
_atom_site_fract_y
_atom_site_fract_z
I1 I 0.1295(1) 0.000 0.4113(1)
C1 C 0.4947(10) -0.4834(12) 0.8163(6)
C2 C 0.6583(1) -0.5645(11) 0.8263(7)
C3 C 0.6923(12) -0.6770(12) 0.8888(8)
C4 C 0.5600(12) -0.7134(12) 0.9418(7)
C5 C 0.3955(11) -0.6378(11) 0.9345(7)
C6 C 0.3714(10) -0.5242(11) 0.8708(5)
C7 C 0.2571(11) -0.2925(11) 0.7833(6)
C8 C 0.4276(10) -0.3594(11) 0.7497(6)
C9 C 0.5559(11) -0.2173(12) 0.7274(7)
C10 C 0.5525(10) -0.0535(11) 0.7804(7)
C11 C 0.3705(10) 0.0198(11) 0.7797(6)
C12 C 0.2608(10) -0.1143(11) 0.8246(6)
C13 C 0.0793(11) -0.0698(11) 0.8458(7)
C14 C -0.0095(11) -0.2264(12) 0.8827(7)
C15 C 0.0948(11) -0.3809(12) 0.9039(7)
C16 C 0.0198(12) 0.1343(12) 0.7356(8)
C17 C 0.1502(11) 0.1051(12) 0.6741(7)
C18 C 0.3022(11) 0.0503(10) 0.6919(7)
C19 C 0.4326(10) 0.0206(12) 0.6273(6)
C20 C 0.3763(11) -0.3061(12) 0.6050(6)
C21 C 0.3957(10) -0.4509(10) 0.6658(6)
N1 N 0.2205(10) -0.4237(10) 0.8500(5)
N2 N 0.5093(10) -0.1701(10) 0.6357(6)
O1 O 0.0727(9) -0.4699(11) 0.9655(5)
O2 O -0.0272(8) -0.0195(11) 0.7755(4)
loop_
_geom_bond_atom_site_label_1
_geom_bond_atom_site_label_2
_geom_bond_site_symmetry_1
_geom_bond_site_symmetry_2
C1 C2 1_555 1_555
C2 C3 1_555 1_555
C3 C4 1_555 1_555
C4 C5 1_555 1_555
C5 C6 1_555 1_555
C6 C1 1_555 1_555
C7 C8 1_555 1_555
C8 C1 1_555 1_555
C9 C8 1_555 1_555
C10 C9 1_555 1_555
C11 C10 1_555 1_555
C12 C7 1_555 1_555
C13 C12 1_555 1_555
C14 C13 1_555 1_555
C15 C14 1_555 1_555
C16 C17 1_555 1_555
C17 C18 1_555 1_555
C18 C11 1_555 1_555
C19 C18 1_555 1_555
C20 C21 1_555 1_555
C21 C8 1_555 1_555
N1 C6 1_555 1_555
N2 C9 1_555 1_555
O1 C15 1_555 1_555
O2 C13 1_555 1_555
C7 N1 1_555 1_555
C11 C12 1_555 1_555
C15 N1 1_555 1_555
C16 O2 1_555 1_555
C19 N2 1_555 1_555
C20 N2 1_555 1_555

#END
