
#######################################################################
#
#                 Cambridge Crystallographic Data Centre
#                                CCDC 
#
#######################################################################
#
# If this CIF has been generated from an entry in the Cambridge 
# Structural Database, then it will include bibliographic, chemical, 
# crystal, experimental, refinement or atomic coordinate data resulting 
# from the CCDC's data processing and validation procedures.
#
#######################################################################

data_ZEJNAD01
_chemical_formula_moiety         'C21 H23 N2 O2 1+,C13 H14 D1 O4 1-,C1 H1 Cl3'
_chemical_name_systematic        
'(-)-Strychninium (+)-neopentyl-1-deutero-phthalate chloroform solvate'
_symmetry_cell_setting           monoclinic
_symmetry_space_group_name_H-M   'P 21'
_symmetry_Int_Tables_number      4
_space_group_name_Hall           'P 2yb'
loop_
_symmetry_equiv_pos_site_id
_symmetry_equiv_pos_as_xyz
1 x,y,z
2 -x,1/2+y,-z
_cell_length_a                   18.564(6)
_cell_length_b                   7.713(2)
_cell_length_c                   23.361(8)
_cell_angle_alpha                90
_cell_angle_beta                 94.18(4)
_cell_angle_gamma                90
_cell_volume                     3336.03
_cell_formula_units_Z            4
loop_
_atom_site_label
_atom_site_type_symbol
_atom_site_fract_x
_atom_site_fract_y
_atom_site_fract_z
C1 C 0.2544(23) -0.6889 -0.3614(19)
C2 C 0.3136(21) -0.6716(26) -0.4078(15)
H1 H 0.2981(21) -0.6870(26) -0.4523(15)
C3 C 0.3760(21) -0.6406(26) -0.3892(16)
H2 H 0.4171(21) -0.6116(26) -0.4167(16)
C4 C 0.3921(19) -0.6455(26) -0.3286(16)
H3 H 0.4483(19) -0.6252(26) -0.3136(16)
C5 C 0.3482(21) -0.6702(26) -0.2887(16)
H4 H 0.3654(21) -0.6712(26) -0.2442(16)
C6 C 0.2791(22) -0.6946(27) -0.3111(17)
C7 C 0.1497(21) -0.7211(26) -0.3128(17)
H5 H 0.1092(21) -0.8179(26) -0.3090(17)
C8 C 0.1792(22) -0.7272(27) -0.3717(18)
C9 C 0.1368(21) -0.6053(26) -0.4224(16)
H6 H 0.1733(21) -0.5710(26) -0.4530(16)
C10 C 0.1061(21) -0.4200(26) -0.3959(18)
H7 H 0.0731(21) -0.3519(26) -0.4283(18)
H8 H 0.1510(21) -0.3411(26) -0.3798(18)
C11 C 0.0613(22) -0.4727(26) -0.3489(17)
H9 H 0.0365(22) -0.3619(26) -0.3323(17)
C12 C 0.1141(22) -0.5488(26) -0.2988(19)
H10 H 0.1513(22) -0.4431(26) -0.2939(19)
C13 C 0.0827(23) -0.5849(26) -0.2417(18)
H11 H 0.0625(23) -0.4630(26) -0.2296(18)
C14 C 0.1415(21) -0.6637(26) -0.2002(16)
H12 H 0.1524(21) -0.5778(26) -0.1652(16)
H13 H 0.1214(21) -0.7827(26) -0.1854(16)
C15 C 0.2139(23) -0.6982(27) -0.2269(18)
C16 C -0.0369(21) -0.6365(26) -0.2712(16)
H14 H -0.0805(21) -0.7006(26) -0.2531(16)
H15 H -0.0404(21) -0.5016(26) -0.2637(16)
C17 C -0.0432(21) -0.6698(26) -0.3356(16)
H16 H -0.0844(21) -0.7091(26) -0.3681(16)
C18 C 0.0040(22) -0.5920(26) -0.3688(18)
C19 C 0.0008(19) -0.6355(25) -0.4321(15)
H17 H -0.0103(19) -0.5210(25) -0.4563(15)
H18 H -0.0419(19) -0.7266(25) -0.4426(15)
C20 C 0.0820(20) -0.8872(26) -0.4254(15)
H19 H 0.0640(20) -0.9767(26) -0.4581(15)
H20 H 0.0521(20) -0.9073(26) -0.3895(15)
C21 C 0.1606(21) -0.9067(26) -0.4089(15)
H21 H 0.1722(21) -1.0186(26) -0.3834(15)
H22 H 0.1906(21) -0.9122(26) -0.4453(15)
N1 N 0.2189(19) -0.7301(25) -0.2754(13)
N2 N 0.0719(19) -0.7103(26) -0.4466(14)
O1 O 0.0318(23) -0.7001(27) -0.2448(18)
O2 O 0.2675(24) -0.6745(27) -0.1849(49)
C22 C -0.2024(21) -0.1565(24) -0.3462(18)
C23 C -0.2343(19) -0.1680(24) -0.3014(16)
H23 H -0.2914(19) -0.1920(24) -0.2995(16)
C24 C -0.1788(20) -0.1422(24) -0.2520(15)
H24 H -0.1998(20) -0.1459(24) -0.2115(15)
C25 C -0.1059(20) -0.1147(24) -0.2502(16)
H25 H -0.0711(20) -0.0987(24) -0.2116(16)
C26 C -0.0768(19) -0.1089(24) -0.3126(16)
H26 H -0.0193(19) -0.0967(24) -0.3153(16)
C27 C -0.1229(20) -0.1187(24) -0.3634(16)
C28 C -0.2471(20) -0.1557(24) -0.4104(16)
O3 O -0.2404(22) -0.1349(25) -0.4509(19)
O4 O -0.3297(21) -0.1877(25) -0.3938(17)
C29 C -0.3735 -0.1899 -0.44037
H27 H -0.3735 -0.0731 -0.4633
D1 D -0.3694 -0.2966 -0.4671
C30 C -0.4555(20) -0.2072(24) -0.4250(15)
C31 C -0.4642(18) -0.0381(23) -0.3835(12)
H28 H -0.4202(18) -0.0365(23) -0.3504(12)
H29 H -0.5151(18) -0.0450(23) -0.3653(12)
H30 H -0.4627(18) 0.0763(23) -0.4083(12)
C32 C -0.4569(18) -0.3642(23) -0.3777(14)
H31 H -0.4119(18) -0.3488(23) -0.3459(14)
H32 H -0.4523(18) -0.4849(23) -0.3985(14)
H33 H -0.5070(18) -0.3601(23) -0.3584(14)
C33 C -0.5096(17) -0.2138(23) -0.4663(13)
H34 H -0.5027(17) -0.3242(23) -0.4921(13)
H35 H -0.5085(17) -0.1006(23) -0.4918(13)
H36 H -0.5609(17) -0.2219(23) -0.4488(13)
C34 C -0.0985(20) -0.1116(24) -0.4241(15)
O5 O -0.0804(22) -0.2559(25) -0.4387(18)
O6 O -0.0967(21) 0.0344(24) -0.4417(17)
C35 C -0.7639(21) -0.2328(26) -0.5405(17)
Cl1 Cl -0.6939(19) -0.2335(24) -0.5855(13)
Cl2 Cl -0.8197(19) -0.0433(24) -0.5505(13)
Cl3 Cl -0.7258(19) -0.2376(25) -0.4691(14)
C36 C -0.3113(13) -0.0556(19) -0.0666(11)
H37 H -0.3418(13) 0.0608(19) -0.0649(11)
Cl4 Cl -0.3565(16) -0.2227(24) -0.0355(14)
Cl5 Cl -0.2247(15) -0.0299(26) -0.0301(15)
Cl6 Cl -0.3010(20) -0.1099(26) -0.1370(11)
C37? C -0.7555(22) -0.1900(27) -0.1338(18)
C38? C -0.8423(24) -0.1275(27) -0.0471(20)
H38? H -0.8472(24) -0.1155(27) -0.0026(20)
C39? C 0.1173(23) -1.1417(27) -0.1122(17)
H39? H 0.1239(23) -1.2532(27) -0.0858(17)
C40? C -0.9140(23) -0.1176(27) -0.1714(19)
H40? H -0.9538(23) -0.0848(27) -0.1432(19)
C41? C -0.8551(22) -0.1674(26) -0.2062(16)
H41? H -0.8721(22) -0.1547(26) -0.1645(16)
C42? C -0.8385(26) -0.1800(28) -0.2636(24)
C43? C -0.8388(25) -0.1790(28) -0.2350(21)
H42? H -0.8458(25) -0.1998(28) -0.1913(21)
C44? C -0.6748(22) -0.2217(27) -0.1165(18)
C45? C -0.6273(21) -0.0990(26) -0.0848(16)
H43? H -0.6485(21) -0.0141(26) -0.0550(16)
C46? C -0.6195(21) 0.0724(26) -0.1013(17)
H44? H -0.6702(21) 0.1301(26) -0.1173(17)
H45? H -0.5934(21) 0.1504(26) -0.0680(17)
C47? C -0.5627(22) 0.0282(27) -0.1544(19)
H46? H -0.5131(22) 0.0738(27) -0.1692(19)
C48? C -0.6082(22) -0.0559(27) -0.2084(19)
H47? H -0.6602(22) -0.0338(27) -0.1931(19)
C49? C -0.5846(23) -0.0842(26) -0.2601(19)
H48? H -0.5740(23) 0.0449(26) -0.2723(19)
C50? C -0.6368(21) -0.1789(26) -0.3053(16)
H49? H -0.6383(21) -0.1086(26) -0.3442(16)
H50? H -0.6150(21) -0.3042(26) -0.3112(16)
C51? C -0.7178(22) -0.1994(27) -0.2894(19)
C52? C -0.4453(23) -0.1568(26) -0.2319(18)
H51? H -0.4026(23) -0.1937(26) -0.2569(18)
H52? H -0.4415(23) -0.0223(26) -0.2231(18)
C53? C -0.4533(24) -0.3165(27) -0.1570(20)
H53? H -0.4392(24) -0.2330(27) -0.1901(20)
C54? C -0.4622(26) -0.4011(28) -0.1050(24)
C55? C -0.4620(23) -0.4027(27) -0.1296(22)
H54? H -0.4233(23) -0.5011(27) -0.1365(22)
H55? H -0.5159(23) -0.4462(27) -0.1439(22)
C56? C -0.6682(22) -0.3879(27) -0.0976(19)
H56? H -0.7008(22) -0.4423(27) -0.1331(19)
H57? H -0.6116(22) -0.3998(27) -0.1040(19)
C57? C -0.6706(23) -0.6139(27) -0.0439(21)
H58? H -0.7153(23) -0.7019(27) -0.0444(21)
H59? H -0.6261(23) -0.6594(27) -0.0153(21)
N3? N -0.7201(19) -0.2315(25) -0.2177(14)
N4? N -0.5757(18) -0.2079(25) -0.0588(13)
O7? O -0.7793(23) -0.1658(27) -0.3117(18)
O8? O -0.5217(25) -0.2162(27) -0.2555(22)
C58? C -0.7116(22) -0.1557(26) -0.8596(18)
C59? C -0.7245(20) -0.1638(26) -0.8031(18)
H60? H -0.7810(20) -0.1929(26) -0.8004(18)
C60? C -0.6881(21) -0.1464(25) -0.7458(15)
H61? H -0.7058(21) -0.1479(25) -0.7041(15)
C61? C -0.6217(22) -0.1274(26) -0.7669(18)
H62? H -0.5803(22) -0.1187(26) -0.7320(18)
C62? C -0.5884(21) -0.1152(26) -0.8170(19)
H63? H -0.5309(21) -0.0967(26) -0.8183(19)
C63? C -0.6326(21) -0.1282(26) -0.8606(17)
C64? C -0.7569(21) -0.1598(26) -0.9075(16)
O9? O -0.7434(22) -0.1520(26) -0.9592(18)
O10? O -0.8258(9) -0.1864(17) -0.9011(5)
C65? C -0.8790 -0.1950 -0.0601
H64? H -0.8809 -0.0984 0.0312
D2? D -0.8697 -0.3184 -0.0259
C66? C -0.9507(8) -0.2197(15) -0.9141(8)
C67? C -0.9547(23) -0.0261(17) -0.9230(20)
H65? H -0.9557(23) 0.1109(17) -0.9255(20)
H66? H -0.9002(23) -0.0682(17) -0.9099(20)
H67? H -0.9905(23) -0.0679(17) -0.8929(20)
C68? C -0.9348(23) -0.2821(26) -0.9727(9)
H68? H -0.9675(23) -0.3646(26) -1.0010(9)
H69? H -0.9438(23) -0.1515(26) -0.9855(9)
H70? H -0.9495(23) -0.2987(26) -0.9305(9)
C69? C -0.9670(20) -0.0640(23) -0.9524(13)
H71? H -1.0227(20) -0.0435(23) -0.9686(13)
C70? C -0.6169(25) -0.2531(27) -0.8898(22)
O11? O -0.6418(25) -0.4334(27) -0.9302(23)
O12? O -0.5531(25) -0.0980(27) -0.9834(22)
H72? H -0.9323(21) -0.0438(26) -0.9857(17)
loop_
_geom_bond_atom_site_label_1
_geom_bond_atom_site_label_2
_geom_bond_site_symmetry_1
_geom_bond_site_symmetry_2
C1 C2 1_555 1_555
C2 H1 1_555 1_555
C3 C2 1_555 1_555
H2 C3 1_555 1_555
C4 C3 1_555 1_555
H3 C4 1_555 1_555
C5 C4 1_555 1_555
H4 C5 1_555 1_555
C6 C1 1_555 1_555
C7 H5 1_555 1_555
C8 C1 1_555 1_555
C9 C8 1_555 1_555
H6 C9 1_555 1_555
C10 C9 1_555 1_555
H7 C10 1_555 1_555
H8 C10 1_555 1_555
C11 C10 1_555 1_555
H9 C11 1_555 1_555
C12 C7 1_555 1_555
H10 C12 1_555 1_555
C13 C12 1_555 1_555
H11 C13 1_555 1_555
C14 C13 1_555 1_555
H12 C14 1_555 1_555
H13 C14 1_555 1_555
C15 C14 1_555 1_555
C16 H14 1_555 1_555
H15 C16 1_555 1_555
C17 C16 1_555 1_555
H16 C17 1_555 1_555
C18 C11 1_555 1_555
C19 C18 1_555 1_555
H17 C19 1_555 1_555
H18 C19 1_555 1_555
C20 H19 1_555 1_555
H20 C20 1_555 1_555
C21 C8 1_555 1_555
H21 C21 1_555 1_555
H22 C21 1_555 1_555
N1 C6 1_555 1_555
N2 C9 1_555 1_555
O1 C13 1_555 1_555
O2 C15 1_555 1_555
C22 C23 1_555 1_555
C23 H23 1_555 1_555
C24 C23 1_555 1_555
H24 C24 1_555 1_555
C25 C24 1_555 1_555
H25 C25 1_555 1_555
C26 C25 1_555 1_555
H26 C26 1_555 1_555
C27 C22 1_555 1_555
C28 C22 1_555 1_555
O3 C28 1_555 1_555
O4 C28 1_555 1_555
C29 O4 1_555 1_555
H27 C29 1_555 1_555
D1 C29 1_555 1_555
C30 C29 1_555 1_555
C31 C30 1_555 1_555
H28 C31 1_555 1_555
H29 C31 1_555 1_555
H30 C31 1_555 1_555
C32 C30 1_555 1_555
H31 C32 1_555 1_555
H32 C32 1_555 1_555
H33 C32 1_555 1_555
C33 C30 1_555 1_555
H34 C33 1_555 1_555
H35 C33 1_555 1_555
H36 C33 1_555 1_555
C34 C27 1_555 1_555
O5 C34 1_555 1_555
O6 C34 1_555 1_555
C35 Cl1 1_555 1_555
Cl2 C35 1_555 1_555
Cl3 C35 1_555 1_555
C36 H37 1_555 1_555
Cl4 C36 1_555 1_555
Cl5 C36 1_555 1_555
Cl6 C36 1_555 1_555
C5 C6 1_555 1_555
C7 C8 1_555 1_555
C7 N1 1_555 1_555
C11 C12 1_555 1_555
C15 N1 1_555 1_555
C16 O1 1_555 1_555
C17 C18 1_555 1_555
C19 N2 1_555 1_555
C20 C21 1_555 1_555
C20 N2 1_555 1_555
C26 C27 1_555 1_555

#END
