
#######################################################################
#
#                 Cambridge Crystallographic Data Centre
#                                CCDC 
#
#######################################################################
#
# If this CIF has been generated from an entry in the Cambridge 
# Structural Database, then it will include bibliographic, chemical, 
# crystal, experimental, refinement or atomic coordinate data resulting 
# from the CCDC's data processing and validation procedures.
#
#######################################################################

data_ZEJPAI
_chemical_formula_moiety         'C14 H14 N3 O1 1+,C1 H4 O1,I1 1-'
_chemical_name_systematic        
'4-{[2-(benzenecarbonyl)hydrazinylidene]methyl}-1-methylpyridin-1-ium iodide methanol solvate'
_symmetry_cell_setting           monoclinic
_symmetry_space_group_name_H-M   'P 21/n'
_symmetry_Int_Tables_number      14
_space_group_name_Hall           '-P 2yn'
loop_
_symmetry_equiv_pos_site_id
_symmetry_equiv_pos_as_xyz
1 x,y,z
2 1/2-x,1/2+y,1/2-z
3 -x,-y,-z
4 1/2+x,1/2-y,1/2+z
_cell_length_a                   7.084(12)
_cell_length_b                   12.892(12)
_cell_length_c                   18.30(2)
_cell_angle_alpha                90
_cell_angle_beta                 96.39(5)
_cell_angle_gamma                90
_cell_volume                     1660.9
_exptl_crystal_colour            'light yellow'
_exptl_crystal_description       block
_cell_formula_units_Z            4
loop_
_atom_site_label
_atom_site_type_symbol
_atom_site_fract_x
_atom_site_fract_y
_atom_site_fract_z
O1 O 0.1809(4) 0.5658(2) 0.61001(12)
N1 N 0.3656(4) 0.0287(2) 0.69227(13)
N2 N 0.2778(4) 0.37485(19) 0.57371(14)
N3 N 0.2592(4) 0.45363(19) 0.52369(13)
H1 H 0.2756 0.4428 0.4785
C1 C 0.3662(5) 0.1250(2) 0.72018(18)
H2 H 0.3798 0.1343 0.7709
C2 C 0.3469(5) 0.2095(3) 0.67511(18)
H3 H 0.3480 0.2757 0.6953
C3 C 0.3257(4) 0.1972(2) 0.59889(16)
C4 C 0.3286(5) 0.0968(3) 0.57158(18)
H4 H 0.3165 0.0854 0.5211
C5 C 0.3494(5) 0.0141(3) 0.61947(18)
H5 H 0.3523 -0.0530 0.6009
C6 C 0.3041(5) 0.2845(2) 0.54853(17)
H6 H 0.3093 0.2745 0.4985
C7 C 0.2135(4) 0.5509(2) 0.54734(16)
C8 C 0.2035(4) 0.6358(2) 0.49117(16)
C9 C 0.1721(5) 0.7354(3) 0.51653(17)
H7 H 0.1592 0.7461 0.5660
C10 C 0.1601(5) 0.8181(3) 0.46853(19)
H8 H 0.1385 0.8844 0.4858
C11 C 0.1797(5) 0.8035(3) 0.39515(18)
H9 H 0.1718 0.8598 0.3631
C12 C 0.2110(5) 0.7050(3) 0.36934(17)
H10 H 0.2249 0.6948 0.3199
C13 C 0.2216(5) 0.6216(2) 0.41713(17)
H11 H 0.2412 0.5553 0.3995
C14 C 0.3858(6) -0.0618(3) 0.74141(19)
H12 H 0.2896 -0.1120 0.7257
H13 H 0.3719 -0.0403 0.7907
H14 H 0.5090 -0.0922 0.7399
O2 O 0.2937(7) 0.3720(2) 0.37373(18)
H15 H 0.2590 0.3113 0.3738
C15 C 0.3854(8) 0.3902(4) 0.3129(3)
H16 H 0.2963 0.3854 0.2695
H17 H 0.4839 0.3396 0.3105
H18 H 0.4403 0.4583 0.3161
I1 I 0.14264(4) 0.11469(2) 0.35018(2)
loop_
_geom_bond_atom_site_label_1
_geom_bond_atom_site_label_2
_geom_bond_site_symmetry_1
_geom_bond_site_symmetry_2
O1 C7 1_555 1_555
N1 C1 1_555 1_555
N2 N3 1_555 1_555
N3 H1 1_555 1_555
C1 H2 1_555 1_555
C2 C1 1_555 1_555
H3 C2 1_555 1_555
C3 C2 1_555 1_555
C4 C3 1_555 1_555
H4 C4 1_555 1_555
C5 N1 1_555 1_555
H5 C5 1_555 1_555
C6 N2 1_555 1_555
H6 C6 1_555 1_555
C7 N3 1_555 1_555
C8 C7 1_555 1_555
C9 C8 1_555 1_555
H7 C9 1_555 1_555
C10 C9 1_555 1_555
H8 C10 1_555 1_555
C11 C10 1_555 1_555
H9 C11 1_555 1_555
C12 C11 1_555 1_555
H10 C12 1_555 1_555
C13 C8 1_555 1_555
H11 C13 1_555 1_555
C14 N1 1_555 1_555
H12 C14 1_555 1_555
H13 C14 1_555 1_555
H14 C14 1_555 1_555
O2 H15 1_555 1_555
C15 O2 1_555 1_555
H16 C15 1_555 1_555
H17 C15 1_555 1_555
H18 C15 1_555 1_555
C3 C6 1_555 1_555
C4 C5 1_555 1_555
C12 C13 1_555 1_555

#END
