
#######################################################################
#
#                 Cambridge Crystallographic Data Centre
#                                CCDC 
#
#######################################################################
#
# If this CIF has been generated from an entry in the Cambridge 
# Structural Database, then it will include bibliographic, chemical, 
# crystal, experimental, refinement or atomic coordinate data resulting 
# from the CCDC's data processing and validation procedures.
#
#######################################################################

data_ZEJQUD
_chemical_formula_moiety         'C14 H25 N1 O4'
_chemical_name_systematic        
't-Butyl N-([(4aR*,8aR*)-octahydropyrano[4,3-b]pyran-4a-yl]methyl)carbamate'
_symmetry_cell_setting           monoclinic
_symmetry_space_group_name_H-M   'P 21/c'
_symmetry_Int_Tables_number      14
_space_group_name_Hall           '-P 2ybc'
loop_
_symmetry_equiv_pos_site_id
_symmetry_equiv_pos_as_xyz
1 x,y,z
2 -x,1/2+y,1/2-z
3 -x,-y,-z
4 x,1/2-y,1/2+z
_cell_length_a                   11.04739(18)
_cell_length_b                   12.2038(2)
_cell_length_c                   10.96322(18)
_cell_angle_alpha                90
_cell_angle_beta                 91.7913(16)
_cell_angle_gamma                90
_cell_volume                     1477.34
_exptl_crystal_colour            colorless
_exptl_crystal_description       irregular
_cell_formula_units_Z            4
loop_
_atom_site_label
_atom_site_type_symbol
_atom_site_fract_x
_atom_site_fract_y
_atom_site_fract_z
O1 O 0.52076(8) 0.63570(7) 0.54603(8)
N1 N 0.66469(9) 0.39541(8) 0.65170(10)
H1 H 0.6139 0.3886 0.5911
C1 C 0.72238(10) 0.59331(10) 0.63408(11)
O2 O 0.77905(8) 0.78763(7) 0.64709(9)
C2 C 0.64250(11) 0.60683(10) 0.51882(11)
H2 H 0.6765 0.6633 0.4679
H3 H 0.6420 0.5388 0.4731
O3 O 0.81745(9) 0.30949(8) 0.75847(9)
C3 C 0.51712(11) 0.74148(10) 0.60295(12)
H4 H 0.4337 0.7611 0.6174
H5 H 0.5503 0.7959 0.5488
O4 O 0.68899(8) 0.21841(7) 0.62582(8)
C4 C 0.58910(11) 0.74165(10) 0.72309(11)
H6 H 0.5490 0.6950 0.7810
H7 H 0.5912 0.8154 0.7560
C5 C 0.71822(11) 0.70119(10) 0.70782(11)
H8 H 0.7568 0.6896 0.7885
C6 C 0.90437(13) 0.76419(12) 0.63065(18)
H9 H 0.9437 0.7493 0.7093
H10 H 0.9433 0.8275 0.5955
C7 C 0.91881(13) 0.66613(13) 0.54760(16)
H11 H 1.0041 0.6495 0.5399
H12 H 0.8848 0.6826 0.4670
C8 C 0.85361(11) 0.56748(11) 0.60103(13)
H13 H 0.8980 0.5429 0.6737
H14 H 0.8533 0.5081 0.5423
C9 C 0.67370(11) 0.50035(10) 0.71337(11)
H15 H 0.7265 0.4924 0.7852
H16 H 0.5941 0.5208 0.7406
C10 C 0.73250(11) 0.30810(10) 0.68542(11)
C11 C 0.74992(12) 0.11161(10) 0.63752(12)
C12 C 0.87314(13) 0.11838(12) 0.58089(14)
H17 H 0.8638 0.1432 0.4980
H18 H 0.9103 0.0473 0.5823
H19 H 0.9233 0.1690 0.6265
C13 C 0.75604(14) 0.07359(12) 0.76946(12)
H20 H 0.8113 0.1194 0.8157
H21 H 0.7837 -0.0009 0.7731
H22 H 0.6770 0.0783 0.8031
C14 C 0.66598(13) 0.03762(11) 0.56226(13)
H23 H 0.5873 0.0370 0.5971
H24 H 0.6981 -0.0355 0.5621
H25 H 0.6594 0.0645 0.4800
loop_
_geom_bond_atom_site_label_1
_geom_bond_atom_site_label_2
_geom_bond_site_symmetry_1
_geom_bond_site_symmetry_2
O1 C2 1_555 1_555
N1 H1 1_555 1_555
C1 C2 1_555 1_555
O2 C5 1_555 1_555
C2 H2 1_555 1_555
H3 C2 1_555 1_555
O3 C10 1_555 1_555
C3 O1 1_555 1_555
H4 C3 1_555 1_555
H5 C3 1_555 1_555
O4 C10 1_555 1_555
C4 C3 1_555 1_555
H6 C4 1_555 1_555
H7 C4 1_555 1_555
C5 C1 1_555 1_555
H8 C5 1_555 1_555
C6 O2 1_555 1_555
H9 C6 1_555 1_555
H10 C6 1_555 1_555
C7 C6 1_555 1_555
H11 C7 1_555 1_555
H12 C7 1_555 1_555
C8 C1 1_555 1_555
H13 C8 1_555 1_555
H14 C8 1_555 1_555
C9 N1 1_555 1_555
H15 C9 1_555 1_555
H16 C9 1_555 1_555
C10 N1 1_555 1_555
C11 O4 1_555 1_555
C12 C11 1_555 1_555
H17 C12 1_555 1_555
H18 C12 1_555 1_555
H19 C12 1_555 1_555
C13 C11 1_555 1_555
H20 C13 1_555 1_555
H21 C13 1_555 1_555
H22 C13 1_555 1_555
C14 C11 1_555 1_555
H23 C14 1_555 1_555
H24 C14 1_555 1_555
H25 C14 1_555 1_555
C1 C9 1_555 1_555
C4 C5 1_555 1_555
C7 C8 1_555 1_555

#END
