
#######################################################################
#
#                 Cambridge Crystallographic Data Centre
#                                CCDC 
#
#######################################################################
#
# If this CIF has been generated from an entry in the Cambridge 
# Structural Database, then it will include bibliographic, chemical, 
# crystal, experimental, refinement or atomic coordinate data resulting 
# from the CCDC's data processing and validation procedures.
#
#######################################################################

data_ZEJREO
_chemical_formula_moiety         'C15 H17 N1 O3'
_chemical_name_systematic        
'(4aR*,9bS*)-8-Methoxy-4a-(prop-2-en-1-yl)-2H,3H,4H,4aH,5H,9bH-indeno[2,1-e][1,3] oxazin-2-one'
_symmetry_cell_setting           triclinic
_symmetry_space_group_name_H-M   'P -1'
_symmetry_Int_Tables_number      2
_space_group_name_Hall           '-P 1'
loop_
_symmetry_equiv_pos_site_id
_symmetry_equiv_pos_as_xyz
1 x,y,z
2 -x,-y,-z
_cell_length_a                   6.7483(5)
_cell_length_b                   9.9314(7)
_cell_length_c                   11.0967(8)
_cell_angle_alpha                63.764(7)
_cell_angle_beta                 79.148(6)
_cell_angle_gamma                74.800(6)
_cell_volume                     641.495
_exptl_crystal_colour            colorless
_exptl_crystal_description       block
_cell_formula_units_Z            2
loop_
_atom_site_label
_atom_site_type_symbol
_atom_site_fract_x
_atom_site_fract_y
_atom_site_fract_z
O1 O 0.40576(17) 0.91319(12) 0.36596(11)
N1 N 0.69079(18) 0.13528(14) 0.90361(12)
H1 H 0.6970 0.0402 0.9573
C1 C 0.5617(2) 0.81677(17) 0.44524(14)
O2 O 0.48642(14) 0.36331(11) 0.76997(10)
C2 C 0.5226(2) 0.67201(17) 0.53235(14)
H2 H 0.3975 0.6472 0.5356
O3 O 0.34351(15) 0.16752(12) 0.91025(11)
C3 C 0.6737(2) 0.56662(16) 0.61347(13)
C4 C 0.6802(2) 0.40180(16) 0.70466(13)
H3 H 0.7367 0.3421 0.6509
C5 C 0.83657(19) 0.36262(15) 0.80478(13)
C6 C 0.9994(2) 0.45592(16) 0.70969(14)
H4 H 1.0762 0.4824 0.7589
H5 H 1.0947 0.4000 0.6624
C7 C 0.8641(2) 0.59849(17) 0.61273(13)
C8 C 0.8998(2) 0.74340(17) 0.52774(14)
H6 H 1.0242 0.7681 0.5263
C9 C 0.7486(2) 0.85349(17) 0.44357(14)
H7 H 0.7732 0.9508 0.3868
C10 C 0.4421(3) 1.05891(18) 0.26636(15)
H8 H 0.3278 1.1105 0.2115
H9 H 0.5658 1.0442 0.2107
H10 H 0.4571 1.1198 0.3101
C11 C 0.8881(2) 0.18808(16) 0.86647(14)
H11 H 0.9732 0.1514 0.8019
H12 H 0.9628 0.1494 0.9457
C12 C 0.5031(2) 0.21650(16) 0.86449(14)
C13 C 0.7457(2) 0.42194(16) 0.91537(13)
H13 H 0.7242 0.5329 0.8756
H14 H 0.6129 0.3938 0.9524
C14 C 0.8865(2) 0.35650(17) 1.02708(15)
H15 H 1.0270 0.3519 1.0030
C15 C 0.8246(3) 0.30525(19) 1.15668(16)
H16 H 0.6852 0.3081 1.1844
H17 H 0.9203 0.2663 1.2203
loop_
_geom_bond_atom_site_label_1
_geom_bond_atom_site_label_2
_geom_bond_site_symmetry_1
_geom_bond_site_symmetry_2
O1 C1 1_555 1_555
N1 H1 1_555 1_555
C1 C2 1_555 1_555
O2 C4 1_555 1_555
C2 H2 1_555 1_555
O3 C12 1_555 1_555
C3 C2 1_555 1_555
C4 C3 1_555 1_555
H3 C4 1_555 1_555
C5 C4 1_555 1_555
C6 C5 1_555 1_555
H4 C6 1_555 1_555
H5 C6 1_555 1_555
C7 C3 1_555 1_555
C8 C7 1_555 1_555
H6 C8 1_555 1_555
C9 C1 1_555 1_555
H7 C9 1_555 1_555
C10 O1 1_555 1_555
H8 C10 1_555 1_555
H9 C10 1_555 1_555
H10 C10 1_555 1_555
C11 N1 1_555 1_555
H11 C11 1_555 1_555
H12 C11 1_555 1_555
C12 N1 1_555 1_555
C13 C5 1_555 1_555
H13 C13 1_555 1_555
H14 C13 1_555 1_555
C14 C13 1_555 1_555
H15 C14 1_555 1_555
C15 C14 1_555 1_555
H16 C15 1_555 1_555
H17 C15 1_555 1_555
O2 C12 1_555 1_555
C5 C11 1_555 1_555
C6 C7 1_555 1_555
C8 C9 1_555 1_555

#END
