
#######################################################################
#
#                 Cambridge Crystallographic Data Centre
#                                CCDC 
#
#######################################################################
#
# If this CIF has been generated from an entry in the Cambridge 
# Structural Database, then it will include bibliographic, chemical, 
# crystal, experimental, refinement or atomic coordinate data resulting 
# from the CCDC's data processing and validation procedures.
#
#######################################################################

data_ZEJRUB
_chemical_formula_moiety         'C15 H12 O3'
_chemical_name_systematic        4,5-Diphenyl-1,3-dioxolan-2-one
_symmetry_cell_setting           orthorhombic
_symmetry_space_group_name_H-M   'P b c n'
_symmetry_Int_Tables_number      60
_space_group_name_Hall           '-P 2n 2ab'
loop_
_symmetry_equiv_pos_site_id
_symmetry_equiv_pos_as_xyz
1 x,y,z
2 1/2-x,1/2-y,1/2+z
3 1/2+x,1/2-y,-z
4 -x,y,1/2-z
5 -x,-y,-z
6 1/2+x,1/2+y,1/2-z
7 1/2-x,1/2+y,z
8 x,-y,1/2+z
_cell_length_a                   14.006(3)
_cell_length_b                   11.267(3)
_cell_length_c                   7.6570(10)
_cell_angle_alpha                90
_cell_angle_beta                 90
_cell_angle_gamma                90
_cell_volume                     1208.32
_exptl_crystal_colour            colorless
_cell_formula_units_Z            4
loop_
_atom_site_label
_atom_site_type_symbol
_atom_site_fract_x
_atom_site_fract_y
_atom_site_fract_z
O1 O 0.5000 0.3866(2) 0.2500
O2 O 0.4471(1) 0.5598(1) 0.1424(2)
C1 C 0.5000 0.4925(3) 0.2500
C2 C 0.4819(1) 0.6819(1) 0.1565(2)
C3 C 0.3152(1) 0.7623(2) 0.1885(3)
C4 C 0.2469(1) 0.8477(2) 0.1502(3)
C5 C 0.2679(2) 0.9399(2) 0.0386(3)
C6 C 0.3567(2) 0.9459(2) -0.0373(3)
C7 C 0.4249(1) 0.8611(2) -0.0008(3)
C8 C 0.4051(1) 0.7695(2) 0.1136(2)
H1 H 0.5405 0.6931 0.0766
H2 H 0.2956 0.6986 0.2814
H3 H 0.1790 0.8405 0.2102
H4 H 0.2127 1.0001 0.0044
H5 H 0.3715 1.0174 -0.1184
H6 H 0.4968 0.8654 -0.0556
C2C C 0.5181(1) 0.6819(1) 0.3435(2)
O2C O 0.5529(1) 0.5598(1) 0.3576(2)
C8C C 0.5949(1) 0.7695(2) 0.3864(2)
C3C C 0.6848(1) 0.7623(2) 0.3115(3)
C4C C 0.7531(1) 0.8477(2) 0.3498(3)
C5C C 0.7321(2) 0.9399(2) 0.4614(3)
C6C C 0.6433(2) 0.9459(2) 0.5373(3)
C7C C 0.5751(1) 0.8611(2) 0.5008(3)
H6C H 0.5032 0.8654 0.5556
H5C H 0.6285 1.0174 0.6184
H4C H 0.7873 1.0001 0.4956
H3C H 0.8210 0.8405 0.2898
H2C H 0.7044 0.6986 0.2186
H1C H 0.4595 0.6931 0.4234
loop_
_geom_bond_atom_site_label_1
_geom_bond_atom_site_label_2
_geom_bond_site_symmetry_1
_geom_bond_site_symmetry_2
O1 C1 1_555 1_555
O2 C1 1_555 1_555
C1 O2C 1_555 1_555
C2 O2 1_555 1_555
C3 C4 1_555 1_555
C4 C5 1_555 1_555
C5 C6 1_555 1_555
C6 C7 1_555 1_555
C7 C8 1_555 1_555
C8 C2 1_555 1_555
H1 C2 1_555 1_555
H2 C3 1_555 1_555
H3 C4 1_555 1_555
H4 C5 1_555 1_555
H5 C6 1_555 1_555
H6 C7 1_555 1_555
C2C C2 1_555 1_555
O2C C2C 1_555 1_555
C8C C2C 1_555 1_555
C3C C8C 1_555 1_555
C4C C3C 1_555 1_555
C5C C4C 1_555 1_555
C6C C5C 1_555 1_555
C7C C8C 1_555 1_555
H6C C7C 1_555 1_555
H5C C6C 1_555 1_555
H4C C5C 1_555 1_555
H3C C4C 1_555 1_555
H2C C3C 1_555 1_555
H1C C2C 1_555 1_555
C3 C8 1_555 1_555
C6C C7C 1_555 1_555

#END
