
#######################################################################
#
#                 Cambridge Crystallographic Data Centre
#                                CCDC 
#
#######################################################################
#
# If this CIF has been generated from an entry in the Cambridge 
# Structural Database, then it will include bibliographic, chemical, 
# crystal, experimental, refinement or atomic coordinate data resulting 
# from the CCDC's data processing and validation procedures.
#
#######################################################################

data_ZEJTEQ
_chemical_formula_moiety         'C17 H20 N4 O2'
_chemical_name_systematic        
'2-(2-ethoxyphenyl)-7-propyl-5-methylimidazo[5,1- f][1,2,4]triazin-4(3H)-one'
_symmetry_cell_setting           triclinic
_symmetry_space_group_name_H-M   'P -1'
_symmetry_Int_Tables_number      2
_space_group_name_Hall           '-P 1'
loop_
_symmetry_equiv_pos_site_id
_symmetry_equiv_pos_as_xyz
1 x,y,z
2 -x,-y,-z
_cell_length_a                   7.2692(4)
_cell_length_b                   10.5261(5)
_cell_length_c                   20.9563(10)
_cell_angle_alpha                95.422(2)
_cell_angle_beta                 95.122(2)
_cell_angle_gamma                96.574(2)
_cell_volume                     1577.69
_exptl_crystal_colour            colorless
_exptl_crystal_description       block
_cell_formula_units_Z            4
loop_
_atom_site_label
_atom_site_type_symbol
_atom_site_fract_x
_atom_site_fract_y
_atom_site_fract_z
C1 C 0.4706(4) 0.1971(2) 0.36998(12)
C2 C 0.3733(3) 0.1773(2) 0.26806(12)
C3 C 0.5181(3) 0.3152(2) 0.34899(11)
C4 C 0.6081(4) 0.4391(2) 0.37614(12)
C5 C 0.5399(3) 0.5056(2) 0.26795(11)
C6 C 0.5000(4) 0.1577(3) 0.43641(12)
H1 H 0.3815 0.1185 0.4489
H2 H 0.5476 0.2335 0.4667
H3 H 0.5901 0.0953 0.4372
C7 C 0.2931(4) 0.1277(2) 0.20162(12)
H4 H 0.3957 0.1219 0.1738
H5 H 0.2135 0.1898 0.1848
C8 C 0.1786(4) -0.0030(2) 0.19717(13)
H6 H 0.0778 0.0015 0.2258
H7 H 0.2587 -0.0663 0.2123
C9 C 0.0935(5) -0.0486(3) 0.12858(14)
H8 H 0.0118 0.0129 0.1137
H9 H 0.0210 -0.1333 0.1277
H10 H 0.1929 -0.0546 0.1002
C10 C 0.6287(4) 0.7393(2) 0.24672(12)
C11 C 0.5475(3) 0.6125(2) 0.22644(11)
C12 C 0.4632(4) 0.5868(2) 0.16353(12)
H11 H 0.4075 0.5018 0.1488
C13 C 0.4579(4) 0.6805(3) 0.12185(13)
H12 H 0.3979 0.6607 0.0793
C14 C 0.5413(4) 0.8034(3) 0.14300(13)
H13 H 0.5394 0.8685 0.1146
C15 C 0.6274(4) 0.8333(2) 0.20490(13)
H14 H 0.6856 0.9181 0.2187
C16 C 0.7731(4) 0.8949(2) 0.33565(13)
H15 H 0.6723 0.9499 0.3301
H16 H 0.8808 0.9306 0.3144
C17 C 0.8282(4) 0.8871(3) 0.40608(13)
H17 H 0.7197 0.8521 0.4263
H18 H 0.8747 0.9733 0.4272
H19 H 0.9262 0.8309 0.4106
N1 N 0.3824(3) 0.1128(2) 0.31991(10)
N2 N 0.4529(3) 0.30034(18) 0.28379(9)
N3 N 0.6151(3) 0.5280(2) 0.33119(10)
H20 H 0.664(4) 0.604(3) 0.3452(12)
N4 N 0.4597(3) 0.39431(19) 0.24197(9)
O1 O 0.6749(3) 0.46841(17) 0.43232(8)
O2 O 0.7098(3) 0.76424(16) 0.30917(8)
C18 C 0.7312(4) 0.2657(2) 0.08065(12)
C19 C 0.8249(3) 0.4684(2) 0.07770(11)
C20 C 0.8111(3) 0.3110(2) 0.14169(11)
C21 C 0.8399(3) 0.2613(2) 0.20283(11)
C22 C 0.9937(3) 0.4794(2) 0.24154(11)
C23 C 0.6524(4) 0.1312(2) 0.05536(13)
H21 H 0.5261 0.1310 0.0346
H22 H 0.6484 0.0775 0.0910
H23 H 0.7310 0.0970 0.0239
C24 C 0.8674(4) 0.5992(2) 0.05757(11)
H24 H 1.0032 0.6170 0.0551
H25 H 0.8332 0.6630 0.0909
C25 C 0.7657(4) 0.6168(2) -0.00728(12)
H26 H 0.8043 0.5564 -0.0412
H27 H 0.6300 0.5959 -0.0057
C26 C 0.8067(4) 0.7534(3) -0.02437(14)
H28 H 0.7614 0.8129 0.0077
H29 H 0.7440 0.7604 -0.0670
H30 H 0.9413 0.7751 -0.0248
C27 C 1.1363(3) 0.5327(2) 0.35870(12)
C28 C 1.0936(3) 0.5676(2) 0.29644(11)
C29 C 1.1489(4) 0.6944(2) 0.28544(12)
H31 H 1.1215 0.7200 0.2437
C30 C 1.2420(4) 0.7836(2) 0.33325(12)
H32 H 1.2786 0.8693 0.3246
C31 C 1.2812(4) 0.7465(3) 0.39382(12)
H33 H 1.3451 0.8074 0.4271
C32 C 1.2292(4) 0.6220(2) 0.40701(12)
H34 H 1.2569 0.5978 0.4490
C33 C 1.1066(4) 0.3700(3) 0.43307(12)
H35 H 1.0417 0.4243 0.4626
H36 H 1.2399 0.3785 0.4494
C34 C 1.0212(4) 0.2320(3) 0.42765(14)
H37 H 0.8900 0.2253 0.4107
H38 H 1.0303 0.2008 0.4703
H39 H 1.0877 0.1797 0.3984
N5 N 0.7403(3) 0.36373(19) 0.04179(10)
N6 N 0.8710(3) 0.44048(18) 0.13839(9)
N7 N 0.9363(3) 0.3526(2) 0.24990(10)
H40 H 0.963(4) 0.332(2) 0.2895(13)
N8 N 0.9637(3) 0.52731(18) 0.18745(9)
O3 O 0.7903(3) 0.15191(16) 0.21513(8)
O4 O 1.0847(3) 0.40724(16) 0.36868(8)
loop_
_geom_bond_atom_site_label_1
_geom_bond_atom_site_label_2
_geom_bond_site_symmetry_1
_geom_bond_site_symmetry_2
C1 C3 1_555 1_555
C2 C7 1_555 1_555
C3 C4 1_555 1_555
C4 N3 1_555 1_555
C5 C11 1_555 1_555
C6 C1 1_555 1_555
H1 C6 1_555 1_555
H2 C6 1_555 1_555
H3 C6 1_555 1_555
C7 H4 1_555 1_555
H5 C7 1_555 1_555
C8 C7 1_555 1_555
H6 C8 1_555 1_555
H7 C8 1_555 1_555
C9 C8 1_555 1_555
H8 C9 1_555 1_555
H9 C9 1_555 1_555
H10 C9 1_555 1_555
C10 C11 1_555 1_555
C11 C12 1_555 1_555
C12 H11 1_555 1_555
C13 C12 1_555 1_555
H12 C13 1_555 1_555
C14 C13 1_555 1_555
H13 C14 1_555 1_555
C15 C10 1_555 1_555
H14 C15 1_555 1_555
C16 H15 1_555 1_555
H16 C16 1_555 1_555
C17 C16 1_555 1_555
H17 C17 1_555 1_555
H18 C17 1_555 1_555
H19 C17 1_555 1_555
N1 C1 1_555 1_555
N2 C2 1_555 1_555
N3 C5 1_555 1_555
H20 N3 1_555 1_555
N4 C5 1_555 1_555
O1 C4 1_555 1_555
O2 C10 1_555 1_555
C18 C20 1_555 1_555
C19 C24 1_555 1_555
C20 C21 1_555 1_555
C21 N7 1_555 1_555
C22 C28 1_555 1_555
C23 C18 1_555 1_555
H21 C23 1_555 1_555
H22 C23 1_555 1_555
H23 C23 1_555 1_555
C24 H24 1_555 1_555
H25 C24 1_555 1_555
C25 C24 1_555 1_555
H26 C25 1_555 1_555
H27 C25 1_555 1_555
C26 C25 1_555 1_555
H28 C26 1_555 1_555
H29 C26 1_555 1_555
H30 C26 1_555 1_555
C27 C28 1_555 1_555
C28 C29 1_555 1_555
C29 H31 1_555 1_555
C30 C29 1_555 1_555
H32 C30 1_555 1_555
C31 C30 1_555 1_555
H33 C31 1_555 1_555
C32 C27 1_555 1_555
H34 C32 1_555 1_555
C33 H35 1_555 1_555
H36 C33 1_555 1_555
C34 C33 1_555 1_555
H37 C34 1_555 1_555
H38 C34 1_555 1_555
H39 C34 1_555 1_555
N5 C18 1_555 1_555
N6 C19 1_555 1_555
N7 C22 1_555 1_555
H40 N7 1_555 1_555
N8 C22 1_555 1_555
O3 C21 1_555 1_555
O4 C27 1_555 1_555
C2 N1 1_555 1_555
C3 N2 1_555 1_555
C14 C15 1_555 1_555
C16 O2 1_555 1_555
N2 N4 1_555 1_555
C19 N5 1_555 1_555
C20 N6 1_555 1_555
C31 C32 1_555 1_555
C33 O4 1_555 1_555
N6 N8 1_555 1_555

#END
