
#######################################################################
#
#                 Cambridge Crystallographic Data Centre
#                                CCDC 
#
#######################################################################
#
# If this CIF has been generated from an entry in the Cambridge 
# Structural Database, then it will include bibliographic, chemical, 
# crystal, experimental, refinement or atomic coordinate data resulting 
# from the CCDC's data processing and validation procedures.
#
#######################################################################

data_ZEJWEQ
_chemical_formula_moiety         'C33 H36 N2 O1'
_chemical_name_systematic        
'(2R,3S,\aR)-N,N-Dimethyl 2-benzyl-3-phenyl-3-(N-benzyl-N-\a-methylbenzylamino)propanamide'
_symmetry_cell_setting           orthorhombic
_symmetry_space_group_name_H-M   'P 21 21 21'
_symmetry_Int_Tables_number      19
_space_group_name_Hall           'P 2ac 2ab'
loop_
_symmetry_equiv_pos_site_id
_symmetry_equiv_pos_as_xyz
1 x,y,z
2 1/2-x,-y,1/2+z
3 1/2+x,1/2-y,-z
4 -x,1/2+y,1/2-z
_cell_length_a                   6.4535(5)
_cell_length_b                   19.009(2)
_cell_length_c                   22.278(2)
_cell_angle_alpha                90
_cell_angle_beta                 90
_cell_angle_gamma                90
_cell_volume                     2732.94
_exptl_crystal_colour            white
_chemical_melting_point          125-126deg.C
_cell_formula_units_Z            4
loop_
_atom_site_label
_atom_site_type_symbol
_atom_site_fract_x
_atom_site_fract_y
_atom_site_fract_z
O1 O -0.1445(2) -0.22076(8) -0.72435(7)
N1 N 0.0900(3) -0.30758(8) -0.73234(8)
N2 N 0.2363(2) -0.12912(7) -0.77423(6)
C1 C 0.0309(3) -0.24284(9) -0.71440(8)
C2 C 0.1815(3) -0.19738(8) -0.67895(7)
C3 C 0.1944(3) -0.12408(8) -0.70885(7)
C4 C 0.3398(3) -0.07394(8) -0.67557(7)
C5 C 0.2696(4) -0.00645(9) -0.66146(8)
C6 C 0.3984(4) 0.0428(1) -0.6351(1)
C7 C 0.6002(4) 0.0255(1) -0.6216(1)
C8 C 0.6714(4) -0.0414(1) -0.63401(9)
C9 C 0.5437(3) -0.0905(1) -0.66119(8)
C10 C 0.0956(4) -0.1904(1) -0.61458(8)
C11 C 0.0678(4) -0.2599(1) -0.58268(8)
C12 C 0.2226(4) -0.2866(1) -0.54650(9)
C13 C 0.1959(6) -0.3497(1) -0.5162(1)
C14 C 0.0147(6) -0.3866(1) -0.5219(1)
C15 C -0.1387(5) -0.3620(1) -0.5580(1)
C16 C -0.1142(4) -0.2979(1) -0.5883(1)
C17 C 0.2876(5) -0.3407(1) -0.7197(1)
C18 C -0.0638(5) -0.3506(1) -0.7639(1)
C19 C 0.2009(3) -0.05972(9) -0.80388(8)
C20 C -0.0295(4) -0.0418(1) -0.8043(1)
C21 C 0.2908(3) -0.05499(9) -0.86655(8)
C22 C 0.4794(4) -0.0222(1) -0.8749(1)
C23 C 0.5651(5) -0.0159(2) -0.9320(2)
C24 C 0.4574(7) -0.0414(2) -0.9805(2)
C25 C 0.2699(7) -0.0713(2) -0.9733(1)
C26 C 0.1865(4) -0.0802(1) -0.91697(9)
C27 C 0.4333(3) -0.16245(9) -0.78967(8)
C28 C 0.4190(3) -0.20865(9) -0.84542(8)
C29 C 0.5955(4) -0.2226(1) -0.8783(1)
C30 C 0.5856(5) -0.2665(1) -0.9289(1)
C31 C 0.4014(5) -0.2959(1) -0.9460(1)
C32 C 0.2257(5) -0.2828(1) -0.9132(1)
C33 C 0.2344(4) -0.2394(1) -0.86278(9)
loop_
_geom_bond_atom_site_label_1
_geom_bond_atom_site_label_2
_geom_bond_site_symmetry_1
_geom_bond_site_symmetry_2
O1 C1 1_555 1_555
N1 C1 1_555 1_555
N2 C3 1_555 1_555
C1 C2 1_555 1_555
C2 C3 1_555 1_555
C3 C4 1_555 1_555
C4 C5 1_555 1_555
C5 C6 1_555 1_555
C6 C7 1_555 1_555
C7 C8 1_555 1_555
C8 C9 1_555 1_555
C9 C4 1_555 1_555
C10 C2 1_555 1_555
C11 C10 1_555 1_555
C12 C11 1_555 1_555
C13 C12 1_555 1_555
C14 C13 1_555 1_555
C15 C14 1_555 1_555
C16 C11 1_555 1_555
C17 N1 1_555 1_555
C18 N1 1_555 1_555
C19 N2 1_555 1_555
C20 C19 1_555 1_555
C21 C19 1_555 1_555
C22 C21 1_555 1_555
C23 C22 1_555 1_555
C24 C23 1_555 1_555
C25 C24 1_555 1_555
C26 C21 1_555 1_555
C27 N2 1_555 1_555
C28 C27 1_555 1_555
C29 C28 1_555 1_555
C30 C29 1_555 1_555
C31 C30 1_555 1_555
C32 C31 1_555 1_555
C33 C28 1_555 1_555
C15 C16 1_555 1_555
C25 C26 1_555 1_555
C32 C33 1_555 1_555

#END
