
#######################################################################
#
#                 Cambridge Crystallographic Data Centre
#                                CCDC 
#
#######################################################################
#
# If this CIF has been generated from an entry in the Cambridge 
# Structural Database, then it will include bibliographic, chemical, 
# crystal, experimental, refinement or atomic coordinate data resulting 
# from the CCDC's data processing and validation procedures.
#
#######################################################################

data_ZEJXIY
_chemical_formula_moiety         'C20 H44 P1 1+,C26 H17 O3 S1 1-'
_chemical_name_systematic        
'triethyl(tetradecyl)phosphanium 9,10-diphenylanthracene-2-sulfonate'
_symmetry_cell_setting           monoclinic
_symmetry_space_group_name_H-M   'P 21/c'
_symmetry_Int_Tables_number      14
_space_group_name_Hall           '-P 2ybc'
loop_
_symmetry_equiv_pos_site_id
_symmetry_equiv_pos_as_xyz
1 x,y,z
2 -x,1/2+y,1/2-z
3 -x,-y,-z
4 x,1/2-y,1/2+z
_cell_length_a                   23.205(13)
_cell_length_b                   9.153(5)
_cell_length_c                   19.653(11)
_cell_angle_alpha                90
_cell_angle_beta                 99.9120(10)
_cell_angle_gamma                90
_cell_volume                     4111.9
_exptl_crystal_colour            colorless
_exptl_crystal_description       platelet
_cell_formula_units_Z            4
loop_
_atom_site_label
_atom_site_type_symbol
_atom_site_fract_x
_atom_site_fract_y
_atom_site_fract_z
S1 S 0.58370(3) 1.24190(9) 0.38639(4)
O1 O 0.54533(10) 1.1676(3) 0.42592(14)
O2 O 0.56773(12) 1.2190(4) 0.31301(14)
O3 O 0.59279(12) 1.3923(3) 0.40668(19)
C1 C 0.68970(13) 1.1254(3) 0.36693(17)
H1 H 0.6771 1.1426 0.3201
C2 C 0.74681(13) 1.0628(3) 0.38962(17)
C3 C 0.65384(14) 1.1597(3) 0.41243(17)
C4 C 0.76513(14) 1.0367(3) 0.46209(18)
C5 C 0.84186(15) 0.9750(4) 0.3686(2)
C6 C 0.78537(14) 1.0301(4) 0.34350(19)
C7 C 0.76737(15) 1.0576(4) 0.2673(2)
C8 C 0.82153(15) 0.9788(4) 0.4878(2)
C9 C 0.86040(15) 0.9501(4) 0.4417(2)
C10 C 0.67260(15) 1.1337(4) 0.48415(19)
H2 H 0.6481 1.1583 0.5152
C11 C 0.72552(15) 1.0736(4) 0.5080(2)
H3 H 0.7364 1.0558 0.5551
C12 C 0.84030(16) 0.9535(5) 0.5633(2)
C13 C 0.88177(16) 0.9368(4) 0.3242(2)
H4 H 0.8705 0.9494 0.2768
C14 C 0.91843(16) 0.8929(4) 0.4653(2)
H5 H 0.9313 0.8775 0.5122
C15 C 0.95439(18) 0.8614(5) 0.4197(3)
H6 H 0.9917 0.8255 0.4358
C16 C 0.93604(17) 0.8822(5) 0.3487(3)
H7 H 0.9610 0.8586 0.3181
C17 C 0.7912(2) 1.1703(5) 0.2336(2)
H8 H 0.8182 1.2329 0.2592
C18 C 0.81612(19) 0.8402(5) 0.5964(3)
H9 H 0.7887 0.7780 0.5714
C19 C 0.72667(17) 0.9673(6) 0.2277(3)
H10 H 0.7093 0.8918 0.2486
C20 C 0.88144(19) 1.0440(6) 0.6028(2)
H11 H 0.8977 1.1209 0.5816
C21 C 0.7115(2) 0.9901(8) 0.1548(3)
H12 H 0.6846 0.9288 0.1282
C22 C 0.8737(2) 0.9092(7) 0.7049(3)
H13 H 0.8846 0.8946 0.7522
C23 C 0.8987(2) 1.0209(7) 0.6736(3)
H14 H 0.9268 1.0805 0.6993
C24 C 0.7364(2) 1.1017(9) 0.1246(3)
H15 H 0.7265 1.1165 0.0772
C25 C 0.8337(2) 0.8206(6) 0.6683(3)
H16 H 0.8174 0.7455 0.6906
C26 C 0.7758(2) 1.1919(7) 0.1633(3)
H17 H 0.7924 1.2684 0.1422
P1 P 0.51362(4) 0.74266(10) 0.38893(5)
C27 C 0.47651(16) 0.5797(4) 0.4080(2)
H18 H 0.5047 0.5153 0.4353
H19 H 0.4475 0.6058 0.4361
C28 C 0.55750(19) 0.8078(4) 0.46703(19)
H20 H 0.5707 0.9059 0.4591
H21 H 0.5332 0.8137 0.5025
C29 C 0.36731(17) 1.0147(4) 0.3384(2)
H22 H 0.3377 1.0382 0.3659
H23 H 0.3873 1.1045 0.3305
C30 C 0.44632(18) 0.4968(4) 0.3450(2)
H24 H 0.4194 0.5605 0.3166
H25 H 0.4254 0.4152 0.3595
H26 H 0.4750 0.4622 0.3191
C31 C 0.5581(2) 0.7016(4) 0.3253(2)
H27 H 0.5807 0.6141 0.3391
H28 H 0.5330 0.6816 0.2816
C32 C 0.5999(2) 0.8262(5) 0.3155(3)
H29 H 0.5783 0.9157 0.3070
H30 H 0.6188 0.8049 0.2768
H31 H 0.6289 0.8363 0.3564
C33 C 0.6109(2) 0.7136(5) 0.4940(2)
H32 H 0.5987 0.6144 0.4987
H33 H 0.6296 0.7497 0.5382
H34 H 0.6379 0.7174 0.4621
C34 C 0.4633(2) 0.8746(5) 0.3421(3)
H35 H 0.4841 0.9648 0.3369
H36 H 0.4484 0.8372 0.2962
C35 C 0.4123(3) 0.9059(6) 0.3795(4)
H37 H 0.4272 0.9466 0.4247
H38 H 0.3926 0.8149 0.3863
C36 C 0.3377(2) 0.9524(6) 0.2690(3)
H39 H 0.3665 0.9426 0.2388
H40 H 0.3227 0.8557 0.2762
C37 C 0.2629(4) 0.9961(11) 0.1573(6)
H41 H 0.2956 0.9822 0.1331
H42 H 0.2443 0.9018 0.1596
C38 C 0.2883(7) 1.0477(17) 0.2345(9)
H43 H 0.3021 1.1475 0.2334
H44 H 0.2571 1.0461 0.2615
C39 C 0.1870(3) 1.0379(8) 0.0460(4)
H45 H 0.1631 1.1159 0.0226
H46 H 0.2157 1.0124 0.0174
C40 C 0.2197(4) 1.0973(9) 0.1151(5)
H47 H 0.2403 1.1852 0.1058
H48 H 0.1909 1.1254 0.1431
C41 C 0.1515(4) 0.9178(11) 0.0497(6)
H49 H 0.1762 0.8359 0.0673
H50 H 0.1326 0.8929 0.0032
C42 C 0.0197(11) 0.787(2) 0.1586(13)
H51 H 0.0469 0.7895 0.2019
H52 H -0.0031 0.6974 0.1555
C43 C -0.0641(14) 1.023(3) 0.1512(15)
H53 H -0.0957 0.9736 0.1674
H54 H -0.0779 1.0631 0.1062
H55 H -0.0499 1.1004 0.1826
C44 C 0.1038(7) 0.9353(16) 0.0948(8)
H56 H 0.0843 1.0273 0.0814
H57 H 0.1241 0.9480 0.1419
C45 C 0.0487(6) 0.8083(12) 0.0985(8)
C46 C -0.0194(14) 0.925(4) 0.1475(15)
H58 H 0.0121 0.9944 0.1607
H59 H -0.0244 0.9241 0.0974
H60? H 0.3883 1.0964 0.3229
H61? H 0.3626 1.0358 0.3855
H62? H 0.1684 1.1263 0.0586
H63? H 0.1955 1.0493 -0.0004
C47? C 0.4611(5) 0.8980(13) 0.3930(6)
H64? H 0.4513 0.9016 0.4390
H65? H 0.4804 0.9891 0.3854
C48? C -0.0389(7) 0.9601(18) 0.0884(9)
H66? H -0.0203 1.0469 0.1105
H67? H -0.0223 0.9524 0.0464
C49? C -0.0923(7) 1.0347(17) 0.0558(9)
H68? H -0.1189 0.9649 0.0311
H69? H -0.0827 1.1072 0.0242
H70? H -0.1103 1.0810 0.0906
C50? C 0.4049(6) 0.8858(15) 0.3404(8)
H71? H 0.4148 0.8709 0.2949
H72? H 0.3833 0.8007 0.3513
C51? C 0.3059(7) 1.0123(18) 0.2940(8)
H73? H 0.2861 0.9244 0.3052
H74? H 0.2841 1.0950 0.3072
C52? C 0.2408(10) 1.009(2) 0.1766(11)
H75? H 0.2186 1.0922 0.1882
H76? H 0.2220 0.9210 0.1895
C53? C 0.2406(8) 1.007(2) 0.0953(11)
H77? H 0.2698 1.0776 0.0864
H78? H 0.2543 0.9119 0.0839
C54? C 0.3030(13) 1.017(3) 0.2177(12)
H79? H 0.3256 0.9361 0.2041
H80? H 0.3211 1.1068 0.2057
C55? C 0.0082(8) 0.842(2) 0.1340(9)
H81? H 0.0257 0.8857 0.1776
H82? H -0.0125 0.7542 0.1438
C56? C 0.0217(14) 0.944(3) 0.1321(16)
H83? H 0.0546 0.9630 0.1687
H84? H 0.0264 1.0155 0.0971
C57? C -0.0182(12) 1.014(3) 0.1592(14)
H85? H -0.0060 1.1152 0.1632
H86? H -0.0156 0.9771 0.2059
C58? C -0.0783(14) 1.015(3) 0.1300(19)
H87? H -0.0830 0.9899 0.0819
H88? H -0.0942 1.1100 0.1350
H89? H -0.0986 0.9442 0.1534
loop_
_geom_bond_atom_site_label_1
_geom_bond_atom_site_label_2
_geom_bond_site_symmetry_1
_geom_bond_site_symmetry_2
S1 O1 1_555 1_555
O2 S1 1_555 1_555
O3 S1 1_555 1_555
C1 H1 1_555 1_555
C2 C1 1_555 1_555
C3 S1 1_555 1_555
C4 C2 1_555 1_555
C5 C6 1_555 1_555
C6 C2 1_555 1_555
C7 C6 1_555 1_555
C8 C4 1_555 1_555
C9 C5 1_555 1_555
C10 C3 1_555 1_555
H2 C10 1_555 1_555
C11 C4 1_555 1_555
H3 C11 1_555 1_555
C12 C8 1_555 1_555
C13 C5 1_555 1_555
H4 C13 1_555 1_555
C14 C9 1_555 1_555
H5 C14 1_555 1_555
C15 C14 1_555 1_555
H6 C15 1_555 1_555
C16 C13 1_555 1_555
H7 C16 1_555 1_555
C17 C7 1_555 1_555
H8 C17 1_555 1_555
C18 C12 1_555 1_555
H9 C18 1_555 1_555
C19 C7 1_555 1_555
H10 C19 1_555 1_555
C20 C12 1_555 1_555
H11 C20 1_555 1_555
C21 C19 1_555 1_555
H12 C21 1_555 1_555
C22 H13 1_555 1_555
C23 C20 1_555 1_555
H14 C23 1_555 1_555
C24 C21 1_555 1_555
H15 C24 1_555 1_555
C25 C18 1_555 1_555
H16 C25 1_555 1_555
C26 C17 1_555 1_555
H17 C26 1_555 1_555
P1 C27 1_555 1_555
C27 H18 1_555 1_555
H19 C27 1_555 1_555
C28 P1 1_555 1_555
H20 C28 1_555 1_555
H21 C28 1_555 1_555
C29 H22 1_555 1_555
H23 C29 1_555 1_555
C30 C27 1_555 1_555
H24 C30 1_555 1_555
H25 C30 1_555 1_555
H26 C30 1_555 1_555
C31 P1 1_555 1_555
H27 C31 1_555 1_555
H28 C31 1_555 1_555
C32 C31 1_555 1_555
H29 C32 1_555 1_555
H30 C32 1_555 1_555
H31 C32 1_555 1_555
C33 C28 1_555 1_555
H32 C33 1_555 1_555
H33 C33 1_555 1_555
H34 C33 1_555 1_555
C34 P1 1_555 1_555
H35 C34 1_555 1_555
H36 C34 1_555 1_555
C35 C29 1_555 1_555
H37 C35 1_555 1_555
H38 C35 1_555 1_555
C36 C29 1_555 1_555
H39 C36 1_555 1_555
H40 C36 1_555 1_555
C37 H41 1_555 1_555
H42 C37 1_555 1_555
C38 C36 1_555 1_555
H43 C38 1_555 1_555
H44 C38 1_555 1_555
C39 H45 1_555 1_555
H46 C39 1_555 1_555
C40 C37 1_555 1_555
H47 C40 1_555 1_555
H48 C40 1_555 1_555
C41 C39 1_555 1_555
H49 C41 1_555 1_555
H50 C41 1_555 1_555
C42 H51 1_555 1_555
H52 C42 1_555 1_555
C43 H53 1_555 1_555
H54 C43 1_555 1_555
H55 C43 1_555 1_555
C44 C41 1_555 1_555
H56 C44 1_555 1_555
H57 C44 1_555 1_555
C45 C42 1_555 1_555
C46 C42 1_555 1_555
H58 C46 1_555 1_555
H59 C46 1_555 1_555
C1 C3 1_555 1_555
C8 C9 1_555 1_555
C10 C11 1_555 1_555
C15 C16 1_555 1_555
C22 C23 1_555 1_555
C22 C25 1_555 1_555
C24 C26 1_555 1_555
C34 C35 1_555 1_555
C37 C38 1_555 1_555
C39 C40 1_555 1_555
C43 C46 1_555 1_555
C44 C45 1_555 1_555

#END
