
#######################################################################
#
#                 Cambridge Crystallographic Data Centre
#                                CCDC 
#
#######################################################################
#
# If this CIF has been generated from an entry in the Cambridge 
# Structural Database, then it will include bibliographic, chemical, 
# crystal, experimental, refinement or atomic coordinate data resulting 
# from the CCDC's data processing and validation procedures.
#
#######################################################################

data_ZEKFIH
_chemical_compound_source        
'Isolated from the culture extract of Trichoderma koningiopsis QA-3, an endophytic fungus obtained from the inner tissue of Artemisia argyi that was collected from Qichun.'
_chemical_name_common            'ent-Koninginin A'
_chemical_formula_moiety         'C16 H28 O4'
_chemical_name_systematic        
2-hexyloctahydro-2H-3,9a-epoxy-1-benzoxepine-6,9-diol
_chemical_properties_biological  
'Activity against human pathogen Escherichia coli and against aquatic bacteria and agro-pathogenic fungi.'
_symmetry_cell_setting           orthorhombic
_symmetry_space_group_name_H-M   'P 21 21 21'
_symmetry_Int_Tables_number      19
_space_group_name_Hall           'P 2ac 2ab'
loop_
_symmetry_equiv_pos_site_id
_symmetry_equiv_pos_as_xyz
1 x,y,z
2 1/2-x,-y,1/2+z
3 -x,1/2+y,1/2-z
4 1/2+x,1/2-y,-z
_cell_length_a                   5.4518(5)
_cell_length_b                   12.6676(11)
_cell_length_c                   23.036(2)
_cell_angle_alpha                90
_cell_angle_beta                 90
_cell_angle_gamma                90
_cell_volume                     1590.89
_cell_formula_units_Z            4
loop_
_atom_site_label
_atom_site_type_symbol
_atom_site_fract_x
_atom_site_fract_y
_atom_site_fract_z
O1 O 0.2360(4) 0.3130(2) 0.39071(11)
O2 O 0.6009(5) 0.3988(2) 0.39881(11)
O3 O 0.5193(5) 0.2318(2) 0.48035(10)
H1 H 0.6421 0.2469 0.4992
O4 O 0.1766(6) 0.1682(3) 0.29877(13)
H2 H 0.1231 0.1950 0.3286
C1 C 0.4940(7) 0.2995(3) 0.38220(16)
C2 C 0.5863(8) 0.2128(3) 0.42143(16)
H3 H 0.7656 0.2100 0.4188
C3 C 0.4824(9) 0.1065(3) 0.40262(15)
H4 H 0.3062 0.1063 0.4085
H5 H 0.5524 0.0511 0.4265
C4 C 0.5387(9) 0.0841(3) 0.33882(17)
H6 H 0.4654 0.0173 0.3278
H7 H 0.7148 0.0783 0.3336
C5 C 0.4398(9) 0.1717(4) 0.29944(18)
H8 H 0.4977 0.1578 0.2599
C6 C 0.5410(8) 0.2789(3) 0.31822(16)
H9 H 0.7194 0.2755 0.3133
C7 C 0.4515(9) 0.3740(3) 0.28227(17)
H10 H 0.5747 0.4292 0.2837
H11 H 0.4336 0.3525 0.2421
C8 C 0.2058(9) 0.4189(4) 0.30387(18)
H12 H 0.1858 0.4903 0.2894
H13 H 0.0723 0.3764 0.2887
C9 C 0.1937(8) 0.4198(3) 0.36979(18)
H14 H 0.0358 0.4471 0.3835
C10 C 0.4056(8) 0.4771(3) 0.39822(19)
H15 H 0.4545 0.5373 0.3742
C11 C 0.3541(8) 0.5141(3) 0.45975(18)
H16 H 0.3091 0.4534 0.4831
H17 H 0.2143 0.5614 0.4590
C12 C 0.5670(9) 0.5703(3) 0.48903(18)
H18 H 0.6146 0.6308 0.4658
H19 H 0.7064 0.5229 0.4911
C13 C 0.4999(10) 0.6077(4) 0.5509(2)
H20 H 0.3468 0.6465 0.5491
H21 H 0.4729 0.5460 0.5751
C14 C 0.6867(13) 0.6750(4) 0.5789(2)
H22 H 0.7043 0.7389 0.5561
H23 H 0.8427 0.6382 0.5777
C15 C 0.6327(14) 0.7069(5) 0.6433(3)
H24 H 0.6006 0.6436 0.6658
H25 H 0.7771 0.7406 0.6595
C16 C 0.4304(15) 0.7762(6) 0.6488(3)
H26 H 0.2824 0.7395 0.6387
H27 H 0.4521 0.8352 0.6231
H28 H 0.4196 0.8009 0.6881
loop_
_geom_bond_atom_site_label_1
_geom_bond_atom_site_label_2
_geom_bond_site_symmetry_1
_geom_bond_site_symmetry_2
O1 C1 1_555 1_555
O2 C1 1_555 1_555
O3 H1 1_555 1_555
O4 H2 1_555 1_555
C1 C2 1_555 1_555
C2 O3 1_555 1_555
H3 C2 1_555 1_555
C3 C2 1_555 1_555
H4 C3 1_555 1_555
H5 C3 1_555 1_555
C4 C3 1_555 1_555
H6 C4 1_555 1_555
H7 C4 1_555 1_555
C5 O4 1_555 1_555
H8 C5 1_555 1_555
C6 C1 1_555 1_555
H9 C6 1_555 1_555
C7 C6 1_555 1_555
H10 C7 1_555 1_555
H11 C7 1_555 1_555
C8 C7 1_555 1_555
H12 C8 1_555 1_555
H13 C8 1_555 1_555
C9 O1 1_555 1_555
H14 C9 1_555 1_555
C10 O2 1_555 1_555
H15 C10 1_555 1_555
C11 C10 1_555 1_555
H16 C11 1_555 1_555
H17 C11 1_555 1_555
C12 C11 1_555 1_555
H18 C12 1_555 1_555
H19 C12 1_555 1_555
C13 C12 1_555 1_555
H20 C13 1_555 1_555
H21 C13 1_555 1_555
C14 C13 1_555 1_555
H22 C14 1_555 1_555
H23 C14 1_555 1_555
C15 C14 1_555 1_555
H24 C15 1_555 1_555
H25 C15 1_555 1_555
C16 C15 1_555 1_555
H26 C16 1_555 1_555
H27 C16 1_555 1_555
H28 C16 1_555 1_555
C4 C5 1_555 1_555
C5 C6 1_555 1_555
C8 C9 1_555 1_555
C9 C10 1_555 1_555

#END
