
#######################################################################
#
#                 Cambridge Crystallographic Data Centre
#                                CCDC 
#
#######################################################################
#
# If this CIF has been generated from an entry in the Cambridge 
# Structural Database, then it will include bibliographic, chemical, 
# crystal, experimental, refinement or atomic coordinate data resulting 
# from the CCDC's data processing and validation procedures.
#
#######################################################################

data_ZEKFAZ
_chemical_formula_moiety         'C23 H18 N2 O4 S1'
_chemical_name_systematic        
N-{5-[(4-methoxyphenyl)sulfonyl]quinolin-8-yl}benzamide
_symmetry_cell_setting           triclinic
_symmetry_space_group_name_H-M   'P -1'
_symmetry_Int_Tables_number      2
_space_group_name_Hall           '-P 1'
loop_
_symmetry_equiv_pos_site_id
_symmetry_equiv_pos_as_xyz
1 x,y,z
2 -x,-y,-z
_cell_length_a                   10.136(3)
_cell_length_b                   10.173(3)
_cell_length_c                   11.012(3)
_cell_angle_alpha                104.003(3)
_cell_angle_beta                 97.178(3)
_cell_angle_gamma                111.781(3)
_cell_volume                     993.607
_exptl_crystal_colour            colorless
_exptl_crystal_description       block
_cell_formula_units_Z            2
loop_
_atom_site_label
_atom_site_type_symbol
_atom_site_fract_x
_atom_site_fract_y
_atom_site_fract_z
S1 S 0.70475(5) 0.40149(5) 0.23790(4)
O1 O 0.79677(16) 0.36011(15) 0.31743(14)
O2 O 0.57847(16) 0.28595(15) 0.14244(15)
O3 O 0.27771(18) 0.7702(2) 0.40352(15)
O4 O 1.06127(17) 0.78514(19) -0.02954(15)
N1 N 0.72414(17) 0.80416(18) 0.65392(14)
N2 N 0.47728(15) 0.80293(16) 0.54491(14)
H1 H 0.5287 0.8509 0.6226
C1 C 0.64166(19) 0.51937(18) 0.33799(17)
C2 C 0.72098(18) 0.61491(18) 0.46615(16)
C3 C 0.65980(17) 0.70816(18) 0.53156(16)
C4 C 0.8476(2) 0.8084(3) 0.71256(19)
H2 H 0.8916 0.8732 0.7960
C5 C 0.9169(2) 0.7214(3) 0.65718(19)
H3 H 1.0046 0.7292 0.7028
C6 C 0.8541(2) 0.6255(2) 0.53580(18)
H4 H 0.8985 0.5664 0.4980
C7 C 0.52474(17) 0.70571(18) 0.47066(16)
C8 C 0.3594(2) 0.8315(2) 0.50964(18)
C9 C 0.33478(19) 0.94309(19) 0.61016(18)
C10 C 0.2189(2) 0.9777(2) 0.5717(2)
H5 H 0.1630 0.9341 0.4872
C11 C 0.1872(3) 1.0773(3) 0.6597(3)
H6 H 0.1097 1.1002 0.6340
C12 C 0.2684(3) 1.1422(3) 0.7835(3)
H7 H 0.2458 1.2087 0.8418
C13 C 0.3836(3) 1.1097(2) 0.8228(2)
H8 H 0.4391 1.1544 0.9074
C14 C 0.4169(2) 1.0100(2) 0.7357(2)
H9 H 0.4950 0.9881 0.7621
C15 C 0.45264(19) 0.6114(2) 0.34773(17)
H10 H 0.3648 0.6088 0.3079
C16 C 0.51280(19) 0.5192(2) 0.28293(17)
H11 H 0.4634 0.4558 0.1998
C17 C 0.81465(19) 0.51430(19) 0.15805(16)
C18 C 0.9584(2) 0.6098(2) 0.21928(18)
H12 H 0.9975 0.6117 0.3011
C19 C 1.0450(2) 0.7029(2) 0.15982(18)
H13 H 1.1413 0.7680 0.2018
C20 C 0.9866(2) 0.6982(2) 0.03717(17)
C21 C 1.2118(3) 0.8808(3) 0.0257(2)
H14 H 1.2511 0.9331 -0.0324
H15 H 1.2643 0.8226 0.0410
H16 H 1.2216 0.9514 0.1058
C22 C 0.8424(2) 0.6003(2) -0.02533(18)
H17 H 0.8041 0.5966 -0.1080
C23 C 0.7561(2) 0.5087(2) 0.03457(18)
H18 H 0.6596 0.4438 -0.0072
loop_
_geom_bond_atom_site_label_1
_geom_bond_atom_site_label_2
_geom_bond_site_symmetry_1
_geom_bond_site_symmetry_2
S1 O1 1_555 1_555
O2 S1 1_555 1_555
O3 C8 1_555 1_555
O4 C20 1_555 1_555
N1 C3 1_555 1_555
N2 H1 1_555 1_555
C1 S1 1_555 1_555
C2 C1 1_555 1_555
C3 C2 1_555 1_555
C4 N1 1_555 1_555
H2 C4 1_555 1_555
C5 C4 1_555 1_555
H3 C5 1_555 1_555
C6 C2 1_555 1_555
H4 C6 1_555 1_555
C7 N2 1_555 1_555
C8 N2 1_555 1_555
C9 C8 1_555 1_555
C10 C9 1_555 1_555
H5 C10 1_555 1_555
C11 C10 1_555 1_555
H6 C11 1_555 1_555
C12 C11 1_555 1_555
H7 C12 1_555 1_555
C13 C12 1_555 1_555
H8 C13 1_555 1_555
C14 C9 1_555 1_555
H9 C14 1_555 1_555
C15 C7 1_555 1_555
H10 C15 1_555 1_555
C16 C1 1_555 1_555
H11 C16 1_555 1_555
C17 S1 1_555 1_555
C18 C17 1_555 1_555
H12 C18 1_555 1_555
C19 C18 1_555 1_555
H13 C19 1_555 1_555
C20 C19 1_555 1_555
C21 O4 1_555 1_555
H14 C21 1_555 1_555
H15 C21 1_555 1_555
H16 C21 1_555 1_555
C22 C20 1_555 1_555
H17 C22 1_555 1_555
C23 C17 1_555 1_555
H18 C23 1_555 1_555
C3 C7 1_555 1_555
C5 C6 1_555 1_555
C13 C14 1_555 1_555
C15 C16 1_555 1_555
C22 C23 1_555 1_555

#END
