
#######################################################################
#
#                 Cambridge Crystallographic Data Centre
#                                CCDC 
#
#######################################################################
#
# If this CIF has been generated from an entry in the Cambridge 
# Structural Database, then it will include bibliographic, chemical, 
# crystal, experimental, refinement or atomic coordinate data resulting 
# from the CCDC's data processing and validation procedures.
#
#######################################################################

data_ZEKJUW
_chemical_formula_moiety         'C24 H72 Ca2 N4 O2 Si8'
_chemical_name_systematic        
bis(\m~2~-bis(dimethylsilyl)imido)-bis(bis(dimethylsilyl)amido)-bis(tetrahydrofuran)-di-calcium
_symmetry_cell_setting           monoclinic
_symmetry_space_group_name_H-M   'P 21/n'
_symmetry_Int_Tables_number      14
_space_group_name_Hall           '-P 2yn'
loop_
_symmetry_equiv_pos_site_id
_symmetry_equiv_pos_as_xyz
1 x,y,z
2 1/2-x,1/2+y,1/2-z
3 -x,-y,-z
4 1/2+x,1/2-y,1/2+z
_cell_length_a                   18.1714(18)
_cell_length_b                   23.153(2)
_cell_length_c                   21.826(2)
_cell_angle_alpha                90
_cell_angle_beta                 97.8750(15)
_cell_angle_gamma                90
_cell_volume                     9096.09
_exptl_crystal_colour            colorless
_cell_formula_units_Z            8
loop_
_atom_site_label
_atom_site_type_symbol
_atom_site_fract_x
_atom_site_fract_y
_atom_site_fract_z
Si1 Si 0.34418(3) 0.66732(2) 0.19180(3)
H1 H 0.2712(10) 0.6817(8) 0.1580(8)
Si2 Si 0.41144(3) 0.55088(2) 0.21455(3)
H2 H 0.3926(10) 0.5024(8) 0.2525(8)
Si3 Si 0.16873(3) 0.65148(2) 0.30095(3)
H3 H 0.2437(10) 0.6510(8) 0.3375(8)
Si4 Si 0.08702(3) 0.55546(2) 0.23082(3)
H4 H 0.0951(10) 0.5321(8) 0.1707(8)
Si5 Si 0.22299(3) 0.44625(3) 0.14485(3)
H5 H 0.2345(10) 0.4749(8) 0.2071(8)
Si6 Si 0.21542(3) 0.50480(3) 0.01705(3)
H6 H 0.2156(10) 0.5655(8) 0.0005(9)
Si7 Si 0.24197(3) 0.49238(3) 0.42316(3)
H7 H 0.2179(10) 0.5503(8) 0.4084(8)
Si8 Si 0.31117(3) 0.40444(2) 0.34382(3)
H8 H 0.3345(10) 0.4072(8) 0.2844(8)
O1 O 0.12332(7) 0.63934(6) 0.08998(6)
O2 O 0.39121(7) 0.58513(6) 0.37534(6)
N1 N 0.33737(8) 0.59675(7) 0.21164(7)
N2 N 0.16718(8) 0.59236(6) 0.25409(7)
N3 N 0.22110(9) 0.50114(7) 0.09439(7)
N4 N 0.28327(9) 0.47054(7) 0.36301(7)
Ca1 Ca 0.21328(2) 0.583173(17) 0.152756(18)
Ca2 Ca 0.28748(2) 0.553031(17) 0.303453(18)
C1 C 0.36098(11) 0.72034(9) 0.25660(10)
H9 H 0.4123 0.7167 0.2770
H10 H 0.3267 0.7126 0.2866
H11 H 0.3528 0.7596 0.2403
C2 C 0.41071(12) 0.68353(10) 0.13576(10)
H12 H 0.3994 0.6589 0.0992
H13 H 0.4616 0.6760 0.1554
H14 H 0.4060 0.7242 0.1233
C3 C 0.42828(12) 0.51986(10) 0.13881(10)
H15 H 0.4508 0.5493 0.1150
H16 H 0.3810 0.5072 0.1156
H17 H 0.4619 0.4867 0.1460
C4 C 0.50161(10) 0.58068(9) 0.25310(9)
H18 H 0.4928 0.6038 0.2890
H19 H 0.5238 0.6051 0.2238
H20 H 0.5355 0.5488 0.2666
C5 C 0.10300(12) 0.65159(10) 0.35946(10)
H21 H 0.1036 0.6136 0.3794
H22 H 0.0527 0.6600 0.3390
H23 H 0.1181 0.6812 0.3907
C6 C 0.15871(12) 0.72239(9) 0.26025(10)
H24 H 0.1077 0.7266 0.2393
H25 H 0.1934 0.7242 0.2296
H26 H 0.1698 0.7537 0.2904
C7 C 0.00033(11) 0.59955(9) 0.21553(10)
H27 H 0.0102 0.6345 0.1927
H28 H -0.0160 0.6104 0.2549
H29 H -0.0386 0.5769 0.1910
C8 C 0.07033(12) 0.49264(9) 0.27985(10)
H30 H 0.0564 0.5063 0.3192
H31 H 0.1157 0.4694 0.2879
H32 H 0.0301 0.4690 0.2584
C9 C 0.30027(13) 0.39277(9) 0.14506(10)
H33 H 0.3481 0.4125 0.1553
H34 H 0.2977 0.3750 0.1040
H35 H 0.2955 0.3628 0.1759
C10 C 0.13602(13) 0.40266(9) 0.14282(10)
H36 H 0.1296 0.3784 0.1057
H37 H 0.0933 0.4286 0.1421
H38 H 0.1396 0.3781 0.1797
C11 C 0.12812(12) 0.47247(9) -0.02504(10)
H39 H 0.0849 0.4911 -0.0111
H40 H 0.1271 0.4310 -0.0163
H41 H 0.1268 0.4785 -0.0696
C12 C 0.29481(13) 0.47172(11) -0.01685(10)
H42 H 0.2972 0.4303 -0.0076
H43 H 0.3414 0.4902 0.0011
H44 H 0.2874 0.4774 -0.0618
C13 C 0.30218(12) 0.49965(9) 0.49968(9)
H45 H 0.3411 0.5283 0.4963
H46 H 0.3251 0.4623 0.5116
H47 H 0.2718 0.5121 0.5311
C14 C 0.16009(12) 0.44966(11) 0.44032(11)
H48 H 0.1772 0.4141 0.4620
H49 H 0.1287 0.4399 0.4015
H50 H 0.1313 0.4726 0.4664
C15 C 0.39243(12) 0.37504(9) 0.39702(10)
H51 H 0.3793 0.3719 0.4390
H52 H 0.4350 0.4011 0.3973
H53 H 0.4055 0.3368 0.3826
C16 C 0.23710(13) 0.34801(10) 0.33819(12)
H54 H 0.1943 0.3607 0.3090
H55 H 0.2217 0.3420 0.3790
H56 H 0.2564 0.3118 0.3236
C17 C 0.12281(15) 0.69977(11) 0.07564(14)
H57 H 0.1685 0.7103 0.0582
H58 H 0.1209 0.7228 0.1136
C18 C 0.05534(12) 0.71191(9) 0.02922(10)
H59 H 0.0688 0.7154 -0.0131
H60 H 0.0302 0.7478 0.0397
C19 C 0.00648(12) 0.65955(9) 0.03465(10)
H61 H -0.0257 0.6652 0.0673
H62 H -0.0251 0.6513 -0.0051
C20 C 0.06173(11) 0.61213(9) 0.05152(10)
H63 H 0.0399 0.5811 0.0745
H64 H 0.0782 0.5953 0.0140
C21 C 0.41327(12) 0.64075(9) 0.40147(10)
H65 H 0.3694 0.6631 0.4100
H66 H 0.4401 0.6632 0.3729
C22 C 0.46332(13) 0.62761(10) 0.46038(10)
H67 H 0.4344 0.6194 0.4946
H68 H 0.4980 0.6599 0.4724
C23 C 0.50445(13) 0.57427(10) 0.44310(12)
H69 H 0.5473 0.5848 0.4218
H70 H 0.5223 0.5508 0.4801
C24 C 0.44621(11) 0.54228(9) 0.40026(9)
H71 H 0.4687 0.5237 0.3664
H72 H 0.4228 0.5120 0.4231
Si9 Si 0.07591(3) 0.19167(2) 0.77013(3)
H73 H 0.0825(10) 0.2386(8) 0.7292(8)
Si10 Si 0.15758(3) 0.08072(2) 0.78749(3)
H74 H 0.2329(10) 0.0700(8) 0.8177(8)
Si11 Si 0.40326(3) 0.20502(2) 0.75704(3)
H75 H 0.3922(10) 0.2233(8) 0.8205(8)
Si12 Si 0.32847(3) 0.11158(2) 0.67931(3)
H76 H 0.2564(10) 0.1126(8) 0.6432(8)
Si13 Si 0.26168(3) 0.23483(3) 0.97689(3)
H77 H 0.3283(10) 0.2452(8) 1.0168(8)
Si14 Si 0.27006(3) 0.30477(2) 0.85745(3)
H78 H 0.2592(10) 0.2803(8) 0.7919(8)
Si15 Si 0.18032(3) 0.35291(3) 0.66538(3)
H79 H 0.1440(10) 0.3436(8) 0.7215(9)
Si16 Si 0.23994(4) 0.27596(3) 0.56977(3)
H80 H 0.2660(11) 0.2144(9) 0.5763(9)
O3 O 0.37166(8) 0.11757(6) 0.89058(7)
O4 O 0.10006(8) 0.17027(6) 0.60604(6)
N5 N 0.15603(8) 0.15285(7) 0.77258(7)
N6 N 0.32505(8) 0.16631(7) 0.73122(7)
N7 N 0.26791(9) 0.24575(7) 0.90177(7)
N8 N 0.20537(9) 0.29025(7) 0.63566(7)
Ca3 Ca 0.27760(2) 0.171675(17) 0.832209(18)
Ca4 Ca 0.20071(2) 0.200902(18) 0.681849(18)
C25 C 0.05902(12) 0.22283(9) 0.84576(10)
H81 H 0.0445 0.1920 0.8724
H82 H 0.0192 0.2516 0.8388
H83 H 0.1045 0.2413 0.8658
C26 C -0.00990(11) 0.15256(9) 0.73525(10)
H84 H 0.0000 0.1322 0.6979
H85 H -0.0502 0.1804 0.7245
H86 H -0.0244 0.1246 0.7652
C27 C 0.09763(12) 0.05565(9) 0.84539(9)
H87 H 0.1043 0.0814 0.8814
H88 H 0.1117 0.0162 0.8585
H89 H 0.0455 0.0562 0.8266
C28 C 0.14176(11) 0.03256(8) 0.71834(9)
H90 H 0.0905 0.0371 0.6980
H91 H 0.1502 -0.0077 0.7313
H92 H 0.1762 0.0430 0.6893
C29 C 0.41710(12) 0.27019(9) 0.71032(11)
H93 H 0.4319 0.2584 0.6706
H94 H 0.4561 0.2944 0.7327
H95 H 0.3706 0.2921 0.7029
C30 C 0.49191(11) 0.16343(9) 0.77136(10)
H96 H 0.4837 0.1275 0.7932
H97 H 0.5297 0.1867 0.7966
H98 H 0.5089 0.1543 0.7318
C31 C 0.34326(12) 0.03731(9) 0.71146(10)
H99 H 0.3945 0.0335 0.7319
H100 H 0.3342 0.0091 0.6778
H101 H 0.3089 0.0303 0.7415
C32 C 0.39430(12) 0.12183(10) 0.62173(10)
H102 H 0.3878 0.1606 0.6038
H103 H 0.3843 0.0929 0.5889
H104 H 0.4454 0.1174 0.6423
C33 C 0.18982(13) 0.27882(10) 1.00999(10)
H105 H 0.2006 0.3200 1.0058
H106 H 0.1907 0.2693 1.0538
H107 H 0.1406 0.2702 0.9876
C34 C 0.23958(13) 0.15688(9) 0.98877(10)
H108 H 0.1911 0.1476 0.9653
H109 H 0.2381 0.1497 1.0328
H110 H 0.2779 0.1326 0.9744
C35 C 0.35853(11) 0.34724(9) 0.86853(10)
H111 H 0.3637 0.3668 0.9087
H112 H 0.3575 0.3760 0.8355
H113 H 0.4007 0.3211 0.8672
C36 C 0.19314(11) 0.35797(9) 0.85857(9)
H114 H 0.1454 0.3387 0.8465
H115 H 0.1989 0.3893 0.8295
H116 H 0.1947 0.3738 0.9004
C37 C 0.25831(13) 0.40543(10) 0.68556(12)
H117 H 0.2983 0.3868 0.7133
H118 H 0.2402 0.4391 0.7062
H119 H 0.2773 0.4178 0.6477
C38 C 0.10629(13) 0.39337(10) 0.61492(10)
H120 H 0.1260 0.4071 0.5779
H121 H 0.0902 0.4264 0.6377
H122 H 0.0639 0.3678 0.6026
C39 C 0.32053(14) 0.32046(11) 0.55363(12)
H123 H 0.3041 0.3602 0.5443
H124 H 0.3412 0.3043 0.5182
H125 H 0.3587 0.3203 0.5900
C40 C 0.17281(16) 0.27720(11) 0.49760(10)
H126 H 0.1350 0.2474 0.4997
H127 H 0.1991 0.2697 0.4621
H128 H 0.1489 0.3152 0.4929
C41 C 0.38192(14) 0.05558(10) 0.89266(11)
H129 H 0.3840 0.0403 0.8506
H130 H 0.3402 0.0367 0.9097
C42 C 0.45269(14) 0.04426(12) 0.93288(13)
H131 H 0.4496 0.0085 0.9573
H132 H 0.4943 0.0407 0.9083
C43 C 0.46187(17) 0.09542(13) 0.97330(12)
H133 H 0.5151 0.1024 0.9882
H134 H 0.4351 0.0903 1.0095
C44 C 0.42966(13) 0.14457(11) 0.93390(11)
H135 H 0.4086 0.1742 0.9592
H136 H 0.4678 0.1627 0.9118
C45 C 0.03683(13) 0.20821(11) 0.58735(10)
H137 H 0.0539 0.2479 0.5801
H138 H 0.0036 0.2095 0.6197
C46 C -0.00326(14) 0.18242(13) 0.52795(12)
H139 H -0.0576 0.1882 0.5250
H140 H 0.0145 0.1998 0.4912
C47 C 0.01638(14) 0.11957(12) 0.53355(12)
H141 H 0.0127 0.1010 0.4924
H142 H -0.0161 0.0989 0.5591
C48 C 0.09570(14) 0.12096(10) 0.56487(11)
H143 H 0.1081 0.0849 0.5884
H144 H 0.1305 0.1255 0.5340
loop_
_geom_bond_atom_site_label_1
_geom_bond_atom_site_label_2
_geom_bond_site_symmetry_1
_geom_bond_site_symmetry_2
Si1 H1 1_555 1_555
Si2 H2 1_555 1_555
Si3 H3 1_555 1_555
Si4 H4 1_555 1_555
Si5 H5 1_555 1_555
Si6 H6 1_555 1_555
Si7 H7 1_555 1_555
Si8 H8 1_555 1_555
O1 Ca1 1_555 1_555
O2 Ca2 1_555 1_555
N1 Si1 1_555 1_555
N2 Si3 1_555 1_555
N3 Si5 1_555 1_555
N4 Si7 1_555 1_555
Ca1 N1 1_555 1_555
Ca2 N1 1_555 1_555
C1 Si1 1_555 1_555
H9 C1 1_555 1_555
H10 C1 1_555 1_555
H11 C1 1_555 1_555
C2 Si1 1_555 1_555
H12 C2 1_555 1_555
H13 C2 1_555 1_555
H14 C2 1_555 1_555
C3 Si2 1_555 1_555
H15 C3 1_555 1_555
H16 C3 1_555 1_555
H17 C3 1_555 1_555
C4 Si2 1_555 1_555
H18 C4 1_555 1_555
H19 C4 1_555 1_555
H20 C4 1_555 1_555
C5 Si3 1_555 1_555
H21 C5 1_555 1_555
H22 C5 1_555 1_555
H23 C5 1_555 1_555
C6 Si3 1_555 1_555
H24 C6 1_555 1_555
H25 C6 1_555 1_555
H26 C6 1_555 1_555
C7 Si4 1_555 1_555
H27 C7 1_555 1_555
H28 C7 1_555 1_555
H29 C7 1_555 1_555
C8 Si4 1_555 1_555
H30 C8 1_555 1_555
H31 C8 1_555 1_555
H32 C8 1_555 1_555
C9 Si5 1_555 1_555
H33 C9 1_555 1_555
H34 C9 1_555 1_555
H35 C9 1_555 1_555
C10 Si5 1_555 1_555
H36 C10 1_555 1_555
H37 C10 1_555 1_555
H38 C10 1_555 1_555
C11 Si6 1_555 1_555
H39 C11 1_555 1_555
H40 C11 1_555 1_555
H41 C11 1_555 1_555
C12 Si6 1_555 1_555
H42 C12 1_555 1_555
H43 C12 1_555 1_555
H44 C12 1_555 1_555
C13 Si7 1_555 1_555
H45 C13 1_555 1_555
H46 C13 1_555 1_555
H47 C13 1_555 1_555
C14 Si7 1_555 1_555
H48 C14 1_555 1_555
H49 C14 1_555 1_555
H50 C14 1_555 1_555
C15 Si8 1_555 1_555
H51 C15 1_555 1_555
H52 C15 1_555 1_555
H53 C15 1_555 1_555
C16 Si8 1_555 1_555
H54 C16 1_555 1_555
H55 C16 1_555 1_555
H56 C16 1_555 1_555
C17 O1 1_555 1_555
H57 C17 1_555 1_555
H58 C17 1_555 1_555
C18 C17 1_555 1_555
H59 C18 1_555 1_555
H60 C18 1_555 1_555
C19 C18 1_555 1_555
H61 C19 1_555 1_555
H62 C19 1_555 1_555
C20 O1 1_555 1_555
H63 C20 1_555 1_555
H64 C20 1_555 1_555
C21 O2 1_555 1_555
H65 C21 1_555 1_555
H66 C21 1_555 1_555
C22 C21 1_555 1_555
H67 C22 1_555 1_555
H68 C22 1_555 1_555
C23 C22 1_555 1_555
H69 C23 1_555 1_555
H70 C23 1_555 1_555
C24 O2 1_555 1_555
H71 C24 1_555 1_555
H72 C24 1_555 1_555
Si9 H73 1_555 1_555
Si10 H74 1_555 1_555
Si11 H75 1_555 1_555
Si12 H76 1_555 1_555
Si13 H77 1_555 1_555
Si14 H78 1_555 1_555
Si15 H79 1_555 1_555
Si16 H80 1_555 1_555
O3 Ca3 1_555 1_555
O4 Ca4 1_555 1_555
N5 Si9 1_555 1_555
N6 Si11 1_555 1_555
N7 Si13 1_555 1_555
N8 Si15 1_555 1_555
Ca3 N5 1_555 1_555
Ca4 N5 1_555 1_555
C25 Si9 1_555 1_555
H81 C25 1_555 1_555
H82 C25 1_555 1_555
H83 C25 1_555 1_555
C26 Si9 1_555 1_555
H84 C26 1_555 1_555
H85 C26 1_555 1_555
H86 C26 1_555 1_555
C27 Si10 1_555 1_555
H87 C27 1_555 1_555
H88 C27 1_555 1_555
H89 C27 1_555 1_555
C28 Si10 1_555 1_555
H90 C28 1_555 1_555
H91 C28 1_555 1_555
H92 C28 1_555 1_555
C29 Si11 1_555 1_555
H93 C29 1_555 1_555
H94 C29 1_555 1_555
H95 C29 1_555 1_555
C30 Si11 1_555 1_555
H96 C30 1_555 1_555
H97 C30 1_555 1_555
H98 C30 1_555 1_555
C31 Si12 1_555 1_555
H99 C31 1_555 1_555
H100 C31 1_555 1_555
H101 C31 1_555 1_555
C32 Si12 1_555 1_555
H102 C32 1_555 1_555
H103 C32 1_555 1_555
H104 C32 1_555 1_555
C33 Si13 1_555 1_555
H105 C33 1_555 1_555
H106 C33 1_555 1_555
H107 C33 1_555 1_555
C34 Si13 1_555 1_555
H108 C34 1_555 1_555
H109 C34 1_555 1_555
H110 C34 1_555 1_555
C35 Si14 1_555 1_555
H111 C35 1_555 1_555
H112 C35 1_555 1_555
H113 C35 1_555 1_555
C36 Si14 1_555 1_555
H114 C36 1_555 1_555
H115 C36 1_555 1_555
H116 C36 1_555 1_555
C37 Si15 1_555 1_555
H117 C37 1_555 1_555
H118 C37 1_555 1_555
H119 C37 1_555 1_555
C38 Si15 1_555 1_555
H120 C38 1_555 1_555
H121 C38 1_555 1_555
H122 C38 1_555 1_555
C39 Si16 1_555 1_555
H123 C39 1_555 1_555
H124 C39 1_555 1_555
H125 C39 1_555 1_555
C40 Si16 1_555 1_555
H126 C40 1_555 1_555
H127 C40 1_555 1_555
H128 C40 1_555 1_555
C41 O3 1_555 1_555
H129 C41 1_555 1_555
H130 C41 1_555 1_555
C42 C41 1_555 1_555
H131 C42 1_555 1_555
H132 C42 1_555 1_555
C43 C42 1_555 1_555
H133 C43 1_555 1_555
H134 C43 1_555 1_555
C44 O3 1_555 1_555
H135 C44 1_555 1_555
H136 C44 1_555 1_555
C45 O4 1_555 1_555
H137 C45 1_555 1_555
H138 C45 1_555 1_555
C46 C45 1_555 1_555
H139 C46 1_555 1_555
H140 C46 1_555 1_555
C47 C46 1_555 1_555
H141 C47 1_555 1_555
H142 C47 1_555 1_555
C48 O4 1_555 1_555
H143 C48 1_555 1_555
H144 C48 1_555 1_555
Si2 N1 1_555 1_555
Si4 N2 1_555 1_555
Si6 N3 1_555 1_555
Si8 N4 1_555 1_555
N2 Ca1 1_555 1_555
N2 Ca2 1_555 1_555
N3 Ca1 1_555 1_555
N4 Ca2 1_555 1_555
C19 C20 1_555 1_555
C23 C24 1_555 1_555
Si10 N5 1_555 1_555
Si12 N6 1_555 1_555
Si14 N7 1_555 1_555
Si16 N8 1_555 1_555
N6 Ca3 1_555 1_555
N6 Ca4 1_555 1_555
N7 Ca3 1_555 1_555
N8 Ca4 1_555 1_555
C43 C44 1_555 1_555
C47 C48 1_555 1_555

#END
