
#######################################################################
#
#                 Cambridge Crystallographic Data Centre
#                                CCDC 
#
#######################################################################
#
# If this CIF has been generated from an entry in the Cambridge 
# Structural Database, then it will include bibliographic, chemical, 
# crystal, experimental, refinement or atomic coordinate data resulting 
# from the CCDC's data processing and validation procedures.
#
#######################################################################

data_ZEKJIK
_chemical_formula_moiety         'C24 H60 Ca1 N2 O4 Si4'
_chemical_name_systematic        
(1,2-bis(2-(methoxy)ethoxy)cyclohexane)-bis(bis(trimethylsilyl)amido)-calcium
_symmetry_cell_setting           orthorhombic
_symmetry_space_group_name_H-M   'P 21 21 21'
_symmetry_Int_Tables_number      19
_space_group_name_Hall           'P 2ac 2ab'
loop_
_symmetry_equiv_pos_site_id
_symmetry_equiv_pos_as_xyz
1 x,y,z
2 1/2-x,-y,1/2+z
3 1/2+x,1/2-y,-z
4 -x,1/2+y,1/2-z
_cell_length_a                   11.5590(13)
_cell_length_b                   11.5507(13)
_cell_length_c                   26.697(3)
_cell_angle_alpha                90
_cell_angle_beta                 90
_cell_angle_gamma                90
_cell_volume                     3564.44
_exptl_crystal_colour            colorless
_exptl_crystal_description       prism
_cell_formula_units_Z            4
loop_
_atom_site_label
_atom_site_type_symbol
_atom_site_fract_x
_atom_site_fract_y
_atom_site_fract_z
Ca1 Ca 0.69244(4) 0.05555(4) 0.62437(2)
Si1 Si 0.90154(7) 0.26774(6) 0.66355(3)
Si2 Si 0.68380(7) 0.35817(7) 0.62170(3)
Si3 Si 0.49379(7) -0.15025(7) 0.57728(3)
Si4 Si 0.38713(6) 0.03548(7) 0.63613(3)
O1 O 0.71863(18) 0.09668(19) 0.53609(7)
O2 O 0.87805(16) -0.02701(16) 0.58844(6)
O3 O 0.75499(19) -0.13773(18) 0.65752(7)
O4 O 0.6800(2) 0.0377(2) 0.71656(6)
N1 N 0.7684(2) 0.24536(18) 0.63876(8)
N2 N 0.50610(19) -0.0252(2) 0.61012(8)
C1 C 0.6485(3) 0.1039(3) 0.49221(11)
H1 H 0.6521 0.1827 0.4787
H2 H 0.5683 0.0850 0.5008
H3 H 0.6770 0.0491 0.4671
C2 C 0.8385(3) 0.1162(3) 0.52698(10)
H4 H 0.8672 0.1792 0.5488
H5 H 0.8505 0.1394 0.4917
C3 C 0.9037(2) 0.0059(3) 0.53776(9)
H6 H 0.8793 -0.0558 0.5143
H7 H 0.9879 0.0186 0.5337
C4 C 0.9101(2) -0.1440(2) 0.60072(10)
H8 H 0.8648 -0.1977 0.5788
C5 C 0.8761(3) -0.1659(2) 0.65432(10)
H9 H 0.9204 -0.1120 0.6764
C6 C 0.9027(3) -0.2897(3) 0.66977(11)
H10 H 0.8545 -0.3438 0.6499
H11 H 0.8834 -0.3005 0.7056
C7 C 1.0299(3) -0.3171(3) 0.66139(12)
H12 H 1.0443 -0.3996 0.6692
H13 H 1.0775 -0.2696 0.6844
C8 C 1.0659(3) -0.2928(3) 0.60763(12)
H14 H 1.0248 -0.3465 0.5849
H15 H 1.1500 -0.3067 0.6040
C9 C 1.0383(2) -0.1682(3) 0.59287(11)
H16 H 1.0849 -0.1142 0.6135
H17 H 1.0587 -0.1556 0.5573
C10 C 0.6819(5) -0.1647(4) 0.69971(17)
H18 H 0.6992 -0.2434 0.7123
H19 H 0.5995 -0.1618 0.6897
C11 C 0.7058(5) -0.0765(4) 0.73958(16)
H20 H 0.6557 -0.0899 0.7691
H21 H 0.7877 -0.0803 0.7503
C12 C 0.6844(3) 0.1231(3) 0.75455(10)
H22 H 0.6149 0.1176 0.7754
H23 H 0.6882 0.2000 0.7392
H24 H 0.7531 0.1107 0.7754
C13 C 0.9667(2) 0.1325(2) 0.69066(10)
H25 H 0.9114 0.0964 0.7137
H26 H 1.0376 0.1523 0.7089
H27 H 0.9852 0.0784 0.6636
C14 C 1.0150(2) 0.3172(3) 0.61728(11)
H28 H 1.0251 0.2581 0.5913
H29 H 1.0886 0.3293 0.6348
H30 H 0.9902 0.3900 0.6017
C15 C 0.9083(3) 0.3796(2) 0.71472(11)
H31 H 0.8791 0.4536 0.7020
H32 H 0.9887 0.3890 0.7257
H33 H 0.8607 0.3543 0.7431
C16 C 0.5579(3) 0.3119(3) 0.58194(12)
H34 H 0.5819 0.3085 0.5468
H35 H 0.4947 0.3678 0.5856
H36 H 0.5314 0.2352 0.5927
C17 C 0.7573(3) 0.4689(3) 0.58129(11)
H37 H 0.8260 0.4984 0.5986
H38 H 0.7039 0.5329 0.5746
H39 H 0.7805 0.4331 0.5495
C18 C 0.6199(3) 0.4392(2) 0.67661(11)
H40 H 0.5799 0.3846 0.6987
H41 H 0.5647 0.4971 0.6644
H42 H 0.6819 0.4780 0.6952
C19 C 0.4766(4) -0.2844(3) 0.61619(13)
H43 H 0.5465 -0.2963 0.6364
H44 H 0.4648 -0.3512 0.5942
H45 H 0.4096 -0.2756 0.6384
C20 C 0.6252(3) -0.1824(3) 0.53833(12)
H46 H 0.6265 -0.1310 0.5091
H47 H 0.6226 -0.2631 0.5271
H48 H 0.6950 -0.1699 0.5584
C21 C 0.3709(3) -0.1547(3) 0.53162(11)
H49 H 0.2974 -0.1552 0.5499
H50 H 0.3768 -0.2249 0.5112
H51 H 0.3742 -0.0865 0.5099
C22 C 0.2883(2) 0.1083(3) 0.58937(12)
H52 H 0.3318 0.1670 0.5707
H53 H 0.2240 0.1454 0.6071
H54 H 0.2578 0.0504 0.5660
C23 C 0.4224(3) 0.1491(3) 0.68475(11)
H55 H 0.4430 0.1111 0.7163
H56 H 0.3548 0.1988 0.6900
H57 H 0.4876 0.1961 0.6731
C24 C 0.2945(2) -0.0698(3) 0.67193(11)
H58 H 0.2697 -0.1323 0.6496
H59 H 0.2264 -0.0295 0.6851
H60 H 0.3393 -0.1024 0.6997
C25? C 0.7401(9) -0.1414(8) 0.7162(3)
C26? C 0.6379(8) -0.0778(8) 0.7248(3)
H61? H 0.7320 -0.2221 0.7283
H62? H 0.8070 -0.1050 0.7332
H63? H 0.6090 -0.0883 0.7594
H64? H 0.5763 -0.0987 0.7007
loop_
_geom_bond_atom_site_label_1
_geom_bond_atom_site_label_2
_geom_bond_site_symmetry_1
_geom_bond_site_symmetry_2
Ca1 O1 1_555 1_555
Si1 N1 1_555 1_555
Si2 N1 1_555 1_555
Si3 N2 1_555 1_555
Si4 N2 1_555 1_555
O1 C1 1_555 1_555
O2 Ca1 1_555 1_555
O3 Ca1 1_555 1_555
O4 Ca1 1_555 1_555
N1 Ca1 1_555 1_555
N2 Ca1 1_555 1_555
C1 H1 1_555 1_555
H2 C1 1_555 1_555
H3 C1 1_555 1_555
C2 O1 1_555 1_555
H4 C2 1_555 1_555
H5 C2 1_555 1_555
C3 O2 1_555 1_555
H6 C3 1_555 1_555
H7 C3 1_555 1_555
C4 O2 1_555 1_555
H8 C4 1_555 1_555
C5 O3 1_555 1_555
H9 C5 1_555 1_555
C6 C5 1_555 1_555
H10 C6 1_555 1_555
H11 C6 1_555 1_555
C7 C6 1_555 1_555
H12 C7 1_555 1_555
H13 C7 1_555 1_555
C8 C7 1_555 1_555
H14 C8 1_555 1_555
H15 C8 1_555 1_555
C9 C4 1_555 1_555
H16 C9 1_555 1_555
H17 C9 1_555 1_555
C10 O3 1_555 1_555
H18 C10 1_555 1_555
H19 C10 1_555 1_555
C11 O4 1_555 1_555
H20 C11 1_555 1_555
H21 C11 1_555 1_555
C12 O4 1_555 1_555
H22 C12 1_555 1_555
H23 C12 1_555 1_555
H24 C12 1_555 1_555
C13 Si1 1_555 1_555
H25 C13 1_555 1_555
H26 C13 1_555 1_555
H27 C13 1_555 1_555
C14 Si1 1_555 1_555
H28 C14 1_555 1_555
H29 C14 1_555 1_555
H30 C14 1_555 1_555
C15 Si1 1_555 1_555
H31 C15 1_555 1_555
H32 C15 1_555 1_555
H33 C15 1_555 1_555
C16 Si2 1_555 1_555
H34 C16 1_555 1_555
H35 C16 1_555 1_555
H36 C16 1_555 1_555
C17 Si2 1_555 1_555
H37 C17 1_555 1_555
H38 C17 1_555 1_555
H39 C17 1_555 1_555
C18 Si2 1_555 1_555
H40 C18 1_555 1_555
H41 C18 1_555 1_555
H42 C18 1_555 1_555
C19 Si3 1_555 1_555
H43 C19 1_555 1_555
H44 C19 1_555 1_555
H45 C19 1_555 1_555
C20 Si3 1_555 1_555
H46 C20 1_555 1_555
H47 C20 1_555 1_555
H48 C20 1_555 1_555
C21 Si3 1_555 1_555
H49 C21 1_555 1_555
H50 C21 1_555 1_555
H51 C21 1_555 1_555
C22 Si4 1_555 1_555
H52 C22 1_555 1_555
H53 C22 1_555 1_555
H54 C22 1_555 1_555
C23 Si4 1_555 1_555
H55 C23 1_555 1_555
H56 C23 1_555 1_555
H57 C23 1_555 1_555
C24 Si4 1_555 1_555
H58 C24 1_555 1_555
H59 C24 1_555 1_555
H60 C24 1_555 1_555
C2 C3 1_555 1_555
C4 C5 1_555 1_555
C8 C9 1_555 1_555
C10 C11 1_555 1_555

#END
