
#######################################################################
#
#                 Cambridge Crystallographic Data Centre
#                                CCDC 
#
#######################################################################
#
# If this CIF has been generated from an entry in the Cambridge 
# Structural Database, then it will include bibliographic, chemical, 
# crystal, experimental, refinement or atomic coordinate data resulting 
# from the CCDC's data processing and validation procedures.
#
#######################################################################

data_ZEKLAE
_chemical_formula_moiety         'C24 H15 N1 O2'
_chemical_name_systematic        
6-((9-Anthrylmethylene)amino)-2H-chromen-2-one
_symmetry_cell_setting           monoclinic
_symmetry_space_group_name_H-M   'P 21/n'
_symmetry_Int_Tables_number      14
_space_group_name_Hall           '-P 2yn'
loop_
_symmetry_equiv_pos_site_id
_symmetry_equiv_pos_as_xyz
1 x,y,z
2 1/2-x,1/2+y,1/2-z
3 -x,-y,-z
4 1/2+x,1/2-y,1/2+z
_cell_length_a                   6.661
_cell_length_b                   30.083
_cell_length_c                   17.635
_cell_angle_alpha                90
_cell_angle_beta                 99.52
_cell_angle_gamma                90
_cell_volume                     3485.08
_cell_formula_units_Z            8
loop_
_atom_site_label
_atom_site_type_symbol
_atom_site_fract_x
_atom_site_fract_y
_atom_site_fract_z
C1 C -0.1529(5) 0.27177(9) 0.21217(19)
C2 C -0.2201(5) 0.28460(9) 0.13490(19)
C3 C -0.1134(5) 0.27405(10) 0.0730(2)
H1 H 0.0113 0.2595 0.0837
C4 C -0.1902(5) 0.28477(10) -0.0009(2)
H2 H -0.1163 0.2779 -0.0397
C5 C -0.3802(5) 0.30615(10) -0.0198(2)
H3 H -0.4320 0.3129 -0.0708
C6 C -0.4872(5) 0.31686(10) 0.0367(2)
H4 H -0.6130 0.3308 0.0238
C7 C -0.4120(5) 0.30738(9) 0.11503(19)
C8 C -0.5217(5) 0.31843(10) 0.17287(19)
H5 H -0.6461 0.3329 0.1597
C9 C -0.4524(5) 0.30870(9) 0.24958(19)
C10 C -0.5661(5) 0.32077(10) 0.3085(2)
H6 H -0.6886 0.3359 0.2953
C11 C -0.4989(5) 0.31057(10) 0.3831(2)
H7 H -0.5757 0.3184 0.4205
C12 C -0.3112(5) 0.28788(10) 0.4042(2)
H8 H -0.2647 0.2813 0.4556
C13 C -0.1985(5) 0.27571(9) 0.34997(19)
H9 H -0.0754 0.2611 0.3653
C14 C -0.2633(5) 0.28465(9) 0.27058(19)
C15 C 0.0261(5) 0.24208(10) 0.22836(18)
H10 H 0.1389 0.2478 0.2051
N1 N 0.0293(4) 0.20873(8) 0.27364(15)
C16 C 0.2021(5) 0.18066(10) 0.28621(18)
C17 C 0.1712(5) 0.13652(10) 0.30478(17)
H11 H 0.0399 0.1265 0.3064
C18 C 0.3350(5) 0.10696(10) 0.32104(18)
C19 C 0.3132(5) 0.06096(10) 0.34215(18)
H12 H 0.1851 0.0496 0.3454
C20 C 0.4783(5) 0.03477(10) 0.35706(18)
H13 H 0.4621 0.0053 0.3708
C21 C 0.6789(5) 0.05074(10) 0.35243(19)
O1 O 0.6981(3) 0.09547(6) 0.33443(13)
C22 C 0.5299(5) 0.12288(10) 0.31874(18)
C23 C 0.5660(5) 0.16681(10) 0.30219(18)
H14 H 0.6978 0.1769 0.3018
C24 C 0.4013(5) 0.19545(10) 0.28613(18)
H15 H 0.4237 0.2251 0.2751
O2 O 0.8352(3) 0.02943(7) 0.36255(13)
C25 C 0.1924(5) -0.05338(9) 0.23763(19)
C26 C 0.3088(5) -0.06443(10) 0.17946(19)
C27 C 0.2526(5) -0.05171(10) 0.1009(2)
H16 H 0.1311 -0.0365 0.0854
C28 C 0.3740(5) -0.06140(10) 0.0485(2)
H17 H 0.3359 -0.0521 -0.0021
C29 C 0.5583(5) -0.08559(11) 0.0696(2)
H18 H 0.6408 -0.0915 0.0331
C30 C 0.6132(5) -0.09995(10) 0.1426(2)
H19 H 0.7319 -0.1165 0.1556
C31 C 0.4916(5) -0.09010(10) 0.2000(2)
C32 C 0.5499(5) -0.10375(9) 0.27625(19)
H20 H 0.6703 -0.1197 0.2894
C33 C 0.4347(5) -0.09439(10) 0.3329(2)
C34 C 0.5000(5) -0.10815(10) 0.4099(2)
H21 H 0.6205 -0.1241 0.4224
C35 C 0.3893(5) -0.09836(10) 0.4654(2)
H22 H 0.4335 -0.1078 0.5156
C36 C 0.2052(5) -0.07369(10) 0.4471(2)
H23 H 0.1295 -0.0673 0.4856
C37 C 0.1390(5) -0.05944(10) 0.3741(2)
H24 H 0.0194 -0.0430 0.3634
C38 C 0.2500(5) -0.06927(9) 0.31363(19)
C39 C 0.0151(5) -0.02345(10) 0.22215(18)
H25 H -0.0999 -0.0298 0.2438
N2 N 0.0153(4) 0.01111(8) 0.17965(15)
C40 C -0.1593(5) 0.03920(10) 0.16654(18)
C41 C -0.1282(5) 0.08304(10) 0.14714(18)
H26 H 0.0027 0.0929 0.1443
C42 C -0.2921(4) 0.11253(10) 0.13176(17)
C43 C -0.2747(5) 0.15769(10) 0.10702(18)
H27 H -0.1480 0.1692 0.1019
C44 C -0.4410(5) 0.18323(10) 0.09136(19)
H28 H -0.4273 0.2121 0.0742
C45 C -0.6398(5) 0.16766(10) 0.10005(18)
O3 O -0.6555(3) 0.12388(6) 0.12114(12)
C46 C -0.4857(5) 0.09658(10) 0.13613(18)
C47 C -0.5213(5) 0.05282(10) 0.15447(18)
H29 H -0.6522 0.0429 0.1571
C48 C -0.3563(5) 0.02442(10) 0.16880(19)
H30 H -0.3774 -0.0052 0.1802
O4 O -0.7969(3) 0.18903(7) 0.09005(13)
loop_
_geom_bond_atom_site_label_1
_geom_bond_atom_site_label_2
_geom_bond_site_symmetry_1
_geom_bond_site_symmetry_2
C1 C2 1_555 1_555
C2 C3 1_555 1_555
C3 H1 1_555 1_555
C4 C3 1_555 1_555
H2 C4 1_555 1_555
C5 C4 1_555 1_555
H3 C5 1_555 1_555
C6 C5 1_555 1_555
H4 C6 1_555 1_555
C7 C2 1_555 1_555
C8 C7 1_555 1_555
H5 C8 1_555 1_555
C9 C8 1_555 1_555
C10 C9 1_555 1_555
H6 C10 1_555 1_555
C11 C10 1_555 1_555
H7 C11 1_555 1_555
C12 C11 1_555 1_555
H8 C12 1_555 1_555
C13 C12 1_555 1_555
H9 C13 1_555 1_555
C14 C1 1_555 1_555
C15 C1 1_555 1_555
H10 C15 1_555 1_555
N1 C15 1_555 1_555
C16 N1 1_555 1_555
C17 C16 1_555 1_555
H11 C17 1_555 1_555
C18 C17 1_555 1_555
C19 C18 1_555 1_555
H12 C19 1_555 1_555
C20 C19 1_555 1_555
H13 C20 1_555 1_555
C21 C20 1_555 1_555
O1 C21 1_555 1_555
C22 C18 1_555 1_555
C23 C22 1_555 1_555
H14 C23 1_555 1_555
C24 C16 1_555 1_555
H15 C24 1_555 1_555
O2 C21 1_555 1_555
C25 C26 1_555 1_555
C26 C27 1_555 1_555
C27 H16 1_555 1_555
C28 C27 1_555 1_555
H17 C28 1_555 1_555
C29 C28 1_555 1_555
H18 C29 1_555 1_555
C30 C29 1_555 1_555
H19 C30 1_555 1_555
C31 C26 1_555 1_555
C32 C31 1_555 1_555
H20 C32 1_555 1_555
C33 C32 1_555 1_555
C34 C33 1_555 1_555
H21 C34 1_555 1_555
C35 C34 1_555 1_555
H22 C35 1_555 1_555
C36 C35 1_555 1_555
H23 C36 1_555 1_555
C37 C36 1_555 1_555
H24 C37 1_555 1_555
C38 C25 1_555 1_555
C39 C25 1_555 1_555
H25 C39 1_555 1_555
N2 C39 1_555 1_555
C40 N2 1_555 1_555
C41 C40 1_555 1_555
H26 C41 1_555 1_555
C42 C41 1_555 1_555
C43 C42 1_555 1_555
H27 C43 1_555 1_555
C44 C43 1_555 1_555
H28 C44 1_555 1_555
C45 C44 1_555 1_555
O3 C45 1_555 1_555
C46 C42 1_555 1_555
C47 C46 1_555 1_555
H29 C47 1_555 1_555
C48 C40 1_555 1_555
H30 C48 1_555 1_555
O4 C45 1_555 1_555
C6 C7 1_555 1_555
C9 C14 1_555 1_555
C13 C14 1_555 1_555
O1 C22 1_555 1_555
C23 C24 1_555 1_555
C30 C31 1_555 1_555
C33 C38 1_555 1_555
C37 C38 1_555 1_555
O3 C46 1_555 1_555
C47 C48 1_555 1_555

#END
