
#######################################################################
#
#                 Cambridge Crystallographic Data Centre
#                                CCDC 
#
#######################################################################
#
# If this CIF has been generated from an entry in the Cambridge 
# Structural Database, then it will include bibliographic, chemical, 
# crystal, experimental, refinement or atomic coordinate data resulting 
# from the CCDC's data processing and validation procedures.
#
#######################################################################

data_ZEKMIN
_chemical_formula_moiety         'C26 H21 Cl1 N2 O5'
_chemical_name_systematic        
1-Benzyl-5-chloro-5'-methyl-3'-nitro-4'-phenyl-4',5'-dihydrospiro[indole-3,2'-pyran]-2,6'(1H,3'H)-dione
_symmetry_cell_setting           orthorhombic
_symmetry_space_group_name_H-M   'P 21 21 21'
_symmetry_Int_Tables_number      19
_space_group_name_Hall           'P 2ac 2ab'
loop_
_symmetry_equiv_pos_site_id
_symmetry_equiv_pos_as_xyz
1 x,y,z
2 1/2-x,-y,1/2+z
3 1/2+x,1/2-y,-z
4 -x,1/2+y,1/2-z
_cell_length_a                   6.9973(3)
_cell_length_b                   16.3475(6)
_cell_length_c                   19.9730(8)
_cell_angle_alpha                90
_cell_angle_beta                 90
_cell_angle_gamma                90
_cell_volume                     2284.68
_exptl_crystal_colour            colorless
_exptl_crystal_description       block
_cell_formula_units_Z            4
loop_
_atom_site_label
_atom_site_type_symbol
_atom_site_fract_x
_atom_site_fract_y
_atom_site_fract_z
Cl1 Cl -0.13861(12) -0.21378(5) -0.06656(4)
O1 O -0.4125(2) -0.48314(11) 0.06707(9)
O2 O -0.7009(3) -0.51885(17) 0.09560(11)
O3 O -0.1599(4) -0.63474(11) 0.08216(10)
O4 O 0.0717(4) -0.37233(17) 0.18076(15)
O5 O -0.2118(4) -0.33252(13) 0.15575(12)
N1 N -0.0107(4) -0.55742(14) 0.00169(11)
N2 N -0.0910(5) -0.38485(18) 0.16280(12)
C1 C -0.0809(4) -0.31402(17) -0.04595(14)
C2 C -0.1649(4) -0.34848(16) 0.00995(13)
H1 H -0.2457 -0.3180 0.0373
C3 C -0.1255(4) -0.42944(16) 0.02417(12)
C4 C -0.0109(4) -0.47445(18) -0.01827(13)
C5 C 0.0754(4) -0.44006(19) -0.07310(13)
H2 H 0.1553 -0.4707 -0.1006
C6 C 0.0396(4) -0.35784(19) -0.08615(15)
H3 H 0.0981 -0.3325 -0.1225
C7 C -0.2093(4) -0.48544(16) 0.07632(13)
C8 C -0.1266(4) -0.56987(17) 0.05494(14)
C9 C -0.1462(4) -0.47283(15) 0.14985(11)
H4 H -0.0330 -0.5068 0.1576
C10 C -0.2958(4) -0.49535(15) 0.20307(11)
H5 H -0.3550 -0.4439 0.2173
C11 C -0.4584(4) -0.54949(16) 0.17645(13)
H6 H -0.4067 -0.6043 0.1685
C12 C -0.5357(5) -0.5177(2) 0.11141(15)
C13 C -0.2011(4) -0.53160(16) 0.26501(13)
C14 C -0.1793(4) -0.4848(2) 0.32168(13)
H7 H -0.2208 -0.4308 0.3218
C15 C -0.0960(5) -0.5174(3) 0.37871(17)
H8 H -0.0814 -0.4853 0.4168
C16 C -0.0359(5) -0.5963(3) 0.3788(2)
H9 H 0.0185 -0.6182 0.4173
C17 C -0.0543(5) -0.6442(2) 0.3228(2)
H10 H -0.0121 -0.6981 0.3233
C18 C -0.1362(5) -0.61174(17) 0.26527(16)
H11 H -0.1475 -0.6437 0.2270
C19 C -0.6181(4) -0.55668(17) 0.22800(13)
H12 H -0.5684 -0.5803 0.2684
H13 H -0.7179 -0.5909 0.2106
H14 H -0.6687 -0.5033 0.2375
C20 C 0.1114(5) -0.62077(19) -0.02610(15)
H15 H 0.1308 -0.6627 0.0076
H16 H 0.2351 -0.5971 -0.0363
C21 C 0.0342(5) -0.66049(18) -0.08842(16)
C22 C 0.1353(7) -0.6578(2) -0.14841(18)
H17 H 0.2537 -0.6320 -0.1504
C23 C 0.0573(8) -0.6941(2) -0.2059(2)
H18 H 0.1223 -0.6913 -0.2464
C24 C -0.1102(10) -0.7328(2) -0.2022(2)
H19 H -0.1590 -0.7576 -0.2405
C25 C -0.2128(8) -0.7371(2) -0.1436(2)
H20 H -0.3295 -0.7643 -0.1419
C26 C -0.1386(6) -0.70014(19) -0.08739(18)
H21 H -0.2075 -0.7021 -0.0476
loop_
_geom_bond_atom_site_label_1
_geom_bond_atom_site_label_2
_geom_bond_site_symmetry_1
_geom_bond_site_symmetry_2
Cl1 C1 1_555 1_555
O1 C7 1_555 1_555
O2 C12 1_555 1_555
O3 C8 1_555 1_555
O4 N2 1_555 1_555
O5 N2 1_555 1_555
N1 C4 1_555 1_555
N2 C9 1_555 1_555
C1 C2 1_555 1_555
C2 H1 1_555 1_555
C3 C2 1_555 1_555
C4 C3 1_555 1_555
C5 C4 1_555 1_555
H2 C5 1_555 1_555
C6 C1 1_555 1_555
H3 C6 1_555 1_555
C7 C3 1_555 1_555
C8 N1 1_555 1_555
C9 C7 1_555 1_555
H4 C9 1_555 1_555
C10 C9 1_555 1_555
H5 C10 1_555 1_555
C11 C10 1_555 1_555
H6 C11 1_555 1_555
C12 O1 1_555 1_555
C13 C10 1_555 1_555
C14 C13 1_555 1_555
H7 C14 1_555 1_555
C15 C14 1_555 1_555
H8 C15 1_555 1_555
C16 C15 1_555 1_555
H9 C16 1_555 1_555
C17 C16 1_555 1_555
H10 C17 1_555 1_555
C18 C13 1_555 1_555
H11 C18 1_555 1_555
C19 C11 1_555 1_555
H12 C19 1_555 1_555
H13 C19 1_555 1_555
H14 C19 1_555 1_555
C20 N1 1_555 1_555
H15 C20 1_555 1_555
H16 C20 1_555 1_555
C21 C20 1_555 1_555
C22 C21 1_555 1_555
H17 C22 1_555 1_555
C23 C22 1_555 1_555
H18 C23 1_555 1_555
C24 C23 1_555 1_555
H19 C24 1_555 1_555
C25 C24 1_555 1_555
H20 C25 1_555 1_555
C26 C21 1_555 1_555
H21 C26 1_555 1_555
C5 C6 1_555 1_555
C7 C8 1_555 1_555
C11 C12 1_555 1_555
C17 C18 1_555 1_555
C25 C26 1_555 1_555

#END
