
#######################################################################
#
#                 Cambridge Crystallographic Data Centre
#                                CCDC 
#
#######################################################################
#
# If this CIF has been generated from an entry in the Cambridge 
# Structural Database, then it will include bibliographic, chemical, 
# crystal, experimental, refinement or atomic coordinate data resulting 
# from the CCDC's data processing and validation procedures.
#
#######################################################################

data_ZEKYIA
_chemical_formula_moiety         'C7 H4 Cl1 N1 O4,C7 H7 N1 O2'
_chemical_name_systematic        
'2-aminobenzoic acid 2-chloro-4-nitrobenzoic acid'
_symmetry_cell_setting           triclinic
_symmetry_space_group_name_H-M   'P -1'
_symmetry_Int_Tables_number      2
_space_group_name_Hall           '-P 1'
loop_
_symmetry_equiv_pos_site_id
_symmetry_equiv_pos_as_xyz
1 x,y,z
2 -x,-y,-z
_cell_length_a                   8.1800(2)
_cell_length_b                   8.2562(2)
_cell_length_c                   10.8812(2)
_cell_angle_alpha                79.5380(10)
_cell_angle_beta                 89.0250(10)
_cell_angle_gamma                83.7390(10)
_cell_volume                     718.34
_cell_formula_units_Z            2
loop_
_atom_site_label
_atom_site_type_symbol
_atom_site_fract_x
_atom_site_fract_y
_atom_site_fract_z
C1 C 0.5156(2) 0.7673(2) 0.16869(16)
C2 C 0.34694(19) 0.8519(2) 0.18997(16)
C3 C 0.2696(2) 0.9648(2) 0.09211(16)
H1 H 0.3201 0.9817 0.0143
C4 C 0.1193(2) 1.0524(2) 0.10819(17)
H2 H 0.0697 1.1300 0.0431
C5 C 0.0451(2) 1.0213(2) 0.22350(17)
C6 C 0.1148(2) 0.9078(2) 0.32234(16)
H3 H 0.0613 0.8881 0.3988
C7 C 0.2667(2) 0.8241(2) 0.30450(15)
Cl1 Cl 0.35361(6) 0.68039(6) 0.42806(4)
N1 N -0.11427(19) 1.1143(2) 0.24249(16)
O1 O 0.63082(16) 0.7985(2) 0.22974(15)
O2 O 0.52453(15) 0.67754(16) 0.08734(12)
H4 H 0.6198 0.6368 0.0820
O3 O -0.17645(19) 1.2132(2) 0.15422(16)
O4 O -0.17646(19) 1.0903(2) 0.34589(16)
C8 C 1.0180(2) 0.4427(2) 0.78621(15)
C9 C 0.87433(19) 0.5636(2) 0.73745(15)
C10 C 0.8724(2) 0.6482(2) 0.61449(17)
H5 H 0.9613 0.6289 0.5627
C11 C 0.7404(2) 0.7603(2) 0.56825(19)
H6 H 0.7402 0.8154 0.4857
C12 C 0.6088(2) 0.7902(2) 0.64492(19)
H7 H 0.5207 0.8671 0.6142
C13 C 0.6068(2) 0.7071(2) 0.76673(18)
H8 H 0.5171 0.7266 0.8178
C14 C 0.73851(19) 0.5950(2) 0.81238(15)
N2 N 0.72820(19) 0.5027(2) 0.93991(14)
O5 O 1.03456(15) 0.38090(17) 0.89660(12)
O6 O 1.12290(17) 0.4097(2) 0.70109(13)
H9 H 0.821(3) 0.449(3) 0.962(2)
H10 H 0.696(3) 0.557(3) 0.988(2)
H11 H 1.201(4) 0.338(4) 0.736(3)
loop_
_geom_bond_atom_site_label_1
_geom_bond_atom_site_label_2
_geom_bond_site_symmetry_1
_geom_bond_site_symmetry_2
C1 C2 1_555 1_555
C2 C3 1_555 1_555
C3 H1 1_555 1_555
C4 C3 1_555 1_555
H2 C4 1_555 1_555
C5 C4 1_555 1_555
C6 C5 1_555 1_555
H3 C6 1_555 1_555
C7 C2 1_555 1_555
Cl1 C7 1_555 1_555
N1 C5 1_555 1_555
O1 C1 1_555 1_555
O2 C1 1_555 1_555
H4 O2 1_555 1_555
O3 N1 1_555 1_555
O4 N1 1_555 1_555
C8 C9 1_555 1_555
C9 C10 1_555 1_555
C10 H5 1_555 1_555
C11 C10 1_555 1_555
H6 C11 1_555 1_555
C12 C11 1_555 1_555
H7 C12 1_555 1_555
C13 C12 1_555 1_555
H8 C13 1_555 1_555
C14 C9 1_555 1_555
N2 C14 1_555 1_555
O5 C8 1_555 1_555
O6 C8 1_555 1_555
H9 N2 1_555 1_555
H10 N2 1_555 1_555
H11 O6 1_555 1_555
C6 C7 1_555 1_555
C13 C14 1_555 1_555

#END
