
#######################################################################
#
#                 Cambridge Crystallographic Data Centre
#                                CCDC 
#
#######################################################################
#
# If this CIF has been generated from an entry in the Cambridge 
# Structural Database, then it will include bibliographic, chemical, 
# crystal, experimental, refinement or atomic coordinate data resulting 
# from the CCDC's data processing and validation procedures.
#
#######################################################################

data_ZELJUY
_chemical_formula_moiety         'C40 H30 N2,H2 O1'
_chemical_name_systematic        
"N,N'-cyclohexane-1,2-diylbis(1-(pyren-1-yl)methanimine) monohydrate"
_symmetry_cell_setting           orthorhombic
_symmetry_space_group_name_H-M   'C 2 2 21'
_symmetry_Int_Tables_number      20
_space_group_name_Hall           'C 2n 2'
loop_
_symmetry_equiv_pos_site_id
_symmetry_equiv_pos_as_xyz
1 x,y,z
2 -x,-y,1/2+z
3 -x,y,1/2-z
4 x,-y,-z
5 1/2+x,1/2+y,z
6 1/2-x,1/2-y,1/2+z
7 1/2-x,1/2+y,1/2-z
8 1/2+x,1/2-y,-z
_cell_length_a                   15.048(3)
_cell_length_b                   15.968(3)
_cell_length_c                   12.206(2)
_cell_angle_alpha                90
_cell_angle_beta                 90
_cell_angle_gamma                90
_cell_volume                     2932.94
_exptl_crystal_colour            pink
_exptl_crystal_description       rod
_cell_formula_units_Z            4
loop_
_atom_site_label
_atom_site_type_symbol
_atom_site_fract_x
_atom_site_fract_y
_atom_site_fract_z
N1 N 0.0874(2) -0.04989(16) 0.7968(2)
C1 C 0.0505(3) -0.28104(18) 0.7456(4)
H1 H 0.0741 -0.3294 0.7838
H2 H 0.0674 -0.2854 0.6691
C2 C 0.0904(3) -0.20176(19) 0.7941(3)
H3 H 0.0798 -0.2009 0.8725
H4 H 0.1541 -0.2019 0.7824
C3 C 0.0506(2) -0.12350(17) 0.7428(3)
H5 H 0.0652 -0.1219 0.6646
C4 C 0.1119(2) 0.0116(2) 0.7373(3)
H6 H 0.1082 0.0072 0.6615
C5 C 0.1458(2) 0.0894(2) 0.7865(3)
C6 C 0.1923(3) 0.0845(2) 0.8836(3)
H7 H 0.2033 0.0320 0.9138
C7 C 0.2230(3) 0.1547(3) 0.9377(3)
H8 H 0.2554 0.1491 1.0021
C8 C 0.2053(3) 0.2337(2) 0.8954(3)
C9 C 0.2343(3) 0.3080(3) 0.9497(4)
H9 H 0.2660 0.3033 1.0148
C10 C 0.2170(3) 0.3833(3) 0.9096(4)
H10 H 0.2367 0.4302 0.9476
C11 C 0.1690(3) 0.3946(3) 0.8098(4)
C12 C 0.1386(2) 0.3220(2) 0.7533(3)
C13 C 0.1586(2) 0.2410(2) 0.7955(3)
C14 C 0.1281(2) 0.1684(2) 0.7406(3)
C15 C 0.0772(2) 0.1792(2) 0.6423(3)
H11 H 0.0569 0.1323 0.6047
C16 C 0.0581(2) 0.2563(2) 0.6035(3)
H12 H 0.0243 0.2611 0.5401
C17 C 0.0882(3) 0.3305(2) 0.6566(3)
C18 C 0.0687(3) 0.4094(3) 0.6163(4)
H13 H 0.0355 0.4152 0.5525
C19 C 0.0987(3) 0.4797(3) 0.6711(5)
H14 H 0.0850 0.5325 0.6440
C20 C 0.1479(3) 0.4729(3) 0.7639(5)
H15 H 0.1682 0.5213 0.7980
N1B N -0.0874(2) -0.04989(16) 0.7032(2)
C1B C -0.0505(3) -0.28104(18) 0.7544(4)
H1B H -0.0741 -0.3294 0.7162
H2B H -0.0674 -0.2854 0.8309
C2B C -0.0904(3) -0.20176(19) 0.7059(3)
H3B H -0.0798 -0.2009 0.6275
H4B H -0.1541 -0.2019 0.7176
C3B C -0.0506(2) -0.12350(17) 0.7572(3)
H5B H -0.0652 -0.1219 0.8354
C4B C -0.1119(2) 0.0116(2) 0.7627(3)
H6B H -0.1082 0.0072 0.8385
C5B C -0.1458(2) 0.0894(2) 0.7135(3)
C6B C -0.1923(3) 0.0845(2) 0.6164(3)
H7B H -0.2033 0.0320 0.5862
C7B C -0.2230(3) 0.1547(3) 0.5623(3)
H8B H -0.2554 0.1491 0.4979
C8B C -0.2053(3) 0.2337(2) 0.6046(3)
C9B C -0.2343(3) 0.3080(3) 0.5503(4)
H9B H -0.2660 0.3033 0.4852
C10B C -0.2170(3) 0.3833(3) 0.5904(4)
H10B H -0.2367 0.4302 0.5524
C11B C -0.1690(3) 0.3946(3) 0.6902(4)
C12B C -0.1386(2) 0.3220(2) 0.7467(3)
C13B C -0.1586(2) 0.2410(2) 0.7045(3)
C14B C -0.1281(2) 0.1684(2) 0.7594(3)
C15B C -0.0772(2) 0.1792(2) 0.8577(3)
H11B H -0.0569 0.1323 0.8953
C16B C -0.0581(2) 0.2563(2) 0.8965(3)
H12B H -0.0243 0.2611 0.9599
C17B C -0.0882(3) 0.3305(2) 0.8434(3)
C18B C -0.0687(3) 0.4094(3) 0.8837(4)
H13B H -0.0355 0.4152 0.9475
C19B C -0.0987(3) 0.4797(3) 0.8289(5)
H14B H -0.0850 0.5325 0.8560
C20B C -0.1479(3) 0.4729(3) 0.7361(5)
H15B H -0.1682 0.5213 0.7020
O1 O 0.0009(3) 0.0000 0.0000
H16 H 0.0414(18) 0.017(2) 0.057(2)
H16C H 0.0414(18) -0.017(2) -0.057(2)
loop_
_geom_bond_atom_site_label_1
_geom_bond_atom_site_label_2
_geom_bond_site_symmetry_1
_geom_bond_site_symmetry_2
N1 C3 1_555 1_555
C1 H1 1_555 1_555
H2 C1 1_555 1_555
C2 C1 1_555 1_555
H3 C2 1_555 1_555
H4 C2 1_555 1_555
C3 C2 1_555 1_555
H5 C3 1_555 1_555
C4 N1 1_555 1_555
H6 C4 1_555 1_555
C5 C4 1_555 1_555
C6 C5 1_555 1_555
H7 C6 1_555 1_555
C7 C6 1_555 1_555
H8 C7 1_555 1_555
C8 C7 1_555 1_555
C9 C8 1_555 1_555
H9 C9 1_555 1_555
C10 C9 1_555 1_555
H10 C10 1_555 1_555
C11 C10 1_555 1_555
C12 C11 1_555 1_555
C13 C8 1_555 1_555
C14 C5 1_555 1_555
C15 C14 1_555 1_555
H11 C15 1_555 1_555
C16 C15 1_555 1_555
H12 C16 1_555 1_555
C17 C12 1_555 1_555
C18 C17 1_555 1_555
H13 C18 1_555 1_555
C19 C18 1_555 1_555
H14 C19 1_555 1_555
C20 C11 1_555 1_555
H15 C20 1_555 1_555
O1 H16 1_555 1_555
N1B C3B 1_555 1_555
C1B C1 1_555 1_555
H1B C1B 1_555 1_555
H2B C1B 1_555 1_555
C2B C1B 1_555 1_555
H3B C2B 1_555 1_555
H4B C2B 1_555 1_555
C3B C3 1_555 1_555
H5B C3B 1_555 1_555
C4B N1B 1_555 1_555
H6B C4B 1_555 1_555
C5B C4B 1_555 1_555
C6B C5B 1_555 1_555
H7B C6B 1_555 1_555
C7B C6B 1_555 1_555
H8B C7B 1_555 1_555
C8B C7B 1_555 1_555
C9B C8B 1_555 1_555
H9B C9B 1_555 1_555
C10B C9B 1_555 1_555
H10B C10B 1_555 1_555
C11B C10B 1_555 1_555
C12B C11B 1_555 1_555
C13B C8B 1_555 1_555
C14B C5B 1_555 1_555
C15B C14B 1_555 1_555
H11B C15B 1_555 1_555
C16B C15B 1_555 1_555
H12B C16B 1_555 1_555
C17B C12B 1_555 1_555
C18B C17B 1_555 1_555
H13B C18B 1_555 1_555
C19B C18B 1_555 1_555
H14B C19B 1_555 1_555
C20B C11B 1_555 1_555
H15B C20B 1_555 1_555
H16C O1 1_555 1_555
C12 C13 1_555 1_555
C13 C14 1_555 1_555
C16 C17 1_555 1_555
C19 C20 1_555 1_555
C2B C3B 1_555 1_555
C12B C13B 1_555 1_555
C13B C14B 1_555 1_555
C16B C17B 1_555 1_555
C19B C20B 1_555 1_555

#END
