
#######################################################################
#
#                 Cambridge Crystallographic Data Centre
#                                CCDC 
#
#######################################################################
#
# If this CIF has been generated from an entry in the Cambridge 
# Structural Database, then it will include bibliographic, chemical, 
# crystal, experimental, refinement or atomic coordinate data resulting 
# from the CCDC's data processing and validation procedures.
#
#######################################################################

data_ZELQUF
_chemical_formula_moiety         'C15 H11 Br1 N2'
_chemical_name_systematic        2-(4-bromophenyl)-4-methylquinazoline
_symmetry_cell_setting           orthorhombic
_symmetry_space_group_name_H-M   'P m c n'
_symmetry_Int_Tables_number      62
_space_group_name_Hall           '-P 2n 2a'
loop_
_symmetry_equiv_pos_site_id
_symmetry_equiv_pos_as_xyz
1 x,y,z
2 1/2-x,1/2-y,1/2+z
3 1/2+x,-y,-z
4 -x,1/2+y,1/2-z
5 -x,-y,-z
6 1/2+x,1/2+y,1/2-z
7 1/2-x,y,z
8 x,1/2-y,1/2+z
_cell_length_a                   12.056(2)
_cell_length_b                   4.6016(8)
_cell_length_c                   22.185(6)
_cell_angle_alpha                90
_cell_angle_beta                 90
_cell_angle_gamma                90
_cell_volume                     1230.75
_exptl_crystal_colour            'light colorless'
_exptl_crystal_description       plate
_cell_formula_units_Z            4
loop_
_atom_site_label
_atom_site_type_symbol
_atom_site_fract_x
_atom_site_fract_y
_atom_site_fract_z
Br1 Br 0.2500 -0.8078(2) 0.89853(4)
N1 N 0.3467(5) 0.1195(14) 0.6615(3)
C1 C 0.3466(8) 0.3153(19) 0.6159(4)
C2 C 0.2500 0.630(2) 0.5431(4)
C3 C 0.2500 0.422(2) 0.5903(4)
C4 C 0.2500 -0.1820(18) 0.7327(4)
C5 C 0.2500 0.0279(18) 0.6804(4)
C6 C 0.1507(6) -0.2820(13) 0.7572(3)
H1 H 0.0838 -0.2195 0.7408
C7 C 0.2500 -0.5598(19) 0.8290(4)
C8 C 0.1498(6) -0.4696(14) 0.8047(3)
H2 H 0.0831 -0.5360 0.8206
C9 C 0.4443(12) 0.480(3) 0.6025(7)
H3 H 0.5088 0.4549 0.6249
C10 C 0.3390(13) 0.747(3) 0.5260(6)
H4 H 0.3388 0.8796 0.4943
C11 C 0.4404(13) 0.675(3) 0.5561(7)
H5 H 0.5058 0.7632 0.5436
N1F N 0.1533(5) 0.1195(14) 0.6615(3)
C1F C 0.1534(8) 0.3153(19) 0.6159(4)
C6F C 0.3493(6) -0.2820(13) 0.7572(3)
H1F H 0.4162 -0.2195 0.7408
C8F C 0.3502(6) -0.4696(14) 0.8047(3)
H2F H 0.4169 -0.5360 0.8206
C9F C 0.0557(12) 0.480(3) 0.6025(7)
H3F H -0.0088 0.4549 0.6249
C10F C 0.1610(13) 0.747(3) 0.5260(6)
H4F H 0.1612 0.8796 0.4943
C11F C 0.0596(13) 0.675(3) 0.5561(7)
H5F H -0.0058 0.7632 0.5436
C12? C 0.4637(17) 0.320(6) 0.5795(12)
H6? H 0.5073 0.4821 0.5929
H7? H 0.4496 0.3375 0.5371
H8? H 0.5033 0.1427 0.5872
loop_
_geom_bond_atom_site_label_1
_geom_bond_atom_site_label_2
_geom_bond_site_symmetry_1
_geom_bond_site_symmetry_2
Br1 C7 1_555 1_555
N1 C1 1_555 1_555
C1 C3 1_555 1_555
C2 C3 1_555 1_555
C3 C1F 1_555 1_555
C4 C5 1_555 1_555
C5 N1 1_555 1_555
C6 C4 1_555 1_555
H1 C6 1_555 1_555
C7 C8 1_555 1_555
C8 C6 1_555 1_555
H2 C8 1_555 1_555
C9 C1 1_555 1_555
H3 C9 1_555 1_555
C10 C2 1_555 1_555
H4 C10 1_555 1_555
C11 C9 1_555 1_555
H5 C11 1_555 1_555
N1F C5 1_555 1_555
C1F N1F 1_555 1_555
C6F C4 1_555 1_555
H1F C6F 1_555 1_555
C8F C7 1_555 1_555
H2F C8F 1_555 1_555
C9F C1F 1_555 1_555
H3F C9F 1_555 1_555
C10F C2 1_555 1_555
H4F C10F 1_555 1_555
C11F C9F 1_555 1_555
H5F C11F 1_555 1_555
C10 C11 1_555 1_555
C6F C8F 1_555 1_555
C10F C11F 1_555 1_555

#END
