
#######################################################################
#
#                 Cambridge Crystallographic Data Centre
#                                CCDC 
#
#######################################################################
#
# If this CIF has been generated from an entry in the Cambridge 
# Structural Database, then it will include bibliographic, chemical, 
# crystal, experimental, refinement or atomic coordinate data resulting 
# from the CCDC's data processing and validation procedures.
#
#######################################################################

data_ZELRIT
_chemical_name_common            'Anthraquinone Derivative'
_chemical_formula_moiety         'C16 H14 O4'
_chemical_name_systematic        
5,8-Dihydroxytetracyclo[10.2.2.0^2,11^.0^4,9^]hexadeca-4,6,8,13-tetraene-3,10-dione
_symmetry_cell_setting           triclinic
_symmetry_space_group_name_H-M   'P -1'
_symmetry_Int_Tables_number      2
_space_group_name_Hall           '-P 1'
loop_
_symmetry_equiv_pos_site_id
_symmetry_equiv_pos_as_xyz
1 x,y,z
2 -x,-y,-z
_cell_length_a                   6.4103(8)
_cell_length_b                   9.9437(12)
_cell_length_c                   10.5905(13)
_cell_angle_alpha                113.766(2)
_cell_angle_beta                 90.148(2)
_cell_angle_gamma                97.772(2)
_cell_volume                     610.926
_chemical_melting_point          '406-408 K'
_cell_formula_units_Z            2
loop_
_atom_site_label
_atom_site_type_symbol
_atom_site_fract_x
_atom_site_fract_y
_atom_site_fract_z
O1 O 0.85454(12) 0.56992(10) 0.08318(9)
H1 H 0.8304 0.4789 0.0464
O2 O 0.02654(13) 0.56526(9) 0.34847(9)
O3 O 0.65093(12) 0.31265(9) 0.03717(8)
C1 C 0.21542(19) 0.03927(11) 0.17002(12)
H2 H 0.1586 -0.0115 0.0749
H3 H 0.2621 -0.0336 0.1986
C2 C 0.04369(18) 0.11376(12) 0.26324(12)
H4 H -0.0883 0.0906 0.2086
H5 H 0.0219 0.0761 0.3344
C3 C 0.47194(17) 0.24882(13) 0.33156(12)
H6 H 0.6083 0.2580 0.3674
C4 C 0.40366(16) 0.15920(11) 0.18122(11)
H7 H 0.5206 0.1140 0.1293
C5 C 0.32263(15) 0.26630(10) 0.12415(10)
H8 H 0.2592 0.2049 0.0308
C6 C 0.14460(14) 0.33882(10) 0.21283(10)
H9 H 0.0142 0.3036 0.1531
C7 C 0.17035(15) 0.50660(11) 0.27859(10)
C8 C 0.35868(15) 0.59765(10) 0.26287(9)
C9 C 0.37879(18) 0.75294(11) 0.33058(11)
O4 O 0.22833(15) 0.82369(9) 0.40776(9)
H10 H 0.1265 0.7626 0.4045
C10 C 0.69915(16) 0.62213(11) 0.16636(10)
C11 C 0.52234(14) 0.53099(10) 0.18021(9)
C12 C 0.5637(2) 0.84101(12) 0.32043(12)
H11 H 0.5799 0.9437 0.3685
C13 C 0.71949(19) 0.77676(12) 0.24060(12)
H12 H 0.8411 0.8364 0.2353
C14 C 0.50889(15) 0.36940(11) 0.11013(10)
C15 C 0.11206(15) 0.28323(11) 0.33063(10)
H13 H 0.0064 0.3327 0.3922
C16 C 0.32150(17) 0.31365(12) 0.40874(11)
H14 H 0.3437 0.3728 0.5029
loop_
_geom_bond_atom_site_label_1
_geom_bond_atom_site_label_2
_geom_bond_site_symmetry_1
_geom_bond_site_symmetry_2
O1 H1 1_555 1_555
O2 C7 1_555 1_555
O3 C14 1_555 1_555
C1 H2 1_555 1_555
H3 C1 1_555 1_555
C2 C1 1_555 1_555
H4 C2 1_555 1_555
H5 C2 1_555 1_555
C3 H6 1_555 1_555
C4 C1 1_555 1_555
H7 C4 1_555 1_555
C5 C4 1_555 1_555
H8 C5 1_555 1_555
C6 C5 1_555 1_555
H9 C6 1_555 1_555
C7 C6 1_555 1_555
C8 C7 1_555 1_555
C9 C8 1_555 1_555
O4 C9 1_555 1_555
H10 O4 1_555 1_555
C10 O1 1_555 1_555
C11 C8 1_555 1_555
C12 C9 1_555 1_555
H11 C12 1_555 1_555
C13 C10 1_555 1_555
H12 C13 1_555 1_555
C14 C5 1_555 1_555
C15 C2 1_555 1_555
H13 C15 1_555 1_555
C16 C3 1_555 1_555
H14 C16 1_555 1_555
C3 C4 1_555 1_555
C6 C15 1_555 1_555
C10 C11 1_555 1_555
C11 C14 1_555 1_555
C12 C13 1_555 1_555
C15 C16 1_555 1_555

#END
