
#######################################################################
#
#                 Cambridge Crystallographic Data Centre
#                                CCDC 
#
#######################################################################
#
# If this CIF has been generated from an entry in the Cambridge 
# Structural Database, then it will include bibliographic, chemical, 
# crystal, experimental, refinement or atomic coordinate data resulting 
# from the CCDC's data processing and validation procedures.
#
#######################################################################

data_ZELRUG
_chemical_formula_moiety         'C48 H53 N1 O2'
_chemical_name_systematic        
5-[9,9-dibutyl-7-(3,6-di-t-butyl-9H-carbazol-9-yl)-9H-fluoren-2-yl]-2-hydroxybenzaldehyde
_symmetry_cell_setting           triclinic
_symmetry_space_group_name_H-M   'P -1'
_symmetry_Int_Tables_number      2
_space_group_name_Hall           '-P 1'
loop_
_symmetry_equiv_pos_site_id
_symmetry_equiv_pos_as_xyz
1 x,y,z
2 -x,-y,-z
_cell_length_a                   11.417(3)
_cell_length_b                   14.259(4)
_cell_length_c                   14.489(4)
_cell_angle_alpha                100.327(4)
_cell_angle_beta                 110.851(4)
_cell_angle_gamma                112.865(4)
_cell_volume                     1887.88
_exptl_crystal_colour            colorless
_exptl_crystal_description       block
_cell_formula_units_Z            2
loop_
_atom_site_label
_atom_site_type_symbol
_atom_site_fract_x
_atom_site_fract_y
_atom_site_fract_z
C1 C -0.1925(2) -0.09609(18) -0.02637(17)
C2 C -0.1273(2) -0.12537(19) 0.05558(17)
H1 H -0.1488 -0.1978 0.0430
C3 C -0.0309(2) -0.04660(18) 0.15530(17)
H2 H 0.0126 -0.0673 0.2092
C4 C 0.0046(2) 0.06365(19) 0.17929(16)
C5 C -0.0637(2) 0.09107(19) 0.09666(17)
H3 H -0.0433 0.1633 0.1095
C6 C -0.1623(2) 0.01211(19) -0.00542(17)
C7 C -0.2271(3) 0.0466(2) -0.08941(18)
H4 H -0.1996 0.1206 -0.0721
C8 C 0.1120(2) 0.14732(18) 0.28696(16)
C9 C 0.0965(2) 0.23642(19) 0.32734(17)
H5 H 0.0177 0.2420 0.2860
C10 C 0.1957(2) 0.31611(18) 0.42719(16)
H6 H 0.1842 0.3748 0.4528
C11 C 0.3132(2) 0.30703(17) 0.48874(16)
C12 C 0.3311(2) 0.21901(17) 0.44930(16)
C13 C 0.2315(2) 0.14003(18) 0.35000(16)
H7 H 0.2435 0.0815 0.3246
C14 C 0.4724(2) 0.23087(17) 0.52817(16)
C15 C 0.5275(2) 0.33519(17) 0.61907(16)
C16 C 0.4342(2) 0.37838(17) 0.59468(16)
C17 C 0.4654(2) 0.47451(17) 0.66608(16)
H8 H 0.4017 0.5017 0.6503
C18 C 0.5919(2) 0.52946(17) 0.76073(16)
H9 H 0.6154 0.5952 0.8081
C19 C 0.6842(2) 0.48607(17) 0.78500(16)
C20 C 0.6524(2) 0.38846(17) 0.71502(16)
H10 H 0.7141 0.3596 0.7325
C21 C 0.4523(2) 0.13226(18) 0.56385(16)
H11 H 0.4193 0.0692 0.5032
H12 H 0.5456 0.1484 0.6168
C22 C 0.3484(2) 0.10089(18) 0.60971(17)
H13 H 0.2509 0.0697 0.5534
H14 H 0.3695 0.1662 0.6620
C23 C 0.3579(3) 0.0183(2) 0.66194(19)
H15 H 0.3474 -0.0433 0.6118
H16 H 0.4525 0.0524 0.7228
C24 C 0.2441(3) -0.0237(2) 0.6982(2)
H17 H 0.2554 0.0366 0.7493
H18 H 0.2550 -0.0753 0.7300
H19 H 0.1501 -0.0589 0.6381
C25 C 0.5789(2) 0.24689(18) 0.48206(17)
H20 H 0.6702 0.2630 0.5379
H21 H 0.5425 0.1782 0.4266
C26 C 0.6065(3) 0.33706(19) 0.43594(18)
H22 H 0.6095 0.3987 0.4800
H23 H 0.5273 0.3097 0.3653
C27 C 0.7483(3) 0.3763(2) 0.4293(2)
H24 H 0.7567 0.4299 0.3956
H25 H 0.8278 0.4130 0.5010
C28 C 0.7620(4) 0.2882(3) 0.3700(3)
H26 H 0.7701 0.2414 0.4090
H27 H 0.8464 0.3203 0.3611
H28 H 0.6785 0.2462 0.3016
C29 C 0.9518(2) 0.57875(17) 0.89266(16)
C30 C 0.9947(2) 0.56552(18) 0.81460(17)
H29 H 0.9273 0.5261 0.7433
C31 C 1.1401(2) 0.61267(18) 0.84652(17)
H30 H 1.1695 0.6041 0.7949
C32 C 1.2464(2) 0.67308(17) 0.95316(17)
C33 C 1.2002(2) 0.68545(17) 1.02907(16)
H31 H 1.2676 0.7243 1.1004
C34 C 1.0540(2) 0.64038(16) 0.99948(15)
C35 C 0.9744(2) 0.64498(17) 1.05720(16)
C36 C 0.8278(2) 0.58549(17) 0.98278(16)
C37 C 0.7228(2) 0.57562(17) 1.01343(17)
H32 H 0.6257 0.5364 0.9640
C38 C 0.7669(2) 0.62581(18) 1.11956(17)
H33 H 0.6973 0.6189 1.1410
C39 C 0.9124(2) 0.68682(18) 1.19644(16)
C40 C 1.0156(2) 0.69542(17) 1.16394(16)
H34 H 1.1127 0.7350 1.2135
C41 C 0.9518(3) 0.73480(19) 1.31387(17)
C42 C 1.1082(3) 0.8248(2) 1.38048(18)
H35 H 1.1701 0.7950 1.3788
H36 H 1.1275 0.8544 1.4525
H37 H 1.1257 0.8819 1.3522
C43 C 0.8576(3) 0.7826(2) 1.32771(19)
H38 H 0.8698 0.8401 1.3000
H39 H 0.8852 0.8116 1.4018
H40 H 0.7585 0.7261 1.2900
C44 C 0.9276(3) 0.6408(2) 1.3562(2)
H41 H 0.8291 0.5837 1.3148
H42 H 0.9492 0.6679 1.4291
H43 H 0.9895 0.6123 1.3509
C45 C 1.4062(2) 0.72879(19) 0.98253(18)
C46 C 1.4371(3) 0.6666(2) 0.90522(19)
H44 H 1.5392 0.6994 0.9308
H45 H 1.3927 0.6697 0.8366
H46 H 1.3987 0.5916 0.8996
C47 C 1.4521(3) 0.8450(2) 0.9820(2)
H47 H 1.4365 0.8851 1.0329
H48 H 1.3961 0.8412 0.9125
H49 H 1.5523 0.8815 1.0004
C48 C 1.4971(2) 0.7350(2) 1.09328(19)
H50 H 1.4636 0.6628 1.0953
H51 H 1.4886 0.7802 1.1454
H52 H 1.5962 0.7660 1.1084
N1 N 0.81432(18) 0.54382(14) 0.88213(13)
O1 O -0.28435(17) -0.17447(13) -0.12444(12)
H53 H -0.3163 -0.1475 -0.1656
O2 O -0.31496(18) -0.01525(15) -0.18099(13)
loop_
_geom_bond_atom_site_label_1
_geom_bond_atom_site_label_2
_geom_bond_site_symmetry_1
_geom_bond_site_symmetry_2
C1 C2 1_555 1_555
C2 H1 1_555 1_555
C3 C2 1_555 1_555
H2 C3 1_555 1_555
C4 C3 1_555 1_555
C5 C4 1_555 1_555
H3 C5 1_555 1_555
C6 C1 1_555 1_555
C7 C6 1_555 1_555
H4 C7 1_555 1_555
C8 C4 1_555 1_555
C9 C8 1_555 1_555
H5 C9 1_555 1_555
C10 C9 1_555 1_555
H6 C10 1_555 1_555
C11 C10 1_555 1_555
C12 C11 1_555 1_555
C13 C8 1_555 1_555
H7 C13 1_555 1_555
C14 C12 1_555 1_555
C15 C14 1_555 1_555
C16 C11 1_555 1_555
C17 C16 1_555 1_555
H8 C17 1_555 1_555
C18 C17 1_555 1_555
H9 C18 1_555 1_555
C19 C18 1_555 1_555
C20 C15 1_555 1_555
H10 C20 1_555 1_555
C21 C14 1_555 1_555
H11 C21 1_555 1_555
H12 C21 1_555 1_555
C22 C21 1_555 1_555
H13 C22 1_555 1_555
H14 C22 1_555 1_555
C23 C22 1_555 1_555
H15 C23 1_555 1_555
H16 C23 1_555 1_555
C24 C23 1_555 1_555
H17 C24 1_555 1_555
H18 C24 1_555 1_555
H19 C24 1_555 1_555
C25 C14 1_555 1_555
H20 C25 1_555 1_555
H21 C25 1_555 1_555
C26 C25 1_555 1_555
H22 C26 1_555 1_555
H23 C26 1_555 1_555
C27 C26 1_555 1_555
H24 C27 1_555 1_555
H25 C27 1_555 1_555
C28 C27 1_555 1_555
H26 C28 1_555 1_555
H27 C28 1_555 1_555
H28 C28 1_555 1_555
C29 C30 1_555 1_555
C30 H29 1_555 1_555
C31 C30 1_555 1_555
H30 C31 1_555 1_555
C32 C31 1_555 1_555
C33 C32 1_555 1_555
H31 C33 1_555 1_555
C34 C29 1_555 1_555
C35 C34 1_555 1_555
C36 C35 1_555 1_555
C37 C36 1_555 1_555
H32 C37 1_555 1_555
C38 C37 1_555 1_555
H33 C38 1_555 1_555
C39 C38 1_555 1_555
C40 C35 1_555 1_555
H34 C40 1_555 1_555
C41 C39 1_555 1_555
C42 C41 1_555 1_555
H35 C42 1_555 1_555
H36 C42 1_555 1_555
H37 C42 1_555 1_555
C43 C41 1_555 1_555
H38 C43 1_555 1_555
H39 C43 1_555 1_555
H40 C43 1_555 1_555
C44 C41 1_555 1_555
H41 C44 1_555 1_555
H42 C44 1_555 1_555
H43 C44 1_555 1_555
C45 C32 1_555 1_555
C46 C45 1_555 1_555
H44 C46 1_555 1_555
H45 C46 1_555 1_555
H46 C46 1_555 1_555
C47 C45 1_555 1_555
H47 C47 1_555 1_555
H48 C47 1_555 1_555
H49 C47 1_555 1_555
C48 C45 1_555 1_555
H50 C48 1_555 1_555
H51 C48 1_555 1_555
H52 C48 1_555 1_555
N1 C19 1_555 1_555
O1 C1 1_555 1_555
H53 O1 1_555 1_555
O2 C7 1_555 1_555
C5 C6 1_555 1_555
C12 C13 1_555 1_555
C15 C16 1_555 1_555
C19 C20 1_555 1_555
C29 N1 1_555 1_555
C33 C34 1_555 1_555
C36 N1 1_555 1_555
C39 C40 1_555 1_555

#END
