
#######################################################################
#
#                 Cambridge Crystallographic Data Centre
#                                CCDC 
#
#######################################################################
#
# If this CIF has been generated from an entry in the Cambridge 
# Structural Database, then it will include bibliographic, chemical, 
# crystal, experimental, refinement or atomic coordinate data resulting 
# from the CCDC's data processing and validation procedures.
#
#######################################################################

data_ZELROA
_chemical_formula_moiety         'C28 H29 Br1 O2'
_chemical_name_systematic        
5-(7-bromo-9,9-dibutyl-9H-fluoren-2-yl)-2-hydroxybenzaldehyde
_symmetry_cell_setting           triclinic
_symmetry_space_group_name_H-M   'P -1'
_symmetry_Int_Tables_number      2
_space_group_name_Hall           '-P 1'
loop_
_symmetry_equiv_pos_site_id
_symmetry_equiv_pos_as_xyz
1 x,y,z
2 -x,-y,-z
_cell_length_a                   8.7300(7)
_cell_length_b                   10.4348(8)
_cell_length_c                   13.1284(13)
_cell_angle_alpha                99.414(3)
_cell_angle_beta                 97.111(3)
_cell_angle_gamma                97.020(2)
_cell_volume                     1158.3
_exptl_crystal_colour            colorless
_exptl_crystal_description       block
_cell_formula_units_Z            2
loop_
_atom_site_label
_atom_site_type_symbol
_atom_site_fract_x
_atom_site_fract_y
_atom_site_fract_z
Br1 Br -0.21476(4) 0.01214(3) 0.02131(3)
C1 C -0.0028(4) 0.2491(3) 0.1244(3)
H1 H -0.0018 0.2672 0.0574
C2 C -0.0879(4) 0.1347(3) 0.1414(3)
C3 C -0.0896(4) 0.1056(3) 0.2406(3)
H2 H -0.1455 0.0274 0.2495
C4 C -0.0080(4) 0.1932(3) 0.3265(3)
H3 H -0.0098 0.1751 0.3934
C5 C 0.0763(4) 0.3079(3) 0.3112(3)
C6 C 0.0802(4) 0.3348(3) 0.2106(3)
C7 C 0.1715(4) 0.4173(3) 0.3861(3)
C8 C 0.1972(4) 0.4426(4) 0.4942(3)
H4 H 0.1527 0.3832 0.5317
C9 C 0.2903(4) 0.5577(4) 0.5456(3)
H5 H 0.3077 0.5745 0.6181
C10 C 0.3586(4) 0.6491(3) 0.4922(3)
C11 C 0.3322(4) 0.6214(3) 0.3826(3)
H6 H 0.3784 0.6797 0.3450
C12 C 0.2376(4) 0.5077(3) 0.3302(3)
C13 C 0.1836(4) 0.4646(3) 0.2132(3)
C14 C 0.0889(4) 0.5644(3) 0.1691(3)
H7 H 0.1604 0.6425 0.1669
H8 H 0.0425 0.5267 0.0978
C15 C -0.0402(4) 0.6053(3) 0.2303(3)
H9 H -0.1062 0.5271 0.2386
H10 H 0.0067 0.6518 0.2994
C16 C -0.1406(4) 0.6922(4) 0.1787(3)
H11 H -0.1924 0.6442 0.1112
H12 H -0.0742 0.7684 0.1671
C17 C -0.2630(5) 0.7378(4) 0.2440(3)
H13 H -0.3290 0.6627 0.2559
H14 H -0.3249 0.7907 0.2076
H15 H -0.2122 0.7886 0.3098
C18 C 0.3214(4) 0.4462(3) 0.1513(3)
H16 H 0.2806 0.4237 0.0775
H17 H 0.3899 0.5293 0.1626
C19 C 0.4171(4) 0.3415(4) 0.1798(3)
H18 H 0.3539 0.2561 0.1571
H19 H 0.4431 0.3552 0.2552
C20 C 0.5678(4) 0.3411(4) 0.1318(3)
H20 H 0.6296 0.4274 0.1532
H21 H 0.6272 0.2786 0.1596
C21 C 0.5436(5) 0.3071(5) 0.0150(3)
H22 H 0.4819 0.2221 -0.0071
H23 H 0.6429 0.3060 -0.0091
H24 H 0.4904 0.3714 -0.0135
C22 C 0.4570(4) 0.7738(3) 0.5502(3)
C23 C 0.4235(4) 0.8335(3) 0.6466(3)
H25 H 0.3377 0.7962 0.6726
C24 C 0.5133(5) 0.9462(4) 0.7048(3)
H26 H 0.4878 0.9835 0.7687
C25 C 0.6408(4) 1.0026(3) 0.6674(3)
C26 C 0.6749(4) 0.9474(3) 0.5695(3)
C27 C 0.5805(4) 0.8322(3) 0.5124(3)
H27 H 0.6032 0.7956 0.4475
C28 C 0.8052(4) 1.0063(4) 0.5268(3)
H28 H 0.8203 0.9679 0.4604
O1 O 0.8979(3) 1.1037(3) 0.5717(2)
O2 O 0.7299(4) 1.1110(3) 0.7262(2)
H29 H 0.8049 1.1319 0.6974
loop_
_geom_bond_atom_site_label_1
_geom_bond_atom_site_label_2
_geom_bond_site_symmetry_1
_geom_bond_site_symmetry_2
Br1 C2 1_555 1_555
C1 H1 1_555 1_555
C2 C1 1_555 1_555
C3 C2 1_555 1_555
H2 C3 1_555 1_555
C4 C3 1_555 1_555
H3 C4 1_555 1_555
C5 C4 1_555 1_555
C6 C1 1_555 1_555
C7 C5 1_555 1_555
C8 C7 1_555 1_555
H4 C8 1_555 1_555
C9 C8 1_555 1_555
H5 C9 1_555 1_555
C10 C9 1_555 1_555
C11 C10 1_555 1_555
H6 C11 1_555 1_555
C12 C7 1_555 1_555
C13 C6 1_555 1_555
C14 C13 1_555 1_555
H7 C14 1_555 1_555
H8 C14 1_555 1_555
C15 C14 1_555 1_555
H9 C15 1_555 1_555
H10 C15 1_555 1_555
C16 C15 1_555 1_555
H11 C16 1_555 1_555
H12 C16 1_555 1_555
C17 C16 1_555 1_555
H13 C17 1_555 1_555
H14 C17 1_555 1_555
H15 C17 1_555 1_555
C18 C13 1_555 1_555
H16 C18 1_555 1_555
H17 C18 1_555 1_555
C19 C18 1_555 1_555
H18 C19 1_555 1_555
H19 C19 1_555 1_555
C20 C19 1_555 1_555
H20 C20 1_555 1_555
H21 C20 1_555 1_555
C21 C20 1_555 1_555
H22 C21 1_555 1_555
H23 C21 1_555 1_555
H24 C21 1_555 1_555
C22 C10 1_555 1_555
C23 C22 1_555 1_555
H25 C23 1_555 1_555
C24 C23 1_555 1_555
H26 C24 1_555 1_555
C25 C24 1_555 1_555
C26 C25 1_555 1_555
C27 C22 1_555 1_555
H27 C27 1_555 1_555
C28 C26 1_555 1_555
H28 C28 1_555 1_555
O1 C28 1_555 1_555
O2 C25 1_555 1_555
H29 O2 1_555 1_555
C5 C6 1_555 1_555
C11 C12 1_555 1_555
C12 C13 1_555 1_555
C26 C27 1_555 1_555

#END
