
#######################################################################
#
#                 Cambridge Crystallographic Data Centre
#                                CCDC 
#
#######################################################################
#
# If this CIF has been generated from an entry in the Cambridge 
# Structural Database, then it will include bibliographic, chemical, 
# crystal, experimental, refinement or atomic coordinate data resulting 
# from the CCDC's data processing and validation procedures.
#
#######################################################################

data_ZELTUI
_chemical_formula_moiety         'C22 H25 N1 O2,2(H2 O1)'
_chemical_name_systematic        
'2-(1-benzyl-2,6-dimethylpyridin-4(1H)-ylidene)-5,5-dimethylcyclohexane-1,3-dione dihydrate'
_symmetry_cell_setting           monoclinic
_symmetry_space_group_name_H-M   'P 21/c'
_symmetry_Int_Tables_number      14
_space_group_name_Hall           '-P 2ybc'
loop_
_symmetry_equiv_pos_site_id
_symmetry_equiv_pos_as_xyz
1 x,y,z
2 -x,1/2+y,1/2-z
3 -x,-y,-z
4 x,1/2-y,1/2+z
_cell_length_a                   19.4307(19)
_cell_length_b                   17.6059(16)
_cell_length_c                   11.8488(12)
_cell_angle_alpha                90
_cell_angle_beta                 91.348(2)
_cell_angle_gamma                90
_cell_volume                     4052.29
_exptl_crystal_colour            colorless
_exptl_crystal_description       prismatic
_cell_formula_units_Z            8
loop_
_atom_site_label
_atom_site_type_symbol
_atom_site_fract_x
_atom_site_fract_y
_atom_site_fract_z
N1 N 0.03056(13) 0.39461(13) 0.9938(2)
O1 O 0.18722(12) 0.61997(13) 1.03053(19)
O2 O 0.15215(12) 0.51841(13) 0.66522(19)
C1 C 0.20092(15) 0.61155(16) 0.9291(3)
C2 C 0.25409(16) 0.66447(18) 0.8819(3)
H1 H 0.2985 0.6392 0.8848
H2 H 0.2574 0.7090 0.9298
C3 C 0.23913(15) 0.68999(17) 0.7615(3)
C4 C 0.22934(17) 0.61900(17) 0.6916(3)
H3 H 0.2138 0.6339 0.6164
H4 H 0.2738 0.5946 0.6844
C5 C 0.17945(15) 0.56118(16) 0.7360(3)
C6 C 0.16781(14) 0.55648(15) 0.8558(2)
C7 C 0.12180(15) 0.50022(15) 0.9016(2)
C8 C 0.07362(15) 0.45903(16) 0.8360(3)
H5 H 0.0723 0.4668 0.7583
C9 C 0.02899(16) 0.40857(17) 0.8801(3)
C10 C 0.07806(16) 0.42981(16) 1.0622(3)
C11 C 0.12200(16) 0.48110(16) 1.0172(3)
H6 H 0.1539 0.5048 1.0652
C12 C -0.01823(16) 0.33884(17) 1.0408(3)
H7 H -0.0634 0.3471 1.0065
H8 H -0.0217 0.3476 1.1213
C13 C 0.00273(16) 0.25755(16) 1.0216(3)
C14 C 0.07021(17) 0.23412(18) 1.0274(3)
H9 H 0.1047 0.2697 1.0415
C15 C 0.0878(2) 0.1595(2) 1.0128(3)
H10 H 0.1336 0.1446 1.0190
C16 C 0.0374(3) 0.1069(2) 0.9891(3)
H11 H 0.0489 0.0562 0.9779
C17 C -0.0296(2) 0.1297(2) 0.9821(4)
H12 H -0.0640 0.0944 0.9654
C18 C -0.04668(19) 0.2043(2) 0.9994(3)
H13 H -0.0927 0.2188 0.9961
C19 C 0.08058(19) 0.41318(19) 1.1866(3)
H14 H 0.1181 0.4406 1.2216
H15 H 0.0872 0.3597 1.1982
H16 H 0.0381 0.4286 1.2194
C20 C -0.02300(19) 0.3690(2) 0.8075(3)
H17 H -0.0186 0.3854 0.7307
H18 H -0.0683 0.3810 0.8328
H19 H -0.0157 0.3152 0.8121
C21 C 0.17394(16) 0.73865(18) 0.7564(3)
H20 H 0.1353 0.7086 0.7786
H21 H 0.1663 0.7568 0.6808
H22 H 0.1793 0.7811 0.8068
C22 C 0.29955(17) 0.7368(2) 0.7181(3)
H23 H 0.3055 0.7814 0.7640
H24 H 0.2902 0.7516 0.6413
H25 H 0.3408 0.7068 0.7220
N2 N 0.47438(12) 0.62244(13) 0.9513(2)
O3 O 0.33049(14) 0.39271(13) 1.05618(19)
O4 O 0.33953(13) 0.45799(13) 0.67112(18)
C23 C 0.31240(16) 0.38919(16) 0.9551(3)
C24 C 0.26109(18) 0.32774(18) 0.9252(3)
H26 H 0.2151 0.3483 0.9332
H27 H 0.2666 0.2868 0.9795
C25 C 0.26633(16) 0.29475(16) 0.8082(3)
C26 C 0.26480(17) 0.36213(17) 0.7277(3)
H28 H 0.2715 0.3436 0.6516
H29 H 0.2195 0.3853 0.7294
C27 C 0.31801(15) 0.42223(16) 0.7535(3)
C28 C 0.33947(15) 0.43802(15) 0.8688(2)
C29 C 0.38527(15) 0.50010(15) 0.8963(2)
C30 C 0.42264(15) 0.54069(15) 0.8156(2)
H30 H 0.4177 0.5265 0.7403
C31 C 0.46563(15) 0.59957(16) 0.8416(2)
C32 C 0.43806(17) 0.58650(16) 1.0334(3)
C33 C 0.39573(17) 0.52762(16) 1.0070(2)
H31 H 0.3723 0.5041 1.0650
C34 C 0.52122(16) 0.68582(18) 0.9794(3)
H32 H 0.5612 0.6821 0.9323
H33 H 0.5370 0.6803 1.0572
C35 C 0.49023(16) 0.76341(17) 0.9646(2)
C36 C 0.53329(19) 0.8246(2) 0.9479(3)
H34 H 0.5805 0.8170 0.9430
C37 C 0.5063(3) 0.8970(2) 0.9384(3)
H35 H 0.5356 0.9379 0.9270
C38 C 0.4377(3) 0.9092(2) 0.9456(3)
H36 H 0.4202 0.9582 0.9400
C39 C 0.3945(2) 0.8495(2) 0.9611(3)
H37 H 0.3474 0.8577 0.9653
C40 C 0.42062(17) 0.77682(18) 0.9704(3)
H38 H 0.3907 0.7363 0.9808
C41 C 0.4464(2) 0.6130(2) 1.1543(3)
H39 H 0.4139 0.5870 1.2002
H40 H 0.4383 0.6667 1.1579
H41 H 0.4923 0.6021 1.1814
C42 C 0.50456(19) 0.6394(2) 0.7525(3)
H42 H 0.4998 0.6933 0.7617
H43 H 0.4866 0.6249 0.6795
H44 H 0.5523 0.6258 0.7587
C43 C 0.20572(19) 0.2422(2) 0.7812(3)
H45 H 0.2067 0.1999 0.8324
H46 H 0.2089 0.2239 0.7052
H47 H 0.1634 0.2696 0.7890
C44 C 0.33289(17) 0.25058(18) 0.7950(3)
H48 H 0.3714 0.2840 0.8069
H49 H 0.3342 0.2296 0.7203
H50 H 0.3350 0.2102 0.8494
O5 O 0.33618(18) 0.46746(18) 0.2632(2)
H51 H 0.3232 0.4314 0.2006
H52 H 0.3285 0.4414 0.3299
O6 O 0.2899(2) 0.41580(19) 0.4604(3)
H53 H 0.2547 0.4597 0.4758
H54 H 0.2962 0.4225 0.5373
O7 O 0.2348(2) 0.5764(2) 0.2581(3)
H55 H 0.2467 0.5335 0.2363
H56 H 0.2087 0.5884 0.1906
O8 O 0.1722(2) 0.5002(2) 0.4333(3)
H57 H 0.1776 0.5399 0.4884
H58 H 0.2041 0.5450 0.3976
loop_
_geom_bond_atom_site_label_1
_geom_bond_atom_site_label_2
_geom_bond_site_symmetry_1
_geom_bond_site_symmetry_2
N1 C9 1_555 1_555
O1 C1 1_555 1_555
O2 C5 1_555 1_555
C1 C2 1_555 1_555
C2 H1 1_555 1_555
H2 C2 1_555 1_555
C3 C2 1_555 1_555
C4 C3 1_555 1_555
H3 C4 1_555 1_555
H4 C4 1_555 1_555
C5 C4 1_555 1_555
C6 C1 1_555 1_555
C7 C6 1_555 1_555
C8 C7 1_555 1_555
H5 C8 1_555 1_555
C9 C8 1_555 1_555
C10 N1 1_555 1_555
C11 C7 1_555 1_555
H6 C11 1_555 1_555
C12 N1 1_555 1_555
H7 C12 1_555 1_555
H8 C12 1_555 1_555
C13 C12 1_555 1_555
C14 C13 1_555 1_555
H9 C14 1_555 1_555
C15 C14 1_555 1_555
H10 C15 1_555 1_555
C16 C15 1_555 1_555
H11 C16 1_555 1_555
C17 C16 1_555 1_555
H12 C17 1_555 1_555
C18 C13 1_555 1_555
H13 C18 1_555 1_555
C19 C10 1_555 1_555
H14 C19 1_555 1_555
H15 C19 1_555 1_555
H16 C19 1_555 1_555
C20 C9 1_555 1_555
H17 C20 1_555 1_555
H18 C20 1_555 1_555
H19 C20 1_555 1_555
C21 C3 1_555 1_555
H20 C21 1_555 1_555
H21 C21 1_555 1_555
H22 C21 1_555 1_555
C22 C3 1_555 1_555
H23 C22 1_555 1_555
H24 C22 1_555 1_555
H25 C22 1_555 1_555
N2 C31 1_555 1_555
O3 C23 1_555 1_555
O4 C27 1_555 1_555
C23 C24 1_555 1_555
C24 H26 1_555 1_555
H27 C24 1_555 1_555
C25 C24 1_555 1_555
C26 C25 1_555 1_555
H28 C26 1_555 1_555
H29 C26 1_555 1_555
C27 C26 1_555 1_555
C28 C23 1_555 1_555
C29 C28 1_555 1_555
C30 C29 1_555 1_555
H30 C30 1_555 1_555
C31 C30 1_555 1_555
C32 N2 1_555 1_555
C33 C29 1_555 1_555
H31 C33 1_555 1_555
C34 N2 1_555 1_555
H32 C34 1_555 1_555
H33 C34 1_555 1_555
C35 C34 1_555 1_555
C36 C35 1_555 1_555
H34 C36 1_555 1_555
C37 C36 1_555 1_555
H35 C37 1_555 1_555
C38 C37 1_555 1_555
H36 C38 1_555 1_555
C39 C38 1_555 1_555
H37 C39 1_555 1_555
C40 C35 1_555 1_555
H38 C40 1_555 1_555
C41 C32 1_555 1_555
H39 C41 1_555 1_555
H40 C41 1_555 1_555
H41 C41 1_555 1_555
C42 C31 1_555 1_555
H42 C42 1_555 1_555
H43 C42 1_555 1_555
H44 C42 1_555 1_555
C43 C25 1_555 1_555
H45 C43 1_555 1_555
H46 C43 1_555 1_555
H47 C43 1_555 1_555
C44 C25 1_555 1_555
H48 C44 1_555 1_555
H49 C44 1_555 1_555
H50 C44 1_555 1_555
O5 H51 1_555 1_555
H52 O5 1_555 1_555
O6 H53 1_555 1_555
H54 O6 1_555 1_555
O7 H55 1_555 1_555
H56 O7 1_555 1_555
O8 H57 1_555 1_555
H58 O8 1_555 1_555
C5 C6 1_555 1_555
C10 C11 1_555 1_555
C17 C18 1_555 1_555
C27 C28 1_555 1_555
C32 C33 1_555 1_555
C39 C40 1_555 1_555

#END
