
#######################################################################
#
#                 Cambridge Crystallographic Data Centre
#                                CCDC 
#
#######################################################################
#
# If this CIF has been generated from an entry in the Cambridge 
# Structural Database, then it will include bibliographic, chemical, 
# crystal, experimental, refinement or atomic coordinate data resulting 
# from the CCDC's data processing and validation procedures.
#
#######################################################################

data_ZELVIY
_chemical_formula_moiety         'C23 H27 N1 O2'
_chemical_name_systematic        
2-[2,6-dimethyl-1-(2-phenylethyl)pyridin-4(1H)-ylidene]-5,5-dimethylcyclohexane-1,3-dione
_symmetry_cell_setting           monoclinic
_symmetry_space_group_name_H-M   'P 21/c'
_symmetry_Int_Tables_number      14
_space_group_name_Hall           '-P 2ybc'
loop_
_symmetry_equiv_pos_site_id
_symmetry_equiv_pos_as_xyz
1 x,y,z
2 -x,1/2+y,1/2-z
3 -x,-y,-z
4 x,1/2-y,1/2+z
_cell_length_a                   17.439(3)
_cell_length_b                   12.082(2)
_cell_length_c                   9.2298(16)
_cell_angle_alpha                90
_cell_angle_beta                 93.491(4)
_cell_angle_gamma                90
_cell_volume                     1941.09
_exptl_crystal_colour            colorless
_exptl_crystal_description       prismatic
_cell_formula_units_Z            4
loop_
_atom_site_label
_atom_site_type_symbol
_atom_site_fract_x
_atom_site_fract_y
_atom_site_fract_z
N1 N 0.41646(7) 0.57454(11) 0.12232(15)
O1 O 0.69113(8) 0.70285(12) 0.05045(16)
O2 O 0.66041(7) 0.43373(11) 0.40412(16)
C1 C 0.70683(10) 0.66100(15) 0.1703(2)
C2 C 0.78296(11) 0.69117(18) 0.2472(2)
H1 H 0.7742 0.7484 0.3180
H2 H 0.8160 0.7221 0.1767
C3 C 0.82462(10) 0.59599(17) 0.3237(2)
C4 C 0.76841(10) 0.54821(16) 0.4252(2)
H3 H 0.7913 0.4829 0.4710
H4 H 0.7608 0.6019 0.5011
C5 C 0.69097(9) 0.51681(14) 0.35602(18)
C6 C 0.65669(9) 0.58549(13) 0.24149(17)
C7 C 0.57625(9) 0.57892(12) 0.19819(17)
C8 C 0.52421(9) 0.50866(13) 0.26532(18)
H5 H 0.5434 0.4621 0.3392
C9 C 0.44762(9) 0.50546(13) 0.22772(18)
C10 C 0.46331(9) 0.64579(13) 0.05416(18)
C11 C 0.54027(9) 0.64630(13) 0.08933(17)
H6 H 0.5709 0.6938 0.0386
C12 C 0.33286(9) 0.57373(15) 0.0859(2)
H7 H 0.3136 0.4989 0.0948
H8 H 0.3231 0.5968 -0.0142
C13 C 0.28991(10) 0.64988(16) 0.1838(2)
H9 H 0.2989 0.6264 0.2839
H10 H 0.3092 0.7248 0.1757
C14 C 0.20509(10) 0.64831(16) 0.1431(2)
C15 C 0.15781(12) 0.5682(2) 0.1938(2)
H11 H 0.1782 0.5134 0.2555
C16 C 0.07954(14) 0.5682(3) 0.1537(3)
H12 H 0.0478 0.5141 0.1894
C17 C 0.04978(13) 0.6474(3) 0.0627(3)
H13 H -0.0027 0.6482 0.0374
C18 C 0.09568(14) 0.7247(2) 0.0088(4)
H14 H 0.0751 0.7776 -0.0557
C19 C 0.17277(12) 0.72587(18) 0.0484(3)
H15 H 0.2038 0.7800 0.0107
C20 C 0.84721(12) 0.5082(2) 0.2166(3)
H16 H 0.8018 0.4782 0.1673
H17 H 0.8750 0.4502 0.2677
H18 H 0.8791 0.5408 0.1469
C21 C 0.89656(12) 0.6376(2) 0.4090(3)
H19 H 0.9214 0.5769 0.4599
H20 H 0.8825 0.6926 0.4776
H21 H 0.9311 0.6695 0.3434
C22 C 0.42950(11) 0.72178(15) -0.0604(2)
H22 H 0.4695 0.7663 -0.0975
H23 H 0.3921 0.7689 -0.0194
H24 H 0.4052 0.6790 -0.1378
C23 C 0.39690(11) 0.42378(16) 0.2966(2)
H25 H 0.3765 0.3727 0.2245
H26 H 0.3554 0.4621 0.3385
H27 H 0.4261 0.3840 0.3711
loop_
_geom_bond_atom_site_label_1
_geom_bond_atom_site_label_2
_geom_bond_site_symmetry_1
_geom_bond_site_symmetry_2
N1 C9 1_555 1_555
O1 C1 1_555 1_555
O2 C5 1_555 1_555
C1 C2 1_555 1_555
C2 H1 1_555 1_555
H2 C2 1_555 1_555
C3 C2 1_555 1_555
C4 C3 1_555 1_555
H3 C4 1_555 1_555
H4 C4 1_555 1_555
C5 C4 1_555 1_555
C6 C1 1_555 1_555
C7 C6 1_555 1_555
C8 C7 1_555 1_555
H5 C8 1_555 1_555
C9 C8 1_555 1_555
C10 N1 1_555 1_555
C11 C7 1_555 1_555
H6 C11 1_555 1_555
C12 N1 1_555 1_555
H7 C12 1_555 1_555
H8 C12 1_555 1_555
C13 C12 1_555 1_555
H9 C13 1_555 1_555
H10 C13 1_555 1_555
C14 C13 1_555 1_555
C15 C14 1_555 1_555
H11 C15 1_555 1_555
C16 C15 1_555 1_555
H12 C16 1_555 1_555
C17 C16 1_555 1_555
H13 C17 1_555 1_555
C18 C17 1_555 1_555
H14 C18 1_555 1_555
C19 C14 1_555 1_555
H15 C19 1_555 1_555
C20 C3 1_555 1_555
H16 C20 1_555 1_555
H17 C20 1_555 1_555
H18 C20 1_555 1_555
C21 C3 1_555 1_555
H19 C21 1_555 1_555
H20 C21 1_555 1_555
H21 C21 1_555 1_555
C22 C10 1_555 1_555
H22 C22 1_555 1_555
H23 C22 1_555 1_555
H24 C22 1_555 1_555
C23 C9 1_555 1_555
H25 C23 1_555 1_555
H26 C23 1_555 1_555
H27 C23 1_555 1_555
C5 C6 1_555 1_555
C10 C11 1_555 1_555
C18 C19 1_555 1_555

#END
