
#######################################################################
#
#                 Cambridge Crystallographic Data Centre
#                                CCDC 
#
#######################################################################
#
# If this CIF has been generated from an entry in the Cambridge 
# Structural Database, then it will include bibliographic, chemical, 
# crystal, experimental, refinement or atomic coordinate data resulting 
# from the CCDC's data processing and validation procedures.
#
#######################################################################

data_ZELVEU
_chemical_formula_moiety         'C23 H27 N1 O2'
_chemical_name_systematic        
2-[2,6-dimethyl-1-(1-phenylethyl)pyridin-4(1H)-ylidene]-5,5-dimethylcyclohexane-1,3-dione
_symmetry_cell_setting           monoclinic
_symmetry_space_group_name_H-M   'P 21'
_symmetry_Int_Tables_number      4
_space_group_name_Hall           'P 2yb'
loop_
_symmetry_equiv_pos_site_id
_symmetry_equiv_pos_as_xyz
1 x,y,z
2 -x,1/2+y,-z
_cell_length_a                   6.7838(11)
_cell_length_b                   11.793(2)
_cell_length_c                   12.664(2)
_cell_angle_alpha                90
_cell_angle_beta                 104.498(4)
_cell_angle_gamma                90
_cell_volume                     980.875
_exptl_crystal_colour            colorless
_exptl_crystal_description       prismatic
_cell_formula_units_Z            2
loop_
_atom_site_label
_atom_site_type_symbol
_atom_site_fract_x
_atom_site_fract_y
_atom_site_fract_z
N1 N 0.5052(5) 0.7895(3) 0.5311(3)
O1 O 0.0081(5) 0.5277(4) 0.6481(2)
O2 O 0.4160(11) 0.7606(6) 0.9171(3)
C1 C 0.0669(7) 0.5685(4) 0.7394(3)
C2 C -0.0381(9) 0.5256(6) 0.8247(4)
H1 H -0.1674 0.5648 0.8137
H2 H -0.0679 0.4458 0.8108
C3 C 0.0726(8) 0.5383(4) 0.9415(3)
C4 C 0.1520(12) 0.6567(6) 0.9585(5)
H3 H 0.2355 0.6634 1.0325
H4 H 0.0376 0.7080 0.9511
C5 C 0.2774(12) 0.6945(6) 0.8803(4)
C6 C 0.2231(7) 0.6554(4) 0.7696(3)
C7 C 0.3179(6) 0.7016(3) 0.6903(3)
C8 C 0.5045(6) 0.7609(3) 0.7161(3)
H5 H 0.5683 0.7728 0.7892
C9 C 0.5961(6) 0.8015(3) 0.6401(3)
C10 C 0.7949(7) 0.8635(5) 0.6759(4)
H6 H 0.8271 0.8747 0.7535
H7 H 0.7842 0.9358 0.6401
H8 H 0.9006 0.8198 0.6572
C11 C 0.2280(5) 0.6972(3) 0.5770(3)
H9 H 0.1010 0.6630 0.5536
C12 C 0.3157(5) 0.7400(3) 0.4997(3)
C13 C 0.1991(6) 0.7360(4) 0.3824(3)
H10 H 0.0800 0.6897 0.3753
H11 H 0.2835 0.7043 0.3393
H12 H 0.1589 0.8114 0.3574
C14 C 0.6167(6) 0.8261(3) 0.4467(4)
H13 H 0.7547 0.8453 0.4886
C15 C 0.5297(9) 0.9349(4) 0.3928(6)
H14 H 0.6216 0.9667 0.3542
H15 H 0.5109 0.9875 0.4473
H16 H 0.4009 0.9199 0.3425
C16 C 0.6430(5) 0.7285(3) 0.3753(3)
C17 C 0.6234(7) 0.7420(4) 0.2643(4)
H17 H 0.5875 0.8122 0.2316
C18 C 0.6573(9) 0.6510(6) 0.2024(4)
H18 H 0.6453 0.6614 0.1282
C19 C 0.7079(8) 0.5465(5) 0.2468(5)
H19 H 0.7266 0.4855 0.2037
C20 C 0.7307(6) 0.5338(4) 0.3575(4)
H20 H 0.7668 0.4633 0.3895
C21 C 0.7012(5) 0.6229(3) 0.4216(3)
H21 H 0.7203 0.6127 0.4963
C22 C 0.2535(12) 0.4566(7) 0.9684(6)
H22 H 0.3464 0.4752 0.9250
H23 H 0.2057 0.3803 0.9529
H24 H 0.3219 0.4631 1.0443
C23 C -0.0599(13) 0.5085(8) 1.0159(6)
H25 H 0.0081 0.5288 1.0894
H26 H -0.0865 0.4285 1.0121
H27 H -0.1861 0.5492 0.9940
loop_
_geom_bond_atom_site_label_1
_geom_bond_atom_site_label_2
_geom_bond_site_symmetry_1
_geom_bond_site_symmetry_2
N1 C9 1_555 1_555
O1 C1 1_555 1_555
O2 C5 1_555 1_555
C1 C2 1_555 1_555
C2 H1 1_555 1_555
H2 C2 1_555 1_555
C3 C2 1_555 1_555
C4 C3 1_555 1_555
H3 C4 1_555 1_555
H4 C4 1_555 1_555
C5 C4 1_555 1_555
C6 C1 1_555 1_555
C7 C6 1_555 1_555
C8 C7 1_555 1_555
H5 C8 1_555 1_555
C9 C8 1_555 1_555
C10 C9 1_555 1_555
H6 C10 1_555 1_555
H7 C10 1_555 1_555
H8 C10 1_555 1_555
C11 C7 1_555 1_555
H9 C11 1_555 1_555
C12 N1 1_555 1_555
C13 C12 1_555 1_555
H10 C13 1_555 1_555
H11 C13 1_555 1_555
H12 C13 1_555 1_555
C14 N1 1_555 1_555
H13 C14 1_555 1_555
C15 C14 1_555 1_555
H14 C15 1_555 1_555
H15 C15 1_555 1_555
H16 C15 1_555 1_555
C16 C14 1_555 1_555
C17 C16 1_555 1_555
H17 C17 1_555 1_555
C18 C17 1_555 1_555
H18 C18 1_555 1_555
C19 C18 1_555 1_555
H19 C19 1_555 1_555
C20 C19 1_555 1_555
H20 C20 1_555 1_555
C21 C16 1_555 1_555
H21 C21 1_555 1_555
C22 C3 1_555 1_555
H22 C22 1_555 1_555
H23 C22 1_555 1_555
H24 C22 1_555 1_555
C23 C3 1_555 1_555
H25 C23 1_555 1_555
H26 C23 1_555 1_555
H27 C23 1_555 1_555
C5 C6 1_555 1_555
C11 C12 1_555 1_555
C20 C21 1_555 1_555

#END
