
#######################################################################
#
#                 Cambridge Crystallographic Data Centre
#                                CCDC 
#
#######################################################################
#
# If this CIF has been generated from an entry in the Cambridge 
# Structural Database, then it will include bibliographic, chemical, 
# crystal, experimental, refinement or atomic coordinate data resulting 
# from the CCDC's data processing and validation procedures.
#
#######################################################################

data_ZEMPIT
_chemical_formula_moiety         'C21 H22 O2'
_chemical_name_systematic        3-butoxy-2-methoxy-6-phenylnaphthalene
_symmetry_cell_setting           triclinic
_symmetry_space_group_name_H-M   'P -1'
_symmetry_Int_Tables_number      2
_space_group_name_Hall           '-P 1'
loop_
_symmetry_equiv_pos_site_id
_symmetry_equiv_pos_as_xyz
1 x,y,z
2 -x,-y,-z
_cell_length_a                   7.5311(6)
_cell_length_b                   9.3406(7)
_cell_length_c                   12.0799(9)
_cell_angle_alpha                78.170(2)
_cell_angle_beta                 85.173(2)
_cell_angle_gamma                82.421(2)
_cell_volume                     823.016
_exptl_crystal_colour            colorless
_cell_formula_units_Z            2
loop_
_atom_site_label
_atom_site_type_symbol
_atom_site_fract_x
_atom_site_fract_y
_atom_site_fract_z
O1 O 0.37425(10) -0.21173(7) 0.60196(6)
O2 O 0.38607(10) -0.35018(8) 0.43853(6)
C1 C 0.48739(16) -0.28340(14) 1.00842(9)
H1 H 0.4189 -0.3682 1.0287
H2 H 0.4776 -0.2312 1.0717
H3 H 0.6137 -0.3175 0.9920
C2 C 0.41244(15) -0.17938(12) 0.90379(9)
H4 H 0.4773 -0.0912 0.8866
H5 H 0.2844 -0.1465 0.9207
C3 C 0.42858(14) -0.25026(11) 0.79924(8)
H6 H 0.5559 -0.2860 0.7829
H7 H 0.3593 -0.3359 0.8144
C4 C 0.35851(14) -0.14019(11) 0.69745(8)
H8 H 0.2314 -0.1036 0.7133
H9 H 0.4288 -0.0551 0.6809
C5 C 0.30980(13) -0.12850(11) 0.50407(8)
C6 C 0.23805(13) 0.01588(11) 0.48945(8)
H10 H 0.2296 0.0656 0.5512
C7 C 0.17573(13) 0.09290(11) 0.38284(8)
C8 C 0.10115(13) 0.24222(11) 0.36650(8)
H11 H 0.0881 0.2912 0.4288
C9 C 0.04671(13) 0.31874(11) 0.26209(8)
C10 C -0.02640(13) 0.47687(11) 0.24586(8)
C11 C -0.14082(14) 0.53031(12) 0.32907(9)
H12 H -0.1769 0.4642 0.3954
C12 C -0.20258(14) 0.67973(12) 0.31568(10)
H13 H -0.2805 0.7148 0.3729
C13 C -0.15085(15) 0.77764(12) 0.21913(10)
H14 H -0.1925 0.8796 0.2104
C14 C -0.03814(16) 0.72573(12) 0.13566(9)
H15 H -0.0025 0.7924 0.0695
C15 C 0.02308(14) 0.57652(12) 0.14818(9)
H16 H 0.0991 0.5418 0.0900
C16 C 0.06606(13) 0.24408(11) 0.16992(8)
H17 H 0.0314 0.2959 0.0973
C17 C 0.13407(13) 0.09811(11) 0.18382(8)
H18 H 0.1435 0.0500 0.1211
C18 C 0.19054(13) 0.01804(11) 0.29062(8)
C19 C 0.26128(13) -0.13325(11) 0.30826(8)
H19 H 0.2688 -0.1847 0.2475
C20 C 0.31873(13) -0.20557(11) 0.41190(8)
C21 C 0.37766(15) -0.43768(11) 0.35452(9)
H20 H 0.2528 -0.4330 0.3355
H21 H 0.4241 -0.5401 0.3845
H22 H 0.4504 -0.3995 0.2863
loop_
_geom_bond_atom_site_label_1
_geom_bond_atom_site_label_2
_geom_bond_site_symmetry_1
_geom_bond_site_symmetry_2
O1 C4 1_555 1_555
O2 C20 1_555 1_555
C1 H1 1_555 1_555
H2 C1 1_555 1_555
H3 C1 1_555 1_555
C2 C1 1_555 1_555
H4 C2 1_555 1_555
H5 C2 1_555 1_555
C3 C2 1_555 1_555
H6 C3 1_555 1_555
H7 C3 1_555 1_555
C4 C3 1_555 1_555
H8 C4 1_555 1_555
H9 C4 1_555 1_555
C5 O1 1_555 1_555
C6 C5 1_555 1_555
H10 C6 1_555 1_555
C7 C6 1_555 1_555
C8 C7 1_555 1_555
H11 C8 1_555 1_555
C9 C8 1_555 1_555
C10 C9 1_555 1_555
C11 C10 1_555 1_555
H12 C11 1_555 1_555
C12 C11 1_555 1_555
H13 C12 1_555 1_555
C13 C12 1_555 1_555
H14 C13 1_555 1_555
C14 C13 1_555 1_555
H15 C14 1_555 1_555
C15 C10 1_555 1_555
H16 C15 1_555 1_555
C16 C9 1_555 1_555
H17 C16 1_555 1_555
C17 C16 1_555 1_555
H18 C17 1_555 1_555
C18 C7 1_555 1_555
C19 C18 1_555 1_555
H19 C19 1_555 1_555
C20 C5 1_555 1_555
C21 O2 1_555 1_555
H20 C21 1_555 1_555
H21 C21 1_555 1_555
H22 C21 1_555 1_555
C14 C15 1_555 1_555
C17 C18 1_555 1_555
C19 C20 1_555 1_555

#END
