
#######################################################################
#
#                 Cambridge Crystallographic Data Centre
#                                CCDC 
#
#######################################################################
#
# If this CIF has been generated from an entry in the Cambridge 
# Structural Database, then it will include bibliographic, chemical, 
# crystal, experimental, refinement or atomic coordinate data resulting 
# from the CCDC's data processing and validation procedures.
#
#######################################################################

data_ZENFIH
_chemical_formula_moiety         'C10 H12 N2 O5 S1'
_chemical_name_systematic        N-Benzenesulfonylglycylglycine
_symmetry_cell_setting           monoclinic
_symmetry_space_group_name_H-M   'P 21/a'
_symmetry_Int_Tables_number      14
_space_group_name_Hall           '-P 2yab'
loop_
_symmetry_equiv_pos_site_id
_symmetry_equiv_pos_as_xyz
1 x,y,z
2 1/2-x,1/2+y,-z
3 -x,-y,-z
4 1/2+x,1/2-y,z
_cell_length_a                   14.980(2)
_cell_length_b                   6.050(2)
_cell_length_c                   13.310(2)
_cell_angle_alpha                90
_cell_angle_beta                 101.21(7)
_cell_angle_gamma                90
_cell_volume                     1183.26
_exptl_crystal_colour            Colorless
_cell_formula_units_Z            4
loop_
_atom_site_label
_atom_site_type_symbol
_atom_site_fract_x
_atom_site_fract_y
_atom_site_fract_z
C1 C 0.2547(2) 0.0498(7) 0.8534(3)
C2 C 0.2227(3) -0.1617(8) 0.8368(3)
C3 C 0.1378(3) -0.2121(9) 0.8583(4)
C4 C 0.0885(3) -0.0556(9) 0.8971(4)
C5 C 0.1221(3) 0.1532(9) 0.9167(4)
C6 C 0.2064(3) 0.2091(9) 0.8951(4)
S1 S 0.3587(1) 0.1237(2) 0.8181(1)
O1 O 0.4199(2) -0.0571(6) 0.8382(3)
O2 O 0.3836(2) 0.3360(6) 0.8576(3)
N1 N 0.3368(2) 0.1523(6) 0.6923(3)
C7 C 0.2785(2) 0.3334(7) 0.6497(3)
C8 C 0.3284(2) 0.5390(7) 0.6291(3)
O3 O 0.2853(1) 0.7089(5) 0.6015(2)
N2 N 0.4181(2) 0.5300(7) 0.6371(3)
C9 C 0.4696(2) 0.7208(8) 0.6181(4)
C10 C 0.5641(2) 0.6541(7) 0.6041(3)
O4 O 0.6086(2) 0.8305(6) 0.5839(3)
O5 O 0.5921(2) 0.4700(5) 0.6114(2)
H1 H 0.264(3) -0.276(8) 0.808(4)
H2 H 0.122(3) -0.354(7) 0.846(3)
H3 H 0.037(4) -0.107(9) 0.910(4)
H4 H 0.088(4) 0.288(9) 0.948(5)
H5 H 0.226(3) 0.359(9) 0.905(4)
H6 H 0.318(3) 0.018(8) 0.668(3)
H7 H 0.242(3) 0.279(8) 0.584(4)
H8 H 0.244(3) 0.381(8) 0.697(4)
H9 H 0.442(3) 0.402(8) 0.651(4)
H10 H 0.443(3) 0.794(8) 0.566(4)
H11 H 0.478(3) 0.835(8) 0.668(3)
H12 H 0.656(8) 0.80(1) 0.579(6)
loop_
_geom_bond_atom_site_label_1
_geom_bond_atom_site_label_2
_geom_bond_site_symmetry_1
_geom_bond_site_symmetry_2
C1 C2 1_555 1_555
C2 C3 1_555 1_555
C3 C4 1_555 1_555
C4 C5 1_555 1_555
C5 C6 1_555 1_555
C6 C1 1_555 1_555
S1 C1 1_555 1_555
O1 S1 1_555 1_555
O2 S1 1_555 1_555
N1 S1 1_555 1_555
C7 N1 1_555 1_555
C8 C7 1_555 1_555
O3 C8 1_555 1_555
N2 C8 1_555 1_555
C9 N2 1_555 1_555
C10 C9 1_555 1_555
O4 C10 1_555 1_555
O5 C10 1_555 1_555
H1 C2 1_555 1_555
H2 C3 1_555 1_555
H3 C4 1_555 1_555
H4 C5 1_555 1_555
H5 C6 1_555 1_555
H6 N1 1_555 1_555
H7 C7 1_555 1_555
H8 C7 1_555 1_555
H9 N2 1_555 1_555
H10 C9 1_555 1_555
H11 C9 1_555 1_555
H12 O4 1_555 1_555

#END
