
#######################################################################
#
#                 Cambridge Crystallographic Data Centre
#                                CCDC 
#
#######################################################################
#
# If this CIF has been generated from an entry in the Cambridge 
# Structural Database, then it will include bibliographic, chemical, 
# crystal, experimental, refinement or atomic coordinate data resulting 
# from the CCDC's data processing and validation procedures.
#
#######################################################################

data_ZENHAE
_chemical_formula_moiety         'C32 H27 N1 O1'
_chemical_name_systematic        
3-benzyl-7-[cyclopropylidene(phenyl)methyl]-1-methyl-3-phenyl-1,3-dihydro-2H-indol-2-one
_symmetry_cell_setting           triclinic
_symmetry_space_group_name_H-M   'P -1'
_symmetry_Int_Tables_number      2
_space_group_name_Hall           '-P 1'
loop_
_symmetry_equiv_pos_site_id
_symmetry_equiv_pos_as_xyz
1 x,y,z
2 -x,-y,-z
_cell_length_a                   9.1032(15)
_cell_length_b                   14.843(2)
_cell_length_c                   19.069(3)
_cell_angle_alpha                94.100(4)
_cell_angle_beta                 101.550(4)
_cell_angle_gamma                104.178(3)
_cell_volume                     2427.73
_exptl_crystal_colour            colorless
_exptl_crystal_description       prismatic
_cell_formula_units_Z            4
loop_
_atom_site_label
_atom_site_type_symbol
_atom_site_fract_x
_atom_site_fract_y
_atom_site_fract_z
N1 N 0.8821(2) 0.29669(14) 0.11988(10)
O1 O 1.0128(2) 0.18294(13) 0.13465(10)
C1 C 0.9283(3) 0.22094(17) 0.09721(13)
C2 C 0.8489(3) 0.18892(17) 0.01745(12)
C3 C 0.7703(3) 0.26544(17) -0.00067(13)
C4 C 0.6858(3) 0.2779(2) -0.06516(14)
H1 H 0.6722 0.2369 -0.1066
C5 C 0.6209(3) 0.3532(2) -0.06760(16)
H2 H 0.5634 0.3633 -0.1110
C6 C 0.6419(3) 0.4132(2) -0.00538(17)
H3 H 0.5970 0.4632 -0.0082
C7 C 0.7269(3) 0.40241(18) 0.06127(15)
C8 C 0.7902(3) 0.32600(17) 0.06193(13)
C9 C 0.9082(4) 0.3277(2) 0.19659(14)
H4 H 0.9608 0.2884 0.2239
H5 H 0.8101 0.3238 0.2092
H6 H 0.9708 0.3913 0.2072
C10 C 0.7505(3) 0.47281(18) 0.12569(15)
C11 C 0.8868(4) 0.5333(2) 0.14781(19)
C12 C 1.0442(4) 0.5636(3) 0.1381(2)
H7 H 1.0616 0.5993 0.0985
H8 H 1.1113 0.5224 0.1492
C13 C 0.9946(4) 0.6096(3) 0.2008(3)
H9 H 1.0316 0.5954 0.2490
H10 H 0.9819 0.6724 0.1982
C14 C 0.6188(3) 0.46979(19) 0.16136(14)
C15 C 0.6229(4) 0.5423(2) 0.21260(16)
H11 H 0.7082 0.5945 0.2239
C16 C 0.5030(5) 0.5379(3) 0.24656(18)
H12 H 0.5076 0.5873 0.2805
C17 C 0.3763(4) 0.4617(3) 0.23121(18)
H13 H 0.2960 0.4589 0.2551
C18 C 0.3685(4) 0.3895(3) 0.18057(18)
H14 H 0.2828 0.3375 0.1697
C19 C 0.4900(4) 0.3947(2) 0.14535(17)
H15 H 0.4835 0.3461 0.1103
C20 C 0.7265(3) 0.09494(17) 0.01479(14)
H16 H 0.6677 0.0752 -0.0346
H17 H 0.7803 0.0479 0.0287
C21 C 0.6137(3) 0.09861(17) 0.06284(14)
C22 C 0.4833(3) 0.13009(18) 0.04047(16)
H18 H 0.4652 0.1503 -0.0047
C23 C 0.3793(4) 0.1321(2) 0.0838(2)
H19 H 0.2923 0.1537 0.0680
C24 C 0.4049(4) 0.1021(2) 0.1502(2)
H20 H 0.3348 0.1030 0.1795
C25 C 0.5330(4) 0.0708(3) 0.17364(18)
H21 H 0.5503 0.0505 0.2189
C26 C 0.6369(4) 0.0692(2) 0.13007(15)
H22 H 0.7241 0.0480 0.1465
C27 C 0.9677(3) 0.18217(19) -0.02706(13)
C28 C 1.0859(3) 0.2608(2) -0.02698(17)
H23 H 1.0918 0.3162 0.0009
C29 C 1.1953(4) 0.2592(3) -0.0673(2)
H24 H 1.2741 0.3129 -0.0665
C30 C 1.1870(4) 0.1779(4) -0.10838(19)
H25 H 1.2605 0.1764 -0.1357
C31 C 1.0725(4) 0.0998(3) -0.10940(17)
H26 H 1.0674 0.0450 -0.1377
C32 C 0.9626(3) 0.1008(2) -0.06857(15)
H27 H 0.8851 0.0465 -0.0692
N2 N 0.6233(2) 0.14098(14) 0.47844(11)
O2 O 0.5357(2) 0.06647(14) 0.36310(10)
C33 C 0.5456(3) 0.13090(19) 0.40850(14)
C34 C 0.4691(3) 0.21251(18) 0.39708(13)
C35 C 0.5275(3) 0.26917(17) 0.47105(13)
C36 C 0.5024(3) 0.35240(18) 0.49446(15)
H28 H 0.4408 0.3815 0.4639
C37 C 0.5718(3) 0.39183(19) 0.56508(15)
H29 H 0.5575 0.4485 0.5824
C38 C 0.6615(3) 0.34753(18) 0.60950(14)
H30 H 0.7071 0.3759 0.6565
C39 C 0.6878(3) 0.26255(17) 0.58798(13)
C40 C 0.6172(3) 0.22422(17) 0.51627(13)
C41 C 0.6977(3) 0.06970(18) 0.50616(15)
H31 H 0.6699 0.0162 0.4701
H32 H 0.6635 0.0512 0.5487
H33 H 0.8086 0.0950 0.5179
C42 C 0.7834(3) 0.21747(17) 0.64020(13)
C43 C 0.7218(3) 0.17832(19) 0.69120(13)
C44 C 0.5855(3) 0.1549(2) 0.72237(16)
H34 H 0.4967 0.1051 0.6963
H35 H 0.5605 0.2053 0.7487
C45 C 0.7348(4) 0.1289(3) 0.75418(16)
H36 H 0.7986 0.1637 0.7996
H37 H 0.7349 0.0635 0.7472
C46 C 0.9460(3) 0.22304(18) 0.63506(14)
C47 C 1.0383(3) 0.1795(2) 0.68019(17)
H38 H 0.9978 0.1457 0.7144
C48 C 1.1886(4) 0.1856(3) 0.67519(19)
H39 H 1.2486 0.1559 0.7060
C49 C 1.2510(4) 0.2348(2) 0.62535(19)
H40 H 1.3529 0.2388 0.6220
C50 C 1.1612(4) 0.2778(2) 0.58062(18)
H41 H 1.2027 0.3117 0.5467
C51 C 1.0099(3) 0.2719(2) 0.58483(16)
H42 H 0.9502 0.3012 0.5534
C52 C 0.5313(3) 0.2675(2) 0.33828(14)
H43 H 0.5148 0.2239 0.2953
H44 H 0.4713 0.3121 0.3260
C53 C 0.6999(4) 0.3190(2) 0.35995(14)
C54 C 0.8160(4) 0.2732(2) 0.36510(16)
H45 H 0.7884 0.2084 0.3539
C55 C 0.9700(4) 0.3199(3) 0.38614(18)
H46 H 1.0452 0.2868 0.3898
C56 C 1.0133(5) 0.4143(3) 0.4017(2)
H47 H 1.1180 0.4464 0.4162
C57 C 0.9013(6) 0.4616(3) 0.3958(3)
H48 H 0.9303 0.5266 0.4062
C58 C 0.7457(5) 0.4145(2) 0.3746(2)
H49 H 0.6711 0.4481 0.3702
C59 C 0.2934(3) 0.16876(18) 0.37782(14)
C60 C 0.2012(4) 0.1585(2) 0.30887(15)
H50 H 0.2453 0.1829 0.2720
C61 C 0.0468(4) 0.1131(2) 0.29438(19)
H51 H -0.0130 0.1076 0.2478
C62 C -0.0216(4) 0.0755(2) 0.3470(2)
H52 H -0.1264 0.0432 0.3363
C63 C 0.0667(4) 0.0863(2) 0.41583(19)
H53 H 0.0212 0.0624 0.4525
C64 C 0.2222(4) 0.1323(2) 0.43089(15)
H54 H 0.2807 0.1391 0.4778
loop_
_geom_bond_atom_site_label_1
_geom_bond_atom_site_label_2
_geom_bond_site_symmetry_1
_geom_bond_site_symmetry_2
N1 C1 1_555 1_555
O1 C1 1_555 1_555
C1 C2 1_555 1_555
C2 C3 1_555 1_555
C3 C4 1_555 1_555
C4 H1 1_555 1_555
C5 C4 1_555 1_555
H2 C5 1_555 1_555
C6 C5 1_555 1_555
H3 C6 1_555 1_555
C7 C6 1_555 1_555
C8 N1 1_555 1_555
C9 N1 1_555 1_555
H4 C9 1_555 1_555
H5 C9 1_555 1_555
H6 C9 1_555 1_555
C10 C7 1_555 1_555
C11 C10 1_555 1_555
C12 C11 1_555 1_555
H7 C12 1_555 1_555
H8 C12 1_555 1_555
C13 C11 1_555 1_555
H9 C13 1_555 1_555
H10 C13 1_555 1_555
C14 C10 1_555 1_555
C15 C14 1_555 1_555
H11 C15 1_555 1_555
C16 C15 1_555 1_555
H12 C16 1_555 1_555
C17 C16 1_555 1_555
H13 C17 1_555 1_555
C18 C17 1_555 1_555
H14 C18 1_555 1_555
C19 C14 1_555 1_555
H15 C19 1_555 1_555
C20 C2 1_555 1_555
H16 C20 1_555 1_555
H17 C20 1_555 1_555
C21 C20 1_555 1_555
C22 C21 1_555 1_555
H18 C22 1_555 1_555
C23 C22 1_555 1_555
H19 C23 1_555 1_555
C24 C23 1_555 1_555
H20 C24 1_555 1_555
C25 C24 1_555 1_555
H21 C25 1_555 1_555
C26 C21 1_555 1_555
H22 C26 1_555 1_555
C27 C2 1_555 1_555
C28 C27 1_555 1_555
H23 C28 1_555 1_555
C29 C28 1_555 1_555
H24 C29 1_555 1_555
C30 C29 1_555 1_555
H25 C30 1_555 1_555
C31 C30 1_555 1_555
H26 C31 1_555 1_555
C32 C27 1_555 1_555
H27 C32 1_555 1_555
N2 C33 1_555 1_555
O2 C33 1_555 1_555
C33 C34 1_555 1_555
C34 C35 1_555 1_555
C35 C36 1_555 1_555
C36 H28 1_555 1_555
C37 C36 1_555 1_555
H29 C37 1_555 1_555
C38 C37 1_555 1_555
H30 C38 1_555 1_555
C39 C38 1_555 1_555
C40 N2 1_555 1_555
C41 N2 1_555 1_555
H31 C41 1_555 1_555
H32 C41 1_555 1_555
H33 C41 1_555 1_555
C42 C39 1_555 1_555
C43 C42 1_555 1_555
C44 C43 1_555 1_555
H34 C44 1_555 1_555
H35 C44 1_555 1_555
C45 C43 1_555 1_555
H36 C45 1_555 1_555
H37 C45 1_555 1_555
C46 C42 1_555 1_555
C47 C46 1_555 1_555
H38 C47 1_555 1_555
C48 C47 1_555 1_555
H39 C48 1_555 1_555
C49 C48 1_555 1_555
H40 C49 1_555 1_555
C50 C49 1_555 1_555
H41 C50 1_555 1_555
C51 C46 1_555 1_555
H42 C51 1_555 1_555
C52 C34 1_555 1_555
H43 C52 1_555 1_555
H44 C52 1_555 1_555
C53 C52 1_555 1_555
C54 C53 1_555 1_555
H45 C54 1_555 1_555
C55 C54 1_555 1_555
H46 C55 1_555 1_555
C56 C55 1_555 1_555
H47 C56 1_555 1_555
C57 C56 1_555 1_555
H48 C57 1_555 1_555
C58 C53 1_555 1_555
H49 C58 1_555 1_555
C59 C34 1_555 1_555
C60 C59 1_555 1_555
H50 C60 1_555 1_555
C61 C60 1_555 1_555
H51 C61 1_555 1_555
C62 C61 1_555 1_555
H52 C62 1_555 1_555
C63 C62 1_555 1_555
H53 C63 1_555 1_555
C64 C59 1_555 1_555
H54 C64 1_555 1_555
C3 C8 1_555 1_555
C7 C8 1_555 1_555
C12 C13 1_555 1_555
C18 C19 1_555 1_555
C25 C26 1_555 1_555
C31 C32 1_555 1_555
C35 C40 1_555 1_555
C39 C40 1_555 1_555
C44 C45 1_555 1_555
C50 C51 1_555 1_555
C57 C58 1_555 1_555
C63 C64 1_555 1_555

#END
