
#######################################################################
#
#                 Cambridge Crystallographic Data Centre
#                                CCDC 
#
#######################################################################
#
# If this CIF has been generated from an entry in the Cambridge 
# Structural Database, then it will include bibliographic, chemical, 
# crystal, experimental, refinement or atomic coordinate data resulting 
# from the CCDC's data processing and validation procedures.
#
#######################################################################

data_ZENJUA
_chemical_formula_moiety         'C38 H21 N7 O7'
_chemical_name_systematic        
'9,14,22-tris(4-nitrophenyl)-19,21,23,24-tetraazahexacyclo[16.3.1.1^5,8^.1^10,13^.0^4,21^.0^15,19^]tetracosa-1(22),2,4,6,8(24),9,11,13,15,17-decaen-20-one unknown solvate'
_symmetry_cell_setting           monoclinic
_symmetry_space_group_name_H-M   'P 21/c'
_symmetry_Int_Tables_number      14
_space_group_name_Hall           '-P 2ybc'
loop_
_symmetry_equiv_pos_site_id
_symmetry_equiv_pos_as_xyz
1 x,y,z
2 -x,1/2+y,1/2-z
3 -x,-y,-z
4 x,1/2-y,1/2+z
_cell_length_a                   16.1335(8)
_cell_length_b                   16.7689(8)
_cell_length_c                   13.7048(6)
_cell_angle_alpha                90
_cell_angle_beta                 111.276(2)
_cell_angle_gamma                90
_cell_volume                     3455.01
_exptl_crystal_colour            red
_exptl_crystal_description       needle
_cell_formula_units_Z            4
loop_
_atom_site_label
_atom_site_type_symbol
_atom_site_fract_x
_atom_site_fract_y
_atom_site_fract_z
O1 O 0.30618(15) 0.68007(13) 0.62456(17)
N1 N 0.25342(17) 0.76322(13) 0.44568(19)
H1 H 0.2206 0.7368 0.4716
N2 N 0.16242(18) 0.77745(15) 0.5557(2)
N3 N 0.17087(17) 0.62143(14) 0.6132(2)
N4 N 0.24530(18) 0.57783(14) 0.5062(2)
N5 N 0.1093(3) 0.15458(19) 0.6509(2)
O2 O 0.0342(2) 0.13272(16) 0.6354(2)
O3 O 0.1749(2) 0.11106(16) 0.6802(2)
C1 C 0.2529(2) 0.84507(17) 0.4375(2)
C2 C 0.3119(2) 0.72917(17) 0.4078(2)
N6 N 0.1823(3) 1.22589(19) 0.3941(3)
O4 O 0.1096(3) 1.25734(16) 0.3637(2)
C3 C 0.2941(2) 0.58101(17) 0.4394(2)
C4 C 0.3900(2) 0.62480(16) 0.3481(2)
C5 C 0.3289(2) 0.64690(17) 0.4042(2)
C6 C 0.2061(2) 0.89381(17) 0.4839(2)
C7 C 0.1647(2) 0.85886(17) 0.5479(2)
O5 O 0.2502(3) 1.26121(16) 0.4022(3)
N7 N 0.5585(3) 0.5486(2) 0.1910(4)
C8 C 0.1334(2) 0.67660(18) 0.6600(2)
C9 C 0.2018(2) 0.98045(16) 0.4668(2)
C10 C 0.1209(2) 1.02010(18) 0.4378(2)
H2 H 0.0702 0.9917 0.4337
C11 C 0.1408(2) 0.54523(18) 0.6246(3)
C12 C 0.3481(2) 0.79357(18) 0.3689(2)
H3 H 0.3902 0.7887 0.3375
C13 C 0.3123(2) 0.86282(19) 0.3844(2)
H4 H 0.3241 0.9132 0.3642
C14 C 0.1495(2) 0.39665(19) 0.5929(3)
C15 C 0.3703(2) 0.6438(2) 0.2443(2)
H5 H 0.3196 0.6736 0.2091
C16 C 0.2138(2) 0.50000(18) 0.5093(3)
C17 C 0.1361(2) 0.75912(19) 0.6365(2)
C18 C 0.1138(2) 1.10005(19) 0.4150(3)
H6 H 0.0592 1.1259 0.3957
C19 C 0.1668(2) 0.48205(19) 0.5743(3)
C20 C 0.1342(2) 0.8923(2) 0.6264(2)
H7 H 0.1277 0.9462 0.6379
C21 C 0.1231(3) 0.23969(19) 0.6315(2)
C22 C 0.0519(3) 0.2901(2) 0.5990(3)
H8 H -0.0048 0.2719 0.5901
C23 C 0.2465(3) 0.6326(2) 0.5870(3)
O6 O 0.6265(2) 0.5129(2) 0.2414(3)
C24 C 0.0881(2) 0.5531(2) 0.6845(3)
H9 H 0.0609 0.5117 0.7068
C25 C 0.1893(3) 1.14082(18) 0.4216(3)
C26 C 0.5002(2) 0.5769(2) 0.2452(3)
C27 C 0.1172(2) 0.8310(2) 0.6797(3)
H10 H 0.0967 0.8349 0.7347
C28 C 0.0830(2) 0.6331(2) 0.7053(3)
H11 H 0.0510 0.6546 0.7435
C29 C 0.2768(2) 1.02458(18) 0.4756(3)
H12 H 0.3322 0.9999 0.4989
C30 C 0.4686(2) 0.5836(2) 0.4003(3)
H13 H 0.4840 0.5722 0.4711
O7 O 0.5348(2) 0.5626(2) 0.0981(3)
C31 C 0.2902(2) 0.50200(19) 0.4011(3)
H14 H 0.3161 0.4849 0.3542
C32 C 0.2193(2) 0.3441(2) 0.6257(3)
H15 H 0.2761 0.3620 0.6344
C33 C 0.2072(3) 0.2645(2) 0.6464(3)
H16 H 0.2550 0.2294 0.6697
C34 C 0.4247(2) 0.6191(2) 0.1909(3)
H17 H 0.4102 0.6310 0.1203
C35 C 0.2429(3) 0.4547(2) 0.4433(3)
H18 H 0.2319 0.4006 0.4299
C36 C 0.2706(3) 1.10472(19) 0.4505(3)
H19 H 0.3207 1.1335 0.4532
C37 C 0.0663(2) 0.3689(2) 0.5794(3)
H20 H 0.0183 0.4038 0.5567
C38 C 0.5235(3) 0.5595(2) 0.3503(3)
H21 H 0.5757 0.5320 0.3863
loop_
_geom_bond_atom_site_label_1
_geom_bond_atom_site_label_2
_geom_bond_site_symmetry_1
_geom_bond_site_symmetry_2
O1 C23 1_555 1_555
N1 H1 1_555 1_555
N2 C7 1_555 1_555
N3 C8 1_555 1_555
N4 C3 1_555 1_555
N5 O2 1_555 1_555
O3 N5 1_555 1_555
C1 N1 1_555 1_555
C2 N1 1_555 1_555
N6 O4 1_555 1_555
C3 C5 1_555 1_555
C4 C5 1_555 1_555
C5 C2 1_555 1_555
C6 C1 1_555 1_555
C7 C6 1_555 1_555
O5 N6 1_555 1_555
N7 O6 1_555 1_555
C8 C17 1_555 1_555
C9 C6 1_555 1_555
C10 C9 1_555 1_555
H2 C10 1_555 1_555
C11 N3 1_555 1_555
C12 C2 1_555 1_555
H3 C12 1_555 1_555
C13 C1 1_555 1_555
H4 C13 1_555 1_555
C14 C19 1_555 1_555
C15 C4 1_555 1_555
H5 C15 1_555 1_555
C16 N4 1_555 1_555
C17 N2 1_555 1_555
C18 C10 1_555 1_555
H6 C18 1_555 1_555
C19 C11 1_555 1_555
C20 C7 1_555 1_555
H7 C20 1_555 1_555
C21 N5 1_555 1_555
C22 C21 1_555 1_555
H8 C22 1_555 1_555
C23 N3 1_555 1_555
C24 C11 1_555 1_555
H9 C24 1_555 1_555
C25 N6 1_555 1_555
C26 N7 1_555 1_555
C27 C17 1_555 1_555
H10 C27 1_555 1_555
C28 C8 1_555 1_555
H11 C28 1_555 1_555
C29 C9 1_555 1_555
H12 C29 1_555 1_555
C30 C4 1_555 1_555
H13 C30 1_555 1_555
O7 N7 1_555 1_555
C31 C3 1_555 1_555
H14 C31 1_555 1_555
C32 C14 1_555 1_555
H15 C32 1_555 1_555
C33 C21 1_555 1_555
H16 C33 1_555 1_555
C34 C15 1_555 1_555
H17 C34 1_555 1_555
C35 C16 1_555 1_555
H18 C35 1_555 1_555
C36 C25 1_555 1_555
H19 C36 1_555 1_555
C37 C14 1_555 1_555
H20 C37 1_555 1_555
C38 C26 1_555 1_555
H21 C38 1_555 1_555
N4 C23 1_555 1_555
C12 C13 1_555 1_555
C16 C19 1_555 1_555
C18 C25 1_555 1_555
C20 C27 1_555 1_555
C22 C37 1_555 1_555
C24 C28 1_555 1_555
C26 C34 1_555 1_555
C29 C36 1_555 1_555
C30 C38 1_555 1_555
C31 C35 1_555 1_555
C32 C33 1_555 1_555

#END
