
#######################################################################
#
#                 Cambridge Crystallographic Data Centre
#                                CCDC 
#
#######################################################################
#
# If this CIF has been generated from an entry in the Cambridge 
# Structural Database, then it will include bibliographic, chemical, 
# crystal, experimental, refinement or atomic coordinate data resulting 
# from the CCDC's data processing and validation procedures.
#
#######################################################################

data_ZENLIQ
_chemical_formula_moiety         'C20 H30 O2,0.5(H2 O1)'
_chemical_name_systematic        
'9-hydroxy-3,6,10b,11,11-pentamethyl-1,4,5,6,7,8,9,10,10a,10b-decahydro-2H-5a,9-methanocyclobuta[a]heptalen-2-one hemihydrate'
_symmetry_cell_setting           monoclinic
_symmetry_space_group_name_H-M   'P 21'
_symmetry_Int_Tables_number      4
_space_group_name_Hall           'P 2yb'
loop_
_symmetry_equiv_pos_site_id
_symmetry_equiv_pos_as_xyz
1 x,y,z
2 -x,1/2+y,-z
_cell_length_a                   7.333(2)
_cell_length_b                   12.377(3)
_cell_length_c                   19.748(5)
_cell_angle_alpha                90
_cell_angle_beta                 99.079(5)
_cell_angle_gamma                90
_cell_volume                     1769.88
_exptl_crystal_colour            colorless
_exptl_crystal_description       Prism
_cell_formula_units_Z            4
_exptl_crystal_recrystallization_method methanol/water
loop_
_atom_site_label
_atom_site_type_symbol
_atom_site_fract_x
_atom_site_fract_y
_atom_site_fract_z
O1 O 1.2096(4) 0.1681(3) 0.65789(14)
H1 H 1.178(6) 0.165(3) 0.617(2)
H2 H 1.294(8) 0.126(4) 0.664(2)
O2 O 0.4437(3) 0.54933(14) 0.31863(11)
H3 H 0.3473 0.5823 0.3060
O3 O 1.0371(3) 0.1107(2) 0.52324(11)
C1 C 0.4328(4) 0.3524(2) 0.29412(10)
C2 C 0.4022(4) 0.44508(18) 0.34455(12)
C3 C 0.2054(4) 0.4439(2) 0.35964(14)
H4 H 0.1202 0.4517 0.3171
H5 H 0.1875 0.5047 0.3888
C4 C 0.1630(4) 0.3396(2) 0.39483(13)
H6 H 0.0300 0.3323 0.3908
H7 H 0.2122 0.3454 0.4433
C5 C 0.2407(4) 0.2362(2) 0.36654(11)
H8 H 0.2637 0.1868 0.4058
C6 C 0.4322(3) 0.25269(18) 0.34387(10)
C7 C 0.4975(4) 0.1481(2) 0.31337(12)
H9 H 0.6182 0.1615 0.3008
H10 H 0.4137 0.1324 0.2714
C8 C 0.5114(5) 0.0466(2) 0.35884(15)
H11 H 0.4048 0.0436 0.3823
H12 H 0.5088 -0.0169 0.3300
C9 C 0.6830(4) 0.0447(2) 0.41080(13)
C10 C 0.7190(4) 0.1223(2) 0.45875(11)
C11 C 0.8911(4) 0.1541(3) 0.50308(12)
C12 C 0.8151(4) 0.2657(3) 0.51407(12)
H13 H 0.8752 0.3233 0.4927
H14 H 0.8093 0.2823 0.5617
C13 C 0.6255(4) 0.22962(19) 0.47192(10)
C14 C 0.5798(3) 0.29445(18) 0.40491(10)
H15 H 0.6956 0.2930 0.3860
C15 C 0.5380(4) 0.41657(19) 0.40987(12)
H16 H 0.4831 0.4315 0.4505
H17 H 0.6506 0.4585 0.4122
C16 C 0.6193(4) 0.3696(2) 0.26848(13)
H18 H 0.7160 0.3768 0.3071
H19 H 0.6132 0.4340 0.2411
H20 H 0.6446 0.3087 0.2413
C17 C 0.2901(5) 0.3497(3) 0.22868(12)
H21 H 0.2946 0.4164 0.2042
H22 H 0.1690 0.3403 0.2405
H23 H 0.3170 0.2907 0.2003
C18 C 0.0906(5) 0.1804(3) 0.31493(16)
H24 H 0.0464 0.2296 0.2785
H25 H -0.0100 0.1591 0.3378
H26 H 0.1418 0.1176 0.2964
C19 C 0.4827(4) 0.2200(3) 0.52102(12)
H27 H 0.3755 0.1825 0.4985
H28 H 0.4478 0.2910 0.5340
H29 H 0.5357 0.1807 0.5612
C20 C 0.8200(5) -0.0421(3) 0.40395(18)
H30 H 0.9274 -0.0321 0.4380
H31 H 0.8546 -0.0388 0.3591
H32 H 0.7660 -0.1113 0.4103
O4 O 0.8820(3) 0.18258(18) 0.71942(10)
H33 H 0.9850 0.1730 0.7093
O5 O 1.5256(5) 0.6376(3) 0.90826(17)
C21 C 1.0166(4) 0.19172(19) 0.84406(12)
C22 C 0.8973(4) 0.2459(2) 0.78088(12)
C23 C 0.7002(4) 0.2635(3) 0.79422(16)
H34 H 0.6260 0.2927 0.7533
H35 H 0.6472 0.1946 0.8043
C24 C 0.6950(4) 0.3404(3) 0.85375(15)
H36 H 0.5755 0.3341 0.8686
H37 H 0.7059 0.4137 0.8375
C25 C 0.8452(4) 0.3222(2) 0.91584(13)
H38 H 0.8652 0.3933 0.9375
C26 C 1.0354(4) 0.29130(17) 0.89502(11)
C27 C 1.1794(4) 0.2707(2) 0.95894(12)
H39 H 1.2961 0.2542 0.9440
H40 H 1.1421 0.2069 0.9818
C28 C 1.2128(5) 0.3624(2) 1.01211(12)
H41 H 1.0945 0.3914 1.0192
H42 H 1.2727 0.3326 1.0554
C29 C 1.3295(4) 0.4531(2) 0.99174(12)
C30 C 1.2865(4) 0.50801(19) 0.93256(12)
C31 C 1.3921(5) 0.5809(2) 0.89434(17)
C32 C 1.2681(5) 0.5563(2) 0.82762(15)
H43 H 1.3241 0.5097 0.7972
H44 H 1.2141 0.6199 0.8037
C33 C 1.1336(4) 0.49520(18) 0.87020(12)
C34 C 1.1063(3) 0.37740(16) 0.84752(10)
H45 H 1.2311 0.3527 0.8435
C35 C 0.9930(4) 0.3552(2) 0.77526(11)
H46 H 0.9023 0.4117 0.7627
H47 H 1.0738 0.3520 0.7409
C36 C 1.2028(4) 0.1549(2) 0.82451(13)
H48 H 1.1829 0.0935 0.7946
H49 H 1.2859 0.1357 0.8653
H50 H 1.2551 0.2128 0.8015
C37 C 0.9327(6) 0.0888(2) 0.86865(18)
H51 H 0.9379 0.0322 0.8358
H52 H 0.8063 0.1020 0.8734
H53 H 1.0009 0.0676 0.9121
C38 C 0.7777(6) 0.2502(3) 0.9705(2)
H54 H 0.7727 0.1764 0.9553
H55 H 0.6568 0.2730 0.9772
H56 H 0.8615 0.2562 1.0128
C39 C 0.9672(4) 0.5674(2) 0.87516(15)
H57 H 0.9030 0.5407 0.9105
H58 H 0.8856 0.5670 0.8321
H59 H 1.0086 0.6398 0.8860
C40 C 1.5006(5) 0.4809(3) 1.04037(17)
H60 H 1.5706 0.5335 1.0196
H61 H 1.5737 0.4170 1.0510
H62 H 1.4672 0.5102 1.0818
loop_
_geom_bond_atom_site_label_1
_geom_bond_atom_site_label_2
_geom_bond_site_symmetry_1
_geom_bond_site_symmetry_2
O1 H1 1_555 1_555
H2 O1 1_555 1_555
O2 H3 1_555 1_555
O3 C11 1_555 1_555
C1 C2 1_555 1_555
C2 O2 1_555 1_555
C3 C2 1_555 1_555
H4 C3 1_555 1_555
H5 C3 1_555 1_555
C4 C3 1_555 1_555
H6 C4 1_555 1_555
H7 C4 1_555 1_555
C5 C4 1_555 1_555
H8 C5 1_555 1_555
C6 C1 1_555 1_555
C7 C6 1_555 1_555
H9 C7 1_555 1_555
H10 C7 1_555 1_555
C8 C7 1_555 1_555
H11 C8 1_555 1_555
H12 C8 1_555 1_555
C9 C8 1_555 1_555
C10 C9 1_555 1_555
C11 C10 1_555 1_555
C12 C11 1_555 1_555
H13 C12 1_555 1_555
H14 C12 1_555 1_555
C13 C10 1_555 1_555
C14 C6 1_555 1_555
H15 C14 1_555 1_555
C15 C2 1_555 1_555
H16 C15 1_555 1_555
H17 C15 1_555 1_555
C16 C1 1_555 1_555
H18 C16 1_555 1_555
H19 C16 1_555 1_555
H20 C16 1_555 1_555
C17 C1 1_555 1_555
H21 C17 1_555 1_555
H22 C17 1_555 1_555
H23 C17 1_555 1_555
C18 C5 1_555 1_555
H24 C18 1_555 1_555
H25 C18 1_555 1_555
H26 C18 1_555 1_555
C19 C13 1_555 1_555
H27 C19 1_555 1_555
H28 C19 1_555 1_555
H29 C19 1_555 1_555
C20 C9 1_555 1_555
H30 C20 1_555 1_555
H31 C20 1_555 1_555
H32 C20 1_555 1_555
O4 H33 1_555 1_555
O5 C31 1_555 1_555
C21 C22 1_555 1_555
C22 O4 1_555 1_555
C23 C22 1_555 1_555
H34 C23 1_555 1_555
H35 C23 1_555 1_555
C24 C23 1_555 1_555
H36 C24 1_555 1_555
H37 C24 1_555 1_555
C25 C24 1_555 1_555
H38 C25 1_555 1_555
C26 C21 1_555 1_555
C27 C26 1_555 1_555
H39 C27 1_555 1_555
H40 C27 1_555 1_555
C28 C27 1_555 1_555
H41 C28 1_555 1_555
H42 C28 1_555 1_555
C29 C28 1_555 1_555
C30 C29 1_555 1_555
C31 C30 1_555 1_555
C32 C31 1_555 1_555
H43 C32 1_555 1_555
H44 C32 1_555 1_555
C33 C30 1_555 1_555
C34 C26 1_555 1_555
H45 C34 1_555 1_555
C35 C22 1_555 1_555
H46 C35 1_555 1_555
H47 C35 1_555 1_555
C36 C21 1_555 1_555
H48 C36 1_555 1_555
H49 C36 1_555 1_555
H50 C36 1_555 1_555
C37 C21 1_555 1_555
H51 C37 1_555 1_555
H52 C37 1_555 1_555
H53 C37 1_555 1_555
C38 C25 1_555 1_555
H54 C38 1_555 1_555
H55 C38 1_555 1_555
H56 C38 1_555 1_555
C39 C33 1_555 1_555
H57 C39 1_555 1_555
H58 C39 1_555 1_555
H59 C39 1_555 1_555
C40 C29 1_555 1_555
H60 C40 1_555 1_555
H61 C40 1_555 1_555
H62 C40 1_555 1_555
C5 C6 1_555 1_555
C12 C13 1_555 1_555
C13 C14 1_555 1_555
C14 C15 1_555 1_555
C25 C26 1_555 1_555
C32 C33 1_555 1_555
C33 C34 1_555 1_555
C34 C35 1_555 1_555

#END
