
#######################################################################
#
#                 Cambridge Crystallographic Data Centre
#                                CCDC 
#
#######################################################################
#
# If this CIF has been generated from an entry in the Cambridge 
# Structural Database, then it will include bibliographic, chemical, 
# crystal, experimental, refinement or atomic coordinate data resulting 
# from the CCDC's data processing and validation procedures.
#
#######################################################################

data_ZENNOV03
_chemical_formula_moiety         'C21 H15 N1'
_chemical_name_systematic        2,4-Diphenylquinoline
_symmetry_cell_setting           monoclinic
_symmetry_space_group_name_H-M   'P 21/n'
_symmetry_Int_Tables_number      14
_space_group_name_Hall           '-P 2yn'
loop_
_symmetry_equiv_pos_site_id
_symmetry_equiv_pos_as_xyz
1 x,y,z
2 1/2-x,1/2+y,1/2-z
3 -x,-y,-z
4 1/2+x,1/2-y,1/2+z
_cell_length_a                   10.5144(14)
_cell_length_b                   8.3953(10)
_cell_length_c                   17.1522(18)
_cell_angle_alpha                90
_cell_angle_beta                 95.634(10)
_cell_angle_gamma                90
_cell_volume                     1506.74
_exptl_crystal_colour            colorless
_exptl_crystal_description       prism
_cell_formula_units_Z            4
loop_
_atom_site_label
_atom_site_type_symbol
_atom_site_fract_x
_atom_site_fract_y
_atom_site_fract_z
N1 N -0.01371(15) 0.2361(2) 0.93814(10)
C1 C -0.06118(18) 0.1229(2) 0.89031(12)
C2 C 0.01170(18) -0.0112(2) 0.87067(11)
H1 H -0.0271 -0.0912 0.8393
C3 C 0.13816(18) -0.0239(2) 0.89736(11)
C4 C 0.31991(19) 0.0937(3) 0.98403(12)
H2 H 0.3749 0.0132 0.9711
C5 C 0.3631(2) 0.2078(3) 1.03606(14)
H3 H 0.4473 0.2043 1.0585
C6 C 0.2831(2) 0.3301(3) 1.05621(13)
H4 H 0.3140 0.4070 1.0923
C7 C 0.1597(2) 0.3378(3) 1.02338(13)
H5 H 0.1072 0.4204 1.0369
C8 C 0.11133(19) 0.2217(2) 0.96923(12)
C9 C 0.19243(18) 0.0957(2) 0.94930(11)
C10 C -0.19638(18) 0.1409(2) 0.85630(12)
C11 C -0.27992(19) 0.2342(3) 0.89449(13)
H6 H -0.2507 0.2855 0.9409
C12 C -0.4060(2) 0.2517(3) 0.86448(15)
H7 H -0.4611 0.3131 0.8913
C13 C -0.4504(2) 0.1793(3) 0.79561(15)
H8 H -0.5349 0.1931 0.7752
C14 C -0.3692(2) 0.0860(3) 0.75667(14)
H9 H -0.3989 0.0360 0.7100
C15 C -0.2434(2) 0.0670(3) 0.78719(14)
H10 H -0.1893 0.0034 0.7608
C16 C 0.21473(19) -0.1600(2) 0.87141(11)
C17 C 0.3171(2) -0.1317(3) 0.82802(13)
H11 H 0.3400 -0.0273 0.8177
C18 C 0.3856(2) -0.2560(3) 0.79988(14)
H12 H 0.4528 -0.2351 0.7699
C19 C 0.3545(2) -0.4095(3) 0.81611(14)
H13 H 0.4008 -0.4933 0.7974
C20 C 0.2552(3) -0.4401(3) 0.85990(14)
H14 H 0.2347 -0.5448 0.8713
C21 C 0.1848(2) -0.3155(3) 0.88736(12)
H15 H 0.1171 -0.3374 0.9167
loop_
_geom_bond_atom_site_label_1
_geom_bond_atom_site_label_2
_geom_bond_site_symmetry_1
_geom_bond_site_symmetry_2
N1 C1 1_555 1_555
C1 C2 1_555 1_555
C2 H1 1_555 1_555
C3 C2 1_555 1_555
C4 H2 1_555 1_555
C5 C4 1_555 1_555
H3 C5 1_555 1_555
C6 C5 1_555 1_555
H4 C6 1_555 1_555
C7 C6 1_555 1_555
H5 C7 1_555 1_555
C8 N1 1_555 1_555
C9 C3 1_555 1_555
C10 C1 1_555 1_555
C11 C10 1_555 1_555
H6 C11 1_555 1_555
C12 C11 1_555 1_555
H7 C12 1_555 1_555
C13 C12 1_555 1_555
H8 C13 1_555 1_555
C14 C13 1_555 1_555
H9 C14 1_555 1_555
C15 C10 1_555 1_555
H10 C15 1_555 1_555
C16 C3 1_555 1_555
C17 C16 1_555 1_555
H11 C17 1_555 1_555
C18 C17 1_555 1_555
H12 C18 1_555 1_555
C19 C18 1_555 1_555
H13 C19 1_555 1_555
C20 C19 1_555 1_555
H14 C20 1_555 1_555
C21 C16 1_555 1_555
H15 C21 1_555 1_555
C4 C9 1_555 1_555
C7 C8 1_555 1_555
C8 C9 1_555 1_555
C14 C15 1_555 1_555
C20 C21 1_555 1_555

#END
