
#######################################################################
#
#                 Cambridge Crystallographic Data Centre
#                                CCDC 
#
#######################################################################
#
# If this CIF has been generated from an entry in the Cambridge 
# Structural Database, then it will include bibliographic, chemical, 
# crystal, experimental, refinement or atomic coordinate data resulting 
# from the CCDC's data processing and validation procedures.
#
#######################################################################

data_ZENWOH
_chemical_formula_moiety         'C20 H22 N2 O3'
_chemical_name_systematic        
't-butyl 7,9-dimethyl-8-oxo-6,6a,7,8-tetrahydro-4H-indolo[6,5,4-cd]indole-4-carboxylate'
_symmetry_cell_setting           monoclinic
_symmetry_space_group_name_H-M   'P 21'
_symmetry_Int_Tables_number      4
_space_group_name_Hall           'P 2yb'
loop_
_symmetry_equiv_pos_site_id
_symmetry_equiv_pos_as_xyz
1 x,y,z
2 -x,1/2+y,-z
_cell_length_a                   10.0741(10)
_cell_length_b                   7.6193(15)
_cell_length_c                   11.4018(17)
_cell_angle_alpha                90
_cell_angle_beta                 90.452(9)
_cell_angle_gamma                90
_cell_volume                     875.147
_exptl_crystal_colour            colorless
_exptl_crystal_description       block
_cell_formula_units_Z            2
loop_
_atom_site_label
_atom_site_type_symbol
_atom_site_fract_x
_atom_site_fract_y
_atom_site_fract_z
O1 O -0.8967(2) -0.7402(6) -0.7257(2)
O2 O -1.0444(3) -0.7613(9) -0.5791(3)
N1 N -0.8240(3) -0.7427(8) -0.5403(3)
O3 O -0.2588(3) -0.7158(9) -0.0630(3)
N2 N -0.4744(4) -0.6547(7) -0.1200(3)
C1 C -0.6250(3) -0.7095(7) -0.4560(3)
C2 C -0.7191(4) -0.7357(8) -0.3652(3)
C3 C -0.9345(4) -0.7490(10) -0.6150(4)
C4 C -0.4886(4) -0.6813(7) -0.4422(3)
C5 C -0.6883(4) -0.7154(8) -0.5652(3)
C6 C -0.9980(4) -0.7425(9) -0.8221(3)
C7 C -0.6155(4) -0.7001(8) -0.6668(4)
H1 H -0.6556 -0.7056 -0.7404
C8 C -1.0857(7) -0.5846(9) -0.8142(6)
H2 H -1.1330 -0.5871 -0.7415
H3 H -1.1479 -0.5850 -0.8784
H4 H -1.0324 -0.4802 -0.8176
C9 C -0.6718(4) -0.7433(8) -0.2393(3)
H5 H -0.6526 -0.8637 -0.2172
H6 H -0.7400 -0.6985 -0.1877
C10 C -0.8383(4) -0.7519(9) -0.4180(4)
H7 H -0.9184 -0.7668 -0.3792
C11 C -0.4155(4) -0.6686(7) -0.5448(4)
H8 H -0.3238 -0.6550 -0.5410
C12 C -0.4431(4) -0.6739(7) -0.3206(4)
C13 C -0.4800(4) -0.6764(7) -0.6537(4)
H9 H -0.4291 -0.6649 -0.7210
C14 C -0.5463(4) -0.6311(7) -0.2287(4)
H10 H -0.5711 -0.5073 -0.2363
C15 C -0.3268(4) -0.7070(8) -0.2677(4)
C16 C -0.9120(5) -0.7329(14) -0.9293(4)
H11 H -0.8533 -0.6342 -0.9227
H12 H -0.9671 -0.7197 -0.9978
H13 H -0.8609 -0.8388 -0.9357
C17 C -0.1965(4) -0.7549(11) -0.3188(4)
H14 H -0.2099 -0.8376 -0.3813
H15 H -0.1412 -0.8065 -0.2592
H16 H -0.1544 -0.6515 -0.3490
C18 C -1.0770(7) -0.9115(10) -0.8186(6)
H17 H -1.0173 -1.0097 -0.8198
H18 H -1.1352 -0.9170 -0.8856
H19 H -1.1285 -0.9150 -0.7482
C19 C -0.3451(4) -0.6942(9) -0.1396(4)
C20 C -0.5284(6) -0.6187(10) -0.0052(5)
H20 H -0.5648 -0.5023 -0.0041
H21 H -0.4592 -0.6278 0.0528
H22 H -0.5970 -0.7021 0.0118
loop_
_geom_bond_atom_site_label_1
_geom_bond_atom_site_label_2
_geom_bond_site_symmetry_1
_geom_bond_site_symmetry_2
O1 C3 1_555 1_555
O2 C3 1_555 1_555
N1 C3 1_555 1_555
O3 C19 1_555 1_555
N2 C14 1_555 1_555
C1 C2 1_555 1_555
C2 C9 1_555 1_555
C4 C1 1_555 1_555
C5 N1 1_555 1_555
C6 O1 1_555 1_555
C7 C5 1_555 1_555
H1 C7 1_555 1_555
C8 C6 1_555 1_555
H2 C8 1_555 1_555
H3 C8 1_555 1_555
H4 C8 1_555 1_555
C9 H5 1_555 1_555
H6 C9 1_555 1_555
C10 N1 1_555 1_555
H7 C10 1_555 1_555
C11 C4 1_555 1_555
H8 C11 1_555 1_555
C12 C4 1_555 1_555
C13 C7 1_555 1_555
H9 C13 1_555 1_555
C14 C9 1_555 1_555
H10 C14 1_555 1_555
C15 C12 1_555 1_555
C16 C6 1_555 1_555
H11 C16 1_555 1_555
H12 C16 1_555 1_555
H13 C16 1_555 1_555
C17 C15 1_555 1_555
H14 C17 1_555 1_555
H15 C17 1_555 1_555
H16 C17 1_555 1_555
C18 C6 1_555 1_555
H17 C18 1_555 1_555
H18 C18 1_555 1_555
H19 C18 1_555 1_555
C19 N2 1_555 1_555
C20 N2 1_555 1_555
H20 C20 1_555 1_555
H21 C20 1_555 1_555
H22 C20 1_555 1_555
C1 C5 1_555 1_555
C2 C10 1_555 1_555
C11 C13 1_555 1_555
C12 C14 1_555 1_555
C15 C19 1_555 1_555

#END
