
#######################################################################
#
#                 Cambridge Crystallographic Data Centre
#                                CCDC 
#
#######################################################################
#
# If this CIF has been generated from an entry in the Cambridge 
# Structural Database, then it will include bibliographic, chemical, 
# crystal, experimental, refinement or atomic coordinate data resulting 
# from the CCDC's data processing and validation procedures.
#
#######################################################################

data_ZENXAR
_chemical_compound_source        'Taxus chinensis'
_chemical_name_common            
"2,3,4a,5,6,7,8,11,12,12a-Decahydro-3,5,12-trihydroxy-9,12a,13,13-tetramethyl-6,10-methano(benzocyclodecene-4(1H)-spiro-2'-oxirane)-8,11-diyl diacetate"
_chemical_formula_moiety         'C24 H36 O8'
_chemical_name_systematic        
'2alpha ,5alpha ,9\a-Trihydroxy-10\b,13\a-diacetoxy-4\b,20-epoxy-taxa-11-ene'
_symmetry_cell_setting           orthorhombic
_symmetry_space_group_name_H-M   'P 21 21 21'
_symmetry_Int_Tables_number      19
_space_group_name_Hall           'P 2ac 2ab'
loop_
_symmetry_equiv_pos_site_id
_symmetry_equiv_pos_as_xyz
1 x,y,z
2 1/2-x,-y,1/2+z
3 1/2+x,1/2-y,-z
4 -x,1/2+y,1/2-z
_cell_length_a                   8.774(22)
_cell_length_b                   20.422(30)
_cell_length_c                   13.172(21)
_cell_angle_alpha                90
_cell_angle_beta                 90
_cell_angle_gamma                90
_cell_volume                     2360.19
_exptl_crystal_colour            Colorless
_chemical_melting_point          216-218deg.C
_cell_formula_units_Z            4
loop_
_atom_site_label
_atom_site_type_symbol
_atom_site_fract_x
_atom_site_fract_y
_atom_site_fract_z
C1 C 0.6300(5) 0.6057(2) 0.3459(3)
C2 C 0.6229(5) 0.5299(2) 0.3345(3)
C3 C 0.4704(4) 0.5007(2) 0.2935(2)
C4 C 0.3886(5) 0.4491(2) 0.3588(3)
C5 C 0.2258(5) 0.4363(2) 0.3236(3)
C6 C 0.2299(6) 0.4094(2) 0.2147(3)
C7 C 0.3164(5) 0.4553(2) 0.1448(3)
C8 C 0.4824(5) 0.4717(2) 0.1829(3)
C9 C 0.5576(4) 0.5186(2) 0.1028(3)
C10 C 0.4909(5) 0.5885(2) 0.0917(3)
C11 C 0.4965(5) 0.6297(2) 0.1870(3)
C12 C 0.3673(5) 0.6451(2) 0.2353(3)
C13 C 0.3764(5) 0.6700(2) 0.3425(3)
C14 C 0.4935(5) 0.6328(2) 0.4075(3)
C15 C 0.6479(5) 0.6425(2) 0.2418(3)
C16 C 0.7982(5) 0.6211(2) 0.1896(3)
C17 C 0.6700(5) 0.7179(2) 0.2577(3)
C18 C 0.2078(5) 0.6361(2) 0.1920(3)
C19 C 0.5850(6) 0.4103(2) 0.1840(3)
C20 C 0.4583(6) 0.3956(2) 0.4191(3)
O1 O 0.6667(3) 0.50387(15) 0.4326(2)
O2 O 0.3979(4) 0.45467(14) 0.4693(2)
O3 O 0.1374(3) 0.49486(15) 0.3257(2)
O4 O 0.5422(3) 0.48775(12) 0.0045(2)
O5 O 0.5872(3) 0.61810(12) 0.0115(2)
C21 C 0.5290(6) 0.6710(2) -0.0363(3)
O6 O 0.4054(4) 0.69413(14) -0.0174(2)
C22 C 0.6392(6) 0.6953(2) -0.1144(3)
O7 O 0.2304(3) 0.66016(13) 0.3956(2)
C23 C 0.1407(5) 0.7133(2) 0.4094(3)
O8 O 0.1747(4) 0.76708(15) 0.3792(3)
C24 C 0.0017(6) 0.6953(2) 0.4667(3)
H1 H 0.7256 0.6066 0.3953
H2 H 0.7124 0.5204 0.2829
H3 H 0.3926 0.5471 0.2857
H4 H 0.1814 0.3955 0.3807
H5 H 0.2768 0.3556 0.1988
H6 H 0.1211 0.4034 0.1914
H7 H 0.3359 0.4387 0.0713
H8 H 0.2533 0.5006 0.1413
H9 H 0.6930 0.5208 0.1295
H10 H 0.3636 0.5925 0.0640
H11 H 0.3936 0.7273 0.3380
H12 H 0.4425 0.5887 0.4372
H13 H 0.5549 0.6660 0.4618
H14 H 0.8814 0.6342 0.2432
H15 H 0.8161 0.5672 0.1717
H16 H 0.8029 0.6544 0.1291
H17 H 0.5679 0.7379 0.2787
H18 H 0.7883 0.7354 0.2870
H19 H 0.6655 0.7279 0.1664
H20 H 0.2063 0.6327 0.1170
H21 H 0.1226 0.6788 0.2176
H22 H 0.1387 0.5998 0.2136
H23 H 0.5842 0.3809 0.1170
H24 H 0.5446 0.3765 0.2417
H25 H 0.7091 0.4179 0.2285
H26 H 0.3682 0.3494 0.4180
H27 H 0.5999 0.4000 0.4234
H28 H 0.5412 0.5010 0.4594
H29 H 0.0926 0.5071 0.4003
H30 H 0.6544 0.4899 -0.0268
H31 H 0.5675 0.7303 -0.1554
H32 H 0.7360 0.7152 -0.1015
H33 H 0.7061 0.6728 -0.1700
H34 H -0.0269 0.6397 0.4481
H35 H 0.0316 0.7005 0.5484
H36 H -0.0996 0.7135 0.4754
loop_
_geom_bond_atom_site_label_1
_geom_bond_atom_site_label_2
_geom_bond_site_symmetry_1
_geom_bond_site_symmetry_2
C1 C2 1_555 1_555
C2 C3 1_555 1_555
C3 C4 1_555 1_555
C4 C5 1_555 1_555
C5 C6 1_555 1_555
C6 C7 1_555 1_555
C7 C8 1_555 1_555
C8 C3 1_555 1_555
C9 C8 1_555 1_555
C10 C9 1_555 1_555
C11 C10 1_555 1_555
C12 C11 1_555 1_555
C13 C12 1_555 1_555
C14 C1 1_555 1_555
C15 C1 1_555 1_555
C16 C15 1_555 1_555
C17 C15 1_555 1_555
C18 C12 1_555 1_555
C19 C8 1_555 1_555
C20 C4 1_555 1_555
O1 C2 1_555 1_555
O2 C4 1_555 1_555
O3 C5 1_555 1_555
O4 C9 1_555 1_555
O5 C10 1_555 1_555
C21 O5 1_555 1_555
O6 C21 1_555 1_555
C22 C21 1_555 1_555
O7 C13 1_555 1_555
C23 O7 1_555 1_555
O8 C23 1_555 1_555
C24 C23 1_555 1_555
H1 C1 1_555 1_555
H2 C2 1_555 1_555
H3 C3 1_555 1_555
H4 C5 1_555 1_555
H5 C6 1_555 1_555
H6 C6 1_555 1_555
H7 C7 1_555 1_555
H8 C7 1_555 1_555
H9 C9 1_555 1_555
H10 C10 1_555 1_555
H11 C13 1_555 1_555
H12 C14 1_555 1_555
H13 C14 1_555 1_555
H14 C16 1_555 1_555
H15 C16 1_555 1_555
H16 C16 1_555 1_555
H17 C17 1_555 1_555
H18 C17 1_555 1_555
H19 C17 1_555 1_555
H20 C18 1_555 1_555
H21 C18 1_555 1_555
H22 C18 1_555 1_555
H23 C19 1_555 1_555
H24 C19 1_555 1_555
H25 C19 1_555 1_555
H26 C20 1_555 1_555
H27 C20 1_555 1_555
H28 O1 1_555 1_555
H29 O3 1_555 1_555
H30 O4 1_555 1_555
H31 C22 1_555 1_555
H32 C22 1_555 1_555
H33 C22 1_555 1_555
H34 C24 1_555 1_555
H35 C24 1_555 1_555
H36 C24 1_555 1_555
C11 C15 1_555 1_555
C13 C14 1_555 1_555
C20 O2 1_555 1_555

#END
