
#######################################################################
#
#                 Cambridge Crystallographic Data Centre
#                                CCDC 
#
#######################################################################
#
# If this CIF has been generated from an entry in the Cambridge 
# Structural Database, then it will include bibliographic, chemical, 
# crystal, experimental, refinement or atomic coordinate data resulting 
# from the CCDC's data processing and validation procedures.
#
#######################################################################

data_ZEPCAB
_chemical_formula_moiety         'C20 H24 N2 O1 S1 1+,I1 1-,2(C1 H4 O1)'
_chemical_name_systematic        
'2-{2-[4-(diethylamino)-2-hydroxyphenyl]ethenyl}-3-methyl-1,3-benzothiazol-3-ium iodide methanol solvate'
_symmetry_cell_setting           monoclinic
_symmetry_space_group_name_H-M   'P 21/c'
_symmetry_Int_Tables_number      14
_space_group_name_Hall           '-P 2ybc'
loop_
_symmetry_equiv_pos_site_id
_symmetry_equiv_pos_as_xyz
1 x,y,z
2 -x,1/2+y,1/2-z
3 -x,-y,-z
4 x,1/2-y,1/2+z
_cell_length_a                   7.9761(3)
_cell_length_b                   18.6330(6)
_cell_length_c                   15.9637(4)
_cell_angle_alpha                90
_cell_angle_beta                 90.406(3)
_cell_angle_gamma                90
_cell_volume                     2372.44
_exptl_crystal_colour            'metallic grey'
_exptl_crystal_description       block
_cell_formula_units_Z            4
loop_
_atom_site_label
_atom_site_type_symbol
_atom_site_fract_x
_atom_site_fract_y
_atom_site_fract_z
S1 S 0.1744(3) 0.01573(10) 0.32052(11)
O1 O 0.0945(10) 0.1688(4) 0.5624(4)
N1 N 0.2970(8) -0.1064(3) 0.3590(4)
N2 N 0.2740(8) 0.1336(4) 0.8465(4)
C1 C 0.2618(9) -0.1111(4) 0.2736(5)
C2 C 0.2898(10) -0.1696(4) 0.2214(5)
C3 C 0.2453(11) -0.1628(4) 0.1375(5)
C4 C 0.1735(10) -0.0995(5) 0.1063(5)
C5 C 0.1488(10) -0.0421(5) 0.1582(5)
C6 C 0.1924(9) -0.0478(4) 0.2423(5)
C7 C 0.2572(9) -0.0434(4) 0.3938(5)
C8 C 0.2798(10) -0.0249(4) 0.4793(5)
C9 C 0.2258(10) 0.0376(4) 0.5128(5)
C10 C 0.2399(10) 0.0609(4) 0.5970(5)
C11 C 0.3197(10) 0.0199(4) 0.6607(5)
C12 C 0.3298(10) 0.0430(4) 0.7416(5)
C13 C 0.2629(9) 0.1101(4) 0.7663(4)
C14 C 0.1829(10) 0.1522(4) 0.7036(5)
C15 C 0.1732(10) 0.1271(4) 0.6228(5)
C16 C 0.1936(10) 0.2001(4) 0.8752(5)
C17 C 0.3071(13) 0.2649(5) 0.8695(6)
C18 C 0.3691(10) 0.0932(4) 0.9104(5)
C19 C 0.2653(11) 0.0368(5) 0.9546(5)
C20 C 0.3712(11) -0.1676(4) 0.4046(5)
loop_
_geom_bond_atom_site_label_1
_geom_bond_atom_site_label_2
_geom_bond_site_symmetry_1
_geom_bond_site_symmetry_2
S1 C6 1_555 1_555
O1 C15 1_555 1_555
N1 C1 1_555 1_555
N2 C13 1_555 1_555
C1 C2 1_555 1_555
C2 C3 1_555 1_555
C3 C4 1_555 1_555
C4 C5 1_555 1_555
C5 C6 1_555 1_555
C6 C1 1_555 1_555
C7 S1 1_555 1_555
C8 C7 1_555 1_555
C9 C8 1_555 1_555
C10 C9 1_555 1_555
C11 C10 1_555 1_555
C12 C11 1_555 1_555
C13 C12 1_555 1_555
C14 C13 1_555 1_555
C15 C10 1_555 1_555
C16 N2 1_555 1_555
C17 C16 1_555 1_555
C18 N2 1_555 1_555
C19 C18 1_555 1_555
C20 N1 1_555 1_555
N1 C7 1_555 1_555
C14 C15 1_555 1_555

#END
