
#######################################################################
#
#                 Cambridge Crystallographic Data Centre
#                                CCDC 
#
#######################################################################
#
# If this CIF has been generated from an entry in the Cambridge 
# Structural Database, then it will include bibliographic, chemical, 
# crystal, experimental, refinement or atomic coordinate data resulting 
# from the CCDC's data processing and validation procedures.
#
#######################################################################

data_ZEPDUW
_chemical_formula_moiety         'C15 H16 O4'
_chemical_name_systematic        
2-(hydroxymethyl)-4-[(1-phenylprop-2-yn-1-yl)oxy]-3,4-dihydro-2H-pyran-3-ol
_symmetry_cell_setting           monoclinic
_symmetry_space_group_name_H-M   'P 21'
_symmetry_Int_Tables_number      4
_space_group_name_Hall           'P 2yb'
loop_
_symmetry_equiv_pos_site_id
_symmetry_equiv_pos_as_xyz
1 x,y,z
2 -x,1/2+y,-z
_cell_length_a                   6.01023(8)
_cell_length_b                   22.2645(3)
_cell_length_c                   10.03078(17)
_cell_angle_alpha                90
_cell_angle_beta                 91.4780(13)
_cell_angle_gamma                90
_cell_volume                     1341.82
_exptl_crystal_colour            colorless
_exptl_crystal_description       needle
_cell_formula_units_Z            4
loop_
_atom_site_label
_atom_site_type_symbol
_atom_site_fract_x
_atom_site_fract_y
_atom_site_fract_z
O1 O 0.5345(3) 0.56942(9) 0.3590(2)
H1 H 0.5816 0.5361 0.3806
O2 O 1.0888(3) 0.54968(10) 0.3392(3)
H2 H 1.2162 0.5622 0.3502
O3 O 0.3497(3) 0.65150(11) 0.5290(2)
O4 O 0.7272(4) 0.66190(13) 0.1925(3)
C1 C 0.6786(4) 0.61411(12) 0.4117(3)
H3 H 0.7631 0.5978 0.4884
C2 C 0.1957(5) 0.60286(15) 0.7162(3)
C3 C 0.8394(5) 0.63538(13) 0.3067(3)
H4 H 0.9412 0.6650 0.3469
C4 C 0.9751(5) 0.58552(14) 0.2443(3)
H5 H 0.8765 0.5602 0.1907
H6 H 1.0824 0.6033 0.1854
C5 C 0.5491(7) 0.69681(17) 0.2199(4)
H7 H 0.4864 0.7189 0.1498
C6 C 0.4578(6) 0.70217(15) 0.3365(4)
H8 H 0.3368 0.7278 0.3448
C7 C 0.5415(5) 0.66848(13) 0.4565(3)
H9 H 0.6357 0.6949 0.5119
C8 C 0.1468(6) 0.54765(15) 0.6601(3)
H10 H 0.2372 0.5324 0.5942
C9 C 0.3958(5) 0.63631(15) 0.6659(3)
H11 H 0.5243 0.6092 0.6698
C10 C -0.0340(7) 0.51475(19) 0.7002(4)
H12 H -0.0662 0.4780 0.6599
C11 C 0.0597(6) 0.62439(18) 0.8151(4)
H13 H 0.0890 0.6616 0.8537
C12 C -0.1668(7) 0.5360(2) 0.7993(4)
H14 H -0.2874 0.5135 0.8274
C13 C -0.1194(7) 0.5908(2) 0.8566(4)
H15 H -0.2084 0.6054 0.9239
C14 C 0.4520(6) 0.69098(17) 0.7439(4)
C15 C 0.4895(8) 0.7345(2) 0.8070(4)
H16 H 0.5191 0.7689 0.8569
O5 O 1.0485(3) 0.43185(9) 0.4127(2)
H17 H 1.0874 0.4650 0.3861
O6 O 0.8585(3) 0.34993(9) 0.2396(2)
O7 O 1.6037(4) 0.45143(10) 0.4320(3)
H18 H 1.7280 0.4380 0.4184
O8 O 1.2495(4) 0.34164(11) 0.5831(3)
C16 C 1.1921(4) 0.38710(12) 0.3621(3)
H19 H 1.2722 0.4033 0.2862
C17 C 1.0512(5) 0.33279(13) 0.3165(3)
H20 H 1.1427 0.3058 0.2637
C18 C 1.0681(6) 0.30658(15) 0.5548(4)
H21 H 1.0076 0.2855 0.6253
C19 C 0.7000(5) 0.39744(14) 0.0484(3)
C20 C 0.9019(5) 0.36443(14) 0.1027(3)
H22 H 1.0297 0.3918 0.1012
C21 C 1.3580(5) 0.36647(13) 0.4693(3)
H23 H 1.4556 0.3359 0.4317
C22 C 1.5003(5) 0.41644(14) 0.5305(3)
H24 H 1.5172 0.4231 0.6217
C23 C 0.9719(5) 0.29997(14) 0.4372(4)
H25 H 0.8508 0.2742 0.4281
C24 C 0.6450(6) 0.45128(16) 0.1095(3)
H26 H 0.7342 0.4655 0.1798
C25 C 0.4613(7) 0.4841(2) 0.0683(4)
H27 H 0.4273 0.5199 0.1111
C26 C 0.9578(7) 0.30975(18) 0.0271(4)
C27 C 0.5656(7) 0.37753(19) -0.0564(4)
H28 H 0.5983 0.3418 -0.0995
C28 C 0.3804(7) 0.4114(2) -0.0971(4)
H29 H 0.2903 0.3978 -0.1676
C29 C 1.0075(8) 0.2668(2) -0.0315(4)
H30 H 1.0472 0.2325 -0.0783
C30 C 0.3291(7) 0.4640(2) -0.0354(4)
H31 H 0.2052 0.4861 -0.0637
loop_
_geom_bond_atom_site_label_1
_geom_bond_atom_site_label_2
_geom_bond_site_symmetry_1
_geom_bond_site_symmetry_2
O1 H1 1_555 1_555
O2 H2 1_555 1_555
O3 C7 1_555 1_555
O4 C3 1_555 1_555
C1 O1 1_555 1_555
H3 C1 1_555 1_555
C2 C8 1_555 1_555
C3 C1 1_555 1_555
H4 C3 1_555 1_555
C4 O2 1_555 1_555
H5 C4 1_555 1_555
H6 C4 1_555 1_555
C5 O4 1_555 1_555
H7 C5 1_555 1_555
C6 C5 1_555 1_555
H8 C6 1_555 1_555
C7 C1 1_555 1_555
H9 C7 1_555 1_555
C8 H10 1_555 1_555
C9 O3 1_555 1_555
H11 C9 1_555 1_555
C10 C8 1_555 1_555
H12 C10 1_555 1_555
C11 C2 1_555 1_555
H13 C11 1_555 1_555
C12 C10 1_555 1_555
H14 C12 1_555 1_555
C13 C11 1_555 1_555
H15 C13 1_555 1_555
C14 C9 1_555 1_555
C15 C14 1_555 1_555
H16 C15 1_555 1_555
O5 H17 1_555 1_555
O6 C17 1_555 1_555
O7 H18 1_555 1_555
O8 C18 1_555 1_555
C16 O5 1_555 1_555
H19 C16 1_555 1_555
C17 C16 1_555 1_555
H20 C17 1_555 1_555
C18 H21 1_555 1_555
C19 C20 1_555 1_555
C20 O6 1_555 1_555
H22 C20 1_555 1_555
C21 O8 1_555 1_555
H23 C21 1_555 1_555
C22 O7 1_555 1_555
H24 C22 1_555 1_555
C23 C17 1_555 1_555
H25 C23 1_555 1_555
C24 C19 1_555 1_555
H26 C24 1_555 1_555
C25 C24 1_555 1_555
H27 C25 1_555 1_555
C26 C20 1_555 1_555
C27 C19 1_555 1_555
H28 C27 1_555 1_555
C28 C27 1_555 1_555
H29 C28 1_555 1_555
C29 C26 1_555 1_555
H30 C29 1_555 1_555
C30 C25 1_555 1_555
H31 C30 1_555 1_555
C2 C9 1_555 1_555
C3 C4 1_555 1_555
C6 C7 1_555 1_555
C12 C13 1_555 1_555
C16 C21 1_555 1_555
C18 C23 1_555 1_555
C21 C22 1_555 1_555
C28 C30 1_555 1_555

#END
