
#######################################################################
#
#                 Cambridge Crystallographic Data Centre
#                                CCDC 
#
#######################################################################
#
# If this CIF has been generated from an entry in the Cambridge 
# Structural Database, then it will include bibliographic, chemical, 
# crystal, experimental, refinement or atomic coordinate data resulting 
# from the CCDC's data processing and validation procedures.
#
#######################################################################

data_ZEPFAE
_chemical_formula_moiety         'C16 H16 O5'
_chemical_name_systematic        
1,3-dihydroxy-4-((1-phenylprop-2-yn-1-yl)oxy)-6-oxabicyclo[3.2.1]octan-7-one
_symmetry_cell_setting           monoclinic
_symmetry_space_group_name_H-M   'P 21'
_symmetry_Int_Tables_number      4
_space_group_name_Hall           'P 2yb'
loop_
_symmetry_equiv_pos_site_id
_symmetry_equiv_pos_as_xyz
1 x,y,z
2 -x,1/2+y,-z
_cell_length_a                   11.5305(5)
_cell_length_b                   5.59358(17)
_cell_length_c                   11.7690(4)
_cell_angle_alpha                90
_cell_angle_beta                 115.686(4)
_cell_angle_gamma                90
_cell_volume                     684.054
_exptl_crystal_colour            colorless
_exptl_crystal_description       plate
_cell_formula_units_Z            2
loop_
_atom_site_label
_atom_site_type_symbol
_atom_site_fract_x
_atom_site_fract_y
_atom_site_fract_z
O1 O 0.64004(14) 0.4183(3) 0.40551(13)
O2 O 0.47864(17) 0.8604(3) 0.15318(14)
O3 O 0.43948(18) 0.5460(4) 0.45421(14)
H1 H 0.4453 0.6629 0.4984
O4 O 0.26926(19) 0.3886(4) 0.00424(15)
H2 H 0.2751 0.2431 0.0132
O5 O 0.26935(19) 0.8910(4) 0.02587(16)
C1 C 0.3598(2) 0.7675(5) 0.08777(19)
C2 C 0.3660(2) 0.4990(4) 0.10985(18)
C3 C 0.4390(2) 0.6220(4) 0.33906(17)
H3 H 0.4018 0.7828 0.3202
C4 C 0.5759(2) 0.6344(5) 0.34893(17)
H4 H 0.6217 0.7710 0.4014
C5 C 0.5684(2) 0.6629(5) 0.21531(19)
H5 H 0.6535 0.6934 0.2185
C6 C 0.8463(2) 0.3547(5) 0.5812(2)
C7 C 0.7771(2) 0.4173(5) 0.44166(19)
H6 H 0.8028 0.5791 0.4301
C8 C 0.3528(2) 0.4547(5) 0.23364(19)
H7 H 0.2639 0.4785 0.2183
H8 H 0.3757 0.2903 0.2601
C9 C 0.5044(2) 0.4502(5) 0.1331(2)
H9 H 0.5360 0.3002 0.1770
H10 H 0.5145 0.4513 0.0554
C10 C 0.8045(2) 0.2548(6) 0.3582(2)
C11 C 0.8305(3) 0.5112(6) 0.6648(2)
H11 H 0.7798 0.6470 0.6350
C12 C 0.9228(2) 0.1568(6) 0.6264(3)
H12 H 0.9342 0.0519 0.5707
C13 C 0.8908(3) 0.4640(7) 0.7929(2)
H13 H 0.8789 0.5673 0.8490
C14 C 0.9675(3) 0.2670(8) 0.8378(3)
H14 H 1.0087 0.2380 0.9241
C15 C 0.8233(3) 0.1317(8) 0.2867(3)
H15 H 0.8381 0.0346 0.2302
C16 C 0.9835(3) 0.1128(8) 0.7557(3)
H16 H 1.0350 -0.0219 0.7862
loop_
_geom_bond_atom_site_label_1
_geom_bond_atom_site_label_2
_geom_bond_site_symmetry_1
_geom_bond_site_symmetry_2
O1 C4 1_555 1_555
O2 C1 1_555 1_555
O3 H1 1_555 1_555
O4 H2 1_555 1_555
O5 C1 1_555 1_555
C1 C2 1_555 1_555
C2 O4 1_555 1_555
C3 O3 1_555 1_555
H3 C3 1_555 1_555
C4 C3 1_555 1_555
H4 C4 1_555 1_555
C5 O2 1_555 1_555
H5 C5 1_555 1_555
C6 C7 1_555 1_555
C7 O1 1_555 1_555
H6 C7 1_555 1_555
C8 C2 1_555 1_555
H7 C8 1_555 1_555
H8 C8 1_555 1_555
C9 C2 1_555 1_555
H9 C9 1_555 1_555
H10 C9 1_555 1_555
C10 C7 1_555 1_555
C11 C6 1_555 1_555
H11 C11 1_555 1_555
C12 C6 1_555 1_555
H12 C12 1_555 1_555
C13 C11 1_555 1_555
H13 C13 1_555 1_555
C14 C13 1_555 1_555
H14 C14 1_555 1_555
C15 C10 1_555 1_555
H15 C15 1_555 1_555
C16 C12 1_555 1_555
H16 C16 1_555 1_555
C3 C8 1_555 1_555
C4 C5 1_555 1_555
C5 C9 1_555 1_555
C14 C16 1_555 1_555

#END
