
#######################################################################
#
#                 Cambridge Crystallographic Data Centre
#                                CCDC 
#
#######################################################################
#
# If this CIF has been generated from an entry in the Cambridge 
# Structural Database, then it will include bibliographic, chemical, 
# crystal, experimental, refinement or atomic coordinate data resulting 
# from the CCDC's data processing and validation procedures.
#
#######################################################################

data_ZEPFEI
_chemical_formula_moiety         'C19 H22 N4 O6'
_chemical_name_systematic        
"methyl (8R,10aS)-8-t-butyl-1,3-dimethyl-2,4,6-trioxo-1,3,4,6-tetrahydro-2H-[1,3]oxazolo[3'',4'':1',5']pyrrolo[3',4':5,6]pyrido[2,3-d]pyrimidine-10a(10H)-carboxylate"
_symmetry_cell_setting           monoclinic
_symmetry_space_group_name_H-M   'P 21'
_symmetry_Int_Tables_number      4
_space_group_name_Hall           'P 2yb'
loop_
_symmetry_equiv_pos_site_id
_symmetry_equiv_pos_as_xyz
1 x,y,z
2 -x,1/2+y,-z
_cell_length_a                   12.1913(2)
_cell_length_b                   13.3572(2)
_cell_length_c                   12.7427(3)
_cell_angle_alpha                90
_cell_angle_beta                 109.031(2)
_cell_angle_gamma                90
_cell_volume                     1961.63
_exptl_crystal_colour            colorless
_exptl_crystal_description       needle
_chemical_melting_point          '193-194 deg.C'
_cell_formula_units_Z            4
loop_
_atom_site_label
_atom_site_type_symbol
_atom_site_fract_x
_atom_site_fract_y
_atom_site_fract_z
O1 O 0.48670(9) 0.50000(9) 0.45347(9)
C1 C 0.50941(13) 0.42387(12) 0.38415(13)
N1 N 0.61313(11) 0.37152(10) 0.45929(10)
C2 C 0.64451(13) 0.41614(11) 0.57100(12)
C3 C 0.59223(13) 0.52056(11) 0.54213(13)
C4 C 0.71081(13) 0.35531(11) 0.42759(13)
C5 C 0.81259(13) 0.37134(11) 0.52815(13)
C6 C 0.77510(13) 0.40868(11) 0.61210(13)
C7 C 0.93052(13) 0.36060(12) 0.54783(13)
C8 C 1.00366(13) 0.38649(11) 0.65204(14)
C9 C 0.95618(13) 0.42164(11) 0.73278(13)
N2 N 0.84159(11) 0.43377(10) 0.71346(11)
C10 C 1.13026(14) 0.37361(12) 0.68080(15)
N3 N 1.19405(12) 0.39922(11) 0.78877(13)
C11 C 1.14829(15) 0.43217(13) 0.86962(15)
N4 N 1.02852(12) 0.44471(11) 0.83718(12)
C12 C 0.40179(14) 0.35830(13) 0.33654(14)
C13 C 0.30173(16) 0.42646(16) 0.27023(16)
C14 C 0.42756(19) 0.28185(17) 0.25810(18)
C15 C 0.36893(16) 0.30370(15) 0.42671(16)
C16 C 0.59143(12) 0.36075(13) 0.64834(12)
O2 O 0.53487(11) 0.40057(10) 0.69751(10)
O3 O 0.61771(11) 0.26378(9) 0.65403(10)
C17 C 0.56445(17) 0.20490(15) 0.72023(16)
O4 O 0.71047(10) 0.33446(9) 0.33457(9)
O5 O 1.17540(10) 0.34326(11) 0.61496(12)
C18 C 1.32030(15) 0.38254(16) 0.82502(19)
O6 O 1.21000(12) 0.45153(12) 0.96295(12)
C19 C 0.97860(16) 0.47769(17) 0.92204(15)
H1 H 0.5307 0.4552 0.3239
H2 H 0.6431 0.5618 0.5182
H3 H 0.5727 0.5510 0.6040
H4 H 0.9602 0.3354 0.4948
H5 H 0.2321 0.3843 0.2349
H6 H 0.3231 0.4609 0.2130
H7 H 0.2829 0.4750 0.3192
H8 H 0.3616 0.2375 0.2290
H9 H 0.4957 0.2419 0.2985
H10 H 0.4421 0.3171 0.1979
H11 H 0.2989 0.2668 0.3931
H12 H 0.4313 0.2592 0.4686
H13 H 0.3555 0.3523 0.4768
H14 H 0.5841 0.1355 0.7141
H15 H 0.5920 0.2262 0.7984
H16 H 0.4796 0.2123 0.6918
H17 H 1.3600 0.4436 0.8530
H18 H 1.3434 0.3629 0.7639
H19 H 1.3431 0.3346 0.8815
H20 H 1.0380 0.4785 0.9954
H21 H 0.9480 0.5452 0.9040
H22 H 0.9189 0.4313 0.9250
O7 O 0.83670(10) 0.44424(9) 0.13626(9)
C20 C 0.74589(13) 0.49883(13) 0.15864(13)
N5 N 0.80989(11) 0.57344(10) 0.24262(11)
C21 C 0.93510(12) 0.55748(11) 0.26886(12)
C22 C 0.93626(13) 0.44797(12) 0.23365(13)
C23 C 0.78113(13) 0.59262(12) 0.33778(12)
C24 C 0.89185(12) 0.60795(12) 0.42882(12)
C25 C 0.98286(13) 0.58186(11) 0.39129(12)
C26 C 0.91685(13) 0.63719(12) 0.53839(13)
C27 C 1.03286(13) 0.63675(11) 0.60405(12)
C28 C 1.11824(13) 0.60676(11) 0.55763(12)
N6 N 1.09445(11) 0.58080(10) 0.45030(11)
C29 C 1.06740(14) 0.66863(12) 0.72116(13)
N7 N 1.18501(12) 0.66432(10) 0.77750(11)
C30 C 1.26985(14) 0.63085(12) 0.73402(13)
N8 N 1.23257(11) 0.60258(10) 0.62308(10)
C31 C 0.66280(14) 0.54090(15) 0.05055(13)
C32 C 0.61902(18) 0.45309(19) -0.02917(17)
C33 C 0.56003(16) 0.58973(18) 0.07470(15)
C34 C 0.72238(18) 0.61815(18) -0.00034(16)
C35 C 0.98709(13) 0.63224(12) 0.20649(12)
O8 O 0.95657(12) 0.71742(9) 0.18999(12)
O9 O 1.07340(10) 0.59161(10) 0.17914(10)
C36 C 1.13360(19) 0.66014(17) 0.12886(19)
O10 O 0.68344(9) 0.59184(10) 0.34321(9)
O11 O 0.99775(11) 0.69700(10) 0.76523(10)
C37 C 1.22959(17) 0.70011(14) 0.89300(13)
O12 O 1.37065(10) 0.62558(10) 0.79154(9)
C38 C 1.32073(14) 0.56884(14) 0.57530(14)
H23 H 0.7048 0.4545 0.1939
H24 H 1.0043 0.4308 0.2120
H25 H 0.9269 0.4045 0.2923
H26 H 0.8582 0.6580 0.5681
H27 H 0.5619 0.4767 -0.0981
H28 H 0.6832 0.4215 -0.0460
H29 H 0.5822 0.4032 0.0046
H30 H 0.5054 0.6158 0.0058
H31 H 0.5882 0.6465 0.1273
H32 H 0.5204 0.5415 0.1052
H33 H 0.6675 0.6428 -0.0685
H34 H 0.7523 0.6755 0.0497
H35 H 0.7889 0.5897 -0.0156
H36 H 1.1895 0.6209 0.1073
H37 H 1.1731 0.7109 0.1841
H38 H 1.0794 0.6938 0.0653
H39 H 1.2918 0.7474 0.9024
H40 H 1.1672 0.7306 0.9115
H41 H 1.2583 0.6451 0.9416
H42 H 1.3919 0.5567 0.6345
H43 H 1.3316 0.6188 0.5265
H44 H 1.2940 0.5088 0.5347
loop_
_geom_bond_atom_site_label_1
_geom_bond_atom_site_label_2
_geom_bond_site_symmetry_1
_geom_bond_site_symmetry_2
O1 C1 1_555 1_555
C1 N1 1_555 1_555
N1 C2 1_555 1_555
C2 C3 1_555 1_555
C3 O1 1_555 1_555
C4 N1 1_555 1_555
C5 C4 1_555 1_555
C6 C2 1_555 1_555
C7 C5 1_555 1_555
C8 C7 1_555 1_555
C9 C8 1_555 1_555
N2 C6 1_555 1_555
C10 C8 1_555 1_555
N3 C10 1_555 1_555
C11 N3 1_555 1_555
N4 C9 1_555 1_555
C12 C1 1_555 1_555
C13 C12 1_555 1_555
C14 C12 1_555 1_555
C15 C12 1_555 1_555
C16 C2 1_555 1_555
O2 C16 1_555 1_555
O3 C16 1_555 1_555
C17 O3 1_555 1_555
O4 C4 1_555 1_555
O5 C10 1_555 1_555
C18 N3 1_555 1_555
O6 C11 1_555 1_555
C19 N4 1_555 1_555
H1 C1 1_555 1_555
H2 C3 1_555 1_555
H3 C3 1_555 1_555
H4 C7 1_555 1_555
H5 C13 1_555 1_555
H6 C13 1_555 1_555
H7 C13 1_555 1_555
H8 C14 1_555 1_555
H9 C14 1_555 1_555
H10 C14 1_555 1_555
H11 C15 1_555 1_555
H12 C15 1_555 1_555
H13 C15 1_555 1_555
H14 C17 1_555 1_555
H15 C17 1_555 1_555
H16 C17 1_555 1_555
H17 C18 1_555 1_555
H18 C18 1_555 1_555
H19 C18 1_555 1_555
H20 C19 1_555 1_555
H21 C19 1_555 1_555
H22 C19 1_555 1_555
O7 C20 1_555 1_555
C20 N5 1_555 1_555
N5 C21 1_555 1_555
C21 C22 1_555 1_555
C22 O7 1_555 1_555
C23 N5 1_555 1_555
C24 C23 1_555 1_555
C25 C21 1_555 1_555
C26 C24 1_555 1_555
C27 C26 1_555 1_555
C28 C27 1_555 1_555
N6 C25 1_555 1_555
C29 C27 1_555 1_555
N7 C29 1_555 1_555
C30 N7 1_555 1_555
N8 C28 1_555 1_555
C31 C20 1_555 1_555
C32 C31 1_555 1_555
C33 C31 1_555 1_555
C34 C31 1_555 1_555
C35 C21 1_555 1_555
O8 C35 1_555 1_555
O9 C35 1_555 1_555
C36 O9 1_555 1_555
O10 C23 1_555 1_555
O11 C29 1_555 1_555
C37 N7 1_555 1_555
O12 C30 1_555 1_555
C38 N8 1_555 1_555
H23 C20 1_555 1_555
H24 C22 1_555 1_555
H25 C22 1_555 1_555
H26 C26 1_555 1_555
H27 C32 1_555 1_555
H28 C32 1_555 1_555
H29 C32 1_555 1_555
H30 C33 1_555 1_555
H31 C33 1_555 1_555
H32 C33 1_555 1_555
H33 C34 1_555 1_555
H34 C34 1_555 1_555
H35 C34 1_555 1_555
H36 C36 1_555 1_555
H37 C36 1_555 1_555
H38 C36 1_555 1_555
H39 C37 1_555 1_555
H40 C37 1_555 1_555
H41 C37 1_555 1_555
H42 C38 1_555 1_555
H43 C38 1_555 1_555
H44 C38 1_555 1_555
C5 C6 1_555 1_555
C9 N2 1_555 1_555
C11 N4 1_555 1_555
C24 C25 1_555 1_555
C28 N6 1_555 1_555
C30 N8 1_555 1_555

#END
