
#######################################################################
#
#                 Cambridge Crystallographic Data Centre
#                                CCDC 
#
#######################################################################
#
# If this CIF has been generated from an entry in the Cambridge 
# Structural Database, then it will include bibliographic, chemical, 
# crystal, experimental, refinement or atomic coordinate data resulting 
# from the CCDC's data processing and validation procedures.
#
#######################################################################

data_ZEPGAF
_chemical_formula_moiety         'C13 H19 N1 O1'
_chemical_name_systematic        2-(4-t-butylphenyl)propanamide
_symmetry_cell_setting           monoclinic
_symmetry_space_group_name_H-M   'P 21/c'
_symmetry_Int_Tables_number      14
_space_group_name_Hall           '-P 2ybc'
loop_
_symmetry_equiv_pos_site_id
_symmetry_equiv_pos_as_xyz
1 x,y,z
2 -x,1/2+y,1/2-z
3 -x,-y,-z
4 x,1/2-y,1/2+z
_cell_length_a                   19.555(6)
_cell_length_b                   6.165(2)
_cell_length_c                   10.117(3)
_cell_angle_alpha                90
_cell_angle_beta                 98.628(6)
_cell_angle_gamma                90
_cell_volume                     1205.87
_exptl_crystal_colour            colorless
_exptl_crystal_description       block
_cell_formula_units_Z            4
loop_
_atom_site_label
_atom_site_type_symbol
_atom_site_fract_x
_atom_site_fract_y
_atom_site_fract_z
O1 O 0.44947(9) 0.7828(3) -0.08822(15)
N1 N 0.46249(10) 0.8440(3) 0.13127(17)
H1 H 0.4922 0.9452 0.1258
H2 H 0.4511 0.8108 0.2076
C1 C 0.12653(12) 0.9225(4) 0.1918(2)
C2 C 0.09453(15) 1.0975(5) 0.0957(3)
H3 H 0.0855 1.0392 0.0068
H4 H 0.1260 1.2174 0.0974
H5 H 0.0520 1.1463 0.1222
C3 C 0.14354(18) 1.0245(6) 0.3288(3)
H6 H 0.1021 1.0823 0.3555
H7 H 0.1765 1.1392 0.3258
H8 H 0.1628 0.9166 0.3921
C4 C 0.07308(16) 0.7470(6) 0.1925(4)
H9 H 0.0895 0.6411 0.2593
H10 H 0.0649 0.6785 0.1063
H11 H 0.0308 0.8094 0.2121
C5 C 0.19331(11) 0.8319(3) 0.15133(19)
C6 C 0.23140(12) 0.9429(4) 0.0698(2)
H12 H 0.2159 1.0776 0.0364
C7 C 0.29207(12) 0.8603(4) 0.0360(2)
H13 H 0.3162 0.9399 -0.0199
C8 C 0.31756(10) 0.6620(3) 0.08353(19)
C9 C 0.28026(12) 0.5509(4) 0.1655(2)
H14 H 0.2962 0.4170 0.1994
C10 C 0.21941(12) 0.6332(4) 0.1989(2)
H15 H 0.1954 0.5531 0.2548
C11 C 0.38207(11) 0.5647(4) 0.0406(2)
H16 H 0.4032 0.4677 0.1120
C12 C 0.43425(11) 0.7391(4) 0.0219(2)
C13 C 0.36351(14) 0.4301(4) -0.0860(3)
H17 H 0.3427 0.5219 -0.1575
H18 H 0.3315 0.3182 -0.0705
H19 H 0.4046 0.3655 -0.1097
loop_
_geom_bond_atom_site_label_1
_geom_bond_atom_site_label_2
_geom_bond_site_symmetry_1
_geom_bond_site_symmetry_2
O1 C12 1_555 1_555
N1 H1 1_555 1_555
H2 N1 1_555 1_555
C1 C2 1_555 1_555
C2 H3 1_555 1_555
H4 C2 1_555 1_555
H5 C2 1_555 1_555
C3 C1 1_555 1_555
H6 C3 1_555 1_555
H7 C3 1_555 1_555
H8 C3 1_555 1_555
C4 C1 1_555 1_555
H9 C4 1_555 1_555
H10 C4 1_555 1_555
H11 C4 1_555 1_555
C5 C1 1_555 1_555
C6 C5 1_555 1_555
H12 C6 1_555 1_555
C7 C6 1_555 1_555
H13 C7 1_555 1_555
C8 C7 1_555 1_555
C9 C8 1_555 1_555
H14 C9 1_555 1_555
C10 C5 1_555 1_555
H15 C10 1_555 1_555
C11 C8 1_555 1_555
H16 C11 1_555 1_555
C12 N1 1_555 1_555
C13 C11 1_555 1_555
H17 C13 1_555 1_555
H18 C13 1_555 1_555
H19 C13 1_555 1_555
C9 C10 1_555 1_555
C11 C12 1_555 1_555

#END
