
#######################################################################
#
#                 Cambridge Crystallographic Data Centre
#                                CCDC 
#
#######################################################################
#
# If this CIF has been generated from an entry in the Cambridge 
# Structural Database, then it will include bibliographic, chemical, 
# crystal, experimental, refinement or atomic coordinate data resulting 
# from the CCDC's data processing and validation procedures.
#
#######################################################################

data_ZEPGEJ
_chemical_formula_moiety         'C9 H10 Cl1 N1 O1'
_chemical_name_systematic        3-(4-chlorophenyl)propanamide
_symmetry_cell_setting           monoclinic
_symmetry_space_group_name_H-M   'C 2/c'
_symmetry_Int_Tables_number      15
_space_group_name_Hall           '-C 2yn'
loop_
_symmetry_equiv_pos_site_id
_symmetry_equiv_pos_as_xyz
1 x,y,z
2 -x,y,1/2-z
3 1/2+x,1/2+y,z
4 1/2-x,1/2+y,1/2-z
5 -x,-y,-z
6 x,-y,1/2+z
7 1/2-x,1/2-y,-z
8 1/2+x,1/2-y,1/2+z
_cell_length_a                   27.159(13)
_cell_length_b                   7.490(4)
_cell_length_c                   9.539(5)
_cell_angle_alpha                90
_cell_angle_beta                 106.510(8)
_cell_angle_gamma                90
_cell_volume                     1860.43
_exptl_crystal_colour            colorless
_exptl_crystal_description       block
_cell_formula_units_Z            8
loop_
_atom_site_label
_atom_site_type_symbol
_atom_site_fract_x
_atom_site_fract_y
_atom_site_fract_z
Cl1 Cl 0.03584(6) 0.14735(19) 0.61094(18)
O1 O 0.21826(9) 1.0520(3) 1.05085(19)
N1 N 0.23130(11) 1.1061(4) 0.8360(3)
H1 H 0.2484 1.2016 0.8683
H2 H 0.2267 1.0739 0.7467
C1 C 0.11716(13) 0.6219(4) 0.8518(4)
C2 C 0.06707(16) 0.3290(5) 0.7069(5)
C3 C 0.14578(14) 0.7822(5) 0.9289(4)
H3 H 0.1216 0.8779 0.9279
H4 H 0.1626 0.7519 1.0301
C4 C 0.18452(15) 0.8445(4) 0.8590(4)
H5 H 0.1677 0.8652 0.7562
H6 H 0.2095 0.7499 0.8655
C5 C 0.21246(11) 1.0104(4) 0.9226(3)
C6 C 0.1232(3) 0.4691(10) 0.9262(9)
H7 H 0.1431 0.4654 1.0233
C7 C 0.0897(3) 0.6333(10) 0.7126(9)
H8 H 0.0859 0.7426 0.6643
C8 C 0.0671(3) 0.4832(13) 0.6406(9)
H9 H 0.0510 0.4904 0.5407
C9 C 0.0998(3) 0.3166(12) 0.8579(10)
H10 H 0.1047 0.2077 0.9068
C10? C 0.1378(3) 0.4523(11) 0.8553(10)
H11? H 0.1718 0.4335 0.9094
C11? C 0.0655(3) 0.6350(9) 0.7661(7)
H12? H 0.0488 0.7446 0.7598
C12? C 0.0395(3) 0.4945(10) 0.6933(8)
H13? H 0.0055 0.5041 0.6371
C13? C 0.1095(4) 0.3084(12) 0.7806(11)
H14? H 0.1242 0.1954 0.7891
loop_
_geom_bond_atom_site_label_1
_geom_bond_atom_site_label_2
_geom_bond_site_symmetry_1
_geom_bond_site_symmetry_2
Cl1 C2 1_555 1_555
O1 C5 1_555 1_555
N1 H1 1_555 1_555
H2 N1 1_555 1_555
C1 C3 1_555 1_555
C2 C8 1_555 1_555
C3 H3 1_555 1_555
H4 C3 1_555 1_555
C4 C3 1_555 1_555
H5 C4 1_555 1_555
H6 C4 1_555 1_555
C5 N1 1_555 1_555
C6 C1 1_555 1_555
H7 C6 1_555 1_555
C7 C1 1_555 1_555
H8 C7 1_555 1_555
C8 C7 1_555 1_555
H9 C8 1_555 1_555
C9 C2 1_555 1_555
H10 C9 1_555 1_555
C4 C5 1_555 1_555
C6 C9 1_555 1_555

#END
