
#######################################################################
#
#                 Cambridge Crystallographic Data Centre
#                                CCDC 
#
#######################################################################
#
# If this CIF has been generated from an entry in the Cambridge 
# Structural Database, then it will include bibliographic, chemical, 
# crystal, experimental, refinement or atomic coordinate data resulting 
# from the CCDC's data processing and validation procedures.
#
#######################################################################

data_ZEQQOE
_chemical_formula_moiety         'C18 H17 F2 O3 P1'
_chemical_name_systematic        
'Dimethyl (E)-(2-(3,4-difluorophenyl)-3-phenylbuta-1,3-dien-1-yl)phosphonate'
_symmetry_cell_setting           triclinic
_symmetry_space_group_name_H-M   'P -1'
_symmetry_Int_Tables_number      2
_space_group_name_Hall           '-P 1'
loop_
_symmetry_equiv_pos_site_id
_symmetry_equiv_pos_as_xyz
1 x,y,z
2 -x,-y,-z
_cell_length_a                   5.8194(8)
_cell_length_b                   12.261(3)
_cell_length_c                   12.504(2)
_cell_angle_alpha                80.030(16)
_cell_angle_beta                 85.704(12)
_cell_angle_gamma                79.773(15)
_cell_volume                     863.849
_exptl_crystal_colour            colorless
_exptl_crystal_description       needle
_cell_formula_units_Z            2
loop_
_atom_site_label
_atom_site_type_symbol
_atom_site_fract_x
_atom_site_fract_y
_atom_site_fract_z
P1 P 0.52852(17) 0.42972(8) 0.24984(8)
O1 O 0.5903(5) 0.4811(2) 0.3467(2)
O2 O 0.7037(7) 0.3996(3) 0.1740(3)
C1 C 0.2133(4) 0.1517(3) 0.3639(2)
F1 F 0.6251(5) 0.1185(2) -0.11550(19)
C2 C 0.3391(4) 0.2332(3) 0.2918(2)
C3 C 0.3758(4) 0.3266(3) 0.3220(2)
H1 H 0.3128 0.3393 0.3902
C4 C 0.1427(5) 0.1744(2) 0.4751(2)
O3 O 0.3301(5) 0.5323(2) 0.2063(3)
C5 C 0.2893(6) 0.1371(3) 0.5594(3)
H2 H 0.4387 0.0986 0.5463
C6 C 0.1710(6) 0.0600(3) 0.3335(3)
H3 H 0.0967 0.0094 0.3819
H4 H 0.2154 0.0458 0.2635
C7 C 0.2192(8) 0.1556(3) 0.6625(3)
H5 H 0.3213 0.1293 0.7186
C8 C 0.0058(9) 0.2111(4) 0.6837(4)
H6 H -0.0400 0.2241 0.7539
C9 C -0.1421(7) 0.2478(4) 0.6024(5)
H7 H -0.2912 0.2859 0.6168
C10 C -0.0746(6) 0.2297(3) 0.4978(3)
H8 H -0.1787 0.2554 0.4425
C11 C 0.7078(4) 0.1144(2) 0.0659(3)
H9 H 0.8559 0.0734 0.0553
C12 C 0.6365(3) 0.1437(2) 0.1672(2)
H10 H 0.7369 0.1224 0.2244
C13 C 0.4151(4) 0.20496(19) 0.18301(15)
C14 C 0.2650(3) 0.2369(2) 0.0975(2)
H11 H 0.1169 0.2778 0.1081
C15 C 0.3363(5) 0.2075(2) -0.00377(17)
C16 C 0.5577(6) 0.1463(2) -0.01961(19)
F2 F 0.2055(7) 0.2310(4) -0.0846(3)
C17 C 0.7543(7) 0.5487(4) 0.3450(4)
H12 H 0.8937 0.5190 0.3064
H13 H 0.7897 0.5515 0.4181
H14 H 0.6945 0.6231 0.3092
C18 C 0.2297(10) 0.5406(5) 0.1078(6)
H15 H 0.3440 0.5094 0.0570
H16 H 0.1745 0.6182 0.0801
H17 H 0.1010 0.5000 0.1178
H18? H 0.2359 0.2289 -0.0610
F3? F 0.8902(15) 0.0630(10) 0.0387(10)
O4? O 0.449(2) 0.4704(12) 0.1338(12)
C19? C 0.327(5) 0.580(2) 0.094(2)
H19? H 0.2301 0.5759 0.0360
H20? H 0.4376 0.6290 0.0663
H21? H 0.2309 0.6096 0.1513
O5? O 0.811(2) 0.3639(13) 0.2133(15)
loop_
_geom_bond_atom_site_label_1
_geom_bond_atom_site_label_2
_geom_bond_site_symmetry_1
_geom_bond_site_symmetry_2
P1 O1 1_555 1_555
O1 C17 1_555 1_555
O2 P1 1_555 1_555
C1 C2 1_555 1_555
F1 C16 1_555 1_555
C2 C3 1_555 1_555
C3 P1 1_555 1_555
H1 C3 1_555 1_555
C4 C1 1_555 1_555
O3 P1 1_555 1_555
C5 C4 1_555 1_555
H2 C5 1_555 1_555
C6 C1 1_555 1_555
H3 C6 1_555 1_555
H4 C6 1_555 1_555
C7 C5 1_555 1_555
H5 C7 1_555 1_555
C8 C7 1_555 1_555
H6 C8 1_555 1_555
C9 C8 1_555 1_555
H7 C9 1_555 1_555
C10 C4 1_555 1_555
H8 C10 1_555 1_555
C11 H9 1_555 1_555
C12 C11 1_555 1_555
H10 C12 1_555 1_555
C13 C2 1_555 1_555
C14 C13 1_555 1_555
H11 C14 1_555 1_555
C15 C14 1_555 1_555
C16 C11 1_555 1_555
F2 C15 1_555 1_555
C17 H12 1_555 1_555
H13 C17 1_555 1_555
H14 C17 1_555 1_555
C18 O3 1_555 1_555
H15 C18 1_555 1_555
H16 C18 1_555 1_555
H17 C18 1_555 1_555
C9 C10 1_555 1_555
C12 C13 1_555 1_555
C15 C16 1_555 1_555

#END
