
#######################################################################
#
#                 Cambridge Crystallographic Data Centre
#                                CCDC 
#
#######################################################################
#
# If this CIF has been generated from an entry in the Cambridge 
# Structural Database, then it will include bibliographic, chemical, 
# crystal, experimental, refinement or atomic coordinate data resulting 
# from the CCDC's data processing and validation procedures.
#
#######################################################################

data_ZEQSEW
_chemical_formula_moiety         'C20 H20 Br2 N2 O4'
_chemical_name_systematic        
'methyl 2,5-bis(2-bromophenyl)-1-(2-methoxy-2-oxoethyl)imidazolidine-4-carboxylate'
_symmetry_cell_setting           monoclinic
_symmetry_space_group_name_H-M   'P 21/c'
_symmetry_Int_Tables_number      14
_space_group_name_Hall           '-P 2ybc'
loop_
_symmetry_equiv_pos_site_id
_symmetry_equiv_pos_as_xyz
1 x,y,z
2 -x,1/2+y,1/2-z
3 -x,-y,-z
4 x,1/2-y,1/2+z
_cell_length_a                   9.661(3)
_cell_length_b                   10.438(3)
_cell_length_c                   21.066(6)
_cell_angle_alpha                90
_cell_angle_beta                 100.152(5)
_cell_angle_gamma                90
_cell_volume                     2091.07
_cell_formula_units_Z            4
loop_
_atom_site_label
_atom_site_type_symbol
_atom_site_fract_x
_atom_site_fract_y
_atom_site_fract_z
Br1 Br 1.38212(11) 0.64330(11) 0.36097(6)
Br2 Br 0.64387(15) 0.73266(15) 0.12882(5)
N1 N 0.9252(7) 0.7502(5) 0.3266(3)
C1 C 1.3031(9) 0.7763(8) 0.4050(4)
N2 N 1.0725(9) 0.8597(9) 0.2693(3)
H1 H 1.1381 0.9133 0.2656
C2 C 0.8382(11) 0.6528(8) 0.4195(4)
C3 C 1.0732(8) 0.7642(7) 0.3229(3)
H2 H 1.1108 0.6822 0.3110
C4 C 1.1654(8) 0.8161(7) 0.3842(4)
O1 O 0.8030(10) 0.5410(6) 0.4422(3)
C5 C 0.8488(9) 0.7658(8) 0.2619(4)
H3 H 0.8364 0.6812 0.2414
C6 C 1.3309(12) 0.9239(9) 0.4911(5)
H4 H 1.3874 0.9618 0.5264
C7 C 0.9479(9) 0.8452(10) 0.2277(4)
H5 H 0.9079 0.9227 0.2055
C8 C 0.6036(12) 0.8208(11) 0.2043(5)
C9 C 1.1123(10) 0.9113(8) 0.4181(4)
H6 H 1.0201 0.9388 0.4051
O2 O 0.8236(11) 0.7514(6) 0.4470(3)
C10 C 0.6745(11) 0.8967(10) 0.3104(5)
H7 H 0.7419 0.9027 0.3477
C11 C 1.1945(11) 0.9666(8) 0.4714(4)
H8 H 1.1586 1.0318 0.4938
C12 C 0.7076(9) 0.8271(8) 0.2572(4)
C13 C 0.8934(13) 0.6344(8) 0.3592(4)
H9 H 0.9784 0.5834 0.3688
H10 H 0.8251 0.5853 0.3296
C14 C 0.5467(14) 0.9554(13) 0.3089(7)
H11 H 0.5287 1.0038 0.3436
C15 C 1.3817(10) 0.8289(10) 0.4599(5)
H12 H 1.4714 0.7975 0.4753
C16 C 0.4716(14) 0.8773(15) 0.2011(8)
H13 H 0.4031 0.8721 0.1642
C17 C 0.4480(14) 0.9406(15) 0.2552(9)
H14 H 0.3592 0.9753 0.2549
O3 O 1.0472(9) 0.6287(6) 0.1896(4)
O4 O 1.0690(18) 0.8080(8) 0.1357(6)
C18 C 1.0316(18) 0.7424(10) 0.1837(7)
C19 C 0.747(2) 0.5427(13) 0.5008(7)
H15 H 0.7575 0.6268 0.5194
H16 H 0.7967 0.4819 0.5306
H17 H 0.6490 0.5204 0.4917
C20 C 1.128(2) 0.7328(12) 0.0913(7)
H18 H 1.1613 0.6533 0.1113
H19 H 1.2050 0.7783 0.0785
H20 H 1.0576 0.7159 0.0540
loop_
_geom_bond_atom_site_label_1
_geom_bond_atom_site_label_2
_geom_bond_site_symmetry_1
_geom_bond_site_symmetry_2
Br1 C1 1_555 1_555
Br2 C8 1_555 1_555
N1 C3 1_555 1_555
C1 C4 1_555 1_555
N2 H1 1_555 1_555
C2 O1 1_555 1_555
C3 N2 1_555 1_555
H2 C3 1_555 1_555
C4 C3 1_555 1_555
O1 C19 1_555 1_555
C5 N1 1_555 1_555
H3 C5 1_555 1_555
C6 H4 1_555 1_555
C7 N2 1_555 1_555
H5 C7 1_555 1_555
C8 C12 1_555 1_555
C9 C4 1_555 1_555
H6 C9 1_555 1_555
O2 C2 1_555 1_555
C10 H7 1_555 1_555
C11 C6 1_555 1_555
H8 C11 1_555 1_555
C12 C5 1_555 1_555
C13 N1 1_555 1_555
H9 C13 1_555 1_555
H10 C13 1_555 1_555
C14 C10 1_555 1_555
H11 C14 1_555 1_555
C15 C1 1_555 1_555
H12 C15 1_555 1_555
C16 C8 1_555 1_555
H13 C16 1_555 1_555
C17 C14 1_555 1_555
H14 C17 1_555 1_555
O3 C18 1_555 1_555
O4 C18 1_555 1_555
C18 C7 1_555 1_555
C19 H15 1_555 1_555
H16 C19 1_555 1_555
H17 C19 1_555 1_555
C20 O4 1_555 1_555
H18 C20 1_555 1_555
H19 C20 1_555 1_555
H20 C20 1_555 1_555
C2 C13 1_555 1_555
C5 C7 1_555 1_555
C6 C15 1_555 1_555
C9 C11 1_555 1_555
C10 C12 1_555 1_555
C16 C17 1_555 1_555

#END
