
#######################################################################
#
#                 Cambridge Crystallographic Data Centre
#                                CCDC 
#
#######################################################################
#
# If this CIF has been generated from an entry in the Cambridge 
# Structural Database, then it will include bibliographic, chemical, 
# crystal, experimental, refinement or atomic coordinate data resulting 
# from the CCDC's data processing and validation procedures.
#
#######################################################################

data_ZERJEL01
_chemical_formula_moiety         'C42 H30 S6'
_chemical_name_systematic        hexakis(Phenylthio)benzene
_symmetry_cell_setting           triclinic
_symmetry_space_group_name_H-M   'P -1'
_symmetry_Int_Tables_number      2
_space_group_name_Hall           '-P 1'
loop_
_symmetry_equiv_pos_site_id
_symmetry_equiv_pos_as_xyz
1 x,y,z
2 -x,-y,-z
_cell_length_a                   9.5614(7)
_cell_length_b                   10.2088(13)
_cell_length_c                   10.6193(11)
_cell_angle_alpha                68.448(10)
_cell_angle_beta                 76.976(9)
_cell_angle_gamma                65.616(8)
_cell_volume                     874.756
_chemical_melting_point          178-179deg.C
_cell_formula_units_Z            1
loop_
_atom_site_label
_atom_site_type_symbol
_atom_site_fract_x
_atom_site_fract_y
_atom_site_fract_z
S1 S -0.00059(5) -0.23013(5) 0.29846(4)
S2 S 0.30876(4) -0.18786(5) 0.14900(4)
S3 S -0.31586(4) -0.03463(4) 0.15305(5)
C1 C -0.0041(2) -0.1032(2) 0.1313(2)
C2 C 0.1352(2) -0.0842(2) 0.0672(2)
C3 C -0.1409(2) -0.0151(2) 0.0661(2)
C4 C -0.0958(2) -0.3473(2) 0.3005(2)
C5 C -0.0906(2) -0.3925(2) 0.1907(2)
C6 C -0.1569(3) -0.4975(3) 0.2077(3)
C7 C -0.2240(3) -0.5583(3) 0.3339(3)
C8 C -0.2297(3) -0.5126(3) 0.4419(3)
C9 C -0.1672(2) -0.4062(2) 0.4259(2)
C10 C 0.2794(2) -0.1151(2) 0.2846(2)
C11 C 0.1527(2) 0.0048(2) 0.3115(2)
C12 C 0.1514(2) 0.0559(2) 0.4162(2)
C13 C 0.2757(3) -0.0106(3) 0.4933(2)
C14 C 0.4022(2) -0.1303(3) 0.4667(2)
C15 C 0.4044(2) -0.1833(2) 0.3633(2)
C16 C -0.4400(2) 0.1526(2) 0.1480(2)
C17 C -0.3929(2) 0.2564(2) 0.1646(2)
C18 C -0.5010(3) 0.3950(2) 0.1724(2)
C19 C -0.6557(3) 0.4283(2) 0.1690(2)
C20 C -0.7017(2) 0.3248(2) 0.1505(3)
C21 C -0.5946(2) 0.1886(2) 0.1375(3)
H1 H -0.044(3) -0.343(3) 0.100(2)
H2 H -0.141(3) -0.530(3) 0.123(3)
H3 H -0.259(4) -0.635(3) 0.328(3)
H4 H -0.274(3) -0.564(3) 0.532(2)
H5 H -0.166(3) -0.378(3) 0.506(2)
H6 H 0.069(3) 0.051(3) 0.260(2)
H7 H 0.066(3) 0.137(3) 0.441(3)
H8 H 0.280(3) 0.018(3) 0.562(3)
H9 H 0.494(3) -0.182(3) 0.523(2)
H10 H 0.490(3) -0.259(2) 0.343(2)
H11 H -0.285(3) 0.222(3) 0.182(3)
H12 H -0.472(3) 0.480(3) 0.174(3)
H13 H -0.723(3) 0.531(3) 0.190(2)
H14 H -0.822(3) 0.350(3) 0.149(3)
H15 H -0.628(3) 0.119(3) 0.108(3)
C3A C 0.1409(2) 0.0151(2) -0.0661(2)
S3A S 0.31586(4) 0.03463(4) -0.15305(5)
C16A C 0.4400(2) -0.1526(2) -0.1480(2)
C17A C 0.3929(2) -0.2564(2) -0.1646(2)
C18A C 0.5010(3) -0.3950(2) -0.1724(2)
C19A C 0.6557(3) -0.4283(2) -0.1690(2)
C20A C 0.7017(2) -0.3248(2) -0.1505(3)
C21A C 0.5946(2) -0.1886(2) -0.1375(3)
H15A H 0.628(3) -0.119(3) -0.108(3)
H14A H 0.822(3) -0.350(3) -0.149(3)
H13A H 0.723(3) -0.531(3) -0.190(2)
H12A H 0.472(3) -0.480(3) -0.174(3)
H11A H 0.285(3) -0.222(3) -0.182(3)
C1A C 0.0041(2) 0.1032(2) -0.1313(2)
S1A S 0.00059(5) 0.23013(5) -0.29846(4)
C4A C 0.0958(2) 0.3473(2) -0.3005(2)
C5A C 0.0906(2) 0.3925(2) -0.1907(2)
C6A C 0.1569(3) 0.4975(3) -0.2077(3)
C7A C 0.2240(3) 0.5583(3) -0.3339(3)
C8A C 0.2297(3) 0.5126(3) -0.4419(3)
C9A C 0.1672(2) 0.4062(2) -0.4259(2)
H5A H 0.166(3) 0.378(3) -0.506(2)
H4A H 0.274(3) 0.564(3) -0.532(2)
H3A H 0.259(4) 0.635(3) -0.328(3)
H2A H 0.141(3) 0.530(3) -0.123(3)
H1A H 0.044(3) 0.343(3) -0.100(2)
C2A C -0.1352(2) 0.0842(2) -0.0672(2)
S2A S -0.30876(4) 0.18786(5) -0.14900(4)
C10A C -0.2794(2) 0.1151(2) -0.2846(2)
C11A C -0.1527(2) -0.0048(2) -0.3115(2)
C12A C -0.1514(2) -0.0559(2) -0.4162(2)
C13A C -0.2757(3) 0.0106(3) -0.4933(2)
C14A C -0.4022(2) 0.1303(3) -0.4667(2)
C15A C -0.4044(2) 0.1833(2) -0.3633(2)
H10A H -0.490(3) 0.259(2) -0.343(2)
H9A H -0.494(3) 0.182(3) -0.523(2)
H8A H -0.280(3) -0.018(3) -0.562(3)
H7A H -0.066(3) -0.137(3) -0.441(3)
H6A H -0.069(3) -0.051(3) -0.260(2)
loop_
_geom_bond_atom_site_label_1
_geom_bond_atom_site_label_2
_geom_bond_site_symmetry_1
_geom_bond_site_symmetry_2
S1 C1 1_555 1_555
S2 C2 1_555 1_555
S3 C3 1_555 1_555
C1 C2 1_555 1_555
C2 C3A 1_555 1_555
C3 C1 1_555 1_555
C4 S1 1_555 1_555
C5 C4 1_555 1_555
C6 C5 1_555 1_555
C7 C6 1_555 1_555
C8 C7 1_555 1_555
C9 C4 1_555 1_555
C10 S2 1_555 1_555
C11 C10 1_555 1_555
C12 C11 1_555 1_555
C13 C12 1_555 1_555
C14 C13 1_555 1_555
C15 C10 1_555 1_555
C16 S3 1_555 1_555
C17 C16 1_555 1_555
C18 C17 1_555 1_555
C19 C18 1_555 1_555
C20 C19 1_555 1_555
C21 C16 1_555 1_555
H1 C5 1_555 1_555
H2 C6 1_555 1_555
H3 C7 1_555 1_555
H4 C8 1_555 1_555
H5 C9 1_555 1_555
H6 C11 1_555 1_555
H7 C12 1_555 1_555
H8 C13 1_555 1_555
H9 C14 1_555 1_555
H10 C15 1_555 1_555
H11 C17 1_555 1_555
H12 C18 1_555 1_555
H13 C19 1_555 1_555
H14 C20 1_555 1_555
H15 C21 1_555 1_555
C3A S3A 1_555 1_555
S3A C16A 1_555 1_555
C16A C17A 1_555 1_555
C17A C18A 1_555 1_555
C18A C19A 1_555 1_555
C19A C20A 1_555 1_555
C20A C21A 1_555 1_555
C21A C16A 1_555 1_555
H15A C21A 1_555 1_555
H14A C20A 1_555 1_555
H13A C19A 1_555 1_555
H12A C18A 1_555 1_555
H11A C17A 1_555 1_555
C1A C3A 1_555 1_555
S1A C1A 1_555 1_555
C4A S1A 1_555 1_555
C5A C4A 1_555 1_555
C6A C5A 1_555 1_555
C7A C6A 1_555 1_555
C8A C7A 1_555 1_555
C9A C4A 1_555 1_555
H5A C9A 1_555 1_555
H4A C8A 1_555 1_555
H3A C7A 1_555 1_555
H2A C6A 1_555 1_555
H1A C5A 1_555 1_555
C2A C3 1_555 1_555
S2A C2A 1_555 1_555
C10A S2A 1_555 1_555
C11A C10A 1_555 1_555
C12A C11A 1_555 1_555
C13A C12A 1_555 1_555
C14A C13A 1_555 1_555
C15A C10A 1_555 1_555
H10A C15A 1_555 1_555
H9A C14A 1_555 1_555
H8A C13A 1_555 1_555
H7A C12A 1_555 1_555
H6A C11A 1_555 1_555
C8 C9 1_555 1_555
C14 C15 1_555 1_555
C20 C21 1_555 1_555
C1A C2A 1_555 1_555
C8A C9A 1_555 1_555
C14A C15A 1_555 1_555

#END
