
#######################################################################
#
#                 Cambridge Crystallographic Data Centre
#                                CCDC 
#
#######################################################################
#
# If this CIF has been generated from an entry in the Cambridge 
# Structural Database, then it will include bibliographic, chemical, 
# crystal, experimental, refinement or atomic coordinate data resulting 
# from the CCDC's data processing and validation procedures.
#
#######################################################################

data_ZERZAA
_chemical_formula_moiety         'C18 H24 O3'
_chemical_name_systematic        14-hydroxyestr-5-ene-7,17-dione
_symmetry_cell_setting           orthorhombic
_symmetry_space_group_name_H-M   'P 21 21 21'
_symmetry_Int_Tables_number      19
_space_group_name_Hall           'P 2ac 2ab'
loop_
_symmetry_equiv_pos_site_id
_symmetry_equiv_pos_as_xyz
1 x,y,z
2 1/2-x,-y,1/2+z
3 -x,1/2+y,1/2-z
4 1/2+x,1/2-y,-z
_cell_length_a                   6.18680(10)
_cell_length_b                   12.45830(10)
_cell_length_c                   19.1309(3)
_cell_angle_alpha                90
_cell_angle_beta                 90
_cell_angle_gamma                90
_cell_volume                     1474.55
_exptl_crystal_colour            colorless
_exptl_crystal_description       needle
_cell_formula_units_Z            4
loop_
_atom_site_label
_atom_site_type_symbol
_atom_site_fract_x
_atom_site_fract_y
_atom_site_fract_z
O1 O 0.1401(2) 0.84908(11) 0.84240(7)
O2 O 0.6363(2) 0.82563(12) 0.72923(8)
H1 H 0.717(6) 0.848(3) 0.6909(17)
O3 O 0.7681(2) 0.80586(10) 0.59260(7)
C1 C 0.2063(3) 0.83265(15) 0.78357(10)
C2 C 0.1938(3) 0.91009(15) 0.72280(10)
H2 H 0.265304 0.978800 0.734703
H3 H 0.041394 0.924770 0.710304
C3 C 0.3118(3) 0.85442(14) 0.66189(10)
H4 H 0.399970 0.906415 0.635105
H5 H 0.207636 0.819525 0.629839
C4 C 0.4563(3) 0.77032(15) 0.69823(10)
C5 C 0.5394(3) 0.67845(14) 0.65208(9)
H6 H 0.631134 0.632641 0.683090
C6 C 0.6862(3) 0.71558(15) 0.59315(10)
C7 C 0.7391(3) 0.63601(15) 0.54012(9)
H7 H 0.844824 0.653227 0.505907
C8 C 0.6436(3) 0.53887(15) 0.53773(9)
C9 C 0.7245(3) 0.45130(15) 0.49016(10)
H8 H 0.800064 0.396433 0.518513
H9 H 0.830503 0.482132 0.457018
C10 C 0.5425(3) 0.39704(16) 0.44868(10)
H10 H 0.480107 0.448641 0.414880
H11 H 0.601172 0.335343 0.422166
C11 C 0.3676(3) 0.35853(15) 0.49857(10)
H12 H 0.428307 0.303536 0.530352
H13 H 0.248802 0.325063 0.471605
C12 C 0.2788(3) 0.45180(15) 0.54143(10)
H14 H 0.166473 0.424524 0.573706
H15 H 0.209595 0.504132 0.509569
C13 C 0.4555(3) 0.50936(14) 0.58414(9)
H16 H 0.510297 0.456971 0.619561
C14 C 0.3599(3) 0.60488(14) 0.62445(9)
H17 H 0.267684 0.647319 0.591598
C15 C 0.2176(3) 0.56624(14) 0.68510(10)
H18 H 0.093134 0.525859 0.665934
H19 H 0.302255 0.516490 0.714732
C16 C 0.1333(3) 0.65816(14) 0.73035(10)
H20 H 0.049799 0.628020 0.769887
H21 H 0.034012 0.703031 0.702186
C17 C 0.3169(3) 0.72951(15) 0.75940(9)
C18 C 0.4407(4) 0.67454(19) 0.81810(10)
H22 H 0.564992 0.718828 0.831421
H23 H 0.491488 0.604185 0.802114
H24 H 0.345436 0.665212 0.858570
loop_
_geom_bond_atom_site_label_1
_geom_bond_atom_site_label_2
_geom_bond_site_symmetry_1
_geom_bond_site_symmetry_2
O1 C1 1_555 1_555
O2 H1 1_555 1_555
O3 C6 1_555 1_555
C1 C2 1_555 1_555
C2 H2 1_555 1_555
H3 C2 1_555 1_555
C3 C2 1_555 1_555
H4 C3 1_555 1_555
H5 C3 1_555 1_555
C4 O2 1_555 1_555
C5 C4 1_555 1_555
H6 C5 1_555 1_555
C6 C5 1_555 1_555
C7 C6 1_555 1_555
H7 C7 1_555 1_555
C8 C7 1_555 1_555
C9 C8 1_555 1_555
H8 C9 1_555 1_555
H9 C9 1_555 1_555
C10 C9 1_555 1_555
H10 C10 1_555 1_555
H11 C10 1_555 1_555
C11 C10 1_555 1_555
H12 C11 1_555 1_555
H13 C11 1_555 1_555
C12 C11 1_555 1_555
H14 C12 1_555 1_555
H15 C12 1_555 1_555
C13 C8 1_555 1_555
H16 C13 1_555 1_555
C14 C5 1_555 1_555
H17 C14 1_555 1_555
C15 C14 1_555 1_555
H18 C15 1_555 1_555
H19 C15 1_555 1_555
C16 C15 1_555 1_555
H20 C16 1_555 1_555
H21 C16 1_555 1_555
C17 C1 1_555 1_555
C18 C17 1_555 1_555
H22 C18 1_555 1_555
H23 C18 1_555 1_555
H24 C18 1_555 1_555
C3 C4 1_555 1_555
C4 C17 1_555 1_555
C12 C13 1_555 1_555
C13 C14 1_555 1_555
C16 C17 1_555 1_555

#END
