
#######################################################################
#
#                 Cambridge Crystallographic Data Centre
#                                CCDC 
#
#######################################################################
#
# If this CIF has been generated from an entry in the Cambridge 
# Structural Database, then it will include bibliographic, chemical, 
# crystal, experimental, refinement or atomic coordinate data resulting 
# from the CCDC's data processing and validation procedures.
#
#######################################################################

data_ZESGEL
_chemical_formula_moiety         'C77 H38 Cl14 N7 O1 P1,3(C6 H4 Cl2)'
_chemical_name_systematic        
'7,12,17,22,27,32,39-heptakis(2,6-Dichlorophenyl)-2,37,38,40,41,42,43-hepta-aza-1-phosphadecacyclo[26.9.1.1^3,36^.1^8,11^.1^13,16^.1^18,21^.1^23,26^.0^2,6^.0^31,38^.0^33,37^]tritetraconta-3(39),4,6,8,10,12,14,16(42),17,19,21,23,25,27,29,31,33,35-octadecaene 1-oxide 1,2-dichlorobenzene solvate'
_symmetry_cell_setting           monoclinic
_symmetry_space_group_name_H-M   'P 21/a'
_symmetry_Int_Tables_number      14
_space_group_name_Hall           '-P 2yab'
loop_
_symmetry_equiv_pos_site_id
_symmetry_equiv_pos_as_xyz
1 x,y,z
2 1/2-x,1/2+y,-z
3 -x,-y,-z
4 1/2+x,1/2-y,z
_cell_length_a                   13.3585(3)
_cell_length_b                   36.8516(9)
_cell_length_c                   18.6890(5)
_cell_angle_alpha                90
_cell_angle_beta                 106.7185(13)
_cell_angle_gamma                90
_cell_volume                     8811.36
_exptl_crystal_colour            violet
_exptl_crystal_description       prism
_cell_formula_units_Z            4
loop_
_atom_site_label
_atom_site_type_symbol
_atom_site_fract_x
_atom_site_fract_y
_atom_site_fract_z
C1 C 0.3140(11) 0.1127(3) 0.1957(7)
C2 C 0.3799(11) 0.1429(3) 0.2370(7)
H1 H 0.3566 0.1669 0.2419
C3 C 0.4784(11) 0.1305(3) 0.2663(7)
H2 H 0.5351 0.1448 0.2946
C4 C 0.4858(10) 0.0933(3) 0.2491(7)
C5 C 0.5702(10) 0.0722(3) 0.2500(7)
C6 C 0.5541(9) 0.0376(3) 0.2142(7)
C7 C 0.6118(10) 0.0144(3) 0.1836(8)
H3 H 0.6824 0.0180 0.1842
C8 C 0.5478(10) -0.0160(3) 0.1509(7)
H4 H 0.5687 -0.0359 0.1263
C9 C 0.4507(10) -0.0111(3) 0.1615(6)
C10 C 0.3576(10) -0.0313(3) 0.1439(8)
C11 C 0.2680(11) -0.0186(3) 0.1581(6)
C12 C 0.1734(10) -0.0384(3) 0.1527(7)
H5 H 0.1529 -0.0604 0.1261
C13 C 0.1183(10) -0.0203(3) 0.1921(7)
H6 H 0.0558 -0.0290 0.2005
C14 C 0.1657(9) 0.0135(3) 0.2193(7)
C15 C 0.1317(10) 0.0352(3) 0.2658(7)
C16 C 0.1650(10) 0.0728(3) 0.2921(7)
C17 C 0.1091(9) 0.1049(3) 0.2794(7)
H7 H 0.0436 0.1084 0.2429
C18 C 0.1637(10) 0.1310(3) 0.3282(7)
H8 H 0.1430 0.1555 0.3309
C19 C 0.2551(10) 0.1148(3) 0.3729(7)
C20 C 0.3355(10) 0.1258(3) 0.4384(8)
C21 C 0.3659(11) 0.1606(4) 0.4536(8)
C22 C 0.4392(10) 0.1764(4) 0.5199(8)
H9 H 0.4770 0.1633 0.5628
C23 C 0.4450(10) 0.2129(3) 0.5106(7)
H10 H 0.4885 0.2292 0.5452
C24 C 0.3732(10) 0.2224(4) 0.4389(8)
C25 C 0.3449(11) 0.2561(3) 0.4069(8)
C26 C 0.2687(10) 0.2612(3) 0.3387(8)
C27 C 0.2214(11) 0.2964(3) 0.3152(8)
H11 H 0.2401 0.3188 0.3407
C28 C 0.1464(11) 0.2913(3) 0.2509(8)
H12 H 0.0996 0.3091 0.2233
C29 C 0.1504(11) 0.2529(3) 0.2311(8)
C30 C 0.0929(10) 0.2391(3) 0.1626(8)
C31 C 0.1040(9) 0.2042(3) 0.1315(7)
C32 C 0.0637(10) 0.1939(3) 0.0571(8)
H13 H 0.0174 0.2077 0.0185
C33 C 0.1048(10) 0.1591(4) 0.0497(8)
H14 H 0.0907 0.1456 0.0045
C34 C 0.1691(11) 0.1476(3) 0.1188(8)
C35 C 0.2258(10) 0.1156(3) 0.1382(7)
C36 C 0.6758(10) 0.0868(3) 0.2776(7)
C37 C 0.7440(12) 0.0763(3) 0.3471(8)
C38 C 0.8437(11) 0.0908(3) 0.3741(9)
H15 H 0.8872 0.0837 0.4218
C39 C 0.8793(11) 0.1151(4) 0.3322(10)
H16 H 0.9473 0.1252 0.3512
C40 C 0.8171(12) 0.1254(3) 0.2622(9)
H17 H 0.8424 0.1418 0.2322
C41 C 0.7165(10) 0.1111(3) 0.2369(7)
C42 C 0.3603(10) -0.0704(3) 0.1233(7)
C43 C 0.3968(10) -0.0964(3) 0.1809(8)
C44 C 0.3987(11) -0.1335(3) 0.1650(8)
H18 H 0.4226 -0.1505 0.2045
C45 C 0.3664(10) -0.1454(4) 0.0927(8)
H19 H 0.3691 -0.1705 0.0822
C46 C 0.3297(10) -0.1210(3) 0.0347(8)
H20 H 0.3058 -0.1294 -0.0154
C47 C 0.3279(10) -0.0837(3) 0.0502(7)
C48 C 0.0572(10) 0.0186(3) 0.3038(7)
C49 C -0.0517(10) 0.0189(3) 0.2757(7)
C50 C -0.1162(11) 0.0032(3) 0.3165(7)
H21 H -0.1901 0.0030 0.2966
C51 C -0.0682(11) -0.0117(3) 0.3854(7)
H22 H -0.1105 -0.0214 0.4138
C52 C 0.0387(11) -0.0130(3) 0.4146(8)
H23 H 0.0698 -0.0239 0.4618
C53 C 0.0996(10) 0.0018(3) 0.3742(8)
C54 C 0.3949(11) 0.0973(4) 0.4903(8)
C55 C 0.3398(10) 0.0734(4) 0.5251(7)
C56 C 0.3897(12) 0.0438(3) 0.5684(7)
H24 H 0.3517 0.0284 0.5919
C57 C 0.4936(12) 0.0373(4) 0.5766(9)
H25 H 0.5277 0.0174 0.6059
C58 C 0.5494(11) 0.0600(4) 0.5419(7)
H26 H 0.6211 0.0555 0.5468
C59 C 0.4978(11) 0.0892(3) 0.4999(7)
C60 C 0.3988(11) 0.2874(3) 0.4507(8)
C61 C 0.3589(11) 0.3070(4) 0.5021(8)
C62 C 0.4133(14) 0.3358(4) 0.5428(10)
H27 H 0.3839 0.3482 0.5765
C63 C 0.5066(13) 0.3470(4) 0.5363(9)
H28 H 0.5432 0.3665 0.5656
C64 C 0.5479(11) 0.3289(4) 0.4853(8)
H29 H 0.6128 0.3367 0.4792
C65 C 0.4962(11) 0.2998(3) 0.4432(7)
C66 C 0.0152(10) 0.2637(3) 0.1127(7)
C67 C -0.0889(11) 0.2650(3) 0.1213(7)
C68 C -0.1603(10) 0.2882(4) 0.0804(7)
H30 H -0.2284 0.2888 0.0866
C69 C -0.1357(11) 0.3113(3) 0.0289(7)
H31 H -0.1870 0.3273 -0.0003
C70 C -0.0362(11) 0.3108(3) 0.0205(8)
H32 H -0.0180 0.3271 -0.0131
C71 C 0.0365(9) 0.2865(3) 0.0611(8)
C72 C 0.1986(10) 0.0857(3) 0.0812(7)
C73 C 0.0994(10) 0.0712(3) 0.0561(7)
C74 C 0.0703(12) 0.0423(3) 0.0062(8)
H33 H 0.0014 0.0327 -0.0069
C75 C 0.1450(13) 0.0282(4) -0.0234(8)
H34 H 0.1284 0.0080 -0.0565
C76 C 0.2441(13) 0.0430(4) -0.0053(9)
H35 H 0.2951 0.0338 -0.0269
C77 C 0.2682(9) 0.0717(3) 0.0449(8)
N1 N 0.3789(8) 0.0806(2) 0.2162(6)
N2 N 0.4535(8) 0.0209(2) 0.2014(5)
N3 N 0.2573(7) 0.0166(2) 0.1927(5)
N4 N 0.2525(8) 0.0793(3) 0.3516(6)
H36 H 0.2997 0.0629 0.3727
N5 N 0.3272(7) 0.1903(3) 0.4068(6)
H37 H 0.2801 0.1888 0.3629
N6 N 0.2232(8) 0.2345(3) 0.2883(6)
N7 N 0.1654(8) 0.1761(3) 0.1676(6)
H38 H 0.1986 0.1760 0.2157
Cl1 Cl 0.7030(3) 0.04470(9) 0.40055(19)
Cl2 Cl 0.6403(3) 0.12441(9) 0.1485(2)
Cl3 Cl 0.4410(3) -0.08182(9) 0.2724(2)
Cl4 Cl 0.2849(3) -0.05344(9) -0.0225(2)
Cl5 Cl -0.1101(3) 0.03891(8) 0.19199(19)
Cl6 Cl 0.2341(3) -0.00240(8) 0.41067(19)
Cl7 Cl 0.2082(3) 0.08077(9) 0.5148(2)
Cl8 Cl 0.5743(3) 0.11680(9) 0.4593(2)
Cl9 Cl 0.2385(3) 0.29368(11) 0.5105(3)
Cl10 Cl 0.5520(3) 0.27873(9) 0.3829(2)
Cl11 Cl -0.1164(3) 0.23847(10) 0.1879(2)
Cl12 Cl 0.1606(3) 0.28648(9) 0.0501(2)
Cl13 Cl -0.0025(3) 0.08779(9) 0.0892(2)
Cl14 Cl 0.3929(3) 0.09031(9) 0.0610(2)
P1 P 0.3668(3) 0.03801(9) 0.2406(2)
O1 O 0.3940(6) 0.0320(2) 0.3218(5)
C78 C 0.8884(17) 0.1226(4) 0.7919(11)
C79 C 0.9714(13) 0.1058(4) 0.7757(11)
C80 C 0.9630(17) 0.0910(4) 0.7047(12)
H39 H 1.0192 0.0792 0.6925
C81 C 0.8637(17) 0.0954(4) 0.6538(11)
H40 H 0.8528 0.0849 0.6057
C82 C 0.7799(16) 0.1136(5) 0.6672(12)
H41 H 0.7150 0.1161 0.6297
C83 C 0.7955(14) 0.1274(5) 0.7360(11)
H42 H 0.7410 0.1410 0.7467
Cl15 Cl 0.9001(3) 0.13801(12) 0.8821(2)
Cl16 Cl 1.0913(4) 0.10027(14) 0.8448(3)
C84 C 0.3365(12) 0.1445(4) 0.8005(8)
C85 C 0.3062(11) 0.1278(3) 0.7308(9)
C86 C 0.2998(14) 0.1495(4) 0.6676(9)
H43 H 0.2780 0.1385 0.6196
C87 C 0.3236(13) 0.1855(5) 0.6724(9)
H44 H 0.3202 0.1991 0.6285
C88 C 0.3536(13) 0.2026(4) 0.7439(10)
H45 H 0.3695 0.2278 0.7478
C89 C 0.3597(12) 0.1824(4) 0.8083(8)
H46 H 0.3789 0.1936 0.8561
Cl17 Cl 0.3530(3) 0.11948(11) 0.8818(2)
Cl18 Cl 0.2762(3) 0.08314(11) 0.7221(2)
C90 C 0.131(2) 0.2531(7) 0.7444(12)
C91 C 0.1774(18) 0.2527(6) 0.8211(13)
C92 C 0.1429(19) 0.2285(7) 0.8660(9)
H47 H 0.1748 0.2283 0.9184
C93 C 0.062(2) 0.2047(7) 0.8341(11)
H48 H 0.0380 0.1882 0.8648
C94 C 0.0148(18) 0.2051(6) 0.7574(12)
H49 H -0.0407 0.1888 0.7356
C95 C 0.049(2) 0.2292(8) 0.7125(9)
H50 H 0.0173 0.2295 0.6600
Cl19 Cl 0.1690(15) 0.2815(4) 0.6848(10)
Cl20 Cl 0.2825(7) 0.2799(2) 0.8615(5)
Cl21? Cl 0.1685(16) 0.2818(6) 0.6803(8)
Cl22? Cl -0.0007(11) 0.2187(3) 0.6747(7)
C96? C 0.081(2) 0.2158(7) 0.8224(18)
H51? H 0.0305 0.1975 0.8221
C97? C 0.083(2) 0.2321(8) 0.7558(13)
C98? C 0.156(3) 0.2590(9) 0.7563(14)
C99? C 0.227(2) 0.2696(7) 0.8233(19)
H52? H 0.2770 0.2879 0.8236
C100? C 0.224(2) 0.2533(8) 0.8899(13)
H53? H 0.2727 0.2605 0.9357
C101? C 0.151(3) 0.2264(8) 0.8894(13)
H54? H 0.1495 0.2153 0.9349
loop_
_geom_bond_atom_site_label_1
_geom_bond_atom_site_label_2
_geom_bond_site_symmetry_1
_geom_bond_site_symmetry_2
C1 C2 1_555 1_555
C2 H1 1_555 1_555
C3 C2 1_555 1_555
H2 C3 1_555 1_555
C4 C3 1_555 1_555
C5 C4 1_555 1_555
C6 C5 1_555 1_555
C7 C6 1_555 1_555
H3 C7 1_555 1_555
C8 C7 1_555 1_555
H4 C8 1_555 1_555
C9 C8 1_555 1_555
C10 C9 1_555 1_555
C11 C10 1_555 1_555
C12 C11 1_555 1_555
H5 C12 1_555 1_555
C13 C12 1_555 1_555
H6 C13 1_555 1_555
C14 C13 1_555 1_555
C15 C14 1_555 1_555
C16 C15 1_555 1_555
C17 C16 1_555 1_555
H7 C17 1_555 1_555
C18 C17 1_555 1_555
H8 C18 1_555 1_555
C19 C18 1_555 1_555
C20 C19 1_555 1_555
C21 C20 1_555 1_555
C22 C21 1_555 1_555
H9 C22 1_555 1_555
C23 C22 1_555 1_555
H10 C23 1_555 1_555
C24 C23 1_555 1_555
C25 C24 1_555 1_555
C26 C25 1_555 1_555
C27 C26 1_555 1_555
H11 C27 1_555 1_555
C28 C27 1_555 1_555
H12 C28 1_555 1_555
C29 C28 1_555 1_555
C30 C29 1_555 1_555
C31 C30 1_555 1_555
C32 C31 1_555 1_555
H13 C32 1_555 1_555
C33 C32 1_555 1_555
H14 C33 1_555 1_555
C34 C33 1_555 1_555
C35 C1 1_555 1_555
C36 C5 1_555 1_555
C37 C36 1_555 1_555
C38 C37 1_555 1_555
H15 C38 1_555 1_555
C39 C38 1_555 1_555
H16 C39 1_555 1_555
C40 C39 1_555 1_555
H17 C40 1_555 1_555
C41 C36 1_555 1_555
C42 C10 1_555 1_555
C43 C42 1_555 1_555
C44 C43 1_555 1_555
H18 C44 1_555 1_555
C45 C44 1_555 1_555
H19 C45 1_555 1_555
C46 C45 1_555 1_555
H20 C46 1_555 1_555
C47 C42 1_555 1_555
C48 C15 1_555 1_555
C49 C48 1_555 1_555
C50 C49 1_555 1_555
H21 C50 1_555 1_555
C51 C50 1_555 1_555
H22 C51 1_555 1_555
C52 C51 1_555 1_555
H23 C52 1_555 1_555
C53 C48 1_555 1_555
C54 C20 1_555 1_555
C55 C54 1_555 1_555
C56 C55 1_555 1_555
H24 C56 1_555 1_555
C57 C56 1_555 1_555
H25 C57 1_555 1_555
C58 C57 1_555 1_555
H26 C58 1_555 1_555
C59 C54 1_555 1_555
C60 C25 1_555 1_555
C61 C60 1_555 1_555
C62 C61 1_555 1_555
H27 C62 1_555 1_555
C63 C62 1_555 1_555
H28 C63 1_555 1_555
C64 C63 1_555 1_555
H29 C64 1_555 1_555
C65 C60 1_555 1_555
C66 C30 1_555 1_555
C67 C66 1_555 1_555
C68 C67 1_555 1_555
H30 C68 1_555 1_555
C69 C68 1_555 1_555
H31 C69 1_555 1_555
C70 C69 1_555 1_555
H32 C70 1_555 1_555
C71 C66 1_555 1_555
C72 C35 1_555 1_555
C73 C72 1_555 1_555
C74 C73 1_555 1_555
H33 C74 1_555 1_555
C75 C74 1_555 1_555
H34 C75 1_555 1_555
C76 C75 1_555 1_555
H35 C76 1_555 1_555
C77 C72 1_555 1_555
N1 C1 1_555 1_555
N2 C6 1_555 1_555
N3 C11 1_555 1_555
N4 C16 1_555 1_555
H36 N4 1_555 1_555
N5 C21 1_555 1_555
H37 N5 1_555 1_555
N6 C26 1_555 1_555
N7 C31 1_555 1_555
H38 N7 1_555 1_555
Cl1 C37 1_555 1_555
Cl2 C41 1_555 1_555
Cl3 C43 1_555 1_555
Cl4 C47 1_555 1_555
Cl5 C49 1_555 1_555
Cl6 C53 1_555 1_555
Cl7 C55 1_555 1_555
Cl8 C59 1_555 1_555
Cl9 C61 1_555 1_555
Cl10 C65 1_555 1_555
Cl11 C67 1_555 1_555
Cl12 C71 1_555 1_555
Cl13 C73 1_555 1_555
Cl14 C77 1_555 1_555
P1 N1 1_555 1_555
O1 P1 1_555 1_555
C78 C79 1_555 1_555
C79 C80 1_555 1_555
C80 H39 1_555 1_555
C81 C80 1_555 1_555
H40 C81 1_555 1_555
C82 C81 1_555 1_555
H41 C82 1_555 1_555
C83 C78 1_555 1_555
H42 C83 1_555 1_555
Cl15 C78 1_555 1_555
Cl16 C79 1_555 1_555
C84 C85 1_555 1_555
C85 C86 1_555 1_555
C86 H43 1_555 1_555
C87 C86 1_555 1_555
H44 C87 1_555 1_555
C88 C87 1_555 1_555
H45 C88 1_555 1_555
C89 C84 1_555 1_555
H46 C89 1_555 1_555
Cl17 C84 1_555 1_555
Cl18 C85 1_555 1_555
C90 C91 1_555 1_555
C91 C92 1_555 1_555
C92 H47 1_555 1_555
C93 C92 1_555 1_555
H48 C93 1_555 1_555
C94 C93 1_555 1_555
H49 C94 1_555 1_555
C95 C90 1_555 1_555
H50 C95 1_555 1_555
Cl19 C90 1_555 1_555
Cl20 C91 1_555 1_555
C4 N1 1_555 1_555
C9 N2 1_555 1_555
C14 N3 1_555 1_555
C19 N4 1_555 1_555
C24 N5 1_555 1_555
C29 N6 1_555 1_555
C34 C35 1_555 1_555
C34 N7 1_555 1_555
C40 C41 1_555 1_555
C46 C47 1_555 1_555
C52 C53 1_555 1_555
C58 C59 1_555 1_555
C64 C65 1_555 1_555
C70 C71 1_555 1_555
C76 C77 1_555 1_555
N2 P1 1_555 1_555
N3 P1 1_555 1_555
C82 C83 1_555 1_555
C88 C89 1_555 1_555
C94 C95 1_555 1_555

#END
