
#######################################################################
#
#                 Cambridge Crystallographic Data Centre
#                                CCDC 
#
#######################################################################
#
# If this CIF has been generated from an entry in the Cambridge 
# Structural Database, then it will include bibliographic, chemical, 
# crystal, experimental, refinement or atomic coordinate data resulting 
# from the CCDC's data processing and validation procedures.
#
#######################################################################

data_ZESVIF
_chemical_formula_moiety         'C24 H19 N1 O1'
_chemical_name_systematic        
1-(4-methylphenyl)-4,6-diphenylpyridin-2(1H)-one
_symmetry_cell_setting           triclinic
_symmetry_space_group_name_H-M   'P -1'
_symmetry_Int_Tables_number      2
_space_group_name_Hall           '-P 1'
loop_
_symmetry_equiv_pos_site_id
_symmetry_equiv_pos_as_xyz
1 x,y,z
2 -x,-y,-z
_cell_length_a                   9.4619(4)
_cell_length_b                   9.7534(4)
_cell_length_c                   10.5387(5)
_cell_angle_alpha                68.185(4)
_cell_angle_beta                 78.205(4)
_cell_angle_gamma                88.782(4)
_cell_volume                     882.256
_exptl_crystal_colour            colorless
_exptl_crystal_description       block
_cell_formula_units_Z            2
loop_
_atom_site_label
_atom_site_type_symbol
_atom_site_fract_x
_atom_site_fract_y
_atom_site_fract_z
O1 O 0.68355(10) 0.21500(11) 0.28263(9)
N1 N 0.54491(10) 0.22614(10) 0.48435(10)
C1 C 0.66375(12) 0.17315(13) 0.55395(12)
C2 C 0.33490(13) 0.36342(12) 0.33618(12)
C3 C 0.39425(12) 0.22753(13) 0.70698(12)
C4 C 0.41795(12) 0.26293(12) 0.55374(12)
C5 C 0.45765(13) 0.32169(13) 0.27018(12)
H1 H 0.468970 0.339664 0.175497
C6 C 0.31479(13) 0.32983(12) 0.48234(12)
H2 H 0.229946 0.353928 0.529789
C7 C 0.22417(13) 0.44199(13) 0.25889(12)
C8 C 0.57023(13) 0.25131(13) 0.33992(12)
C9 C 0.72560(13) 0.26045(13) 0.60822(12)
H3 H 0.690808 0.352506 0.600416
C10 C 0.71789(13) 0.03773(13) 0.56255(13)
H4 H 0.677057 -0.020570 0.525235
C11 C 0.37810(13) 0.34278(14) 0.75500(13)
H5 H 0.387058 0.440146 0.691478
C12 C 0.83982(13) 0.20995(14) 0.67438(13)
H6 H 0.879785 0.268201 0.712283
C13 C 0.89566(13) 0.07407(14) 0.68508(13)
C14 C 0.07687(14) 0.41070(14) 0.31810(13)
H7 H 0.047180 0.340656 0.408252
C15 C 0.26640(14) 0.55000(14) 0.12426(12)
H8 H 0.364215 0.572555 0.083646
C16 C 0.37927(14) 0.08148(14) 0.80262(13)
H9 H 0.390482 0.003630 0.771332
C17 C 0.83323(14) -0.01038(14) 0.62706(13)
H10 H 0.869843 -0.100996 0.631786
C18 C 0.16375(15) 0.62374(15) 0.05078(13)
H11 H 0.192730 0.695516 -0.038588
C19 C 0.34755(15) 0.05357(17) 0.94452(14)
H12 H 0.335555 -0.043636 1.008564
C20 C -0.02565(15) 0.48297(16) 0.24391(15)
H13 H -0.123600 0.459527 0.283363
C21 C 0.34862(14) 0.31317(17) 0.89756(14)
H14 H 0.339064 0.390691 0.929328
C22 C 0.33351(15) 0.16882(18) 0.99208(14)
H15 H 0.313935 0.148947 1.087568
C23 C 0.01783(15) 0.59019(16) 0.11091(14)
H16 H -0.051075 0.639788 0.061848
C24 C 1.01771(16) 0.01828(18) 0.75891(16)
H17 H 1.073667 0.100664 0.756191
H18 H 1.078341 -0.037234 0.713238
H19 H 0.979031 -0.044200 0.854429
loop_
_geom_bond_atom_site_label_1
_geom_bond_atom_site_label_2
_geom_bond_site_symmetry_1
_geom_bond_site_symmetry_2
O1 C8 1_555 1_555
N1 C1 1_555 1_555
C1 C9 1_555 1_555
C2 C5 1_555 1_555
C3 C4 1_555 1_555
C4 N1 1_555 1_555
C5 H1 1_555 1_555
C6 C2 1_555 1_555
H2 C6 1_555 1_555
C7 C2 1_555 1_555
C8 N1 1_555 1_555
C9 H3 1_555 1_555
C10 C1 1_555 1_555
H4 C10 1_555 1_555
C11 C3 1_555 1_555
H5 C11 1_555 1_555
C12 C9 1_555 1_555
H6 C12 1_555 1_555
C13 C12 1_555 1_555
C14 C7 1_555 1_555
H7 C14 1_555 1_555
C15 C7 1_555 1_555
H8 C15 1_555 1_555
C16 C3 1_555 1_555
H9 C16 1_555 1_555
C17 C10 1_555 1_555
H10 C17 1_555 1_555
C18 C15 1_555 1_555
H11 C18 1_555 1_555
C19 C16 1_555 1_555
H12 C19 1_555 1_555
C20 C14 1_555 1_555
H13 C20 1_555 1_555
C21 C11 1_555 1_555
H14 C21 1_555 1_555
C22 C19 1_555 1_555
H15 C22 1_555 1_555
C23 C18 1_555 1_555
H16 C23 1_555 1_555
C24 C13 1_555 1_555
H17 C24 1_555 1_555
H18 C24 1_555 1_555
H19 C24 1_555 1_555
C4 C6 1_555 1_555
C5 C8 1_555 1_555
C13 C17 1_555 1_555
C20 C23 1_555 1_555
C21 C22 1_555 1_555

#END
