
#######################################################################
#
#                 Cambridge Crystallographic Data Centre
#                                CCDC 
#
#######################################################################
#
# If this CIF has been generated from an entry in the Cambridge 
# Structural Database, then it will include bibliographic, chemical, 
# crystal, experimental, refinement or atomic coordinate data resulting 
# from the CCDC's data processing and validation procedures.
#
#######################################################################

data_ZESYEE
_chemical_formula_moiety         'C14 H22 O4'
_chemical_name_systematic        
'methyl 8a-hydroxy-4,7-dimethyl-1-oxooctahydronaphthalene-4a(2H)-carboxylate'
_symmetry_cell_setting           monoclinic
_symmetry_space_group_name_H-M   'P 21'
_symmetry_Int_Tables_number      4
_space_group_name_Hall           'P 2yb'
loop_
_symmetry_equiv_pos_site_id
_symmetry_equiv_pos_as_xyz
1 x,y,z
2 -x,1/2+y,-z
_cell_length_a                   11.5456(4)
_cell_length_b                   8.4616(2)
_cell_length_c                   13.8894(4)
_cell_angle_alpha                90
_cell_angle_beta                 91.069(2)
_cell_angle_gamma                90
_cell_volume                     1356.68
_exptl_crystal_colour            colorless
_exptl_crystal_description       block
_cell_formula_units_Z            4
_exptl_crystal_recrystallization_method 
'Re-crystallisation from solvent: Methanol'
loop_
_atom_site_label
_atom_site_type_symbol
_atom_site_fract_x
_atom_site_fract_y
_atom_site_fract_z
O1 O -0.2876(2) -0.0336(3) 0.25595(19)
O2 O -0.07019(19) -0.2699(2) 0.22000(15)
H1 H -0.1213 -0.3271 0.2445
O3 O -0.1134(2) 0.2152(3) 0.22184(19)
O4 O 0.07675(18) 0.2544(2) 0.22460(14)
C1 C -0.2063(3) -0.0627(4) 0.2062(3)
C2 C -0.2166(3) -0.0713(5) 0.0979(3)
H2 H -0.2890 -0.0179 0.0769
H3 H -0.2226 -0.1837 0.0785
C3 C -0.1149(3) 0.0040(5) 0.0459(2)
H4 H -0.1236 0.1203 0.0479
H5 H -0.1179 -0.0289 -0.0225
C4 C 0.0042(3) -0.0405(4) 0.08944(19)
H6 H 0.0147 -0.1566 0.0792
C5 C 0.0094(2) -0.0111(3) 0.20038(19)
C6 C 0.1282(2) -0.0611(3) 0.24355(18)
H7 H 0.1455 -0.1704 0.2228
H8 H 0.1889 0.0088 0.2176
C7 C 0.1333(2) -0.0537(4) 0.35325(19)
H9 H 0.1275 0.0579 0.3739
H10 H 0.2090 -0.0951 0.3764
C8 C 0.0363(3) -0.1488(4) 0.3992(2)
H11 H 0.0472 -0.2625 0.3821
C9 C -0.0812(3) -0.0956(4) 0.3584(2)
H12 H -0.1430 -0.1614 0.3864
H13 H -0.0952 0.0155 0.3773
C10 C -0.0871(2) -0.1089(3) 0.2488(2)
C11 C 0.0996(3) 0.0432(4) 0.0345(2)
H14 H 0.0914 0.0192 -0.0343
H15 H 0.1755 0.0067 0.0583
H16 H 0.0933 0.1576 0.0443
C12 C 0.0404(4) -0.1345(5) 0.5091(2)
H17 H 0.0335 -0.0231 0.5274
H18 H 0.1141 -0.1767 0.5340
H19 H -0.0238 -0.1946 0.5363
C13 C -0.0170(2) 0.1625(3) 0.21810(19)
C14 C 0.0528(3) 0.4218(3) 0.2344(2)
H20 H 0.0014 0.4562 0.1815
H21 H 0.1256 0.4813 0.2322
H22 H 0.0153 0.4412 0.2960
O5 O 0.7415(2) 0.5712(3) 0.30588(19)
O6 O 0.60598(18) 0.2432(2) 0.32421(14)
H23 H 0.6621 0.2007 0.2966
O7 O 0.31467(19) 0.6109(3) 0.22632(18)
O8 O 0.48935(17) 0.6955(2) 0.27346(14)
C15 C 0.6579(3) 0.5082(3) 0.3388(2)
C16 C 0.6286(3) 0.5190(4) 0.4448(2)
H24 H 0.6683 0.6123 0.4730
H25 H 0.6591 0.4240 0.4782
C17 C 0.4997(3) 0.5323(4) 0.4629(2)
H26 H 0.4741 0.6409 0.4465
H27 H 0.4865 0.5160 0.5324
C18 C 0.4250(3) 0.4150(3) 0.40575(19)
H28 H 0.4477 0.3070 0.4283
C19 C 0.4500(2) 0.4220(3) 0.29540(18)
C20 C 0.3820(3) 0.2932(3) 0.2405(2)
H29 H 0.4005 0.1888 0.2691
H30 H 0.2980 0.3119 0.2476
C21 C 0.4110(3) 0.2909(4) 0.1332(2)
H31 H 0.3683 0.2032 0.1013
H32 H 0.3846 0.3910 0.1031
C22 C 0.5394(3) 0.2705(4) 0.1167(2)
H33 H 0.5625 0.1632 0.1403
C23 C 0.6101(3) 0.3927(4) 0.17324(19)
H34 H 0.5949 0.4988 0.1458
H35 H 0.6936 0.3696 0.1662
C24 C 0.5812(2) 0.3938(3) 0.28016(18)
C25 C 0.2973(3) 0.4362(5) 0.4294(3)
H36 H 0.2881 0.4331 0.4994
H37 H 0.2519 0.3508 0.3995
H38 H 0.2700 0.5382 0.4045
C26 C 0.5679(5) 0.2810(5) 0.0091(2)
H39 H 0.5219 0.2030 -0.0270
H40 H 0.6505 0.2596 0.0005
H41 H 0.5496 0.3873 -0.0148
C27 C 0.4095(2) 0.5831(3) 0.25942(19)
C28 C 0.4519(3) 0.8557(3) 0.2558(2)
H42 H 0.4210 0.8646 0.1899
H43 H 0.5178 0.9277 0.2643
H44 H 0.3914 0.8838 0.3014
loop_
_geom_bond_atom_site_label_1
_geom_bond_atom_site_label_2
_geom_bond_site_symmetry_1
_geom_bond_site_symmetry_2
O1 C1 1_555 1_555
O2 H1 1_555 1_555
O3 C13 1_555 1_555
O4 C13 1_555 1_555
C1 C2 1_555 1_555
C2 H2 1_555 1_555
H3 C2 1_555 1_555
C3 C2 1_555 1_555
H4 C3 1_555 1_555
H5 C3 1_555 1_555
C4 C3 1_555 1_555
H6 C4 1_555 1_555
C5 C4 1_555 1_555
C6 C5 1_555 1_555
H7 C6 1_555 1_555
H8 C6 1_555 1_555
C7 C6 1_555 1_555
H9 C7 1_555 1_555
H10 C7 1_555 1_555
C8 C7 1_555 1_555
H11 C8 1_555 1_555
C9 C8 1_555 1_555
H12 C9 1_555 1_555
H13 C9 1_555 1_555
C10 O2 1_555 1_555
C11 C4 1_555 1_555
H14 C11 1_555 1_555
H15 C11 1_555 1_555
H16 C11 1_555 1_555
C12 C8 1_555 1_555
H17 C12 1_555 1_555
H18 C12 1_555 1_555
H19 C12 1_555 1_555
C13 C5 1_555 1_555
C14 O4 1_555 1_555
H20 C14 1_555 1_555
H21 C14 1_555 1_555
H22 C14 1_555 1_555
O5 C15 1_555 1_555
O6 H23 1_555 1_555
O7 C27 1_555 1_555
O8 C27 1_555 1_555
C15 C16 1_555 1_555
C16 H24 1_555 1_555
H25 C16 1_555 1_555
C17 C16 1_555 1_555
H26 C17 1_555 1_555
H27 C17 1_555 1_555
C18 C17 1_555 1_555
H28 C18 1_555 1_555
C19 C18 1_555 1_555
C20 C19 1_555 1_555
H29 C20 1_555 1_555
H30 C20 1_555 1_555
C21 C20 1_555 1_555
H31 C21 1_555 1_555
H32 C21 1_555 1_555
C22 C21 1_555 1_555
H33 C22 1_555 1_555
C23 C22 1_555 1_555
H34 C23 1_555 1_555
H35 C23 1_555 1_555
C24 O6 1_555 1_555
C25 C18 1_555 1_555
H36 C25 1_555 1_555
H37 C25 1_555 1_555
H38 C25 1_555 1_555
C26 C22 1_555 1_555
H39 C26 1_555 1_555
H40 C26 1_555 1_555
H41 C26 1_555 1_555
C27 C19 1_555 1_555
C28 O8 1_555 1_555
H42 C28 1_555 1_555
H43 C28 1_555 1_555
H44 C28 1_555 1_555
C1 C10 1_555 1_555
C5 C10 1_555 1_555
C9 C10 1_555 1_555
C15 C24 1_555 1_555
C19 C24 1_555 1_555
C23 C24 1_555 1_555

#END
