
#######################################################################
#
#                 Cambridge Crystallographic Data Centre
#                                CCDC 
#
#######################################################################
#
# If this CIF has been generated from an entry in the Cambridge 
# Structural Database, then it will include bibliographic, chemical, 
# crystal, experimental, refinement or atomic coordinate data resulting 
# from the CCDC's data processing and validation procedures.
#
#######################################################################

data_ZETGIR
_chemical_formula_moiety         'C17 H26 O2'
_chemical_name_systematic        
3a,5a,8-trimethyldodecahydrocyclohepta[e]indene-1,4-dione
_symmetry_cell_setting           monoclinic
_symmetry_space_group_name_H-M   'P 21'
_symmetry_Int_Tables_number      4
_space_group_name_Hall           'P 2yb'
loop_
_symmetry_equiv_pos_site_id
_symmetry_equiv_pos_as_xyz
1 x,y,z
2 -x,1/2+y,-z
_cell_length_a                   9.4497(4)
_cell_length_b                   6.4699(3)
_cell_length_c                   12.5564(6)
_cell_angle_alpha                90
_cell_angle_beta                 99.507(2)
_cell_angle_gamma                90
_cell_volume                     757.137
_exptl_crystal_colour            colorless
_exptl_crystal_description       needle
_cell_formula_units_Z            2
loop_
_atom_site_label
_atom_site_type_symbol
_atom_site_fract_x
_atom_site_fract_y
_atom_site_fract_z
C1 C 0.6553(2) 0.6937(3) 0.44923(17)
O1 O 0.60639(16) 0.8638(2) 0.46014(12)
C2 C 0.7176(2) 0.5540(3) 0.54233(17)
H1 H 0.6460 0.5271 0.5900
H2 H 0.8037 0.6175 0.5856
C3 C 0.7566(2) 0.3544(3) 0.48926(18)
H3 H 0.6769 0.2536 0.4829
H4 H 0.8437 0.2911 0.5314
C4 C 0.7846(2) 0.4238(3) 0.37540(19)
C5 C 0.9315(2) 0.5285(4) 0.3839(2)
H5 H 1.0069 0.4302 0.4132
H6 H 0.9353 0.6485 0.4319
H7 H 0.9464 0.5737 0.3121
C6 C 0.7780(3) 0.2338(3) 0.3043(2)
O2 O 0.8861(2) 0.1348(3) 0.29747(19)
C7 C 0.6324(3) 0.1641(3) 0.24780(18)
H8 H 0.5838 0.0884 0.3000
H9 H 0.6454 0.0667 0.1894
C8 C 0.5353(2) 0.3429(3) 0.19914(17)
C9 C 0.6076(3) 0.4467(3) 0.11212(19)
H10 H 0.7081 0.4766 0.1417
H11 H 0.5576 0.5759 0.0891
H12 H 0.6032 0.3539 0.0500
C10 C 0.3900(3) 0.2462(3) 0.14867(19)
H13 H 0.4097 0.1280 0.1033
H14 H 0.3441 0.1901 0.2079
C11 C 0.2816(3) 0.3881(4) 0.07974(19)
H15 H 0.3354 0.4899 0.0432
H16 H 0.2237 0.3034 0.0229
C12 C 0.1790(3) 0.5062(4) 0.1403(2)
H17 H 0.1024 0.4071 0.1534
C13 C 0.1056(3) 0.6798(5) 0.0691(2)
H18 H 0.1759 0.7878 0.0613
H19 H 0.0281 0.7386 0.1025
H20 H 0.0660 0.6243 -0.0022
C14 C 0.2499(2) 0.5896(4) 0.25096(19)
H21 H 0.1911 0.7058 0.2706
H22 H 0.2476 0.4793 0.3053
C15 C 0.4053(2) 0.6648(3) 0.25890(17)
H23 H 0.4221 0.7781 0.3125
H24 H 0.4188 0.7219 0.1881
C16 C 0.5175(2) 0.4943(3) 0.29169(16)
H25 H 0.4835 0.4109 0.3496
C17 C 0.6655(2) 0.5873(3) 0.34161(16)
H26 H 0.6974 0.6887 0.2904
loop_
_geom_bond_atom_site_label_1
_geom_bond_atom_site_label_2
_geom_bond_site_symmetry_1
_geom_bond_site_symmetry_2
C1 O1 1_555 1_555
C2 C1 1_555 1_555
H1 C2 1_555 1_555
H2 C2 1_555 1_555
C3 C2 1_555 1_555
H3 C3 1_555 1_555
H4 C3 1_555 1_555
C4 C3 1_555 1_555
C5 C4 1_555 1_555
H5 C5 1_555 1_555
H6 C5 1_555 1_555
H7 C5 1_555 1_555
C6 C4 1_555 1_555
O2 C6 1_555 1_555
C7 C6 1_555 1_555
H8 C7 1_555 1_555
H9 C7 1_555 1_555
C8 C7 1_555 1_555
C9 C8 1_555 1_555
H10 C9 1_555 1_555
H11 C9 1_555 1_555
H12 C9 1_555 1_555
C10 C8 1_555 1_555
H13 C10 1_555 1_555
H14 C10 1_555 1_555
C11 C10 1_555 1_555
H15 C11 1_555 1_555
H16 C11 1_555 1_555
C12 C11 1_555 1_555
H17 C12 1_555 1_555
C13 C12 1_555 1_555
H18 C13 1_555 1_555
H19 C13 1_555 1_555
H20 C13 1_555 1_555
C14 C12 1_555 1_555
H21 C14 1_555 1_555
H22 C14 1_555 1_555
C15 C14 1_555 1_555
H23 C15 1_555 1_555
H24 C15 1_555 1_555
C16 C8 1_555 1_555
H25 C16 1_555 1_555
C17 C1 1_555 1_555
H26 C17 1_555 1_555
C4 C17 1_555 1_555
C15 C16 1_555 1_555
C16 C17 1_555 1_555

#END
