
#######################################################################
#
#                 Cambridge Crystallographic Data Centre
#                                CCDC 
#
#######################################################################
#
# If this CIF has been generated from an entry in the Cambridge 
# Structural Database, then it will include bibliographic, chemical, 
# crystal, experimental, refinement or atomic coordinate data resulting 
# from the CCDC's data processing and validation procedures.
#
#######################################################################

data_ZETMOD
_chemical_formula_moiety         'C30 H34 Cl2 N12 O4'
_chemical_name_systematic        
'di-t-butyl 11,25-dichloro-2,8-dimethyl-2,8,10,12,14,15,21,22,24,26,27,29-dodecaazapentacyclo[21.3.1.1^3,7^.1^9,13^.1^16,20^]triaconta-1(27),3(30),4,6,9(29),10,12,16(28),17,19,23,25-dodecaene-15,21-dicarboxylate unknown solvate'
_symmetry_cell_setting           orthorhombic
_symmetry_space_group_name_H-M   'P n m a'
_symmetry_Int_Tables_number      62
_space_group_name_Hall           '-P 2ac 2n'
loop_
_symmetry_equiv_pos_site_id
_symmetry_equiv_pos_as_xyz
1 x,y,z
2 1/2-x,-y,1/2+z
3 -x,1/2+y,-z
4 1/2+x,1/2-y,1/2-z
5 -x,-y,-z
6 1/2+x,y,1/2-z
7 x,1/2-y,z
8 1/2-x,1/2+y,1/2+z
_cell_length_a                   20.197(4)
_cell_length_b                   21.108(4)
_cell_length_c                   10.260(2)
_cell_angle_alpha                90
_cell_angle_beta                 90
_cell_angle_gamma                90
_cell_volume                     4374.03
_exptl_crystal_colour            colorless
_exptl_crystal_description       Prism
_cell_formula_units_Z            4
loop_
_atom_site_label
_atom_site_type_symbol
_atom_site_fract_x
_atom_site_fract_y
_atom_site_fract_z
Cl1 Cl 0.39213(3) 0.56885(2) 0.78751(6)
O1 O 0.63729(7) 0.43708(6) 0.61340(16)
O2 O 0.67220(7) 0.33602(7) 0.58506(18)
N1 N 0.46128(7) 0.48638(7) 0.66053(15)
N2 N 0.49778(8) 0.38846(7) 0.75348(15)
N3 N 0.43268(8) 0.46121(7) 0.87937(15)
N4 N 0.46712(8) 0.36543(7) 0.96396(15)
N5 N 0.56652(7) 0.36583(6) 0.53730(14)
N6 N 0.52151(8) 0.41559(7) 0.54123(14)
H1 H 0.511904 0.436687 0.472056
C1 C 0.43361(9) 0.49657(8) 0.77472(18)
C2 C 0.46637(9) 0.40581(8) 0.86272(17)
C3 C 0.49332(8) 0.42983(7) 0.65681(17)
C4 C 0.42985(12) 0.37966(10) 1.0825(2)
H2 H 0.457069 0.403873 1.140810
H3 H 0.416971 0.340808 1.123998
H4 H 0.391042 0.403634 1.060477
C5 C 0.50311(10) 0.30667(8) 0.95696(16)
C6 C 0.46849(13) 0.250000 0.9661(2)
H5 H 0.422852 0.249999 0.978062
C7 C 0.57088(10) 0.30676(9) 0.94172(19)
H6 H 0.593744 0.344940 0.937038
C8 C 0.60492(14) 0.250000 0.9334(3)
H7 H 0.650619 0.250000 0.922164
C9 C 0.54246(9) 0.30647(7) 0.49010(16)
C10 C 0.49455(11) 0.30673(9) 0.3944(2)
H8 H 0.478409 0.344883 0.362038
C11 C 0.47072(18) 0.250000 0.3470(3)
H9 H 0.438336 0.249999 0.282530
C12 C 0.56633(11) 0.250000 0.5407(2)
H10 H 0.597656 0.250000 0.607148
C13 C 0.63018(9) 0.37613(8) 0.58017(19)
C14 C 0.70177(12) 0.46112(10) 0.6584(2)
C15 C 0.68943(15) 0.53134(12) 0.6667(3)
H11 H 0.679534 0.547506 0.581400
H12 H 0.728191 0.552045 0.700081
H13 H 0.652685 0.539238 0.723752
C16 C 0.75460(14) 0.44651(15) 0.5597(4)
H14 H 0.764899 0.402134 0.562598
H15 H 0.793645 0.470643 0.579312
H16 H 0.739007 0.457431 0.474242
C17 C 0.7150(2) 0.43331(17) 0.7909(4)
H17 H 0.682023 0.447871 0.851204
H18 H 0.758033 0.446401 0.820393
H19 H 0.713539 0.387924 0.785724
Cl1F Cl 0.39213(3) -0.06885(2) 0.78751(6)
O1F O 0.63729(7) 0.06292(6) 0.61340(16)
O2F O 0.67220(7) 0.16398(7) 0.58506(18)
N1F N 0.46128(7) 0.01362(7) 0.66053(15)
N2F N 0.49778(8) 0.11154(7) 0.75348(15)
N3F N 0.43268(8) 0.03879(7) 0.87937(15)
N4F N 0.46712(8) 0.13457(7) 0.96396(15)
N5F N 0.56652(7) 0.13417(6) 0.53730(14)
N6F N 0.52151(8) 0.08441(7) 0.54123(14)
H1F H 0.511904 0.063313 0.472056
C1F C 0.43361(9) 0.00343(8) 0.77472(18)
C2F C 0.46637(9) 0.09419(8) 0.86272(17)
C3F C 0.49332(8) 0.07017(7) 0.65681(17)
C4F C 0.42985(12) 0.12034(10) 1.0825(2)
H2F H 0.457069 0.096127 1.140810
H3F H 0.416971 0.159192 1.123998
H4F H 0.391042 0.096366 1.060477
C5F C 0.50311(10) 0.19333(8) 0.95696(16)
C7F C 0.57088(10) 0.19324(9) 0.94172(19)
H6F H 0.593744 0.155060 0.937038
C9F C 0.54246(9) 0.19353(7) 0.49010(16)
C10F C 0.49455(11) 0.19327(9) 0.3944(2)
H8F H 0.478409 0.155117 0.362038
C13F C 0.63018(9) 0.12387(8) 0.58017(19)
C14F C 0.70177(12) 0.03888(10) 0.6584(2)
C15F C 0.68943(15) -0.03134(12) 0.6667(3)
H11F H 0.679534 -0.047506 0.581400
H12F H 0.728191 -0.052045 0.700081
H13F H 0.652685 -0.039238 0.723752
C16F C 0.75460(14) 0.05349(15) 0.5597(4)
H14F H 0.764899 0.097866 0.562598
H15F H 0.793645 0.029357 0.579312
H16F H 0.739007 0.042569 0.474242
C17F C 0.7150(2) 0.06669(17) 0.7909(4)
H17F H 0.682023 0.052129 0.851204
H18F H 0.758033 0.053599 0.820393
H19F H 0.713539 0.112076 0.785724
loop_
_geom_bond_atom_site_label_1
_geom_bond_atom_site_label_2
_geom_bond_site_symmetry_1
_geom_bond_site_symmetry_2
Cl1 C1 1_555 1_555
O1 C13 1_555 1_555
O2 C13 1_555 1_555
N1 C1 1_555 1_555
N2 C2 1_555 1_555
N3 C1 1_555 1_555
N4 C2 1_555 1_555
N5 N6 1_555 1_555
N6 H1 1_555 1_555
C2 N3 1_555 1_555
C3 N1 1_555 1_555
C4 N4 1_555 1_555
H2 C4 1_555 1_555
H3 C4 1_555 1_555
H4 C4 1_555 1_555
C5 N4 1_555 1_555
C6 C5 1_555 1_555
H5 C6 1_555 1_555
C7 C5 1_555 1_555
H6 C7 1_555 1_555
C8 C7 1_555 1_555
H7 C8 1_555 1_555
C9 N5 1_555 1_555
C10 C9 1_555 1_555
H8 C10 1_555 1_555
C11 C10 1_555 1_555
H9 C11 1_555 1_555
C12 C9 1_555 1_555
H10 C12 1_555 1_555
C13 N5 1_555 1_555
C14 O1 1_555 1_555
C15 C14 1_555 1_555
H11 C15 1_555 1_555
H12 C15 1_555 1_555
H13 C15 1_555 1_555
C16 C14 1_555 1_555
H14 C16 1_555 1_555
H15 C16 1_555 1_555
H16 C16 1_555 1_555
C17 C14 1_555 1_555
H17 C17 1_555 1_555
H18 C17 1_555 1_555
H19 C17 1_555 1_555
Cl1F C1F 1_555 1_555
O1F C13F 1_555 1_555
O2F C13F 1_555 1_555
N1F C1F 1_555 1_555
N2F C2F 1_555 1_555
N3F C1F 1_555 1_555
N4F C2F 1_555 1_555
N5F N6F 1_555 1_555
N6F H1F 1_555 1_555
C2F N3F 1_555 1_555
C3F N1F 1_555 1_555
C4F N4F 1_555 1_555
H2F C4F 1_555 1_555
H3F C4F 1_555 1_555
H4F C4F 1_555 1_555
C5F C6 1_555 1_555
C7F C8 1_555 1_555
H6F C7F 1_555 1_555
C9F C12 1_555 1_555
C10F C11 1_555 1_555
H8F C10F 1_555 1_555
C13F N5F 1_555 1_555
C14F O1F 1_555 1_555
C15F C14F 1_555 1_555
H11F C15F 1_555 1_555
H12F C15F 1_555 1_555
H13F C15F 1_555 1_555
C16F C14F 1_555 1_555
H14F C16F 1_555 1_555
H15F C16F 1_555 1_555
H16F C16F 1_555 1_555
C17F C14F 1_555 1_555
H17F C17F 1_555 1_555
H18F C17F 1_555 1_555
H19F C17F 1_555 1_555
N2 C3 1_555 1_555
N6 C3 1_555 1_555
N2F C3F 1_555 1_555
N4F C5F 1_555 1_555
N5F C9F 1_555 1_555
N6F C3F 1_555 1_555
C5F C7F 1_555 1_555
C9F C10F 1_555 1_555

#END
