
#######################################################################
#
#                 Cambridge Crystallographic Data Centre
#                                CCDC 
#
#######################################################################
#
# If this CIF has been generated from an entry in the Cambridge 
# Structural Database, then it will include bibliographic, chemical, 
# crystal, experimental, refinement or atomic coordinate data resulting 
# from the CCDC's data processing and validation procedures.
#
#######################################################################

data_ZETNEU
_chemical_formula_moiety         'C26 H29 N11 O6,C4 H8 O1'
_chemical_name_systematic        
'11,25-dibutoxy-30-nitro-2,8-dioxa-10,12,14,15,21,22,24,26,27,29-decaazapentacyclo[21.3.1.1^3,7^.1^9,13^.1^16,20^]triaconta-1(27),3(30),4,6,9(29),10,12,16(28),17,19,23,25-dodecaene tetrahydrofuran solvate'
_symmetry_cell_setting           monoclinic
_symmetry_space_group_name_H-M   'P 21/n'
_symmetry_Int_Tables_number      14
_space_group_name_Hall           '-P 2yn'
loop_
_symmetry_equiv_pos_site_id
_symmetry_equiv_pos_as_xyz
1 x,y,z
2 1/2-x,1/2+y,1/2-z
3 -x,-y,-z
4 1/2+x,1/2-y,1/2+z
_cell_length_a                   14.1376(5)
_cell_length_b                   12.3877(5)
_cell_length_c                   18.7603(7)
_cell_angle_alpha                90
_cell_angle_beta                 94.690(4)
_cell_angle_gamma                90
_cell_volume                     3274.53
_exptl_crystal_colour            colorless
_exptl_crystal_description       rod
_cell_formula_units_Z            4
loop_
_atom_site_label
_atom_site_type_symbol
_atom_site_fract_x
_atom_site_fract_y
_atom_site_fract_z
O1 O 0.84321(14) 0.24294(16) 0.68024(10)
O2 O 1.07839(13) 0.11533(17) 0.82995(11)
O3 O 0.21715(15) 0.21507(19) 0.57525(12)
O4 O 0.52715(13) 0.29191(15) 0.57560(9)
O5 O 0.64788(19) 0.11539(19) 0.56914(13)
O6 O 0.69248(19) 0.09843(17) 0.68129(13)
N1 N 0.84009(14) 0.28680(16) 0.79872(11)
N2 N 0.95974(15) 0.17459(18) 0.75487(12)
N3 N 0.96079(14) 0.20919(17) 0.88017(12)
N4 N 0.84203(15) 0.31233(18) 0.92065(11)
H1 H 0.8666 0.2993 0.9632
N5 N 0.76223(15) 0.37835(17) 0.91123(12)
H2 H 0.7657 0.4461 0.9212
N6 N 0.44640(16) 0.4314(2) 0.80525(12)
H3 H 0.4697 0.4833 0.7818
N7 N 0.36610(16) 0.3876(2) 0.76792(12)
H4 H 0.3128 0.3898 0.7870
N8 N 0.45237(15) 0.34207(18) 0.67398(11)
N9 N 0.28700(16) 0.2999(2) 0.67449(13)
N10 N 0.37076(16) 0.25744(19) 0.57280(12)
N11 N 0.67364(16) 0.15282(18) 0.62754(13)
C1 C 0.88236(17) 0.23548(19) 0.74872(13)
C2 C 0.99629(17) 0.1693(2) 0.82279(15)
C3 C 0.88137(17) 0.26872(19) 0.86485(13)
C4 C 1.12585(19) 0.1064(3) 0.90131(16)
H5 H 1.0962 0.0505 0.9281
H6 H 1.1217 0.1742 0.9267
C5 C 1.22786(19) 0.0784(3) 0.89347(17)
H7 H 1.2604 0.1408 0.8760
H8 H 1.2312 0.0207 0.8588
C6 C 1.2766(2) 0.0431(3) 0.96482(19)
H9 H 1.2731 0.1012 0.9992
H10 H 1.2433 -0.0187 0.9824
C7 C 1.3795(2) 0.0135(4) 0.9591(2)
H11 H 1.3834 -0.0414 0.9234
H12 H 1.4063 -0.0130 1.0044
H13 H 1.4139 0.0762 0.9458
C8 C 0.67606(17) 0.3313(2) 0.88494(12)
C9 C 0.60608(18) 0.39862(19) 0.85363(13)
H14 H 0.6187 0.4716 0.8478
C10 C 0.51730(17) 0.3576(2) 0.83100(12)
C11 C 0.49918(18) 0.2475(2) 0.83780(14)
H15 H 0.4402 0.2191 0.8223
C12 C 0.5704(2) 0.1811(2) 0.86801(15)
H16 H 0.5591 0.1074 0.8717
C13 C 0.65818(19) 0.2221(2) 0.89292(14)
H17 H 0.7045 0.1769 0.9147
C14 C 0.36911(18) 0.3425(2) 0.70393(14)
C15 C 0.29326(19) 0.2598(2) 0.61011(15)
C16 C 0.44656(18) 0.2987(2) 0.61004(13)
C17 C 0.1355(2) 0.1959(4) 0.6166(3)
H18 H 0.1152 0.2634 0.6367
H19 H 0.1531 0.1468 0.6557
C18 C 0.0549(3) 0.1480(4) 0.5687(3)
H20 H 0.0817 0.1106 0.5296
H21 H 0.0230 0.0945 0.5959
C19 C -0.0125(3) 0.2208(4) 0.5399(3)
H22 H 0.0159 0.2661 0.5053
H23 H -0.0321 0.2671 0.5777
C20 C -0.1021(3) 0.1632(5) 0.5025(2)
H24 H -0.1421 0.2157 0.4773
H25 H -0.1368 0.1284 0.5379
H26 H -0.0824 0.1103 0.4694
C21 C 0.60910(17) 0.3370(2) 0.60955(12)
C22 C 0.68326(18) 0.26986(19) 0.63414(12)
C23 C 0.76758(18) 0.3128(2) 0.66536(13)
C24 C 0.77658(19) 0.4228(2) 0.67398(14)
H27 H 0.8326 0.4523 0.6951
C25 C 0.7015(2) 0.4891(2) 0.65092(14)
H28 H 0.7068 0.5632 0.6580
C26 C 0.61864(19) 0.4471(2) 0.61756(14)
H29 H 0.5697 0.4929 0.6007
O7 O 0.1878(4) 0.3968(6) 0.8331(3)
C27 C 0.1157(3) 0.4497(7) 0.7849(2)
H30 H 0.1455 0.5037 0.7566
H31 H 0.0853 0.3969 0.7524
C28 C 0.0463(3) 0.4998(4) 0.8252(3)
H32 H -0.0163 0.4706 0.8117
H33 H 0.0449 0.5771 0.8170
C29 C 0.0755(2) 0.4757(3) 0.9025(2)
H34 H 0.0684 0.5387 0.9322
H35 H 0.0384 0.4168 0.9199
C30 C 0.1771(3) 0.4448(4) 0.90142(19)
H36 H 0.2174 0.5080 0.9081
H37 H 0.1947 0.3938 0.9394
O8? O 0.2020(4) 0.4669(7) 0.8302(4)
loop_
_geom_bond_atom_site_label_1
_geom_bond_atom_site_label_2
_geom_bond_site_symmetry_1
_geom_bond_site_symmetry_2
O1 C1 1_555 1_555
O2 C2 1_555 1_555
O3 C15 1_555 1_555
O4 C16 1_555 1_555
O5 N11 1_555 1_555
O6 N11 1_555 1_555
N1 C1 1_555 1_555
N2 C1 1_555 1_555
N3 C2 1_555 1_555
N4 H1 1_555 1_555
N5 N4 1_555 1_555
H2 N5 1_555 1_555
N6 H3 1_555 1_555
N7 N6 1_555 1_555
H4 N7 1_555 1_555
N8 C14 1_555 1_555
N9 C14 1_555 1_555
N10 C15 1_555 1_555
N11 C22 1_555 1_555
C2 N2 1_555 1_555
C3 N1 1_555 1_555
C4 O2 1_555 1_555
H5 C4 1_555 1_555
H6 C4 1_555 1_555
C5 C4 1_555 1_555
H7 C5 1_555 1_555
H8 C5 1_555 1_555
C6 C5 1_555 1_555
H9 C6 1_555 1_555
H10 C6 1_555 1_555
C7 C6 1_555 1_555
H11 C7 1_555 1_555
H12 C7 1_555 1_555
H13 C7 1_555 1_555
C8 N5 1_555 1_555
C9 C8 1_555 1_555
H14 C9 1_555 1_555
C10 N6 1_555 1_555
C11 C10 1_555 1_555
H15 C11 1_555 1_555
C12 C11 1_555 1_555
H16 C12 1_555 1_555
C13 C8 1_555 1_555
H17 C13 1_555 1_555
C14 N7 1_555 1_555
C15 N9 1_555 1_555
C16 N8 1_555 1_555
C17 O3 1_555 1_555
H18 C17 1_555 1_555
H19 C17 1_555 1_555
C18 C17 1_555 1_555
H20 C18 1_555 1_555
H21 C18 1_555 1_555
C19 C18 1_555 1_555
H22 C19 1_555 1_555
H23 C19 1_555 1_555
C20 C19 1_555 1_555
H24 C20 1_555 1_555
H25 C20 1_555 1_555
H26 C20 1_555 1_555
C21 O4 1_555 1_555
C22 C21 1_555 1_555
C23 O1 1_555 1_555
C24 C23 1_555 1_555
H27 C24 1_555 1_555
C25 C24 1_555 1_555
H28 C25 1_555 1_555
C26 C21 1_555 1_555
H29 C26 1_555 1_555
O7 C27 1_555 1_555
C27 H30 1_555 1_555
H31 C27 1_555 1_555
C28 C27 1_555 1_555
H32 C28 1_555 1_555
H33 C28 1_555 1_555
C29 C28 1_555 1_555
H34 C29 1_555 1_555
H35 C29 1_555 1_555
C30 O7 1_555 1_555
H36 C30 1_555 1_555
H37 C30 1_555 1_555
N3 C3 1_555 1_555
N4 C3 1_555 1_555
N10 C16 1_555 1_555
C9 C10 1_555 1_555
C12 C13 1_555 1_555
C22 C23 1_555 1_555
C25 C26 1_555 1_555
C29 C30 1_555 1_555

#END
