
#######################################################################
#
#                 Cambridge Crystallographic Data Centre
#                                CCDC 
#
#######################################################################
#
# If this CIF has been generated from an entry in the Cambridge 
# Structural Database, then it will include bibliographic, chemical, 
# crystal, experimental, refinement or atomic coordinate data resulting 
# from the CCDC's data processing and validation procedures.
#
#######################################################################

data_ZETNAP
_chemical_compound_source        'cone of Pseudolarix amabilis'
_chemical_name_common            Pseudolarenone
_chemical_formula_moiety         'C29 H44 O6'
_chemical_name_systematic        
1'-Hydroxy-16'-(2-hydroxypropan-2-yl)-4,4',6',12'-tetramethyl-3,4-dihydro-5H,18'H-spiro[furan-2,8'-[9]oxatetracyclo[15.2.1.0^4,12^.0^5,10^]icos[17(20)]ene]-5,18'-dione
_chemical_properties_biological  
'moderate inhibition against LPS-induced NO release in RAW264.7 macrophages without cytotoxicity'
_symmetry_cell_setting           orthorhombic
_symmetry_space_group_name_H-M   'P 21 21 21'
_symmetry_Int_Tables_number      19
_space_group_name_Hall           'P 2ac 2ab'
loop_
_symmetry_equiv_pos_site_id
_symmetry_equiv_pos_as_xyz
1 x,y,z
2 1/2+x,1/2-y,-z
3 -x,1/2+y,1/2-z
4 1/2-x,-y,1/2+z
_cell_length_a                   9.11580(10)
_cell_length_b                   12.7970(2)
_cell_length_c                   23.0938(3)
_cell_angle_alpha                90
_cell_angle_beta                 90
_cell_angle_gamma                90
_cell_volume                     2694
_exptl_crystal_colour            colorless
_exptl_crystal_description       block
_cell_formula_units_Z            4
loop_
_atom_site_label
_atom_site_type_symbol
_atom_site_fract_x
_atom_site_fract_y
_atom_site_fract_z
O1 O 0.48999(12) 0.69808(8) 1.16721(5)
O2 O 0.88970(10) 0.48991(9) 1.11567(4)
H1 H 0.8946 0.4743 1.1509
O3 O 0.47698(12) 0.31692(7) 1.22493(4)
H2 H 0.4867 0.2766 1.2534
O4 O 0.35778(10) 0.37275(7) 0.83058(4)
O5 O 0.46666(10) 0.21276(7) 0.81009(4)
O6 O 0.37395(11) 0.07451(7) 0.76537(4)
C1 C 0.70282(15) 0.62933(11) 1.11569(6)
H3 H 0.7816 0.6621 1.1389
H4 H 0.6886 0.6706 1.0799
C2 C 0.56116(14) 0.62362(10) 1.15019(5)
C3 C 0.52558(14) 0.51218(10) 1.16009(5)
C4 C 0.40883(14) 0.41259(10) 1.24370(5)
C5 C 0.38391(14) 0.47858(10) 1.18850(5)
H5 H 0.3315 0.5436 1.2007
C6 C 0.28783(14) 0.42517(10) 1.14203(5)
H6 H 0.3391 0.3622 1.1276
H7 H 0.1945 0.4023 1.1600
C7 C 0.25369(14) 0.49776(10) 1.09067(5)
H8 H 0.3385 0.5448 1.0846
H9 H 0.1684 0.5419 1.1010
C8 C 0.21990(14) 0.44113(11) 1.03281(5)
H10 H 0.1154 0.4536 1.0234
H11 H 0.2315 0.3651 1.0394
C9 C 0.74187(14) 0.51537(11) 1.10109(5)
C10 C 0.63097(14) 0.45371(10) 1.13577(5)
H12 H 0.6356 0.3799 1.1400
C11 C 0.72876(14) 0.48860(11) 1.03618(5)
H13 H 0.7432 0.4124 1.0314
H14 H 0.8089 0.5243 1.0151
C12 C 0.58121(14) 0.51918(10) 1.00790(5)
H15 H 0.6030 0.5718 0.9777
H16 H 0.5220 0.5549 1.0379
C13 C 0.48120(13) 0.43419(9) 0.97964(5)
C14 C 0.31248(13) 0.47086(10) 0.97862(5)
C15 C 0.24642(14) 0.41379(11) 0.92463(5)
H17 H 0.1752 0.3598 0.9370
H18 H 0.1954 0.4644 0.8992
C16 C 0.37431(14) 0.36368(10) 0.89269(5)
H19 H 0.3804 0.2881 0.9035
C17 C 0.51142(14) 0.41960(9) 0.91382(5)
H20 H 0.5115 0.4907 0.8959
C18 C 0.49649(15) 0.32867(9) 1.01063(5)
H21 H 0.4211 0.2805 0.9964
H22 H 0.4842 0.3387 1.0524
H23 H 0.5939 0.2994 1.0029
C19 C 0.29679(15) 0.58956(10) 0.96807(6)
H24 H 0.1933 0.6067 0.9615
H25 H 0.3544 0.6095 0.9340
H26 H 0.3327 0.6278 1.0020
C20 C 0.64435(14) 0.36048(10) 0.88942(5)
H27 H 0.6387 0.2863 0.9028
C21 C 0.79652(15) 0.40269(11) 0.90410(6)
H28 H 0.7986 0.4784 0.8977
H29 H 0.8698 0.3690 0.8793
H30 H 0.8189 0.3878 0.9448
C22 C 0.62551(14) 0.36197(10) 0.82313(5)
H31 H 0.6436 0.4340 0.8092
H32 H 0.7014 0.3163 0.8058
C23 C 0.47660(15) 0.32686(9) 0.80136(5)
C24 C 0.45160(15) 0.33989(10) 0.73639(5)
H33 H 0.5455 0.3369 0.7149
H34 H 0.4024 0.4071 0.7278
C25 C 0.35326(15) 0.24762(10) 0.72059(5)
H35 H 0.2489 0.2684 0.7273
C26 C 0.39546(14) 0.16755(10) 0.76572(6)
C27 C 0.3674(2) 0.20652(12) 0.65884(6)
H36 H 0.4700 0.1885 0.6511
H37 H 0.3353 0.2605 0.6315
H38 H 0.3060 0.1442 0.6542
C28 C 0.50924(16) 0.47029(12) 1.28565(6)
H39 H 0.5195 0.4294 1.3213
H40 H 0.4669 0.5387 1.2948
H41 H 0.6059 0.4798 1.2678
C29 C 0.26419(15) 0.38761(11) 1.27420(6)
H42 H 0.2001 0.3488 1.2478
H43 H 0.2160 0.4528 1.2857
H44 H 0.2837 0.3452 1.3087
loop_
_geom_bond_atom_site_label_1
_geom_bond_atom_site_label_2
_geom_bond_site_symmetry_1
_geom_bond_site_symmetry_2
O1 C2 1_555 1_555
O2 H1 1_555 1_555
O3 H2 1_555 1_555
O4 C16 1_555 1_555
O5 C23 1_555 1_555
O6 C26 1_555 1_555
C1 H3 1_555 1_555
H4 C1 1_555 1_555
C2 C1 1_555 1_555
C3 C2 1_555 1_555
C4 O3 1_555 1_555
C5 C3 1_555 1_555
H5 C5 1_555 1_555
C6 C5 1_555 1_555
H6 C6 1_555 1_555
H7 C6 1_555 1_555
C7 C6 1_555 1_555
H8 C7 1_555 1_555
H9 C7 1_555 1_555
C8 C7 1_555 1_555
H10 C8 1_555 1_555
H11 C8 1_555 1_555
C9 O2 1_555 1_555
C10 C3 1_555 1_555
H12 C10 1_555 1_555
C11 C9 1_555 1_555
H13 C11 1_555 1_555
H14 C11 1_555 1_555
C12 C11 1_555 1_555
H15 C12 1_555 1_555
H16 C12 1_555 1_555
C13 C12 1_555 1_555
C14 C8 1_555 1_555
C15 C14 1_555 1_555
H17 C15 1_555 1_555
H18 C15 1_555 1_555
C16 C15 1_555 1_555
H19 C16 1_555 1_555
C17 C13 1_555 1_555
H20 C17 1_555 1_555
C18 C13 1_555 1_555
H21 C18 1_555 1_555
H22 C18 1_555 1_555
H23 C18 1_555 1_555
C19 C14 1_555 1_555
H24 C19 1_555 1_555
H25 C19 1_555 1_555
H26 C19 1_555 1_555
C20 C17 1_555 1_555
H27 C20 1_555 1_555
C21 C20 1_555 1_555
H28 C21 1_555 1_555
H29 C21 1_555 1_555
H30 C21 1_555 1_555
C22 C20 1_555 1_555
H31 C22 1_555 1_555
H32 C22 1_555 1_555
C23 O4 1_555 1_555
C24 C23 1_555 1_555
H33 C24 1_555 1_555
H34 C24 1_555 1_555
C25 C24 1_555 1_555
H35 C25 1_555 1_555
C26 O5 1_555 1_555
C27 C25 1_555 1_555
H36 C27 1_555 1_555
H37 C27 1_555 1_555
H38 C27 1_555 1_555
C28 C4 1_555 1_555
H39 C28 1_555 1_555
H40 C28 1_555 1_555
H41 C28 1_555 1_555
C29 C4 1_555 1_555
H42 C29 1_555 1_555
H43 C29 1_555 1_555
H44 C29 1_555 1_555
C1 C9 1_555 1_555
C4 C5 1_555 1_555
C9 C10 1_555 1_555
C13 C14 1_555 1_555
C16 C17 1_555 1_555
C22 C23 1_555 1_555
C25 C26 1_555 1_555

#END
