
#######################################################################
#
#                 Cambridge Crystallographic Data Centre
#                                CCDC 
#
#######################################################################
#
# If this CIF has been generated from an entry in the Cambridge 
# Structural Database, then it will include bibliographic, chemical, 
# crystal, experimental, refinement or atomic coordinate data resulting 
# from the CCDC's data processing and validation procedures.
#
#######################################################################

data_ZETNIY
_chemical_formula_moiety         'C31 H32 Cl2 N10 O8'
_chemical_name_systematic        
'15,21-di-t-butyl 5-ethyl 11,25-dichloro-2,8-dioxa-10,12,14,15,21,22,24,26,27,29-decaazapentacyclo[21.3.1.1^3,7^.1^9,13^.1^16,20^]triaconta-1(27),3(30),4,6,9(29),10,12,16(28),17,19,23,25-dodecaene-5,15,21-tricarboxylate unknown solvate'
_symmetry_cell_setting           monoclinic
_symmetry_space_group_name_H-M   'P 21/n'
_symmetry_Int_Tables_number      14
_space_group_name_Hall           '-P 2yn'
loop_
_symmetry_equiv_pos_site_id
_symmetry_equiv_pos_as_xyz
1 x,y,z
2 1/2-x,1/2+y,1/2-z
3 -x,-y,-z
4 1/2+x,1/2-y,1/2+z
_cell_length_a                   13.9437(7)
_cell_length_b                   15.3663(9)
_cell_length_c                   18.6515(13)
_cell_angle_alpha                90
_cell_angle_beta                 90.378(4)
_cell_angle_gamma                90
_cell_volume                     3996.24
_exptl_crystal_colour            colorless
_exptl_crystal_description       block
_cell_formula_units_Z            4
loop_
_atom_site_label
_atom_site_type_symbol
_atom_site_fract_x
_atom_site_fract_y
_atom_site_fract_z
Cl1 Cl 0.94610(7) 0.25848(6) 0.45897(5)
Cl2 Cl 0.58924(7) 0.43068(6) 1.08297(5)
O1 O 0.79088(19) 0.62812(17) 0.49378(13)
O2 O 0.7471(2) 0.71717(18) 0.58586(14)
O3 O 0.66454(16) 0.77308(15) 0.76880(13)
O4 O 0.56848(18) 0.71358(19) 0.85393(14)
O5 O 0.55326(17) 0.38797(15) 0.82881(12)
O6 O 0.66778(16) 0.33873(15) 0.59378(13)
O7 O 0.4210(2) 0.58087(19) 0.56559(14)
O8 O 0.36595(17) 0.59470(16) 0.67730(13)
N1 N 0.78149(19) 0.44626(18) 0.58405(14)
N2 N 0.79685(19) 0.30624(17) 0.52940(15)
N3 N 0.9204(2) 0.41031(17) 0.51494(15)
N4 N 0.9077(2) 0.54266(18) 0.56971(16)
H1 H 0.9665 0.5521 0.5584
N5 N 0.8541(2) 0.60777(18) 0.60269(15)
N6 N 0.7220(2) 0.66650(18) 0.83820(14)
N7 N 0.7216(2) 0.62930(18) 0.90616(14)
H2 H 0.7530 0.6531 0.9408
N8 N 0.6599(2) 0.53489(19) 0.98743(15)
N9 N 0.5760(2) 0.40890(18) 0.94606(15)
N10 N 0.63995(19) 0.50930(17) 0.86151(14)
C1 C 0.7516(2) 0.3670(2) 0.56846(16)
C2 C 0.8809(2) 0.3331(2) 0.50620(17)
C3 C 0.8669(2) 0.4649(2) 0.55562(17)
C4 C 0.7918(3) 0.6572(2) 0.56144(19)
C5 C 0.7275(3) 0.6696(3) 0.4400(2)
C6 C 0.7463(4) 0.6146(4) 0.3739(2)
H3 H 0.8121 0.6207 0.3600
H4 H 0.7053 0.6336 0.3354
H5 H 0.7332 0.5546 0.3844
C7 C 0.6238(4) 0.6612(4) 0.4636(3)
H6 H 0.6100 0.6014 0.4742
H7 H 0.5822 0.6810 0.4258
H8 H 0.6138 0.6960 0.5056
C8 C 0.7586(5) 0.7621(3) 0.4287(3)
H9 H 0.7481 0.7949 0.4718
H10 H 0.7221 0.7872 0.3901
H11 H 0.8256 0.7634 0.4170
C9 C 0.8676(2) 0.6213(2) 0.67753(18)
C10 C 0.9586(2) 0.6189(2) 0.7067(2)
H12 H 1.0113 0.6098 0.6773
C11 C 0.9716(3) 0.6302(3) 0.7794(2)
H13 H 1.0329 0.6264 0.7990
C12 C 0.8942(3) 0.6470(2) 0.8236(2)
H14 H 0.9034 0.6563 0.8724
C13 C 0.8028(2) 0.6498(2) 0.79360(17)
C14 C 0.7884(2) 0.6345(2) 0.72120(17)
H15 H 0.7267 0.6331 0.7020
C15 C 0.6429(2) 0.7181(2) 0.82115(18)
C16 C 0.5886(3) 0.8227(2) 0.7310(2)
C17 C 0.6450(3) 0.8791(3) 0.6796(2)
H16 H 0.6841 0.9191 0.7063
H17 H 0.6014 0.9109 0.6494
H18 H 0.6852 0.8429 0.6505
C18 C 0.5259(4) 0.7579(3) 0.6912(3)
H19 H 0.5647 0.7239 0.6594
H20 H 0.4780 0.7885 0.6640
H21 H 0.4952 0.7201 0.7250
C19 C 0.5322(3) 0.8787(3) 0.7827(3)
H22 H 0.4984 0.8421 0.8156
H23 H 0.4872 0.9138 0.7564
H24 H 0.5755 0.9158 0.8088
C20 C 0.6714(2) 0.5550(2) 0.91719(17)
C21 C 0.5927(2) 0.4383(2) 0.87991(18)
C22 C 0.6122(2) 0.4613(2) 0.99513(18)
C23 C 0.5575(2) 0.4162(2) 0.75725(17)
C24 C 0.6181(2) 0.3710(2) 0.71251(18)
H25 H 0.6588 0.3278 0.7299
C25 C 0.6157(2) 0.3927(2) 0.64068(18)
C26 C 0.5564(2) 0.4563(2) 0.61305(17)
H26 H 0.5568 0.4696 0.5644
C27 C 0.4961(2) 0.5000(2) 0.65987(17)
C28 C 0.4963(2) 0.4800(2) 0.73266(18)
H27 H 0.4560 0.5092 0.7641
C29 C 0.4260(2) 0.5625(2) 0.62854(18)
C30 C 0.2917(3) 0.6527(3) 0.6510(2)
H28 H 0.2502 0.6225 0.6173
H29 H 0.3200 0.7023 0.6269
C31 C 0.2362(4) 0.6818(4) 0.7144(3)
H30 H 0.1824 0.7160 0.6987
H31 H 0.2766 0.7164 0.7450
H32 H 0.2138 0.6319 0.7403
loop_
_geom_bond_atom_site_label_1
_geom_bond_atom_site_label_2
_geom_bond_site_symmetry_1
_geom_bond_site_symmetry_2
Cl1 C2 1_555 1_555
Cl2 C22 1_555 1_555
O1 C4 1_555 1_555
O2 C4 1_555 1_555
O3 C15 1_555 1_555
O4 C15 1_555 1_555
O5 C21 1_555 1_555
O6 C1 1_555 1_555
O7 C29 1_555 1_555
O8 C29 1_555 1_555
N1 C1 1_555 1_555
N2 C1 1_555 1_555
N3 C2 1_555 1_555
N4 H1 1_555 1_555
N5 N4 1_555 1_555
N6 N7 1_555 1_555
N7 H2 1_555 1_555
N8 C20 1_555 1_555
N9 C21 1_555 1_555
N10 C20 1_555 1_555
C2 N2 1_555 1_555
C3 N1 1_555 1_555
C4 N5 1_555 1_555
C5 O1 1_555 1_555
C6 C5 1_555 1_555
H3 C6 1_555 1_555
H4 C6 1_555 1_555
H5 C6 1_555 1_555
C7 C5 1_555 1_555
H6 C7 1_555 1_555
H7 C7 1_555 1_555
H8 C7 1_555 1_555
C8 C5 1_555 1_555
H9 C8 1_555 1_555
H10 C8 1_555 1_555
H11 C8 1_555 1_555
C9 N5 1_555 1_555
C10 C9 1_555 1_555
H12 C10 1_555 1_555
C11 C10 1_555 1_555
H13 C11 1_555 1_555
C12 C11 1_555 1_555
H14 C12 1_555 1_555
C13 N6 1_555 1_555
C14 C9 1_555 1_555
H15 C14 1_555 1_555
C15 N6 1_555 1_555
C16 O3 1_555 1_555
C17 C16 1_555 1_555
H16 C17 1_555 1_555
H17 C17 1_555 1_555
H18 C17 1_555 1_555
C18 C16 1_555 1_555
H19 C18 1_555 1_555
H20 C18 1_555 1_555
H21 C18 1_555 1_555
C19 C16 1_555 1_555
H22 C19 1_555 1_555
H23 C19 1_555 1_555
H24 C19 1_555 1_555
C20 N7 1_555 1_555
C21 N10 1_555 1_555
C22 N8 1_555 1_555
C23 O5 1_555 1_555
C24 C23 1_555 1_555
H25 C24 1_555 1_555
C25 O6 1_555 1_555
C26 C25 1_555 1_555
H26 C26 1_555 1_555
C27 C26 1_555 1_555
C28 C23 1_555 1_555
H27 C28 1_555 1_555
C29 C27 1_555 1_555
C30 O8 1_555 1_555
H28 C30 1_555 1_555
H29 C30 1_555 1_555
C31 C30 1_555 1_555
H30 C31 1_555 1_555
H31 C31 1_555 1_555
H32 C31 1_555 1_555
N3 C3 1_555 1_555
N4 C3 1_555 1_555
N9 C22 1_555 1_555
C12 C13 1_555 1_555
C13 C14 1_555 1_555
C24 C25 1_555 1_555
C27 C28 1_555 1_555

#END
