
#######################################################################
#
#                 Cambridge Crystallographic Data Centre
#                                CCDC 
#
#######################################################################
#
# If this CIF has been generated from an entry in the Cambridge 
# Structural Database, then it will include bibliographic, chemical, 
# crystal, experimental, refinement or atomic coordinate data resulting 
# from the CCDC's data processing and validation procedures.
#
#######################################################################

data_ZETNAQ
_chemical_formula_moiety         'C26 H30 N10 O4,0.5(C1 H2 Cl2)'
_chemical_name_systematic        
'11,25-dibutoxy-2,8-dioxa-10,12,14,15,21,22,24,26,27,29-decaazapentacyclo[21.3.1.1^3,7^.1^9,13^.1^16,20^]triaconta-1(27),3(30),4,6,9(29),10,12,16(28),17,19,23,25-dodecaene dichloromethane solvate'
_symmetry_cell_setting           monoclinic
_symmetry_space_group_name_H-M   'P 21'
_symmetry_Int_Tables_number      4
_space_group_name_Hall           'P 2yb'
loop_
_symmetry_equiv_pos_site_id
_symmetry_equiv_pos_as_xyz
1 x,y,z
2 -x,1/2+y,-z
_cell_length_a                   9.626(3)
_cell_length_b                   14.735(4)
_cell_length_c                   20.914(6)
_cell_angle_alpha                90
_cell_angle_beta                 89.996(4)
_cell_angle_gamma                90
_cell_volume                     2966.42
_exptl_crystal_colour            colorless
_exptl_crystal_description       block
_cell_formula_units_Z            4
loop_
_atom_site_label
_atom_site_type_symbol
_atom_site_fract_x
_atom_site_fract_y
_atom_site_fract_z
O1 O 0.3652(6) 0.8783(4) 0.3656(3)
O2 O 0.3150(6) 0.8985(4) 0.1410(3)
O3 O 0.4411(7) 0.7573(4) -0.0420(3)
O4 O 0.5031(6) 0.7406(4) 0.5472(3)
N1 N 0.3806(8) 0.8332(5) 0.0507(3)
N2 N 0.3051(7) 0.6816(5) 0.0256(3)
N3 N 0.2341(6) 0.7550(4) 0.1238(3)
N4 N 0.1639(7) 0.6103(5) 0.0951(3)
H1 H 0.1686 0.5649 0.0693
N5 N 0.0812(6) 0.6027(5) 0.1500(3)
H2 H 0.0348 0.6526 0.1499
N6 N 0.0747(7) 0.6063(5) 0.3782(3)
H3 H -0.0134 0.6160 0.3787
N7 N 0.1566(7) 0.6152(5) 0.4332(3)
H4 H 0.1452 0.5770 0.4639
N8 N 0.3304(6) 0.6789(4) 0.4925(3)
N9 N 0.4411(7) 0.8129(5) 0.4539(3)
N10 N 0.2573(6) 0.7466(4) 0.3941(3)
C1 C 0.2736(8) 0.8875(5) 0.3135(4)
C2 C 0.1404(9) 0.9175(5) 0.3223(4)
H5 H 0.1048 0.9248 0.3633
C3 C 0.0593(9) 0.9370(6) 0.2694(4)
H6 H -0.0322 0.9557 0.2747
C4 C 0.1155(8) 0.9283(5) 0.2076(4)
H7 H 0.0629 0.9429 0.1717
C5 C 0.2514(9) 0.8975(5) 0.2014(4)
C6 C 0.3309(8) 0.8780(5) 0.2533(4)
H8 H 0.4222 0.8586 0.2484
C7 C 0.3076(8) 0.8234(6) 0.1040(4)
C8 C 0.3757(9) 0.7585(6) 0.0143(4)
C9 C 0.2353(8) 0.6848(6) 0.0814(4)
C10 C 0.1479(8) 0.5811(5) 0.2080(4)
C11 C 0.2728(8) 0.5310(6) 0.2082(5)
H9 H 0.3152 0.5139 0.1701
C12 C 0.3296(9) 0.5083(7) 0.2656(5)
H10 H 0.4127 0.4760 0.2663
C13 C 0.2671(9) 0.5319(6) 0.3238(4)
H11 H 0.3073 0.5148 0.3624
C14 C 0.1439(7) 0.5811(5) 0.3228(4)
C15 C 0.0851(7) 0.6030(6) 0.2640(4)
H12 H 0.0004 0.6334 0.2630
C16 C 0.2524(8) 0.6811(5) 0.4400(4)
C17 C 0.4225(8) 0.7452(6) 0.4956(4)
C18 C 0.3520(8) 0.8082(6) 0.4064(4)
C19 C 0.5281(13) 0.8341(7) -0.0583(5)
H13 H 0.5761 0.8559 -0.0205
H14 H 0.4716 0.8831 -0.0751
C20 C 0.6146(10) 0.8071(8) 0.5544(5)
H15 H 0.5769 0.8654 0.5673
H16 H 0.6637 0.8148 0.5143
C21 C 0.7099(10) 0.7718(7) 0.6042(5)
H17 H 0.6575 0.7588 0.6427
H18 H 0.7784 0.8179 0.6145
C22 C 0.7837(12) 0.6861(9) 0.5821(7)
H19 H 0.7158 0.6379 0.5774
H20 H 0.8247 0.6970 0.5405
C23 C 0.8943(16) 0.6555(13) 0.6269(11)
H21 H 0.9380 0.6019 0.6103
H22 H 0.8540 0.6422 0.6679
H23 H 0.9624 0.7026 0.6316
C24 C 0.638(3) 0.8024(17) -0.1107(10)
H24 H 0.7029 0.8510 -0.1199
H25 H 0.6897 0.7502 -0.0955
C25 C 0.558(3) 0.7787(19) -0.1685(12)
H26 H 0.4980 0.7284 -0.1575
H27 H 0.4990 0.8299 -0.1785
C26 C 0.627(4) 0.755(3) -0.2239(16)
H28 H 0.5681 0.7662 -0.2600
H29 H 0.6518 0.6921 -0.2225
H30 H 0.7101 0.7912 -0.2279
O5 O 0.1671(6) 0.2521(4) 0.8785(3)
O6 O 0.1636(6) 0.2602(4) 0.6520(3)
O7 O 0.0269(6) 0.4104(4) 0.4732(3)
O8 O 0.0336(7) 0.3934(4) 1.0608(3)
N11 N 0.0908(6) 0.3295(5) 0.5627(3)
N12 N 0.1914(7) 0.4713(5) 0.5327(3)
N13 N 0.2658(6) 0.3987(4) 0.6290(3)
N14 N 0.3551(7) 0.5367(5) 0.5946(3)
H40 H 0.3622 0.5774 0.5653
N15 N 0.4344(6) 0.5453(4) 0.6502(3)
H41 H 0.4892 0.4998 0.6552
N16 N 0.4228(7) 0.5401(5) 0.8791(3)
H42 H 0.5114 0.5326 0.8801
N17 N 0.3439(7) 0.5312(5) 0.9334(3)
H43 H 0.3477 0.5735 0.9617
N18 N 0.1867(8) 0.4600(5) 0.9995(3)
N19 N 0.0971(8) 0.3166(5) 0.9689(3)
N20 N 0.2601(7) 0.3916(4) 0.9003(3)
C30 C 0.2455(8) 0.2477(5) 0.8210(4)
C31 C 0.3789(10) 0.2168(6) 0.8213(4)
H44 H 0.4247 0.2055 0.8596
C32 C 0.4455(8) 0.2026(6) 0.7631(5)
H45 H 0.5360 0.1805 0.7623
C33 C 0.3778(8) 0.2210(6) 0.7067(4)
H46 H 0.4214 0.2109 0.6677
C34 C 0.2434(8) 0.2549(5) 0.7089(3)
C35 C 0.1766(8) 0.2691(5) 0.7654(4)
H47 H 0.0870 0.2927 0.7663
C36 C 0.1772(8) 0.3350(5) 0.6131(4)
C37 C 0.1055(8) 0.4019(6) 0.5254(3)
C38 C 0.2679(8) 0.4667(6) 0.5856(4)
C39 C 0.3604(7) 0.5655(5) 0.7066(4)
C40 C 0.2326(9) 0.6086(6) 0.7060(5)
H48 H 0.1925 0.6257 0.6673
C41 C 0.1648(10) 0.6259(7) 0.7629(5)
H49 H 0.0785 0.6542 0.7623
C42 C 0.2237(9) 0.6017(6) 0.8211(4)
H50 H 0.1757 0.6121 0.8589
C43 C 0.3548(8) 0.5616(5) 0.8225(4)
C44 C 0.4205(7) 0.5442(5) 0.7645(4)
H51 H 0.5079 0.5173 0.7649
C45 C 0.2604(8) 0.4590(5) 0.9446(4)
C46 C 0.1091(9) 0.3880(6) 1.0078(4)
C47 C 0.1777(8) 0.3246(5) 0.9182(4)
C48 C -0.0911(9) 0.3513(6) 0.4657(4)
H52 H -0.1337 0.3388 0.5068
H53 H -0.0630 0.2942 0.4465
C49 C -0.1920(10) 0.4008(9) 0.4224(5)
H54 H -0.1450 0.4177 0.3832
H55 H -0.2680 0.3605 0.4115
C50 C -0.2489(13) 0.4846(9) 0.4541(7)
H56 H -0.1717 0.5229 0.4666
H57 H -0.2972 0.4666 0.4928
C51 C -0.3482(16) 0.5408(14) 0.4131(10)
H58 H -0.2958 0.5759 0.3829
H59 H -0.4009 0.5807 0.4401
H60 H -0.4101 0.5010 0.3906
C52 C -0.0629(11) 0.3185(8) 1.0755(5)
H61 H -0.0116 0.2650 1.0886
H62 H -0.1177 0.3033 1.0381
C53 C -0.1570(18) 0.3509(15) 1.1295(8)
H63 H -0.2269 0.3056 1.1396
H64 H -0.2028 0.4073 1.1182
C54 C -0.056(2) 0.3648(17) 1.1865(9)
H65 H -0.0120 0.3078 1.1978
H66 H 0.0156 0.4082 1.1753
C55 C -0.142(4) 0.400(3) 1.2425(14)
H67 H -0.0965 0.3854 1.2820
H68 H -0.1517 0.4648 1.2390
H69 H -0.2324 0.3725 1.2417
Cl1 Cl 0.3425(5) 0.0848(4) 0.9763(3)
Cl2 Cl 0.1159(5) 0.0608(4) 1.0635(2)
C59 C 0.1656(15) 0.0831(11) 0.9897(6)
H79 H 0.1279 0.1417 0.9776
H80 H 0.1246 0.0380 0.9616
H31? H 0.6128 0.8343 -0.0332
H32? H 0.4793 0.8910 -0.0518
C27? C 0.559(3) 0.8181(15) -0.1295(7)
H33? H 0.4734 0.8061 -0.1524
H34? H 0.6017 0.8719 -0.1478
C28? C 0.658(2) 0.7369(16) -0.1363(10)
H35? H 0.6089 0.6829 -0.1222
H36? H 0.7353 0.7460 -0.1073
C29? C 0.717(3) 0.718(2) -0.2032(11)
H37? H 0.6458 0.6921 -0.2296
H38? H 0.7937 0.6771 -0.1999
H39? H 0.7477 0.7743 -0.2219
H70? H -0.0183 0.2601 1.0694
H71? H -0.1449 0.3215 1.0487
C56? C -0.101(4) 0.333(2) 1.1463(9)
H72? H -0.1628 0.2854 1.1601
H73? H -0.0169 0.3297 1.1719
C57? C -0.171(4) 0.426(2) 1.1580(13)
H74? H -0.1021 0.4728 1.1513
H75? H -0.2425 0.4337 1.1259
C58? C -0.237(3) 0.441(3) 1.2240(12)
H76? H -0.3142 0.4813 1.2200
H77? H -0.1691 0.4665 1.2524
H78? H -0.2682 0.3836 1.2408
loop_
_geom_bond_atom_site_label_1
_geom_bond_atom_site_label_2
_geom_bond_site_symmetry_1
_geom_bond_site_symmetry_2
O1 C1 1_555 1_555
O2 C5 1_555 1_555
O3 C8 1_555 1_555
O4 C17 1_555 1_555
N1 C7 1_555 1_555
N2 C8 1_555 1_555
N3 C7 1_555 1_555
N4 H1 1_555 1_555
N5 N4 1_555 1_555
H2 N5 1_555 1_555
N6 H3 1_555 1_555
N7 N6 1_555 1_555
H4 N7 1_555 1_555
N8 C16 1_555 1_555
N9 C17 1_555 1_555
N10 C16 1_555 1_555
C1 C2 1_555 1_555
C2 H5 1_555 1_555
C3 C2 1_555 1_555
H6 C3 1_555 1_555
C4 C3 1_555 1_555
H7 C4 1_555 1_555
C5 C4 1_555 1_555
C6 C1 1_555 1_555
H8 C6 1_555 1_555
C7 O2 1_555 1_555
C8 N1 1_555 1_555
C9 N2 1_555 1_555
C10 N5 1_555 1_555
C11 C10 1_555 1_555
H9 C11 1_555 1_555
C12 C11 1_555 1_555
H10 C12 1_555 1_555
C13 C12 1_555 1_555
H11 C13 1_555 1_555
C14 N6 1_555 1_555
C15 C10 1_555 1_555
H12 C15 1_555 1_555
C16 N7 1_555 1_555
C17 N8 1_555 1_555
C18 O1 1_555 1_555
C19 O3 1_555 1_555
H13 C19 1_555 1_555
H14 C19 1_555 1_555
C20 O4 1_555 1_555
H15 C20 1_555 1_555
H16 C20 1_555 1_555
C21 C20 1_555 1_555
H17 C21 1_555 1_555
H18 C21 1_555 1_555
C22 C21 1_555 1_555
H19 C22 1_555 1_555
H20 C22 1_555 1_555
C23 C22 1_555 1_555
H21 C23 1_555 1_555
H22 C23 1_555 1_555
H23 C23 1_555 1_555
C24 C19 1_555 1_555
H24 C24 1_555 1_555
H25 C24 1_555 1_555
C25 C24 1_555 1_555
H26 C25 1_555 1_555
H27 C25 1_555 1_555
C26 C25 1_555 1_555
H28 C26 1_555 1_555
H29 C26 1_555 1_555
H30 C26 1_555 1_555
O5 C30 1_555 1_555
O6 C34 1_555 1_555
O7 C37 1_555 1_555
O8 C46 1_555 1_555
N11 C36 1_555 1_555
N12 C37 1_555 1_555
N13 C36 1_555 1_555
N14 H40 1_555 1_555
N15 N14 1_555 1_555
H41 N15 1_555 1_555
N16 H42 1_555 1_555
N17 N16 1_555 1_555
H43 N17 1_555 1_555
N18 C45 1_555 1_555
N19 C46 1_555 1_555
N20 C45 1_555 1_555
C30 C31 1_555 1_555
C31 H44 1_555 1_555
C32 C31 1_555 1_555
H45 C32 1_555 1_555
C33 C32 1_555 1_555
H46 C33 1_555 1_555
C34 C33 1_555 1_555
C35 C30 1_555 1_555
H47 C35 1_555 1_555
C36 O6 1_555 1_555
C37 N11 1_555 1_555
C38 N12 1_555 1_555
C39 N15 1_555 1_555
C40 C39 1_555 1_555
H48 C40 1_555 1_555
C41 C40 1_555 1_555
H49 C41 1_555 1_555
C42 C41 1_555 1_555
H50 C42 1_555 1_555
C43 N16 1_555 1_555
C44 C39 1_555 1_555
H51 C44 1_555 1_555
C45 N17 1_555 1_555
C46 N18 1_555 1_555
C47 O5 1_555 1_555
C48 O7 1_555 1_555
H52 C48 1_555 1_555
H53 C48 1_555 1_555
C49 C48 1_555 1_555
H54 C49 1_555 1_555
H55 C49 1_555 1_555
C50 C49 1_555 1_555
H56 C50 1_555 1_555
H57 C50 1_555 1_555
C51 C50 1_555 1_555
H58 C51 1_555 1_555
H59 C51 1_555 1_555
H60 C51 1_555 1_555
C52 O8 1_555 1_555
H61 C52 1_555 1_555
H62 C52 1_555 1_555
C53 C52 1_555 1_555
H63 C53 1_555 1_555
H64 C53 1_555 1_555
C54 C53 1_555 1_555
H65 C54 1_555 1_555
H66 C54 1_555 1_555
C55 C54 1_555 1_555
H67 C55 1_555 1_555
H68 C55 1_555 1_555
H69 C55 1_555 1_555
Cl1 C59 1_555 1_555
Cl2 C59 1_555 1_555
C59 H79 1_555 1_555
H80 C59 1_555 1_555
N3 C9 1_555 1_555
N4 C9 1_555 1_555
N9 C18 1_555 1_555
N10 C18 1_555 1_555
C5 C6 1_555 1_555
C13 C14 1_555 1_555
C14 C15 1_555 1_555
N13 C38 1_555 1_555
N14 C38 1_555 1_555
N19 C47 1_555 1_555
N20 C47 1_555 1_555
C34 C35 1_555 1_555
C42 C43 1_555 1_555
C43 C44 1_555 1_555

#END
