
#######################################################################
#
#                 Cambridge Crystallographic Data Centre
#                                CCDC 
#
#######################################################################
#
# If this CIF has been generated from an entry in the Cambridge 
# Structural Database, then it will include bibliographic, chemical, 
# crystal, experimental, refinement or atomic coordinate data resulting 
# from the CCDC's data processing and validation procedures.
#
#######################################################################

data_ZETYOP
_chemical_formula_moiety         'C37 H26 Cl1 N5 O1,C2 H6 O1'
_chemical_name_systematic        
"1'-(3-chlorophenyl)-2'-(1H-indole-3-carbonyl)-1',2',5',6',7',7a'-hexahydrospiro[indeno[1,2-b]quinoxaline-11,3'-pyrrolizine]-2'-carbonitrile ethanol solvate"
_symmetry_cell_setting           triclinic
_symmetry_space_group_name_H-M   'P -1'
_symmetry_Int_Tables_number      2
_space_group_name_Hall           '-P 1'
loop_
_symmetry_equiv_pos_site_id
_symmetry_equiv_pos_as_xyz
1 x,y,z
2 -x,-y,-z
_cell_length_a                   11.3583(9)
_cell_length_b                   11.4011(11)
_cell_length_c                   15.1434(13)
_cell_angle_alpha                109.680(2)
_cell_angle_beta                 92.1230(10)
_cell_angle_gamma                117.524(3)
_cell_volume                     1593.3
_cell_formula_units_Z            2
loop_
_atom_site_label
_atom_site_type_symbol
_atom_site_fract_x
_atom_site_fract_y
_atom_site_fract_z
Cl1 Cl 0.88104(19) 1.15787(16) 0.19341(11)
N1 N 0.7446(3) 0.5357(3) 0.4197(2)
N2 N 0.6452(3) 0.2353(3) 0.3162(2)
N3 N 0.5570(3) 0.6137(3) 0.3276(2)
N4 N 0.6803(3) 0.2820(3) -0.0449(2)
H1 H 0.6195 0.2253 -0.0982
N5 N 0.5992(4) 0.6434(4) 0.0984(3)
O1 O 0.9164(3) 0.6004(3) 0.26055(19)
C1 C 0.6619(4) 0.4605(4) 0.3348(3)
C2 C 0.6085(4) 0.3093(4) 0.2844(3)
C3 C 0.7359(4) 0.3121(4) 0.4048(3)
C4 C 0.7813(4) 0.4596(4) 0.4573(3)
C5 C 0.8660(4) 0.5313(5) 0.5505(3)
H2 H 0.8944 0.6277 0.5865
C6 C 0.9062(4) 0.4590(5) 0.5876(3)
H3 H 0.9613 0.5066 0.6495
C7 C 0.8668(4) 0.3157(5) 0.5352(3)
H4 H 0.8980 0.2693 0.5613
C8 C 0.7817(4) 0.2418(5) 0.4446(3)
H5 H 0.7548 0.1455 0.4098
C9 C 0.6019(4) 0.5150(4) 0.2763(3)
C10 C 0.4901(4) 0.3729(4) 0.2007(3)
C11 C 0.5027(4) 0.2569(4) 0.2004(3)
C12 C 0.4183(4) 0.1191(5) 0.1315(3)
H6 H 0.4282 0.0422 0.1308
C13 C 0.3184(5) 0.0992(5) 0.0634(3)
H7 H 0.2620 0.0080 0.0149
C14 C 0.3014(4) 0.2119(5) 0.0664(3)
H8 H 0.2309 0.1948 0.0216
C15 C 0.3857(4) 0.3488(5) 0.1337(3)
H9 H 0.3735 0.4244 0.1347
C16 C 0.4898(4) 0.5920(5) 0.4060(3)
H10 H 0.5068 0.5290 0.4275
H11 H 0.3920 0.5496 0.3851
C17 C 0.5502(6) 0.7378(6) 0.4843(4)
H12 H 0.5592 0.7328 0.5467
H13 H 0.4930 0.7791 0.4814
C18 C 0.6873(5) 0.8274(5) 0.4693(3)
H14 H 0.7567 0.8188 0.5013
H15 H 0.7125 0.9282 0.4934
C19 C 0.6688(4) 0.7649(4) 0.3604(3)
H16 H 0.6400 0.8165 0.3328
C20 C 0.7871(4) 0.7586(4) 0.3208(3)
H17 H 0.8409 0.7515 0.3688
C21 C 0.7145(4) 0.6094(4) 0.2326(2)
C22 C 0.8132(4) 0.5527(4) 0.2013(3)
C23 C 0.6670(4) 0.3719(4) 0.0318(3)
H18 H 0.5913 0.3837 0.0352
C24 C 0.7814(4) 0.4446(4) 0.1053(3)
C25 C 0.8717(4) 0.3939(4) 0.0690(3)
C26 C 0.8065(4) 0.2934(4) -0.0262(3)
C27 C 0.8659(5) 0.2256(5) -0.0853(3)
H19 H 0.8205 0.1590 -0.1482
C28 C 0.9939(5) 0.2609(5) -0.0471(3)
H20 H 1.0367 0.2171 -0.0848
C29 C 1.0618(4) 0.3599(5) 0.0461(3)
H21 H 1.1493 0.3811 0.0696
C30 C 1.0037(4) 0.4281(4) 0.1054(3)
H22 H 1.0509 0.4951 0.1680
C31 C 0.6479(4) 0.6240(4) 0.1551(3)
C32 C 0.8849(4) 0.8856(4) 0.2980(3)
C33 C 0.8396(5) 0.9548(4) 0.2594(3)
H23 H 0.7477 0.9273 0.2480
C34 C 0.9359(6) 1.0685(5) 0.2377(3)
C35 C 1.0694(6) 1.1093(5) 0.2540(4)
H24 H 1.1312 1.1842 0.2388
C36 C 1.1136(6) 1.0411(6) 0.2924(4)
H25 H 1.2057 1.0695 0.3034
C37 C 1.0238(5) 0.9308(5) 0.3152(3)
H26 H 1.0554 0.8857 0.3422
O2 O 0.4959(3) 0.9241(3) 0.2390(2)
H27 H 0.5439 1.0107 0.2526
C38 C 0.4240(5) 0.9033(6) 0.3117(4)
H28 H 0.3704 0.9505 0.3191
H29 H 0.4880 0.9454 0.3728
C39 C 0.3330(6) 0.7462(7) 0.2846(4)
H30 H 0.2620 0.7078 0.2292
H31 H 0.2931 0.7310 0.3374
H32 H 0.3850 0.6984 0.2697
loop_
_geom_bond_atom_site_label_1
_geom_bond_atom_site_label_2
_geom_bond_site_symmetry_1
_geom_bond_site_symmetry_2
Cl1 C34 1_555 1_555
N1 C1 1_555 1_555
N2 C2 1_555 1_555
N3 C9 1_555 1_555
N4 H1 1_555 1_555
N5 C31 1_555 1_555
O1 C22 1_555 1_555
C1 C2 1_555 1_555
C2 C11 1_555 1_555
C3 N2 1_555 1_555
C4 N1 1_555 1_555
C5 C4 1_555 1_555
H2 C5 1_555 1_555
C6 C5 1_555 1_555
H3 C6 1_555 1_555
C7 C6 1_555 1_555
H4 C7 1_555 1_555
C8 C3 1_555 1_555
H5 C8 1_555 1_555
C9 C1 1_555 1_555
C10 C9 1_555 1_555
C11 C10 1_555 1_555
C12 C11 1_555 1_555
H6 C12 1_555 1_555
C13 C12 1_555 1_555
H7 C13 1_555 1_555
C14 C13 1_555 1_555
H8 C14 1_555 1_555
C15 C10 1_555 1_555
H9 C15 1_555 1_555
C16 N3 1_555 1_555
H10 C16 1_555 1_555
H11 C16 1_555 1_555
C17 C16 1_555 1_555
H12 C17 1_555 1_555
H13 C17 1_555 1_555
C18 C17 1_555 1_555
H14 C18 1_555 1_555
H15 C18 1_555 1_555
C19 N3 1_555 1_555
H16 C19 1_555 1_555
C20 C19 1_555 1_555
H17 C20 1_555 1_555
C21 C9 1_555 1_555
C22 C21 1_555 1_555
C23 N4 1_555 1_555
H18 C23 1_555 1_555
C24 C22 1_555 1_555
C25 C24 1_555 1_555
C26 N4 1_555 1_555
C27 C26 1_555 1_555
H19 C27 1_555 1_555
C28 C27 1_555 1_555
H20 C28 1_555 1_555
C29 C28 1_555 1_555
H21 C29 1_555 1_555
C30 C25 1_555 1_555
H22 C30 1_555 1_555
C31 C21 1_555 1_555
C32 C20 1_555 1_555
C33 C32 1_555 1_555
H23 C33 1_555 1_555
C34 C33 1_555 1_555
C35 C34 1_555 1_555
H24 C35 1_555 1_555
C36 C35 1_555 1_555
H25 C36 1_555 1_555
C37 C32 1_555 1_555
H26 C37 1_555 1_555
O2 H27 1_555 1_555
C38 O2 1_555 1_555
H28 C38 1_555 1_555
H29 C38 1_555 1_555
C39 C38 1_555 1_555
H30 C39 1_555 1_555
H31 C39 1_555 1_555
H32 C39 1_555 1_555
C3 C4 1_555 1_555
C7 C8 1_555 1_555
C14 C15 1_555 1_555
C18 C19 1_555 1_555
C20 C21 1_555 1_555
C23 C24 1_555 1_555
C25 C26 1_555 1_555
C29 C30 1_555 1_555
C36 C37 1_555 1_555

#END
