
#######################################################################
#
#                 Cambridge Crystallographic Data Centre
#                                CCDC 
#
#######################################################################
#
# If this CIF has been generated from an entry in the Cambridge 
# Structural Database, then it will include bibliographic, chemical, 
# crystal, experimental, refinement or atomic coordinate data resulting 
# from the CCDC's data processing and validation procedures.
#
#######################################################################

data_ZEVNUL
_chemical_formula_moiety         'C6 N6 O6,C3 H4 N4 O6'
_chemical_name_systematic        'benzotrifuroxan 1,3,3-trinitroazetidine'
_symmetry_cell_setting           triclinic
_symmetry_space_group_name_H-M   'P -1'
_symmetry_Int_Tables_number      2
_space_group_name_Hall           '-P 1'
loop_
_symmetry_equiv_pos_site_id
_symmetry_equiv_pos_as_xyz
1 x,y,z
2 -x,-y,-z
_cell_length_a                   6.7469(5)
_cell_length_b                   10.3885(6)
_cell_length_c                   12.3483(11)
_cell_angle_alpha                70.745(6)
_cell_angle_beta                 88.771(7)
_cell_angle_gamma                80.123(6)
_cell_volume                     804.394
_cell_formula_units_Z            2
loop_
_atom_site_label
_atom_site_type_symbol
_atom_site_fract_x
_atom_site_fract_y
_atom_site_fract_z
O1 O 0.2194(6) 0.4815(4) 0.2298(4)
O2 O 0.2091(8) 0.4824(5) 0.4044(4)
O3 O -0.2774(7) 0.9972(4) 0.2530(5)
O4 O -0.2305(10) 0.9994(5) 0.0802(5)
O5 O -0.4355(8) 0.6354(6) 0.2630(6)
O6 O -0.5650(8) 0.8468(6) 0.1854(6)
N1 N 0.0638(7) 0.6656(5) 0.2658(4)
N2 N 0.1679(7) 0.5336(5) 0.3027(5)
N3 N -0.2419(7) 0.9415(5) 0.1820(5)
N4 N -0.4250(8) 0.7527(5) 0.2250(5)
C1 C -0.0635(9) 0.7150(6) 0.1578(5)
H1 H -0.1080 0.6419 0.1371
H2 H -0.0080 0.7787 0.0930
C2 C -0.2181(8) 0.7857(5) 0.2237(5)
C3 C -0.0918(9) 0.7146(6) 0.3344(5)
H3 H -0.0526 0.7778 0.3695
H4 H -0.1486 0.6413 0.3900
O7 O 0.7843(19) 0.3064(10) 0.4486(8)
O8 O 0.1102(14) 0.0686(10) 0.3412(12)
O9 O 0.5925(14) 0.3509(7) -0.0094(8)
O10 O 0.0970(12) 0.1090(8) 0.1671(10)
O11 O 0.5320(18) 0.1868(10) 0.5624(10)
O12 O 0.8311(15) 0.4094(11) 0.0929(15)
N5 N 0.7938(16) 0.3341(11) 0.3424(15)
N6 N 0.601(2) 0.2290(10) 0.4841(11)
N7 N 0.218(2) 0.1005(11) 0.4083(14)
N8 N 0.1803(14) 0.1329(10) 0.2215(14)
N9 N 0.4486(17) 0.2889(10) 0.0239(14)
N10 N 0.7200(12) 0.3753(8) 0.0665(8)
C4 C 0.6506(11) 0.2939(8) 0.2943(11)
C5 C 0.5302(13) 0.2275(8) 0.3754(7)
C6 C 0.3631(13) 0.1735(6) 0.3415(9)
C7 C 0.3372(10) 0.1948(8) 0.2223(10)
C8 C 0.4635(16) 0.2637(9) 0.1487(7)
C9 C 0.6095(16) 0.3071(8) 0.1836(9)
loop_
_geom_bond_atom_site_label_1
_geom_bond_atom_site_label_2
_geom_bond_site_symmetry_1
_geom_bond_site_symmetry_2
O1 N2 1_555 1_555
O2 N2 1_555 1_555
O3 N3 1_555 1_555
O4 N3 1_555 1_555
O5 N4 1_555 1_555
O6 N4 1_555 1_555
N1 N2 1_555 1_555
N3 C2 1_555 1_555
N4 C2 1_555 1_555
C1 N1 1_555 1_555
H1 C1 1_555 1_555
H2 C1 1_555 1_555
C2 C1 1_555 1_555
C3 N1 1_555 1_555
H3 C3 1_555 1_555
H4 C3 1_555 1_555
O7 N5 1_555 1_555
O8 N7 1_555 1_555
O9 N9 1_555 1_555
O10 N8 1_555 1_555
O11 N6 1_555 1_555
O12 N10 1_555 1_555
N5 C4 1_555 1_555
N6 O7 1_555 1_555
N7 C6 1_555 1_555
N8 O8 1_555 1_555
N9 C8 1_555 1_555
N10 O9 1_555 1_555
C4 C5 1_555 1_555
C5 N6 1_555 1_555
C6 C5 1_555 1_555
C7 N8 1_555 1_555
C8 C7 1_555 1_555
C9 N10 1_555 1_555
C2 C3 1_555 1_555
C4 C9 1_555 1_555
C6 C7 1_555 1_555
C8 C9 1_555 1_555

#END
