
#######################################################################
#
#                 Cambridge Crystallographic Data Centre
#                                CCDC 
#
#######################################################################
#
# If this CIF has been generated from an entry in the Cambridge 
# Structural Database, then it will include bibliographic, chemical, 
# crystal, experimental, refinement or atomic coordinate data resulting 
# from the CCDC's data processing and validation procedures.
#
#######################################################################

data_ZEVPOI
_chemical_formula_moiety         'C25 H23 N1 O6'
_chemical_name_systematic        
'diethyl 4-cyano-2-hydroxy-2,5-dimethyl-1,2-dihydroanthra[1,9-bc]pyran-1,6-dicarboxylate'
_symmetry_cell_setting           monoclinic
_symmetry_space_group_name_H-M   'P 21/n'
_symmetry_Int_Tables_number      14
_space_group_name_Hall           '-P 2yn'
loop_
_symmetry_equiv_pos_site_id
_symmetry_equiv_pos_as_xyz
1 x,y,z
2 1/2-x,1/2+y,1/2-z
3 -x,-y,-z
4 1/2+x,1/2-y,1/2+z
_cell_length_a                   9.090(3)
_cell_length_b                   7.755(2)
_cell_length_c                   30.616(8)
_cell_angle_alpha                90
_cell_angle_beta                 94.835(7)
_cell_angle_gamma                90
_cell_volume                     2150.53
_exptl_crystal_colour            colorless
_exptl_crystal_description       block
_cell_formula_units_Z            4
loop_
_atom_site_label
_atom_site_type_symbol
_atom_site_fract_x
_atom_site_fract_y
_atom_site_fract_z
O1 O 0.2246(2) 0.9131(2) 0.44675(6)
O2 O -0.0197(2) 1.0379(3) 0.25372(6)
O3 O 0.1400(2) 0.6563(3) 0.47421(6)
H1 H 0.0989 0.6939 0.4958
O4 O 0.6148(2) 0.6212(3) 0.45599(7)
O5 O 0.5335(2) 0.8496(3) 0.41602(7)
O6 O -0.1253(2) 0.7778(3) 0.25677(7)
N1 N -0.0040(3) 1.2480(4) 0.44948(8)
C1 C -0.0525(3) 0.8911(4) 0.27411(9)
C2 C 0.1850(3) 0.7546(4) 0.37820(9)
C3 C 0.1100(3) 0.7498(4) 0.33499(9)
C4 C 0.2972(3) 0.4741(4) 0.36813(9)
C5 C 0.1324(3) 0.6053(4) 0.30948(9)
H2 H 0.0851 0.5991 0.2806
C6 C 0.2778(3) 0.6201(4) 0.39423(9)
C7 C 0.1564(3) 0.8964(4) 0.40574(9)
C8 C 0.2229(3) 0.4685(4) 0.32510(9)
C9 C 0.0579(3) 1.0231(4) 0.39161(9)
C10 C 0.0253(3) 1.1509(4) 0.42312(9)
C11 C 0.0151(3) 0.8921(4) 0.32044(8)
C12 C 0.5092(3) 0.7187(4) 0.43545(9)
C13 C 0.3573(3) 0.6418(4) 0.43951(8)
H3 H 0.3707 0.5250 0.4531
C14 C -0.0131(3) 1.0238(4) 0.34828(9)
C15 C 0.2676(3) 0.7516(4) 0.46909(9)
C16 C 0.3877(3) 0.3308(4) 0.38264(9)
H4 H 0.4399 0.3340 0.4109
C17 C 0.2404(3) 0.3184(4) 0.29913(10)
H5 H 0.1912 0.3120 0.2705
C18 C 0.3488(3) 0.8048(4) 0.51167(9)
H6 H 0.4386 0.8676 0.5058
H7 H 0.3755 0.7020 0.5292
H8 H 0.2854 0.8795 0.5278
C19 C -0.0902(3) 1.0640(4) 0.20953(9)
H9 H -0.1988 1.0544 0.2095
H10 H -0.0553 0.9770 0.1891
C20 C 0.4004(3) 0.1906(4) 0.35685(10)
H11 H 0.4597 0.0961 0.3674
C21 C 0.3264(3) 0.1836(4) 0.31460(10)
H12 H 0.3364 0.0847 0.2968
C22 C -0.0473(4) 1.2423(4) 0.19610(10)
H13 H -0.0932 1.2673 0.1667
H14 H 0.0603 1.2492 0.1960
H15 H -0.0811 1.3266 0.2169
C23 C -0.1219(3) 1.1681(4) 0.33633(10)
H16 H -0.1898 1.1801 0.3594
H17 H -0.1782 1.1410 0.3085
H18 H -0.0681 1.2764 0.3334
C24 C 0.7684(3) 0.6707(5) 0.45140(11)
H19 H 0.8331 0.6203 0.4757
H20 H 0.7778 0.7977 0.4531
C25 C 0.8162(4) 0.6086(5) 0.40859(12)
H21 H 0.7695 0.6791 0.3848
H22 H 0.7868 0.4879 0.4041
H23 H 0.9238 0.6181 0.4088
loop_
_geom_bond_atom_site_label_1
_geom_bond_atom_site_label_2
_geom_bond_site_symmetry_1
_geom_bond_site_symmetry_2
O1 C7 1_555 1_555
O2 C1 1_555 1_555
O3 H1 1_555 1_555
O4 C12 1_555 1_555
O5 C12 1_555 1_555
O6 C1 1_555 1_555
N1 C10 1_555 1_555
C1 C11 1_555 1_555
C2 C3 1_555 1_555
C3 C5 1_555 1_555
C4 C6 1_555 1_555
C5 H2 1_555 1_555
C6 C2 1_555 1_555
C7 C2 1_555 1_555
C8 C4 1_555 1_555
C9 C7 1_555 1_555
C10 C9 1_555 1_555
C11 C3 1_555 1_555
C12 C13 1_555 1_555
C13 C6 1_555 1_555
H3 C13 1_555 1_555
C14 C9 1_555 1_555
C15 O1 1_555 1_555
C16 C4 1_555 1_555
H4 C16 1_555 1_555
C17 C8 1_555 1_555
H5 C17 1_555 1_555
C18 C15 1_555 1_555
H6 C18 1_555 1_555
H7 C18 1_555 1_555
H8 C18 1_555 1_555
C19 O2 1_555 1_555
H9 C19 1_555 1_555
H10 C19 1_555 1_555
C20 C16 1_555 1_555
H11 C20 1_555 1_555
C21 C17 1_555 1_555
H12 C21 1_555 1_555
C22 C19 1_555 1_555
H13 C22 1_555 1_555
H14 C22 1_555 1_555
H15 C22 1_555 1_555
C23 C14 1_555 1_555
H16 C23 1_555 1_555
H17 C23 1_555 1_555
H18 C23 1_555 1_555
C24 O4 1_555 1_555
H19 C24 1_555 1_555
H20 C24 1_555 1_555
C25 C24 1_555 1_555
H21 C25 1_555 1_555
H22 C25 1_555 1_555
H23 C25 1_555 1_555
O3 C15 1_555 1_555
C5 C8 1_555 1_555
C11 C14 1_555 1_555
C13 C15 1_555 1_555
C20 C21 1_555 1_555

#END
