
#######################################################################
#
#                 Cambridge Crystallographic Data Centre
#                                CCDC 
#
#######################################################################
#
# If this CIF has been generated from an entry in the Cambridge 
# Structural Database, then it will include bibliographic, chemical, 
# crystal, experimental, refinement or atomic coordinate data resulting 
# from the CCDC's data processing and validation procedures.
#
#######################################################################

data_ZEVSIC
_chemical_formula_moiety         'C12 H17 N3 O2 S1,C4 H4 O6'
_chemical_name_systematic        
'(S)-3-(3-(Methylsulfonyl)-1,4-diazin-2-yl)-1-azabicyclo(2.2.2)octane (2S,3S)-tartrate'
_symmetry_cell_setting           monoclinic
_symmetry_space_group_name_H-M   'P 21'
_symmetry_Int_Tables_number      4
_space_group_name_Hall           'P 2yb'
loop_
_symmetry_equiv_pos_site_id
_symmetry_equiv_pos_as_xyz
1 x,y,z
2 -x,1/2+y,-z
_cell_length_a                   7.591(2)
_cell_length_b                   8.457(2)
_cell_length_c                   14.415(3)
_cell_angle_alpha                90
_cell_angle_beta                 96.93(2)
_cell_angle_gamma                90
_cell_volume                     918.64
_chemical_melting_point          177-178deg.C
_cell_formula_units_Z            2
loop_
_atom_site_label
_atom_site_type_symbol
_atom_site_fract_x
_atom_site_fract_y
_atom_site_fract_z
N1 N 0.5301(7) 0.8247 0.5401(4)
C1 C 0.5185(9) 0.8173(13) 0.4462(5)
C2 C 0.3710(9) 0.7517(12) 0.3942(4)
N2 N 0.2375(7) 0.6945(11) 0.4367(4)
C3 C 0.2514(8) 0.7046(12) 0.5297(4)
C4 C 0.3991(8) 0.7718(12) 0.5842(4)
C5 C 0.4145(9) 0.7907(11) 0.6899(5)
C6 C 0.5556(10) 0.9103(12) 0.7238(4)
N3 N 0.6363(8) 0.8597(11) 0.8219(4)
C7 C 0.7488(13) 0.7186(14) 0.8146(7)
C8 C 0.6490(12) 0.5959(12) 0.7514(5)
C9 C 0.4495(9) 0.6380(13) 0.7448(4)
C10 C 0.4044(15) 0.6692(14) 0.8473(5)
C11 C 0.4959(12) 0.8250(15) 0.8795(5)
S1 S 0.0583(2) 0.6284(9) 0.5757(1)
O1 O -0.0021(7) 0.7475(12) 0.6350(4)
O2 O 0.1002(7) 0.4757(10) 0.6137(4)
C12 C -0.0976(10) 0.6042(14) 0.4776(6)
H1 H 0.6122 0.8611 0.4150
H2 H 0.3651 0.7470 0.3274
H3 H 0.3033 0.8320 0.7046
H4 H 0.5056 1.0143 0.7258
H5 H 0.6454 0.9122 0.6822
H6 H 0.7863 0.6754 0.8753
H7 H 0.8526 0.7497 0.7871
H8 H 0.6694 0.4928 0.7785
H9 H 0.6871 0.5951 0.6902
H10 H 0.3777 0.5535 0.7163
H11 H 0.4496 0.5851 0.8881
H12 H 0.2782 0.6750 0.8478
H13 H 0.4097 0.9085 0.8724
H14 H 0.5427 0.8181 0.9443
H15 H -0.2056 0.5631 0.4966
H16 H -0.1208 0.7044 0.4473
H17 H -0.0525 0.5317 0.4350
C13 C -0.2431(8) 0.7368(12) 0.1702(4)
C14 C -0.0549(9) 0.7849(12) 0.1557(5)
C15 C 0.0208(8) 0.6846(11) 0.0801(4)
C16 C 0.2045(8) 0.7465(11) 0.0706(4)
O3 O 0.2188(6) 0.8779(11) 0.0342(4)
O4 O 0.3342(5) 0.6625(11) 0.1024(3)
O5 O 0.0178(6) 0.5245(10) 0.1007(3)
O6 O 0.0582(6) 0.7717(14) 0.2386(3)
O7 O -0.2793(7) 0.7027(13) 0.2463(4)
O8 O -0.3532(5) 0.7429(11) 0.0956(3)
H18 H -0.0579 0.8931 0.1356
H19 H -0.0519 0.7010 0.0216
H20 H -0.0540 0.4773 0.0602
H21 H 0.1592 0.7399 0.2265
loop_
_geom_bond_atom_site_label_1
_geom_bond_atom_site_label_2
_geom_bond_site_symmetry_1
_geom_bond_site_symmetry_2
N1 C1 1_555 1_555
C1 C2 1_555 1_555
C2 N2 1_555 1_555
N2 C3 1_555 1_555
C3 C4 1_555 1_555
C4 N1 1_555 1_555
C5 C4 1_555 1_555
C6 C5 1_555 1_555
N3 C6 1_555 1_555
C7 N3 1_555 1_555
C8 C7 1_555 1_555
C9 C5 1_555 1_555
C10 C9 1_555 1_555
C11 N3 1_555 1_555
S1 C3 1_555 1_555
O1 S1 1_555 1_555
O2 S1 1_555 1_555
C12 S1 1_555 1_555
C13 C14 1_555 1_555
C14 C15 1_555 1_555
C15 C16 1_555 1_555
C16 O3 1_555 1_555
O4 C16 1_555 1_555
O5 C15 1_555 1_555
O6 C14 1_555 1_555
O7 C13 1_555 1_555
O8 C13 1_555 1_555
H1 C1 1_555 1_555
H2 C2 1_555 1_555
H3 C5 1_555 1_555
H4 C6 1_555 1_555
H5 C6 1_555 1_555
H6 C7 1_555 1_555
H7 C7 1_555 1_555
H8 C8 1_555 1_555
H9 C8 1_555 1_555
H10 C9 1_555 1_555
H11 C10 1_555 1_555
H12 C10 1_555 1_555
H13 C11 1_555 1_555
H14 C11 1_555 1_555
H15 C12 1_555 1_555
H16 C12 1_555 1_555
H17 C12 1_555 1_555
H18 C14 1_555 1_555
H19 C15 1_555 1_555
H20 O5 1_555 1_555
H21 O6 1_555 1_555
C8 C9 1_555 1_555
C10 C11 1_555 1_555

#END
