
#######################################################################
#
#                 Cambridge Crystallographic Data Centre
#                                CCDC 
#
#######################################################################
#
# If this CIF has been generated from an entry in the Cambridge 
# Structural Database, then it will include bibliographic, chemical, 
# crystal, experimental, refinement or atomic coordinate data resulting 
# from the CCDC's data processing and validation procedures.
#
#######################################################################

data_ZEWCOW
_chemical_formula_moiety         'C23 H24 F1 N1 O4'
_chemical_name_systematic        
3-[(4-fluorophenyl)methylidene]-1-methyl-5-[(3,4,5-trimethoxyphenyl)methylidene]piperidin-4-one
_symmetry_cell_setting           monoclinic
_symmetry_space_group_name_H-M   'P 21/c'
_symmetry_Int_Tables_number      14
_space_group_name_Hall           '-P 2ybc'
loop_
_symmetry_equiv_pos_site_id
_symmetry_equiv_pos_as_xyz
1 x,y,z
2 -x,1/2+y,1/2-z
3 -x,-y,-z
4 x,1/2-y,1/2+z
_cell_length_a                   31.9452(8)
_cell_length_b                   8.2631(2)
_cell_length_c                   7.5532(2)
_cell_angle_alpha                90
_cell_angle_beta                 91.379(2)
_cell_angle_gamma                90
_cell_volume                     1993.21
_exptl_crystal_colour            yellow
_exptl_crystal_description       block
_cell_formula_units_Z            4
loop_
_atom_site_label
_atom_site_type_symbol
_atom_site_fract_x
_atom_site_fract_y
_atom_site_fract_z
C1 C 0.23105(5) 0.5957(2) -0.0022(2)
C2 C 0.25969(5) 0.7344(2) 0.0329(2)
C3 C 0.24297(5) 0.9030(2) 0.0077(2)
H1 H 0.2357 0.9472 0.1219
H2 H 0.2647 0.9708 -0.0407
C4 C 0.17282(5) 0.8076(2) -0.0387(2)
H3 H 0.1474 0.8209 -0.1098
H4 H 0.1672 0.8419 0.0812
C5 C 0.18573(5) 0.6327(2) -0.0383(2)
C6 C 0.29957(5) 0.6983(2) 0.0816(2)
H5 H 0.3055 0.5882 0.0874
C7 C 0.33488(5) 0.8042(2) 0.1267(2)
C8 C 0.37492(5) 0.7370(2) 0.1149(2)
H6 H 0.3779 0.6286 0.0848
C9 C 0.41022(5) 0.8315(2) 0.1478(2)
C10 C 0.40597(5) 0.9945(2) 0.1907(2)
C11 C 0.36597(5) 1.0596(2) 0.2108(2)
C12 C 0.33075(5) 0.9654(2) 0.1798(2)
H7 H 0.3043 1.0093 0.1943
C13 C 0.16022(5) 0.5088(2) -0.0772(2)
H8 H 0.1725 0.4068 -0.0754
C14 C 0.11525(5) 0.5131(2) -0.1227(2)
C15 C 0.09961(6) 0.4070(3) -0.2521(3)
H9 H 0.1175 0.3317 -0.3015
C16 C 0.05807(6) 0.4113(3) -0.3087(3)
H10 H 0.0480 0.3415 -0.3965
C17 C 0.03217(6) 0.5218(3) -0.2313(3)
C18 C 0.04557(6) 0.6252(3) -0.1002(3)
H11 H 0.0271 0.6971 -0.0486
C19 C 0.08737(5) 0.6206(3) -0.0459(3)
H12 H 0.0969 0.6902 0.0430
C20 C 0.19204(6) 1.0749(2) -0.1298(2)
H13 H 0.1864 1.1188 -0.0152
H14 H 0.1670 1.0783 -0.2027
H15 H 0.2135 1.1377 -0.1841
C21 C 0.45574(5) 0.6052(2) 0.1266(3)
H16 H 0.4395 0.5509 0.2139
H17 H 0.4848 0.5785 0.1441
H18 H 0.4465 0.5714 0.0104
C22 C 0.45492(6) 1.1750(3) 0.0770(3)
H19 H 0.4655 1.1005 -0.0085
H20 H 0.4768 1.2480 0.1139
H21 H 0.4321 1.2354 0.0250
C23 C 0.32529(6) 1.2887(2) 0.2909(2)
H22 H 0.3091 1.2888 0.1820
H23 H 0.3289 1.3980 0.3317
H24 H 0.3109 1.2271 0.3784
F1 F -0.00870(4) 0.5283(2) -0.2868(2)
N1 N 0.20605(4) 0.90764(17) -0.11086(18)
O1 O 0.24354(3) 0.45512(14) -0.00495(17)
O2 O 0.45037(3) 0.77577(16) 0.14324(17)
O3 O 0.44067(3) 1.08784(15) 0.22630(15)
O4 O 0.36515(4) 1.21817(15) 0.26202(17)
loop_
_geom_bond_atom_site_label_1
_geom_bond_atom_site_label_2
_geom_bond_site_symmetry_1
_geom_bond_site_symmetry_2
C1 C2 1_555 1_555
C2 C3 1_555 1_555
C3 H1 1_555 1_555
H2 C3 1_555 1_555
C4 H3 1_555 1_555
H4 C4 1_555 1_555
C5 C1 1_555 1_555
C6 C2 1_555 1_555
H5 C6 1_555 1_555
C7 C6 1_555 1_555
C8 C7 1_555 1_555
H6 C8 1_555 1_555
C9 C8 1_555 1_555
C10 C9 1_555 1_555
C11 C10 1_555 1_555
C12 C7 1_555 1_555
H7 C12 1_555 1_555
C13 C5 1_555 1_555
H8 C13 1_555 1_555
C14 C13 1_555 1_555
C15 C14 1_555 1_555
H9 C15 1_555 1_555
C16 C15 1_555 1_555
H10 C16 1_555 1_555
C17 C16 1_555 1_555
C18 C17 1_555 1_555
H11 C18 1_555 1_555
C19 C14 1_555 1_555
H12 C19 1_555 1_555
C20 H13 1_555 1_555
H14 C20 1_555 1_555
H15 C20 1_555 1_555
C21 H16 1_555 1_555
H17 C21 1_555 1_555
H18 C21 1_555 1_555
C22 H19 1_555 1_555
H20 C22 1_555 1_555
H21 C22 1_555 1_555
C23 H22 1_555 1_555
H23 C23 1_555 1_555
H24 C23 1_555 1_555
F1 C17 1_555 1_555
N1 C3 1_555 1_555
O1 C1 1_555 1_555
O2 C9 1_555 1_555
O3 C10 1_555 1_555
O4 C11 1_555 1_555
C4 C5 1_555 1_555
C4 N1 1_555 1_555
C11 C12 1_555 1_555
C18 C19 1_555 1_555
C20 N1 1_555 1_555
C21 O2 1_555 1_555
C22 O3 1_555 1_555
C23 O4 1_555 1_555

#END
