
#######################################################################
#
#                 Cambridge Crystallographic Data Centre
#                                CCDC 
#
#######################################################################
#
# If this CIF has been generated from an entry in the Cambridge 
# Structural Database, then it will include bibliographic, chemical, 
# crystal, experimental, refinement or atomic coordinate data resulting 
# from the CCDC's data processing and validation procedures.
#
#######################################################################

data_ZEWCEM
_chemical_formula_moiety         'C14 H15 Cl1 O5 S1'
_chemical_name_systematic        
3-chloro-5-methoxy-4-[(2,4,6-trimethylphenyl)sulfonyl]furan-2(5H)-one
_symmetry_cell_setting           triclinic
_symmetry_space_group_name_H-M   'P -1'
_symmetry_Int_Tables_number      2
_space_group_name_Hall           '-P 1'
loop_
_symmetry_equiv_pos_site_id
_symmetry_equiv_pos_as_xyz
1 x,y,z
2 -x,-y,-z
_cell_length_a                   8.8450(8)
_cell_length_b                   10.8877(11)
_cell_length_c                   16.8698(12)
_cell_angle_alpha                93.769(7)
_cell_angle_beta                 94.701(7)
_cell_angle_gamma                109.666(9)
_cell_volume                     1517.13
_exptl_crystal_colour            colorless
_exptl_crystal_description       block
_cell_formula_units_Z            4
loop_
_atom_site_label
_atom_site_type_symbol
_atom_site_fract_x
_atom_site_fract_y
_atom_site_fract_z
Cl1 Cl 1.26895(8) 1.03135(7) 0.34935(5)
S1 S 1.05523(7) 0.78521(5) 0.46834(4)
O1 O 0.9896(3) 1.0998(2) 0.26552(13)
O2 O 0.80849(19) 0.95398(17) 0.32741(10)
O3 O 1.0094(2) 0.81400(17) 0.54438(10)
O4 O 1.22203(19) 0.81122(17) 0.46171(12)
O5 O 0.7479(2) 0.88368(19) 0.45004(11)
C1 C 0.9873(3) 0.8775(2) 0.40111(14)
C2 C 0.9403(3) 0.6228(2) 0.42891(14)
C3 C 0.8055(3) 0.5488(2) 0.46473(15)
C4 C 1.0700(3) 0.9686(2) 0.35822(15)
C5 C 0.9854(3) 0.5703(2) 0.35978(15)
C6 C 0.7220(3) 0.4226(2) 0.42994(17)
H1 H 0.6324 0.3724 0.4530
C7 C 0.9586(3) 1.0188(2) 0.31081(15)
C8 C 0.7636(3) 0.3671(2) 0.36340(17)
C9 C 0.8106(3) 0.8601(2) 0.38382(15)
H2 H 0.7504 0.7711 0.3591
C10 C 0.8946(3) 0.4434(2) 0.32948(17)
H3 H 0.9237 0.4079 0.2840
C11 C 0.7451(3) 0.5939(3) 0.53842(18)
H4 H 0.8250 0.6090 0.5834
H5 H 0.6468 0.5277 0.5484
H6 H 0.7250 0.6737 0.5303
C12 C 1.1253(4) 0.6428(3) 0.3167(2)
H7 H 1.1217 0.7282 0.3084
H8 H 1.1193 0.5949 0.2659
H9 H 1.2246 0.6515 0.3481
C13 C 0.6709(4) 0.2285(3) 0.3291(2)
H10 H 0.6354 0.1751 0.3717
H11 H 0.7394 0.1950 0.2995
H12 H 0.5788 0.2268 0.2941
C14 C 0.5762(3) 0.8558(4) 0.4370(2)
H13 H 0.5546 0.9189 0.4048
H14 H 0.5347 0.8606 0.4875
H15 H 0.5249 0.7694 0.4099
Cl2 Cl 0.95074(10) 0.58477(8) 0.07893(5)
S2 S 0.57568(8) 0.31985(6) 0.02265(4)
O6 O 0.4330(3) 0.3310(2) -0.01717(13)
O7 O 0.6081(3) 0.5888(2) 0.20465(12)
O8 O 0.4598(3) 0.3686(2) 0.19846(13)
O9 O 0.8535(3) 0.7381(2) 0.21268(15)
O10 O 0.7103(2) 0.33614(18) -0.02138(11)
C15 C 0.6575(3) 0.1378(2) 0.10119(15)
C16 C 0.5288(3) 0.1741(2) 0.06986(14)
C17 C 0.6370(3) 0.4474(2) 0.10200(15)
C18 C 0.7739(3) 0.5467(3) 0.11835(16)
C19 C 0.6206(3) 0.0251(3) 0.14015(15)
H16 H 0.7047 -0.0012 0.1602
C20 C 0.3687(3) 0.0991(3) 0.07784(17)
C21 C 0.4657(3) -0.0493(2) 0.15039(15)
C22 C 0.3433(3) -0.0109(3) 0.11856(18)
H17 H 0.2376 -0.0615 0.1247
C23 C 0.7579(4) 0.6384(3) 0.18354(18)
C24 C 0.5162(3) 0.4687(3) 0.15436(17)
H18 H 0.4267 0.4811 0.1216
C25 C 0.8340(3) 0.2131(3) 0.0974(2)
H19 H 0.8587 0.2060 0.0433
H20 H 0.8986 0.1777 0.1311
H21 H 0.8570 0.3037 0.1155
C26 C 0.4327(4) -0.1664(3) 0.19638(18)
H22 H 0.5221 -0.1976 0.1966
H23 H 0.3364 -0.2343 0.1718
H24 H 0.4183 -0.1427 0.2503
C27 C 0.2198(4) 0.1267(4) 0.0457(3)
H25 H 0.2315 0.2157 0.0624
H26 H 0.1265 0.0683 0.0658
H27 H 0.2069 0.1135 -0.0117
C28 C 0.3254(5) 0.3713(5) 0.2392(3)
H28 H 0.2468 0.3875 0.2026
H29 H 0.3615 0.4397 0.2825
H30 H 0.2775 0.2885 0.2598
loop_
_geom_bond_atom_site_label_1
_geom_bond_atom_site_label_2
_geom_bond_site_symmetry_1
_geom_bond_site_symmetry_2
Cl1 C4 1_555 1_555
S1 O3 1_555 1_555
O1 C7 1_555 1_555
O2 C7 1_555 1_555
O4 S1 1_555 1_555
O5 C9 1_555 1_555
C1 S1 1_555 1_555
C2 S1 1_555 1_555
C3 C2 1_555 1_555
C4 C1 1_555 1_555
C5 C2 1_555 1_555
C6 C3 1_555 1_555
H1 C6 1_555 1_555
C7 C4 1_555 1_555
C8 C6 1_555 1_555
C9 O2 1_555 1_555
H2 C9 1_555 1_555
C10 C5 1_555 1_555
H3 C10 1_555 1_555
C11 C3 1_555 1_555
H4 C11 1_555 1_555
H5 C11 1_555 1_555
H6 C11 1_555 1_555
C12 C5 1_555 1_555
H7 C12 1_555 1_555
H8 C12 1_555 1_555
H9 C12 1_555 1_555
C13 C8 1_555 1_555
H10 C13 1_555 1_555
H11 C13 1_555 1_555
H12 C13 1_555 1_555
C14 O5 1_555 1_555
H13 C14 1_555 1_555
H14 C14 1_555 1_555
H15 C14 1_555 1_555
Cl2 C18 1_555 1_555
S2 O6 1_555 1_555
O7 C23 1_555 1_555
O8 C24 1_555 1_555
O9 C23 1_555 1_555
O10 S2 1_555 1_555
C15 C16 1_555 1_555
C16 S2 1_555 1_555
C17 S2 1_555 1_555
C18 C17 1_555 1_555
C19 C15 1_555 1_555
H16 C19 1_555 1_555
C20 C16 1_555 1_555
C21 C19 1_555 1_555
C22 C20 1_555 1_555
H17 C22 1_555 1_555
C23 C18 1_555 1_555
C24 O7 1_555 1_555
H18 C24 1_555 1_555
C25 C15 1_555 1_555
H19 C25 1_555 1_555
H20 C25 1_555 1_555
H21 C25 1_555 1_555
C26 C21 1_555 1_555
H22 C26 1_555 1_555
H23 C26 1_555 1_555
H24 C26 1_555 1_555
C27 C20 1_555 1_555
H25 C27 1_555 1_555
H26 C27 1_555 1_555
H27 C27 1_555 1_555
C28 O8 1_555 1_555
H28 C28 1_555 1_555
H29 C28 1_555 1_555
H30 C28 1_555 1_555
C1 C9 1_555 1_555
C8 C10 1_555 1_555
C17 C24 1_555 1_555
C21 C22 1_555 1_555

#END
