
#######################################################################
#
#                 Cambridge Crystallographic Data Centre
#                                CCDC 
#
#######################################################################
#
# If this CIF has been generated from an entry in the Cambridge 
# Structural Database, then it will include bibliographic, chemical, 
# crystal, experimental, refinement or atomic coordinate data resulting 
# from the CCDC's data processing and validation procedures.
#
#######################################################################

data_ZEWDEM
_chemical_formula_moiety         'C33 H24'
_chemical_name_systematic        2,2',2''-Benzene-1,3,5-triyltris(1H-indene)
_symmetry_cell_setting           orthorhombic
_symmetry_space_group_name_H-M   'P b c a'
_symmetry_Int_Tables_number      61
_space_group_name_Hall           '-P 2ac 2ab'
loop_
_symmetry_equiv_pos_site_id
_symmetry_equiv_pos_as_xyz
1 x,y,z
2 1/2-x,-y,1/2+z
3 -x,1/2+y,1/2-z
4 1/2+x,1/2-y,-z
5 -x,-y,-z
6 1/2+x,y,1/2-z
7 x,1/2-y,1/2+z
8 1/2-x,1/2+y,z
_cell_length_a                   23.3720(16)
_cell_length_b                   6.9309(6)
_cell_length_c                   27.463(2)
_cell_angle_alpha                90
_cell_angle_beta                 90
_cell_angle_gamma                90
_cell_volume                     4448.7
_exptl_crystal_colour            colorless
_exptl_crystal_description       needle
_cell_formula_units_Z            8
loop_
_atom_site_label
_atom_site_type_symbol
_atom_site_fract_x
_atom_site_fract_y
_atom_site_fract_z
C1 C 0.86958(12) 0.7778(5) 0.36983(10)
H1 H 0.8791 0.9157 0.3650
H2 H 0.9042 0.6994 0.3635
C2 C 0.84779(12) 0.7434(4) 0.42022(10)
C3 C 0.87244(13) 0.7755(5) 0.46512(10)
H3 H 0.9091 0.8338 0.4675
C4 C 0.84282(15) 0.7211(5) 0.50676(11)
H4 H 0.8594 0.7426 0.5379
C5 C 0.78905(14) 0.6353(5) 0.50329(10)
H5 H 0.7697 0.5962 0.5321
C6 C 0.76351(13) 0.6064(5) 0.45838(9)
H6 H 0.7265 0.5502 0.4561
C7 C 0.79284(12) 0.6608(5) 0.41697(10)
C8 C 0.77764(11) 0.6483(5) 0.36519(9)
H7 H 0.7426 0.5993 0.3527
C9 C 0.82222(12) 0.7188(4) 0.33761(10)
C10 C 0.82401(11) 0.7334(4) 0.28421(11)
C11 C 0.77336(11) 0.7338(4) 0.25692(10)
H8 H 0.7377 0.7253 0.2734
C12 C 0.77381(11) 0.7461(5) 0.20615(10)
C13 C 0.82699(11) 0.7564(5) 0.18277(11)
H9 H 0.8280 0.7633 0.1482
C14 C 0.87856(12) 0.7569(5) 0.20841(10)
C15 C 0.87610(12) 0.7466(5) 0.25937(10)
H10 H 0.9107 0.7487 0.2775
C16 C 0.72029(12) 0.7496(4) 0.17821(10)
C17 C 0.66186(12) 0.7574(5) 0.20125(10)
H11 H 0.6545 0.6411 0.2212
H12 H 0.6577 0.8735 0.2220
C18 C 0.62229(12) 0.7658(5) 0.15817(10)
C19 C 0.56313(12) 0.7770(5) 0.15561(11)
H13 H 0.5409 0.7807 0.1845
C20 C 0.53674(13) 0.7830(5) 0.11033(11)
H14 H 0.4962 0.7890 0.1083
C21 C 0.56912(13) 0.7802(5) 0.06800(11)
H15 H 0.5505 0.7856 0.0373
C22 C 0.62852(12) 0.7695(5) 0.06984(10)
H16 H 0.6506 0.7677 0.0408
C23 C 0.65475(12) 0.7615(5) 0.11514(10)
C24 C 0.71520(12) 0.7506(5) 0.12892(10)
H17 H 0.7463 0.7451 0.1067
C25 C 0.93323(12) 0.7673(4) 0.18215(10)
C26 C 0.93611(12) 0.7776(5) 0.12742(10)
H18 H 0.9181 0.6630 0.1123
H19 H 0.9170 0.8954 0.1151
C27 C 0.99923(12) 0.7826(5) 0.11741(10)
C28 C 1.02816(12) 0.7927(5) 0.07368(11)
H20 H 1.0078 0.7988 0.0438
C29 C 1.08770(13) 0.7937(5) 0.07421(11)
H21 H 1.1082 0.7988 0.0444
C30 C 1.11699(13) 0.7875(5) 0.11755(11)
H22 H 1.1576 0.7888 0.1172
C31 C 1.08838(12) 0.7795(4) 0.16190(11)
H23 H 1.1090 0.7763 0.1917
C32 C 1.02883(12) 0.7763(4) 0.16157(10)
C33 C 0.98692(12) 0.7676(4) 0.20085(10)
H24 H 0.9959 0.7629 0.2346
loop_
_geom_bond_atom_site_label_1
_geom_bond_atom_site_label_2
_geom_bond_site_symmetry_1
_geom_bond_site_symmetry_2
C1 H1 1_555 1_555
H2 C1 1_555 1_555
C2 C1 1_555 1_555
C3 C2 1_555 1_555
H3 C3 1_555 1_555
C4 C3 1_555 1_555
H4 C4 1_555 1_555
C5 C4 1_555 1_555
H5 C5 1_555 1_555
C6 C5 1_555 1_555
H6 C6 1_555 1_555
C7 C2 1_555 1_555
C8 C7 1_555 1_555
H7 C8 1_555 1_555
C9 C1 1_555 1_555
C10 C9 1_555 1_555
C11 C10 1_555 1_555
H8 C11 1_555 1_555
C12 C11 1_555 1_555
C13 C12 1_555 1_555
H9 C13 1_555 1_555
C14 C13 1_555 1_555
C15 C10 1_555 1_555
H10 C15 1_555 1_555
C16 C12 1_555 1_555
C17 C16 1_555 1_555
H11 C17 1_555 1_555
H12 C17 1_555 1_555
C18 C17 1_555 1_555
C19 C18 1_555 1_555
H13 C19 1_555 1_555
C20 C19 1_555 1_555
H14 C20 1_555 1_555
C21 C20 1_555 1_555
H15 C21 1_555 1_555
C22 C21 1_555 1_555
H16 C22 1_555 1_555
C23 C18 1_555 1_555
C24 C16 1_555 1_555
H17 C24 1_555 1_555
C25 C14 1_555 1_555
C26 C25 1_555 1_555
H18 C26 1_555 1_555
H19 C26 1_555 1_555
C27 C26 1_555 1_555
C28 C27 1_555 1_555
H20 C28 1_555 1_555
C29 C28 1_555 1_555
H21 C29 1_555 1_555
C30 C29 1_555 1_555
H22 C30 1_555 1_555
C31 C30 1_555 1_555
H23 C31 1_555 1_555
C32 C27 1_555 1_555
C33 C25 1_555 1_555
H24 C33 1_555 1_555
C6 C7 1_555 1_555
C8 C9 1_555 1_555
C14 C15 1_555 1_555
C22 C23 1_555 1_555
C23 C24 1_555 1_555
C31 C32 1_555 1_555
C32 C33 1_555 1_555

#END
