
#######################################################################
#
#                 Cambridge Crystallographic Data Centre
#                                CCDC 
#
#######################################################################
#
# If this CIF has been generated from an entry in the Cambridge 
# Structural Database, then it will include bibliographic, chemical, 
# crystal, experimental, refinement or atomic coordinate data resulting 
# from the CCDC's data processing and validation procedures.
#
#######################################################################

data_ZEWJOD
_chemical_formula_moiety         'C22 H26 Cl1 N1 O2 S1'
_chemical_name_systematic        
N-(7-chloro-4a-methyl-1,2,3,4,4a,9,10,10a-octahydrophenanthren-1-yl)-4-methylbenzene-1-sulfonamide
_symmetry_cell_setting           monoclinic
_symmetry_space_group_name_H-M   'P 21'
_symmetry_Int_Tables_number      4
_space_group_name_Hall           'P 2yb'
loop_
_symmetry_equiv_pos_site_id
_symmetry_equiv_pos_as_xyz
1 x,y,z
2 -x,1/2+y,-z
_cell_length_a                   11.3361(10)
_cell_length_b                   6.7290(4)
_cell_length_c                   14.5576(12)
_cell_angle_alpha                90
_cell_angle_beta                 112.767(10)
_cell_angle_gamma                90
_cell_volume                     1023.94
_exptl_crystal_colour            colorless
_exptl_crystal_description       prism
_cell_formula_units_Z            2
loop_
_atom_site_label
_atom_site_type_symbol
_atom_site_fract_x
_atom_site_fract_y
_atom_site_fract_z
S1 S 0.89457(7) 0.27039(12) 0.57295(6)
Cl1 Cl 0.22681(9) 0.22873(15) -0.16103(6)
O1 O 0.8072(2) 0.1262(4) 0.58099(19)
O2 O 1.0183(2) 0.2104(4) 0.57764(18)
N1 N 0.8269(2) 0.3848(4) 0.46799(19)
H1 H 0.874(3) 0.462(6) 0.458(3)
C1 C 0.6285(3) 0.3995(4) 0.3193(2)
H2 H 0.6730 0.4802 0.2866
C2 C 0.6912(3) 0.4447(4) 0.4313(2)
H3 H 0.6484 0.3655 0.4658
C3 C 0.4798(3) 0.2634(5) 0.1222(2)
C4 C 0.9218(3) 0.4464(5) 0.6694(2)
C5 C 0.4304(3) 0.4176(4) 0.1616(2)
C6 C 0.4866(3) 0.4617(4) 0.2743(2)
C7 C 0.4167(3) 0.2094(5) 0.0226(2)
H4 H 0.4495 0.1071 -0.0034
C8 C 0.3075(3) 0.3041(5) -0.0374(2)
C9 C 0.4789(3) 0.6846(5) 0.2956(2)
H5 H 0.5229 0.7604 0.2617
H6 H 0.3900 0.7258 0.2691
C10 C 0.8748(3) 0.4150(6) 0.7427(3)
H7 H 0.8268 0.3022 0.7414
C11 C 0.5384(3) 0.7305(5) 0.4064(2)
H8 H 0.4906 0.6626 0.4397
H9 H 0.5331 0.8722 0.4164
C12 C 0.9692(3) 0.7235(6) 0.8215(2)
C13 C 0.9907(3) 0.6158(5) 0.6713(2)
H10 H 1.0216 0.6380 0.6216
C14 C 0.4037(3) 0.3416(5) 0.3175(2)
H11 H 0.4010 0.2050 0.2978
H12 H 0.3185 0.3948 0.2927
H13 H 0.4402 0.3505 0.3889
C15 C 0.6030(3) 0.1569(5) 0.1835(2)
H14 H 0.6706 0.2057 0.1642
H15 H 0.5924 0.0162 0.1679
C16 C 0.6781(3) 0.6651(5) 0.4522(2)
H16 H 0.7116 0.6872 0.5235
H17 H 0.7280 0.7444 0.4246
C17 C 0.6440(3) 0.1827(5) 0.2950(2)
H18 H 0.7327 0.1429 0.3286
H19 H 0.5922 0.0985 0.3187
C18 C 0.3220(3) 0.5130(6) 0.0971(2)
H20 H 0.2891 0.6181 0.1213
C19 C 0.2602(3) 0.4591(6) -0.0019(3)
H21 H 0.1879 0.5274 -0.0433
C20 C 0.8999(4) 0.5534(7) 0.8178(3)
H22 H 0.8691 0.5312 0.8675
C21 C 1.0138(3) 0.7515(6) 0.7463(2)
H23 H 1.0605 0.8653 0.7467
C22 C 0.9992(5) 0.8722(7) 0.9054(3)
H24 H 0.9560 0.8343 0.9479
H25 H 0.9708 1.0017 0.8782
H26 H 1.0898 0.8749 0.9434
loop_
_geom_bond_atom_site_label_1
_geom_bond_atom_site_label_2
_geom_bond_site_symmetry_1
_geom_bond_site_symmetry_2
S1 O1 1_555 1_555
Cl1 C8 1_555 1_555
O2 S1 1_555 1_555
N1 S1 1_555 1_555
H1 N1 1_555 1_555
C1 H2 1_555 1_555
C2 N1 1_555 1_555
H3 C2 1_555 1_555
C3 C5 1_555 1_555
C4 S1 1_555 1_555
C5 C6 1_555 1_555
C6 C1 1_555 1_555
C7 C3 1_555 1_555
H4 C7 1_555 1_555
C8 C7 1_555 1_555
C9 C6 1_555 1_555
H5 C9 1_555 1_555
H6 C9 1_555 1_555
C10 C4 1_555 1_555
H7 C10 1_555 1_555
C11 C9 1_555 1_555
H8 C11 1_555 1_555
H9 C11 1_555 1_555
C12 C20 1_555 1_555
C13 C4 1_555 1_555
H10 C13 1_555 1_555
C14 C6 1_555 1_555
H11 C14 1_555 1_555
H12 C14 1_555 1_555
H13 C14 1_555 1_555
C15 C3 1_555 1_555
H14 C15 1_555 1_555
H15 C15 1_555 1_555
C16 C2 1_555 1_555
H16 C16 1_555 1_555
H17 C16 1_555 1_555
C17 C1 1_555 1_555
H18 C17 1_555 1_555
H19 C17 1_555 1_555
C18 C5 1_555 1_555
H20 C18 1_555 1_555
C19 C8 1_555 1_555
H21 C19 1_555 1_555
C20 C10 1_555 1_555
H22 C20 1_555 1_555
C21 C12 1_555 1_555
H23 C21 1_555 1_555
C22 C12 1_555 1_555
H24 C22 1_555 1_555
H25 C22 1_555 1_555
H26 C22 1_555 1_555
C1 C2 1_555 1_555
C11 C16 1_555 1_555
C13 C21 1_555 1_555
C15 C17 1_555 1_555
C18 C19 1_555 1_555

#END
