
#######################################################################
#
#                 Cambridge Crystallographic Data Centre
#                                CCDC 
#
#######################################################################
#
# If this CIF has been generated from an entry in the Cambridge 
# Structural Database, then it will include bibliographic, chemical, 
# crystal, experimental, refinement or atomic coordinate data resulting 
# from the CCDC's data processing and validation procedures.
#
#######################################################################

data_ZEWJIX
_chemical_formula_moiety         'C22 H27 N1 O2 S1,0.5(C1 H2 Cl2)'
_chemical_name_systematic        
'4-methyl-N-(4a-methyl-1,2,3,4,4a,9,10,10a-octahydrophenanthren-1-yl)benzene-1-sulfonamide dichloromethane solvate'
_symmetry_cell_setting           triclinic
_symmetry_space_group_name_H-M   'P -1'
_symmetry_Int_Tables_number      2
_space_group_name_Hall           '-P 1'
loop_
_symmetry_equiv_pos_site_id
_symmetry_equiv_pos_as_xyz
1 x,y,z
2 -x,-y,-z
_cell_length_a                   10.2545(5)
_cell_length_b                   10.4337(6)
_cell_length_c                   21.2287(11)
_cell_angle_alpha                87.395(5)
_cell_angle_beta                 78.128(4)
_cell_angle_gamma                77.633(4)
_cell_volume                     2171.15
_exptl_crystal_colour            colorless
_exptl_crystal_description       prism
_cell_formula_units_Z            4
loop_
_atom_site_label
_atom_site_type_symbol
_atom_site_fract_x
_atom_site_fract_y
_atom_site_fract_z
S1 S 0.28243(5) 0.50077(6) -0.00620(3)
O1 O 0.39042(16) 0.55336(19) -0.04556(8)
O2 O 0.14464(16) 0.56752(19) -0.00444(9)
N1 N 0.31062(18) 0.4934(2) 0.06590(9)
H1 H 0.3767 0.5240 0.0742
C1 C 0.1574(2) 0.5267(2) 0.17508(10)
H2 H 0.0904 0.4829 0.2023
C2 C 0.2965(2) 0.3381(3) -0.03056(11)
C3 C 0.2221(2) 0.4335(2) 0.11806(11)
H3 H 0.1473 0.4154 0.0999
C4 C 0.2544(2) 0.5461(2) 0.21953(11)
C5 C 0.0423(2) 0.7108(2) 0.27505(12)
C6 C 0.1681(2) 0.6270(2) 0.27800(11)
C7 C 0.0746(2) 0.6566(3) 0.15665(12)
H4 H 0.0223 0.6419 0.1255
H5 H 0.1352 0.7136 0.1372
C8 C 0.3647(2) 0.6215(3) 0.18758(13)
H6 H 0.4234 0.5719 0.1518
H7 H 0.4174 0.6344 0.2184
H8 H 0.3221 0.7051 0.1727
C9 C -0.0213(2) 0.7216(3) 0.21662(12)
H9 H -0.0526 0.8137 0.2075
H10 H -0.1004 0.6818 0.2263
C10 C 0.3963(3) 0.3201(3) 0.18247(13)
H11 H 0.4685 0.3579 0.1568
H12 H 0.4373 0.2351 0.1979
C11 C 0.3240(3) 0.4092(3) 0.23976(12)
H13 H 0.3898 0.4188 0.2652
H14 H 0.2559 0.3681 0.2667
C12 C 0.2969(3) 0.3024(2) 0.14066(13)
H15 H 0.2307 0.2555 0.1650
H16 H 0.3465 0.2497 0.1034
C13 C -0.0290(3) 0.7849(3) 0.32979(14)
H17 H -0.1130 0.8395 0.3285
C14 C 0.4234(2) 0.2528(3) -0.04170(13)
H18 H 0.5015 0.2825 -0.0392
C15 C 0.1814(2) 0.2933(3) -0.03502(13)
H19 H 0.0966 0.3504 -0.0280
C16 C 0.3172(3) 0.0758(3) -0.06012(14)
C17 C 0.2180(3) 0.6250(3) 0.33434(13)
H20 H 0.3027 0.5724 0.3362
C18 C 0.4317(3) 0.1234(3) -0.05649(14)
H21 H 0.5166 0.0665 -0.0642
C19 C 0.1926(3) 0.1638(3) -0.04990(15)
H22 H 0.1148 0.1345 -0.0532
C20 C 0.0213(3) 0.7791(3) 0.38502(15)
H23 H -0.0279 0.8291 0.4206
C21 C 0.1459(3) 0.6983(3) 0.38738(14)
H24 H 0.1809 0.6934 0.4247
C22 C 0.3275(4) -0.0673(4) -0.0733(2)
H25 H 0.4217 -0.1112 -0.0829
H26 H 0.2866 -0.0749 -0.1094
H27 H 0.2809 -0.1068 -0.0361
S2 S 0.53638(6) 0.65342(7) 0.42535(3)
O3 O 0.41679(16) 0.62250(19) 0.46622(9)
O4 O 0.52369(19) 0.7188(2) 0.36558(9)
N2 N 0.64413(19) 0.5156(2) 0.41064(10)
H28 H 0.6211 0.4431 0.4241
C23 C 0.8202(2) 0.4371(2) 0.31058(11)
H29 H 0.9057 0.4586 0.2872
C24 C 0.9102(3) 0.2269(3) 0.25016(13)
C25 C 0.7847(2) 0.5157(3) 0.37318(12)
H30 H 0.7884 0.6069 0.3614
C26 C 0.6039(2) 0.7532(3) 0.46985(13)
C27 C 0.8521(2) 0.2859(3) 0.31756(12)
C28 C 0.7195(3) 0.4807(3) 0.26616(13)
H31 H 0.6364 0.4496 0.2830
H32 H 0.6964 0.5757 0.2646
C29 C 0.8738(3) 0.2931(3) 0.19557(13)
C30 C 0.7254(3) 0.2288(3) 0.34653(15)
H33 H 0.6870 0.2636 0.3890
H34 H 0.7516 0.1350 0.3488
H35 H 0.6590 0.2525 0.3198
C31 C 0.8901(3) 0.4682(3) 0.41500(14)
H36 H 0.9752 0.4925 0.3947
H37 H 0.8589 0.5115 0.4565
C32 C 0.6330(3) 0.8700(3) 0.44403(15)
H38 H 0.6190 0.8960 0.4030
C33 C 0.9985(3) 0.1044(3) 0.24158(15)
H39 H 1.0232 0.0586 0.2774
C34 C 0.9153(3) 0.3205(3) 0.42513(13)
H40 H 0.8328 0.2970 0.4496
H41 H 0.9863 0.2943 0.4499
C35 C 0.9576(3) 0.2476(3) 0.36136(13)
H42 H 0.9708 0.1540 0.3698
H43 H 1.0442 0.2656 0.3388
C36 C 0.9288(3) 0.2363(4) 0.13506(15)
H44 H 0.9054 0.2810 0.0987
C37 C 0.7800(3) 0.4270(3) 0.19860(14)
H45 H 0.7060 0.4223 0.1773
H46 H 0.8303 0.4885 0.1746
C38 C 1.0504(3) 0.0493(3) 0.18126(17)
H47 H 1.1083 -0.0331 0.1769
C39 C 0.6834(3) 0.9479(3) 0.48023(18)
H48 H 0.7026 1.0268 0.4629
C40 C 0.6248(3) 0.7138(3) 0.53091(15)
H49 H 0.6054 0.6350 0.5482
C41 C 1.0166(4) 0.1160(4) 0.12785(17)
H50 H 1.0528 0.0801 0.0871
C42 C 0.7058(3) 0.9126(3) 0.54056(19)
C43 C 0.6753(3) 0.7946(4) 0.56543(17)
H51 H 0.6891 0.7692 0.6065
C44 C 0.7610(4) 0.9998(4) 0.5783(2)
H52 H 0.8524 1.0036 0.5573
H53 H 0.7612 0.9649 0.6210
H54 H 0.7047 1.0864 0.5808
Cl1 Cl 0.36687(14) -0.02705(12) 0.22726(7)
Cl2 Cl 0.62740(17) -0.01303(15) 0.25672(8)
C45 C 0.5272(5) -0.1138(4) 0.2366(2)
H55 H 0.5160 -0.1794 0.2701
H56 H 0.5738 -0.1593 0.1968
loop_
_geom_bond_atom_site_label_1
_geom_bond_atom_site_label_2
_geom_bond_site_symmetry_1
_geom_bond_site_symmetry_2
S1 O1 1_555 1_555
O2 S1 1_555 1_555
N1 S1 1_555 1_555
H1 N1 1_555 1_555
C1 H2 1_555 1_555
C2 S1 1_555 1_555
C3 N1 1_555 1_555
H3 C3 1_555 1_555
C4 C1 1_555 1_555
C5 C6 1_555 1_555
C6 C4 1_555 1_555
C7 C1 1_555 1_555
H4 C7 1_555 1_555
H5 C7 1_555 1_555
C8 C4 1_555 1_555
H6 C8 1_555 1_555
H7 C8 1_555 1_555
H8 C8 1_555 1_555
C9 C5 1_555 1_555
H9 C9 1_555 1_555
H10 C9 1_555 1_555
C10 H11 1_555 1_555
H12 C10 1_555 1_555
C11 C4 1_555 1_555
H13 C11 1_555 1_555
H14 C11 1_555 1_555
C12 C3 1_555 1_555
H15 C12 1_555 1_555
H16 C12 1_555 1_555
C13 C5 1_555 1_555
H17 C13 1_555 1_555
C14 C2 1_555 1_555
H18 C14 1_555 1_555
C15 C2 1_555 1_555
H19 C15 1_555 1_555
C16 C18 1_555 1_555
C17 C6 1_555 1_555
H20 C17 1_555 1_555
C18 C14 1_555 1_555
H21 C18 1_555 1_555
C19 C15 1_555 1_555
H22 C19 1_555 1_555
C20 C13 1_555 1_555
H23 C20 1_555 1_555
C21 C17 1_555 1_555
H24 C21 1_555 1_555
C22 C16 1_555 1_555
H25 C22 1_555 1_555
H26 C22 1_555 1_555
H27 C22 1_555 1_555
S2 O3 1_555 1_555
O4 S2 1_555 1_555
N2 S2 1_555 1_555
H28 N2 1_555 1_555
C23 H29 1_555 1_555
C24 C27 1_555 1_555
C25 N2 1_555 1_555
H30 C25 1_555 1_555
C26 S2 1_555 1_555
C27 C23 1_555 1_555
C28 C23 1_555 1_555
H31 C28 1_555 1_555
H32 C28 1_555 1_555
C29 C24 1_555 1_555
C30 C27 1_555 1_555
H33 C30 1_555 1_555
H34 C30 1_555 1_555
H35 C30 1_555 1_555
C31 C25 1_555 1_555
H36 C31 1_555 1_555
H37 C31 1_555 1_555
C32 C26 1_555 1_555
H38 C32 1_555 1_555
C33 C24 1_555 1_555
H39 C33 1_555 1_555
C34 C31 1_555 1_555
H40 C34 1_555 1_555
H41 C34 1_555 1_555
C35 C27 1_555 1_555
H42 C35 1_555 1_555
H43 C35 1_555 1_555
C36 C29 1_555 1_555
H44 C36 1_555 1_555
C37 C28 1_555 1_555
H45 C37 1_555 1_555
H46 C37 1_555 1_555
C38 C33 1_555 1_555
H47 C38 1_555 1_555
C39 C32 1_555 1_555
H48 C39 1_555 1_555
C40 C26 1_555 1_555
H49 C40 1_555 1_555
C41 C36 1_555 1_555
H50 C41 1_555 1_555
C42 C39 1_555 1_555
C43 C40 1_555 1_555
H51 C43 1_555 1_555
C44 C42 1_555 1_555
H52 C44 1_555 1_555
H53 C44 1_555 1_555
H54 C44 1_555 1_555
Cl1 C45 1_555 1_555
Cl2 C45 1_555 1_555
C45 H55 1_555 1_555
H56 C45 1_555 1_555
C1 C3 1_555 1_555
C7 C9 1_555 1_555
C10 C11 1_555 1_555
C10 C12 1_555 1_555
C16 C19 1_555 1_555
C20 C21 1_555 1_555
C23 C25 1_555 1_555
C29 C37 1_555 1_555
C34 C35 1_555 1_555
C38 C41 1_555 1_555
C42 C43 1_555 1_555

#END
