
#######################################################################
#
#                 Cambridge Crystallographic Data Centre
#                                CCDC 
#
#######################################################################
#
# If this CIF has been generated from an entry in the Cambridge 
# Structural Database, then it will include bibliographic, chemical, 
# crystal, experimental, refinement or atomic coordinate data resulting 
# from the CCDC's data processing and validation procedures.
#
#######################################################################

data_ZEWMAR
_chemical_formula_moiety         'C22 H25 F3 N2 O4 S1'
_chemical_name_systematic        
2-(((7,7-Dimethyl-2-oxobicyclo[2.2.1]hept-1-yl)methyl)sulfonyl)-6-(trifluoromethyl)-1,2,3,3a,4,9b-hexahydro-5H-pyrrolo[3,4-c]isoquinolin-5-one
_symmetry_cell_setting           monoclinic
_symmetry_space_group_name_H-M   'P 21'
_symmetry_Int_Tables_number      4
_space_group_name_Hall           'P 2yb'
loop_
_symmetry_equiv_pos_site_id
_symmetry_equiv_pos_as_xyz
1 x,y,z
2 -x,1/2+y,-z
_cell_length_a                   13.741(3)
_cell_length_b                   12.058(2)
_cell_length_c                   13.943(2)
_cell_angle_alpha                90
_cell_angle_beta                 107.390(10)
_cell_angle_gamma                90
_cell_volume                     2204.61
_exptl_crystal_colour            colorless
_exptl_crystal_description       prism
_cell_formula_units_Z            4
loop_
_atom_site_label
_atom_site_type_symbol
_atom_site_fract_x
_atom_site_fract_y
_atom_site_fract_z
S1 S 0.90637(10) 0.59136(12) 0.54057(10)
O1 O 0.9214(3) 0.6996(3) 0.5843(3)
O2 O 0.9148(3) 0.4971(3) 0.6036(3)
N1 N 0.9890(3) 0.5762(4) 0.4810(3)
N2 N 1.1218(3) 0.4205(4) 0.3366(3)
H1 H 1.1088 0.3514 0.3419
F1 F 1.3730(2) 0.4777(4) 0.2395(3)
F2 F 1.3928(3) 0.6158(4) 0.1544(4)
C1 C 0.6894(5) 0.7571(7) 0.4848(5)
O3 O 1.1920(3) 0.3853(4) 0.2141(3)
C2 C 1.0960(4) 0.4995(4) 0.4026(4)
H2 H 1.1585 0.5232 0.4536
C3 C 1.1183(4) 0.6495(5) 0.2914(3)
C4 C 1.0081(4) 0.6666(5) 0.4148(4)
H3 H 1.0592 0.7186 0.4524
H4 H 0.9460 0.7065 0.3809
F3 F 1.2774(3) 0.4984(4) 0.0877(3)
C5 C 1.0464(3) 0.5990(4) 0.3415(3)
H5 H 0.9866 0.5725 0.2885
C6 C 1.2478(4) 0.6202(6) 0.2092(4)
C7 C 0.7858(4) 0.5895(5) 0.4471(4)
H6 H 0.7919 0.6325 0.3904
H7 H 0.7719 0.5136 0.4242
C8 C 1.0185(4) 0.4652(5) 0.4537(4)
H8 H 0.9613 0.4264 0.4082
H9 H 1.0485 0.4198 0.5125
C9 C 1.1231(4) 0.7614(5) 0.2761(4)
H10 H 1.0816 0.8091 0.2989
C10 C 1.2505(5) 0.7330(6) 0.1949(5)
H11 H 1.2952 0.7618 0.1626
C11 C 0.6936(4) 0.6319(5) 0.4738(4)
O4 O 0.7374(4) 0.8240(4) 0.4524(4)
C12 C 1.1798(4) 0.5757(5) 0.2564(3)
C13 C 0.6624(4) 0.5900(6) 0.5662(4)
C14 C 0.7356(4) 0.6179(5) 0.6693(4)
H12 H 0.7024 0.6051 0.7199
H13 H 0.7553 0.6943 0.6706
H14 H 0.7950 0.5717 0.6822
C15 C 1.1663(4) 0.4525(5) 0.2660(4)
C16 C 1.3207(5) 0.5511(6) 0.1730(5)
C17 C 1.1881(5) 0.8044(6) 0.2275(4)
H15 H 1.1902 0.8804 0.2167
C18 C 0.5654(5) 0.6615(9) 0.5419(5)
H16 H 0.5264 0.6547 0.5901
C19 C 0.5937(4) 0.6111(6) 0.3855(4)
H17 H 0.5881 0.6631 0.3311
H18 H 0.5921 0.5362 0.3598
C20 C 0.5066(4) 0.6294(9) 0.4338(5)
H19 H 0.4611 0.6884 0.4002
H20 H 0.4674 0.5621 0.4319
C21 C 0.6078(6) 0.7774(7) 0.5349(6)
H21 H 0.5552 0.8262 0.4946
H22 H 0.6364 0.8097 0.6010
C22 C 0.6406(5) 0.4654(6) 0.5625(5)
H23 H 0.7036 0.4252 0.5769
H24 H 0.5977 0.4457 0.4967
H25 H 0.6068 0.4471 0.6115
S2 S 0.08976(10) 0.15852(12) -0.04248(10)
N3 N -0.1134(4) 0.3390(4) 0.1685(3)
H26 H -0.1058 0.4079 0.1564
O5 O 0.0658(3) 0.0534(3) -0.0920(3)
N4 N 0.0076(3) 0.1793(4) 0.0151(4)
O6 O 0.0913(3) 0.2557(4) -0.1014(3)
F4 F -0.3647(3) 0.2782(3) 0.3231(3)
F5 F -0.2123(3) 0.2983(3) 0.4207(2)
C23 C 0.2105(4) 0.1486(6) 0.0495(4)
H27 H 0.2270 0.2204 0.0816
H28 H 0.2050 0.0964 0.1005
F6 F -0.3040(3) 0.1652(3) 0.4421(3)
C24 C -0.2405(4) 0.1494(6) 0.3028(4)
C25 C -0.1935(4) 0.1889(5) 0.2331(4)
C26 C -0.0506(4) 0.2571(4) 0.1389(4)
H29 H 0.0063 0.2362 0.1975
C27 C 0.2989(4) 0.1126(5) 0.0117(4)
C28 C -0.0096(5) 0.2906(5) 0.0538(4)
H30 H -0.0590 0.3335 0.0032
H31 H 0.0534 0.3322 0.0779
C29 C -0.1130(4) 0.1569(4) 0.0987(4)
H32 H -0.1695 0.1800 0.0407
C30 C -0.0389(4) 0.0895(5) 0.0597(4)
H33 H 0.0114 0.0518 0.1138
H34 H -0.0742 0.0357 0.0096
O7 O -0.2355(4) 0.3816(4) 0.2377(4)
C31 C -0.1826(5) 0.3107(5) 0.2139(4)
C32 C -0.1580(4) 0.1104(5) 0.1764(4)
C33 C -0.2803(5) 0.2252(6) 0.3700(5)
C34 C -0.2493(5) 0.0363(6) 0.3150(5)
H35 H -0.2797 0.0106 0.3621
C35 C -0.1686(5) -0.0011(5) 0.1894(5)
H36 H -0.1450 -0.0516 0.1511
C36 C -0.2140(5) -0.0390(5) 0.2591(5)
H37 H -0.2207 -0.1147 0.2681
C37 C 0.4043(9) 0.1506(15) 0.0570(10)
C38 C 0.4093(9) -0.0404(13) 0.0018(10)
H38 H 0.4012 -0.0856 -0.0576
H39 H 0.4524 -0.0788 0.0602
C39 C 0.4433(7) 0.1150(15) 0.1686(7)
H40 H 0.4297 0.1728 0.2101
H41 H 0.5154 0.1017 0.1869
H42 H 0.4090 0.0483 0.1780
O8 O 0.2519(6) -0.0753(6) 0.0401(6)
C40 C 0.4226(17) 0.2749(16) 0.0473(18)
H43 H 0.4645 0.2857 0.0041
H44 H 0.4563 0.3052 0.1125
H45 H 0.3584 0.3118 0.0194
C41 C 0.3081(9) -0.0097(10) 0.0151(8)
C42 C 0.2863(5) 0.1243(10) -0.1028(5)
H46 H 0.2610 0.1972 -0.1275
H47 H 0.2405 0.0683 -0.1416
C43 C 0.4506(8) 0.0737(16) -0.0100(10)
H48 H 0.5250 0.0774 0.0061
C44 C 0.3978(5) 0.1065(8) -0.1069(6)
H49 H 0.4002 0.0494 -0.1552
H50 H 0.4257 0.1746 -0.1247
C45? C 0.4645(19) 0.137(2) 0.0118(19)
C46? C 0.4181(14) 0.2603(18) 0.1412(17)
C47? C 0.3775(19) 0.0284(17) 0.095(2)
C48? C 0.4854(15) 0.0436(17) 0.086(2)
C49? C 0.340(2) 0.305(2) -0.0422(18)
C50? C 0.389(3) 0.215(2) 0.0378(19)
O9? O 0.3502(13) -0.0358(11) 0.1478(13)
loop_
_geom_bond_atom_site_label_1
_geom_bond_atom_site_label_2
_geom_bond_site_symmetry_1
_geom_bond_site_symmetry_2
S1 O1 1_555 1_555
O2 S1 1_555 1_555
N1 S1 1_555 1_555
N2 H1 1_555 1_555
F1 C16 1_555 1_555
F2 C16 1_555 1_555
C1 C11 1_555 1_555
O3 C15 1_555 1_555
C2 N2 1_555 1_555
H2 C2 1_555 1_555
C3 C5 1_555 1_555
C4 N1 1_555 1_555
H3 C4 1_555 1_555
H4 C4 1_555 1_555
F3 C16 1_555 1_555
C5 C2 1_555 1_555
H5 C5 1_555 1_555
C6 C10 1_555 1_555
C7 S1 1_555 1_555
H6 C7 1_555 1_555
H7 C7 1_555 1_555
C8 N1 1_555 1_555
H8 C8 1_555 1_555
H9 C8 1_555 1_555
C9 C3 1_555 1_555
H10 C9 1_555 1_555
C10 H11 1_555 1_555
C11 C7 1_555 1_555
O4 C1 1_555 1_555
C12 C3 1_555 1_555
C13 C11 1_555 1_555
C14 C13 1_555 1_555
H12 C14 1_555 1_555
H13 C14 1_555 1_555
H14 C14 1_555 1_555
C15 N2 1_555 1_555
C16 C6 1_555 1_555
C17 C9 1_555 1_555
H15 C17 1_555 1_555
C18 C13 1_555 1_555
H16 C18 1_555 1_555
C19 C11 1_555 1_555
H17 C19 1_555 1_555
H18 C19 1_555 1_555
C20 C18 1_555 1_555
H19 C20 1_555 1_555
H20 C20 1_555 1_555
C21 C1 1_555 1_555
H21 C21 1_555 1_555
H22 C21 1_555 1_555
C22 C13 1_555 1_555
H23 C22 1_555 1_555
H24 C22 1_555 1_555
H25 C22 1_555 1_555
S2 O5 1_555 1_555
N3 H26 1_555 1_555
N4 S2 1_555 1_555
O6 S2 1_555 1_555
F4 C33 1_555 1_555
F5 C33 1_555 1_555
C23 S2 1_555 1_555
H27 C23 1_555 1_555
H28 C23 1_555 1_555
F6 C33 1_555 1_555
C24 C25 1_555 1_555
C25 C31 1_555 1_555
C26 N3 1_555 1_555
H29 C26 1_555 1_555
C27 C23 1_555 1_555
C28 N4 1_555 1_555
H30 C28 1_555 1_555
H31 C28 1_555 1_555
C29 C26 1_555 1_555
H32 C29 1_555 1_555
C30 N4 1_555 1_555
H33 C30 1_555 1_555
H34 C30 1_555 1_555
O7 C31 1_555 1_555
C31 N3 1_555 1_555
C32 C25 1_555 1_555
C33 C24 1_555 1_555
C34 C24 1_555 1_555
H35 C34 1_555 1_555
C35 C32 1_555 1_555
H36 C35 1_555 1_555
C36 C34 1_555 1_555
H37 C36 1_555 1_555
C37 C27 1_555 1_555
C38 H38 1_555 1_555
H39 C38 1_555 1_555
C39 C37 1_555 1_555
H40 C39 1_555 1_555
H41 C39 1_555 1_555
H42 C39 1_555 1_555
O8 C41 1_555 1_555
C40 C37 1_555 1_555
H43 C40 1_555 1_555
H44 C40 1_555 1_555
H45 C40 1_555 1_555
C41 C27 1_555 1_555
C42 C27 1_555 1_555
H46 C42 1_555 1_555
H47 C42 1_555 1_555
C43 C37 1_555 1_555
H48 C43 1_555 1_555
C44 C42 1_555 1_555
H49 C44 1_555 1_555
H50 C44 1_555 1_555
C2 C8 1_555 1_555
C4 C5 1_555 1_555
C6 C12 1_555 1_555
C10 C17 1_555 1_555
C12 C15 1_555 1_555
C18 C21 1_555 1_555
C19 C20 1_555 1_555
C26 C28 1_555 1_555
C29 C30 1_555 1_555
C29 C32 1_555 1_555
C35 C36 1_555 1_555
C38 C41 1_555 1_555
C38 C43 1_555 1_555
C43 C44 1_555 1_555

#END
