
#######################################################################
#
#                 Cambridge Crystallographic Data Centre
#                                CCDC 
#
#######################################################################
#
# If this CIF has been generated from an entry in the Cambridge 
# Structural Database, then it will include bibliographic, chemical, 
# crystal, experimental, refinement or atomic coordinate data resulting 
# from the CCDC's data processing and validation procedures.
#
#######################################################################

data_ZEWXUX
_chemical_formula_moiety         'C21 H14 N4 O3,C2 H6 O1 S1'
_chemical_name_systematic        
"8-methyl-9,11-dihydro-6H-spiro[1-benzopyrano[4,3-b]pyrazolo[4,3-e]pyridine-7,3'-indole]-2',6(1'H)-dione dimethyl sulfoxide solvate"
_symmetry_cell_setting           monoclinic
_symmetry_space_group_name_H-M   'P 21/n'
_symmetry_Int_Tables_number      14
_space_group_name_Hall           '-P 2yn'
loop_
_symmetry_equiv_pos_site_id
_symmetry_equiv_pos_as_xyz
1 x,y,z
2 1/2-x,1/2+y,1/2-z
3 -x,-y,-z
4 1/2+x,1/2-y,1/2+z
_cell_length_a                   9.3279(6)
_cell_length_b                   21.2988(14)
_cell_length_c                   11.6031(8)
_cell_angle_alpha                90
_cell_angle_beta                 113.536(2)
_cell_angle_gamma                90
_cell_volume                     2113.45
_exptl_crystal_colour            colorless
_exptl_crystal_description       block
_cell_formula_units_Z            4
loop_
_atom_site_label
_atom_site_type_symbol
_atom_site_fract_x
_atom_site_fract_y
_atom_site_fract_z
C1 C 0.5551(3) 0.33075(11) 0.7387(2)
H1 H 0.6514 0.3229 0.7295
H2 H 0.4687 0.3233 0.6599
H3 H 0.5476 0.3032 0.8015
C2 C 0.5517(2) 0.39688(10) 0.7774(2)
C3 C 0.4388(2) 0.43103(10) 0.79946(18)
C4 C 0.5048(2) 0.48975(10) 0.83563(18)
C5 C 0.2765(2) 0.41460(9) 0.78824(19)
C6 C 0.2793(2) 0.35986(10) 0.8779(2)
C7 C 0.1298(2) 0.32660(11) 0.6796(2)
C8 C 0.0335(3) 0.29027(13) 0.5809(3)
H4 H -0.0001 0.2508 0.5940
C9 C -0.0108(3) 0.31489(17) 0.4618(3)
H5 H -0.0742 0.2911 0.3932
C10 C 0.0355(3) 0.37340(18) 0.4413(3)
H6 H 0.0048 0.3883 0.3596
C11 C 0.1293(3) 0.41083(14) 0.5431(2)
H7 H 0.1592 0.4510 0.5305
C12 C 0.1754(2) 0.38634(11) 0.6614(2)
C13 C 0.2063(2) 0.47303(9) 0.82207(19)
C14 C 0.2819(2) 0.52957(10) 0.85831(18)
C15 C 0.2025(2) 0.58184(10) 0.88887(19)
C16 C 0.0531(2) 0.46507(11) 0.8200(2)
C17 C 0.0566(2) 0.57058(10) 0.8902(2)
C18 C -0.0258(3) 0.61617(11) 0.9226(2)
H8 H -0.1214 0.6067 0.9259
C19 C 0.0354(3) 0.67553(12) 0.9498(2)
H9 H -0.0190 0.7068 0.9714
C20 C 0.1784(3) 0.68889(11) 0.9450(2)
H10 H 0.2186 0.7294 0.9616
C21 C 0.2610(3) 0.64276(10) 0.9159(2)
H11 H 0.3574 0.6523 0.9143
N1 N 0.1958(2) 0.31193(8) 0.8082(2)
H12 H 0.1842 0.2764 0.8387
N2 N 0.6720(2) 0.43687(9) 0.80031(17)
N3 N 0.64731(19) 0.49541(8) 0.83702(17)
N4 N 0.4292(2) 0.53922(9) 0.86521(17)
O1 O -0.02538(17) 0.41725(7) 0.78908(16)
O2 O 0.34796(17) 0.36081(7) 0.99278(16)
O3 O -0.01490(16) 0.51342(7) 0.85715(15)
H13 H 0.765(3) 0.4281(10) 0.798(2)
H14 H 0.482(3) 0.5717(12) 0.902(2)
S1 S 0.06419(14) 0.14790(6) 0.85656(15)
C22 C -0.1278(8) 0.1345(5) 0.8291(8)
H15 H -0.1611 0.0956 0.7846
H16 H -0.1389 0.1322 0.9078
H17 H -0.1910 0.1681 0.7795
C23 C 0.1600(10) 0.0875(3) 0.9666(11)
H18 H 0.1337 0.0474 0.9258
H19 H 0.2711 0.0936 0.9983
H20 H 0.1269 0.0890 1.0350
O4 O 0.1101(3) 0.20909(15) 0.9261(3)
S2? S 0.0713(7) 0.1670(4) 0.9286(9)
O5? O 0.1092(17) 0.1890(8) 0.8226(14)
C24? C -0.119(3) 0.137(2) 0.884(3)
H21? H -0.1338 0.1242 0.9581
H22? H -0.1935 0.1695 0.8420
H23? H -0.1337 0.1021 0.8292
C25? C 0.110(6) 0.0881(11) 0.955(5)
loop_
_geom_bond_atom_site_label_1
_geom_bond_atom_site_label_2
_geom_bond_site_symmetry_1
_geom_bond_site_symmetry_2
C1 H1 1_555 1_555
H2 C1 1_555 1_555
H3 C1 1_555 1_555
C2 C1 1_555 1_555
C3 C2 1_555 1_555
C4 C3 1_555 1_555
C5 C3 1_555 1_555
C6 C5 1_555 1_555
C7 C8 1_555 1_555
C8 H4 1_555 1_555
C9 C8 1_555 1_555
H5 C9 1_555 1_555
C10 C9 1_555 1_555
H6 C10 1_555 1_555
C11 C10 1_555 1_555
H7 C11 1_555 1_555
C12 C5 1_555 1_555
C13 C5 1_555 1_555
C14 C13 1_555 1_555
C15 C14 1_555 1_555
C16 C13 1_555 1_555
C17 C15 1_555 1_555
C18 C17 1_555 1_555
H8 C18 1_555 1_555
C19 C18 1_555 1_555
H9 C19 1_555 1_555
C20 C19 1_555 1_555
H10 C20 1_555 1_555
C21 C15 1_555 1_555
H11 C21 1_555 1_555
N1 C6 1_555 1_555
H12 N1 1_555 1_555
N2 C2 1_555 1_555
N3 C4 1_555 1_555
N4 C4 1_555 1_555
O1 C16 1_555 1_555
O2 C6 1_555 1_555
O3 C16 1_555 1_555
H13 N2 1_555 1_555
H14 N4 1_555 1_555
S1 C22 1_555 1_555
C22 H15 1_555 1_555
H16 C22 1_555 1_555
H17 C22 1_555 1_555
C23 S1 1_555 1_555
H18 C23 1_555 1_555
H19 C23 1_555 1_555
H20 C23 1_555 1_555
O4 S1 1_555 1_555
C7 C12 1_555 1_555
C7 N1 1_555 1_555
C11 C12 1_555 1_555
C14 N4 1_555 1_555
C17 O3 1_555 1_555
C20 C21 1_555 1_555
N2 N3 1_555 1_555

#END
