
#######################################################################
#
#                 Cambridge Crystallographic Data Centre
#                                CCDC 
#
#######################################################################
#
# If this CIF has been generated from an entry in the Cambridge 
# Structural Database, then it will include bibliographic, chemical, 
# crystal, experimental, refinement or atomic coordinate data resulting 
# from the CCDC's data processing and validation procedures.
#
#######################################################################

data_ZEWYEI
_chemical_formula_moiety         'C30 H32 N4 O3'
_chemical_name_systematic        
'9-{2-[4-cyano-5-(dicyanomethylidene)-2,2-dimethyl-2,5-dihydrofuran-3-yl]ethenyl}-1,1,7,7-tetramethyl-2,3,6,7-tetrahydro-1H,5H-pyrido[3,2,1-ij]quinolin-8-yl acetate'
_symmetry_cell_setting           triclinic
_symmetry_space_group_name_H-M   'P -1'
_symmetry_Int_Tables_number      2
_space_group_name_Hall           '-P 1'
loop_
_symmetry_equiv_pos_site_id
_symmetry_equiv_pos_as_xyz
1 x,y,z
2 -x,-y,-z
_cell_length_a                   11.085(2)
_cell_length_b                   12.074(3)
_cell_length_c                   20.890(4)
_cell_angle_alpha                93.358(2)
_cell_angle_beta                 90.469(4)
_cell_angle_gamma                104.074(3)
_cell_volume                     2706.61
_exptl_crystal_colour            black
_exptl_crystal_description       Prism
_cell_formula_units_Z            4
loop_
_atom_site_label
_atom_site_type_symbol
_atom_site_fract_x
_atom_site_fract_y
_atom_site_fract_z
O1 O 0.35547(8) 0.04246(7) 0.57036(4)
O2 O 0.19244(9) 0.55308(8) 0.46464(4)
O3 O 0.37836(10) 0.53238(10) 0.42987(6)
N1 N -0.07866(10) 0.47935(9) 0.27799(5)
N2 N 0.31444(11) 0.41979(10) 0.62680(6)
N3 N 0.48124(13) 0.32729(11) 0.74229(6)
N4 N 0.52414(13) -0.02207(12) 0.69703(7)
C1 C -0.05655(15) 0.59924(12) 0.26406(7)
H1 H -0.1189 0.6334 0.2860
H2 H -0.0665 0.6050 0.2173
C2 C 0.07182(14) 0.66461(11) 0.28586(7)
H3 H 0.0811 0.7468 0.2793
H4 H 0.1337 0.6378 0.2591
C3 C 0.09932(12) 0.65066(10) 0.35677(6)
C4 C 0.07340(11) 0.52185(10) 0.36626(5)
C5 C -0.01465(11) 0.44163(10) 0.32422(5)
C6 C -0.03543(10) 0.32077(10) 0.33093(5)
C7 C -0.12556(11) 0.23698(10) 0.28439(6)
C8 C -0.23216(12) 0.29240(13) 0.27004(7)
H5 H -0.2922 0.2411 0.2395
H6 H -0.2763 0.3025 0.3101
C9 C -0.18579(14) 0.40697(13) 0.24200(7)
H7 H -0.1621 0.3948 0.1970
H8 H -0.2539 0.4469 0.2417
C10 C 0.02957(10) 0.28341(10) 0.37760(5)
H9 H 0.0192 0.2034 0.3801
C11 C 0.11154(11) 0.35843(10) 0.42227(5)
C12 C 0.12625(11) 0.47690(10) 0.41551(5)
C13 C 0.23546(13) 0.71726(12) 0.36901(8)
H10 H 0.2499 0.7907 0.3491
H11 H 0.2909 0.6726 0.3504
H12 H 0.2522 0.7308 0.4153
C14 C 0.01478(13) 0.70277(12) 0.40082(7)
H13 H 0.0244 0.7833 0.3921
H14 H 0.0380 0.6974 0.4457
H15 H -0.0720 0.6609 0.3928
C15 C -0.18096(13) 0.12194(12) 0.31275(7)
H16 H -0.2411 0.0733 0.2820
H17 H -0.2230 0.1347 0.3526
H18 H -0.1143 0.0843 0.3218
C16 C -0.05748(13) 0.21600(12) 0.22293(6)
H19 H 0.0064 0.1755 0.2327
H20 H -0.0182 0.2895 0.2056
H21 H -0.1172 0.1696 0.1912
C17 C 0.31907(14) 0.57291(12) 0.46811(7)
C18 C 0.36885(17) 0.65036(14) 0.52620(8)
H22 H 0.3505 0.6076 0.5648
H23 H 0.3295 0.7148 0.5287
H24 H 0.4591 0.6792 0.5230
C19 C 0.17837(11) 0.31782(10) 0.47050(5)
H25 H 0.2162 0.3713 0.5044
C20 C 0.19314(11) 0.20868(10) 0.47254(6)
H26 H 0.1548 0.1547 0.4390
C21 C 0.28028(11) 0.05018(10) 0.51300(6)
C22 C 0.26070(11) 0.16990(10) 0.52036(5)
C23 C 0.31857(11) 0.22046(10) 0.57776(6)
C24 C 0.37437(10) 0.14009(10) 0.60724(6)
C25 C 0.15843(12) -0.04087(11) 0.51603(6)
H27 H 0.1762 -0.1162 0.5184
H28 H 0.1075 -0.0407 0.4775
H29 H 0.1133 -0.0243 0.5541
C26 C 0.35606(13) 0.03164(12) 0.45493(6)
H30 H 0.4344 0.0908 0.4563
H31 H 0.3088 0.0360 0.4157
H32 H 0.3740 -0.0439 0.4553
C27 C 0.31908(11) 0.33106(11) 0.60539(6)
C28 C 0.44037(11) 0.14825(11) 0.66430(6)
C29 C 0.46289(12) 0.24803(11) 0.70687(6)
C30 C 0.48693(12) 0.05397(12) 0.68270(6)
O4 O 0.72807(8) 0.78864(7) 0.71293(4)
O5 O 0.33699(8) 0.68129(7) 0.98818(4)
O6 O 0.20288(11) 0.72177(9) 0.91606(5)
N5 N 0.16189(13) 0.28426(10) 1.02065(6)
N6 N 0.5845(2) 0.91709(14) 0.91127(8)
N7 N 0.81650(19) 1.13354(14) 0.84633(8)
N8 N 0.93204(12) 1.01614(10) 0.65724(6)
C31 C 0.19600(13) 0.52219(11) 1.07087(6)
C32 C 0.24064(11) 0.48609(10) 1.00471(6)
C33 C 0.21898(12) 0.36809(10) 0.98206(6)
C34 C 0.25794(12) 0.33758(10) 0.91963(6)
C35 C 0.23270(14) 0.21207(11) 0.89380(7)
C36 C 0.1570(2) 0.31323(16) 1.09005(8)
H33 H 0.2412 0.3276 1.1099
H34 H 0.1019 0.2488 1.1109
C37 C 0.1077(2) 0.41853(15) 1.09918(9)
H35 H 0.0981 0.4356 1.1455
H36 H 0.0247 0.4043 1.0780
C38 C 0.1270(2) 0.1413(2) 0.93234(10)
H37 H 0.0481 0.1614 0.9216
H38 H 0.1169 0.0589 0.9203
C39 C 0.1539(3) 0.16310(14) 1.00387(10)
H39 H 0.0866 0.1146 1.0279
H40 H 0.2333 0.1443 1.0150
C40 C 0.32625(12) 0.42236(10) 0.88439(6)
H41 H 0.3538 0.4016 0.8435
C41 C 0.35750(11) 0.53884(10) 0.90606(5)
C42 C 0.30824(11) 0.56602(10) 0.96543(6)
C43 C 0.11326(14) 0.60817(15) 1.06676(7)
H42 H 0.1655 0.6842 1.0595
H43 H 0.0691 0.6115 1.1070
H44 H 0.0528 0.5832 1.0312
C44 C 0.30827(15) 0.57571(15) 1.11554(7)
H45 H 0.3585 0.5201 1.1207
H46 H 0.2790 0.5972 1.1575
H47 H 0.3590 0.6439 1.0970
C45 C 0.18400(16) 0.19674(12) 0.82422(7)
H48 H 0.1678 0.1158 0.8094
H49 H 0.2463 0.2423 0.7970
H50 H 0.1068 0.2223 0.8217
C46 C 0.35360(19) 0.17235(14) 0.89681(10)
H51 H 0.3855 0.1815 0.9412
H52 H 0.4153 0.2185 0.8696
H53 H 0.3373 0.0917 0.8816
C47 C 0.27559(13) 0.75295(11) 0.95989(6)
C48 C 0.31386(17) 0.86979(12) 0.99238(8)
H54 H 0.2715 0.9208 0.9715
H55 H 0.4041 0.8991 0.9894
H56 H 0.2912 0.8663 1.0376
C49 C 0.43984(11) 0.62633(10) 0.87326(6)
H57 H 0.4590 0.7009 0.8939
C50 C 0.49417(11) 0.61461(10) 0.81545(6)
H58 H 0.4715 0.5420 0.7925
C51 C 0.63713(11) 0.68016(9) 0.72352(5)
C52 C 0.58204(10) 0.70341(9) 0.78736(5)
C53 C 0.63568(11) 0.81599(10) 0.80735(6)
C54 C 0.72414(11) 0.86541(10) 0.76078(5)
C55 C 0.54273(12) 0.66069(11) 0.66843(6)
H59 H 0.5040 0.7255 0.6681
H60 H 0.4786 0.5902 0.6738
H61 H 0.5846 0.6538 0.6278
C56 C 0.70845(12) 0.58778(11) 0.72531(6)
H62 H 0.7478 0.5804 0.6839
H63 H 0.6510 0.5148 0.7337
H64 H 0.7726 0.6085 0.7594
C57 C 0.60895(16) 0.87489(12) 0.86423(7)
C58 C 0.80198(11) 0.97314(10) 0.75839(6)
C59 C 0.80811(15) 1.06109(12) 0.80730(7)
C60 C 0.87512(12) 0.99836(10) 0.70303(6)
C61? C 0.0838(7) 0.3122(7) 1.0720(4)
H65? H 0.0552 0.2475 1.0997
H66? H 0.0109 0.3360 1.0551
C62? C 0.1763(10) 0.4113(4) 1.1070(4)
H67? H 0.2569 0.3909 1.1119
H68? H 0.1457 0.4250 1.1504
C63? C 0.1773(14) 0.1265(9) 0.9426(6)
H69? H 0.2442 0.1099 0.9694
H70? H 0.1298 0.0540 0.9206
C64? C 0.0908(9) 0.1805(7) 0.9846(5)
H71? H 0.0268 0.2000 0.9571
H72? H 0.0479 0.1247 1.0149
loop_
_geom_bond_atom_site_label_1
_geom_bond_atom_site_label_2
_geom_bond_site_symmetry_1
_geom_bond_site_symmetry_2
O1 C21 1_555 1_555
O2 C12 1_555 1_555
O3 C17 1_555 1_555
N1 C1 1_555 1_555
N2 C27 1_555 1_555
N3 C29 1_555 1_555
N4 C30 1_555 1_555
C1 H1 1_555 1_555
H2 C1 1_555 1_555
C2 C1 1_555 1_555
H3 C2 1_555 1_555
H4 C2 1_555 1_555
C3 C2 1_555 1_555
C4 C3 1_555 1_555
C5 N1 1_555 1_555
C6 C5 1_555 1_555
C7 C6 1_555 1_555
C8 C7 1_555 1_555
H5 C8 1_555 1_555
H6 C8 1_555 1_555
C9 N1 1_555 1_555
H7 C9 1_555 1_555
H8 C9 1_555 1_555
C10 C6 1_555 1_555
H9 C10 1_555 1_555
C11 C10 1_555 1_555
C12 C4 1_555 1_555
C13 C3 1_555 1_555
H10 C13 1_555 1_555
H11 C13 1_555 1_555
H12 C13 1_555 1_555
C14 C3 1_555 1_555
H13 C14 1_555 1_555
H14 C14 1_555 1_555
H15 C14 1_555 1_555
C15 C7 1_555 1_555
H16 C15 1_555 1_555
H17 C15 1_555 1_555
H18 C15 1_555 1_555
C16 C7 1_555 1_555
H19 C16 1_555 1_555
H20 C16 1_555 1_555
H21 C16 1_555 1_555
C17 O2 1_555 1_555
C18 C17 1_555 1_555
H22 C18 1_555 1_555
H23 C18 1_555 1_555
H24 C18 1_555 1_555
C19 C11 1_555 1_555
H25 C19 1_555 1_555
C20 C19 1_555 1_555
H26 C20 1_555 1_555
C21 C22 1_555 1_555
C22 C20 1_555 1_555
C23 C22 1_555 1_555
C24 O1 1_555 1_555
C25 C21 1_555 1_555
H27 C25 1_555 1_555
H28 C25 1_555 1_555
H29 C25 1_555 1_555
C26 C21 1_555 1_555
H30 C26 1_555 1_555
H31 C26 1_555 1_555
H32 C26 1_555 1_555
C27 C23 1_555 1_555
C28 C24 1_555 1_555
C29 C28 1_555 1_555
C30 C28 1_555 1_555
O4 C51 1_555 1_555
O5 C42 1_555 1_555
O6 C47 1_555 1_555
N5 C33 1_555 1_555
N6 C57 1_555 1_555
N7 C59 1_555 1_555
N8 C60 1_555 1_555
C31 C32 1_555 1_555
C32 C33 1_555 1_555
C33 C34 1_555 1_555
C34 C35 1_555 1_555
C35 C38 1_555 1_555
C36 N5 1_555 1_555
H33 C36 1_555 1_555
H34 C36 1_555 1_555
C37 C31 1_555 1_555
H35 C37 1_555 1_555
H36 C37 1_555 1_555
C38 H37 1_555 1_555
H38 C38 1_555 1_555
C39 N5 1_555 1_555
H39 C39 1_555 1_555
H40 C39 1_555 1_555
C40 C34 1_555 1_555
H41 C40 1_555 1_555
C41 C40 1_555 1_555
C42 C32 1_555 1_555
C43 C31 1_555 1_555
H42 C43 1_555 1_555
H43 C43 1_555 1_555
H44 C43 1_555 1_555
C44 C31 1_555 1_555
H45 C44 1_555 1_555
H46 C44 1_555 1_555
H47 C44 1_555 1_555
C45 C35 1_555 1_555
H48 C45 1_555 1_555
H49 C45 1_555 1_555
H50 C45 1_555 1_555
C46 C35 1_555 1_555
H51 C46 1_555 1_555
H52 C46 1_555 1_555
H53 C46 1_555 1_555
C47 O5 1_555 1_555
C48 C47 1_555 1_555
H54 C48 1_555 1_555
H55 C48 1_555 1_555
H56 C48 1_555 1_555
C49 C41 1_555 1_555
H57 C49 1_555 1_555
C50 C49 1_555 1_555
H58 C50 1_555 1_555
C51 C52 1_555 1_555
C52 C50 1_555 1_555
C53 C52 1_555 1_555
C54 O4 1_555 1_555
C55 C51 1_555 1_555
H59 C55 1_555 1_555
H60 C55 1_555 1_555
H61 C55 1_555 1_555
C56 C51 1_555 1_555
H62 C56 1_555 1_555
H63 C56 1_555 1_555
H64 C56 1_555 1_555
C57 C53 1_555 1_555
C58 C54 1_555 1_555
C59 C58 1_555 1_555
C60 C58 1_555 1_555
C4 C5 1_555 1_555
C8 C9 1_555 1_555
C11 C12 1_555 1_555
C23 C24 1_555 1_555
C36 C37 1_555 1_555
C38 C39 1_555 1_555
C41 C42 1_555 1_555
C53 C54 1_555 1_555

#END
