
#######################################################################
#
#                 Cambridge Crystallographic Data Centre
#                                CCDC 
#
#######################################################################
#
# If this CIF has been generated from an entry in the Cambridge 
# Structural Database, then it will include bibliographic, chemical, 
# crystal, experimental, refinement or atomic coordinate data resulting 
# from the CCDC's data processing and validation procedures.
#
#######################################################################

data_ZEWZIK
_chemical_formula_moiety         'C15 H16 Cl1 N3 O1'
_chemical_name_systematic        
(Z)-1-(4-Chlorophenyl)-4,4-dimethyl-2-(1,2,4-triazol-4-yl)-1-penten-3-one
_symmetry_cell_setting           orthorhombic
_symmetry_space_group_name_H-M   'P 21 21 21'
_symmetry_Int_Tables_number      19
_space_group_name_Hall           'P 2ac 2ab'
loop_
_symmetry_equiv_pos_site_id
_symmetry_equiv_pos_as_xyz
1 x,y,z
2 1/2-x,-y,1/2+z
3 1/2+x,1/2-y,-z
4 -x,1/2+y,1/2-z
_cell_length_a                   8.034(2)
_cell_length_b                   19.44(5)
_cell_length_c                   19.561(5)
_cell_angle_alpha                90
_cell_angle_beta                 90
_cell_angle_gamma                90
_cell_volume                     3055.06
_chemical_melting_point          161-162deg.C
_cell_formula_units_Z            8
loop_
_atom_site_label
_atom_site_type_symbol
_atom_site_fract_x
_atom_site_fract_y
_atom_site_fract_z
Cl1 Cl -0.2421(5) 0.2463(2) 0.0196(2)
O1 O -0.023(1) -0.2067(4) 0.1250(5)
N1 N 0.046(1) -0.0832(4) 0.0904(4)
N2 N 0.298(1) -0.0574(5) 0.1290(5)
N3 N 0.303(1) -0.0600(5) 0.0585(5)
C1 C -0.237(1) 0.1582(5) 0.0332(5)
C2 C -0.372(1) 0.1180(6) 0.0171(6)
C3 C -0.367(1) 0.0494(5) 0.0307(6)
C4 C -0.229(1) 0.0186(5) 0.0593(5)
C5 C -0.092(1) 0.0594(6) 0.0734(6)
C6 C -0.096(1) 0.1295(6) 0.0597(5)
C7 C -0.239(1) -0.0562(5) 0.0729(5)
C8 C -0.125(1) -0.107(5) 0.0868(5)
C9 C 0.147(1) -0.0720(6) 0.1463(5)
C10 C 0.153(1) -0.0750(6) 0.0373(5)
C11 C -0.147(1) -0.1769(6) 0.1051(6)
C12 C -0.309(1) -0.2153(6) 0.0994(5)
C13 C -0.278(2) -0.2910(6) 0.1185(7)
C14 C -0.388(2) -0.2069(7) 0.0282(7)
C15 C -0.425(2) -0.1881(6) 0.1556(7)
loop_
_geom_bond_atom_site_label_1
_geom_bond_atom_site_label_2
_geom_bond_site_symmetry_1
_geom_bond_site_symmetry_2
Cl1 C1 1_555 1_555
O1 C11 1_555 1_555
N1 C8 1_555 1_555
N2 N3 1_555 1_555
N3 C10 1_555 1_555
C1 C2 1_555 1_555
C2 C3 1_555 1_555
C3 C4 1_555 1_555
C4 C5 1_555 1_555
C5 C6 1_555 1_555
C6 C1 1_555 1_555
C7 C4 1_555 1_555
C8 C7 1_555 1_555
C9 N1 1_555 1_555
C10 N1 1_555 1_555
C11 C8 1_555 1_555
C12 C11 1_555 1_555
C13 C12 1_555 1_555
C14 C12 1_555 1_555
C15 C12 1_555 1_555
N2 C9 1_555 1_555

#END
