
#######################################################################
#
#                 Cambridge Crystallographic Data Centre
#                                CCDC 
#
#######################################################################
#
# If this CIF has been generated from an entry in the Cambridge 
# Structural Database, then it will include bibliographic, chemical, 
# crystal, experimental, refinement or atomic coordinate data resulting 
# from the CCDC's data processing and validation procedures.
#
#######################################################################

data_ZEWZOQ
_chemical_formula_moiety         'C15 H16 Cl1 N3 O1'
_chemical_name_systematic        
(E)-1-(4-Chlorophenyl)-4,4-dimethyl-2-(1,2,4-triazol-4-yl)-1-penten-3-one
_symmetry_cell_setting           monoclinic
_symmetry_space_group_name_H-M   'P 21/c'
_symmetry_Int_Tables_number      14
_space_group_name_Hall           '-P 2ybc'
loop_
_symmetry_equiv_pos_site_id
_symmetry_equiv_pos_as_xyz
1 x,y,z
2 -x,1/2+y,1/2-z
3 -x,-y,-z
4 x,1/2-y,1/2+z
_cell_length_a                   11.717(3)
_cell_length_b                   10.521(2)
_cell_length_c                   11.953(3)
_cell_angle_alpha                90
_cell_angle_beta                 93.90(3)
_cell_angle_gamma                90
_cell_volume                     1470.09
_chemical_melting_point          202-203deg.C
_cell_formula_units_Z            4
loop_
_atom_site_label
_atom_site_type_symbol
_atom_site_fract_x
_atom_site_fract_y
_atom_site_fract_z
Cl1 Cl 0.80676(9) 0.0896(1) 0.19829(9)
O1 O 0.7509(2) 0.7655(3) 0.1314(2)
N1 N 0.6033(2) 0.7720(2) -0.0910(2)
N2 N 0.5083(3) 0.8715(63) -0.2368(2)
N3 N 0.5224(3) 0.9548(3) -0.1468(2)
C1 C 0.7586(3) 0.2270(3) 0.1303(3)
C2 C 0.7686(3) 0.3421(3) 0.1845(3)
C3 C 0.7277(3) 0.4502(3) 0.1307(3)
C4 C 0.6781(2) 0.4455(3) 0.0216(3)
C5 C 0.6689(3) 0.3278(3) -0.0298(3)
C6 C 0.7088(3) 0.2192(3) 0.0234(3)
C7 C 0.6295(2) 0.5566(3) -0.0392(3)
C8 C 0.6630(2) 0.6767(3) -0.0329(2)
C9 C 0.5557(3) 0.7646(3) -0.2063(3)
C10 C 0.5795(3) 0.8925(3) -0.0670(3)
C11 C 0.7648(2) 0.7300(3) 0.0372(2)
C12 C 0.8793(2) 0.7435(3) -0.0139(3)
C13 C 0.9720(3) 0.7529(6) 0.0799(3)
C14 C 0.8742(3) 0.8658(4) -0.0840(4)
C15 C 0.9007(3) 0.6319(4) -0.0922(3)
loop_
_geom_bond_atom_site_label_1
_geom_bond_atom_site_label_2
_geom_bond_site_symmetry_1
_geom_bond_site_symmetry_2
Cl1 C1 1_555 1_555
O1 C11 1_555 1_555
N1 C8 1_555 1_555
N2 N3 1_555 1_555
N3 C10 1_555 1_555
C1 C2 1_555 1_555
C2 C3 1_555 1_555
C3 C4 1_555 1_555
C4 C5 1_555 1_555
C5 C6 1_555 1_555
C6 C1 1_555 1_555
C7 C4 1_555 1_555
C8 C7 1_555 1_555
C9 N1 1_555 1_555
C10 N1 1_555 1_555
C11 C8 1_555 1_555
C12 C11 1_555 1_555
C13 C12 1_555 1_555
C14 C12 1_555 1_555
C15 C12 1_555 1_555
N2 C9 1_555 1_555

#END
