
#######################################################################
#
#                 Cambridge Crystallographic Data Centre
#                                CCDC 
#
#######################################################################
#
# If this CIF has been generated from an entry in the Cambridge 
# Structural Database, then it will include bibliographic, chemical, 
# crystal, experimental, refinement or atomic coordinate data resulting 
# from the CCDC's data processing and validation procedures.
#
#######################################################################

data_ZEXBOW
_chemical_formula_moiety         'C26 H20 N2'
_chemical_name_systematic        2,3-bis(4-methylphenyl)benzo[g]quinoxaline
_symmetry_cell_setting           monoclinic
_symmetry_space_group_name_H-M   'P 21/n'
_symmetry_Int_Tables_number      14
_space_group_name_Hall           '-P 2yn'
loop_
_symmetry_equiv_pos_site_id
_symmetry_equiv_pos_as_xyz
1 x,y,z
2 1/2-x,1/2+y,1/2-z
3 -x,-y,-z
4 1/2+x,1/2-y,1/2+z
_cell_length_a                   6.08140(10)
_cell_length_b                   21.5212(4)
_cell_length_c                   14.8312(3)
_cell_angle_alpha                90
_cell_angle_beta                 91.2496(11)
_cell_angle_gamma                90
_cell_volume                     1940.63
_exptl_crystal_colour            yellow
_exptl_crystal_description       block
_cell_formula_units_Z            4
loop_
_atom_site_label
_atom_site_type_symbol
_atom_site_fract_x
_atom_site_fract_y
_atom_site_fract_z
N1 N 0.7331(2) 0.02999(6) 0.12787(9)
C1 C 0.5746(3) 0.02628(7) 0.18606(11)
C2 C 0.4315(3) 0.07859(8) 0.20406(11)
N2 N 0.4398(2) 0.12958(7) 0.15602(9)
C3 C 0.5980(3) 0.13326(8) 0.09102(11)
C4 C 0.6102(3) 0.18621(8) 0.03848(12)
H1 H 0.5033 0.2169 0.0436
C5 C 0.7797(3) 0.19434(8) -0.02186(11)
C6 C 0.7963(3) 0.24860(9) -0.07635(13)
H2 H 0.6866 0.2787 -0.0744
C7 C 0.9686(3) 0.25701(10) -0.13079(13)
H3 H 0.9765 0.2926 -0.1661
C8 C 1.1356(3) 0.21237(10) -0.13438(13)
H4 H 1.2561 0.2195 -0.1706
C9 C 1.1252(3) 0.15891(9) -0.08612(12)
H5 H 1.2362 0.1294 -0.0908
C10 C 0.9451(3) 0.14766(8) -0.02829(11)
C11 C 0.9257(3) 0.09318(8) 0.02196(11)
H6 H 1.0299 0.0619 0.0160
C12 C 0.7539(3) 0.08485(8) 0.08053(11)
C13 C 0.5403(3) -0.03522(7) 0.22942(10)
C14 C 0.7057(3) -0.06426(9) 0.27877(12)
H7 H 0.8411 -0.0447 0.2868
C15 C 0.6716(3) -0.12205(9) 0.31627(12)
H8 H 0.7840 -0.1404 0.3504
C16 C 0.4750(3) -0.15320(8) 0.30446(11)
C17 C 0.3114(3) -0.12401(9) 0.25490(12)
H9 H 0.1773 -0.1441 0.2457
C18 C 0.3415(3) -0.06556(8) 0.21842(11)
H10 H 0.2271 -0.0466 0.1863
C19 C 0.4416(4) -0.21754(9) 0.34221(15)
H11 H 0.3101 -0.2353 0.3161
H12 H 0.4281 -0.2151 0.4065
H13 H 0.5654 -0.2432 0.3281
C20 C 0.2735(3) 0.08010(8) 0.27948(11)
C21 C 0.3194(3) 0.05472(9) 0.36372(12)
H14 H 0.4479 0.0320 0.3730
C22 C 0.1768(3) 0.06271(9) 0.43408(12)
H15 H 0.2127 0.0459 0.4902
C23 C -0.0174(3) 0.09511(9) 0.42289(13)
C24 C -0.0646(3) 0.11931(9) 0.33862(13)
H16 H -0.1963 0.1405 0.3289
C25 C 0.0785(3) 0.11292(8) 0.26840(12)
H17 H 0.0439 0.1309 0.2128
C26 C -0.1697(3) 0.10576(11) 0.50077(14)
H18 H -0.1592 0.1483 0.5200
H19 H -0.1282 0.0789 0.5499
H20 H -0.3183 0.0969 0.4818
loop_
_geom_bond_atom_site_label_1
_geom_bond_atom_site_label_2
_geom_bond_site_symmetry_1
_geom_bond_site_symmetry_2
N1 C1 1_555 1_555
C1 C2 1_555 1_555
C2 N2 1_555 1_555
N2 C3 1_555 1_555
C3 C4 1_555 1_555
C4 H1 1_555 1_555
C5 C4 1_555 1_555
C6 C5 1_555 1_555
H2 C6 1_555 1_555
C7 C6 1_555 1_555
H3 C7 1_555 1_555
C8 C7 1_555 1_555
H4 C8 1_555 1_555
C9 C8 1_555 1_555
H5 C9 1_555 1_555
C10 C5 1_555 1_555
C11 C10 1_555 1_555
H6 C11 1_555 1_555
C12 N1 1_555 1_555
C13 C1 1_555 1_555
C14 C13 1_555 1_555
H7 C14 1_555 1_555
C15 C14 1_555 1_555
H8 C15 1_555 1_555
C16 C15 1_555 1_555
C17 C16 1_555 1_555
H9 C17 1_555 1_555
C18 C13 1_555 1_555
H10 C18 1_555 1_555
C19 C16 1_555 1_555
H11 C19 1_555 1_555
H12 C19 1_555 1_555
H13 C19 1_555 1_555
C20 C2 1_555 1_555
C21 C20 1_555 1_555
H14 C21 1_555 1_555
C22 C21 1_555 1_555
H15 C22 1_555 1_555
C23 C22 1_555 1_555
C24 C23 1_555 1_555
H16 C24 1_555 1_555
C25 C20 1_555 1_555
H17 C25 1_555 1_555
C26 C23 1_555 1_555
H18 C26 1_555 1_555
H19 C26 1_555 1_555
H20 C26 1_555 1_555
C3 C12 1_555 1_555
C9 C10 1_555 1_555
C11 C12 1_555 1_555
C17 C18 1_555 1_555
C24 C25 1_555 1_555

#END
