
#######################################################################
#
#                 Cambridge Crystallographic Data Centre
#                                CCDC 
#
#######################################################################
#
# If this CIF has been generated from an entry in the Cambridge 
# Structural Database, then it will include bibliographic, chemical, 
# crystal, experimental, refinement or atomic coordinate data resulting 
# from the CCDC's data processing and validation procedures.
#
#######################################################################

data_ZEXBEM
_chemical_formula_moiety         '3(C7 H7 O3 S1 1-),C6 H10 N2 2+,C6 H9 N2 1+'
_chemical_name_systematic        
'2-aminoanilinium benzene-1,2-diaminium tris(4-methylbenzene-1-sulfonate)'
_symmetry_cell_setting           triclinic
_symmetry_space_group_name_H-M   'P -1'
_symmetry_Int_Tables_number      2
_space_group_name_Hall           '-P 1'
loop_
_symmetry_equiv_pos_site_id
_symmetry_equiv_pos_as_xyz
1 x,y,z
2 -x,-y,-z
_cell_length_a                   10.5058(4)
_cell_length_b                   12.8929(4)
_cell_length_c                   14.0425(4)
_cell_angle_alpha                80.187(2)
_cell_angle_beta                 73.218(1)
_cell_angle_gamma                89.188(2)
_cell_volume                     1793.17
_exptl_crystal_colour            colorless
_exptl_crystal_description       block
_cell_formula_units_Z            2
loop_
_atom_site_label
_atom_site_type_symbol
_atom_site_fract_x
_atom_site_fract_y
_atom_site_fract_z
C1 C 0.7325(3) 0.7693(2) 0.05175(19)
C2 C 0.8554(3) 0.8136(2) -0.0052(2)
H1 H 0.926511 0.770800 -0.026143
C3 C 0.8723(4) 0.9218(3) -0.0310(3)
H2 H 0.955466 0.950946 -0.069595
C4 C 0.7699(4) 0.9875(3) -0.0014(3)
C5 C 0.6483(4) 0.9424(3) 0.0555(3)
H3 H 0.577680 0.985428 0.076773
C6 C 0.6285(3) 0.8346(3) 0.0817(2)
H4 H 0.544987 0.805795 0.119751
C7 C 0.7897(5) 1.1056(3) -0.0308(4)
H5 H 0.809013 1.133881 0.022713
H6 H 0.710080 1.135453 -0.042370
H7 H 0.862444 1.122681 -0.091320
O1 O 0.8136(2) 0.59810(16) 0.13209(17)
O2 O 0.57959(19) 0.60896(17) 0.15234(14)
O3 O 0.7300(2) 0.59162(16) -0.00861(14)
S1 S 0.71235(7) 0.63186(6) 0.08397(5)
C8 C 0.5243(3) 0.8441(2) -0.21536(19)
C9 C 0.4702(3) 0.9086(3) -0.2808(2)
H8 H 0.397778 0.885012 -0.297780
C10 C 0.5252(4) 1.0099(3) -0.3215(3)
H9 H 0.488594 1.053475 -0.365877
C11 C 0.6309(4) 1.0465(3) -0.2980(3)
C12 C 0.6838(4) 0.9814(3) -0.2342(3)
H10 H 0.756892 1.005325 -0.218288
C13 C 0.6323(3) 0.8803(3) -0.1919(2)
H11 H 0.670179 0.837317 -0.147991
C14 C 0.6870(5) 1.1583(3) -0.3426(4)
H12 H 0.770246 1.167096 -0.328980
H13 H 0.625384 1.207543 -0.312706
H14 H 0.700713 1.170618 -0.414314
O4 O 0.4293(3) 0.70824(18) -0.05549(16)
O5 O 0.3438(3) 0.7040(2) -0.1939(2)
O6 O 0.5632(2) 0.64617(17) -0.20037(18)
S2 S 0.45907(8) 0.71568(6) -0.16259(6)
C15 C 0.6807(3) 0.7641(2) -0.58539(19)
C16 C 0.7424(3) 0.7992(2) -0.6864(2)
H15 H 0.736544 0.758539 -0.733751
C17 C 0.8127(3) 0.8942(3) -0.7177(3)
H16 H 0.853231 0.917137 -0.786234
C18 C 0.8242(4) 0.9555(3) -0.6501(3)
C19 C 0.7625(4) 0.9197(3) -0.5492(3)
H17 H 0.769364 0.960268 -0.502023
C20 C 0.6906(3) 0.8247(3) -0.5163(2)
H18 H 0.649245 0.802078 -0.447786
C21 C 0.8996(5) 1.0613(3) -0.6843(4)
H19 H 0.993507 1.050309 -0.704886
H20 H 0.878881 1.100075 -0.629430
H21 H 0.874198 1.100383 -0.740054
O7 O 0.4923(2) 0.64765(17) -0.45485(16)
O8 O 0.6954(2) 0.56619(16) -0.52454(15)
O9 O 0.5535(3) 0.61892(18) -0.62836(16)
S3 S 0.59663(7) 0.64019(6) -0.54542(5)
C22 C 1.2542(3) 0.5750(2) -0.81322(19)
C23 C 1.1471(3) 0.6203(2) -0.8383(2)
H22 H 1.148923 0.637179 -0.905753
C24 C 1.0372(3) 0.6410(3) -0.7643(3)
H23 H 0.965305 0.673123 -0.781748
C25 C 1.0328(3) 0.6145(3) -0.6645(3)
H24 H 0.957297 0.626978 -0.614244
C26 C 1.1407(3) 0.5694(2) -0.6391(2)
H25 H 1.137998 0.551588 -0.571492
C27 C 1.2523(2) 0.55048(19) -0.71291(18)
N1 N 1.3660(3) 0.5504(2) -0.89483(19)
N2 N 1.3655(2) 0.5040(2) -0.68291(18)
H26 H 1.355(4) 0.4892(14) -0.909(3)
H27 H 1.4393(18) 0.557(3) -0.880(2)
H28 H 1.377(4) 0.599(2) -0.9477(17)
H29 H 1.342(3) 0.4814(19) -0.6177(8)
H30 H 1.398(3) 0.4519(18) -0.713(2)
H31 H 1.430(2) 0.5497(19) -0.693(2)
C28 C 0.8648(3) 0.3735(2) -0.68323(19)
C29 C 0.8651(3) 0.3320(2) -0.5866(2)
H32 H 0.789832 0.335811 -0.532796
C30 C 0.9761(3) 0.2849(2) -0.5691(2)
H33 H 0.976860 0.256931 -0.503717
C31 C 1.0864(3) 0.2798(2) -0.6499(3)
H34 H 1.162248 0.248455 -0.638725
C32 C 1.0857(3) 0.3202(2) -0.7462(2)
H35 H 1.161153 0.315704 -0.799655
C33 C 0.9741(3) 0.3680(2) -0.76597(19)
N3 N 0.9729(3) 0.4043(2) -0.86411(19)
N4 N 0.7447(3) 0.4232(2) -0.6989(2)
H36 H 1.0508(15) 0.417(2) -0.9065(16)
H37 H 0.921(3) 0.4550(17) -0.875(2)
H38 H 0.714(4) 0.386(3) -0.734(3)
H39 H 0.757(3) 0.4879(12) -0.731(2)
H40 H 0.683(3) 0.423(3) -0.6426(16)
loop_
_geom_bond_atom_site_label_1
_geom_bond_atom_site_label_2
_geom_bond_site_symmetry_1
_geom_bond_site_symmetry_2
C1 C2 1_555 1_555
C2 H1 1_555 1_555
C3 C2 1_555 1_555
H2 C3 1_555 1_555
C4 C3 1_555 1_555
C5 C4 1_555 1_555
H3 C5 1_555 1_555
C6 C1 1_555 1_555
H4 C6 1_555 1_555
C7 C4 1_555 1_555
H5 C7 1_555 1_555
H6 C7 1_555 1_555
H7 C7 1_555 1_555
O1 S1 1_555 1_555
O2 S1 1_555 1_555
O3 S1 1_555 1_555
S1 C1 1_555 1_555
C8 C9 1_555 1_555
C9 H8 1_555 1_555
C10 C9 1_555 1_555
H9 C10 1_555 1_555
C11 C10 1_555 1_555
C12 C11 1_555 1_555
H10 C12 1_555 1_555
C13 C8 1_555 1_555
H11 C13 1_555 1_555
C14 C11 1_555 1_555
H12 C14 1_555 1_555
H13 C14 1_555 1_555
H14 C14 1_555 1_555
O4 S2 1_555 1_555
O5 S2 1_555 1_555
O6 S2 1_555 1_555
S2 C8 1_555 1_555
C15 C16 1_555 1_555
C16 H15 1_555 1_555
C17 C16 1_555 1_555
H16 C17 1_555 1_555
C18 C17 1_555 1_555
C19 C18 1_555 1_555
H17 C19 1_555 1_555
C20 C15 1_555 1_555
H18 C20 1_555 1_555
C21 C18 1_555 1_555
H19 C21 1_555 1_555
H20 C21 1_555 1_555
H21 C21 1_555 1_555
O7 S3 1_555 1_555
O8 S3 1_555 1_555
O9 S3 1_555 1_555
S3 C15 1_555 1_555
C22 C23 1_555 1_555
C23 H22 1_555 1_555
C24 C23 1_555 1_555
H23 C24 1_555 1_555
C25 C24 1_555 1_555
H24 C25 1_555 1_555
C26 C25 1_555 1_555
H25 C26 1_555 1_555
C27 C22 1_555 1_555
N1 C22 1_555 1_555
N2 C27 1_555 1_555
H26 N1 1_555 1_555
H27 N1 1_555 1_555
H28 N1 1_555 1_555
H29 N2 1_555 1_555
H30 N2 1_555 1_555
H31 N2 1_555 1_555
C28 C29 1_555 1_555
C29 H32 1_555 1_555
C30 C29 1_555 1_555
H33 C30 1_555 1_555
C31 C30 1_555 1_555
H34 C31 1_555 1_555
C32 C31 1_555 1_555
H35 C32 1_555 1_555
C33 C28 1_555 1_555
N3 C33 1_555 1_555
N4 C28 1_555 1_555
H36 N3 1_555 1_555
H37 N3 1_555 1_555
H38 N4 1_555 1_555
H39 N4 1_555 1_555
H40 N4 1_555 1_555
C5 C6 1_555 1_555
C12 C13 1_555 1_555
C19 C20 1_555 1_555
C26 C27 1_555 1_555
C32 C33 1_555 1_555

#END
