
#######################################################################
#
#                 Cambridge Crystallographic Data Centre
#                                CCDC 
#
#######################################################################
#
# If this CIF has been generated from an entry in the Cambridge 
# Structural Database, then it will include bibliographic, chemical, 
# crystal, experimental, refinement or atomic coordinate data resulting 
# from the CCDC's data processing and validation procedures.
#
#######################################################################

data_ZEXKEV
_chemical_formula_moiety         'C45 H32 N4 S4'
_chemical_name_systematic        
N,N',N'',N'''-(methanetetrayltetrakis(4,1-phenylene))tetrakis(1-(thiophen-2-yl)methanimine)
_symmetry_cell_setting           monoclinic
_symmetry_space_group_name_H-M   'C 2/c'
_symmetry_Int_Tables_number      15
_space_group_name_Hall           '-C 2yn'
loop_
_symmetry_equiv_pos_site_id
_symmetry_equiv_pos_as_xyz
1 x,y,z
2 -x,y,1/2-z
3 1/2+x,1/2+y,z
4 1/2-x,1/2+y,1/2-z
5 -x,-y,-z
6 x,-y,1/2+z
7 1/2-x,1/2-y,-z
8 1/2+x,1/2-y,1/2+z
_cell_length_a                   22.728(6)
_cell_length_b                   7.4934(18)
_cell_length_c                   21.408(6)
_cell_angle_alpha                90
_cell_angle_beta                 90.113(11)
_cell_angle_gamma                90
_cell_volume                     3645.99
_exptl_crystal_colour            yellow
_exptl_crystal_description       block
_cell_formula_units_Z            4
loop_
_atom_site_label
_atom_site_type_symbol
_atom_site_fract_x
_atom_site_fract_y
_atom_site_fract_z
C1 C 0.5000 1.0678(10) 0.7500
C2 C 0.4794(2) 0.9442(7) 0.8014(2)
C3 C 0.5175(3) 0.8182(7) 0.8244(3)
H1 H 0.5564 0.8141 0.8085
C4 C 0.5017(3) 0.7001(7) 0.8688(3)
H2 H 0.5296 0.6169 0.8844
C5 C 0.4457(3) 0.6998(7) 0.8915(2)
C6 C 0.4074(3) 0.8247(7) 0.8700(3)
H3 H 0.3685 0.8284 0.8862
C7 C 0.4239(3) 0.9454(7) 0.8253(3)
H4 H 0.3963 1.0311 0.8107
C8 C 0.4468(3) 0.4246(8) 0.9379(3)
H5 H 0.4801 0.3997 0.9125
C9 C 0.4249(3) 0.2866(8) 0.9767(3)
C10 C 0.4410(3) 0.1181(8) 0.9763(3)
H6 H 0.4725 0.0736 0.9518
C11 C 0.4072(3) 0.0114(9) 1.0157(3)
H7 H 0.4127 -0.1134 1.0206
C12 C 0.3675(3) 0.1021(9) 1.0447(3)
H8 H 0.3410 0.0510 1.0738
C13 C 0.5487(2) 1.1914(7) 0.7721(2)
C14 C 0.5695(3) 1.3165(7) 0.7309(3)
H9 H 0.5533 1.3213 0.6900
C15 C 0.6126(3) 1.4341(8) 0.7469(3)
H10 H 0.6270 1.5165 0.7168
C16 C 0.6352(2) 1.4335(7) 0.8059(3)
C17 C 0.6146(3) 1.3099(7) 0.8470(3)
H11 H 0.6306 1.3056 0.8879
C18 C 0.5715(2) 1.1922(7) 0.8307(2)
H12 H 0.5572 1.1098 0.8607
C19 C 0.6808(3) 1.7038(8) 0.8023(3)
H13 H 0.6549 1.7319 0.7689
C20 C 0.7207(3) 1.8341(8) 0.8234(3)
C21 C 0.7212(3) 2.0084(8) 0.8088(3)
H14 H 0.6970 2.0589 0.7772
C22 C 0.7600(3) 2.1067(9) 0.8441(3)
H15 H 0.7649 2.2322 0.8404
C23 C 0.7896(3) 2.0070(9) 0.8836(4)
H16 H 0.8184 2.0528 0.9115
N1 N 0.4247(2) 0.5780(6) 0.9352(2)
N2 N 0.6784(2) 1.5507(6) 0.8266(2)
S1 S 0.36743(8) 0.3199(2) 1.02567(8)
S2 S 0.77129(8) 1.7906(2) 0.87980(9)
C2A C 0.5206(2) 0.9442(7) 0.6986(2)
C3A C 0.4825(3) 0.8182(7) 0.6756(3)
H1A H 0.4436 0.8141 0.6915
C4A C 0.4983(3) 0.7001(7) 0.6312(3)
H2A H 0.4704 0.6169 0.6156
C5A C 0.5543(3) 0.6998(7) 0.6085(2)
C6A C 0.5926(3) 0.8247(7) 0.6300(3)
H3A H 0.6315 0.8284 0.6138
C7A C 0.5761(3) 0.9454(7) 0.6747(3)
H4A H 0.6037 1.0311 0.6893
C8A C 0.5532(3) 0.4246(8) 0.5621(3)
H5A H 0.5199 0.3997 0.5875
C9A C 0.5751(3) 0.2866(8) 0.5233(3)
C10A C 0.5590(3) 0.1181(8) 0.5237(3)
H6A H 0.5275 0.0736 0.5482
C11A C 0.5928(3) 0.0114(9) 0.4843(3)
H7A H 0.5873 -0.1134 0.4794
C12A C 0.6325(3) 0.1021(9) 0.4553(3)
H8A H 0.6590 0.0510 0.4262
C13A C 0.4513(2) 1.1914(7) 0.7279(2)
C14A C 0.4305(3) 1.3165(7) 0.7691(3)
H9A H 0.4467 1.3213 0.8100
C15A C 0.3874(3) 1.4341(8) 0.7531(3)
H10A H 0.3730 1.5165 0.7832
C16A C 0.3648(2) 1.4335(7) 0.6941(3)
C17A C 0.3854(3) 1.3099(7) 0.6530(3)
H11A H 0.3694 1.3056 0.6121
C18A C 0.4285(2) 1.1922(7) 0.6693(2)
H12A H 0.4428 1.1098 0.6393
C19A C 0.3192(3) 1.7038(8) 0.6977(3)
H13A H 0.3451 1.7319 0.7311
C20A C 0.2793(3) 1.8341(8) 0.6766(3)
C21A C 0.2788(3) 2.0084(8) 0.6912(3)
H14A H 0.3030 2.0589 0.7228
C22A C 0.2400(3) 2.1067(9) 0.6559(3)
H15A H 0.2351 2.2322 0.6596
C23A C 0.2104(3) 2.0070(9) 0.6164(4)
H16A H 0.1816 2.0528 0.5885
N1A N 0.5753(2) 0.5780(6) 0.5648(2)
N2A N 0.3216(2) 1.5507(6) 0.6734(2)
S1A S 0.63257(8) 0.3199(2) 0.47433(8)
S2A S 0.22871(8) 1.7906(2) 0.62020(9)
loop_
_geom_bond_atom_site_label_1
_geom_bond_atom_site_label_2
_geom_bond_site_symmetry_1
_geom_bond_site_symmetry_2
C1 C2 1_555 1_555
C2 C3 1_555 1_555
C3 H1 1_555 1_555
C4 C3 1_555 1_555
H2 C4 1_555 1_555
C5 C4 1_555 1_555
C6 C5 1_555 1_555
H3 C6 1_555 1_555
C7 C2 1_555 1_555
H4 C7 1_555 1_555
C8 H5 1_555 1_555
C9 C8 1_555 1_555
C10 C9 1_555 1_555
H6 C10 1_555 1_555
C11 C10 1_555 1_555
H7 C11 1_555 1_555
C12 C11 1_555 1_555
H8 C12 1_555 1_555
C13 C1 1_555 1_555
C14 C13 1_555 1_555
H9 C14 1_555 1_555
C15 C14 1_555 1_555
H10 C15 1_555 1_555
C16 C15 1_555 1_555
C17 C16 1_555 1_555
H11 C17 1_555 1_555
C18 C13 1_555 1_555
H12 C18 1_555 1_555
C19 H13 1_555 1_555
C20 C19 1_555 1_555
C21 C20 1_555 1_555
H14 C21 1_555 1_555
C22 C21 1_555 1_555
H15 C22 1_555 1_555
C23 C22 1_555 1_555
H16 C23 1_555 1_555
N1 C5 1_555 1_555
N2 C16 1_555 1_555
S1 C9 1_555 1_555
S2 C20 1_555 1_555
C2A C1 1_555 1_555
C3A C2A 1_555 1_555
H1A C3A 1_555 1_555
C4A C3A 1_555 1_555
H2A C4A 1_555 1_555
C5A C4A 1_555 1_555
C6A C5A 1_555 1_555
H3A C6A 1_555 1_555
C7A C2A 1_555 1_555
H4A C7A 1_555 1_555
C8A H5A 1_555 1_555
C9A C8A 1_555 1_555
C10A C9A 1_555 1_555
H6A C10A 1_555 1_555
C11A C10A 1_555 1_555
H7A C11A 1_555 1_555
C12A C11A 1_555 1_555
H8A C12A 1_555 1_555
C13A C1 1_555 1_555
C14A C13A 1_555 1_555
H9A C14A 1_555 1_555
C15A C14A 1_555 1_555
H10A C15A 1_555 1_555
C16A C15A 1_555 1_555
C17A C16A 1_555 1_555
H11A C17A 1_555 1_555
C18A C13A 1_555 1_555
H12A C18A 1_555 1_555
C19A H13A 1_555 1_555
C20A C19A 1_555 1_555
C21A C20A 1_555 1_555
H14A C21A 1_555 1_555
C22A C21A 1_555 1_555
H15A C22A 1_555 1_555
C23A C22A 1_555 1_555
H16A C23A 1_555 1_555
N1A C5A 1_555 1_555
N2A C16A 1_555 1_555
S1A C9A 1_555 1_555
S2A C20A 1_555 1_555
C6 C7 1_555 1_555
C8 N1 1_555 1_555
C12 S1 1_555 1_555
C17 C18 1_555 1_555
C19 N2 1_555 1_555
C23 S2 1_555 1_555
C6A C7A 1_555 1_555
C8A N1A 1_555 1_555
C12A S1A 1_555 1_555
C17A C18A 1_555 1_555
C19A N2A 1_555 1_555
C23A S2A 1_555 1_555

#END
