
#######################################################################
#
#                 Cambridge Crystallographic Data Centre
#                                CCDC 
#
#######################################################################
#
# If this CIF has been generated from an entry in the Cambridge 
# Structural Database, then it will include bibliographic, chemical, 
# crystal, experimental, refinement or atomic coordinate data resulting 
# from the CCDC's data processing and validation procedures.
#
#######################################################################

data_ZEXQOK
_chemical_formula_moiety         'C21 H24 Cl1 N1 O2'
_chemical_name_systematic        
"Methyl 1'-(4-chlorophenyl)-1',2',3',7a'-tetrahydrospiro[cyclohexane-1,4'-cyclopenta[c]pyridine]-3'-carboxylate"
_symmetry_cell_setting           orthorhombic
_symmetry_space_group_name_H-M   'P 21 21 21'
_symmetry_Int_Tables_number      19
_space_group_name_Hall           'P 2ac 2ab'
loop_
_symmetry_equiv_pos_site_id
_symmetry_equiv_pos_as_xyz
1 x,y,z
2 1/2-x,-y,1/2+z
3 -x,1/2+y,1/2-z
4 1/2+x,1/2-y,-z
_cell_length_a                   8.1759(19)
_cell_length_b                   9.389(2)
_cell_length_c                   24.790(6)
_cell_angle_alpha                90
_cell_angle_beta                 90
_cell_angle_gamma                90
_cell_volume                     1902.97
_exptl_crystal_description       block
_cell_formula_units_Z            4
loop_
_atom_site_label
_atom_site_type_symbol
_atom_site_fract_x
_atom_site_fract_y
_atom_site_fract_z
C1 C 0.9992(4) 0.5117(4) 0.13800(11)
C2 C 0.9493(5) 0.6283(4) 0.16585(15)
H1 H 0.9839 0.7187 0.1557
C3 C 0.8469(4) 0.6107(3) 0.20941(13)
H2 H 0.8111 0.6909 0.2280
C4 C 0.7956(3) 0.4787(3) 0.22642(9)
C5 C 0.8534(3) 0.3631(3) 0.19830(12)
H3 H 0.8242 0.2721 0.2096
C6 C 0.9532(4) 0.3782(4) 0.15387(13)
H4 H 0.9888 0.2985 0.1349
C7 C 0.6852(3) 0.4588(3) 0.27438(9)
H5 H 0.6393 0.3626 0.2718
C8 C 0.5390(3) 0.5635(3) 0.27693(9)
H6 H 0.5768 0.6622 0.2738
C9 C 0.4521(3) 0.5407(3) 0.32929(10)
C10 C 0.5466(3) 0.5498(3) 0.38161(9)
C11 C 0.6910(3) 0.4407(3) 0.37296(10)
H7 H 0.6430 0.3452 0.3709
C12 C 0.8154(4) 0.4397(4) 0.41831(12)
C13 C 0.8785(6) 0.3547(5) 0.50516(13)
H8 H 0.9679 0.2940 0.4950
H9 H 0.8231 0.3146 0.5357
H10 H 0.9196 0.4474 0.5143
C14 C 0.4407(3) 0.5089(3) 0.43003(10)
H11 H 0.3872 0.4188 0.4225
H12 H 0.5108 0.4953 0.4612
C15 C 0.3105(3) 0.6196(4) 0.44388(12)
H13 H 0.2308 0.6240 0.4149
H14 H 0.2538 0.5908 0.4765
C16 C 0.3836(4) 0.7648(4) 0.45215(12)
H15 H 0.4527 0.7640 0.4840
H16 H 0.2970 0.8338 0.4579
C17 C 0.4833(3) 0.8073(3) 0.40366(12)
H17 H 0.5329 0.8996 0.4102
H18 H 0.4117 0.8163 0.3727
C18 C 0.6164(3) 0.7000(3) 0.39112(10)
H19 H 0.6933 0.6969 0.4209
H20 H 0.6755 0.7304 0.3592
C19 C 0.4113(3) 0.5322(3) 0.23567(11)
H21 H 0.4243 0.5402 0.1985
C20 C 0.2772(4) 0.4915(3) 0.26055(12)
H22 H 0.1809 0.4646 0.2434
C21 C 0.3010(3) 0.4947(3) 0.31871(11)
H23 H 0.2234 0.4689 0.3444
Cl1 Cl 1.12407(14) 0.53138(14) 0.08213(4)
N1 N 0.7820(2) 0.4638(2) 0.32378(8)
H24 H 0.8857 0.4794 0.3236
O1 O 0.7656(3) 0.3668(2) 0.46062(8)
O2 O 0.9437(3) 0.4974(4) 0.41620(9)
loop_
_geom_bond_atom_site_label_1
_geom_bond_atom_site_label_2
_geom_bond_site_symmetry_1
_geom_bond_site_symmetry_2
C1 C2 1_555 1_555
C2 H1 1_555 1_555
C3 C2 1_555 1_555
H2 C3 1_555 1_555
C4 C3 1_555 1_555
C5 C4 1_555 1_555
H3 C5 1_555 1_555
C6 C1 1_555 1_555
H4 C6 1_555 1_555
C7 C4 1_555 1_555
H5 C7 1_555 1_555
C8 C7 1_555 1_555
H6 C8 1_555 1_555
C9 C8 1_555 1_555
C10 C9 1_555 1_555
C11 C10 1_555 1_555
H7 C11 1_555 1_555
C12 C11 1_555 1_555
C13 H8 1_555 1_555
H9 C13 1_555 1_555
H10 C13 1_555 1_555
C14 C10 1_555 1_555
H11 C14 1_555 1_555
H12 C14 1_555 1_555
C15 C14 1_555 1_555
H13 C15 1_555 1_555
H14 C15 1_555 1_555
C16 C15 1_555 1_555
H15 C16 1_555 1_555
H16 C16 1_555 1_555
C17 C16 1_555 1_555
H17 C17 1_555 1_555
H18 C17 1_555 1_555
C18 C10 1_555 1_555
H19 C18 1_555 1_555
H20 C18 1_555 1_555
C19 C8 1_555 1_555
H21 C19 1_555 1_555
C20 C19 1_555 1_555
H22 C20 1_555 1_555
C21 C9 1_555 1_555
H23 C21 1_555 1_555
Cl1 C1 1_555 1_555
N1 C7 1_555 1_555
H24 N1 1_555 1_555
O1 C12 1_555 1_555
O2 C12 1_555 1_555
C5 C6 1_555 1_555
C11 N1 1_555 1_555
C13 O1 1_555 1_555
C17 C18 1_555 1_555
C20 C21 1_555 1_555

#END
