
#######################################################################
#
#                 Cambridge Crystallographic Data Centre
#                                CCDC 
#
#######################################################################
#
# If this CIF has been generated from an entry in the Cambridge 
# Structural Database, then it will include bibliographic, chemical, 
# crystal, experimental, refinement or atomic coordinate data resulting 
# from the CCDC's data processing and validation procedures.
#
#######################################################################

data_ZEXTED
_chemical_formula_moiety         'C23 H22 O4'
_chemical_name_systematic        
2-Hydroxy-3,3-bis(4-methoxyphenyl)-1-phenylpropan-1-one
_symmetry_cell_setting           triclinic
_symmetry_space_group_name_H-M   'P -1'
_symmetry_Int_Tables_number      2
_space_group_name_Hall           '-P 1'
loop_
_symmetry_equiv_pos_site_id
_symmetry_equiv_pos_as_xyz
1 x,y,z
2 -x,-y,-z
_cell_length_a                   9.899(11)
_cell_length_b                   9.97(2)
_cell_length_c                   11.208(13)
_cell_angle_alpha                105.155(13)
_cell_angle_beta                 110.795(10)
_cell_angle_gamma                96.252(13)
_cell_volume                     972.87
_exptl_crystal_colour            yellow
_exptl_crystal_description       block
_cell_formula_units_Z            2
loop_
_atom_site_label
_atom_site_type_symbol
_atom_site_fract_x
_atom_site_fract_y
_atom_site_fract_z
C1 C 0.3787(5) 0.8410(4) 0.5662(4)
H1 H 0.3476 0.7554 0.4958
C2 C 0.3492(6) 0.9644(5) 0.5387(5)
H2 H 0.2976 0.9608 0.4502
C3 C 0.3945(6) 1.0904(5) 0.6391(6)
H3 H 0.3743 1.1731 0.6198
C4 C 0.4699(6) 1.0956(5) 0.7686(6)
H4 H 0.5020 1.1824 0.8377
C5 C 0.4995(5) 0.9725(5) 0.7989(5)
H5 H 0.5502 0.9771 0.8879
C6 C 0.4535(4) 0.8431(4) 0.6967(4)
C7 C 0.4943(4) 0.7141(4) 0.7303(3)
C8 C 0.4202(4) 0.5669(3) 0.6263(3)
H6 H 0.4187 0.5716 0.5396
C9 C 0.2572(4) 0.5206(3) 0.6086(3)
H7 H 0.2037 0.5882 0.5730
C10 C 0.2468(4) 0.5339(3) 0.7430(3)
C11 C 0.3064(4) 0.4483(4) 0.8193(3)
H8 H 0.3515 0.3792 0.7859
C12 C 0.3002(4) 0.4633(4) 0.9425(4)
H9 H 0.3427 0.4060 0.9921
C13 C 0.2311(4) 0.5635(4) 0.9931(3)
C14 C 0.1720(5) 0.6495(5) 0.9208(4)
H10 H 0.1263 0.7179 0.9543
C15 C 0.1808(4) 0.6343(4) 0.7967(4)
H11 H 0.1408 0.6938 0.7486
C16 C 0.1534(7) 0.6635(7) 1.1715(5)
H12 H 0.2022 0.7595 1.1892
H13 H 0.1548 0.6512 1.2541
H14 H 0.0526 0.6450 1.1083
C17 C 0.1836(4) 0.3733(4) 0.5018(3)
C18 C 0.2126(5) 0.3323(4) 0.3863(4)
H15 H 0.2794 0.3959 0.3750
C19 C 0.1466(5) 0.2019(5) 0.2884(4)
H16 H 0.1705 0.1777 0.2136
C20 C 0.0449(5) 0.1067(4) 0.3009(5)
C21 C 0.0108(5) 0.1446(4) 0.4114(4)
H17 H -0.0589 0.0816 0.4201
C22 C 0.0790(4) 0.2761(4) 0.5105(4)
H18 H 0.0541 0.2996 0.5847
C23 C -0.1250(12) -0.0949(10) 0.1615(11)
H19 H -0.1169 -0.1678 0.2035
H20 H -0.1601 -0.1380 0.0656
H21 H -0.1935 -0.0415 0.1820
O1 O 0.5882(3) 0.7241(3) 0.8391(3)
O2 O 0.5035(3) 0.4659(2) 0.6618(2)
H22 H 0.5604 0.4983 0.7415
O3 O 0.2285(4) 0.5666(4) 1.1164(3)
O4 O -0.0135(5) -0.0217(4) 0.2006(5)
loop_
_geom_bond_atom_site_label_1
_geom_bond_atom_site_label_2
_geom_bond_site_symmetry_1
_geom_bond_site_symmetry_2
C1 H1 1_555 1_555
C2 C1 1_555 1_555
H2 C2 1_555 1_555
C3 C2 1_555 1_555
H3 C3 1_555 1_555
C4 C3 1_555 1_555
H4 C4 1_555 1_555
C5 C4 1_555 1_555
H5 C5 1_555 1_555
C6 C1 1_555 1_555
C7 C6 1_555 1_555
C8 C7 1_555 1_555
H6 C8 1_555 1_555
C9 C8 1_555 1_555
H7 C9 1_555 1_555
C10 C9 1_555 1_555
C11 C10 1_555 1_555
H8 C11 1_555 1_555
C12 C11 1_555 1_555
H9 C12 1_555 1_555
C13 C12 1_555 1_555
C14 C13 1_555 1_555
H10 C14 1_555 1_555
C15 C10 1_555 1_555
H11 C15 1_555 1_555
C16 H12 1_555 1_555
H13 C16 1_555 1_555
H14 C16 1_555 1_555
C17 C9 1_555 1_555
C18 C17 1_555 1_555
H15 C18 1_555 1_555
C19 C18 1_555 1_555
H16 C19 1_555 1_555
C20 C19 1_555 1_555
C21 C20 1_555 1_555
H17 C21 1_555 1_555
C22 C17 1_555 1_555
H18 C22 1_555 1_555
C23 H19 1_555 1_555
H20 C23 1_555 1_555
H21 C23 1_555 1_555
O1 C7 1_555 1_555
O2 C8 1_555 1_555
H22 O2 1_555 1_555
O3 C13 1_555 1_555
O4 C20 1_555 1_555
C5 C6 1_555 1_555
C14 C15 1_555 1_555
C16 O3 1_555 1_555
C21 C22 1_555 1_555
C23 O4 1_555 1_555

#END
