
#######################################################################
#
#                 Cambridge Crystallographic Data Centre
#                                CCDC 
#
#######################################################################
#
# If this CIF has been generated from an entry in the Cambridge 
# Structural Database, then it will include bibliographic, chemical, 
# crystal, experimental, refinement or atomic coordinate data resulting 
# from the CCDC's data processing and validation procedures.
#
#######################################################################

data_ZEYGAO
_chemical_compound_source        
'isolated from the twigs and leaves of Tabernaemontana corymbosa'
_chemical_name_common            'tabernaecorymbosine A methanol solvate'
_chemical_formula_moiety         'C44 H54 N4 O6,C1 H4 O1'
_chemical_name_systematic        
'methyl 14-[16-(hydroxymethyl)-17-methoxy-17-oxovobasan-3-yl]-13-methoxyibogamine-18-carboxylate methanol solvate'
_chemical_properties_biological  
'antiproliferative activity against multidrug-resistant KB subline KB-VIN'
_symmetry_cell_setting           orthorhombic
_symmetry_space_group_name_H-M   'P 21 21 21'
_symmetry_Int_Tables_number      19
_space_group_name_Hall           'P 2ac 2ab'
loop_
_symmetry_equiv_pos_site_id
_symmetry_equiv_pos_as_xyz
1 x,y,z
2 1/2+x,1/2-y,-z
3 -x,1/2+y,1/2-z
4 1/2-x,-y,1/2+z
_cell_length_a                   11.9273(2)
_cell_length_b                   15.9773(3)
_cell_length_c                   20.8434(4)
_cell_angle_alpha                90
_cell_angle_beta                 90
_cell_angle_gamma                90
_cell_volume                     3972.04
_exptl_crystal_colour            colorless
_exptl_crystal_description       prism
_cell_formula_units_Z            4
_chemical_properties_physical    Oxygen-sensitive,Light-sensitive
_exptl_crystal_preparation       'Magnetic properties'
loop_
_atom_site_label
_atom_site_type_symbol
_atom_site_fract_x
_atom_site_fract_y
_atom_site_fract_z
O1 O 1.05393(12) 0.76726(8) 0.86486(6)
O2 O 1.06719(11) 0.73820(8) 0.96983(6)
O3 O 0.91469(12) 0.61430(9) 1.12649(6)
O4 O 0.77650(14) 0.38962(9) 0.81666(7)
O5 O 0.84338(11) 0.26887(9) 0.85524(7)
O6 O 1.29847(12) 0.71308(9) 0.92533(7)
H1 H 1.366(3) 0.6851(18) 0.9332(14)
N1 N 1.15908(14) 0.53159(10) 0.80984(8)
N2 N 0.77719(13) 0.42982(10) 0.95864(7)
H2 H 0.8083 0.4495 0.9234
N3 N 0.79601(13) 0.68834(10) 0.95722(7)
H3 H 0.7735 0.7017 0.9961
N4 N 0.55172(13) 0.20828(10) 0.95320(8)
C1 C 1.12775(19) 0.49559(14) 0.74812(10)
H4 H 1.1899 0.4617 0.7317
H5 H 1.1111 0.5406 0.7177
H6 H 1.0613 0.4602 0.7535
C2 C 1.07971(16) 0.59639(11) 0.83153(9)
H7 H 1.0793 0.6412 0.7981
C3 C 0.95709(15) 0.56422(12) 0.83802(9)
H8 H 0.9246 0.5583 0.7945
H9 H 0.9586 0.5079 0.8579
C4 C 0.88195(15) 0.61953(11) 0.87705(9)
C5 C 0.87030(15) 0.62484(11) 0.94255(9)
C6 C 0.93168(15) 0.58306(11) 0.99714(9)
H10 H 0.9625 0.6291 1.0244
C7 C 0.85434(15) 0.53191(11) 1.04014(9)
C8 C 0.79018(16) 0.46341(12) 1.01926(9)
C9 C 0.70677(16) 0.35952(11) 0.96178(9)
C10 C 0.67092(16) 0.31761(11) 0.89983(9)
C11 C 0.64321(16) 0.22298(11) 0.90780(9)
H11 H 0.7117 0.1926 0.9227
C12 C 0.60593(16) 0.18742(11) 0.84245(9)
H12 H 0.6599 0.2072 0.8090
C13 C 0.60443(18) 0.09157(12) 0.84138(10)
H13 H 0.6796 0.0704 0.8533
H14 H 0.5503 0.0711 0.8738
C14 C 0.57227(19) 0.05691(12) 0.77567(10)
H15 H 0.4973 0.0768 0.7641
H16 H 0.5723 -0.0044 0.7772
H17 H 0.6266 0.0760 0.7436
C15 C 1.0150(2) 0.85031(12) 0.88133(11)
H18 H 0.9475 0.8460 0.9079
H19 H 0.9974 0.8813 0.8420
H20 H 1.0736 0.8799 0.9052
C16 C 1.07586(15) 0.71685(11) 0.91457(9)
C17 C 1.13002(15) 0.63510(11) 0.89274(9)
C18 C 1.17914(17) 0.46594(12) 0.85763(10)
H21 H 1.2391 0.4284 0.8418
H22 H 1.1101 0.4321 0.8625
C19 C 1.21279(16) 0.49987(11) 0.92278(10)
C20 C 1.13901(15) 0.57038(11) 0.94784(9)
H23 H 1.1804 0.5979 0.9839
C21 C 1.03237(16) 0.52870(11) 0.97702(9)
H24 H 1.0047 0.4874 0.9454
H25 H 1.0565 0.4968 1.0153
C22 C 0.76284(15) 0.72740(12) 0.90170(9)
C23 C 0.81475(15) 0.68537(12) 0.85017(9)
C24 C 0.79743(16) 0.71396(13) 0.78743(9)
H26 H 0.8314 0.6862 0.7521
C25 C 0.73027(18) 0.78300(14) 0.77781(10)
H27 H 0.7191 0.8036 0.7355
C26 C 0.67797(17) 0.82345(13) 0.82975(11)
H28 H 0.6317 0.8707 0.8218
C27 C 0.69235(16) 0.79603(12) 0.89211(10)
H29 H 0.6558 0.8228 0.9270
C28 C 0.67641(16) 0.34704(11) 1.02466(9)
C29 C 0.72728(16) 0.41338(11) 1.06132(9)
C30 C 0.72436(17) 0.43308(12) 1.12662(9)
H30 H 0.6816 0.4000 1.1555
C31 C 0.78431(17) 0.50110(13) 1.14858(9)
H31 H 0.7817 0.5157 1.1927
C32 C 0.84926(16) 0.54891(12) 1.10591(9)
C33 C 0.88502(19) 0.65252(13) 1.18550(10)
H32 H 0.8039 0.6622 1.1865
H33 H 0.9244 0.7061 1.1897
H34 H 0.9062 0.6157 1.2211
C34 C 0.60230(17) 0.28349(12) 1.05648(9)
H35 H 0.5285 0.3098 1.0645
H36 H 0.6352 0.2697 1.0988
C35 C 0.58259(18) 0.20146(12) 1.02019(9)
H37 H 0.6519 0.1676 1.0230
H38 H 0.5227 0.1701 1.0426
C36 C 0.45338(16) 0.26055(13) 0.94068(10)
H39 H 0.4491 0.3064 0.9725
H40 H 0.3841 0.2266 0.9439
C37 C 0.46506(16) 0.29645(12) 0.87331(10)
H41 H 0.3937 0.3249 0.8607
C38 C 0.56152(16) 0.36017(11) 0.87305(10)
H42 H 0.5415 0.4089 0.9000
H43 H 0.5748 0.3803 0.8288
C39 C 0.48905(16) 0.22443(12) 0.82701(9)
H44 H 0.4875 0.2451 0.7822
H45 H 0.4309 0.1806 0.8316
C40 C 0.76739(17) 0.33064(12) 0.85207(9)
C41 C 0.93421(18) 0.27534(16) 0.80917(10)
H46 H 0.9031 0.2837 0.7661
H47 H 0.9786 0.2237 0.8099
H48 H 0.9822 0.3229 0.8204
C42 C 1.29770(17) 0.46661(12) 0.95499(10)
H49 H 1.3381 0.4238 0.9334
C43 C 1.33819(18) 0.48790(13) 1.02113(11)
H50 H 1.2922 0.5332 1.0388
H51 H 1.4166 0.5060 1.0190
H52 H 1.3322 0.4384 1.0487
C44 C 1.25091(16) 0.66535(12) 0.87494(9)
H53 H 1.2990 0.6162 0.8661
H54 H 1.2477 0.6998 0.8355
O7 O 0.49543(14) 0.63520(11) 0.94718(8)
H55 H 0.535(3) 0.669(2) 0.9656(16)
C45 C 0.5497(2) 0.59835(16) 0.89424(14)
H56 H 0.5666 0.6415 0.8622
H57 H 0.5008 0.5559 0.8752
H58 H 0.6197 0.5721 0.9085
loop_
_geom_bond_atom_site_label_1
_geom_bond_atom_site_label_2
_geom_bond_site_symmetry_1
_geom_bond_site_symmetry_2
O1 C15 1_555 1_555
O2 C16 1_555 1_555
O3 C32 1_555 1_555
O4 C40 1_555 1_555
O5 C40 1_555 1_555
O6 H1 1_555 1_555
N1 C1 1_555 1_555
N2 H2 1_555 1_555
N3 H3 1_555 1_555
N4 C11 1_555 1_555
C1 H4 1_555 1_555
H5 C1 1_555 1_555
H6 C1 1_555 1_555
C2 N1 1_555 1_555
H7 C2 1_555 1_555
C3 C2 1_555 1_555
H8 C3 1_555 1_555
H9 C3 1_555 1_555
C4 C3 1_555 1_555
C5 N3 1_555 1_555
C6 C5 1_555 1_555
H10 C6 1_555 1_555
C7 C6 1_555 1_555
C8 N2 1_555 1_555
C9 N2 1_555 1_555
C10 C9 1_555 1_555
C11 C10 1_555 1_555
H11 C11 1_555 1_555
C12 C11 1_555 1_555
H12 C12 1_555 1_555
C13 C12 1_555 1_555
H13 C13 1_555 1_555
H14 C13 1_555 1_555
C14 C13 1_555 1_555
H15 C14 1_555 1_555
H16 C14 1_555 1_555
H17 C14 1_555 1_555
C15 H18 1_555 1_555
H19 C15 1_555 1_555
H20 C15 1_555 1_555
C16 O1 1_555 1_555
C17 C2 1_555 1_555
C18 N1 1_555 1_555
H21 C18 1_555 1_555
H22 C18 1_555 1_555
C19 C18 1_555 1_555
C20 C17 1_555 1_555
H23 C20 1_555 1_555
C21 C6 1_555 1_555
H24 C21 1_555 1_555
H25 C21 1_555 1_555
C22 N3 1_555 1_555
C23 C4 1_555 1_555
C24 C23 1_555 1_555
H26 C24 1_555 1_555
C25 C24 1_555 1_555
H27 C25 1_555 1_555
C26 C25 1_555 1_555
H28 C26 1_555 1_555
C27 C22 1_555 1_555
H29 C27 1_555 1_555
C28 C9 1_555 1_555
C29 C8 1_555 1_555
C30 C29 1_555 1_555
H30 C30 1_555 1_555
C31 C30 1_555 1_555
H31 C31 1_555 1_555
C32 C7 1_555 1_555
C33 O3 1_555 1_555
H32 C33 1_555 1_555
H33 C33 1_555 1_555
H34 C33 1_555 1_555
C34 C28 1_555 1_555
H35 C34 1_555 1_555
H36 C34 1_555 1_555
C35 N4 1_555 1_555
H37 C35 1_555 1_555
H38 C35 1_555 1_555
C36 N4 1_555 1_555
H39 C36 1_555 1_555
H40 C36 1_555 1_555
C37 C36 1_555 1_555
H41 C37 1_555 1_555
C38 C10 1_555 1_555
H42 C38 1_555 1_555
H43 C38 1_555 1_555
C39 C12 1_555 1_555
H44 C39 1_555 1_555
H45 C39 1_555 1_555
C40 C10 1_555 1_555
C41 O5 1_555 1_555
H46 C41 1_555 1_555
H47 C41 1_555 1_555
H48 C41 1_555 1_555
C42 C19 1_555 1_555
H49 C42 1_555 1_555
C43 C42 1_555 1_555
H50 C43 1_555 1_555
H51 C43 1_555 1_555
H52 C43 1_555 1_555
C44 O6 1_555 1_555
H53 C44 1_555 1_555
H54 C44 1_555 1_555
O7 H55 1_555 1_555
C45 O7 1_555 1_555
H56 C45 1_555 1_555
H57 C45 1_555 1_555
H58 C45 1_555 1_555
C4 C5 1_555 1_555
C7 C8 1_555 1_555
C16 C17 1_555 1_555
C17 C44 1_555 1_555
C19 C20 1_555 1_555
C20 C21 1_555 1_555
C22 C23 1_555 1_555
C26 C27 1_555 1_555
C28 C29 1_555 1_555
C31 C32 1_555 1_555
C34 C35 1_555 1_555
C37 C38 1_555 1_555
C37 C39 1_555 1_555

#END
