
#######################################################################
#
#                 Cambridge Crystallographic Data Centre
#                                CCDC 
#
#######################################################################
#
# If this CIF has been generated from an entry in the Cambridge 
# Structural Database, then it will include bibliographic, chemical, 
# crystal, experimental, refinement or atomic coordinate data resulting 
# from the CCDC's data processing and validation procedures.
#
#######################################################################

data_ZEYLOC
_chemical_formula_moiety         'C29 H45 B1 N4 Si1'
_chemical_name_systematic        
1-t-Butyl-2-(t-butyl(trimethylsilyl)amino)-3,4-bis((2,6-dimethylphenyl)imino)-1,2-azaboretidine
_symmetry_cell_setting           monoclinic
_symmetry_space_group_name_H-M   'P 21/c'
_symmetry_Int_Tables_number      14
_space_group_name_Hall           '-P 2ybc'
loop_
_symmetry_equiv_pos_site_id
_symmetry_equiv_pos_as_xyz
1 x,y,z
2 -x,1/2+y,1/2-z
3 -x,-y,-z
4 x,1/2-y,1/2+z
_cell_length_a                   9.833(4)
_cell_length_b                   20.12(1)
_cell_length_c                   16.065(5)
_cell_angle_alpha                90
_cell_angle_beta                 102.16(3)
_cell_angle_gamma                90
_cell_volume                     3106.99
_exptl_crystal_colour            orange
_cell_formula_units_Z            4
loop_
_atom_site_label
_atom_site_type_symbol
_atom_site_fract_x
_atom_site_fract_y
_atom_site_fract_z
Si1 Si 0.03273(7) 0.10348(3) 0.31900(4)
N1 N -0.0123(2) 0.26278(9) 0.2137(1)
N2 N -0.0268(2) 0.13187(8) 0.2152(1)
N3 N -0.1531(2) 0.36232(9) 0.1982(1)
N4 N -0.3571(2) 0.24026(8) 0.1525(1)
C1 C -0.1373(2) 0.3001(1) 0.1968(1)
C2 C -0.2252(2) 0.2391(1) 0.1778(1)
C3 C 0.1297(2) 0.2921(1) 0.2239(2)
C4 C 0.1541(3) 0.3407(2) 0.2983(2)
C5 C 0.2377(3) 0.2373(2) 0.2407(2)
C6 C 0.1356(3) 0.3280(2) 0.1413(2)
C7 C -0.0489(3) 0.0872(1) 0.1381(2)
C8 C -0.1869(3) 0.0501(2) 0.1257(2)
C9 C 0.0660(3) 0.0349(2) 0.1495(2)
C10 C -0.0466(5) 0.1298(2) 0.0612(2)
C11 C 0.2204(3) 0.0792(2) 0.3466(2)
C12 C 0.0053(3) 0.1715(2) 0.3906(2)
C13 C -0.0665(3) 0.0305(2) 0.3461(2)
C14 C -0.4350(2) 0.1810(1) 0.1301(1)
C15 C -0.4943(2) 0.1719(1) 0.0444(1)
C16 C -0.5715(3) 0.1147(1) 0.0202(2)
C17 C -0.5936(3) 0.0696(1) 0.0799(2)
C18 C -0.5422(3) 0.0813(1) 0.1648(2)
C19 C -0.4621(2) 0.1373(1) 0.1921(1)
C20 C -0.4739(3) 0.2233(2) -0.0199(2)
C21 C -0.4070(3) 0.1498(2) 0.2848(2)
C22 C -0.2907(2) 0.3872(1) 0.1778(2)
C23 C -0.3491(3) 0.4048(1) 0.0936(2)
C24 C -0.4817(3) 0.4308(1) 0.0751(2)
C25 C -0.5541(3) 0.4406(2) 0.1374(3)
C26 C -0.4979(3) 0.4245(1) 0.2186(2)
C27 C -0.3629(3) 0.3975(1) 0.2426(2)
C28 C -0.2683(4) 0.3955(2) 0.0253(2)
C29 C -0.2979(4) 0.3791(2) 0.3319(2)
B1 B -0.0791(2) 0.1983(1) 0.2021(2)
H1 H 0.072(3) 0.382(2) 0.292(2)
H2 H 0.135(3) 0.321(1) 0.353(2)
H3 H 0.240(3) 0.361(1) 0.304(2)
H4 H 0.211(2) 0.206(1) 0.188(2)
H5 H 0.336(3) 0.260(2) 0.244(2)
H6 H 0.243(3) 0.221(1) 0.303(2)
H7 H 0.213(3) 0.350(2) 0.138(2)
H8 H 0.114(3) 0.293(2) 0.096(2)
H9 H 0.065(3) 0.362(1) 0.127(2)
H10 H -0.252(3) 0.084(2) 0.107(2)
H11 H -0.197(3) 0.024(2) 0.076(2)
H12 H -0.200(5) 0.027(2) 0.173(3)
H13 H 0.047(3) 0.007(2) 0.095(2)
H14 H 0.090(4) 0.005(2) 0.214(3)
H15 H 0.151(3) 0.061(1) 0.150(2)
H16 H -0.111(3) 0.170(1) 0.043(2)
H17 H 0.067(5) 0.140(2) 0.077(3)
H18 H -0.058(3) 0.102(2) 0.013(2)
H19 H 0.285(4) 0.106(2) 0.334(3)
H20 H 0.252(4) 0.088(2) 0.407(2)
H21 H 0.232(4) 0.043(2) 0.337(2)
H22 H 0.056(3) 0.211(1) 0.391(2)
H23 H 0.018(3) 0.158(2) 0.450(2)
H24 H -0.079(3) 0.191(1) 0.381(2)
H25 H -0.045(3) -0.003(2) 0.314(2)
H26 H -0.165(3) 0.038(2) 0.330(2)
H27 H -0.060(4) 0.029(2) 0.405(2)
H28 H -0.615(3) 0.107(1) -0.042(2)
H29 H -0.641(3) 0.024(1) 0.065(2)
H30 H -0.555(3) 0.051(1) 0.208(2)
H31 H -0.525(3) 0.218(2) -0.074(2)
H32 H -0.487(4) 0.268(2) 0.002(2)
H33 H -0.369(3) 0.225(1) -0.027(2)
H34 H -0.306(3) 0.147(1) 0.305(2)
H35 H -0.412(3) 0.196(2) 0.306(2)
H36 H -0.440(3) 0.124(2) 0.320(2)
H37 H -0.521(3) 0.446(1) 0.015(2)
H38 H -0.650(3) 0.456(2) 0.118(2)
H39 H -0.544(3) 0.434(1) 0.264(2)
H40 H -0.256(4) 0.351(2) 0.015(2)
H41 H -0.317(4) 0.419(2) -0.027(2)
H42 H -0.171(3) 0.413(2) 0.045(2)
H43 H -0.287(3) 0.330(2) 0.340(2)
H44 H -0.352(3) 0.395(2) 0.372(2)
H45 H -0.210(4) 0.394(2) 0.349(2)
loop_
_geom_bond_atom_site_label_1
_geom_bond_atom_site_label_2
_geom_bond_site_symmetry_1
_geom_bond_site_symmetry_2
Si1 N2 1_555 1_555
N1 C1 1_555 1_555
N2 C7 1_555 1_555
N3 C1 1_555 1_555
N4 C2 1_555 1_555
C1 C2 1_555 1_555
C2 B1 1_555 1_555
C3 N1 1_555 1_555
C4 C3 1_555 1_555
C5 C3 1_555 1_555
C6 C3 1_555 1_555
C7 C8 1_555 1_555
C8 H10 1_555 1_555
C9 C7 1_555 1_555
C10 C7 1_555 1_555
C11 Si1 1_555 1_555
C12 Si1 1_555 1_555
C13 Si1 1_555 1_555
C14 N4 1_555 1_555
C15 C14 1_555 1_555
C16 C15 1_555 1_555
C17 C16 1_555 1_555
C18 C17 1_555 1_555
C19 C14 1_555 1_555
C20 C15 1_555 1_555
C21 C19 1_555 1_555
C22 N3 1_555 1_555
C23 C22 1_555 1_555
C24 C23 1_555 1_555
C25 C24 1_555 1_555
C26 C25 1_555 1_555
C27 C22 1_555 1_555
C28 C23 1_555 1_555
C29 C27 1_555 1_555
B1 N1 1_555 1_555
H1 C4 1_555 1_555
H2 C4 1_555 1_555
H3 C4 1_555 1_555
H4 C5 1_555 1_555
H5 C5 1_555 1_555
H6 C5 1_555 1_555
H7 C6 1_555 1_555
H8 C6 1_555 1_555
H9 C6 1_555 1_555
H11 C8 1_555 1_555
H12 C8 1_555 1_555
H13 C9 1_555 1_555
H14 C9 1_555 1_555
H15 C9 1_555 1_555
H16 C10 1_555 1_555
H17 C10 1_555 1_555
H18 C10 1_555 1_555
H19 C11 1_555 1_555
H20 C11 1_555 1_555
H21 C11 1_555 1_555
H22 C12 1_555 1_555
H23 C12 1_555 1_555
H24 C12 1_555 1_555
H25 C13 1_555 1_555
H26 C13 1_555 1_555
H27 C13 1_555 1_555
H28 C16 1_555 1_555
H29 C17 1_555 1_555
H30 C18 1_555 1_555
H31 C20 1_555 1_555
H32 C20 1_555 1_555
H33 C20 1_555 1_555
H34 C21 1_555 1_555
H35 C21 1_555 1_555
H36 C21 1_555 1_555
H37 C24 1_555 1_555
H38 C25 1_555 1_555
H39 C26 1_555 1_555
H40 C28 1_555 1_555
H41 C28 1_555 1_555
H42 C28 1_555 1_555
H43 C29 1_555 1_555
H44 C29 1_555 1_555
H45 C29 1_555 1_555
N2 B1 1_555 1_555
C18 C19 1_555 1_555
C26 C27 1_555 1_555

#END
