
#######################################################################
#
#                 Cambridge Crystallographic Data Centre
#                                CCDC 
#
#######################################################################
#
# If this CIF has been generated from an entry in the Cambridge 
# Structural Database, then it will include bibliographic, chemical, 
# crystal, experimental, refinement or atomic coordinate data resulting 
# from the CCDC's data processing and validation procedures.
#
#######################################################################

data_ZEYLOB
_chemical_formula_moiety         'C38 H36 B2 F10 N4'
_chemical_name_systematic        
(4-(2,6-Dimethylphenyl)isocyano)-(1,3-di-t-butyl-5-((2,6-dimethylphenyl)imino)-2,4-bis(pentafluorophenyl)-1,3-diaza-2,4-diboracyclopentane)
_symmetry_cell_setting           orthorhombic
_symmetry_space_group_name_H-M   'P b c a'
_symmetry_Int_Tables_number      61
_space_group_name_Hall           '-P 2ac 2ab'
loop_
_symmetry_equiv_pos_site_id
_symmetry_equiv_pos_as_xyz
1 x,y,z
2 1/2-x,-y,1/2+z
3 1/2+x,1/2-y,-z
4 -x,1/2+y,1/2-z
5 -x,-y,-z
6 1/2+x,y,1/2-z
7 1/2-x,1/2+y,z
8 x,1/2-y,1/2+z
_cell_length_a                   13.913(3)
_cell_length_b                   20.464(5)
_cell_length_c                   26.073(4)
_cell_angle_alpha                90
_cell_angle_beta                 90
_cell_angle_gamma                90
_cell_volume                     7423.39
_cell_formula_units_Z            8
loop_
_atom_site_label
_atom_site_type_symbol
_atom_site_fract_x
_atom_site_fract_y
_atom_site_fract_z
F1 F 0.9382(1) 0.36214(8) 0.51690(6)
F2 F 0.8853(2) 0.4770(1) 0.47644(6)
F3 F 0.8377(2) 0.57836(8) 0.5389(1)
F4 F 0.8418(2) 0.56240(8) 0.64246(9)
F5 F 0.8933(1) 0.44770(7) 0.68254(6)
F6 F 0.8957(1) 0.08488(6) 0.68893(6)
F7 F 0.8759(2) -0.02399(7) 0.63409(8)
F8 F 0.8856(2) -0.02033(8) 0.53045(8)
F9 F 0.9183(2) 0.09541(9) 0.48188(6)
F10 F 0.9439(1) 0.20454(7) 0.53632(5)
N1 N 1.0468(1) 0.31234(8) 0.63273(7)
N2 N 0.8822(1) 0.27820(8) 0.63030(7)
N3 N 1.1321(1) 0.21388(8) 0.63889(7)
N4 N 0.9263(1) 0.21511(9) 0.75109(7)
C1 C 1.0516(2) 0.2441(1) 0.63955(7)
C2 C 0.9286(2) 0.2102(1) 0.70752(8)
C3 C 0.9162(2) 0.3999(1) 0.60108(9)
C4 C 0.9137(2) 0.4113(1) 0.5493(1)
C5 C 0.8869(2) 0.4699(1) 0.5279(1)
C6 C 0.8623(2) 0.5209(1) 0.5595(1)
C7 C 0.8646(2) 0.5122(1) 0.6113(1)
C8 C 0.8910(2) 0.4531(1) 0.6312(1)
C9 C 1.1377(2) 0.3523(1) 0.6298(1)
C10 C 1.2000(2) 0.3383(1) 0.6770(1)
C11 C 1.1147(2) 0.4255(1) 0.6317(2)
C12 C 1.1906(2) 0.3370(2) 0.5802(1)
C13 C 1.1355(2) 0.1450(1) 0.64421(9)
C14 C 1.1346(2) 0.1154(1) 0.69247(9)
C15 C 1.1350(2) 0.0471(1) 0.6947(1)
C16 C 1.1410(2) 0.0099(1) 0.6505(1)
C17 C 1.1517(2) 0.0397(1) 0.6042(1)
C18 C 1.1511(2) 0.1076(1) 0.5997(1)
C19 C 0.9311(2) 0.2264(1) 0.80431(8)
C20 C 0.9174(2) 0.1732(1) 0.8372(1)
C21 C 0.9243(2) 0.1876(2) 0.8895(1)
C22 C 0.9449(3) 0.2499(2) 0.9063(1)
C23 C 0.9579(2) 0.3003(2) 0.8726(1)
C24 C 0.9518(2) 0.2901(1) 0.8200(1)
C25 C 0.9219(2) 0.1500(1) 0.61515(8)
C26 C 0.9041(2) 0.0896(1) 0.63753(9)
C27 C 0.8924(2) 0.0330(1) 0.6098(1)
C28 C 0.8973(2) 0.0349(1) 0.5579(1)
C29 C 0.9141(2) 0.0932(1) 0.5336(1)
C30 C 0.9263(2) 0.1483(1) 0.56241(9)
C31 C 0.7745(2) 0.2806(1) 0.62820(9)
C32 C 0.7303(2) 0.2144(1) 0.6366(1)
C33 C 0.7380(2) 0.3245(2) 0.6713(2)
C34 C 0.7389(2) 0.3058(2) 0.5778(1)
C35 C 1.1423(2) 0.1547(1) 0.7410(1)
C36 C 1.1690(2) 0.1401(1) 0.5489(1)
C37 C 0.8965(2) 0.1060(1) 0.8183(1)
C38 C 0.9662(2) 0.3445(1) 0.7823(1)
B1 B 0.9473(2) 0.3298(1) 0.62267(9)
B2 B 0.9408(2) 0.2180(1) 0.64539(9)
H1 H 1.218 0.292 0.678
H2 H 1.258 0.365 0.674
H3 H 1.165 0.350 0.708
H4 H 1.079 0.435 0.663
H5 H 1.175 0.451 0.632
H6 H 1.076 0.438 0.602
H7 H 1.149 0.345 0.550
H8 H 1.247 0.366 0.578
H9 H 1.211 0.291 0.580
H10 H 1.131 0.025 0.728
H11 H 1.138 -0.038 0.653
H12 H 1.160 0.012 0.574
H13 H 0.913 0.153 0.915
H14 H 0.950 0.258 0.943
H15 H 0.974 0.344 0.886
H16 H 0.749 0.185 0.609
H17 H 0.755 0.197 0.669
H18 H 0.660 0.217 0.638
H19 H 0.761 0.305 0.703
H20 H 0.764 0.369 0.667
H21 H 0.668 0.327 0.672
H22 H 0.766 0.349 0.572
H23 H 0.760 0.276 0.550
H24 H 0.669 0.309 0.578
H25 H 1.141 0.126 0.771
H26 H 1.203 0.179 0.741
H27 H 1.088 0.185 0.743
H28 H 1.179 0.107 0.522
H29 H 1.114 0.168 0.540
H30 H 1.227 0.167 0.552
H31 H 0.889 0.077 0.848
H32 H 0.837 0.106 0.798
H33 H 0.949 0.091 0.797
H34 H 0.980 0.385 0.801
H35 H 1.021 0.334 0.760
H36 H 0.908 0.350 0.762
loop_
_geom_bond_atom_site_label_1
_geom_bond_atom_site_label_2
_geom_bond_site_symmetry_1
_geom_bond_site_symmetry_2
F1 C4 1_555 1_555
F2 C5 1_555 1_555
F3 C6 1_555 1_555
F4 C7 1_555 1_555
F5 C8 1_555 1_555
F6 C26 1_555 1_555
F7 C27 1_555 1_555
F8 C28 1_555 1_555
F9 C29 1_555 1_555
F10 C30 1_555 1_555
N1 C1 1_555 1_555
N2 C31 1_555 1_555
N3 C1 1_555 1_555
N4 C2 1_555 1_555
C1 B2 1_555 1_555
C2 B2 1_555 1_555
C3 C4 1_555 1_555
C4 C5 1_555 1_555
C5 C6 1_555 1_555
C6 C7 1_555 1_555
C7 C8 1_555 1_555
C8 C3 1_555 1_555
C9 N1 1_555 1_555
C10 C9 1_555 1_555
C11 C9 1_555 1_555
C12 C9 1_555 1_555
C13 N3 1_555 1_555
C14 C13 1_555 1_555
C15 C14 1_555 1_555
C16 C15 1_555 1_555
C17 C16 1_555 1_555
C18 C13 1_555 1_555
C19 N4 1_555 1_555
C20 C19 1_555 1_555
C21 C20 1_555 1_555
C22 C21 1_555 1_555
C23 C22 1_555 1_555
C24 C19 1_555 1_555
C25 C26 1_555 1_555
C26 C27 1_555 1_555
C27 C28 1_555 1_555
C28 C29 1_555 1_555
C29 C30 1_555 1_555
C30 C25 1_555 1_555
C31 C32 1_555 1_555
C32 H16 1_555 1_555
C33 C31 1_555 1_555
C34 C31 1_555 1_555
C35 C14 1_555 1_555
C36 C18 1_555 1_555
C37 C20 1_555 1_555
C38 C24 1_555 1_555
B1 N1 1_555 1_555
B2 N2 1_555 1_555
H1 C10 1_555 1_555
H2 C10 1_555 1_555
H3 C10 1_555 1_555
H4 C11 1_555 1_555
H5 C11 1_555 1_555
H6 C11 1_555 1_555
H7 C12 1_555 1_555
H8 C12 1_555 1_555
H9 C12 1_555 1_555
H10 C15 1_555 1_555
H11 C16 1_555 1_555
H12 C17 1_555 1_555
H13 C21 1_555 1_555
H14 C22 1_555 1_555
H15 C23 1_555 1_555
H17 C32 1_555 1_555
H18 C32 1_555 1_555
H19 C33 1_555 1_555
H20 C33 1_555 1_555
H21 C33 1_555 1_555
H22 C34 1_555 1_555
H23 C34 1_555 1_555
H24 C34 1_555 1_555
H25 C35 1_555 1_555
H26 C35 1_555 1_555
H27 C35 1_555 1_555
H28 C36 1_555 1_555
H29 C36 1_555 1_555
H30 C36 1_555 1_555
H31 C37 1_555 1_555
H32 C37 1_555 1_555
H33 C37 1_555 1_555
H34 C38 1_555 1_555
H35 C38 1_555 1_555
H36 C38 1_555 1_555
N2 B1 1_555 1_555
C3 B1 1_555 1_555
C17 C18 1_555 1_555
C23 C24 1_555 1_555
C25 B2 1_555 1_555

#END
