
#######################################################################
#
#                 Cambridge Crystallographic Data Centre
#                                CCDC 
#
#######################################################################
#
# If this CIF has been generated from an entry in the Cambridge 
# Structural Database, then it will include bibliographic, chemical, 
# crystal, experimental, refinement or atomic coordinate data resulting 
# from the CCDC's data processing and validation procedures.
#
#######################################################################

data_ZEYLIY
_chemical_formula_moiety         'C32 H30 B3 F15 N4'
_chemical_name_systematic        
3,5-Di-t-butyl-1-(1-(t-butylimino)ethyl)-2,4,6-tris(pentafluorophenyl)borazine
_symmetry_cell_setting           monoclinic
_symmetry_space_group_name_H-M   'P 21/n'
_symmetry_Int_Tables_number      14
_space_group_name_Hall           '-P 2yn'
loop_
_symmetry_equiv_pos_site_id
_symmetry_equiv_pos_as_xyz
1 x,y,z
2 1/2-x,1/2+y,1/2-z
3 -x,-y,-z
4 1/2+x,1/2-y,1/2+z
_cell_length_a                   13.621(3)
_cell_length_b                   19.079(3)
_cell_length_c                   13.899(3)
_cell_angle_alpha                90
_cell_angle_beta                 102.51(2)
_cell_angle_gamma                90
_cell_volume                     3526.25
_exptl_crystal_colour            colorless
_cell_formula_units_Z            4
loop_
_atom_site_label
_atom_site_type_symbol
_atom_site_fract_x
_atom_site_fract_y
_atom_site_fract_z
F1 F 0.5508(2) 0.1209(1) 0.3702(2)
F2 F 0.5759(2) 0.0955(2) 0.1868(2)
F3 F 0.4645(3) 0.1643(2) 0.0320(2)
F4 F 0.3166(3) 0.2532(2) 0.0595(2)
F5 F 0.2860(2) 0.2748(1) 0.2421(2)
F6 F 0.4372(2) 0.4356(1) 0.6770(2)
F7 F 0.3130(2) 0.5422(1) 0.6570(2)
F8 F 0.1319(3) 0.5371(1) 0.5294(2)
F9 F 0.0784(2) 0.4195(1) 0.4200(2)
F10 F 0.2026(2) 0.3106(1) 0.4376(2)
F11 F 0.1043(2) 0.2042(1) 0.5380(2)
F12 F -0.0351(2) 0.1153(2) 0.5727(2)
F13 F 0.0133(2) -0.0191(1) 0.6247(2)
F14 F 0.2054(2) -0.0619(1) 0.6491(2)
F15 F 0.3481(2) 0.0279(1) 0.6196(2)
N1 N 0.3331(2) 0.1673(1) 0.4553(2)
N2 N 0.4319(2) 0.2769(1) 0.4761(2)
N3 N 0.3489(2) 0.2334(1) 0.6096(2)
N4 N 0.3447(2) 0.0557(1) 0.3967(2)
C1 C 0.2899(3) 0.1085(2) 0.3918(2)
C2 C 0.1874(3) 0.1242(2) 0.3329(3)
C3 C 0.3172(3) -0.0106(2) 0.3403(3)
C4 C 0.2371(4) -0.0491(2) 0.3784(4)
C5 C 0.4124(4) -0.0536(3) 0.3601(5)
C6 C 0.2829(5) 0.0027(3) 0.2293(3)
C7 C 0.4174(3) 0.1997(2) 0.3116(2)
C8 C 0.4901(3) 0.1524(2) 0.2942(3)
C9 C 0.5033(4) 0.1410(2) 0.1996(3)
C10 C 0.4492(4) 0.1746(2) 0.1232(3)
C11 C 0.3735(4) 0.2198(2) 0.1355(3)
C12 C 0.3608(3) 0.2310(2) 0.2319(3)
C13 C 0.5073(3) 0.3288(2) 0.4520(3)
C14 C 0.5819(3) 0.2963(2) 0.3992(3)
C15 C 0.4530(4) 0.3895(2) 0.3895(3)
C16 C 0.5698(4) 0.3558(2) 0.5505(3)
C17 C 0.3247(3) 0.3659(2) 0.5590(2)
C18 C 0.3484(3) 0.4277(2) 0.6117(3)
C19 C 0.2846(4) 0.4839(2) 0.6027(3)
C20 C 0.1938(4) 0.4817(2) 0.5394(3)
C21 C 0.1673(3) 0.4227(2) 0.4831(3)
C22 C 0.2325(3) 0.3675(2) 0.4950(3)
C23 C 0.3500(3) 0.2407(2) 0.7188(2)
C24 C 0.2574(4) 0.2769(2) 0.7370(3)
C25 C 0.3595(4) 0.1684(2) 0.7692(3)
C26 C 0.4459(4) 0.2806(2) 0.7668(3)
C27 C 0.2318(3) 0.1195(2) 0.5782(2)
C28 C 0.1334(3) 0.1381(2) 0.5683(3)
C29 C 0.0599(3) 0.0946(2) 0.5841(3)
C30 C 0.0847(3) 0.0250(2) 0.6107(3)
C31 C 0.1810(3) 0.0044(2) 0.6209(3)
C32 C 0.2540(3) 0.0501(2) 0.6057(2)
B1 B 0.3987(3) 0.2154(2) 0.4192(3)
B2 B 0.3809(3) 0.2909(2) 0.5549(3)
B3 B 0.3113(4) 0.1739(2) 0.5509(3)
H1 H 0.152 0.153 0.372
H2 H 0.151 0.080 0.317
H3 H 0.192 0.149 0.272
H4 H 0.228 -0.024 0.437
H5 H 0.175 -0.047 0.327
H6 H 0.255 -0.098 0.395
H7 H 0.396 -0.103 0.345
H8 H 0.455 -0.036 0.317
H9 H 0.448 -0.049 0.429
H10 H 0.269 -0.042 0.193
H11 H 0.223 0.032 0.215
H12 H 0.338 0.027 0.207
H13 H 0.639 0.329 0.405
H14 H 0.605 0.253 0.435
H15 H 0.553 0.286 0.330
H16 H 0.511 0.418 0.385
H17 H 0.418 0.411 0.437
H18 H 0.408 0.381 0.325
H19 H 0.573 0.320 0.602
H20 H 0.541 0.399 0.570
H21 H 0.638 0.365 0.542
H22 H 0.265 0.282 0.808
H23 H 0.254 0.323 0.707
H24 H 0.196 0.251 0.709
H25 H 0.294 0.145 0.750
H26 H 0.376 0.176 0.841
H27 H 0.412 0.140 0.750
H28 H 0.440 0.329 0.742
H29 H 0.503 0.258 0.748
H30 H 0.455 0.281 0.839
loop_
_geom_bond_atom_site_label_1
_geom_bond_atom_site_label_2
_geom_bond_site_symmetry_1
_geom_bond_site_symmetry_2
F1 C8 1_555 1_555
F2 C9 1_555 1_555
F3 C10 1_555 1_555
F4 C11 1_555 1_555
F5 C12 1_555 1_555
F6 C18 1_555 1_555
F7 C19 1_555 1_555
F8 C20 1_555 1_555
F9 C21 1_555 1_555
F10 C22 1_555 1_555
F11 C28 1_555 1_555
F12 C29 1_555 1_555
F13 C30 1_555 1_555
F14 C31 1_555 1_555
F15 C32 1_555 1_555
N1 C1 1_555 1_555
N2 C13 1_555 1_555
N3 C23 1_555 1_555
N4 C1 1_555 1_555
C1 C2 1_555 1_555
C2 H1 1_555 1_555
C3 N4 1_555 1_555
C4 C3 1_555 1_555
C5 C3 1_555 1_555
C6 C3 1_555 1_555
C7 C8 1_555 1_555
C8 C9 1_555 1_555
C9 C10 1_555 1_555
C10 C11 1_555 1_555
C11 C12 1_555 1_555
C12 C7 1_555 1_555
C13 C14 1_555 1_555
C14 H13 1_555 1_555
C15 C13 1_555 1_555
C16 C13 1_555 1_555
C17 C18 1_555 1_555
C18 C19 1_555 1_555
C19 C20 1_555 1_555
C20 C21 1_555 1_555
C21 C22 1_555 1_555
C22 C17 1_555 1_555
C23 C24 1_555 1_555
C24 H22 1_555 1_555
C25 C23 1_555 1_555
C26 C23 1_555 1_555
C27 C28 1_555 1_555
C28 C29 1_555 1_555
C29 C30 1_555 1_555
C30 C31 1_555 1_555
C31 C32 1_555 1_555
C32 C27 1_555 1_555
B1 N1 1_555 1_555
B2 N2 1_555 1_555
B3 N1 1_555 1_555
H2 C2 1_555 1_555
H3 C2 1_555 1_555
H4 C4 1_555 1_555
H5 C4 1_555 1_555
H6 C4 1_555 1_555
H7 C5 1_555 1_555
H8 C5 1_555 1_555
H9 C5 1_555 1_555
H10 C6 1_555 1_555
H11 C6 1_555 1_555
H12 C6 1_555 1_555
H14 C14 1_555 1_555
H15 C14 1_555 1_555
H16 C15 1_555 1_555
H17 C15 1_555 1_555
H18 C15 1_555 1_555
H19 C16 1_555 1_555
H20 C16 1_555 1_555
H21 C16 1_555 1_555
H23 C24 1_555 1_555
H24 C24 1_555 1_555
H25 C25 1_555 1_555
H26 C25 1_555 1_555
H27 C25 1_555 1_555
H28 C26 1_555 1_555
H29 C26 1_555 1_555
H30 C26 1_555 1_555
N2 B1 1_555 1_555
N3 B2 1_555 1_555
N3 B3 1_555 1_555
C7 B1 1_555 1_555
C17 B2 1_555 1_555
C27 B3 1_555 1_555

#END
