
#######################################################################
#
#                 Cambridge Crystallographic Data Centre
#                                CCDC 
#
#######################################################################
#
# If this CIF has been generated from an entry in the Cambridge 
# Structural Database, then it will include bibliographic, chemical, 
# crystal, experimental, refinement or atomic coordinate data resulting 
# from the CCDC's data processing and validation procedures.
#
#######################################################################

data_ZEYNEZ
_chemical_formula_moiety         'C6 H8 N2,C7 H5 Cl1 O3'
_chemical_name_systematic        
'2,3-dimethylpyrazine 5-chloro-2-hydroxybenzoic acid'
_symmetry_cell_setting           monoclinic
_symmetry_space_group_name_H-M   'P 21/c'
_symmetry_Int_Tables_number      14
_space_group_name_Hall           '-P 2ybc'
loop_
_symmetry_equiv_pos_site_id
_symmetry_equiv_pos_as_xyz
1 x,y,z
2 -x,1/2+y,1/2-z
3 -x,-y,-z
4 x,1/2-y,1/2+z
_cell_length_a                   7.5273(5)
_cell_length_b                   26.6363(19)
_cell_length_c                   7.3200(5)
_cell_angle_alpha                90
_cell_angle_beta                 115.2660(10)
_cell_angle_gamma                90
_cell_volume                     1327.25
_exptl_crystal_colour            colorless
_exptl_crystal_description       schistose
_cell_formula_units_Z            4
loop_
_atom_site_label
_atom_site_type_symbol
_atom_site_fract_x
_atom_site_fract_y
_atom_site_fract_z
Cl1 Cl 0.79641(8) 0.01867(2) 0.24071(9)
O1 O 0.86686(17) 0.21292(4) 0.2077(2)
H1 H 0.8575 0.2436 0.2048
O2 O 1.1457(2) 0.23045(4) 0.1859(2)
C1 C 1.0300(2) 0.20008(6) 0.1998(2)
C2 C 0.9311(2) 0.11129(5) 0.2214(2)
H2 H 0.8167 0.1229 0.2264
O3 O 1.3739(2) 0.15776(5) 0.1836(3)
H3 H 1.3384 0.1870 0.1791
C3 C 1.0671(2) 0.14523(5) 0.2077(2)
C4 C 1.2377(3) 0.12690(6) 0.1993(3)
C5 C 0.9685(2) 0.06048(6) 0.2274(3)
C6 C 1.1382(3) 0.04242(6) 0.2219(3)
H4 H 1.1618 0.0081 0.2277
C7 C 1.2717(3) 0.07548(7) 0.2077(3)
H5 H 1.3859 0.0634 0.2037
N1 N 0.80873(19) 0.31023(5) 0.1973(2)
N2 N 0.7640(2) 0.41297(5) 0.2094(2)
C8 C 0.6543(2) 0.32954(6) 0.2168(2)
C9 C 0.6330(2) 0.38157(6) 0.2239(2)
C10 C 0.9398(3) 0.34184(6) 0.1830(3)
H6 H 1.0485 0.3292 0.1690
C11 C 0.9161(3) 0.39263(6) 0.1887(3)
H7 H 1.0095 0.4137 0.1778
C12 C 0.5081(3) 0.29326(7) 0.2306(3)
H8 H 0.3864 0.2960 0.1118
H9 H 0.4866 0.3008 0.3478
H10 H 0.5579 0.2597 0.2411
C13 C 0.4641(3) 0.40464(8) 0.2521(3)
H11 H 0.4811 0.4404 0.2647
H12 H 0.4601 0.3913 0.3721
H13 H 0.3433 0.3970 0.1374
loop_
_geom_bond_atom_site_label_1
_geom_bond_atom_site_label_2
_geom_bond_site_symmetry_1
_geom_bond_site_symmetry_2
Cl1 C5 1_555 1_555
O1 H1 1_555 1_555
O2 C1 1_555 1_555
C1 O1 1_555 1_555
C2 H2 1_555 1_555
O3 H3 1_555 1_555
C3 C1 1_555 1_555
C4 O3 1_555 1_555
C5 C2 1_555 1_555
C6 C5 1_555 1_555
H4 C6 1_555 1_555
C7 C4 1_555 1_555
H5 C7 1_555 1_555
N1 C8 1_555 1_555
N2 C9 1_555 1_555
C8 C9 1_555 1_555
C9 C13 1_555 1_555
C10 N1 1_555 1_555
H6 C10 1_555 1_555
C11 N2 1_555 1_555
H7 C11 1_555 1_555
C12 C8 1_555 1_555
H8 C12 1_555 1_555
H9 C12 1_555 1_555
H10 C12 1_555 1_555
C13 H11 1_555 1_555
H12 C13 1_555 1_555
H13 C13 1_555 1_555
C2 C3 1_555 1_555
C3 C4 1_555 1_555
C6 C7 1_555 1_555
C10 C11 1_555 1_555

#END
