
#######################################################################
#
#                 Cambridge Crystallographic Data Centre
#                                CCDC 
#
#######################################################################
#
# If this CIF has been generated from an entry in the Cambridge 
# Structural Database, then it will include bibliographic, chemical, 
# crystal, experimental, refinement or atomic coordinate data resulting 
# from the CCDC's data processing and validation procedures.
#
#######################################################################

data_ZEYPAX
_chemical_formula_moiety         'C6 H8 N2,C8 H2 F4 O4,H2 O1'
_chemical_name_systematic        
'2,3-dimethylpyrazine tetrafluorophthalic acid monohydrate'
_symmetry_cell_setting           triclinic
_symmetry_space_group_name_H-M   'P -1'
_symmetry_Int_Tables_number      2
_space_group_name_Hall           '-P 1'
loop_
_symmetry_equiv_pos_site_id
_symmetry_equiv_pos_as_xyz
1 x,y,z
2 -x,-y,-z
_cell_length_a                   7.7656(6)
_cell_length_b                   13.8892(16)
_cell_length_c                   14.8937(15)
_cell_angle_alpha                94.491(9)
_cell_angle_beta                 97.977(8)
_cell_angle_gamma                98.136(9)
_cell_volume                     1566.97
_exptl_crystal_colour            colorless
_exptl_crystal_description       block
_cell_formula_units_Z            4
loop_
_atom_site_label
_atom_site_type_symbol
_atom_site_fract_x
_atom_site_fract_y
_atom_site_fract_z
F1 F 0.5175(7) 0.6031(3) 0.3185(3)
F2 F 0.5878(8) 0.6979(5) 0.4847(3)
F3 F 0.5843(10) 0.9982(4) 0.3623(4)
F4 F 0.6193(11) 0.8948(5) 0.5077(4)
O1 O 0.6201(8) 0.9123(5) 0.1292(4)
O2 O 0.3467(7) 0.7344(4) 0.1076(3)
H1 H 0.3348 0.7107 0.0546
O3 O 0.3884(8) 0.9631(4) 0.1796(4)
H2 H 0.3671 0.9809 0.1286
O4 O 0.5301(11) 0.6274(5) 0.1330(5)
C1 C 0.5160(9) 0.7518(5) 0.2498(4)
C2 C 0.5304(9) 0.8529(5) 0.2626(5)
C3 C 0.5358(10) 0.7007(5) 0.3260(5)
C4 C 0.4674(10) 0.6964(6) 0.1566(5)
C5 C 0.5701(11) 0.7486(7) 0.4126(5)
C6 C 0.5159(10) 0.9125(5) 0.1818(5)
C7 C 0.5851(13) 0.8493(7) 0.4246(5)
C8 C 0.5646(12) 0.8993(6) 0.3493(6)
O5 O 0.6472(11) 0.9221(5) -0.0565(4)
H3 H 0.6970 0.8742 -0.0726
H4 H 0.6428 0.9239 0.0003
N1 N 0.2560(10) 0.6311(5) -0.2523(4)
N2 N 0.2837(9) 0.6735(5) -0.0681(4)
H5 H 0.2707 0.8879 -0.1035
C9 C 0.2976(11) 0.5658(6) -0.1949(5)
H6 H 0.3147 0.5043 -0.2181
C10 C 0.2235(10) 0.7167(5) -0.2177(5)
C11 C 0.1781(13) 0.7894(7) -0.2835(6)
H7 H 0.1401 0.7561 -0.3434
H8 H 0.2800 0.8372 -0.2843
H9 H 0.0853 0.8214 -0.2647
C12 C 0.2009(12) 0.8344(6) -0.0819(6)
H10 H 0.2294 0.8372 -0.0169
H11 H 0.0784 0.8388 -0.0981
C13 C 0.2387(9) 0.7389(5) -0.1248(5)
C14 C 0.3153(11) 0.5876(6) -0.1035(5)
H12 H 0.3499 0.5421 -0.0649
F5 F -0.0054(7) 0.8238(3) 0.1022(3)
F6 F 0.0348(10) 1.0316(4) 0.3670(4)
F7 F 0.0081(7) 1.0020(3) 0.1848(4)
F8 F 0.0524(10) 0.8802(4) 0.4689(3)
O6 O 0.1921(7) 0.6912(4) 0.4498(4)
H13 H 0.1926 0.6407 0.4748
O7 O -0.0888(8) 0.6307(5) 0.3987(5)
O8 O 0.1312(8) 0.6079(4) 0.2479(3)
H14 H 0.1230 0.5514 0.2253
O9 O -0.0451(9) 0.6254(4) 0.1203(4)
C15 C 0.0210(9) 0.7544(5) 0.2432(4)
C16 C 0.0373(9) 0.7718(5) 0.3374(5)
C17 C 0.0081(9) 0.8326(5) 0.1924(5)
C18 C 0.0284(9) 0.6546(5) 0.1964(5)
C19 C 0.0311(12) 0.9414(6) 0.3271(6)
C20 C 0.0408(10) 0.6881(6) 0.3984(5)
C21 C 0.0156(10) 0.9261(5) 0.2335(6)
C22 C 0.0427(12) 0.8630(6) 0.3783(5)
N3 N 0.2838(9) 0.2610(5) 0.1284(4)
N4 N 0.1838(8) 0.4342(4) 0.1860(4)
H15 H 0.4342 0.2500 0.3300
C23 C 0.2338(11) 0.3238(6) 0.0700(5)
H16 H 0.2356 0.3088 0.0082
C24 C 0.1801(11) 0.4090(6) 0.0979(5)
H17 H 0.1410 0.4495 0.0551
C25 C 0.2443(14) 0.4082(6) 0.3461(6)
H18 H 0.3643 0.4314 0.3726
H19 H 0.1979 0.3544 0.3768
H20 H 0.1757 0.4601 0.3521
C26 C 0.2362(9) 0.3750(5) 0.2464(5)
C27 C 0.3439(12) 0.2162(6) 0.2827(6)
H21 H 0.2444 0.1890 0.3092
H22 H 0.3888 0.1646 0.2510
C28 C 0.2885(9) 0.2866(5) 0.2169(5)
O10 O 0.7877(11) 0.4383(5) 0.4378(4)
H23 H 0.8327 0.4981 0.4411
H24 H 0.7703 0.4138 0.3826
loop_
_geom_bond_atom_site_label_1
_geom_bond_atom_site_label_2
_geom_bond_site_symmetry_1
_geom_bond_site_symmetry_2
F1 C3 1_555 1_555
F2 C5 1_555 1_555
F3 C8 1_555 1_555
F4 C7 1_555 1_555
O1 C6 1_555 1_555
O2 H1 1_555 1_555
O3 H2 1_555 1_555
O4 C4 1_555 1_555
C1 C2 1_555 1_555
C2 C6 1_555 1_555
C3 C1 1_555 1_555
C4 O2 1_555 1_555
C5 C3 1_555 1_555
C6 O3 1_555 1_555
C7 C5 1_555 1_555
C8 C2 1_555 1_555
O5 H3 1_555 1_555
H4 O5 1_555 1_555
N1 C9 1_555 1_555
N2 C13 1_555 1_555
H5 C12 1_555 1_555
C9 H6 1_555 1_555
C10 N1 1_555 1_555
C11 C10 1_555 1_555
H7 C11 1_555 1_555
H8 C11 1_555 1_555
H9 C11 1_555 1_555
C12 H10 1_555 1_555
H11 C12 1_555 1_555
C13 C10 1_555 1_555
C14 N2 1_555 1_555
H12 C14 1_555 1_555
F5 C17 1_555 1_555
F6 C19 1_555 1_555
F7 C21 1_555 1_555
F8 C22 1_555 1_555
O6 H13 1_555 1_555
O7 C20 1_555 1_555
O8 H14 1_555 1_555
O9 C18 1_555 1_555
C15 C16 1_555 1_555
C16 C20 1_555 1_555
C17 C15 1_555 1_555
C18 O8 1_555 1_555
C19 C21 1_555 1_555
C20 O6 1_555 1_555
C21 C17 1_555 1_555
C22 C16 1_555 1_555
N3 C23 1_555 1_555
N4 C24 1_555 1_555
H15 C27 1_555 1_555
C23 H16 1_555 1_555
C24 C23 1_555 1_555
H17 C24 1_555 1_555
C25 H18 1_555 1_555
H19 C25 1_555 1_555
H20 C25 1_555 1_555
C26 N4 1_555 1_555
C27 H21 1_555 1_555
H22 C27 1_555 1_555
C28 N3 1_555 1_555
O10 H23 1_555 1_555
H24 O10 1_555 1_555
C1 C4 1_555 1_555
C7 C8 1_555 1_555
C9 C14 1_555 1_555
C12 C13 1_555 1_555
C15 C18 1_555 1_555
C19 C22 1_555 1_555
C25 C26 1_555 1_555
C26 C28 1_555 1_555
C27 C28 1_555 1_555

#END
