
#######################################################################
#
#                 Cambridge Crystallographic Data Centre
#                                CCDC 
#
#######################################################################
#
# If this CIF has been generated from an entry in the Cambridge 
# Structural Database, then it will include bibliographic, chemical, 
# crystal, experimental, refinement or atomic coordinate data resulting 
# from the CCDC's data processing and validation procedures.
#
#######################################################################

data_ZEYTOP
_chemical_formula_moiety         'C9 H7 N3 O1'
_chemical_name_systematic        
4-(furan-2-yl)-1-methyl-1H-pyrazole-5-carbonitrile
_symmetry_cell_setting           monoclinic
_symmetry_space_group_name_H-M   'P 21/c'
_symmetry_Int_Tables_number      14
_space_group_name_Hall           '-P 2ybc'
loop_
_symmetry_equiv_pos_site_id
_symmetry_equiv_pos_as_xyz
1 x,y,z
2 -x,1/2+y,1/2-z
3 -x,-y,-z
4 x,1/2-y,1/2+z
_cell_length_a                   7.353(4)
_cell_length_b                   17.657(11)
_cell_length_c                   6.829(4)
_cell_angle_alpha                90
_cell_angle_beta                 111.229(13)
_cell_angle_gamma                90
_cell_volume                     826.457
_exptl_crystal_colour            colorless
_exptl_crystal_description       Prism
_cell_formula_units_Z            4
loop_
_atom_site_label
_atom_site_type_symbol
_atom_site_fract_x
_atom_site_fract_y
_atom_site_fract_z
O1 O 0.43881(13) 0.31282(5) 0.37913(14)
N1 N -0.02775(16) 0.12345(6) 0.15654(18)
N2 N 0.15849(15) 0.10035(6) 0.24098(16)
N3 N 0.65291(18) 0.13805(7) 0.4701(2)
C1 C 0.4701(2) 0.38926(7) 0.3945(2)
H1 H 0.5942 0.4125 0.4579
C2 C 0.30155(19) 0.42694(7) 0.30772(19)
H2 H 0.2848 0.4803 0.2985
C3 C 0.15229(19) 0.37103(7) 0.2320(2)
H3 H 0.0166 0.3799 0.1623
C4 C 0.24135(18) 0.30299(7) 0.27851(18)
C5 C 0.17328(17) 0.22575(7) 0.24628(18)
C6 C 0.28352(18) 0.16005(6) 0.29752(18)
C7 C 0.4886(2) 0.14880(7) 0.3930(2)
C8 C -0.01944(19) 0.19888(7) 0.1587(2)
H4 H -0.1308 0.2308 0.1071
C9 C 0.2055(2) 0.02042(7) 0.2749(2)
H5 H 0.3466 0.0135 0.3157
H6 H 0.1376 -0.0076 0.1451
H7 H 0.1638 0.0015 0.3870
loop_
_geom_bond_atom_site_label_1
_geom_bond_atom_site_label_2
_geom_bond_site_symmetry_1
_geom_bond_site_symmetry_2
O1 C1 1_555 1_555
N1 N2 1_555 1_555
N2 C6 1_555 1_555
N3 C7 1_555 1_555
C1 H1 1_555 1_555
C2 C1 1_555 1_555
H2 C2 1_555 1_555
C3 C2 1_555 1_555
H3 C3 1_555 1_555
C4 O1 1_555 1_555
C5 C4 1_555 1_555
C6 C5 1_555 1_555
C7 C6 1_555 1_555
C8 N1 1_555 1_555
H4 C8 1_555 1_555
C9 N2 1_555 1_555
H5 C9 1_555 1_555
H6 C9 1_555 1_555
H7 C9 1_555 1_555
C3 C4 1_555 1_555
C5 C8 1_555 1_555

#END
