
#######################################################################
#
#                 Cambridge Crystallographic Data Centre
#                                CCDC 
#
#######################################################################
#
# If this CIF has been generated from an entry in the Cambridge 
# Structural Database, then it will include bibliographic, chemical, 
# crystal, experimental, refinement or atomic coordinate data resulting 
# from the CCDC's data processing and validation procedures.
#
#######################################################################

data_ZEYVUX
_chemical_formula_moiety         'C29 H29 Cl1 I1 N3 O1'
_chemical_name_systematic        
1'-azido-3,5-di-t-butyl-3'-((2-chlorophenyl)(iodo)methylidene)-1',3'-dihydro-4H-spiro[cyclohexa-2,5-diene-1,2'-inden]-4-one
_symmetry_cell_setting           triclinic
_symmetry_space_group_name_H-M   'P -1'
_symmetry_Int_Tables_number      2
_space_group_name_Hall           '-P 1'
loop_
_symmetry_equiv_pos_site_id
_symmetry_equiv_pos_as_xyz
1 x,y,z
2 -x,-y,-z
_cell_length_a                   9.888(3)
_cell_length_b                   16.540(4)
_cell_length_c                   17.448(4)
_cell_angle_alpha                88.700(6)
_cell_angle_beta                 88.467(6)
_cell_angle_gamma                72.631(6)
_cell_volume                     2722.16
_exptl_crystal_colour            colorless
_exptl_crystal_description       block
_chemical_melting_point          '154-156 deg.C'
_cell_formula_units_Z            4
_exptl_crystal_recrystallization_method dichloromethane/hexane
loop_
_atom_site_label
_atom_site_type_symbol
_atom_site_fract_x
_atom_site_fract_y
_atom_site_fract_z
I1 I 0.16641(9) 0.47372(5) -0.12308(5)
Cl1 Cl 0.1084(4) 0.2759(2) 0.0055(2)
O1 O 0.5606(10) 0.0827(5) 0.1415(5)
N1 N 0.7459(10) 0.3192(6) 0.1548(6)
N2 N 0.6172(10) 0.3539(6) 0.1672(6)
N3 N 0.8653(11) 0.2858(8) 0.1509(7)
C1 C 0.3504(10) 0.3968(6) 0.0131(6)
C2 C 0.4279(10) 0.4723(7) 0.1079(6)
C3 C 0.3040(12) 0.3774(7) -0.0526(7)
C4 C 0.5433(10) 0.3880(7) 0.0964(6)
H1 H 0.6139 0.3961 0.0572
C5 C 0.3210(11) 0.4775(7) 0.0554(6)
C6 C 0.3781(11) 0.3001(7) 0.1248(6)
H2 H 0.3010 0.3415 0.1483
C7 C 0.4032(10) 0.2204(6) 0.1490(6)
C8 C 0.5668(11) 0.2607(7) 0.0244(6)
H3 H 0.6086 0.2730 -0.0223
C9 C 0.3044(13) 0.6051(8) 0.1603(8)
H4 H 0.2983 0.6488 0.1958
C10 C 0.1846(12) 0.2692(8) 0.2345(7)
H5 H 0.2173 0.3026 0.2715
H6 H 0.1089 0.2495 0.2582
H7 H 0.1483 0.3044 0.1893
C11 C 0.5243(11) 0.1545(7) 0.1153(6)
C12 C 0.4621(10) 0.3301(6) 0.0630(6)
C13 C 0.3270(13) 0.2945(7) -0.0849(7)
C14 C 0.2046(11) 0.5507(7) 0.0564(7)
H8 H 0.1303 0.5568 0.0213
C15 C 0.2470(13) 0.1267(8) 0.1776(7)
H9 H 0.1818 0.1527 0.1365
H10 H 0.1957 0.1054 0.2182
H11 H 0.3242 0.0797 0.1570
C16 C 0.4234(12) 0.5313(7) 0.1613(7)
H12 H 0.4963 0.5236 0.1976
C17 C 0.7364(13) 0.1125(8) 0.0165(7)
C18 C 0.6070(11) 0.1809(7) 0.0507(6)
C19 C 0.1965(13) 0.6145(8) 0.1081(8)
H13 H 0.1178 0.6643 0.1079
C20 C 0.3081(11) 0.1929(7) 0.2105(6)
C21 C 0.6895(14) 0.0377(8) -0.0166(8)
H14 H 0.6437 0.0129 0.0242
H15 H 0.7729 -0.0057 -0.0367
H16 H 0.6226 0.0593 -0.0581
C22 C 0.2449(14) 0.2430(8) -0.0621(8)
C23 C 0.4285(15) 0.2653(9) -0.1423(8)
H17 H 0.4821 0.3008 -0.1613
C24 C 0.8126(16) 0.1466(8) -0.0464(8)
H18 H 0.7438 0.1788 -0.0837
H19 H 0.8818 0.0994 -0.0721
H20 H 0.8616 0.1838 -0.0244
C25 C 0.4525(19) 0.1866(9) -0.1720(10)
H21 H 0.5246 0.1664 -0.2100
C26 C 0.8458(15) 0.0757(9) 0.0807(8)
H22 H 0.8568 0.1221 0.1115
H23 H 0.9374 0.0451 0.0572
H24 H 0.8119 0.0368 0.1137
C27 C 0.3691(18) 0.1359(10) -0.1455(9)
H25 H 0.3857 0.0809 -0.1658
C28 C 0.2672(19) 0.1635(10) -0.0925(10)
H26 H 0.2105 0.1289 -0.0757
C29 C 0.3896(14) 0.1570(8) 0.2819(7)
H27 H 0.4662 0.1056 0.2690
H28 H 0.3254 0.1430 0.3203
H29 H 0.4299 0.1990 0.3028
I2 I 0.84240(10) 0.43896(5) 0.32782(5)
Cl2 Cl 1.0882(3) 0.2177(2) 0.45549(19)
O2 O 0.8732(11) 0.0817(5) 0.6334(6)
N4 N 0.4462(11) 0.3436(7) 0.6617(6)
N5 N 0.5425(10) 0.3745(6) 0.6598(6)
N6 N 0.3558(13) 0.3127(9) 0.6683(9)
C30 C 0.7207(11) 0.3228(6) 0.5472(6)
C31 C 0.8282(11) 0.3005(7) 0.6061(6)
H30 H 0.8607 0.3444 0.6254
C32 C 0.8365(11) 0.2692(7) 0.3835(6)
C33 C 0.7359(11) 0.4636(6) 0.5188(6)
C34 C 0.8016(13) 0.5294(7) 0.5042(8)
H31 H 0.8750 0.5247 0.4667
C35 C 0.7613(10) 0.3808(6) 0.4846(6)
C36 C 0.7465(14) 0.6029(8) 0.5511(9)
H32 H 0.7827 0.6494 0.5417
C37 C 1.0014(12) 0.1982(8) 0.6943(7)
C38 C 0.6301(12) 0.4733(7) 0.5780(7)
C39 C 0.6349(13) 0.1087(7) 0.5359(7)
C40 C 1.0426(13) 0.2782(8) 0.7154(7)
H33 H 1.0728 0.3030 0.6689
H34 H 1.1205 0.2625 0.7517
H35 H 0.9606 0.3197 0.7389
C41 C 0.6652(11) 0.2537(7) 0.5241(6)
H36 H 0.5967 0.2651 0.4850
C42 C 0.9614(11) 0.2019(7) 0.3954(6)
C43 C 0.8840(11) 0.2222(7) 0.6348(6)
C44 C 0.9923(13) 0.1237(7) 0.3618(7)
H37 H 1.0783 0.0804 0.3715
C45 C 0.7051(12) 0.1782(7) 0.5544(6)
C46 C 0.8882(14) 0.1105(8) 0.3114(8)
H38 H 0.9037 0.0570 0.2882
C47 C 1.1399(13) 0.1352(9) 0.6599(8)
H39 H 1.1701 0.1607 0.6138
H40 H 1.1214 0.0823 0.6465
H41 H 1.2149 0.1233 0.6978
C48 C 0.5879(11) 0.3945(7) 0.5816(6)
H42 H 0.5064 0.4018 0.5466
C49 C 0.9522(14) 0.1647(8) 0.7674(7)
H43 H 1.0180 0.1646 0.8084
H44 H 0.9493 0.1067 0.7596
H45 H 0.8572 0.2008 0.7817
C50 C 0.8260(12) 0.1544(7) 0.6099(6)
C51 C 0.7693(14) 0.1735(8) 0.2969(8)
H46 H 0.7043 0.1640 0.2617
C52 C 0.4993(15) 0.1487(8) 0.4866(8)
H47 H 0.4311 0.1932 0.5158
H48 H 0.4560 0.1046 0.4741
H49 H 0.5266 0.1731 0.4391
C53 C 0.7406(16) 0.0349(8) 0.4948(8)
H50 H 0.7770 0.0560 0.4481
H51 H 0.6932 -0.0069 0.4812
H52 H 0.8195 0.0083 0.5287
C54 C 0.8108(11) 0.3526(7) 0.4143(6)
C55 C 0.5777(15) 0.0778(9) 0.6125(8)
H53 H 0.6546 0.0342 0.6372
H54 H 0.5007 0.0542 0.6012
H55 H 0.5420 0.1259 0.6470
C56 C 0.6471(15) 0.6109(8) 0.6078(9)
H56 H 0.6190 0.6608 0.6376
C57 C 0.7373(14) 0.2529(8) 0.3319(7)
H57 H 0.6508 0.2954 0.3215
C58 C 0.5865(14) 0.5465(8) 0.6223(8)
H58 H 0.5164 0.5519 0.6617
loop_
_geom_bond_atom_site_label_1
_geom_bond_atom_site_label_2
_geom_bond_site_symmetry_1
_geom_bond_site_symmetry_2
I1 C3 1_555 1_555
Cl1 C22 1_555 1_555
O1 C11 1_555 1_555
N1 N2 1_555 1_555
N2 C4 1_555 1_555
N3 N1 1_555 1_555
C1 C3 1_555 1_555
C2 C4 1_555 1_555
C3 C13 1_555 1_555
C4 H1 1_555 1_555
C5 C1 1_555 1_555
C6 H2 1_555 1_555
C7 C6 1_555 1_555
C8 H3 1_555 1_555
C9 H4 1_555 1_555
C10 H5 1_555 1_555
H6 C10 1_555 1_555
H7 C10 1_555 1_555
C11 C7 1_555 1_555
C12 C1 1_555 1_555
C13 C22 1_555 1_555
C14 C5 1_555 1_555
H8 C14 1_555 1_555
C15 H9 1_555 1_555
H10 C15 1_555 1_555
H11 C15 1_555 1_555
C16 C2 1_555 1_555
H12 C16 1_555 1_555
C17 C18 1_555 1_555
C18 C8 1_555 1_555
C19 C9 1_555 1_555
H13 C19 1_555 1_555
C20 C7 1_555 1_555
C21 C17 1_555 1_555
H14 C21 1_555 1_555
H15 C21 1_555 1_555
H16 C21 1_555 1_555
C22 C28 1_555 1_555
C23 C13 1_555 1_555
H17 C23 1_555 1_555
C24 C17 1_555 1_555
H18 C24 1_555 1_555
H19 C24 1_555 1_555
H20 C24 1_555 1_555
C25 C23 1_555 1_555
H21 C25 1_555 1_555
C26 C17 1_555 1_555
H22 C26 1_555 1_555
H23 C26 1_555 1_555
H24 C26 1_555 1_555
C27 C25 1_555 1_555
H25 C27 1_555 1_555
C28 C27 1_555 1_555
H26 C28 1_555 1_555
C29 C20 1_555 1_555
H27 C29 1_555 1_555
H28 C29 1_555 1_555
H29 C29 1_555 1_555
I2 C54 1_555 1_555
Cl2 C42 1_555 1_555
O2 C50 1_555 1_555
N4 N5 1_555 1_555
N5 C48 1_555 1_555
N6 N4 1_555 1_555
C30 C31 1_555 1_555
C31 H30 1_555 1_555
C32 C42 1_555 1_555
C33 C34 1_555 1_555
C34 H31 1_555 1_555
C35 C30 1_555 1_555
C36 C34 1_555 1_555
H32 C36 1_555 1_555
C37 C40 1_555 1_555
C38 C33 1_555 1_555
C39 C45 1_555 1_555
C40 H33 1_555 1_555
H34 C40 1_555 1_555
H35 C40 1_555 1_555
C41 C30 1_555 1_555
H36 C41 1_555 1_555
C42 C44 1_555 1_555
C43 C31 1_555 1_555
C44 H37 1_555 1_555
C45 C41 1_555 1_555
C46 C44 1_555 1_555
H38 C46 1_555 1_555
C47 C37 1_555 1_555
H39 C47 1_555 1_555
H40 C47 1_555 1_555
H41 C47 1_555 1_555
C48 C30 1_555 1_555
H42 C48 1_555 1_555
C49 C37 1_555 1_555
H43 C49 1_555 1_555
H44 C49 1_555 1_555
H45 C49 1_555 1_555
C50 C43 1_555 1_555
C51 C46 1_555 1_555
H46 C51 1_555 1_555
C52 C39 1_555 1_555
H47 C52 1_555 1_555
H48 C52 1_555 1_555
H49 C52 1_555 1_555
C53 C39 1_555 1_555
H50 C53 1_555 1_555
H51 C53 1_555 1_555
H52 C53 1_555 1_555
C54 C32 1_555 1_555
C55 C39 1_555 1_555
H53 C55 1_555 1_555
H54 C55 1_555 1_555
H55 C55 1_555 1_555
C56 C36 1_555 1_555
H56 C56 1_555 1_555
C57 C32 1_555 1_555
H57 C57 1_555 1_555
C58 C38 1_555 1_555
H58 C58 1_555 1_555
C2 C5 1_555 1_555
C4 C12 1_555 1_555
C6 C12 1_555 1_555
C8 C12 1_555 1_555
C9 C16 1_555 1_555
C10 C20 1_555 1_555
C11 C18 1_555 1_555
C14 C19 1_555 1_555
C15 C20 1_555 1_555
C33 C35 1_555 1_555
C35 C54 1_555 1_555
C37 C43 1_555 1_555
C38 C48 1_555 1_555
C45 C50 1_555 1_555
C51 C57 1_555 1_555
C56 C58 1_555 1_555

#END
