
#######################################################################
#
#                 Cambridge Crystallographic Data Centre
#                                CCDC 
#
#######################################################################
#
# If this CIF has been generated from an entry in the Cambridge 
# Structural Database, then it will include bibliographic, chemical, 
# crystal, experimental, refinement or atomic coordinate data resulting 
# from the CCDC's data processing and validation procedures.
#
#######################################################################

data_ZEYVIL
_chemical_formula_moiety         'C26 H24 I1 N3 O1'
_chemical_name_systematic        
1'-azido-3-t-butyl-3'-[iodo(phenyl)methylidene]-5-methyl-1',3'-dihydro-4H-spiro[cyclohexa-2,5-diene-1,2'-inden]-4-one
_symmetry_cell_setting           monoclinic
_symmetry_space_group_name_H-M   'P 21/n'
_symmetry_Int_Tables_number      14
_space_group_name_Hall           '-P 2yn'
loop_
_symmetry_equiv_pos_site_id
_symmetry_equiv_pos_as_xyz
1 x,y,z
2 1/2-x,1/2+y,1/2-z
3 -x,-y,-z
4 1/2+x,1/2-y,1/2+z
_cell_length_a                   10.3390(5)
_cell_length_b                   18.4534(8)
_cell_length_c                   12.6708(7)
_cell_angle_alpha                90
_cell_angle_beta                 105.560(3)
_cell_angle_gamma                90
_cell_volume                     2328.86
_exptl_crystal_colour            colorless
_exptl_crystal_description       block
_chemical_melting_point          '168-170 deg.C'
_cell_formula_units_Z            4
loop_
_atom_site_label
_atom_site_type_symbol
_atom_site_fract_x
_atom_site_fract_y
_atom_site_fract_z
I1 I 0.23295(2) 0.35077(2) 0.84021(2)
O1 O 0.93276(15) 0.31980(9) 0.75449(13)
N1 N 0.8822(2) 0.53855(10) 0.86652(17)
N2 N 0.7667(2) 0.56260(10) 0.84401(17)
C1 C 0.64087(19) 0.44178(9) 0.84054(15)
C2 C 0.65657(19) 0.43991(10) 0.72615(16)
H1 H 0.5958 0.4681 0.6721
C3 C 0.4304(2) 0.50574(10) 0.82321(16)
C4 C 0.5064(2) 0.29649(10) 0.84389(17)
C5 C 0.48948(19) 0.43201(10) 0.83541(15)
C6 C 0.74966(19) 0.40164(10) 0.69430(16)
C7 C 0.8301(2) 0.35425(10) 0.89029(17)
C8 C 0.7344(2) 0.39251(10) 0.91715(16)
H2 H 0.7256 0.3880 0.9896
C9 C 0.5325(2) 0.55735(10) 0.84490(16)
C10 C 0.6670(2) 0.52192(10) 0.88422(17)
H3 H 0.6947 0.5215 0.9661
C11 C 0.5406(2) 0.27171(10) 0.75149(17)
H4 H 0.5128 0.2981 0.6848
C12 C 0.8446(2) 0.35582(10) 0.77737(17)
C13 C 0.4351(2) 0.36670(10) 0.84087(17)
C14 C 0.6151(2) 0.20870(11) 0.75588(19)
H5 H 0.6404 0.1929 0.6929
C15 C 0.2969(2) 0.52930(12) 0.78861(18)
H6 H 0.2253 0.4953 0.7739
N3 N 0.9912(3) 0.52392(14) 0.8778(2)
C16 C 0.7632(2) 0.40310(12) 0.57718(17)
C17 C 0.5413(2) 0.25491(11) 0.93850(19)
H7 H 0.5149 0.2700 1.0013
C18 C 0.5058(3) 0.63084(11) 0.8301(2)
H8 H 0.5769 0.6652 0.8437
C19 C 0.6142(3) 0.19170(12) 0.9422(2)
H9 H 0.6380 0.1638 1.0076
C20 C 0.2708(3) 0.60310(13) 0.77606(19)
H10 H 0.1804 0.6194 0.7541
C21 C 0.7476(3) 0.32593(14) 0.5286(2)
H11 H 0.8200 0.2951 0.5714
H12 H 0.7523 0.3278 0.4524
H13 H 0.6607 0.3059 0.5311
C22 C 0.9269(2) 0.30683(14) 0.9702(2)
H14 H 1.0181 0.3259 0.9819
H15 H 0.9229 0.2575 0.9408
H16 H 0.9030 0.3060 1.0399
C23 C 0.6525(3) 0.16899(12) 0.8514(2)
H17 H 0.7044 0.1262 0.8546
C24 C 0.3732(3) 0.65307(12) 0.7948(2)
H18 H 0.3528 0.7031 0.7836
C25 C 0.6543(3) 0.45030(16) 0.50318(19)
H19 H 0.5656 0.4319 0.5039
H20 H 0.6633 0.4489 0.4282
H21 H 0.6641 0.5004 0.5300
C26 C 0.9001(3) 0.43451(14) 0.5766(2)
H22 H 0.9094 0.4832 0.6085
H23 H 0.9071 0.4371 0.5011
H24 H 0.9715 0.4033 0.6199
loop_
_geom_bond_atom_site_label_1
_geom_bond_atom_site_label_2
_geom_bond_site_symmetry_1
_geom_bond_site_symmetry_2
I1 C13 1_555 1_555
O1 C12 1_555 1_555
N1 N2 1_555 1_555
N2 C10 1_555 1_555
C1 C2 1_555 1_555
C2 H1 1_555 1_555
C3 C5 1_555 1_555
C4 C11 1_555 1_555
C5 C1 1_555 1_555
C6 C2 1_555 1_555
C7 C8 1_555 1_555
C8 C1 1_555 1_555
H2 C8 1_555 1_555
C9 C3 1_555 1_555
C10 C1 1_555 1_555
H3 C10 1_555 1_555
C11 H4 1_555 1_555
C12 C6 1_555 1_555
C13 C4 1_555 1_555
C14 C11 1_555 1_555
H5 C14 1_555 1_555
C15 C3 1_555 1_555
H6 C15 1_555 1_555
N3 N1 1_555 1_555
C16 C6 1_555 1_555
C17 C4 1_555 1_555
H7 C17 1_555 1_555
C18 C9 1_555 1_555
H8 C18 1_555 1_555
C19 C17 1_555 1_555
H9 C19 1_555 1_555
C20 C15 1_555 1_555
H10 C20 1_555 1_555
C21 C16 1_555 1_555
H11 C21 1_555 1_555
H12 C21 1_555 1_555
H13 C21 1_555 1_555
C22 C7 1_555 1_555
H14 C22 1_555 1_555
H15 C22 1_555 1_555
H16 C22 1_555 1_555
C23 C14 1_555 1_555
H17 C23 1_555 1_555
C24 C18 1_555 1_555
H18 C24 1_555 1_555
C25 C16 1_555 1_555
H19 C25 1_555 1_555
H20 C25 1_555 1_555
H21 C25 1_555 1_555
C26 C16 1_555 1_555
H22 C26 1_555 1_555
H23 C26 1_555 1_555
H24 C26 1_555 1_555
C5 C13 1_555 1_555
C7 C12 1_555 1_555
C9 C10 1_555 1_555
C19 C23 1_555 1_555
C20 C24 1_555 1_555

#END
