
#######################################################################
#
#                 Cambridge Crystallographic Data Centre
#                                CCDC 
#
#######################################################################
#
# If this CIF has been generated from an entry in the Cambridge 
# Structural Database, then it will include bibliographic, chemical, 
# crystal, experimental, refinement or atomic coordinate data resulting 
# from the CCDC's data processing and validation procedures.
#
#######################################################################

data_ZEYVOR
_chemical_formula_moiety         'C29 H29 Cl1 I1 N3 O1'
_chemical_name_systematic        
1'-azido-3,5-di-t-butyl-3'-[(2-chlorophenyl)(iodo)methylidene]-1',3'-dihydro-4H-spiro[cyclohexa-2,5-diene-1,2'-inden]-4-one
_symmetry_cell_setting           triclinic
_symmetry_space_group_name_H-M   'P -1'
_symmetry_Int_Tables_number      2
_space_group_name_Hall           '-P 1'
loop_
_symmetry_equiv_pos_site_id
_symmetry_equiv_pos_as_xyz
1 x,y,z
2 -x,-y,-z
_cell_length_a                   9.6599(10)
_cell_length_b                   10.9513(12)
_cell_length_c                   13.5974(15)
_cell_angle_alpha                87.869(3)
_cell_angle_beta                 88.393(3)
_cell_angle_gamma                72.290(2)
_cell_volume                     1369.12
_exptl_crystal_colour            colorless
_exptl_crystal_description       block
_chemical_melting_point          '155-156 deg.C'
_cell_formula_units_Z            2
_exptl_crystal_recrystallization_method dichloromethane/hexane
loop_
_atom_site_label
_atom_site_type_symbol
_atom_site_fract_x
_atom_site_fract_y
_atom_site_fract_z
I1 I 0.88910(2) 0.52312(2) 0.80600(2)
Cl1 Cl 0.71350(11) 0.85747(9) 0.87119(6)
O1 O 0.1795(3) 0.9129(3) 0.59022(19)
N1 N 0.1849(3) 0.5934(3) 0.8886(2)
C1 C 0.3558(3) 0.7855(3) 0.8104(2)
H1 H 0.3951 0.8143 0.8651
C2 C 0.4358(3) 0.4465(3) 0.8929(2)
C3 C 0.3330(3) 0.6095(3) 0.7073(2)
H2 H 0.3494 0.5209 0.6967
C4 C 0.2545(3) 0.6937(3) 0.6410(2)
N2 N 0.1073(3) 0.6803(4) 0.9375(2)
C5 C 0.3971(3) 0.6447(3) 0.7970(2)
C6 C 0.6668(3) 0.6181(3) 0.7760(2)
C7 C 0.3400(3) 0.5828(3) 0.8912(2)
H3 H 0.3582 0.6253 0.9512
C8 C 0.6515(3) 0.7373(3) 0.7156(2)
C9 C 0.2684(3) 0.8748(3) 0.7519(2)
C10 C 0.5613(3) 0.5678(3) 0.8021(2)
C11 C 0.6815(4) 0.8452(3) 0.7476(2)
C12 C 0.5678(3) 0.4398(3) 0.8448(2)
C13 C 0.6742(4) 0.3221(3) 0.8380(2)
H4 H 0.7639 0.3155 0.8047
C14 C 0.2290(4) 0.8334(3) 0.6553(2)
C15 C 0.2092(4) 1.0167(3) 0.7779(3)
C16 C 0.6188(4) 0.7353(3) 0.6163(2)
H5 H 0.5945 0.6639 0.5927
C17 C 0.4088(4) 0.3392(3) 0.9345(2)
H6 H 0.3186 0.3450 0.9666
C18 C 0.5172(4) 0.2220(3) 0.9281(2)
H7 H 0.5014 0.1468 0.9567
C19 C 0.1912(4) 0.6537(4) 0.5498(2)
C20 C 0.6474(4) 0.2146(3) 0.8805(2)
H8 H 0.7203 0.1338 0.8769
C21 C 0.6848(4) 0.9452(3) 0.6830(3)
H9 H 0.7064 1.0179 0.7064
C22 C 0.6567(4) 0.9391(4) 0.5847(3)
H10 H 0.6618 1.0063 0.5399
C23 C 0.6212(4) 0.8354(4) 0.5517(3)
H11 H 0.5982 0.8324 0.4846
C24 C 0.2522(5) 1.0370(4) 0.8816(3)
H12 H 0.2140 0.9849 0.9289
H13 H 0.2117 1.1278 0.8973
H14 H 0.3583 1.0113 0.8855
C25 C 0.0282(4) 0.7248(4) 0.5420(3)
H15 H -0.0225 0.7071 0.6017
H16 H -0.0105 0.6956 0.4845
H17 H 0.0136 0.8173 0.5348
C26 C 0.2663(5) 1.1025(4) 0.7059(3)
H18 H 0.3728 1.0746 0.7062
H19 H 0.2294 1.1917 0.7261
H20 H 0.2332 1.0958 0.6394
N3 N 0.0265(4) 0.7585(5) 0.9797(3)
C27 C 0.0421(4) 1.0572(4) 0.7745(4)
H21 H 0.0120 1.0459 0.7081
H22 H 0.0023 1.1475 0.7916
H23 H 0.0055 1.0040 0.8217
C28 C 0.2073(5) 0.5090(4) 0.5561(3)
H24 H 0.3107 0.4597 0.5569
H25 H 0.1622 0.4859 0.4988
H26 H 0.1593 0.4894 0.6164
C29 C 0.2715(5) 0.6805(5) 0.4567(3)
H27 H 0.2558 0.7730 0.4485
H28 H 0.2344 0.6496 0.3993
H29 H 0.3758 0.6362 0.4627
loop_
_geom_bond_atom_site_label_1
_geom_bond_atom_site_label_2
_geom_bond_site_symmetry_1
_geom_bond_site_symmetry_2
I1 C6 1_555 1_555
Cl1 C11 1_555 1_555
O1 C14 1_555 1_555
N1 N2 1_555 1_555
C1 H1 1_555 1_555
C2 C7 1_555 1_555
C3 H2 1_555 1_555
C4 C3 1_555 1_555
N2 N3 1_555 1_555
C5 C1 1_555 1_555
C6 C8 1_555 1_555
C7 N1 1_555 1_555
H3 C7 1_555 1_555
C8 C11 1_555 1_555
C9 C1 1_555 1_555
C10 C5 1_555 1_555
C11 C21 1_555 1_555
C12 C2 1_555 1_555
C13 C12 1_555 1_555
H4 C13 1_555 1_555
C14 C4 1_555 1_555
C15 C9 1_555 1_555
C16 C8 1_555 1_555
H5 C16 1_555 1_555
C17 C2 1_555 1_555
H6 C17 1_555 1_555
C18 C17 1_555 1_555
H7 C18 1_555 1_555
C19 C4 1_555 1_555
C20 C13 1_555 1_555
H8 C20 1_555 1_555
C21 H9 1_555 1_555
C22 C21 1_555 1_555
H10 C22 1_555 1_555
C23 C16 1_555 1_555
H11 C23 1_555 1_555
C24 C15 1_555 1_555
H12 C24 1_555 1_555
H13 C24 1_555 1_555
H14 C24 1_555 1_555
C25 C19 1_555 1_555
H15 C25 1_555 1_555
H16 C25 1_555 1_555
H17 C25 1_555 1_555
C26 C15 1_555 1_555
H18 C26 1_555 1_555
H19 C26 1_555 1_555
H20 C26 1_555 1_555
C27 C15 1_555 1_555
H21 C27 1_555 1_555
H22 C27 1_555 1_555
H23 C27 1_555 1_555
C28 C19 1_555 1_555
H24 C28 1_555 1_555
H25 C28 1_555 1_555
H26 C28 1_555 1_555
C29 C19 1_555 1_555
H27 C29 1_555 1_555
H28 C29 1_555 1_555
H29 C29 1_555 1_555
C3 C5 1_555 1_555
C5 C7 1_555 1_555
C6 C10 1_555 1_555
C9 C14 1_555 1_555
C10 C12 1_555 1_555
C18 C20 1_555 1_555
C22 C23 1_555 1_555

#END
