
#######################################################################
#
#                 Cambridge Crystallographic Data Centre
#                                CCDC 
#
#######################################################################
#
# If this CIF has been generated from an entry in the Cambridge 
# Structural Database, then it will include bibliographic, chemical, 
# crystal, experimental, refinement or atomic coordinate data resulting 
# from the CCDC's data processing and validation procedures.
#
#######################################################################

data_ZEZCIS
_chemical_formula_moiety         'C31 H24 O3'
_chemical_name_systematic        13-(Benzyloxy)-3,12-dimethoxybenzo[g]chrysene
_symmetry_cell_setting           monoclinic
_symmetry_space_group_name_H-M   'P 21/n'
_symmetry_Int_Tables_number      14
_space_group_name_Hall           '-P 2yn'
loop_
_symmetry_equiv_pos_site_id
_symmetry_equiv_pos_as_xyz
1 x,y,z
2 1/2-x,1/2+y,1/2-z
3 -x,-y,-z
4 1/2+x,1/2-y,1/2+z
_cell_length_a                   12.2066(3)
_cell_length_b                   8.1982(2)
_cell_length_c                   23.0377(6)
_cell_angle_alpha                90
_cell_angle_beta                 100.1510(10)
_cell_angle_gamma                90
_cell_volume                     2269.34
_exptl_crystal_colour            colorless
_cell_formula_units_Z            4
loop_
_atom_site_label
_atom_site_type_symbol
_atom_site_fract_x
_atom_site_fract_y
_atom_site_fract_z
O1 O -0.39012(9) 0.53494(18) 0.16298(5)
O2 O 0.15561(8) 0.64985(12) 0.01370(4)
O3 O 0.32500(9) 0.45780(14) 0.02024(4)
C1 C -0.44903(14) 0.5360(3) 0.21074(8)
H1 H -0.4360 0.4355 0.2322
H2 H -0.5272 0.5477 0.1959
H3 H -0.4238 0.6256 0.2365
C2 C -0.27701(12) 0.5179(2) 0.17628(6)
C3 C -0.21554(13) 0.5219(2) 0.23247(6)
H4 H -0.2512 0.5400 0.2644
C4 C -0.09954(12) 0.49910(17) 0.24225(6)
C5 C -0.04412(11) 0.47832(16) 0.19393(5)
C6 C 0.07478(11) 0.44246(15) 0.20369(5)
C7 C 0.14125(11) 0.45322(15) 0.15786(5)
C8 C 0.11185(11) 0.55063(16) 0.10618(5)
H5 H 0.0476 0.6138 0.1018
C9 C 0.17553(11) 0.55369(16) 0.06298(6)
C10 C 0.06555(13) 0.76316(18) 0.00957(6)
H6 H 0.0720 0.8256 0.0458
H7 H -0.0048 0.7050 0.0037
C11 C 0.06943(13) 0.87542(17) -0.04152(6)
C12 C -0.01514(16) 0.87682(19) -0.08909(7)
H8 H -0.0757 0.8073 -0.0902
C13 C -0.0105(2) 0.9832(2) -0.13618(7)
H9 H -0.0671 0.9828 -0.1690
C14 C 0.0777(2) 1.0879(3) -0.13380(9)
H10 H 0.0805 1.1590 -0.1650
C15 C -0.22387(13) 0.4889(2) 0.12850(6)
H11 H -0.2653 0.4824 0.0906
C16 C -0.11108(12) 0.47004(17) 0.13732(6)
H12 H -0.0770 0.4510 0.1049
C17 C -0.03703(12) 0.47971(18) 0.30233(6)
C18 C 0.07000(12) 0.40976(18) 0.31006(6)
C19 C 0.12564(11) 0.38600(16) 0.25959(6)
C20 C 0.24435(11) 0.37010(16) 0.16495(6)
C21 C 0.30538(12) 0.36672(17) 0.11813(6)
H13 H 0.3698 0.3042 0.1219
C22 C 0.27181(12) 0.45321(17) 0.06750(6)
C23 C 0.41418(16) 0.3465(3) 0.02082(8)
H14 H 0.4743 0.3753 0.0519
H15 H 0.4393 0.3509 -0.0164
H16 H 0.3893 0.2381 0.0273
C24 C 0.15706(15) 0.9829(2) -0.04038(9)
H17 H 0.2146 0.9838 -0.0080
C25 C 0.16050(19) 1.0883(3) -0.08637(11)
H18 H 0.2199 1.1601 -0.0849
C26 C 0.28596(12) 0.29506(18) 0.21976(6)
H19 H 0.3516 0.2351 0.2242
C27 C 0.23120(12) 0.30977(19) 0.26573(6)
H20 H 0.2638 0.2687 0.3023
C28 C 0.12225(14) 0.3697(2) 0.36802(6)
H21 H 0.1925 0.3222 0.3740
C29 C 0.07165(15) 0.3992(2) 0.41546(7)
H22 H 0.1064 0.3679 0.4530
C30 C -0.03075(15) 0.4752(3) 0.40786(7)
H23 H -0.0635 0.4988 0.4404
C31 C -0.08415(14) 0.5160(2) 0.35234(6)
H24 H -0.1527 0.5684 0.3476
loop_
_geom_bond_atom_site_label_1
_geom_bond_atom_site_label_2
_geom_bond_site_symmetry_1
_geom_bond_site_symmetry_2
O1 C1 1_555 1_555
O2 C9 1_555 1_555
O3 C22 1_555 1_555
C1 H1 1_555 1_555
H2 C1 1_555 1_555
H3 C1 1_555 1_555
C2 O1 1_555 1_555
C3 C2 1_555 1_555
H4 C3 1_555 1_555
C4 C3 1_555 1_555
C5 C4 1_555 1_555
C6 C5 1_555 1_555
C7 C6 1_555 1_555
C8 C7 1_555 1_555
H5 C8 1_555 1_555
C9 C8 1_555 1_555
C10 O2 1_555 1_555
H6 C10 1_555 1_555
H7 C10 1_555 1_555
C11 C10 1_555 1_555
C12 C11 1_555 1_555
H8 C12 1_555 1_555
C13 C12 1_555 1_555
H9 C13 1_555 1_555
C14 C13 1_555 1_555
H10 C14 1_555 1_555
C15 C2 1_555 1_555
H11 C15 1_555 1_555
C16 C5 1_555 1_555
H12 C16 1_555 1_555
C17 C4 1_555 1_555
C18 C17 1_555 1_555
C19 C6 1_555 1_555
C20 C7 1_555 1_555
C21 C20 1_555 1_555
H13 C21 1_555 1_555
C22 C9 1_555 1_555
C23 O3 1_555 1_555
H14 C23 1_555 1_555
H15 C23 1_555 1_555
H16 C23 1_555 1_555
C24 C11 1_555 1_555
H17 C24 1_555 1_555
C25 C14 1_555 1_555
H18 C25 1_555 1_555
C26 C20 1_555 1_555
H19 C26 1_555 1_555
C27 C19 1_555 1_555
H20 C27 1_555 1_555
C28 C18 1_555 1_555
H21 C28 1_555 1_555
C29 C28 1_555 1_555
H22 C29 1_555 1_555
C30 C29 1_555 1_555
H23 C30 1_555 1_555
C31 C17 1_555 1_555
H24 C31 1_555 1_555
C15 C16 1_555 1_555
C18 C19 1_555 1_555
C21 C22 1_555 1_555
C24 C25 1_555 1_555
C26 C27 1_555 1_555
C30 C31 1_555 1_555

#END
