
#######################################################################
#
#                 Cambridge Crystallographic Data Centre
#                                CCDC 
#
#######################################################################
#
# If this CIF has been generated from an entry in the Cambridge 
# Structural Database, then it will include bibliographic, chemical, 
# crystal, experimental, refinement or atomic coordinate data resulting 
# from the CCDC's data processing and validation procedures.
#
#######################################################################

data_ZEZYUA
_chemical_formula_moiety         'C12 H9 N3 O1 S1'
_chemical_name_systematic        'Furan-2-aldehyde benzo-1,3-thiazolehydrazone'
_symmetry_cell_setting           monoclinic
_symmetry_space_group_name_H-M   'I 2/a'
_symmetry_Int_Tables_number      15
_space_group_name_Hall           '-I 2ya'
loop_
_symmetry_equiv_pos_site_id
_symmetry_equiv_pos_as_xyz
1 x,y,z
2 1/2+x,1/2+y,1/2+z
3 1/2-x,y,-z
4 -x,1/2+y,1/2-z
5 -x,-y,-z
6 1/2-x,1/2-y,1/2-z
7 1/2+x,-y,z
8 x,1/2-y,1/2+z
_cell_length_a                   21.773(3)
_cell_length_b                   4.6227(7)
_cell_length_c                   22.282(5)
_cell_angle_alpha                90
_cell_angle_beta                 101.082(6)
_cell_angle_gamma                90
_cell_volume                     2200.87
_exptl_crystal_colour            'light brown'
_exptl_crystal_description       needle
_cell_formula_units_Z            8
loop_
_atom_site_label
_atom_site_type_symbol
_atom_site_fract_x
_atom_site_fract_y
_atom_site_fract_z
S1 S 0.51232(8) 0.5762(4) 0.42129(7)
O1 O 0.3050(2) 1.4496(12) 0.2919(2)
N1 N 0.4609(3) 0.7573(13) 0.3082(2)
H1 H 0.460(3) 0.810(15) 0.2707(14)
N2 N 0.4257(3) 0.9320(13) 0.3383(2)
N3 N 0.5408(2) 0.4177(13) 0.3174(2)
C1 C 0.5036(3) 0.5855(16) 0.3414(3)
C2 C 0.5806(3) 0.2675(15) 0.3631(3)
C3 C 0.5728(3) 0.3254(15) 0.4232(3)
C4 C 0.6105(3) 0.1972(16) 0.4729(3)
H2 H 0.6047 0.2378 0.5132
C5 C 0.6565(3) 0.0102(17) 0.4632(3)
H3 H 0.6831 -0.0784 0.4970
C6 C 0.6643(3) -0.0506(16) 0.4033(3)
H4 H 0.6964 -0.1805 0.3971
C7 C 0.6266(3) 0.0741(17) 0.3536(3)
H5 H 0.6319 0.0289 0.3134
C8 C 0.3872(3) 1.0997(16) 0.3048(3)
H6 H 0.3845 1.0989 0.2618
C9 C 0.3476(3) 1.2909(16) 0.3317(3)
C10 C 0.3428(3) 1.3547(16) 0.3902(3)
H7 H 0.3673 1.2775 0.4266
C11 C 0.2945(3) 1.5563(17) 0.3860(3)
H8 H 0.2798 1.6411 0.4194
C12 C 0.2727(3) 1.6095(17) 0.3269(3)
H9 H 0.2395 1.7392 0.3115
loop_
_geom_bond_atom_site_label_1
_geom_bond_atom_site_label_2
_geom_bond_site_symmetry_1
_geom_bond_site_symmetry_2
S1 C1 1_555 1_555
O1 C9 1_555 1_555
N1 H1 1_555 1_555
N2 N1 1_555 1_555
N3 C1 1_555 1_555
C1 N1 1_555 1_555
C2 N3 1_555 1_555
C3 S1 1_555 1_555
C4 C3 1_555 1_555
H2 C4 1_555 1_555
C5 C4 1_555 1_555
H3 C5 1_555 1_555
C6 C5 1_555 1_555
H4 C6 1_555 1_555
C7 C2 1_555 1_555
H5 C7 1_555 1_555
C8 N2 1_555 1_555
H6 C8 1_555 1_555
C9 C8 1_555 1_555
C10 C9 1_555 1_555
H7 C10 1_555 1_555
C11 C10 1_555 1_555
H8 C11 1_555 1_555
C12 O1 1_555 1_555
H9 C12 1_555 1_555
C2 C3 1_555 1_555
C6 C7 1_555 1_555
C11 C12 1_555 1_555

#END
