
#######################################################################
#
#                 Cambridge Crystallographic Data Centre
#                                CCDC 
#
#######################################################################
#
# If this CIF has been generated from an entry in the Cambridge 
# Structural Database, then it will include bibliographic, chemical, 
# crystal, experimental, refinement or atomic coordinate data resulting 
# from the CCDC's data processing and validation procedures.
#
#######################################################################

data_ZEZZOW
_chemical_formula_moiety         'C21 H24 O4 S1'
_chemical_name_systematic        
5-{[(4-t-butylphenyl)sulfonyl]methyl}-5-phenyloxolan-2-one
_symmetry_cell_setting           triclinic
_symmetry_space_group_name_H-M   'P 1'
_symmetry_Int_Tables_number      1
_space_group_name_Hall           'P 1'
loop_
_symmetry_equiv_pos_site_id
_symmetry_equiv_pos_as_xyz
1 x,y,z
_cell_length_a                   5.976(5)
_cell_length_b                   8.529(7)
_cell_length_c                   9.829(8)
_cell_angle_alpha                88.383(11)
_cell_angle_beta                 80.040(11)
_cell_angle_gamma                78.123(11)
_cell_volume                     482.849
_cell_formula_units_Z            1
loop_
_atom_site_label
_atom_site_type_symbol
_atom_site_fract_x
_atom_site_fract_y
_atom_site_fract_z
C1 C 0.9742(17) 0.2292(12) -0.0028(9)
H1 H 0.896991 0.301842 -0.064454
H2 H 1.052741 0.131939 -0.051545
H3 H 1.085014 0.277514 0.031633
C2 C 0.6290(12) 0.1106(10) 0.0602(8)
H4 H 0.539193 0.185436 0.005688
H5 H 0.527294 0.074354 0.135451
H6 H 0.714031 0.020628 0.003598
C3 C 0.9244(16) 0.0762(10) 0.2132(9)
H7 H 1.022625 -0.012843 0.160712
H8 H 0.813058 0.038070 0.281510
H9 H 1.017141 0.130918 0.257994
C4 C 0.7974(9) 0.1916(7) 0.1166(5)
C5 C 0.6734(8) 0.3426(6) 0.2016(5)
C6 C 0.7769(9) 0.4720(7) 0.2079(5)
H10 H 0.924659 0.468576 0.157511
C7 C 0.6678(9) 0.6066(7) 0.2869(6)
H11 H 0.740395 0.692983 0.288313
C8 C 0.4493(8) 0.6113(6) 0.3638(5)
C9 C 0.3433(9) 0.4832(7) 0.3600(6)
H12 H 0.196225 0.486189 0.411138
C10 C 0.4553(10) 0.3505(7) 0.2803(6)
H13 H 0.382656 0.264085 0.279308
C11 C 0.4649(8) 0.7962(6) 0.5992(5)
H14 H 0.626764 0.784842 0.557204
H15 H 0.414620 0.904220 0.636634
C12 C 0.4559(8) 0.6832(6) 0.7202(5)
C13 C 0.5376(8) 0.5071(5) 0.6818(5)
C14 C 0.7644(9) 0.4498(6) 0.6186(5)
H16 H 0.866105 0.519874 0.600240
C15 C 0.8412(11) 0.2916(7) 0.5827(6)
H17 H 0.992817 0.256352 0.537461
C16 C 0.6970(11) 0.1839(7) 0.6128(6)
H18 H 0.749779 0.076044 0.589724
C17 C 0.4710(11) 0.2406(7) 0.6784(7)
H19 H 0.372182 0.169038 0.700349
C18 C 0.3897(10) 0.3992(6) 0.7116(6)
H20 H 0.236381 0.434926 0.753813
C19 C 0.5900(10) 0.7340(7) 0.8279(6)
H21 H 0.746970 0.671182 0.817373
H22 H 0.595739 0.846796 0.819807
C20 C 0.4514(12) 0.7008(9) 0.9606(6)
H23 H 0.452800 0.779070 1.029948
H24 H 0.512813 0.594807 0.992988
C21 C 0.2117(10) 0.7111(6) 0.9331(6)
O1 O 0.3340(8) 0.9238(5) 0.3803(5)
O2 O 0.0749(6) 0.7623(5) 0.5200(4)
O3 O 0.2172(5) 0.7120(4) 0.7933(3)
O4 O 0.0289(8) 0.7187(6) 1.0087(4)
S1 S 0.30567(18) 0.78337(14) 0.46252(13)
loop_
_geom_bond_atom_site_label_1
_geom_bond_atom_site_label_2
_geom_bond_site_symmetry_1
_geom_bond_site_symmetry_2
C1 H1 1_555 1_555
H2 C1 1_555 1_555
H3 C1 1_555 1_555
C2 H4 1_555 1_555
H5 C2 1_555 1_555
H6 C2 1_555 1_555
C3 H7 1_555 1_555
H8 C3 1_555 1_555
H9 C3 1_555 1_555
C4 C1 1_555 1_555
C5 C4 1_555 1_555
C6 C5 1_555 1_555
H10 C6 1_555 1_555
C7 C6 1_555 1_555
H11 C7 1_555 1_555
C8 C7 1_555 1_555
C9 C8 1_555 1_555
H12 C9 1_555 1_555
C10 C5 1_555 1_555
H13 C10 1_555 1_555
C11 H14 1_555 1_555
H15 C11 1_555 1_555
C12 C11 1_555 1_555
C13 C12 1_555 1_555
C14 C13 1_555 1_555
H16 C14 1_555 1_555
C15 C14 1_555 1_555
H17 C15 1_555 1_555
C16 C15 1_555 1_555
H18 C16 1_555 1_555
C17 C16 1_555 1_555
H19 C17 1_555 1_555
C18 C13 1_555 1_555
H20 C18 1_555 1_555
C19 C12 1_555 1_555
H21 C19 1_555 1_555
H22 C19 1_555 1_555
C20 C19 1_555 1_555
H23 C20 1_555 1_555
H24 C20 1_555 1_555
C21 C20 1_555 1_555
O1 S1 1_555 1_555
O2 S1 1_555 1_555
O3 C12 1_555 1_555
O4 C21 1_555 1_555
S1 C8 1_555 1_555
C2 C4 1_555 1_555
C3 C4 1_555 1_555
C9 C10 1_555 1_555
C11 S1 1_555 1_555
C17 C18 1_555 1_555
C21 O3 1_555 1_555

#END
