
#######################################################################
#
#                 Cambridge Crystallographic Data Centre
#                                CCDC 
#
#######################################################################
#
# If this CIF has been generated from an entry in the Cambridge 
# Structural Database, then it will include bibliographic, chemical, 
# crystal, experimental, refinement or atomic coordinate data resulting 
# from the CCDC's data processing and validation procedures.
#
#######################################################################

data_ZEZZAH
_chemical_formula_moiety         'C19 H14 N4 S1'
_chemical_name_systematic        
(E)-2-((4-(Pyridin-2-yl)phenylmethylene)hydrazinyl)benzo[d]thiazole
_symmetry_cell_setting           monoclinic
_symmetry_space_group_name_H-M   'P 21/n'
_symmetry_Int_Tables_number      14
_space_group_name_Hall           '-P 2yn'
loop_
_symmetry_equiv_pos_site_id
_symmetry_equiv_pos_as_xyz
1 x,y,z
2 1/2-x,1/2+y,1/2-z
3 -x,-y,-z
4 1/2+x,1/2-y,1/2+z
_cell_length_a                   16.1124(6)
_cell_length_b                   3.8329(2)
_cell_length_c                   25.1692(11)
_cell_angle_alpha                90
_cell_angle_beta                 101.272(2)
_cell_angle_gamma                90
_cell_volume                     1524.4
_exptl_crystal_colour            colorless
_exptl_crystal_description       lath
_cell_formula_units_Z            4
loop_
_atom_site_label
_atom_site_type_symbol
_atom_site_fract_x
_atom_site_fract_y
_atom_site_fract_z
S1 S 0.10029(4) 0.01348(18) 0.39298(3)
N1 N -0.02759(12) 0.3012(6) 0.42709(8)
N2 N 0.09781(12) 0.2637(6) 0.49191(8)
H1 H 0.0765(17) 0.376(8) 0.5189(11)
N3 N 0.17928(12) 0.1417(6) 0.50259(8)
N4 N 0.58543(13) -0.3581(6) 0.67894(9)
C1 C 0.56253(14) -0.2858(7) 0.62558(10)
C2 C 0.47393(14) -0.1652(6) 0.60577(9)
C3 C 0.61778(15) -0.3231(7) 0.59011(11)
H2 H 0.5999 -0.2698 0.5528
C4 C -0.05615(14) 0.2080(7) 0.37283(10)
C5 C 0.34537(15) 0.0926(7) 0.62329(10)
H3 H 0.3153 0.1974 0.6480
C6 C 0.21767(15) 0.1597(7) 0.55217(10)
H4 H 0.1892(16) 0.255(7) 0.5801(11)
C7 C 0.35032(15) -0.1119(7) 0.53383(10)
H5 H 0.3239 -0.1483 0.4971
C8 C -0.09624(16) -0.0005(7) 0.26465(10)
H6 H -0.1106 -0.0666 0.2276
C9 C 0.43350(15) -0.2132(7) 0.55189(10)
H7 H 0.4637 -0.3176 0.5272
C10 C 0.42894(14) -0.0096(7) 0.64142(9)
H8 H 0.4554 0.0267 0.6782
C11 C 0.66496(16) -0.4734(8) 0.69696(11)
H9 H 0.6816 -0.5286 0.7343
C12 C 0.30494(14) 0.0445(6) 0.56966(9)
C13 C 0.72346(15) -0.5157(8) 0.66428(12)
H10 H 0.7791 -0.5956 0.6788
C14 C -0.13845(15) 0.2506(7) 0.34339(10)
H11 H -0.1810 0.3500 0.3600
C15 C 0.00428(15) 0.0530(7) 0.34712(10)
C16 C -0.15745(16) 0.1467(7) 0.28976(11)
H12 H -0.2134 0.1764 0.2697
C17 C 0.05202(14) 0.2129(7) 0.44181(10)
C18 C 0.69908(15) -0.4387(8) 0.60981(11)
H13 H 0.7379 -0.4651 0.5861
C19 C -0.01445(16) -0.0516(7) 0.29324(10)
H14 H 0.0275 -0.1550 0.2765
loop_
_geom_bond_atom_site_label_1
_geom_bond_atom_site_label_2
_geom_bond_site_symmetry_1
_geom_bond_site_symmetry_2
S1 C15 1_555 1_555
N1 C4 1_555 1_555
N2 H1 1_555 1_555
N3 N2 1_555 1_555
N4 C1 1_555 1_555
C1 C2 1_555 1_555
C2 C9 1_555 1_555
C3 C1 1_555 1_555
H2 C3 1_555 1_555
C4 C14 1_555 1_555
C5 H3 1_555 1_555
C6 N3 1_555 1_555
H4 C6 1_555 1_555
C7 H5 1_555 1_555
C8 H6 1_555 1_555
C9 C7 1_555 1_555
H7 C9 1_555 1_555
C10 C2 1_555 1_555
H8 C10 1_555 1_555
C11 N4 1_555 1_555
H9 C11 1_555 1_555
C12 C5 1_555 1_555
C13 C11 1_555 1_555
H10 C13 1_555 1_555
C14 H11 1_555 1_555
C15 C4 1_555 1_555
C16 C8 1_555 1_555
H12 C16 1_555 1_555
C17 S1 1_555 1_555
C18 C3 1_555 1_555
H13 C18 1_555 1_555
C19 C8 1_555 1_555
H14 C19 1_555 1_555
N1 C17 1_555 1_555
N2 C17 1_555 1_555
C5 C10 1_555 1_555
C6 C12 1_555 1_555
C7 C12 1_555 1_555
C13 C18 1_555 1_555
C14 C16 1_555 1_555
C15 C19 1_555 1_555

#END
