
#######################################################################
#
#                 Cambridge Crystallographic Data Centre
#                                CCDC 
#
#######################################################################
#
# If this CIF has been generated from an entry in the Cambridge 
# Structural Database, then it will include bibliographic, chemical, 
# crystal, experimental, refinement or atomic coordinate data resulting 
# from the CCDC's data processing and validation procedures.
#
#######################################################################

data_ZIBDAS
_chemical_formula_moiety         'C24 H26 O7'
_chemical_name_systematic        
1',4a',10',10',11b'-pentamethyl-2a',4a',5',5a',10',11a',11b',12c'-octahydro-8'H-spiro[oxirane-2,6'-[2,3,9,12]tetraoxabenzo[5,6]cyclohepta[1,2,3-bc]cyclopenta[fg]acenaphthylene]-4',8'(1'H)-dione
_symmetry_cell_setting           orthorhombic
_symmetry_space_group_name_H-M   'P 21 21 21'
_symmetry_Int_Tables_number      19
_space_group_name_Hall           'P 2ac 2ab'
loop_
_symmetry_equiv_pos_site_id
_symmetry_equiv_pos_as_xyz
1 x,y,z
2 1/2-x,-y,1/2+z
3 1/2+x,1/2-y,-z
4 -x,1/2+y,1/2-z
_cell_length_a                   10.908(5)
_cell_length_b                   12.474(7)
_cell_length_c                   15.344(7)
_cell_angle_alpha                90
_cell_angle_beta                 90
_cell_angle_gamma                90
_cell_volume                     2087.8
_exptl_crystal_colour            colorless
_exptl_crystal_description       block
_cell_formula_units_Z            4
loop_
_atom_site_label
_atom_site_type_symbol
_atom_site_fract_x
_atom_site_fract_y
_atom_site_fract_z
O1 O 0.1234(2) -0.32173(15) 0.67401(15)
O2 O 0.25484(19) -0.26704(12) 0.57479(11)
O3 O 0.21131(15) 0.04001(12) 0.78133(9)
O4 O 0.21605(13) 0.16305(11) 0.42802(8)
O5 O 0.13392(19) 0.44673(13) 0.45101(12)
O6 O 0.28688(17) 0.45609(13) 0.55669(11)
O7 O 0.41984(18) 0.39148(17) 0.65260(15)
C1 C 0.1892(2) -0.25059(17) 0.64763(15)
C2 C 0.1999(2) -0.14669(17) 0.69058(13)
H1 H 0.176379 -0.139794 0.748570
C3 C 0.24284(18) -0.06144(15) 0.64794(12)
C4 C 0.26042(17) 0.04294(15) 0.69441(11)
C5 C 0.24607(16) 0.14811(14) 0.64469(11)
H2 H 0.322937 0.162193 0.613681
C6 C 0.2242(2) 0.24110(16) 0.70924(12)
H3 H 0.154021 0.222878 0.745140
H4 H 0.294800 0.245754 0.747476
C7 C 0.2019(2) 0.35207(16) 0.67003(13)
C8 C 0.3160(2) 0.39868(18) 0.62810(14)
C9 C 0.18268(18) 0.35635(17) 0.40383(13)
H5 H 0.268729 0.369954 0.389160
C10 C 0.17419(17) 0.25934(16) 0.45972(12)
C11 C 0.13040(17) 0.25631(15) 0.53973(13)
C12 C 0.14122(15) 0.14492(15) 0.57666(12)
C13 C 0.17311(18) 0.08355(16) 0.49149(11)
H6 H 0.095087 0.056410 0.468776
C14 C 0.2587(2) -0.00923(16) 0.49108(12)
H7 H 0.300206 -0.021982 0.439162
C15 C 0.28281(18) -0.07641(15) 0.55673(12)
C16 C 0.3435(2) -0.18496(17) 0.54328(14)
C17 C 0.4617(3) -0.1976(2) 0.59413(18)
H8 H 0.520027 -0.145210 0.574659
H9 H 0.445669 -0.187370 0.655091
H10 H 0.494157 -0.268194 0.584857
C18 C 0.3618(4) -0.2169(2) 0.44871(16)
H11 H 0.418475 -0.168325 0.421614
H12 H 0.394000 -0.288467 0.446029
H13 H 0.284700 -0.214116 0.418689
C19 C 0.02066(18) 0.1038(2) 0.61532(14)
H14 H 0.032481 0.032790 0.637874
H15 H -0.004993 0.150570 0.661551
H16 H -0.041104 0.102351 0.570762
C20 C 0.1085(2) 0.3461(2) 0.32083(15)
H17 H 0.138294 0.286536 0.287410
H18 H 0.023841 0.334715 0.335202
H19 H 0.116305 0.410731 0.287258
C21 C 0.11108(19) 0.35457(17) 0.59328(13)
H20 H 0.025897 0.362124 0.612630
C22 C 0.1550(3) 0.45169(18) 0.54016(17)
H21 H 0.116606 0.516691 0.563472
C23 C 0.1625(3) 0.4275(2) 0.74411(16)
H22 H 0.090229 0.399592 0.771682
H23 H 0.227331 0.432788 0.786194
H24 H 0.145293 0.497295 0.720719
C24 C 0.3418(2) 0.03725(19) 0.77127(13)
H25 H 0.383495 -0.029981 0.782687
H26 H 0.387740 0.101034 0.786818
loop_
_geom_bond_atom_site_label_1
_geom_bond_atom_site_label_2
_geom_bond_site_symmetry_1
_geom_bond_site_symmetry_2
O1 C1 1_555 1_555
O2 C1 1_555 1_555
O3 C4 1_555 1_555
O4 C10 1_555 1_555
O5 C9 1_555 1_555
O6 C8 1_555 1_555
O7 C8 1_555 1_555
C1 C2 1_555 1_555
C2 H1 1_555 1_555
C3 C2 1_555 1_555
C4 C3 1_555 1_555
C5 C4 1_555 1_555
H2 C5 1_555 1_555
C6 C5 1_555 1_555
H3 C6 1_555 1_555
H4 C6 1_555 1_555
C7 C6 1_555 1_555
C8 C7 1_555 1_555
C9 H5 1_555 1_555
C10 C9 1_555 1_555
C11 C10 1_555 1_555
C12 C5 1_555 1_555
C13 O4 1_555 1_555
H6 C13 1_555 1_555
C14 C13 1_555 1_555
H7 C14 1_555 1_555
C15 C3 1_555 1_555
C16 O2 1_555 1_555
C17 C16 1_555 1_555
H8 C17 1_555 1_555
H9 C17 1_555 1_555
H10 C17 1_555 1_555
C18 C16 1_555 1_555
H11 C18 1_555 1_555
H12 C18 1_555 1_555
H13 C18 1_555 1_555
C19 C12 1_555 1_555
H14 C19 1_555 1_555
H15 C19 1_555 1_555
H16 C19 1_555 1_555
C20 C9 1_555 1_555
H17 C20 1_555 1_555
H18 C20 1_555 1_555
H19 C20 1_555 1_555
C21 C7 1_555 1_555
H20 C21 1_555 1_555
C22 O5 1_555 1_555
H21 C22 1_555 1_555
C23 C7 1_555 1_555
H22 C23 1_555 1_555
H23 C23 1_555 1_555
H24 C23 1_555 1_555
C24 O3 1_555 1_555
H25 C24 1_555 1_555
H26 C24 1_555 1_555
O6 C22 1_555 1_555
C4 C24 1_555 1_555
C11 C12 1_555 1_555
C11 C21 1_555 1_555
C12 C13 1_555 1_555
C14 C15 1_555 1_555
C15 C16 1_555 1_555
C21 C22 1_555 1_555

#END
