
#######################################################################
#
#                 Cambridge Crystallographic Data Centre
#                                CCDC 
#
#######################################################################
#
# If this CIF has been generated from an entry in the Cambridge 
# Structural Database, then it will include bibliographic, chemical, 
# crystal, experimental, refinement or atomic coordinate data resulting 
# from the CCDC's data processing and validation procedures.
#
#######################################################################

data_ZIBFEY
_chemical_formula_moiety         'C23 H32 O9'
_chemical_name_systematic        
'8,9-bis(acetyloxy)-5-hydroxy-5,8a-dimethyl-3-methylidene-2-oxododecahydronaphtho[2,3-b]furan-4-yl 2-methylpropanoate'
_symmetry_cell_setting           hexagonal
_symmetry_space_group_name_H-M   'P 61'
_symmetry_Int_Tables_number      169
_space_group_name_Hall           'P 61'
loop_
_symmetry_equiv_pos_site_id
_symmetry_equiv_pos_as_xyz
1 x,y,z
2 x-y,x,1/6+z
3 -y,x-y,1/3+z
4 -x,-y,1/2+z
5 -x+y,-x,2/3+z
6 y,-x+y,5/6+z
_cell_length_a                   9.82339(15)
_cell_length_b                   9.82339(15)
_cell_length_c                   42.4230(7)
_cell_angle_alpha                90
_cell_angle_beta                 90
_cell_angle_gamma                120
_cell_volume                     3545.31
_cell_formula_units_Z            6
loop_
_atom_site_label
_atom_site_type_symbol
_atom_site_fract_x
_atom_site_fract_y
_atom_site_fract_z
O1 O 0.53451(16) 0.69763(15) 0.13972(3)
O2 O 0.37982(17) 0.25077(15) 0.19899(3)
O3 O 0.77939(16) 0.74202(18) 0.17505(4)
O4 O 0.47219(19) 0.44963(18) 0.07400(3)
C1 C 0.6591(2) 0.5818(2) 0.16805(5)
H1 H 0.7065 0.5148 0.1666
O5 O 0.3462(3) 0.2929(2) 0.24939(4)
O6 O 0.05589(19) 0.2469(2) 0.17593(4)
H2 H -0.0213 0.1601 0.1790
C2 C 0.5825(2) 0.5804(2) 0.13701(4)
H3 H 0.6590 0.6093 0.1199
C3 C 0.4389(2) 0.4177(2) 0.13029(4)
C4 C 0.3604(3) 0.2133(3) 0.22977(5)
C5 C 0.3627(3) 0.4276(2) 0.09933(5)
H4 H 0.3496 0.5201 0.1002
O7 O 0.7881(3) 0.9471(2) 0.19965(5)
C6 C 0.5464(2) 0.5311(2) 0.19636(4)
H5 H 0.5923 0.4961 0.2128
C7 C 0.5661(3) 0.6845(2) 0.20726(5)
C8 C 0.3804(2) 0.3947(2) 0.19051(4)
H6 H 0.3092 0.4067 0.2049
C9 C 0.4992(3) 0.3005(2) 0.12788(5)
H7 H 0.5993 0.3498 0.1174
H8 H 0.4256 0.2101 0.1160
H9 H 0.5103 0.2685 0.1486
C10 C 0.3171(2) 0.3818(2) 0.15696(4)
H10 H 0.2977 0.4703 0.1557
C11 C 0.1506(2) 0.2357(2) 0.15122(5)
O8 O 0.6898(4) 0.8416(3) 0.09996(7)
C12 C 0.7199(3) 0.8082(2) 0.19460(5)
C13 C 0.4775(5) 0.7169(4) 0.22508(8)
C14 C 0.2054(3) 0.2851(3) 0.09238(5)
H11 H 0.2172 0.1933 0.0901
H12 H 0.1637 0.3004 0.0728
C15 C 0.0921(3) 0.2598(3) 0.11958(6)
H13 H 0.0777 0.3504 0.1210
H14 H -0.0093 0.1686 0.1150
O9 O 0.3920(4) 0.5945(3) 0.04682(5)
C16 C 0.6051(3) 0.8274(3) 0.12126(6)
C17 C 0.1361(3) 0.0729(3) 0.15218(7)
H15 H 0.1599 0.0529 0.1730
H16 H 0.2084 0.0697 0.1374
H17 H 0.0308 -0.0057 0.1467
C18 C 0.4705(4) 0.5329(3) 0.04881(6)
C19 C 0.5791(5) 0.5379(4) 0.02362(7)
H18 H 0.6796 0.6315 0.0259
H19 H 0.5360 0.5380 0.0033
H20 H 0.5916 0.4473 0.0254
C20 C 0.3567(4) 0.0618(3) 0.23618(7)
H21 H 0.4116 0.0379 0.2197
C21 C 0.5603(5) 0.9444(3) 0.13093(9)
H22 H 0.4500 0.8917 0.1357
H23 H 0.5823 1.0178 0.1141
H24 H 0.6194 0.9997 0.1493
C22 C 0.4184(12) 0.0610(8) 0.26726(18)
H25 H 0.5235 0.1484 0.2691
H26 H 0.4196 -0.0353 0.2702
H27 H 0.3530 0.0695 0.2830
C23 C 0.1895(11) -0.0642(7) 0.2388(3)
H28 H 0.1308 -0.0240 0.2495
H29 H 0.1829 -0.1510 0.2505
H30 H 0.1467 -0.0989 0.2181
H31 H 0.383(5) 0.645(5) 0.2321(9)
H32 H 0.511(4) 0.821(4) 0.2311(8)
loop_
_geom_bond_atom_site_label_1
_geom_bond_atom_site_label_2
_geom_bond_site_symmetry_1
_geom_bond_site_symmetry_2
O1 C2 1_555 1_555
O2 C4 1_555 1_555
O3 C1 1_555 1_555
O4 C5 1_555 1_555
C1 H1 1_555 1_555
O5 C4 1_555 1_555
O6 H2 1_555 1_555
C2 C1 1_555 1_555
H3 C2 1_555 1_555
C3 C2 1_555 1_555
C4 C20 1_555 1_555
C5 C3 1_555 1_555
H4 C5 1_555 1_555
O7 C12 1_555 1_555
C6 C1 1_555 1_555
H5 C6 1_555 1_555
C7 C6 1_555 1_555
C8 O2 1_555 1_555
H6 C8 1_555 1_555
C9 C3 1_555 1_555
H7 C9 1_555 1_555
H8 C9 1_555 1_555
H9 C9 1_555 1_555
C10 C3 1_555 1_555
H10 C10 1_555 1_555
C11 O6 1_555 1_555
O8 C16 1_555 1_555
C12 O3 1_555 1_555
C13 C7 1_555 1_555
C14 C5 1_555 1_555
H11 C14 1_555 1_555
H12 C14 1_555 1_555
C15 C11 1_555 1_555
H13 C15 1_555 1_555
H14 C15 1_555 1_555
O9 C18 1_555 1_555
C16 O1 1_555 1_555
C17 C11 1_555 1_555
H15 C17 1_555 1_555
H16 C17 1_555 1_555
H17 C17 1_555 1_555
C18 O4 1_555 1_555
C19 C18 1_555 1_555
H18 C19 1_555 1_555
H19 C19 1_555 1_555
H20 C19 1_555 1_555
C20 H21 1_555 1_555
C21 C16 1_555 1_555
H22 C21 1_555 1_555
H23 C21 1_555 1_555
H24 C21 1_555 1_555
C22 C20 1_555 1_555
H25 C22 1_555 1_555
H26 C22 1_555 1_555
H27 C22 1_555 1_555
C23 C20 1_555 1_555
H28 C23 1_555 1_555
H29 C23 1_555 1_555
H30 C23 1_555 1_555
H31 C13 1_555 1_555
H32 C13 1_555 1_555
C6 C8 1_555 1_555
C7 C12 1_555 1_555
C8 C10 1_555 1_555
C10 C11 1_555 1_555
C14 C15 1_555 1_555

#END
