
#######################################################################
#
#                 Cambridge Crystallographic Data Centre
#                                CCDC 
#
#######################################################################
#
# If this CIF has been generated from an entry in the Cambridge 
# Structural Database, then it will include bibliographic, chemical, 
# crystal, experimental, refinement or atomic coordinate data resulting 
# from the CCDC's data processing and validation procedures.
#
#######################################################################

data_ZIBPOP
_chemical_formula_moiety         'C40 H55 N1 O12'
_chemical_name_systematic        
19-(4-(4-Nitrobenzoyloxy)-5-methyl-5-(3-methyl-2,3-epoxypent-4-enyl)-2-tetrahydrofuranyl)-7,7,12,19,22-pentamethyl-2,6,8,11,15,20-hexaoxapentacyclo(12.9.0.0^3,12^.0^5,10^.0^16,21^)tricosane
_symmetry_cell_setting           orthorhombic
_symmetry_space_group_name_H-M   'P 21 21 21'
_symmetry_Int_Tables_number      19
_space_group_name_Hall           'P 2ac 2ab'
loop_
_symmetry_equiv_pos_site_id
_symmetry_equiv_pos_as_xyz
1 x,y,z
2 1/2-x,-y,1/2+z
3 1/2+x,1/2-y,-z
4 -x,1/2+y,1/2-z
_cell_length_a                   6.220(1)
_cell_length_b                   10.014(3)
_cell_length_c                   62.88(1)
_cell_angle_alpha                90
_cell_angle_beta                 90
_cell_angle_gamma                90
_cell_volume                     3916.61
_exptl_crystal_colour            white
_chemical_melting_point          168-170deg.C
_cell_formula_units_Z            4
loop_
_atom_site_label
_atom_site_type_symbol
_atom_site_fract_x
_atom_site_fract_y
_atom_site_fract_z
C1 C 0.147(2) 0.810(1) 0.0610(1)
C2 C 0.006(1) 0.933(1) 0.0608(1)
C3 C -0.038(1) 0.964(1) 0.0841(1)
C4 C 0.143(2) 0.8937(9) 0.0963(1)
C5 C 0.299(1) 0.9796(9) 0.1085(1)
C6 C 0.471(1) 0.892(1) 0.1189(1)
C7 C 0.396(2) 0.821(1) 0.1390(1)
C8 C 0.305(1) 0.9258(8) 0.1539(1)
C9 C 0.106(1) 0.9881(8) 0.1424(1)
C10 C -0.026(1) 1.0851(9) 0.1568(1)
C11 C 0.100(1) 1.1545(8) 0.1740(1)
C12 C 0.132(1) 1.0642(8) 0.1936(1)
C13 C 0.296(1) 0.9532(8) 0.1912(1)
C14 C 0.307(1) 0.8683(7) 0.2115(1)
C15 C 0.350(1) 0.9621(7) 0.2309(1)
C16 C 0.180(1) 1.0708(7) 0.2306(1)
C17 C 0.193(1) 1.1633(7) 0.2498(1)
C18 C 0.161(1) 1.0700(7) 0.2684(1)
C19 C 0.326(1) 0.9599(8) 0.2686(1)
C20 C 0.283(1) 0.8689(8) 0.2879(1)
C21 C 0.146(1) 1.0610(8) 0.3062(1)
C22 C 0.013(2) 0.686(1) 0.0621(2)
C23 C 0.101(3) 0.568(1) 0.0717(2)
C24 C 0.062(3) 0.512(1) 0.0925(2)
C25 C 0.250(5) 0.449(2) 0.1041(2)
C26 C 0.284(3) 0.444(2) 0.1237(3)
C27 C -0.123(3) 0.559(2) 0.1049(2)
C28 C 0.001(2) 1.139(1) 0.0416(1)
C29 C 0.123(2) 1.248(1) 0.0325(1)
C30 C 0.034(2) 1.330(1) 0.0179(1)
C31 C 0.144(2) 1.434(1) 0.0085(1)
C32 C 0.349(2) 1.458(1) 0.0152(1)
C33 C 0.444(2) 1.380(1) 0.0303(1)
C34 C 0.340(2) 1.270(1) 0.0386(1)
C35 C 0.318(2) 0.800(1) 0.0431(1)
C36 C 0.405(1) 1.087(1) 0.0944(1)
C37 C -0.140(2) 1.191(1) 0.1426(1)
C38 C 0.583(1) 1.01030(9) 0.2301(1)
C39 C 0.212(2) 1.149(1) 0.3251(1)
C40 C -0.093(2) 1.018(1) 0.3085(1)
N1 N 0.478(2) 1.5640(8) 0.0053(1)
O1 O 0.268(1) 0.8223(6) 0.08028(8)
O2 O 0.1868(9) 1.0582(6) 0.12442(7)
O3 O 0.2468(9) 0.8668(5) 0.17369(7)
O4 O 0.1912(8) 1.1473(5) 0.21111(7)
O5 O 0.3140(8) 0.8815(4) 0.24959(7)
O6 O 0.1768(9) 1.1422(5) 0.28814(7)
O7 O 0.284(1) 0.9493(6) 0.30625(7)
O8 O 0.004(3) 0.443(1) 0.0735(2)
O9 O 0.116(1) 1.0437(7) 0.05069(8)
O10 O -0.197(1) 1.1344(9) 0.0414(1)
O11 O 0.382(2) 1.6331(8) -0.0073(1)
O12 O 0.672(2) 1.576(1) 0.0104(2)
H1 H -0.1249 0.9160 0.0527
H2 H 0.0691 0.8361 0.1067
H3 H 0.4075 0.9982 0.1566
H4 H 0.0052 0.9146 0.1394
H5 H -0.1253 1.0328 0.1647
H6 H 0.0030 1.0137 0.1955
H7 H 0.4305 1.0004 0.1893
H8 H 0.0435 1.0278 0.2316
H9 H 0.0201 1.0304 0.2672
H10 H 0.4679 1.0024 0.2692
H11 H 0.2335 0.6014 0.0643
H12 H -0.0353 1.0592 0.0865
H13 H -0.1809 0.9339 0.0882
H14 H 0.5002 0.8149 0.1085
H15 H 0.5963 0.9333 0.1212
H16 H 0.2817 0.7586 0.1358
H17 H 0.5093 0.7761 0.1455
H18 H 0.2360 1.1800 0.1684
H19 H 0.0239 1.2328 0.1783
H20 H 0.1712 0.8226 0.2131
H21 H 0.4163 0.8022 0.2099
H22 H 0.3316 1.2046 0.2505
H23 H 0.0860 1.2305 0.2492
H24 H 0.1455 0.8267 0.2859
H25 H 0.3899 0.8008 0.2887
H26 H -0.1211 0.6989 0.0706
H27 H -0.0421 0.6560 0.0482
H28 H 0.3657 0.4045 0.0959
H29 H 0.3572 0.3805 0.1339
H30 H 0.2345 0.5260 0.1346
H31 H -0.1175 1.3210 0.0148
H32 H 0.0788 1.4862 -0.0027
H33 H 0.5848 1.4014 0.0358
H34 H 0.4105 1.2136 0.0486
H35 H 0.3847 0.7147 0.0422
H36 H 0.4212 1.0571 0.0800
H37 H -0.0466 1.2620 0.1393
H38 H 0.5985 1.0667 0.2177
H39 H 0.2101 1.2362 0.3223
H40 H -0.1087 0.9503 0.3187
H41 H 0.2522 0.8181 0.0294
H42 H 0.4308 0.8661 0.0448
H43 H 0.3201 1.1671 0.0942
H44 H 0.5460 1.1108 0.0995
H45 H -0.1858 1.1489 0.1296
H46 H -0.2649 1.2248 0.1496
H47 H 0.6119 1.0636 0.2423
H48 H 0.6764 0.9386 0.2292
H49 H 0.1241 1.1262 0.3374
H50 H 0.3593 1.1201 0.3293
H51 H -0.1793 1.0943 0.3129
H52 H -0.1468 0.9887 0.2951
H53 H -0.2612 0.5434 0.0981
H54 H -0.1324 0.5159 0.1187
H55 H -0.1191 0.6547 0.1079
loop_
_geom_bond_atom_site_label_1
_geom_bond_atom_site_label_2
_geom_bond_site_symmetry_1
_geom_bond_site_symmetry_2
C1 C2 1_555 1_555
C2 C3 1_555 1_555
C3 C4 1_555 1_555
C4 C5 1_555 1_555
C5 C6 1_555 1_555
C6 C7 1_555 1_555
C7 C8 1_555 1_555
C8 C9 1_555 1_555
C9 C10 1_555 1_555
C10 C11 1_555 1_555
C11 C12 1_555 1_555
C12 C13 1_555 1_555
C13 C14 1_555 1_555
C14 C15 1_555 1_555
C15 C16 1_555 1_555
C16 C17 1_555 1_555
C17 C18 1_555 1_555
C18 C19 1_555 1_555
C19 C20 1_555 1_555
C20 O7 1_555 1_555
C21 C39 1_555 1_555
C22 C1 1_555 1_555
C23 C22 1_555 1_555
C24 C23 1_555 1_555
C25 C24 1_555 1_555
C26 C25 1_555 1_555
C27 C24 1_555 1_555
C28 C29 1_555 1_555
C29 C30 1_555 1_555
C30 C31 1_555 1_555
C31 C32 1_555 1_555
C32 C33 1_555 1_555
C33 C34 1_555 1_555
C34 C29 1_555 1_555
C35 C1 1_555 1_555
C36 C5 1_555 1_555
C37 C10 1_555 1_555
C38 C15 1_555 1_555
C39 H39 1_555 1_555
C40 C21 1_555 1_555
N1 C32 1_555 1_555
O1 C1 1_555 1_555
O2 C5 1_555 1_555
O3 C8 1_555 1_555
O4 C12 1_555 1_555
O5 C15 1_555 1_555
O6 C18 1_555 1_555
O7 C21 1_555 1_555
O8 C23 1_555 1_555
O9 C2 1_555 1_555
O10 C28 1_555 1_555
O11 N1 1_555 1_555
O12 N1 1_555 1_555
H1 C2 1_555 1_555
H2 C4 1_555 1_555
H3 C8 1_555 1_555
H4 C9 1_555 1_555
H5 C10 1_555 1_555
H6 C12 1_555 1_555
H7 C13 1_555 1_555
H8 C16 1_555 1_555
H9 C18 1_555 1_555
H10 C19 1_555 1_555
H11 C23 1_555 1_555
H12 C3 1_555 1_555
H13 C3 1_555 1_555
H14 C6 1_555 1_555
H15 C6 1_555 1_555
H16 C7 1_555 1_555
H17 C7 1_555 1_555
H18 C11 1_555 1_555
H19 C11 1_555 1_555
H20 C14 1_555 1_555
H21 C14 1_555 1_555
H22 C17 1_555 1_555
H23 C17 1_555 1_555
H24 C20 1_555 1_555
H25 C20 1_555 1_555
H26 C22 1_555 1_555
H27 C22 1_555 1_555
H28 C25 1_555 1_555
H29 C26 1_555 1_555
H30 C26 1_555 1_555
H31 C30 1_555 1_555
H32 C31 1_555 1_555
H33 C33 1_555 1_555
H34 C34 1_555 1_555
H35 C35 1_555 1_555
H36 C36 1_555 1_555
H37 C37 1_555 1_555
H38 C38 1_555 1_555
H40 C40 1_555 1_555
H41 C35 1_555 1_555
H42 C35 1_555 1_555
H43 C36 1_555 1_555
H44 C36 1_555 1_555
H45 C37 1_555 1_555
H46 C37 1_555 1_555
H47 C38 1_555 1_555
H48 C38 1_555 1_555
H49 C39 1_555 1_555
H50 C39 1_555 1_555
H51 C40 1_555 1_555
H52 C40 1_555 1_555
H53 C27 1_555 1_555
H54 C27 1_555 1_555
H55 C27 1_555 1_555
C4 O1 1_555 1_555
C9 O2 1_555 1_555
C13 O3 1_555 1_555
C16 O4 1_555 1_555
C19 O5 1_555 1_555
C21 O6 1_555 1_555
C24 O8 1_555 1_555
C28 O9 1_555 1_555

#END
