
#######################################################################
#
#                 Cambridge Crystallographic Data Centre
#                                CCDC 
#
#######################################################################
#
# If this CIF has been generated from an entry in the Cambridge 
# Structural Database, then it will include bibliographic, chemical, 
# crystal, experimental, refinement or atomic coordinate data resulting 
# from the CCDC's data processing and validation procedures.
#
#######################################################################

data_ZIBROU
_chemical_formula_moiety         'C27 H27 N3 O2,1.35(H2 O1)'
_chemical_name_systematic        
"N-t-butyl-1-methyl-3-oxo-7-phenyl-5,12-dihydropyrrolo[1',2':1,2]azepino[3,4-b]indole-12b(3H)-carboxamide hydrate"
_symmetry_cell_setting           monoclinic
_symmetry_space_group_name_H-M   'P 21/n'
_symmetry_Int_Tables_number      14
_space_group_name_Hall           '-P 2yn'
loop_
_symmetry_equiv_pos_site_id
_symmetry_equiv_pos_as_xyz
1 x,y,z
2 1/2-x,1/2+y,1/2-z
3 -x,-y,-z
4 1/2+x,1/2-y,1/2+z
_cell_length_a                   11.4785(3)
_cell_length_b                   11.5877(2)
_cell_length_c                   18.6422(4)
_cell_angle_alpha                90
_cell_angle_beta                 104.064(2)
_cell_angle_gamma                90
_cell_volume                     2405.26
_exptl_crystal_colour            colorless
_exptl_crystal_description       block
_cell_formula_units_Z            4
loop_
_atom_site_label
_atom_site_type_symbol
_atom_site_fract_x
_atom_site_fract_y
_atom_site_fract_z
O1 O 0.75256(8) 0.34098(8) 1.02491(5)
O2 O 0.39736(8) 0.17632(8) 0.77421(5)
N1 N 0.45836(9) 0.48056(8) 0.78269(5)
H1 H 0.4135(12) 0.5084(12) 0.8108(7)
N2 N 0.65418(8) 0.29474(8) 0.90535(5)
N3 N 0.53277(10) 0.08915(9) 0.86842(6)
C1 C 0.53168(10) 0.30050(10) 0.85908(6)
C2 C 0.52568(10) 0.38150(10) 0.79505(6)
C3 C 0.46923(10) 0.52778(10) 0.71692(6)
C4 C 0.41669(11) 0.62794(10) 0.68149(7)
H2 H 0.3668 0.6757 0.7028
C5 C 0.44020(11) 0.65472(11) 0.61421(7)
H3 H 0.4056 0.7221 0.5886
C6 C 0.51449(11) 0.58399(11) 0.58288(7)
H4 H 0.5278 0.6038 0.5361
C7 C 0.56841(10) 0.48646(10) 0.61882(6)
H5 H 0.6198 0.4403 0.5976
C8 C 0.54598(10) 0.45672(10) 0.68720(6)
C9 C 0.58296(10) 0.36379(10) 0.73912(6)
C10 C 0.66466(10) 0.26637(10) 0.73831(6)
C11 C 0.73977(10) 0.23146(10) 0.80153(6)
H6 H 0.7829 0.1615 0.8012
C12 C 0.75892(10) 0.29782(10) 0.87285(6)
H7 H 0.8293 0.2654 0.9088
H8 H 0.7774 0.3792 0.8636
C13 C 0.65955(11) 0.33049(10) 0.97571(6)
C14 C 0.53478(11) 0.35182(10) 0.98020(6)
H9 H 0.5114 0.3735 1.0238
C15 C 0.45975(10) 0.33630(10) 0.91430(6)
C16 C 0.32587(11) 0.33801(12) 0.89468(7)
H10 H 0.2954 0.2587 0.8922
H11 H 0.2967 0.3755 0.8465
H12 H 0.2975 0.3809 0.9324
C17 C 0.65907(10) 0.20554(9) 0.66748(6)
C18 C 0.55073(11) 0.19547(10) 0.61427(7)
H13 H 0.4797 0.2278 0.6235
C19 C 0.54561(11) 0.13865(10) 0.54800(7)
H14 H 0.4712 0.1322 0.5122
C20 C 0.64903(11) 0.09108(10) 0.53388(6)
H15 H 0.6456 0.0522 0.4885
C21 C 0.75739(11) 0.10081(10) 0.58658(7)
H16 H 0.8282 0.0684 0.5772
C22 C 0.76278(11) 0.15738(10) 0.65275(6)
H17 H 0.8373 0.1636 0.6884
C23 C 0.48254(11) 0.17961(10) 0.82837(7)
C24 C 0.50212(13) -0.03372(11) 0.85012(8)
C25 C 0.53586(19) -0.06417(14) 0.77807(10)
H18 H 0.4893 -0.0162 0.7379
H19 H 0.5181 -0.1458 0.7665
H20 H 0.6218 -0.0501 0.7836
C26 C 0.36933(15) -0.05492(14) 0.84469(12)
H21 H 0.3494 -0.0289 0.8903
H22 H 0.3521 -0.1375 0.8377
H23 H 0.3210 -0.0119 0.8026
H24 H 0.5984(13) 0.1019(19) 0.9040(9)
C27 C 0.57727(15) -0.10383(12) 0.91420(9)
H25 H 0.6627 -0.0882 0.9188
H26 H 0.5615 -0.1862 0.9048
H27 H 0.5559 -0.0820 0.9602
O3 O 0.20082(9) 0.11612(9) 0.66013(5)
H28 H 0.2219(17) 0.1274(17) 0.6197(7)
H29 H 0.2605(13) 0.1372(17) 0.6947(8)
O4 O 0.2638(3) 0.4129(3) 0.51030(16)
H30 H 0.283(5) 0.349(2) 0.531(3)
H31 H 0.312(4) 0.461(4) 0.535(3)
loop_
_geom_bond_atom_site_label_1
_geom_bond_atom_site_label_2
_geom_bond_site_symmetry_1
_geom_bond_site_symmetry_2
O1 C13 1_555 1_555
O2 C23 1_555 1_555
N1 H1 1_555 1_555
N2 C1 1_555 1_555
N3 C23 1_555 1_555
C1 C2 1_555 1_555
C2 N1 1_555 1_555
C3 N1 1_555 1_555
C4 C3 1_555 1_555
H2 C4 1_555 1_555
C5 C4 1_555 1_555
H3 C5 1_555 1_555
C6 C5 1_555 1_555
H4 C6 1_555 1_555
C7 C6 1_555 1_555
H5 C7 1_555 1_555
C8 C3 1_555 1_555
C9 C2 1_555 1_555
C10 C9 1_555 1_555
C11 C10 1_555 1_555
H6 C11 1_555 1_555
C12 N2 1_555 1_555
H7 C12 1_555 1_555
H8 C12 1_555 1_555
C13 N2 1_555 1_555
C14 C13 1_555 1_555
H9 C14 1_555 1_555
C15 C1 1_555 1_555
C16 C15 1_555 1_555
H10 C16 1_555 1_555
H11 C16 1_555 1_555
H12 C16 1_555 1_555
C17 C10 1_555 1_555
C18 C17 1_555 1_555
H13 C18 1_555 1_555
C19 C18 1_555 1_555
H14 C19 1_555 1_555
C20 C19 1_555 1_555
H15 C20 1_555 1_555
C21 C20 1_555 1_555
H16 C21 1_555 1_555
C22 C17 1_555 1_555
H17 C22 1_555 1_555
C23 C1 1_555 1_555
C24 N3 1_555 1_555
C25 C24 1_555 1_555
H18 C25 1_555 1_555
H19 C25 1_555 1_555
H20 C25 1_555 1_555
C26 C24 1_555 1_555
H21 C26 1_555 1_555
H22 C26 1_555 1_555
H23 C26 1_555 1_555
H24 N3 1_555 1_555
C27 C24 1_555 1_555
H25 C27 1_555 1_555
H26 C27 1_555 1_555
H27 C27 1_555 1_555
O3 H28 1_555 1_555
H29 O3 1_555 1_555
O4 H30 1_555 1_555
H31 O4 1_555 1_555
C7 C8 1_555 1_555
C8 C9 1_555 1_555
C11 C12 1_555 1_555
C14 C15 1_555 1_555
C21 C22 1_555 1_555

#END
