
#######################################################################
#
#                 Cambridge Crystallographic Data Centre
#                                CCDC 
#
#######################################################################
#
# If this CIF has been generated from an entry in the Cambridge 
# Structural Database, then it will include bibliographic, chemical, 
# crystal, experimental, refinement or atomic coordinate data resulting 
# from the CCDC's data processing and validation procedures.
#
#######################################################################

data_ZIBSUA01
_chemical_formula_moiety         'C30 H24 N2 O2'
_chemical_name_systematic        
1-Benzyl-1',3'-diphenyl-5'H-spiro[indole-3,2'-pyrrolidine]-2,5'(1H)-dione
_symmetry_cell_setting           monoclinic
_symmetry_space_group_name_H-M   'C 2/c'
_symmetry_Int_Tables_number      15
_space_group_name_Hall           '-C 2yn'
loop_
_symmetry_equiv_pos_site_id
_symmetry_equiv_pos_as_xyz
1 x,y,z
2 -x,y,1/2-z
3 1/2+x,1/2+y,z
4 1/2-x,1/2+y,1/2-z
5 -x,-y,-z
6 x,-y,1/2+z
7 1/2-x,1/2-y,-z
8 1/2+x,1/2-y,1/2+z
_cell_length_a                   25.5287(17)
_cell_length_b                   8.1842(6)
_cell_length_c                   23.2718(16)
_cell_angle_alpha                90
_cell_angle_beta                 114.117(2)
_cell_angle_gamma                90
_cell_volume                     4437.81
_exptl_crystal_colour            colorless
_exptl_crystal_description       block
_cell_formula_units_Z            8
loop_
_atom_site_label
_atom_site_type_symbol
_atom_site_fract_x
_atom_site_fract_y
_atom_site_fract_z
N1 N 0.29294(8) 0.8790(3) 0.13874(10)
N2 N 0.17452(8) 1.0783(3) 0.14963(10)
O1 O 0.35749(9) 0.6648(3) 0.16706(11)
O2 O 0.23124(8) 0.8950(2) 0.22465(9)
C1 C 0.32255(11) 1.1496(3) 0.18676(13)
H1 H 0.2874 1.1596 0.1913
C2 C 0.36274(12) 1.2732(4) 0.20763(14)
H2 H 0.3549 1.3682 0.2262
C3 C 0.41426(12) 1.2602(4) 0.20179(14)
H3 H 0.4421 1.3447 0.2169
C4 C 0.42480(12) 1.1237(4) 0.17387(15)
H4 H 0.4602 1.1143 0.1697
C5 C 0.38464(11) 0.9996(4) 0.15172(13)
H5 H 0.3920 0.9071 0.1315
C6 C 0.33330(10) 1.0110(3) 0.15921(12)
C7 C 0.13759(13) 0.6364(3) 0.13896(15)
H6 H 0.1687 0.6230 0.1789
C8 C 0.08237(15) 0.6022(4) 0.13217(18)
H7 H 0.0756 0.5666 0.1674
C9 C 0.03725(14) 0.6198(4) 0.0744(2)
H8 H -0.0006 0.5941 0.0696
C10 C 0.04677(13) 0.6743(4) 0.02378(18)
H9 H 0.0154 0.6880 -0.0159
C11 C 0.10187(12) 0.7091(3) 0.03056(15)
H10 H 0.1082 0.7466 -0.0047
C12 C 0.14810(11) 0.6899(3) 0.08821(14)
C13 C 0.05323(12) 1.0296(4) 0.11199(17)
H11 H 0.0731 0.9744 0.0910
C14 C -0.00519(13) 1.0046(4) 0.09256(19)
H12 H -0.0250 0.9334 0.0583
C15 C -0.03460(13) 1.0823(5) 0.12260(18)
H13 H -0.0746 1.0644 0.1097
C16 C -0.00566(14) 1.1852(5) 0.17103(16)
H14 H -0.0257 1.2396 0.1920
C17 C 0.05271(13) 1.2120(4) 0.19027(14)
H15 H 0.0721 1.2856 0.2238
C18 C 0.08293(11) 1.1323(3) 0.16097(13)
C19 C 0.16949(10) 1.1291(3) 0.08959(11)
C20 C 0.13697(11) 1.2558(3) 0.05336(12)
H16 H 0.1134 1.3211 0.0670
C21 C 0.14032(11) 1.2832(4) -0.00392(13)
H17 H 0.1188 1.3701 -0.0299
C22 C 0.17394(12) 1.1883(4) -0.02419(13)
H18 H 0.1751 1.2099 -0.0638
C23 C 0.20626(11) 1.0607(3) 0.01306(12)
H19 H 0.2295 0.9947 -0.0007
C24 C 0.20383(10) 1.0323(3) 0.07019(12)
C25 C 0.23113(10) 0.9023(3) 0.11867(12)
C26 C 0.21354(10) 0.9548(3) 0.17217(13)
C27 C 0.20726(11) 0.7272(3) 0.09228(15)
H20 H 0.2043 0.7241 0.0481
C28 C 0.25498(12) 0.6143(4) 0.12925(15)
H21 H 0.2559 0.5187 0.1036
H22 H 0.2509 0.5753 0.1675
C29 C 0.30837(12) 0.7160(4) 0.14644(14)
C30 C 0.14709(11) 1.1605(3) 0.18533(13)
H23 H 0.1542 1.2793 0.1851
H24 H 0.1653 1.1229 0.2296
loop_
_geom_bond_atom_site_label_1
_geom_bond_atom_site_label_2
_geom_bond_site_symmetry_1
_geom_bond_site_symmetry_2
N1 C6 1_555 1_555
N2 C19 1_555 1_555
O1 C29 1_555 1_555
O2 C26 1_555 1_555
C1 H1 1_555 1_555
C2 C1 1_555 1_555
H2 C2 1_555 1_555
C3 C2 1_555 1_555
H3 C3 1_555 1_555
C4 C3 1_555 1_555
H4 C4 1_555 1_555
C5 C4 1_555 1_555
H5 C5 1_555 1_555
C6 C1 1_555 1_555
C7 H6 1_555 1_555
C8 C7 1_555 1_555
H7 C8 1_555 1_555
C9 C8 1_555 1_555
H8 C9 1_555 1_555
C10 C9 1_555 1_555
H9 C10 1_555 1_555
C11 C10 1_555 1_555
H10 C11 1_555 1_555
C12 C7 1_555 1_555
C13 H11 1_555 1_555
C14 C13 1_555 1_555
H12 C14 1_555 1_555
C15 C14 1_555 1_555
H13 C15 1_555 1_555
C16 C15 1_555 1_555
H14 C16 1_555 1_555
C17 C16 1_555 1_555
H15 C17 1_555 1_555
C18 C13 1_555 1_555
C19 C20 1_555 1_555
C20 H16 1_555 1_555
C21 C20 1_555 1_555
H17 C21 1_555 1_555
C22 C21 1_555 1_555
H18 C22 1_555 1_555
C23 C22 1_555 1_555
H19 C23 1_555 1_555
C24 C19 1_555 1_555
C25 N1 1_555 1_555
C26 N2 1_555 1_555
C27 C12 1_555 1_555
H20 C27 1_555 1_555
C28 C27 1_555 1_555
H21 C28 1_555 1_555
H22 C28 1_555 1_555
C29 N1 1_555 1_555
C30 N2 1_555 1_555
H23 C30 1_555 1_555
H24 C30 1_555 1_555
C5 C6 1_555 1_555
C11 C12 1_555 1_555
C17 C18 1_555 1_555
C18 C30 1_555 1_555
C23 C24 1_555 1_555
C24 C25 1_555 1_555
C25 C26 1_555 1_555
C25 C27 1_555 1_555
C28 C29 1_555 1_555

#END
