
#######################################################################
#
#                 Cambridge Crystallographic Data Centre
#                                CCDC 
#
#######################################################################
#
# If this CIF has been generated from an entry in the Cambridge 
# Structural Database, then it will include bibliographic, chemical, 
# crystal, experimental, refinement or atomic coordinate data resulting 
# from the CCDC's data processing and validation procedures.
#
#######################################################################

data_ZIBYOB
_chemical_formula_moiety         'C22 H16 N2 O2'
_chemical_name_systematic        
2-(9-ethyl-9H-carbazol-3-yl)-1H-isoindole-1,3(2H)-dione
_symmetry_cell_setting           monoclinic
_symmetry_space_group_name_H-M   'P 21/c'
_symmetry_Int_Tables_number      14
_space_group_name_Hall           '-P 2ybc'
loop_
_symmetry_equiv_pos_site_id
_symmetry_equiv_pos_as_xyz
1 x,y,z
2 -x,1/2+y,1/2-z
3 -x,-y,-z
4 x,1/2-y,1/2+z
_cell_length_a                   10.069(3)
_cell_length_b                   10.968(4)
_cell_length_c                   15.670(5)
_cell_angle_alpha                90
_cell_angle_beta                 100.469(5)
_cell_angle_gamma                90
_cell_volume                     1701.74
_cell_formula_units_Z            4
loop_
_atom_site_label
_atom_site_type_symbol
_atom_site_fract_x
_atom_site_fract_y
_atom_site_fract_z
O1 O 0.59171(14) 0.74924(11) 0.68863(7)
O2 O 0.79211(14) 0.38540(11) 0.64371(8)
N1 N 0.82859(13) 0.50706(12) 1.04815(7)
N2 N 0.70117(12) 0.56280(11) 0.68984(7)
C1 C 0.89798(15) 0.61452(15) 1.07138(9)
C2 C 0.95509(17) 0.65689(19) 1.15417(10)
H1 H 0.9522 0.6106 1.2035
C3 C 1.01548(19) 0.7695(2) 1.15963(12)
H2 H 1.0537 0.8000 1.2139
C4 C 1.02123(17) 0.83946(19) 1.08618(13)
H3 H 1.0612 0.9161 1.0925
C5 C 0.96826(15) 0.79653(15) 1.00379(11)
H4 H 0.9745 0.8425 0.9548
C6 C 0.90537(13) 0.68286(13) 0.99618(9)
C7 C 0.83574(13) 0.61218(12) 0.92337(9)
C8 C 0.78907(14) 0.50501(13) 0.95859(9)
C9 C 0.71330(16) 0.41832(13) 0.90555(10)
H5 H 0.6825 0.3482 0.9290
C10 C 0.68545(15) 0.43942(13) 0.81754(10)
H6 H 0.6342 0.3832 0.7812
C11 C 0.73296(14) 0.54383(13) 0.78205(8)
C12 C 0.80811(14) 0.63086(12) 0.83394(9)
H7 H 0.8394 0.7001 0.8096
C13 C 0.63455(15) 0.66653(14) 0.65031(9)
C14 C 0.62509(14) 0.64964(14) 0.55540(9)
C15 C 0.57203(16) 0.72511(17) 0.48704(10)
H8 H 0.5360 0.8009 0.4966
C16 C 0.57453(18) 0.6838(2) 0.40384(11)
H9 H 0.5407 0.7331 0.3566
C17 C 0.62655(18) 0.5703(2) 0.38979(10)
H10 H 0.6257 0.5444 0.3332
C18 C 0.68018(17) 0.49416(19) 0.45864(10)
H11 H 0.7148 0.4177 0.4492
C19 C 0.67974(14) 0.53708(15) 0.54186(9)
C20 C 0.73271(15) 0.48072(14) 0.62745(9)
C21 C 0.8025(2) 0.41230(16) 1.10802(11)
H12 H 0.8830 0.4005 1.1517
H13 H 0.7839 0.3363 1.0764
C22 C 0.6860(2) 0.4416(2) 1.15223(14)
H14 H 0.6061 0.4541 1.1093
H15 H 0.7058 0.5144 1.1862
H16 H 0.6716 0.3752 1.1894
loop_
_geom_bond_atom_site_label_1
_geom_bond_atom_site_label_2
_geom_bond_site_symmetry_1
_geom_bond_site_symmetry_2
O1 C13 1_555 1_555
O2 C20 1_555 1_555
N1 C1 1_555 1_555
N2 C11 1_555 1_555
C1 C2 1_555 1_555
C2 H1 1_555 1_555
C3 C2 1_555 1_555
H2 C3 1_555 1_555
C4 C3 1_555 1_555
H3 C4 1_555 1_555
C5 C4 1_555 1_555
H4 C5 1_555 1_555
C6 C1 1_555 1_555
C7 C6 1_555 1_555
C8 N1 1_555 1_555
C9 C8 1_555 1_555
H5 C9 1_555 1_555
C10 C9 1_555 1_555
H6 C10 1_555 1_555
C11 C10 1_555 1_555
C12 C7 1_555 1_555
H7 C12 1_555 1_555
C13 N2 1_555 1_555
C14 C13 1_555 1_555
C15 C14 1_555 1_555
H8 C15 1_555 1_555
C16 C15 1_555 1_555
H9 C16 1_555 1_555
C17 C16 1_555 1_555
H10 C17 1_555 1_555
C18 C17 1_555 1_555
H11 C18 1_555 1_555
C19 C14 1_555 1_555
C20 N2 1_555 1_555
C21 N1 1_555 1_555
H12 C21 1_555 1_555
H13 C21 1_555 1_555
C22 C21 1_555 1_555
H14 C22 1_555 1_555
H15 C22 1_555 1_555
H16 C22 1_555 1_555
C5 C6 1_555 1_555
C7 C8 1_555 1_555
C11 C12 1_555 1_555
C18 C19 1_555 1_555
C19 C20 1_555 1_555

#END
