
#######################################################################
#
#                 Cambridge Crystallographic Data Centre
#                                CCDC 
#
#######################################################################
#
# If this CIF has been generated from an entry in the Cambridge 
# Structural Database, then it will include bibliographic, chemical, 
# crystal, experimental, refinement or atomic coordinate data resulting 
# from the CCDC's data processing and validation procedures.
#
#######################################################################

data_ZICKOO
_chemical_formula_moiety         'C16 H24 O3'
_chemical_name_systematic        
'[4-(2,4,4-trimethylpentan-2-yl)phenoxy]acetic acid'
_symmetry_cell_setting           triclinic
_symmetry_space_group_name_H-M   'P -1'
_symmetry_Int_Tables_number      2
_space_group_name_Hall           '-P 1'
loop_
_symmetry_equiv_pos_site_id
_symmetry_equiv_pos_as_xyz
1 x,y,z
2 -x,-y,-z
_cell_length_a                   6.0145(3)
_cell_length_b                   8.0625(5)
_cell_length_c                   16.0814(9)
_cell_angle_alpha                96.122(2)
_cell_angle_beta                 94.613(2)
_cell_angle_gamma                100.073(2)
_cell_volume                     759.499
_exptl_crystal_colour            colorless
_exptl_crystal_description       block
_cell_formula_units_Z            2
loop_
_atom_site_label
_atom_site_type_symbol
_atom_site_fract_x
_atom_site_fract_y
_atom_site_fract_z
O1 O 0.4756(2) 0.27330(19) 0.54394(8)
O2 O 0.8058(3) 0.07637(18) 0.55249(8)
O3 O 0.9179(3) 0.1484(2) 0.43102(9)
H1 H 0.999169 0.077834 0.436791
C1 C 0.7919(4) 0.1540(3) 0.49314(12)
C2 C 0.6228(4) 0.2683(3) 0.48030(12)
H2 H 0.704175 0.382337 0.477813
H3 H 0.533026 0.229781 0.426667
C3 C 0.5518(3) 0.3740(2) 0.61882(11)
C4 C 0.7672(3) 0.4683(2) 0.63918(11)
H4 H 0.875890 0.465581 0.601322
C5 C 0.8204(3) 0.5667(2) 0.71614(11)
H5 H 0.966428 0.629752 0.728973
C6 C 0.6660(3) 0.5759(2) 0.77526(10)
C7 C 0.4515(3) 0.4768(2) 0.75258(11)
H6 H 0.342601 0.477097 0.790482
C8 C 0.3954(3) 0.3787(2) 0.67631(11)
H7 H 0.249978 0.314590 0.663338
C9 C 0.7346(3) 0.6815(2) 0.86138(10)
C10 C 0.5318(4) 0.6883(3) 0.91217(12)
H8 H 0.417964 0.732441 0.880535
H9 H 0.580184 0.760737 0.964146
H10 H 0.469689 0.576114 0.923753
C11 C 0.8962(4) 0.5909(3) 0.91049(13)
H11 H 0.820295 0.477982 0.915772
H12 H 0.941523 0.652558 0.965406
H13 H 1.027870 0.585424 0.881058
C12 C 0.8659(3) 0.8622(2) 0.85517(11)
H14 H 0.933841 0.908358 0.911484
H15 H 0.990253 0.848275 0.821795
C13 C 0.7534(3) 1.0013(2) 0.81996(11)
C14 C 0.6195(4) 1.0862(3) 0.88324(14)
H16 H 0.571876 1.182091 0.861448
H17 H 0.713756 1.123464 0.935238
H18 H 0.488492 1.006422 0.892862
C15 C 0.9492(5) 1.1378(3) 0.80193(17)
H19 H 1.033493 1.089996 0.760291
H20 H 1.047570 1.178554 0.852699
H21 H 0.889215 1.230299 0.781500
C16 C 0.5999(5) 0.9385(3) 0.73866(13)
H22 H 0.684352 0.888422 0.697798
H23 H 0.544476 1.032172 0.717569
H24 H 0.474033 0.855130 0.749375
loop_
_geom_bond_atom_site_label_1
_geom_bond_atom_site_label_2
_geom_bond_site_symmetry_1
_geom_bond_site_symmetry_2
O1 C2 1_555 1_555
O2 C1 1_555 1_555
O3 H1 1_555 1_555
C1 O3 1_555 1_555
C2 C1 1_555 1_555
H2 C2 1_555 1_555
H3 C2 1_555 1_555
C3 O1 1_555 1_555
C4 C3 1_555 1_555
H4 C4 1_555 1_555
C5 C4 1_555 1_555
H5 C5 1_555 1_555
C6 C5 1_555 1_555
C7 C6 1_555 1_555
H6 C7 1_555 1_555
C8 C3 1_555 1_555
H7 C8 1_555 1_555
C9 C6 1_555 1_555
C10 C9 1_555 1_555
H8 C10 1_555 1_555
H9 C10 1_555 1_555
H10 C10 1_555 1_555
C11 C9 1_555 1_555
H11 C11 1_555 1_555
H12 C11 1_555 1_555
H13 C11 1_555 1_555
C12 C9 1_555 1_555
H14 C12 1_555 1_555
H15 C12 1_555 1_555
C13 C12 1_555 1_555
C14 C13 1_555 1_555
H16 C14 1_555 1_555
H17 C14 1_555 1_555
H18 C14 1_555 1_555
C15 C13 1_555 1_555
H19 C15 1_555 1_555
H20 C15 1_555 1_555
H21 C15 1_555 1_555
C16 C13 1_555 1_555
H22 C16 1_555 1_555
H23 C16 1_555 1_555
H24 C16 1_555 1_555
C7 C8 1_555 1_555

#END
