
#######################################################################
#
#                 Cambridge Crystallographic Data Centre
#                                CCDC 
#
#######################################################################
#
# If this CIF has been generated from an entry in the Cambridge 
# Structural Database, then it will include bibliographic, chemical, 
# crystal, experimental, refinement or atomic coordinate data resulting 
# from the CCDC's data processing and validation procedures.
#
#######################################################################

data_ZICLAB
_chemical_formula_moiety         'C18 H28 O3'
_chemical_name_systematic        
'2-[4-(2,4,4-trimethylpentan-2-yl)phenoxy]butanoic acid'
_symmetry_cell_setting           monoclinic
_symmetry_space_group_name_H-M   'P 21/c'
_symmetry_Int_Tables_number      14
_space_group_name_Hall           '-P 2ybc'
loop_
_symmetry_equiv_pos_site_id
_symmetry_equiv_pos_as_xyz
1 x,y,z
2 -x,1/2+y,1/2-z
3 -x,-y,-z
4 x,1/2-y,1/2+z
_cell_length_a                   12.9802(6)
_cell_length_b                   8.6558(4)
_cell_length_c                   32.2944(13)
_cell_angle_alpha                90
_cell_angle_beta                 94.1150(10)
_cell_angle_gamma                90
_cell_volume                     3619.05
_exptl_crystal_colour            colorless
_exptl_crystal_description       block
_cell_formula_units_Z            8
loop_
_atom_site_label
_atom_site_type_symbol
_atom_site_fract_x
_atom_site_fract_y
_atom_site_fract_z
O1 O 1.13342(15) 0.3282(2) 0.25732(7)
O2 O 1.20913(17) 0.1183(3) 0.23437(8)
H1 H 1.2619 0.1648 0.2424
O3 O 0.94451(14) 0.1917(2) 0.24637(5)
C1 C 1.1291(2) 0.2004(3) 0.24199(9)
C2 C 1.0296(2) 0.1215(3) 0.22803(9)
H2 H 1.0334 0.0117 0.2353
C3 C 0.9299(2) 0.1559(3) 0.28711(8)
C4 C 1.0021(2) 0.0909(3) 0.31458(9)
H3 H 1.0679 0.0691 0.3065
C5 C 0.9768(2) 0.0575(3) 0.35468(9)
H4 H 1.0271 0.0137 0.3730
C6 C 0.8808(2) 0.0863(4) 0.36857(9)
C7 C 0.8101(2) 0.1558(5) 0.33990(9)
H5 H 0.7443 0.1786 0.3478
C8 C 0.8340(2) 0.1918(4) 0.30029(9)
H6 H 0.7853 0.2407 0.2823
C9 C 0.8499(3) 0.0355(4) 0.41128(10)
C10 C 0.7777(4) -0.1053(6) 0.40353(15)
H7 H 0.7179 -0.0750 0.3862
H8 H 0.7566 -0.1429 0.4296
H9 H 0.8138 -0.1855 0.3900
C11 C 0.9412(3) -0.0209(7) 0.43910(12)
H10 H 0.9724 -0.1077 0.4263
H11 H 0.9181 -0.0515 0.4655
H12 H 0.9910 0.0607 0.4431
C12 C 0.7870(3) 0.1593(5) 0.43253(11)
H13 H 0.7586 0.1092 0.4561
H14 H 0.7288 0.1843 0.4132
C13 C 0.8325(4) 0.3157(5) 0.44871(11)
C14 C 0.8916(5) 0.4013(6) 0.41714(14)
H15 H 0.9121 0.5008 0.4280
H16 H 0.8484 0.4143 0.3920
H17 H 0.9519 0.3431 0.4114
C15 C 0.8986(5) 0.3018(7) 0.48933(14)
H18 H 0.9637 0.2556 0.4842
H19 H 0.8638 0.2385 0.5083
H20 H 0.9102 0.4027 0.5011
C16 C 0.7365(5) 0.4113(7) 0.45829(17)
H21 H 0.7036 0.3643 0.4808
H22 H 0.6889 0.4145 0.4341
H23 H 0.7573 0.5146 0.4659
C17 C 1.0123(3) 0.1399(4) 0.18102(10)
H24 H 1.0068 0.2491 0.1745
H25 H 1.0722 0.1000 0.1682
C18 C 0.9180(3) 0.0594(5) 0.16243(11)
H26 H 0.9244 -0.0497 0.1674
H27 H 0.9110 0.0784 0.1331
H28 H 0.8582 0.0978 0.1749
O4 O 0.30457(15) 0.4864(2) 0.27662(8)
H29 H 0.2521 0.4363 0.2704
O5 O 0.38060(15) 0.2800(2) 0.25209(7)
O6 O 0.56794(13) 0.4220(2) 0.25842(5)
C19 C 0.3848(2) 0.4085(3) 0.26706(8)
C20 C 0.4850(2) 0.4930(3) 0.27779(8)
H30 H 0.4783 0.6010 0.2689
C21 C 0.5716(2) 0.4357(3) 0.21610(8)
C22 C 0.4995(2) 0.5100(3) 0.18995(8)
H31 H 0.4425 0.5573 0.2004
C23 C 0.5130(2) 0.5134(4) 0.14772(9)
H32 H 0.4639 0.5638 0.1302
C24 C 0.5961(3) 0.4454(4) 0.13047(9)
C25 C 0.6672(3) 0.3720(4) 0.15772(10)
H33 H 0.7243 0.3245 0.1474
C26 C 0.6553(2) 0.3674(4) 0.19970(9)
H34 H 0.7045 0.3173 0.2172
C27 C 0.6065(3) 0.4464(4) 0.08366(10)
C28 C 0.6835(4) 0.7326(5) 0.07384(13)
C29 C 0.5210(6) 0.3406(8) 0.06434(18)
H35 H 0.5287 0.2391 0.0761
H36 H 0.4547 0.3817 0.0699
H37 H 0.5263 0.3348 0.0349
C30 C 0.7115(6) 0.3669(8) 0.07213(18)
H38 H 0.7171 0.2664 0.0847
H39 H 0.7115 0.3569 0.0425
H40 H 0.7689 0.4294 0.0823
C31 C 0.5932(6) 0.6059(8) 0.06468(19)
H41 H 0.5298 0.6491 0.0739
H42 H 0.5833 0.5931 0.0348
C32 C 0.7666(5) 0.7139(8) 0.0426(2)
H43 H 0.7340 0.7040 0.0151
H44 H 0.8108 0.8029 0.0439
H45 H 0.8068 0.6231 0.0494
C33 C 0.7204(6) 0.7483(10) 0.11555(19)
H46 H 0.6631 0.7593 0.1325
H47 H 0.7597 0.6583 0.1241
H48 H 0.7637 0.8381 0.1186
C34 C 0.6205(6) 0.8785(8) 0.0621(2)
H49 H 0.5939 0.8716 0.0336
H50 H 0.5641 0.8872 0.0796
H51 H 0.6640 0.9678 0.0657
C35 C 0.5106(3) 0.4861(4) 0.32445(9)
H52 H 0.4520 0.5250 0.3383
H53 H 0.5208 0.3790 0.3326
C36 C 0.6045(3) 0.5763(5) 0.33911(11)
H54 H 0.6637 0.5352 0.3267
H55 H 0.6148 0.5690 0.3688
H56 H 0.5953 0.6827 0.3312
C37? C 0.4899(19) 0.492(3) 0.0596(5)
H57? H 0.4679 0.5908 0.0693
H58? H 0.4956 0.4965 0.0301
H59? H 0.4402 0.4148 0.0657
C38? C 0.631(2) 0.303(3) 0.0677(5)
H60? H 0.5856 0.2261 0.0774
H61? H 0.6238 0.3068 0.0379
H62? H 0.7012 0.2774 0.0766
C39? C 0.676(2) 0.567(3) 0.0690(5)
H63? H 0.7440 0.5305 0.0785
H64? H 0.6711 0.5526 0.0391
C40? C 0.8001(18) 0.776(3) 0.0630(5)
H65? H 0.8102 0.8858 0.0657
H66? H 0.8487 0.7236 0.0819
H67? H 0.8106 0.7453 0.0351
C41? C 0.703(2) 0.761(3) 0.1272(4)
H68? H 0.7093 0.8694 0.1330
H69? H 0.6459 0.7193 0.1407
H70? H 0.7656 0.7093 0.1374
C42? C 0.630(2) 0.851(3) 0.0421(5)
H71? H 0.6454 0.9547 0.0513
H72? H 0.6557 0.8359 0.0152
H73? H 0.5567 0.8355 0.0403
loop_
_geom_bond_atom_site_label_1
_geom_bond_atom_site_label_2
_geom_bond_site_symmetry_1
_geom_bond_site_symmetry_2
O1 C1 1_555 1_555
O2 H1 1_555 1_555
O3 C2 1_555 1_555
C1 O2 1_555 1_555
C2 C1 1_555 1_555
H2 C2 1_555 1_555
C3 O3 1_555 1_555
C4 C3 1_555 1_555
H3 C4 1_555 1_555
C5 C4 1_555 1_555
H4 C5 1_555 1_555
C6 C5 1_555 1_555
C7 C6 1_555 1_555
H5 C7 1_555 1_555
C8 C3 1_555 1_555
H6 C8 1_555 1_555
C9 C6 1_555 1_555
C10 C9 1_555 1_555
H7 C10 1_555 1_555
H8 C10 1_555 1_555
H9 C10 1_555 1_555
C11 C9 1_555 1_555
H10 C11 1_555 1_555
H11 C11 1_555 1_555
H12 C11 1_555 1_555
C12 C9 1_555 1_555
H13 C12 1_555 1_555
H14 C12 1_555 1_555
C13 C12 1_555 1_555
C14 C13 1_555 1_555
H15 C14 1_555 1_555
H16 C14 1_555 1_555
H17 C14 1_555 1_555
C15 C13 1_555 1_555
H18 C15 1_555 1_555
H19 C15 1_555 1_555
H20 C15 1_555 1_555
C16 C13 1_555 1_555
H21 C16 1_555 1_555
H22 C16 1_555 1_555
H23 C16 1_555 1_555
C17 C2 1_555 1_555
H24 C17 1_555 1_555
H25 C17 1_555 1_555
C18 C17 1_555 1_555
H26 C18 1_555 1_555
H27 C18 1_555 1_555
H28 C18 1_555 1_555
O4 H29 1_555 1_555
O5 C19 1_555 1_555
O6 C20 1_555 1_555
C19 O4 1_555 1_555
C20 C19 1_555 1_555
H30 C20 1_555 1_555
C21 O6 1_555 1_555
C22 C21 1_555 1_555
H31 C22 1_555 1_555
C23 C22 1_555 1_555
H32 C23 1_555 1_555
C24 C23 1_555 1_555
C25 C24 1_555 1_555
H33 C25 1_555 1_555
C26 C21 1_555 1_555
H34 C26 1_555 1_555
C27 C24 1_555 1_555
C28 C31 1_555 1_555
C29 C27 1_555 1_555
H35 C29 1_555 1_555
H36 C29 1_555 1_555
H37 C29 1_555 1_555
C30 C27 1_555 1_555
H38 C30 1_555 1_555
H39 C30 1_555 1_555
H40 C30 1_555 1_555
C31 C27 1_555 1_555
H41 C31 1_555 1_555
H42 C31 1_555 1_555
C32 C28 1_555 1_555
H43 C32 1_555 1_555
H44 C32 1_555 1_555
H45 C32 1_555 1_555
C33 C28 1_555 1_555
H46 C33 1_555 1_555
H47 C33 1_555 1_555
H48 C33 1_555 1_555
C34 C28 1_555 1_555
H49 C34 1_555 1_555
H50 C34 1_555 1_555
H51 C34 1_555 1_555
C35 C20 1_555 1_555
H52 C35 1_555 1_555
H53 C35 1_555 1_555
C36 C35 1_555 1_555
H54 C36 1_555 1_555
H55 C36 1_555 1_555
H56 C36 1_555 1_555
C7 C8 1_555 1_555
C25 C26 1_555 1_555

#END
