
#######################################################################
#
#                 Cambridge Crystallographic Data Centre
#                                CCDC 
#
#######################################################################
#
# If this CIF has been generated from an entry in the Cambridge 
# Structural Database, then it will include bibliographic, chemical, 
# crystal, experimental, refinement or atomic coordinate data resulting 
# from the CCDC's data processing and validation procedures.
#
#######################################################################

data_ZICNOO
_chemical_formula_moiety         'C7 H10 N1 1+,C22 H28 N3 O7 1-'
_chemical_name_systematic        
'Benzylammonium (3,6,12,15-tetraoxa-9,21-diazabicyclo(15.3.1.)heneicosa-1(21),17,19-trien-9-ylmethyl-(4-nitrophenoxide))'
_symmetry_cell_setting           triclinic
_symmetry_space_group_name_H-M   'P -1'
_symmetry_Int_Tables_number      2
_space_group_name_Hall           '-P 1'
loop_
_symmetry_equiv_pos_site_id
_symmetry_equiv_pos_as_xyz
1 x,y,z
2 -x,-y,-z
_cell_length_a                   9.120(2)
_cell_length_b                   13.262(4)
_cell_length_c                   13.892(4)
_cell_angle_alpha                66.19(2)
_cell_angle_beta                 73.05(2)
_cell_angle_gamma                70.43(2)
_cell_volume                     1424.41
_cell_formula_units_Z            2
loop_
_atom_site_label
_atom_site_type_symbol
_atom_site_fract_x
_atom_site_fract_y
_atom_site_fract_z
N1 N 0.5724(3) 0.6689(2) 0.0899(2)
C1 C 0.7275(3) 0.6424(3) 0.0525(2)
C2 C 0.8364(4) 0.6427(5) 0.1133(3)
H1 H 0.9455 0.6187 0.0802
H2 H 0.8020 0.7063 0.1091
O1 O 0.7937(5) 0.6192(4) 0.2171(3)
C3 C 0.8859(5) 0.6477(6) 0.2627(4)
H3 H 1.0007 0.6162 0.2427
C4 C 0.8574(4) 0.7678(5) 0.2682(3)
O2 O 0.6986(2) 0.7987(2) 0.3194(2)
C5 C 0.6732(4) 0.8962(3) 0.3446(3)
H4 H 0.6944 0.9580 0.2803
H5 H 0.7442 0.8815 0.3906
C6 C 0.5059(4) 0.9297(3) 0.3976(3)
H6 H 0.4906 0.9965 0.4143
H7 H 0.4897 0.8691 0.4640
N2 N 0.3830(3) 0.9505(2) 0.3374(2)
C7 C 0.4000(5) 1.0436(3) 0.2350(3)
H8 H 0.5051 1.0238 0.1962
H9 H 0.3887 1.1115 0.2485
C8 C 0.2904(5) 1.0651(3) 0.1635(3)
H10 H 0.2990 1.1313 0.1010
H11 H 0.1848 1.0785 0.2036
O3 O 0.3176(3) 0.9696(2) 0.1338(2)
C9 C 0.2010(5) 0.9809(3) 0.0790(3)
H12 H 0.1842 1.0538 0.0234
H13 H 0.1030 0.9747 0.1283
C10 C 0.2497(5) 0.8875(3) 0.0358(3)
H14 H 0.3561 0.8854 -0.0030
H15 H 0.1836 0.9001 -0.0126
O4 O 0.2478(2) 0.7822(2) 0.1207(2)
C11 C 0.3017(3) 0.6883(3) 0.0841(3)
H16 H 0.2418 0.7009 0.0320
H17 H 0.2827 0.6220 0.1439
C12 C 0.4750(3) 0.6644(2) 0.0371(2)
C13 C 0.5298(4) 0.6357(3) -0.0549(3)
H18 H 0.4560 0.6356 -0.0920
C14 C 0.6893(5) 0.6091(3) -0.0917(3)
H19 H 0.7300 0.5877 -0.1546
C15 C 0.7892(4) 0.6116(3) -0.0372(3)
H20 H 0.9016 0.5932 -0.0616
C16 C 0.2250(4) 0.9798(3) 0.4022(2)
H21 H 0.1470 1.0066 0.3578
H22 H 0.2211 1.0415 0.4233
C17 C 0.1798(3) 0.8856(2) 0.5014(2)
C18 C 0.1887(3) 0.8784(2) 0.6003(2)
H23 H 0.2303 0.9326 0.6067
C19 C 0.1403(3) 0.7930(3) 0.6933(1)
N3 N 0.1586(3) 0.7850(3) 0.7939(2)
O5 O 0.2174(4) 0.8526(3) 0.7998(2)
O6 O 0.1191(3) 0.7080(3) 0.8747(2)
C20 C 0.0782(3) 0.7155(3) 0.6855(3)
H24 H 0.0444 0.6575 0.7493
C21 C 0.0645(3) 0.7230(3) 0.5879(3)
H25 H 0.0214 0.6682 0.5841
C22 C 0.1144(3) 0.8057(3) 0.4911(3)
O7 O 0.1009(2) 0.8111(2) 0.4005(2)
N4 N 0.4130(3) 0.7446(2) 0.2889(2)
H26 H 0.4470 0.8007 0.2962
H27 H 0.4518 0.7436 0.2196
H28 H 0.3111 0.7594 0.3083
C23 C 0.4597(3) 0.6375(2) 0.3752(2)
H29 H 0.4141 0.6488 0.4428
H30 H 0.5728 0.6167 0.3683
C24 C 0.4064(3) 0.5420(2) 0.3738(2)
C25 C 0.2539(4) 0.5335(3) 0.4143(3)
H31 H 0.1786 0.5924 0.4392
C26 C 0.2068(4) 0.4440(3) 0.4183(3)
H32 H 0.0992 0.4394 0.4484
C27 C 0.3093(4) 0.3620(3) 0.3804(3)
H33 H 0.2753 0.2995 0.3836
C28 C 0.4607(4) 0.3695(3) 0.3387(3)
H34 H 0.5344 0.3125 0.3104
C29 C 0.5102(3) 0.4581(3) 0.3364(2)
H35 H 0.6184 0.4618 0.3078
O8? O 0.7843(5) 0.7067(5) 0.1639(5)
H36? H 0.8844 0.7192 0.2273
loop_
_geom_bond_atom_site_label_1
_geom_bond_atom_site_label_2
_geom_bond_site_symmetry_1
_geom_bond_site_symmetry_2
N1 C1 1_555 1_555
C1 C2 1_555 1_555
C2 H1 1_555 1_555
H2 C2 1_555 1_555
O1 C2 1_555 1_555
C3 O1 1_555 1_555
H3 C3 1_555 1_555
C4 C3 1_555 1_555
O2 C4 1_555 1_555
C5 O2 1_555 1_555
H4 C5 1_555 1_555
H5 C5 1_555 1_555
C6 C5 1_555 1_555
H6 C6 1_555 1_555
H7 C6 1_555 1_555
N2 C6 1_555 1_555
C7 N2 1_555 1_555
H8 C7 1_555 1_555
H9 C7 1_555 1_555
C8 C7 1_555 1_555
H10 C8 1_555 1_555
H11 C8 1_555 1_555
O3 C8 1_555 1_555
C9 O3 1_555 1_555
H12 C9 1_555 1_555
H13 C9 1_555 1_555
C10 C9 1_555 1_555
H14 C10 1_555 1_555
H15 C10 1_555 1_555
O4 C10 1_555 1_555
C11 O4 1_555 1_555
H16 C11 1_555 1_555
H17 C11 1_555 1_555
C12 N1 1_555 1_555
C13 C12 1_555 1_555
H18 C13 1_555 1_555
C14 C13 1_555 1_555
H19 C14 1_555 1_555
C15 C1 1_555 1_555
H20 C15 1_555 1_555
C16 N2 1_555 1_555
H21 C16 1_555 1_555
H22 C16 1_555 1_555
C17 C16 1_555 1_555
C18 C17 1_555 1_555
H23 C18 1_555 1_555
C19 C18 1_555 1_555
N3 C19 1_555 1_555
O5 N3 1_555 1_555
O6 N3 1_555 1_555
C20 C19 1_555 1_555
H24 C20 1_555 1_555
C21 C20 1_555 1_555
H25 C21 1_555 1_555
C22 C17 1_555 1_555
O7 C22 1_555 1_555
N4 H26 1_555 1_555
H27 N4 1_555 1_555
H28 N4 1_555 1_555
C23 N4 1_555 1_555
H29 C23 1_555 1_555
H30 C23 1_555 1_555
C24 C23 1_555 1_555
C25 C24 1_555 1_555
H31 C25 1_555 1_555
C26 C25 1_555 1_555
H32 C26 1_555 1_555
C27 C26 1_555 1_555
H33 C27 1_555 1_555
C28 C27 1_555 1_555
H34 C28 1_555 1_555
C29 C24 1_555 1_555
H35 C29 1_555 1_555
C11 C12 1_555 1_555
C14 C15 1_555 1_555
C21 C22 1_555 1_555
C28 C29 1_555 1_555

#END
