
#######################################################################
#
#                 Cambridge Crystallographic Data Centre
#                                CCDC 
#
#######################################################################
#
# If this CIF has been generated from an entry in the Cambridge 
# Structural Database, then it will include bibliographic, chemical, 
# crystal, experimental, refinement or atomic coordinate data resulting 
# from the CCDC's data processing and validation procedures.
#
#######################################################################

data_ZICYUH
_chemical_name_common            
(2S,3R)-1,2,3-O-Tribenzoyl-1,2,3,5-pentanetetrol
_chemical_formula_moiety         'C26 H24 O7'
_chemical_name_systematic        '5-Hydroxypentane-1,2,3-triyl tribenzoate'
_symmetry_cell_setting           triclinic
_symmetry_space_group_name_H-M   'P 1'
_symmetry_Int_Tables_number      1
_space_group_name_Hall           'P 1'
loop_
_symmetry_equiv_pos_site_id
_symmetry_equiv_pos_as_xyz
1 x,y,z
_cell_length_a                   5.70230(10)
_cell_length_b                   11.0388(3)
_cell_length_c                   18.0593(4)
_cell_angle_alpha                88.173(2)
_cell_angle_beta                 84.2600(10)
_cell_angle_gamma                85.5410(10)
_cell_volume                     1127.31
_exptl_crystal_colour            colorless
_exptl_crystal_description       prism
_cell_formula_units_Z            2
loop_
_atom_site_label
_atom_site_type_symbol
_atom_site_fract_x
_atom_site_fract_y
_atom_site_fract_z
C1 C 0.0288(7) 0.5976(3) 0.62914(19)
H1 H 0.1530 0.6382 0.6513
H2 H 0.0919 0.5142 0.6159
C2 C -0.1874(5) 0.5931(3) 0.68389(16)
H3 H -0.3185 0.5661 0.6580
H4 H -0.2346 0.6761 0.7018
C3 C -0.1522(5) 0.5093(2) 0.75007(15)
H5 H -0.3017 0.5110 0.7842
C4 C -0.2685(5) 0.3129(3) 0.72216(16)
C5 C -0.1842(5) 0.1946(3) 0.68902(15)
C6 C 0.0392(6) 0.1764(3) 0.65107(18)
H6 H 0.1431 0.2400 0.6461
C7 C 0.1083(7) 0.0642(3) 0.6206(2)
H7 H 0.2597 0.0509 0.5938
C8 C -0.0420(8) -0.0283(3) 0.6291(2)
H8 H 0.0080 -0.1056 0.6089
C9 C -0.2604(7) -0.0103(3) 0.6660(2)
H9 H -0.3631 -0.0745 0.6708
C10 C -0.3348(6) 0.1014(3) 0.69679(19)
H10 H -0.4874 0.1139 0.7229
C11 C 0.0517(5) 0.5380(2) 0.79379(15)
H11 H 0.2007 0.5412 0.7598
C12 C 0.0871(5) 0.4477(3) 0.85638(16)
H12 H -0.0621 0.4427 0.8891
H13 H 0.1355 0.3661 0.8363
C13 C 0.3661(5) 0.4029(3) 0.94305(16)
C14 C 0.5417(5) 0.4521(3) 0.98670(16)
C15 C 0.6749(6) 0.3708(3) 1.02934(16)
H14 H 0.6493 0.2868 1.0302
C16 C 0.8434(6) 0.4112(4) 1.07037(18)
H15 H 0.9335 0.3552 1.0993
C17 C 0.8807(7) 0.5330(4) 1.06926(19)
H16 H 0.9959 0.5612 1.0978
C18 C 0.7513(7) 0.6143(3) 1.0269(2)
H17 H 0.7784 0.6982 1.0262
C19 C 0.5819(6) 0.5744(3) 0.98525(18)
H18 H 0.4939 0.6307 0.9559
C20 C 0.1286(5) 0.7455(3) 0.80972(16)
C21 C 0.0233(5) 0.8642(3) 0.83909(16)
C22 C -0.2040(5) 0.8791(3) 0.87467(16)
H19 H -0.2992 0.8120 0.8817
C23 C -0.2909(6) 0.9923(3) 0.8998(2)
H20 H -0.4459 1.0027 0.9245
C24 C -0.1542(7) 1.0904(3) 0.8893(2)
H21 H -0.2160 1.1681 0.9062
C25 C 0.0721(7) 1.0758(3) 0.8542(2)
H22 H 0.1669 1.1431 0.8476
C26 C 0.1603(6) 0.9633(3) 0.82873(18)
H23 H 0.3154 0.9534 0.8040
O1 O -0.0368(7) 0.6638(3) 0.56438(15)
H24 H 0.1087 0.6936 0.5556
O2 O -0.0920(3) 0.38652(16) 0.72407(10)
O3 O -0.4698(4) 0.3416(2) 0.74488(18)
O4 O 0.2686(3) 0.48759(17) 0.89798(11)
O5 O 0.3148(4) 0.2991(2) 0.94711(14)
O6 O -0.0193(3) 0.65671(16) 0.82404(10)
O7 O 0.3218(4) 0.7301(2) 0.77758(17)
C27 C -0.5269(8) 0.8338(5) 1.4955(2)
C28 C -0.3009(7) 0.8210(3) 1.4460(2)
H25 H -0.2756 0.7368 1.4279
H26 H -0.1678 0.8359 1.4749
C29 C -0.3022(6) 0.9091(3) 1.3798(2)
H27 H -0.4421 0.8999 1.3518
C30 C -0.5004(5) 1.1067(3) 1.40086(19)
C31 C -0.4803(5) 1.2258(3) 1.43471(17)
C32 C -0.2947(6) 1.2469(3) 1.4748(2)
H28 H -0.1761 1.1838 1.4826
C33 C -0.2821(7) 1.3612(3) 1.5037(2)
H29 H -0.1545 1.3760 1.5314
C34 C -0.4512(7) 1.4518(3) 1.4926(2)
H30 H -0.4396 1.5299 1.5119
C35 C -0.6386(8) 1.4313(3) 1.4537(2)
H31 H -0.7579 1.4946 1.4469
C36 C -0.6530(6) 1.3185(3) 1.42443(19)
H32 H -0.7818 1.3043 1.3971
C37 C -0.0732(5) 0.8945(3) 1.32815(19)
H33 H 0.0635 0.9040 1.3576
C38 C -0.0609(6) 0.9813(3) 1.2631(2)
H34 H -0.0868 1.0660 1.2801
H35 H 0.0961 0.9711 1.2343
C39 C -0.3435(5) 1.0462(3) 1.17829(19)
C40 C -0.5210(5) 1.0035(3) 1.13292(17)
C41 C -0.6602(6) 1.0896(3) 1.09536(18)
H36 H -0.6391 1.1736 1.0992
C42 C -0.8283(7) 1.0535(3) 1.05272(19)
H37 H -0.9208 1.1126 1.0266
C43 C -0.8627(7) 0.9315(4) 1.04782(19)
H38 H -0.9807 0.9066 1.0192
C44 C -0.7247(7) 0.8463(3) 1.0847(2)
H39 H -0.7471 0.7625 1.0807
C45 C -0.5543(6) 0.8806(3) 1.12734(19)
H40 H -0.4608 0.8209 1.1527
C46 C 0.1468(5) 0.7082(3) 1.29421(16)
C47 C 0.1282(5) 0.5805(2) 1.27315(15)
C48 C 0.3246(5) 0.5183(3) 1.23629(17)
H41 H 0.4648 0.5585 1.2232
C49 C 0.3159(6) 0.3979(3) 1.21869(18)
H42 H 0.4484 0.3560 1.1921
C50 C 0.1148(6) 0.3388(3) 1.23975(18)
H43 H 0.1112 0.2552 1.2292
C51 C -0.0812(6) 0.4002(3) 1.27603(18)
H44 H -0.2201 0.3592 1.2897
C52 C -0.0756(5) 0.5212(3) 1.29250(17)
H45 H -0.2111 0.5638 1.3170
O8 O -0.6874(8) 0.7593(4) 1.4761(3)
H46 H -0.7185 0.7764 1.4324
H47 H -0.4946 0.8142 1.5478
H48 H -0.5947 0.9188 1.4933
O9 O -0.3075(4) 1.03119(18) 1.40787(13)
O10 O -0.6671(5) 1.0810(3) 1.3708(2)
O11 O -0.0628(3) 0.77037(17) 1.30372(12)
O12 O 0.3295(4) 0.7507(2) 1.30296(17)
O13 O -0.2433(4) 0.95468(19) 1.21753(13)
O14 O -0.2941(4) 1.1502(2) 1.18092(16)
O15? O -0.5450(9) 0.7569(4) 1.5504(3)
H49? H -0.4367 0.7645 1.5778
loop_
_geom_bond_atom_site_label_1
_geom_bond_atom_site_label_2
_geom_bond_site_symmetry_1
_geom_bond_site_symmetry_2
C1 H1 1_555 1_555
H2 C1 1_555 1_555
C2 C1 1_555 1_555
H3 C2 1_555 1_555
H4 C2 1_555 1_555
C3 C2 1_555 1_555
H5 C3 1_555 1_555
C4 C5 1_555 1_555
C5 C6 1_555 1_555
C6 H6 1_555 1_555
C7 C6 1_555 1_555
H7 C7 1_555 1_555
C8 C7 1_555 1_555
H8 C8 1_555 1_555
C9 C8 1_555 1_555
H9 C9 1_555 1_555
C10 C5 1_555 1_555
H10 C10 1_555 1_555
C11 C3 1_555 1_555
H11 C11 1_555 1_555
C12 C11 1_555 1_555
H12 C12 1_555 1_555
H13 C12 1_555 1_555
C13 C14 1_555 1_555
C14 C15 1_555 1_555
C15 H14 1_555 1_555
C16 C15 1_555 1_555
H15 C16 1_555 1_555
C17 C16 1_555 1_555
H16 C17 1_555 1_555
C18 C17 1_555 1_555
H17 C18 1_555 1_555
C19 C14 1_555 1_555
H18 C19 1_555 1_555
C20 C21 1_555 1_555
C21 C22 1_555 1_555
C22 H19 1_555 1_555
C23 C22 1_555 1_555
H20 C23 1_555 1_555
C24 C23 1_555 1_555
H21 C24 1_555 1_555
C25 C24 1_555 1_555
H22 C25 1_555 1_555
C26 C21 1_555 1_555
H23 C26 1_555 1_555
O1 C1 1_555 1_555
H24 O1 1_555 1_555
O2 C3 1_555 1_555
O3 C4 1_555 1_555
O4 C12 1_555 1_555
O5 C13 1_555 1_555
O6 C11 1_555 1_555
O7 C20 1_555 1_555
C27 C28 1_555 1_555
C28 H25 1_555 1_555
H26 C28 1_555 1_555
C29 C28 1_555 1_555
H27 C29 1_555 1_555
C30 C31 1_555 1_555
C31 C32 1_555 1_555
C32 H28 1_555 1_555
C33 C32 1_555 1_555
H29 C33 1_555 1_555
C34 C33 1_555 1_555
H30 C34 1_555 1_555
C35 C34 1_555 1_555
H31 C35 1_555 1_555
C36 C31 1_555 1_555
H32 C36 1_555 1_555
C37 C29 1_555 1_555
H33 C37 1_555 1_555
C38 C37 1_555 1_555
H34 C38 1_555 1_555
H35 C38 1_555 1_555
C39 C40 1_555 1_555
C40 C41 1_555 1_555
C41 H36 1_555 1_555
C42 C41 1_555 1_555
H37 C42 1_555 1_555
C43 C42 1_555 1_555
H38 C43 1_555 1_555
C44 C43 1_555 1_555
H39 C44 1_555 1_555
C45 C40 1_555 1_555
H40 C45 1_555 1_555
C46 C47 1_555 1_555
C47 C48 1_555 1_555
C48 H41 1_555 1_555
C49 C48 1_555 1_555
H42 C49 1_555 1_555
C50 C49 1_555 1_555
H43 C50 1_555 1_555
C51 C50 1_555 1_555
H44 C51 1_555 1_555
C52 C47 1_555 1_555
H45 C52 1_555 1_555
O8 C27 1_555 1_555
H46 O8 1_555 1_555
H47 C27 1_555 1_555
H48 C27 1_555 1_555
O9 C29 1_555 1_555
O10 C30 1_555 1_555
O11 C37 1_555 1_555
O12 C46 1_555 1_555
O13 C38 1_555 1_555
O14 C39 1_555 1_555
C4 O2 1_555 1_555
C9 C10 1_555 1_555
C13 O4 1_555 1_555
C18 C19 1_555 1_555
C20 O6 1_555 1_555
C25 C26 1_555 1_555
C30 O9 1_555 1_555
C35 C36 1_555 1_555
C39 O13 1_555 1_555
C44 C45 1_555 1_555
C46 O11 1_555 1_555
C51 C52 1_555 1_555

#END
