
#######################################################################
#
#                 Cambridge Crystallographic Data Centre
#                                CCDC 
#
#######################################################################
#
# If this CIF has been generated from an entry in the Cambridge 
# Structural Database, then it will include bibliographic, chemical, 
# crystal, experimental, refinement or atomic coordinate data resulting 
# from the CCDC's data processing and validation procedures.
#
#######################################################################

data_ZIDNUV
_chemical_formula_moiety         'C49 H68 N2 O4 P2,3(C1 H2 Cl2)'
_chemical_name_systematic        
"5,11,17,23-Tetra-t-butyl-27,28-dihydroxy-(25,26-bis(bis(dimethylamino)phosphino)methyl-P,P')calix(4)arene dichloromethane solvate"
_symmetry_cell_setting           monoclinic
_symmetry_space_group_name_H-M   'P 21/c'
_symmetry_Int_Tables_number      14
_space_group_name_Hall           '-P 2ybc'
loop_
_symmetry_equiv_pos_site_id
_symmetry_equiv_pos_as_xyz
1 x,y,z
2 -x,1/2+y,1/2-z
3 -x,-y,-z
4 x,1/2-y,1/2+z
_cell_length_a                   16.480(5)
_cell_length_b                   14.740(3)
_cell_length_c                   23.830(6)
_cell_angle_alpha                90
_cell_angle_beta                 97.53(2)
_cell_angle_gamma                90
_cell_volume                     5738.75
_exptl_crystal_colour            colorless
_chemical_melting_point          '200 deg.C'
_cell_formula_units_Z            4
loop_
_atom_site_label
_atom_site_type_symbol
_atom_site_fract_x
_atom_site_fract_y
_atom_site_fract_z
P1 P 0.0064(3) 0.0410(3) 0.2094(2)
P2 P 0.0119(3) 0.1264(4) 0.3270(2)
N1 N 0.0603(9) -0.0362(11) 0.1814(7)
N2 N 0.0747(8) 0.1121(11) 0.3877(6)
C1 C 0.0560(9) 0.0406(12) 0.2819(6)
C2 C 0.0897(12) -0.1207(14) 0.2077(8)
C3 C 0.0666(12) -0.0325(15) 0.1208(8)
C4 C 0.0686(11) 0.1785(13) 0.4305(8)
C5 C 0.1101(11) 0.0292(14) 0.4098(7)
O1 O -0.0775(6) -0.0145(7) 0.2261(4)
O2 O -0.0723(6) 0.0639(7) 0.3325(4)
O3 O -0.0526(6) -0.1124(8) 0.3970(4)
O4 O -0.0833(6) -0.1669(8) 0.2871(4)
C6 C -0.1572(9) -0.0014(11) 0.1963(6)
C7 C -0.1934(10) -0.0749(11) 0.1690(6)
C8 C -0.2729(9) -0.0629(11) 0.1409(6)
C9 C -0.3120(10) 0.0172(12) 0.1417(7)
C10 C -0.2740(9) 0.0866(11) 0.1733(6)
C11 C -0.1963(9) 0.0797(11) 0.2014(6)
C12 C -0.3987(10) 0.0317(14) 0.1106(7)
C13 C -0.4336(11) -0.0540(14) 0.0809(8)
C14 C -0.3954(10) 0.1056(15) 0.0651(7)
C15 C -0.4568(10) 0.0607(15) 0.1506(7)
C16 C -0.1415(11) 0.1101(12) 0.3405(7)
C17 C -0.1873(10) 0.1589(11) 0.2968(7)
C18 C -0.2557(10) 0.2049(11) 0.3079(7)
C19 C -0.2821(10) 0.2073(12) 0.3606(7)
C20 C -0.2391(10) 0.1549(11) 0.4024(7)
C21 C -0.1687(10) 0.1044(11) 0.3934(7)
C22 C -0.3580(7) 0.2620(10) 0.3713(5)
C23 C -0.4135(14) 0.2796(20) 0.3171(8)
C24 C -0.4052(15) 0.2144(16) 0.4126(10)
C25 C -0.3255(14) 0.3507(15) 0.3963(11)
C26 C -0.1332(10) -0.1221(13) 0.4091(6)
C27 C -0.1683(10) -0.0531(13) 0.4330(7)
C28 C -0.2441(10) -0.0620(12) 0.4509(6)
C29 C -0.2861(10) -0.1434(12) 0.4420(7)
C30 C -0.2465(10) -0.2141(14) 0.4159(7)
C31 C -0.1707(11) -0.2038(13) 0.3998(7)
C32 C -0.3707(13) -0.1571(16) 0.4627(10)
C33 C -0.4077(13) -0.0751(15) 0.4811(11)
C34 C -0.3596(15) -0.2194(19) 0.5123(12)
C35 C -0.4286(14) -0.2074(22) 0.4179(11)
C36 C -0.1443(10) -0.2281(12) 0.2677(7)
C37 C -0.1695(10) -0.2896(12) 0.3078(7)
C38 C -0.2284(10) -0.3526(12) 0.2905(7)
C39 C -0.2644(11) -0.3568(13) 0.2339(8)
C40 C -0.2372(10) -0.2944(12) 0.1957(7)
C41 C -0.1770(9) -0.2331(12) 0.2132(7)
C42 C -0.3281(12) -0.4288(15) 0.2159(9)
C43 C -0.2908(15) -0.5223(15) 0.2201(12)
C44 C -0.3935(13) -0.4321(20) 0.2548(10)
C45 C -0.3720(15) -0.4155(18) 0.1583(10)
C46 C -0.1623(10) 0.1587(12) 0.2366(6)
C47 C -0.1278(10) 0.0415(12) 0.4383(6)
C48 C -0.1336(10) -0.2821(12) 0.3698(7)
C49 C -0.1537(9) -0.1684(11) 0.1679(6)
H1 H 0.0498 -0.0185 0.2977
H2 H 0.1131 0.0535 0.2819
H3 H 0.0841 -0.1191 0.2472
H4 H 0.1463 -0.1289 0.2031
H5 H 0.0582 -0.1702 0.1900
H6 H 0.0463 0.0249 0.1059
H7 H 0.0347 -0.0806 0.1018
H8 H 0.1228 -0.0392 0.1150
H9 H 0.0444 0.2327 0.4134
H10 H 0.1222 0.1919 0.4495
H11 H 0.0350 0.1554 0.4573
H12 H 0.1127 -0.0129 0.3794
H13 H 0.0771 0.0041 0.4363
H14 H 0.1643 0.0406 0.4285
H15 H -0.3001 -0.1130 0.1207
H16 H -0.3032 0.1425 0.1757
H17 H -0.3977 -0.0745 0.0549
H18 H -0.4866 -0.0412 0.0607
H19 H -0.4384 -0.1004 0.1086
H20 H -0.3736 0.1605 0.0827
H21 H -0.4496 0.1167 0.0462
H22 H -0.3610 0.0855 0.0380
H23 H -0.4366 0.1148 0.1700
H24 H -0.4615 0.0134 0.1776
H25 H -0.5096 0.0726 0.1297
H26 H -0.2870 0.2372 0.2774
H27 H -0.2576 0.1524 0.4390
H28 H -0.3925 0.3299 0.2978
H29 H -0.4153 0.2266 0.2935
H30 H -0.4677 0.2936 0.3252
H31 H -0.3769 0.2201 0.4504
H32 H -0.4586 0.2412 0.4110
H33 H -0.4105 0.1514 0.4026
H34 H -0.2686 0.3446 0.4108
H35 H -0.3319 0.3970 0.3677
H36 H -0.3559 0.3673 0.4265
H37 H -0.2675 -0.0124 0.4693
H38 H -0.2740 -0.2712 0.4092
H39 H -0.3722 -0.0486 0.5119
H40 H -0.4594 -0.0894 0.4933
H41 H -0.3351 -0.2749 0.5019
H42 H -0.4119 -0.2322 0.5241
H43 H -0.3247 -0.1913 0.5428
H44 H -0.4386 -0.1708 0.3844
H45 H -0.4794 -0.2191 0.4322
H46 H -0.4042 -0.2638 0.4090
H47 H -0.2453 -0.3946 0.3175
H48 H -0.2613 -0.2950 0.1568
H49 H -0.2481 -0.5257 0.1964
H50 H -0.3321 -0.5665 0.2080
H51 H -0.2683 -0.5341 0.2587
H52 H -0.3685 -0.4406 0.2931
H53 H -0.4301 -0.4816 0.2439
H54 H -0.4236 -0.3762 0.2520
H55 H -0.3332 -0.4129 0.1316
H56 H -0.4024 -0.3598 0.1569
H57 H -0.4089 -0.4653 0.1489
H58 H -0.1037 0.1567 0.2397
H59 H -0.1818 0.2136 0.2178
H60 H -0.0709 0.0357 0.4339
H61 H -0.1327 0.0662 0.4750
H62 H -0.1439 -0.3377 0.3886
H63 H -0.0756 -0.2726 0.3720
H64 H -0.0954 -0.1608 0.1734
H65 H -0.1703 -0.1952 0.1314
C50 C 0.3239(5) 0.4152(8) 0.2113(7)
Cl1 Cl 0.3739(6) 0.5046(5) 0.1893(3)
Cl2 Cl 0.3916(7) 0.3380(5) 0.2401(4)
H66 H 0.2903 0.4346 0.2391
H67 H 0.2900 0.3887 0.1797
C51 C 0.2059(7) 0.3997(17) 0.4900(11)
Cl3 Cl 0.2610(5) 0.4630(6) 0.5396(4)
Cl4 Cl 0.1068(7) 0.4282(10) 0.4861(5)
H68 H 0.2124 0.3368 0.4998
H69 H 0.2245 0.4101 0.4540
C52 C -0.1168(16) 0.2623(26) 0.5893(6)
Cl5 Cl -0.0979(10) 0.2958(13) 0.5251(7)
Cl6 Cl -0.2052(9) 0.2047(9) 0.5832(5)
H70 H -0.1207 0.3146 0.6129
H71 H -0.0731 0.2240 0.6060
C53? C -0.4338(18) 0.2123(30) 0.3459(20)
C54? C -0.3597(28) 0.2740(34) 0.4339(8)
C55? C -0.3548(30) 0.3536(19) 0.3437(20)
H72? H -0.4384 0.1515 0.3594
H73? H -0.4802 0.2472 0.3537
H74? H -0.4320 0.2112 0.3058
H75? H -0.3105 0.3012 0.4525
H76? H -0.4062 0.3088 0.4418
H77? H -0.3643 0.2132 0.4475
H78? H -0.3056 0.3808 0.3623
H79? H -0.3530 0.3524 0.3036
H80? H -0.4013 0.3884 0.3516
loop_
_geom_bond_atom_site_label_1
_geom_bond_atom_site_label_2
_geom_bond_site_symmetry_1
_geom_bond_site_symmetry_2
P1 N1 1_555 1_555
P2 N2 1_555 1_555
N1 C2 1_555 1_555
N2 C4 1_555 1_555
C1 P1 1_555 1_555
C2 H3 1_555 1_555
C3 N1 1_555 1_555
C4 H9 1_555 1_555
C5 N2 1_555 1_555
O1 P1 1_555 1_555
O2 P2 1_555 1_555
O3 C26 1_555 1_555
O4 C36 1_555 1_555
C6 O1 1_555 1_555
C7 C6 1_555 1_555
C8 C7 1_555 1_555
C9 C8 1_555 1_555
C10 C9 1_555 1_555
C11 C6 1_555 1_555
C12 C9 1_555 1_555
C13 C12 1_555 1_555
C14 C12 1_555 1_555
C15 C12 1_555 1_555
C16 O2 1_555 1_555
C17 C16 1_555 1_555
C18 C17 1_555 1_555
C19 C18 1_555 1_555
C20 C19 1_555 1_555
C21 C16 1_555 1_555
C22 C19 1_555 1_555
C23 C22 1_555 1_555
C24 C22 1_555 1_555
C25 C22 1_555 1_555
C26 C27 1_555 1_555
C27 C28 1_555 1_555
C28 C29 1_555 1_555
C29 C30 1_555 1_555
C30 C31 1_555 1_555
C31 C26 1_555 1_555
C32 C29 1_555 1_555
C33 C32 1_555 1_555
C34 C32 1_555 1_555
C35 C32 1_555 1_555
C36 C37 1_555 1_555
C37 C38 1_555 1_555
C38 C39 1_555 1_555
C39 C40 1_555 1_555
C40 C41 1_555 1_555
C41 C36 1_555 1_555
C42 C39 1_555 1_555
C43 C42 1_555 1_555
C44 C42 1_555 1_555
C45 C42 1_555 1_555
C46 C11 1_555 1_555
C47 C21 1_555 1_555
C48 C31 1_555 1_555
C49 C7 1_555 1_555
H1 C1 1_555 1_555
H2 C1 1_555 1_555
H4 C2 1_555 1_555
H5 C2 1_555 1_555
H6 C3 1_555 1_555
H7 C3 1_555 1_555
H8 C3 1_555 1_555
H10 C4 1_555 1_555
H11 C4 1_555 1_555
H12 C5 1_555 1_555
H13 C5 1_555 1_555
H14 C5 1_555 1_555
H15 C8 1_555 1_555
H16 C10 1_555 1_555
H17 C13 1_555 1_555
H18 C13 1_555 1_555
H19 C13 1_555 1_555
H20 C14 1_555 1_555
H21 C14 1_555 1_555
H22 C14 1_555 1_555
H23 C15 1_555 1_555
H24 C15 1_555 1_555
H25 C15 1_555 1_555
H26 C18 1_555 1_555
H27 C20 1_555 1_555
H28 C23 1_555 1_555
H29 C23 1_555 1_555
H30 C23 1_555 1_555
H31 C24 1_555 1_555
H32 C24 1_555 1_555
H33 C24 1_555 1_555
H34 C25 1_555 1_555
H35 C25 1_555 1_555
H36 C25 1_555 1_555
H37 C28 1_555 1_555
H38 C30 1_555 1_555
H39 C33 1_555 1_555
H40 C33 1_555 1_555
H41 C34 1_555 1_555
H42 C34 1_555 1_555
H43 C34 1_555 1_555
H44 C35 1_555 1_555
H45 C35 1_555 1_555
H46 C35 1_555 1_555
H47 C38 1_555 1_555
H48 C40 1_555 1_555
H49 C43 1_555 1_555
H50 C43 1_555 1_555
H51 C43 1_555 1_555
H52 C44 1_555 1_555
H53 C44 1_555 1_555
H54 C44 1_555 1_555
H55 C45 1_555 1_555
H56 C45 1_555 1_555
H57 C45 1_555 1_555
H58 C46 1_555 1_555
H59 C46 1_555 1_555
H60 C47 1_555 1_555
H61 C47 1_555 1_555
H62 C48 1_555 1_555
H63 C48 1_555 1_555
H64 C49 1_555 1_555
H65 C49 1_555 1_555
C50 Cl1 1_555 1_555
Cl2 C50 1_555 1_555
H66 C50 1_555 1_555
H67 C50 1_555 1_555
C51 Cl3 1_555 1_555
Cl4 C51 1_555 1_555
H68 C51 1_555 1_555
H69 C51 1_555 1_555
C52 Cl5 1_555 1_555
Cl6 C52 1_555 1_555
H70 C52 1_555 1_555
H71 C52 1_555 1_555
P2 C1 1_555 1_555
C10 C11 1_555 1_555
C17 C46 1_555 1_555
C20 C21 1_555 1_555
C27 C47 1_555 1_555
C37 C48 1_555 1_555
C41 C49 1_555 1_555

#END
