
#######################################################################
#
#                 Cambridge Crystallographic Data Centre
#                                CCDC 
#
#######################################################################
#
# If this CIF has been generated from an entry in the Cambridge 
# Structural Database, then it will include bibliographic, chemical, 
# crystal, experimental, refinement or atomic coordinate data resulting 
# from the CCDC's data processing and validation procedures.
#
#######################################################################

data_ZIDVOZ
_chemical_formula_moiety         'C64 H28 F12 N4,2.5(C1 H1 Cl3)'
_chemical_name_systematic        
"2,2'-(5,9,14,18-tetrakis(4-(trifluoromethyl)phenyl)heptacene-7,16-diylidene)dimalononitrile chloroform solvate"
_symmetry_cell_setting           monoclinic
_symmetry_space_group_name_H-M   'P 21/n'
_symmetry_Int_Tables_number      14
_space_group_name_Hall           '-P 2yn'
loop_
_symmetry_equiv_pos_site_id
_symmetry_equiv_pos_as_xyz
1 x,y,z
2 1/2-x,1/2+y,1/2-z
3 -x,-y,-z
4 1/2+x,1/2-y,1/2+z
_cell_length_a                   13.0937(14)
_cell_length_b                   15.1874(17)
_cell_length_c                   30.448(3)
_cell_angle_alpha                90
_cell_angle_beta                 98.319(3)
_cell_angle_gamma                90
_cell_volume                     5991.16
_exptl_crystal_colour            red
_exptl_crystal_description       Block
_cell_formula_units_Z            4
loop_
_atom_site_label
_atom_site_type_symbol
_atom_site_fract_x
_atom_site_fract_y
_atom_site_fract_z
F1 F 1.4626(4) 0.3439(4) 0.5671(2)
F2 F 1.4234(4) 0.4719(4) 0.5428(2)
F3 F 1.4578(3) 0.3734(4) 0.49760(18)
C1 C 0.3495(8) 0.1148(7) 0.4535(4)
F4 F 0.2759(6) 0.1742(5) 0.4396(2)
F5 F 0.3251(4) 0.0840(5) 0.4930(2)
F6 F 0.3338(4) 0.0471(5) 0.4250(2)
F7 F 1.60347(19) 0.02003(17) 0.38687(10)
F8 F 1.6441(2) -0.1085(2) 0.40979(12)
F9 F 1.6455(2) -0.0744(2) 0.34222(11)
F10 F 0.48023(19) -0.3335(2) 0.30968(9)
F11 F 0.46619(19) -0.22771(19) 0.26233(12)
F12 F 0.50138(18) -0.35789(16) 0.24211(8)
N1 N 1.1679(3) 0.3479(2) 0.37333(13)
N2 N 1.2655(3) 0.1272(2) 0.30349(13)
N3 N 0.6082(3) 0.1961(2) 0.32165(11)
N4 N 0.7229(3) 0.0028(2) 0.24197(11)
C2 C 1.0560(3) 0.1351(2) 0.36497(12)
C3 C 0.9819(3) 0.1702(2) 0.39286(12)
C4 C 1.0124(3) 0.2218(2) 0.42913(12)
H1 H 1.0829 0.2384 0.4358
C5 C 0.9418(3) 0.2513(2) 0.45728(12)
C6 C 0.9751(3) 0.3023(2) 0.49495(12)
C7 C 0.9033(3) 0.3309(2) 0.52236(12)
C8 C 0.9328(3) 0.3857(2) 0.56029(12)
H2 H 1.0030 0.4026 0.5679
C9 C 0.8618(3) 0.4140(3) 0.58580(12)
H3 H 0.8833 0.4489 0.6113
C10 C 0.7567(3) 0.3916(2) 0.57446(12)
H4 H 0.7076 0.4130 0.5920
C11 C 0.7250(3) 0.3397(2) 0.53876(12)
H5 H 0.6540 0.3252 0.5317
C12 C 0.7963(3) 0.3063(2) 0.51157(12)
C13 C 0.7644(3) 0.2506(2) 0.47509(12)
C14 C 0.8363(3) 0.2243(2) 0.44760(12)
C15 C 0.8067(3) 0.1690(2) 0.40992(12)
H6 H 0.7371 0.1499 0.4035
C16 C 0.8756(3) 0.1428(2) 0.38284(12)
C17 C 0.8493(3) 0.0834(2) 0.34467(12)
C18 C 0.9288(3) 0.0175(2) 0.33982(11)
C19 C 0.9049(3) -0.0679(2) 0.32891(12)
H7 H 0.8343 -0.0846 0.3230
C20 C 0.9819(3) -0.1330(2) 0.32603(12)
C21 C 0.9560(3) -0.2203(2) 0.31446(11)
C22 C 1.0340(3) -0.2825(2) 0.31088(11)
C23 C 1.0104(3) -0.3705(2) 0.29664(12)
H8 H 0.9403 -0.3884 0.2903
C24 C 1.0864(3) -0.4295(3) 0.29189(12)
H9 H 1.0688 -0.4884 0.2833
C25 C 1.1922(3) -0.4036(3) 0.29979(13)
H10 H 1.2448 -0.4445 0.2956
C26 C 1.2176(3) -0.3198(3) 0.31341(12)
H11 H 1.2883 -0.3033 0.3189
C27 C 1.1410(3) -0.2566(2) 0.31966(11)
C28 C 1.1668(3) -0.1689(2) 0.33238(12)
C29 C 1.0886(3) -0.1070(2) 0.33536(11)
C30 C 1.1114(3) -0.0177(2) 0.34825(12)
H12 H 1.1815 -0.0006 0.3558
C31 C 1.0359(3) 0.0438(2) 0.35015(11)
C32 C 1.0868(3) 0.3247(2) 0.50636(12)
C33 C 1.1499(3) 0.2794(3) 0.53939(13)
H13 H 1.1210 0.2354 0.5560
C34 C 1.2544(3) 0.2976(3) 0.54845(14)
H14 H 1.2969 0.2659 0.5710
C35 C 1.2967(3) 0.3622(3) 0.52435(14)
C36 C 1.2351(3) 0.4082(3) 0.49139(14)
H15 H 1.2642 0.4528 0.4751
C37 C 1.1305(3) 0.3890(3) 0.48220(12)
H16 H 1.0883 0.4199 0.4592
C38 C 1.4078(4) 0.3826(4) 0.53442(18)
C39 C 0.6567(3) 0.2164(2) 0.46789(12)
C40 C 0.6285(3) 0.1528(3) 0.49677(13)
H17 H 0.6783 0.1316 0.5202
C41 C 0.5291(3) 0.1202(3) 0.49191(14)
H18 H 0.5107 0.0772 0.5121
C42 C 0.4562(3) 0.1500(3) 0.45764(13)
C43 C 0.4833(3) 0.2128(3) 0.42841(14)
H19 H 0.4336 0.2332 0.4048
C44 C 0.5828(3) 0.2457(3) 0.43368(13)
H20 H 0.6009 0.2889 0.4136
C45 C 1.2775(3) -0.1425(2) 0.34298(12)
C46 C 1.3403(3) -0.1796(3) 0.37913(13)
H21 H 1.3123 -0.2224 0.3968
C47 C 1.4422(3) -0.1555(3) 0.38980(14)
H22 H 1.4841 -0.1824 0.4142
C48 C 1.4831(3) -0.0927(3) 0.36502(13)
C49 C 1.4219(3) -0.0532(3) 0.32906(13)
H23 H 1.4500 -0.0089 0.3123
C50 C 1.3200(3) -0.0788(3) 0.31802(13)
H24 H 1.2786 -0.0527 0.2932
C51 C 1.5931(3) -0.0641(3) 0.37619(15)
C52 C 0.8445(3) -0.2451(2) 0.30439(12)
C53 C 0.7969(3) -0.2978(3) 0.33276(13)
H25 H 0.8370 -0.3222 0.3584
C54 C 0.6924(3) -0.3155(3) 0.32435(13)
H26 H 0.6609 -0.3509 0.3443
C55 C 0.6336(3) -0.2813(3) 0.28666(13)
C56 C 0.6807(3) -0.2293(3) 0.25746(13)
H27 H 0.6409 -0.2063 0.2314
C57 C 0.7844(3) -0.2117(3) 0.26643(12)
H28 H 0.8158 -0.1761 0.2465
C58 C 0.5209(3) -0.3000(3) 0.27563(15)
C59 C 1.1344(3) 0.1841(3) 0.35301(12)
C60 C 1.1512(3) 0.2753(3) 0.36511(13)
C61 C 1.2065(3) 0.1506(3) 0.32516(14)
C62 C 0.7604(3) 0.0894(2) 0.31546(12)
C63 C 0.6771(3) 0.1502(2) 0.31993(12)
C64 C 0.7416(3) 0.0389(3) 0.27510(13)
C65 C 0.0447(3) 0.8790(3) 0.18533(13)
H29 H -0.0075 0.8309 0.1792
Cl1 Cl 0.1727(6) 0.8541(6) 0.2105(3)
Cl2 Cl -0.0137(8) 0.9524(3) 0.2192(3)
Cl3 Cl 0.0564(11) 0.9240(10) 0.1339(3)
C66 C 0.1830(3) 0.5506(3) 0.63895(13)
H30 H 0.2036 0.5043 0.6619
Cl4 Cl 0.19972(10) 0.50883(8) 0.58656(4)
Cl5 Cl 0.05363(8) 0.57858(8) 0.63985(4)
Cl6 Cl 0.26169(8) 0.64374(7) 0.65144(3)
F13? F 1.4393(5) 0.3794(5) 0.5823(2)
F14? F 1.4380(5) 0.4585(5) 0.5261(3)
F15? F 1.4661(4) 0.3139(4) 0.5264(2)
C67? C 0.3487(8) 0.1160(8) 0.4504(4)
F16? F 0.2800(7) 0.1824(5) 0.4510(3)
F17? F 0.3308(5) 0.0568(5) 0.4809(2)
F18? F 0.3236(5) 0.0764(5) 0.4101(2)
Cl7? Cl 0.1577(14) 0.832(2) 0.2109(4)
Cl8? Cl 0.0017(15) 0.9499(7) 0.2226(5)
Cl9? Cl 0.0529(12) 0.9326(10) 0.1349(3)
C68? C -0.0004(17) 1.006(2) 0.4834(8)
H31? H -0.0071 1.0617 0.4655
Cl10? Cl 0.0525(8) 1.0317(8) 0.5376(4)
Cl11? Cl 0.0798(15) 0.934(3) 0.4602(11)
Cl12? Cl -0.1221(8) 0.9600(13) 0.4823(5)
C69? C 0.0082(16) 1.008(2) 0.4851(8)
H32? H -0.0008 1.0612 0.4655
Cl13? Cl 0.0500(16) 0.923(3) 0.4546(11)
Cl14? Cl 0.1037(10) 1.0331(11) 0.5303(4)
Cl15? Cl -0.1067(10) 0.9872(10) 0.5023(5)
loop_
_geom_bond_atom_site_label_1
_geom_bond_atom_site_label_2
_geom_bond_site_symmetry_1
_geom_bond_site_symmetry_2
F1 C38 1_555 1_555
F2 C38 1_555 1_555
F3 C38 1_555 1_555
C1 F4 1_555 1_555
F5 C1 1_555 1_555
F6 C1 1_555 1_555
F7 C51 1_555 1_555
F8 C51 1_555 1_555
F9 C51 1_555 1_555
F10 C58 1_555 1_555
F11 C58 1_555 1_555
F12 C58 1_555 1_555
N1 C60 1_555 1_555
N2 C61 1_555 1_555
N3 C63 1_555 1_555
N4 C64 1_555 1_555
C2 C3 1_555 1_555
C3 C4 1_555 1_555
C4 H1 1_555 1_555
C5 C4 1_555 1_555
C6 C5 1_555 1_555
C7 C6 1_555 1_555
C8 C7 1_555 1_555
H2 C8 1_555 1_555
C9 C8 1_555 1_555
H3 C9 1_555 1_555
C10 C9 1_555 1_555
H4 C10 1_555 1_555
C11 C10 1_555 1_555
H5 C11 1_555 1_555
C12 C7 1_555 1_555
C13 C12 1_555 1_555
C14 C5 1_555 1_555
C15 C14 1_555 1_555
H6 C15 1_555 1_555
C16 C3 1_555 1_555
C17 C16 1_555 1_555
C18 C17 1_555 1_555
C19 C18 1_555 1_555
H7 C19 1_555 1_555
C20 C19 1_555 1_555
C21 C20 1_555 1_555
C22 C21 1_555 1_555
C23 C22 1_555 1_555
H8 C23 1_555 1_555
C24 C23 1_555 1_555
H9 C24 1_555 1_555
C25 C24 1_555 1_555
H10 C25 1_555 1_555
C26 C25 1_555 1_555
H11 C26 1_555 1_555
C27 C22 1_555 1_555
C28 C27 1_555 1_555
C29 C20 1_555 1_555
C30 C29 1_555 1_555
H12 C30 1_555 1_555
C31 C2 1_555 1_555
C32 C6 1_555 1_555
C33 C32 1_555 1_555
H13 C33 1_555 1_555
C34 C33 1_555 1_555
H14 C34 1_555 1_555
C35 C34 1_555 1_555
C36 C35 1_555 1_555
H15 C36 1_555 1_555
C37 C32 1_555 1_555
H16 C37 1_555 1_555
C38 C35 1_555 1_555
C39 C13 1_555 1_555
C40 C39 1_555 1_555
H17 C40 1_555 1_555
C41 C40 1_555 1_555
H18 C41 1_555 1_555
C42 C1 1_555 1_555
C43 C42 1_555 1_555
H19 C43 1_555 1_555
C44 C39 1_555 1_555
H20 C44 1_555 1_555
C45 C28 1_555 1_555
C46 C45 1_555 1_555
H21 C46 1_555 1_555
C47 C46 1_555 1_555
H22 C47 1_555 1_555
C48 C47 1_555 1_555
C49 C48 1_555 1_555
H23 C49 1_555 1_555
C50 C45 1_555 1_555
H24 C50 1_555 1_555
C51 C48 1_555 1_555
C52 C21 1_555 1_555
C53 C52 1_555 1_555
H25 C53 1_555 1_555
C54 C53 1_555 1_555
H26 C54 1_555 1_555
C55 C54 1_555 1_555
C56 C55 1_555 1_555
H27 C56 1_555 1_555
C57 C52 1_555 1_555
H28 C57 1_555 1_555
C58 C55 1_555 1_555
C59 C2 1_555 1_555
C60 C59 1_555 1_555
C61 C59 1_555 1_555
C62 C17 1_555 1_555
C63 C62 1_555 1_555
C64 C62 1_555 1_555
C65 H29 1_555 1_555
Cl1 C65 1_555 1_555
Cl2 C65 1_555 1_555
Cl3 C65 1_555 1_555
C66 H30 1_555 1_555
Cl4 C66 1_555 1_555
Cl5 C66 1_555 1_555
Cl6 C66 1_555 1_555
C11 C12 1_555 1_555
C13 C14 1_555 1_555
C15 C16 1_555 1_555
C18 C31 1_555 1_555
C26 C27 1_555 1_555
C28 C29 1_555 1_555
C30 C31 1_555 1_555
C36 C37 1_555 1_555
C41 C42 1_555 1_555
C43 C44 1_555 1_555
C49 C50 1_555 1_555
C56 C57 1_555 1_555

#END
