
#######################################################################
#
#                 Cambridge Crystallographic Data Centre
#                                CCDC 
#
#######################################################################
#
# If this CIF has been generated from an entry in the Cambridge 
# Structural Database, then it will include bibliographic, chemical, 
# crystal, experimental, refinement or atomic coordinate data resulting 
# from the CCDC's data processing and validation procedures.
#
#######################################################################

data_ZIDZOD
_chemical_formula_moiety         'C22 H42 Li2 N4 O2'
_chemical_name_systematic        
"bis(\m~2~-2-(Dimethylaminomethyl)pyrrolyl-N,N,N')-bis(diethyl ether)-di-lithium"
_symmetry_cell_setting           monoclinic
_symmetry_space_group_name_H-M   'P 21/n'
_symmetry_Int_Tables_number      14
_space_group_name_Hall           '-P 2yn'
loop_
_symmetry_equiv_pos_site_id
_symmetry_equiv_pos_as_xyz
1 x,y,z
2 1/2-x,1/2+y,1/2-z
3 -x,-y,-z
4 1/2+x,1/2-y,1/2+z
_cell_length_a                   10.180(4)
_cell_length_b                   10.219(4)
_cell_length_c                   12.962(5)
_cell_angle_alpha                90
_cell_angle_beta                 101.996(6)
_cell_angle_gamma                90
_cell_volume                     1318.98
_cell_formula_units_Z            2
loop_
_atom_site_label
_atom_site_type_symbol
_atom_site_fract_x
_atom_site_fract_y
_atom_site_fract_z
Li1 Li 0.9676(3) 0.0748(3) 1.0695(3)
N1 N 1.10034(18) 0.11539(16) 0.97437(13)
N2 N 0.94595(18) -0.00130(19) 0.77479(12)
O1 O 0.83698(19) 0.2139(2) 1.06746(16)
C1 C 1.0624(3) 0.1802(2) 0.88033(17)
C2 C 1.1547(3) 0.2765(2) 0.8726(2)
H1 H 1.1515 0.3342 0.8156
C3 C 1.2529(3) 0.2728(3) 0.9641(3)
H2 H 1.3287 0.3272 0.9817
C4 C 1.2177(3) 0.1747(2) 1.02332(19)
H3 H 1.2676 0.1503 1.0899
C5 C 0.9399(3) 0.1386(3) 0.80504(19)
H4 H 0.9284 0.1931 0.7416
H5 H 0.8617 0.1522 0.8369
C6 C 1.0465(3) -0.0177(3) 0.71049(17)
H6 H 1.0199 0.0317 0.6456
H7 H 1.0538 -0.1097 0.6939
H8 H 1.1326 0.0138 0.7491
C7 C 0.8152(3) -0.0442(3) 0.7151(2)
H9 H 0.7478 -0.0307 0.7571
H10 H 0.8193 -0.1364 0.6983
H11 H 0.7917 0.0060 0.6504
C8 C 0.7132(6) 0.2432(10) 1.0748(6)
H12 H 0.6792 0.3158 1.0273
H13 H 0.7108 0.2695 1.1471
C9 C 0.6277(11) 0.1220(15) 1.0443(15)
H14 H 0.5357 0.1404 1.0490
H15 H 0.6623 0.0508 1.0917
H16 H 0.6305 0.0972 0.9725
C10 C 0.9184(11) 0.3550(7) 1.0736(6)
H17 H 0.9948 0.3486 1.0386
H18 H 0.8588 0.4252 1.0404
C11 C 0.9646(13) 0.3789(11) 1.1884(9)
H19 H 1.0127 0.4613 1.1992
H20 H 1.0237 0.3084 1.2194
H21 H 0.8876 0.3824 1.2215
Li1B Li 1.0324(3) -0.0748(3) 0.9305(3)
N1B N 0.89966(18) -0.11539(16) 1.02563(13)
N2B N 1.05405(18) 0.00130(19) 1.22521(12)
O1B O 1.16302(19) -0.2139(2) 0.93254(16)
C1B C 0.9376(3) -0.1802(2) 1.11967(17)
C2B C 0.8453(3) -0.2765(2) 1.1274(2)
H1B H 0.8485 -0.3342 1.1844
C3B C 0.7471(3) -0.2728(3) 1.0359(3)
H2B H 0.6713 -0.3272 1.0183
C4B C 0.7823(3) -0.1747(2) 0.97668(19)
H3B H 0.7324 -0.1503 0.9101
C5B C 1.0601(3) -0.1386(3) 1.19496(19)
H4B H 1.0716 -0.1931 1.2584
H5B H 1.1383 -0.1522 1.1631
C6B C 0.9535(3) 0.0177(3) 1.28951(17)
H6B H 0.9801 -0.0317 1.3544
H7B H 0.9462 0.1097 1.3061
H8B H 0.8674 -0.0138 1.2509
C7B C 1.1848(3) 0.0442(3) 1.2849(2)
H9B H 1.2522 0.0307 1.2429
H10B H 1.1807 0.1364 1.3017
H11B H 1.2083 -0.0060 1.3496
C8B C 1.2868(6) -0.2432(10) 0.9252(6)
H12B H 1.3208 -0.3158 0.9727
H13B H 1.2892 -0.2695 0.8529
C9B C 1.3723(11) -0.1220(15) 0.9557(15)
H14B H 1.4643 -0.1404 0.9510
H15B H 1.3377 -0.0508 0.9083
H16B H 1.3695 -0.0972 1.0275
C10B C 1.0816(11) -0.3550(7) 0.9264(6)
H17B H 1.0052 -0.3486 0.9614
H18B H 1.1412 -0.4252 0.9596
C11B C 1.0354(13) -0.3789(11) 0.8116(9)
H19B H 0.9873 -0.4613 0.8008
H20B H 0.9763 -0.3084 0.7806
H21B H 1.1124 -0.3824 0.7785
C12? C 0.6885(10) 0.1435(11) 1.0703(7)
H22? H 0.6987 0.0491 1.0826
H23? H 0.6480 0.1823 1.1254
C13? C 0.6104(10) 0.1698(15) 0.9693(9)
H24? H 0.5209 0.1345 0.9641
H25? H 0.6518 0.1295 0.9162
H26? H 0.6049 0.2637 0.9579
C14? C 0.8415(10) 0.3310(8) 1.0964(9)
H27? H 0.7957 0.3410 1.1553
H28? H 0.7959 0.3864 1.0381
C15? C 0.9874(14) 0.3724(15) 1.1303(14)
H29? H 0.9917 0.4640 1.1504
H30? H 1.0328 0.3599 1.0723
H31? H 1.0309 0.3197 1.1900
loop_
_geom_bond_atom_site_label_1
_geom_bond_atom_site_label_2
_geom_bond_site_symmetry_1
_geom_bond_site_symmetry_2
Li1 N1 1_555 1_555
N1 C1 1_555 1_555
N2 C5 1_555 1_555
O1 Li1 1_555 1_555
C1 C2 1_555 1_555
C2 H1 1_555 1_555
C3 C2 1_555 1_555
H2 C3 1_555 1_555
C4 N1 1_555 1_555
H3 C4 1_555 1_555
C5 C1 1_555 1_555
H4 C5 1_555 1_555
H5 C5 1_555 1_555
C6 N2 1_555 1_555
H6 C6 1_555 1_555
H7 C6 1_555 1_555
H8 C6 1_555 1_555
C7 N2 1_555 1_555
H9 C7 1_555 1_555
H10 C7 1_555 1_555
H11 C7 1_555 1_555
C8 O1 1_555 1_555
H12 C8 1_555 1_555
H13 C8 1_555 1_555
C9 C8 1_555 1_555
H14 C9 1_555 1_555
H15 C9 1_555 1_555
H16 C9 1_555 1_555
C10 O1 1_555 1_555
H17 C10 1_555 1_555
H18 C10 1_555 1_555
C11 C10 1_555 1_555
H19 C11 1_555 1_555
H20 C11 1_555 1_555
H21 C11 1_555 1_555
Li1B N1 1_555 1_555
N1B Li1 1_555 1_555
N2B Li1 1_555 1_555
O1B Li1B 1_555 1_555
C1B N1B 1_555 1_555
C2B C1B 1_555 1_555
H1B C2B 1_555 1_555
C3B C2B 1_555 1_555
H2B C3B 1_555 1_555
C4B N1B 1_555 1_555
H3B C4B 1_555 1_555
C5B N2B 1_555 1_555
H4B C5B 1_555 1_555
H5B C5B 1_555 1_555
C6B N2B 1_555 1_555
H6B C6B 1_555 1_555
H7B C6B 1_555 1_555
H8B C6B 1_555 1_555
C7B N2B 1_555 1_555
H9B C7B 1_555 1_555
H10B C7B 1_555 1_555
H11B C7B 1_555 1_555
C8B O1B 1_555 1_555
H12B C8B 1_555 1_555
H13B C8B 1_555 1_555
C9B C8B 1_555 1_555
H14B C9B 1_555 1_555
H15B C9B 1_555 1_555
H16B C9B 1_555 1_555
C10B O1B 1_555 1_555
H17B C10B 1_555 1_555
H18B C10B 1_555 1_555
C11B C10B 1_555 1_555
H19B C11B 1_555 1_555
H20B C11B 1_555 1_555
H21B C11B 1_555 1_555
N2 Li1B 1_555 1_555
C3 C4 1_555 1_555
Li1B N1B 1_555 1_555
C1B C5B 1_555 1_555
C3B C4B 1_555 1_555

#END
