
#######################################################################
#
#                 Cambridge Crystallographic Data Centre
#                                CCDC 
#
#######################################################################
#
# If this CIF has been generated from an entry in the Cambridge 
# Structural Database, then it will include bibliographic, chemical, 
# crystal, experimental, refinement or atomic coordinate data resulting 
# from the CCDC's data processing and validation procedures.
#
#######################################################################

data_ZIFCOI
_chemical_formula_moiety         'C13 H18 O6'
_chemical_name_systematic        
'Methyl 3-ethylidene-2-methoxy-4-(2-methoxy-2-oxoethyl)-3,4-dihydro-2H-pyran-5-carboxylate'
_symmetry_cell_setting           monoclinic
_symmetry_space_group_name_H-M   'C 2'
_symmetry_Int_Tables_number      5
_space_group_name_Hall           'C 2y'
loop_
_symmetry_equiv_pos_site_id
_symmetry_equiv_pos_as_xyz
1 x,y,z
2 -x,y,-z
3 1/2+x,1/2+y,z
4 1/2-x,1/2+y,-z
_cell_length_a                   14.7073(10)
_cell_length_b                   12.5151(10)
_cell_length_c                   7.3471(6)
_cell_angle_alpha                90
_cell_angle_beta                 96.386(7)
_cell_angle_gamma                90
_cell_volume                     1343.94
_exptl_crystal_colour            yellow
_exptl_crystal_description       block
_cell_formula_units_Z            4
loop_
_atom_site_label
_atom_site_type_symbol
_atom_site_fract_x
_atom_site_fract_y
_atom_site_fract_z
O1 O 0.83425(12) 0.99829(14) 0.8627(2)
O2 O 0.97053(12) 0.98035(14) 0.7339(2)
O3 O 1.06892(13) 0.68025(17) 0.7877(3)
O4 O 0.93343(14) 0.60343(16) 0.6907(3)
O5 O 0.65176(12) 0.73676(16) 0.5392(3)
O6 O 0.62545(12) 0.80445(18) 0.8097(2)
C1 C 0.87295(16) 1.0006(2) 0.6951(3)
H1 H 0.8637 1.0717 0.6401
C2 C 0.99546(19) 0.8770(2) 0.7492(4)
H2 H 1.0558 0.8630 0.7951
C3 C 0.94238(17) 0.7930(2) 0.7054(3)
C4 C 0.84313(16) 0.8045(2) 0.6265(3)
H3 H 0.8324 0.7587 0.5180
C5 C 0.77919(16) 0.7680(2) 0.7672(4)
H4 H 0.7962 0.6964 0.8085
H5 H 0.7872 0.8150 0.8728
C6 C 0.68025(17) 0.7685(2) 0.6896(4)
C7 C 0.77922(18) 0.9538(2) 0.4137(3)
H6 H 0.7751 1.0276 0.4000
C8 C 0.82730(17) 0.9194(2) 0.5673(3)
C9 C 0.73117(19) 0.8893(2) 0.2608(4)
H7 H 0.7461 0.8151 0.2795
H8 H 0.7503 0.9125 0.1465
H9 H 0.6663 0.8988 0.2583
C10 C 0.97822(18) 0.6835(2) 0.7261(4)
C11 C 0.52835(19) 0.7993(4) 0.7465(4)
H10 H 0.5123 0.8570 0.6631
H11 H 0.4937 0.8049 0.8494
H12 H 0.5149 0.7324 0.6852
C12 C 0.8594(2) 1.0885(2) 0.9759(4)
H13 H 0.9242 1.0877 1.0109
H14 H 0.8280 1.0856 1.0835
H15 H 0.8428 1.1529 0.9093
C13 C 1.1084(2) 0.5744(3) 0.8001(6)
H16 H 1.0797 0.5330 0.8877
H17 H 1.1728 0.5795 0.8383
H18 H 1.0989 0.5403 0.6824
loop_
_geom_bond_atom_site_label_1
_geom_bond_atom_site_label_2
_geom_bond_site_symmetry_1
_geom_bond_site_symmetry_2
O1 C1 1_555 1_555
O2 C1 1_555 1_555
O3 C10 1_555 1_555
O4 C10 1_555 1_555
O5 C6 1_555 1_555
O6 C6 1_555 1_555
C1 H1 1_555 1_555
C2 O2 1_555 1_555
H2 C2 1_555 1_555
C3 C2 1_555 1_555
C4 C3 1_555 1_555
H3 C4 1_555 1_555
C5 C4 1_555 1_555
H4 C5 1_555 1_555
H5 C5 1_555 1_555
C6 C5 1_555 1_555
C7 H6 1_555 1_555
C8 C1 1_555 1_555
C9 C7 1_555 1_555
H7 C9 1_555 1_555
H8 C9 1_555 1_555
H9 C9 1_555 1_555
C10 C3 1_555 1_555
C11 O6 1_555 1_555
H10 C11 1_555 1_555
H11 C11 1_555 1_555
H12 C11 1_555 1_555
C12 O1 1_555 1_555
H13 C12 1_555 1_555
H14 C12 1_555 1_555
H15 C12 1_555 1_555
C13 O3 1_555 1_555
H16 C13 1_555 1_555
H17 C13 1_555 1_555
H18 C13 1_555 1_555
C4 C8 1_555 1_555
C7 C8 1_555 1_555

#END
