
#######################################################################
#
#                 Cambridge Crystallographic Data Centre
#                                CCDC 
#
#######################################################################
#
# If this CIF has been generated from an entry in the Cambridge 
# Structural Database, then it will include bibliographic, chemical, 
# crystal, experimental, refinement or atomic coordinate data resulting 
# from the CCDC's data processing and validation procedures.
#
#######################################################################

data_ZIFGUS
_chemical_formula_moiety         'C40 H42 F6 S2 Si2'
_chemical_name_systematic        
t-Butyl(6-(2-(t-butyl(dimethyl)silyl)-4-(4-(trifluoromethyl)phenyl)-6H-cyclopenta[b]thiophen-6-ylidene)-4-(4-(trifluoromethyl)phenyl)-6H-cyclopenta[b]thiophen-2-yl)dimethylsilane
_symmetry_cell_setting           triclinic
_symmetry_space_group_name_H-M   'P -1'
_symmetry_Int_Tables_number      2
_space_group_name_Hall           '-P 1'
loop_
_symmetry_equiv_pos_site_id
_symmetry_equiv_pos_as_xyz
1 x,y,z
2 -x,-y,-z
_cell_length_a                   7.814(8)
_cell_length_b                   8.447(8)
_cell_length_c                   15.640(15)
_cell_angle_alpha                100.930(8)
_cell_angle_beta                 99.546(17)
_cell_angle_gamma                103.730(14)
_cell_volume                     960.268
_exptl_crystal_colour            brown
_exptl_crystal_description       block
_cell_formula_units_Z            1
loop_
_atom_site_label
_atom_site_type_symbol
_atom_site_fract_x
_atom_site_fract_y
_atom_site_fract_z
C1 C 0.4115(4) 0.4548(5) 0.4913(2)
C2 C 0.3135(4) 0.3927(4) 0.5555(2)
H1 H 0.3653 0.4057 0.6167
C3 C 0.1376(4) 0.3135(4) 0.5154(2)
C4 C 0.1110(4) 0.3205(4) 0.4200(2)
C5 C 0.2773(4) 0.4025(4) 0.4065(2)
S1 S 0.26796(11) 0.40662(12) 0.29760(6)
C6 C 0.0400(4) 0.2984(4) 0.2668(2)
C7 C -0.0222(5) 0.2628(4) 0.3404(2)
H2 H -0.1438 0.2046 0.3375
Si1 Si -0.08273(13) 0.23429(12) 0.14662(6)
C8 C 0.0896(5) 0.2261(5) 0.0774(3)
H3 H 0.1746 0.3378 0.0894
H4 H 0.0292 0.1902 0.0140
H5 H 0.1552 0.1461 0.0925
C9 C -0.2411(6) 0.0221(5) 0.1277(3)
H6 H -0.3022 -0.0182 0.0645
H7 H -0.3310 0.0279 0.1642
H8 H -0.1734 -0.0554 0.1446
C10 C -0.2110(5) 0.3882(5) 0.1207(3)
C11 C -0.0781(7) 0.5591(5) 0.1295(3)
H9 H -0.0018 0.5479 0.0862
H10 H -0.0021 0.5988 0.1900
H11 H -0.1454 0.6398 0.1179
C12 C -0.3256(6) 0.3269(7) 0.0248(3)
H12 H -0.3835 0.4126 0.0105
H13 H -0.4186 0.2226 0.0195
H14 H -0.2479 0.3066 -0.0168
C13 C -0.3353(6) 0.4101(7) 0.1868(3)
H15 H -0.3965 0.4948 0.1746
H16 H -0.2627 0.4464 0.2480
H17 H -0.4255 0.3029 0.1795
C14 C -0.0040(4) 0.2357(4) 0.5577(2)
C15 C 0.0388(5) 0.1644(4) 0.6291(2)
H18 H 0.1591 0.1598 0.6480
C16 C -0.0919(5) 0.1007(4) 0.6727(2)
H19 H -0.0609 0.0531 0.7215
C17 C -0.2669(4) 0.1058(4) 0.6458(2)
C18 C -0.3151(5) 0.1704(4) 0.5728(2)
H20 H -0.4367 0.1710 0.5534
C19 C -0.1839(4) 0.2343(4) 0.5284(2)
H21 H -0.2166 0.2771 0.4780
C20 C -0.4064(5) 0.0415(5) 0.6952(3)
F1 F -0.5247(4) 0.1300(4) 0.7005(2)
F2 F -0.3367(3) 0.0350(4) 0.77754(16)
F3 F -0.5060(3) -0.1161(4) 0.65569(18)
C1A C 0.5885(4) 0.5452(5) 0.5087(2)
C2A C 0.6865(4) 0.6073(4) 0.4445(2)
H1A H 0.6347 0.5943 0.3833
C3A C 0.8624(4) 0.6865(4) 0.4846(2)
C4A C 0.8890(4) 0.6795(4) 0.5800(2)
C5A C 0.7227(4) 0.5975(4) 0.5935(2)
S1A S 0.73204(11) 0.59338(12) 0.70240(6)
C6A C 0.9600(4) 0.7016(4) 0.7332(2)
C7A C 1.0222(5) 0.7372(4) 0.6596(2)
H2A H 1.1438 0.7954 0.6625
Si1A Si 1.08273(13) 0.76571(12) 0.85338(6)
C8A C 0.9104(5) 0.7739(5) 0.9226(3)
H3A H 0.8254 0.6622 0.9106
H4A H 0.9708 0.8098 0.9860
H5A H 0.8448 0.8539 0.9075
C9A C 1.2411(6) 0.9779(5) 0.8723(3)
H6A H 1.3022 1.0182 0.9355
H7A H 1.3310 0.9721 0.8358
H8A H 1.1734 1.0554 0.8554
C10A C 1.2110(5) 0.6118(5) 0.8793(3)
C11A C 1.0781(7) 0.4409(5) 0.8705(3)
H9A H 1.0018 0.4521 0.9138
H10A H 1.0021 0.4012 0.8100
H11A H 1.1454 0.3602 0.8821
C12A C 1.3256(6) 0.6731(7) 0.9752(3)
H12A H 1.3835 0.5874 0.9895
H13A H 1.4186 0.7774 0.9805
H14A H 1.2479 0.6934 1.0168
C13A C 1.3353(6) 0.5899(7) 0.8132(3)
H15A H 1.3965 0.5052 0.8254
H16A H 1.2627 0.5536 0.7520
H17A H 1.4255 0.6971 0.8205
C14A C 1.0040(4) 0.7643(4) 0.4423(2)
C15A C 0.9612(5) 0.8356(4) 0.3709(2)
H18A H 0.8409 0.8402 0.3520
C16A C 1.0919(5) 0.8993(4) 0.3273(2)
H19A H 1.0609 0.9469 0.2785
C17A C 1.2669(4) 0.8942(4) 0.3542(2)
C18A C 1.3151(5) 0.8296(4) 0.4272(2)
H20A H 1.4367 0.8290 0.4466
C19A C 1.1839(4) 0.7657(4) 0.4716(2)
H21A H 1.2166 0.7229 0.5220
C20A C 1.4064(5) 0.9585(5) 0.3048(3)
F1A F 1.5247(4) 0.8700(4) 0.2995(2)
F2A F 1.3367(3) 0.9650(4) 0.22246(16)
F3A F 1.5060(3) 1.1161(4) 0.34431(18)
loop_
_geom_bond_atom_site_label_1
_geom_bond_atom_site_label_2
_geom_bond_site_symmetry_1
_geom_bond_site_symmetry_2
C1 C2 1_555 1_555
C2 H1 1_555 1_555
C3 C2 1_555 1_555
C4 C3 1_555 1_555
C5 C1 1_555 1_555
S1 C5 1_555 1_555
C6 S1 1_555 1_555
C7 C4 1_555 1_555
H2 C7 1_555 1_555
Si1 C6 1_555 1_555
C8 Si1 1_555 1_555
H3 C8 1_555 1_555
H4 C8 1_555 1_555
H5 C8 1_555 1_555
C9 Si1 1_555 1_555
H6 C9 1_555 1_555
H7 C9 1_555 1_555
H8 C9 1_555 1_555
C10 Si1 1_555 1_555
C11 C10 1_555 1_555
H9 C11 1_555 1_555
H10 C11 1_555 1_555
H11 C11 1_555 1_555
C12 C10 1_555 1_555
H12 C12 1_555 1_555
H13 C12 1_555 1_555
H14 C12 1_555 1_555
C13 C10 1_555 1_555
H15 C13 1_555 1_555
H16 C13 1_555 1_555
H17 C13 1_555 1_555
C14 C3 1_555 1_555
C15 C14 1_555 1_555
H18 C15 1_555 1_555
C16 C15 1_555 1_555
H19 C16 1_555 1_555
C17 C16 1_555 1_555
C18 C17 1_555 1_555
H20 C18 1_555 1_555
C19 C14 1_555 1_555
H21 C19 1_555 1_555
C20 C17 1_555 1_555
F1 C20 1_555 1_555
F2 C20 1_555 1_555
F3 C20 1_555 1_555
C1A C1 1_555 1_555
C2A C1A 1_555 1_555
H1A C2A 1_555 1_555
C3A C2A 1_555 1_555
C4A C3A 1_555 1_555
C5A C1A 1_555 1_555
S1A C5A 1_555 1_555
C6A S1A 1_555 1_555
C7A C4A 1_555 1_555
H2A C7A 1_555 1_555
Si1A C6A 1_555 1_555
C8A Si1A 1_555 1_555
H3A C8A 1_555 1_555
H4A C8A 1_555 1_555
H5A C8A 1_555 1_555
C9A Si1A 1_555 1_555
H6A C9A 1_555 1_555
H7A C9A 1_555 1_555
H8A C9A 1_555 1_555
C10A Si1A 1_555 1_555
C11A C10A 1_555 1_555
H9A C11A 1_555 1_555
H10A C11A 1_555 1_555
H11A C11A 1_555 1_555
C12A C10A 1_555 1_555
H12A C12A 1_555 1_555
H13A C12A 1_555 1_555
H14A C12A 1_555 1_555
C13A C10A 1_555 1_555
H15A C13A 1_555 1_555
H16A C13A 1_555 1_555
H17A C13A 1_555 1_555
C14A C3A 1_555 1_555
C15A C14A 1_555 1_555
H18A C15A 1_555 1_555
C16A C15A 1_555 1_555
H19A C16A 1_555 1_555
C17A C16A 1_555 1_555
C18A C17A 1_555 1_555
H20A C18A 1_555 1_555
C19A C14A 1_555 1_555
H21A C19A 1_555 1_555
C20A C17A 1_555 1_555
F1A C20A 1_555 1_555
F2A C20A 1_555 1_555
F3A C20A 1_555 1_555
C4 C5 1_555 1_555
C6 C7 1_555 1_555
C18 C19 1_555 1_555
C4A C5A 1_555 1_555
C6A C7A 1_555 1_555
C18A C19A 1_555 1_555

#END
