
#######################################################################
#
#                 Cambridge Crystallographic Data Centre
#                                CCDC 
#
#######################################################################
#
# If this CIF has been generated from an entry in the Cambridge 
# Structural Database, then it will include bibliographic, chemical, 
# crystal, experimental, refinement or atomic coordinate data resulting 
# from the CCDC's data processing and validation procedures.
#
#######################################################################

data_ZIFHAA
_chemical_formula_moiety         'C23 H32 N2 O4'
_chemical_name_systematic        
'methyl 1-(2-hydroxy-4-methylpentanoyl)-3a-(3-methylbut-2-en-1-yl)-1,2,3,3a,8,8a-hexahydropyrrolo[2,3-b]indole-2-carboxylate'
_symmetry_cell_setting           orthorhombic
_symmetry_space_group_name_H-M   'P 21 21 21'
_symmetry_Int_Tables_number      19
_space_group_name_Hall           'P 2ac 2ab'
loop_
_symmetry_equiv_pos_site_id
_symmetry_equiv_pos_as_xyz
1 x,y,z
2 1/2-x,-y,1/2+z
3 -x,1/2+y,1/2-z
4 1/2+x,1/2-y,-z
_cell_length_a                   6.7287(2)
_cell_length_b                   12.6774(4)
_cell_length_c                   26.7603(8)
_cell_angle_alpha                90
_cell_angle_beta                 90
_cell_angle_gamma                90
_cell_volume                     2282.72
_exptl_crystal_colour            colorless
_exptl_crystal_description       prismatic
_cell_formula_units_Z            4
loop_
_atom_site_label
_atom_site_type_symbol
_atom_site_fract_x
_atom_site_fract_y
_atom_site_fract_z
N1 N 0.5196(5) 1.0640(3) 0.12287(13)
N2 N 0.7252(4) 0.9360(2) 0.07694(11)
O1 O 0.4266(4) 0.8799(2) 0.05289(12)
O2 O 0.6552(4) 0.7379(2) -0.00370(11)
H1 H 0.7555 0.7065 -0.0127
O3 O 0.8639(5) 1.0941(2) 0.01569(12)
O4 O 1.1672(4) 1.0847(2) 0.04827(11)
C1 C 0.6394(6) 1.1528(3) 0.12865(14)
C2 C 0.5969(8) 1.2580(4) 0.11899(17)
H2 H 0.4739 1.2778 0.1063
C3 C 0.7412(9) 1.3325(4) 0.1287(2)
H3 H 0.7145 1.4034 0.1226
C4 C 0.9227(9) 1.3039(4) 0.1471(2)
H4 H 1.0188 1.3552 0.1528
C5 C 0.9649(7) 1.1989(4) 0.15733(18)
H5 H 1.0876 1.1797 0.1705
C6 C 0.8232(6) 1.1239(3) 0.14769(14)
C7 C 0.8309(5) 1.0059(3) 0.15508(14)
C8 C 0.6439(5) 0.9707(3) 0.12530(14)
H6 H 0.5752 0.9127 0.1423
C9 C 0.9392(5) 0.9542(3) 0.07286(14)
H7 H 1.0002 0.8937 0.0560
C10 C 1.0040(5) 0.9546(3) 0.12778(14)
H8 H 1.0261 0.8833 0.1397
H9 H 1.1250 0.9951 0.1322
C11 C 0.8180(7) 0.9778(4) 0.21151(15)
H10 H 0.9386 1.0018 0.2278
H11 H 0.7078 1.0164 0.2261
C12 C 0.7913(7) 0.8646(4) 0.22256(15)
H12 H 0.9050 0.8229 0.2212
C13 C 0.6254(8) 0.8161(5) 0.23413(18)
C14 C 0.4276(9) 0.8693(7) 0.2372(3)
H13 H 0.4411 0.9419 0.2274
H14 H 0.3791 0.8658 0.2709
H15 H 0.3357 0.8346 0.2153
C15 C 0.6213(11) 0.6993(5) 0.2438(2)
H16 H 0.7499 0.6699 0.2370
H17 H 0.5242 0.6668 0.2225
H18 H 0.5872 0.6867 0.2782
C16 C 0.6045(5) 0.8902(3) 0.04364(15)
C17 C 0.6903(6) 0.8482(3) -0.00517(15)
H19 H 0.8335 0.8619 -0.0065
C18 C 0.5898(7) 0.8969(4) -0.05001(17)
H20 H 0.5977 0.9731 -0.0474
H21 H 0.4503 0.8775 -0.0498
C19 C 0.6826(9) 0.8623(4) -0.09975(18)
H22 H 0.7036 0.7859 -0.0980
C20 C 0.5424(12) 0.8832(6) -0.1429(2)
H23 H 0.5125 0.9572 -0.1445
H24 H 0.4217 0.8441 -0.1381
H25 H 0.6040 0.8616 -0.1736
C21 C 0.8822(13) 0.9130(9) -0.1073(3)
H26 H 0.9395 0.8880 -0.1380
H27 H 0.9679 0.8952 -0.0799
H28 H 0.8667 0.9882 -0.1089
C22 C 0.9807(5) 1.0525(3) 0.04274(14)
C23 C 1.2284(9) 1.1735(5) 0.0179(2)
H29 H 1.1950 1.1602 -0.0164
H30 H 1.3694 1.1832 0.0209
H31 H 1.1613 1.2360 0.0291
H32 H 0.435(6) 1.065(3) 0.1006(15)
loop_
_geom_bond_atom_site_label_1
_geom_bond_atom_site_label_2
_geom_bond_site_symmetry_1
_geom_bond_site_symmetry_2
N1 C1 1_555 1_555
N2 C8 1_555 1_555
O1 C16 1_555 1_555
O2 H1 1_555 1_555
O3 C22 1_555 1_555
O4 C22 1_555 1_555
C1 C2 1_555 1_555
C2 H2 1_555 1_555
C3 C2 1_555 1_555
H3 C3 1_555 1_555
C4 C3 1_555 1_555
H4 C4 1_555 1_555
C5 C4 1_555 1_555
H5 C5 1_555 1_555
C6 C1 1_555 1_555
C7 C6 1_555 1_555
C8 N1 1_555 1_555
H6 C8 1_555 1_555
C9 N2 1_555 1_555
H7 C9 1_555 1_555
C10 C7 1_555 1_555
H8 C10 1_555 1_555
H9 C10 1_555 1_555
C11 C7 1_555 1_555
H10 C11 1_555 1_555
H11 C11 1_555 1_555
C12 C11 1_555 1_555
H12 C12 1_555 1_555
C13 C12 1_555 1_555
C14 C13 1_555 1_555
H13 C14 1_555 1_555
H14 C14 1_555 1_555
H15 C14 1_555 1_555
C15 C13 1_555 1_555
H16 C15 1_555 1_555
H17 C15 1_555 1_555
H18 C15 1_555 1_555
C16 N2 1_555 1_555
C17 O2 1_555 1_555
H19 C17 1_555 1_555
C18 C17 1_555 1_555
H20 C18 1_555 1_555
H21 C18 1_555 1_555
C19 C18 1_555 1_555
H22 C19 1_555 1_555
C20 C19 1_555 1_555
H23 C20 1_555 1_555
H24 C20 1_555 1_555
H25 C20 1_555 1_555
C21 C19 1_555 1_555
H26 C21 1_555 1_555
H27 C21 1_555 1_555
H28 C21 1_555 1_555
C22 C9 1_555 1_555
C23 O4 1_555 1_555
H29 C23 1_555 1_555
H30 C23 1_555 1_555
H31 C23 1_555 1_555
H32 N1 1_555 1_555
C5 C6 1_555 1_555
C7 C8 1_555 1_555
C9 C10 1_555 1_555
C16 C17 1_555 1_555

#END
