
#######################################################################
#
#                 Cambridge Crystallographic Data Centre
#                                CCDC 
#
#######################################################################
#
# If this CIF has been generated from an entry in the Cambridge 
# Structural Database, then it will include bibliographic, chemical, 
# crystal, experimental, refinement or atomic coordinate data resulting 
# from the CCDC's data processing and validation procedures.
#
#######################################################################

data_ZIFKOQ
_chemical_formula_moiety         'C17 H10 F3 N1 O2'
_chemical_name_systematic        
9-Methyl-4-(trifluoromethyl)pyrano[2,3-a]carbazol-2(11H)-one
_symmetry_cell_setting           monoclinic
_symmetry_space_group_name_H-M   'P 21/n'
_symmetry_Int_Tables_number      14
_space_group_name_Hall           '-P 2yn'
loop_
_symmetry_equiv_pos_site_id
_symmetry_equiv_pos_as_xyz
1 x,y,z
2 1/2-x,1/2+y,1/2-z
3 -x,-y,-z
4 1/2+x,1/2-y,1/2+z
_cell_length_a                   13.172(4)
_cell_length_b                   5.2676(15)
_cell_length_c                   20.117(6)
_cell_angle_alpha                90
_cell_angle_beta                 108.122(4)
_cell_angle_gamma                90
_cell_volume                     1326.58
_exptl_crystal_colour            yellow
_exptl_crystal_description       rod
_cell_formula_units_Z            4
loop_
_atom_site_label
_atom_site_type_symbol
_atom_site_fract_x
_atom_site_fract_y
_atom_site_fract_z
C1 C 0.15051(14) 0.7406(4) -0.03663(9)
C2 C 0.23686(14) 0.5706(4) -0.03752(10)
H1 H 0.2669 0.5819 -0.0747
C3 C 0.27500(14) 0.3980(4) 0.01313(10)
C4 C 0.22680(14) 0.3604(3) 0.06776(9)
C5 C 0.25830(15) 0.1752(4) 0.12150(10)
H2 H 0.3163 0.0651 0.1234
C6 C 0.20633(15) 0.1522(4) 0.17077(10)
H3 H 0.2270 0.0245 0.2057
C7 C 0.12267(14) 0.3184(4) 0.16911(9)
C8 C 0.09224(14) 0.5059(4) 0.11686(9)
C9 C 0.14232(14) 0.5229(3) 0.06575(9)
C10 C 0.37446(15) 0.2528(4) 0.01483(10)
C11 C -0.08486(15) 0.6547(4) 0.21538(10)
H4 H -0.1293 0.7952 0.1957
C12 C -0.01101(14) 0.5635(4) 0.18480(9)
C13 C 0.05526(14) 0.3547(4) 0.21271(10)
C14 C 0.04636(15) 0.2331(4) 0.27283(10)
H5 H 0.0897 0.0907 0.2923
C15 C -0.02699(16) 0.3259(4) 0.30283(10)
H6 H -0.0337 0.2452 0.3435
C16 C -0.09217(16) 0.5361(4) 0.27522(10)
C17 C -0.16857(17) 0.6328(5) 0.31151(12)
H7 H -0.1489 0.8065 0.3280
H8 H -0.1653 0.5232 0.3515
H9 H -0.2413 0.6319 0.2787
F1 F 0.40748(10) 0.3053(3) -0.04008(6)
F2 F 0.45471(9) 0.3113(2) 0.07218(6)
F3 F 0.36206(9) 0.0017(2) 0.01551(7)
N1 N 0.01051(12) 0.6505(3) 0.12558(8)
H10 H -0.0223 0.7759 0.0984
O1 O 0.11755(11) 0.9125(3) -0.07758(7)
O2 O 0.10621(10) 0.7080(2) 0.01582(6)
loop_
_geom_bond_atom_site_label_1
_geom_bond_atom_site_label_2
_geom_bond_site_symmetry_1
_geom_bond_site_symmetry_2
C1 C2 1_555 1_555
C2 H1 1_555 1_555
C3 C2 1_555 1_555
C4 C3 1_555 1_555
C5 C4 1_555 1_555
H2 C5 1_555 1_555
C6 C5 1_555 1_555
H3 C6 1_555 1_555
C7 C6 1_555 1_555
C8 C7 1_555 1_555
C9 C4 1_555 1_555
C10 C3 1_555 1_555
C11 H4 1_555 1_555
C12 C11 1_555 1_555
C13 C7 1_555 1_555
C14 C13 1_555 1_555
H5 C14 1_555 1_555
C15 C14 1_555 1_555
H6 C15 1_555 1_555
C16 C11 1_555 1_555
C17 C16 1_555 1_555
H7 C17 1_555 1_555
H8 C17 1_555 1_555
H9 C17 1_555 1_555
F1 C10 1_555 1_555
F2 C10 1_555 1_555
F3 C10 1_555 1_555
N1 C8 1_555 1_555
H10 N1 1_555 1_555
O1 C1 1_555 1_555
O2 C1 1_555 1_555
C8 C9 1_555 1_555
C9 O2 1_555 1_555
C12 C13 1_555 1_555
C12 N1 1_555 1_555
C15 C16 1_555 1_555

#END
