
#######################################################################
#
#                 Cambridge Crystallographic Data Centre
#                                CCDC 
#
#######################################################################
#
# If this CIF has been generated from an entry in the Cambridge 
# Structural Database, then it will include bibliographic, chemical, 
# crystal, experimental, refinement or atomic coordinate data resulting 
# from the CCDC's data processing and validation procedures.
#
#######################################################################

data_ZIFMIN
_chemical_formula_moiety         'C25 H35 I1 Mg1 N2 O1'
_chemical_name_systematic        
'(N^2^,N^4^-bis(2,6-dimethylphenyl)pentane-2,4-diiminato)-(diethyl ether)-iodo-magnesium'
_symmetry_cell_setting           monoclinic
_symmetry_space_group_name_H-M   'P 21/n'
_symmetry_Int_Tables_number      14
_space_group_name_Hall           '-P 2yn'
loop_
_symmetry_equiv_pos_site_id
_symmetry_equiv_pos_as_xyz
1 x,y,z
2 1/2-x,1/2+y,1/2-z
3 -x,-y,-z
4 1/2+x,1/2-y,1/2+z
_cell_length_a                   7.8042(16)
_cell_length_b                   16.365(3)
_cell_length_c                   20.374(4)
_cell_angle_alpha                90
_cell_angle_beta                 96.69(3)
_cell_angle_gamma                90
_cell_volume                     2584.36
_exptl_crystal_colour            colorless
_exptl_crystal_description       block
_cell_formula_units_Z            4
loop_
_atom_site_label
_atom_site_type_symbol
_atom_site_fract_x
_atom_site_fract_y
_atom_site_fract_z
I1 I 0.610938(18) 0.082045(8) 0.796414(7)
Mg1 Mg 0.42962(9) -0.05447(4) 0.76370(3)
O1 O 0.18363(18) -0.01971(9) 0.76460(8)
N1 N 0.4580(2) -0.11607(10) 0.67937(8)
C1 C 0.6553(3) -0.19741(15) 0.61904(11)
H1 H 0.5786 -0.2399 0.5983
H2 H 0.7721 -0.2195 0.6290
H3 H 0.6574 -0.1510 0.5888
N2 N 0.5041(2) -0.15081(10) 0.82381(8)
C2 C 0.5897(3) -0.16925(12) 0.68266(10)
C3 C 0.6710(3) -0.20391(13) 0.74091(11)
H4 H 0.7765 -0.2313 0.7369
C4 C 0.6177(3) -0.20375(13) 0.80487(10)
C5 C 0.6915(3) -0.26935(14) 0.85202(11)
H5 H 0.7558 -0.2439 0.8909
H6 H 0.7691 -0.3043 0.8299
H7 H 0.5974 -0.3025 0.8658
C6 C 0.3537(3) -0.10714(13) 0.61696(10)
C7 C 0.3571(3) -0.03355(13) 0.58124(10)
C8 C 0.2494(3) -0.02640(14) 0.52203(11)
H8 H 0.2505 0.0228 0.4974
C9 C 0.1409(3) -0.08909(15) 0.49832(12)
H9 H 0.0698 -0.0830 0.4575
C10 C 0.1360(3) -0.16078(15) 0.53413(11)
H10 H 0.0603 -0.2036 0.5180
C11 C 0.2415(3) -0.17055(13) 0.59381(11)
C12 C 0.4704(3) 0.03612(13) 0.60634(11)
H11 H 0.4711 0.0775 0.5716
H12 H 0.5881 0.0162 0.6188
H13 H 0.4262 0.0603 0.6450
C13 C 0.2312(3) -0.24920(14) 0.63225(12)
H14 H 0.1182 -0.2747 0.6202
H15 H 0.2463 -0.2373 0.6797
H16 H 0.3222 -0.2866 0.6217
C14 C 0.4449(3) -0.15804(12) 0.88780(10)
C15 C 0.5350(3) -0.11864(12) 0.94280(10)
C16 C 0.4602(3) -0.11671(14) 1.00158(11)
H17 H 0.5178 -0.0890 1.0388
C17 C 0.3037(3) -0.15438(15) 1.00693(12)
H18 H 0.2530 -0.1512 1.0470
C18 C 0.2218(3) -0.19657(15) 0.95364(12)
H19 H 0.1169 -0.2243 0.9581
C19 C 0.2901(3) -0.19933(13) 0.89317(11)
C20 C 0.7087(3) -0.08006(14) 0.93965(12)
H20 H 0.7282 -0.0377 0.9737
H21 H 0.7124 -0.0555 0.8960
H22 H 0.7987 -0.1219 0.9472
C21 C 0.1987(3) -0.24540(16) 0.83520(12)
H23 H 0.1605 -0.2069 0.7996
H24 H 0.0985 -0.2739 0.8490
H25 H 0.2779 -0.2853 0.8193
C22 C 0.1290(3) 0.04515(15) 0.80685(12)
H26 H 0.0182 0.0684 0.7866
H27 H 0.2161 0.0894 0.8106
C23 C 0.1079(4) 0.01291(18) 0.87436(13)
H28 H 0.0166 -0.0285 0.8709
H29 H 0.0767 0.0578 0.9025
H30 H 0.2166 -0.0117 0.8939
C24 C 0.0402(3) -0.06222(14) 0.72753(12)
H31 H -0.0506 -0.0721 0.7567
H32 H 0.0804 -0.1159 0.7130
C25 C -0.0353(3) -0.01424(18) 0.66784(13)
H33 H -0.0871 0.0363 0.6823
H34 H -0.1240 -0.0471 0.6420
H35 H 0.0561 -0.0008 0.6405
loop_
_geom_bond_atom_site_label_1
_geom_bond_atom_site_label_2
_geom_bond_site_symmetry_1
_geom_bond_site_symmetry_2
I1 Mg1 1_555 1_555
Mg1 O1 1_555 1_555
O1 C22 1_555 1_555
N1 Mg1 1_555 1_555
C1 H1 1_555 1_555
H2 C1 1_555 1_555
H3 C1 1_555 1_555
N2 Mg1 1_555 1_555
C2 N1 1_555 1_555
C3 C2 1_555 1_555
H4 C3 1_555 1_555
C4 N2 1_555 1_555
C5 C4 1_555 1_555
H5 C5 1_555 1_555
H6 C5 1_555 1_555
H7 C5 1_555 1_555
C6 N1 1_555 1_555
C7 C6 1_555 1_555
C8 C7 1_555 1_555
H8 C8 1_555 1_555
C9 C8 1_555 1_555
H9 C9 1_555 1_555
C10 C9 1_555 1_555
H10 C10 1_555 1_555
C11 C6 1_555 1_555
C12 C7 1_555 1_555
H11 C12 1_555 1_555
H12 C12 1_555 1_555
H13 C12 1_555 1_555
C13 C11 1_555 1_555
H14 C13 1_555 1_555
H15 C13 1_555 1_555
H16 C13 1_555 1_555
C14 N2 1_555 1_555
C15 C14 1_555 1_555
C16 C15 1_555 1_555
H17 C16 1_555 1_555
C17 C16 1_555 1_555
H18 C17 1_555 1_555
C18 C17 1_555 1_555
H19 C18 1_555 1_555
C19 C14 1_555 1_555
C20 C15 1_555 1_555
H20 C20 1_555 1_555
H21 C20 1_555 1_555
H22 C20 1_555 1_555
C21 C19 1_555 1_555
H23 C21 1_555 1_555
H24 C21 1_555 1_555
H25 C21 1_555 1_555
C22 H26 1_555 1_555
H27 C22 1_555 1_555
C23 C22 1_555 1_555
H28 C23 1_555 1_555
H29 C23 1_555 1_555
H30 C23 1_555 1_555
C24 O1 1_555 1_555
H31 C24 1_555 1_555
H32 C24 1_555 1_555
C25 C24 1_555 1_555
H33 C25 1_555 1_555
H34 C25 1_555 1_555
H35 C25 1_555 1_555
C1 C2 1_555 1_555
C3 C4 1_555 1_555
C10 C11 1_555 1_555
C18 C19 1_555 1_555

#END
