
#######################################################################
#
#                 Cambridge Crystallographic Data Centre
#                                CCDC 
#
#######################################################################
#
# If this CIF has been generated from an entry in the Cambridge 
# Structural Database, then it will include bibliographic, chemical, 
# crystal, experimental, refinement or atomic coordinate data resulting 
# from the CCDC's data processing and validation procedures.
#
#######################################################################

data_ZIFNIO
_chemical_formula_moiety         'C50 H68 Mg1 N4'
_chemical_name_systematic        
(N,N'-bis(2,6-diisopropylphenyl)formamidinato)-(N^2^,N^4^-bis(2,6-diethylphenyl)pentane-2,4-diiminato)-magnesium
_symmetry_cell_setting           tetragonal
_symmetry_space_group_name_H-M   'P 43 21 2'
_symmetry_Int_Tables_number      96
_space_group_name_Hall           'P 4nw 2abw'
loop_
_symmetry_equiv_pos_site_id
_symmetry_equiv_pos_as_xyz
1 x,y,z
2 1/2-y,1/2+x,3/4+z
3 -x,-y,1/2+z
4 1/2+y,1/2-x,1/4+z
5 1/2+x,1/2-y,1/4-z
6 1/2-x,1/2+y,3/4-z
7 y,x,-z
8 -y,-x,1/2-z
_cell_length_a                   13.2908(2)
_cell_length_b                   13.2908(2)
_cell_length_c                   26.0877(7)
_cell_angle_alpha                90
_cell_angle_beta                 90
_cell_angle_gamma                90
_cell_volume                     4608.27
_exptl_crystal_colour            colorless
_exptl_crystal_description       block
_cell_formula_units_Z            4
loop_
_atom_site_label
_atom_site_type_symbol
_atom_site_fract_x
_atom_site_fract_y
_atom_site_fract_z
Mg1 Mg 0.55608(5) 0.55608(5) 0.0000
N1 N 0.55457(14) 0.70475(13) 0.01841(7)
C1 C 0.6318(2) 0.86959(19) 0.03695(10)
H1 H 0.5884 0.9092 0.0143
H2 H 0.6996 0.8986 0.0372
H3 H 0.6042 0.8705 0.0718
N2 N 0.45186(14) 0.47142(13) 0.04272(6)
C2 C 0.63680(19) 0.76199(18) 0.01782(8)
C3 C 0.73072(17) 0.73072(17) 0.0000
H4 H 0.7813 0.7813 0.0000
C4 C 0.46364(18) 0.75136(17) 0.03578(10)
C5 C 0.4045(2) 0.8041(2) 0.00071(13)
C6 C 0.3183(3) 0.8504(3) 0.01916(19)
H5 H 0.2765 0.8867 -0.0039
C7 C 0.2919(2) 0.8451(3) 0.0699(2)
H6 H 0.2325 0.8777 0.0814
C8 C 0.3509(2) 0.7927(2) 0.10433(15)
H7 H 0.3316 0.7896 0.1394
C9 C 0.43848(18) 0.74449(18) 0.08812(10)
C10 C 0.4388(4) 0.8119(3) -0.05507(13)
H8 H 0.5118 0.8264 -0.0544
H9 H 0.4311 0.7441 -0.0703
C11 C 0.3951(5) 0.8805(3) -0.0899(2)
H10 H 0.3227 0.8675 -0.0925
H11 H 0.4263 0.8724 -0.1237
H12 H 0.4061 0.9494 -0.0777
C12 C 0.5071(2) 0.6899(2) 0.12439(9)
H13 H 0.5729 0.7249 0.1245
H14 H 0.5186 0.6214 0.1107
C13 C 0.4720(3) 0.6800(3) 0.17946(12)
H15 H 0.4631 0.7471 0.1943
H16 H 0.5225 0.6428 0.1993
H17 H 0.4079 0.6436 0.1804
C14 C 0.42558(16) 0.42558(16) 0.0000
H18 H 0.3750 0.3750 0.0000
C15 C 0.39601(17) 0.45058(16) 0.08792(8)
C16 C 0.29082(17) 0.46291(16) 0.08982(9)
C17 C 0.2416(2) 0.43904(18) 0.13563(10)
H19 H 0.1704 0.4438 0.1372
C18 C 0.2945(2) 0.4087(2) 0.17870(10)
H20 H 0.2596 0.3938 0.2096
C19 C 0.3977(2) 0.40016(19) 0.17669(9)
H21 H 0.4336 0.3811 0.2066
C20 C 0.45021(19) 0.41891(16) 0.13158(9)
C21 C 0.22875(19) 0.5017(2) 0.04502(10)
H22 H 0.2767 0.5269 0.0184
C22 C 0.1611(2) 0.5891(2) 0.06020(12)
H23 H 0.1088 0.5650 0.0837
H24 H 0.1296 0.6174 0.0295
H25 H 0.2014 0.6410 0.0773
C23 C 0.1660(2) 0.4171(3) 0.02055(12)
H26 H 0.2107 0.3626 0.0096
H27 H 0.1297 0.4437 -0.0092
H28 H 0.1177 0.3913 0.0457
C24 C 0.5622(2) 0.3996(2) 0.12820(9)
H29 H 0.5912 0.4512 0.1046
C25 C 0.6186(2) 0.4073(3) 0.17906(11)
H30 H 0.6003 0.4702 0.1963
H31 H 0.6912 0.4064 0.1726
H32 H 0.6005 0.3501 0.2009
C26 C 0.5814(3) 0.2963(2) 0.10415(12)
H33 H 0.5493 0.2441 0.1251
H34 H 0.6540 0.2839 0.1025
H35 H 0.5532 0.2948 0.0695
N1F N 0.70475(13) 0.55457(14) -0.01841(7)
C1F C 0.86959(19) 0.6318(2) -0.03695(10)
H1F H 0.9092 0.5884 -0.0143
H2F H 0.8986 0.6996 -0.0372
H3F H 0.8705 0.6042 -0.0718
C2F C 0.76199(18) 0.63680(19) -0.01782(8)
C4F C 0.75136(17) 0.46364(18) -0.03578(10)
C5F C 0.8041(2) 0.4045(2) -0.00071(13)
C6F C 0.8504(3) 0.3183(3) -0.01916(19)
H5F H 0.8867 0.2765 0.0039
C7F C 0.8451(3) 0.2919(2) -0.0699(2)
H6F H 0.8777 0.2325 -0.0814
C8F C 0.7927(2) 0.3509(2) -0.10433(15)
H7F H 0.7896 0.3316 -0.1394
C9F C 0.74449(18) 0.43848(18) -0.08812(10)
C10F C 0.8119(3) 0.4388(4) 0.05507(13)
H8F H 0.8264 0.5118 0.0544
H9F H 0.7441 0.4311 0.0703
C11F C 0.8805(3) 0.3951(5) 0.0899(2)
H10F H 0.8675 0.3227 0.0925
H11F H 0.8724 0.4263 0.1237
H12F H 0.9494 0.4061 0.0777
C12F C 0.6899(2) 0.5071(2) -0.12439(9)
H13F H 0.7249 0.5729 -0.1245
H14F H 0.6214 0.5186 -0.1107
C13F C 0.6800(3) 0.4720(3) -0.17946(12)
H15F H 0.7471 0.4631 -0.1943
H16F H 0.6428 0.5225 -0.1993
H17F H 0.6436 0.4079 -0.1804
N2F N 0.47142(13) 0.45186(14) -0.04272(6)
C15F C 0.45058(16) 0.39601(17) -0.08792(8)
C16F C 0.46291(16) 0.29082(17) -0.08982(9)
C17F C 0.43904(18) 0.2416(2) -0.13563(10)
H19F H 0.4438 0.1704 -0.1372
C18F C 0.4087(2) 0.2945(2) -0.17870(10)
H20F H 0.3938 0.2596 -0.2096
C19F C 0.40016(19) 0.3977(2) -0.17669(9)
H21F H 0.3811 0.4336 -0.2066
C20F C 0.41891(16) 0.45021(19) -0.13158(9)
C21F C 0.5017(2) 0.22875(19) -0.04502(10)
H22F H 0.5269 0.2767 -0.0184
C22F C 0.5891(2) 0.1611(2) -0.06020(12)
H23F H 0.5650 0.1088 -0.0837
H24F H 0.6174 0.1296 -0.0295
H25F H 0.6410 0.2014 -0.0773
C23F C 0.4171(3) 0.1660(2) -0.02055(12)
H26F H 0.3626 0.2107 -0.0096
H27F H 0.4437 0.1297 0.0092
H28F H 0.3913 0.1177 -0.0457
C24F C 0.3996(2) 0.5622(2) -0.12820(9)
H29F H 0.4512 0.5912 -0.1046
C25F C 0.4073(3) 0.6186(2) -0.17906(11)
H30F H 0.4702 0.6003 -0.1963
H31F H 0.4064 0.6912 -0.1726
H32F H 0.3501 0.6005 -0.2009
C26F C 0.2963(2) 0.5814(3) -0.10415(12)
H33F H 0.2441 0.5493 -0.1251
H34F H 0.2839 0.6540 -0.1025
H35F H 0.2948 0.5532 -0.0695
loop_
_geom_bond_atom_site_label_1
_geom_bond_atom_site_label_2
_geom_bond_site_symmetry_1
_geom_bond_site_symmetry_2
Mg1 N1 1_555 1_555
N1 C2 1_555 1_555
C1 H1 1_555 1_555
H2 C1 1_555 1_555
H3 C1 1_555 1_555
N2 Mg1 1_555 1_555
C2 C1 1_555 1_555
C3 C2 1_555 1_555
H4 C3 1_555 1_555
C4 N1 1_555 1_555
C5 C4 1_555 1_555
C6 C5 1_555 1_555
H5 C6 1_555 1_555
C7 C6 1_555 1_555
H6 C7 1_555 1_555
C8 C7 1_555 1_555
H7 C8 1_555 1_555
C9 C4 1_555 1_555
C10 C5 1_555 1_555
H8 C10 1_555 1_555
H9 C10 1_555 1_555
C11 C10 1_555 1_555
H10 C11 1_555 1_555
H11 C11 1_555 1_555
H12 C11 1_555 1_555
C12 C9 1_555 1_555
H13 C12 1_555 1_555
H14 C12 1_555 1_555
C13 C12 1_555 1_555
H15 C13 1_555 1_555
H16 C13 1_555 1_555
H17 C13 1_555 1_555
C14 N2 1_555 1_555
H18 C14 1_555 1_555
C15 N2 1_555 1_555
C16 C15 1_555 1_555
C17 C16 1_555 1_555
H19 C17 1_555 1_555
C18 C17 1_555 1_555
H20 C18 1_555 1_555
C19 C18 1_555 1_555
H21 C19 1_555 1_555
C20 C15 1_555 1_555
C21 C16 1_555 1_555
H22 C21 1_555 1_555
C22 C21 1_555 1_555
H23 C22 1_555 1_555
H24 C22 1_555 1_555
H25 C22 1_555 1_555
C23 C21 1_555 1_555
H26 C23 1_555 1_555
H27 C23 1_555 1_555
H28 C23 1_555 1_555
C24 C20 1_555 1_555
H29 C24 1_555 1_555
C25 C24 1_555 1_555
H30 C25 1_555 1_555
H31 C25 1_555 1_555
H32 C25 1_555 1_555
C26 C24 1_555 1_555
H33 C26 1_555 1_555
H34 C26 1_555 1_555
H35 C26 1_555 1_555
N1F Mg1 1_555 1_555
C1F H1F 1_555 1_555
H2F C1F 1_555 1_555
H3F C1F 1_555 1_555
C2F C3 1_555 1_555
C4F N1F 1_555 1_555
C5F C4F 1_555 1_555
C6F C5F 1_555 1_555
H5F C6F 1_555 1_555
C7F C6F 1_555 1_555
H6F C7F 1_555 1_555
C8F C7F 1_555 1_555
H7F C8F 1_555 1_555
C9F C4F 1_555 1_555
C10F C5F 1_555 1_555
H8F C10F 1_555 1_555
H9F C10F 1_555 1_555
C11F C10F 1_555 1_555
H10F C11F 1_555 1_555
H11F C11F 1_555 1_555
H12F C11F 1_555 1_555
C12F C9F 1_555 1_555
H13F C12F 1_555 1_555
H14F C12F 1_555 1_555
C13F C12F 1_555 1_555
H15F C13F 1_555 1_555
H16F C13F 1_555 1_555
H17F C13F 1_555 1_555
N2F Mg1 1_555 1_555
C15F N2F 1_555 1_555
C16F C15F 1_555 1_555
C17F C16F 1_555 1_555
H19F C17F 1_555 1_555
C18F C17F 1_555 1_555
H20F C18F 1_555 1_555
C19F C18F 1_555 1_555
H21F C19F 1_555 1_555
C20F C15F 1_555 1_555
C21F C16F 1_555 1_555
H22F C21F 1_555 1_555
C22F C21F 1_555 1_555
H23F C22F 1_555 1_555
H24F C22F 1_555 1_555
H25F C22F 1_555 1_555
C23F C21F 1_555 1_555
H26F C23F 1_555 1_555
H27F C23F 1_555 1_555
H28F C23F 1_555 1_555
C24F C20F 1_555 1_555
H29F C24F 1_555 1_555
C25F C24F 1_555 1_555
H30F C25F 1_555 1_555
H31F C25F 1_555 1_555
H32F C25F 1_555 1_555
C26F C24F 1_555 1_555
H33F C26F 1_555 1_555
H34F C26F 1_555 1_555
H35F C26F 1_555 1_555
C8 C9 1_555 1_555
C14 N2F 1_555 1_555
C19 C20 1_555 1_555
N1F C2F 1_555 1_555
C1F C2F 1_555 1_555
C8F C9F 1_555 1_555
C19F C20F 1_555 1_555

#END
