
#######################################################################
#
#                 Cambridge Crystallographic Data Centre
#                                CCDC 
#
#######################################################################
#
# If this CIF has been generated from an entry in the Cambridge 
# Structural Database, then it will include bibliographic, chemical, 
# crystal, experimental, refinement or atomic coordinate data resulting 
# from the CCDC's data processing and validation procedures.
#
#######################################################################

data_ZIFQOW
_chemical_formula_moiety         'C11 H10 N4,3(H2 O1)'
_chemical_name_systematic        
'2-(1H-Imidazol-1-ylmethyl)-1H-benzimidazole trihydrate'
_symmetry_cell_setting           orthorhombic
_symmetry_space_group_name_H-M   'P n a 21'
_symmetry_Int_Tables_number      33
_space_group_name_Hall           'P 2c -2n'
loop_
_symmetry_equiv_pos_site_id
_symmetry_equiv_pos_as_xyz
1 x,y,z
2 -x,-y,1/2+z
3 1/2+x,1/2-y,z
4 1/2-x,1/2+y,1/2+z
_cell_length_a                   13.554(2)
_cell_length_b                   21.511(3)
_cell_length_c                   4.5170(7)
_cell_angle_alpha                90
_cell_angle_beta                 90
_cell_angle_gamma                90
_cell_volume                     1316.98
_exptl_crystal_colour            'pale yellow'
_exptl_crystal_description       needle
_cell_formula_units_Z            4
loop_
_atom_site_label
_atom_site_type_symbol
_atom_site_fract_x
_atom_site_fract_y
_atom_site_fract_z
O1 O 1.10869(12) 0.36815(7) 0.1685(4)
H1 H 1.0885 0.3503 0.0119
H2 H 1.0942 0.4064 0.1502
O2 O 1.05740(12) 0.49000(7) 0.1369(4)
H3 H 1.0239 0.4981 0.2912
H4 H 1.1042 0.5161 0.1226
O3 O 1.06654(12) 0.30076(8) 0.6789(4)
H5 H 1.0792 0.3207 0.5210
H6 H 1.0126 0.2814 0.6512
C1 C 0.84313(17) 0.36834(10) 0.3633(6)
H7 H 0.9006 0.3700 0.2509
C2 C 0.70670(15) 0.33453(10) 0.5582(6)
H8 H 0.6527 0.3100 0.6076
C3 C 0.72729(17) 0.39144(10) 0.6615(7)
H9 H 0.6888 0.4131 0.7973
C4 C 0.79470(18) 0.26056(10) 0.2165(5)
H10 H 0.8411 0.2659 0.0549
H11 H 0.7324 0.2470 0.1332
C5 C 0.83264(16) 0.21171(9) 0.4232(5)
C6 C 0.84254(15) 0.12226(9) 0.6542(6)
C7 C 0.8330(2) 0.06240(10) 0.7723(6)
H12 H 0.7827 0.0357 0.7133
C8 C 0.9018(2) 0.04510(12) 0.9800(6)
H13 H 0.8980 0.0055 1.0618
C9 C 0.9771(2) 0.08481(13) 1.0728(6)
H14 H 1.0221 0.0712 1.2142
C10 C 0.98580(17) 0.14313(12) 0.9596(6)
H15 H 1.0356 0.1697 1.0234
C11 C 0.91810(15) 0.16209(9) 0.7453(5)
N1 N 0.81274(14) 0.41324(9) 0.5392(5)
N2 N 0.78073(13) 0.31974(8) 0.3664(4)
N3 N 0.78984(14) 0.15545(9) 0.4490(5)
N4 N 0.90980(12) 0.21835(7) 0.5963(4)
H16 H 0.7408(19) 0.1468(12) 0.363(7)
loop_
_geom_bond_atom_site_label_1
_geom_bond_atom_site_label_2
_geom_bond_site_symmetry_1
_geom_bond_site_symmetry_2
O1 H1 1_555 1_555
H2 O1 1_555 1_555
O2 H3 1_555 1_555
H4 O2 1_555 1_555
O3 H5 1_555 1_555
H6 O3 1_555 1_555
C1 H7 1_555 1_555
C2 H8 1_555 1_555
C3 C2 1_555 1_555
H9 C3 1_555 1_555
C4 H10 1_555 1_555
H11 C4 1_555 1_555
C5 C4 1_555 1_555
C6 C7 1_555 1_555
C7 H12 1_555 1_555
C8 C7 1_555 1_555
H13 C8 1_555 1_555
C9 C8 1_555 1_555
H14 C9 1_555 1_555
C10 C9 1_555 1_555
H15 C10 1_555 1_555
C11 C6 1_555 1_555
N1 C1 1_555 1_555
N2 C1 1_555 1_555
N3 C5 1_555 1_555
N4 C5 1_555 1_555
H16 N3 1_555 1_555
C2 N2 1_555 1_555
C3 N1 1_555 1_555
C4 N2 1_555 1_555
C6 N3 1_555 1_555
C10 C11 1_555 1_555
C11 N4 1_555 1_555

#END
