
#######################################################################
#
#                 Cambridge Crystallographic Data Centre
#                                CCDC 
#
#######################################################################
#
# If this CIF has been generated from an entry in the Cambridge 
# Structural Database, then it will include bibliographic, chemical, 
# crystal, experimental, refinement or atomic coordinate data resulting 
# from the CCDC's data processing and validation procedures.
#
#######################################################################

data_ZIFSUE
_chemical_formula_moiety         'C19 H19 Br1 F1 N1 O1'
_chemical_name_systematic        
(4-Bromophenyl)(4-fluoro-3-propyl-3,4-dihydroisoquinolin-2(1H)-yl)methanone
_symmetry_cell_setting           orthorhombic
_symmetry_space_group_name_H-M   'P 21 21 21'
_symmetry_Int_Tables_number      19
_space_group_name_Hall           'P 2ac 2ab'
loop_
_symmetry_equiv_pos_site_id
_symmetry_equiv_pos_as_xyz
1 x,y,z
2 1/2-x,-y,1/2+z
3 -x,1/2+y,1/2-z
4 1/2+x,1/2-y,-z
_cell_length_a                   5.8517(5)
_cell_length_b                   16.9278(15)
_cell_length_c                   17.4654(15)
_cell_angle_alpha                90
_cell_angle_beta                 90
_cell_angle_gamma                90
_cell_volume                     1730.06
_exptl_crystal_colour            colorless
_exptl_crystal_description       prismatic
_cell_formula_units_Z            4
loop_
_atom_site_label
_atom_site_type_symbol
_atom_site_fract_x
_atom_site_fract_y
_atom_site_fract_z
Br1 Br 0.23912(8) 0.27057(2) 0.322745(19)
F1 F 0.8044(5) -0.08990(17) 0.77018(13)
N1 N 0.5547(5) 0.00809(16) 0.60619(15)
O1 O 0.8668(5) 0.01011(18) 0.53132(15)
C1 C 0.6358(6) -0.0595(2) 0.6495(2)
H1 H 0.7589 -0.0841 0.6198
C2 C 0.7415(8) -0.0271(2) 0.72308(18)
H2 H 0.8792 0.0028 0.7097
C3 C 0.5811(6) 0.0265(2) 0.76410(18)
C4 C 0.6107(8) 0.0410(2) 0.8423(2)
H3 H 0.7304 0.0170 0.8684
C5 C 0.4661(10) 0.0900(3) 0.8806(2)
H4 H 0.4864 0.0984 0.9328
C6 C 0.2922(9) 0.1266(3) 0.8433(2)
H5 H 0.1952 0.1606 0.8697
C7 C 0.2598(8) 0.1134(2) 0.76615(18)
H6 H 0.1395 0.1379 0.7407
C8 C 0.4065(6) 0.0635(2) 0.72612(18)
C9 C 0.3663(6) 0.0509(2) 0.64094(16)
H7 H 0.2257 0.0214 0.6336
H8 H 0.3492 0.1017 0.6159
C10 C 0.6757(5) 0.0347(2) 0.54626(19)
C11 C 0.5653(6) 0.09298(19) 0.49407(15)
C12 C 0.6852(6) 0.16034(19) 0.47142(18)
H9 H 0.8305 0.1700 0.4909
C13 C 0.5884(6) 0.2126(2) 0.42023(19)
H10 H 0.6666 0.2582 0.4062
C14 C 0.3786(6) 0.1974(2) 0.39027(17)
C15 C 0.2588(7) 0.13075(19) 0.40916(16)
H11 H 0.1176 0.1202 0.3870
C16 C 0.3535(6) 0.0793(2) 0.46236(18)
H12 H 0.2720 0.0346 0.4769
C17 C 0.4525(7) -0.1215(2) 0.6617(2)
H13 H 0.5187 -0.1661 0.6886
H14 H 0.3332 -0.0996 0.6939
C18 C 0.3478(10) -0.1502(3) 0.5879(3)
H15 H 0.2781 -0.1057 0.5619
H16 H 0.4682 -0.1705 0.5552
C19 C 0.1710(10) -0.2134(3) 0.5984(3)
H17 H 0.2425 -0.2604 0.6178
H18 H 0.1000 -0.2248 0.5501
H19 H 0.0573 -0.1956 0.6341
loop_
_geom_bond_atom_site_label_1
_geom_bond_atom_site_label_2
_geom_bond_site_symmetry_1
_geom_bond_site_symmetry_2
Br1 C14 1_555 1_555
F1 C2 1_555 1_555
N1 C1 1_555 1_555
O1 C10 1_555 1_555
C1 H1 1_555 1_555
C2 C1 1_555 1_555
H2 C2 1_555 1_555
C3 C2 1_555 1_555
C4 C3 1_555 1_555
H3 C4 1_555 1_555
C5 C4 1_555 1_555
H4 C5 1_555 1_555
C6 C5 1_555 1_555
H5 C6 1_555 1_555
C7 C6 1_555 1_555
H6 C7 1_555 1_555
C8 C3 1_555 1_555
C9 N1 1_555 1_555
H7 C9 1_555 1_555
H8 C9 1_555 1_555
C10 N1 1_555 1_555
C11 C10 1_555 1_555
C12 C11 1_555 1_555
H9 C12 1_555 1_555
C13 C12 1_555 1_555
H10 C13 1_555 1_555
C14 C13 1_555 1_555
C15 C14 1_555 1_555
H11 C15 1_555 1_555
C16 C11 1_555 1_555
H12 C16 1_555 1_555
C17 C1 1_555 1_555
H13 C17 1_555 1_555
H14 C17 1_555 1_555
C18 C17 1_555 1_555
H15 C18 1_555 1_555
H16 C18 1_555 1_555
C19 C18 1_555 1_555
H17 C19 1_555 1_555
H18 C19 1_555 1_555
H19 C19 1_555 1_555
C7 C8 1_555 1_555
C8 C9 1_555 1_555
C15 C16 1_555 1_555

#END
