
#######################################################################
#
#                 Cambridge Crystallographic Data Centre
#                                CCDC 
#
#######################################################################
#
# If this CIF has been generated from an entry in the Cambridge 
# Structural Database, then it will include bibliographic, chemical, 
# crystal, experimental, refinement or atomic coordinate data resulting 
# from the CCDC's data processing and validation procedures.
#
#######################################################################

data_ZIFTUG
_chemical_formula_moiety         'C33 H58'
_chemical_name_systematic        3-cyclohexylcholestane
_symmetry_cell_setting           monoclinic
_symmetry_space_group_name_H-M   'P 21'
_symmetry_Int_Tables_number      4
_space_group_name_Hall           'P 2yb'
loop_
_symmetry_equiv_pos_site_id
_symmetry_equiv_pos_as_xyz
1 x,y,z
2 -x,1/2+y,-z
_cell_length_a                   15.2991(3)
_cell_length_b                   9.6363(2)
_cell_length_c                   19.3364(4)
_cell_angle_alpha                90
_cell_angle_beta                 93.9340(10)
_cell_angle_gamma                90
_cell_volume                     2843.98
_exptl_crystal_colour            colorless
_exptl_crystal_description       platelet
_cell_formula_units_Z            4
loop_
_atom_site_label
_atom_site_type_symbol
_atom_site_fract_x
_atom_site_fract_y
_atom_site_fract_z
C1 C 0.49644(19) 0.4848(3) 0.54206(14)
H1 H 0.5210 0.4748 0.4963
H2 H 0.4758 0.3923 0.5562
C2 C 0.5688(2) 0.5350(4) 0.59510(14)
H3 H 0.6164 0.4653 0.5991
H4 H 0.5937 0.6229 0.5787
C3 C 0.5336(2) 0.5580(4) 0.66610(15)
H5 H 0.5144 0.4684 0.6849
H6 H 0.5806 0.5961 0.6984
C4 C 0.4570(2) 0.6582(3) 0.66015(15)
H7 H 0.4780 0.7506 0.6461
H8 H 0.4326 0.6681 0.7060
C5 C 0.3852(2) 0.6090(3) 0.60752(14)
H9 H 0.3378 0.6792 0.6039
H10 H 0.3600 0.5216 0.6242
C6 C 0.41843(18) 0.5846(3) 0.53534(13)
H11 H 0.4401 0.6754 0.5183
C7 C 0.34546(17) 0.5333(3) 0.48242(13)
H12 H 0.3245 0.4415 0.4989
C8 C 0.26665(18) 0.6322(3) 0.47679(13)
H13 H 0.2396 0.6344 0.5218
H14 H 0.2875 0.7271 0.4672
C9 C 0.19726(17) 0.5907(3) 0.42009(13)
H15 H 0.1498 0.6607 0.4180
H16 H 0.1715 0.5007 0.4327
C10 C 0.23252(17) 0.5773(3) 0.34777(13)
C11 C 0.30875(17) 0.4706(3) 0.35493(12)
H17 H 0.2829 0.3816 0.3706
C12 C 0.38002(17) 0.5111(3) 0.41040(13)
H18 H 0.4084 0.5977 0.3959
H19 H 0.4252 0.4374 0.4137
C13 C 0.34670(17) 0.4401(3) 0.28548(13)
H20 H 0.3731 0.5258 0.2679
H21 H 0.3936 0.3697 0.2923
C14 C 0.27663(17) 0.3871(3) 0.23205(13)
H22 H 0.2571 0.2940 0.2462
H23 H 0.3024 0.3776 0.1867
C15 C 0.19723(17) 0.4839(3) 0.22403(12)
H24 H 0.2162 0.5729 0.2031
C16 C 0.16142(16) 0.5169(3) 0.29520(12)
H25 H 0.1433 0.4261 0.3148
C17 C 0.07757(17) 0.6067(3) 0.28641(13)
H26 H 0.0527 0.6166 0.3321
H27 H 0.0937 0.7005 0.2707
C18 C 0.00715(17) 0.5468(3) 0.23469(13)
H28 H -0.0423 0.6130 0.2289
H29 H -0.0154 0.4592 0.2534
C19 C 0.04290(16) 0.5184(3) 0.16369(13)
C20 C 0.12321(16) 0.4226(3) 0.17666(12)
H30 H 0.1019 0.3393 0.2014
C21 C 0.14322(18) 0.3725(3) 0.10432(13)
H31 H 0.1744 0.2824 0.1067
H32 H 0.1792 0.4412 0.0809
C22 C 0.05144(18) 0.3577(3) 0.06631(13)
H33 H 0.0368 0.2584 0.0591
H34 H 0.0500 0.4039 0.0205
C23 C -0.01549(17) 0.4274(3) 0.11282(12)
H35 H -0.0408 0.3521 0.1409
C24 C -0.09166(17) 0.4936(3) 0.06912(13)
H36 H -0.0664 0.5596 0.0359
C25 C -0.14439(18) 0.3840(3) 0.02677(13)
H37 H -0.1035 0.3125 0.0115
H38 H -0.1850 0.3381 0.0573
C26 C -0.19731(19) 0.4403(3) -0.03688(14)
H39 H -0.1571 0.4610 -0.0735
H40 H -0.2258 0.5283 -0.0245
C27 C -0.26735(18) 0.3387(3) -0.06535(14)
H41 H -0.3127 0.3310 -0.0314
H42 H -0.2401 0.2461 -0.0692
C28 C -0.3123(2) 0.3770(3) -0.13591(15)
H43 H -0.2670 0.3747 -0.1708
C29 C -0.3818(2) 0.2685(3) -0.15722(16)
H44 H -0.4270 0.2682 -0.1237
H45 H -0.3545 0.1767 -0.1583
H46 H -0.4086 0.2911 -0.2033
C30 C -0.3515(2) 0.5204(4) -0.13691(16)
H47 H -0.3830 0.5371 -0.1820
H48 H -0.3047 0.5893 -0.1292
H49 H -0.3923 0.5282 -0.1002
C31 C 0.26411(18) 0.7204(3) 0.32406(13)
H50 H 0.2175 0.7889 0.3283
H51 H 0.2789 0.7148 0.2756
H52 H 0.3161 0.7483 0.3532
C32 C 0.06667(19) 0.6547(3) 0.12796(14)
H53 H 0.0144 0.7133 0.1215
H54 H 0.0888 0.6339 0.0827
H55 H 0.1119 0.7036 0.1569
C33 C -0.1538(2) 0.5753(3) 0.11246(15)
H56 H -0.1744 0.5154 0.1489
H57 H -0.2040 0.6078 0.0826
H58 H -0.1228 0.6553 0.1337
C34 C -0.3125(2) 0.5905(4) 0.43435(16)
H59 H -0.3184 0.6550 0.4736
H60 H -0.3338 0.4983 0.4482
C35 C -0.3691(2) 0.6420(4) 0.37174(16)
H61 H -0.3512 0.7376 0.3602
H62 H -0.4311 0.6450 0.3833
C36 C -0.3609(2) 0.5486(4) 0.30887(16)
H63 H -0.3846 0.4556 0.3184
H64 H -0.3956 0.5880 0.2684
C37 C -0.2662(2) 0.5356(3) 0.29231(15)
H65 H -0.2450 0.6267 0.2767
H66 H -0.2616 0.4686 0.2539
C38 C -0.2081(2) 0.4868(3) 0.35559(14)
H67 H -0.1462 0.4860 0.3436
H68 H -0.2244 0.3906 0.3672
C39 C -0.21625(19) 0.5795(3) 0.41966(14)
H69 H -0.1957 0.6745 0.4078
C40 C -0.15600(18) 0.5263(3) 0.48230(13)
H70 H -0.1629 0.4232 0.4846
C41 C -0.05967(17) 0.5570(3) 0.47050(13)
H71 H -0.0440 0.5097 0.4276
H72 H -0.0525 0.6581 0.4637
C42 C 0.00335(17) 0.5095(3) 0.53096(12)
H73 H 0.0639 0.5351 0.5209
H74 H 0.0008 0.4071 0.5345
C43 C -0.01728(17) 0.5732(3) 0.60129(12)
C44 C -0.11389(17) 0.5373(3) 0.61228(13)
H75 H -0.1177 0.4337 0.6129
C45 C -0.17753(18) 0.5862(3) 0.55294(14)
H76 H -0.1760 0.6888 0.5506
H77 H -0.2377 0.5583 0.5627
C46 C -0.14057(17) 0.5870(3) 0.68303(13)
H78 H -0.1392 0.6897 0.6843
H79 H -0.2014 0.5571 0.6893
C47 C -0.08025(17) 0.5305(3) 0.74277(13)
H80 H -0.0896 0.4292 0.7467
H81 H -0.0961 0.5738 0.7866
C48 C 0.01674(17) 0.5581(2) 0.73322(12)
H82 H 0.0266 0.6606 0.7355
C49 C 0.04138(16) 0.5064(3) 0.66107(12)
H83 H 0.0280 0.4048 0.6596
C50 C 0.14024(16) 0.5193(3) 0.65225(12)
H84 H 0.1539 0.4722 0.6088
H85 H 0.1551 0.6187 0.6476
C51 C 0.19776(18) 0.4572(3) 0.71260(12)
H86 H 0.2601 0.4752 0.7052
H87 H 0.1891 0.3554 0.7135
C52 C 0.17588(16) 0.5188(3) 0.78246(12)
C53 C 0.07717(17) 0.4901(2) 0.78924(12)
H88 H 0.0690 0.3876 0.7836
C54 C 0.06380(17) 0.5226(3) 0.86510(12)
H89 H 0.0143 0.4684 0.8816
H90 H 0.0521 0.6227 0.8715
C55 C 0.15094(18) 0.4800(3) 0.90419(13)
H91 H 0.1420 0.3978 0.9336
H92 H 0.1738 0.5568 0.9342
C56 C 0.21682(17) 0.4453(3) 0.84849(12)
H93 H 0.2127 0.3432 0.8397
C57 C 0.31220(18) 0.4760(3) 0.87430(13)
H94 H 0.3177 0.5783 0.8821
C58 C 0.33528(18) 0.4029(3) 0.94396(13)
H95 H 0.2921 0.4316 0.9770
H96 H 0.3287 0.3016 0.9368
C59 C 0.42653(19) 0.4306(3) 0.97694(14)
H97 H 0.4700 0.3844 0.9491
H98 H 0.4381 0.5317 0.9760
C60 C 0.43892(18) 0.3797(3) 1.05134(13)
H99 H 0.4148 0.2846 1.0533
H100 H 0.4037 0.4395 1.0804
C61 C 0.5326(2) 0.3771(3) 1.08343(14)
H101 H 0.5668 0.3133 1.0548
C62 C 0.5359(2) 0.3179(3) 1.15671(15)
H102 H 0.5007 0.3761 1.1857
H103 H 0.5967 0.3162 1.1762
H104 H 0.5123 0.2233 1.1553
C63 C 0.5767(2) 0.5176(4) 1.08342(16)
H105 H 0.5790 0.5504 1.0356
H106 H 0.6364 0.5097 1.1050
H107 H 0.5434 0.5838 1.1097
C64 C -0.00167(18) 0.7314(3) 0.59853(13)
H108 H 0.0574 0.7495 0.5840
H109 H -0.0074 0.7715 0.6446
H110 H -0.0450 0.7737 0.5653
C65 C 0.19824(18) 0.6750(3) 0.78525(13)
H111 H 0.2600 0.6881 0.7763
H112 H 0.1878 0.7117 0.8312
H113 H 0.1612 0.7244 0.7500
C66 C 0.37736(19) 0.4344(3) 0.82134(14)
H114 H 0.4372 0.4515 0.8408
H115 H 0.3663 0.4895 0.7790
H116 H 0.3703 0.3356 0.8102
loop_
_geom_bond_atom_site_label_1
_geom_bond_atom_site_label_2
_geom_bond_site_symmetry_1
_geom_bond_site_symmetry_2
C1 H1 1_555 1_555
H2 C1 1_555 1_555
C2 C1 1_555 1_555
H3 C2 1_555 1_555
H4 C2 1_555 1_555
C3 C2 1_555 1_555
H5 C3 1_555 1_555
H6 C3 1_555 1_555
C4 C3 1_555 1_555
H7 C4 1_555 1_555
H8 C4 1_555 1_555
C5 C4 1_555 1_555
H9 C5 1_555 1_555
H10 C5 1_555 1_555
C6 C1 1_555 1_555
H11 C6 1_555 1_555
C7 C6 1_555 1_555
H12 C7 1_555 1_555
C8 C7 1_555 1_555
H13 C8 1_555 1_555
H14 C8 1_555 1_555
C9 C8 1_555 1_555
H15 C9 1_555 1_555
H16 C9 1_555 1_555
C10 C9 1_555 1_555
C11 C10 1_555 1_555
H17 C11 1_555 1_555
C12 C7 1_555 1_555
H18 C12 1_555 1_555
H19 C12 1_555 1_555
C13 C11 1_555 1_555
H20 C13 1_555 1_555
H21 C13 1_555 1_555
C14 C13 1_555 1_555
H22 C14 1_555 1_555
H23 C14 1_555 1_555
C15 C14 1_555 1_555
H24 C15 1_555 1_555
C16 C10 1_555 1_555
H25 C16 1_555 1_555
C17 C16 1_555 1_555
H26 C17 1_555 1_555
H27 C17 1_555 1_555
C18 C17 1_555 1_555
H28 C18 1_555 1_555
H29 C18 1_555 1_555
C19 C18 1_555 1_555
C20 C15 1_555 1_555
H30 C20 1_555 1_555
C21 C20 1_555 1_555
H31 C21 1_555 1_555
H32 C21 1_555 1_555
C22 C21 1_555 1_555
H33 C22 1_555 1_555
H34 C22 1_555 1_555
C23 C19 1_555 1_555
H35 C23 1_555 1_555
C24 C23 1_555 1_555
H36 C24 1_555 1_555
C25 C24 1_555 1_555
H37 C25 1_555 1_555
H38 C25 1_555 1_555
C26 C25 1_555 1_555
H39 C26 1_555 1_555
H40 C26 1_555 1_555
C27 C26 1_555 1_555
H41 C27 1_555 1_555
H42 C27 1_555 1_555
C28 C27 1_555 1_555
H43 C28 1_555 1_555
C29 C28 1_555 1_555
H44 C29 1_555 1_555
H45 C29 1_555 1_555
H46 C29 1_555 1_555
C30 C28 1_555 1_555
H47 C30 1_555 1_555
H48 C30 1_555 1_555
H49 C30 1_555 1_555
C31 C10 1_555 1_555
H50 C31 1_555 1_555
H51 C31 1_555 1_555
H52 C31 1_555 1_555
C32 C19 1_555 1_555
H53 C32 1_555 1_555
H54 C32 1_555 1_555
H55 C32 1_555 1_555
C33 C24 1_555 1_555
H56 C33 1_555 1_555
H57 C33 1_555 1_555
H58 C33 1_555 1_555
C34 H59 1_555 1_555
H60 C34 1_555 1_555
C35 C34 1_555 1_555
H61 C35 1_555 1_555
H62 C35 1_555 1_555
C36 C35 1_555 1_555
H63 C36 1_555 1_555
H64 C36 1_555 1_555
C37 C36 1_555 1_555
H65 C37 1_555 1_555
H66 C37 1_555 1_555
C38 C37 1_555 1_555
H67 C38 1_555 1_555
H68 C38 1_555 1_555
C39 C34 1_555 1_555
H69 C39 1_555 1_555
C40 C39 1_555 1_555
H70 C40 1_555 1_555
C41 C40 1_555 1_555
H71 C41 1_555 1_555
H72 C41 1_555 1_555
C42 C41 1_555 1_555
H73 C42 1_555 1_555
H74 C42 1_555 1_555
C43 C42 1_555 1_555
C44 C43 1_555 1_555
H75 C44 1_555 1_555
C45 C40 1_555 1_555
H76 C45 1_555 1_555
H77 C45 1_555 1_555
C46 C44 1_555 1_555
H78 C46 1_555 1_555
H79 C46 1_555 1_555
C47 C46 1_555 1_555
H80 C47 1_555 1_555
H81 C47 1_555 1_555
C48 C47 1_555 1_555
H82 C48 1_555 1_555
C49 C43 1_555 1_555
H83 C49 1_555 1_555
C50 C49 1_555 1_555
H84 C50 1_555 1_555
H85 C50 1_555 1_555
C51 C50 1_555 1_555
H86 C51 1_555 1_555
H87 C51 1_555 1_555
C52 C51 1_555 1_555
C53 C48 1_555 1_555
H88 C53 1_555 1_555
C54 C53 1_555 1_555
H89 C54 1_555 1_555
H90 C54 1_555 1_555
C55 C54 1_555 1_555
H91 C55 1_555 1_555
H92 C55 1_555 1_555
C56 C52 1_555 1_555
H93 C56 1_555 1_555
C57 C56 1_555 1_555
H94 C57 1_555 1_555
C58 C57 1_555 1_555
H95 C58 1_555 1_555
H96 C58 1_555 1_555
C59 C58 1_555 1_555
H97 C59 1_555 1_555
H98 C59 1_555 1_555
C60 C59 1_555 1_555
H99 C60 1_555 1_555
H100 C60 1_555 1_555
C61 C60 1_555 1_555
H101 C61 1_555 1_555
C62 C61 1_555 1_555
H102 C62 1_555 1_555
H103 C62 1_555 1_555
H104 C62 1_555 1_555
C63 C61 1_555 1_555
H105 C63 1_555 1_555
H106 C63 1_555 1_555
H107 C63 1_555 1_555
C64 C43 1_555 1_555
H108 C64 1_555 1_555
H109 C64 1_555 1_555
H110 C64 1_555 1_555
C65 C52 1_555 1_555
H111 C65 1_555 1_555
H112 C65 1_555 1_555
H113 C65 1_555 1_555
C66 C57 1_555 1_555
H114 C66 1_555 1_555
H115 C66 1_555 1_555
H116 C66 1_555 1_555
C5 C6 1_555 1_555
C11 C12 1_555 1_555
C15 C16 1_555 1_555
C19 C20 1_555 1_555
C22 C23 1_555 1_555
C38 C39 1_555 1_555
C44 C45 1_555 1_555
C48 C49 1_555 1_555
C52 C53 1_555 1_555
C55 C56 1_555 1_555

#END
