
#######################################################################
#
#                 Cambridge Crystallographic Data Centre
#                                CCDC 
#
#######################################################################
#
# If this CIF has been generated from an entry in the Cambridge 
# Structural Database, then it will include bibliographic, chemical, 
# crystal, experimental, refinement or atomic coordinate data resulting 
# from the CCDC's data processing and validation procedures.
#
#######################################################################

data_ZIFTOX
_chemical_formula_moiety         'C13 H12 O1'
_chemical_name_systematic        7-Phenyl-2(E),4(E),6(E)-trienal
_symmetry_cell_setting           orthorhombic
_symmetry_space_group_name_H-M   'P b c a'
_symmetry_Int_Tables_number      61
_space_group_name_Hall           '-P 2ac 2ab'
loop_
_symmetry_equiv_pos_site_id
_symmetry_equiv_pos_as_xyz
1 x,y,z
2 1/2-x,-y,1/2+z
3 1/2+x,1/2-y,-z
4 -x,1/2+y,1/2-z
5 -x,-y,-z
6 1/2+x,y,1/2-z
7 1/2-x,1/2+y,z
8 x,1/2-y,1/2+z
_cell_length_a                   15.185(1)
_cell_length_b                   15.625(1)
_cell_length_c                   18.141(1)
_cell_angle_alpha                90
_cell_angle_beta                 90
_cell_angle_gamma                90
_cell_volume                     4304.24
_exptl_crystal_colour            red
_exptl_crystal_description       prism
_cell_formula_units_Z            16
loop_
_atom_site_label
_atom_site_type_symbol
_atom_site_fract_x
_atom_site_fract_y
_atom_site_fract_z
O1 O 0.79599(16) 0.60530(14) 0.79665(13)
C1 C 0.76123(25) 0.59656(20) 0.73686(19)
H1 H 0.79809(25) 0.57707(20) 0.69728(19)
C2 C 0.67074(22) 0.61184(18) 0.71929(17)
H2 H 0.63193(22) 0.62974(18) 0.75811(17)
C3 C 0.63772(23) 0.60239(17) 0.65186(16)
H3 H 0.67742(23) 0.58355(17) 0.61401(16)
C4 C 0.54848(23) 0.61663(17) 0.63147(16)
H4 H 0.50894(23) 0.63597(17) 0.66925(16)
C5 C 0.51462(22) 0.60755(17) 0.56398(16)
H5 H 0.55341(22) 0.58865(17) 0.52550(16)
C6 C 0.42437(21) 0.62303(16) 0.54540(15)
H6 H 0.38576(21) 0.64126(16) 0.58425(15)
C7 C 0.38964(22) 0.61451(17) 0.47809(16)
H7 H 0.42940(22) 0.59509(17) 0.44050(16)
C8 C 0.29924(21) 0.63047(17) 0.45476(16)
C9 C 0.23169(21) 0.65189(16) 0.50346(17)
H8 H 0.24486(21) 0.65387(16) 0.55519(17)
C10 C 0.14865(24) 0.66987(17) 0.47731(20)
H9 H 0.10339(24) 0.68539(17) 0.51176(20)
C11 C 0.13068(25) 0.66608(19) 0.40283(21)
H10 H 0.07286(25) 0.67876(19) 0.38442(21)
C12 C 0.19595(28) 0.64339(23) 0.35469(19)
H11 H 0.18307(28) 0.63911(23) 0.30301(19)
C13 C 0.27897(24) 0.62609(20) 0.37978(17)
H12 H 0.32441(24) 0.61148(20) 0.34520(17)
O2 O 1.03454(17) 0.59563(13) 0.62862(12)
C14 C 0.97547(23) 0.56675(19) 0.59074(17)
H13 H 0.97161(23) 0.50566(19) 0.58611(17)
C15 C 0.90850(21) 0.61487(17) 0.55357(16)
H14 H 0.90756(21) 0.67601(17) 0.55869(16)
C16 C 0.84889(20) 0.57694(18) 0.51062(15)
H15 H 0.85219(20) 0.51584(18) 0.50576(15)
C17 C 0.77961(20) 0.61973(18) 0.47153(16)
H16 H 0.77391(20) 0.68035(18) 0.47869(16)
C18 C 0.72255(19) 0.58091(18) 0.42598(14)
H17 H 0.72841(19) 0.52020(18) 0.41952(14)
C19 C 0.65463(20) 0.62301(17) 0.38556(14)
H18 H 0.64735(20) 0.68350(17) 0.39257(14)
C20 C 0.59975(20) 0.58291(17) 0.33984(14)
H19 H 0.60896(20) 0.52250(17) 0.33402(14)
C21 C 0.52798(20) 0.62013(17) 0.29681(14)
C22 C 0.48236(20) 0.56876(18) 0.24700(16)
H20 H 0.49845(20) 0.50950(18) 0.24332(16)
C23 C 0.41542(22) 0.60129(19) 0.20429(16)
H21 H 0.38555(22) 0.56458(19) 0.17001(16)
C24 C 0.39199(21) 0.68622(21) 0.21090(16)
H22 H 0.34513(21) 0.70940(21) 0.18152(16)
C25 C 0.43625(20) 0.73790(20) 0.26029(16)
H23 H 0.42076(20) 0.79723(20) 0.26487(16)
C26 C 0.50314(19) 0.70600(17) 0.30264(15)
H24 H 0.53329(19) 0.74247(17) 0.33695(15)
loop_
_geom_bond_atom_site_label_1
_geom_bond_atom_site_label_2
_geom_bond_site_symmetry_1
_geom_bond_site_symmetry_2
O1 C1 1_555 1_555
C1 H1 1_555 1_555
C2 C1 1_555 1_555
H2 C2 1_555 1_555
C3 C2 1_555 1_555
H3 C3 1_555 1_555
C4 C3 1_555 1_555
H4 C4 1_555 1_555
C5 C4 1_555 1_555
H5 C5 1_555 1_555
C6 C5 1_555 1_555
H6 C6 1_555 1_555
C7 C6 1_555 1_555
H7 C7 1_555 1_555
C8 C7 1_555 1_555
C9 C8 1_555 1_555
H8 C9 1_555 1_555
C10 C9 1_555 1_555
H9 C10 1_555 1_555
C11 C10 1_555 1_555
H10 C11 1_555 1_555
C12 C11 1_555 1_555
H11 C12 1_555 1_555
C13 C8 1_555 1_555
H12 C13 1_555 1_555
O2 C14 1_555 1_555
C14 H13 1_555 1_555
C15 C14 1_555 1_555
H14 C15 1_555 1_555
C16 C15 1_555 1_555
H15 C16 1_555 1_555
C17 C16 1_555 1_555
H16 C17 1_555 1_555
C18 C17 1_555 1_555
H17 C18 1_555 1_555
C19 C18 1_555 1_555
H18 C19 1_555 1_555
C20 C19 1_555 1_555
H19 C20 1_555 1_555
C21 C20 1_555 1_555
C22 C21 1_555 1_555
H20 C22 1_555 1_555
C23 C22 1_555 1_555
H21 C23 1_555 1_555
C24 C23 1_555 1_555
H22 C24 1_555 1_555
C25 C24 1_555 1_555
H23 C25 1_555 1_555
C26 C21 1_555 1_555
H24 C26 1_555 1_555
C12 C13 1_555 1_555
C25 C26 1_555 1_555

#END
