
#######################################################################
#
#                 Cambridge Crystallographic Data Centre
#                                CCDC 
#
#######################################################################
#
# If this CIF has been generated from an entry in the Cambridge 
# Structural Database, then it will include bibliographic, chemical, 
# crystal, experimental, refinement or atomic coordinate data resulting 
# from the CCDC's data processing and validation procedures.
#
#######################################################################

data_ZIFTUF
_chemical_formula_moiety         'C18 H13 N1 O4'
_chemical_name_systematic        
'Methyl 10-methyl-2-oxo-2,11-dihydropyrano[2,3-a]carbazole-4-carboxylate'
_symmetry_cell_setting           monoclinic
_symmetry_space_group_name_H-M   'P 21/c'
_symmetry_Int_Tables_number      14
_space_group_name_Hall           '-P 2ybc'
loop_
_symmetry_equiv_pos_site_id
_symmetry_equiv_pos_as_xyz
1 x,y,z
2 -x,1/2+y,1/2-z
3 -x,-y,-z
4 x,1/2-y,1/2+z
_cell_length_a                   6.7321(10)
_cell_length_b                   27.020(4)
_cell_length_c                   7.8538(11)
_cell_angle_alpha                90
_cell_angle_beta                 106.928(2)
_cell_angle_gamma                90
_cell_volume                     1366.72
_exptl_crystal_colour            red
_exptl_crystal_description       block
_cell_formula_units_Z            4
loop_
_atom_site_label
_atom_site_type_symbol
_atom_site_fract_x
_atom_site_fract_y
_atom_site_fract_z
C1 C 0.4094(2) 0.08008(5) 0.86059(19)
C2 C 0.3777(2) 0.12329(5) 0.74685(19)
H1 H 0.4006 0.1551 0.8002
C3 C 0.3164(2) 0.11985(5) 0.56740(19)
C4 C 0.2965(2) 0.16653(5) 0.4605(2)
C5 C 0.3214(3) 0.25306(6) 0.4721(2)
H2 H 0.4432 0.2557 0.4283
H3 H 0.3215 0.2805 0.5537
H4 H 0.1949 0.2545 0.3714
C6 C 0.2535(2) -0.01636(5) 0.53032(18)
C7 C 0.2939(2) 0.03119(5) 0.59873(18)
C8 C 0.2751(2) 0.07156(5) 0.48370(18)
C9 C 0.2221(2) 0.06245(6) 0.29786(19)
H5 H 0.2124 0.0895 0.2186
C10 C 0.1847(2) 0.01547(6) 0.23027(19)
H6 H 0.1512 0.0101 0.1056
C11 C 0.1961(2) -0.02467(5) 0.34622(19)
C12 C 0.1692(2) -0.07729(5) 0.32233(19)
C13 C 0.1152(2) -0.10810(6) 0.17353(19)
H7 H 0.0832 -0.0947 0.0569
C14 C 0.1091(2) -0.15859(6) 0.1992(2)
H8 H 0.0744 -0.1801 0.0991
C15 C 0.1535(2) -0.17849(6) 0.3709(2)
H9 H 0.1478 -0.2134 0.3841
C16 C 0.2056(2) -0.14913(6) 0.5225(2)
C17 C 0.2136(2) -0.09815(5) 0.49460(19)
C18 C 0.2496(3) -0.17020(7) 0.7071(2)
H10 H 0.3906 -0.1610 0.7773
H11 H 0.2376 -0.2063 0.7001
H12 H 0.1494 -0.1569 0.7641
N1 N 0.26136(19) -0.06063(5) 0.61945(16)
H13 H 0.321(3) -0.0649(7) 0.7334(19)
O1 O 0.35518(16) 0.03538(4) 0.78053(13)
O2 O 0.48047(18) 0.08100(4) 1.02080(14)
O3 O 0.32800(19) 0.20680(4) 0.56458(14)
O4 O 0.2582(2) 0.16877(4) 0.30173(15)
loop_
_geom_bond_atom_site_label_1
_geom_bond_atom_site_label_2
_geom_bond_site_symmetry_1
_geom_bond_site_symmetry_2
C1 C2 1_555 1_555
C2 H1 1_555 1_555
C3 C2 1_555 1_555
C4 C3 1_555 1_555
C5 H2 1_555 1_555
H3 C5 1_555 1_555
H4 C5 1_555 1_555
C6 C7 1_555 1_555
C7 C8 1_555 1_555
C8 C3 1_555 1_555
C9 C8 1_555 1_555
H5 C9 1_555 1_555
C10 C9 1_555 1_555
H6 C10 1_555 1_555
C11 C6 1_555 1_555
C12 C11 1_555 1_555
C13 C12 1_555 1_555
H7 C13 1_555 1_555
C14 C13 1_555 1_555
H8 C14 1_555 1_555
C15 C14 1_555 1_555
H9 C15 1_555 1_555
C16 C15 1_555 1_555
C17 C12 1_555 1_555
C18 C16 1_555 1_555
H10 C18 1_555 1_555
H11 C18 1_555 1_555
H12 C18 1_555 1_555
N1 C6 1_555 1_555
H13 N1 1_555 1_555
O1 C1 1_555 1_555
O2 C1 1_555 1_555
O3 C4 1_555 1_555
O4 C4 1_555 1_555
C5 O3 1_555 1_555
C7 O1 1_555 1_555
C10 C11 1_555 1_555
C16 C17 1_555 1_555
C17 N1 1_555 1_555

#END
