
#######################################################################
#
#                 Cambridge Crystallographic Data Centre
#                                CCDC 
#
#######################################################################
#
# If this CIF has been generated from an entry in the Cambridge 
# Structural Database, then it will include bibliographic, chemical, 
# crystal, experimental, refinement or atomic coordinate data resulting 
# from the CCDC's data processing and validation procedures.
#
#######################################################################

data_ZIFVAL
_chemical_formula_moiety         'C28 H16'
_chemical_name_systematic        (2.2)-1,8-Biphenylenophan-1(Z),11(Z)-diene
_symmetry_cell_setting           triclinic
_symmetry_space_group_name_H-M   'P -1'
_symmetry_Int_Tables_number      2
_space_group_name_Hall           '-P 1'
loop_
_symmetry_equiv_pos_site_id
_symmetry_equiv_pos_as_xyz
1 x,y,z
2 -x,-y,-z
_cell_length_a                   8.073(1)
_cell_length_b                   10.130(1)
_cell_length_c                   12.544(1)
_cell_angle_alpha                79.60(1)
_cell_angle_beta                 74.75(1)
_cell_angle_gamma                66.77(1)
_cell_volume                     906.065
_exptl_crystal_colour            yellow
_exptl_crystal_description       plates
_cell_formula_units_Z            2
loop_
_atom_site_label
_atom_site_type_symbol
_atom_site_fract_x
_atom_site_fract_y
_atom_site_fract_z
C1 C 0.76661(39) 0.66888(35) 0.61764(27)
C2 C 0.72636(45) 0.80094(38) 0.55104(30)
H1 H 0.72601(45) 0.88342(38) 0.57876(30)
C3 C 0.68659(47) 0.81678(41) 0.44753(32)
H2 H 0.66041(47) 0.90910(41) 0.40553(32)
C4 C 0.68353(43) 0.70069(40) 0.40239(29)
H3 H 0.65312(43) 0.71107(40) 0.33155(29)
C5 C 0.72429(39) 0.57254(37) 0.46566(26)
C6 C 0.74499(39) 0.41610(37) 0.47931(27)
C7 C 0.74094(44) 0.30390(41) 0.43584(29)
H4 H 0.71037(44) 0.31569(41) 0.36487(29)
C8 C 0.78121(49) 0.17314(42) 0.50163(32)
H5 H 0.78372(49) 0.09002(42) 0.47369(32)
C9 C 0.82016(43) 0.15841(38) 0.60492(32)
H6 H 0.84543(43) 0.06654(38) 0.64755(32)
C10 C 0.82341(39) 0.27503(36) 0.65122(27)
C11 C 0.78572(39) 0.40169(36) 0.58522(27)
C12 C 0.76416(39) 0.55771(35) 0.57156(25)
C13 C 0.87215(42) 0.25423(33) 0.76117(29)
H7 H 0.99741(42) 0.23920(33) 0.76073(29)
C14 C 0.75789(40) 0.25824(32) 0.85772(28)
H8 H 0.80761(40) 0.23620(32) 0.92317(28)
C15 C 0.55696(41) 0.29398(34) 0.87248(25)
C16 C 0.47447(47) 0.18822(36) 0.89409(28)
H9 H 0.55330(47) 0.08849(36) 0.89989(28)
C17 C 0.28816(48) 0.22320(40) 0.90689(29)
H10 H 0.24071(48) 0.14700(40) 0.92138(29)
C18 C 0.16518(44) 0.36680(39) 0.89989(27)
H11 H 0.03479(44) 0.39207(39) 0.90893(27)
C19 C 0.24195(39) 0.46910(34) 0.88075(24)
C20 C 0.21421(41) 0.62768(35) 0.86450(25)
C21 C 0.09590(44) 0.76620(37) 0.85664(27)
H12 H -0.03381(44) 0.78964(37) 0.86419(27)
C22 C 0.17635(46) 0.87078(39) 0.83515(30)
H13 H 0.09910(46) 0.97093(39) 0.82933(30)
C23 C 0.36290(45) 0.83506(36) 0.82340(29)
H14 H 0.41268(45) 0.90991(36) 0.80888(29)
C24 C 0.48746(40) 0.69117(34) 0.83240(25)
C25 C 0.40727(38) 0.59059(33) 0.85225(24)
C26 C 0.43445(39) 0.43244(35) 0.86820(24)
C27 C 0.68779(41) 0.65765(34) 0.82297(27)
H15 H 0.73107(41) 0.63907(34) 0.89051(27)
C28 C 0.80860(43) 0.65187(35) 0.72855(27)
H16 H 0.93239(43) 0.63781(35) 0.73089(27)
loop_
_geom_bond_atom_site_label_1
_geom_bond_atom_site_label_2
_geom_bond_site_symmetry_1
_geom_bond_site_symmetry_2
C1 C2 1_555 1_555
C2 H1 1_555 1_555
C3 C2 1_555 1_555
H2 C3 1_555 1_555
C4 C3 1_555 1_555
H3 C4 1_555 1_555
C5 C4 1_555 1_555
C6 C5 1_555 1_555
C7 C6 1_555 1_555
H4 C7 1_555 1_555
C8 C7 1_555 1_555
H5 C8 1_555 1_555
C9 C8 1_555 1_555
H6 C9 1_555 1_555
C10 C9 1_555 1_555
C11 C6 1_555 1_555
C12 C1 1_555 1_555
C13 C10 1_555 1_555
H7 C13 1_555 1_555
C14 C13 1_555 1_555
H8 C14 1_555 1_555
C15 C14 1_555 1_555
C16 C15 1_555 1_555
H9 C16 1_555 1_555
C17 C16 1_555 1_555
H10 C17 1_555 1_555
C18 C17 1_555 1_555
H11 C18 1_555 1_555
C19 C18 1_555 1_555
C20 C19 1_555 1_555
C21 C20 1_555 1_555
H12 C21 1_555 1_555
C22 C21 1_555 1_555
H13 C22 1_555 1_555
C23 C22 1_555 1_555
H14 C23 1_555 1_555
C24 C23 1_555 1_555
C25 C20 1_555 1_555
C26 C15 1_555 1_555
C27 C24 1_555 1_555
H15 C27 1_555 1_555
C28 C1 1_555 1_555
H16 C28 1_555 1_555
C5 C12 1_555 1_555
C10 C11 1_555 1_555
C11 C12 1_555 1_555
C19 C26 1_555 1_555
C24 C25 1_555 1_555
C25 C26 1_555 1_555
C27 C28 1_555 1_555

#END
