
#######################################################################
#
#                 Cambridge Crystallographic Data Centre
#                                CCDC 
#
#######################################################################
#
# If this CIF has been generated from an entry in the Cambridge 
# Structural Database, then it will include bibliographic, chemical, 
# crystal, experimental, refinement or atomic coordinate data resulting 
# from the CCDC's data processing and validation procedures.
#
#######################################################################

data_ZIFVEP
_chemical_formula_moiety         'C20 H26 O4 S2'
_chemical_name_systematic        
2,15-Dithia(3.3)(1,3)adamantanoparacyclophane-2,2,15,15-tetroxide
_symmetry_cell_setting           monoclinic
_symmetry_space_group_name_H-M   'P 21/c'
_symmetry_Int_Tables_number      14
_space_group_name_Hall           '-P 2ybc'
loop_
_symmetry_equiv_pos_site_id
_symmetry_equiv_pos_as_xyz
1 x,y,z
2 -x,1/2+y,1/2-z
3 -x,-y,-z
4 x,1/2-y,1/2+z
_cell_length_a                   9.659(1)
_cell_length_b                   16.581(1)
_cell_length_c                   12.012(1)
_cell_angle_alpha                90
_cell_angle_beta                 108.47(1)
_cell_angle_gamma                90
_cell_volume                     1824.7
_exptl_crystal_colour            colorless
_exptl_crystal_description       blocks
_cell_formula_units_Z            4
loop_
_atom_site_label
_atom_site_type_symbol
_atom_site_fract_x
_atom_site_fract_y
_atom_site_fract_z
C1 C 0.16520(24) 0.49431(13) 0.17243(22)
H1 H 0.15047(24) 0.53749(13) 0.22073(22)
H2 H 0.14685(24) 0.51510(13) 0.09449(22)
S1 S 0.03590(6) 0.41590(3) 0.16882(5)
O1 O 0.05823(20) 0.39081(10) 0.28602(14)
O2 O -0.10538(17) 0.44944(11) 0.10613(16)
C2 C 0.06650(23) 0.33502(13) 0.07930(18)
H3 H 0.12504(23) 0.35643(13) 0.03487(18)
H4 H -0.02669(23) 0.32171(13) 0.02397(18)
C3 C 0.13684(22) 0.25470(12) 0.13360(18)
C4 C 0.05579(22) 0.21473(13) 0.21002(20)
H5 H -0.04478(22) 0.20701(13) 0.16463(20)
H6 H 0.05962(22) 0.24915(13) 0.27519(20)
C5 C 0.12594(24) 0.13323(13) 0.25534(20)
H7 H 0.07640(24) 0.10954(13) 0.30509(20)
C6 C 0.11344(27) 0.07752(14) 0.15298(22)
H8 H 0.01254(27) 0.06898(14) 0.10921(22)
H9 H 0.15630(27) 0.02626(14) 0.18158(22)
C7 C 0.19350(25) 0.11526(13) 0.07453(20)
H10 H 0.18498(25) 0.08042(13) 0.00887(20)
C8 C 0.35446(23) 0.12637(13) 0.14425(19)
H11 H 0.40530(23) 0.14880(13) 0.09455(19)
H12 H 0.39800(23) 0.07527(13) 0.17291(19)
C9 C 0.37004(22) 0.18323(12) 0.24873(18)
C10 C 0.29817(21) 0.26432(12) 0.20503(18)
H13 H 0.30646(21) 0.29858(12) 0.27126(18)
H14 H 0.34875(21) 0.28978(12) 0.15738(18)
C11 C 0.12734(23) 0.19751(14) 0.03040(18)
H15 H 0.17942(23) 0.22082(14) -0.01776(18)
H16 H 0.02702(23) 0.19149(14) -0.01670(18)
C12 C 0.28701(23) 0.14467(13) 0.32574(18)
H17 H 0.32992(23) 0.09334(13) 0.35389(18)
H18 H 0.29562(23) 0.17856(13) 0.39240(18)
C13 C 0.52919(22) 0.19254(14) 0.32689(20)
H19 H 0.56114(22) 0.14019(14) 0.35896(20)
H20 H 0.52868(22) 0.22649(14) 0.39149(20)
S2 S 0.66820(6) 0.23133(4) 0.26977(5)
O3 O 0.61588(18) 0.23706(11) 0.14467(16)
O4 O 0.79605(17) 0.18296(11) 0.32243(18)
C14 C 0.71529(24) 0.33110(14) 0.32819(23)
H21 H 0.79252(24) 0.35186(14) 0.30208(23)
H22 H 0.75092(24) 0.32781(14) 0.41229(23)
C15 C 0.58871(23) 0.38859(13) 0.29356(21)
C16 C 0.51781(25) 0.40903(13) 0.37312(21)
H23 H 0.56222(25) 0.39554(13) 0.45438(21)
C17 C 0.38518(24) 0.44892(13) 0.33613(20)
H24 H 0.33621(24) 0.46320(13) 0.39151(20)
C18 C 0.32108(23) 0.46725(13) 0.21857(20)
C19 C 0.39898(25) 0.45452(13) 0.14101(21)
H25 H 0.35922(25) 0.47248(13) 0.06122(21)
C20 C 0.53356(25) 0.41590(14) 0.17896(22)
H26 H 0.58838(25) 0.40734(14) 0.12585(22)
loop_
_geom_bond_atom_site_label_1
_geom_bond_atom_site_label_2
_geom_bond_site_symmetry_1
_geom_bond_site_symmetry_2
C1 H1 1_555 1_555
H2 C1 1_555 1_555
S1 C1 1_555 1_555
O1 S1 1_555 1_555
O2 S1 1_555 1_555
C2 S1 1_555 1_555
H3 C2 1_555 1_555
H4 C2 1_555 1_555
C3 C2 1_555 1_555
C4 C3 1_555 1_555
H5 C4 1_555 1_555
H6 C4 1_555 1_555
C5 C4 1_555 1_555
H7 C5 1_555 1_555
C6 C5 1_555 1_555
H8 C6 1_555 1_555
H9 C6 1_555 1_555
C7 C6 1_555 1_555
H10 C7 1_555 1_555
C8 C7 1_555 1_555
H11 C8 1_555 1_555
H12 C8 1_555 1_555
C9 C8 1_555 1_555
C10 C3 1_555 1_555
H13 C10 1_555 1_555
H14 C10 1_555 1_555
C11 C3 1_555 1_555
H15 C11 1_555 1_555
H16 C11 1_555 1_555
C12 C5 1_555 1_555
H17 C12 1_555 1_555
H18 C12 1_555 1_555
C13 C9 1_555 1_555
H19 C13 1_555 1_555
H20 C13 1_555 1_555
S2 C13 1_555 1_555
O3 S2 1_555 1_555
O4 S2 1_555 1_555
C14 S2 1_555 1_555
H21 C14 1_555 1_555
H22 C14 1_555 1_555
C15 C14 1_555 1_555
C16 C15 1_555 1_555
H23 C16 1_555 1_555
C17 C16 1_555 1_555
H24 C17 1_555 1_555
C18 C1 1_555 1_555
C19 C18 1_555 1_555
H25 C19 1_555 1_555
C20 C15 1_555 1_555
H26 C20 1_555 1_555
C7 C11 1_555 1_555
C9 C10 1_555 1_555
C9 C12 1_555 1_555
C17 C18 1_555 1_555
C19 C20 1_555 1_555

#END
