
#######################################################################
#
#                 Cambridge Crystallographic Data Centre
#                                CCDC 
#
#######################################################################
#
# If this CIF has been generated from an entry in the Cambridge 
# Structural Database, then it will include bibliographic, chemical, 
# crystal, experimental, refinement or atomic coordinate data resulting 
# from the CCDC's data processing and validation procedures.
#
#######################################################################

data_ZIFXEU
_chemical_formula_moiety         'C31 H34 O8'
_chemical_name_systematic        
'1,7,15-trioxo-6,20-epoxykaur-16-en-14-yl 3-(3,4-dimethoxyphenyl)prop-2-enoate'
_symmetry_cell_setting           orthorhombic
_symmetry_space_group_name_H-M   'P 21 21 21'
_symmetry_Int_Tables_number      19
_space_group_name_Hall           'P 2ac 2ab'
loop_
_symmetry_equiv_pos_site_id
_symmetry_equiv_pos_as_xyz
1 x,y,z
2 1/2-x,-y,1/2+z
3 1/2+x,1/2-y,-z
4 -x,1/2+y,1/2-z
_cell_length_a                   7.3902(4)
_cell_length_b                   8.3748(5)
_cell_length_c                   43.293(3)
_cell_angle_alpha                90
_cell_angle_beta                 90
_cell_angle_gamma                90
_cell_volume                     2679.47
_exptl_crystal_colour            colorless
_exptl_crystal_description       block
_cell_formula_units_Z            4
loop_
_atom_site_label
_atom_site_type_symbol
_atom_site_fract_x
_atom_site_fract_y
_atom_site_fract_z
O1 O 0.5614(4) 0.0813(3) 0.02725(6)
O2 O 1.1205(4) 0.4625(3) 0.09141(7)
O3 O 0.6620(3) 0.4628(3) 0.10589(6)
O4 O 1.2216(4) 0.1212(4) 0.07708(7)
O5 O 1.0278(4) 0.2847(3) 0.14897(6)
O6 O 0.8699(4) 0.2486(4) 0.19292(6)
O7 O 1.9056(4) 0.7132(4) 0.23824(6)
O8 O 1.6585(4) 0.5936(4) 0.27218(6)
C1 C 0.6171(5) 0.5544(4) 0.03450(8)
C2 C 0.5079(5) 0.4633(5) 0.01009(8)
H1 H 0.591751 0.419806 -0.005650
H2 H 0.424471 0.538148 -0.000402
C3 C 0.3976(6) 0.3250(5) 0.02426(9)
H3 H 0.313368 0.366526 0.040121
H4 H 0.326024 0.270739 0.008039
C4 C 0.5292(5) 0.2101(5) 0.03861(8)
C5 C 0.6431(5) 0.2765(4) 0.06530(8)
C6 C 0.7344(5) 0.4325(4) 0.05316(8)
H5 H 0.841099 0.401975 0.040234
C7 C 0.8036(5) 0.4954(5) 0.08414(8)
H6 H 0.829301 0.612467 0.083000
C8 C 0.9729(5) 0.4029(4) 0.09155(8)
C9 C 0.9367(5) 0.2261(5) 0.09816(8)
C10 C 0.7920(5) 0.1564(5) 0.07500(8)
H7 H 0.860606 0.132467 0.055636
C11 C 0.7183(6) -0.0078(5) 0.08630(9)
H8 H 0.590091 -0.015797 0.079830
H9 H 0.785469 -0.092557 0.075234
C12 C 0.7275(6) -0.0451(5) 0.12103(9)
H10 H 0.619681 0.000471 0.131357
H11 H 0.724573 -0.162323 0.123999
C13 C 0.8982(5) 0.0222(5) 0.13620(9)
H12 H 0.907200 -0.009492 0.158417
C14 C 0.8863(5) 0.2027(5) 0.13248(8)
H13 H 0.763261 0.245194 0.137496
C15 C 0.7491(6) 0.6675(5) 0.01804(9)
H14 H 0.680736 0.744463 0.005607
H15 H 0.829218 0.605469 0.004579
H16 H 0.821506 0.724705 0.033435
C16 C 0.4871(5) 0.6544(5) 0.05423(9)
H17 H 0.382707 0.588949 0.060148
H18 H 0.445596 0.746824 0.042302
H19 H 0.549845 0.691146 0.072859
C17 C 0.5428(5) 0.3413(5) 0.09365(8)
H20 H 0.424672 0.387730 0.087692
H21 H 0.522264 0.255725 0.109030
C18 C 1.0990(5) 0.1129(5) 0.09540(9)
C19 C 1.0699(6) -0.0174(5) 0.11862(10)
C20 C 1.1779(8) -0.1443(7) 0.12108(14)
C21 C 1.0018(5) 0.3009(5) 0.17998(8)
C22 C 1.1511(5) 0.3849(5) 0.19509(9)
H22 H 1.144790 0.397019 0.216881
C23 C 1.2951(5) 0.4458(5) 0.18084(9)
H23 H 1.296012 0.440396 0.158920
C24 C 1.4516(5) 0.5199(5) 0.19552(9)
C25 C 1.5864(6) 0.5877(5) 0.17756(9)
H24 H 1.573376 0.588999 0.155734
C26 C 1.7407(6) 0.6541(5) 0.19088(9)
H25 H 1.831751 0.699681 0.178137
C27 C 1.7615(5) 0.6538(5) 0.22253(9)
C28 C 1.6249(5) 0.5859(5) 0.24131(9)
C29 C 1.4728(5) 0.5212(5) 0.22791(9)
H26 H 1.380928 0.476908 0.240628
C30 C 1.5230(7) 0.5352(7) 0.29253(9)
H27 H 1.409160 0.591883 0.288702
H28 H 1.560986 0.552710 0.313947
H29 H 1.505359 0.420690 0.288966
C31 C 2.0397(6) 0.8019(6) 0.22172(11)
H30 H 2.091147 0.734987 0.205363
H31 H 2.135827 0.834650 0.235966
H32 H 1.983926 0.896825 0.212527
H33 H 1.290(8) -0.153(7) 0.1071(13)
H34 H 1.152(8) -0.232(7) 0.1372(13)
loop_
_geom_bond_atom_site_label_1
_geom_bond_atom_site_label_2
_geom_bond_site_symmetry_1
_geom_bond_site_symmetry_2
O1 C4 1_555 1_555
O2 C8 1_555 1_555
O3 C7 1_555 1_555
O4 C18 1_555 1_555
O5 C14 1_555 1_555
O6 C21 1_555 1_555
O7 C27 1_555 1_555
O8 C28 1_555 1_555
C1 C2 1_555 1_555
C2 H1 1_555 1_555
H2 C2 1_555 1_555
C3 C2 1_555 1_555
H3 C3 1_555 1_555
H4 C3 1_555 1_555
C4 C3 1_555 1_555
C5 C4 1_555 1_555
C6 C1 1_555 1_555
H5 C6 1_555 1_555
C7 C6 1_555 1_555
H6 C7 1_555 1_555
C8 C7 1_555 1_555
C9 C8 1_555 1_555
C10 C5 1_555 1_555
H7 C10 1_555 1_555
C11 C10 1_555 1_555
H8 C11 1_555 1_555
H9 C11 1_555 1_555
C12 C11 1_555 1_555
H10 C12 1_555 1_555
H11 C12 1_555 1_555
C13 C12 1_555 1_555
H12 C13 1_555 1_555
C14 C9 1_555 1_555
H13 C14 1_555 1_555
C15 C1 1_555 1_555
H14 C15 1_555 1_555
H15 C15 1_555 1_555
H16 C15 1_555 1_555
C16 C1 1_555 1_555
H17 C16 1_555 1_555
H18 C16 1_555 1_555
H19 C16 1_555 1_555
C17 O3 1_555 1_555
H20 C17 1_555 1_555
H21 C17 1_555 1_555
C18 C9 1_555 1_555
C19 C13 1_555 1_555
C20 C19 1_555 1_555
C21 O5 1_555 1_555
C22 C21 1_555 1_555
H22 C22 1_555 1_555
C23 C22 1_555 1_555
H23 C23 1_555 1_555
C24 C23 1_555 1_555
C25 C24 1_555 1_555
H24 C25 1_555 1_555
C26 C25 1_555 1_555
H25 C26 1_555 1_555
C27 C26 1_555 1_555
C28 C27 1_555 1_555
C29 C24 1_555 1_555
H26 C29 1_555 1_555
C30 O8 1_555 1_555
H27 C30 1_555 1_555
H28 C30 1_555 1_555
H29 C30 1_555 1_555
C31 O7 1_555 1_555
H30 C31 1_555 1_555
H31 C31 1_555 1_555
H32 C31 1_555 1_555
H33 C20 1_555 1_555
H34 C20 1_555 1_555
C5 C6 1_555 1_555
C5 C17 1_555 1_555
C9 C10 1_555 1_555
C13 C14 1_555 1_555
C18 C19 1_555 1_555
C28 C29 1_555 1_555

#END
