
#######################################################################
#
#                 Cambridge Crystallographic Data Centre
#                                CCDC 
#
#######################################################################
#
# If this CIF has been generated from an entry in the Cambridge 
# Structural Database, then it will include bibliographic, chemical, 
# crystal, experimental, refinement or atomic coordinate data resulting 
# from the CCDC's data processing and validation procedures.
#
#######################################################################

data_ZIFYEU
_chemical_formula_moiety         'C18 H16 O7'
_chemical_name_systematic        
2,6-Diacetyl-3,7,9-trihydroxy-8,9b-dimethyldibenzo[b,d]furan-1(9bH)-one
_symmetry_cell_setting           orthorhombic
_symmetry_space_group_name_H-M   'P 21 21 21'
_symmetry_Int_Tables_number      19
_space_group_name_Hall           'P 2ac 2ab'
loop_
_symmetry_equiv_pos_site_id
_symmetry_equiv_pos_as_xyz
1 x,y,z
2 1/2-x,-y,1/2+z
3 -x,1/2+y,1/2-z
4 1/2+x,1/2-y,-z
_cell_length_a                   8.0074(11)
_cell_length_b                   18.818(3)
_cell_length_c                   20.200(3)
_cell_angle_alpha                90
_cell_angle_beta                 90
_cell_angle_gamma                90
_cell_volume                     3043.8
_cell_formula_units_Z            4
loop_
_atom_site_label
_atom_site_type_symbol
_atom_site_fract_x
_atom_site_fract_y
_atom_site_fract_z
O1 O 0.3115(2) 0.1884(1) 0.8061(1)
O2 O 0.2136(2) 0.3537(1) 0.9783(1)
O3 O 0.7934(2) 0.3627(1) 0.5817(1)
O4 O 0.4874(2) 0.1874(1) 0.6948(1)
O5 O 0.5869(2) 0.4029(1) 0.8045(1)
O6 O 0.0362(2) 0.2511(1) 0.9729(1)
O7 O 0.8500(2) 0.4816(1) 0.6368(1)
C1 C 0.3423(2) 0.2431(1) 0.8385(1)
C2 C 0.2529(2) 0.2658(1) 0.8962(1)
C3 C 0.2945(3) 0.3322(1) 0.9269(1)
C4 C 0.4142(3) 0.3810(1) 0.8991(1)
C5 C 0.4966(2) 0.3595(1) 0.8452(1)
C6 C 0.6073(2) 0.3659(1) 0.7447(1)
C7 C 0.6924(2) 0.3932(1) 0.6899(1)
C8 C 0.7058(2) 0.3445(1) 0.6360(1)
C9 C 0.6329(3) 0.2771(1) 0.6359(1)
C10 C 0.5512(2) 0.2539(1) 0.6932(1)
C11 C 0.5404(2) 0.2988(1) 0.7482(1)
C12 C 0.4969(2) 0.2850(1) 0.8199(1)
C13 C 0.1105(3) 0.2280(1) 0.9216(1)
C14 C 0.0387(3) 0.1631(1) 0.8904(1)
C15 C 0.7685(2) 0.4637(1) 0.6866(1)
C16 C 0.7481(3) 0.5167(1) 0.7413(1)
C17 C 0.6487(3) 0.2295(1) 0.5762(1)
C18 C 0.6469(2) 0.2450(1) 0.8531(1)
loop_
_geom_bond_atom_site_label_1
_geom_bond_atom_site_label_2
_geom_bond_site_symmetry_1
_geom_bond_site_symmetry_2
O1 C1 1_555 1_555
O2 C3 1_555 1_555
O3 C8 1_555 1_555
O4 C10 1_555 1_555
O5 C5 1_555 1_555
O6 C13 1_555 1_555
O7 C15 1_555 1_555
C1 C2 1_555 1_555
C2 C3 1_555 1_555
C3 C4 1_555 1_555
C4 C5 1_555 1_555
C5 C12 1_555 1_555
C6 O5 1_555 1_555
C7 C6 1_555 1_555
C8 C7 1_555 1_555
C9 C8 1_555 1_555
C10 C9 1_555 1_555
C11 C6 1_555 1_555
C12 C1 1_555 1_555
C13 C2 1_555 1_555
C14 C13 1_555 1_555
C15 C7 1_555 1_555
C16 C15 1_555 1_555
C17 C9 1_555 1_555
C18 C12 1_555 1_555
C10 C11 1_555 1_555
C11 C12 1_555 1_555

#END
