
#######################################################################
#
#                 Cambridge Crystallographic Data Centre
#                                CCDC 
#
#######################################################################
#
# If this CIF has been generated from an entry in the Cambridge 
# Structural Database, then it will include bibliographic, chemical, 
# crystal, experimental, refinement or atomic coordinate data resulting 
# from the CCDC's data processing and validation procedures.
#
#######################################################################

data_ZIGDAU
_chemical_formula_moiety         'C26 H24 O4'
_chemical_name_systematic        
'7,8:9,10-Dibenzo-1,6-bis(ethoxycarbonyl)-tricyclo(4.2.2.2^2,5^) dodeca-3,11-diene'
_symmetry_cell_setting           orthorhombic
_symmetry_space_group_name_H-M   'P n c a'
_symmetry_Int_Tables_number      60
_space_group_name_Hall           '-P 2a 2n'
loop_
_symmetry_equiv_pos_site_id
_symmetry_equiv_pos_as_xyz
1 x,y,z
2 1/2-x,-y,z
3 1/2+x,1/2-y,1/2-z
4 -x,1/2+y,1/2-z
5 -x,-y,-z
6 1/2+x,y,-z
7 1/2-x,1/2+y,1/2+z
8 x,1/2-y,1/2+z
_cell_length_a                   16.588(8)
_cell_length_b                   27.21(1)
_cell_length_c                   9.323(4)
_cell_angle_alpha                90
_cell_angle_beta                 90
_cell_angle_gamma                90
_cell_volume                     4208.02
_exptl_crystal_colour            colorless
_chemical_melting_point          '171-172 deg.C'
_cell_formula_units_Z            8
loop_
_atom_site_label
_atom_site_type_symbol
_atom_site_fract_x
_atom_site_fract_y
_atom_site_fract_z
C1 C 0.5834(2) 0.0763(2) 0.2880(5)
C2 C 0.6039(2) 0.0959(2) 0.1387(5)
C3 C 0.5824(3) 0.0716(2) 0.0142(5)
C4 C 0.5980(3) 0.0917(2) -0.1192(5)
C5 C 0.6332(3) 0.1370(2) -0.1294(5)
C6 C 0.6536(3) 0.1623(2) -0.0055(5)
C7 C 0.6399(2) 0.1423(1) 0.1283(5)
C8 C 0.6568(2) 0.1694(2) 0.2686(5)
C9 C 0.5736(3) 0.1941(2) 0.3291(5)
C10 C 0.5046(3) 0.1832(2) 0.2318(6)
C11 C 0.4700(3) 0.1397(2) 0.2388(6)
C12 C 0.5019(3) 0.1029(2) 0.3476(6)
C13 C 0.5189(3) 0.1314(2) 0.4844(6)
C14 C 0.5532(3) 0.1745(2) 0.4772(6)
C15 C 0.6541(3) 0.0875(2) 0.3890(5)
C16 C 0.6783(3) 0.0552(2) 0.4944(6)
C17 C 0.7393(3) 0.0687(2) 0.5912(5)
C18 C 0.7739(3) 0.1145(2) 0.5803(6)
C19 C 0.7450(3) 0.1465(2) 0.4759(5)
C20 C 0.6901(2) 0.1335(2) 0.3784(5)
C21 C 0.5702(3) 0.0207(2) 0.2784(5)
O1 O 0.6366(2) -0.0012(1) 0.2337(4)
C22 C 0.6373(4) -0.0541(2) 0.2069(7)
C23 C 0.6753(4) -0.0630(2) 0.0699(8)
O2 O 0.5082(2) 0.0001(2) 0.3030(5)
C24 C 0.7175(3) 0.2103(2) 0.2375(6)
O3 O 0.7876(2) 0.1917(1) 0.1949(4)
C25 C 0.8530(4) 0.2253(2) 0.1563(10)
C26 C 0.9267(4) 0.1979(3) 0.1481(9)
O4 O 0.7059(2) 0.2535(1) 0.2482(6)
H1 H 0.553(2) 0.039(1) 0.022(4)
H2 H 0.588(3) 0.075(2) -0.203(5)
H3 H 0.644(3) 0.152(2) -0.216(5)
H4 H 0.680(2) 0.195(3) -0.018(5)
H5 H 0.585(2) 0.229(1) 0.326(4)
H6 H 0.489(2) 0.208(2) 0.166(5)
H7 H 0.426(2) 0.129(1) 0.175(4)
H8 H 0.459(3) 0.074(2) 0.356(5)
H9 H 0.509(2) 0.117(1) 0.575(5)
H10 H 0.567(3) 0.193(2) 0.568(6)
H11 H 0.655(2) 0.024(1) 0.508(5)
H12 H 0.754(3) 0.050(2) 0.671(5)
H13 H 0.810(3) 0.124(2) 0.643(6)
H14 H 0.776(2) 0.178(1) 0.470(5)
H15 H 0.582(4) -0.067(2) 0.211(6)
H16 H 0.662(4) -0.067(2) 0.292(7)
H17 H 0.684(3) -0.096(2) 0.043(6)
H18 H 0.643(4) -0.049(2) -0.012(7)
H19 H 0.735(6) -0.051(3) 0.087(10)
H20 H 0.842(3) 0.256(2) 0.195(5)
H21 H 0.850(4) 0.237(2) 0.038(7)
H22 H 0.926(3) 0.162(2) 0.102(6)
H23 H 0.918(5) 0.195(3) 0.259(10)
H24 H 0.974(4) 0.221(2) 0.121(7)
loop_
_geom_bond_atom_site_label_1
_geom_bond_atom_site_label_2
_geom_bond_site_symmetry_1
_geom_bond_site_symmetry_2
C1 C2 1_555 1_555
C2 C3 1_555 1_555
C3 C4 1_555 1_555
C4 C5 1_555 1_555
C5 C6 1_555 1_555
C6 C7 1_555 1_555
C7 C2 1_555 1_555
C8 C7 1_555 1_555
C9 C8 1_555 1_555
C10 C9 1_555 1_555
C11 C10 1_555 1_555
C12 C1 1_555 1_555
C13 C12 1_555 1_555
C14 C9 1_555 1_555
C15 C1 1_555 1_555
C16 C15 1_555 1_555
C17 C16 1_555 1_555
C18 C17 1_555 1_555
C19 C18 1_555 1_555
C20 C8 1_555 1_555
C21 C1 1_555 1_555
O1 C21 1_555 1_555
C22 O1 1_555 1_555
C23 C22 1_555 1_555
O2 C21 1_555 1_555
C24 C8 1_555 1_555
O3 C24 1_555 1_555
C25 O3 1_555 1_555
C26 C25 1_555 1_555
O4 C24 1_555 1_555
H1 C3 1_555 1_555
H2 C4 1_555 1_555
H3 C5 1_555 1_555
H4 C6 1_555 1_555
H5 C9 1_555 1_555
H6 C10 1_555 1_555
H7 C11 1_555 1_555
H8 C12 1_555 1_555
H9 C13 1_555 1_555
H10 C14 1_555 1_555
H11 C16 1_555 1_555
H12 C17 1_555 1_555
H13 C18 1_555 1_555
H14 C19 1_555 1_555
H15 C22 1_555 1_555
H16 C22 1_555 1_555
H17 C23 1_555 1_555
H18 C23 1_555 1_555
H19 C23 1_555 1_555
H20 C25 1_555 1_555
H21 C25 1_555 1_555
H22 C26 1_555 1_555
H23 C26 1_555 1_555
H24 C26 1_555 1_555
C11 C12 1_555 1_555
C13 C14 1_555 1_555
C15 C20 1_555 1_555
C19 C20 1_555 1_555

#END
