
#######################################################################
#
#                 Cambridge Crystallographic Data Centre
#                                CCDC 
#
#######################################################################
#
# If this CIF has been generated from an entry in the Cambridge 
# Structural Database, then it will include bibliographic, chemical, 
# crystal, experimental, refinement or atomic coordinate data resulting 
# from the CCDC's data processing and validation procedures.
#
#######################################################################

data_ZIGHOP
_chemical_formula_moiety         'C34 H58 O3 Si1'
_chemical_name_systematic        
6-[3-(3-{[t-butyl(dimethyl)silyl]oxy}-10,13-dimethylhexadecahydro-1H-cyclopenta[a]phenanthren-17-yl)butyl]-5,6-dihydro-2H-pyran-2-one
_symmetry_cell_setting           monoclinic
_symmetry_space_group_name_H-M   'P 21'
_symmetry_Int_Tables_number      4
_space_group_name_Hall           'P 2yb'
loop_
_symmetry_equiv_pos_site_id
_symmetry_equiv_pos_as_xyz
1 x,y,z
2 -x,1/2+y,-z
_cell_length_a                   7.18340(10)
_cell_length_b                   11.0051(2)
_cell_length_c                   21.1383(3)
_cell_angle_alpha                90
_cell_angle_beta                 97.1420(10)
_cell_angle_gamma                90
_cell_volume                     1658.1
_exptl_crystal_colour            colorless
_exptl_crystal_description       block
_cell_formula_units_Z            2
loop_
_atom_site_label
_atom_site_type_symbol
_atom_site_fract_x
_atom_site_fract_y
_atom_site_fract_z
Si1 Si 0.72524(13) 0.99296(8) 0.43964(4)
O1 O 0.7028(3) 0.9338(2) 0.50940(9)
O2 O 0.5331(3) 0.10143(18) 0.95009(10)
O3 O 0.2507(4) 0.0533(2) 0.97233(13)
C1 C 1.0518(4) 0.9438(3) 0.65724(14)
H1 H 1.095779 1.028421 0.653531
H2 H 1.163283 0.892837 0.670819
C2 C 0.9641(5) 0.9012(3) 0.59183(14)
H3 H 1.056311 0.909207 0.560961
H4 H 0.928801 0.814444 0.593921
C3 C 0.7917(4) 0.9762(3) 0.56963(13)
H5 H 0.829942 1.062854 0.565239
C4 C 0.6530(4) 0.9687(3) 0.61785(13)
H6 H 0.607657 0.883984 0.619771
H7 H 0.543524 1.020840 0.603483
C5 C 0.7377(4) 1.0085(3) 0.68476(12)
H8 H 0.772626 1.096075 0.681573
C6 C 0.5924(4) 1.0018(3) 0.73170(13)
H9 H 0.639319 1.047772 0.770709
H10 H 0.474853 1.040986 0.712358
C7 C 0.5501(4) 0.8720(3) 0.74995(14)
H11 H 0.485567 0.829452 0.712156
H12 H 0.464121 0.873270 0.783086
C8 C 0.7276(4) 0.8017(2) 0.77509(13)
H13 H 0.785188 0.841445 0.815386
C9 C 0.8710(4) 0.8061(2) 0.72651(13)
H14 H 0.808150 0.768544 0.686356
C10 C 0.9207(4) 0.9390(3) 0.70942(13)
C11 C 1.0429(4) 0.7271(3) 0.74838(14)
H15 H 1.115862 0.766002 0.785793
H16 H 1.123914 0.723979 0.713797
C12 C 0.9940(4) 0.5965(2) 0.76626(13)
H17 H 0.936361 0.553307 0.727637
H18 H 1.110478 0.552947 0.782884
C13 C 0.8577(4) 0.5949(2) 0.81686(12)
C14 C 0.6852(4) 0.6702(2) 0.78983(13)
H19 H 0.636918 0.631977 0.748081
C15 C 0.5406(4) 0.6424(3) 0.83460(14)
H20 H 0.411600 0.655006 0.813051
H21 H 0.559964 0.694364 0.873093
C16 C 0.5750(4) 0.5082(3) 0.85189(13)
H22 H 0.471088 0.457504 0.831076
H23 H 0.582719 0.496845 0.898601
C17 C 0.7632(4) 0.4712(2) 0.82809(12)
H24 H 0.730856 0.432696 0.785275
C18 C 0.9541(4) 0.6459(3) 0.88027(13)
H25 H 0.981586 0.732343 0.875143
H26 H 1.071290 0.601723 0.892798
H27 H 0.870849 0.636277 0.913312
C19 C 1.0225(4) 1.0060(3) 0.76777(14)
H28 H 0.948013 0.999906 0.803470
H29 H 1.038284 1.091753 0.757098
H30 H 1.145843 0.968990 0.779847
C20 C 0.8709(4) 0.3753(3) 0.87134(14)
H31 H 0.894007 0.409846 0.915361
C21 C 1.0606(5) 0.3425(3) 0.85080(17)
H32 H 1.043188 0.315525 0.806281
H33 H 1.118058 0.277046 0.877950
H34 H 1.142577 0.414030 0.854961
C22 C 0.7481(4) 0.2615(2) 0.87408(14)
H35 H 0.623521 0.286753 0.884797
H36 H 0.729355 0.223883 0.831227
C23 C 0.8294(4) 0.1658(3) 0.92247(14)
H37 H 0.950960 0.137326 0.910461
H38 H 0.854310 0.204436 0.964978
C24 C 0.7037(4) 0.0574(3) 0.92722(14)
H39 H 0.669760 0.023421 0.883437
C25 C 0.7912(4) -0.0426(3) 0.96973(14)
H40 H 0.893770 -0.081101 0.949635
H41 H 0.845840 -0.007825 1.011105
C26 C 0.6497(5) -0.1355(3) 0.98063(14)
H42 H 0.688621 -0.215511 0.992762
C27 C 0.4691(5) -0.1076(3) 0.97359(15)
H43 H 0.378905 -0.170416 0.974694
C28 C 0.4059(5) 0.0183(3) 0.96413(15)
C29 C 0.9734(6) 1.0311(4) 0.43281(18)
H44 H 1.019286 1.089583 0.466086
H45 H 0.982429 1.066670 0.390806
H46 H 1.049720 0.957069 0.437931
C30 C 0.5815(7) 1.1332(4) 0.4263(2)
H47 H 0.450240 1.114441 0.430565
H48 H 0.590429 1.164620 0.383435
H49 H 0.627966 1.194630 0.458010
C31 C 0.6363(5) 0.8703(3) 0.38194(15)
C32 C 0.7392(7) 0.7523(3) 0.4010(2)
H50 H 0.873833 0.763386 0.399307
H51 H 0.691837 0.687547 0.371450
H52 H 0.718017 0.730116 0.444407
C33 C 0.4274(6) 0.8490(4) 0.3837(2)
H53 H 0.405565 0.827669 0.427218
H54 H 0.384475 0.782535 0.354711
H55 H 0.357851 0.923243 0.370458
C34 C 0.6688(6) 0.9047(4) 0.31424(16)
H56 H 0.612361 0.984266 0.303404
H57 H 0.611176 0.843533 0.284297
H58 H 0.803943 0.908437 0.311544
loop_
_geom_bond_atom_site_label_1
_geom_bond_atom_site_label_2
_geom_bond_site_symmetry_1
_geom_bond_site_symmetry_2
Si1 O1 1_555 1_555
O1 C3 1_555 1_555
O2 C24 1_555 1_555
O3 C28 1_555 1_555
C1 H1 1_555 1_555
H2 C1 1_555 1_555
C2 C1 1_555 1_555
H3 C2 1_555 1_555
H4 C2 1_555 1_555
C3 C2 1_555 1_555
H5 C3 1_555 1_555
C4 C3 1_555 1_555
H6 C4 1_555 1_555
H7 C4 1_555 1_555
C5 C4 1_555 1_555
H8 C5 1_555 1_555
C6 C5 1_555 1_555
H9 C6 1_555 1_555
H10 C6 1_555 1_555
C7 C6 1_555 1_555
H11 C7 1_555 1_555
H12 C7 1_555 1_555
C8 C7 1_555 1_555
H13 C8 1_555 1_555
C9 C8 1_555 1_555
H14 C9 1_555 1_555
C10 C1 1_555 1_555
C11 C9 1_555 1_555
H15 C11 1_555 1_555
H16 C11 1_555 1_555
C12 C11 1_555 1_555
H17 C12 1_555 1_555
H18 C12 1_555 1_555
C13 C12 1_555 1_555
C14 C8 1_555 1_555
H19 C14 1_555 1_555
C15 C14 1_555 1_555
H20 C15 1_555 1_555
H21 C15 1_555 1_555
C16 C15 1_555 1_555
H22 C16 1_555 1_555
H23 C16 1_555 1_555
C17 C13 1_555 1_555
H24 C17 1_555 1_555
C18 C13 1_555 1_555
H25 C18 1_555 1_555
H26 C18 1_555 1_555
H27 C18 1_555 1_555
C19 C10 1_555 1_555
H28 C19 1_555 1_555
H29 C19 1_555 1_555
H30 C19 1_555 1_555
C20 C17 1_555 1_555
H31 C20 1_555 1_555
C21 C20 1_555 1_555
H32 C21 1_555 1_555
H33 C21 1_555 1_555
H34 C21 1_555 1_555
C22 C20 1_555 1_555
H35 C22 1_555 1_555
H36 C22 1_555 1_555
C23 C22 1_555 1_555
H37 C23 1_555 1_555
H38 C23 1_555 1_555
C24 C23 1_555 1_555
H39 C24 1_555 1_555
C25 C24 1_555 1_555
H40 C25 1_555 1_555
H41 C25 1_555 1_555
C26 C25 1_555 1_555
H42 C26 1_555 1_555
C27 C26 1_555 1_555
H43 C27 1_555 1_555
C28 O2 1_555 1_555
C29 Si1 1_555 1_555
H44 C29 1_555 1_555
H45 C29 1_555 1_555
H46 C29 1_555 1_555
C30 Si1 1_555 1_555
H47 C30 1_555 1_555
H48 C30 1_555 1_555
H49 C30 1_555 1_555
C31 Si1 1_555 1_555
C32 C31 1_555 1_555
H50 C32 1_555 1_555
H51 C32 1_555 1_555
H52 C32 1_555 1_555
C33 C31 1_555 1_555
H53 C33 1_555 1_555
H54 C33 1_555 1_555
H55 C33 1_555 1_555
C34 C31 1_555 1_555
H56 C34 1_555 1_555
H57 C34 1_555 1_555
H58 C34 1_555 1_555
C5 C10 1_555 1_555
C9 C10 1_555 1_555
C13 C14 1_555 1_555
C16 C17 1_555 1_555
C27 C28 1_555 1_555

#END
