
#######################################################################
#
#                 Cambridge Crystallographic Data Centre
#                                CCDC 
#
#######################################################################
#
# If this CIF has been generated from an entry in the Cambridge 
# Structural Database, then it will include bibliographic, chemical, 
# crystal, experimental, refinement or atomic coordinate data resulting 
# from the CCDC's data processing and validation procedures.
#
#######################################################################

data_ZIHCIF
_chemical_formula_moiety         'C25 H16 Cl1 F3 O3 S1 Si1'
_chemical_name_systematic        
'7-chloro-5,5-diphenyl-5H-dibenzo[b,d]silol-3-yl trifluoromethanesulfonate'
_symmetry_cell_setting           triclinic
_symmetry_space_group_name_H-M   'P -1'
_symmetry_Int_Tables_number      2
_space_group_name_Hall           '-P 1'
loop_
_symmetry_equiv_pos_site_id
_symmetry_equiv_pos_as_xyz
1 x,y,z
2 -x,-y,-z
_cell_length_a                   10.8553(12)
_cell_length_b                   11.2936(14)
_cell_length_c                   11.5051(14)
_cell_angle_alpha                71.371(4)
_cell_angle_beta                 72.575(4)
_cell_angle_gamma                64.857(3)
_cell_volume                     1187.69
_exptl_crystal_colour            colorless
_exptl_crystal_description       block
_cell_formula_units_Z            2
loop_
_atom_site_label
_atom_site_type_symbol
_atom_site_fract_x
_atom_site_fract_y
_atom_site_fract_z
Cl1 Cl 1.08443(9) 0.16691(10) 1.02007(8)
S1 S 0.17465(8) 1.01420(7) 0.65754(8)
Si1 Si 0.67513(6) 0.41809(6) 0.71425(5)
F1 F 0.2487(3) 1.1373(2) 0.4325(2)
F2 F 0.1944(4) 0.9755(3) 0.4417(2)
F3 F 0.3875(3) 0.9381(3) 0.4857(3)
O1 O 0.21152(19) 0.85985(18) 0.7145(2)
O2 O 0.2395(3) 1.0696(2) 0.7041(3)
O3 O 0.0309(3) 1.0696(3) 0.6607(3)
C1 C 0.9365(3) 0.2974(3) 0.9717(2)
C2 C 0.8893(3) 0.2912(3) 0.8746(2)
H1 H 0.936477 0.219586 0.835198
C3 C 0.7703(2) 0.3939(2) 0.8375(2)
C4 C 0.5420(2) 0.5804(2) 0.7529(2)
C5 C 0.4248(3) 0.6699(2) 0.7046(2)
H2 H 0.405313 0.658632 0.636283
C6 C 0.3373(3) 0.7767(2) 0.7602(2)
C7 C 0.2584(4) 1.0151(3) 0.4946(4)
C8 C 0.3617(3) 0.7992(2) 0.8613(2)
H3 H 0.299528 0.870848 0.897407
C9 C 0.4808(3) 0.7126(2) 0.9072(2)
H4 H 0.500492 0.727218 0.973600
C10 C 0.5716(2) 0.6033(2) 0.8545(2)
C11 C 0.6998(3) 0.5015(2) 0.8986(2)
C12 C 0.7506(3) 0.5059(3) 0.9950(2)
H5 H 0.704804 0.577376 1.034712
C13 C 0.8697(3) 0.4030(3) 1.0312(2)
H6 H 0.904229 0.405337 1.094959
C14 C 0.5998(2) 0.2857(2) 0.75235(19)
C15 C 0.6713(3) 0.1532(3) 0.8076(2)
H7 H 0.759214 0.129601 0.822646
C16 C 0.6126(3) 0.0556(3) 0.8408(3)
H8 H 0.661356 -0.032297 0.877600
C17 C 0.4833(3) 0.0894(3) 0.8190(3)
H9 H 0.444354 0.024240 0.841194
C18 C 0.4105(3) 0.2195(3) 0.7644(3)
H10 H 0.322520 0.242079 0.749915
C19 C 0.4689(3) 0.3170(3) 0.7309(3)
H11 H 0.419487 0.404532 0.693542
C20 C 0.7772(2) 0.4376(2) 0.55197(19)
C21 C 0.8085(3) 0.5536(2) 0.4940(2)
H12 H 0.771665 0.624079 0.534416
C22 C 0.8934(3) 0.5650(3) 0.3775(2)
H13 H 0.913211 0.642706 0.340279
C23 C 0.9488(3) 0.4609(3) 0.3164(2)
H14 H 1.006626 0.468351 0.238433
C24 C 0.9184(3) 0.3460(3) 0.3708(2)
H15 H 0.955341 0.276173 0.329531
C25 C 0.8324(3) 0.3352(2) 0.4876(2)
H16 H 0.811414 0.258040 0.523451
loop_
_geom_bond_atom_site_label_1
_geom_bond_atom_site_label_2
_geom_bond_site_symmetry_1
_geom_bond_site_symmetry_2
Cl1 C1 1_555 1_555
S1 O1 1_555 1_555
Si1 C3 1_555 1_555
F1 C7 1_555 1_555
F2 C7 1_555 1_555
F3 C7 1_555 1_555
O1 C6 1_555 1_555
O2 S1 1_555 1_555
O3 S1 1_555 1_555
C1 C2 1_555 1_555
C2 H1 1_555 1_555
C3 C2 1_555 1_555
C4 Si1 1_555 1_555
C5 C4 1_555 1_555
H2 C5 1_555 1_555
C6 C5 1_555 1_555
C7 S1 1_555 1_555
C8 C6 1_555 1_555
H3 C8 1_555 1_555
C9 C8 1_555 1_555
H4 C9 1_555 1_555
C10 C4 1_555 1_555
C11 C3 1_555 1_555
C12 C11 1_555 1_555
H5 C12 1_555 1_555
C13 C1 1_555 1_555
H6 C13 1_555 1_555
C14 Si1 1_555 1_555
C15 C14 1_555 1_555
H7 C15 1_555 1_555
C16 C15 1_555 1_555
H8 C16 1_555 1_555
C17 C16 1_555 1_555
H9 C17 1_555 1_555
C18 C17 1_555 1_555
H10 C18 1_555 1_555
C19 C14 1_555 1_555
H11 C19 1_555 1_555
C20 Si1 1_555 1_555
C21 C20 1_555 1_555
H12 C21 1_555 1_555
C22 C21 1_555 1_555
H13 C22 1_555 1_555
C23 C22 1_555 1_555
H14 C23 1_555 1_555
C24 C23 1_555 1_555
H15 C24 1_555 1_555
C25 C20 1_555 1_555
H16 C25 1_555 1_555
C9 C10 1_555 1_555
C10 C11 1_555 1_555
C12 C13 1_555 1_555
C18 C19 1_555 1_555
C24 C25 1_555 1_555

#END
