
#######################################################################
#
#                 Cambridge Crystallographic Data Centre
#                                CCDC 
#
#######################################################################
#
# If this CIF has been generated from an entry in the Cambridge 
# Structural Database, then it will include bibliographic, chemical, 
# crystal, experimental, refinement or atomic coordinate data resulting 
# from the CCDC's data processing and validation procedures.
#
#######################################################################

data_ZIHFAA
_chemical_formula_moiety         'C17 H9 Br1 N1 S2 1+,C2 H1 F3 O2,C2 F3 O2 1-'
_chemical_name_systematic        
'4-bromo-1,8-dithia-7-azacyclopenta[fg]tetracene trifluoroacetate trifluoroacetic acid'
_symmetry_cell_setting           triclinic
_symmetry_space_group_name_H-M   'P -1'
_symmetry_Int_Tables_number      2
_space_group_name_Hall           '-P 1'
loop_
_symmetry_equiv_pos_site_id
_symmetry_equiv_pos_as_xyz
1 x,y,z
2 -x,-y,-z
_cell_length_a                   10.8642(12)
_cell_length_b                   10.9731(12)
_cell_length_c                   11.6128(11)
_cell_angle_alpha                90.797(8)
_cell_angle_beta                 106.388(9)
_cell_angle_gamma                119.455(12)
_cell_volume                     1137.02
_exptl_crystal_colour            colorless
_exptl_crystal_description       prismatic
_cell_formula_units_Z            2
loop_
_atom_site_label
_atom_site_type_symbol
_atom_site_fract_x
_atom_site_fract_y
_atom_site_fract_z
Br1 Br 0.97016(8) 0.05228(7) 1.17659(6)
S1 S 0.36141(17) 0.30515(16) 0.79091(11)
S2 S 0.44231(16) 0.28558(15) 1.21927(10)
N1 N 0.5487(5) 0.2124(5) 0.8547(4)
C1 C 0.2822(5) 0.3560(5) 0.8808(4)
C2 C 0.1927(6) 0.4079(6) 0.8193(5)
H1 H 0.1776 0.4122 0.7369
C3 C 0.1266(6) 0.4527(6) 0.8816(6)
H2 H 0.0674 0.4874 0.8397
C4 C 0.1451(6) 0.4478(6) 1.0023(5)
H3 H 0.0988 0.4775 1.0424
C5 C 0.2367(6) 0.3964(6) 1.0642(5)
H4 H 0.2521 0.3940 1.1469
C6 C 0.3049(5) 0.3490(5) 1.0051(4)
C7 C 0.4001(5) 0.2972(5) 1.0680(4)
C8 C 0.4764(5) 0.2551(5) 1.0165(4)
C9 C 0.4683(5) 0.2537(5) 0.8917(4)
C10 C 0.6427(6) 0.1723(5) 0.9288(4)
C11 C 0.6557(5) 0.1708(5) 1.0534(4)
C12 C 0.5668(5) 0.2130(5) 1.0977(4)
C13 C 0.5596(6) 0.2239(5) 1.2137(4)
H5 H 0.6109 0.2011 1.2799
C14 C 0.7254(6) 0.1357(6) 0.8805(5)
H6 H 0.7153 0.1351 0.7982
C15 C 0.8229(7) 0.1001(6) 0.9537(5)
H7 H 0.8797 0.0772 0.9214
C16 C 0.8354(6) 0.0988(5) 1.0755(5)
C17 C 0.7521(6) 0.1333(5) 1.1252(4)
H8 H 0.7612 0.1311 1.2071
H9 H 0.531(7) 0.204(7) 0.781(2)
O1 O 0.5847(5) 0.2815(5) 0.4867(4)
O2 O 0.6463(7) 0.3602(5) 0.6813(4)
C18 C 0.6569(7) 0.3706(7) 0.5819(5)
C19 C 0.7806(11) 0.5134(9) 0.5703(7)
F1 F 0.8132(15) 0.5110(12) 0.4729(8)
F2 F 0.7365(16) 0.6088(12) 0.570(2)
F3 F 0.9048(11) 0.5670(13) 0.6664(10)
O3 O 0.3477(7) 1.0606(6) 0.4411(4)
O4 O 0.3696(5) 1.0164(5) 0.6260(3)
C20 C 0.3055(7) 0.9949(7) 0.5206(5)
C21 C 0.1429(11) 0.8631(11) 0.4672(8)
F7 F 0.0421(11) 0.8850(12) 0.4291(14)
F8 F 0.1382(8) 0.7774(9) 0.3756(7)
F9 F 0.1154(13) 0.7780(14) 0.5487(9)
H10 H 0.278(5) 1.025(7) 0.373(3)
F4? F 0.890(4) 0.493(3) 0.545(4)
F5? F 0.737(4) 0.562(3) 0.478(3)
F6? F 0.844(4) 0.609(2) 0.651(2)
F10? F 0.142(4) 0.767(4) 0.498(4)
F11? F 0.093(2) 0.862(3) 0.3487(18)
F12? F 0.061(4) 0.908(5) 0.510(3)
loop_
_geom_bond_atom_site_label_1
_geom_bond_atom_site_label_2
_geom_bond_site_symmetry_1
_geom_bond_site_symmetry_2
Br1 C16 1_555 1_555
S1 C1 1_555 1_555
S2 C7 1_555 1_555
N1 C9 1_555 1_555
C1 C2 1_555 1_555
C2 H1 1_555 1_555
C3 C2 1_555 1_555
H2 C3 1_555 1_555
C4 C3 1_555 1_555
H3 C4 1_555 1_555
C5 C4 1_555 1_555
H4 C5 1_555 1_555
C6 C1 1_555 1_555
C7 C6 1_555 1_555
C8 C7 1_555 1_555
C9 S1 1_555 1_555
C10 N1 1_555 1_555
C11 C10 1_555 1_555
C12 C8 1_555 1_555
C13 S2 1_555 1_555
H5 C13 1_555 1_555
C14 C10 1_555 1_555
H6 C14 1_555 1_555
C15 C14 1_555 1_555
H7 C15 1_555 1_555
C16 C15 1_555 1_555
C17 C11 1_555 1_555
H8 C17 1_555 1_555
H9 N1 1_555 1_555
O1 C18 1_555 1_555
O2 C18 1_555 1_555
C18 C19 1_555 1_555
C19 F1 1_555 1_555
F2 C19 1_555 1_555
F3 C19 1_555 1_555
O3 C20 1_555 1_555
O4 C20 1_555 1_555
C20 C21 1_555 1_555
C21 F7 1_555 1_555
F8 C21 1_555 1_555
F9 C21 1_555 1_555
H10 O3 1_555 1_555
C5 C6 1_555 1_555
C8 C9 1_555 1_555
C11 C12 1_555 1_555
C12 C13 1_555 1_555
C16 C17 1_555 1_555

#END
