
#######################################################################
#
#                 Cambridge Crystallographic Data Centre
#                                CCDC 
#
#######################################################################
#
# If this CIF has been generated from an entry in the Cambridge 
# Structural Database, then it will include bibliographic, chemical, 
# crystal, experimental, refinement or atomic coordinate data resulting 
# from the CCDC's data processing and validation procedures.
#
#######################################################################

data_ZIHKOT
_chemical_formula_moiety         'C20 H19 N1 O5'
_chemical_name_systematic        
'dimethyl 2,5-diphenyl-4,5-dihydro-3H-pyrrole-3,3-dicarboxylate N-oxide'
_symmetry_cell_setting           monoclinic
_symmetry_space_group_name_H-M   'P 21'
_symmetry_Int_Tables_number      4
_space_group_name_Hall           'P 2yb'
loop_
_symmetry_equiv_pos_site_id
_symmetry_equiv_pos_as_xyz
1 x,y,z
2 -x,1/2+y,-z
_cell_length_a                   8.2648(2)
_cell_length_b                   10.1169(2)
_cell_length_c                   10.9096(3)
_cell_angle_alpha                90
_cell_angle_beta                 106.079(3)
_cell_angle_gamma                90
_cell_volume                     876.513
_exptl_crystal_colour            colorless
_exptl_crystal_description       block
_cell_formula_units_Z            2
loop_
_atom_site_label
_atom_site_type_symbol
_atom_site_fract_x
_atom_site_fract_y
_atom_site_fract_z
O1 O 0.44989(15) 0.12263(14) 0.53766(11)
O2 O 0.10047(19) -0.29261(14) 0.25914(17)
O3 O 0.29903(16) -0.14880(13) 0.24652(12)
O4 O -0.14192(15) 0.00212(13) 0.39305(13)
O5 O -0.15320(17) -0.08832(16) 0.20406(13)
N1 N 0.33247(16) 0.03759(15) 0.49543(13)
C1 C 0.21204(19) 0.04230(17) 0.38749(15)
C2 C 0.1127(2) -0.08517(16) 0.36825(15)
C3 C 0.1553(2) -0.14097(19) 0.50580(16)
H1 H 0.0732 -0.1120 0.5487
H2 H 0.1575 -0.2368 0.5050
C4 C 0.3294(2) -0.08532(17) 0.57182(15)
H3 H 0.4169 -0.1469 0.5627
C5 C 0.17809(19) 0.15795(18) 0.30485(16)
C6 C 0.1128(2) 0.1455(2) 0.17275(18)
H4 H 0.0984 0.0622 0.1352
C7 C 0.0695(3) 0.2581(2) 0.0975(2)
H5 H 0.0272 0.2498 0.0095
C8 C 0.0890(3) 0.3819(2) 0.1526(2)
H6 H 0.0593 0.4568 0.1020
C9 C 0.1529(3) 0.3945(2) 0.2836(2)
H7 H 0.1649 0.4778 0.3210
C10 C 0.1984(2) 0.28405(19) 0.35810(19)
H8 H 0.2437 0.2936 0.4457
C11 C 0.1674(2) -0.18730(16) 0.28379(17)
C12 C 0.3677(3) -0.2485(2) 0.1779(2)
H9 H 0.2876 -0.2665 0.0973
H10 H 0.3902 -0.3282 0.2275
H11 H 0.4703 -0.2162 0.1638
C13 C -0.0763(2) -0.05949(17) 0.31001(16)
C14 C -0.3199(2) 0.0339(3) 0.3457(3)
H12 H -0.3368 0.0939 0.2752
H13 H -0.3575 0.0744 0.4126
H14 H -0.3829 -0.0456 0.3182
C15 C 0.3562(2) -0.05049(18) 0.71041(15)
C16 C 0.4808(2) -0.1129(2) 0.80444(17)
H15 H 0.5462 -0.1787 0.7824
C17 C 0.5079(3) -0.0772(2) 0.93150(18)
H16 H 0.5914 -0.1190 0.9945
C18 C 0.4109(2) 0.0204(2) 0.96416(17)
H17 H 0.4302 0.0449 1.0491
C19 C 0.2853(2) 0.0817(2) 0.87136(18)
H18 H 0.2192 0.1466 0.8940
C20 C 0.2580(2) 0.0466(2) 0.74480(17)
H19 H 0.1735 0.0881 0.6823
loop_
_geom_bond_atom_site_label_1
_geom_bond_atom_site_label_2
_geom_bond_site_symmetry_1
_geom_bond_site_symmetry_2
O1 N1 1_555 1_555
O2 C11 1_555 1_555
O3 C11 1_555 1_555
O4 C13 1_555 1_555
O5 C13 1_555 1_555
N1 C1 1_555 1_555
C1 C2 1_555 1_555
C2 C3 1_555 1_555
C3 H1 1_555 1_555
H2 C3 1_555 1_555
C4 N1 1_555 1_555
H3 C4 1_555 1_555
C5 C1 1_555 1_555
C6 C5 1_555 1_555
H4 C6 1_555 1_555
C7 C6 1_555 1_555
H5 C7 1_555 1_555
C8 C7 1_555 1_555
H6 C8 1_555 1_555
C9 C8 1_555 1_555
H7 C9 1_555 1_555
C10 C5 1_555 1_555
H8 C10 1_555 1_555
C11 C2 1_555 1_555
C12 O3 1_555 1_555
H9 C12 1_555 1_555
H10 C12 1_555 1_555
H11 C12 1_555 1_555
C13 C2 1_555 1_555
C14 O4 1_555 1_555
H12 C14 1_555 1_555
H13 C14 1_555 1_555
H14 C14 1_555 1_555
C15 C4 1_555 1_555
C16 C15 1_555 1_555
H15 C16 1_555 1_555
C17 C16 1_555 1_555
H16 C17 1_555 1_555
C18 C17 1_555 1_555
H17 C18 1_555 1_555
C19 C18 1_555 1_555
H18 C19 1_555 1_555
C20 C15 1_555 1_555
H19 C20 1_555 1_555
C3 C4 1_555 1_555
C9 C10 1_555 1_555
C19 C20 1_555 1_555

#END
