
#######################################################################
#
#                 Cambridge Crystallographic Data Centre
#                                CCDC 
#
#######################################################################
#
# If this CIF has been generated from an entry in the Cambridge 
# Structural Database, then it will include bibliographic, chemical, 
# crystal, experimental, refinement or atomic coordinate data resulting 
# from the CCDC's data processing and validation procedures.
#
#######################################################################

data_ZIHTES
_chemical_formula_moiety         'C94 H76 F4 N4 O2 S6,0.5(C1 H1 Cl3)'
_chemical_name_systematic        
"2,2'-{[6,6,12,12-tetrakis(4-hexylphenyl)-6,12-dihydrothieno[3,2-b]thieno[2''''',3''''':4'''',5'''']thieno[2'''',3'''':3''',4''']cyclopenta[1''',2''':4'',5'']thieno[2'',3'':4',5']thieno[2',3':3,4]cyclopenta[1,2-d]thiene-2,8-diyl]bis[methylylidene(5,6-difluoro-3-oxo-1H-indene-2,1(3H)-diylidene)]}dipropanedinitrile chloroform solvate"
_symmetry_cell_setting           monoclinic
_symmetry_space_group_name_H-M   'C 2/c'
_symmetry_Int_Tables_number      15
_space_group_name_Hall           '-C 2yn'
loop_
_symmetry_equiv_pos_site_id
_symmetry_equiv_pos_as_xyz
1 x,y,z
2 -x,y,1/2-z
3 1/2+x,1/2+y,z
4 1/2-x,1/2+y,1/2-z
5 -x,-y,-z
6 x,-y,1/2+z
7 1/2-x,1/2-y,-z
8 1/2+x,1/2-y,1/2+z
_cell_length_a                   15.975(5)
_cell_length_b                   39.301(12)
_cell_length_c                   14.493(4)
_cell_angle_alpha                90
_cell_angle_beta                 119.351(17)
_cell_angle_gamma                90
_cell_volume                     7931.16
_exptl_crystal_colour            gold
_exptl_crystal_description       plate
_cell_formula_units_Z            4
loop_
_atom_site_label
_atom_site_type_symbol
_atom_site_fract_x
_atom_site_fract_y
_atom_site_fract_z
C1 C 1.0021(8) 0.01501(19) 0.4719(7)
C2 C 0.9626(7) 0.04342(19) 0.5014(7)
C3 C 0.9345(7) 0.03466(19) 0.5725(7)
C4 C 0.9024(7) 0.0645(2) 0.6047(7)
C5 C 0.9125(7) 0.0923(2) 0.5502(7)
C6 C 0.9478(9) 0.0821(2) 0.4733(8)
C7 C 0.8946(7) 0.12338(19) 0.5879(7)
C8 C 0.8734(8) 0.1184(2) 0.6695(7)
C9 C 0.8637(8) 0.1489(2) 0.7119(7)
H1 H 0.8522 0.1502 0.7702
C10 C 0.8727(7) 0.1776(2) 0.6596(7)
C11 C 0.8712(8) 0.2106(2) 0.6993(8)
H2 H 0.8692 0.2106 0.7638
C12 C 0.8719(8) 0.2423(2) 0.6605(7)
C13 C 0.8661(8) 0.2503(2) 0.5570(8)
C14 C 0.8667(8) 0.2879(2) 0.5500(9)
C15 C 0.8624(9) 0.3064(2) 0.4677(9)
H3 H 0.857 0.2957 0.4062
C16 C 0.8662(8) 0.3425(3) 0.4786(10)
C17 C 0.8704(8) 0.3564(3) 0.5650(10)
C18 C 0.8732(8) 0.3389(3) 0.6484(9)
H4 H 0.8766 0.3501 0.7083
C19 C 0.8705(8) 0.3024(2) 0.6383(8)
C20 C 0.8771(8) 0.2753(2) 0.7123(8)
C21 C 0.8901(9) 0.2799(2) 0.8108(9)
C22 C 0.9071(10) 0.2539(3) 0.8877(9)
C23 C 0.8965(9) 0.3138(3) 0.8574(8)
C24 C 1.0428(10) 0.1003(2) 0.5015(8)
C25 C 1.0367(9) 0.1334(2) 0.4620(8)
H5 H 0.9761 0.143 0.4146
C26 C 1.1199(10) 0.1516(3) 0.4929(9)
H6 H 1.1146 0.1737 0.4644
C27 C 1.2093(9) 0.1398(3) 0.5617(9)
C28 C 1.2127(9) 0.1060(2) 0.6040(8)
H7 H 1.2728 0.0968 0.6549
C29 C 1.1306(10) 0.0873(2) 0.5714(9)
H8 H 1.1349 0.0649 0.5981
C30 C 1.2930(11) 0.1636(4) 0.5836(14)
H9 H 1.354 0.1528 0.6363
H10 H 1.2959 0.1669 0.5175
C31 C 1.2830(11) 0.1975(4) 0.6245(15)
H11 H 1.2385 0.2116 0.5635
H12 H 1.2531 0.194 0.6696
C32 C 1.3744(11) 0.2167(3) 0.6868(14)
H13 H 1.4217 0.201 0.7404
H14 H 1.399 0.2228 0.6381
C33 C 1.3730(16) 0.2484(3) 0.7426(11)
H15 H 1.4383 0.2519 0.8031
H16 H 1.3297 0.2445 0.7724
C34 C 1.3426(16) 0.2807(3) 0.6805(12)
H17 H 1.3826 0.2843 0.6464
H18 H 1.2751 0.2785 0.6236
C35 C 1.351(2) 0.3111(4) 0.7463(17)
H19 H 1.3304 0.3314 0.7014
H20 H 1.3106 0.308 0.7789
H21 H 1.4182 0.3138 0.8017
C36 C 0.8703(11) 0.0849(2) 0.3595(9)
C37 C 0.8914(9) 0.0826(2) 0.2768(9)
H22 H 0.9563 0.0814 0.2922
C38 C 0.8178(11) 0.0821(2) 0.1720(10)
H23 H 0.8351 0.0798 0.1182
C39 C 0.7247(9) 0.0845(2) 0.1420(8)
C40 C 0.7028(10) 0.0874(2) 0.2255(10)
H24 H 0.6378 0.0893 0.2098
C41 C 0.7751(11) 0.0875(2) 0.3285(10)
H25 H 0.7576 0.0896 0.3822
C42 C 0.6446(9) 0.0851(3) 0.0265(9)
H26 H 0.6142 0.1078 0.0093
H27 H 0.6723 0.0808 -0.0204
C43 C 0.5703(11) 0.0588(4) 0.0066(10)
H28 H 0.5433 0.0636 0.0539
H29 H 0.6026 0.0364 0.0274
C44 C 0.4889(10) 0.0559(4) -0.1039(10)
H30 H 0.5155 0.0487 -0.1497
H31 H 0.4616 0.079 -0.1274
C45 C 0.4080(13) 0.0324(5) -0.1240(11)
H32 H 0.4363 0.0108 -0.0864
H33 H 0.3722 0.0426 -0.0911
C46 C 0.3371(14) 0.0240(6) -0.2362(12)
H34 H 0.3103 0.0453 -0.2761
H35 H 0.3706 0.0119 -0.2688
C47 C 0.2567(15) 0.0022(7) -0.245(2)
H36 H 0.2123 -0.0026 -0.3202
H37 H 0.2827 -0.0192 -0.2073
H38 H 0.2224 0.0142 -0.2146
N1 N 0.9237(9) 0.2349(2) 0.9536(8)
N2 N 0.9037(8) 0.3396(2) 0.8977(8)
O1 O 0.8509(6) 0.23033(15) 0.4855(5)
F1 F 0.8659(5) 0.36199(14) 0.4023(5)
F2 F 0.8741(5) 0.39169(13) 0.5728(5)
S1 S 0.9498(2) -0.00813(5) 0.60809(19)
S2 S 0.8713(2) 0.07529(6) 0.6983(2)
S3 S 0.8944(2) 0.16576(6) 0.55746(19)
C1D C 0.9979(8) -0.01501(19) 0.5281(7)
C2D C 1.0374(7) -0.04342(19) 0.4986(7)
C3D C 1.0655(7) -0.03466(19) 0.4275(7)
C4D C 1.0976(7) -0.0645(2) 0.3953(7)
C5D C 1.0875(7) -0.0923(2) 0.4498(7)
C6D C 1.0522(9) -0.0821(2) 0.5267(8)
C7D C 1.1054(7) -0.12338(19) 0.4121(7)
C8D C 1.1266(8) -0.1184(2) 0.3305(7)
C9D C 1.1363(8) -0.1489(2) 0.2881(7)
H1D H 1.1478 -0.1502 0.2298
C10D C 1.1273(7) -0.1776(2) 0.3404(7)
C11D C 1.1288(8) -0.2106(2) 0.3007(8)
H2D H 1.1308 -0.2106 0.2362
C12D C 1.1281(8) -0.2423(2) 0.3395(7)
C13D C 1.1339(8) -0.2503(2) 0.4430(8)
C14D C 1.1333(8) -0.2879(2) 0.4500(9)
C15D C 1.1376(9) -0.3064(2) 0.5323(9)
H3D H 1.143 -0.2957 0.5938
C16D C 1.1338(8) -0.3425(3) 0.5214(10)
C17D C 1.1296(8) -0.3564(3) 0.4350(10)
C18D C 1.1268(8) -0.3389(3) 0.3516(9)
H4D H 1.1234 -0.3501 0.2917
C19D C 1.1295(8) -0.3024(2) 0.3617(8)
C20D C 1.1229(8) -0.2753(2) 0.2877(8)
C21D C 1.1099(9) -0.2799(2) 0.1892(9)
C22D C 1.0929(10) -0.2539(3) 0.1123(9)
C23D C 1.1035(9) -0.3138(3) 0.1426(8)
C24D C 0.9572(10) -0.1003(2) 0.4985(8)
C25D C 0.9633(9) -0.1334(2) 0.5380(8)
H5D H 1.0239 -0.143 0.5854
C26D C 0.8801(10) -0.1516(3) 0.5071(9)
H6D H 0.8854 -0.1737 0.5356
C27D C 0.7907(9) -0.1398(3) 0.4383(9)
C28D C 0.7873(9) -0.1060(2) 0.3960(8)
H7D H 0.7272 -0.0968 0.3451
C29D C 0.8694(10) -0.0873(2) 0.4286(9)
H8D H 0.8651 -0.0649 0.4019
C30D C 0.7070(11) -0.1636(4) 0.4164(14)
H9D H 0.646 -0.1528 0.3637
H10D H 0.7041 -0.1669 0.4825
C31D C 0.7170(11) -0.1975(4) 0.3755(15)
H11D H 0.7615 -0.2116 0.4365
H12D H 0.7469 -0.194 0.3304
C32D C 0.6256(11) -0.2167(3) 0.3132(14)
H13D H 0.5783 -0.201 0.2596
H14D H 0.601 -0.2228 0.3619
C33D C 0.6270(16) -0.2484(3) 0.2574(11)
H15D H 0.5617 -0.2519 0.1969
H16D H 0.6703 -0.2445 0.2276
C34D C 0.6574(16) -0.2807(3) 0.3195(12)
H17D H 0.6174 -0.2843 0.3536
H18D H 0.7249 -0.2785 0.3764
C35D C 0.649(2) -0.3111(4) 0.2537(17)
H19D H 0.6696 -0.3314 0.2986
H20D H 0.6894 -0.308 0.2211
H21D H 0.5818 -0.3138 0.1983
C36D C 1.1297(11) -0.0849(2) 0.6405(9)
C37D C 1.1086(9) -0.0826(2) 0.7232(9)
H22D H 1.0437 -0.0814 0.7078
C38D C 1.1822(11) -0.0821(2) 0.8280(10)
H23D H 1.1649 -0.0798 0.8818
C39D C 1.2753(9) -0.0845(2) 0.8580(8)
C40D C 1.2972(10) -0.0874(2) 0.7745(10)
H24D H 1.3622 -0.0893 0.7902
C41D C 1.2249(11) -0.0875(2) 0.6715(10)
H25D H 1.2424 -0.0896 0.6178
C42D C 1.3554(9) -0.0851(3) 0.9735(9)
H26D H 1.3858 -0.1078 0.9907
H27D H 1.3277 -0.0808 1.0204
C43D C 1.4297(11) -0.0588(4) 0.9934(10)
H28D H 1.4567 -0.0636 0.9461
H29D H 1.3974 -0.0364 0.9726
C44D C 1.5111(10) -0.0559(4) 1.1039(10)
H30D H 1.4845 -0.0487 1.1497
H31D H 1.5384 -0.079 1.1274
C45D C 1.5920(13) -0.0324(5) 1.1240(11)
H32D H 1.5637 -0.0108 1.0864
H33D H 1.6278 -0.0426 1.0911
C46D C 1.6629(14) -0.0240(6) 1.2362(12)
H34D H 1.6897 -0.0453 1.2761
H35D H 1.6294 -0.0119 1.2688
C47D C 1.7433(15) -0.0022(7) 1.245(2)
H36D H 1.7877 0.0026 1.3202
H37D H 1.7173 0.0192 1.2073
H38D H 1.7776 -0.0142 1.2146
N1D N 1.0763(9) -0.2349(2) 0.0464(8)
N2D N 1.0963(8) -0.3396(2) 0.1023(8)
O1D O 1.1491(6) -0.23033(15) 0.5145(5)
F1D F 1.1341(5) -0.36199(14) 0.5977(5)
F2D F 1.1259(5) -0.39169(13) 0.4272(5)
S1D S 1.0502(2) 0.00813(5) 0.39191(19)
S2D S 1.1287(2) -0.07529(6) 0.3017(2)
S3D S 1.1056(2) -0.16576(6) 0.44254(19)
C48? C 1.3099(11) 0.1556(5) 0.621(2)
H39? H 1.351 0.1382 0.6732
H40? H 1.3324 0.1574 0.5688
C49? C 1.336(2) 0.1887(4) 0.680(2)
H41? H 1.2793 0.1976 0.682
H42? H 1.3866 0.1842 0.754
C50? C 1.372(2) 0.2156(4) 0.635(2)
H43? H 1.4416 0.2115 0.6632
H44? H 1.3404 0.2119 0.5578
C51? C 1.360(2) 0.2522(4) 0.6527(17)
H45? H 1.2998 0.2601 0.5914
H46? H 1.4133 0.2649 0.6511
C52? C 1.358(3) 0.2627(5) 0.750(2)
H47? H 1.406 0.2491 0.811
H48? H 1.2941 0.2577 0.7417
C53? C 1.380(3) 0.2997(6) 0.775(3)
H49? H 1.3776 0.3052 0.8398
H50? H 1.444 0.3047 0.7856
H51? H 1.3321 0.3133 0.7162
C54? C 0.637(2) 0.0798(7) 0.0325(16)
H52? H 0.646 0.0986 -0.007
H53? H 0.5726 0.0836 0.0258
C55? C 0.648(3) 0.0508(6) -0.027(3)
H54? H 0.5829 0.0521 -0.0903
H55? H 0.6943 0.0529 -0.0531
C56? C 0.659(3) 0.0163(6) 0.0205(19)
H56? H 0.6139 0.0139 0.0482
H57? H 0.7249 0.0141 0.0814
C57? C 0.642(2) -0.0141(7) -0.049(2)
H58? H 0.6897 -0.0127 -0.0729
H59? H 0.6531 -0.0355 -0.0085
C58? C 0.546(2) -0.0173(10) -0.146(3)
H60? H 0.4979 -0.0209 -0.1227
H61? H 0.5317 0.0049 -0.1834
C59? C 0.545(2) -0.0436(8) -0.221(2)
H62? H 0.4794 -0.0431 -0.2812
H63? H 0.5909 -0.0399 -0.2465
H64? H 0.5571 -0.0657 -0.1857
C60? C 0.297(3) 0.0092(12) -0.267(3)
H65? H 0.3378 -0.0108 -0.2273
Cl1? Cl 0.3023(16) 0.0106(5) -0.3780(17)
Cl2? Cl 0.1936(15) 0.0027(4) -0.2694(17)
Cl3? Cl 0.3496(17) 0.0427(4) -0.1853(18)
loop_
_geom_bond_atom_site_label_1
_geom_bond_atom_site_label_2
_geom_bond_site_symmetry_1
_geom_bond_site_symmetry_2
C1 C2 1_555 1_555
C2 C3 1_555 1_555
C3 C4 1_555 1_555
C4 C5 1_555 1_555
C5 C6 1_555 1_555
C6 C2 1_555 1_555
C7 C5 1_555 1_555
C8 C7 1_555 1_555
C9 C8 1_555 1_555
H1 C9 1_555 1_555
C10 C9 1_555 1_555
C11 C10 1_555 1_555
H2 C11 1_555 1_555
C12 C11 1_555 1_555
C13 C12 1_555 1_555
C14 C13 1_555 1_555
C15 C14 1_555 1_555
H3 C15 1_555 1_555
C16 C15 1_555 1_555
C17 C16 1_555 1_555
C18 C17 1_555 1_555
H4 C18 1_555 1_555
C19 C14 1_555 1_555
C20 C12 1_555 1_555
C21 C20 1_555 1_555
C22 C21 1_555 1_555
C23 C21 1_555 1_555
C24 C6 1_555 1_555
C25 C24 1_555 1_555
H5 C25 1_555 1_555
C26 C25 1_555 1_555
H6 C26 1_555 1_555
C27 C26 1_555 1_555
C28 C27 1_555 1_555
H7 C28 1_555 1_555
C29 C24 1_555 1_555
H8 C29 1_555 1_555
C30 C27 1_555 1_555
H9 C30 1_555 1_555
H10 C30 1_555 1_555
C31 C30 1_555 1_555
H11 C31 1_555 1_555
H12 C31 1_555 1_555
C32 C31 1_555 1_555
H13 C32 1_555 1_555
H14 C32 1_555 1_555
C33 C32 1_555 1_555
H15 C33 1_555 1_555
H16 C33 1_555 1_555
C34 C33 1_555 1_555
H17 C34 1_555 1_555
H18 C34 1_555 1_555
C35 C34 1_555 1_555
H19 C35 1_555 1_555
H20 C35 1_555 1_555
H21 C35 1_555 1_555
C36 C6 1_555 1_555
C37 C36 1_555 1_555
H22 C37 1_555 1_555
C38 C37 1_555 1_555
H23 C38 1_555 1_555
C39 C38 1_555 1_555
C40 C39 1_555 1_555
H24 C40 1_555 1_555
C41 C36 1_555 1_555
H25 C41 1_555 1_555
C42 C39 1_555 1_555
H26 C42 1_555 1_555
H27 C42 1_555 1_555
C43 C42 1_555 1_555
H28 C43 1_555 1_555
H29 C43 1_555 1_555
C44 C43 1_555 1_555
H30 C44 1_555 1_555
H31 C44 1_555 1_555
C45 C44 1_555 1_555
H32 C45 1_555 1_555
H33 C45 1_555 1_555
C46 C45 1_555 1_555
H34 C46 1_555 1_555
H35 C46 1_555 1_555
C47 C46 1_555 1_555
H36 C47 1_555 1_555
H37 C47 1_555 1_555
H38 C47 1_555 1_555
N1 C22 1_555 1_555
N2 C23 1_555 1_555
O1 C13 1_555 1_555
F1 C16 1_555 1_555
F2 C17 1_555 1_555
S1 C3 1_555 1_555
S2 C4 1_555 1_555
S3 C7 1_555 1_555
C1D C1 1_555 1_555
C2D C1D 1_555 1_555
C3D C2D 1_555 1_555
C4D C3D 1_555 1_555
C5D C4D 1_555 1_555
C6D C2D 1_555 1_555
C7D C5D 1_555 1_555
C8D C7D 1_555 1_555
C9D C8D 1_555 1_555
H1D C9D 1_555 1_555
C10D C9D 1_555 1_555
C11D C10D 1_555 1_555
H2D C11D 1_555 1_555
C12D C11D 1_555 1_555
C13D C12D 1_555 1_555
C14D C13D 1_555 1_555
C15D C14D 1_555 1_555
H3D C15D 1_555 1_555
C16D C15D 1_555 1_555
C17D C16D 1_555 1_555
C18D C17D 1_555 1_555
H4D C18D 1_555 1_555
C19D C14D 1_555 1_555
C20D C12D 1_555 1_555
C21D C20D 1_555 1_555
C22D C21D 1_555 1_555
C23D C21D 1_555 1_555
C24D C6D 1_555 1_555
C25D C24D 1_555 1_555
H5D C25D 1_555 1_555
C26D C25D 1_555 1_555
H6D C26D 1_555 1_555
C27D C26D 1_555 1_555
C28D C27D 1_555 1_555
H7D C28D 1_555 1_555
C29D C24D 1_555 1_555
H8D C29D 1_555 1_555
C30D C27D 1_555 1_555
H9D C30D 1_555 1_555
H10D C30D 1_555 1_555
C31D C30D 1_555 1_555
H11D C31D 1_555 1_555
H12D C31D 1_555 1_555
C32D C31D 1_555 1_555
H13D C32D 1_555 1_555
H14D C32D 1_555 1_555
C33D C32D 1_555 1_555
H15D C33D 1_555 1_555
H16D C33D 1_555 1_555
C34D C33D 1_555 1_555
H17D C34D 1_555 1_555
H18D C34D 1_555 1_555
C35D C34D 1_555 1_555
H19D C35D 1_555 1_555
H20D C35D 1_555 1_555
H21D C35D 1_555 1_555
C36D C6D 1_555 1_555
C37D C36D 1_555 1_555
H22D C37D 1_555 1_555
C38D C37D 1_555 1_555
H23D C38D 1_555 1_555
C39D C38D 1_555 1_555
C40D C39D 1_555 1_555
H24D C40D 1_555 1_555
C41D C36D 1_555 1_555
H25D C41D 1_555 1_555
C42D C39D 1_555 1_555
H26D C42D 1_555 1_555
H27D C42D 1_555 1_555
C43D C42D 1_555 1_555
H28D C43D 1_555 1_555
H29D C43D 1_555 1_555
C44D C43D 1_555 1_555
H30D C44D 1_555 1_555
H31D C44D 1_555 1_555
C45D C44D 1_555 1_555
H32D C45D 1_555 1_555
H33D C45D 1_555 1_555
C46D C45D 1_555 1_555
H34D C46D 1_555 1_555
H35D C46D 1_555 1_555
C47D C46D 1_555 1_555
H36D C47D 1_555 1_555
H37D C47D 1_555 1_555
H38D C47D 1_555 1_555
N1D C22D 1_555 1_555
N2D C23D 1_555 1_555
O1D C13D 1_555 1_555
F1D C16D 1_555 1_555
F2D C17D 1_555 1_555
S1D C1 1_555 1_555
S2D C4D 1_555 1_555
S3D C7D 1_555 1_555
C8 S2 1_555 1_555
C10 S3 1_555 1_555
C18 C19 1_555 1_555
C19 C20 1_555 1_555
C28 C29 1_555 1_555
C40 C41 1_555 1_555
S1 C1D 1_555 1_555
C3D S1D 1_555 1_555
C5D C6D 1_555 1_555
C8D S2D 1_555 1_555
C10D S3D 1_555 1_555
C18D C19D 1_555 1_555
C19D C20D 1_555 1_555
C28D C29D 1_555 1_555
C40D C41D 1_555 1_555

#END
