
#######################################################################
#
#                 Cambridge Crystallographic Data Centre
#                                CCDC 
#
#######################################################################
#
# If this CIF has been generated from an entry in the Cambridge 
# Structural Database, then it will include bibliographic, chemical, 
# crystal, experimental, refinement or atomic coordinate data resulting 
# from the CCDC's data processing and validation procedures.
#
#######################################################################

data_ZIJCEC
_chemical_formula_moiety         'C16 H15 N1 O4'
_chemical_name_systematic        "Dimethyl 2-aminobiphenyl-4,4'-dicarboxylate"
_symmetry_cell_setting           monoclinic
_symmetry_space_group_name_H-M   'P 21/c'
_symmetry_Int_Tables_number      14
_space_group_name_Hall           '-P 2ybc'
loop_
_symmetry_equiv_pos_site_id
_symmetry_equiv_pos_as_xyz
1 x,y,z
2 -x,1/2+y,1/2-z
3 -x,-y,-z
4 x,1/2-y,1/2+z
_cell_length_a                   12.955(3)
_cell_length_b                   7.3460(16)
_cell_length_c                   14.422(3)
_cell_angle_alpha                90
_cell_angle_beta                 103.263(10)
_cell_angle_gamma                90
_cell_volume                     1335.9
_exptl_crystal_colour            colorless
_exptl_crystal_description       plate
_cell_formula_units_Z            4
loop_
_atom_site_label
_atom_site_type_symbol
_atom_site_fract_x
_atom_site_fract_y
_atom_site_fract_z
O1 O 0.06313(12) 0.5135(2) -0.10419(10)
O2 O -0.00179(13) 0.7915(2) -0.09219(11)
O3 O 0.71122(11) 0.6353(2) 0.53463(9)
O4 O 0.61240(12) 0.7629(2) 0.62568(10)
N1 N 0.22094(16) 1.0226(3) 0.21975(14)
H1 H 0.1839(17) 1.109(2) 0.1855(15)
H2 H 0.2785(12) 1.051(3) 0.2629(13)
C1 C -0.00925(17) 0.4946(3) -0.19589(14)
H3 H -0.0122 0.3668 -0.2157
H4 H 0.0153 0.5695 -0.2428
H5 H -0.0801 0.5349 -0.1915
C2 C 0.06020(17) 0.6717(3) -0.05967(15)
C3 C 0.14017(16) 0.6815(3) 0.03194(14)
C4 C 0.14580(16) 0.8404(3) 0.08492(14)
H6 H 0.0976 0.9367 0.0624
C5 C 0.22104(16) 0.8614(3) 0.17076(14)
C6 C 0.29167(16) 0.7167(3) 0.20412(14)
C7 C 0.28276(16) 0.5577(3) 0.14953(14)
H7 H 0.3294 0.4592 0.1719
C8 C 0.20895(17) 0.5381(3) 0.06445(14)
H8 H 0.2052 0.4286 0.0287
C9 C 0.37584(16) 0.7249(3) 0.29319(14)
C10 C 0.35757(16) 0.7869(3) 0.37973(14)
H9 H 0.2899 0.8339 0.3819
C11 C 0.43708(17) 0.7805(3) 0.46212(14)
H10 H 0.4235 0.8229 0.5204
C12 C 0.53657(16) 0.7127(3) 0.46029(14)
C13 C 0.55552(17) 0.6511(3) 0.37448(14)
H11 H 0.6233 0.6040 0.3725
C14 C 0.47657(16) 0.6582(3) 0.29247(14)
H12 H 0.4909 0.6170 0.2342
C15 C 0.62115(16) 0.7076(3) 0.54930(15)
C16 C 0.79774(17) 0.6225(3) 0.61760(15)
H13 H 0.8590 0.5660 0.5999
H14 H 0.7760 0.5480 0.6662
H15 H 0.8170 0.7446 0.6431
loop_
_geom_bond_atom_site_label_1
_geom_bond_atom_site_label_2
_geom_bond_site_symmetry_1
_geom_bond_site_symmetry_2
O1 C1 1_555 1_555
O2 C2 1_555 1_555
O3 C15 1_555 1_555
O4 C15 1_555 1_555
N1 H1 1_555 1_555
H2 N1 1_555 1_555
C1 H3 1_555 1_555
H4 C1 1_555 1_555
H5 C1 1_555 1_555
C2 O1 1_555 1_555
C3 C2 1_555 1_555
C4 C3 1_555 1_555
H6 C4 1_555 1_555
C5 N1 1_555 1_555
C6 C5 1_555 1_555
C7 C6 1_555 1_555
H7 C7 1_555 1_555
C8 C3 1_555 1_555
H8 C8 1_555 1_555
C9 C6 1_555 1_555
C10 C9 1_555 1_555
H9 C10 1_555 1_555
C11 C10 1_555 1_555
H10 C11 1_555 1_555
C12 C11 1_555 1_555
C13 C12 1_555 1_555
H11 C13 1_555 1_555
C14 C9 1_555 1_555
H12 C14 1_555 1_555
C15 C12 1_555 1_555
C16 O3 1_555 1_555
H13 C16 1_555 1_555
H14 C16 1_555 1_555
H15 C16 1_555 1_555
C4 C5 1_555 1_555
C7 C8 1_555 1_555
C13 C14 1_555 1_555

#END
