
#######################################################################
#
#                 Cambridge Crystallographic Data Centre
#                                CCDC 
#
#######################################################################
#
# If this CIF has been generated from an entry in the Cambridge 
# Structural Database, then it will include bibliographic, chemical, 
# crystal, experimental, refinement or atomic coordinate data resulting 
# from the CCDC's data processing and validation procedures.
#
#######################################################################

data_ZIJDAZ
_chemical_name_common            'L-Histidinium p-toluenesulfonate'
_chemical_formula_moiety         'C6 H10 N3 O2 1+,C7 H7 O3 S1 1-'
_chemical_name_systematic        
'2-Ammonio-3-(1H-imidazol-3-ium-5-yl)propanoate 4-methylbenzenesulfonate'
_symmetry_cell_setting           orthorhombic
_symmetry_space_group_name_H-M   'P 21 21 21'
_symmetry_Int_Tables_number      19
_space_group_name_Hall           'P 2ac 2ab'
loop_
_symmetry_equiv_pos_site_id
_symmetry_equiv_pos_as_xyz
1 x,y,z
2 1/2-x,-y,1/2+z
3 1/2+x,1/2-y,-z
4 -x,1/2+y,1/2-z
_cell_length_a                   5.2700(2)
_cell_length_b                   7.3691(3)
_cell_length_c                   38.2042(14)
_cell_angle_alpha                90
_cell_angle_beta                 90
_cell_angle_gamma                90
_cell_volume                     1483.67
_exptl_crystal_colour            colorless
_exptl_crystal_description       Block
_cell_formula_units_Z            4
loop_
_atom_site_label
_atom_site_type_symbol
_atom_site_fract_x
_atom_site_fract_y
_atom_site_fract_z
C1 C 0.5686(4) 0.8856(3) 0.08354(5)
C2 C 0.3546(5) 0.8904(3) 0.06249(6)
H1 H 0.2447 0.9891 0.0633
C3 C 0.3067(5) 0.7455(4) 0.04012(6)
H2 H 0.1645 0.7493 0.0257
C4 C 0.4653(5) 0.5955(3) 0.03871(6)
C5 C 0.6786(5) 0.5940(3) 0.05970(6)
H3 H 0.7888 0.4956 0.0588
C6 C 0.7307(4) 0.7383(3) 0.08214(6)
H4 H 0.8747 0.7355 0.0962
C7 C 0.4046(8) 0.4355(4) 0.01540(8)
H5 H 0.2604 0.4640 0.0010
H6 H 0.3667 0.3315 0.0296
H7 H 0.5479 0.4093 0.0007
O1 O 0.4968(4) 1.2199(2) 0.10150(5)
O2 O 0.8939(3) 1.0777(2) 0.11806(5)
O3 O 0.5067(4) 0.9933(2) 0.14701(4)
S1 S 0.62131(10) 1.05973(6) 0.114496(13)
C8 C 1.2390(4) 0.5424(3) 0.13142(5)
H8 H 1.3637 0.5258 0.1145
C9 C 1.0008(4) 0.6656(3) 0.17226(5)
H9 H 0.9349 0.7496 0.1880
C10 C 0.9162(4) 0.4935(2) 0.16686(5)
C11 C 0.7122(4) 0.3892(2) 0.18479(5)
H10 H 0.6039 0.3330 0.1673
H11 H 0.6089 0.4719 0.1985
C12 C 0.8209(3) 0.2411(2) 0.20905(4)
H12 H 0.9473 0.1693 0.1963
C13 C 0.9463(3) 0.3308(2) 0.24112(5)
N1 N 1.0671(3) 0.4207(2) 0.14111(4)
H13 H 1.0525 0.3132 0.1326
N2 N 1.2021(4) 0.6914(2) 0.15002(5)
H14 H 1.2904 0.7892 0.1484
N3 N 0.6079(3) 0.1216(2) 0.22022(4)
O4 O 1.1834(3) 0.3507(2) 0.23929(4)
O5 O 0.8051(3) 0.3822(2) 0.26480(4)
H15 H 0.534(4) 0.064(3) 0.2015(6)
H16 H 0.673(5) 0.024(4) 0.2341(7)
H17 H 0.487(5) 0.173(4) 0.2300(6)
loop_
_geom_bond_atom_site_label_1
_geom_bond_atom_site_label_2
_geom_bond_site_symmetry_1
_geom_bond_site_symmetry_2
C1 C2 1_555 1_555
C2 H1 1_555 1_555
C3 C2 1_555 1_555
H2 C3 1_555 1_555
C4 C3 1_555 1_555
C5 C4 1_555 1_555
H3 C5 1_555 1_555
C6 C1 1_555 1_555
H4 C6 1_555 1_555
C7 C4 1_555 1_555
H5 C7 1_555 1_555
H6 C7 1_555 1_555
H7 C7 1_555 1_555
O1 S1 1_555 1_555
O2 S1 1_555 1_555
O3 S1 1_555 1_555
S1 C1 1_555 1_555
C8 H8 1_555 1_555
C9 H9 1_555 1_555
C10 C9 1_555 1_555
C11 C10 1_555 1_555
H10 C11 1_555 1_555
H11 C11 1_555 1_555
C12 C11 1_555 1_555
H12 C12 1_555 1_555
C13 C12 1_555 1_555
N1 C8 1_555 1_555
H13 N1 1_555 1_555
N2 C8 1_555 1_555
H14 N2 1_555 1_555
N3 C12 1_555 1_555
O4 C13 1_555 1_555
O5 C13 1_555 1_555
H15 N3 1_555 1_555
H16 N3 1_555 1_555
H17 N3 1_555 1_555
C5 C6 1_555 1_555
C9 N2 1_555 1_555
C10 N1 1_555 1_555

#END
