
#######################################################################
#
#                 Cambridge Crystallographic Data Centre
#                                CCDC 
#
#######################################################################
#
# If this CIF has been generated from an entry in the Cambridge 
# Structural Database, then it will include bibliographic, chemical, 
# crystal, experimental, refinement or atomic coordinate data resulting 
# from the CCDC's data processing and validation procedures.
#
#######################################################################

data_ZIJPUF
_chemical_formula_moiety         'C20 H25 N1 O5'
_chemical_name_systematic        
'Diethyl 4-(2-methoxyphenyl)-2,6-dimethyl-1,4-dihydropyridine-3,5-dicarboxylate unknown solvate'
_symmetry_cell_setting           tetragonal
_symmetry_space_group_name_H-M   'P -4 21 c'
_symmetry_Int_Tables_number      114
_space_group_name_Hall           'P -4 2n'
loop_
_symmetry_equiv_pos_site_id
_symmetry_equiv_pos_as_xyz
1 x,y,z
2 -x,-y,z
3 1/2+x,1/2-y,1/2-z
4 1/2-x,1/2+y,1/2-z
5 1/2+y,1/2+x,1/2+z
6 1/2-y,1/2-x,1/2+z
7 -y,x,-z
8 y,-x,-z
_cell_length_a                   22.4689(7)
_cell_length_b                   22.4689(7)
_cell_length_c                   8.2443(3)
_cell_angle_alpha                90
_cell_angle_beta                 90
_cell_angle_gamma                90
_cell_volume                     4162.15
_exptl_crystal_colour            colorless
_exptl_crystal_description       block
_cell_formula_units_Z            8
_exptl_crystal_recrystallization_method dichloromethane/n-hexane
loop_
_atom_site_label
_atom_site_type_symbol
_atom_site_fract_x
_atom_site_fract_y
_atom_site_fract_z
C1 C 0.48258(11) 0.26476(11) 0.3185(3)
H1 H 0.5183 0.2658 0.3866
C2 C 0.43244(11) 0.29128(12) 0.4187(3)
C3 C 0.39385(13) 0.33091(13) 0.3545(4)
C4 C 0.45445(13) 0.34162(12) 0.1122(3)
C5 C 0.49582(12) 0.30287(11) 0.1698(3)
C6 C 0.47208(12) 0.19936(12) 0.2738(3)
C7 C 0.51178(14) 0.15615(13) 0.3240(4)
H2 H 0.5442 0.1673 0.3872
C8 C 0.50466(18) 0.09635(15) 0.2830(5)
H3 H 0.5316 0.0681 0.3207
C9 C 0.45815(16) 0.07942(15) 0.1875(5)
H4 H 0.4540 0.0397 0.1575
C10 C 0.41693(16) 0.12109(14) 0.1349(4)
H5 H 0.3851 0.1095 0.0700
C11 C 0.42368(13) 0.18025(12) 0.1801(4)
C12 C 0.33177(15) 0.20776(18) 0.0506(5)
H6 H 0.3415 0.1878 -0.0490
H7 H 0.3088 0.2428 0.0273
H8 H 0.3090 0.1815 0.1184
C13 C 0.42649(12) 0.27102(13) 0.5869(3)
C14 C 0.47214(15) 0.21103(14) 0.7908(3)
H9 H 0.4387 0.1840 0.8019
H10 H 0.4685 0.2420 0.8722
C15 C 0.52918(17) 0.17829(16) 0.8121(5)
H11 H 0.5305 0.1453 0.7383
H12 H 0.5319 0.1639 0.9215
H13 H 0.5619 0.2046 0.7904
C16 C 0.34108(15) 0.35877(18) 0.4346(5)
H14 H 0.3139 0.3282 0.4683
H15 H 0.3215 0.3849 0.3594
H16 H 0.3539 0.3811 0.5275
C17 C 0.45761(16) 0.37777(15) -0.0409(4)
H17 H 0.4739 0.4163 -0.0171
H18 H 0.4184 0.3823 -0.0853
H19 H 0.4826 0.3579 -0.1182
C18 C 0.55359(12) 0.29701(12) 0.0932(4)
C19 C 0.65098(15) 0.2576(2) 0.1250(5)
H20 H 0.6722 0.2949 0.1383
H21 H 0.6512 0.2471 0.0108
C20 C 0.6793(2) 0.2111(3) 0.2197(7)
H22 H 0.6677 0.2149 0.3313
H23 H 0.7218 0.2148 0.2110
H24 H 0.6672 0.1729 0.1794
N1 N 0.40319(10) 0.35131(11) 0.1988(3)
H25 H 0.3752 0.3713 0.1532
O1 O 0.38505(9) 0.22427(9) 0.1319(3)
O2 O 0.47297(9) 0.23683(10) 0.6302(2)
O3 O 0.38594(9) 0.28131(11) 0.6811(3)
O4 O 0.59075(8) 0.26366(10) 0.1817(3)
O5 O 0.56955(10) 0.31897(11) -0.0357(3)
loop_
_geom_bond_atom_site_label_1
_geom_bond_atom_site_label_2
_geom_bond_site_symmetry_1
_geom_bond_site_symmetry_2
C1 H1 1_555 1_555
C2 C1 1_555 1_555
C3 C2 1_555 1_555
C4 C5 1_555 1_555
C5 C1 1_555 1_555
C6 C1 1_555 1_555
C7 C6 1_555 1_555
H2 C7 1_555 1_555
C8 C7 1_555 1_555
H3 C8 1_555 1_555
C9 C8 1_555 1_555
H4 C9 1_555 1_555
C10 C9 1_555 1_555
H5 C10 1_555 1_555
C11 C6 1_555 1_555
C12 H6 1_555 1_555
H7 C12 1_555 1_555
H8 C12 1_555 1_555
C13 C2 1_555 1_555
C14 H9 1_555 1_555
H10 C14 1_555 1_555
C15 C14 1_555 1_555
H11 C15 1_555 1_555
H12 C15 1_555 1_555
H13 C15 1_555 1_555
C16 C3 1_555 1_555
H14 C16 1_555 1_555
H15 C16 1_555 1_555
H16 C16 1_555 1_555
C17 C4 1_555 1_555
H17 C17 1_555 1_555
H18 C17 1_555 1_555
H19 C17 1_555 1_555
C18 C5 1_555 1_555
C19 H20 1_555 1_555
H21 C19 1_555 1_555
C20 C19 1_555 1_555
H22 C20 1_555 1_555
H23 C20 1_555 1_555
H24 C20 1_555 1_555
N1 C3 1_555 1_555
H25 N1 1_555 1_555
O1 C11 1_555 1_555
O2 C13 1_555 1_555
O3 C13 1_555 1_555
O4 C18 1_555 1_555
O5 C18 1_555 1_555
C4 N1 1_555 1_555
C10 C11 1_555 1_555
C12 O1 1_555 1_555
C14 O2 1_555 1_555
C19 O4 1_555 1_555

#END
