
#######################################################################
#
#                 Cambridge Crystallographic Data Centre
#                                CCDC 
#
#######################################################################
#
# If this CIF has been generated from an entry in the Cambridge 
# Structural Database, then it will include bibliographic, chemical, 
# crystal, experimental, refinement or atomic coordinate data resulting 
# from the CCDC's data processing and validation procedures.
#
#######################################################################

data_ZIJQOY02
_chemical_formula_moiety         'C12 H24 O6,2(C2 H3 N3)'
_chemical_name_systematic        '18-crown-6 bis(1H-1,2,4-triazole)'
_symmetry_cell_setting           triclinic
_symmetry_space_group_name_H-M   'P -1'
_symmetry_Int_Tables_number      2
_space_group_name_Hall           '-P 1'
loop_
_symmetry_equiv_pos_site_id
_symmetry_equiv_pos_as_xyz
1 x,y,z
2 -x,-y,-z
_cell_length_a                   8.420(2)
_cell_length_b                   8.638(2)
_cell_length_c                   8.694(3)
_cell_angle_alpha                99.003(15)
_cell_angle_beta                 102.832(10)
_cell_angle_gamma                117.24(2)
_cell_volume                     523.296
_cell_formula_units_Z            1
_exptl_crystal_preparation       'Crystallised in 0.5 T magnestic field'
loop_
_atom_site_label
_atom_site_type_symbol
_atom_site_fract_x
_atom_site_fract_y
_atom_site_fract_z
O1 O 0.9114(6) 0.6311(6) 0.8558(5)
O2 O 0.7492(6) 0.6891(6) 1.0972(6)
O3 O 1.0741(7) 0.9304(7) 0.7229(6)
C1 C 0.7691(11) 0.5343(11) 1.0509(12)
H1 H 0.6723 0.4302 1.0704
H2 H 0.8920 0.5599 1.1178
C2 C 1.0761(12) 0.7676(12) 0.6825(9)
H3 H 1.1869 0.7800 0.7598
H4 H 1.0846 0.7445 0.5726
C3 C 0.9040(13) 0.6124(10) 0.6876(9)
H5 H 0.7924 0.6102 0.6237
H6 H 0.8965 0.4989 0.6401
C4 C 0.7513(11) 0.4917(9) 0.8768(12)
H7 H 0.7432 0.3754 0.8409
H8 H 0.6368 0.4832 0.8106
C5 C 0.7967(11) 0.7580(12) 1.2674(10)
H9 H 0.9259 0.7904 1.3229
H10 H 0.7135 0.6656 1.3082
C6 C 1.2222(11) 1.0776(13) 0.6961(9)
H11 H 1.2167 1.0453 0.5822
H12 H 1.3436 1.1040 0.7672
O1A O 1.0886(6) 1.3689(6) 1.1442(5)
O2A O 1.2508(6) 1.3109(6) 0.9028(6)
O3A O 0.9259(7) 1.0696(7) 1.2771(6)
C1A C 1.2309(11) 1.4657(11) 0.9491(12)
H1A H 1.3277 1.5698 0.9296
H2A H 1.1080 1.4401 0.8822
C2A C 0.9239(12) 1.2324(12) 1.3175(9)
H3A H 0.8131 1.2200 1.2402
H4A H 0.9154 1.2555 1.4274
C3A C 1.0960(13) 1.3876(10) 1.3124(9)
H5A H 1.2076 1.3898 1.3763
H6A H 1.1035 1.5011 1.3599
C4A C 1.2487(11) 1.5083(9) 1.1232(12)
H7A H 1.2568 1.6246 1.1591
H8A H 1.3632 1.5168 1.1894
C5A C 1.2033(11) 1.2420(12) 0.7326(10)
H9A H 1.0741 1.2096 0.6771
H10A H 1.2865 1.3344 0.6918
C6A C 0.7778(11) 0.9224(13) 1.3039(9)
H11A H 0.7833 0.9547 1.4178
H12A H 0.6564 0.8960 1.2328
N1 N 0.3227(8) -0.0346(7) 0.2986(6)
N2 N 0.3214(8) 0.1440(7) 0.1519(6)
H13 H 0.2877 0.1791 0.0697
N3 N 0.4670(8) 0.2531(7) 0.2917(7)
C7 C 0.2380(9) -0.0234(9) 0.1585(8)
H14 H 0.1326 -0.1215 0.0751
C8 C 0.4601(9) 0.1364(10) 0.3734(8)
H15 H 0.5468 0.1717 0.4778
loop_
_geom_bond_atom_site_label_1
_geom_bond_atom_site_label_2
_geom_bond_site_symmetry_1
_geom_bond_site_symmetry_2
O1 C3 1_555 1_555
O2 C1 1_555 1_555
O3 C2 1_555 1_555
C1 H1 1_555 1_555
H2 C1 1_555 1_555
C2 H3 1_555 1_555
H4 C2 1_555 1_555
C3 C2 1_555 1_555
H5 C3 1_555 1_555
H6 C3 1_555 1_555
C4 O1 1_555 1_555
H7 C4 1_555 1_555
H8 C4 1_555 1_555
C5 O2 1_555 1_555
H9 C5 1_555 1_555
H10 C5 1_555 1_555
C6 O3 1_555 1_555
H11 C6 1_555 1_555
H12 C6 1_555 1_555
N1 C7 1_555 1_555
N2 H13 1_555 1_555
N3 N2 1_555 1_555
C7 N2 1_555 1_555
H14 C7 1_555 1_555
C8 N1 1_555 1_555
H15 C8 1_555 1_555
O1A C3A 1_555 1_555
O2A C1A 1_555 1_555
O3A C2A 1_555 1_555
C1A H1A 1_555 1_555
H2A C1A 1_555 1_555
C2A H3A 1_555 1_555
H4A C2A 1_555 1_555
C3A C2A 1_555 1_555
H5A C3A 1_555 1_555
H6A C3A 1_555 1_555
C4A O1A 1_555 1_555
H7A C4A 1_555 1_555
H8A C4A 1_555 1_555
C5A C6 1_555 1_555
H9A C5A 1_555 1_555
H10A C5A 1_555 1_555
C6A C5 1_555 1_555
H11A C6A 1_555 1_555
H12A C6A 1_555 1_555
C1 C4 1_555 1_555
N3 C8 1_555 1_555
O2A C5A 1_555 1_555
O3A C6A 1_555 1_555
C1A C4A 1_555 1_555

#END
