
#######################################################################
#
#                 Cambridge Crystallographic Data Centre
#                                CCDC 
#
#######################################################################
#
# If this CIF has been generated from an entry in the Cambridge 
# Structural Database, then it will include bibliographic, chemical, 
# crystal, experimental, refinement or atomic coordinate data resulting 
# from the CCDC's data processing and validation procedures.
#
#######################################################################

data_ZIJYAU
_chemical_formula_moiety         
'2(Cl1 1-),69(H2 O1),2(Rb1 1+),1.5(C48 H48 N32 O16)'
_chemical_name_systematic        
'di-rubidium dichloride cucurbit[8]uril unknown solvate hydrate'
_symmetry_cell_setting           rhombohedral
_symmetry_space_group_name_H-M   'R -3'
_symmetry_Int_Tables_number      148
_space_group_name_Hall           '-R 3'
loop_
_symmetry_equiv_pos_site_id
_symmetry_equiv_pos_as_xyz
1 x,y,z
2 -y,x-y,z
3 -x+y,-x,z
4 2/3+x,1/3+y,1/3+z
5 2/3-y,1/3+x-y,1/3+z
6 2/3-x+y,1/3-x,1/3+z
7 1/3+x,2/3+y,2/3+z
8 1/3-y,2/3+x-y,2/3+z
9 1/3-x+y,2/3-x,2/3+z
10 -x,-y,-z
11 y,-x+y,-z
12 x-y,x,-z
13 1/3-x,2/3-y,2/3-z
14 1/3+y,2/3-x+y,2/3-z
15 1/3+x-y,2/3+x,2/3-z
16 2/3-x,1/3-y,1/3-z
17 2/3+y,1/3-x+y,1/3-z
18 2/3+x-y,1/3+x,1/3-z
_cell_length_a                   21.7553(14)
_cell_length_b                   21.7553(14)
_cell_length_c                   52.070(4)
_cell_angle_alpha                90
_cell_angle_beta                 90
_cell_angle_gamma                120
_cell_volume                     21342.7
_exptl_crystal_colour            colorless
_exptl_crystal_description       prism
_cell_formula_units_Z            6
loop_
_atom_site_label
_atom_site_type_symbol
_atom_site_fract_x
_atom_site_fract_y
_atom_site_fract_z
Cl1 Cl 0.0000 0.0000 0.04452(19)
Cl2 Cl 0.3319(5) -0.0400(6) 0.0181(2)
O1 O 0.6667 0.3333 0.1611(7)
Rb1 Rb 0.0000 0.0000 0.113479(19)
Rb2 Rb 0.6667 0.3333 0.099714(18)
C1 C 0.3971(2) 0.4478(2) 0.19911(11)
C2 C 0.5028(2) 0.4813(2) 0.22045(10)
H1 H 0.5203 0.5197 0.2332
C3 C 0.5199(2) 0.5103(2) 0.19281(9)
H2 H 0.5510 0.5620 0.1923
C4 C 0.5682(2) 0.4371(2) 0.19992(9)
C5 C 0.4405(2) 0.5179(3) 0.15914(11)
H3 H 0.3934 0.5123 0.1594
H4 H 0.4746 0.5684 0.1589
C6 C 0.5942(2) 0.4983(3) 0.15796(9)
H5 H 0.6177 0.5497 0.1575
H6 H 0.6307 0.4850 0.1576
C7 C 0.3926(2) 0.4472(2) 0.11938(12)
C8 C 0.5162(2) 0.5064(2) 0.12405(10)
H7 H 0.5474 0.5580 0.1232
C9 C 0.49602(19) 0.4736(2) 0.09767(9)
H8 H 0.5150 0.5101 0.0843
C10 C 0.5605(2) 0.4301(2) 0.11791(9)
C11 C 0.3768(2) 0.4052(2) 0.07477(11)
H9 H 0.3997 0.4369 0.0604
H10 H 0.3307 0.4011 0.0772
C12 C 0.5365(2) 0.4006(2) 0.07267(9)
H11 H 0.5783 0.3958 0.0741
H12 H 0.5452 0.4347 0.0592
C13 C 0.3024(2) 0.2750(2) 0.07100(9)
C14 C 0.4148(2) 0.3260(2) 0.05223(9)
H13 H 0.4273 0.3559 0.0369
C15 C 0.3730(2) 0.2464(2) 0.04542(9)
H14 H 0.3669 0.2386 0.0268
C16 C 0.4774(2) 0.2705(2) 0.06658(8)
C17 C 0.2416(2) 0.1573(2) 0.05069(10)
H15 H 0.2421 0.1531 0.0321
H16 H 0.2001 0.1605 0.0552
C18 C 0.4066(2) 0.1503(2) 0.04852(9)
H17 H 0.4494 0.1492 0.0529
H18 H 0.4008 0.1455 0.0300
C19 C 0.1777(2) 0.0474(2) 0.07590(8)
C20 C 0.2737(2) 0.0609(2) 0.05191(8)
H19 H 0.2712 0.0589 0.0331
C21 C 0.2351(2) -0.0141(2) 0.06376(9)
H20 H 0.2176 -0.0507 0.0504
C22 C 0.3538(2) 0.0432(2) 0.07620(8)
C23 C 0.1174(2) -0.0817(2) 0.08696(10)
H21 H 0.0769 -0.0748 0.0889
H22 H 0.1052 -0.1183 0.0741
C24 C 0.2820(2) -0.0816(2) 0.08878(9)
H23 H 0.3289 -0.0752 0.0917
H24 H 0.2587 -0.1184 0.0759
N1 N 0.42505(17) 0.43865(18) 0.22063(8)
N2 N 0.45062(17) 0.48800(19) 0.18220(8)
N3 N 0.53742(16) 0.43910(18) 0.22299(8)
N4 N 0.55348(17) 0.47267(18) 0.18233(7)
N5 N 0.44823(18) 0.48672(19) 0.13622(8)
N6 N 0.41923(18) 0.43572(18) 0.09769(9)
N7 N 0.55150(16) 0.47080(17) 0.13609(7)
N8 N 0.52715(17) 0.42782(17) 0.09608(7)
N9 N 0.36721(18) 0.33585(18) 0.06879(8)
N10 N 0.30473(16) 0.22189(18) 0.05862(7)
N11 N 0.47792(17) 0.33380(18) 0.06532(7)
N12 N 0.41465(16) 0.21811(17) 0.05632(7)
N13 N 0.23565(17) 0.09359(18) 0.06230(7)
N14 N 0.17757(17) -0.01585(18) 0.07765(7)
N15 N 0.34588(16) 0.09038(17) 0.06077(7)
N16 N 0.28937(17) -0.01571(18) 0.07889(7)
O2 O 0.33363(16) 0.4261(2) 0.19461(8)
O3 O 0.32990(16) 0.42981(17) 0.12358(8)
O4 O 0.25146(15) 0.27056(16) 0.08274(7)
O5 O 0.13289(15) 0.05908(16) 0.08528(7)
O6 O 0.60241(16) 0.40706(17) 0.19719(6)
O7 O 0.59550(15) 0.40014(17) 0.12188(6)
O8 O 0.52445(14) 0.26214(16) 0.07607(6)
O9 O 0.41017(14) 0.05438(16) 0.08559(6)
C1O C 0.2696(2) -0.1145(2) 0.13422(11)
C2O C 0.1639(2) -0.1480(2) 0.11288(10)
H1O H 0.1464 -0.1864 0.1001
C3O C 0.1468(2) -0.1770(2) 0.14052(9)
H2O H 0.1157 -0.2287 0.1410
C4O C 0.0985(2) -0.1038(2) 0.13341(9)
C5O C 0.2262(2) -0.1846(3) 0.17419(11)
H3O H 0.2733 -0.1790 0.1739
H4O H 0.1921 -0.2351 0.1744
C6O C 0.0725(2) -0.1650(3) 0.17537(9)
H5O H 0.0490 -0.2164 0.1758
H6O H 0.0360 -0.1517 0.1757
C7O C 0.2741(2) -0.1139(2) 0.21395(12)
C8O C 0.1505(2) -0.1731(2) 0.20928(10)
H7O H 0.1193 -0.2247 0.2101
C9O C 0.17065(19) -0.1403(2) 0.23566(9)
H8O H 0.1517 -0.1768 0.2490
C10O C 0.1062(2) -0.0968(2) 0.21542(9)
C11O C 0.2899(2) -0.0719(2) 0.25856(11)
H9O H 0.2670 -0.1036 0.2729
H10O H 0.3360 -0.0678 0.2561
C12O C 0.1302(2) -0.0673(2) 0.26066(9)
H11O H 0.0884 -0.0625 0.2592
H12O H 0.1215 -0.1014 0.2741
C13O C 0.3643(2) 0.0583(2) 0.26233(9)
C14O C 0.2519(2) 0.0073(2) 0.28110(9)
H13O H 0.2394 -0.0226 0.2964
C15O C 0.2937(2) 0.0869(2) 0.28791(9)
H14O H 0.2998 0.0947 0.3065
C16O C 0.1893(2) 0.0628(2) 0.26675(8)
C17O C 0.4251(2) 0.1760(2) 0.28264(10)
H15O H 0.4246 0.1802 0.3012
H16O H 0.4666 0.1728 0.2781
C18O C 0.2601(2) 0.1830(2) 0.28481(9)
H17O H 0.2173 0.1841 0.2804
H18O H 0.2659 0.1878 0.3033
C19O C 0.4890(2) 0.2859(2) 0.25743(8)
C20O C 0.3930(2) 0.2724(2) 0.28142(8)
H19O H 0.3955 0.2744 0.3002
C21O C 0.4316(2) 0.3474(2) 0.26957(9)
H20O H 0.4491 0.3840 0.2829
C22O C 0.3129(2) 0.2901(2) 0.25713(8)
C23O C 0.5493(2) 0.4150(2) 0.24637(10)
H21O H 0.5898 0.4081 0.2444
H22O H 0.5615 0.4516 0.2592
C24O C 0.3847(2) 0.4149(2) 0.24455(9)
H23O H 0.3378 0.4085 0.2416
H24O H 0.4080 0.4517 0.2574
N1O N 0.24162(17) -0.10532(18) 0.11270(8)
N2O N 0.21605(17) -0.15467(19) 0.15113(8)
N3O N 0.12925(16) -0.10577(18) 0.11034(8)
N4O N 0.11319(17) -0.13934(18) 0.15100(7)
N5O N 0.21844(18) -0.15339(19) 0.19711(8)
N6O N 0.24744(18) -0.10239(18) 0.23564(9)
N7O N 0.11517(16) -0.13747(17) 0.19724(7)
N8O N 0.13952(17) -0.09449(17) 0.23725(7)
N9O N 0.29946(18) -0.00252(18) 0.26454(8)
N10O N 0.36194(16) 0.11144(18) 0.27471(7)
N11O N 0.18875(17) -0.00047(18) 0.26801(7)
N12O N 0.25202(16) 0.11522(17) 0.27701(7)
N13O N 0.43102(17) 0.23974(18) 0.27103(7)
N14O N 0.48910(17) 0.34918(18) 0.25568(7)
N15O N 0.32079(16) 0.24295(17) 0.27256(7)
N16O N 0.37730(17) 0.34904(18) 0.25444(7)
O2O O 0.33304(16) -0.0928(2) 0.13872(8)
O3O O 0.33677(16) -0.09648(17) 0.20975(8)
O4O O 0.41521(15) 0.06277(16) 0.25059(7)
O5O O 0.53378(15) 0.27425(16) 0.24805(7)
O6O O 0.06426(16) -0.07373(17) 0.13614(6)
O7O O 0.07117(15) -0.06681(17) 0.21145(6)
O8O O 0.14222(14) 0.07119(16) 0.25726(6)
O9O O 0.25650(14) 0.27895(16) 0.24774(6)
Cl3? Cl 0.3373(9) -0.0027(11) 0.0059(4)
loop_
_geom_bond_atom_site_label_1
_geom_bond_atom_site_label_2
_geom_bond_site_symmetry_1
_geom_bond_site_symmetry_2
C1 N1 1_555 1_555
C2 H1 1_555 1_555
C3 C2 1_555 1_555
H2 C3 1_555 1_555
C4 N3 1_555 1_555
C5 H3 1_555 1_555
H4 C5 1_555 1_555
C6 H5 1_555 1_555
H6 C6 1_555 1_555
C7 N5 1_555 1_555
C8 H7 1_555 1_555
C9 C8 1_555 1_555
H8 C9 1_555 1_555
C10 N7 1_555 1_555
C11 H9 1_555 1_555
H10 C11 1_555 1_555
C12 H11 1_555 1_555
H12 C12 1_555 1_555
C13 N9 1_555 1_555
C14 H13 1_555 1_555
C15 C14 1_555 1_555
H14 C15 1_555 1_555
C16 N11 1_555 1_555
C17 H15 1_555 1_555
H16 C17 1_555 1_555
C18 H17 1_555 1_555
H18 C18 1_555 1_555
C19 N13 1_555 1_555
C20 H19 1_555 1_555
C21 C20 1_555 1_555
H20 C21 1_555 1_555
C22 N15 1_555 1_555
C23 H21 1_555 1_555
H22 C23 1_555 1_555
C24 H23 1_555 1_555
H24 C24 1_555 1_555
N1 C2 1_555 1_555
N2 C1 1_555 1_555
N3 C2 1_555 1_555
N4 C3 1_555 1_555
N5 C5 1_555 1_555
N6 C7 1_555 1_555
N7 C6 1_555 1_555
N8 C9 1_555 1_555
N9 C11 1_555 1_555
N10 C13 1_555 1_555
N11 C12 1_555 1_555
N12 C15 1_555 1_555
N13 C17 1_555 1_555
N14 C19 1_555 1_555
N15 C18 1_555 1_555
N16 C21 1_555 1_555
O2 C1 1_555 1_555
O3 C7 1_555 1_555
O4 C13 1_555 1_555
O5 C19 1_555 1_555
O6 C4 1_555 1_555
O7 C10 1_555 1_555
O8 C16 1_555 1_555
O9 C22 1_555 1_555
C1O N1O 1_555 1_555
C2O H1O 1_555 1_555
C3O C2O 1_555 1_555
H2O C3O 1_555 1_555
C4O N3O 1_555 1_555
C5O H3O 1_555 1_555
H4O C5O 1_555 1_555
C6O H5O 1_555 1_555
H6O C6O 1_555 1_555
C7O N5O 1_555 1_555
C8O H7O 1_555 1_555
C9O C8O 1_555 1_555
H8O C9O 1_555 1_555
C10O N7O 1_555 1_555
C11O H9O 1_555 1_555
H10O C11O 1_555 1_555
C12O H11O 1_555 1_555
H12O C12O 1_555 1_555
C13O N9O 1_555 1_555
C14O H13O 1_555 1_555
C15O C14O 1_555 1_555
H14O C15O 1_555 1_555
C16O N11O 1_555 1_555
C17O H15O 1_555 1_555
H16O C17O 1_555 1_555
C18O H17O 1_555 1_555
H18O C18O 1_555 1_555
C19O N13O 1_555 1_555
C20O H19O 1_555 1_555
C21O C20O 1_555 1_555
H20O C21O 1_555 1_555
C22O N15O 1_555 1_555
C23O N3 1_555 1_555
H21O C23O 1_555 1_555
H22O C23O 1_555 1_555
C24O N1 1_555 1_555
H23O C24O 1_555 1_555
H24O C24O 1_555 1_555
N1O C24 1_555 1_555
N2O C1O 1_555 1_555
N3O C23 1_555 1_555
N4O C3O 1_555 1_555
N5O C5O 1_555 1_555
N6O C7O 1_555 1_555
N7O C6O 1_555 1_555
N8O C9O 1_555 1_555
N9O C11O 1_555 1_555
N10O C13O 1_555 1_555
N11O C12O 1_555 1_555
N12O C15O 1_555 1_555
N13O C17O 1_555 1_555
N14O C19O 1_555 1_555
N15O C18O 1_555 1_555
N16O C21O 1_555 1_555
O2O C1O 1_555 1_555
O3O C7O 1_555 1_555
O4O C13O 1_555 1_555
O5O C19O 1_555 1_555
O6O C4O 1_555 1_555
O7O C10O 1_555 1_555
O8O C16O 1_555 1_555
O9O C22O 1_555 1_555
C3 N2 1_555 1_555
C4 N4 1_555 1_555
C5 N2 1_555 1_555
C6 N4 1_555 1_555
C8 N5 1_555 1_555
C8 N7 1_555 1_555
C9 N6 1_555 1_555
C10 N8 1_555 1_555
C11 N6 1_555 1_555
C12 N8 1_555 1_555
C14 N9 1_555 1_555
C14 N11 1_555 1_555
C15 N10 1_555 1_555
C16 N12 1_555 1_555
C17 N10 1_555 1_555
C18 N12 1_555 1_555
C20 N13 1_555 1_555
C20 N15 1_555 1_555
C21 N14 1_555 1_555
C22 N16 1_555 1_555
C23 N14 1_555 1_555
C24 N16 1_555 1_555
C2O N1O 1_555 1_555
C2O N3O 1_555 1_555
C3O N2O 1_555 1_555
C4O N4O 1_555 1_555
C5O N2O 1_555 1_555
C6O N4O 1_555 1_555
C8O N5O 1_555 1_555
C8O N7O 1_555 1_555
C9O N6O 1_555 1_555
C10O N8O 1_555 1_555
C11O N6O 1_555 1_555
C12O N8O 1_555 1_555
C14O N9O 1_555 1_555
C14O N11O 1_555 1_555
C15O N10O 1_555 1_555
C16O N12O 1_555 1_555
C17O N10O 1_555 1_555
C18O N12O 1_555 1_555
C20O N13O 1_555 1_555
C20O N15O 1_555 1_555
C21O N14O 1_555 1_555
C22O N16O 1_555 1_555
C23O N14O 1_555 1_555
C24O N16O 1_555 1_555

#END
