
#######################################################################
#
#                 Cambridge Crystallographic Data Centre
#                                CCDC 
#
#######################################################################
#
# If this CIF has been generated from an entry in the Cambridge 
# Structural Database, then it will include bibliographic, chemical, 
# crystal, experimental, refinement or atomic coordinate data resulting 
# from the CCDC's data processing and validation procedures.
#
#######################################################################

data_ZIKMOX
_chemical_formula_moiety         'C15 H21 N3 O9'
_chemical_name_systematic        
'4-(Acetoxymethyl)-6-azido-4-hydroxycyclohexane-1,2,3-triyl triacetate'
_symmetry_cell_setting           monoclinic
_symmetry_space_group_name_H-M   'P 21'
_symmetry_Int_Tables_number      4
_space_group_name_Hall           'P 2yb'
loop_
_symmetry_equiv_pos_site_id
_symmetry_equiv_pos_as_xyz
1 x,y,z
2 -x,1/2+y,-z
_cell_length_a                   8.744(4)
_cell_length_b                   9.668(4)
_cell_length_c                   12.066(5)
_cell_angle_alpha                90
_cell_angle_beta                 95.344(8)
_cell_angle_gamma                90
_cell_volume                     1015.59
_exptl_crystal_colour            colorless
_exptl_crystal_description       prismatic
_cell_formula_units_Z            2
loop_
_atom_site_label
_atom_site_type_symbol
_atom_site_fract_x
_atom_site_fract_y
_atom_site_fract_z
N1 N 0.4819(6) 0.7087(9) -0.0148(5)
N2 N 0.4552(7) 0.6420(8) -0.0884(6)
N3 N 0.4496(11) 0.5748(11) -0.1676(8)
O1 O 0.0376(4) 0.7134(6) 0.1124(3)
H1 H -0.0266 0.7087 0.1576
O2 O 0.1281(5) 1.0792(6) 0.1372(4)
O3 O -0.0702(7) 1.1953(8) 0.1848(7)
O4 O 0.0935(3) 0.7982(4) 0.3283(3)
O5 O 0.1463(8) 0.9926(7) 0.4229(6)
O6 O 0.4039(4) 0.7215(4) 0.3789(3)
O7 O 0.3444(8) 0.5048(8) 0.4256(5)
O8 O 0.5342(4) 0.5879(4) 0.2064(4)
O9 O 0.7488(5) 0.7141(7) 0.2050(5)
C1 C 0.1308(5) 0.8297(7) 0.1354(4)
C2 C 0.2089(5) 0.8249(6) 0.2533(4)
H2 H 0.2607 0.9129 0.2720
C3 C 0.3218(5) 0.7059(6) 0.2700(4)
H3 H 0.2664 0.6177 0.2657
C4 C 0.4391(5) 0.7088(6) 0.1841(4)
H4 H 0.5019 0.7927 0.1936
C5 C 0.3560(6) 0.7051(8) 0.0675(4)
H5 H 0.2961 0.6196 0.0572
C6 C 0.2507(6) 0.8290(9) 0.0521(4)
H6 H 0.1995 0.8280 -0.0228
H7 H 0.3113 0.9130 0.0607
C7 C 0.0312(7) 0.9603(10) 0.1193(6)
H8 H -0.0202 0.9622 0.0445
H9 H -0.0465 0.9604 0.1717
C8 C 0.0673(10) 1.1910(10) 0.1718(8)
C9 C 0.1747(13) 1.3045(11) 0.1869(11)
H10 H 0.1195 1.3904 0.1829
H11 H 0.2437 1.3018 0.1296
H12 H 0.2323 1.2965 0.2584
C10 C 0.0716(8) 0.8886(9) 0.4090(6)
C11 C -0.0496(9) 0.8396(11) 0.4776(7)
H13 H -0.0427 0.7410 0.4858
H14 H -0.1487 0.8637 0.4418
H15 H -0.0361 0.8825 0.5496
C12 C 0.4067(8) 0.6143(9) 0.4478(5)
C13 C 0.4977(11) 0.6509(12) 0.5568(7)
H16 H 0.4284 0.6676 0.6125
H17 H 0.5574 0.7326 0.5470
H18 H 0.5650 0.5757 0.5798
C14 C 0.6873(7) 0.6055(9) 0.2224(6)
C15 C 0.7669(9) 0.4758(11) 0.2623(8)
H19 H 0.8651 0.4704 0.2329
H20 H 0.7057 0.3974 0.2375
H21 H 0.7812 0.4763 0.3422
loop_
_geom_bond_atom_site_label_1
_geom_bond_atom_site_label_2
_geom_bond_site_symmetry_1
_geom_bond_site_symmetry_2
N1 N2 1_555 1_555
N2 N3 1_555 1_555
O1 H1 1_555 1_555
O2 C7 1_555 1_555
O3 C8 1_555 1_555
O4 C2 1_555 1_555
O5 C10 1_555 1_555
O6 C3 1_555 1_555
O7 C12 1_555 1_555
O8 C4 1_555 1_555
O9 C14 1_555 1_555
C1 O1 1_555 1_555
C2 C1 1_555 1_555
H2 C2 1_555 1_555
C3 C2 1_555 1_555
H3 C3 1_555 1_555
C4 C3 1_555 1_555
H4 C4 1_555 1_555
C5 N1 1_555 1_555
H5 C5 1_555 1_555
C6 C1 1_555 1_555
H6 C6 1_555 1_555
H7 C6 1_555 1_555
C7 C1 1_555 1_555
H8 C7 1_555 1_555
H9 C7 1_555 1_555
C8 O2 1_555 1_555
C9 C8 1_555 1_555
H10 C9 1_555 1_555
H11 C9 1_555 1_555
H12 C9 1_555 1_555
C10 O4 1_555 1_555
C11 C10 1_555 1_555
H13 C11 1_555 1_555
H14 C11 1_555 1_555
H15 C11 1_555 1_555
C12 O6 1_555 1_555
C13 C12 1_555 1_555
H16 C13 1_555 1_555
H17 C13 1_555 1_555
H18 C13 1_555 1_555
C14 O8 1_555 1_555
C15 C14 1_555 1_555
H19 C15 1_555 1_555
H20 C15 1_555 1_555
H21 C15 1_555 1_555
C4 C5 1_555 1_555
C5 C6 1_555 1_555

#END
