
#######################################################################
#
#                 Cambridge Crystallographic Data Centre
#                                CCDC 
#
#######################################################################
#
# If this CIF has been generated from an entry in the Cambridge 
# Structural Database, then it will include bibliographic, chemical, 
# crystal, experimental, refinement or atomic coordinate data resulting 
# from the CCDC's data processing and validation procedures.
#
#######################################################################

data_ZIKQIT
_chemical_formula_moiety         'C23 H16 O4'
_chemical_name_systematic        
8,16-Methano-16H-dinaphtho(2,1-d:1',2'-g)(1,3)dioxocine-2,14-diol
_symmetry_cell_setting           monoclinic
_symmetry_space_group_name_H-M   'P 21/c'
_symmetry_Int_Tables_number      14
_space_group_name_Hall           '-P 2ybc'
loop_
_symmetry_equiv_pos_site_id
_symmetry_equiv_pos_as_xyz
1 x,y,z
2 -x,1/2+y,1/2-z
3 -x,-y,-z
4 x,1/2-y,1/2+z
_cell_length_a                   10.458(2)
_cell_length_b                   16.969(3)
_cell_length_c                   9.739(2)
_cell_angle_alpha                90
_cell_angle_beta                 104.93(3)
_cell_angle_gamma                90
_cell_volume                     1669.96
_exptl_crystal_colour            amber
_chemical_melting_point          510K
_cell_formula_units_Z            4
loop_
_atom_site_label
_atom_site_type_symbol
_atom_site_fract_x
_atom_site_fract_y
_atom_site_fract_z
O1 O 0.2782(3) 0.9247(2) 0.1933(4)
C1 C 0.3249(4) 0.8495(3) 0.2383(5)
C2 C 0.2684(4) 0.7816(2) 0.1741(4)
C3 C 0.1421(4) 0.7891(2) 0.0543(4)
C4 C 0.1519(5) 0.8648(2) -0.0273(5)
C5 C 0.1662(5) 0.9316(3) 0.0745(5)
O2 O 0.0521(3) 0.9398(2) 0.1291(3)
C6 C -0.0145(5) 0.8713(3) 0.1500(5)
C7 C 0.0209(4) 0.7972(2) 0.1151(4)
C8 C -0.0600(4) 0.7334(2) 0.1387(4)
C9 C -0.1632(4) 0.7472(3) 0.2062(5)
C10 C -0.1923(5) 0.8252(3) 0.2393(5)
C11 C -0.1209(5) 0.8864(3) 0.2088(5)
C12 C -0.0405(5) 0.6542(3) 0.0988(5)
C13 C -0.1176(5) 0.5947(3) 0.1280(6)
C14 C -0.2167(5) 0.6077(3) 0.1982(6)
C15 C -0.2385(5) 0.6830(3) 0.2361(6)
O3 O -0.1003(4) 0.5172(2) 0.0880(5)
C16 C 0.4340(5) 0.8502(3) 0.3582(6)
C17 C 0.4882(5) 0.7811(3) 0.4135(5)
C18 C 0.4412(4) 0.7088(3) 0.3490(5)
C19 C 0.3336(4) 0.7081(3) 0.2229(5)
C20 C 0.5019(5) 0.6356(3) 0.4017(5)
C21 C 0.4630(5) 0.5661(3) 0.3315(6)
C22 C 0.3623(5) 0.5667(3) 0.2054(5)
C23 C 0.2987(4) 0.6349(2) 0.1528(5)
O4 O 0.3329(4) 0.4956(2) 0.1386(4)
H1 H 0.1326 0.7432 -0.0051
H2 H 0.0732 0.8715 -0.1031
H3 H 0.2275 0.8625 -0.0659
H4 H 0.1770 0.9770 0.0198
H5 H -0.2629 0.8349 0.2835
H6 H -0.1429 0.9395 0.2274
H7 H -0.2681 0.5646 0.2194
H8 H -0.3065 0.6927 0.2840
H9 H 0.4696 0.8992 0.4004
H10 H 0.5598 0.7813 0.4981
H11 H 0.5714 0.6351 0.4881
H12 H 0.5045 0.5174 0.3687
H13 H 0.0271 0.6426 0.0512
H14 H 0.2290 0.6332 0.0667
H15 H -0.0722(62) 0.5082(40) 0.0206(65)
H16 H 0.2556(55) 0.4963(30) 0.0630(55)
loop_
_geom_bond_atom_site_label_1
_geom_bond_atom_site_label_2
_geom_bond_site_symmetry_1
_geom_bond_site_symmetry_2
O1 C1 1_555 1_555
C1 C2 1_555 1_555
C2 C3 1_555 1_555
C3 C4 1_555 1_555
C4 C5 1_555 1_555
C5 O1 1_555 1_555
O2 C5 1_555 1_555
C6 O2 1_555 1_555
C7 C3 1_555 1_555
C8 C7 1_555 1_555
C9 C8 1_555 1_555
C10 C9 1_555 1_555
C11 C6 1_555 1_555
C12 C8 1_555 1_555
C13 C12 1_555 1_555
C14 C13 1_555 1_555
C15 C9 1_555 1_555
O3 C13 1_555 1_555
C16 C1 1_555 1_555
C17 C16 1_555 1_555
C18 C17 1_555 1_555
C19 C2 1_555 1_555
C20 C18 1_555 1_555
C21 C20 1_555 1_555
C22 C21 1_555 1_555
C23 C19 1_555 1_555
O4 C22 1_555 1_555
H1 C3 1_555 1_555
H2 C4 1_555 1_555
H3 C4 1_555 1_555
H4 C5 1_555 1_555
H5 C10 1_555 1_555
H6 C11 1_555 1_555
H7 C14 1_555 1_555
H8 C15 1_555 1_555
H9 C16 1_555 1_555
H10 C17 1_555 1_555
H11 C20 1_555 1_555
H12 C21 1_555 1_555
H13 C12 1_555 1_555
H14 C23 1_555 1_555
H15 O3 1_555 1_555
H16 O4 1_555 1_555
C6 C7 1_555 1_555
C10 C11 1_555 1_555
C14 C15 1_555 1_555
C18 C19 1_555 1_555
C22 C23 1_555 1_555

#END
