
#######################################################################
#
#                 Cambridge Crystallographic Data Centre
#                                CCDC 
#
#######################################################################
#
# If this CIF has been generated from an entry in the Cambridge 
# Structural Database, then it will include bibliographic, chemical, 
# crystal, experimental, refinement or atomic coordinate data resulting 
# from the CCDC's data processing and validation procedures.
#
#######################################################################

data_ZIKQIV
_chemical_formula_moiety         'C39 H38 N2 O8 S1'
_chemical_name_systematic        
"1-t-Butyl 2'-ethyl 1'-((4-methylphenyl)sulfonyl)-2-oxo-4'-(2-oxo-2-phenylethyl)-1',4'-dihydro-2'H-spiro[indole-3,3'-quinoline]-1,2'(2H)-dicarboxylate"
_symmetry_cell_setting           monoclinic
_symmetry_space_group_name_H-M   'P 21'
_symmetry_Int_Tables_number      4
_space_group_name_Hall           'P 2yb'
loop_
_symmetry_equiv_pos_site_id
_symmetry_equiv_pos_as_xyz
1 x,y,z
2 -x,1/2+y,-z
_cell_length_a                   17.7927(14)
_cell_length_b                   11.1432(9)
_cell_length_c                   18.4952(15)
_cell_angle_alpha                90
_cell_angle_beta                 102.033(2)
_cell_angle_gamma                90
_cell_volume                     3586.43
_exptl_crystal_colour            colorless
_exptl_crystal_description       prismatic
_cell_formula_units_Z            4
loop_
_atom_site_label
_atom_site_type_symbol
_atom_site_fract_x
_atom_site_fract_y
_atom_site_fract_z
S1 S 0.70855(8) 0.51450(10) 0.62733(6)
N1 N 0.67717(18) 0.6498(3) 0.59962(16)
N2 N 0.72286(14) 1.0245(3) 0.72964(14)
O1 O 0.79250(14) 0.8526(2) 0.77069(12)
O2 O 0.80694(16) 1.0717(4) 0.83626(18)
O3 O 0.69724(12) 1.1744(2) 0.80080(12)
O4 O 0.92749(16) 0.8460(3) 0.5742(2)
O5 O 0.53581(17) 0.7226(4) 0.62609(19)
O6 O 0.59447(15) 0.8169(3) 0.72889(15)
O7 O 0.6806(2) 0.4923(3) 0.69227(19)
O8 O 0.6904(2) 0.4382(3) 0.5654(2)
C1 C 0.6737(2) 0.7373(3) 0.65824(18)
H1 H 0.7024 0.7030 0.7046
C2 C 0.71167(18) 0.8594(3) 0.64760(16)
C3 C 0.77915(18) 0.8394(3) 0.60582(16)
H2 H 0.8142 0.7800 0.6338
C4 C 0.74411(18) 0.7849(3) 0.53213(17)
C5 C 0.69187(19) 0.6927(3) 0.53064(17)
C6 C 0.6549(2) 0.6408(4) 0.4650(2)
H3 H 0.6192 0.5798 0.4649
C7 C 0.6717(2) 0.6803(5) 0.3998(2)
H4 H 0.6477 0.6451 0.3554
C8 C 0.7229(3) 0.7703(5) 0.3996(2)
H5 H 0.7343 0.7957 0.3553
C9 C 0.7584(2) 0.8248(4) 0.46544(18)
H6 H 0.7920 0.8885 0.4647
C10 C 0.74845(18) 0.9075(3) 0.72406(17)
C11 C 0.66791(17) 1.0559(3) 0.66437(17)
C12 C 0.65895(17) 0.9598(3) 0.61557(17)
C13 C 0.60832(19) 0.9702(4) 0.54775(18)
H7 H 0.6015 0.9067 0.5144
C14 C 0.5681(2) 1.0764(4) 0.5305(2)
H8 H 0.5323 1.0827 0.4862
C15 C 0.5804(2) 1.1720(5) 0.5777(2)
H9 H 0.5549 1.2439 0.5637
C16 C 0.6306(2) 1.1637(4) 0.6466(2)
H10 H 0.6385 1.2283 0.6791
C17 C 0.82386(18) 0.9552(3) 0.6047(2)
H11 H 0.7955 1.0066 0.5661
H12 H 0.8267 0.9961 0.6515
C18 C 0.9047(2) 0.9400(4) 0.5919(2)
C19 C 0.95585(19) 1.0470(4) 0.6036(2)
C20 C 0.9394(3) 1.1501(5) 0.6371(3)
H13 H 0.8926 1.1566 0.6517
C21 C 0.9910(3) 1.2461(5) 0.6501(4)
H14 H 0.9799 1.3149 0.6744
C22 C 1.0578(3) 1.2357(6) 0.6263(4)
H15 H 1.0923 1.2994 0.6337
C23 C 1.0758(3) 1.1349(7) 0.5919(4)
H16 H 1.1221 1.1297 0.5762
C24 C 1.0249(2) 1.0416(5) 0.5809(3)
H17 H 1.0371 0.9726 0.5574
C25 C 0.5927(2) 0.7561(4) 0.6674(2)
C26 C 0.5148(11) 0.8697(17) 0.7331(8)
H18 H 0.4957 0.9233 0.6921
H19 H 0.4773 0.8070 0.7346
C27 C 0.5352(6) 0.9362(13) 0.8053(6)
H20 H 0.5604 0.8826 0.8434
H21 H 0.4892 0.9669 0.8180
H22 H 0.5690 1.0016 0.8006
C28 C 0.74746(19) 1.0921(4) 0.79467(19)
C29 C 0.70988(19) 1.2540(4) 0.86673(18)
C30 C 0.7114(3) 1.1764(5) 0.9335(2)
H23 H 0.6686 1.1221 0.9240
H24 H 0.7082 1.2261 0.9752
H25 H 0.7585 1.1314 0.9441
C31 C 0.6399(2) 1.3329(5) 0.8516(3)
H26 H 0.6396 1.3797 0.8080
H27 H 0.6408 1.3856 0.8929
H28 H 0.5945 1.2840 0.8444
C32 C 0.7813(3) 1.3261(5) 0.8703(3)
H29 H 0.8248 1.2732 0.8759
H30 H 0.7881 1.3798 0.9117
H31 H 0.7771 1.3715 0.8255
C33 C 0.8078(3) 0.5309(4) 0.6514(2)
C34 C 0.8431(3) 0.5619(4) 0.7221(2)
H32 H 0.8147 0.5634 0.7590
C35 C 0.9201(3) 0.5910(5) 0.7390(3)
H33 H 0.9433 0.6109 0.7874
C36 C 0.9623(3) 0.5907(6) 0.6861(4)
C37 C 0.9283(3) 0.5586(6) 0.6167(3)
H34 H 0.9578 0.5564 0.5807
C38 C 0.8515(3) 0.5288(5) 0.5972(3)
H35 H 0.8293 0.5078 0.5487
C39 C 1.0459(3) 0.6301(9) 0.7040(5)
H36 H 1.0739 0.5821 0.7437
H37 H 1.0488 0.7130 0.7184
H38 H 1.0677 0.6201 0.6611
S2 S 0.31398(5) 0.05454(7) 0.84220(5)
N3 N 0.31579(16) 0.1915(2) 0.87666(14)
N4 N 0.29305(14) 0.5982(2) 0.79408(14)
O9 O 0.21042(12) 0.4554(2) 0.72990(12)
O10 O 0.3381(3) 0.7670(4) 0.7517(2)
O11 O 0.24544(18) 0.6689(2) 0.68071(13)
O12 O 0.05620(14) 0.3612(3) 0.86050(16)
O13 O 0.45401(14) 0.2640(3) 0.84454(16)
O14 O 0.39247(13) 0.3860(3) 0.75548(13)
O15 O 0.36709(14) -0.0186(2) 0.89057(15)
O16 O 0.32244(17) 0.0712(2) 0.76815(14)
C40 C 0.31664(18) 0.2913(3) 0.82537(17)
H39 H 0.2831 0.2693 0.7782
C41 C 0.28509(16) 0.4091(3) 0.85170(16)
C42 C 0.21554(16) 0.3741(3) 0.88617(16)
H40 H 0.1825 0.3212 0.8508
C43 C 0.24685(17) 0.3002(3) 0.95405(16)
C44 C 0.29859(17) 0.2110(3) 0.94783(16)
C45 C 0.3348(2) 0.1444(3) 1.00804(18)
H41 H 0.3704 0.0856 1.0031
C46 C 0.3167(3) 0.1674(4) 1.0763(2)
H42 H 0.3398 0.1230 1.1175
C47 C 0.2649(3) 0.2552(4) 1.0830(2)
H43 H 0.2528 0.2695 1.1287
C48 C 0.2310(2) 0.3219(3) 1.02338(18)
H44 H 0.1968 0.3826 1.0291
C49 C 0.25734(16) 0.4864(3) 0.78315(16)
C50 C 0.34713(17) 0.5985(3) 0.86451(17)
C51 C 0.34426(16) 0.4892(3) 0.89887(16)
C52 C 0.39542(17) 0.4669(3) 0.96518(18)
H45 H 0.3952 0.3932 0.9888
C53 C 0.44665(19) 0.5554(4) 0.9956(2)
H46 H 0.4822 0.5406 1.0392
C54 C 0.4454(2) 0.6648(4) 0.9620(2)
H47 H 0.4784 0.7250 0.9845
C55 C 0.39617(18) 0.6880(3) 0.8949(2)
H48 H 0.3965 0.7617 0.8714
C56 C 0.16664(17) 0.4812(3) 0.89931(19)
H49 H 0.1888 0.5173 0.9467
H50 H 0.1670 0.5409 0.8612
C57 C 0.08436(18) 0.4441(3) 0.89849(18)
C58 C 0.03691(17) 0.5142(3) 0.94069(19)
C59 C 0.0664(2) 0.5912(5) 0.9975(3)
H51 H 0.1193 0.6027 1.0103
C60 C 0.0201(2) 0.6514(6) 1.0356(3)
H52 H 0.0416 0.7026 1.0741
C61 C -0.0569(2) 0.6367(5) 1.0173(3)
H53 H -0.0886 0.6778 1.0431
C62 C -0.0876(2) 0.5624(5) 0.9618(3)
H54 H -0.1407 0.5534 0.9486
C63 C -0.04159(19) 0.4999(4) 0.9247(2)
H55 H -0.0638 0.4464 0.8878
C64 C 0.3966(2) 0.3095(3) 0.81125(19)
C65 C 0.4651(10) 0.4021(14) 0.7345(9)
H56 H 0.4873 0.3246 0.7270
H57 H 0.5005 0.4442 0.7732
C66 C 0.4525(5) 0.4707(12) 0.6668(5)
H58 H 0.4134 0.4327 0.6304
H59 H 0.4994 0.4747 0.6489
H60 H 0.4514 0.5370 0.7241
C67 C 0.2936(2) 0.6877(3) 0.7414(2)
C68 C 0.2429(3) 0.7462(4) 0.6151(2)
C69 C 0.2098(9) 0.6804(13) 0.5509(6)
H61 H 0.2467 0.6239 0.5401
H62 H 0.1951 0.7345 0.5100
H63 H 0.1653 0.6383 0.5591
C70 C 0.3280(7) 0.7848(15) 0.6077(7)
H64 H 0.3626 0.7187 0.6218
H65 H 0.3447 0.8520 0.6395
H66 H 0.3276 0.8068 0.5575
C71 C 0.2057(13) 0.8596(14) 0.6328(16)
H67 H 0.2430 0.9086 0.6646
H68 H 0.1646 0.8407 0.6572
H69 H 0.1856 0.9025 0.5878
C72 C 0.2216(2) 0.0020(4) 0.8424(2)
C73 C 0.1594(2) 0.0527(5) 0.7966(3)
H70 H 0.1660 0.1135 0.7641
C74 C 0.0857(3) 0.0119(6) 0.7993(3)
H71 H 0.0433 0.0485 0.7696
C75 C 0.0746(3) -0.0801(6) 0.8444(3)
C76 C 0.1378(3) -0.1300(6) 0.8884(3)
H72 H 0.1312 -0.1930 0.9194
C77 C 0.2108(3) -0.0908(5) 0.8888(3)
H73 H 0.2527 -0.1262 0.9199
C78 C -0.0064(3) -0.1211(8) 0.8456(5)
H74 H -0.0369 -0.1201 0.7963
H75 H -0.0286 -0.0681 0.8763
H76 H -0.0049 -0.2012 0.8651
C79? C 0.5274(15) 0.8354(19) 0.7580(11)
H77? H 0.5356 0.8072 0.8087
H78? H 0.4840 0.7927 0.7288
C80? C 0.5128(14) 0.971(2) 0.7545(19)
H79? H 0.5510 1.0096 0.7329
H80? H 0.5155 1.0011 0.8035
H81? H 0.4627 0.9864 0.7248
C81? C 0.4645(12) 0.4559(16) 0.7412(10)
H82? H 0.5053 0.4584 0.7850
C82? C 0.4847(8) 0.3831(17) 0.6846(9)
H83? H 0.4999 0.3050 0.7042
H84? H 0.5265 0.4198 0.6673
H85? H 0.4412 0.3757 0.6443
C83? C 0.1596(6) 0.7007(10) 0.5660(5)
H86? H 0.1503 0.7385 0.5184
H87? H 0.1194 0.7218 0.5911
H88? H 0.1606 0.6152 0.5600
C84? C 0.3036(7) 0.7012(12) 0.5801(6)
H89? H 0.3526 0.7123 0.6129
H90? H 0.3027 0.7443 0.5350
H91? H 0.2956 0.6173 0.5693
C85? C 0.2370(14) 0.8766(13) 0.6271(16)
H92? H 0.2876 0.9105 0.6404
H93? H 0.2101 0.8904 0.6663
H94? H 0.2095 0.9137 0.5825
H95? H 0.4363 0.5504 0.6761
loop_
_geom_bond_atom_site_label_1
_geom_bond_atom_site_label_2
_geom_bond_site_symmetry_1
_geom_bond_site_symmetry_2
S1 N1 1_555 1_555
N1 C1 1_555 1_555
N2 C10 1_555 1_555
O1 C10 1_555 1_555
O2 C28 1_555 1_555
O3 C28 1_555 1_555
O4 C18 1_555 1_555
O5 C25 1_555 1_555
O6 C25 1_555 1_555
O7 S1 1_555 1_555
O8 S1 1_555 1_555
C1 H1 1_555 1_555
C2 C1 1_555 1_555
C3 C2 1_555 1_555
H2 C3 1_555 1_555
C4 C3 1_555 1_555
C5 N1 1_555 1_555
C6 C5 1_555 1_555
H3 C6 1_555 1_555
C7 C6 1_555 1_555
H4 C7 1_555 1_555
C8 C7 1_555 1_555
H5 C8 1_555 1_555
C9 C4 1_555 1_555
H6 C9 1_555 1_555
C10 C2 1_555 1_555
C11 N2 1_555 1_555
C12 C2 1_555 1_555
C13 C12 1_555 1_555
H7 C13 1_555 1_555
C14 C13 1_555 1_555
H8 C14 1_555 1_555
C15 C14 1_555 1_555
H9 C15 1_555 1_555
C16 C11 1_555 1_555
H10 C16 1_555 1_555
C17 C3 1_555 1_555
H11 C17 1_555 1_555
H12 C17 1_555 1_555
C18 C17 1_555 1_555
C19 C18 1_555 1_555
C20 C19 1_555 1_555
H13 C20 1_555 1_555
C21 C20 1_555 1_555
H14 C21 1_555 1_555
C22 C21 1_555 1_555
H15 C22 1_555 1_555
C23 C22 1_555 1_555
H16 C23 1_555 1_555
C24 C19 1_555 1_555
H17 C24 1_555 1_555
C25 C1 1_555 1_555
C26 O6 1_555 1_555
H18 C26 1_555 1_555
H19 C26 1_555 1_555
C27 C26 1_555 1_555
H20 C27 1_555 1_555
H21 C27 1_555 1_555
H22 C27 1_555 1_555
C28 N2 1_555 1_555
C29 O3 1_555 1_555
C30 C29 1_555 1_555
H23 C30 1_555 1_555
H24 C30 1_555 1_555
H25 C30 1_555 1_555
C31 C29 1_555 1_555
H26 C31 1_555 1_555
H27 C31 1_555 1_555
H28 C31 1_555 1_555
C32 C29 1_555 1_555
H29 C32 1_555 1_555
H30 C32 1_555 1_555
H31 C32 1_555 1_555
C33 S1 1_555 1_555
C34 C33 1_555 1_555
H32 C34 1_555 1_555
C35 C34 1_555 1_555
H33 C35 1_555 1_555
C36 C35 1_555 1_555
C37 C36 1_555 1_555
H34 C37 1_555 1_555
C38 C33 1_555 1_555
H35 C38 1_555 1_555
C39 C36 1_555 1_555
H36 C39 1_555 1_555
H37 C39 1_555 1_555
H38 C39 1_555 1_555
S2 N3 1_555 1_555
N3 C40 1_555 1_555
N4 C49 1_555 1_555
O9 C49 1_555 1_555
O10 C67 1_555 1_555
O11 C67 1_555 1_555
O12 C57 1_555 1_555
O13 C64 1_555 1_555
O14 C64 1_555 1_555
O15 S2 1_555 1_555
O16 S2 1_555 1_555
C40 H39 1_555 1_555
C41 C40 1_555 1_555
C42 C41 1_555 1_555
H40 C42 1_555 1_555
C43 C42 1_555 1_555
C44 N3 1_555 1_555
C45 C44 1_555 1_555
H41 C45 1_555 1_555
C46 C45 1_555 1_555
H42 C46 1_555 1_555
C47 C46 1_555 1_555
H43 C47 1_555 1_555
C48 C43 1_555 1_555
H44 C48 1_555 1_555
C49 C41 1_555 1_555
C50 N4 1_555 1_555
C51 C41 1_555 1_555
C52 C51 1_555 1_555
H45 C52 1_555 1_555
C53 C52 1_555 1_555
H46 C53 1_555 1_555
C54 C53 1_555 1_555
H47 C54 1_555 1_555
C55 C50 1_555 1_555
H48 C55 1_555 1_555
C56 C42 1_555 1_555
H49 C56 1_555 1_555
H50 C56 1_555 1_555
C57 C56 1_555 1_555
C58 C57 1_555 1_555
C59 C58 1_555 1_555
H51 C59 1_555 1_555
C60 C59 1_555 1_555
H52 C60 1_555 1_555
C61 C60 1_555 1_555
H53 C61 1_555 1_555
C62 C61 1_555 1_555
H54 C62 1_555 1_555
C63 C58 1_555 1_555
H55 C63 1_555 1_555
C64 C40 1_555 1_555
C65 O14 1_555 1_555
H56 C65 1_555 1_555
H57 C65 1_555 1_555
C66 C65 1_555 1_555
H58 C66 1_555 1_555
H59 C66 1_555 1_555
H60 C66 1_555 1_555
C67 N4 1_555 1_555
C68 O11 1_555 1_555
C69 C68 1_555 1_555
H61 C69 1_555 1_555
H62 C69 1_555 1_555
H63 C69 1_555 1_555
C70 C68 1_555 1_555
H64 C70 1_555 1_555
H65 C70 1_555 1_555
H66 C70 1_555 1_555
C71 C68 1_555 1_555
H67 C71 1_555 1_555
H68 C71 1_555 1_555
H69 C71 1_555 1_555
C72 S2 1_555 1_555
C73 C72 1_555 1_555
H70 C73 1_555 1_555
C74 C73 1_555 1_555
H71 C74 1_555 1_555
C75 C74 1_555 1_555
C76 C75 1_555 1_555
H72 C76 1_555 1_555
C77 C72 1_555 1_555
H73 C77 1_555 1_555
C78 C75 1_555 1_555
H74 C78 1_555 1_555
H75 C78 1_555 1_555
H76 C78 1_555 1_555
C4 C5 1_555 1_555
C8 C9 1_555 1_555
C11 C12 1_555 1_555
C15 C16 1_555 1_555
C23 C24 1_555 1_555
C37 C38 1_555 1_555
C43 C44 1_555 1_555
C47 C48 1_555 1_555
C50 C51 1_555 1_555
C54 C55 1_555 1_555
C62 C63 1_555 1_555
C76 C77 1_555 1_555

#END
