
#######################################################################
#
#                 Cambridge Crystallographic Data Centre
#                                CCDC 
#
#######################################################################
#
# If this CIF has been generated from an entry in the Cambridge 
# Structural Database, then it will include bibliographic, chemical, 
# crystal, experimental, refinement or atomic coordinate data resulting 
# from the CCDC's data processing and validation procedures.
#
#######################################################################

data_ZIKTUL
_chemical_name_common            
1-(4-Chlorobenzoyl)-3-(3-trifluoromethyl-4-chlorophenyl)thiourea
_chemical_formula_moiety         'C15 H9 Cl2 F3 N2 O1 S1'
_chemical_name_systematic        
4-chloro-N-{[4-chloro-3-(trifluoromethyl)phenyl]carbamothioyl}benzamide
_symmetry_cell_setting           triclinic
_symmetry_space_group_name_H-M   'P -1'
_symmetry_Int_Tables_number      2
_space_group_name_Hall           '-P 1'
loop_
_symmetry_equiv_pos_site_id
_symmetry_equiv_pos_as_xyz
1 x,y,z
2 -x,-y,-z
_cell_length_a                   8.486(3)
_cell_length_b                   9.944(3)
_cell_length_c                   10.503(3)
_cell_angle_alpha                86.669(5)
_cell_angle_beta                 84.600(6)
_cell_angle_gamma                70.515(5)
_cell_volume                     831.489
_exptl_crystal_colour            colorless
_exptl_crystal_description       block
_cell_formula_units_Z            2
_exptl_crystal_recrystallization_method 'Re-crystallisation from solvent'
loop_
_atom_site_label
_atom_site_type_symbol
_atom_site_fract_x
_atom_site_fract_y
_atom_site_fract_z
Cl1 Cl 0.44660(13) 1.25800(10) -0.00748(9)
Cl2 Cl -0.18248(16) 0.34413(13) 0.90170(12)
S1 S 0.53929(11) 0.66581(9) 0.38874(10)
F1 F 0.7390(3) 1.0463(3) 0.3181(2)
F2 F 0.7684(3) 1.0722(3) 0.1146(2)
F3 F 0.6365(3) 1.2502(3) 0.2293(2)
N1 N 0.2485(3) 0.8782(2) 0.3825(2)
H1 H 0.1453 0.9106 0.4120
N2 N 0.2487(3) 0.6830(2) 0.5132(2)
H2 H 0.3070 0.6037 0.5479
O1 O -0.0179(3) 0.8403(2) 0.5058(2)
C1 C 0.6602(5) 1.1112(4) 0.2167(4)
C2 C 0.4990(4) 1.0838(3) 0.2071(3)
C3 C 0.3939(4) 1.1473(3) 0.1109(3)
C4 C 0.2438(4) 1.1241(3) 0.1077(3)
H3 H 0.1723 1.1691 0.0447
C5 C 0.1986(4) 1.0340(3) 0.1979(3)
H4 H 0.0969 1.0183 0.1952
C6 C 0.3027(4) 0.9677(3) 0.2915(3)
C7 C 0.4525(4) 0.9942(3) 0.2970(3)
H5 H 0.5219 0.9514 0.3617
C8 C 0.3376(4) 0.7496(3) 0.4283(3)
C9 C 0.0790(4) 0.7281(3) 0.5484(3)
C10 C 0.0188(4) 0.6328(3) 0.6400(3)
C11 C -0.1396(4) 0.6250(3) 0.6270(3)
H6 H -0.2040 0.6797 0.5637
C12 C -0.2017(4) 0.5367(4) 0.7074(3)
H7 H -0.3070 0.5306 0.6981
C13 C -0.1059(4) 0.4577(4) 0.8017(3)
C14 C 0.0483(5) 0.4675(4) 0.8190(3)
H8 H 0.1100 0.4156 0.8848
C15 C 0.1108(4) 0.5553(3) 0.7377(3)
H9 H 0.2152 0.5623 0.7488
loop_
_geom_bond_atom_site_label_1
_geom_bond_atom_site_label_2
_geom_bond_site_symmetry_1
_geom_bond_site_symmetry_2
Cl1 C3 1_555 1_555
Cl2 C13 1_555 1_555
S1 C8 1_555 1_555
F1 C1 1_555 1_555
F2 C1 1_555 1_555
F3 C1 1_555 1_555
N1 H1 1_555 1_555
N2 H2 1_555 1_555
O1 C9 1_555 1_555
C1 C2 1_555 1_555
C2 C3 1_555 1_555
C3 C4 1_555 1_555
C4 H3 1_555 1_555
C5 C4 1_555 1_555
H4 C5 1_555 1_555
C6 N1 1_555 1_555
C7 C2 1_555 1_555
H5 C7 1_555 1_555
C8 N1 1_555 1_555
C9 N2 1_555 1_555
C10 C9 1_555 1_555
C11 C10 1_555 1_555
H6 C11 1_555 1_555
C12 C11 1_555 1_555
H7 C12 1_555 1_555
C13 C12 1_555 1_555
C14 C13 1_555 1_555
H8 C14 1_555 1_555
C15 C10 1_555 1_555
H9 C15 1_555 1_555
N2 C8 1_555 1_555
C5 C6 1_555 1_555
C6 C7 1_555 1_555
C14 C15 1_555 1_555

#END
