
#######################################################################
#
#                 Cambridge Crystallographic Data Centre
#                                CCDC 
#
#######################################################################
#
# If this CIF has been generated from an entry in the Cambridge 
# Structural Database, then it will include bibliographic, chemical, 
# crystal, experimental, refinement or atomic coordinate data resulting 
# from the CCDC's data processing and validation procedures.
#
#######################################################################

data_ZIKWOI
_chemical_formula_moiety         'C16 H12 Cl1 F3 N2 O1 S1'
_chemical_name_systematic        
N-{[4-chloro-3-(trifluoromethyl)phenyl]carbamothioyl}-3-methylbenzamide
_symmetry_cell_setting           monoclinic
_symmetry_space_group_name_H-M   'P 21/c'
_symmetry_Int_Tables_number      14
_space_group_name_Hall           '-P 2ybc'
loop_
_symmetry_equiv_pos_site_id
_symmetry_equiv_pos_as_xyz
1 x,y,z
2 -x,1/2+y,1/2-z
3 -x,-y,-z
4 x,1/2-y,1/2+z
_cell_length_a                   16.389(2)
_cell_length_b                   13.6227(19)
_cell_length_c                   7.6418(11)
_cell_angle_alpha                90
_cell_angle_beta                 102.664(2)
_cell_angle_gamma                90
_cell_volume                     1664.62
_exptl_crystal_colour            colorless
_exptl_crystal_description       block
_cell_formula_units_Z            4
loop_
_atom_site_label
_atom_site_type_symbol
_atom_site_fract_x
_atom_site_fract_y
_atom_site_fract_z
Cl1 Cl 0.49319(4) 0.78808(7) 0.71116(11)
S1 S 0.11352(4) 0.56664(6) 0.49943(9)
F1 F 0.45461(13) 0.56648(16) 0.5795(2)
F2 F 0.50779(10) 0.58242(14) 0.8576(3)
F3 F 0.40434(11) 0.48549(14) 0.7713(3)
N1 N 0.15453(11) 0.67693(15) 0.7922(3)
H1 H 0.1407 0.7004 0.8861
N2 N 0.02286(11) 0.60873(15) 0.7356(3)
H2 H -0.0149 0.5765 0.6620
O1 O 0.05101(12) 0.68161(17) 1.0107(3)
C1 C 0.43525(16) 0.5728(2) 0.7383(4)
C2 C 0.37403(13) 0.65407(18) 0.7453(3)
C3 C 0.29408(14) 0.62954(18) 0.7624(3)
H3 H 0.2799 0.5640 0.7719
C4 C 0.23530(13) 0.70198(18) 0.7653(3)
C5 C 0.25572(14) 0.79918(19) 0.7536(3)
H4 H 0.2162 0.8478 0.7567
C6 C 0.33564(15) 0.82412(19) 0.7371(3)
H5 H 0.3498 0.8898 0.7293
C7 C 0.39430(14) 0.75251(19) 0.7320(3)
C8 C 0.09877(14) 0.62088(18) 0.6859(3)
C9 C 0.00095(15) 0.64245(19) 0.8900(3)
C10 C -0.08791(15) 0.62833(18) 0.9019(3)
C11 C -0.10471(18) 0.6194(2) 1.0713(4)
H6 H -0.0612 0.6193 1.1726
C12 C -0.1865(2) 0.6106(3) 1.0886(5)
H7 H -0.1984 0.6041 1.2016
C13 C -0.2508(2) 0.6115(3) 0.9371(5)
H8 H -0.3056 0.6050 0.9500
C14 C -0.23578(17) 0.6218(2) 0.7675(5)
C15 C -0.15291(16) 0.6302(2) 0.7517(4)
H9 H -0.1411 0.6372 0.6387
C16 C -0.3057(2) 0.6254(4) 0.6045(6)
H10 H -0.2887 0.5931 0.5067
H11 H -0.3193 0.6926 0.5730
H12 H -0.3539 0.5930 0.6293
loop_
_geom_bond_atom_site_label_1
_geom_bond_atom_site_label_2
_geom_bond_site_symmetry_1
_geom_bond_site_symmetry_2
Cl1 C7 1_555 1_555
S1 C8 1_555 1_555
F1 C1 1_555 1_555
F2 C1 1_555 1_555
F3 C1 1_555 1_555
N1 H1 1_555 1_555
N2 H2 1_555 1_555
O1 C9 1_555 1_555
C1 C2 1_555 1_555
C2 C3 1_555 1_555
C3 H3 1_555 1_555
C4 N1 1_555 1_555
C5 C4 1_555 1_555
H4 C5 1_555 1_555
C6 C5 1_555 1_555
H5 C6 1_555 1_555
C7 C2 1_555 1_555
C8 N1 1_555 1_555
C9 N2 1_555 1_555
C10 C9 1_555 1_555
C11 C10 1_555 1_555
H6 C11 1_555 1_555
C12 C11 1_555 1_555
H7 C12 1_555 1_555
C13 C12 1_555 1_555
H8 C13 1_555 1_555
C14 C13 1_555 1_555
C15 C10 1_555 1_555
H9 C15 1_555 1_555
C16 C14 1_555 1_555
H10 C16 1_555 1_555
H11 C16 1_555 1_555
H12 C16 1_555 1_555
N2 C8 1_555 1_555
C3 C4 1_555 1_555
C6 C7 1_555 1_555
C14 C15 1_555 1_555

#END
