
#######################################################################
#
#                 Cambridge Crystallographic Data Centre
#                                CCDC 
#
#######################################################################
#
# If this CIF has been generated from an entry in the Cambridge 
# Structural Database, then it will include bibliographic, chemical, 
# crystal, experimental, refinement or atomic coordinate data resulting 
# from the CCDC's data processing and validation procedures.
#
#######################################################################

data_ZIKWIC
_chemical_name_common            
1-(3-methylbenzoyl)-3-(2,3,4-trifluorophenyl)thiourea
_chemical_formula_moiety         'C15 H11 F3 N2 O1 S1'
_chemical_name_systematic        
3-methyl-N-[(2,3,4-trifluorophenyl)carbamothioyl]benzamide
_symmetry_cell_setting           monoclinic
_symmetry_space_group_name_H-M   'P 21/c'
_symmetry_Int_Tables_number      14
_space_group_name_Hall           '-P 2ybc'
loop_
_symmetry_equiv_pos_site_id
_symmetry_equiv_pos_as_xyz
1 x,y,z
2 -x,1/2+y,1/2-z
3 -x,-y,-z
4 x,1/2-y,1/2+z
_cell_length_a                   14.699(9)
_cell_length_b                   12.749(7)
_cell_length_c                   7.932(5)
_cell_angle_alpha                90
_cell_angle_beta                 102.374(11)
_cell_angle_gamma                90
_cell_volume                     1451.91
_exptl_crystal_colour            colorless
_exptl_crystal_description       block
_cell_formula_units_Z            4
loop_
_atom_site_label
_atom_site_type_symbol
_atom_site_fract_x
_atom_site_fract_y
_atom_site_fract_z
S1 S 0.12850(11) 0.57355(13) 1.12403(19)
F1 F 0.3287(3) 0.5259(3) 1.0170(5)
F2 F 0.4874(3) 0.5833(3) 1.2302(6)
F3 F 0.5230(3) 0.7863(3) 1.3103(5)
N1 N 0.1913(3) 0.6728(4) 0.8783(6)
H1 H 0.1832 0.6896 0.7711
N2 N 0.0393(3) 0.6111(4) 0.8031(5)
H2 H -0.0072 0.5848 0.8384
O1 O 0.0854(3) 0.6685(3) 0.5628(5)
C1 C 0.3426(4) 0.6294(5) 1.0586(8)
C2 C 0.4241(4) 0.6569(6) 1.1640(8)
C3 C 0.4414(4) 0.7609(6) 1.2007(8)
C4 C 0.3805(5) 0.8356(6) 1.1317(8)
H3 H 0.3944 0.9060 1.1549
C5 C 0.2959(4) 0.8066(5) 1.0243(7)
H4 H 0.2529 0.8578 0.9768
C6 C 0.2761(4) 0.7022(5) 0.9890(7)
C7 C 0.1236(4) 0.6213(4) 0.9278(7)
C8 C 0.0237(4) 0.6389(4) 0.6313(7)
C9 C -0.0749(4) 0.6299(4) 0.5344(7)
C10 C -0.0893(4) 0.6209(4) 0.3558(7)
H5 H -0.0393 0.6202 0.3011
C11 C -0.1809(5) 0.6131(5) 0.2605(8)
H6 H -0.1918 0.6074 0.1410
C12 C -0.2544(5) 0.6137(5) 0.3407(9)
H7 H -0.3146 0.6079 0.2746
C13 C -0.2411(4) 0.6227(4) 0.5198(8)
C14 C -0.1513(4) 0.6305(4) 0.6103(7)
H8 H -0.1409 0.6365 0.7297
C15 C -0.3219(4) 0.6243(6) 0.6066(9)
H9 H -0.3288 0.5565 0.6549
H10 H -0.3777 0.6416 0.5237
H11 H -0.3112 0.6759 0.6969
loop_
_geom_bond_atom_site_label_1
_geom_bond_atom_site_label_2
_geom_bond_site_symmetry_1
_geom_bond_site_symmetry_2
S1 C7 1_555 1_555
F1 C1 1_555 1_555
F2 C2 1_555 1_555
F3 C3 1_555 1_555
N1 H1 1_555 1_555
N2 H2 1_555 1_555
O1 C8 1_555 1_555
C1 C2 1_555 1_555
C2 C3 1_555 1_555
C3 C4 1_555 1_555
C4 H3 1_555 1_555
C5 C4 1_555 1_555
H4 C5 1_555 1_555
C6 N1 1_555 1_555
C7 N1 1_555 1_555
C8 N2 1_555 1_555
C9 C8 1_555 1_555
C10 C9 1_555 1_555
H5 C10 1_555 1_555
C11 C10 1_555 1_555
H6 C11 1_555 1_555
C12 C11 1_555 1_555
H7 C12 1_555 1_555
C13 C12 1_555 1_555
C14 C9 1_555 1_555
H8 C14 1_555 1_555
C15 C13 1_555 1_555
H9 C15 1_555 1_555
H10 C15 1_555 1_555
H11 C15 1_555 1_555
N2 C7 1_555 1_555
C1 C6 1_555 1_555
C5 C6 1_555 1_555
C13 C14 1_555 1_555

#END
