
#######################################################################
#
#                 Cambridge Crystallographic Data Centre
#                                CCDC 
#
#######################################################################
#
# If this CIF has been generated from an entry in the Cambridge 
# Structural Database, then it will include bibliographic, chemical, 
# crystal, experimental, refinement or atomic coordinate data resulting 
# from the CCDC's data processing and validation procedures.
#
#######################################################################

data_ZILCOM
_chemical_formula_moiety         'C30 H48 N2 O1'
_chemical_name_systematic        
N-Acetyl-3,6-di-t-butyl-2-(3,6-di-t-butyl-3H-azepin-2-yl)-2,3-dihydro-1H-azepine
_symmetry_cell_setting           monoclinic
_symmetry_space_group_name_H-M   'P 21/a'
_symmetry_Int_Tables_number      14
_space_group_name_Hall           '-P 2yab'
loop_
_symmetry_equiv_pos_site_id
_symmetry_equiv_pos_as_xyz
1 x,y,z
2 1/2-x,1/2+y,-z
3 -x,-y,-z
4 1/2+x,1/2-y,z
_cell_length_a                   12.421(8)
_cell_length_b                   12.670(7)
_cell_length_c                   18.450(9)
_cell_angle_alpha                90
_cell_angle_beta                 95.48(5)
_cell_angle_gamma                90
_cell_volume                     2890.28
_exptl_crystal_colour            colorless
_cell_formula_units_Z            4
loop_
_atom_site_label
_atom_site_type_symbol
_atom_site_fract_x
_atom_site_fract_y
_atom_site_fract_z
O1 O 0.5346(2) 0.1358(2) 0.1001(1)
N1 N 0.6921(2) 0.0605(2) 0.1475(1)
N2 N 0.7027(2) 0.1585(2) 0.2736(2)
C1 C 0.7404(3) -0.0265(3) 0.1851(2)
C2 C 0.8442(3) -0.0456(3) 0.2039(2)
C3 C 0.9352(3) 0.0190(3) 0.1844(2)
C4 C 0.9374(3) 0.1057(3) 0.1438(2)
C5 C 0.8449(3) 0.1663(3) 0.1069(2)
C6 C 0.7466(3) 0.1635(3) 0.1511(2)
C7 C 0.7662(3) 0.1995(3) 0.2317(2)
C8 C 0.8553(3) 0.2795(3) 0.2530(2)
C9 C 0.9282(3) 0.2294(3) 0.3130(2)
C10 C 0.9016(3) 0.1870(3) 0.3741(2)
C11 C 0.7948(3) 0.1730(3) 0.3977(2)
C12 C 0.7079(3) 0.1673(3) 0.3493(2)
C13 C 0.5854(3) 0.0567(3) 0.1188(2)
C14 C 0.5348(4) -0.0505(4) 0.1077(3)
C15 C 0.8763(3) -0.1421(3) 0.2518(2)
C16 C 0.7802(5) -0.2117(4) 0.2656(3)
C17 C 0.9556(4) -0.2117(4) 0.2148(3)
C18 C 0.9285(5) -0.1033(4) 0.3255(3)
C19 C 0.8240(3) 0.1417(3) 0.0237(2)
C20 C 0.9282(4) 0.1658(4) -0.0108(2)
C21 C 0.7351(4) 0.2129(4) -0.0104(3)
C22 C 0.7958(4) 0.0254(4) 0.0072(3)
C23 C 0.8191(3) 0.3959(3) 0.2649(2)
C24 C 0.9204(4) 0.4594(4) 0.2904(3)
C25 C 0.7368(4) 0.4099(4) 0.3204(3)
C26 C 0.7704(4) 0.4382(4) 0.1918(3)
C27 C 0.7855(4) 0.1588(4) 0.4794(2)
C28 C 0.8438(5) 0.0559(6) 0.5053(3)
C29 C 0.8440(5) 0.2514(7) 0.5206(3)
C30 C 0.6701(6) 0.1574(7) 0.4987(3)
H1 H 0.685(2) -0.078(2) 0.199(2)
H2 H 1.007(2) -0.007(2) 0.205(2)
H3 H 1.007(2) 0.134(2) 0.137(2)
H4 H 0.870(2) 0.241(2) 0.107(1)
H5 H 0.690(2) 0.214(2) 0.130(1)
H6 H 0.900(2) 0.289(2) 0.211(1)
H7 H 1.003(2) 0.227(2) 0.303(2)
H8 H 0.960(2) 0.161(2) 0.406(2)
H9 H 0.636(2) 0.154(2) 0.365(2)
H10 H 0.580(3) -0.098(3) 0.086(2)
H11 H 0.505(3) -0.074(3) 0.148(2)
H12 H 0.468(3) -0.044(3) 0.080(2)
H13 H 0.741(3) -0.239(3) 0.219(2)
H14 H 0.725(3) -0.167(3) 0.293(2)
H15 H 0.806(3) -0.269(3) 0.296(2)
H16 H 0.968(3) -0.276(3) 0.250(2)
H17 H 0.916(3) -0.245(3) 0.165(2)
H18 H 1.024(3) -0.175(3) 0.217(2)
H19 H 0.942(3) -0.164(3) 0.355(2)
H20 H 0.860(3) -0.063(3) 0.349(2)
H21 H 0.991(3) -0.065(3) 0.319(2)
H22 H 0.919(2) 0.158(3) -0.063(2)
H23 H 0.994(3) 0.121(3) 0.008(2)
H24 H 0.955(3) 0.241(3) 0.000(2)
H25 H 0.753(3) 0.287(3) -0.001(2)
H26 H 0.726(3) 0.202(3) -0.061(2)
H27 H 0.656(3) 0.195(3) 0.005(2)
H28 H 0.843(3) -0.020(3) 0.035(2)
H29 H 0.716(3) 0.012(3) 0.014(2)
H30 H 0.797(2) 0.011(3) -0.046(2)
H31 H 0.892(3) 0.534(3) 0.292(2)
H32 H 0.947(3) 0.440(3) 0.340(2)
H33 H 0.978(3) 0.452(3) 0.256(2)
H34 H 0.674(3) 0.375(3) 0.304(2)
H35 H 0.724(3) 0.483(3) 0.326(2)
H36 H 0.767(3) 0.388(3) 0.371(2)
H37 H 0.755(3) 0.512(3) 0.196(2)
H38 H 0.704(3) 0.396(3) 0.174(2)
H39 H 0.828(3) 0.435(3) 0.154(2)
H40 H 0.832(3) 0.046(3) 0.557(2)
H41 H 0.919(3) 0.070(4) 0.504(2)
H42 H 0.779(4) 0.007(4) 0.481(2)
H43 H 0.792(4) 0.317(4) 0.507(2)
H44 H 0.906(4) 0.249(5) 0.514(3)
H45 H 0.838(3) 0.238(3) 0.577(2)
H46 H 0.631(4) 0.224(4) 0.480(3)
H47 H 0.647(5) 0.085(4) 0.484(3)
H48 H 0.671(3) 0.145(4) 0.550(2)
loop_
_geom_bond_atom_site_label_1
_geom_bond_atom_site_label_2
_geom_bond_site_symmetry_1
_geom_bond_site_symmetry_2
O1 C13 1_555 1_555
N1 C1 1_555 1_555
N2 C7 1_555 1_555
C1 C2 1_555 1_555
C2 C3 1_555 1_555
C3 C4 1_555 1_555
C4 C5 1_555 1_555
C5 C6 1_555 1_555
C6 N1 1_555 1_555
C7 C6 1_555 1_555
C8 C7 1_555 1_555
C9 C8 1_555 1_555
C10 C9 1_555 1_555
C11 C10 1_555 1_555
C12 N2 1_555 1_555
C13 N1 1_555 1_555
C14 C13 1_555 1_555
C15 C2 1_555 1_555
C16 C15 1_555 1_555
C17 C15 1_555 1_555
C18 C15 1_555 1_555
C19 C5 1_555 1_555
C20 C19 1_555 1_555
C21 C19 1_555 1_555
C22 C19 1_555 1_555
C23 C8 1_555 1_555
C24 C23 1_555 1_555
C25 C23 1_555 1_555
C26 C23 1_555 1_555
C27 C11 1_555 1_555
C28 C27 1_555 1_555
C29 C27 1_555 1_555
C30 C27 1_555 1_555
H1 C1 1_555 1_555
H2 C3 1_555 1_555
H3 C4 1_555 1_555
H4 C5 1_555 1_555
H5 C6 1_555 1_555
H6 C8 1_555 1_555
H7 C9 1_555 1_555
H8 C10 1_555 1_555
H9 C12 1_555 1_555
H10 C14 1_555 1_555
H11 C14 1_555 1_555
H12 C14 1_555 1_555
H13 C16 1_555 1_555
H14 C16 1_555 1_555
H15 C16 1_555 1_555
H16 C17 1_555 1_555
H17 C17 1_555 1_555
H18 C17 1_555 1_555
H19 C18 1_555 1_555
H20 C18 1_555 1_555
H21 C18 1_555 1_555
H22 C20 1_555 1_555
H23 C20 1_555 1_555
H24 C20 1_555 1_555
H25 C21 1_555 1_555
H26 C21 1_555 1_555
H27 C21 1_555 1_555
H28 C22 1_555 1_555
H29 C22 1_555 1_555
H30 C22 1_555 1_555
H31 C24 1_555 1_555
H32 C24 1_555 1_555
H33 C24 1_555 1_555
H34 C25 1_555 1_555
H35 C25 1_555 1_555
H36 C25 1_555 1_555
H37 C26 1_555 1_555
H38 C26 1_555 1_555
H39 C26 1_555 1_555
H40 C28 1_555 1_555
H41 C28 1_555 1_555
H42 C28 1_555 1_555
H43 C29 1_555 1_555
H44 C29 1_555 1_555
H45 C29 1_555 1_555
H46 C30 1_555 1_555
H47 C30 1_555 1_555
H48 C30 1_555 1_555
C11 C12 1_555 1_555

#END
