
#######################################################################
#
#                 Cambridge Crystallographic Data Centre
#                                CCDC 
#
#######################################################################
#
# If this CIF has been generated from an entry in the Cambridge 
# Structural Database, then it will include bibliographic, chemical, 
# crystal, experimental, refinement or atomic coordinate data resulting 
# from the CCDC's data processing and validation procedures.
#
#######################################################################

data_ZILDON
_chemical_formula_moiety         'C7 H13 N3 O4,H2 O1'
_chemical_name_systematic        'L-Gylcyl-L-glutamine monohydrate'
_symmetry_cell_setting           orthorhombic
_symmetry_space_group_name_H-M   'P 21 21 21'
_symmetry_Int_Tables_number      19
_space_group_name_Hall           'P 2ac 2ab'
loop_
_symmetry_equiv_pos_site_id
_symmetry_equiv_pos_as_xyz
1 x,y,z
2 1/2-x,-y,1/2+z
3 1/2+x,1/2-y,-z
4 -x,1/2+y,1/2-z
_cell_length_a                   5.415(2)
_cell_length_b                   11.618(5)
_cell_length_c                   15.558(9)
_cell_angle_alpha                90
_cell_angle_beta                 90
_cell_angle_gamma                90
_cell_volume                     978.777
_exptl_crystal_colour            colorless
_cell_formula_units_Z            4
loop_
_atom_site_label
_atom_site_type_symbol
_atom_site_fract_x
_atom_site_fract_y
_atom_site_fract_z
N1 N 0.5693(6) 0.1944(3) 0.4106(2)
C1 C 0.5362(5) 0.2842(2) 0.3491(2)
C2 C 0.2990(4) 0.3502(2) 0.36250(13)
O1 O 0.1313(3) 0.31040(15) 0.40638(11)
N2 N 0.2894(5) 0.4495(2) 0.32012(13)
C3 C 0.0792(5) 0.5281(2) 0.32375(14)
C4 C 0.1780(5) 0.6460(2) 0.35417(15)
C5 C 0.0034(5) 0.7471(2) 0.34601(15)
C6 C -0.2124(4) 0.7470(2) 0.40779(12)
N3 N -0.3593(5) 0.8387(2) 0.40291(15)
O2 O -0.2512(3) 0.66808(12) 0.45907(9)
C7 C -0.0449(4) 0.5382(2) 0.23465(15)
O3 O 0.0969(3) 0.54403(13) 0.17026(9)
O4 O -0.2737(4) 0.5424(2) 0.23150(11)
H1 H 0.382(19) 0.1471(63) 0.4056(40)
H2 H 0.709(11) 0.1376(44) 0.3976(28)
H3 H 0.5531(98) 0.1941(46) 0.4497(27)
H4 H 0.657(11) 0.3286(39) 0.3322(24)
H5 H 0.5287(84) 0.2279(37) 0.2942(24)
H6 H 0.4117(67) 0.4707(24) 0.2971(16)
H7 H -0.0334(48) 0.4993(18) 0.3622(13)
H8 H 0.2292(50) 0.6340(19) 0.4199(15)
H9 H 0.3212(66) 0.6587(23) 0.3223(16)
H10 H -0.0785(47) 0.7523(20) 0.2892(15)
H11 H 0.0897(62) 0.8214(25) 0.3459(17)
H12 H -0.3288(83) 0.8925(32) 0.3648(22)
H13 H -0.4805(68) 0.8419(26) 0.4353(20)
O5 O 0.1587(5) 0.0621(2) 0.48354(13)
H14 H 0.202(11) -0.0038(37) 0.4954(26)
H15 H 0.0691(85) 0.0458(32) 0.4396(29)
loop_
_geom_bond_atom_site_label_1
_geom_bond_atom_site_label_2
_geom_bond_site_symmetry_1
_geom_bond_site_symmetry_2
N1 C1 1_555 1_555
C1 C2 1_555 1_555
C2 O1 1_555 1_555
N2 C2 1_555 1_555
C3 N2 1_555 1_555
C4 C3 1_555 1_555
C5 C4 1_555 1_555
C6 C5 1_555 1_555
N3 C6 1_555 1_555
O2 C6 1_555 1_555
C7 C3 1_555 1_555
O3 C7 1_555 1_555
O4 C7 1_555 1_555
H1 N1 1_555 1_555
H2 N1 1_555 1_555
H3 N1 1_555 1_555
H4 C1 1_555 1_555
H5 C1 1_555 1_555
H6 N2 1_555 1_555
H7 C3 1_555 1_555
H8 C4 1_555 1_555
H9 C4 1_555 1_555
H10 C5 1_555 1_555
H11 C5 1_555 1_555
H12 N3 1_555 1_555
H13 N3 1_555 1_555
O5 H14 1_555 1_555
H15 O5 1_555 1_555

#END
