
#######################################################################
#
#                 Cambridge Crystallographic Data Centre
#                                CCDC 
#
#######################################################################
#
# If this CIF has been generated from an entry in the Cambridge 
# Structural Database, then it will include bibliographic, chemical, 
# crystal, experimental, refinement or atomic coordinate data resulting 
# from the CCDC's data processing and validation procedures.
#
#######################################################################

data_ZILKIR
_chemical_formula_moiety         'C22 H22 N2 O6'
_chemical_name_systematic        
'2-methyl-4-phenylhexahydropentalen-3a(1H)-yl 3,5-dinitrobenzoate'
_symmetry_cell_setting           monoclinic
_symmetry_space_group_name_H-M   'P 21/c'
_symmetry_Int_Tables_number      14
_space_group_name_Hall           '-P 2ybc'
loop_
_symmetry_equiv_pos_site_id
_symmetry_equiv_pos_as_xyz
1 x,y,z
2 -x,1/2+y,1/2-z
3 -x,-y,-z
4 x,1/2-y,1/2+z
_cell_length_a                   19.817(3)
_cell_length_b                   8.0545(10)
_cell_length_c                   13.0062(16)
_cell_angle_alpha                90
_cell_angle_beta                 90.266(10)
_cell_angle_gamma                90
_cell_volume                     2075.98
_exptl_crystal_colour            colorless
_exptl_crystal_description       block
_cell_formula_units_Z            4
loop_
_atom_site_label
_atom_site_type_symbol
_atom_site_fract_x
_atom_site_fract_y
_atom_site_fract_z
C1 C 0.36114(15) 0.4933(3) 0.7963(2)
H1 H 0.3593 0.4354 0.7345
C2 C 0.42271(15) 0.5290(3) 0.8415(2)
C3 C 0.42757(17) 0.6146(4) 0.9329(2)
H2 H 0.4693 0.6417 0.9615
C4 C 0.36835(18) 0.6581(4) 0.9802(2)
C5 C 0.30649(17) 0.6254(4) 0.9383(2)
H3 H 0.2675 0.6571 0.9728
C6 C 0.30179(16) 0.5446(4) 0.8439(2)
C7 C 0.23378(18) 0.5274(4) 0.7976(2)
C8 C 0.17365(15) 0.4304(4) 0.6454(2)
C9 C 0.14874(16) 0.5973(4) 0.6082(3)
H4 H 0.1690 0.6262 0.5428
H5 H 0.1590 0.6837 0.6578
C10 C 0.07280(19) 0.5736(5) 0.5969(4)
H6 H 0.0650 0.5101 0.5337
C11 C 0.0330(2) 0.7358(6) 0.5876(4)
H7 H -0.0142 0.7114 0.5810
H8 H 0.0478 0.7956 0.5279
H9 H 0.0405 0.8023 0.6478
C12 C 0.05482(19) 0.4625(6) 0.6861(4)
H10 H 0.0143 0.3995 0.6704
H11 H 0.0467 0.5284 0.7473
C13 C 0.11418(18) 0.3460(5) 0.7035(3)
H12 H 0.1247 0.3388 0.7771
C14 C 0.1081(2) 0.1704(5) 0.6574(4)
H13 H 0.0715 0.1656 0.6077
H14 H 0.0997 0.0892 0.7109
C15 C 0.1754(2) 0.1370(5) 0.6056(3)
H15 H 0.2096 0.1039 0.6551
H16 H 0.1713 0.0523 0.5530
C16 C 0.19112(17) 0.3073(4) 0.5589(2)
H17 H 0.1570 0.3249 0.5052
C17 C 0.25833(17) 0.3320(4) 0.5070(2)
C18 C 0.2613(2) 0.4175(4) 0.4143(3)
H18 H 0.2218 0.4543 0.3830
C19 C 0.3235(3) 0.4481(5) 0.3682(3)
H19 H 0.3252 0.5047 0.3059
C20 C 0.3818(2) 0.3959(5) 0.4134(3)
H20 H 0.4231 0.4186 0.3828
C21 C 0.37955(19) 0.3103(5) 0.5036(3)
H21 H 0.4194 0.2737 0.5341
C22 C 0.31863(18) 0.2778(4) 0.5499(2)
H22 H 0.3179 0.2182 0.6111
N1 N 0.48479(15) 0.4752(3) 0.7911(2)
N2 N 0.37236(19) 0.7451(4) 1.0799(2)
O1 O 0.48008(12) 0.3839(3) 0.71629(18)
O2 O 0.53866(12) 0.5238(3) 0.82663(18)
O3 O 0.42624(15) 0.8077(3) 1.10462(18)
O4 O 0.32128(16) 0.7453(4) 1.1319(2)
O5 O 0.23525(10) 0.4429(3) 0.70872(15)
O6 O 0.18416(13) 0.5877(4) 0.83506(18)
loop_
_geom_bond_atom_site_label_1
_geom_bond_atom_site_label_2
_geom_bond_site_symmetry_1
_geom_bond_site_symmetry_2
C1 H1 1_555 1_555
C2 C1 1_555 1_555
C3 C2 1_555 1_555
H2 C3 1_555 1_555
C4 C3 1_555 1_555
C5 C4 1_555 1_555
H3 C5 1_555 1_555
C6 C1 1_555 1_555
C7 C6 1_555 1_555
C8 C9 1_555 1_555
C9 H4 1_555 1_555
H5 C9 1_555 1_555
C10 C9 1_555 1_555
H6 C10 1_555 1_555
C11 C10 1_555 1_555
H7 C11 1_555 1_555
H8 C11 1_555 1_555
H9 C11 1_555 1_555
C12 C10 1_555 1_555
H10 C12 1_555 1_555
H11 C12 1_555 1_555
C13 C8 1_555 1_555
H12 C13 1_555 1_555
C14 C13 1_555 1_555
H13 C14 1_555 1_555
H14 C14 1_555 1_555
C15 C14 1_555 1_555
H15 C15 1_555 1_555
H16 C15 1_555 1_555
C16 C8 1_555 1_555
H17 C16 1_555 1_555
C17 C16 1_555 1_555
C18 C17 1_555 1_555
H18 C18 1_555 1_555
C19 C18 1_555 1_555
H19 C19 1_555 1_555
C20 C19 1_555 1_555
H20 C20 1_555 1_555
C21 C20 1_555 1_555
H21 C21 1_555 1_555
C22 C17 1_555 1_555
H22 C22 1_555 1_555
N1 C2 1_555 1_555
N2 C4 1_555 1_555
O1 N1 1_555 1_555
O2 N1 1_555 1_555
O3 N2 1_555 1_555
O4 N2 1_555 1_555
O5 C7 1_555 1_555
O6 C7 1_555 1_555
C5 C6 1_555 1_555
C8 O5 1_555 1_555
C12 C13 1_555 1_555
C15 C16 1_555 1_555
C21 C22 1_555 1_555

#END
