
#######################################################################
#
#                 Cambridge Crystallographic Data Centre
#                                CCDC 
#
#######################################################################
#
# If this CIF has been generated from an entry in the Cambridge 
# Structural Database, then it will include bibliographic, chemical, 
# crystal, experimental, refinement or atomic coordinate data resulting 
# from the CCDC's data processing and validation procedures.
#
#######################################################################

data_ZILMUF
_chemical_formula_moiety         'C14 H6 N6 O12,C12 H10 N2'
_chemical_name_systematic        
"1,1'-(ethene-1,2-diyl)bis(2,4,6-trinitrobenzene) 4,4'-(ethene-1,2-diyl)dipyridine"
_symmetry_cell_setting           monoclinic
_symmetry_space_group_name_H-M   'C 2/c'
_symmetry_Int_Tables_number      15
_space_group_name_Hall           '-C 2yn'
loop_
_symmetry_equiv_pos_site_id
_symmetry_equiv_pos_as_xyz
1 x,y,z
2 -x,y,1/2-z
3 1/2+x,1/2+y,z
4 1/2-x,1/2+y,1/2-z
5 -x,-y,-z
6 x,-y,1/2+z
7 1/2-x,1/2-y,-z
8 1/2+x,1/2-y,1/2+z
_cell_length_a                   31.5882(16)
_cell_length_b                   5.8953(3)
_cell_length_c                   14.4728(7)
_cell_angle_alpha                90
_cell_angle_beta                 90.548(5)
_cell_angle_gamma                90
_cell_volume                     2695.03
_exptl_crystal_colour            yellow
_exptl_crystal_description       needle
_cell_formula_units_Z            4
loop_
_atom_site_label
_atom_site_type_symbol
_atom_site_fract_x
_atom_site_fract_y
_atom_site_fract_z
C1 C 0.32569(5) 0.3904(3) 0.57439(12)
C2 C 0.35597(6) 0.4497(3) 0.63911(12)
H1 H 0.373209 0.576048 0.631472
C3 C 0.35936(6) 0.3127(3) 0.71538(12)
C4 C 0.33348(6) 0.1277(3) 0.72922(13)
H2 H 0.336640 0.036080 0.781129
C5 C 0.30276(5) 0.0835(3) 0.66340(12)
C6 C 0.29729(5) 0.2113(3) 0.58278(12)
C7 C 0.26425(5) 0.1726(3) 0.51062(12)
H3 H 0.263701 0.034570 0.479504
N1 N 0.32710(5) 0.5210(3) 0.48754(11)
O1 O 0.33300(5) 0.4148(3) 0.41655(10)
O2 O 0.32396(5) 0.7269(2) 0.49269(11)
N2 N 0.39343(6) 0.3588(4) 0.78292(12)
O3 O 0.40210(6) 0.2127(4) 0.83877(12)
O4 O 0.41081(6) 0.5412(4) 0.77941(12)
N3 N 0.27531(5) -0.1136(3) 0.68274(11)
O5 O 0.28140(6) -0.2156(3) 0.75420(12)
O6 O 0.24840(5) -0.1666(3) 0.62719(11)
C1F C 0.17431(5) 0.1096(3) 0.42561(12)
C2F C 0.14403(6) 0.0503(3) 0.36089(12)
H1F H 0.126791 -0.076048 0.368528
C3F C 0.14064(6) 0.1873(3) 0.28462(12)
C4F C 0.16652(6) 0.3723(3) 0.27078(13)
H2F H 0.163360 0.463920 0.218871
C5F C 0.19724(5) 0.4165(3) 0.33660(12)
C6F C 0.20271(5) 0.2887(3) 0.41722(12)
C7F C 0.23575(5) 0.3274(3) 0.48938(12)
H3F H 0.236299 0.465430 0.520496
N1F N 0.17290(5) -0.0210(3) 0.51246(11)
O1F O 0.16700(5) 0.0852(3) 0.58345(10)
O2F O 0.17604(5) -0.2269(2) 0.50731(11)
N2F N 0.10657(6) 0.1412(4) 0.21708(12)
O3F O 0.09790(6) 0.2873(4) 0.16123(12)
O4F O 0.08919(6) -0.0412(4) 0.22059(12)
N3F N 0.22469(5) 0.6136(3) 0.31726(11)
O5F O 0.21860(6) 0.7156(3) 0.24580(12)
O6F O 0.25160(5) 0.6666(3) 0.37281(11)
C8 C 0.47967(7) 0.0978(4) 0.62680(16)
H4 H 0.503976 0.115401 0.662841
C9 C 0.45156(8) -0.0722(4) 0.64630(18)
H5 H 0.457550 -0.166240 0.696342
N4 N 0.41620(6) -0.1112(3) 0.59809(14)
C10 C 0.40909(7) 0.0272(4) 0.52723(15)
H6 H 0.384726 0.004027 0.491913
C11 C 0.43537(6) 0.2026(4) 0.50261(15)
H7 H 0.428668 0.293592 0.452047
C12 C 0.47194(6) 0.2429(3) 0.55375(14)
C13 C 0.50210(6) 0.4235(4) 0.53254(14)
H8 H 0.526566 0.430321 0.568691
C8D C 0.52033(7) 0.9022(4) 0.37320(16)
H4D H 0.496024 0.884599 0.337159
C9D C 0.54844(8) 1.0722(4) 0.35370(18)
H5D H 0.542450 1.166240 0.303658
N4D N 0.58380(6) 1.1112(3) 0.40191(14)
C10D C 0.59091(7) 0.9728(4) 0.47277(15)
H6D H 0.615274 0.995973 0.508087
C11D C 0.56463(6) 0.7974(4) 0.49739(15)
H7D H 0.571332 0.706408 0.547953
C12D C 0.52806(6) 0.7571(3) 0.44625(14)
C13D C 0.49790(6) 0.5765(4) 0.46746(14)
H8D H 0.473434 0.569679 0.431309
loop_
_geom_bond_atom_site_label_1
_geom_bond_atom_site_label_2
_geom_bond_site_symmetry_1
_geom_bond_site_symmetry_2
C1 C2 1_555 1_555
C2 H1 1_555 1_555
C3 C2 1_555 1_555
C4 C3 1_555 1_555
H2 C4 1_555 1_555
C5 C4 1_555 1_555
C6 C1 1_555 1_555
C7 C6 1_555 1_555
H3 C7 1_555 1_555
N1 C1 1_555 1_555
O1 N1 1_555 1_555
O2 N1 1_555 1_555
N2 C3 1_555 1_555
O3 N2 1_555 1_555
O4 N2 1_555 1_555
N3 C5 1_555 1_555
O5 N3 1_555 1_555
O6 N3 1_555 1_555
C8 H4 1_555 1_555
C9 C8 1_555 1_555
H5 C9 1_555 1_555
N4 C9 1_555 1_555
C10 N4 1_555 1_555
H6 C10 1_555 1_555
C11 C10 1_555 1_555
H7 C11 1_555 1_555
C12 C8 1_555 1_555
C13 C12 1_555 1_555
H8 C13 1_555 1_555
C1F C2F 1_555 1_555
C2F H1F 1_555 1_555
C3F C2F 1_555 1_555
C4F C3F 1_555 1_555
H2F C4F 1_555 1_555
C5F C4F 1_555 1_555
C6F C1F 1_555 1_555
C7F C7 1_555 1_555
H3F C7F 1_555 1_555
N1F C1F 1_555 1_555
O1F N1F 1_555 1_555
O2F N1F 1_555 1_555
N2F C3F 1_555 1_555
O3F N2F 1_555 1_555
O4F N2F 1_555 1_555
N3F C5F 1_555 1_555
O5F N3F 1_555 1_555
O6F N3F 1_555 1_555
C8D H4D 1_555 1_555
C9D C8D 1_555 1_555
H5D C9D 1_555 1_555
N4D C9D 1_555 1_555
C10D N4D 1_555 1_555
H6D C10D 1_555 1_555
C11D C10D 1_555 1_555
H7D C11D 1_555 1_555
C12D C8D 1_555 1_555
C13D C13 1_555 1_555
H8D C13D 1_555 1_555
C5 C6 1_555 1_555
C11 C12 1_555 1_555
C5F C6F 1_555 1_555
C6F C7F 1_555 1_555
C11D C12D 1_555 1_555
C12D C13D 1_555 1_555

#END
