
#######################################################################
#
#                 Cambridge Crystallographic Data Centre
#                                CCDC 
#
#######################################################################
#
# If this CIF has been generated from an entry in the Cambridge 
# Structural Database, then it will include bibliographic, chemical, 
# crystal, experimental, refinement or atomic coordinate data resulting 
# from the CCDC's data processing and validation procedures.
#
#######################################################################

data_ZILNEQ
_chemical_formula_moiety         'C37 H48 N2 O2'
_chemical_name_systematic        
(E)-{1,3-bis[2,6-diisopropylphenyl]-1H-imidazol-3-ium-2-yl}(4-t-butyl-2-oxocyclopent-3-en-1-ylidene)methanolate
_symmetry_cell_setting           monoclinic
_symmetry_space_group_name_H-M   'P 21/n'
_symmetry_Int_Tables_number      14
_space_group_name_Hall           '-P 2yn'
loop_
_symmetry_equiv_pos_site_id
_symmetry_equiv_pos_as_xyz
1 x,y,z
2 1/2-x,1/2+y,1/2-z
3 -x,-y,-z
4 1/2+x,1/2-y,1/2+z
_cell_length_a                   12.5595(5)
_cell_length_b                   22.6599(9)
_cell_length_c                   13.5242(5)
_cell_angle_alpha                90
_cell_angle_beta                 116.048(2)
_cell_angle_gamma                90
_cell_volume                     3458
_exptl_crystal_colour            colorless
_exptl_crystal_description       block
_cell_formula_units_Z            4
loop_
_atom_site_label
_atom_site_type_symbol
_atom_site_fract_x
_atom_site_fract_y
_atom_site_fract_z
C1 C 0.43879(17) 0.25298(9) 1.08472(15)
C2 C 0.53192(19) 0.23722(10) 1.06093(17)
C3 C 0.5613(2) 0.27788(13) 0.9995(2)
H1 H 0.6225 0.2691 0.9808
C4 C 0.5022(3) 0.33040(14) 0.9659(2)
H2 H 0.5217 0.3561 0.9228
C5 C 0.4146(2) 0.34521(11) 0.9957(2)
H3 H 0.3770 0.3815 0.9740
C6 C 0.38039(19) 0.30751(9) 1.05727(17)
C7 C 0.6029(2) 0.18147(11) 1.1030(2)
H4 H 0.5581 0.1556 1.1292
C8 C 0.7205(2) 0.19613(15) 1.2019(2)
H5 H 0.7663 0.2217 1.1788
H6 H 0.7638 0.1604 1.2314
H7 H 0.7050 0.2155 1.2573
C9 C 0.6219(3) 0.14795(14) 1.0138(3)
H8 H 0.5467 0.1407 0.9522
H9 H 0.6604 0.1110 1.0430
H10 H 0.6707 0.1711 0.9903
C10 C 0.2916(2) 0.32576(10) 1.0987(2)
H11 H 0.2626 0.2897 1.1187
C11 C 0.1846(3) 0.35840(14) 1.0147(3)
H12 H 0.2092 0.3959 0.9987
H13 H 0.1282 0.3645 1.0438
H14 H 0.1488 0.3355 0.9484
C12 C 0.3538(3) 0.36254(14) 1.2036(3)
H15 H 0.4214 0.3414 1.2555
H16 H 0.2998 0.3699 1.2350
H17 H 0.3791 0.3994 1.1860
C13 C 0.43971(18) 0.20944(9) 1.25695(16)
H18 H 0.5049 0.2293 1.3093
C14 C 0.36684(19) 0.17317(10) 1.27603(16)
H19 H 0.3725 0.1630 1.3448
C15 C 0.30348(15) 0.17666(8) 1.09534(15)
C16 C 0.17881(19) 0.11781(11) 1.16106(17)
C17 C 0.0712(2) 0.14724(13) 1.1316(2)
C18 C -0.0250(3) 0.11210(18) 1.1201(3)
H20 H -0.0986 0.1297 1.0995
C19 C -0.0137(3) 0.05274(19) 1.1382(3)
H21 H -0.0795 0.0305 1.1295
C20 C 0.0929(3) 0.02570(15) 1.1689(3)
H22 H 0.0987 -0.0148 1.1812
C21 C 0.1939(2) 0.05734(12) 1.1824(2)
C22 C 0.0589(2) 0.21345(13) 1.1192(2)
H23 H 0.1218 0.2275 1.1008
C23 C 0.0786(3) 0.24240(17) 1.2278(3)
H24 H 0.0724 0.2845 1.2187
H25 H 0.1560 0.2324 1.2835
H26 H 0.0198 0.2286 1.2496
C24 C -0.0585(3) 0.23385(17) 1.0277(3)
H27 H -0.0716 0.2144 0.9603
H28 H -0.0563 0.2758 1.0185
H29 H -0.1217 0.2243 1.0467
C25 C 0.3126(2) 0.02649(11) 1.2226(2)
H30 H 0.3687 0.0540 1.2150
C26 C 0.3588(3) 0.01114(14) 1.3451(2)
H31 H 0.3680 0.0467 1.3867
H32 H 0.4339 -0.0084 1.3702
H33 H 0.3033 -0.0145 1.3549
C27 C 0.3054(3) -0.02874(13) 1.1542(3)
H34 H 0.2543 -0.0573 1.1640
H35 H 0.3831 -0.0452 1.1781
H36 H 0.2741 -0.0182 1.0779
C28 C 0.23109(16) 0.17025(8) 0.97181(14)
C29 C 0.26251(16) 0.12499(9) 0.92288(15)
C30 C 0.35553(17) 0.08246(9) 0.97737(16)
C31 C 0.35981(19) 0.04475(10) 0.89099(18)
H37 H 0.4110 0.0129 0.9043
C32 C 0.28089(19) 0.06184(10) 0.79061(15)
C33 C 0.20934(19) 0.11352(10) 0.80133(17)
H38 H 0.2172 0.1478 0.7620
H39 H 0.1261 0.1033 0.7730
C34 C 0.2718(3) 0.04274(19) 0.68119(19)
C35 C 0.3093(5) 0.0908(3) 0.6223(4)
H40 H 0.2585 0.1245 0.6086
H41 H 0.3030 0.0757 0.5536
H42 H 0.3898 0.1022 0.6678
C36 C 0.3491(4) -0.0118(2) 0.6917(4)
H43 H 0.3299 -0.0425 0.7300
H44 H 0.4312 -0.0015 0.7319
H45 H 0.3345 -0.0255 0.6196
C37 C 0.1423(4) 0.0265(2) 0.6052(4)
H46 H 0.1187 -0.0063 0.6359
H47 H 0.1355 0.0159 0.5339
H48 H 0.0921 0.0597 0.5984
N1 N 0.39901(13) 0.21166(7) 1.14382(12)
N2 N 0.28162(14) 0.15332(7) 1.17565(12)
O1 O 0.15171(12) 0.20902(6) 0.92839(11)
O2 O 0.42292(13) 0.07763(7) 1.07747(11)
C38? C 0.2447(5) 0.0244(3) 0.6915(4)
C39? C 0.2794(10) 0.0683(5) 0.6238(8)
H49? H 0.2353 0.1042 0.6139
H50? H 0.2619 0.0514 0.5532
H51? H 0.3626 0.0766 0.6620
C40? C 0.3160(9) -0.0331(4) 0.7117(8)
H52? H 0.3988 -0.0248 0.7541
H53? H 0.3033 -0.0502 0.6424
H54? H 0.2904 -0.0604 0.7513
C41? C 0.1120(6) 0.0092(4) 0.6329(8)
H55? H 0.0924 -0.0170 0.6782
H56? H 0.0946 -0.0097 0.5639
H57? H 0.0662 0.0447 0.6198
loop_
_geom_bond_atom_site_label_1
_geom_bond_atom_site_label_2
_geom_bond_site_symmetry_1
_geom_bond_site_symmetry_2
C1 C2 1_555 1_555
C2 C3 1_555 1_555
C3 H1 1_555 1_555
C4 C3 1_555 1_555
H2 C4 1_555 1_555
C5 C4 1_555 1_555
H3 C5 1_555 1_555
C6 C1 1_555 1_555
C7 C2 1_555 1_555
H4 C7 1_555 1_555
C8 C7 1_555 1_555
H5 C8 1_555 1_555
H6 C8 1_555 1_555
H7 C8 1_555 1_555
C9 C7 1_555 1_555
H8 C9 1_555 1_555
H9 C9 1_555 1_555
H10 C9 1_555 1_555
C10 C6 1_555 1_555
H11 C10 1_555 1_555
C11 C10 1_555 1_555
H12 C11 1_555 1_555
H13 C11 1_555 1_555
H14 C11 1_555 1_555
C12 C10 1_555 1_555
H15 C12 1_555 1_555
H16 C12 1_555 1_555
H17 C12 1_555 1_555
C13 H18 1_555 1_555
C14 C13 1_555 1_555
H19 C14 1_555 1_555
C15 C28 1_555 1_555
C16 C17 1_555 1_555
C17 C18 1_555 1_555
C18 H20 1_555 1_555
C19 C18 1_555 1_555
H21 C19 1_555 1_555
C20 C19 1_555 1_555
H22 C20 1_555 1_555
C21 C16 1_555 1_555
C22 C17 1_555 1_555
H23 C22 1_555 1_555
C23 C22 1_555 1_555
H24 C23 1_555 1_555
H25 C23 1_555 1_555
H26 C23 1_555 1_555
C24 C22 1_555 1_555
H27 C24 1_555 1_555
H28 C24 1_555 1_555
H29 C24 1_555 1_555
C25 C21 1_555 1_555
H30 C25 1_555 1_555
C26 C25 1_555 1_555
H31 C26 1_555 1_555
H32 C26 1_555 1_555
H33 C26 1_555 1_555
C27 C25 1_555 1_555
H34 C27 1_555 1_555
H35 C27 1_555 1_555
H36 C27 1_555 1_555
C28 C29 1_555 1_555
C29 C30 1_555 1_555
C30 C31 1_555 1_555
C31 H37 1_555 1_555
C32 C31 1_555 1_555
C33 C29 1_555 1_555
H38 C33 1_555 1_555
H39 C33 1_555 1_555
C34 C32 1_555 1_555
C35 C34 1_555 1_555
H40 C35 1_555 1_555
H41 C35 1_555 1_555
H42 C35 1_555 1_555
C36 C34 1_555 1_555
H43 C36 1_555 1_555
H44 C36 1_555 1_555
H45 C36 1_555 1_555
C37 C34 1_555 1_555
H46 C37 1_555 1_555
H47 C37 1_555 1_555
H48 C37 1_555 1_555
N1 C1 1_555 1_555
N2 C14 1_555 1_555
O1 C28 1_555 1_555
O2 C30 1_555 1_555
C5 C6 1_555 1_555
C13 N1 1_555 1_555
C15 N1 1_555 1_555
C15 N2 1_555 1_555
C16 N2 1_555 1_555
C20 C21 1_555 1_555
C32 C33 1_555 1_555

#END
