
#######################################################################
#
#                 Cambridge Crystallographic Data Centre
#                                CCDC 
#
#######################################################################
#
# If this CIF has been generated from an entry in the Cambridge 
# Structural Database, then it will include bibliographic, chemical, 
# crystal, experimental, refinement or atomic coordinate data resulting 
# from the CCDC's data processing and validation procedures.
#
#######################################################################

data_ZILPIV
_chemical_formula_moiety         'C16 H15 N1 O2'
_chemical_name_systematic        
5-(4-Methylphenyl)-3-phenyl-4,5-dihydro-1,2-oxazol-5-ol
_symmetry_cell_setting           monoclinic
_symmetry_space_group_name_H-M   'P 21/c'
_symmetry_Int_Tables_number      14
_space_group_name_Hall           '-P 2ybc'
loop_
_symmetry_equiv_pos_site_id
_symmetry_equiv_pos_as_xyz
1 x,y,z
2 -x,1/2+y,1/2-z
3 -x,-y,-z
4 x,1/2-y,1/2+z
_cell_length_a                   10.1203(9)
_cell_length_b                   9.4778(8)
_cell_length_c                   14.0262(13)
_cell_angle_alpha                90
_cell_angle_beta                 99.8160(10)
_cell_angle_gamma                90
_cell_volume                     1325.67
_cell_formula_units_Z            4
loop_
_atom_site_label
_atom_site_type_symbol
_atom_site_fract_x
_atom_site_fract_y
_atom_site_fract_z
C1 C 0.39595(13) 0.36718(13) 0.54253(8)
H1 H 0.4708 0.3244 0.5787
N1 N 0.45673(11) 0.27371(11) 0.30182(7)
O1 O 0.55589(9) 0.18279(9) 0.27592(5)
C2 C 0.30883(15) 0.44310(15) 0.58852(10)
H2 H 0.3255 0.4517 0.6555
O2 O 0.53224(9) -0.02942(9) 0.35437(6)
H3 H 0.5432 -0.0756 0.3069
C3 C 0.19751(15) 0.50600(16) 0.53572(11)
H4 H 0.1383 0.5557 0.5671
C4 C 0.17366(15) 0.49522(18) 0.43569(12)
H5 H 0.0992 0.5392 0.3999
C5 C 0.25981(14) 0.41973(16) 0.38932(10)
H6 H 0.2430 0.4122 0.3222
C6 C 0.37217(11) 0.35444(12) 0.44226(8)
C7 C 0.46437(11) 0.27154(12) 0.39404(8)
C8 C 0.57510(12) 0.17983(12) 0.44356(8)
H7 H 0.5453 0.1199 0.4918
H8 H 0.6515 0.2352 0.4738
C9 C 0.60777(12) 0.09391(12) 0.35864(8)
C10 C 0.75424(12) 0.06796(12) 0.35581(8)
C11 C 0.83174(14) 0.16931(15) 0.32060(10)
H9 H 0.7931 0.2546 0.2979
C12 C 0.96607(15) 0.14527(18) 0.31880(11)
H10 H 1.0161 0.2149 0.2947
C13 C 1.02782(14) 0.02025(17) 0.35200(9)
C14 C 0.94983(14) -0.07999(16) 0.38712(10)
H11 H 0.9887 -0.1650 0.4101
C15 C 0.81524(13) -0.05749(14) 0.38913(9)
H12 H 0.7653 -0.1274 0.4131
C16 C 1.17483(16) -0.0033(2) 0.35099(13)
H13 H 1.2270 0.0478 0.4034
H14 H 1.1964 0.0295 0.2907
H15 H 1.1947 -0.1021 0.3582
loop_
_geom_bond_atom_site_label_1
_geom_bond_atom_site_label_2
_geom_bond_site_symmetry_1
_geom_bond_site_symmetry_2
C1 H1 1_555 1_555
N1 O1 1_555 1_555
O1 C9 1_555 1_555
C2 C1 1_555 1_555
H2 C2 1_555 1_555
O2 H3 1_555 1_555
C3 C2 1_555 1_555
H4 C3 1_555 1_555
C4 C3 1_555 1_555
H5 C4 1_555 1_555
C5 C4 1_555 1_555
H6 C5 1_555 1_555
C6 C1 1_555 1_555
C7 N1 1_555 1_555
C8 C7 1_555 1_555
H7 C8 1_555 1_555
H8 C8 1_555 1_555
C9 O2 1_555 1_555
C10 C9 1_555 1_555
C11 C10 1_555 1_555
H9 C11 1_555 1_555
C12 C11 1_555 1_555
H10 C12 1_555 1_555
C13 C12 1_555 1_555
C14 C13 1_555 1_555
H11 C14 1_555 1_555
C15 C10 1_555 1_555
H12 C15 1_555 1_555
C16 C13 1_555 1_555
H13 C16 1_555 1_555
H14 C16 1_555 1_555
H15 C16 1_555 1_555
C5 C6 1_555 1_555
C6 C7 1_555 1_555
C8 C9 1_555 1_555
C14 C15 1_555 1_555

#END
