
#######################################################################
#
#                 Cambridge Crystallographic Data Centre
#                                CCDC 
#
#######################################################################
#
# If this CIF has been generated from an entry in the Cambridge 
# Structural Database, then it will include bibliographic, chemical, 
# crystal, experimental, refinement or atomic coordinate data resulting 
# from the CCDC's data processing and validation procedures.
#
#######################################################################

data_ZILVOI
_chemical_formula_moiety         'C21 H15 N1 O4'
_chemical_name_systematic        
'dimethyl 1-cyano-4-phenylnaphthalene-2,3-dicarboxylate'
_symmetry_cell_setting           monoclinic
_symmetry_space_group_name_H-M   'P 21/n'
_symmetry_Int_Tables_number      14
_space_group_name_Hall           '-P 2yn'
loop_
_symmetry_equiv_pos_site_id
_symmetry_equiv_pos_as_xyz
1 x,y,z
2 1/2-x,1/2+y,1/2-z
3 -x,-y,-z
4 1/2+x,1/2-y,1/2+z
_cell_length_a                   13.228(2)
_cell_length_b                   8.9299(14)
_cell_length_c                   14.873(2)
_cell_angle_alpha                90
_cell_angle_beta                 97.342(2)
_cell_angle_gamma                90
_cell_volume                     1742.46
_exptl_crystal_colour            white
_exptl_crystal_description       block
_cell_formula_units_Z            4
loop_
_atom_site_label
_atom_site_type_symbol
_atom_site_fract_x
_atom_site_fract_y
_atom_site_fract_z
C1 C -0.07727(10) 0.74603(17) 0.97108(10)
C2 C -0.02092(10) 0.81623(17) 1.04803(9)
C3 C -0.06845(12) 0.8955(2) 1.11318(11)
H1 H -0.1392 0.8982 1.1083
C4 C -0.01283(14) 0.9677(2) 1.18256(12)
H2 H -0.0454 1.0215 1.2240
C5 C 0.09397(14) 0.9616(2) 1.19217(12)
H3 H 0.1318 1.0111 1.2402
C6 C 0.14241(12) 0.88426(19) 1.13206(10)
H4 H 0.2132 0.8802 1.1399
C7 C 0.08708(10) 0.80934(17) 1.05750(9)
C8 C 0.13667(9) 0.73128(16) 0.99189(9)
C9 C 0.07925(10) 0.66401(16) 0.91897(9)
C10 C -0.02875(10) 0.67154(17) 0.90794(9)
C11 C -0.18700(11) 0.75830(19) 0.96245(11)
C12 C 0.25058(10) 0.73157(18) 0.99962(10)
C13 C 0.29940(14) 0.8321(2) 0.95055(15)
H5 H 0.2613 0.8989 0.9119
C14 C 0.40517(17) 0.8356(3) 0.9577(2)
H6 H 0.4374 0.9053 0.9246
C15 C 0.46153(14) 0.7374(4) 1.01304(19)
H7 H 0.5323 0.7392 1.0176
C16 C 0.41364(15) 0.6357(4) 1.06208(18)
H8 H 0.4522 0.5679 1.0996
C17 C 0.30821(13) 0.6329(3) 1.05625(14)
H9 H 0.2764 0.5646 1.0905
C18 C 0.13319(11) 0.59674(19) 0.84585(10)
C19 C 0.24594(19) 0.4044(3) 0.81366(17)
H10 H 0.2037 0.3684 0.7608
H11 H 0.2829 0.3221 0.8437
H12 H 0.2932 0.4769 0.7960
C20 C -0.09039(11) 0.6050(2) 0.82649(10)
C21 C -0.09979(15) 0.4145(2) 0.71683(13)
H13 H -0.1679 0.3844 0.7241
H14 H -0.0617 0.3288 0.7015
H15 H -0.1020 0.4875 0.6693
N1 N -0.27257(10) 0.7740(2) 0.96117(12)
O1 O 0.13299(11) 0.65183(17) 0.77265(8)
O2 O 0.18277(9) 0.47322(15) 0.87464(8)
O3 O -0.16709(10) 0.66078(18) 0.78941(9)
O4 O -0.05116(9) 0.47898(14) 0.80088(8)
loop_
_geom_bond_atom_site_label_1
_geom_bond_atom_site_label_2
_geom_bond_site_symmetry_1
_geom_bond_site_symmetry_2
C1 C2 1_555 1_555
C2 C3 1_555 1_555
C3 H1 1_555 1_555
C4 C3 1_555 1_555
H2 C4 1_555 1_555
C5 C4 1_555 1_555
H3 C5 1_555 1_555
C6 C5 1_555 1_555
H4 C6 1_555 1_555
C7 C2 1_555 1_555
C8 C7 1_555 1_555
C9 C8 1_555 1_555
C10 C1 1_555 1_555
C11 C1 1_555 1_555
C12 C8 1_555 1_555
C13 C12 1_555 1_555
H5 C13 1_555 1_555
C14 C13 1_555 1_555
H6 C14 1_555 1_555
C15 C14 1_555 1_555
H7 C15 1_555 1_555
C16 C15 1_555 1_555
H8 C16 1_555 1_555
C17 C12 1_555 1_555
H9 C17 1_555 1_555
C18 C9 1_555 1_555
C19 H10 1_555 1_555
H11 C19 1_555 1_555
H12 C19 1_555 1_555
C20 C10 1_555 1_555
C21 H13 1_555 1_555
H14 C21 1_555 1_555
H15 C21 1_555 1_555
N1 C11 1_555 1_555
O1 C18 1_555 1_555
O2 C18 1_555 1_555
O3 C20 1_555 1_555
O4 C20 1_555 1_555
C6 C7 1_555 1_555
C9 C10 1_555 1_555
C16 C17 1_555 1_555
C19 O2 1_555 1_555
C21 O4 1_555 1_555

#END
