
#######################################################################
#
#                 Cambridge Crystallographic Data Centre
#                                CCDC 
#
#######################################################################
#
# If this CIF has been generated from an entry in the Cambridge 
# Structural Database, then it will include bibliographic, chemical, 
# crystal, experimental, refinement or atomic coordinate data resulting 
# from the CCDC's data processing and validation procedures.
#
#######################################################################

data_ZILVEY
_chemical_formula_moiety         'C29 H26 Br1 N3 O5 S1'
_chemical_name_systematic        
2'-(2-bromophenyl)-4'-ethenyl-1,3-dimethyl-1'-[(4-methylphenyl)sulfonyl]-1',4'-dihydro-2H,2'H-spiro[pyrimidine-5,3'-quinoline]-2,4,6(1H,3H)-trione
_symmetry_cell_setting           orthorhombic
_symmetry_space_group_name_H-M   'P 21 21 21'
_symmetry_Int_Tables_number      19
_space_group_name_Hall           'P 2ac 2ab'
loop_
_symmetry_equiv_pos_site_id
_symmetry_equiv_pos_as_xyz
1 x,y,z
2 1/2-x,-y,1/2+z
3 -x,1/2+y,1/2-z
4 1/2+x,1/2-y,-z
_cell_length_a                   11.643(2)
_cell_length_b                   14.760(3)
_cell_length_c                   15.957(3)
_cell_angle_alpha                90
_cell_angle_beta                 90
_cell_angle_gamma                90
_cell_volume                     2742.22
_exptl_crystal_colour            colorless
_exptl_crystal_description       Prism
_cell_formula_units_Z            4
loop_
_atom_site_label
_atom_site_type_symbol
_atom_site_fract_x
_atom_site_fract_y
_atom_site_fract_z
Br1 Br -0.28427(3) 0.45014(3) 0.12653(3)
S1 S 0.05653(7) 0.28771(5) 0.05912(5)
O1 O -0.05568(18) 0.26761(14) 0.09033(12)
O2 O 0.15265(18) 0.23388(14) 0.08383(13)
O3 O -0.13731(18) 0.51545(15) -0.06336(13)
O4 O -0.2127(2) 0.74006(18) 0.11908(16)
O5 O 0.14965(19) 0.63165(15) 0.11326(12)
N1 N 0.08532(19) 0.39268(16) 0.09092(13)
N2 N -0.1680(2) 0.63691(18) 0.01971(16)
N3 N -0.0318(2) 0.68262(15) 0.12119(16)
C1 C 0.0531(3) 0.29301(19) -0.05074(18)
C2 C -0.0503(3) 0.3045(2) -0.09161(19)
H1 H -0.1203 0.3053 -0.0611
C3 C -0.0503(3) 0.3150(2) -0.1784(2)
H2 H -0.1213 0.3219 -0.2070
C4 C 0.0513(3) 0.3154(2) -0.2241(2)
C5 C 0.1539(3) 0.3029(2) -0.1808(2)
H3 H 0.2241 0.3024 -0.2111
C6 C 0.1561(3) 0.2913(2) -0.09500(19)
H4 H 0.2269 0.2822 -0.0666
C7 C 0.0515(4) 0.3285(3) -0.3177(2)
H5 H 0.1180 0.3652 -0.3338
H6 H -0.0192 0.3594 -0.3347
H7 H 0.0559 0.2693 -0.3453
C8 C 0.1988(2) 0.42683(19) 0.07273(17)
C9 C 0.2928(3) 0.39510(19) 0.11685(18)
H8 H 0.2833 0.3520 0.1605
C10 C 0.4008(3) 0.4273(2) 0.0962(2)
H9 H 0.4665 0.4063 0.1257
C11 C 0.4129(3) 0.4899(3) 0.0326(2)
H10 H 0.4874 0.5110 0.0181
C12 C 0.3182(3) 0.5225(2) -0.01039(19)
H11 H 0.3277 0.5667 -0.0531
C13 C 0.2093(3) 0.4906(2) 0.00909(17)
C14 C 0.1004(3) 0.5233(2) -0.03279(17)
H12 H 0.0694 0.4715 -0.0663
C15 C 0.1155(3) 0.6007(2) -0.09129(19)
H13 H 0.1475 0.6552 -0.0699
C16 C 0.0873(4) 0.5980(3) -0.1706(2)
H14 H 0.0551 0.5444 -0.1937
H15 H 0.0989 0.6497 -0.2051
C17 C 0.0099(2) 0.5451(2) 0.03707(16)
C18 C -0.0134(2) 0.4565(2) 0.09069(16)
H16 H -0.0794 0.4242 0.0639
C19 C -0.0491(3) 0.47871(19) 0.17928(18)
C20 C 0.0313(3) 0.5011(2) 0.23919(19)
H17 H 0.1107 0.4958 0.2263
C21 C -0.0018(4) 0.5315(2) 0.3184(2)
H18 H 0.0541 0.5493 0.3585
C22 C -0.1187(4) 0.5354(3) 0.3376(2)
H19 H -0.1421 0.5567 0.3911
C23 C -0.1997(4) 0.5093(2) 0.2812(2)
H20 H -0.2787 0.5095 0.2960
C24 C -0.1656(3) 0.4824(2) 0.20205(19)
C25 C -0.1045(3) 0.5644(2) -0.00757(18)
C26 C -0.1427(3) 0.6890(2) 0.0898(2)
C27 C 0.0512(3) 0.6228(2) 0.09215(17)
C28 C -0.2801(4) 0.6539(3) -0.0215(2)
H21 H -0.2864 0.6161 -0.0718
H22 H -0.2854 0.7179 -0.0373
H23 H -0.3424 0.6389 0.0174
C29 C -0.0010(4) 0.7452(2) 0.1890(2)
H24 H 0.0292 0.8015 0.1650
H25 H 0.0576 0.7172 0.2247
H26 H -0.0693 0.7587 0.2226
loop_
_geom_bond_atom_site_label_1
_geom_bond_atom_site_label_2
_geom_bond_site_symmetry_1
_geom_bond_site_symmetry_2
Br1 C24 1_555 1_555
S1 O1 1_555 1_555
O2 S1 1_555 1_555
O3 C25 1_555 1_555
O4 C26 1_555 1_555
O5 C27 1_555 1_555
N1 S1 1_555 1_555
N2 C25 1_555 1_555
N3 C26 1_555 1_555
C1 S1 1_555 1_555
C2 C1 1_555 1_555
H1 C2 1_555 1_555
C3 C2 1_555 1_555
H2 C3 1_555 1_555
C4 C3 1_555 1_555
C5 C4 1_555 1_555
H3 C5 1_555 1_555
C6 C1 1_555 1_555
H4 C6 1_555 1_555
C7 C4 1_555 1_555
H5 C7 1_555 1_555
H6 C7 1_555 1_555
H7 C7 1_555 1_555
C8 N1 1_555 1_555
C9 C8 1_555 1_555
H8 C9 1_555 1_555
C10 C9 1_555 1_555
H9 C10 1_555 1_555
C11 C10 1_555 1_555
H10 C11 1_555 1_555
C12 C11 1_555 1_555
H11 C12 1_555 1_555
C13 C8 1_555 1_555
C14 C13 1_555 1_555
H12 C14 1_555 1_555
C15 C14 1_555 1_555
H13 C15 1_555 1_555
C16 C15 1_555 1_555
H14 C16 1_555 1_555
H15 C16 1_555 1_555
C17 C14 1_555 1_555
C18 N1 1_555 1_555
H16 C18 1_555 1_555
C19 C18 1_555 1_555
C20 C19 1_555 1_555
H17 C20 1_555 1_555
C21 C20 1_555 1_555
H18 C21 1_555 1_555
C22 C21 1_555 1_555
H19 C22 1_555 1_555
C23 C22 1_555 1_555
H20 C23 1_555 1_555
C24 C19 1_555 1_555
C25 C17 1_555 1_555
C26 N2 1_555 1_555
C27 N3 1_555 1_555
C28 N2 1_555 1_555
H21 C28 1_555 1_555
H22 C28 1_555 1_555
H23 C28 1_555 1_555
C29 N3 1_555 1_555
H24 C29 1_555 1_555
H25 C29 1_555 1_555
H26 C29 1_555 1_555
C5 C6 1_555 1_555
C12 C13 1_555 1_555
C17 C18 1_555 1_555
C17 C27 1_555 1_555
C23 C24 1_555 1_555

#END
