
#######################################################################
#
#                 Cambridge Crystallographic Data Centre
#                                CCDC 
#
#######################################################################
#
# If this CIF has been generated from an entry in the Cambridge 
# Structural Database, then it will include bibliographic, chemical, 
# crystal, experimental, refinement or atomic coordinate data resulting 
# from the CCDC's data processing and validation procedures.
#
#######################################################################

data_ZILWOJ
_chemical_formula_moiety         'C18 H15 Cl1 F1 N3 O2'
_chemical_name_systematic        
4-[(4-chlorophenyl)amino]-7-fluoro-3a-methyl-2,3,3a,4-tetrahydropyrrolo[1,2-a]quinazoline-1,5-dione
_symmetry_cell_setting           monoclinic
_symmetry_space_group_name_H-M   'P 21/c'
_symmetry_Int_Tables_number      14
_space_group_name_Hall           '-P 2ybc'
loop_
_symmetry_equiv_pos_site_id
_symmetry_equiv_pos_as_xyz
1 x,y,z
2 -x,1/2+y,1/2-z
3 -x,-y,-z
4 x,1/2-y,1/2+z
_cell_length_a                   17.9876(17)
_cell_length_b                   12.9608(11)
_cell_length_c                   7.1986(6)
_cell_angle_alpha                90
_cell_angle_beta                 97.6650(10)
_cell_angle_gamma                90
_cell_volume                     1663.24
_exptl_crystal_colour            colorless
_exptl_crystal_description       block
_cell_formula_units_Z            4
loop_
_atom_site_label
_atom_site_type_symbol
_atom_site_fract_x
_atom_site_fract_y
_atom_site_fract_z
F1 F 0.5016(3) 0.3275(3) 0.6658(6)
Cl1 Cl -0.12746(12) 0.1307(2) 0.6474(4)
N1 N 0.3274(3) -0.0137(4) 0.7667(7)
N2 N 0.2452(3) 0.0936(4) 0.9125(7)
N3 N 0.1848(3) 0.1003(4) 1.0199(7)
H1 H 0.197(4) 0.137(4) 1.118(5)
O1 O 0.2452(2) 0.2667(3) 0.8618(6)
O2 O 0.3529(3) -0.1273(4) 0.5381(7)
C1 C 0.2751(3) 0.1827(5) 0.8536(8)
C2 C 0.3479(3) 0.1689(4) 0.7774(8)
C3 C 0.3914(4) 0.2557(5) 0.7554(8)
H2 H 0.3749 0.3212 0.7835
C4 C 0.4595(4) 0.2421(5) 0.6911(9)
C5 C 0.4867(4) 0.1475(6) 0.6478(9)
H3 H 0.5328 0.1418 0.6034
C6 C 0.4438(3) 0.0595(5) 0.6719(9)
H4 H 0.4615 -0.0056 0.6460
C7 C 0.3744(3) 0.0709(4) 0.7351(8)
C8 C 0.3211(3) -0.1053(4) 0.6714(8)
C9 C 0.2681(4) -0.1724(5) 0.7633(10)
H5 H 0.2955 -0.2238 0.8432
H6 H 0.2330 -0.2071 0.6700
C10 C 0.2272(4) -0.0969(5) 0.8795(9)
H7 H 0.1809 -0.0727 0.8084
H8 H 0.2159 -0.1291 0.9941
C11 C 0.2834(3) -0.0078(4) 0.9225(8)
C12 C 0.3318(4) -0.0216(5) 1.1083(9)
H9 H 0.3658 0.0355 1.1300
H10 H 0.3599 -0.0846 1.1067
H11 H 0.3007 -0.0247 1.2065
C13 C 0.1128(4) 0.1136(4) 0.9209(9)
C14 C 0.0539(4) 0.1327(6) 1.0262(10)
H12 H 0.0648 0.1416 1.1551
C15 C -0.0190(4) 0.1387(6) 0.9436(12)
H13 H -0.0574 0.1508 1.0154
C16 C -0.0343(4) 0.1265(6) 0.7548(13)
C17 C 0.0232(4) 0.1095(6) 0.6463(11)
H14 H 0.0120 0.1013 0.5173
C18 C 0.0967(4) 0.1047(5) 0.7304(9)
H15 H 0.1352 0.0955 0.6577
loop_
_geom_bond_atom_site_label_1
_geom_bond_atom_site_label_2
_geom_bond_site_symmetry_1
_geom_bond_site_symmetry_2
F1 C4 1_555 1_555
Cl1 C16 1_555 1_555
N1 C7 1_555 1_555
N2 N3 1_555 1_555
N3 H1 1_555 1_555
O1 C1 1_555 1_555
O2 C8 1_555 1_555
C1 N2 1_555 1_555
C2 C1 1_555 1_555
C3 C2 1_555 1_555
H2 C3 1_555 1_555
C4 C3 1_555 1_555
C5 C4 1_555 1_555
H3 C5 1_555 1_555
C6 C5 1_555 1_555
H4 C6 1_555 1_555
C7 C2 1_555 1_555
C8 N1 1_555 1_555
C9 C8 1_555 1_555
H5 C9 1_555 1_555
H6 C9 1_555 1_555
C10 C9 1_555 1_555
H7 C10 1_555 1_555
H8 C10 1_555 1_555
C11 N1 1_555 1_555
C12 C11 1_555 1_555
H9 C12 1_555 1_555
H10 C12 1_555 1_555
H11 C12 1_555 1_555
C13 N3 1_555 1_555
C14 C13 1_555 1_555
H12 C14 1_555 1_555
C15 C14 1_555 1_555
H13 C15 1_555 1_555
C16 C15 1_555 1_555
C17 C16 1_555 1_555
H14 C17 1_555 1_555
C18 C13 1_555 1_555
H15 C18 1_555 1_555
N2 C11 1_555 1_555
C6 C7 1_555 1_555
C10 C11 1_555 1_555
C17 C18 1_555 1_555

#END
