
#######################################################################
#
#                 Cambridge Crystallographic Data Centre
#                                CCDC 
#
#######################################################################
#
# If this CIF has been generated from an entry in the Cambridge 
# Structural Database, then it will include bibliographic, chemical, 
# crystal, experimental, refinement or atomic coordinate data resulting 
# from the CCDC's data processing and validation procedures.
#
#######################################################################

data_ZILXEZ
_chemical_formula_moiety         'C10 H8 Cl1 N3'
_chemical_name_systematic        2-((4-Chlorophenyl)diazenyl)-1H-pyrrole
_symmetry_cell_setting           triclinic
_symmetry_space_group_name_H-M   'P -1'
_symmetry_Int_Tables_number      2
_space_group_name_Hall           '-P 1'
loop_
_symmetry_equiv_pos_site_id
_symmetry_equiv_pos_as_xyz
1 x,y,z
2 -x,-y,-z
_cell_length_a                   7.6867(4)
_cell_length_b                   9.9521(6)
_cell_length_c                   12.7722(6)
_cell_angle_alpha                82.262(4)
_cell_angle_beta                 89.479(4)
_cell_angle_gamma                78.194(5)
_cell_volume                     947.509
_cell_formula_units_Z            4
loop_
_atom_site_label
_atom_site_type_symbol
_atom_site_fract_x
_atom_site_fract_y
_atom_site_fract_z
Cl1 Cl 0.41768(7) 0.89618(5) 0.65650(4)
C1 C 0.2692(2) 0.5753(2) 0.47413(15)
C2 C 0.2651(3) 0.5577(2) 0.58421(16)
H1 H 0.2290 0.4788 0.6210
C3 C 0.3133(2) 0.6547(2) 0.63999(15)
H2 H 0.3118 0.6420 0.7150
C4 C 0.3639(2) 0.7710(2) 0.58575(15)
C5 C 0.3709(2) 0.7897(2) 0.47678(15)
H3 H 0.4079 0.8685 0.4403
C6 C 0.3230(2) 0.6919(2) 0.42158(15)
H4 H 0.3267 0.7043 0.3466
N1 N 0.2196(2) 0.48367(17) 0.40748(13)
N2 N 0.1961(2) 0.36878(17) 0.45802(13)
C7 C 0.1512(3) 0.2792(2) 0.39405(15)
N3 N 0.1330(2) 0.30198(17) 0.28556(13)
H5 H 0.1471 0.3774 0.2447
C8 C 0.0897(3) 0.1892(2) 0.25214(17)
H6 H 0.0704 0.1785 0.1806
C9 C 0.0782(3) 0.0930(2) 0.33799(16)
H7 H 0.0491 0.0049 0.3368
C10 C 0.1174(3) 0.1486(2) 0.42793(16)
H8 H 0.1204 0.1050 0.4990
Cl2 Cl 0.62355(7) 0.10083(5) -0.17258(4)
C11 C 0.3177(3) 0.4100(2) 0.02534(15)
C12 C 0.3091(3) 0.4390(2) -0.08529(15)
H9 H 0.2374 0.5228 -0.1188
C13 C 0.4056(3) 0.3448(2) -0.14525(16)
H10 H 0.4010 0.3645 -0.2202
C14 C 0.5089(3) 0.2218(2) -0.09647(15)
C15 C 0.5197(3) 0.1931(2) 0.01261(16)
H11 H 0.5923 0.1096 0.0459
C16 C 0.4233(3) 0.2876(2) 0.07281(16)
H12 H 0.4298 0.2679 0.1477
N4 N 0.2201(2) 0.49838(17) 0.09442(13)
N5 N 0.1399(2) 0.61616(17) 0.04726(13)
C17 C 0.0458(3) 0.7032(2) 0.11221(15)
N6 N 0.0334(2) 0.67459(16) 0.22078(12)
H13 H 0.0853 0.5976 0.2602
C18 C -0.0728(3) 0.7857(2) 0.25636(17)
H14 H -0.1033 0.7927 0.3280
C19 C -0.1285(3) 0.8861(2) 0.17209(16)
H15 H -0.2028 0.9744 0.1750
C20 C -0.0559(3) 0.8345(2) 0.08126(17)
H16 H -0.0731 0.8810 0.0110
loop_
_geom_bond_atom_site_label_1
_geom_bond_atom_site_label_2
_geom_bond_site_symmetry_1
_geom_bond_site_symmetry_2
Cl1 C4 1_555 1_555
C1 C2 1_555 1_555
C2 H1 1_555 1_555
C3 C2 1_555 1_555
H2 C3 1_555 1_555
C4 C3 1_555 1_555
C5 C4 1_555 1_555
H3 C5 1_555 1_555
C6 C1 1_555 1_555
H4 C6 1_555 1_555
N1 C1 1_555 1_555
N2 N1 1_555 1_555
C7 N2 1_555 1_555
N3 C7 1_555 1_555
H5 N3 1_555 1_555
C8 N3 1_555 1_555
H6 C8 1_555 1_555
C9 C8 1_555 1_555
H7 C9 1_555 1_555
C10 C7 1_555 1_555
H8 C10 1_555 1_555
Cl2 C14 1_555 1_555
C11 C12 1_555 1_555
C12 H9 1_555 1_555
C13 C12 1_555 1_555
H10 C13 1_555 1_555
C14 C13 1_555 1_555
C15 C14 1_555 1_555
H11 C15 1_555 1_555
C16 C11 1_555 1_555
H12 C16 1_555 1_555
N4 C11 1_555 1_555
N5 N4 1_555 1_555
C17 N5 1_555 1_555
N6 C17 1_555 1_555
H13 N6 1_555 1_555
C18 N6 1_555 1_555
H14 C18 1_555 1_555
C19 C18 1_555 1_555
H15 C19 1_555 1_555
C20 C17 1_555 1_555
H16 C20 1_555 1_555
C5 C6 1_555 1_555
C9 C10 1_555 1_555
C15 C16 1_555 1_555
C19 C20 1_555 1_555

#END
