
#######################################################################
#
#                 Cambridge Crystallographic Data Centre
#                                CCDC 
#
#######################################################################
#
# If this CIF has been generated from an entry in the Cambridge 
# Structural Database, then it will include bibliographic, chemical, 
# crystal, experimental, refinement or atomic coordinate data resulting 
# from the CCDC's data processing and validation procedures.
#
#######################################################################

data_ZIMBEE
_chemical_name_common            'Ethenzamide hydrochloride'
_chemical_formula_moiety         'C9 H12 N1 O2 1+,Cl1 1-'
_chemical_name_systematic        
'(2-Ethoxyphenyl)(hydroxy)methaniminium chloride'
_symmetry_cell_setting           monoclinic
_symmetry_space_group_name_H-M   'P 21/c'
_symmetry_Int_Tables_number      14
_space_group_name_Hall           '-P 2ybc'
loop_
_symmetry_equiv_pos_site_id
_symmetry_equiv_pos_as_xyz
1 x,y,z
2 -x,1/2+y,1/2-z
3 -x,-y,-z
4 x,1/2-y,1/2+z
_cell_length_a                   7.5611(6)
_cell_length_b                   14.9501(11)
_cell_length_c                   10.3894(6)
_cell_angle_alpha                90
_cell_angle_beta                 123.740(4)
_cell_angle_gamma                90
_cell_volume                     976.6
_exptl_crystal_colour            colorless
_exptl_crystal_description       needle
_cell_formula_units_Z            4
loop_
_atom_site_label
_atom_site_type_symbol
_atom_site_fract_x
_atom_site_fract_y
_atom_site_fract_z
O1 O -0.34171(14) 0.14391(5) 0.30592(10)
O2 O -0.17597(13) -0.10446(5) 0.51635(9)
N1 N -0.29806(15) -0.00191(7) 0.27458(11)
C1 C -0.25855(16) 0.04870(7) 0.51242(12)
C2 C -0.28466(17) 0.12247(8) 0.58387(13)
C3 C -0.26193(18) 0.11355(8) 0.72464(13)
C4 C -0.20836(17) 0.03079(8) 0.79752(13)
C5 C -0.17688(17) -0.04287(8) 0.73140(13)
C6 C -0.20347(16) -0.03495(7) 0.58813(12)
C7 C -0.29927(16) 0.06255(7) 0.35825(12)
C8 C -0.15957(19) -0.19460(7) 0.57434(14)
C9 C -0.1593(2) -0.25656(8) 0.46010(15)
H1 H -0.282(2) -0.2064(9) 0.5802(15)
H2 H -0.029(2) -0.2003(9) 0.6769(16)
H3 H -0.322(2) 0.1755(10) 0.5335(16)
H4 H -0.135(2) -0.0971(10) 0.7822(17)
H5 H -0.162(2) -0.3195(11) 0.4905(18)
H6 H -0.195(2) 0.0248(10) 0.8971(18)
H7 H -0.283(2) 0.1637(10) 0.7692(17)
H8 H -0.283(2) -0.2487(10) 0.3603(19)
H9 H -0.029(3) -0.2482(10) 0.4584(17)
H10 H -0.276(2) -0.0545(11) 0.3091(18)
H11 H -0.330(3) 0.0099(11) 0.182(2)
H12 H -0.373(3) 0.1453(12) 0.201(3)
Cl1 Cl -0.41318(5) 0.139630(18) 0.00510(3)
loop_
_geom_bond_atom_site_label_1
_geom_bond_atom_site_label_2
_geom_bond_site_symmetry_1
_geom_bond_site_symmetry_2
O1 C7 1_555 1_555
O2 C6 1_555 1_555
N1 C7 1_555 1_555
C1 C2 1_555 1_555
C2 C3 1_555 1_555
C3 C4 1_555 1_555
C4 C5 1_555 1_555
C5 C6 1_555 1_555
C6 C1 1_555 1_555
C7 C1 1_555 1_555
C8 O2 1_555 1_555
C9 C8 1_555 1_555
H1 C8 1_555 1_555
H2 C8 1_555 1_555
H3 C2 1_555 1_555
H4 C5 1_555 1_555
H5 C9 1_555 1_555
H6 C4 1_555 1_555
H7 C3 1_555 1_555
H8 C9 1_555 1_555
H9 C9 1_555 1_555
H10 N1 1_555 1_555
H11 N1 1_555 1_555
H12 O1 1_555 1_555

#END
