
#######################################################################
#
#                 Cambridge Crystallographic Data Centre
#                                CCDC 
#
#######################################################################
#
# If this CIF has been generated from an entry in the Cambridge 
# Structural Database, then it will include bibliographic, chemical, 
# crystal, experimental, refinement or atomic coordinate data resulting 
# from the CCDC's data processing and validation procedures.
#
#######################################################################

data_ZIMBII
_chemical_name_common            'Ethenzamide hydrobromide'
_chemical_formula_moiety         'C9 H12 N1 O2 1+,Br1 1-'
_chemical_name_systematic        
'(2-Ethoxyphenyl)(hydroxy)methaniminium bromide'
_symmetry_cell_setting           monoclinic
_symmetry_space_group_name_H-M   'P 21/c'
_symmetry_Int_Tables_number      14
_space_group_name_Hall           '-P 2ybc'
loop_
_symmetry_equiv_pos_site_id
_symmetry_equiv_pos_as_xyz
1 x,y,z
2 -x,1/2+y,1/2-z
3 -x,-y,-z
4 x,1/2-y,1/2+z
_cell_length_a                   7.6316(6)
_cell_length_b                   15.2521(11)
_cell_length_c                   10.6249(6)
_cell_angle_alpha                90
_cell_angle_beta                 124.184(4)
_cell_angle_gamma                90
_cell_volume                     1023.06
_exptl_crystal_colour            colorless
_exptl_crystal_description       block
_cell_formula_units_Z            4
loop_
_atom_site_label
_atom_site_type_symbol
_atom_site_fract_x
_atom_site_fract_y
_atom_site_fract_z
O1 O -0.3425(2) 0.14018(8) -0.18504(15)
O2 O -0.1779(2) -0.10508(8) 0.01378(14)
N1 N -0.2952(2) -0.00147(11) -0.21875(18)
C1 C -0.1581(4) -0.25308(14) -0.0433(3)
C2 C -0.1597(3) -0.19397(12) 0.0686(2)
C3 C -0.2048(3) 0.02419(13) 0.2935(2)
C4 C -0.2564(3) 0.10581(13) 0.2247(2)
C5 C -0.1771(3) -0.04727(13) 0.2265(2)
C6 C -0.2803(3) 0.11598(12) 0.0872(2)
C7 C -0.2039(2) -0.03778(11) 0.08612(19)
C8 C -0.2570(2) 0.04470(10) 0.01473(18)
C9 C -0.2982(2) 0.05988(11) -0.13576(18)
H1 H -0.027(3) -0.1969(12) 0.171(2)
H2 H -0.320(3) 0.1686(14) 0.038(2)
H3 H -0.282(3) -0.2058(12) 0.074(2)
H4 H -0.274(3) 0.1541(13) 0.270(2)
H5 H -0.156(3) -0.3138(16) -0.018(2)
H6 H -0.275(3) -0.0514(15) -0.188(2)
H7 H -0.284(4) -0.2466(14) -0.143(3)
H8 H -0.329(3) 0.0092(15) -0.309(3)
H9 H -0.194(3) 0.0167(14) 0.387(3)
H10 H -0.140(3) -0.1028(15) 0.275(2)
H11 H -0.032(4) -0.2457(14) -0.044(2)
H12 H -0.362(4) 0.1454(16) -0.271(3)
Br1 Br 0.40829(3) -0.141942(11) 0.495462(19)
loop_
_geom_bond_atom_site_label_1
_geom_bond_atom_site_label_2
_geom_bond_site_symmetry_1
_geom_bond_site_symmetry_2
O1 C9 1_555 1_555
O2 C2 1_555 1_555
N1 C9 1_555 1_555
C1 C2 1_555 1_555
C2 H1 1_555 1_555
C3 C4 1_555 1_555
C4 C6 1_555 1_555
C5 C3 1_555 1_555
C6 C8 1_555 1_555
C7 O2 1_555 1_555
C8 C7 1_555 1_555
C9 C8 1_555 1_555
H2 C6 1_555 1_555
H3 C2 1_555 1_555
H4 C4 1_555 1_555
H5 C1 1_555 1_555
H6 N1 1_555 1_555
H7 C1 1_555 1_555
H8 N1 1_555 1_555
H9 C3 1_555 1_555
H10 C5 1_555 1_555
H11 C1 1_555 1_555
H12 O1 1_555 1_555
C5 C7 1_555 1_555

#END
