
#######################################################################
#
#                 Cambridge Crystallographic Data Centre
#                                CCDC 
#
#######################################################################
#
# If this CIF has been generated from an entry in the Cambridge 
# Structural Database, then it will include bibliographic, chemical, 
# crystal, experimental, refinement or atomic coordinate data resulting 
# from the CCDC's data processing and validation procedures.
#
#######################################################################

data_ZIMBUV
_chemical_formula_moiety         'C29 H24 Cl2 N4 O2'
_chemical_name_systematic        
2-[1,3-bis(2,4,6-trimethylphenyl)-1,3-dihydro-2H-imidazol-2-ylidene]-3-(3,4-dichloro-5-oxofuran-2(5H)-ylidene)butanedinitrile
_symmetry_cell_setting           monoclinic
_symmetry_space_group_name_H-M   'P 21/c'
_symmetry_Int_Tables_number      14
_space_group_name_Hall           '-P 2ybc'
loop_
_symmetry_equiv_pos_site_id
_symmetry_equiv_pos_as_xyz
1 x,y,z
2 -x,1/2+y,1/2-z
3 -x,-y,-z
4 x,1/2-y,1/2+z
_cell_length_a                   9.11650(10)
_cell_length_b                   17.6729(2)
_cell_length_c                   16.5085(2)
_cell_angle_alpha                90
_cell_angle_beta                 94.4057(7)
_cell_angle_gamma                90
_cell_volume                     2651.91
_exptl_crystal_colour            'dark purple'
_exptl_crystal_description       block
_cell_formula_units_Z            4
loop_
_atom_site_label
_atom_site_type_symbol
_atom_site_fract_x
_atom_site_fract_y
_atom_site_fract_z
C1 C 0.1004(2) 0.26329(10) 0.93614(11)
C2 C -0.0081(2) 0.30205(11) 0.97450(14)
H1 H -0.0582 0.3413 0.9469
C3 C -0.0438(2) 0.28430(12) 1.05192(14)
C4 C 0.0318(2) 0.22619(12) 1.09287(12)
H2 H 0.0099 0.2148 1.1456
C5 C 0.13956(19) 0.18415(10) 1.05773(11)
C6 C 0.17126(17) 0.20449(9) 0.97907(10)
C7 C 0.1345(3) 0.28565(12) 0.85151(13)
H3 H 0.2336 0.2713 0.8428
H4 H 0.1238 0.3394 0.8452
H5 H 0.0677 0.2604 0.8126
C8 C -0.1639(3) 0.32712(16) 1.09155(19)
H6 H -0.2584 0.3114 1.0677
H7 H -0.1519 0.3805 1.0832
H8 H -0.1573 0.3165 1.1488
C9 C 0.2128(2) 0.11890(12) 1.10304(12)
H9 H 0.3151 0.1301 1.1153
H10 H 0.2033 0.0741 1.0701
H11 H 0.1667 0.1107 1.1527
C10 C 0.43040(18) 0.15861(11) 0.96892(11)
H12 H 0.4758 0.1874 1.0108
C11 C 0.49554(18) 0.10749(10) 0.92403(10)
H13 H 0.5949 0.0949 0.9286
C12 C 0.25733(16) 0.11103(9) 0.87951(9)
C13 C 0.40406(16) 0.00778(9) 0.82340(9)
C14 C 0.32260(18) -0.05572(10) 0.84311(10)
C15 C 0.3305(2) -0.11888(10) 0.79401(11)
H14 H 0.2754 -0.1613 0.8053
C16 C 0.4176(2) -0.12151(11) 0.72842(11)
C17 C 0.5033(2) -0.05908(11) 0.71499(10)
H15 H 0.5661 -0.0610 0.6732
C18 C 0.50010(17) 0.00649(10) 0.76102(10)
C19 C 0.2308(2) -0.05938(11) 0.91507(11)
H16 H 0.1306 -0.0471 0.8980
H17 H 0.2680 -0.0238 0.9556
H18 H 0.2354 -0.1095 0.9375
C20 C 0.4168(3) -0.19119(13) 0.67575(14)
H19 H 0.3847 -0.1779 0.6208
H20 H 0.3509 -0.2280 0.6955
H21 H 0.5143 -0.2120 0.6773
C21 C 0.60099(19) 0.07139(12) 0.74518(12)
H22 H 0.6939 0.0641 0.7756
H23 H 0.5576 0.1179 0.7615
H24 H 0.6157 0.0735 0.6883
C22 C 0.12096(16) 0.09514(9) 0.83453(9)
C23 C -0.01043(18) 0.09377(11) 0.87504(10)
C24 C 0.11441(16) 0.07209(9) 0.75078(9)
C25 C 0.00466(19) 0.01661(10) 0.72580(11)
C26 C 0.20250(17) 0.09881(9) 0.69380(9)
C27 C 0.23353(19) 0.07384(10) 0.61441(10)
C28 C 0.3338(2) 0.12073(11) 0.58599(10)
C29 C 0.3697(2) 0.17871(11) 0.64556(11)
Cl1 Cl 0.41415(7) 0.11577(4) 0.49707(3)
Cl2 Cl 0.16076(7) -0.00323(4) 0.56581(3)
N1 N 0.28224(14) 0.16094(8) 0.94151(8)
N2 N 0.38850(13) 0.07657(8) 0.86939(8)
N3 N -0.11982(18) 0.09098(12) 0.90477(10)
N4 N -0.0865(2) -0.02643(11) 0.70979(13)
O1 O 0.45007(16) 0.23237(8) 0.64556(9)
O2 O 0.29008(12) 0.16191(7) 0.71190(7)
loop_
_geom_bond_atom_site_label_1
_geom_bond_atom_site_label_2
_geom_bond_site_symmetry_1
_geom_bond_site_symmetry_2
C1 C2 1_555 1_555
C2 H1 1_555 1_555
C3 C2 1_555 1_555
C4 C3 1_555 1_555
H2 C4 1_555 1_555
C5 C4 1_555 1_555
C6 C1 1_555 1_555
C7 C1 1_555 1_555
H3 C7 1_555 1_555
H4 C7 1_555 1_555
H5 C7 1_555 1_555
C8 C3 1_555 1_555
H6 C8 1_555 1_555
H7 C8 1_555 1_555
H8 C8 1_555 1_555
C9 C5 1_555 1_555
H9 C9 1_555 1_555
H10 C9 1_555 1_555
H11 C9 1_555 1_555
C10 H12 1_555 1_555
C11 C10 1_555 1_555
H13 C11 1_555 1_555
C12 C22 1_555 1_555
C13 C14 1_555 1_555
C14 C15 1_555 1_555
C15 H14 1_555 1_555
C16 C15 1_555 1_555
C17 C16 1_555 1_555
H15 C17 1_555 1_555
C18 C13 1_555 1_555
C19 C14 1_555 1_555
H16 C19 1_555 1_555
H17 C19 1_555 1_555
H18 C19 1_555 1_555
C20 C16 1_555 1_555
H19 C20 1_555 1_555
H20 C20 1_555 1_555
H21 C20 1_555 1_555
C21 C18 1_555 1_555
H22 C21 1_555 1_555
H23 C21 1_555 1_555
H24 C21 1_555 1_555
C22 C23 1_555 1_555
C23 N3 1_555 1_555
C24 C22 1_555 1_555
C25 C24 1_555 1_555
C26 C24 1_555 1_555
C27 C26 1_555 1_555
C28 C27 1_555 1_555
C29 C28 1_555 1_555
Cl1 C28 1_555 1_555
Cl2 C27 1_555 1_555
N1 C6 1_555 1_555
N2 C11 1_555 1_555
N4 C25 1_555 1_555
O1 C29 1_555 1_555
O2 C26 1_555 1_555
C5 C6 1_555 1_555
C10 N1 1_555 1_555
C12 N1 1_555 1_555
C12 N2 1_555 1_555
C13 N2 1_555 1_555
C17 C18 1_555 1_555
C29 O2 1_555 1_555

#END
