
#######################################################################
#
#                 Cambridge Crystallographic Data Centre
#                                CCDC 
#
#######################################################################
#
# If this CIF has been generated from an entry in the Cambridge 
# Structural Database, then it will include bibliographic, chemical, 
# crystal, experimental, refinement or atomic coordinate data resulting 
# from the CCDC's data processing and validation procedures.
#
#######################################################################

data_ZIMCIJ
_chemical_name_common            'Salicylamide perchlorate'
_chemical_formula_moiety         'C7 H8 N1 O2 1+,Cl1 O4 1-'
_chemical_name_systematic        
'Hydroxy(2-hydroxyphenyl)methaniminium perchlorate'
_symmetry_cell_setting           monoclinic
_symmetry_space_group_name_H-M   'C 2/c'
_symmetry_Int_Tables_number      15
_space_group_name_Hall           '-C 2yn'
loop_
_symmetry_equiv_pos_site_id
_symmetry_equiv_pos_as_xyz
1 x,y,z
2 -x,y,1/2-z
3 1/2+x,1/2+y,z
4 1/2-x,1/2+y,1/2-z
5 -x,-y,-z
6 x,-y,1/2+z
7 1/2-x,1/2-y,-z
8 1/2+x,1/2-y,1/2+z
_cell_length_a                   18.6631(17)
_cell_length_b                   5.1858(5)
_cell_length_c                   20.1660(18)
_cell_angle_alpha                90
_cell_angle_beta                 106.8520(10)
_cell_angle_gamma                90
_cell_volume                     1867.91
_cell_formula_units_Z            8
loop_
_atom_site_label
_atom_site_type_symbol
_atom_site_fract_x
_atom_site_fract_y
_atom_site_fract_z
Cl1 Cl 0.12975(2) 0.42906(8) 0.42066(2)
O1 O 0.07559(7) 0.4163(3) 0.45952(7)
O2 O 0.09515(9) 0.5659(3) 0.35674(7)
O3 O 0.19425(8) 0.5684(3) 0.45994(8)
O4 O 0.14983(8) 0.1767(3) 0.40546(9)
O5 O -0.00244(8) 0.9579(3) 0.32993(7)
O6 O -0.14934(9) 1.0605(3) 0.44672(8)
C1 C -0.04432(10) 0.9762(3) 0.37150(9)
C2 C -0.20694(11) 1.5701(4) 0.31796(10)
C3 C -0.15713(11) 1.5336(4) 0.27953(10)
N1 N -0.03465(9) 0.8252(3) 0.42437(8)
C4 C -0.15268(10) 1.2174(3) 0.39226(9)
C5 C -0.10146(10) 1.1779(3) 0.35394(9)
C6 C -0.10494(10) 1.3389(4) 0.29710(9)
C7 C -0.20539(11) 1.4138(4) 0.37349(10)
H1 H -0.0702(10) 1.311(4) 0.2705(9)
H2 H -0.2451(12) 1.702(4) 0.3050(11)
H3 H -0.1590(11) 1.637(4) 0.2417(11)
H4 H -0.0645(12) 0.834(4) 0.4487(11)
H5 H -0.2371(13) 1.437(4) 0.4004(11)
H6 H 0.0000(13) 0.704(5) 0.4339(12)
H7 H 0.0286(15) 0.860(5) 0.3420(13)
H8 H -0.1824(16) 1.098(5) 0.4635(15)
loop_
_geom_bond_atom_site_label_1
_geom_bond_atom_site_label_2
_geom_bond_site_symmetry_1
_geom_bond_site_symmetry_2
Cl1 O1 1_555 1_555
O2 Cl1 1_555 1_555
O3 Cl1 1_555 1_555
O4 Cl1 1_555 1_555
O5 C1 1_555 1_555
O6 C4 1_555 1_555
C1 N1 1_555 1_555
C2 C3 1_555 1_555
C3 C6 1_555 1_555
N1 H4 1_555 1_555
C4 C5 1_555 1_555
C5 C1 1_555 1_555
C6 C5 1_555 1_555
C7 C2 1_555 1_555
H1 C6 1_555 1_555
H2 C2 1_555 1_555
H3 C3 1_555 1_555
H5 C7 1_555 1_555
H6 N1 1_555 1_555
H7 O5 1_555 1_555
H8 O6 1_555 1_555
C4 C7 1_555 1_555

#END
