
#######################################################################
#
#                 Cambridge Crystallographic Data Centre
#                                CCDC 
#
#######################################################################
#
# If this CIF has been generated from an entry in the Cambridge 
# Structural Database, then it will include bibliographic, chemical, 
# crystal, experimental, refinement or atomic coordinate data resulting 
# from the CCDC's data processing and validation procedures.
#
#######################################################################

data_ZIMDEG
_chemical_name_common            'bis(Phenacetin) bis(hydrochloride) trihydrate'
_chemical_formula_moiety         
'H3 O1 1+,C10 H14 N1 O2 1+,C10 H13 N1 O2,2(Cl1 1-),2(H2 O1)'
_chemical_name_systematic        
'Oxonium N-acetyl-4-ethoxyanilinium N-(4-ethoxyphenyl)acetamide dichloride dihydrate'
_symmetry_cell_setting           triclinic
_symmetry_space_group_name_H-M   'P -1'
_symmetry_Int_Tables_number      2
_space_group_name_Hall           '-P 1'
loop_
_symmetry_equiv_pos_site_id
_symmetry_equiv_pos_as_xyz
1 x,y,z
2 -x,-y,-z
_cell_length_a                   6.7923(4)
_cell_length_b                   13.4759(8)
_cell_length_c                   14.1913(8)
_cell_angle_alpha                76.1270(10)
_cell_angle_beta                 77.3120(10)
_cell_angle_gamma                87.9620(10)
_cell_volume                     1230.08
_cell_formula_units_Z            2
loop_
_atom_site_label
_atom_site_type_symbol
_atom_site_fract_x
_atom_site_fract_y
_atom_site_fract_z
Cl1 Cl 0.21234(8) 0.94548(4) 0.08278(4)
Cl2 Cl -0.67938(8) 1.05007(4) 0.39982(4)
O1 O -0.1520(3) 1.02750(12) 0.19296(14)
H1 H -0.050(5) 0.994(2) 0.162(2)
H2 H -0.296(5) 1.003(2) 0.199(2)
H3 H -0.152(5) 1.015(2) 0.263(2)
O2 O -0.4725(2) 1.33840(10) 0.06939(10)
O3 O -1.1440(2) 1.44949(10) -0.19818(11)
N1 N -1.0896(2) 1.28843(11) -0.11883(11)
H4 H -1.1288 1.2242 -0.1070
C1 C -0.9297(3) 1.30496(14) -0.07360(13)
C2 C -0.6225(3) 1.32159(14) 0.02359(13)
C3 C -0.6871(3) 1.22519(14) 0.02157(14)
H5 H -0.6272 1.1652 0.0532
C4 C -0.8400(3) 1.21814(14) -0.02733(13)
H6 H -0.8843 1.1527 -0.0292
C5 C -0.8643(3) 1.40172(14) -0.07177(14)
H7 H -0.9237 1.4616 -0.1038
C6 C -1.1871(3) 1.35414(14) -0.17526(14)
C7 C -0.7118(3) 1.40912(14) -0.02270(14)
H8 H -0.6678 1.4745 -0.0206
C8 C -1.3490(3) 1.31543(15) -0.21444(14)
H9 H -1.4073 1.3730 -0.2554
H10 H -1.4547 1.2804 -0.1587
H11 H -1.2910 1.2676 -0.2549
C9 C -0.3862(3) 1.25030(15) 0.12512(14)
H12 H -0.3214 1.2062 0.0809
H13 H -0.4922 1.2097 0.1784
C10 C -0.2313(3) 1.29066(16) 0.16930(15)
H14 H -0.1682 1.2332 0.2080
H15 H -0.2976 1.3341 0.2128
H16 H -0.1277 1.3308 0.1157
O4 O -1.0232(2) 0.65880(10) 0.42973(10)
O5 O -0.3377(2) 0.55242(10) 0.69097(11)
N2 N -0.4108(2) 0.71346(11) 0.61908(11)
H17 H -0.3788 0.7782 0.6103
C11 C -0.8736(3) 0.67638(14) 0.47530(13)
C12 C -0.6507(3) 0.78122(14) 0.52172(13)
H18 H -0.6025 0.8470 0.5202
C13 C -0.6381(3) 0.59809(14) 0.57542(14)
H19 H -0.5827 0.5386 0.6106
C14 C -0.5676(3) 0.69531(14) 0.57285(13)
C15 C -0.8031(3) 0.77313(14) 0.47261(14)
H20 H -0.8585 0.8327 0.4377
C16 C -1.2696(3) 0.70622(16) 0.33237(15)
H21 H -1.3333 0.7638 0.2942
H22 H -1.3722 0.6666 0.3868
H23 H -1.2059 0.6624 0.2887
C17 C -0.3066(3) 0.64830(14) 0.67283(14)
C18 C -1.1111(3) 0.74632(15) 0.37469(14)
H24 H -1.0063 0.7866 0.3204
H25 H -1.1734 0.7909 0.4190
C19 C -0.7897(3) 0.58937(14) 0.52614(14)
H26 H -0.8368 0.5235 0.5270
C20 C -0.1503(3) 0.68923(15) 0.71408(14)
H27 H -0.0858 0.6322 0.7526
H28 H -0.2147 0.7334 0.7573
H29 H -0.0483 0.7289 0.6593
O6 O -0.4934(3) 0.95297(14) 0.22010(16)
H30 H -0.571(6) 0.991(3) 0.271(3)
H31 H -0.542(5) 0.962(2) 0.171(3)
O7 O -0.1034(3) 1.01743(17) 0.36538(16)
H32 H -0.179(5) 1.005(3) 0.415(3)
H33 H 0.010(5) 1.027(2) 0.370(2)
loop_
_geom_bond_atom_site_label_1
_geom_bond_atom_site_label_2
_geom_bond_site_symmetry_1
_geom_bond_site_symmetry_2
O1 H1 1_555 1_555
H2 O1 1_555 1_555
H3 O1 1_555 1_555
O2 C2 1_555 1_555
O3 C6 1_555 1_555
N1 H4 1_555 1_555
C1 N1 1_555 1_555
C2 C3 1_555 1_555
C3 H5 1_555 1_555
C4 C1 1_555 1_555
H6 C4 1_555 1_555
C5 C1 1_555 1_555
H7 C5 1_555 1_555
C6 N1 1_555 1_555
C7 C2 1_555 1_555
H8 C7 1_555 1_555
C8 C6 1_555 1_555
H9 C8 1_555 1_555
H10 C8 1_555 1_555
H11 C8 1_555 1_555
C9 O2 1_555 1_555
H12 C9 1_555 1_555
H13 C9 1_555 1_555
C10 C9 1_555 1_555
H14 C10 1_555 1_555
H15 C10 1_555 1_555
H16 C10 1_555 1_555
O4 C11 1_555 1_555
O5 C17 1_555 1_555
N2 H17 1_555 1_555
C11 C15 1_555 1_555
C12 H18 1_555 1_555
C13 H19 1_555 1_555
C14 N2 1_555 1_555
C15 C12 1_555 1_555
H20 C15 1_555 1_555
C16 H21 1_555 1_555
H22 C16 1_555 1_555
H23 C16 1_555 1_555
C17 N2 1_555 1_555
C18 O4 1_555 1_555
H24 C18 1_555 1_555
H25 C18 1_555 1_555
C19 C11 1_555 1_555
H26 C19 1_555 1_555
C20 C17 1_555 1_555
H27 C20 1_555 1_555
H28 C20 1_555 1_555
H29 C20 1_555 1_555
O6 H30 1_555 1_555
H31 O6 1_555 1_555
O7 H32 1_555 1_555
H33 O7 1_555 1_555
C3 C4 1_555 1_555
C5 C7 1_555 1_555
C12 C14 1_555 1_555
C13 C14 1_555 1_555
C13 C19 1_555 1_555
C16 C18 1_555 1_555

#END
