
#######################################################################
#
#                 Cambridge Crystallographic Data Centre
#                                CCDC 
#
#######################################################################
#
# If this CIF has been generated from an entry in the Cambridge 
# Structural Database, then it will include bibliographic, chemical, 
# crystal, experimental, refinement or atomic coordinate data resulting 
# from the CCDC's data processing and validation procedures.
#
#######################################################################

data_ZIMGUZ
_chemical_name_common            'bis(Phenacetin) hydrobromide'
_chemical_formula_moiety         'C10 H14 N1 O2 1+,C10 H13 N1 O2,Br1 1-'
_chemical_name_systematic        
'4-Ethoxy-N-(1-hydroxyethylidene)anilinium N-(4-ethoxyphenyl)acetamide bromide'
_symmetry_cell_setting           monoclinic
_symmetry_space_group_name_H-M   'P 21/c'
_symmetry_Int_Tables_number      14
_space_group_name_Hall           '-P 2ybc'
loop_
_symmetry_equiv_pos_site_id
_symmetry_equiv_pos_as_xyz
1 x,y,z
2 -x,1/2+y,1/2-z
3 -x,-y,-z
4 x,1/2-y,1/2+z
_cell_length_a                   13.3000(7)
_cell_length_b                   12.1554(7)
_cell_length_c                   28.5010(14)
_cell_angle_alpha                90
_cell_angle_beta                 111.742(2)
_cell_angle_gamma                90
_cell_volume                     4279.88
_exptl_crystal_colour            colorless
_exptl_crystal_description       Needles
_cell_formula_units_Z            8
loop_
_atom_site_label
_atom_site_type_symbol
_atom_site_fract_x
_atom_site_fract_y
_atom_site_fract_z
O1 O -0.09037(11) 0.14561(11) 0.00410(4)
O2 O -0.26125(9) -0.11619(9) -0.20679(4)
N1 N -0.30649(12) 0.05974(12) -0.20047(5)
C1 C -0.11717(18) 0.03742(17) -0.06687(7)
C2 C -0.16813(17) 0.01136(17) -0.11716(7)
C3 C -0.0471(2) 0.2337(2) 0.08282(8)
C4 C -0.11694(18) 0.23913(18) 0.02752(7)
C5 C -0.37352(16) -0.02433(16) -0.28280(7)
C6 C -0.22662(15) 0.19759(15) -0.07701(7)
C7 C -0.27832(15) 0.17172(15) -0.12770(6)
C8 C -0.14575(15) 0.12948(15) -0.04629(6)
C9 C -0.25046(13) 0.07863(14) -0.14799(6)
C10 C -0.30952(13) -0.02892(13) -0.22727(6)
H1 H -0.3402(15) 0.1109(16) -0.2154(7)
H2 H -0.4050(17) 0.0444(17) -0.2929(7)
H3 H -0.3254(17) -0.0424(16) -0.2999(8)
H4 H -0.3327(16) 0.2186(16) -0.1491(7)
H5 H 0.028(2) 0.2347(17) 0.0876(8)
H6 H -0.2468(17) 0.2633(17) -0.0642(8)
H7 H -0.2004(19) 0.2344(16) 0.0200(8)
H8 H -0.4260(17) -0.0774(18) -0.2895(8)
H9 H -0.1477(18) -0.0479(18) -0.1301(8)
H10 H -0.1054(17) 0.3022(18) 0.0112(8)
H11 H -0.061(2) 0.295(2) 0.0990(10)
H12 H -0.062(2) -0.0054(19) -0.0453(9)
H13 H -0.063(2) 0.162(2) 0.0969(9)
H14 H -0.257(2) -0.174(3) -0.2333(11)
O3 O -0.38991(11) -0.39617(11) -0.50146(4)
O4 O -0.25300(9) -0.24454(9) -0.27076(4)
N2 N -0.14920(12) -0.35896(12) -0.29540(5)
C11 C -0.4495(2) -0.4733(2) -0.58351(8)
C12 C -0.37521(19) -0.4888(2) -0.52929(8)
C13 C -0.25271(16) -0.46930(16) -0.42479(7)
C14 C -0.34629(16) -0.30126(16) -0.42529(7)
C15 C -0.08658(15) -0.30690(16) -0.20761(7)
C16 C -0.19569(15) -0.45640(15) -0.37337(7)
C17 C -0.28906(16) -0.28782(15) -0.37437(7)
C18 C -0.16783(13) -0.30129(13) -0.26011(6)
C19 C -0.21304(13) -0.36649(13) -0.34787(6)
C20 C -0.32888(14) -0.39152(15) -0.45089(6)
H15 H -0.1443(17) -0.5075(17) -0.3555(7)
H16 H -0.2955(17) -0.2262(17) -0.3580(8)
H17 H -0.2382(16) -0.5290(16) -0.4402(7)
H18 H -0.0413(17) -0.3683(18) -0.2027(8)
H19 H -0.3963(17) -0.2496(16) -0.4437(8)
H20 H -0.526(2) -0.4694(18) -0.5862(9)
H21 H -0.0461(18) -0.2431(18) -0.2032(8)
H22 H -0.0930(17) -0.4001(16) -0.2847(7)
H23 H -0.295(2) -0.4876(19) -0.5240(8)
H24 H -0.1192(18) -0.3107(18) -0.1841(8)
H25 H -0.434(2) -0.402(2) -0.5959(9)
H26 H -0.3926(19) -0.553(2) -0.5148(9)
H27 H -0.442(2) -0.536(2) -0.6015(10)
O5 O 0.42056(11) -0.37749(11) 0.00997(5)
O6 O 0.23764(9) -0.14410(9) -0.20764(4)
N3 N 0.20164(11) -0.32101(12) -0.19682(5)
C21 C 0.4616(2) -0.4518(3) 0.09147(8)
C22 C 0.39393(17) -0.28222(17) -0.06453(7)
C23 C 0.34221(17) -0.26373(16) -0.11567(7)
C24 C 0.36433(15) -0.36859(15) -0.04085(6)
C25 C 0.39220(18) -0.4647(2) 0.03636(7)
C26 C 0.12930(16) -0.24613(16) -0.28117(7)
C27 C 0.28223(15) -0.43911(16) -0.06910(7)
C28 C 0.25849(13) -0.33289(14) -0.14378(6)
C29 C 0.23020(15) -0.42024(15) -0.12049(7)
C30 C 0.19371(13) -0.23488(13) -0.22589(6)
H28 H 0.1673(16) -0.3785(16) -0.2106(7)
H29 H 0.1029(15) -0.3170(17) -0.2885(7)
H30 H 0.3635(17) -0.2085(17) -0.1304(8)
H31 H 0.1775(16) -0.4680(16) -0.1393(7)
H32 H 0.2624(16) -0.4993(17) -0.0527(8)
H33 H 0.1761(18) -0.2262(17) -0.2993(8)
H34 H 0.0728(17) -0.1977(18) -0.2878(8)
H35 H 0.538(2) -0.4572(18) 0.0972(9)
H36 H 0.3142(19) -0.4584(17) 0.0319(8)
H37 H 0.4519(19) -0.2363(19) -0.0445(9)
H38 H 0.239(2) -0.090(3) -0.2366(11)
H39 H 0.4039(18) -0.5347(19) 0.0222(8)
H40 H 0.450(2) -0.377(2) 0.1043(10)
H41 H 0.453(2) -0.512(2) 0.1111(11)
O7 O 0.90036(11) -0.37212(11) 0.00722(5)
O8 O 0.75874(9) -0.52119(9) -0.22546(4)
N4 N 0.65938(12) -0.40396(12) -0.19916(5)
C31 C 0.9547(2) -0.3001(3) 0.09013(8)
C32 C 0.85854(16) -0.46369(16) -0.06966(7)
C33 C 0.88193(19) -0.2827(2) 0.03596(8)
C34 C 0.80147(16) -0.47585(15) -0.12088(7)
C35 C 0.83930(15) -0.37544(15) -0.04346(6)
C36 C 0.76167(16) -0.29787(17) -0.06908(7)
C37 C 0.70527(15) -0.30968(16) -0.12047(7)
C38 C 0.67585(13) -0.46161(13) -0.23518(6)
C39 C 0.59347(15) -0.45256(15) -0.28754(7)
C40 C 0.72393(13) -0.39774(14) -0.14678(6)
H42 H 0.6555(18) -0.2575(17) -0.1370(8)
H43 H 0.5502(17) -0.3888(18) -0.2919(7)
H44 H 0.6026(16) -0.3584(16) -0.2089(7)
H45 H 0.5494(17) -0.5162(18) -0.2930(8)
H46 H 0.6276(17) -0.4506(17) -0.3113(8)
H47 H 0.9106(17) -0.5168(17) -0.0525(8)
H48 H 0.8137(18) -0.5351(19) -0.1372(8)
H49 H 0.7465(17) -0.2382(17) -0.0525(8)
H50 H 0.8035(19) -0.2846(18) 0.0314(8)
H51 H 0.940(2) -0.371(2) 0.1016(10)
H52 H 1.033(2) -0.300(2) 0.0948(9)
H53 H 0.8966(19) -0.2158(19) 0.0221(9)
H54 H 0.950(2) -0.241(2) 0.1102(11)
Br1 Br -0.053290(14) -0.035722(14) -0.250310(7)
Br2 Br 0.454647(14) -0.230396(14) -0.240397(7)
loop_
_geom_bond_atom_site_label_1
_geom_bond_atom_site_label_2
_geom_bond_site_symmetry_1
_geom_bond_site_symmetry_2
O1 C4 1_555 1_555
O2 C10 1_555 1_555
N1 C9 1_555 1_555
C1 C2 1_555 1_555
C2 C9 1_555 1_555
C3 C4 1_555 1_555
C4 H7 1_555 1_555
C5 C10 1_555 1_555
C6 C7 1_555 1_555
C7 C9 1_555 1_555
C8 O1 1_555 1_555
C10 N1 1_555 1_555
H1 N1 1_555 1_555
H2 C5 1_555 1_555
H3 C5 1_555 1_555
H4 C7 1_555 1_555
H5 C3 1_555 1_555
H6 C6 1_555 1_555
H8 C5 1_555 1_555
H9 C2 1_555 1_555
H10 C4 1_555 1_555
H11 C3 1_555 1_555
H12 C1 1_555 1_555
H13 C3 1_555 1_555
H14 O2 1_555 1_555
O3 C12 1_555 1_555
O4 C18 1_555 1_555
N2 C18 1_555 1_555
C11 C12 1_555 1_555
C12 H23 1_555 1_555
C13 C16 1_555 1_555
C14 C17 1_555 1_555
C15 C18 1_555 1_555
C16 C19 1_555 1_555
C17 C19 1_555 1_555
C19 N2 1_555 1_555
C20 O3 1_555 1_555
H15 C16 1_555 1_555
H16 C17 1_555 1_555
H17 C13 1_555 1_555
H18 C15 1_555 1_555
H19 C14 1_555 1_555
H20 C11 1_555 1_555
H21 C15 1_555 1_555
H22 N2 1_555 1_555
H24 C15 1_555 1_555
H25 C11 1_555 1_555
H26 C12 1_555 1_555
H27 C11 1_555 1_555
O5 C24 1_555 1_555
O6 C30 1_555 1_555
N3 C28 1_555 1_555
C21 C25 1_555 1_555
C22 C23 1_555 1_555
C23 C28 1_555 1_555
C24 C22 1_555 1_555
C25 O5 1_555 1_555
C26 C30 1_555 1_555
C27 C24 1_555 1_555
C28 C29 1_555 1_555
C29 C27 1_555 1_555
C30 N3 1_555 1_555
H28 N3 1_555 1_555
H29 C26 1_555 1_555
H30 C23 1_555 1_555
H31 C29 1_555 1_555
H32 C27 1_555 1_555
H33 C26 1_555 1_555
H34 C26 1_555 1_555
H35 C21 1_555 1_555
H36 C25 1_555 1_555
H37 C22 1_555 1_555
H38 O6 1_555 1_555
H39 C25 1_555 1_555
H40 C21 1_555 1_555
H41 C21 1_555 1_555
O7 C33 1_555 1_555
O8 C38 1_555 1_555
N4 C38 1_555 1_555
C31 C33 1_555 1_555
C32 C34 1_555 1_555
C33 H50 1_555 1_555
C34 C40 1_555 1_555
C35 O7 1_555 1_555
C36 C35 1_555 1_555
C37 C36 1_555 1_555
C38 C39 1_555 1_555
C39 H43 1_555 1_555
C40 N4 1_555 1_555
H42 C37 1_555 1_555
H44 N4 1_555 1_555
H45 C39 1_555 1_555
H46 C39 1_555 1_555
H47 C32 1_555 1_555
H48 C34 1_555 1_555
H49 C36 1_555 1_555
H51 C31 1_555 1_555
H52 C31 1_555 1_555
H53 C33 1_555 1_555
H54 C31 1_555 1_555
C1 C8 1_555 1_555
C6 C8 1_555 1_555
C13 C20 1_555 1_555
C14 C20 1_555 1_555
C32 C35 1_555 1_555
C37 C40 1_555 1_555

#END
