
#######################################################################
#
#                 Cambridge Crystallographic Data Centre
#                                CCDC 
#
#######################################################################
#
# If this CIF has been generated from an entry in the Cambridge 
# Structural Database, then it will include bibliographic, chemical, 
# crystal, experimental, refinement or atomic coordinate data resulting 
# from the CCDC's data processing and validation procedures.
#
#######################################################################

data_ZIMGUA
_chemical_name_common            
N$6!-Benzoyl-9-(2'-deoxy-alpha-L-threofuranosyl)adenine
_chemical_formula_moiety         'C16 H15 N5 O3'
_chemical_name_systematic        
N-[9-(4-hydroxyoxolan-2-yl)-9H-purin-6-yl]benzamide
_symmetry_cell_setting           monoclinic
_symmetry_space_group_name_H-M   'P 21'
_symmetry_Int_Tables_number      4
_space_group_name_Hall           'P 2yb'
loop_
_symmetry_equiv_pos_site_id
_symmetry_equiv_pos_as_xyz
1 x,y,z
2 -x,1/2+y,-z
_cell_length_a                   6.817(4)
_cell_length_b                   7.077(4)
_cell_length_c                   15.985(9)
_cell_angle_alpha                90
_cell_angle_beta                 101.960(7)
_cell_angle_gamma                90
_cell_volume                     754.439
_exptl_crystal_colour            colorless
_exptl_crystal_description       irregular
_cell_formula_units_Z            2
_exptl_crystal_recrystallization_method methanol
loop_
_atom_site_label
_atom_site_type_symbol
_atom_site_fract_x
_atom_site_fract_y
_atom_site_fract_z
O1 O 0.31918(17) 0.5573(2) 0.20940(8)
O2 O 0.96464(17) 0.28279(15) 0.70369(7)
O3 O 1.10610(17) 0.69549(16) 0.71100(7)
N1 N 0.41492(18) 0.66071(17) 0.38203(8)
N2 N 0.52277(18) 0.71712(17) 0.53363(7)
N3 N 0.62894(19) 0.5304(2) 0.29788(8)
N4 N 0.94567(18) 0.52592(18) 0.46231(8)
N5 N 0.87163(18) 0.63175(17) 0.58534(7)
C1 C 0.8997(2) 0.7014(2) 0.67398(9)
C2 C 0.4970(2) 0.5214(2) 0.22034(9)
C3 C 0.7969(2) 0.5773(2) 0.72986(9)
C4 C 0.3900(2) 0.7159(2) 0.45987(9)
C5 C 0.5904(2) 0.46273(19) 0.14744(9)
C6 C 0.9567(2) 0.4286(2) 0.76371(9)
C7 C 0.7891(2) 0.5036(2) 0.14489(9)
C8 C 1.1475(2) 0.5444(2) 0.77380(10)
C9 C 0.7012(2) 0.65350(18) 0.52368(8)
C10 C 0.8619(2) 0.4579(2) 0.07231(10)
C11 C 0.7496(2) 0.58828(19) 0.44798(8)
C12 C 0.7379(3) 0.3690(3) 0.00316(10)
C13 C 0.5941(2) 0.59368(19) 0.37533(8)
C14 C 0.5405(3) 0.3271(2) 0.00606(10)
C15 C 0.4666(2) 0.3745(2) 0.07771(9)
C16 C 1.0118(2) 0.5563(2) 0.54481(9)
H1 H 0.848(4) 0.232(4) 0.6903(15)
H2 H 0.737(4) 0.488(4) 0.2985(15)
H3 H 0.854(3) 0.835(3) 0.6704(13)
H4 H 0.672(3) 0.522(4) 0.7007(14)
H5 H 0.778(4) 0.649(4) 0.7793(16)
H6 H 0.261(3) 0.756(3) 0.4608(12)
H7 H 0.941(3) 0.379(3) 0.8160(14)
H8 H 0.877(4) 0.569(4) 0.1931(15)
H9 H 1.188(4) 0.603(4) 0.8309(15)
H10 H 1.258(3) 0.468(3) 0.7623(14)
H11 H 1.003(4) 0.495(4) 0.0704(14)
H12 H 0.789(3) 0.335(4) -0.0488(15)
H13 H 0.458(4) 0.259(4) -0.0407(14)
H14 H 0.331(4) 0.351(4) 0.0804(15)
H15 H 1.146(3) 0.531(3) 0.5763(13)
loop_
_geom_bond_atom_site_label_1
_geom_bond_atom_site_label_2
_geom_bond_site_symmetry_1
_geom_bond_site_symmetry_2
O1 C2 1_555 1_555
O2 C6 1_555 1_555
O3 C1 1_555 1_555
N1 C4 1_555 1_555
N2 C4 1_555 1_555
N3 C2 1_555 1_555
N4 C11 1_555 1_555
N5 C1 1_555 1_555
C1 C3 1_555 1_555
C2 C5 1_555 1_555
C3 C6 1_555 1_555
C4 H6 1_555 1_555
C5 C7 1_555 1_555
C6 C8 1_555 1_555
C7 C10 1_555 1_555
C8 O3 1_555 1_555
C9 N2 1_555 1_555
C10 C12 1_555 1_555
C11 C9 1_555 1_555
C12 C14 1_555 1_555
C13 N1 1_555 1_555
C14 C15 1_555 1_555
C15 C5 1_555 1_555
C16 N4 1_555 1_555
H1 O2 1_555 1_555
H2 N3 1_555 1_555
H3 C1 1_555 1_555
H4 C3 1_555 1_555
H5 C3 1_555 1_555
H7 C6 1_555 1_555
H8 C7 1_555 1_555
H9 C8 1_555 1_555
H10 C8 1_555 1_555
H11 C10 1_555 1_555
H12 C12 1_555 1_555
H13 C14 1_555 1_555
H14 C15 1_555 1_555
H15 C16 1_555 1_555
N3 C13 1_555 1_555
N5 C9 1_555 1_555
N5 C16 1_555 1_555
C11 C13 1_555 1_555

#END
