
#######################################################################
#
#                 Cambridge Crystallographic Data Centre
#                                CCDC 
#
#######################################################################
#
# If this CIF has been generated from an entry in the Cambridge 
# Structural Database, then it will include bibliographic, chemical, 
# crystal, experimental, refinement or atomic coordinate data resulting 
# from the CCDC's data processing and validation procedures.
#
#######################################################################

data_ZIMHAG
_chemical_name_common            'bis(Phenacetin) bis(hydrobromide) trihydrate'
_chemical_formula_moiety         
'H3 O1 1+,C10 H14 N1 O2 1+,C10 H13 N1 O2,2(Br1 1-),2(H2 O1)'
_chemical_name_systematic        
'Oxonium N-acetyl-4-ethoxyanilinium N-(4-ethoxyphenyl)acetamide dibromide dihydrate'
_symmetry_cell_setting           triclinic
_symmetry_space_group_name_H-M   'P -1'
_symmetry_Int_Tables_number      2
_space_group_name_Hall           '-P 1'
loop_
_symmetry_equiv_pos_site_id
_symmetry_equiv_pos_as_xyz
1 x,y,z
2 -x,-y,-z
_cell_length_a                   6.8379(8)
_cell_length_b                   13.7200(16)
_cell_length_c                   14.2131(17)
_cell_angle_alpha                76.208(2)
_cell_angle_beta                 77.572(2)
_cell_angle_gamma                87.122(2)
_cell_volume                     1264.62
_cell_formula_units_Z            2
loop_
_atom_site_label
_atom_site_type_symbol
_atom_site_fract_x
_atom_site_fract_y
_atom_site_fract_z
Br1 Br 0.27577(4) 0.554697(18) 0.931444(19)
Br2 Br 1.17086(4) 0.451063(19) 0.60360(2)
O1 O 0.9741(3) 0.55357(18) 0.78743(19)
H1 H 1.045(6) 0.533(3) 0.738(3)
H2 H 1.029(6) 0.541(3) 0.841(3)
O2 O -0.0270(3) 0.15790(14) 0.93033(14)
O3 O 0.6391(3) 0.04938(14) 1.20084(15)
N1 N 0.5850(3) 0.20638(16) 1.11891(15)
H3 H 0.6242 0.2692 1.1060
C1 C 0.4251(3) 0.19024(19) 1.07419(18)
C2 C 0.6822(4) 0.14187(19) 1.17626(18)
C3 C 0.1812(4) 0.26784(19) 0.97934(18)
H4 H 0.1192 0.3266 0.9482
C4 C 0.2121(4) 0.0880(2) 1.02256(19)
H5 H 0.1700 0.0237 1.0206
C5 C 0.3336(4) 0.27516(19) 1.02838(18)
H6 H 0.3753 0.3395 1.0304
C6 C 0.1211(4) 0.17379(19) 0.97659(18)
C7 C -0.1167(4) 0.2434(2) 0.87588(19)
H7 H -0.0136 0.2835 0.8229
H8 H -0.1816 0.2866 0.9205
C8 C 0.3645(4) 0.0957(2) 1.07150(19)
H9 H 0.4266 0.0370 1.1028
C9 C 0.8442(4) 0.1808(2) 1.21359(19)
H10 H 0.9035 0.1249 1.2553
H11 H 0.7874 0.2294 1.2526
H12 H 0.9477 0.2136 1.1573
C10 C -0.2701(4) 0.2051(2) 0.8315(2)
H13 H -0.3345 0.2620 0.7937
H14 H -0.3714 0.1657 0.8846
H15 H -0.2041 0.1627 0.7875
O4 O 0.4753(3) 0.15677(14) 0.42993(14)
O5 O 1.1636(3) 0.05095(14) 0.68883(16)
N2 N 1.0843(3) 0.20847(16) 0.61925(15)
H16 H 1.1145 0.2720 0.6108
C11 C 1.1908(4) 0.1444(2) 0.67226(18)
C12 C 0.6907(4) 0.26777(19) 0.47371(19)
H17 H 0.6335 0.3263 0.4390
C13 C 0.8613(4) 0.0964(2) 0.57494(19)
H18 H 0.9188 0.0379 0.6095
C14 C 0.7101(4) 0.0879(2) 0.52567(19)
H19 H 0.6654 0.0233 0.5260
C15 C 0.9278(3) 0.19117(19) 0.57327(17)
C16 C 0.6241(4) 0.17314(19) 0.47595(18)
C17 C 0.8420(4) 0.2758(2) 0.52285(18)
H20 H 0.8874 0.3404 0.5219
C18 C 0.2291(4) 0.2031(2) 0.3327(2)
H21 H 0.1648 0.2599 0.2946
H22 H 0.1280 0.1645 0.3865
H23 H 0.2932 0.1599 0.2890
C19 C 0.3852(4) 0.2418(2) 0.37555(19)
H24 H 0.4877 0.2814 0.3218
H25 H 0.3221 0.2855 0.4199
C20 C 1.3448(4) 0.1850(2) 0.71323(19)
H26 H 1.4121 0.1293 0.7511
H27 H 1.2797 0.2281 0.7568
H28 H 1.4436 0.2243 0.6587
O6 O 0.6548(3) 0.46557(16) 0.81410(17)
H29 H 0.783(6) 0.506(3) 0.804(3)
H30 H 0.558(5) 0.490(2) 0.850(2)
H31 H 0.648(6) 0.477(3) 0.747(3)
O7 O 0.6096(4) 0.4842(3) 0.6408(2)
H32 H 0.693(6) 0.502(3) 0.591(3)
H33 H 0.516(5) 0.474(3) 0.628(2)
loop_
_geom_bond_atom_site_label_1
_geom_bond_atom_site_label_2
_geom_bond_site_symmetry_1
_geom_bond_site_symmetry_2
O1 H1 1_555 1_555
H2 O1 1_555 1_555
O2 C6 1_555 1_555
O3 C2 1_555 1_555
N1 H3 1_555 1_555
C1 N1 1_555 1_555
C2 N1 1_555 1_555
C3 H4 1_555 1_555
C4 H5 1_555 1_555
C5 C1 1_555 1_555
H6 C5 1_555 1_555
C6 C3 1_555 1_555
C7 O2 1_555 1_555
H7 C7 1_555 1_555
H8 C7 1_555 1_555
C8 C1 1_555 1_555
H9 C8 1_555 1_555
C9 C2 1_555 1_555
H10 C9 1_555 1_555
H11 C9 1_555 1_555
H12 C9 1_555 1_555
C10 C7 1_555 1_555
H13 C10 1_555 1_555
H14 C10 1_555 1_555
H15 C10 1_555 1_555
O4 C16 1_555 1_555
O5 C11 1_555 1_555
N2 H16 1_555 1_555
C11 N2 1_555 1_555
C12 H17 1_555 1_555
C13 H18 1_555 1_555
C14 C13 1_555 1_555
H19 C14 1_555 1_555
C15 N2 1_555 1_555
C16 C12 1_555 1_555
C17 C12 1_555 1_555
H20 C17 1_555 1_555
C18 H21 1_555 1_555
H22 C18 1_555 1_555
H23 C18 1_555 1_555
C19 O4 1_555 1_555
H24 C19 1_555 1_555
H25 C19 1_555 1_555
C20 C11 1_555 1_555
H26 C20 1_555 1_555
H27 C20 1_555 1_555
H28 C20 1_555 1_555
O6 H29 1_555 1_555
H30 O6 1_555 1_555
H31 O6 1_555 1_555
O7 H32 1_555 1_555
H33 O7 1_555 1_555
C3 C5 1_555 1_555
C4 C6 1_555 1_555
C4 C8 1_555 1_555
C13 C15 1_555 1_555
C14 C16 1_555 1_555
C15 C17 1_555 1_555
C18 C19 1_555 1_555

#END
