
#######################################################################
#
#                 Cambridge Crystallographic Data Centre
#                                CCDC 
#
#######################################################################
#
# If this CIF has been generated from an entry in the Cambridge 
# Structural Database, then it will include bibliographic, chemical, 
# crystal, experimental, refinement or atomic coordinate data resulting 
# from the CCDC's data processing and validation procedures.
#
#######################################################################

data_ZIMJIQ
_chemical_formula_moiety         'C14 H12 Mg1 N2 O10'
_chemical_name_systematic        
Diaqua-bis(pyridinium-2,4-dicarboxylato)-magnesium(ii)
_symmetry_cell_setting           monoclinic
_symmetry_space_group_name_H-M   'C 2/c'
_symmetry_Int_Tables_number      15
_space_group_name_Hall           '-C 2yn'
loop_
_symmetry_equiv_pos_site_id
_symmetry_equiv_pos_as_xyz
1 x,y,z
2 -x,y,1/2-z
3 1/2+x,1/2+y,z
4 1/2-x,1/2+y,1/2-z
5 -x,-y,-z
6 x,-y,1/2+z
7 1/2-x,1/2-y,-z
8 1/2+x,1/2-y,1/2+z
_cell_length_a                   10.0210(10)
_cell_length_b                   9.4689(8)
_cell_length_c                   16.4801(15)
_cell_angle_alpha                90
_cell_angle_beta                 90.1320(10)
_cell_angle_gamma                90
_cell_volume                     1563.76
_exptl_crystal_colour            colorless
_exptl_crystal_description       block
_cell_formula_units_Z            4
loop_
_atom_site_label
_atom_site_type_symbol
_atom_site_fract_x
_atom_site_fract_y
_atom_site_fract_z
N1 N 0.3729(3) 0.6345(4) 0.1824(2)
H1 H 0.3085 0.6709 0.2096
O1 O 0.3157(3) 0.2762(3) 0.23515(17)
O2 O 0.1846(3) 0.4629(3) 0.25378(19)
O3 O 0.6787(3) 0.3164(4) 0.0435(2)
O4 O 0.7700(3) 0.5237(4) 0.00961(19)
C1 C 0.2847(4) 0.4036(5) 0.2271(3)
C2 C 0.6864(5) 0.4507(6) 0.0446(3)
C3 C 0.3831(4) 0.4920(5) 0.1785(2)
C4 C 0.4837(4) 0.4345(5) 0.1336(2)
H2 H 0.4909 0.3369 0.1296
C5 C 0.5760(4) 0.5203(5) 0.0938(2)
C6 C 0.5630(4) 0.6662(5) 0.1003(2)
H3 H 0.6235 0.7257 0.0747
C7 C 0.4599(5) 0.7212(5) 0.1451(3)
H4 H 0.4502 0.8186 0.1497
Mg1 Mg 0.0000 0.6100(3) 0.2500
O5 O 0.0100(3) 0.5655(3) 0.10619(17)
H5 H 0.0546 0.6349 0.0879
H6 H -0.0593 0.5555 0.0771
N1A N -0.3729(3) 0.6345(4) 0.3176(2)
H1A H -0.3085 0.6709 0.2904
O1A O -0.3157(3) 0.2762(3) 0.26485(17)
O2A O -0.1846(3) 0.4629(3) 0.24622(19)
O3A O -0.6787(3) 0.3164(4) 0.4565(2)
O4A O -0.7700(3) 0.5237(4) 0.49039(19)
C1A C -0.2847(4) 0.4036(5) 0.2729(3)
C2A C -0.6864(5) 0.4507(6) 0.4554(3)
C3A C -0.3831(4) 0.4920(5) 0.3215(2)
C4A C -0.4837(4) 0.4345(5) 0.3664(2)
H2A H -0.4909 0.3369 0.3704
C5A C -0.5760(4) 0.5203(5) 0.4062(2)
C6A C -0.5630(4) 0.6662(5) 0.3997(2)
H3A H -0.6235 0.7257 0.4253
C7A C -0.4599(5) 0.7212(5) 0.3549(3)
H4A H -0.4502 0.8186 0.3503
O5A O -0.0100(3) 0.5655(3) 0.39381(17)
H5A H -0.0546 0.6349 0.4121
H6A H 0.0593 0.5555 0.4229
loop_
_geom_bond_atom_site_label_1
_geom_bond_atom_site_label_2
_geom_bond_site_symmetry_1
_geom_bond_site_symmetry_2
N1 H1 1_555 1_555
O1 C1 1_555 1_555
O2 C1 1_555 1_555
O3 C2 1_555 1_555
O4 C2 1_555 1_555
C1 C3 1_555 1_555
C2 C5 1_555 1_555
C3 N1 1_555 1_555
C4 C3 1_555 1_555
H2 C4 1_555 1_555
C5 C4 1_555 1_555
C6 C5 1_555 1_555
H3 C6 1_555 1_555
C7 N1 1_555 1_555
H4 C7 1_555 1_555
Mg1 O2 1_555 1_555
O5 Mg1 1_555 1_555
H5 O5 1_555 1_555
H6 O5 1_555 1_555
N1A H1A 1_555 1_555
O1A C1A 1_555 1_555
O2A Mg1 1_555 1_555
O3A C2A 1_555 1_555
O4A C2A 1_555 1_555
C1A O2A 1_555 1_555
C2A C5A 1_555 1_555
C3A N1A 1_555 1_555
C4A C3A 1_555 1_555
H2A C4A 1_555 1_555
C5A C4A 1_555 1_555
C6A C5A 1_555 1_555
H3A C6A 1_555 1_555
C7A N1A 1_555 1_555
H4A C7A 1_555 1_555
O5A Mg1 1_555 1_555
H5A O5A 1_555 1_555
H6A O5A 1_555 1_555
C6 C7 1_555 1_555
C1A C3A 1_555 1_555
C6A C7A 1_555 1_555

#END
