
#######################################################################
#
#                 Cambridge Crystallographic Data Centre
#                                CCDC 
#
#######################################################################
#
# If this CIF has been generated from an entry in the Cambridge 
# Structural Database, then it will include bibliographic, chemical, 
# crystal, experimental, refinement or atomic coordinate data resulting 
# from the CCDC's data processing and validation procedures.
#
#######################################################################

data_ZIMMIU
_chemical_formula_moiety         'C22 H16 N2 O2'
_chemical_name_systematic        
7-benzyl-7-hydroxyindazolo[2,3-b]isoquinolin-12(7H)-one
_symmetry_cell_setting           monoclinic
_symmetry_space_group_name_H-M   'C 2/c'
_symmetry_Int_Tables_number      15
_space_group_name_Hall           '-C 2yn'
loop_
_symmetry_equiv_pos_site_id
_symmetry_equiv_pos_as_xyz
1 x,y,z
2 -x,y,1/2-z
3 1/2+x,1/2+y,z
4 1/2-x,1/2+y,1/2-z
5 -x,-y,-z
6 x,-y,1/2+z
7 1/2-x,1/2-y,-z
8 1/2+x,1/2-y,1/2+z
_cell_length_a                   14.5199(16)
_cell_length_b                   8.9603(9)
_cell_length_c                   26.373(2)
_cell_angle_alpha                90
_cell_angle_beta                 95.697(10)
_cell_angle_gamma                90
_cell_volume                     3414.25
_exptl_crystal_colour            colorless
_exptl_crystal_description       block
_cell_formula_units_Z            8
loop_
_atom_site_label
_atom_site_type_symbol
_atom_site_fract_x
_atom_site_fract_y
_atom_site_fract_z
O1 O 0.16013(17) 0.2346(2) 0.35485(8)
O2 O 0.12661(14) 0.7255(2) 0.46129(7)
N1 N 0.22614(16) 0.5374(2) 0.43767(8)
N2 N 0.29150(17) 0.5559(3) 0.47711(8)
C1 C 0.1597(2) 0.3598(4) 0.37421(10)
C2 C 0.0887(2) 0.4738(3) 0.35816(10)
C3 C 0.0909(2) 0.6147(3) 0.38110(10)
C4 C 0.1675(2) 0.6668(3) 0.42024(11)
C5 C 0.2270(2) 0.3991(3) 0.41629(10)
C6 C 0.2974(2) 0.3200(3) 0.44438(10)
C7 C 0.3311(2) 0.1720(3) 0.44364(12)
C8 C 0.4004(2) 0.1340(4) 0.47937(13)
C9 C 0.4392(2) 0.2360(4) 0.51656(12)
C10 C 0.4082(2) 0.3795(4) 0.51837(11)
C11 C 0.3358(2) 0.4210(3) 0.48173(11)
C12 C 0.2312(2) 0.7827(3) 0.39756(11)
C13 C 0.2793(2) 0.7267(3) 0.35326(11)
C14 C 0.2420(3) 0.7506(4) 0.30366(13)
C15 C 0.2854(3) 0.6980(6) 0.26284(15)
C16 C 0.3654(3) 0.6190(5) 0.27084(16)
C17 C 0.4034(3) 0.5937(4) 0.31976(16)
C18 C 0.3614(2) 0.6471(4) 0.36053(13)
C19 C 0.0206(2) 0.7151(4) 0.36698(12)
C20 C -0.0512(2) 0.6766(4) 0.33066(12)
C21 C -0.0523(2) 0.5384(4) 0.30732(12)
C22 C 0.0169(2) 0.4384(4) 0.32090(11)
H1 H 0.0161(2) 0.3456(4) 0.30512(11)
H2 H -0.0998(2) 0.5135(4) 0.28250(12)
H3 H -0.0988(2) 0.7441(4) 0.32197(12)
H4 H 0.0214(2) 0.8091(4) 0.38196(12)
H5 H 0.4339(2) 0.4467(4) 0.54269(11)
H6 H 0.4868(2) 0.2044(4) 0.54033(12)
H7 H 0.4235(2) 0.0372(4) 0.47951(13)
H8 H 0.3066(2) 0.1035(3) 0.41949(12)
H9 H 0.3885(2) 0.6297(4) 0.39345(13)
H10 H 0.4582(3) 0.5399(4) 0.32540(16)
H11 H 0.3940(3) 0.5824(5) 0.24338(16)
H12 H 0.2597(3) 0.7168(6) 0.22974(15)
H13 H 0.1868(3) 0.8030(4) 0.29761(13)
H14 H 0.1632(8) 0.782(3) 0.4775(7)
H15 H 0.1944(2) 0.8693(3) 0.38657(11)
H16 H 0.2778(2) 0.8149(3) 0.42424(11)
loop_
_geom_bond_atom_site_label_1
_geom_bond_atom_site_label_2
_geom_bond_site_symmetry_1
_geom_bond_site_symmetry_2
O1 C1 1_555 1_555
O2 C4 1_555 1_555
N1 N2 1_555 1_555
N2 C11 1_555 1_555
C1 C2 1_555 1_555
C2 C3 1_555 1_555
C3 C4 1_555 1_555
C4 N1 1_555 1_555
C5 N1 1_555 1_555
C6 C5 1_555 1_555
C7 C6 1_555 1_555
C8 C7 1_555 1_555
C9 C8 1_555 1_555
C10 C9 1_555 1_555
C11 C6 1_555 1_555
C12 C4 1_555 1_555
C13 C12 1_555 1_555
C14 C13 1_555 1_555
C15 C14 1_555 1_555
C16 C15 1_555 1_555
C17 C16 1_555 1_555
C18 C13 1_555 1_555
C19 C3 1_555 1_555
C20 C19 1_555 1_555
C21 C20 1_555 1_555
C22 C2 1_555 1_555
H1 C22 1_555 1_555
H2 C21 1_555 1_555
H3 C20 1_555 1_555
H4 C19 1_555 1_555
H5 C10 1_555 1_555
H6 C9 1_555 1_555
H7 C8 1_555 1_555
H8 C7 1_555 1_555
H9 C18 1_555 1_555
H10 C17 1_555 1_555
H11 C16 1_555 1_555
H12 C15 1_555 1_555
H13 C14 1_555 1_555
H14 O2 1_555 1_555
H15 C12 1_555 1_555
H16 C12 1_555 1_555
C1 C5 1_555 1_555
C10 C11 1_555 1_555
C17 C18 1_555 1_555
C21 C22 1_555 1_555

#END
