
#######################################################################
#
#                 Cambridge Crystallographic Data Centre
#                                CCDC 
#
#######################################################################
#
# If this CIF has been generated from an entry in the Cambridge 
# Structural Database, then it will include bibliographic, chemical, 
# crystal, experimental, refinement or atomic coordinate data resulting 
# from the CCDC's data processing and validation procedures.
#
#######################################################################

data_ZIMQEU
_chemical_formula_moiety         'C14 H14 N2 O1'
_chemical_name_systematic        2-butyl-4-oxo-4H-quinolizine-1-carbonitrile
_symmetry_cell_setting           triclinic
_symmetry_space_group_name_H-M   'P -1'
_symmetry_Int_Tables_number      2
_space_group_name_Hall           '-P 1'
loop_
_symmetry_equiv_pos_site_id
_symmetry_equiv_pos_as_xyz
1 x,y,z
2 -x,-y,-z
_cell_length_a                   7.1399(4)
_cell_length_b                   7.7406(4)
_cell_length_c                   12.1414(7)
_cell_angle_alpha                97.466(4)
_cell_angle_beta                 102.778(5)
_cell_angle_gamma                115.741(5)
_cell_volume                     569.623
_exptl_crystal_colour            colorless
_exptl_crystal_description       plate
_cell_formula_units_Z            2
loop_
_atom_site_label
_atom_site_type_symbol
_atom_site_fract_x
_atom_site_fract_y
_atom_site_fract_z
O1 O 0.7425(3) 0.6677(2) 0.54715(15)
N1 N 0.7506(3) 0.3715(3) 0.52928(17)
N2 N 0.7197(4) -0.1060(3) 0.22145(18)
C1 C 0.7723(4) 0.3914(3) 0.6470(2)
H1 H 0.7698 0.4990 0.6894
C2 C 0.7972(4) 0.2581(3) 0.7016(2)
H2 H 0.8115 0.2738 0.7807
C3 C 0.8016(4) 0.0933(3) 0.6370(2)
H3 H 0.8198 0.0009 0.6737
C4 C 0.7790(4) 0.0725(3) 0.5212(2)
H4 H 0.7832 -0.0343 0.4791
C5 C 0.7489(3) 0.2110(3) 0.4631(2)
C6 C 0.7185(4) 0.1927(3) 0.3433(2)
C7 C 0.6859(4) 0.3340(3) 0.2899(2)
C8 C 0.6944(4) 0.4951(3) 0.3581(2)
H5 H 0.6766 0.5885 0.3223
C9 C 0.7291(3) 0.5265(3) 0.4804(2)
C10 C 0.7202(4) 0.0280(3) 0.2760(2)
C11 C 0.6321(4) 0.3022(4) 0.1592(2)
H6 H 0.7285 0.2611 0.1326
H7 H 0.6568 0.4263 0.1396
C12 C 0.3924(4) 0.1432(4) 0.0960(2)
H8 H 0.3688 0.1165 0.0124
H9 H 0.3675 0.0213 0.1186
C13 C 0.2250(4) 0.2026(4) 0.1223(2)
H10 H 0.2641 0.2521 0.2062
H11 H 0.0821 0.0858 0.0964
C14 C 0.2113(5) 0.3619(4) 0.0629(2)
H12 H 0.1045 0.3933 0.0823
H13 H 0.1693 0.3128 -0.0203
H14 H 0.3515 0.4792 0.0894
loop_
_geom_bond_atom_site_label_1
_geom_bond_atom_site_label_2
_geom_bond_site_symmetry_1
_geom_bond_site_symmetry_2
O1 C9 1_555 1_555
N1 C1 1_555 1_555
N2 C10 1_555 1_555
C1 H1 1_555 1_555
C2 C1 1_555 1_555
H2 C2 1_555 1_555
C3 C2 1_555 1_555
H3 C3 1_555 1_555
C4 C3 1_555 1_555
H4 C4 1_555 1_555
C5 N1 1_555 1_555
C6 C5 1_555 1_555
C7 C6 1_555 1_555
C8 C7 1_555 1_555
H5 C8 1_555 1_555
C9 N1 1_555 1_555
C10 C6 1_555 1_555
C11 C7 1_555 1_555
H6 C11 1_555 1_555
H7 C11 1_555 1_555
C12 C11 1_555 1_555
H8 C12 1_555 1_555
H9 C12 1_555 1_555
C13 C12 1_555 1_555
H10 C13 1_555 1_555
H11 C13 1_555 1_555
C14 C13 1_555 1_555
H12 C14 1_555 1_555
H13 C14 1_555 1_555
H14 C14 1_555 1_555
C4 C5 1_555 1_555
C8 C9 1_555 1_555

#END
