
#######################################################################
#
#                 Cambridge Crystallographic Data Centre
#                                CCDC 
#
#######################################################################
#
# If this CIF has been generated from an entry in the Cambridge 
# Structural Database, then it will include bibliographic, chemical, 
# crystal, experimental, refinement or atomic coordinate data resulting 
# from the CCDC's data processing and validation procedures.
#
#######################################################################

data_ZIMQUK
_chemical_formula_moiety         'C20 H12 N2 O1'
_chemical_name_systematic        
4-oxo-2-phenyl-4H-pyrido[2,1-a]isoquinoline-1-carbonitrile
_symmetry_cell_setting           orthorhombic
_symmetry_space_group_name_H-M   'P 21 21 21'
_symmetry_Int_Tables_number      19
_space_group_name_Hall           'P 2ac 2ab'
loop_
_symmetry_equiv_pos_site_id
_symmetry_equiv_pos_as_xyz
1 x,y,z
2 1/2-x,-y,1/2+z
3 -x,1/2+y,1/2-z
4 1/2+x,1/2-y,-z
_cell_length_a                   6.8668(2)
_cell_length_b                   14.1172(3)
_cell_length_c                   14.3970(4)
_cell_angle_alpha                90
_cell_angle_beta                 90
_cell_angle_gamma                90
_cell_volume                     1395.65
_exptl_crystal_colour            gold
_exptl_crystal_description       prism
_cell_formula_units_Z            4
loop_
_atom_site_label
_atom_site_type_symbol
_atom_site_fract_x
_atom_site_fract_y
_atom_site_fract_z
N1 N -0.4975(4) -0.35102(16) -0.62422(16)
O1 O -0.5337(4) -0.44784(15) -0.75218(14)
C1 C -0.4892(5) -0.2759(2) -0.68715(19)
H1 H -0.4921 -0.2888 -0.7505
C2 C -0.4896(4) -0.33651(18) -0.52902(19)
C3 C -0.5091(5) -0.44318(19) -0.66799(19)
C4 C -0.4922(5) -0.23825(18) -0.49636(19)
C5 C -0.4814(4) -0.16354(19) -0.5622(2)
C6 C -0.5791(5) -0.6242(2) -0.3881(2)
H2 H -0.6846 -0.5853 -0.3746
C7 C -0.5090(5) -0.21306(19) -0.4020(2)
H3 H -0.5218 -0.2604 -0.3574
C8 C -0.4708(4) -0.51008(19) -0.5129(2)
C9 C -0.4743(4) -0.41750(18) -0.47236(19)
C10 C -0.4434(4) -0.59660(18) -0.45454(19)
C11 C -0.4475(4) -0.41449(19) -0.3742(2)
C12 C -0.2831(5) -0.6539(2) -0.4722(2)
H4 H -0.1917 -0.6358 -0.5164
C13 C -0.5068(5) -0.11920(19) -0.3745(2)
H5 H -0.5187 -0.1042 -0.3119
C14 C -0.4867(5) -0.04651(19) -0.4401(2)
H6 H -0.4797 0.0163 -0.4209
C15 C -0.4864(5) -0.52068(19) -0.6062(2)
H7 H -0.4820 -0.5815 -0.6308
N2 N -0.4228(4) -0.41988(17) -0.29505(18)
C16 C -0.4772(5) -0.1856(2) -0.6587(2)
H8 H -0.4660 -0.1372 -0.7022
C17 C -0.4773(5) -0.06831(19) -0.5325(2)
H9 H -0.4680 -0.0200 -0.5761
C18 C -0.2597(5) -0.7384(2) -0.4236(2)
H10 H -0.1506 -0.7758 -0.4346
C19 C -0.5565(5) -0.7103(2) -0.3420(2)
H11 H -0.6497 -0.7297 -0.2992
C20 C -0.3962(5) -0.7670(2) -0.3595(2)
H12 H -0.3809 -0.8241 -0.3282
loop_
_geom_bond_atom_site_label_1
_geom_bond_atom_site_label_2
_geom_bond_site_symmetry_1
_geom_bond_site_symmetry_2
N1 C1 1_555 1_555
O1 C3 1_555 1_555
C1 H1 1_555 1_555
C2 N1 1_555 1_555
C3 N1 1_555 1_555
C4 C2 1_555 1_555
C5 C4 1_555 1_555
C6 H2 1_555 1_555
C7 C4 1_555 1_555
H3 C7 1_555 1_555
C8 C9 1_555 1_555
C9 C2 1_555 1_555
C10 C6 1_555 1_555
C11 C9 1_555 1_555
C12 C10 1_555 1_555
H4 C12 1_555 1_555
C13 C7 1_555 1_555
H5 C13 1_555 1_555
C14 C13 1_555 1_555
H6 C14 1_555 1_555
C15 C3 1_555 1_555
H7 C15 1_555 1_555
N2 C11 1_555 1_555
C16 C1 1_555 1_555
H8 C16 1_555 1_555
C17 C5 1_555 1_555
H9 C17 1_555 1_555
C18 C12 1_555 1_555
H10 C18 1_555 1_555
C19 C6 1_555 1_555
H11 C19 1_555 1_555
C20 C18 1_555 1_555
H12 C20 1_555 1_555
C5 C16 1_555 1_555
C8 C10 1_555 1_555
C8 C15 1_555 1_555
C14 C17 1_555 1_555
C19 C20 1_555 1_555

#END
