
#######################################################################
#
#                 Cambridge Crystallographic Data Centre
#                                CCDC 
#
#######################################################################
#
# If this CIF has been generated from an entry in the Cambridge 
# Structural Database, then it will include bibliographic, chemical, 
# crystal, experimental, refinement or atomic coordinate data resulting 
# from the CCDC's data processing and validation procedures.
#
#######################################################################

data_ZIMQIY
_chemical_formula_moiety         'C13 H10 N2 O1'
_chemical_name_systematic        
2-cyclopropyl-4-oxo-4H-quinolizine-1-carbonitrile
_symmetry_cell_setting           orthorhombic
_symmetry_space_group_name_H-M   'P n m a'
_symmetry_Int_Tables_number      62
_space_group_name_Hall           '-P 2ac 2n'
loop_
_symmetry_equiv_pos_site_id
_symmetry_equiv_pos_as_xyz
1 x,y,z
2 1/2-x,-y,1/2+z
3 -x,1/2+y,-z
4 1/2+x,1/2-y,1/2-z
5 -x,-y,-z
6 1/2+x,y,1/2-z
7 x,1/2-y,z
8 1/2-x,1/2+y,1/2+z
_cell_length_a                   15.858(2)
_cell_length_b                   6.8927(10)
_cell_length_c                   9.0764(12)
_cell_angle_alpha                90
_cell_angle_beta                 90
_cell_angle_gamma                90
_cell_volume                     992.091
_exptl_crystal_colour            'light yellow'
_exptl_crystal_description       prism
_cell_formula_units_Z            4
loop_
_atom_site_label
_atom_site_type_symbol
_atom_site_fract_x
_atom_site_fract_y
_atom_site_fract_z
O1 O 0.30750(14) 0.7500 0.3260(3)
C1 C 0.4668(2) 0.7500 0.2420(4)
H1 H 0.4233 0.7500 0.1732
C2 C 0.5477(2) 0.7500 0.1944(4)
H2 H 0.5595 0.7500 0.0941
C3 C 0.6141(2) 0.7500 0.2985(4)
H3 H 0.6699 0.7500 0.2669
C4 C 0.59598(19) 0.7500 0.4445(4)
H4 H 0.6397 0.7500 0.5128
C5 C 0.51049(19) 0.7500 0.4949(3)
C6 C 0.4879(2) 0.7500 0.6439(3)
C7 C 0.4021(2) 0.7500 0.6880(4)
C8 C 0.3404(2) 0.7500 0.5795(4)
H5 H 0.2842 0.7500 0.6088
C9 C 0.3581(2) 0.7500 0.4282(4)
C10 C 0.5552(2) 0.7500 0.7489(4)
C11 C 0.3816(2) 0.7500 0.8469(4)
H6 H 0.4306 0.7500 0.9127
C12 C 0.30497(14) 0.8579(4) 0.9053(3)
H7 H 0.3103 0.9233 0.9995
H8 H 0.2691 0.9233 0.8345
N1 N 0.44760(17) 0.7500 0.3897(3)
N2 N 0.61071(18) 0.7500 0.8305(3)
C12F C 0.30497(14) 0.6421(4) 0.9053(3)
H7F H 0.3103 0.5767 0.9995
H8F H 0.2691 0.5767 0.8345
loop_
_geom_bond_atom_site_label_1
_geom_bond_atom_site_label_2
_geom_bond_site_symmetry_1
_geom_bond_site_symmetry_2
O1 C9 1_555 1_555
C1 H1 1_555 1_555
C2 C1 1_555 1_555
H2 C2 1_555 1_555
C3 C2 1_555 1_555
H3 C3 1_555 1_555
C4 C3 1_555 1_555
H4 C4 1_555 1_555
C5 C4 1_555 1_555
C6 C5 1_555 1_555
C7 C6 1_555 1_555
C8 C7 1_555 1_555
H5 C8 1_555 1_555
C9 C8 1_555 1_555
C10 C6 1_555 1_555
C11 C7 1_555 1_555
H6 C11 1_555 1_555
C12 C11 1_555 1_555
H7 C12 1_555 1_555
H8 C12 1_555 1_555
N1 C1 1_555 1_555
N2 C10 1_555 1_555
C12F C11 1_555 1_555
H7F C12F 1_555 1_555
H8F C12F 1_555 1_555
C5 N1 1_555 1_555
C9 N1 1_555 1_555
C12 C12F 1_555 1_555

#END
