
#######################################################################
#
#                 Cambridge Crystallographic Data Centre
#                                CCDC 
#
#######################################################################
#
# If this CIF has been generated from an entry in the Cambridge 
# Structural Database, then it will include bibliographic, chemical, 
# crystal, experimental, refinement or atomic coordinate data resulting 
# from the CCDC's data processing and validation procedures.
#
#######################################################################

data_ZIMRUL
_chemical_formula_moiety         'C25 H17 N1 O2'
_chemical_name_systematic        'methyl 4-cyano-1,3-diphenyl-2-naphthoate'
_symmetry_cell_setting           triclinic
_symmetry_space_group_name_H-M   'P -1'
_symmetry_Int_Tables_number      2
_space_group_name_Hall           '-P 1'
loop_
_symmetry_equiv_pos_site_id
_symmetry_equiv_pos_as_xyz
1 x,y,z
2 -x,-y,-z
_cell_length_a                   11.228(2)
_cell_length_b                   11.856(3)
_cell_length_c                   16.719(4)
_cell_angle_alpha                78.871(3)
_cell_angle_beta                 76.348(3)
_cell_angle_gamma                62.757(3)
_cell_volume                     1913.51
_cell_formula_units_Z            4
loop_
_atom_site_label
_atom_site_type_symbol
_atom_site_fract_x
_atom_site_fract_y
_atom_site_fract_z
C1 C 0.7782(3) 0.8947(2) 0.38600(16)
C2 C 0.7351(2) 1.0018(2) 0.33014(16)
C3 C 0.6001(2) 1.0628(2) 0.31411(16)
C4 C 0.5102(2) 1.0136(2) 0.35682(16)
C5 C 0.5505(3) 0.9024(2) 0.41377(16)
C6 C 0.4594(3) 0.8496(3) 0.45549(17)
H1 H 0.3693 0.8907 0.4478
C7 C 0.5016(4) 0.7399(3) 0.5066(2)
H2 H 0.4411 0.7051 0.5323
C8 C 0.6344(4) 0.6799(3) 0.5204(2)
H3 H 0.6624 0.6050 0.5558
C9 C 0.7254(3) 0.7289(3) 0.48296(18)
H4 H 0.8140 0.6876 0.4936
C10 C 0.6857(3) 0.8427(2) 0.42793(16)
C11 C 0.9211(3) 0.8317(3) 0.40201(17)
C12 C 0.9573(3) 0.8668(3) 0.4634(2)
H5 H 0.8926 0.9323 0.4947
C13 C 1.0896(4) 0.8049(4) 0.4785(3)
H6 H 1.1125 0.8280 0.5208
C14 C 1.1858(3) 0.7114(3) 0.4327(2)
H7 H 1.2747 0.6710 0.4428
C15 C 1.1518(3) 0.6770(4) 0.3721(3)
H8 H 1.2178 0.6126 0.3404
C16 C 1.0202(3) 0.7365(3) 0.3567(2)
H9 H 0.9986 0.7115 0.3148
C17 C 0.8370(3) 1.0476(3) 0.27877(19)
C18 C 0.9480(4) 1.1766(4) 0.2722(3)
H10 H 1.0143 1.1183 0.2337
H11 H 0.9928 1.1874 0.3105
H12 H 0.9001 1.2575 0.2428
C19 C 0.5550(2) 1.1770(2) 0.25268(16)
C20 C 0.5432(3) 1.2937(3) 0.26644(18)
H13 H 0.5681 1.3006 0.3139
C21 C 0.4945(3) 1.4003(3) 0.2103(2)
H14 H 0.4868 1.4781 0.2202
C22 C 0.4579(3) 1.3904(3) 0.1404(2)
H15 H 0.4234 1.4620 0.1032
C23 C 0.4720(3) 1.2754(4) 0.1251(2)
H16 H 0.4491 1.2689 0.0768
C24 C 0.5196(3) 1.1691(3) 0.18037(18)
H17 H 0.5281 1.0916 0.1693
C25 C 0.3716(3) 1.0726(3) 0.34281(18)
N1 N 0.2615(3) 1.1127(3) 0.3337(2)
O1 O 0.8948(2) 1.0166(2) 0.21194(14)
O2 O 0.8518(2) 1.1258(2) 0.31742(14)
C26 C 0.9032(3) 0.6503(2) 0.13392(16)
C27 C 0.9482(3) 0.5664(3) 0.20582(18)
C28 C 1.0851(3) 0.5063(3) 0.2159(2)
H18 H 1.1498 0.5200 0.1743
C29 C 1.1251(3) 0.4279(3) 0.2856(2)
H19 H 1.2166 0.3875 0.2903
C30 C 1.0304(4) 0.4086(3) 0.3487(2)
H20 H 1.0587 0.3560 0.3961
C31 C 0.8954(3) 0.4655(3) 0.34286(18)
H21 H 0.8327 0.4526 0.3865
C32 C 0.8509(3) 0.5439(2) 0.27057(17)
C33 C 0.7126(3) 0.6008(2) 0.26029(16)
C34 C 0.6688(3) 0.6827(2) 0.19136(16)
C35 C 0.7652(3) 0.7083(2) 0.12922(16)
C36 C 1.0016(2) 0.6771(2) 0.06671(17)
C37 C 1.0950(3) 0.5834(3) 0.01609(19)
H22 H 1.0994 0.5018 0.0259
C38 C 1.1825(3) 0.6130(3) -0.0499(2)
H23 H 1.2442 0.5508 -0.0844
C39 C 1.1785(3) 0.7313(3) -0.0642(2)
H24 H 1.2367 0.7500 -0.1086
C40 C 1.0889(3) 0.8229(3) -0.0133(2)
H25 H 1.0869 0.9036 -0.0227
C41 C 1.0010(3) 0.7960(3) 0.05236(19)
H26 H 0.9410 0.8586 0.0870
C42 C 0.6207(3) 0.5635(3) 0.32087(19)
C43 C 0.5242(2) 0.7373(2) 0.18011(16)
C44 C 0.4192(3) 0.8098(3) 0.23850(19)
H27 H 0.4395 0.8263 0.2846
C45 C 0.2862(3) 0.8572(3) 0.2291(2)
H28 H 0.2173 0.9070 0.2681
C46 C 0.2543(3) 0.8320(3) 0.1629(2)
H29 H 0.1639 0.8621 0.1576
C47 C 0.3573(3) 0.7614(3) 0.1038(2)
H30 H 0.3363 0.7458 0.0577
C48 C 0.4897(3) 0.7144(3) 0.11292(18)
H31 H 0.5581 0.6661 0.0731
C49 C 0.7163(3) 0.8085(3) 0.05893(18)
C50 C 0.7353(4) 0.8578(4) -0.0855(2)
H32 H 0.6404 0.9152 -0.0793
H33 H 0.7616 0.8160 -0.1349
H34 H 0.7874 0.9047 -0.0895
N2 N 0.5513(3) 0.5265(3) 0.36989(18)
O3 O 0.6471(2) 0.9188(2) 0.06861(15)
O4 O 0.7608(2) 0.76188(19) -0.01346(12)
loop_
_geom_bond_atom_site_label_1
_geom_bond_atom_site_label_2
_geom_bond_site_symmetry_1
_geom_bond_site_symmetry_2
C1 C2 1_555 1_555
C2 C3 1_555 1_555
C3 C4 1_555 1_555
C4 C5 1_555 1_555
C5 C6 1_555 1_555
C6 H1 1_555 1_555
C7 C6 1_555 1_555
H2 C7 1_555 1_555
C8 C7 1_555 1_555
H3 C8 1_555 1_555
C9 C8 1_555 1_555
H4 C9 1_555 1_555
C10 C1 1_555 1_555
C11 C1 1_555 1_555
C12 C11 1_555 1_555
H5 C12 1_555 1_555
C13 C12 1_555 1_555
H6 C13 1_555 1_555
C14 C13 1_555 1_555
H7 C14 1_555 1_555
C15 C14 1_555 1_555
H8 C15 1_555 1_555
C16 C11 1_555 1_555
H9 C16 1_555 1_555
C17 C2 1_555 1_555
C18 H10 1_555 1_555
H11 C18 1_555 1_555
H12 C18 1_555 1_555
C19 C3 1_555 1_555
C20 C19 1_555 1_555
H13 C20 1_555 1_555
C21 C20 1_555 1_555
H14 C21 1_555 1_555
C22 C21 1_555 1_555
H15 C22 1_555 1_555
C23 C22 1_555 1_555
H16 C23 1_555 1_555
C24 C19 1_555 1_555
H17 C24 1_555 1_555
C25 C4 1_555 1_555
N1 C25 1_555 1_555
O1 C17 1_555 1_555
O2 C17 1_555 1_555
C26 C27 1_555 1_555
C27 C28 1_555 1_555
C28 H18 1_555 1_555
C29 C28 1_555 1_555
H19 C29 1_555 1_555
C30 C29 1_555 1_555
H20 C30 1_555 1_555
C31 C30 1_555 1_555
H21 C31 1_555 1_555
C32 C27 1_555 1_555
C33 C32 1_555 1_555
C34 C33 1_555 1_555
C35 C26 1_555 1_555
C36 C26 1_555 1_555
C37 C36 1_555 1_555
H22 C37 1_555 1_555
C38 C37 1_555 1_555
H23 C38 1_555 1_555
C39 C38 1_555 1_555
H24 C39 1_555 1_555
C40 C39 1_555 1_555
H25 C40 1_555 1_555
C41 C36 1_555 1_555
H26 C41 1_555 1_555
C42 C33 1_555 1_555
C43 C34 1_555 1_555
C44 C43 1_555 1_555
H27 C44 1_555 1_555
C45 C44 1_555 1_555
H28 C45 1_555 1_555
C46 C45 1_555 1_555
H29 C46 1_555 1_555
C47 C46 1_555 1_555
H30 C47 1_555 1_555
C48 C43 1_555 1_555
H31 C48 1_555 1_555
C49 C35 1_555 1_555
C50 H32 1_555 1_555
H33 C50 1_555 1_555
H34 C50 1_555 1_555
N2 C42 1_555 1_555
O3 C49 1_555 1_555
O4 C49 1_555 1_555
C5 C10 1_555 1_555
C9 C10 1_555 1_555
C15 C16 1_555 1_555
C18 O2 1_555 1_555
C23 C24 1_555 1_555
C31 C32 1_555 1_555
C34 C35 1_555 1_555
C40 C41 1_555 1_555
C47 C48 1_555 1_555
C50 O4 1_555 1_555

#END
