
#######################################################################
#
#                 Cambridge Crystallographic Data Centre
#                                CCDC 
#
#######################################################################
#
# If this CIF has been generated from an entry in the Cambridge 
# Structural Database, then it will include bibliographic, chemical, 
# crystal, experimental, refinement or atomic coordinate data resulting 
# from the CCDC's data processing and validation procedures.
#
#######################################################################

data_ZIMREU
_chemical_formula_moiety         'C40 H36 N1 O1 1+,C1 H2 Cl2,Br1 1-'
_chemical_name_systematic        
'1-(2-Hydroxyethyl)-3,3-dimethyl-2-(2-(4-(triphenylvinyl)phenyl)vinyl)-3H-indolium bromide dichloromethane solvate'
_symmetry_cell_setting           orthorhombic
_symmetry_space_group_name_H-M   'P 21 21 21'
_symmetry_Int_Tables_number      19
_space_group_name_Hall           'P 2ac 2ab'
loop_
_symmetry_equiv_pos_site_id
_symmetry_equiv_pos_as_xyz
1 x,y,z
2 1/2-x,-y,1/2+z
3 1/2+x,1/2-y,-z
4 -x,1/2+y,1/2-z
_cell_length_a                   10.788(2)
_cell_length_b                   12.438(3)
_cell_length_c                   27.874(6)
_cell_angle_alpha                90
_cell_angle_beta                 90
_cell_angle_gamma                90
_cell_volume                     3740.17
_cell_formula_units_Z            4
loop_
_atom_site_label
_atom_site_type_symbol
_atom_site_fract_x
_atom_site_fract_y
_atom_site_fract_z
Br1 Br 0.41252(5) 0.78651(6) 0.74293(2)
C1 C 0.3116(5) 0.9397(5) 1.0825(2)
H1 H 0.2788 0.8769 1.0696
C2 C 0.2565(6) 0.9862(7) 1.1222(2)
H2 H 0.1879 0.9536 1.1363
C3 C 0.3016(7) 1.0783(7) 1.1407(2)
H3 H 0.2620 1.1103 1.1667
C4 C 0.4070(8) 1.1258(6) 1.1213(2)
H4 H 0.4394 1.1884 1.1345
C5 C 0.4617(5) 1.0794(6) 1.0827(2)
H5 H 0.5324 1.1109 1.0698
C6 C 0.4155(5) 0.9862(4) 1.06201(16)
C7 C 0.4775(4) 0.9346(5) 1.01997(19)
C8 C 0.5225(5) 0.8239(5) 1.0280(2)
C9 C 0.5993(6) 0.8041(6) 1.0676(2)
H6 H 0.6191 0.8598 1.0885
C10 C 0.6461(8) 0.7011(9) 1.0757(3)
H7 H 0.6955 0.6878 1.1024
C11 C 0.6197(9) 0.6219(8) 1.0451(4)
H8 H 0.6548 0.5544 1.0497
C12 C 0.5414(8) 0.6384(7) 1.0067(3)
H9 H 0.5220 0.5814 0.9864
C13 C 0.4923(6) 0.7374(6) 0.9982(2)
H10 H 0.4386 0.7475 0.9725
C14 C 0.4937(4) 0.9871(5) 0.9778(2)
C15 C 0.4431(5) 1.0943(5) 0.96661(18)
C16 C 0.3244(5) 1.1266(6) 0.9797(2)
H11 H 0.2740 1.0791 0.9965
C17 C 0.2792(7) 1.2275(8) 0.9682(3)
H12 H 0.1991 1.2471 0.9769
C18 C 0.3513(10) 1.2964(8) 0.9446(3)
H13 H 0.3210 1.3646 0.9377
C19 C 0.4691(9) 1.2697(7) 0.9303(3)
H14 H 0.5179 1.3192 0.9139
C20 C 0.5148(6) 1.1673(6) 0.9407(2)
H15 H 0.5934 1.1476 0.9303
C21 C 0.5697(4) 0.9365(4) 0.93901(16)
C22 C 0.5198(4) 0.9169(5) 0.89433(18)
H16 H 0.4386 0.9377 0.8881
C23 C 0.5869(4) 0.8675(4) 0.85872(16)
H17 H 0.5498 0.8532 0.8293
C24 C 0.7098(4) 0.8388(4) 0.86637(16)
C25 C 0.7599(4) 0.8604(4) 0.91132(18)
H18 H 0.8425 0.8431 0.9170
C26 C 0.6922(5) 0.9062(5) 0.94757(18)
H19 H 0.7277 0.9171 0.9776
C27 C 0.7890(4) 0.7911(5) 0.82999(17)
H20 H 0.8720 0.7831 0.8382
C28 C 0.7577(4) 0.7574(4) 0.78630(16)
H21 H 0.6749 0.7607 0.7771
C29 C 0.8452(3) 0.7169(4) 0.75343(17)
C30 C 0.9857(3) 0.7122(4) 0.75845(16)
C31 C 1.0225(4) 0.6628(4) 0.71147(18)
C32 C 1.1390(5) 0.6356(5) 0.6941(2)
H22 H 1.2098 0.6461 0.7125
C33 C 1.1461(5) 0.5923(5) 0.6486(2)
H23 H 1.2234 0.5764 0.6357
C34 C 1.0419(6) 0.5723(6) 0.6222(2)
H24 H 1.0503 0.5411 0.5921
C35 C 0.9241(5) 0.5970(4) 0.63878(18)
H25 H 0.8530 0.5844 0.6207
C36 C 0.9201(4) 0.6418(4) 0.68412(16)
C37 C 0.6855(4) 0.6640(4) 0.69165(18)
H26 H 0.6879 0.6642 0.6569
H27 H 0.6348 0.7240 0.7020
C38 C 0.6293(4) 0.5606(5) 0.7090(2)
H28 H 0.6322 0.5576 0.7438
H29 H 0.5433 0.5562 0.6991
C39 C 1.0294(5) 0.6417(6) 0.80040(19)
H30 H 1.0040 0.5687 0.7950
H31 H 0.9935 0.6675 0.8297
H32 H 1.1182 0.6448 0.8027
C40 C 1.0385(4) 0.8267(5) 0.7620(2)
H33 H 1.1264 0.8232 0.7670
H34 H 1.0003 0.8635 0.7885
H35 H 1.0215 0.8649 0.7328
N1 N 0.8133(3) 0.6765(3) 0.71085(14)
O1 O 0.6967(4) 0.4746(4) 0.68953(18)
H36 H 0.6842 0.4202 0.7055
C41 C 0.6015(7) 0.0235(8) 0.6819(3)
H37 H 0.5300 -0.0224 0.6871
H38 H 0.6069 0.0746 0.7081
Cl1 Cl 0.5906(3) 0.0886(3) 0.62818(11)
Cl2 Cl 0.7410(3) -0.0553(2) 0.67798(14)
loop_
_geom_bond_atom_site_label_1
_geom_bond_atom_site_label_2
_geom_bond_site_symmetry_1
_geom_bond_site_symmetry_2
C1 H1 1_555 1_555
C2 C1 1_555 1_555
H2 C2 1_555 1_555
C3 C2 1_555 1_555
H3 C3 1_555 1_555
C4 C3 1_555 1_555
H4 C4 1_555 1_555
C5 C4 1_555 1_555
H5 C5 1_555 1_555
C6 C1 1_555 1_555
C7 C6 1_555 1_555
C8 C7 1_555 1_555
C9 C8 1_555 1_555
H6 C9 1_555 1_555
C10 C9 1_555 1_555
H7 C10 1_555 1_555
C11 C10 1_555 1_555
H8 C11 1_555 1_555
C12 C11 1_555 1_555
H9 C12 1_555 1_555
C13 C8 1_555 1_555
H10 C13 1_555 1_555
C14 C7 1_555 1_555
C15 C14 1_555 1_555
C16 C15 1_555 1_555
H11 C16 1_555 1_555
C17 C16 1_555 1_555
H12 C17 1_555 1_555
C18 C17 1_555 1_555
H13 C18 1_555 1_555
C19 C18 1_555 1_555
H14 C19 1_555 1_555
C20 C15 1_555 1_555
H15 C20 1_555 1_555
C21 C14 1_555 1_555
C22 C21 1_555 1_555
H16 C22 1_555 1_555
C23 C22 1_555 1_555
H17 C23 1_555 1_555
C24 C23 1_555 1_555
C25 C24 1_555 1_555
H18 C25 1_555 1_555
C26 C21 1_555 1_555
H19 C26 1_555 1_555
C27 C24 1_555 1_555
H20 C27 1_555 1_555
C28 C27 1_555 1_555
H21 C28 1_555 1_555
C29 C28 1_555 1_555
C30 C29 1_555 1_555
C31 C30 1_555 1_555
C32 C31 1_555 1_555
H22 C32 1_555 1_555
C33 C32 1_555 1_555
H23 C33 1_555 1_555
C34 C33 1_555 1_555
H24 C34 1_555 1_555
C35 C34 1_555 1_555
H25 C35 1_555 1_555
C36 C31 1_555 1_555
C37 H26 1_555 1_555
H27 C37 1_555 1_555
C38 C37 1_555 1_555
H28 C38 1_555 1_555
H29 C38 1_555 1_555
C39 C30 1_555 1_555
H30 C39 1_555 1_555
H31 C39 1_555 1_555
H32 C39 1_555 1_555
C40 C30 1_555 1_555
H33 C40 1_555 1_555
H34 C40 1_555 1_555
H35 C40 1_555 1_555
N1 C29 1_555 1_555
O1 C38 1_555 1_555
H36 O1 1_555 1_555
C41 H37 1_555 1_555
H38 C41 1_555 1_555
Cl1 C41 1_555 1_555
Cl2 C41 1_555 1_555
C5 C6 1_555 1_555
C12 C13 1_555 1_555
C19 C20 1_555 1_555
C25 C26 1_555 1_555
C35 C36 1_555 1_555
C36 N1 1_555 1_555
C37 N1 1_555 1_555

#END
