
#######################################################################
#
#                 Cambridge Crystallographic Data Centre
#                                CCDC 
#
#######################################################################
#
# If this CIF has been generated from an entry in the Cambridge 
# Structural Database, then it will include bibliographic, chemical, 
# crystal, experimental, refinement or atomic coordinate data resulting 
# from the CCDC's data processing and validation procedures.
#
#######################################################################

data_ZIMWOK
_chemical_formula_moiety         'C22 H16 N2 O3'
_chemical_name_systematic        
(2-(1H-indazole-3-carbonyl)phenyl)(4-methoxyphenyl)methanone
_symmetry_cell_setting           monoclinic
_symmetry_space_group_name_H-M   'P 21/n'
_symmetry_Int_Tables_number      14
_space_group_name_Hall           '-P 2yn'
loop_
_symmetry_equiv_pos_site_id
_symmetry_equiv_pos_as_xyz
1 x,y,z
2 1/2-x,1/2+y,1/2-z
3 -x,-y,-z
4 1/2+x,1/2-y,1/2+z
_cell_length_a                   11.5098(11)
_cell_length_b                   7.8907(8)
_cell_length_c                   18.8395(17)
_cell_angle_alpha                90
_cell_angle_beta                 93.993(9)
_cell_angle_gamma                90
_cell_volume                     1706.86
_exptl_crystal_colour            colorless
_exptl_crystal_description       block
_cell_formula_units_Z            4
loop_
_atom_site_label
_atom_site_type_symbol
_atom_site_fract_x
_atom_site_fract_y
_atom_site_fract_z
O1 O 1.14132(18) 0.3223(3) -0.27525(11)
O2 O 0.87459(18) 0.3325(3) -0.27529(11)
O3 O 0.82148(16) 0.4566(3) 0.05093(10)
N1 N 1.03933(18) 0.1319(3) -0.43810(13)
N2 N 1.04831(19) 0.1948(3) -0.50384(13)
H1 H 1.0181 0.1474 -0.5419
C1 C 1.2098(2) 0.5240(4) -0.41490(17)
H2 H 1.2332 0.5508 -0.3680
C2 C 1.2394(2) 0.6252(4) -0.47032(17)
H3 H 1.2836 0.7220 -0.4605
C3 C 1.2045(2) 0.5861(4) -0.54157(17)
H4 H 1.2260 0.6583 -0.5774
C4 C 1.1403(2) 0.4458(4) -0.55957(16)
H5 H 1.1173 0.4203 -0.6067
C5 C 1.1108(2) 0.3425(4) -0.50364(16)
C6 C 1.1426(2) 0.3783(4) -0.43190(15)
C7 C 1.0948(2) 0.2420(4) -0.39360(16)
C8 C 1.0969(2) 0.2168(4) -0.31627(16)
C9 C 1.0433(2) 0.0582(4) -0.28907(15)
C10 C 1.0824(3) -0.0995(4) -0.30925(16)
H6 H 1.1414 -0.1075 -0.3404
C11 C 1.0336(3) -0.2458(4) -0.28290(17)
H7 H 1.0597 -0.3517 -0.2965
C12 C 0.9462(3) -0.2338(4) -0.23648(17)
H8 H 0.9117 -0.3316 -0.2202
C13 C 0.9099(2) -0.0764(4) -0.21422(15)
H9 H 0.8537 -0.0693 -0.1812
C14 C 0.9568(2) 0.0708(4) -0.24073(15)
C15 C 0.9042(2) 0.2391(4) -0.22505(16)
C16 C 0.8823(2) 0.2856(3) -0.15125(15)
C17 C 0.9457(2) 0.2166(4) -0.09275(16)
H10 H 1.0005 0.1328 -0.0998
C18 C 0.9291(2) 0.2700(4) -0.02411(16)
H11 H 0.9727 0.2232 0.0144
C19 C 0.8465(2) 0.3945(4) -0.01341(16)
C20 C 0.7813(2) 0.4624(4) -0.07177(15)
H12 H 0.7245 0.5433 -0.0648
C21 C 0.8006(2) 0.4106(4) -0.13937(16)
H13 H 0.7584 0.4597 -0.1779
C22 C 0.8875(2) 0.3941(4) 0.11269(15)
H14 H 0.9689 0.4132 0.1077
H15 H 0.8736 0.2748 0.1176
H16 H 0.8642 0.4523 0.1541
loop_
_geom_bond_atom_site_label_1
_geom_bond_atom_site_label_2
_geom_bond_site_symmetry_1
_geom_bond_site_symmetry_2
O1 C8 1_555 1_555
O2 C15 1_555 1_555
O3 C19 1_555 1_555
N1 N2 1_555 1_555
N2 H1 1_555 1_555
C1 H2 1_555 1_555
C2 C1 1_555 1_555
H3 C2 1_555 1_555
C3 C2 1_555 1_555
H4 C3 1_555 1_555
C4 C3 1_555 1_555
H5 C4 1_555 1_555
C5 N2 1_555 1_555
C6 C1 1_555 1_555
C7 N1 1_555 1_555
C8 C7 1_555 1_555
C9 C8 1_555 1_555
C10 C9 1_555 1_555
H6 C10 1_555 1_555
C11 C10 1_555 1_555
H7 C11 1_555 1_555
C12 C11 1_555 1_555
H8 C12 1_555 1_555
C13 C12 1_555 1_555
H9 C13 1_555 1_555
C14 C9 1_555 1_555
C15 C14 1_555 1_555
C16 C15 1_555 1_555
C17 C16 1_555 1_555
H10 C17 1_555 1_555
C18 C17 1_555 1_555
H11 C18 1_555 1_555
C19 C18 1_555 1_555
C20 C19 1_555 1_555
H12 C20 1_555 1_555
C21 C16 1_555 1_555
H13 C21 1_555 1_555
C22 O3 1_555 1_555
H14 C22 1_555 1_555
H15 C22 1_555 1_555
H16 C22 1_555 1_555
C4 C5 1_555 1_555
C5 C6 1_555 1_555
C6 C7 1_555 1_555
C13 C14 1_555 1_555
C20 C21 1_555 1_555

#END
