
#######################################################################
#
#                 Cambridge Crystallographic Data Centre
#                                CCDC 
#
#######################################################################
#
# If this CIF has been generated from an entry in the Cambridge 
# Structural Database, then it will include bibliographic, chemical, 
# crystal, experimental, refinement or atomic coordinate data resulting 
# from the CCDC's data processing and validation procedures.
#
#######################################################################

data_ZIMXOK
_chemical_formula_moiety         'C21 H14 I1 N1 O1'
_chemical_name_systematic        
4-(Iodo(phenyl)methylene)-2-phenyl-4H-3,1-benzoxazine
_symmetry_cell_setting           monoclinic
_symmetry_space_group_name_H-M   'P 21/n'
_symmetry_Int_Tables_number      14
_space_group_name_Hall           '-P 2yn'
loop_
_symmetry_equiv_pos_site_id
_symmetry_equiv_pos_as_xyz
1 x,y,z
2 1/2-x,1/2+y,1/2-z
3 -x,-y,-z
4 1/2+x,1/2-y,1/2+z
_cell_length_a                   8.6456(3)
_cell_length_b                   20.4565(5)
_cell_length_c                   9.9640(3)
_cell_angle_alpha                90
_cell_angle_beta                 105.672(4)
_cell_angle_gamma                90
_cell_volume                     1696.71
_exptl_crystal_colour            yellow
_exptl_crystal_description       parallelepiped
_cell_formula_units_Z            4
loop_
_atom_site_label
_atom_site_type_symbol
_atom_site_fract_x
_atom_site_fract_y
_atom_site_fract_z
I1 I 0.22524(3) 0.182324(9) 0.78009(2)
O1 O 0.1917(2) 0.06919(8) 0.96243(19)
N1 N 0.2153(3) -0.00187(10) 1.1492(3)
C1 C 0.1512(3) 0.04673(12) 1.2179(3)
C2 C 0.1248(4) 0.03108(13) 1.3457(3)
H1 H 0.1538 -0.0100 1.3844
C3 C 0.0567(4) 0.07531(13) 1.4151(3)
H2 H 0.0381 0.0641 1.4998
C4 C 0.0155(4) 0.13637(14) 1.3595(3)
H3 H -0.0325 0.1662 1.4061
C5 C 0.0450(4) 0.15352(14) 1.2355(3)
H4 H 0.0175 0.1952 1.1995
C6 C 0.1151(3) 0.10971(12) 1.1627(3)
C7 C 0.1511(3) 0.12377(11) 1.0304(3)
C8 C 0.2305(3) 0.01135(12) 1.0299(3)
C9 C 0.1532(3) 0.18046(12) 0.9659(3)
C10 C 0.1246(3) 0.24653(11) 1.0157(3)
C11 C -0.0258(4) 0.27524(13) 0.9763(3)
H5 H -0.1120 0.2527 0.9190
C12 C -0.0483(4) 0.33809(15) 1.0227(3)
H6 H -0.1492 0.3575 0.9953
C13 C 0.0768(5) 0.37091(14) 1.1077(3)
H7 H 0.0610 0.4125 1.1392
C14 C 0.2260(4) 0.34300(15) 1.1471(4)
H8 H 0.3111 0.3657 1.2055
C15 C 0.2512(4) 0.28148(13) 1.1008(3)
H9 H 0.3535 0.2633 1.1268
C16 C 0.2944(3) -0.03557(12) 0.9456(3)
C17 C 0.3282(4) -0.01711(14) 0.8239(3)
H10 H 0.3077 0.0255 0.7914
C18 C 0.3929(4) -0.06200(16) 0.7493(4)
H11 H 0.4165 -0.0493 0.6674
C19 C 0.4216(4) -0.12464(17) 0.7964(4)
H12 H 0.4633 -0.1549 0.7458
C20 C 0.3894(4) -0.14285(15) 0.9176(4)
H13 H 0.4105 -0.1855 0.9499
C21 C 0.3258(4) -0.09866(13) 0.9930(3)
H14 H 0.3041 -0.1115 1.0756
loop_
_geom_bond_atom_site_label_1
_geom_bond_atom_site_label_2
_geom_bond_site_symmetry_1
_geom_bond_site_symmetry_2
I1 C9 1_555 1_555
O1 C7 1_555 1_555
N1 C1 1_555 1_555
C1 C2 1_555 1_555
C2 H1 1_555 1_555
C3 C2 1_555 1_555
H2 C3 1_555 1_555
C4 C3 1_555 1_555
H3 C4 1_555 1_555
C5 C4 1_555 1_555
H4 C5 1_555 1_555
C6 C1 1_555 1_555
C7 C6 1_555 1_555
C8 O1 1_555 1_555
C9 C7 1_555 1_555
C10 C9 1_555 1_555
C11 C10 1_555 1_555
H5 C11 1_555 1_555
C12 C11 1_555 1_555
H6 C12 1_555 1_555
C13 C12 1_555 1_555
H7 C13 1_555 1_555
C14 C13 1_555 1_555
H8 C14 1_555 1_555
C15 C10 1_555 1_555
H9 C15 1_555 1_555
C16 C8 1_555 1_555
C17 C16 1_555 1_555
H10 C17 1_555 1_555
C18 C17 1_555 1_555
H11 C18 1_555 1_555
C19 C18 1_555 1_555
H12 C19 1_555 1_555
C20 C19 1_555 1_555
H13 C20 1_555 1_555
C21 C16 1_555 1_555
H14 C21 1_555 1_555
N1 C8 1_555 1_555
C5 C6 1_555 1_555
C14 C15 1_555 1_555
C20 C21 1_555 1_555

#END
