
#######################################################################
#
#                 Cambridge Crystallographic Data Centre
#                                CCDC 
#
#######################################################################
#
# If this CIF has been generated from an entry in the Cambridge 
# Structural Database, then it will include bibliographic, chemical, 
# crystal, experimental, refinement or atomic coordinate data resulting 
# from the CCDC's data processing and validation procedures.
#
#######################################################################

data_ZIMYAX
_chemical_formula_moiety         'C22 H13 F3 I1 N1 O1'
_chemical_name_systematic        
4-(Iodo(phenyl)methylene)-2-phenyl-6-(trifluoromethyl)-4H-3,1-benzoxazine
_symmetry_cell_setting           triclinic
_symmetry_space_group_name_H-M   'P -1'
_symmetry_Int_Tables_number      2
_space_group_name_Hall           '-P 1'
loop_
_symmetry_equiv_pos_site_id
_symmetry_equiv_pos_as_xyz
1 x,y,z
2 -x,-y,-z
_cell_length_a                   8.1298(2)
_cell_length_b                   10.6900(3)
_cell_length_c                   11.1738(3)
_cell_angle_alpha                80.375(2)
_cell_angle_beta                 87.307(2)
_cell_angle_gamma                73.916(2)
_cell_volume                     919.941
_exptl_crystal_colour            yellow
_exptl_crystal_description       parallelepiped
_cell_formula_units_Z            2
loop_
_atom_site_label
_atom_site_type_symbol
_atom_site_fract_x
_atom_site_fract_y
_atom_site_fract_z
I1 I 0.37326(2) 0.712260(15) 0.726843(14)
F1 F 0.1975(2) 0.76738(15) 0.08186(14)
F2 F 0.34000(19) 0.58494(17) 0.02828(14)
F3 F 0.06694(19) 0.64466(17) 0.01301(13)
O1 O 0.3282(2) 0.47551(15) 0.63396(14)
N1 N 0.1901(2) 0.34340(19) 0.55219(18)
C1 C 0.2912(3) 0.5770(2) 0.5340(2)
C2 C 0.2431(3) 0.5380(2) 0.4233(2)
C3 C 0.2478(3) 0.6085(2) 0.3068(2)
H1 H 0.2939 0.6822 0.2940
C4 C 0.1845(3) 0.5699(2) 0.2097(2)
C5 C 0.1175(3) 0.4620(2) 0.2266(2)
H2 H 0.0705 0.4389 0.1600
C6 C 0.1197(3) 0.3886(2) 0.3407(2)
H3 H 0.0768 0.3133 0.3524
C7 C 0.1849(3) 0.4250(2) 0.4391(2)
C8 C 0.2622(3) 0.3702(2) 0.6392(2)
C9 C 0.2870(3) 0.2870(2) 0.7595(2)
C10 C 0.2529(3) 0.1648(3) 0.7737(2)
H4 H 0.2167 0.1356 0.7063
C11 C 0.2720(4) 0.0858(3) 0.8868(3)
H5 H 0.2495 0.0021 0.8965
C12 C 0.3235(3) 0.1277(3) 0.9852(2)
H6 H 0.3350 0.0736 1.0626
C13 C 0.3580(3) 0.2482(3) 0.9710(2)
H7 H 0.3956 0.2759 1.0388
C14 C 0.3389(3) 0.3300(3) 0.8590(2)
H8 H 0.3608 0.4138 0.8504
C15 C 0.3041(3) 0.6945(2) 0.5528(2)
C16 C 0.2600(3) 0.8193(2) 0.4649(2)
C17 C 0.3804(3) 0.8898(3) 0.4319(2)
H9 H 0.4916 0.8588 0.4666
C18 C 0.3373(4) 1.0054(3) 0.3480(3)
H10 H 0.4199 1.0528 0.3250
C19 C 0.1755(4) 1.0517(3) 0.2979(2)
H11 H 0.1468 1.1305 0.2403
C20 C 0.0552(3) 0.9826(2) 0.3321(2)
H12 H -0.0562 1.0144 0.2977
C21 C 0.0960(3) 0.8681(2) 0.4156(2)
H13 H 0.0120 0.8223 0.4396
C22 C 0.1959(3) 0.6425(3) 0.0846(2)
loop_
_geom_bond_atom_site_label_1
_geom_bond_atom_site_label_2
_geom_bond_site_symmetry_1
_geom_bond_site_symmetry_2
I1 C15 1_555 1_555
F1 C22 1_555 1_555
F2 C22 1_555 1_555
F3 C22 1_555 1_555
O1 C1 1_555 1_555
N1 C7 1_555 1_555
C1 C2 1_555 1_555
C2 C3 1_555 1_555
C3 H1 1_555 1_555
C4 C3 1_555 1_555
C5 C4 1_555 1_555
H2 C5 1_555 1_555
C6 C5 1_555 1_555
H3 C6 1_555 1_555
C7 C2 1_555 1_555
C8 O1 1_555 1_555
C9 C8 1_555 1_555
C10 C9 1_555 1_555
H4 C10 1_555 1_555
C11 C10 1_555 1_555
H5 C11 1_555 1_555
C12 C11 1_555 1_555
H6 C12 1_555 1_555
C13 C12 1_555 1_555
H7 C13 1_555 1_555
C14 C9 1_555 1_555
H8 C14 1_555 1_555
C15 C1 1_555 1_555
C16 C15 1_555 1_555
C17 C16 1_555 1_555
H9 C17 1_555 1_555
C18 C17 1_555 1_555
H10 C18 1_555 1_555
C19 C18 1_555 1_555
H11 C19 1_555 1_555
C20 C19 1_555 1_555
H12 C20 1_555 1_555
C21 C16 1_555 1_555
H13 C21 1_555 1_555
C22 C4 1_555 1_555
N1 C8 1_555 1_555
C6 C7 1_555 1_555
C13 C14 1_555 1_555
C20 C21 1_555 1_555

#END
