
#######################################################################
#
#                 Cambridge Crystallographic Data Centre
#                                CCDC 
#
#######################################################################
#
# If this CIF has been generated from an entry in the Cambridge 
# Structural Database, then it will include bibliographic, chemical, 
# crystal, experimental, refinement or atomic coordinate data resulting 
# from the CCDC's data processing and validation procedures.
#
#######################################################################

data_ZIMZED
_chemical_formula_moiety         'C19 H17 Cl1 N4 O4'
_chemical_name_systematic        
'methyl (1R,4S,5S)-4-(6-chloro-9H-purin-9-yl)-1-hydroxy-3-oxo-5-phenylcyclohexane-1-carboxylate unknown solvate'
_symmetry_cell_setting           rhombohedral
_symmetry_space_group_name_H-M   'R 3'
_symmetry_Int_Tables_number      146
_space_group_name_Hall           'R 3'
loop_
_symmetry_equiv_pos_site_id
_symmetry_equiv_pos_as_xyz
1 x,y,z
2 -y,x-y,z
3 -x+y,-x,z
4 2/3+x,1/3+y,1/3+z
5 2/3-y,1/3+x-y,1/3+z
6 2/3-x+y,1/3-x,1/3+z
7 1/3+x,2/3+y,2/3+z
8 1/3-y,2/3+x-y,2/3+z
9 1/3-x+y,2/3-x,2/3+z
_cell_length_a                   22.5743(2)
_cell_length_b                   22.5743(2)
_cell_length_c                   12.4350(2)
_cell_angle_alpha                90
_cell_angle_beta                 90
_cell_angle_gamma                120
_cell_volume                     5487.89
_exptl_crystal_colour            'light colorless'
_exptl_crystal_description       'rectangular Prism'
_cell_formula_units_Z            9
loop_
_atom_site_label
_atom_site_type_symbol
_atom_site_fract_x
_atom_site_fract_y
_atom_site_fract_z
Cl1 Cl 0.33454(9) 0.37794(7) 0.73899(18)
O1 O 0.73735(15) 0.78721(16) 0.6710(3)
H1 H 0.771143 0.824018 0.685828
O2 O 0.63635(19) 0.62035(19) 0.5789(3)
N1 N 0.51935(18) 0.60833(17) 0.6545(3)
N2 N 0.4435(2) 0.5498(2) 0.5039(4)
N3 N 0.4702(2) 0.5264(2) 0.7791(4)
C1 C 0.4344(2) 0.5034(2) 0.6839(4)
C2 C 0.4649(2) 0.5542(2) 0.6053(4)
N4 N 0.3532(2) 0.4377(2) 0.5524(4)
C3 C 0.3774(2) 0.4449(2) 0.6515(5)
C4 C 0.7039(2) 0.7953(2) 0.5803(4)
O3 O 0.7991(3) 0.9082(2) 0.5673(4)
O4 O 0.7326(3) 0.8657(3) 0.4254(5)
C5 C 0.5300(2) 0.7425(2) 0.7117(4)
C6 C 0.5898(2) 0.73470(19) 0.6750(4)
H2 H 0.612348 0.729198 0.738467
C7 C 0.7536(3) 0.8627(3) 0.5280(6)
C8 C 0.5674(2) 0.6725(2) 0.6009(4)
H3 H 0.545205 0.678178 0.537078
C9 C 0.6307(2) 0.6698(2) 0.5656(4)
C10 C 0.6412(2) 0.7990(2) 0.6145(4)
H4 H 0.619304 0.804711 0.551298
H5 H 0.655264 0.838644 0.660310
C11 C 0.4839(3) 0.7443(3) 0.6373(5)
H6 H 0.488809 0.738415 0.564488
C12 C 0.5216(4) 0.7505(3) 0.8192(6)
H7 H 0.551283 0.749249 0.869715
C13 C 0.6838(3) 0.7325(3) 0.5076(5)
H8 H 0.665501 0.737751 0.440016
H9 H 0.723669 0.728273 0.492425
C14 C 0.5193(3) 0.5884(3) 0.7575(4)
H10 H 0.551338 0.616475 0.808279
C15 C 0.3878(3) 0.4875(3) 0.4854(5)
H11 H 0.372115 0.479305 0.414800
C16 C 0.4306(4) 0.7550(4) 0.6719(7)
H12 H 0.400823 0.756926 0.622165
C17 C 0.4685(4) 0.7606(4) 0.8516(7)
H13 H 0.462304 0.766375 0.923971
C18 C 0.4234(4) 0.7619(4) 0.7721(7)
H14 H 0.387467 0.767958 0.794212
C19 C 0.7710(6) 0.9292(5) 0.3707(9)
H15 H 0.769116 0.921152 0.294666
H16 H 0.817715 0.951172 0.394405
H17 H 0.752103 0.958036 0.386251
loop_
_geom_bond_atom_site_label_1
_geom_bond_atom_site_label_2
_geom_bond_site_symmetry_1
_geom_bond_site_symmetry_2
Cl1 C3 1_555 1_555
O1 H1 1_555 1_555
O2 C9 1_555 1_555
N1 C2 1_555 1_555
N2 C2 1_555 1_555
N3 C1 1_555 1_555
C1 C2 1_555 1_555
N4 C3 1_555 1_555
C3 C1 1_555 1_555
C4 O1 1_555 1_555
O3 C7 1_555 1_555
O4 C7 1_555 1_555
C5 C6 1_555 1_555
C6 H2 1_555 1_555
C7 C4 1_555 1_555
C8 N1 1_555 1_555
H3 C8 1_555 1_555
C9 C8 1_555 1_555
C10 C4 1_555 1_555
H4 C10 1_555 1_555
H5 C10 1_555 1_555
C11 C5 1_555 1_555
H6 C11 1_555 1_555
C12 C5 1_555 1_555
H7 C12 1_555 1_555
C13 C4 1_555 1_555
H8 C13 1_555 1_555
H9 C13 1_555 1_555
C14 N1 1_555 1_555
H10 C14 1_555 1_555
C15 N2 1_555 1_555
H11 C15 1_555 1_555
C16 C11 1_555 1_555
H12 C16 1_555 1_555
C17 C12 1_555 1_555
H13 C17 1_555 1_555
C18 C16 1_555 1_555
H14 C18 1_555 1_555
C19 O4 1_555 1_555
H15 C19 1_555 1_555
H16 C19 1_555 1_555
H17 C19 1_555 1_555
N3 C14 1_555 1_555
N4 C15 1_555 1_555
C6 C8 1_555 1_555
C6 C10 1_555 1_555
C9 C13 1_555 1_555
C17 C18 1_555 1_555

#END
