
#######################################################################
#
#                 Cambridge Crystallographic Data Centre
#                                CCDC 
#
#######################################################################
#
# If this CIF has been generated from an entry in the Cambridge 
# Structural Database, then it will include bibliographic, chemical, 
# crystal, experimental, refinement or atomic coordinate data resulting 
# from the CCDC's data processing and validation procedures.
#
#######################################################################

data_ZIMZAY
_chemical_formula_moiety         'C26 H17 N3 O3'
_chemical_name_systematic        
2-(4-Nitrophenyl)-4-(phenyl(pyridin-3-yl)methylene)-4H-3,1-benzoxazine
_symmetry_cell_setting           monoclinic
_symmetry_space_group_name_H-M   'C 2/c'
_symmetry_Int_Tables_number      15
_space_group_name_Hall           '-C 2yn'
loop_
_symmetry_equiv_pos_site_id
_symmetry_equiv_pos_as_xyz
1 x,y,z
2 -x,y,1/2-z
3 1/2+x,1/2+y,z
4 1/2-x,1/2+y,1/2-z
5 -x,-y,-z
6 x,-y,1/2+z
7 1/2-x,1/2-y,-z
8 1/2+x,1/2-y,1/2+z
_cell_length_a                   31.297(3)
_cell_length_b                   8.1567(7)
_cell_length_c                   18.7872(16)
_cell_angle_alpha                90
_cell_angle_beta                 119.988(2)
_cell_angle_gamma                90
_cell_volume                     4153.96
_exptl_crystal_colour            red
_exptl_crystal_description       parallelepiped
_cell_formula_units_Z            8
loop_
_atom_site_label
_atom_site_type_symbol
_atom_site_fract_x
_atom_site_fract_y
_atom_site_fract_z
O1 O 0.18775(4) 0.40132(15) 0.47631(7)
O2 O 0.34085(7) 0.8654(2) 0.40073(11)
O3 O 0.40388(6) 0.7742(2) 0.51128(11)
N1 N 0.24958(5) 0.35010(17) 0.61067(8)
N2 N 0.05617(7) 0.6363(3) 0.24088(13)
N3 N 0.35949(7) 0.7841(2) 0.46394(13)
C1 C 0.21577(6) 0.25782(19) 0.62302(9)
C2 C 0.23384(7) 0.1833(2) 0.69950(10)
H1 H 0.2666 0.1983 0.7398
C3 C 0.20361(7) 0.0879(2) 0.71566(11)
H2 H 0.2155 0.0406 0.7672
C4 C 0.15548(7) 0.0627(2) 0.65501(12)
H3 H 0.1351 -0.0034 0.6656
C5 C 0.13711(7) 0.1343(2) 0.57880(11)
H4 H 0.1046 0.1145 0.5384
C6 C 0.16655(6) 0.23622(19) 0.56116(9)
C7 C 0.15013(6) 0.3197(2) 0.48253(10)
C8 C 0.10547(6) 0.3347(2) 0.41464(10)
C9 C 0.05983(6) 0.2682(3) 0.41057(12)
C10 C 0.04023(8) 0.3399(3) 0.45481(17)
H5 H 0.0546 0.4344 0.4851
C11 C -0.00019(11) 0.2736(5) 0.4547(2)
H6 H -0.0128 0.3224 0.4851
C12 C -0.02173(11) 0.1355(6) 0.4097(3)
H7 H -0.0489 0.0901 0.4101
C13 C -0.00368(12) 0.0621(5) 0.3633(2)
H8 H -0.0188 -0.0312 0.3324
C14 C 0.03759(9) 0.1300(4) 0.36344(15)
H9 H 0.0499 0.0828 0.3323
C15 C 0.09886(6) 0.4226(2) 0.34039(10)
C16 C 0.12645(8) 0.3889(3) 0.30292(12)
H10 H 0.1503 0.3070 0.3234
C17 C 0.11798(10) 0.4792(4) 0.23455(14)
H11 H 0.1356 0.4577 0.2078
C18 C 0.08303(10) 0.6009(4) 0.20704(15)
H12 H 0.0781 0.6621 0.1617
C19 C 0.06404(7) 0.5460(3) 0.30540(12)
H13 H 0.0446 0.5677 0.3289
C20 C 0.23405(6) 0.41339(19) 0.54056(9)
C21 C 0.26609(6) 0.51172(19) 0.52036(10)
C22 C 0.24866(6) 0.5746(2) 0.44200(10)
H14 H 0.2162 0.5548 0.4014
C23 C 0.27902(7) 0.6663(2) 0.42388(11)
H15 H 0.2674 0.7094 0.3716
C24 C 0.32682(7) 0.6923(2) 0.48491(12)
C25 C 0.34527(7) 0.6332(2) 0.56347(12)
H16 H 0.3778 0.6536 0.6037
C26 C 0.31462(6) 0.5433(2) 0.58115(11)
H17 H 0.3263 0.5033 0.6341
loop_
_geom_bond_atom_site_label_1
_geom_bond_atom_site_label_2
_geom_bond_site_symmetry_1
_geom_bond_site_symmetry_2
O1 C7 1_555 1_555
O2 N3 1_555 1_555
O3 N3 1_555 1_555
N1 C1 1_555 1_555
N2 C18 1_555 1_555
N3 C24 1_555 1_555
C1 C2 1_555 1_555
C2 H1 1_555 1_555
C3 C2 1_555 1_555
H2 C3 1_555 1_555
C4 C3 1_555 1_555
H3 C4 1_555 1_555
C5 C4 1_555 1_555
H4 C5 1_555 1_555
C6 C1 1_555 1_555
C7 C6 1_555 1_555
C8 C7 1_555 1_555
C9 C8 1_555 1_555
C10 C9 1_555 1_555
H5 C10 1_555 1_555
C11 C10 1_555 1_555
H6 C11 1_555 1_555
C12 C11 1_555 1_555
H7 C12 1_555 1_555
C13 C12 1_555 1_555
H8 C13 1_555 1_555
C14 C9 1_555 1_555
H9 C14 1_555 1_555
C15 C8 1_555 1_555
C16 C15 1_555 1_555
H10 C16 1_555 1_555
C17 C16 1_555 1_555
H11 C17 1_555 1_555
C18 C17 1_555 1_555
H12 C18 1_555 1_555
C19 N2 1_555 1_555
H13 C19 1_555 1_555
C20 O1 1_555 1_555
C21 C20 1_555 1_555
C22 C21 1_555 1_555
H14 C22 1_555 1_555
C23 C22 1_555 1_555
H15 C23 1_555 1_555
C24 C23 1_555 1_555
C25 C24 1_555 1_555
H16 C25 1_555 1_555
C26 C21 1_555 1_555
H17 C26 1_555 1_555
N1 C20 1_555 1_555
C5 C6 1_555 1_555
C13 C14 1_555 1_555
C15 C19 1_555 1_555
C25 C26 1_555 1_555

#END
