
#######################################################################
#
#                 Cambridge Crystallographic Data Centre
#                                CCDC 
#
#######################################################################
#
# If this CIF has been generated from an entry in the Cambridge 
# Structural Database, then it will include bibliographic, chemical, 
# crystal, experimental, refinement or atomic coordinate data resulting 
# from the CCDC's data processing and validation procedures.
#
#######################################################################

data_ZINBEG
_chemical_formula_moiety         'C62 H42 O2,C1 H1 Cl3'
_chemical_name_systematic        
"12,12'-[3,4-bis(2,4,6-trimethylphenyl)cyclobut-3-ene-1,2-diylidene]bis(indeno[1,2-b]fluoren-6(12H)-one) chloroform solvate"
_symmetry_cell_setting           triclinic
_symmetry_space_group_name_H-M   'P -1'
_symmetry_Int_Tables_number      2
_space_group_name_Hall           '-P 1'
loop_
_symmetry_equiv_pos_site_id
_symmetry_equiv_pos_as_xyz
1 x,y,z
2 -x,-y,-z
_cell_length_a                   8.1774(6)
_cell_length_b                   15.6087(10)
_cell_length_c                   20.2266(15)
_cell_angle_alpha                100.693(4)
_cell_angle_beta                 99.580(4)
_cell_angle_gamma                104.108(4)
_cell_volume                     2398.9
_exptl_crystal_colour            red
_exptl_crystal_description       prismatic
_cell_formula_units_Z            2
loop_
_atom_site_label
_atom_site_type_symbol
_atom_site_fract_x
_atom_site_fract_y
_atom_site_fract_z
Cl1 Cl 0.6481(3) 0.86460(15) 0.00239(10)
Cl2 Cl 1.0127(3) 0.9045(2) 0.05265(17)
Cl3 Cl 0.7810(3) 0.82881(16) 0.13165(10)
C1 C 0.8118(8) 0.8337(5) 0.0497(3)
H1 H 0.8080 0.7724 0.0258
O1 O 0.7569(4) 0.6068(2) 0.02203(17)
O2 O 1.2469(4) 0.8353(2) 0.3933(2)
C2 C 0.8493(5) 0.5735(3) 0.0569(2)
C3 C 1.0414(5) 0.5955(3) 0.0712(2)
C4 C 1.1569(6) 0.6527(3) 0.0441(2)
H2 H 1.1182 0.6846 0.0132
C5 C 1.3310(6) 0.6608(3) 0.0646(3)
H3 H 1.4107 0.6971 0.0461
C6 C 1.3869(6) 0.6159(3) 0.1117(3)
H4 H 1.5049 0.6241 0.1261
C7 C 1.2720(5) 0.5583(3) 0.1386(2)
H5 H 1.3118 0.5276 0.1701
C8 C 1.0970(5) 0.5477(3) 0.1175(2)
C9 C 0.9441(5) 0.4900(2) 0.1337(2)
C10 C 0.7949(5) 0.5052(3) 0.0966(2)
C11 C 0.6310(5) 0.4573(3) 0.0973(2)
H6 H 0.5344 0.4659 0.0709
C12 C 0.6141(4) 0.3956(2) 0.13889(19)
C13 C 0.7629(4) 0.3830(2) 0.17949(18)
C14 C 0.9280(4) 0.4281(2) 0.17448(19)
H7 H 1.0252 0.4167 0.1981
C15 C 0.4607(5) 0.3336(2) 0.14773(19)
C16 C 0.2879(5) 0.3227(3) 0.1212(2)
H8 H 0.2557 0.3583 0.0921
C17 C 0.1640(5) 0.2588(3) 0.1382(2)
H9 H 0.0475 0.2505 0.1202
C18 C 0.2128(6) 0.2071(3) 0.1817(3)
H10 H 0.1276 0.1639 0.1926
C19 C 0.3853(5) 0.2174(3) 0.2101(2)
H11 H 0.4156 0.1827 0.2403
C20 C 0.5113(5) 0.2807(2) 0.19243(19)
C21 C 0.7016(5) 0.3120(2) 0.21626(19)
C22 C 0.8001(4) 0.2802(2) 0.26287(19)
C23 C 0.7777(5) 0.1933(2) 0.28436(19)
C24 C 0.9421(5) 0.2215(2) 0.32547(19)
C25 C 0.9788(4) 0.3126(2) 0.30927(19)
C26 C 1.1077(5) 0.3919(2) 0.33502(19)
C27 C 1.2901(5) 0.4013(2) 0.3677(2)
C28 C 1.3802(5) 0.3376(3) 0.3748(2)
H12 H 1.3241 0.2757 0.3589
C29 C 1.5555(5) 0.3676(3) 0.4060(2)
H13 H 1.6159 0.3252 0.4122
C30 C 1.6413(5) 0.4592(3) 0.4281(2)
H14 H 1.7584 0.4779 0.4490
C31 C 1.5547(5) 0.5231(3) 0.4192(2)
H15 H 1.6132 0.5847 0.4334
C32 C 1.3801(5) 0.4947(2) 0.3890(2)
C33 C 1.2599(5) 0.5463(2) 0.3716(2)
C34 C 1.0959(5) 0.4850(2) 0.33958(19)
C35 C 0.9513(5) 0.5167(2) 0.32332(18)
H16 H 0.8412 0.4767 0.3055
C36 C 0.9786(5) 0.6091(2) 0.33471(19)
C37 C 1.1445(5) 0.6703(2) 0.3642(2)
C38 C 1.2844(5) 0.6397(2) 0.3849(2)
H17 H 1.3917 0.6802 0.4072
C39 C 1.1301(6) 0.7647(3) 0.3694(2)
C40 C 0.9456(5) 0.7552(3) 0.3392(2)
C41 C 0.8559(5) 0.6629(3) 0.3194(2)
C42 C 0.6801(5) 0.6359(3) 0.2924(2)
H18 H 0.6181 0.5747 0.2798
C43 C 0.5980(6) 0.7029(3) 0.2847(2)
H19 H 0.4792 0.6857 0.2670
C44 C 0.6881(6) 0.7948(3) 0.3025(3)
H20 H 0.6308 0.8381 0.2957
C45 C 0.8642(6) 0.8209(3) 0.3307(2)
H21 H 0.9263 0.8821 0.3437
C46 C 0.6444(5) 0.1049(2) 0.2660(2)
C47 C 0.5747(5) 0.0681(2) 0.3166(2)
C48 C 0.4554(5) -0.0167(3) 0.2971(2)
H22 H 0.4091 -0.0406 0.3310
C49 C 0.4016(5) -0.0675(3) 0.2303(3)
C50 C 0.4720(5) -0.0305(3) 0.1804(2)
H23 H 0.4369 -0.0635 0.1347
C51 C 0.5930(5) 0.0539(3) 0.1967(2)
C52 C 0.6687(6) 0.0889(3) 0.1400(2)
H24 H 0.6459 0.0395 0.1004
H25 H 0.7913 0.1152 0.1562
H26 H 0.6168 0.1342 0.1274
C53 C 0.6179(6) 0.1196(3) 0.3910(2)
H27 H 0.6196 0.1818 0.3932
H28 H 0.7294 0.1172 0.4132
H29 H 0.5322 0.0926 0.4139
C54 C 0.2704(6) -0.1599(3) 0.2110(3)
H30 H 0.2754 -0.1868 0.2501
H31 H 0.2958 -0.1982 0.1735
H32 H 0.1567 -0.1535 0.1973
C55 C 1.0343(4) 0.1805(2) 0.37433(19)
C56 C 1.0806(5) 0.2249(2) 0.4456(2)
C57 C 1.1663(5) 0.1855(3) 0.4915(2)
H33 H 1.1979 0.2145 0.5381
C58 C 1.2067(5) 0.1051(3) 0.4707(2)
C59 C 1.1555(5) 0.0619(3) 0.4009(2)
H34 H 1.1800 0.0073 0.3860
C60 C 1.0687(5) 0.0979(2) 0.3527(2)
C61 C 1.0184(6) 0.0448(3) 0.2779(2)
H35 H 1.1118 0.0221 0.2666
H36 H 0.9943 0.0840 0.2485
H37 H 0.9172 -0.0052 0.2713
C62 C 1.0340(5) 0.3096(3) 0.4726(2)
H38 H 1.0353 0.3160 0.5208
H39 H 0.9205 0.3058 0.4479
H40 H 1.1163 0.3612 0.4663
C63 C 1.2983(7) 0.0628(4) 0.5211(3)
H41 H 1.3973 0.1083 0.5510
H42 H 1.3351 0.0150 0.4963
H43 H 1.2209 0.0383 0.5482
loop_
_geom_bond_atom_site_label_1
_geom_bond_atom_site_label_2
_geom_bond_site_symmetry_1
_geom_bond_site_symmetry_2
Cl1 C1 1_555 1_555
Cl2 C1 1_555 1_555
Cl3 C1 1_555 1_555
C1 H1 1_555 1_555
O1 C2 1_555 1_555
O2 C39 1_555 1_555
C2 C3 1_555 1_555
C3 C4 1_555 1_555
C4 H2 1_555 1_555
C5 C4 1_555 1_555
H3 C5 1_555 1_555
C6 C5 1_555 1_555
H4 C6 1_555 1_555
C7 C6 1_555 1_555
H5 C7 1_555 1_555
C8 C3 1_555 1_555
C9 C8 1_555 1_555
C10 C2 1_555 1_555
C11 C10 1_555 1_555
H6 C11 1_555 1_555
C12 C11 1_555 1_555
C13 C12 1_555 1_555
C14 C9 1_555 1_555
H7 C14 1_555 1_555
C15 C12 1_555 1_555
C16 C15 1_555 1_555
H8 C16 1_555 1_555
C17 C16 1_555 1_555
H9 C17 1_555 1_555
C18 C17 1_555 1_555
H10 C18 1_555 1_555
C19 C18 1_555 1_555
H11 C19 1_555 1_555
C20 C15 1_555 1_555
C21 C13 1_555 1_555
C22 C21 1_555 1_555
C23 C22 1_555 1_555
C24 C23 1_555 1_555
C25 C22 1_555 1_555
C26 C25 1_555 1_555
C27 C26 1_555 1_555
C28 C27 1_555 1_555
H12 C28 1_555 1_555
C29 C28 1_555 1_555
H13 C29 1_555 1_555
C30 C29 1_555 1_555
H14 C30 1_555 1_555
C31 C30 1_555 1_555
H15 C31 1_555 1_555
C32 C27 1_555 1_555
C33 C32 1_555 1_555
C34 C26 1_555 1_555
C35 C34 1_555 1_555
H16 C35 1_555 1_555
C36 C35 1_555 1_555
C37 C36 1_555 1_555
C38 C33 1_555 1_555
H17 C38 1_555 1_555
C39 C37 1_555 1_555
C40 C39 1_555 1_555
C41 C36 1_555 1_555
C42 C41 1_555 1_555
H18 C42 1_555 1_555
C43 C42 1_555 1_555
H19 C43 1_555 1_555
C44 C43 1_555 1_555
H20 C44 1_555 1_555
C45 C40 1_555 1_555
H21 C45 1_555 1_555
C46 C23 1_555 1_555
C47 C46 1_555 1_555
C48 C47 1_555 1_555
H22 C48 1_555 1_555
C49 C48 1_555 1_555
C50 C49 1_555 1_555
H23 C50 1_555 1_555
C51 C46 1_555 1_555
C52 C51 1_555 1_555
H24 C52 1_555 1_555
H25 C52 1_555 1_555
H26 C52 1_555 1_555
C53 C47 1_555 1_555
H27 C53 1_555 1_555
H28 C53 1_555 1_555
H29 C53 1_555 1_555
C54 C49 1_555 1_555
H30 C54 1_555 1_555
H31 C54 1_555 1_555
H32 C54 1_555 1_555
C55 C24 1_555 1_555
C56 C55 1_555 1_555
C57 C56 1_555 1_555
H33 C57 1_555 1_555
C58 C57 1_555 1_555
C59 C58 1_555 1_555
H34 C59 1_555 1_555
C60 C55 1_555 1_555
C61 C60 1_555 1_555
H35 C61 1_555 1_555
H36 C61 1_555 1_555
H37 C61 1_555 1_555
C62 C56 1_555 1_555
H38 C62 1_555 1_555
H39 C62 1_555 1_555
H40 C62 1_555 1_555
C63 C58 1_555 1_555
H41 C63 1_555 1_555
H42 C63 1_555 1_555
H43 C63 1_555 1_555
C7 C8 1_555 1_555
C9 C10 1_555 1_555
C13 C14 1_555 1_555
C19 C20 1_555 1_555
C20 C21 1_555 1_555
C24 C25 1_555 1_555
C31 C32 1_555 1_555
C33 C34 1_555 1_555
C37 C38 1_555 1_555
C40 C41 1_555 1_555
C44 C45 1_555 1_555
C50 C51 1_555 1_555
C59 C60 1_555 1_555

#END
