
#######################################################################
#
#                 Cambridge Crystallographic Data Centre
#                                CCDC 
#
#######################################################################
#
# If this CIF has been generated from an entry in the Cambridge 
# Structural Database, then it will include bibliographic, chemical, 
# crystal, experimental, refinement or atomic coordinate data resulting 
# from the CCDC's data processing and validation procedures.
#
#######################################################################

data_ZINBIK
_chemical_formula_moiety         'C62 H42 O2'
_chemical_name_systematic        
"12,12'-[3,4-bis(2,4,6-trimethylphenyl)cyclobut-3-ene-1,2-diylidene]bis(indeno[1,2-b]fluoren-6(12H)-one) unknown solvate"
_symmetry_cell_setting           triclinic
_symmetry_space_group_name_H-M   'P -1'
_symmetry_Int_Tables_number      2
_space_group_name_Hall           '-P 1'
loop_
_symmetry_equiv_pos_site_id
_symmetry_equiv_pos_as_xyz
1 x,y,z
2 -x,-y,-z
_cell_length_a                   12.7002(4)
_cell_length_b                   16.2234(6)
_cell_length_c                   16.3308(6)
_cell_angle_alpha                116.4440(10)
_cell_angle_beta                 98.0640(10)
_cell_angle_gamma                105.7650(10)
_cell_volume                     2762.93
_exptl_crystal_colour            red
_exptl_crystal_description       prismatic
_cell_formula_units_Z            2
loop_
_atom_site_label
_atom_site_type_symbol
_atom_site_fract_x
_atom_site_fract_y
_atom_site_fract_z
O1 O 1.00662(18) 0.56894(18) 0.64582(17)
O2 O 0.1968(3) 0.2759(3) 0.90570(18)
C1 C 0.9131(2) 0.5271(2) 0.6483(2)
C2 C 0.8707(2) 0.5561(2) 0.7331(2)
C3 C 0.9252(3) 0.6333(3) 0.8264(2)
H1 H 0.9997 0.6778 0.8443
C4 C 0.8657(4) 0.6424(3) 0.8924(3)
H2 H 0.9011 0.6937 0.9558
C5 C 0.7551(3) 0.5772(3) 0.8666(2)
H3 H 0.7167 0.5853 0.9124
C6 C 0.7005(3) 0.4995(3) 0.7726(2)
H4 H 0.6262 0.4549 0.7552
C7 C 0.7585(2) 0.4895(2) 0.70536(19)
C8 C 0.7241(2) 0.4161(2) 0.60173(18)
C9 C 0.8170(2) 0.4388(2) 0.5673(2)
C10 C 0.8098(2) 0.3836(2) 0.4719(2)
H5 H 0.8706 0.3997 0.4490
C11 C 0.7082(2) 0.3034(2) 0.41193(18)
C12 C 0.6155(2) 0.2783(2) 0.44667(18)
C13 C 0.6233(2) 0.3373(2) 0.54253(18)
H6 H 0.5617 0.3234 0.5655
C14 C 0.6733(2) 0.2326(3) 0.3083(2)
C15 C 0.7348(3) 0.2216(3) 0.2436(2)
H7 H 0.8079 0.2681 0.2615
C16 C 0.6864(4) 0.1411(5) 0.1528(3)
H8 H 0.7266 0.1335 0.1082
C17 C 0.5759(4) 0.0690(5) 0.1256(3)
H9 H 0.5464 0.0121 0.0651
C18 C 0.5115(3) 0.0833(4) 0.1895(2)
H10 H 0.4372 0.0383 0.1713
C19 C 0.5606(3) 0.1660(3) 0.2804(2)
C20 C 0.5178(2) 0.1948(2) 0.36492(19)
C21 C 0.4072(2) 0.1579(2) 0.36468(18)
C22 C 0.2927(2) 0.1180(2) 0.29451(18)
C23 C 0.2392(2) 0.13024(19) 0.36367(18)
C24 C 0.3481(2) 0.16274(19) 0.43813(18)
C25 C 0.3763(2) 0.17407(19) 0.52686(18)
C26 C 0.4750(2) 0.1597(2) 0.57088(19)
C27 C 0.5587(2) 0.1289(2) 0.5346(2)
H11 H 0.5630 0.1188 0.4747
C28 C 0.6359(3) 0.1136(3) 0.5901(3)
H12 H 0.6936 0.0946 0.5676
C29 C 0.6288(3) 0.1258(3) 0.6776(3)
H13 H 0.6820 0.1157 0.7136
C30 C 0.5447(3) 0.1527(3) 0.7124(3)
H14 H 0.5388 0.1588 0.7708
C31 C 0.4678(2) 0.1709(2) 0.6598(2)
C32 C 0.3690(2) 0.1962(2) 0.67775(19)
C33 C 0.3118(2) 0.19638(19) 0.59720(17)
C34 C 0.2174(2) 0.22481(19) 0.59800(18)
H15 H 0.1813 0.2277 0.5462
C35 C 0.1787(2) 0.2486(2) 0.67734(19)
C36 C 0.2347(3) 0.2444(2) 0.7552(2)
C37 C 0.3297(3) 0.2195(3) 0.7568(2)
H16 H 0.3664 0.2183 0.8095
C38 C 0.0822(3) 0.2790(2) 0.6987(2)
C39 C 0.0002(3) 0.2892(3) 0.6439(3)
H17 H 0.0006 0.2784 0.5831
C40 C -0.0844(3) 0.3166(3) 0.6834(3)
H18 H -0.1416 0.3233 0.6473
C41 C -0.0858(4) 0.3339(3) 0.7733(4)
H19 H -0.1424 0.3534 0.7976
C42 C -0.0032(4) 0.3226(3) 0.8280(3)
H20 H -0.0034 0.3341 0.8891
C43 C 0.0795(3) 0.2937(2) 0.7894(2)
C44 C 0.1745(3) 0.2729(3) 0.8295(2)
C45 C 0.2514(2) 0.0889(2) 0.1924(2)
C46 C 0.2857(3) 0.1599(3) 0.1648(2)
C47 C 0.2436(3) 0.1321(4) 0.0686(3)
H21 H 0.2658 0.1793 0.0502
C48 C 0.1697(4) 0.0362(4) 0.0000(3)
C49 C 0.1368(3) -0.0326(3) 0.0286(2)
H22 H 0.0870 -0.0972 -0.0168
C50 C 0.1761(3) -0.0077(3) 0.1237(2)
C51 C 0.1373(4) -0.0876(3) 0.1493(3)
H23 H 0.0946 -0.1505 0.0918
H24 H 0.0895 -0.0718 0.1900
H25 H 0.2032 -0.0910 0.1825
C52 C 0.3650(3) 0.2650(3) 0.2352(3)
H26 H 0.4406 0.2743 0.2287
H27 H 0.3674 0.2789 0.2992
H28 H 0.3377 0.3094 0.2229
C53 C 0.1257(5) 0.0094(5) -0.1038(3)
H29 H 0.1821 -0.0047 -0.1356
H30 H 0.1119 0.0641 -0.1052
H31 H 0.0555 -0.0482 -0.1360
C54 C 0.1186(2) 0.1123(2) 0.36453(18)
C55 C 0.0649(2) 0.1738(2) 0.3536(2)
C56 C -0.0458(2) 0.1575(2) 0.3588(2)
H32 H -0.0805 0.1993 0.3534
C57 C -0.1071(2) 0.0822(2) 0.3716(2)
C58 C -0.0529(2) 0.0221(2) 0.3804(2)
H33 H -0.0932 -0.0300 0.3878
C59 C 0.0589(2) 0.0363(2) 0.37865(19)
C60 C 0.1125(3) -0.0303(2) 0.3921(2)
H34 H 0.0692 -0.0630 0.4201
H35 H 0.1900 0.0086 0.4338
H36 H 0.1128 -0.0792 0.3310
C61 C 0.1256(3) 0.2559(3) 0.3372(3)
H37 H 0.0858 0.3007 0.3497
H38 H 0.1268 0.2281 0.2719
H39 H 0.2029 0.2913 0.3796
C62 C -0.2292(3) 0.0673(3) 0.3747(3)
H40 H -0.2593 0.0120 0.3838
H41 H -0.2758 0.0542 0.3154
H42 H -0.2300 0.1262 0.4269
loop_
_geom_bond_atom_site_label_1
_geom_bond_atom_site_label_2
_geom_bond_site_symmetry_1
_geom_bond_site_symmetry_2
O1 C1 1_555 1_555
O2 C44 1_555 1_555
C1 C2 1_555 1_555
C2 C3 1_555 1_555
C3 H1 1_555 1_555
C4 C3 1_555 1_555
H2 C4 1_555 1_555
C5 C4 1_555 1_555
H3 C5 1_555 1_555
C6 C5 1_555 1_555
H4 C6 1_555 1_555
C7 C2 1_555 1_555
C8 C7 1_555 1_555
C9 C1 1_555 1_555
C10 C9 1_555 1_555
H5 C10 1_555 1_555
C11 C10 1_555 1_555
C12 C11 1_555 1_555
C13 C8 1_555 1_555
H6 C13 1_555 1_555
C14 C11 1_555 1_555
C15 C14 1_555 1_555
H7 C15 1_555 1_555
C16 C15 1_555 1_555
H8 C16 1_555 1_555
C17 C16 1_555 1_555
H9 C17 1_555 1_555
C18 C17 1_555 1_555
H10 C18 1_555 1_555
C19 C14 1_555 1_555
C20 C12 1_555 1_555
C21 C20 1_555 1_555
C22 C21 1_555 1_555
C23 C22 1_555 1_555
C24 C21 1_555 1_555
C25 C24 1_555 1_555
C26 C25 1_555 1_555
C27 C26 1_555 1_555
H11 C27 1_555 1_555
C28 C27 1_555 1_555
H12 C28 1_555 1_555
C29 C28 1_555 1_555
H13 C29 1_555 1_555
C30 C29 1_555 1_555
H14 C30 1_555 1_555
C31 C26 1_555 1_555
C32 C31 1_555 1_555
C33 C25 1_555 1_555
C34 C33 1_555 1_555
H15 C34 1_555 1_555
C35 C34 1_555 1_555
C36 C35 1_555 1_555
C37 C32 1_555 1_555
H16 C37 1_555 1_555
C38 C35 1_555 1_555
C39 C38 1_555 1_555
H17 C39 1_555 1_555
C40 C39 1_555 1_555
H18 C40 1_555 1_555
C41 C40 1_555 1_555
H19 C41 1_555 1_555
C42 C41 1_555 1_555
H20 C42 1_555 1_555
C43 C38 1_555 1_555
C44 C36 1_555 1_555
C45 C22 1_555 1_555
C46 C45 1_555 1_555
C47 C46 1_555 1_555
H21 C47 1_555 1_555
C48 C47 1_555 1_555
C49 C48 1_555 1_555
H22 C49 1_555 1_555
C50 C45 1_555 1_555
C51 C50 1_555 1_555
H23 C51 1_555 1_555
H24 C51 1_555 1_555
H25 C51 1_555 1_555
C52 C46 1_555 1_555
H26 C52 1_555 1_555
H27 C52 1_555 1_555
H28 C52 1_555 1_555
C53 C48 1_555 1_555
H29 C53 1_555 1_555
H30 C53 1_555 1_555
H31 C53 1_555 1_555
C54 C23 1_555 1_555
C55 C54 1_555 1_555
C56 C55 1_555 1_555
H32 C56 1_555 1_555
C57 C56 1_555 1_555
C58 C57 1_555 1_555
H33 C58 1_555 1_555
C59 C54 1_555 1_555
C60 C59 1_555 1_555
H34 C60 1_555 1_555
H35 C60 1_555 1_555
H36 C60 1_555 1_555
C61 C55 1_555 1_555
H37 C61 1_555 1_555
H38 C61 1_555 1_555
H39 C61 1_555 1_555
C62 C57 1_555 1_555
H40 C62 1_555 1_555
H41 C62 1_555 1_555
H42 C62 1_555 1_555
C6 C7 1_555 1_555
C8 C9 1_555 1_555
C12 C13 1_555 1_555
C18 C19 1_555 1_555
C19 C20 1_555 1_555
C23 C24 1_555 1_555
C30 C31 1_555 1_555
C32 C33 1_555 1_555
C36 C37 1_555 1_555
C42 C43 1_555 1_555
C43 C44 1_555 1_555
C49 C50 1_555 1_555
C58 C59 1_555 1_555

#END
