
#######################################################################
#
#                 Cambridge Crystallographic Data Centre
#                                CCDC 
#
#######################################################################
#
# If this CIF has been generated from an entry in the Cambridge 
# Structural Database, then it will include bibliographic, chemical, 
# crystal, experimental, refinement or atomic coordinate data resulting 
# from the CCDC's data processing and validation procedures.
#
#######################################################################

data_ZINBOQ
_chemical_formula_moiety         'C80 H64 O1'
_chemical_name_systematic        
'3,4-bis(2,4,6-trimethylphenyl)-2,5-bis[12-(2,4,6-trimethylphenyl)indeno[1,2-b]fluoren-6-yl]furan unknown solvate'
_symmetry_cell_setting           orthorhombic
_symmetry_space_group_name_H-M   'P b c n'
_symmetry_Int_Tables_number      60
_space_group_name_Hall           '-P 2n 2ab'
loop_
_symmetry_equiv_pos_site_id
_symmetry_equiv_pos_as_xyz
1 x,y,z
2 1/2-x,1/2-y,1/2+z
3 -x,y,1/2-z
4 1/2+x,1/2-y,-z
5 -x,-y,-z
6 1/2+x,1/2+y,1/2-z
7 x,-y,1/2+z
8 1/2-x,1/2+y,z
_cell_length_a                   18.9589(5)
_cell_length_b                   17.5568(4)
_cell_length_c                   20.8566(5)
_cell_angle_alpha                90
_cell_angle_beta                 90
_cell_angle_gamma                90
_cell_volume                     6942.28
_exptl_crystal_colour            brown
_exptl_crystal_description       block
_cell_formula_units_Z            4
loop_
_atom_site_label
_atom_site_type_symbol
_atom_site_fract_x
_atom_site_fract_y
_atom_site_fract_z
O1 O 0.500000 0.28291(10) 0.250000
C1 C 0.48732(9) 0.40387(10) 0.28243(8)
C2 C 0.48022(10) 0.32872(11) 0.30063(9)
C3 C 0.46189(10) 0.28626(11) 0.35737(9)
C4 C 0.42191(10) 0.30821(10) 0.41045(8)
C5 C 0.38282(9) 0.37618(11) 0.42485(9)
H1 H 0.381244 0.417228 0.395205
C6 C 0.34816(10) 0.38055(11) 0.48172(9)
C7 C 0.30481(10) 0.44129(11) 0.51001(9)
C8 C 0.28658(11) 0.51321(12) 0.48893(11)
H2 H 0.302193 0.531217 0.448391
C9 C 0.24486(13) 0.55885(14) 0.52824(11)
H3 H 0.231550 0.608230 0.514084
C10 C 0.22241(13) 0.53317(15) 0.58788(12)
H4 H 0.194786 0.565597 0.614319
C11 C 0.23985(12) 0.46084(14) 0.60924(11)
H5 H 0.223694 0.443168 0.649709
C12 C 0.28125(10) 0.41469(12) 0.57060(10)
C13 C 0.30854(11) 0.33784(12) 0.58071(9)
C14 C 0.34860(10) 0.31835(11) 0.52778(9)
C15 C 0.38573(11) 0.24989(11) 0.51326(9)
H6 H 0.386210 0.208424 0.542525
C16 C 0.42042(10) 0.24566(11) 0.45640(9)
C17 C 0.46104(11) 0.18329(11) 0.42862(9)
C18 C 0.47547(14) 0.11138(13) 0.45217(12)
H7 H 0.457685 0.095771 0.492670
C19 C 0.51622(16) 0.06265(14) 0.41574(12)
H8 H 0.526136 0.012873 0.431162
C20 C 0.54283(14) 0.08554(13) 0.35688(12)
H9 H 0.571476 0.051603 0.332782
C21 C 0.52813(11) 0.15730(12) 0.33284(10)
H10 H 0.546438 0.172498 0.292423
C22 C 0.48635(10) 0.20700(11) 0.36830(9)
C23 C 0.47246(9) 0.47236(10) 0.32243(8)
C24 C 0.41706(10) 0.52176(11) 0.30509(9)
C25 C 0.40333(11) 0.58489(11) 0.34360(10)
H11 H 0.366431 0.618591 0.331579
C26 C 0.44155(12) 0.60044(11) 0.39893(10)
C27 C 0.49427(12) 0.54994(11) 0.41562(9)
H12 H 0.520024 0.558842 0.453966
C28 C 0.51129(10) 0.48655(11) 0.37864(9)
C29 C 0.56947(11) 0.43490(13) 0.40079(10)
H13 H 0.549253 0.391760 0.424263
H14 H 0.601435 0.463184 0.429014
H15 H 0.595711 0.416043 0.363549
C30 C 0.42475(16) 0.66990(13) 0.43884(12)
H16 H 0.412127 0.712328 0.410540
H17 H 0.466127 0.683866 0.464430
H18 H 0.385096 0.658581 0.467433
C31 C 0.36997(11) 0.50756(14) 0.24827(10)
H19 H 0.393003 0.526335 0.209285
H20 H 0.325103 0.534315 0.254372
H21 H 0.361130 0.452784 0.244138
C32 C 0.29305(11) 0.28976(12) 0.63757(10)
C33 C 0.34381(13) 0.27802(13) 0.68556(10)
C34 C 0.32439(15) 0.23586(15) 0.73927(11)
H22 H 0.357865 0.228522 0.772596
C35 C 0.25771(17) 0.20422(16) 0.74565(13)
C36 C 0.20992(15) 0.21435(15) 0.69704(13)
H23 H 0.164504 0.191926 0.700811
C37 C 0.22576(12) 0.25638(14) 0.64242(11)
C38 C 0.17302(14) 0.26376(16) 0.58828(13)
H24 H 0.155222 0.316131 0.586667
H25 H 0.133644 0.228648 0.595587
H26 H 0.196037 0.251276 0.547546
C39 C 0.2385(2) 0.1594(2) 0.80567(15)
H27 H 0.263957 0.110843 0.805750
H28 H 0.187615 0.149731 0.806143
H29 H 0.251624 0.188896 0.843761
C40 C 0.41758(13) 0.30908(15) 0.67956(12)
H30 H 0.447195 0.272225 0.656739
H31 H 0.437092 0.318109 0.722400
H32 H 0.416441 0.357101 0.655633
C1B C 0.51268(9) 0.40387(10) 0.21757(8)
C2B C 0.51978(10) 0.32872(11) 0.19937(9)
C3B C 0.53811(10) 0.28626(11) 0.14263(9)
C4B C 0.57809(10) 0.30821(10) 0.08955(8)
C5B C 0.61718(9) 0.37618(11) 0.07515(9)
H1B H 0.618756 0.417228 0.104795
C6B C 0.65184(10) 0.38055(11) 0.01828(9)
C7B C 0.69519(10) 0.44129(11) -0.01001(9)
C8B C 0.71342(11) 0.51321(12) 0.01107(11)
H2B H 0.697807 0.531217 0.051609
C9B C 0.75514(13) 0.55885(14) -0.02824(11)
H3B H 0.768450 0.608230 -0.014084
C10B C 0.77759(13) 0.53317(15) -0.08788(12)
H4B H 0.805214 0.565597 -0.114319
C11B C 0.76015(12) 0.46084(14) -0.10924(11)
H5B H 0.776306 0.443168 -0.149709
C12B C 0.71875(10) 0.41469(12) -0.07060(10)
C13B C 0.69146(11) 0.33784(12) -0.08071(9)
C14B C 0.65140(10) 0.31835(11) -0.02778(9)
C15B C 0.61427(11) 0.24989(11) -0.01326(9)
H6B H 0.613790 0.208424 -0.042525
C16B C 0.57958(10) 0.24566(11) 0.04360(9)
C17B C 0.53896(11) 0.18329(11) 0.07138(9)
C18B C 0.52453(14) 0.11138(13) 0.04783(12)
H7B H 0.542315 0.095771 0.007330
C19B C 0.48378(16) 0.06265(14) 0.08426(12)
H8B H 0.473864 0.012873 0.068838
C20B C 0.45717(14) 0.08554(13) 0.14312(12)
H9B H 0.428524 0.051603 0.167218
C21B C 0.47187(11) 0.15730(12) 0.16716(10)
H10B H 0.453562 0.172498 0.207577
C22B C 0.51365(10) 0.20700(11) 0.13170(9)
C23B C 0.52754(9) 0.47236(10) 0.17757(8)
C24B C 0.58294(10) 0.52176(11) 0.19491(9)
C25B C 0.59667(11) 0.58489(11) 0.15640(10)
H11B H 0.633569 0.618591 0.168421
C26B C 0.55845(12) 0.60044(11) 0.10107(10)
C27B C 0.50573(12) 0.54994(11) 0.08438(9)
H12B H 0.479976 0.558842 0.046034
C28B C 0.48871(10) 0.48655(11) 0.12136(9)
C29B C 0.43053(11) 0.43490(13) 0.09921(10)
H13B H 0.450747 0.391760 0.075737
H14B H 0.398565 0.463184 0.070986
H15B H 0.404289 0.416043 0.136451
C30B C 0.57525(16) 0.66990(13) 0.06116(12)
H16B H 0.587873 0.712328 0.089460
H17B H 0.533873 0.683866 0.035570
H18B H 0.614904 0.658581 0.032567
C31B C 0.63003(11) 0.50756(14) 0.25173(10)
H19B H 0.606997 0.526335 0.290715
H20B H 0.674897 0.534315 0.245628
H21B H 0.638870 0.452784 0.255862
C32B C 0.70695(11) 0.28976(12) -0.13757(10)
C33B C 0.65619(13) 0.27802(13) -0.18556(10)
C34B C 0.67561(15) 0.23586(15) -0.23927(11)
H22B H 0.642135 0.228522 -0.272596
C35B C 0.74229(17) 0.20422(16) -0.24565(13)
C36B C 0.79008(15) 0.21435(15) -0.19704(13)
H23B H 0.835496 0.191926 -0.200811
C37B C 0.77424(12) 0.25638(14) -0.14242(11)
C38B C 0.82698(14) 0.26376(16) -0.08828(13)
H24B H 0.844778 0.316131 -0.086667
H25B H 0.866356 0.228648 -0.095587
H26B H 0.803963 0.251276 -0.047546
C39B C 0.7615(2) 0.1594(2) -0.30567(15)
H27B H 0.736043 0.110843 -0.305750
H28B H 0.812385 0.149731 -0.306143
H29B H 0.748376 0.188896 -0.343761
C40B C 0.58242(13) 0.30908(15) -0.17956(12)
H30B H 0.552805 0.272225 -0.156739
H31B H 0.562908 0.318109 -0.222400
H32B H 0.583559 0.357101 -0.155633
loop_
_geom_bond_atom_site_label_1
_geom_bond_atom_site_label_2
_geom_bond_site_symmetry_1
_geom_bond_site_symmetry_2
O1 C2 1_555 1_555
C1 C2 1_555 1_555
C2 C3 1_555 1_555
C3 C4 1_555 1_555
C4 C5 1_555 1_555
C5 H1 1_555 1_555
C6 C5 1_555 1_555
C7 C6 1_555 1_555
C8 C7 1_555 1_555
H2 C8 1_555 1_555
C9 C8 1_555 1_555
H3 C9 1_555 1_555
C10 C9 1_555 1_555
H4 C10 1_555 1_555
C11 C10 1_555 1_555
H5 C11 1_555 1_555
C12 C7 1_555 1_555
C13 C12 1_555 1_555
C14 C6 1_555 1_555
C15 C14 1_555 1_555
H6 C15 1_555 1_555
C16 C4 1_555 1_555
C17 C16 1_555 1_555
C18 C17 1_555 1_555
H7 C18 1_555 1_555
C19 C18 1_555 1_555
H8 C19 1_555 1_555
C20 C19 1_555 1_555
H9 C20 1_555 1_555
C21 C20 1_555 1_555
H10 C21 1_555 1_555
C22 C3 1_555 1_555
C23 C1 1_555 1_555
C24 C23 1_555 1_555
C25 C24 1_555 1_555
H11 C25 1_555 1_555
C26 C25 1_555 1_555
C27 C26 1_555 1_555
H12 C27 1_555 1_555
C28 C23 1_555 1_555
C29 C28 1_555 1_555
H13 C29 1_555 1_555
H14 C29 1_555 1_555
H15 C29 1_555 1_555
C30 C26 1_555 1_555
H16 C30 1_555 1_555
H17 C30 1_555 1_555
H18 C30 1_555 1_555
C31 C24 1_555 1_555
H19 C31 1_555 1_555
H20 C31 1_555 1_555
H21 C31 1_555 1_555
C32 C13 1_555 1_555
C33 C32 1_555 1_555
C34 C33 1_555 1_555
H22 C34 1_555 1_555
C35 C34 1_555 1_555
C36 C35 1_555 1_555
H23 C36 1_555 1_555
C37 C32 1_555 1_555
C38 C37 1_555 1_555
H24 C38 1_555 1_555
H25 C38 1_555 1_555
H26 C38 1_555 1_555
C39 C35 1_555 1_555
H27 C39 1_555 1_555
H28 C39 1_555 1_555
H29 C39 1_555 1_555
C40 C33 1_555 1_555
H30 C40 1_555 1_555
H31 C40 1_555 1_555
H32 C40 1_555 1_555
C1B C1 1_555 1_555
C2B O1 1_555 1_555
C3B C2B 1_555 1_555
C4B C3B 1_555 1_555
C5B C4B 1_555 1_555
H1B C5B 1_555 1_555
C6B C5B 1_555 1_555
C7B C6B 1_555 1_555
C8B C7B 1_555 1_555
H2B C8B 1_555 1_555
C9B C8B 1_555 1_555
H3B C9B 1_555 1_555
C10B C9B 1_555 1_555
H4B C10B 1_555 1_555
C11B C10B 1_555 1_555
H5B C11B 1_555 1_555
C12B C7B 1_555 1_555
C13B C12B 1_555 1_555
C14B C6B 1_555 1_555
C15B C14B 1_555 1_555
H6B C15B 1_555 1_555
C16B C4B 1_555 1_555
C17B C16B 1_555 1_555
C18B C17B 1_555 1_555
H7B C18B 1_555 1_555
C19B C18B 1_555 1_555
H8B C19B 1_555 1_555
C20B C19B 1_555 1_555
H9B C20B 1_555 1_555
C21B C20B 1_555 1_555
H10B C21B 1_555 1_555
C22B C3B 1_555 1_555
C23B C1B 1_555 1_555
C24B C23B 1_555 1_555
C25B C24B 1_555 1_555
H11B C25B 1_555 1_555
C26B C25B 1_555 1_555
C27B C26B 1_555 1_555
H12B C27B 1_555 1_555
C28B C23B 1_555 1_555
C29B C28B 1_555 1_555
H13B C29B 1_555 1_555
H14B C29B 1_555 1_555
H15B C29B 1_555 1_555
C30B C26B 1_555 1_555
H16B C30B 1_555 1_555
H17B C30B 1_555 1_555
H18B C30B 1_555 1_555
C31B C24B 1_555 1_555
H19B C31B 1_555 1_555
H20B C31B 1_555 1_555
H21B C31B 1_555 1_555
C32B C13B 1_555 1_555
C33B C32B 1_555 1_555
C34B C33B 1_555 1_555
H22B C34B 1_555 1_555
C35B C34B 1_555 1_555
C36B C35B 1_555 1_555
H23B C36B 1_555 1_555
C37B C32B 1_555 1_555
C38B C37B 1_555 1_555
H24B C38B 1_555 1_555
H25B C38B 1_555 1_555
H26B C38B 1_555 1_555
C39B C35B 1_555 1_555
H27B C39B 1_555 1_555
H28B C39B 1_555 1_555
H29B C39B 1_555 1_555
C40B C33B 1_555 1_555
H30B C40B 1_555 1_555
H31B C40B 1_555 1_555
H32B C40B 1_555 1_555
C11 C12 1_555 1_555
C13 C14 1_555 1_555
C15 C16 1_555 1_555
C17 C22 1_555 1_555
C21 C22 1_555 1_555
C27 C28 1_555 1_555
C36 C37 1_555 1_555
C1B C2B 1_555 1_555
C11B C12B 1_555 1_555
C13B C14B 1_555 1_555
C15B C16B 1_555 1_555
C17B C22B 1_555 1_555
C21B C22B 1_555 1_555
C27B C28B 1_555 1_555
C36B C37B 1_555 1_555

#END
