
#######################################################################
#
#                 Cambridge Crystallographic Data Centre
#                                CCDC 
#
#######################################################################
#
# If this CIF has been generated from an entry in the Cambridge 
# Structural Database, then it will include bibliographic, chemical, 
# crystal, experimental, refinement or atomic coordinate data resulting 
# from the CCDC's data processing and validation procedures.
#
#######################################################################

data_ZINDEH
_chemical_name_common            
2-azido-2-deoxy-3,5:6,7-di-O-isopropylidine-D-glycero-D-ido-1,4-heptono-lactone
_chemical_formula_moiety         'C13 H19 N3 O6'
_chemical_name_systematic        
7-Azido-4-(2,2-dimethyl-1,3-dioxolan-4-yl)-2,2-dimethyltetrahydro-6H-furo[3,2-d][1,3]dioxin-6-one
_symmetry_cell_setting           orthorhombic
_symmetry_space_group_name_H-M   'P 21 21 21'
_symmetry_Int_Tables_number      19
_space_group_name_Hall           'P 2ac 2ab'
loop_
_symmetry_equiv_pos_site_id
_symmetry_equiv_pos_as_xyz
1 x,y,z
2 1/2+x,1/2-y,-z
3 -x,1/2+y,1/2-z
4 1/2-x,-y,1/2+z
_cell_length_a                   7.36955(8)
_cell_length_b                   8.40431(11)
_cell_length_c                   24.1914(3)
_cell_angle_alpha                90
_cell_angle_beta                 90
_cell_angle_gamma                90
_cell_volume                     1498.32
_exptl_crystal_colour            colorless
_exptl_crystal_description       needle
_cell_formula_units_Z            4
loop_
_atom_site_label
_atom_site_type_symbol
_atom_site_fract_x
_atom_site_fract_y
_atom_site_fract_z
O1 O 0.78595(9) 0.49203(9) 0.61600(3)
C1 C 0.60315(13) 0.48825(12) 0.63947(4)
C2 C 0.48332(14) 0.43282(12) 0.59154(4)
O2 O 0.44905(10) 0.55997(9) 0.55415(3)
C3 C 0.37675(14) 0.69999(12) 0.57963(4)
O3 O 0.50668(10) 0.75957(8) 0.61854(3)
C4 C 0.55040(13) 0.65081(12) 0.66163(4)
C5 C 0.70184(15) 0.73049(12) 0.69362(4)
O4 O 0.75802(10) 0.62687(9) 0.73698(3)
C6 C 0.83373(15) 0.72701(13) 0.77855(4)
O5 O 0.71966(12) 0.86561(10) 0.77824(3)
C7 C 0.64250(16) 0.88141(14) 0.72451(4)
C8 C 1.02754(17) 0.77246(16) 0.76446(6)
C9 C 0.81815(18) 0.64374(16) 0.83348(4)
C10 C 0.19266(14) 0.66925(14) 0.60648(5)
C11 C 0.36565(15) 0.82406(14) 0.53460(5)
C12 C 0.60946(15) 0.31961(13) 0.56143(4)
C13 C 0.79545(15) 0.39277(12) 0.57204(4)
O6 O 0.93504(11) 0.36427(10) 0.54876(3)
N1 N 0.60117(14) 0.16396(11) 0.59090(4)
N2 N 0.72406(14) 0.06998(11) 0.57874(4)
N3 N 0.82707(17) -0.02763(13) 0.57232(5)
H1 H 0.5820 0.3108 0.5221
H2 H 0.3753 0.3817 0.6044
H3 H 0.6024 0.4120 0.6686
H4 H 0.4442 0.6357 0.6874
H5 H 0.2818 0.7904 0.5059
H6 H 0.3248 0.9222 0.5512
H7 H 0.4844 0.8385 0.5190
H8 H 0.1111 0.6287 0.5777
H9 H 0.1448 0.7711 0.6203
H10 H 0.2002 0.5918 0.6365
H11 H 0.8041 0.7536 0.6685
H12 H 0.6891 0.9781 0.7078
H13 H 0.5092 0.8830 0.7285
H14 H 0.8665 0.7145 0.8626
H15 H 0.8907 0.5448 0.8336
H16 H 0.6916 0.6177 0.8423
H17 H 1.0745 0.8455 0.7919
H18 H 1.1031 0.6776 0.7622
H19 H 1.0333 0.8255 0.7289
loop_
_geom_bond_atom_site_label_1
_geom_bond_atom_site_label_2
_geom_bond_site_symmetry_1
_geom_bond_site_symmetry_2
O1 C1 1_555 1_555
C1 C2 1_555 1_555
C2 O2 1_555 1_555
O2 C3 1_555 1_555
C3 O3 1_555 1_555
O3 C4 1_555 1_555
C4 C1 1_555 1_555
C5 C4 1_555 1_555
O4 C5 1_555 1_555
C6 O4 1_555 1_555
O5 C6 1_555 1_555
C7 C5 1_555 1_555
C8 C6 1_555 1_555
C9 C6 1_555 1_555
C10 C3 1_555 1_555
C11 C3 1_555 1_555
C12 C2 1_555 1_555
C13 O1 1_555 1_555
O6 C13 1_555 1_555
N1 C12 1_555 1_555
N2 N1 1_555 1_555
N3 N2 1_555 1_555
H1 C12 1_555 1_555
H2 C2 1_555 1_555
H3 C1 1_555 1_555
H4 C4 1_555 1_555
H5 C11 1_555 1_555
H6 C11 1_555 1_555
H7 C11 1_555 1_555
H8 C10 1_555 1_555
H9 C10 1_555 1_555
H10 C10 1_555 1_555
H11 C5 1_555 1_555
H12 C7 1_555 1_555
H13 C7 1_555 1_555
H14 C9 1_555 1_555
H15 C9 1_555 1_555
H16 C9 1_555 1_555
H17 C8 1_555 1_555
H18 C8 1_555 1_555
H19 C8 1_555 1_555
O5 C7 1_555 1_555
C12 C13 1_555 1_555

#END
