
#######################################################################
#
#                 Cambridge Crystallographic Data Centre
#                                CCDC 
#
#######################################################################
#
# If this CIF has been generated from an entry in the Cambridge 
# Structural Database, then it will include bibliographic, chemical, 
# crystal, experimental, refinement or atomic coordinate data resulting 
# from the CCDC's data processing and validation procedures.
#
#######################################################################

data_ZINPEU
_chemical_name_common            'clonixin proline'
_chemical_formula_moiety         'C13 H11 Cl1 N2 O2,C5 H9 N1 O2'
_chemical_name_systematic        
'pyrrolidin-1-ium-2-carboxylate 2-[(3-chloro-2-methylphenyl)amino]pyridine-3-carboxylic acid'
_chemical_properties_biological  
'Clonixin is a nonsteroidal anti-inflammatory drug.'
_symmetry_cell_setting           orthorhombic
_symmetry_space_group_name_H-M   'P 21 21 21'
_symmetry_Int_Tables_number      19
_space_group_name_Hall           'P 2ac 2ab'
loop_
_symmetry_equiv_pos_site_id
_symmetry_equiv_pos_as_xyz
1 x,y,z
2 1/2-x,-y,1/2+z
3 1/2+x,1/2-y,-z
4 -x,1/2+y,1/2-z
_cell_length_a                   5.7789(3)
_cell_length_b                   12.3293(7)
_cell_length_c                   24.9401(14)
_cell_angle_alpha                90
_cell_angle_beta                 90
_cell_angle_gamma                90
_cell_volume                     1776.98
_exptl_crystal_colour            colorless
_exptl_crystal_description       block
_cell_formula_units_Z            4
loop_
_atom_site_label
_atom_site_type_symbol
_atom_site_fract_x
_atom_site_fract_y
_atom_site_fract_z
Cl1 Cl 1.52932(15) 0.79681(7) 0.25777(3)
O1 O 0.3820(3) 0.65443(16) 0.04789(8)
H1 H 0.3994 0.5873 0.0522
O2 O 0.7059(4) 0.66079(16) 0.09671(9)
N1 N 0.6160(4) 1.00512(18) 0.10662(10)
N2 N 0.8335(4) 0.85489(18) 0.13456(9)
H2 H 0.8547 0.7850 0.1297
C1 C 0.5041(5) 0.8257(2) 0.07712(10)
C2 C 0.6519(5) 0.8973(2) 0.10627(11)
C3 C 0.4310(6) 1.0431(2) 0.08073(13)
H3 H 0.4065 1.1193 0.0811
C4 C 0.2724(6) 0.9803(2) 0.05343(11)
H4 H 0.1408 1.0116 0.0367
C5 C 0.3131(5) 0.8700(2) 0.05147(11)
H5 H 0.2096 0.8242 0.0325
C6 C 0.5431(5) 0.7071(2) 0.07517(11)
C7 C 0.9913(5) 0.9028(2) 0.16993(10)
C8 C 1.1592(5) 0.8329(2) 0.19247(11)
C9 C 1.3196(6) 0.8784(2) 0.22729(11)
C10 C 1.3241(6) 0.9884(3) 0.24011(12)
H6 H 1.4391 1.0173 0.2633
C11 C 1.1558(6) 1.0535(2) 0.21802(12)
H7 H 1.1539 1.1286 0.2266
C12 C 0.9894(6) 1.0128(2) 0.18362(11)
H8 H 0.8740 1.0595 0.1693
C13 C 1.1582(6) 0.7140(2) 0.17859(13)
H9 H 1.0127 0.6813 0.1906
H10 H 1.2884 0.6781 0.1964
H11 H 1.1729 0.7054 0.1397
O3 O 0.4294(3) 0.44738(15) 0.04949(9)
O4 O 0.2652(3) 0.28837(15) 0.03003(8)
N3 N -0.1561(4) 0.34488(17) 0.05905(9)
H12 H -0.1164 0.3019 0.0309
H13 H -0.2901 0.3798 0.0508
C14 C 0.0317(4) 0.4255(2) 0.06977(10)
H14 H -0.0076 0.4977 0.0540
C15 C 0.0391(5) 0.4316(2) 0.13094(11)
H15 H -0.0839 0.4797 0.1450
H16 H 0.1913 0.4579 0.1437
C16 C -0.0019(5) 0.3138(2) 0.14758(11)
H17 H 0.1405 0.2700 0.1434
H18 H -0.0553 0.3092 0.1852
C17 C -0.1897(6) 0.2766(2) 0.10889(12)
H19 H -0.1721 0.1985 0.1005
H20 H -0.3453 0.2887 0.1244
C18 C 0.2593(4) 0.3827(2) 0.04695(10)
loop_
_geom_bond_atom_site_label_1
_geom_bond_atom_site_label_2
_geom_bond_site_symmetry_1
_geom_bond_site_symmetry_2
Cl1 C9 1_555 1_555
O1 H1 1_555 1_555
O2 C6 1_555 1_555
N1 C2 1_555 1_555
N2 H2 1_555 1_555
C1 C2 1_555 1_555
C2 N2 1_555 1_555
C3 N1 1_555 1_555
H3 C3 1_555 1_555
C4 C3 1_555 1_555
H4 C4 1_555 1_555
C5 C1 1_555 1_555
H5 C5 1_555 1_555
C6 O1 1_555 1_555
C7 N2 1_555 1_555
C8 C7 1_555 1_555
C9 C8 1_555 1_555
C10 C9 1_555 1_555
H6 C10 1_555 1_555
C11 C10 1_555 1_555
H7 C11 1_555 1_555
C12 C7 1_555 1_555
H8 C12 1_555 1_555
C13 C8 1_555 1_555
H9 C13 1_555 1_555
H10 C13 1_555 1_555
H11 C13 1_555 1_555
O3 C18 1_555 1_555
O4 C18 1_555 1_555
N3 H12 1_555 1_555
H13 N3 1_555 1_555
C14 N3 1_555 1_555
H14 C14 1_555 1_555
C15 C14 1_555 1_555
H15 C15 1_555 1_555
H16 C15 1_555 1_555
C16 C15 1_555 1_555
H17 C16 1_555 1_555
H18 C16 1_555 1_555
C17 N3 1_555 1_555
H19 C17 1_555 1_555
H20 C17 1_555 1_555
C18 C14 1_555 1_555
C1 C6 1_555 1_555
C4 C5 1_555 1_555
C11 C12 1_555 1_555
C16 C17 1_555 1_555

#END
