
#######################################################################
#
#                 Cambridge Crystallographic Data Centre
#                                CCDC 
#
#######################################################################
#
# If this CIF has been generated from an entry in the Cambridge 
# Structural Database, then it will include bibliographic, chemical, 
# crystal, experimental, refinement or atomic coordinate data resulting 
# from the CCDC's data processing and validation procedures.
#
#######################################################################

data_ZINXAY
_chemical_formula_moiety         'C15 H17 N1 O2'
_chemical_name_systematic        
1-(5-ethoxy-2-methyl-4-phenyl-1H-pyrrol-3-yl)ethan-1-one
_symmetry_cell_setting           triclinic
_symmetry_space_group_name_H-M   'P -1'
_symmetry_Int_Tables_number      2
_space_group_name_Hall           '-P 1'
loop_
_symmetry_equiv_pos_site_id
_symmetry_equiv_pos_as_xyz
1 x,y,z
2 -x,-y,-z
_cell_length_a                   19.911(3)
_cell_length_b                   20.945(3)
_cell_length_c                   23.811(4)
_cell_angle_alpha                106.471(3)
_cell_angle_beta                 107.031(3)
_cell_angle_gamma                108.096(3)
_cell_volume                     8223.13
_exptl_crystal_colour            colorless
_exptl_crystal_description       block
_cell_formula_units_Z            24
_exptl_crystal_recrystallization_method 
'Re-crystallisation from solvent: ethyl acetate and hexane'
loop_
_atom_site_label
_atom_site_type_symbol
_atom_site_fract_x
_atom_site_fract_y
_atom_site_fract_z
O1 O 0.39621(8) 0.76913(8) 1.27729(7)
O2 O 0.52317(11) 0.90469(9) 1.12297(8)
N1 N 0.37728(10) 0.76108(9) 1.17264(8)
H1 H 0.3348 0.7194 1.1531
C1 C 0.48078(11) 0.86033(10) 1.25174(9)
C2 C 0.41908(11) 0.79806(10) 1.23798(9)
C3 C 0.54285(12) 0.91143(10) 1.31595(9)
C4 C 0.47552(11) 0.86091(10) 1.18989(9)
C5 C 0.41108(12) 0.79817(11) 1.14230(10)
C6 C 0.52718(14) 0.94284(12) 1.36724(10)
H2 H 0.4747 0.9304 1.3614
C7 C 0.62028(13) 0.93026(12) 1.32719(11)
H3 H 0.6328 0.9081 1.2934
C8 C 0.52171(12) 0.91869(11) 1.17596(10)
C9 C 0.43924(14) 0.73112(13) 1.30032(11)
H4 H 0.4945 0.7660 1.3275
H5 H 0.4365 0.6920 1.2635
C10 C 0.56479(14) 0.99676(12) 1.22529(12)
H6 H 0.6202 1.0088 1.2455
H7 H 0.5444 1.0027 1.2583
H8 H 0.5580 1.0299 1.2044
C11 C 0.40462(16) 0.69785(14) 1.33899(12)
H9 H 0.3500 0.6632 1.3117
H10 H 0.4079 0.7370 1.3755
H11 H 0.4333 0.6717 1.3551
C12 C 0.37579(15) 0.77062(13) 1.07106(10)
H12 H 0.4003 0.7413 1.0529
H13 H 0.3839 0.8125 1.0590
H14 H 0.3199 0.7399 1.0542
C13 C 0.67962(14) 0.98060(13) 1.38656(12)
H15 H 0.7323 0.9936 1.3929
C14 C 0.66279(16) 1.01163(14) 1.43614(12)
H16 H 0.7036 1.0466 1.4769
C15 C 0.58684(17) 0.99210(13) 1.42693(11)
H17 H 0.5750 1.0125 1.4618
O3 O 0.31358(8) 0.39768(8) 0.51113(7)
N2 N 0.40017(10) 0.50158(9) 0.50766(8)
H18 H 0.4214 0.5282 0.5495
O4 O 0.42729(11) 0.52707(9) 0.34854(8)
C16 C 0.26287(12) 0.33169(11) 0.36447(9)
C17 C 0.34094(12) 0.43146(11) 0.47603(10)
C18 C 0.32174(12) 0.40697(11) 0.41186(10)
C19 C 0.37315(12) 0.46672(11) 0.40350(10)
C20 C 0.42079(12) 0.52328(11) 0.46430(10)
C21 C 0.37978(13) 0.47082(12) 0.34558(11)
C22 C 0.19155(14) 0.31848(13) 0.32011(11)
H19 H 0.1795 0.3588 0.3195
C23 C 0.27711(14) 0.27161(13) 0.36476(12)
H20 H 0.3250 0.2788 0.3952
C24 C 0.15372(15) 0.18907(14) 0.27734(12)
H21 H 0.1170 0.1404 0.2473
C25 C 0.48635(13) 0.59607(12) 0.48619(12)
H22 H 0.4668 0.6268 0.4683
H23 H 0.5255 0.5888 0.4713
H24 H 0.5099 0.6205 0.5334
C26 C 0.23553(13) 0.38582(14) 0.50116(11)
H25 H 0.2002 0.3550 0.4551
H26 H 0.2322 0.4336 0.5132
C27 C 0.13770(14) 0.24772(14) 0.27670(12)
H27 H 0.0894 0.2399 0.2463
C28 C 0.22308(16) 0.20098(14) 0.32158(15)
H28 H 0.2342 0.1603 0.3226
C29 C 0.32956(17) 0.40843(15) 0.28108(12)
H29 H 0.2797 0.4106 0.2633
H30 H 0.3205 0.3617 0.2854
H31 H 0.3554 0.4119 0.2521
C30 C 0.21154(16) 0.34821(16) 0.54137(13)
H32 H 0.2162 0.3015 0.5300
H33 H 0.1575 0.3386 0.5335
H34 H 0.2453 0.3799 0.5871
O5 O -0.13968(9) 0.23262(8) 0.53128(6)
O6 O -0.00671(10) 0.38618(8) 0.81431(7)
N3 N -0.03881(10) 0.33387(9) 0.62407(8)
H35 H -0.0152 0.3531 0.6029
C31 C -0.19650(11) 0.19357(11) 0.63101(9)
C32 C -0.06727(12) 0.31680(11) 0.70314(9)
C33 C -0.12625(11) 0.25682(11) 0.64317(9)
C34 C -0.10571(12) 0.27024(11) 0.59644(9)
C35 C -0.05689(12) 0.32796(11) 0.76859(10)
C36 C -0.01437(12) 0.36273(11) 0.68871(9)
C37 C -0.20111(13) 0.12341(12) 0.61144(10)
H36 H -0.1585 0.1155 0.6061
C38 C -0.25888(13) 0.20320(13) 0.63880(11)
H37 H -0.2565 0.2514 0.6528
C39 C -0.26693(16) 0.06437(12) 0.59951(11)
H38 H -0.2694 0.0161 0.5859
C40 C -0.32881(15) 0.07491(14) 0.60721(11)
H39 H -0.3740 0.0342 0.5991
C41 C 0.06023(13) 0.42991(12) 0.73098(11)
H40 H 0.0876 0.4432 0.7049
H41 H 0.0928 0.4200 0.7640
H42 H 0.0494 0.4707 0.7518
C42 C -0.21244(14) 0.23385(14) 0.49989(10)
H43 H -0.2060 0.2854 0.5124
H44 H -0.2516 0.2078 0.5131
C43 C -0.32508(14) 0.14406(15) 0.62660(12)
H45 H -0.3679 0.1517 0.6318
C44 C -0.23906(16) 0.19686(15) 0.42867(11)
H46 H -0.2894 0.1962 0.4066
H47 H -0.2444 0.1462 0.4168
H48 H -0.2008 0.2239 0.4158
C45 C -0.10491(16) 0.26806(14) 0.78188(11)
H49 H -0.0792 0.2772 0.8272
H50 H -0.1105 0.2204 0.7541
H51 H -0.1564 0.2674 0.7730
O7 O 1.01010(8) 1.14178(8) 1.05247(7)
N4 N 0.90738(10) 1.06364(10) 0.95009(8)
H52 H 0.9282 1.0870 0.9297
O8 O 0.71002(10) 0.87934(10) 0.90298(9)
C46 C 0.89220(11) 1.03518(11) 1.03043(9)
C47 C 0.93969(11) 1.08309(11) 1.01533(10)
C48 C 0.82611(12) 0.98320(11) 0.97021(10)
C49 C 0.91071(12) 1.03293(12) 1.09438(10)
C50 C 0.83882(12) 1.00313(12) 0.92197(10)
C51 C 0.75416(13) 0.92543(12) 0.95817(12)
C52 C 0.93165(13) 1.09327(12) 1.14940(10)
H53 H 0.9357 1.1387 1.1470
C53 C 1.07302(13) 1.12212(14) 1.07267(13)
H54 H 1.0721 1.0860 1.0348
H55 H 1.0672 1.0989 1.1029
C54 C 0.72995(15) 0.92213(14) 1.01179(13)
H56 H 0.6731 0.8996 0.9946
H57 H 0.7509 0.9721 1.0449
H58 H 0.7501 0.8925 1.0308
C55 C 0.94675(15) 1.08822(15) 1.20795(11)
H59 H 0.9606 1.1303 1.2452
C56 C 1.14795(14) 1.18887(14) 1.10477(13)
H60 H 1.1532 1.2120 1.0748
H61 H 1.1909 1.1750 1.1177
H62 H 1.1493 1.2238 1.1430
C57 C 0.94228(16) 1.02460(17) 1.21327(12)
H63 H 0.9537 1.0221 1.2540
C58 C 0.79176(15) 0.97108(15) 0.85073(11)
H64 H 0.8147 1.0044 0.8329
H65 H 0.7383 0.9648 0.8420
H66 H 0.7915 0.9231 0.8307
C59 C 0.90641(17) 0.96811(15) 1.10062(12)
H67 H 0.8930 0.9259 1.0637
C60 C 0.92110(19) 0.96368(18) 1.15914(14)
H68 H 0.9166 0.9184 1.1621
O9 O 1.09782(9) 1.19906(8) 0.70022(7)
O10 O 0.94047(10) 1.11880(10) 0.86139(8)
N5 N 0.98654(10) 1.11863(10) 0.70200(8)
H69 H 0.9634 1.0921 0.6601
C61 C 1.07520(12) 1.20637(11) 0.79802(9)
C62 C 1.14897(12) 1.27051(11) 0.84647(10)
C63 C 1.01013(12) 1.16033(11) 0.80535(10)
C64 C 1.05754(12) 1.17816(11) 0.73404(10)
C65 C 1.00168(14) 1.16039(13) 0.86412(10)
C66 C 0.95711(13) 1.10659(12) 0.74464(10)
C67 C 1.21896(14) 1.26746(13) 0.85335(13)
H70 H 1.2196 1.2243 0.8268
C68 C 1.15080(14) 1.33448(13) 0.88492(11)
H71 H 1.1033 1.3383 0.8801
C69 C 1.06799(16) 1.20908(14) 0.92908(11)
H72 H 1.0716 1.2593 0.9421
H73 H 1.1166 1.2097 0.9269
H74 H 1.0591 1.1901 0.9607
C70 C 0.88283(14) 1.04168(14) 0.72257(12)
H75 H 0.8643 1.0116 0.6766
H76 H 0.8440 1.0584 0.7296
H77 H 0.8912 1.0121 0.7470
C71 C 1.21965(17) 1.39290(14) 0.93016(13)
H78 H 1.2193 1.4361 0.9569
C72 C 1.28879(16) 1.38928(14) 0.93699(14)
H79 H 1.3366 1.4297 0.9680
C73 C 1.28796(16) 1.32642(15) 0.89834(15)
H80 H 1.3357 1.3234 0.9026
C74 C 1.15124(18) 1.28567(15) 0.66094(14)
H81 H 1.1278 1.2470 0.6172
H82 H 1.2035 1.2908 0.6842
H83 H 1.1547 1.3325 0.6586
C75 C 1.1022(2) 1.26554(15) 0.69543(14)
H84 H 1.1248 1.3053 0.7391
H85 H 1.0493 1.2600 0.6718
O11 O 0.18709(9) 0.57177(8) 0.43898(7)
O12 O 0.05540(9) 0.40729(9) 0.57436(8)
N6 N 0.19975(10) 0.56709(9) 0.53836(8)
H86 H 0.2435 0.6076 0.5606
C76 C 0.03804(11) 0.42356(10) 0.38777(9)
C77 C 0.09454(11) 0.47494(10) 0.45457(9)
C78 C 0.09632(11) 0.46693(11) 0.51345(10)
C79 C 0.15899(12) 0.53689(11) 0.47283(10)
C80 C 0.03840(12) 0.41531(11) 0.52370(10)
C81 C 0.16290(12) 0.52552(11) 0.56403(10)
C82 C -0.00830(13) 0.44405(12) 0.34803(10)
H87 H -0.0025 0.4934 0.3630
C83 C -0.06297(15) 0.39417(13) 0.28684(11)
H88 H -0.0946 0.4093 0.2603
C84 C 0.02978(14) 0.35192(11) 0.36291(11)
H89 H 0.0627 0.3369 0.3884
C85 C -0.04420(12) 0.37407(12) 0.47412(11)
H90 H -0.0465 0.3411 0.4343
H91 H -0.0640 0.4092 0.4652
H92 H -0.0761 0.3450 0.4904
C86 C -0.07189(15) 0.32263(13) 0.26398(11)
H93 H -0.1102 0.2880 0.2221
C87 C 0.19257(14) 0.54909(14) 0.63514(11)
H94 H 0.2380 0.5970 0.6567
H95 H 0.2075 0.5125 0.6465
H96 H 0.1518 0.5533 0.6490
C88 C -0.02522(16) 0.30206(12) 0.30197(12)
H97 H -0.0306 0.2529 0.2864
C89 C 0.21202(18) 0.53313(14) 0.39649(13)
H98 H 0.1678 0.4860 0.3637
H99 H 0.2531 0.5219 0.4209
C90 C 0.24283(19) 0.57906(17) 0.36426(14)
H100 H 0.2541 0.5501 0.3310
H101 H 0.2906 0.6226 0.3963
H102 H 0.2040 0.5947 0.3443
O13 O -0.01449(8) 0.32870(7) 0.95791(7)
O14 O 0.23406(9) 0.63300(8) 1.09348(8)
N7 N 0.05554(10) 0.43393(9) 0.94749(8)
H103 H 0.0311 0.4143 0.9052
C91 C 0.13606(11) 0.51292(10) 1.04811(9)
C92 C 0.08726(11) 0.44543(10) 1.04894(9)
C93 C 0.08211(11) 0.42901(11) 1.10422(9)
C94 C 0.04017(12) 0.39948(10) 0.98628(9)
C95 C 0.11361(12) 0.50235(11) 0.98371(10)
C96 C 0.20292(12) 0.57676(12) 1.10064(10)
C97 C 0.08999(14) 0.36800(13) 1.11108(11)
H104 H 0.0990 0.3361 1.0798
C98 C 0.06772(13) 0.47322(13) 1.15027(10)
H105 H 0.0608 0.5148 1.1462
C99 C 0.14412(14) 0.54860(13) 0.95146(11)
H106 H 0.1621 0.5224 0.9224
H107 H 0.1876 0.5953 0.9841
H108 H 0.1027 0.5585 0.9267
C100 C 0.23872(14) 0.57473(14) 1.16430(11)
H109 H 0.2939 0.6093 1.1860
H110 H 0.2336 0.5248 1.1576
H111 H 0.2122 0.5888 1.1911
C101 C 0.06328(14) 0.45748(15) 1.20224(11)
H112 H 0.0538 0.4887 1.2336
C102 C 0.08487(16) 0.35290(16) 1.16309(13)
H113 H 0.0901 0.3106 1.1670
C103 C 0.07234(15) 0.39836(16) 1.20884(12)
H114 H 0.0700 0.3884 1.2449
C104 C -0.14104(16) 0.23939(14) 0.92840(14)
H115 H -0.1477 0.2208 0.8835
H116 H -0.1912 0.2343 0.9295
H117 H -0.1215 0.2110 0.9496
C105 C -0.08518(16) 0.31746(15) 0.96229(15)
H118 H -0.1076 0.3467 0.9436
H119 H -0.0761 0.3351 1.0083
O15 O 0.62998(9) 0.96169(8) 0.74850(7)
O16 O 0.33496(10) 0.69318(9) 0.62185(8)
N8 N 0.52800(10) 0.88324(9) 0.76114(8)
H120 H 0.5471 0.9091 0.8030
C106 C 0.56169(12) 0.90054(11) 0.72144(9)
C107 C 0.51774(11) 0.84937(11) 0.66011(9)
C108 C 0.53684(12) 0.85062(11) 0.60483(10)
C109 C 0.45168(12) 0.79686(11) 0.66252(10)
C110 C 0.46154(12) 0.82104(11) 0.72659(10)
C111 C 0.38899(13) 0.72854(11) 0.61233(10)
C112 C 0.41474(14) 0.78956(13) 0.75898(11)
H121 H 0.4407 0.8205 0.8054
H122 H 0.4099 0.7395 0.7514
H123 H 0.3629 0.7880 0.7414
C113 C 0.49521(15) 0.86636(14) 0.55747(11)
H124 H 0.4519 0.8754 0.5595
C114 C 0.59963(16) 0.83922(16) 0.60030(13)
H125 H 0.6301 0.8290 0.6325
C115 C 0.70135(15) 1.08597(13) 0.76913(12)
H126 H 0.7404 1.0792 0.7539
H127 H 0.7196 1.0957 0.8150
H128 H 0.6931 1.1278 0.7631
C116 C 0.5766(2) 0.85698(16) 0.50303(14)
H129 H 0.5900 0.8585 0.4681
C117 C 0.51553(19) 0.86931(15) 0.50690(12)
H130 H 0.4859 0.8802 0.4748
C118 C 0.38929(17) 0.69922(15) 0.54774(13)
H131 H 0.3604 0.6454 0.5276
H132 H 0.4430 0.7128 0.5525
H133 H 0.3646 0.7202 0.5206
C119 C 0.6193(2) 0.84229(19) 0.54982(16)
H134 H 0.6630 0.8341 0.5477
C120 C 0.62877(18) 1.01978(15) 0.73268(16)
H135 H 0.5845 1.0168 0.7009
O17 O 0.89889(9) 1.02475(8) 0.56369(7)
O18 O 0.80893(10) 0.91530(8) 0.28220(7)
N9 N 0.79109(11) 0.88693(9) 0.36646(8)
H136 H 0.7546 0.8421 0.3407
C121 C 0.87462(12) 0.98774(11) 0.45420(9)
C122 C 0.88283(12) 0.99954(11) 0.39873(9)
C123 C 0.93767(12) 1.06482(11) 0.39698(9)
C124 C 0.81723(13) 0.91729(12) 0.43137(10)
C125 C 0.82982(13) 0.93619(11) 0.34664(10)
C126 C 0.91870(13) 1.03714(11) 0.52201(10)
C127 C 0.99920(14) 1.06229(12) 0.38358(11)
H137 H 1.0056 1.0179 0.3744
C128 C 0.78133(15) 0.96096(14) 0.25659(11)
H138 H 0.8258 1.0073 0.2677
H139 H 0.7466 0.9736 0.2756
C129 C 0.78462(15) 0.87456(14) 0.46519(12)
H140 H 0.7544 0.8961 0.4832
H141 H 0.8272 0.8764 0.5001
H142 H 0.7508 0.8232 0.4345
C130 C 1.05239(15) 1.12272(15) 0.38298(12)
H143 H 1.0951 1.1196 0.3742
C131 C 0.92980(16) 1.12915(14) 0.40873(15)
H144 H 0.8873 1.1328 0.4176
C132 C 1.04409(16) 1.18552(14) 0.39461(13)
H145 H 1.0803 1.2269 0.3936
C133 C 0.99168(16) 1.10397(16) 0.54315(12)
H146 H 0.9793 1.1459 0.5438
H147 H 1.0157 1.0946 0.5131
H148 H 1.0279 1.1152 0.5865
C134 C 0.73809(18) 0.92080(16) 0.18517(12)
H149 H 0.7268 0.9546 0.1668
H150 H 0.6892 0.8798 0.1744
H151 H 0.7698 0.9015 0.1673
C135 C 0.98360(19) 1.18930(15) 0.40776(18)
H152 H 0.9777 1.2339 0.4165
O19 O 0.36187(8) 0.48809(8) 0.15999(8)
O20 O 0.66918(10) 0.74276(9) 0.29513(9)
N10 N 0.47111(10) 0.56476(9) 0.25881(9)
H153 H 0.4536 0.5413 0.2806
C136 C 0.54651(12) 0.64450(11) 0.23408(10)
C137 C 0.47661(12) 0.59372(10) 0.17657(10)
C138 C 0.45638(12) 0.58876(10) 0.10994(10)
C139 C 0.43254(12) 0.54657(11) 0.19449(10)
C140 C 0.54025(12) 0.62420(11) 0.28385(10)
C141 C 0.50462(13) 0.58052(11) 0.07935(10)
H154 H 0.5506 0.5767 0.1011
C142 C 0.60853(13) 0.71248(11) 0.24614(11)
C143 C 0.38880(13) 0.59191(12) 0.07583(12)
H155 H 0.3540 0.5966 0.0951
C144 C 0.48703(15) 0.57773(12) 0.01784(11)
H156 H 0.5214 0.5729 -0.0019
C145 C 0.37148(15) 0.58830(13) 0.01415(12)
H157 H 0.3247 0.5903 -0.0086
C146 C 0.42077(16) 0.58190(12) -0.01485(12)
H158 H 0.4089 0.5804 -0.0570
C147 C 0.59641(16) 0.74860(12) 0.20034(12)
H159 H 0.5502 0.7577 0.1960
H160 H 0.5892 0.7162 0.1581
H161 H 0.6420 0.7955 0.2170
C148 C 0.59107(15) 0.65837(14) 0.35416(11)
H162 H 0.5988 0.7096 0.3727
H163 H 0.6415 0.6571 0.3607
H164 H 0.5664 0.6309 0.3753
C149 C 0.36252(16) 0.42142(13) 0.12424(14)
H165 H 0.3960 0.4075 0.1536
H166 H 0.3835 0.4280 0.0923
C150 C 0.28119(17) 0.36243(16) 0.09057(16)
H167 H 0.2805 0.3163 0.0648
H168 H 0.2482 0.3770 0.0622
H169 H 0.2614 0.3553 0.1225
O21 O 0.52721(10) 0.73789(8) 0.91272(7)
O22 O 0.48256(10) 0.59783(9) 0.64306(8)
N11 N 0.57572(11) 0.74803(9) 0.83489(8)
H170 H 0.6147 0.7916 0.8605
C151 C 0.40685(12) 0.58718(11) 0.80422(9)
C152 C 0.49425(12) 0.64440(11) 0.74939(10)
C153 C 0.47157(12) 0.64354(11) 0.80194(9)
C154 C 0.52324(13) 0.70833(11) 0.85251(10)
C155 C 0.55907(13) 0.71063(12) 0.77254(10)
C156 C 0.45470(13) 0.59246(12) 0.68196(10)
C157 C 0.34753(14) 0.60199(13) 0.81396(12)
H171 H 0.3485 0.6491 0.8197
C158 C 0.40369(14) 0.51827(12) 0.79773(12)
H172 H 0.4444 0.5066 0.7920
C159 C 0.60525(14) 0.74435(13) 0.74063(12)
H173 H 0.5787 0.7680 0.7181
H174 H 0.6103 0.7059 0.7096
H175 H 0.6571 0.7813 0.7733
C160 C 0.28406(15) 0.48152(15) 0.80830(13)
H176 H 0.2421 0.4454 0.8094
C161 C 0.28605(15) 0.54898(15) 0.81554(13)
H177 H 0.2452 0.5600 0.8217
C162 C 0.34231(15) 0.46631(14) 0.79947(14)
H178 H 0.3410 0.4192 0.7944
C163 C 0.57362(19) 0.76246(14) 1.02362(11)
H179 H 0.5208 0.7441 1.0213
H180 H 0.5938 0.8155 1.0346
H181 H 0.6072 0.7535 1.0568
C164 C 0.5722(2) 0.72341(15) 0.95998(12)
H182 H 0.6259 0.7399 0.9629
H183 H 0.5505 0.6697 0.9482
C165 C 0.37649(17) 0.53274(19) 0.65798(14)
H184 H 0.3448 0.5249 0.6143
H185 H 0.3518 0.5465 0.6865
H186 H 0.3810 0.4872 0.6572
O23 O 0.68567(10) 1.10632(10) 1.16965(7)
N12 N 0.59806(10) 1.00080(9) 1.07617(8)
H187 H 0.5774 0.9776 1.0967
O24 O 0.56380(11) 0.95776(10) 0.88800(8)
C166 C 0.67690(11) 1.08865(10) 1.05939(9)
C167 C 0.62319(11) 1.02630(10) 0.99848(9)
C168 C 0.73747(11) 1.16015(11) 1.07238(9)
C169 C 0.57520(12) 0.97379(11) 1.01172(9)
C170 C 0.65834(12) 1.06983(11) 1.10485(9)
C171 C 0.61588(13) 1.01410(12) 0.93391(10)
C172 C 0.72620(15) 1.22332(12) 1.08801(11)
H188 H 0.6787 1.2212 1.0902
C173 C 0.50986(13) 0.89978(11) 0.96925(11)
H189 H 0.5289 0.8675 0.9467
H190 H 0.4693 0.9043 0.9376
H191 H 0.4883 0.8787 0.9954
C174 C 0.80762(13) 1.16609(12) 1.06976(11)
H192 H 0.8165 1.1231 1.0586
C175 C 0.67164(15) 1.06781(14) 0.92078(11)
H193 H 0.7202 1.0620 0.9309
H194 H 0.6824 1.1181 0.9476
H195 H 0.6489 1.0587 0.8752
C176 C 0.85307(17) 1.29425(14) 1.09837(12)
H196 H 0.8927 1.3402 1.1076
C177 C 0.78398(19) 1.29031(13) 1.10067(12)
H197 H 0.7755 1.3335 1.1110
C178 C 0.86462(15) 1.23225(14) 1.08280(12)
H198 H 0.9123 1.2347 1.0809
C179 C 0.78073(17) 1.16291(18) 1.27578(12)
H199 H 0.7430 1.1291 1.2847
H200 H 0.7784 1.2107 1.2882
H201 H 0.8332 1.1695 1.3005
C180 C 0.76227(18) 1.1322(2) 1.20669(13)
H202 H 0.7999 1.1306 1.1899
loop_
_geom_bond_atom_site_label_1
_geom_bond_atom_site_label_2
_geom_bond_site_symmetry_1
_geom_bond_site_symmetry_2
O1 C2 1_555 1_555
O2 C8 1_555 1_555
N1 H1 1_555 1_555
C1 C2 1_555 1_555
C2 N1 1_555 1_555
C3 C1 1_555 1_555
C4 C1 1_555 1_555
C5 N1 1_555 1_555
C6 C3 1_555 1_555
H2 C6 1_555 1_555
C7 C3 1_555 1_555
H3 C7 1_555 1_555
C8 C4 1_555 1_555
C9 O1 1_555 1_555
H4 C9 1_555 1_555
H5 C9 1_555 1_555
C10 C8 1_555 1_555
H6 C10 1_555 1_555
H7 C10 1_555 1_555
H8 C10 1_555 1_555
C11 C9 1_555 1_555
H9 C11 1_555 1_555
H10 C11 1_555 1_555
H11 C11 1_555 1_555
C12 C5 1_555 1_555
H12 C12 1_555 1_555
H13 C12 1_555 1_555
H14 C12 1_555 1_555
C13 C7 1_555 1_555
H15 C13 1_555 1_555
C14 C13 1_555 1_555
H16 C14 1_555 1_555
C15 C6 1_555 1_555
H17 C15 1_555 1_555
O3 C17 1_555 1_555
N2 H18 1_555 1_555
O4 C21 1_555 1_555
C16 C18 1_555 1_555
C17 N2 1_555 1_555
C18 C17 1_555 1_555
C19 C18 1_555 1_555
C20 N2 1_555 1_555
C21 C19 1_555 1_555
C22 C16 1_555 1_555
H19 C22 1_555 1_555
C23 C16 1_555 1_555
H20 C23 1_555 1_555
C24 H21 1_555 1_555
C25 C20 1_555 1_555
H22 C25 1_555 1_555
H23 C25 1_555 1_555
H24 C25 1_555 1_555
C26 O3 1_555 1_555
H25 C26 1_555 1_555
H26 C26 1_555 1_555
C27 C22 1_555 1_555
H27 C27 1_555 1_555
C28 C23 1_555 1_555
H28 C28 1_555 1_555
C29 C21 1_555 1_555
H29 C29 1_555 1_555
H30 C29 1_555 1_555
H31 C29 1_555 1_555
C30 C26 1_555 1_555
H32 C30 1_555 1_555
H33 C30 1_555 1_555
H34 C30 1_555 1_555
O5 C34 1_555 1_555
O6 C35 1_555 1_555
N3 H35 1_555 1_555
C31 C33 1_555 1_555
C32 C33 1_555 1_555
C33 C34 1_555 1_555
C34 N3 1_555 1_555
C35 C32 1_555 1_555
C36 N3 1_555 1_555
C37 C31 1_555 1_555
H36 C37 1_555 1_555
C38 C31 1_555 1_555
H37 C38 1_555 1_555
C39 C37 1_555 1_555
H38 C39 1_555 1_555
C40 C39 1_555 1_555
H39 C40 1_555 1_555
C41 C36 1_555 1_555
H40 C41 1_555 1_555
H41 C41 1_555 1_555
H42 C41 1_555 1_555
C42 O5 1_555 1_555
H43 C42 1_555 1_555
H44 C42 1_555 1_555
C43 C38 1_555 1_555
H45 C43 1_555 1_555
C44 C42 1_555 1_555
H46 C44 1_555 1_555
H47 C44 1_555 1_555
H48 C44 1_555 1_555
C45 C35 1_555 1_555
H49 C45 1_555 1_555
H50 C45 1_555 1_555
H51 C45 1_555 1_555
O7 C47 1_555 1_555
N4 H52 1_555 1_555
O8 C51 1_555 1_555
C46 C47 1_555 1_555
C47 N4 1_555 1_555
C48 C46 1_555 1_555
C49 C46 1_555 1_555
C50 N4 1_555 1_555
C51 C48 1_555 1_555
C52 C49 1_555 1_555
H53 C52 1_555 1_555
C53 O7 1_555 1_555
H54 C53 1_555 1_555
H55 C53 1_555 1_555
C54 C51 1_555 1_555
H56 C54 1_555 1_555
H57 C54 1_555 1_555
H58 C54 1_555 1_555
C55 C52 1_555 1_555
H59 C55 1_555 1_555
C56 C53 1_555 1_555
H60 C56 1_555 1_555
H61 C56 1_555 1_555
H62 C56 1_555 1_555
C57 C55 1_555 1_555
H63 C57 1_555 1_555
C58 C50 1_555 1_555
H64 C58 1_555 1_555
H65 C58 1_555 1_555
H66 C58 1_555 1_555
C59 C49 1_555 1_555
H67 C59 1_555 1_555
C60 C57 1_555 1_555
H68 C60 1_555 1_555
O9 C64 1_555 1_555
O10 C65 1_555 1_555
N5 H69 1_555 1_555
C61 C62 1_555 1_555
C62 C67 1_555 1_555
C63 C61 1_555 1_555
C64 N5 1_555 1_555
C65 C63 1_555 1_555
C66 N5 1_555 1_555
C67 H70 1_555 1_555
C68 C62 1_555 1_555
H71 C68 1_555 1_555
C69 C65 1_555 1_555
H72 C69 1_555 1_555
H73 C69 1_555 1_555
H74 C69 1_555 1_555
C70 C66 1_555 1_555
H75 C70 1_555 1_555
H76 C70 1_555 1_555
H77 C70 1_555 1_555
C71 C68 1_555 1_555
H78 C71 1_555 1_555
C72 C71 1_555 1_555
H79 C72 1_555 1_555
C73 C67 1_555 1_555
H80 C73 1_555 1_555
C74 H81 1_555 1_555
H82 C74 1_555 1_555
H83 C74 1_555 1_555
C75 O9 1_555 1_555
H84 C75 1_555 1_555
H85 C75 1_555 1_555
O11 C79 1_555 1_555
O12 C80 1_555 1_555
N6 H86 1_555 1_555
C76 C77 1_555 1_555
C77 C78 1_555 1_555
C78 C80 1_555 1_555
C79 N6 1_555 1_555
C80 C85 1_555 1_555
C81 N6 1_555 1_555
C82 C76 1_555 1_555
H87 C82 1_555 1_555
C83 C82 1_555 1_555
H88 C83 1_555 1_555
C84 C76 1_555 1_555
H89 C84 1_555 1_555
C85 H90 1_555 1_555
H91 C85 1_555 1_555
H92 C85 1_555 1_555
C86 C83 1_555 1_555
H93 C86 1_555 1_555
C87 C81 1_555 1_555
H94 C87 1_555 1_555
H95 C87 1_555 1_555
H96 C87 1_555 1_555
C88 C84 1_555 1_555
H97 C88 1_555 1_555
C89 O11 1_555 1_555
H98 C89 1_555 1_555
H99 C89 1_555 1_555
C90 C89 1_555 1_555
H100 C90 1_555 1_555
H101 C90 1_555 1_555
H102 C90 1_555 1_555
O13 C94 1_555 1_555
O14 C96 1_555 1_555
N7 H103 1_555 1_555
C91 C92 1_555 1_555
C92 C93 1_555 1_555
C93 C97 1_555 1_555
C94 N7 1_555 1_555
C95 N7 1_555 1_555
C96 C91 1_555 1_555
C97 H104 1_555 1_555
C98 C93 1_555 1_555
H105 C98 1_555 1_555
C99 C95 1_555 1_555
H106 C99 1_555 1_555
H107 C99 1_555 1_555
H108 C99 1_555 1_555
C100 C96 1_555 1_555
H109 C100 1_555 1_555
H110 C100 1_555 1_555
H111 C100 1_555 1_555
C101 C98 1_555 1_555
H112 C101 1_555 1_555
C102 C97 1_555 1_555
H113 C102 1_555 1_555
C103 C101 1_555 1_555
H114 C103 1_555 1_555
C104 H115 1_555 1_555
H116 C104 1_555 1_555
H117 C104 1_555 1_555
C105 O13 1_555 1_555
H118 C105 1_555 1_555
H119 C105 1_555 1_555
O15 C106 1_555 1_555
O16 C111 1_555 1_555
N8 H120 1_555 1_555
C106 N8 1_555 1_555
C107 C106 1_555 1_555
C108 C107 1_555 1_555
C109 C107 1_555 1_555
C110 N8 1_555 1_555
C111 C109 1_555 1_555
C112 C110 1_555 1_555
H121 C112 1_555 1_555
H122 C112 1_555 1_555
H123 C112 1_555 1_555
C113 C108 1_555 1_555
H124 C113 1_555 1_555
C114 C108 1_555 1_555
H125 C114 1_555 1_555
C115 H126 1_555 1_555
H127 C115 1_555 1_555
H128 C115 1_555 1_555
C116 H129 1_555 1_555
C117 C113 1_555 1_555
H130 C117 1_555 1_555
C118 C111 1_555 1_555
H131 C118 1_555 1_555
H132 C118 1_555 1_555
H133 C118 1_555 1_555
C119 C114 1_555 1_555
H134 C119 1_555 1_555
C120 O15 1_555 1_555
H135 C120 1_555 1_555
O17 C126 1_555 1_555
O18 C125 1_555 1_555
N9 H136 1_555 1_555
C121 C122 1_555 1_555
C122 C123 1_555 1_555
C123 C127 1_555 1_555
C124 N9 1_555 1_555
C125 N9 1_555 1_555
C126 C121 1_555 1_555
C127 H137 1_555 1_555
C128 O18 1_555 1_555
H138 C128 1_555 1_555
H139 C128 1_555 1_555
C129 C124 1_555 1_555
H140 C129 1_555 1_555
H141 C129 1_555 1_555
H142 C129 1_555 1_555
C130 C127 1_555 1_555
H143 C130 1_555 1_555
C131 C123 1_555 1_555
H144 C131 1_555 1_555
C132 C130 1_555 1_555
H145 C132 1_555 1_555
C133 C126 1_555 1_555
H146 C133 1_555 1_555
H147 C133 1_555 1_555
H148 C133 1_555 1_555
C134 C128 1_555 1_555
H149 C134 1_555 1_555
H150 C134 1_555 1_555
H151 C134 1_555 1_555
C135 C131 1_555 1_555
H152 C135 1_555 1_555
O19 C139 1_555 1_555
O20 C142 1_555 1_555
N10 H153 1_555 1_555
C136 C137 1_555 1_555
C137 C138 1_555 1_555
C138 C141 1_555 1_555
C139 N10 1_555 1_555
C140 N10 1_555 1_555
C141 H154 1_555 1_555
C142 C136 1_555 1_555
C143 C138 1_555 1_555
H155 C143 1_555 1_555
C144 C141 1_555 1_555
H156 C144 1_555 1_555
C145 C143 1_555 1_555
H157 C145 1_555 1_555
C146 C144 1_555 1_555
H158 C146 1_555 1_555
C147 C142 1_555 1_555
H159 C147 1_555 1_555
H160 C147 1_555 1_555
H161 C147 1_555 1_555
C148 C140 1_555 1_555
H162 C148 1_555 1_555
H163 C148 1_555 1_555
H164 C148 1_555 1_555
C149 O19 1_555 1_555
H165 C149 1_555 1_555
H166 C149 1_555 1_555
C150 C149 1_555 1_555
H167 C150 1_555 1_555
H168 C150 1_555 1_555
H169 C150 1_555 1_555
O21 C154 1_555 1_555
O22 C156 1_555 1_555
N11 H170 1_555 1_555
C151 C153 1_555 1_555
C152 C153 1_555 1_555
C153 C154 1_555 1_555
C154 N11 1_555 1_555
C155 N11 1_555 1_555
C156 C152 1_555 1_555
C157 C151 1_555 1_555
H171 C157 1_555 1_555
C158 C151 1_555 1_555
H172 C158 1_555 1_555
C159 C155 1_555 1_555
H173 C159 1_555 1_555
H174 C159 1_555 1_555
H175 C159 1_555 1_555
C160 H176 1_555 1_555
C161 C157 1_555 1_555
H177 C161 1_555 1_555
C162 C158 1_555 1_555
H178 C162 1_555 1_555
C163 H179 1_555 1_555
H180 C163 1_555 1_555
H181 C163 1_555 1_555
C164 O21 1_555 1_555
H182 C164 1_555 1_555
H183 C164 1_555 1_555
C165 C156 1_555 1_555
H184 C165 1_555 1_555
H185 C165 1_555 1_555
H186 C165 1_555 1_555
O23 C170 1_555 1_555
N12 H187 1_555 1_555
O24 C171 1_555 1_555
C166 C167 1_555 1_555
C167 C169 1_555 1_555
C168 C166 1_555 1_555
C169 N12 1_555 1_555
C170 N12 1_555 1_555
C171 C167 1_555 1_555
C172 C168 1_555 1_555
H188 C172 1_555 1_555
C173 C169 1_555 1_555
H189 C173 1_555 1_555
H190 C173 1_555 1_555
H191 C173 1_555 1_555
C174 C168 1_555 1_555
H192 C174 1_555 1_555
C175 C171 1_555 1_555
H193 C175 1_555 1_555
H194 C175 1_555 1_555
H195 C175 1_555 1_555
C176 H196 1_555 1_555
C177 C172 1_555 1_555
H197 C177 1_555 1_555
C178 C174 1_555 1_555
H198 C178 1_555 1_555
C179 H199 1_555 1_555
H200 C179 1_555 1_555
H201 C179 1_555 1_555
C180 O23 1_555 1_555
H202 C180 1_555 1_555
C4 C5 1_555 1_555
C14 C15 1_555 1_555
C19 C20 1_555 1_555
C24 C27 1_555 1_555
C24 C28 1_555 1_555
C32 C36 1_555 1_555
C40 C43 1_555 1_555
C48 C50 1_555 1_555
C59 C60 1_555 1_555
C61 C64 1_555 1_555
C63 C66 1_555 1_555
C72 C73 1_555 1_555
C74 C75 1_555 1_555
C77 C79 1_555 1_555
C78 C81 1_555 1_555
C86 C88 1_555 1_555
C91 C95 1_555 1_555
C92 C94 1_555 1_555
C102 C103 1_555 1_555
C104 C105 1_555 1_555
C109 C110 1_555 1_555
C115 C120 1_555 1_555
C116 C117 1_555 1_555
C116 C119 1_555 1_555
C121 C124 1_555 1_555
C122 C125 1_555 1_555
C132 C135 1_555 1_555
C136 C140 1_555 1_555
C137 C139 1_555 1_555
C145 C146 1_555 1_555
C152 C155 1_555 1_555
C160 C161 1_555 1_555
C160 C162 1_555 1_555
C163 C164 1_555 1_555
C166 C170 1_555 1_555
C176 C177 1_555 1_555
C176 C178 1_555 1_555
C179 C180 1_555 1_555

#END
