
#######################################################################
#
#                 Cambridge Crystallographic Data Centre
#                                CCDC 
#
#######################################################################
#
# If this CIF has been generated from an entry in the Cambridge 
# Structural Database, then it will include bibliographic, chemical, 
# crystal, experimental, refinement or atomic coordinate data resulting 
# from the CCDC's data processing and validation procedures.
#
#######################################################################

data_ZIPCAF
_chemical_formula_moiety         'C28 H25 N3 O6,H2 O1'
_chemical_name_systematic        
'7,8-dihydroxy-6,16-dimethoxy-5-methyl-6,7,8,9,15,16-hexahydro-5H,14H-5,9-epoxy-4b,9a,15-triazadibenzo[b,h]cyclonona[1,2,3,4-jkl]cyclopenta[e]-as-indacen-14-one monohydrate'
_symmetry_cell_setting           orthorhombic
_symmetry_space_group_name_H-M   'P 21 21 21'
_symmetry_Int_Tables_number      19
_space_group_name_Hall           'P 2ac 2ab'
loop_
_symmetry_equiv_pos_site_id
_symmetry_equiv_pos_as_xyz
1 x,y,z
2 1/2-x,-y,1/2+z
3 1/2+x,1/2-y,-z
4 -x,1/2+y,1/2-z
_cell_length_a                   7.22366(16)
_cell_length_b                   16.5577(4)
_cell_length_c                   20.6478(5)
_cell_angle_alpha                90
_cell_angle_beta                 90
_cell_angle_gamma                90
_cell_volume                     2469.63
_exptl_crystal_colour            'dark green'
_exptl_crystal_description       block
_cell_formula_units_Z            4
loop_
_atom_site_label
_atom_site_type_symbol
_atom_site_fract_x
_atom_site_fract_y
_atom_site_fract_z
O1 O 0.8086(3) 0.30778(15) 0.67183(10)
O2 O 0.3752(3) 0.18735(13) 0.79267(10)
O3 O 0.8079(2) 0.48068(10) 0.99690(8)
O4 O 0.8608(2) 0.66241(11) 0.98654(9)
H1 H 0.960060 0.685606 0.976396
O5 O 0.5245(3) 0.68102(11) 0.92395(9)
H2 H 0.409930 0.680640 0.930892
O6 O 0.3397(2) 0.56814(10) 1.00285(8)
N1 N 0.5268(4) 0.25810(17) 0.70721(12)
H3 H 0.499122 0.229604 0.672557
N2 N 0.5223(3) 0.42432(13) 0.96056(10)
N3 N 0.8923(3) 0.47931(13) 0.88773(10)
C1 C 0.6853(5) 0.30185(18) 0.71318(14)
C2 C 0.4076(5) 0.26317(18) 0.76381(14)
H4 H 0.287398 0.289325 0.752070
C3 C 0.5179(4) 0.31791(17) 0.80820(14)
C4 C 0.6784(4) 0.34112(17) 0.77730(13)
C5 C 0.8018(4) 0.39654(16) 0.80598(13)
C6 C 0.7565(4) 0.42608(15) 0.86847(12)
C7 C 0.5951(4) 0.40179(15) 0.90050(13)
C8 C 0.4729(4) 0.34724(15) 0.86961(13)
C9 C 0.3181(4) 0.33654(15) 0.91276(13)
C10 C 0.3516(4) 0.38484(15) 0.96808(13)
C11 C 0.2221(4) 0.38636(16) 1.01846(14)
H5 H 0.240598 0.419793 1.055282
C12 C 0.0667(4) 0.33812(17) 1.01342(16)
H6 H -0.019933 0.337493 1.048050
C13 C 0.0330(4) 0.29037(17) 0.95909(16)
H7 H -0.075632 0.258158 0.956976
C14 C 0.1572(4) 0.28982(16) 0.90848(16)
H8 H 0.133812 0.258049 0.871054
C15 C 0.9723(4) 0.43523(17) 0.78741(12)
C16 C 1.0226(4) 0.48661(16) 0.83915(12)
C17 C 1.1786(4) 0.53556(19) 0.83700(14)
H9 H 1.209272 0.570156 0.872106
C18 C 1.2878(5) 0.5323(2) 0.78210(15)
H10 H 1.395179 0.565235 0.779250
C19 C 1.2421(5) 0.4810(2) 0.73068(15)
H11 H 1.319989 0.479224 0.693630
C20 C 1.0865(4) 0.4331(2) 0.73275(14)
H12 H 1.056840 0.398854 0.697316
C21 C 0.6129(4) 0.48079(15) 1.00710(12)
C22 C 0.8925(4) 0.52560(15) 0.94697(12)
H13 H 1.024674 0.534021 0.959623
C23 C 0.8073(4) 0.60920(15) 0.93604(12)
H14 H 0.850990 0.631206 0.893615
C24 C 0.5979(4) 0.60277(15) 0.93528(12)
H15 H 0.559279 0.566004 0.899320
C25 C 0.5364(3) 0.56688(15) 0.99963(12)
H16 H 0.586620 0.601029 1.035499
C26 C 0.2379(6) 0.1408(2) 0.7586(2)
H17 H 0.282631 0.128635 0.714890
H18 H 0.122685 0.171830 0.755831
H19 H 0.215056 0.090256 0.781981
C27 C 0.5975(4) 0.45029(17) 1.07667(13)
H20 H 0.628695 0.392707 1.078092
H21 H 0.470654 0.458098 1.092250
H22 H 0.683398 0.480470 1.104320
C28 C 0.2679(4) 0.60686(18) 1.05951(12)
H23 H 0.303392 0.663982 1.059277
H24 H 0.318391 0.580676 1.098225
H25 H 0.132568 0.602443 1.059804
O7 O 0.6653(3) 0.76914(11) 1.05958(8)
H26 H 0.716686 0.739204 1.031453
H27 H 0.663410 0.744913 1.095884
loop_
_geom_bond_atom_site_label_1
_geom_bond_atom_site_label_2
_geom_bond_site_symmetry_1
_geom_bond_site_symmetry_2
O1 C1 1_555 1_555
O2 C2 1_555 1_555
O3 C21 1_555 1_555
O4 H1 1_555 1_555
O5 H2 1_555 1_555
O6 C25 1_555 1_555
N1 H3 1_555 1_555
N2 C7 1_555 1_555
N3 C6 1_555 1_555
C1 N1 1_555 1_555
C2 N1 1_555 1_555
H4 C2 1_555 1_555
C3 C2 1_555 1_555
C4 C1 1_555 1_555
C5 C4 1_555 1_555
C6 C5 1_555 1_555
C7 C6 1_555 1_555
C8 C3 1_555 1_555
C9 C8 1_555 1_555
C10 N2 1_555 1_555
C11 C10 1_555 1_555
H5 C11 1_555 1_555
C12 C11 1_555 1_555
H6 C12 1_555 1_555
C13 C12 1_555 1_555
H7 C13 1_555 1_555
C14 C9 1_555 1_555
H8 C14 1_555 1_555
C15 C5 1_555 1_555
C16 N3 1_555 1_555
C17 C16 1_555 1_555
H9 C17 1_555 1_555
C18 C17 1_555 1_555
H10 C18 1_555 1_555
C19 C18 1_555 1_555
H11 C19 1_555 1_555
C20 C15 1_555 1_555
H12 C20 1_555 1_555
C21 N2 1_555 1_555
C22 O3 1_555 1_555
H13 C22 1_555 1_555
C23 O4 1_555 1_555
H14 C23 1_555 1_555
C24 O5 1_555 1_555
H15 C24 1_555 1_555
C25 C21 1_555 1_555
H16 C25 1_555 1_555
C26 O2 1_555 1_555
H17 C26 1_555 1_555
H18 C26 1_555 1_555
H19 C26 1_555 1_555
C27 C21 1_555 1_555
H20 C27 1_555 1_555
H21 C27 1_555 1_555
H22 C27 1_555 1_555
C28 O6 1_555 1_555
H23 C28 1_555 1_555
H24 C28 1_555 1_555
H25 C28 1_555 1_555
O7 H26 1_555 1_555
H27 O7 1_555 1_555
N3 C22 1_555 1_555
C3 C4 1_555 1_555
C7 C8 1_555 1_555
C9 C10 1_555 1_555
C13 C14 1_555 1_555
C15 C16 1_555 1_555
C19 C20 1_555 1_555
C22 C23 1_555 1_555
C23 C24 1_555 1_555
C24 C25 1_555 1_555

#END
