
#######################################################################
#
#                 Cambridge Crystallographic Data Centre
#                                CCDC 
#
#######################################################################
#
# If this CIF has been generated from an entry in the Cambridge 
# Structural Database, then it will include bibliographic, chemical, 
# crystal, experimental, refinement or atomic coordinate data resulting 
# from the CCDC's data processing and validation procedures.
#
#######################################################################

data_ZIPCIN
_chemical_formula_moiety         'C8 H4 Br1 F2 N1 O1 S1'
_chemical_name_systematic        
5-bromo-3-(difluoromethyl)-1,3-benzoxazole-2(3H)-thione
_symmetry_cell_setting           monoclinic
_symmetry_space_group_name_H-M   'I 2/a'
_symmetry_Int_Tables_number      15
_space_group_name_Hall           '-I 2ya'
loop_
_symmetry_equiv_pos_site_id
_symmetry_equiv_pos_as_xyz
1 x,y,z
2 1/2-x,y,-z
3 1/2+x,1/2+y,1/2+z
4 -x,1/2+y,1/2-z
5 -x,-y,-z
6 1/2+x,-y,z
7 1/2-x,1/2-y,1/2-z
8 x,1/2-y,1/2+z
_cell_length_a                   18.263(10)
_cell_length_b                   4.537(3)
_cell_length_c                   22.854(12)
_cell_angle_alpha                90
_cell_angle_beta                 97.56(4)
_cell_angle_gamma                90
_cell_volume                     1877.2
_cell_formula_units_Z            8
loop_
_atom_site_label
_atom_site_type_symbol
_atom_site_fract_x
_atom_site_fract_y
_atom_site_fract_z
Br1 Br 0.55043(6) 0.8325(3) 0.10754(5)
S1 S 0.21269(15) -0.2552(7) 0.13919(12)
F1 F 0.4203(4) -0.042(2) 0.2353(3)
F2 F 0.3432(5) 0.2972(18) 0.2493(3)
O1 O 0.2771(4) 0.0921(17) 0.0678(3)
N1 N 0.3361(4) 0.0938(19) 0.1582(3)
C1 C 0.3759(5) 0.286(2) 0.1261(4)
C2 C 0.4614(6) 0.612(3) 0.0928(5)
C3 C 0.2759(5) -0.023(2) 0.1239(4)
C4 C 0.3369(5) 0.278(2) 0.0694(4)
C5 C 0.4386(5) 0.448(2) 0.1395(4)
H1 H 0.4648 0.4495 0.1772
C6 C 0.3591(6) 0.442(3) 0.0236(4)
H2 H 0.3326 0.4395 -0.0141
C7 C 0.3497(6) 0.044(3) 0.2215(4)
H3 H 0.3157 -0.1037 0.2337
C8 C 0.4226(6) 0.611(3) 0.0366(4)
H4 H 0.4393 0.7242 0.0071
loop_
_geom_bond_atom_site_label_1
_geom_bond_atom_site_label_2
_geom_bond_site_symmetry_1
_geom_bond_site_symmetry_2
Br1 C2 1_555 1_555
S1 C3 1_555 1_555
F1 C7 1_555 1_555
F2 C7 1_555 1_555
O1 C3 1_555 1_555
N1 C1 1_555 1_555
C1 C4 1_555 1_555
C2 C5 1_555 1_555
C3 N1 1_555 1_555
C4 O1 1_555 1_555
C5 C1 1_555 1_555
H1 C5 1_555 1_555
C6 C4 1_555 1_555
H2 C6 1_555 1_555
C7 N1 1_555 1_555
H3 C7 1_555 1_555
C8 C2 1_555 1_555
H4 C8 1_555 1_555
C6 C8 1_555 1_555

#END
