
#######################################################################
#
#                 Cambridge Crystallographic Data Centre
#                                CCDC 
#
#######################################################################
#
# If this CIF has been generated from an entry in the Cambridge 
# Structural Database, then it will include bibliographic, chemical, 
# crystal, experimental, refinement or atomic coordinate data resulting 
# from the CCDC's data processing and validation procedures.
#
#######################################################################

data_ZIPKUG
_chemical_formula_moiety         'C13 H8 Cl4 N2'
_chemical_name_systematic        N,N'-bis(3,5-dichlorophenyl)imidoformamide
_symmetry_cell_setting           triclinic
_symmetry_space_group_name_H-M   'P -1'
_symmetry_Int_Tables_number      2
_space_group_name_Hall           '-P 1'
loop_
_symmetry_equiv_pos_site_id
_symmetry_equiv_pos_as_xyz
1 x,y,z
2 -x,-y,-z
_cell_length_a                   7.9265(13)
_cell_length_b                   9.3588(15)
_cell_length_c                   10.4003(17)
_cell_angle_alpha                76.579(3)
_cell_angle_beta                 72.529(2)
_cell_angle_gamma                74.249(2)
_cell_volume                     698.7
_exptl_crystal_colour            yellow
_exptl_crystal_description       column
_cell_formula_units_Z            2
loop_
_atom_site_label
_atom_site_type_symbol
_atom_site_fract_x
_atom_site_fract_y
_atom_site_fract_z
Cl1 Cl -0.08791(5) 0.38340(4) 0.31179(4)
Cl2 Cl 0.38888(4) 0.71905(4) 0.00025(4)
Cl3 Cl -0.08734(5) 0.88155(4) -0.67621(3)
Cl4 Cl -0.59760(5) 1.38584(4) -0.58346(4)
N1 N -0.28408(15) 0.85921(13) -0.00946(12)
N2 N -0.37690(16) 1.01372(13) -0.19482(12)
H1 H -0.4745 1.0594 -0.1401
C1 C -0.25279(18) 0.91035(15) -0.13807(14)
H2 H -0.1378 0.8740 -0.1955
C2 C -0.13833(18) 0.75849(16) 0.03752(14)
C3 C -0.17350(18) 0.63037(15) 0.13205(14)
H3 H -0.2907 0.6088 0.1586
C4 C -0.03624(19) 0.53543(15) 0.18659(14)
C5 C 0.13908(19) 0.55832(16) 0.14730(14)
H4 H 0.2324 0.4908 0.1847
C6 C 0.17184(18) 0.68396(16) 0.05111(14)
C7 C 0.03678(18) 0.78588(16) -0.00332(14)
H5 H 0.0629 0.8727 -0.0672
C8 C -0.35910(17) 1.05261(15) -0.33628(13)
C9 C -0.24007(18) 0.95861(16) -0.42671(14)
H6 H -0.1655 0.8675 -0.3943
C10 C -0.23310(18) 1.00107(16) -0.56477(14)
C11 C -0.34105(19) 1.13140(16) -0.61672(14)
H7 H -0.3353 1.1576 -0.7116
C12 C -0.45776(19) 1.22184(16) -0.52405(15)
C13 C -0.46757(19) 1.18580(16) -0.38558(14)
H8 H -0.5474 1.2511 -0.3248
loop_
_geom_bond_atom_site_label_1
_geom_bond_atom_site_label_2
_geom_bond_site_symmetry_1
_geom_bond_site_symmetry_2
Cl1 C4 1_555 1_555
Cl2 C6 1_555 1_555
Cl3 C10 1_555 1_555
Cl4 C12 1_555 1_555
N1 C1 1_555 1_555
N2 H1 1_555 1_555
C1 N2 1_555 1_555
H2 C1 1_555 1_555
C2 N1 1_555 1_555
C3 C2 1_555 1_555
H3 C3 1_555 1_555
C4 C3 1_555 1_555
C5 C4 1_555 1_555
H4 C5 1_555 1_555
C6 C5 1_555 1_555
C7 C2 1_555 1_555
H5 C7 1_555 1_555
C8 N2 1_555 1_555
C9 C8 1_555 1_555
H6 C9 1_555 1_555
C10 C9 1_555 1_555
C11 C10 1_555 1_555
H7 C11 1_555 1_555
C12 C11 1_555 1_555
C13 C8 1_555 1_555
H8 C13 1_555 1_555
C6 C7 1_555 1_555
C12 C13 1_555 1_555

#END
