
#######################################################################
#
#                 Cambridge Crystallographic Data Centre
#                                CCDC 
#
#######################################################################
#
# If this CIF has been generated from an entry in the Cambridge 
# Structural Database, then it will include bibliographic, chemical, 
# crystal, experimental, refinement or atomic coordinate data resulting 
# from the CCDC's data processing and validation procedures.
#
#######################################################################

data_ZIPLOC
_chemical_formula_moiety         '2(C6 H16 N1 1+),C5 H15 B12 N1 O1 S1 2-'
_chemical_name_systematic        
'bis(Triethylammonium) ((thiophene-2-carbonyl)amino)-closo-dodecaborate(11)'
_symmetry_cell_setting           monoclinic
_symmetry_space_group_name_H-M   'P 21/n'
_symmetry_Int_Tables_number      14
_space_group_name_Hall           '-P 2yn'
loop_
_symmetry_equiv_pos_site_id
_symmetry_equiv_pos_as_xyz
1 x,y,z
2 1/2-x,1/2+y,1/2-z
3 -x,-y,-z
4 1/2+x,1/2-y,1/2+z
_cell_length_a                   16.0497(10)
_cell_length_b                   10.0585(5)
_cell_length_c                   18.1126(9)
_cell_angle_alpha                90
_cell_angle_beta                 97.184(5)
_cell_angle_gamma                90
_cell_volume                     2901.07
_exptl_crystal_colour            yellow
_exptl_crystal_description       block
_cell_formula_units_Z            4
_exptl_crystal_recrystallization_method acetone/hexanes
loop_
_atom_site_label
_atom_site_type_symbol
_atom_site_fract_x
_atom_site_fract_y
_atom_site_fract_z
S1 S 0.38247(8) 0.36937(12) 1.02151(6)
N1 N 0.41681(11) 0.35561(17) 0.85766(10)
H1 H 0.4315 0.4133 0.8919
B1 B 0.42050(16) 0.3154(2) 0.69654(14)
H2 H 0.3641 0.2530 0.6856
C1 C 0.33399(14) 0.2739(2) 0.95027(12)
B2 B 0.45733(15) 0.3748(2) 0.78687(13)
C2 C 0.2669(3) 0.2062(5) 0.9786(3)
H3 H 0.2345 0.1422 0.9513
B3 B 0.56880(15) 0.3875(2) 0.79492(13)
H4 H 0.6087 0.3719 0.8482
B4 B 0.60116(16) 0.3363(3) 0.70918(14)
H5 H 0.6620 0.2874 0.7064
B5 B 0.41381(15) 0.4878(2) 0.71694(14)
H6 H 0.3532 0.5374 0.7195
B6 B 0.51631(15) 0.2533(2) 0.74508(14)
H7 H 0.5220 0.1505 0.7658
B7 B 0.55764(16) 0.4488(3) 0.63895(14)
H8 H 0.5901 0.4730 0.5906
B8 B 0.50532(15) 0.5316(2) 0.77768(14)
H9 H 0.5040 0.6099 0.8199
B9 B 0.44624(16) 0.4357(3) 0.63127(14)
H10 H 0.4066 0.4510 0.5779
B10 B 0.50975(16) 0.2915(3) 0.64912(14)
H11 H 0.5113 0.2126 0.6073
B11 B 0.59413(16) 0.5077(3) 0.72963(14)
H12 H 0.6505 0.5705 0.7404
B12 B 0.49821(17) 0.5692(3) 0.68158(15)
H13 H 0.4922 0.6722 0.6611
C3 C 0.2538(2) 0.2418(3) 1.04851(16)
H14 H 0.2095 0.2118 1.0727
C4 C 0.3135(2) 0.3261(3) 1.07782(15)
H15 H 0.3160 0.3581 1.1262
O1 O 0.33375(10) 0.17610(15) 0.83263(9)
C5 C 0.36282(13) 0.26540(19) 0.87558(12)
N2 N 0.35954(12) -0.08795(18) 0.82386(11)
H19 H 0.3486 0.0008 0.8241
C7 C 0.31870(18) -0.1457(3) 0.88571(17)
H20 H 0.2585 -0.1327 0.8753
H21 H 0.3381 -0.0981 0.9312
C8 C 0.31829(19) -0.1393(3) 0.74966(16)
H22 H 0.3347 -0.2312 0.7441
H23 H 0.2578 -0.1374 0.7494
C9 C 0.45207(17) -0.1008(3) 0.83192(18)
H24 H 0.4728 -0.0559 0.7905
H25 H 0.4663 -0.1942 0.8290
C10 C 0.3363(2) -0.2922(3) 0.8978(2)
H26 H 0.3254 -0.3384 0.8512
H27 H 0.3008 -0.3270 0.9321
H28 H 0.3941 -0.3044 0.9179
C11 C 0.3400(2) -0.0631(3) 0.68614(17)
H29 H 0.3072 -0.0941 0.6415
H30 H 0.3986 -0.0744 0.6819
H31 H 0.3284 0.0293 0.6933
C12 C 0.4960(2) -0.0452(4) 0.9029(2)
H32 H 0.5556 -0.0541 0.9032
H33 H 0.4788 -0.0929 0.9443
H34 H 0.4819 0.0471 0.9067
N3 N 0.85449(13) 0.2782(2) 0.88885(12)
H35 H 0.8804 0.2146 0.8642
C13 C 0.91204(18) 0.3158(3) 0.95321(16)
H36 H 0.9657 0.3382 0.9371
H37 H 0.9208 0.2397 0.9862
C14 C 0.8686(8) 0.4113(15) 0.7884(6)
H38 H 0.8393 0.4701 0.7523
H39 H 0.8936 0.3404 0.7633
H40 H 0.9118 0.4597 0.8186
C15 C 0.8831(2) 0.4319(4) 0.99659(19)
H41 H 0.8779 0.5095 0.9655
H42 H 0.9234 0.4484 1.0394
H43 H 0.8296 0.4114 1.0124
C16 C 0.8087(3) 0.3552(5) 0.8363(3)
H44 H 0.7807 0.4261 0.8599
H45 H 0.7665 0.3019 0.8068
C17 C 0.7253(9) 0.1050(12) 0.8915(9)
H46 H 0.6914 0.1535 0.8531
H47 H 0.6896 0.0619 0.9229
H48 H 0.7577 0.0394 0.8692
C18 C 0.7828(5) 0.1984(7) 0.9367(4)
H49 H 0.8132 0.1494 0.9776
H50 H 0.7491 0.2651 0.9579
H16? H 0.2139 0.2121 1.0778
H17? H 0.3248 0.3622 1.1253
S2? S 0.2491(3) 0.1890(4) 0.96159(18)
C6? C 0.3584(12) 0.3446(19) 1.0063(10)
H18? H 0.4017 0.4058 1.0053
H51? H 0.8752 0.2036 0.8693
C19? C 0.7702(3) 0.2721(6) 0.8760(3)
H52? H 0.7514 0.2721 0.8230
H53? H 0.7451 0.3473 0.8985
C20? C 0.7470(9) 0.1455(12) 0.9106(9)
H54? H 0.7709 0.0722 0.8866
H55? H 0.6870 0.1368 0.9048
H56? H 0.7681 0.1459 0.9625
C21? C 0.8813(5) 0.4150(8) 0.8354(4)
H57? H 0.8551 0.4943 0.8524
H58? H 0.9417 0.4278 0.8440
C22? C 0.8553(11) 0.400(2) 0.7532(6)
H59? H 0.8803 0.4690 0.7270
H60? H 0.7952 0.4052 0.7429
H61? H 0.8737 0.3147 0.7371
loop_
_geom_bond_atom_site_label_1
_geom_bond_atom_site_label_2
_geom_bond_site_symmetry_1
_geom_bond_site_symmetry_2
S1 C1 1_555 1_555
N1 H1 1_555 1_555
B1 H2 1_555 1_555
C1 C2 1_555 1_555
B2 N1 1_555 1_555
C2 H3 1_555 1_555
B3 B2 1_555 1_555
H4 B3 1_555 1_555
B4 B3 1_555 1_555
H5 B4 1_555 1_555
B5 B1 1_555 1_555
H6 B5 1_555 1_555
B6 B1 1_555 1_555
H7 B6 1_555 1_555
B7 B4 1_555 1_555
H8 B7 1_555 1_555
B8 B2 1_555 1_555
H9 B8 1_555 1_555
B9 B1 1_555 1_555
H10 B9 1_555 1_555
B10 B1 1_555 1_555
H11 B10 1_555 1_555
B11 B3 1_555 1_555
H12 B11 1_555 1_555
B12 B5 1_555 1_555
H13 B12 1_555 1_555
C3 C2 1_555 1_555
H14 C3 1_555 1_555
C4 S1 1_555 1_555
H15 C4 1_555 1_555
O1 C5 1_555 1_555
C5 N1 1_555 1_555
N2 H19 1_555 1_555
C7 N2 1_555 1_555
H20 C7 1_555 1_555
H21 C7 1_555 1_555
C8 N2 1_555 1_555
H22 C8 1_555 1_555
H23 C8 1_555 1_555
C9 N2 1_555 1_555
H24 C9 1_555 1_555
H25 C9 1_555 1_555
C10 C7 1_555 1_555
H26 C10 1_555 1_555
H27 C10 1_555 1_555
H28 C10 1_555 1_555
C11 C8 1_555 1_555
H29 C11 1_555 1_555
H30 C11 1_555 1_555
H31 C11 1_555 1_555
C12 C9 1_555 1_555
H32 C12 1_555 1_555
H33 C12 1_555 1_555
H34 C12 1_555 1_555
N3 H35 1_555 1_555
C13 N3 1_555 1_555
H36 C13 1_555 1_555
H37 C13 1_555 1_555
C14 H38 1_555 1_555
H39 C14 1_555 1_555
H40 C14 1_555 1_555
C15 C13 1_555 1_555
H41 C15 1_555 1_555
H42 C15 1_555 1_555
H43 C15 1_555 1_555
C16 N3 1_555 1_555
H44 C16 1_555 1_555
H45 C16 1_555 1_555
C17 H46 1_555 1_555
H47 C17 1_555 1_555
H48 C17 1_555 1_555
C18 N3 1_555 1_555
H49 C18 1_555 1_555
H50 C18 1_555 1_555
B1 B2 1_555 1_555
C1 C5 1_555 1_555
B2 B5 1_555 1_555
B2 B6 1_555 1_555
B3 B6 1_555 1_555
B3 B8 1_555 1_555
B4 B6 1_555 1_555
B4 B10 1_555 1_555
B4 B11 1_555 1_555
B5 B8 1_555 1_555
B5 B9 1_555 1_555
B6 B10 1_555 1_555
B7 B9 1_555 1_555
B7 B10 1_555 1_555
B7 B11 1_555 1_555
B7 B12 1_555 1_555
B8 B11 1_555 1_555
B8 B12 1_555 1_555
B9 B10 1_555 1_555
B9 B12 1_555 1_555
B11 B12 1_555 1_555
C3 C4 1_555 1_555
C14 C16 1_555 1_555
C17 C18 1_555 1_555

#END
