
#######################################################################
#
#                 Cambridge Crystallographic Data Centre
#                                CCDC 
#
#######################################################################
#
# If this CIF has been generated from an entry in the Cambridge 
# Structural Database, then it will include bibliographic, chemical, 
# crystal, experimental, refinement or atomic coordinate data resulting 
# from the CCDC's data processing and validation procedures.
#
#######################################################################

data_ZIPLIW
_chemical_formula_moiety         'C6 H16 N1 1+,C7 H15 B12 F1 N1 O1 1-,C3 H6 O1'
_chemical_name_systematic        
'Triethylammonium 1,2-((4-fluorophenyl)(iminio)methanolato)-closo-dodecaborate(10) acetone solvate'
_chemical_properties_biological  'antimicrobial activity'
_symmetry_cell_setting           triclinic
_symmetry_space_group_name_H-M   'P -1'
_symmetry_Int_Tables_number      2
_space_group_name_Hall           '-P 1'
loop_
_symmetry_equiv_pos_site_id
_symmetry_equiv_pos_as_xyz
1 x,y,z
2 -x,-y,-z
_cell_length_a                   8.7116(9)
_cell_length_b                   10.4962(9)
_cell_length_c                   14.4050(15)
_cell_angle_alpha                89.578(8)
_cell_angle_beta                 93.485(8)
_cell_angle_gamma                90.605(8)
_cell_volume                     1314.64
_exptl_crystal_colour            colorless
_exptl_crystal_description       plate
_cell_formula_units_Z            2
_exptl_crystal_recrystallization_method acetone/hexanes
loop_
_atom_site_label
_atom_site_type_symbol
_atom_site_fract_x
_atom_site_fract_y
_atom_site_fract_z
F1 F 0.9663(4) 0.2158(3) -0.32666(16)
O1 O 0.7328(3) 0.31915(19) 0.06574(15)
N1 N 0.7563(3) 0.1083(3) 0.08724(19)
H1 H 0.769(4) 0.033(2) 0.063(3)
C1 C 0.7668(4) 0.2079(3) 0.0327(2)
C2 C 0.8144(4) 0.2061(3) -0.0638(2)
C3 C 0.8355(5) 0.3202(4) -0.1090(3)
H2 H 0.8157 0.3961 -0.0792
C4 C 0.8859(6) 0.3237(4) -0.1981(3)
H3 H 0.9003 0.4007 -0.2289
C5 C 0.9139(5) 0.2109(4) -0.2393(2)
C6 C 0.8937(5) 0.0973(4) -0.1984(3)
H4 H 0.9136 0.0223 -0.2292
C7 C 0.8428(4) 0.0940(3) -0.1093(2)
H5 H 0.8276 0.0161 -0.0799
B1 B 0.6810(4) 0.3047(3) 0.1629(2)
B2 B 0.6984(4) 0.1437(3) 0.1816(2)
B3 B 0.5120(4) 0.2098(3) 0.1677(2)
H6 H 0.4325 0.1911 0.1069
B4 B 0.5234(4) 0.3636(3) 0.2197(3)
H7 H 0.4529 0.4438 0.1932
B5 B 0.7172(4) 0.3885(4) 0.2675(3)
H8 H 0.7698 0.4842 0.2711
B6 B 0.8253(4) 0.2500(4) 0.2452(3)
H9 H 0.9492 0.2572 0.2349
B7 B 0.7473(4) 0.1144(4) 0.3002(3)
H10 H 0.8196 0.0343 0.3250
B8 B 0.5520(4) 0.0895(3) 0.2524(3)
H11 H 0.5000 -0.0063 0.2471
B9 B 0.4440(4) 0.2278(3) 0.2775(2)
H12 H 0.3206 0.2210 0.2893
B10 B 0.5699(4) 0.3372(3) 0.3400(2)
H13 H 0.5273 0.4011 0.3926
B11 B 0.7557(4) 0.2680(4) 0.3557(3)
H14 H 0.8323 0.2865 0.4177
B12 B 0.5871(4) 0.1699(3) 0.3597(3)
H15 H 0.5555 0.1250 0.4252
N2 N 0.2838(3) 0.2567(2) 0.49753(18)
H16 H 0.3533 0.2564 0.4528
C8 C 0.1494(4) 0.1725(4) 0.4647(3)
H17 H 0.0751 0.1704 0.5122
H18 H 0.0997 0.2101 0.4091
C9 C 0.1928(4) 0.0394(3) 0.4438(3)
H19 H 0.2774 0.0406 0.4041
H20 H 0.1066 -0.0039 0.4131
H21 H 0.2225 -0.0043 0.5008
C10 C 0.3626(4) 0.2062(4) 0.5858(3)
H22 H 0.3856 0.1169 0.5776
H23 H 0.2928 0.2118 0.6355
C11 C 0.5104(4) 0.2771(4) 0.6146(3)
H24 H 0.5748 0.2818 0.5628
H25 H 0.5633 0.2327 0.6653
H26 H 0.4866 0.3616 0.6337
C12 C 0.2329(5) 0.3916(4) 0.5086(3)
H27 H 0.3193 0.4416 0.5344
H28 H 0.1534 0.3927 0.5529
C13 C 0.1718(4) 0.4538(4) 0.4193(3)
H29 H 0.2435 0.4423 0.3721
H30 H 0.1581 0.5431 0.4293
H31 H 0.0748 0.4154 0.3996
O2 O 0.1913(3) 0.1515(2) -0.0375(2)
C14 C 0.2249(8) 0.3688(5) -0.0084(5)
H32 H 0.1725 0.4267 -0.0510
H33 H 0.3213 0.4059 0.0139
H34 H 0.1626 0.3521 0.0431
C15 C 0.2530(5) 0.2491(4) -0.0561(3)
C16 C 0.3633(9) 0.2548(7) -0.1316(6)
H35 H 0.4656 0.2399 -0.1056
H36 H 0.3591 0.3374 -0.1607
H37 H 0.3359 0.1908 -0.1771
loop_
_geom_bond_atom_site_label_1
_geom_bond_atom_site_label_2
_geom_bond_site_symmetry_1
_geom_bond_site_symmetry_2
F1 C5 1_555 1_555
O1 C1 1_555 1_555
N1 H1 1_555 1_555
C1 N1 1_555 1_555
C2 C1 1_555 1_555
C3 C2 1_555 1_555
H2 C3 1_555 1_555
C4 C3 1_555 1_555
H3 C4 1_555 1_555
C5 C4 1_555 1_555
C6 C5 1_555 1_555
H4 C6 1_555 1_555
C7 C2 1_555 1_555
H5 C7 1_555 1_555
B1 O1 1_555 1_555
B2 N1 1_555 1_555
B3 B1 1_555 1_555
H6 B3 1_555 1_555
B4 B1 1_555 1_555
H7 B4 1_555 1_555
B5 B1 1_555 1_555
H8 B5 1_555 1_555
B6 B1 1_555 1_555
H9 B6 1_555 1_555
B7 B2 1_555 1_555
H10 B7 1_555 1_555
B8 B2 1_555 1_555
H11 B8 1_555 1_555
B9 B3 1_555 1_555
H12 B9 1_555 1_555
B10 B4 1_555 1_555
H13 B10 1_555 1_555
B11 B5 1_555 1_555
H14 B11 1_555 1_555
B12 B7 1_555 1_555
H15 B12 1_555 1_555
N2 H16 1_555 1_555
C8 N2 1_555 1_555
H17 C8 1_555 1_555
H18 C8 1_555 1_555
C9 C8 1_555 1_555
H19 C9 1_555 1_555
H20 C9 1_555 1_555
H21 C9 1_555 1_555
C10 N2 1_555 1_555
H22 C10 1_555 1_555
H23 C10 1_555 1_555
C11 C10 1_555 1_555
H24 C11 1_555 1_555
H25 C11 1_555 1_555
H26 C11 1_555 1_555
C12 N2 1_555 1_555
H27 C12 1_555 1_555
H28 C12 1_555 1_555
C13 C12 1_555 1_555
H29 C13 1_555 1_555
H30 C13 1_555 1_555
H31 C13 1_555 1_555
O2 C15 1_555 1_555
C14 H32 1_555 1_555
H33 C14 1_555 1_555
H34 C14 1_555 1_555
C15 C14 1_555 1_555
C16 C15 1_555 1_555
H35 C16 1_555 1_555
H36 C16 1_555 1_555
H37 C16 1_555 1_555
C6 C7 1_555 1_555
B1 B2 1_555 1_555
B2 B3 1_555 1_555
B2 B6 1_555 1_555
B3 B4 1_555 1_555
B3 B8 1_555 1_555
B4 B5 1_555 1_555
B4 B9 1_555 1_555
B5 B6 1_555 1_555
B5 B10 1_555 1_555
B6 B7 1_555 1_555
B6 B11 1_555 1_555
B7 B8 1_555 1_555
B7 B11 1_555 1_555
B8 B9 1_555 1_555
B8 B12 1_555 1_555
B9 B10 1_555 1_555
B9 B12 1_555 1_555
B10 B11 1_555 1_555
B10 B12 1_555 1_555
B11 B12 1_555 1_555

#END
