
#######################################################################
#
#                 Cambridge Crystallographic Data Centre
#                                CCDC 
#
#######################################################################
#
# If this CIF has been generated from an entry in the Cambridge 
# Structural Database, then it will include bibliographic, chemical, 
# crystal, experimental, refinement or atomic coordinate data resulting 
# from the CCDC's data processing and validation procedures.
#
#######################################################################

data_ZIPMOD
_chemical_formula_moiety         '2(C6 H16 N1 1+),C7 H12 B12 F5 N1 O2 2-'
_chemical_name_systematic        
'bis(Triethylammonium) 1-((pentafluorobenzoyl)amino)-2-hydroxy-closo-dodecaborate(10)'
_symmetry_cell_setting           triclinic
_symmetry_space_group_name_H-M   'P -1'
_symmetry_Int_Tables_number      2
_space_group_name_Hall           '-P 1'
loop_
_symmetry_equiv_pos_site_id
_symmetry_equiv_pos_as_xyz
1 x,y,z
2 -x,-y,-z
_cell_length_a                   9.6513(7)
_cell_length_b                   10.0961(8)
_cell_length_c                   20.8113(16)
_cell_angle_alpha                84.073(3)
_cell_angle_beta                 78.398(2)
_cell_angle_gamma                67.407(2)
_cell_volume                     1833.23
_exptl_crystal_colour            colorless
_exptl_crystal_description       chunk
_cell_formula_units_Z            2
_exptl_crystal_recrystallization_method 'acetone/diethyl ether'
loop_
_atom_site_label
_atom_site_type_symbol
_atom_site_fract_x
_atom_site_fract_y
_atom_site_fract_z
C1 C 0.5790(7) 0.5152(7) 0.3592(3)
C2 C 0.5516(7) 0.4052(6) 0.4097(2)
C3 C 0.4078(9) 0.4126(8) 0.4361(3)
C4 C 0.3794(10) 0.3152(11) 0.4822(3)
C5 C 0.4880(12) 0.2100(9) 0.5037(3)
C6 C 0.6366(11) 0.1955(8) 0.4816(4)
C7 C 0.6679(9) 0.2940(9) 0.4335(4)
B1 B 0.5970(6) 0.5826(6) 0.2365(3)
B2 B 0.6635(7) 0.5031(7) 0.1589(3)
H1 H 0.7072 0.3861 0.1536
B3 B 0.4647(6) 0.6055(7) 0.1838(3)
H2 H 0.3798 0.5548 0.1949
B4 B 0.4478(6) 0.7515(6) 0.2282(3)
H3 H 0.3515 0.7963 0.2684
B5 B 0.6352(6) 0.7413(6) 0.2315(3)
B6 B 0.7666(6) 0.5861(7) 0.1882(3)
H4 H 0.8780 0.5222 0.2021
B7 B 0.7441(6) 0.6155(7) 0.1050(3)
H5 H 0.8408 0.5722 0.0648
B8 B 0.5563(6) 0.6250(7) 0.1021(3)
H6 H 0.5317 0.5866 0.0597
B9 B 0.4215(7) 0.7772(7) 0.1454(3)
H7 H 0.3095 0.8377 0.1314
B10 B 0.5273(7) 0.8623(7) 0.1758(3)
H8 H 0.4830 0.9791 0.1817
B11 B 0.7244(6) 0.7639(7) 0.1502(3)
H9 H 0.8075 0.8166 0.1394
B12 B 0.5939(6) 0.7835(6) 0.0977(3)
H10 H 0.5929 0.8494 0.0521
N1 N 0.5907(5) 0.4886(5) 0.2972(2)
H11 H 0.5956 0.4042 0.2903
O1 O 0.6660(4) 0.7980(4) 0.28673(16)
H12 H 0.6472 0.7540 0.3206
O2 O 0.5859(7) 0.6210(6) 0.3793(2)
F1 F 0.2898(5) 0.5187(6) 0.4158(3)
F2 F 0.2322(7) 0.3331(9) 0.5070(3)
F3 F 0.4625(7) 0.1140(5) 0.5505(2)
F4 F 0.7505(7) 0.0886(6) 0.5025(3)
F5 F 0.8102(5) 0.2789(6) 0.4097(3)
C8 C 0.4466(7) 0.2979(9) 0.0902(4)
H13 H 0.4588 0.3895 0.0828
H14 H 0.4350 0.2773 0.1371
C9 C 0.5868(6) 0.1864(7) 0.0579(3)
H15 H 0.5803 0.0938 0.0682
H16 H 0.6731 0.1890 0.0731
H17 H 0.5982 0.2036 0.0112
C10 C 0.1760(10) 0.4445(10) 0.0932(4)
H18 H 0.1737 0.4457 0.1400
H19 H 0.0800 0.4413 0.0876
C11 C 0.1868(7) 0.5837(7) 0.0620(4)
H20 H 0.2652 0.6017 0.0774
H21 H 0.0909 0.6612 0.0739
H22 H 0.2112 0.5761 0.0152
C12 C 0.2672(9) 0.1804(9) 0.0870(4)
H23 H 0.2448 0.1731 0.1345
H24 H 0.3573 0.0974 0.0719
C13 C 0.1317(8) 0.1784(9) 0.0588(4)
H25 H 0.0412 0.2580 0.0751
H26 H 0.1166 0.0903 0.0720
H27 H 0.1532 0.1856 0.0117
N2 N 0.2998(5) 0.3123(5) 0.0673(2)
H28 H 0.3155 0.3203 0.0227
C14 C 0.9010(7) 0.8728(8) 0.3566(3)
H29 H 0.8603 0.8134 0.3881
H30 H 0.8228 0.9684 0.3568
C15 C 1.0367(9) 0.8810(11) 0.3783(4)
H31 H 1.1131 0.7864 0.3802
H32 H 1.0061 0.9218 0.4209
H33 H 1.0776 0.9402 0.3476
C16 C 0.9768(11) 0.9083(14) 0.2354(4)
H34 H 1.0661 0.9230 0.2425
H35 H 1.0038 0.8588 0.1945
C17 C 0.8563(15) 1.0466(14) 0.2294(7)
H36 H 0.7673 1.0331 0.2224
H37 H 0.8893 1.1002 0.1929
H38 H 0.8323 1.0983 0.2689
C18 C 1.0494(8) 0.6618(11) 0.2854(5)
H39 H 1.0605 0.6283 0.2420
H40 H 1.1474 0.6614 0.2904
C19 C 1.0075(11) 0.5602(10) 0.3351(7)
H41 H 1.0142 0.5822 0.3779
H42 H 1.0761 0.4638 0.3250
H43 H 0.9051 0.5691 0.3345
N3 N 0.9340(5) 0.8141(6) 0.2907(2)
H44 H 0.8453 0.8101 0.2842
loop_
_geom_bond_atom_site_label_1
_geom_bond_atom_site_label_2
_geom_bond_site_symmetry_1
_geom_bond_site_symmetry_2
C1 C2 1_555 1_555
C2 C3 1_555 1_555
C3 C4 1_555 1_555
C4 C5 1_555 1_555
C5 C6 1_555 1_555
C6 C7 1_555 1_555
C7 C2 1_555 1_555
B1 B2 1_555 1_555
B2 H1 1_555 1_555
B3 B1 1_555 1_555
H2 B3 1_555 1_555
B4 B1 1_555 1_555
H3 B4 1_555 1_555
B5 B1 1_555 1_555
B6 B1 1_555 1_555
H4 B6 1_555 1_555
B7 B2 1_555 1_555
H5 B7 1_555 1_555
B8 B2 1_555 1_555
H6 B8 1_555 1_555
B9 B3 1_555 1_555
H7 B9 1_555 1_555
B10 B4 1_555 1_555
H8 B10 1_555 1_555
B11 B5 1_555 1_555
H9 B11 1_555 1_555
B12 B7 1_555 1_555
H10 B12 1_555 1_555
N1 C1 1_555 1_555
H11 N1 1_555 1_555
O1 B5 1_555 1_555
H12 O1 1_555 1_555
O2 C1 1_555 1_555
F1 C3 1_555 1_555
F2 C4 1_555 1_555
F3 C5 1_555 1_555
F4 C6 1_555 1_555
F5 C7 1_555 1_555
C8 H13 1_555 1_555
H14 C8 1_555 1_555
C9 C8 1_555 1_555
H15 C9 1_555 1_555
H16 C9 1_555 1_555
H17 C9 1_555 1_555
C10 H18 1_555 1_555
H19 C10 1_555 1_555
C11 C10 1_555 1_555
H20 C11 1_555 1_555
H21 C11 1_555 1_555
H22 C11 1_555 1_555
C12 H23 1_555 1_555
H24 C12 1_555 1_555
C13 C12 1_555 1_555
H25 C13 1_555 1_555
H26 C13 1_555 1_555
H27 C13 1_555 1_555
N2 C8 1_555 1_555
H28 N2 1_555 1_555
C14 H29 1_555 1_555
H30 C14 1_555 1_555
C15 C14 1_555 1_555
H31 C15 1_555 1_555
H32 C15 1_555 1_555
H33 C15 1_555 1_555
C16 H34 1_555 1_555
H35 C16 1_555 1_555
C17 C16 1_555 1_555
H36 C17 1_555 1_555
H37 C17 1_555 1_555
H38 C17 1_555 1_555
C18 H39 1_555 1_555
H40 C18 1_555 1_555
C19 C18 1_555 1_555
H41 C19 1_555 1_555
H42 C19 1_555 1_555
H43 C19 1_555 1_555
N3 C14 1_555 1_555
H44 N3 1_555 1_555
B1 N1 1_555 1_555
B2 B3 1_555 1_555
B2 B6 1_555 1_555
B3 B4 1_555 1_555
B3 B8 1_555 1_555
B4 B5 1_555 1_555
B4 B9 1_555 1_555
B5 B6 1_555 1_555
B5 B10 1_555 1_555
B6 B7 1_555 1_555
B6 B11 1_555 1_555
B7 B8 1_555 1_555
B7 B11 1_555 1_555
B8 B9 1_555 1_555
B8 B12 1_555 1_555
B9 B10 1_555 1_555
B9 B12 1_555 1_555
B10 B11 1_555 1_555
B10 B12 1_555 1_555
B11 B12 1_555 1_555
C10 N2 1_555 1_555
C12 N2 1_555 1_555
C16 N3 1_555 1_555
C18 N3 1_555 1_555

#END
