
#######################################################################
#
#                 Cambridge Crystallographic Data Centre
#                                CCDC 
#
#######################################################################
#
# If this CIF has been generated from an entry in the Cambridge 
# Structural Database, then it will include bibliographic, chemical, 
# crystal, experimental, refinement or atomic coordinate data resulting 
# from the CCDC's data processing and validation procedures.
#
#######################################################################

data_ZIPMET
_chemical_formula_moiety         'C6 H16 N1 1+,C5 H14 B12 N1 O1 S1 1-,C3 H6 O1'
_chemical_name_systematic        
'Triethylammonium 1,2-((thien-2-yl)(iminio)methanolato)-closo-dodecaborate(10) acetone solvate'
_chemical_properties_biological  'antimicrobial activity'
_symmetry_cell_setting           monoclinic
_symmetry_space_group_name_H-M   'P 21/c'
_symmetry_Int_Tables_number      14
_space_group_name_Hall           '-P 2ybc'
loop_
_symmetry_equiv_pos_site_id
_symmetry_equiv_pos_as_xyz
1 x,y,z
2 -x,1/2+y,1/2-z
3 -x,-y,-z
4 x,1/2-y,1/2+z
_cell_length_a                   12.3707(7)
_cell_length_b                   11.3178(7)
_cell_length_c                   19.1738(11)
_cell_angle_alpha                90
_cell_angle_beta                 107.245(6)
_cell_angle_gamma                90
_cell_volume                     2563.83
_exptl_crystal_colour            colorless
_exptl_crystal_description       block
_cell_formula_units_Z            4
_exptl_crystal_recrystallization_method acetone/hexanes
loop_
_atom_site_label
_atom_site_type_symbol
_atom_site_fract_x
_atom_site_fract_y
_atom_site_fract_z
S1 S 0.08353(6) 0.39853(8) 0.31128(4)
O1 O 0.17506(13) 0.33911(16) 0.19286(8)
N1 N 0.05456(16) 0.43975(19) 0.10108(10)
H1 H -0.0026 0.4847 0.0818
C1 C 0.08661(19) 0.4085(2) 0.16962(13)
C2 C 0.0320(2) 0.4464(2) 0.22295(13)
C3 C -0.0599(2) 0.5249(2) 0.21362(14)
H2 H -0.0990 0.5611 0.1699
C4 C -0.0834(2) 0.5402(3) 0.28083(16)
H3 H -0.1411 0.5885 0.2864
C5 C -0.0141(3) 0.4781(3) 0.33591(16)
H4 H -0.0196 0.4790 0.3832
B1 B 0.2210(2) 0.3111(3) 0.13052(14)
B2 B 0.1303(2) 0.3872(3) 0.05896(14)
B3 B 0.1262(2) 0.2297(3) 0.05872(15)
H5 H 0.0540 0.1787 0.0650
B4 B 0.2683(2) 0.1810(3) 0.09920(15)
H6 H 0.2879 0.0996 0.1318
B5 B 0.3585(2) 0.3090(3) 0.12183(16)
H7 H 0.4356 0.3090 0.1687
B6 B 0.2726(2) 0.4371(3) 0.09591(15)
H8 H 0.2952 0.5203 0.1265
B7 B 0.2061(2) 0.4380(3) -0.00025(15)
H9 H 0.1856 0.5207 -0.0316
B8 B 0.1157(2) 0.3092(3) -0.02310(15)
H10 H 0.0374 0.3097 -0.0692
B9 B 0.2051(2) 0.1806(3) 0.00208(15)
H11 H 0.1852 0.0973 -0.0286
B10 B 0.3468(2) 0.2290(3) 0.03985(16)
H12 H 0.4182 0.1768 0.0334
B11 B 0.3490(2) 0.3861(3) 0.03806(16)
H13 H 0.4214 0.4351 0.0304
B12 B 0.2529(2) 0.3083(3) -0.03487(15)
H14 H 0.2631 0.3077 -0.0899
N2 N 0.5609(2) 0.3191(3) 0.37879(15)
H15 H 0.6061 0.3063 0.3498
C6 C 0.5220(3) 0.1988(3) 0.3889(2)
H16 H 0.4732 0.2027 0.4203
H17 H 0.5870 0.1506 0.4133
C7 C 0.4585(4) 0.1410(5) 0.3179(3)
H18 H 0.5025 0.1463 0.2843
H19 H 0.3874 0.1804 0.2977
H20 H 0.4453 0.0594 0.3264
C8 C 0.6442(4) 0.3681(4) 0.4490(2)
H21 H 0.6495 0.4532 0.4448
H22 H 0.6157 0.3516 0.4900
C9 C 0.7579(4) 0.3156(5) 0.4631(3)
H23 H 0.7879 0.3351 0.4237
H24 H 0.7528 0.2313 0.4667
H25 H 0.8071 0.3464 0.5080
C10 C 0.4892(8) 0.4200(8) 0.3419(4)
H26 H 0.5368 0.4876 0.3405
H27 H 0.4486 0.3985 0.2921
C11 C 0.4082(7) 0.4513(9) 0.3817(5)
H28 H 0.3638 0.5179 0.3586
H29 H 0.4487 0.4712 0.4313
H30 H 0.3592 0.3854 0.3813
O2 O 0.3367(2) 0.8358(3) 0.23641(14)
C14 C 0.1912(4) 0.7090(5) 0.2468(3)
H36 H 0.2078 0.6371 0.2745
H37 H 0.1827 0.6924 0.1964
H38 H 0.1222 0.7423 0.2513
C15 C 0.2845(3) 0.7938(3) 0.2748(2)
C16 C 0.3134(3) 0.8310(5) 0.3518(2)
H39 H 0.2630 0.8929 0.3566
H40 H 0.3899 0.8594 0.3675
H41 H 0.3060 0.7649 0.3815
C12? C 0.4377(10) 0.3829(13) 0.3574(7)
H31? H 0.3824 0.3335 0.3234
H32? H 0.4140 0.3928 0.4009
C13? C 0.4427(9) 0.4975(9) 0.3245(6)
H33? H 0.5009 0.4968 0.3007
H34? H 0.4593 0.5573 0.3617
H35? H 0.3711 0.5143 0.2893
loop_
_geom_bond_atom_site_label_1
_geom_bond_atom_site_label_2
_geom_bond_site_symmetry_1
_geom_bond_site_symmetry_2
S1 C2 1_555 1_555
O1 C1 1_555 1_555
N1 H1 1_555 1_555
C1 N1 1_555 1_555
C2 C1 1_555 1_555
C3 C2 1_555 1_555
H2 C3 1_555 1_555
C4 C3 1_555 1_555
H3 C4 1_555 1_555
C5 S1 1_555 1_555
H4 C5 1_555 1_555
B1 O1 1_555 1_555
B2 N1 1_555 1_555
B3 B1 1_555 1_555
H5 B3 1_555 1_555
B4 B1 1_555 1_555
H6 B4 1_555 1_555
B5 B1 1_555 1_555
H7 B5 1_555 1_555
B6 B1 1_555 1_555
H8 B6 1_555 1_555
B7 B2 1_555 1_555
H9 B7 1_555 1_555
B8 B2 1_555 1_555
H10 B8 1_555 1_555
B9 B3 1_555 1_555
H11 B9 1_555 1_555
B10 B4 1_555 1_555
H12 B10 1_555 1_555
B11 B5 1_555 1_555
H13 B11 1_555 1_555
B12 B7 1_555 1_555
H14 B12 1_555 1_555
N2 H15 1_555 1_555
C6 N2 1_555 1_555
H16 C6 1_555 1_555
H17 C6 1_555 1_555
C7 C6 1_555 1_555
H18 C7 1_555 1_555
H19 C7 1_555 1_555
H20 C7 1_555 1_555
C8 N2 1_555 1_555
H21 C8 1_555 1_555
H22 C8 1_555 1_555
C9 C8 1_555 1_555
H23 C9 1_555 1_555
H24 C9 1_555 1_555
H25 C9 1_555 1_555
C10 N2 1_555 1_555
H26 C10 1_555 1_555
H27 C10 1_555 1_555
C11 C10 1_555 1_555
H28 C11 1_555 1_555
H29 C11 1_555 1_555
H30 C11 1_555 1_555
O2 C15 1_555 1_555
C14 H36 1_555 1_555
H37 C14 1_555 1_555
H38 C14 1_555 1_555
C15 C14 1_555 1_555
C16 C15 1_555 1_555
H39 C16 1_555 1_555
H40 C16 1_555 1_555
H41 C16 1_555 1_555
C4 C5 1_555 1_555
B1 B2 1_555 1_555
B2 B3 1_555 1_555
B2 B6 1_555 1_555
B3 B4 1_555 1_555
B3 B8 1_555 1_555
B4 B5 1_555 1_555
B4 B9 1_555 1_555
B5 B6 1_555 1_555
B5 B10 1_555 1_555
B6 B7 1_555 1_555
B6 B11 1_555 1_555
B7 B8 1_555 1_555
B7 B11 1_555 1_555
B8 B9 1_555 1_555
B8 B12 1_555 1_555
B9 B10 1_555 1_555
B9 B12 1_555 1_555
B10 B11 1_555 1_555
B10 B12 1_555 1_555
B11 B12 1_555 1_555

#END
