
#######################################################################
#
#                 Cambridge Crystallographic Data Centre
#                                CCDC 
#
#######################################################################
#
# If this CIF has been generated from an entry in the Cambridge 
# Structural Database, then it will include bibliographic, chemical, 
# crystal, experimental, refinement or atomic coordinate data resulting 
# from the CCDC's data processing and validation procedures.
#
#######################################################################

data_ZIPTOJ
_chemical_formula_moiety         'C32 H44 S4 Si4'
_chemical_name_systematic        
tristhieno[2',3':7,8;3'',2'':3,4;3''',2''':9,10]cyclododeca[1,2-b]thiene-2,5,10,13-tetrayltetrakis(trimethylsilane)
_symmetry_cell_setting           triclinic
_symmetry_space_group_name_H-M   'P -1'
_symmetry_Int_Tables_number      2
_space_group_name_Hall           '-P 1'
loop_
_symmetry_equiv_pos_site_id
_symmetry_equiv_pos_as_xyz
1 x,y,z
2 -x,-y,-z
_cell_length_a                   9.9524(10)
_cell_length_b                   10.1337(10)
_cell_length_c                   10.9493(11)
_cell_angle_alpha                81.2580(10)
_cell_angle_beta                 66.0730(10)
_cell_angle_gamma                74.4380(10)
_cell_volume                     971.215
_exptl_crystal_colour            yellow
_exptl_crystal_description       block
_cell_formula_units_Z            1
loop_
_atom_site_label
_atom_site_type_symbol
_atom_site_fract_x
_atom_site_fract_y
_atom_site_fract_z
C1 C 0.2788(2) 0.39507(19) 0.57310(18)
C2 C 0.1583(2) 0.50602(19) 0.60529(18)
H1 H 0.1077 0.5440 0.5485
C3 C 0.1167(2) 0.55854(18) 0.73207(17)
C4 C 0.2063(2) 0.48476(18) 0.79816(17)
C5 C -0.0066(2) 0.67828(18) 0.79348(17)
C6 C 0.2053(2) 0.52875(19) 0.92096(18)
H2 H 0.2307 0.6126 0.9116
C7 C 0.1743(2) 0.46872(19) 1.04251(18)
H3 H 0.1794 0.5186 1.1045
C8 C 0.1333(2) 0.33738(18) 1.09581(17)
C9 C 0.0026(2) 0.18215(19) 1.24204(19)
H4 H -0.0760 0.1547 1.3146
C10 C 0.1236(2) 0.09037(19) 1.16112(19)
C11 C 0.3666(3) 0.4250(3) 0.2761(2)
H5 H 0.2631 0.4700 0.2932
H6 H 0.4092 0.3781 0.1942
H7 H 0.4223 0.4919 0.2684
C12 C 0.2810(4) 0.1637(3) 0.4210(3)
H8 H 0.2842 0.0991 0.4942
H9 H 0.3317 0.1173 0.3386
H10 H 0.1778 0.2042 0.4331
C13 C 0.5760(3) 0.2272(3) 0.3954(3)
H11 H 0.6214 0.2997 0.3952
H12 H 0.6302 0.1822 0.3123
H13 H 0.5798 0.1621 0.4681
C14 C -0.0080(3) -0.1505(3) 1.1750(3)
H14 H -0.0984 -0.0970 1.2371
H15 H -0.0019 -0.2461 1.2010
H16 H -0.0098 -0.1340 1.0869
C15 C 0.3287(3) -0.1728(3) 1.0301(4)
H17 H 0.3142 -0.1376 0.9487
H18 H 0.3457 -0.2710 1.0358
H19 H 0.4145 -0.1471 1.0306
C16 C 0.1832(5) -0.1611(3) 1.3346(4)
H20 H 0.2786 -0.1495 1.3281
H21 H 0.1806 -0.2563 1.3527
H22 H 0.1032 -0.1085 1.4059
S1 S 0.34035(5) 0.35419(5) 0.70372(5)
S2 S 0.24440(5) 0.17947(5) 1.03882(5)
Si1 Si 0.37636(6) 0.29959(6) 0.41565(5)
Si2 Si 0.15864(7) -0.10127(6) 1.17469(6)
C1A C -0.2788(2) 0.60493(19) 1.42690(18)
C2A C -0.1583(2) 0.49398(19) 1.39471(18)
H1A H -0.1077 0.4560 1.4515
C3A C -0.1167(2) 0.44146(18) 1.26793(17)
C4A C -0.2063(2) 0.51524(18) 1.20184(17)
C5A C 0.0066(2) 0.32172(18) 1.20652(17)
C6A C -0.2053(2) 0.47125(19) 1.07904(18)
H2A H -0.2307 0.3874 1.0884
C7A C -0.1743(2) 0.53128(19) 0.95749(18)
H3A H -0.1794 0.4814 0.8955
C8A C -0.1333(2) 0.66262(18) 0.90419(17)
C9A C -0.0026(2) 0.81785(19) 0.75796(19)
H4A H 0.0760 0.8453 0.6854
C10A C -0.1236(2) 0.90963(19) 0.83888(19)
C11A C -0.3666(3) 0.5750(3) 1.7239(2)
H5A H -0.2631 0.5300 1.7068
H6A H -0.4092 0.6219 1.8058
H7A H -0.4223 0.5081 1.7316
C12A C -0.2810(4) 0.8363(3) 1.5790(3)
H8A H -0.2842 0.9009 1.5058
H9A H -0.3317 0.8827 1.6614
H10A H -0.1778 0.7958 1.5669
C13A C -0.5760(3) 0.7728(3) 1.6046(3)
H11A H -0.6214 0.7003 1.6048
H12A H -0.6302 0.8178 1.6877
H13A H -0.5798 0.8379 1.5319
C14A C 0.0080(3) 1.1505(3) 0.8250(3)
H14A H 0.0984 1.0970 0.7629
H15A H 0.0019 1.2461 0.7990
H16A H 0.0098 1.1340 0.9131
C15A C -0.3287(3) 1.1728(3) 0.9699(4)
H17A H -0.3142 1.1376 1.0513
H18A H -0.3457 1.2710 0.9642
H19A H -0.4145 1.1471 0.9694
C16A C -0.1832(5) 1.1611(3) 0.6654(4)
H20A H -0.2786 1.1495 0.6719
H21A H -0.1806 1.2563 0.6473
H22A H -0.1032 1.1085 0.5941
S1A S -0.34035(5) 0.64581(5) 1.29628(5)
S2A S -0.24440(5) 0.82053(5) 0.96118(5)
Si1A Si -0.37636(6) 0.70041(6) 1.58435(5)
Si2A Si -0.15864(7) 1.10127(6) 0.82531(6)
loop_
_geom_bond_atom_site_label_1
_geom_bond_atom_site_label_2
_geom_bond_site_symmetry_1
_geom_bond_site_symmetry_2
C1 C2 1_555 1_555
C2 H1 1_555 1_555
C3 C2 1_555 1_555
C4 C3 1_555 1_555
C5 C3 1_555 1_555
C6 C4 1_555 1_555
H2 C6 1_555 1_555
C7 C6 1_555 1_555
H3 C7 1_555 1_555
C8 C7 1_555 1_555
C9 H4 1_555 1_555
C10 C9 1_555 1_555
C11 H5 1_555 1_555
H6 C11 1_555 1_555
H7 C11 1_555 1_555
C12 H8 1_555 1_555
H9 C12 1_555 1_555
H10 C12 1_555 1_555
C13 H11 1_555 1_555
H12 C13 1_555 1_555
H13 C13 1_555 1_555
C14 H14 1_555 1_555
H15 C14 1_555 1_555
H16 C14 1_555 1_555
C15 H17 1_555 1_555
H18 C15 1_555 1_555
H19 C15 1_555 1_555
C16 H20 1_555 1_555
H21 C16 1_555 1_555
H22 C16 1_555 1_555
S1 C1 1_555 1_555
S2 C8 1_555 1_555
Si1 C1 1_555 1_555
Si2 C10 1_555 1_555
C1A C2A 1_555 1_555
C2A H1A 1_555 1_555
C3A C2A 1_555 1_555
C4A C3A 1_555 1_555
C5A C8 1_555 1_555
C6A C4A 1_555 1_555
H2A C6A 1_555 1_555
C7A C6A 1_555 1_555
H3A C7A 1_555 1_555
C8A C5 1_555 1_555
C9A C5 1_555 1_555
H4A C9A 1_555 1_555
C10A C9A 1_555 1_555
C11A H5A 1_555 1_555
H6A C11A 1_555 1_555
H7A C11A 1_555 1_555
C12A H8A 1_555 1_555
H9A C12A 1_555 1_555
H10A C12A 1_555 1_555
C13A H11A 1_555 1_555
H12A C13A 1_555 1_555
H13A C13A 1_555 1_555
C14A H14A 1_555 1_555
H15A C14A 1_555 1_555
H16A C14A 1_555 1_555
C15A H17A 1_555 1_555
H18A C15A 1_555 1_555
H19A C15A 1_555 1_555
C16A H20A 1_555 1_555
H21A C16A 1_555 1_555
H22A C16A 1_555 1_555
S1A C1A 1_555 1_555
S2A C8A 1_555 1_555
Si1A C1A 1_555 1_555
Si2A C10A 1_555 1_555
C4 S1 1_555 1_555
C9 C5A 1_555 1_555
C10 S2 1_555 1_555
C11 Si1 1_555 1_555
C12 Si1 1_555 1_555
C13 Si1 1_555 1_555
C14 Si2 1_555 1_555
C15 Si2 1_555 1_555
C16 Si2 1_555 1_555
C3A C5A 1_555 1_555
C4A S1A 1_555 1_555
C7A C8A 1_555 1_555
C10A S2A 1_555 1_555
C11A Si1A 1_555 1_555
C12A Si1A 1_555 1_555
C13A Si1A 1_555 1_555
C14A Si2A 1_555 1_555
C15A Si2A 1_555 1_555
C16A Si2A 1_555 1_555

#END
