
#######################################################################
#
#                 Cambridge Crystallographic Data Centre
#                                CCDC 
#
#######################################################################
#
# If this CIF has been generated from an entry in the Cambridge 
# Structural Database, then it will include bibliographic, chemical, 
# crystal, experimental, refinement or atomic coordinate data resulting 
# from the CCDC's data processing and validation procedures.
#
#######################################################################

data_ZIPTID
_chemical_formula_moiety         'C16 H22 O1 S2 Si2'
_chemical_name_systematic        
2,7-bis(trimethylsilyl)thieno[3,2-e][1]benzothiophene-4-ol
_symmetry_cell_setting           monoclinic
_symmetry_space_group_name_H-M   'C 2/c'
_symmetry_Int_Tables_number      15
_space_group_name_Hall           '-C 2yn'
loop_
_symmetry_equiv_pos_site_id
_symmetry_equiv_pos_as_xyz
1 x,y,z
2 -x,y,1/2-z
3 1/2+x,1/2+y,z
4 1/2-x,1/2+y,1/2-z
5 -x,-y,-z
6 x,-y,1/2+z
7 1/2-x,1/2-y,-z
8 1/2+x,1/2-y,1/2+z
_cell_length_a                   32.467(5)
_cell_length_b                   6.4487(9)
_cell_length_c                   22.194(3)
_cell_angle_alpha                90
_cell_angle_beta                 122.976(2)
_cell_angle_gamma                90
_cell_volume                     3898.16
_exptl_crystal_colour            colorless
_exptl_crystal_description       block
_cell_formula_units_Z            8
loop_
_atom_site_label
_atom_site_type_symbol
_atom_site_fract_x
_atom_site_fract_y
_atom_site_fract_z
C1 C 0.20465(8) 0.7031(4) 0.05196(12)
C2 C 0.24653(7) 0.6041(4) 0.10183(11)
H1 H 0.2556 0.4766 0.0930
C3 C 0.27557(7) 0.7093(3) 0.16877(11)
C4 C 0.25430(7) 0.8967(3) 0.16960(11)
C5 C 0.27564(8) 1.0303(4) 0.22947(12)
H2 H 0.2605 1.1545 0.2279
C6 C 0.31913(8) 0.9728(4) 0.29003(12)
C7 C 0.34177(7) 0.7865(4) 0.29073(11)
C8 C 0.32157(7) 0.6540(3) 0.23159(11)
C9 C 0.35373(8) 0.4844(3) 0.24480(11)
H3 H 0.3460 0.3804 0.2112
C10 C 0.39654(8) 0.4867(4) 0.31020(12)
C11 C 0.10569(9) 0.4844(5) -0.03651(16)
H4 H 0.0914 0.5834 -0.0208
H5 H 0.1187 0.3699 -0.0036
H6 H 0.0810 0.4349 -0.0835
C12 C 0.13174(10) 0.8359(4) -0.10129(14)
H7 H 0.1066 0.7905 -0.1486
H8 H 0.1579 0.8995 -0.1029
H9 H 0.1182 0.9348 -0.0843
C13 C 0.18559(10) 0.4212(4) -0.06781(14)
H10 H 0.1952 0.3003 -0.0379
H11 H 0.2140 0.4835 -0.0632
H12 H 0.1628 0.3823 -0.1170
C14 C 0.43842(11) 0.1175(5) 0.27715(16)
H13 H 0.4666 0.0299 0.2943
H14 H 0.4299 0.1799 0.2325
H15 H 0.4113 0.0360 0.2699
C15 C 0.47282(11) 0.2183(5) 0.43374(15)
H16 H 0.5019 0.1364 0.4514
H17 H 0.4472 0.1333 0.4299
H18 H 0.4797 0.3307 0.4663
C16 C 0.50107(11) 0.4984(6) 0.3525(2)
H19 H 0.5075 0.6070 0.3861
H20 H 0.4901 0.5579 0.3064
H21 H 0.5306 0.4207 0.3691
O1 O 0.34457(7) 1.0865(3) 0.35207(9)
H22 H 0.3290 1.1914 0.3480
S1 S 0.19958(2) 0.93712(9) 0.08746(3)
S2 S 0.39813(2) 0.69735(11) 0.36027(3)
Si1 Si 0.15604(2) 0.60993(11) -0.03968(3)
Si2 Si 0.45278(2) 0.32346(12) 0.34424(4)
loop_
_geom_bond_atom_site_label_1
_geom_bond_atom_site_label_2
_geom_bond_site_symmetry_1
_geom_bond_site_symmetry_2
C1 C2 1_555 1_555
C2 H1 1_555 1_555
C3 C2 1_555 1_555
C4 C3 1_555 1_555
C5 C4 1_555 1_555
H2 C5 1_555 1_555
C6 C5 1_555 1_555
C7 C6 1_555 1_555
C8 C3 1_555 1_555
C9 C8 1_555 1_555
H3 C9 1_555 1_555
C10 C9 1_555 1_555
C11 H4 1_555 1_555
H5 C11 1_555 1_555
H6 C11 1_555 1_555
C12 H7 1_555 1_555
H8 C12 1_555 1_555
H9 C12 1_555 1_555
C13 H10 1_555 1_555
H11 C13 1_555 1_555
H12 C13 1_555 1_555
C14 H13 1_555 1_555
H14 C14 1_555 1_555
H15 C14 1_555 1_555
C15 H16 1_555 1_555
H17 C15 1_555 1_555
H18 C15 1_555 1_555
C16 H19 1_555 1_555
H20 C16 1_555 1_555
H21 C16 1_555 1_555
O1 C6 1_555 1_555
H22 O1 1_555 1_555
S1 C1 1_555 1_555
S2 C7 1_555 1_555
Si1 C1 1_555 1_555
Si2 C10 1_555 1_555
C4 S1 1_555 1_555
C7 C8 1_555 1_555
C10 S2 1_555 1_555
C11 Si1 1_555 1_555
C12 Si1 1_555 1_555
C13 Si1 1_555 1_555
C14 Si2 1_555 1_555
C15 Si2 1_555 1_555
C16 Si2 1_555 1_555

#END
