
#######################################################################
#
#                 Cambridge Crystallographic Data Centre
#                                CCDC 
#
#######################################################################
#
# If this CIF has been generated from an entry in the Cambridge 
# Structural Database, then it will include bibliographic, chemical, 
# crystal, experimental, refinement or atomic coordinate data resulting 
# from the CCDC's data processing and validation procedures.
#
#######################################################################

data_ZIPYIJ
_chemical_formula_moiety         'C44 H48 N24 O12,C6 H7 N1,11(H2 O1)'
_chemical_name_systematic        
'dicyclohexancucurbit[6]uril aniline clathrate undecahydrate'
_symmetry_cell_setting           monoclinic
_symmetry_space_group_name_H-M   'P 21/n'
_symmetry_Int_Tables_number      14
_space_group_name_Hall           '-P 2yn'
loop_
_symmetry_equiv_pos_site_id
_symmetry_equiv_pos_as_xyz
1 x,y,z
2 1/2-x,1/2+y,1/2-z
3 -x,-y,-z
4 1/2+x,1/2-y,1/2+z
_cell_length_a                   12.598(3)
_cell_length_b                   15.562(3)
_cell_length_c                   31.223(7)
_cell_angle_alpha                90
_cell_angle_beta                 99.517(4)
_cell_angle_gamma                90
_cell_volume                     6037.02
_exptl_crystal_colour            colorless
_exptl_crystal_description       block
_cell_formula_units_Z            4
loop_
_atom_site_label
_atom_site_type_symbol
_atom_site_fract_x
_atom_site_fract_y
_atom_site_fract_z
O1 O 0.6641(2) 0.44283(17) 0.24754(9)
O2 O 0.5598(3) 0.87454(18) 0.24992(10)
O3 O 0.4299(2) 0.37716(18) 0.28310(10)
O4 O 0.1839(3) 0.68468(18) 0.20198(11)
O5 O 0.2295(3) 0.83010(19) 0.38704(11)
O6 O 0.4674(3) 0.91497(19) 0.35715(10)
O7 O 0.3224(3) 0.3962(2) 0.38351(10)
O8 O 0.4199(3) 0.75893(19) 0.16869(11)
O9 O 0.4584(3) 0.5062(2) 0.45213(10)
O10 O 0.0718(3) 0.71961(19) 0.30946(10)
O11 O 0.8204(3) 0.55135(19) 0.32044(11)
N1 N 0.2553(3) 0.4243(2) 0.26250(11)
O12 O 0.6933(3) 0.5795(2) 0.42019(12)
N2 N 0.7880(3) 0.6472(2) 0.26351(11)
N3 N 0.3700(3) 0.4403(2) 0.21641(11)
N4 N 0.1609(3) 0.5521(2) 0.23246(11)
N5 N 0.6945(3) 0.8241(2) 0.30290(11)
N6 N 0.4343(3) 0.6128(2) 0.16075(11)
N7 N 0.5334(3) 0.4857(2) 0.19102(11)
N8 N 0.2687(3) 0.5625(2) 0.18307(11)
N9 N 0.1880(3) 0.4440(2) 0.33009(11)
N10 N 0.6834(3) 0.5625(2) 0.20619(11)
N11 N 0.0943(3) 0.5741(2) 0.30033(11)
N12 N 0.5219(3) 0.8328(2) 0.41844(11)
N13 N 0.6847(3) 0.7744(2) 0.23566(11)
N14 N 0.7261(3) 0.7162(2) 0.39724(11)
N15 N 0.5836(3) 0.6905(2) 0.17771(11)
N16 N 0.7982(3) 0.6967(2) 0.33060(11)
N17 N 0.6330(3) 0.8483(2) 0.37116(11)
N18 N 0.0982(3) 0.6252(2) 0.36680(11)
N19 N 0.2991(3) 0.5755(2) 0.45715(11)
N20 N 0.2111(3) 0.7042(2) 0.42437(11)
N21 N 0.3595(3) 0.7812(2) 0.44229(11)
N22 N 0.6121(3) 0.6997(2) 0.44356(12)
N23 N 0.1981(3) 0.4983(2) 0.39625(11)
N24 N 0.4524(3) 0.6492(2) 0.46924(11)
C1 C 0.1912(3) 0.4638(2) 0.22552(12)
H1 H 0.1283 0.4286 0.2142
C2 C 0.3599(3) 0.4107(2) 0.25665(13)
C3 C 0.4589(3) 0.4158(2) 0.19535(15)
H2 H 0.4307 0.3937 0.1667
H3 H 0.4982 0.3697 0.2118
C4 C 0.6294(3) 0.4928(2) 0.21825(12)
C5 C 0.6377(3) 0.8292(2) 0.26148(13)
C6 C 0.2077(3) 0.3846(2) 0.29642(13)
H4 H 0.2550 0.3393 0.3096
H5 H 0.1400 0.3583 0.2836
C7 C 0.5189(3) 0.5508(2) 0.15697(12)
C8 C 0.6251(3) 0.6065(2) 0.16829(12)
C9 C 0.5331(3) 0.8696(2) 0.37986(13)
C10 C 0.2689(3) 0.4714(2) 0.19248(13)
H6 H 0.2448 0.4372 0.1663
C11 C 0.7924(3) 0.7742(2) 0.30469(13)
H7 H 0.8565 0.8100 0.3129
C12 C 0.7847(3) 0.7398(2) 0.25763(13)
H8 H 0.8453 0.7598 0.2443
C13 C 0.4087(3) 0.5709(3) 0.45887(12)
C14 C 0.6979(3) 0.8034(3) 0.40689(13)
H9 H 0.7614 0.8370 0.4194
C15 C 0.2029(3) 0.6079(2) 0.20548(13)
C16 C 0.0990(3) 0.5336(2) 0.37342(13)
H10 H 0.0373 0.5152 0.3866
C17 C 0.0925(3) 0.4970(2) 0.32682(13)
H11 H 0.0268 0.4634 0.3180
C18 C 0.7890(3) 0.5857(2) 0.22901(13)
H12 H 0.8252 0.5340 0.2411
H13 H 0.8307 0.6092 0.2083
C19 C 0.4735(3) 0.6937(3) 0.16948(13)
C20 C 0.0878(3) 0.6474(2) 0.32405(13)
C21 C 0.6472(3) 0.7661(2) 0.18953(13)
H14 H 0.6047 0.8163 0.1795
H15 H 0.7091 0.7651 0.1747
C22 C 0.6775(4) 0.8850(2) 0.33593(13)
H16 H 0.7458 0.9117 0.3475
H17 H 0.6295 0.9298 0.3226
C23 C 0.2439(3) 0.4418(3) 0.37118(13)
C24 C 0.0714(3) 0.5735(3) 0.25340(12)
H18 H 0.0140 0.5325 0.2442
H19 H 0.0451 0.6298 0.2435
C25 C 0.2627(3) 0.7767(3) 0.41487(13)
C26 C 0.8024(3) 0.6243(3) 0.30619(14)
C27 C 0.8196(3) 0.6972(3) 0.37738(13)
H20 H 0.8748 0.7397 0.3870
H21 H 0.8477 0.6415 0.3875
C28 C 0.2631(3) 0.6626(3) 0.46389(13)
C29 C 0.3190(3) 0.5985(3) 0.14916(13)
H22 H 0.2846 0.6529 0.1404
H23 H 0.3063 0.5604 0.1243
C30 C 0.1027(3) 0.6863(3) 0.40174(14)
H24 H 0.0601 0.6646 0.4226
H25 H 0.0703 0.7397 0.3901
C31 C 0.6193(3) 0.7920(3) 0.43942(13)
H26 H 0.6469 0.8191 0.4674
C32 C 0.3723(3) 0.7142(3) 0.47544(13)
C33 C 0.4326(4) 0.8527(3) 0.44061(15)
H27 H 0.3926 0.9006 0.4260
H28 H 0.4608 0.8707 0.4700
C34 C 0.2310(4) 0.5034(3) 0.44289(13)
H29 H 0.1671 0.5066 0.4564
H30 H 0.2688 0.4509 0.4529
C35 C 0.6781(3) 0.6572(3) 0.42027(14)
C36 C 0.6877(4) 0.6111(3) 0.13047(15)
H31 H 0.7462 0.6520 0.1373
H32 H 0.7187 0.5553 0.1264
C37 C 0.5676(4) 0.6596(3) 0.47816(15)
H33 H 0.5863 0.6939 0.5043
H34 H 0.6006 0.6035 0.4839
C38 C 0.1970(4) 0.6666(3) 0.50086(15)
H35 H 0.1698 0.7245 0.5029
H36 H 0.1357 0.6283 0.4943
C39 C 0.3891(5) 0.7513(3) 0.52143(15)
H37 H 0.4613 0.7744 0.5286
H38 H 0.3386 0.7978 0.5228
C40 C 0.5085(4) 0.5119(3) 0.11182(15)
H39 H 0.4396 0.4830 0.1048
H40 H 0.5647 0.4695 0.1114
C41 C 0.6156(5) 0.6383(3) 0.08858(16)
H41 H 0.5925 0.6972 0.0915
H42 H 0.6568 0.6365 0.0649
C42 C 0.5172(5) 0.5813(4) 0.07741(17)
H43 H 0.5193 0.5535 0.0498
H44 H 0.4532 0.6170 0.0740
C43 C 0.3729(5) 0.6829(4) 0.55391(17)
H45 H 0.3822 0.7083 0.5827
H46 H 0.4274 0.6389 0.5540
C44 C 0.2624(5) 0.6416(4) 0.54409(17)
H47 H 0.2712 0.5797 0.5448
H48 H 0.2222 0.6571 0.5669
N25 N 0.5110(3) 0.4875(2) 0.36789(13)
H49 H 0.5618 0.4552 0.3617
H50 H 0.4804 0.4754 0.3898
C45 C 0.4764(3) 0.5632(3) 0.34102(13)
C46 C 0.5270(4) 0.5799(3) 0.30654(16)
H51 H 0.5823 0.5447 0.3004
C47 C 0.3943(4) 0.6140(3) 0.35034(16)
H52 H 0.3608 0.6015 0.3740
C48 C 0.4112(4) 0.7026(3) 0.28935(17)
H53 H 0.3890 0.7495 0.2717
C49 C 0.4937(5) 0.6512(3) 0.28077(17)
H54 H 0.5279 0.6641 0.2574
C50 C 0.3619(4) 0.6840(3) 0.32429(18)
H55 H 0.3063 0.7188 0.3304
O13 O 0.8339(12) 0.0832(13) 0.5221(3)
O15 O 1.0407(6) 0.1485(4) 0.53929(18)
O16 O 1.1265(4) 0.2936(3) 0.49677(15)
O17 O 0.5241(8) 1.0886(5) 0.3753(4)
O18 O 0.8622(7) 0.4358(6) 0.3850(3)
O19 O 0.3643(8) 0.0824(5) 0.4563(2)
O20 O 1.0344(7) 0.3469(4) 0.4065(2)
O21 O 1.0595(4) 0.4532(4) 0.53462(16)
O22 O 0.5500(4) 1.2303(3) 0.32389(16)
O23 O 0.651(2) 1.0108(8) 0.4542(4)
O24 O 0.6955(18) 0.7603(6) 0.5727(5)
O25 O 0.6677(4) 0.3917(3) 0.33630(15)
O14? O 0.8003(16) -0.011(2) 0.4940(11)
loop_
_geom_bond_atom_site_label_1
_geom_bond_atom_site_label_2
_geom_bond_site_symmetry_1
_geom_bond_site_symmetry_2
O1 C4 1_555 1_555
O2 C5 1_555 1_555
O3 C2 1_555 1_555
O4 C15 1_555 1_555
O5 C25 1_555 1_555
O6 C9 1_555 1_555
O7 C23 1_555 1_555
O8 C19 1_555 1_555
O9 C13 1_555 1_555
O10 C20 1_555 1_555
O11 C26 1_555 1_555
N1 C1 1_555 1_555
O12 C35 1_555 1_555
N2 C12 1_555 1_555
N3 C2 1_555 1_555
N4 C1 1_555 1_555
N5 C5 1_555 1_555
N6 C7 1_555 1_555
N7 C3 1_555 1_555
N8 C10 1_555 1_555
N9 C6 1_555 1_555
N10 C4 1_555 1_555
N11 C17 1_555 1_555
N12 C9 1_555 1_555
N13 C5 1_555 1_555
N14 C14 1_555 1_555
N15 C8 1_555 1_555
N16 C11 1_555 1_555
N17 C9 1_555 1_555
N18 C16 1_555 1_555
N19 C13 1_555 1_555
N20 C25 1_555 1_555
N21 C25 1_555 1_555
N22 C31 1_555 1_555
N23 C16 1_555 1_555
N24 C13 1_555 1_555
C1 H1 1_555 1_555
C2 N1 1_555 1_555
C3 N3 1_555 1_555
H2 C3 1_555 1_555
H3 C3 1_555 1_555
C4 N7 1_555 1_555
C6 N1 1_555 1_555
H4 C6 1_555 1_555
H5 C6 1_555 1_555
C7 N7 1_555 1_555
C8 N10 1_555 1_555
C10 N3 1_555 1_555
H6 C10 1_555 1_555
C11 N5 1_555 1_555
H7 C11 1_555 1_555
C12 N13 1_555 1_555
H8 C12 1_555 1_555
C14 N17 1_555 1_555
H9 C14 1_555 1_555
C15 N4 1_555 1_555
C16 H10 1_555 1_555
C17 N9 1_555 1_555
H11 C17 1_555 1_555
C18 N2 1_555 1_555
H12 C18 1_555 1_555
H13 C18 1_555 1_555
C19 N6 1_555 1_555
C20 N11 1_555 1_555
C21 N13 1_555 1_555
H14 C21 1_555 1_555
H15 C21 1_555 1_555
C22 N5 1_555 1_555
H16 C22 1_555 1_555
H17 C22 1_555 1_555
C23 N9 1_555 1_555
C24 N4 1_555 1_555
H18 C24 1_555 1_555
H19 C24 1_555 1_555
C26 N2 1_555 1_555
C27 N14 1_555 1_555
H20 C27 1_555 1_555
H21 C27 1_555 1_555
C28 N19 1_555 1_555
C29 N6 1_555 1_555
H22 C29 1_555 1_555
H23 C29 1_555 1_555
C30 N18 1_555 1_555
H24 C30 1_555 1_555
H25 C30 1_555 1_555
C31 N12 1_555 1_555
H26 C31 1_555 1_555
C32 N21 1_555 1_555
C33 N12 1_555 1_555
H27 C33 1_555 1_555
H28 C33 1_555 1_555
C34 N19 1_555 1_555
H29 C34 1_555 1_555
H30 C34 1_555 1_555
C35 N14 1_555 1_555
C36 C8 1_555 1_555
H31 C36 1_555 1_555
H32 C36 1_555 1_555
C37 N22 1_555 1_555
H33 C37 1_555 1_555
H34 C37 1_555 1_555
C38 C28 1_555 1_555
H35 C38 1_555 1_555
H36 C38 1_555 1_555
C39 C32 1_555 1_555
H37 C39 1_555 1_555
H38 C39 1_555 1_555
C40 C7 1_555 1_555
H39 C40 1_555 1_555
H40 C40 1_555 1_555
C41 C36 1_555 1_555
H41 C41 1_555 1_555
H42 C41 1_555 1_555
C42 C40 1_555 1_555
H43 C42 1_555 1_555
H44 C42 1_555 1_555
C43 C39 1_555 1_555
H45 C43 1_555 1_555
H46 C43 1_555 1_555
C44 C38 1_555 1_555
H47 C44 1_555 1_555
H48 C44 1_555 1_555
N25 H49 1_555 1_555
H50 N25 1_555 1_555
C45 N25 1_555 1_555
C46 C45 1_555 1_555
H51 C46 1_555 1_555
C47 C45 1_555 1_555
H52 C47 1_555 1_555
C48 H53 1_555 1_555
C49 C46 1_555 1_555
H54 C49 1_555 1_555
C50 C47 1_555 1_555
H55 C50 1_555 1_555
N8 C15 1_555 1_555
N8 C29 1_555 1_555
N10 C18 1_555 1_555
N11 C24 1_555 1_555
N15 C19 1_555 1_555
N15 C21 1_555 1_555
N16 C26 1_555 1_555
N16 C27 1_555 1_555
N17 C22 1_555 1_555
N18 C20 1_555 1_555
N20 C28 1_555 1_555
N20 C30 1_555 1_555
N21 C33 1_555 1_555
N22 C35 1_555 1_555
N23 C23 1_555 1_555
N23 C34 1_555 1_555
N24 C32 1_555 1_555
N24 C37 1_555 1_555
C1 C10 1_555 1_555
C7 C8 1_555 1_555
C11 C12 1_555 1_555
C14 C31 1_555 1_555
C16 C17 1_555 1_555
C28 C32 1_555 1_555
C41 C42 1_555 1_555
C43 C44 1_555 1_555
C48 C49 1_555 1_555
C48 C50 1_555 1_555

#END
