
#######################################################################
#
#                 Cambridge Crystallographic Data Centre
#                                CCDC 
#
#######################################################################
#
# If this CIF has been generated from an entry in the Cambridge 
# Structural Database, then it will include bibliographic, chemical, 
# crystal, experimental, refinement or atomic coordinate data resulting 
# from the CCDC's data processing and validation procedures.
#
#######################################################################

data_ZIQPAS
_chemical_formula_moiety         'C29 H24 Cl1 N3 O4 S2,C2 H4 Cl2'
_chemical_name_systematic        
"N-(2-(4-chlorophenyl)-1,3-dioxo-1,2,3,3a,11,11a-hexahydropyrrolo[3',4':5,6]thiopyrano[2,3-b]quinolin-11-yl)-2,4,6-trimethylbenzenesulfonamide 1,2-dichloroethane solvate"
_symmetry_cell_setting           monoclinic
_symmetry_space_group_name_H-M   'P 21'
_symmetry_Int_Tables_number      4
_space_group_name_Hall           'P 2yb'
loop_
_symmetry_equiv_pos_site_id
_symmetry_equiv_pos_as_xyz
1 x,y,z
2 -x,1/2+y,-z
_cell_length_a                   14.821(3)
_cell_length_b                   6.9403(14)
_cell_length_c                   18.184(4)
_cell_angle_alpha                90
_cell_angle_beta                 110.76(3)
_cell_angle_gamma                90
_cell_volume                     1749
_cell_formula_units_Z            2
loop_
_atom_site_label
_atom_site_type_symbol
_atom_site_fract_x
_atom_site_fract_y
_atom_site_fract_z
Cl1 Cl -0.26201(11) 0.6088(3) 0.35742(8)
S1 S 0.05234(10) 1.31316(18) 0.81901(9)
S2 S 0.30909(9) 0.70857(18) 0.92371(8)
O1 O 0.3242(3) 0.5064(5) 0.9245(2)
O2 O 0.3215(3) 0.8035(6) 0.9958(2)
O3 O 0.1070(3) 0.6931(5) 0.7011(2)
O4 O -0.0638(3) 1.2525(6) 0.6370(3)
N1 N 0.0112(3) 0.9570(6) 0.6492(2)
N2 N -0.0718(3) 1.1429(6) 0.8701(3)
N3 N 0.1959(3) 0.7377(6) 0.8677(3)
H1 H 0.1607 0.6366 0.8461
C1 C 0.1531(4) 0.9285(7) 0.8532(3)
H2 H 0.1984 1.0177 0.8922
C2 C 0.1442(4) 1.0010(7) 0.7699(3)
H3 H 0.2105 1.0176 0.7683
C3 C 0.0881(4) 0.8623(8) 0.7049(3)
C4 C 0.0029(4) 1.1456(7) 0.6720(3)
C5 C 0.0891(4) 1.1916(8) 0.7460(3)
H4 H 0.1317 1.2823 0.7304
C6 C 0.0053(4) 1.1126(8) 0.8539(3)
C7 C -0.1081(4) 0.9920(7) 0.9001(3)
C8 C -0.1935(4) 1.0192(9) 0.9165(3)
H5 H -0.2219 1.1435 0.9115
C9 C -0.2358(4) 0.8640(10) 0.9398(3)
H6 H -0.2947 0.8821 0.9486
C10 C -0.1937(4) 0.6837(10) 0.9505(3)
H7 H -0.2233 0.5802 0.9676
C11 C -0.1096(4) 0.6522(8) 0.9367(3)
H8 H -0.0816 0.5273 0.9443
C12 C -0.0641(4) 0.8061(8) 0.9110(3)
C13 C 0.0205(4) 0.7848(7) 0.8953(3)
H9 H 0.0528 0.6640 0.9045
C14 C 0.0584(3) 0.9356(7) 0.8666(3)
C15 C -0.0519(4) 0.8700(8) 0.5790(3)
C16 C -0.0796(4) 0.9735(9) 0.5081(3)
H10 H -0.0548 1.0992 0.5068
C17 C -0.1443(4) 0.8900(9) 0.4389(3)
H11 H -0.1634 0.9589 0.3907
C18 C -0.1793(4) 0.7093(9) 0.4417(3)
C19 C -0.1524(4) 0.6033(9) 0.5118(3)
H12 H -0.1773 0.4775 0.5126
C20 C -0.0876(4) 0.6867(8) 0.5810(3)
H13 H -0.0685 0.6170 0.6291
C21 C 0.3809(4) 0.8198(8) 0.8747(3)
C22 C 0.4270(4) 0.9984(8) 0.9027(4)
C23 C 0.4811(4) 1.0748(12) 0.8607(4)
H14 H 0.5134 1.1933 0.8787
C24 C 0.4911(5) 0.9947(14) 0.7970(5)
C25 C 0.4452(4) 0.8186(14) 0.7710(4)
H15 H 0.4523 0.7573 0.7267
C26 C 0.3894(4) 0.7316(9) 0.8088(3)
C27 C 0.3447(4) 0.5437(11) 0.7746(4)
H16 H 0.3478 0.5284 0.7220
H17 H 0.2771 0.5415 0.7710
H18 H 0.3798 0.4380 0.8085
C28 C 0.4249(4) 1.1087(9) 0.9734(4)
H19 H 0.4666 1.2222 0.9815
H20 H 0.4480 1.0259 1.0200
H21 H 0.3586 1.1498 0.9647
C29 C 0.5552(7) 1.085(2) 0.7554(6)
H22 H 0.5725 1.2170 0.7746
H23 H 0.5199 1.0879 0.6985
H24 H 0.6141 1.0084 0.7666
Cl2 Cl 0.80076(18) 0.8201(4) 0.71002(14)
C30 C 0.7979(8) 0.5647(12) 0.7151(7)
H25 H 0.7884 0.5121 0.6623
H26 H 0.8616 0.5196 0.7511
Cl3 Cl 0.6056(2) 0.5325(5) 0.6710(2)
C31 C 0.7215(5) 0.4821(18) 0.7424(5)
H27 H 0.7267 0.5397 0.7936
H28 H 0.7304 0.3411 0.7495
Cl4 Cl 0.6478(3) 1.2260(6) 0.4526(2)
C32 C 0.6685(9) 1.0999(19) 0.5414(6)
H29 H 0.7331 1.0391 0.5585
H30 H 0.6674 1.1914 0.5828
Cl5 Cl 0.6057(3) 0.7569(7) 0.4699(3)
C33 C 0.5931(9) 0.9474(15) 0.5312(7)
H31 H 0.5282 1.0056 0.5075
H32 H 0.5990 0.8948 0.5833
loop_
_geom_bond_atom_site_label_1
_geom_bond_atom_site_label_2
_geom_bond_site_symmetry_1
_geom_bond_site_symmetry_2
Cl1 C18 1_555 1_555
S1 C5 1_555 1_555
S2 O1 1_555 1_555
O2 S2 1_555 1_555
O3 C3 1_555 1_555
O4 C4 1_555 1_555
N1 C3 1_555 1_555
N2 C6 1_555 1_555
N3 S2 1_555 1_555
H1 N3 1_555 1_555
C1 N3 1_555 1_555
H2 C1 1_555 1_555
C2 C1 1_555 1_555
H3 C2 1_555 1_555
C3 C2 1_555 1_555
C4 N1 1_555 1_555
C5 C2 1_555 1_555
H4 C5 1_555 1_555
C6 S1 1_555 1_555
C7 N2 1_555 1_555
C8 C7 1_555 1_555
H5 C8 1_555 1_555
C9 C8 1_555 1_555
H6 C9 1_555 1_555
C10 C9 1_555 1_555
H7 C10 1_555 1_555
C11 C10 1_555 1_555
H8 C11 1_555 1_555
C12 C7 1_555 1_555
C13 C12 1_555 1_555
H9 C13 1_555 1_555
C14 C1 1_555 1_555
C15 N1 1_555 1_555
C16 C15 1_555 1_555
H10 C16 1_555 1_555
C17 C16 1_555 1_555
H11 C17 1_555 1_555
C18 C17 1_555 1_555
C19 C18 1_555 1_555
H12 C19 1_555 1_555
C20 C15 1_555 1_555
H13 C20 1_555 1_555
C21 S2 1_555 1_555
C22 C21 1_555 1_555
C23 C22 1_555 1_555
H14 C23 1_555 1_555
C24 C23 1_555 1_555
C25 C24 1_555 1_555
H15 C25 1_555 1_555
C26 C21 1_555 1_555
C27 C26 1_555 1_555
H16 C27 1_555 1_555
H17 C27 1_555 1_555
H18 C27 1_555 1_555
C28 C22 1_555 1_555
H19 C28 1_555 1_555
H20 C28 1_555 1_555
H21 C28 1_555 1_555
C29 C24 1_555 1_555
H22 C29 1_555 1_555
H23 C29 1_555 1_555
H24 C29 1_555 1_555
Cl2 C30 1_555 1_555
C30 H25 1_555 1_555
H26 C30 1_555 1_555
Cl3 C31 1_555 1_555
C31 C30 1_555 1_555
H27 C31 1_555 1_555
H28 C31 1_555 1_555
Cl4 C32 1_555 1_555
C32 H29 1_555 1_555
H30 C32 1_555 1_555
Cl5 C33 1_555 1_555
C33 C32 1_555 1_555
H31 C33 1_555 1_555
H32 C33 1_555 1_555
C4 C5 1_555 1_555
C6 C14 1_555 1_555
C11 C12 1_555 1_555
C13 C14 1_555 1_555
C19 C20 1_555 1_555
C25 C26 1_555 1_555

#END
