
#######################################################################
#
#                 Cambridge Crystallographic Data Centre
#                                CCDC 
#
#######################################################################
#
# If this CIF has been generated from an entry in the Cambridge 
# Structural Database, then it will include bibliographic, chemical, 
# crystal, experimental, refinement or atomic coordinate data resulting 
# from the CCDC's data processing and validation procedures.
#
#######################################################################

data_ZIQQEX
_chemical_formula_moiety         'C12 H12 Br1 F3 I1 N1 O2'
_chemical_name_systematic        
6-Bromo-8a-(hydroxymethyl)-5-iodo-8-(trifluoromethyl)-1,2,3,3a,8,8a-hexahydrocyclopenta[b]pyrrolizin-8-ol
_symmetry_cell_setting           orthorhombic
_symmetry_space_group_name_H-M   'P 21 21 21'
_symmetry_Int_Tables_number      19
_space_group_name_Hall           'P 2ac 2ab'
loop_
_symmetry_equiv_pos_site_id
_symmetry_equiv_pos_as_xyz
1 x,y,z
2 1/2-x,-y,1/2+z
3 -x,1/2+y,1/2-z
4 1/2+x,1/2-y,-z
_cell_length_a                   7.7100(9)
_cell_length_b                   10.7132(12)
_cell_length_c                   17.187(2)
_cell_angle_alpha                90
_cell_angle_beta                 90
_cell_angle_gamma                90
_cell_volume                     1419.63
_exptl_crystal_colour            colorless
_exptl_crystal_description       block
_cell_formula_units_Z            4
loop_
_atom_site_label
_atom_site_type_symbol
_atom_site_fract_x
_atom_site_fract_y
_atom_site_fract_z
C1 C 0.7885(13) 0.0870(9) 0.2038(5)
O1 O 0.9551(10) 0.0836(7) 0.2418(5)
H1 H 0.9841 0.1563 0.2546
C2 C 0.6546(16) 0.0780(8) 0.2704(6)
F1 F 0.6605(10) -0.0288(6) 0.3078(4)
F2 F 0.6868(11) 0.1701(6) 0.3229(4)
F3 F 0.4913(9) 0.0968(7) 0.2465(5)
C3 C 0.7824(14) -0.0227(8) 0.1419(5)
C4 C 0.9363(16) -0.1117(10) 0.1520(7)
H2 H 0.9371 -0.1720 0.1083
H3 H 1.0454 -0.0631 0.1495
O2 O 0.9316(12) -0.1782(7) 0.2229(5)
H4 H 0.9630 -0.1312 0.2594
C5 C 0.6130(16) -0.0983(11) 0.1353(6)
H5 H 0.6171 -0.1737 0.1685
H6 H 0.5115 -0.0471 0.1505
C6 C 0.6049(17) -0.1336(9) 0.0486(7)
H7 H 0.6856 -0.2029 0.0369
H8 H 0.4859 -0.1587 0.0336
C7 C 0.6575(16) -0.0180(10) 0.0074(6)
H9 H 0.5572 0.0387 0.0009
H10 H 0.7053 -0.0380 -0.0446
C8 C 0.7994(11) 0.0436(8) 0.0600(5)
H11 H 0.9180 0.0321 0.0375
N1 N 0.7670(10) 0.1739(6) 0.0796(4)
C9 C 0.7510(12) 0.2841(6) 0.0366(4)
I1 I 0.75722(9) 0.28752(6) -0.08284(3)
C10 C 0.7293(12) 0.3724(7) 0.0897(5)
Br1 Br 0.69618(13) 0.54683(9) 0.06621(6)
C11 C 0.7329(15) 0.3287(9) 0.1668(5)
H12 H 0.7199 0.3741 0.2139
C12 C 0.7602(14) 0.2033(8) 0.1563(5)
loop_
_geom_bond_atom_site_label_1
_geom_bond_atom_site_label_2
_geom_bond_site_symmetry_1
_geom_bond_site_symmetry_2
C1 O1 1_555 1_555
O1 H1 1_555 1_555
C2 C1 1_555 1_555
F1 C2 1_555 1_555
F2 C2 1_555 1_555
F3 C2 1_555 1_555
C3 C1 1_555 1_555
C4 C3 1_555 1_555
H2 C4 1_555 1_555
H3 C4 1_555 1_555
O2 C4 1_555 1_555
H4 O2 1_555 1_555
C5 C3 1_555 1_555
H5 C5 1_555 1_555
H6 C5 1_555 1_555
C6 C5 1_555 1_555
H7 C6 1_555 1_555
H8 C6 1_555 1_555
C7 C6 1_555 1_555
H9 C7 1_555 1_555
H10 C7 1_555 1_555
C8 C3 1_555 1_555
H11 C8 1_555 1_555
N1 C8 1_555 1_555
C9 N1 1_555 1_555
I1 C9 1_555 1_555
C10 C9 1_555 1_555
Br1 C10 1_555 1_555
C11 C10 1_555 1_555
H12 C11 1_555 1_555
C12 C1 1_555 1_555
C7 C8 1_555 1_555
N1 C12 1_555 1_555
C11 C12 1_555 1_555

#END
