
#######################################################################
#
#                 Cambridge Crystallographic Data Centre
#                                CCDC 
#
#######################################################################
#
# If this CIF has been generated from an entry in the Cambridge 
# Structural Database, then it will include bibliographic, chemical, 
# crystal, experimental, refinement or atomic coordinate data resulting 
# from the CCDC's data processing and validation procedures.
#
#######################################################################

data_ZIQQUN
_chemical_formula_moiety         'C30 H26 N2 O5 S2'
_chemical_name_systematic        
(1,2-bis(Phenylsulfonyl)-1,5,6,10b-tetrahydropyrazolo[5,1-a]isoquinolin-3(2H)-yl)(phenyl)methanone
_symmetry_cell_setting           monoclinic
_symmetry_space_group_name_H-M   'P 21/n'
_symmetry_Int_Tables_number      14
_space_group_name_Hall           '-P 2yn'
loop_
_symmetry_equiv_pos_site_id
_symmetry_equiv_pos_as_xyz
1 x,y,z
2 1/2-x,1/2+y,1/2-z
3 -x,-y,-z
4 1/2+x,1/2-y,1/2+z
_cell_length_a                   12.383(3)
_cell_length_b                   28.087(6)
_cell_length_c                   15.532(3)
_cell_angle_alpha                90
_cell_angle_beta                 100.444(2)
_cell_angle_gamma                90
_cell_volume                     5312.55
_exptl_crystal_colour            colorless
_exptl_crystal_description       plate
_cell_formula_units_Z            8
loop_
_atom_site_label
_atom_site_type_symbol
_atom_site_fract_x
_atom_site_fract_y
_atom_site_fract_z
S1 S 0.06111(7) 0.21635(3) 0.09971(5)
S2 S -0.11234(7) 0.10282(3) -0.02014(5)
O1 O 0.0509(2) 0.17535(8) -0.16431(15)
O2 O 0.0943(2) 0.22611(8) 0.19166(15)
O3 O 0.12256(19) 0.23704(7) 0.03912(15)
O4 O -0.1696(2) 0.11773(9) 0.04786(15)
O5 O -0.0806(2) 0.05388(8) -0.02457(17)
N1 N 0.1841(2) 0.10476(8) 0.01037(15)
N2 N 0.0957(2) 0.12313(8) -0.05258(15)
C1 C 0.2378(2) 0.10961(11) 0.17326(19)
C2 C 0.2424(3) 0.13308(11) 0.2529(2)
H1 H 0.2072 0.1630 0.2546
C3 C 0.2981(3) 0.11286(12) 0.3299(2)
H2 H 0.3012 0.1292 0.3838
C4 C 0.3489(3) 0.06944(12) 0.3288(2)
H3 H 0.3879 0.0560 0.3815
C5 C 0.3428(3) 0.04542(12) 0.2499(2)
H4 H 0.3768 0.0152 0.2491
C6 C 0.2869(3) 0.06527(11) 0.1713(2)
C7 C 0.2760(3) 0.03810(11) 0.0872(2)
H5 H 0.2728 0.0035 0.0990
H6 H 0.3405 0.0442 0.0594
C8 C 0.1718(3) 0.05359(10) 0.0260(2)
H7 H 0.1629 0.0357 -0.0298
H8 H 0.1067 0.0477 0.0532
C9 C 0.1850(2) 0.13471(10) 0.08910(19)
H9 H 0.2306 0.1634 0.0827
C10 C 0.0633(2) 0.15216(10) 0.08389(18)
H10 H 0.0260 0.1350 0.1267
C11 C 0.0086(3) 0.14153(10) -0.01114(19)
H11 H -0.0160 0.1725 -0.0398
C12 C 0.1197(3) 0.14823(10) -0.1242(2)
C13 C 0.2278(3) 0.13997(11) -0.15089(19)
C14 C 0.2790(3) 0.17976(12) -0.1787(2)
H12 H 0.2455 0.2102 -0.1790
C15 C 0.3788(3) 0.17493(13) -0.2061(2)
H13 H 0.4148 0.2021 -0.2238
C16 C 0.4257(3) 0.13045(13) -0.2075(2)
H14 H 0.4943 0.1272 -0.2262
C17 C 0.3743(3) 0.09070(12) -0.1821(2)
H15 H 0.4066 0.0602 -0.1846
C18 C 0.2755(3) 0.09533(11) -0.1528(2)
H16 H 0.2406 0.0681 -0.1342
C19 C -0.0772(3) 0.23366(10) 0.06726(19)
C20 C -0.1110(3) 0.25323(10) -0.0154(2)
H17 H -0.0605 0.2569 -0.0542
C21 C -0.2192(3) 0.26726(11) -0.0405(2)
H18 H -0.2431 0.2808 -0.0968
C22 C -0.2926(3) 0.26167(12) 0.0161(3)
H19 H -0.3669 0.2713 -0.0015
C23 C -0.2582(3) 0.24226(13) 0.0978(3)
H20 H -0.3090 0.2385 0.1364
C24 C -0.1497(3) 0.22808(12) 0.1241(2)
H21 H -0.1258 0.2147 0.1806
C25 C -0.1858(3) 0.12079(11) -0.1224(2)
C26 C -0.1581(3) 0.10236(13) -0.1979(2)
H22 H -0.1070 0.0769 -0.1949
C27 C -0.2055(4) 0.12142(16) -0.2775(3)
H23 H -0.1887 0.1085 -0.3301
C28 C -0.2773(4) 0.15925(15) -0.2808(3)
H24 H -0.3075 0.1730 -0.3357
C29 C -0.3055(3) 0.17706(14) -0.2063(3)
H25 H -0.3562 0.2027 -0.2097
C30 C -0.2603(3) 0.15783(12) -0.1258(2)
H26 H -0.2800 0.1699 -0.0736
S3 S 0.22360(7) 0.46174(3) -0.25661(5)
S4 S 0.39889(6) 0.34320(3) -0.15108(5)
O6 O 0.28770(18) 0.42681(8) 0.00510(14)
O7 O 0.1824(2) 0.47127(8) -0.34740(15)
O8 O 0.16821(19) 0.48196(7) -0.19152(15)
O9 O 0.45292(18) 0.35825(8) -0.22059(13)
O10 O 0.35796(18) 0.29547(7) -0.15147(15)
N3 N 0.10983(19) 0.35726(8) -0.14972(15)
N4 N 0.20882(19) 0.37436(8) -0.09705(15)
C31 C 0.0464(2) 0.35173(10) -0.31316(19)
C32 C 0.0452(3) 0.36845(12) -0.3978(2)
H27 H 0.0831 0.3969 -0.4067
C33 C -0.0113(3) 0.34349(13) -0.4690(2)
H28 H -0.0119 0.3550 -0.5266
C34 C -0.0669(3) 0.30203(13) -0.4568(2)
H29 H -0.1059 0.2852 -0.5058
C35 C -0.0654(3) 0.28536(11) -0.3733(2)
H30 H -0.1032 0.2568 -0.3650
C36 C -0.0090(2) 0.30998(10) -0.30035(19)
C37 C -0.0020(3) 0.29104(10) -0.20939(19)
H31 H -0.0096 0.2560 -0.2110
H32 H -0.0621 0.3045 -0.1827
C38 C 0.1080(3) 0.30481(10) -0.15547(19)
H33 H 0.1169 0.2906 -0.0963
H34 H 0.1685 0.2933 -0.1839
C39 C 0.1036(2) 0.38133(10) -0.23599(18)
H35 H 0.0589 0.4109 -0.2344
C40 C 0.2230(2) 0.39758(9) -0.24095(18)
H36 H 0.2525 0.3804 -0.2881
C41 C 0.2899(2) 0.38658(9) -0.14960(18)
H37 H 0.3255 0.4170 -0.1257
C42 C 0.2054(2) 0.40391(10) -0.02580(18)
C43 C 0.1044(2) 0.40655(10) 0.01367(18)
C44 C 0.0867(3) 0.45012(11) 0.0511(2)
H38 H 0.1358 0.4758 0.0480
C45 C -0.0015(3) 0.45641(12) 0.0927(2)
H39 H -0.0146 0.4865 0.1166
C46 C -0.0709(3) 0.41850(12) 0.09938(19)
H40 H -0.1313 0.4226 0.1286
C47 C -0.0531(3) 0.37479(12) 0.0640(2)
H41 H -0.1008 0.3489 0.0695
C48 C 0.0339(3) 0.36858(11) 0.02051(19)
H42 H 0.0456 0.3386 -0.0046
C49 C 0.3629(3) 0.47915(10) -0.2299(2)
C50 C 0.4016(3) 0.49923(11) -0.1485(2)
H43 H 0.3532 0.5044 -0.1085
C51 C 0.5115(3) 0.51171(12) -0.1262(2)
H44 H 0.5387 0.5259 -0.0710
C52 C 0.5808(3) 0.50344(12) -0.1844(3)
H45 H 0.6565 0.5111 -0.1686
C53 C 0.5413(3) 0.48414(13) -0.2657(3)
H46 H 0.5898 0.4794 -0.3059
C54 C 0.4314(3) 0.47151(12) -0.2894(2)
H47 H 0.4041 0.4580 -0.3452
C55 C 0.4860(3) 0.35440(10) -0.05021(19)
C56 C 0.4639(3) 0.33427(12) 0.0261(2)
H48 H 0.4026 0.3138 0.0247
C57 C 0.5327(3) 0.34455(14) 0.1044(2)
H49 H 0.5190 0.3310 0.1574
C58 C 0.6217(3) 0.37467(14) 0.1054(2)
H50 H 0.6690 0.3815 0.1592
C59 C 0.6421(3) 0.39467(14) 0.0293(3)
H51 H 0.7033 0.4152 0.0308
C60 C 0.5735(3) 0.38497(12) -0.0499(2)
H52 H 0.5865 0.3991 -0.1026
loop_
_geom_bond_atom_site_label_1
_geom_bond_atom_site_label_2
_geom_bond_site_symmetry_1
_geom_bond_site_symmetry_2
S1 O2 1_555 1_555
S2 O4 1_555 1_555
O1 C12 1_555 1_555
O3 S1 1_555 1_555
O5 S2 1_555 1_555
N1 N2 1_555 1_555
N2 C11 1_555 1_555
C1 C2 1_555 1_555
C2 H1 1_555 1_555
C3 C2 1_555 1_555
H2 C3 1_555 1_555
C4 C3 1_555 1_555
H3 C4 1_555 1_555
C5 C4 1_555 1_555
H4 C5 1_555 1_555
C6 C1 1_555 1_555
C7 C6 1_555 1_555
H5 C7 1_555 1_555
H6 C7 1_555 1_555
C8 N1 1_555 1_555
H7 C8 1_555 1_555
H8 C8 1_555 1_555
C9 N1 1_555 1_555
H9 C9 1_555 1_555
C10 S1 1_555 1_555
H10 C10 1_555 1_555
C11 S2 1_555 1_555
H11 C11 1_555 1_555
C12 N2 1_555 1_555
C13 C12 1_555 1_555
C14 C13 1_555 1_555
H12 C14 1_555 1_555
C15 C14 1_555 1_555
H13 C15 1_555 1_555
C16 C15 1_555 1_555
H14 C16 1_555 1_555
C17 C16 1_555 1_555
H15 C17 1_555 1_555
C18 C13 1_555 1_555
H16 C18 1_555 1_555
C19 S1 1_555 1_555
C20 C19 1_555 1_555
H17 C20 1_555 1_555
C21 C20 1_555 1_555
H18 C21 1_555 1_555
C22 C21 1_555 1_555
H19 C22 1_555 1_555
C23 C22 1_555 1_555
H20 C23 1_555 1_555
C24 C19 1_555 1_555
H21 C24 1_555 1_555
C25 S2 1_555 1_555
C26 C25 1_555 1_555
H22 C26 1_555 1_555
C27 C26 1_555 1_555
H23 C27 1_555 1_555
C28 C27 1_555 1_555
H24 C28 1_555 1_555
C29 C28 1_555 1_555
H25 C29 1_555 1_555
C30 C25 1_555 1_555
H26 C30 1_555 1_555
S3 O7 1_555 1_555
S4 O9 1_555 1_555
O6 C42 1_555 1_555
O8 S3 1_555 1_555
O10 S4 1_555 1_555
N3 N4 1_555 1_555
N4 C41 1_555 1_555
C31 C32 1_555 1_555
C32 H27 1_555 1_555
C33 C32 1_555 1_555
H28 C33 1_555 1_555
C34 C33 1_555 1_555
H29 C34 1_555 1_555
C35 C34 1_555 1_555
H30 C35 1_555 1_555
C36 C31 1_555 1_555
C37 C36 1_555 1_555
H31 C37 1_555 1_555
H32 C37 1_555 1_555
C38 N3 1_555 1_555
H33 C38 1_555 1_555
H34 C38 1_555 1_555
C39 N3 1_555 1_555
H35 C39 1_555 1_555
C40 S3 1_555 1_555
H36 C40 1_555 1_555
C41 S4 1_555 1_555
H37 C41 1_555 1_555
C42 N4 1_555 1_555
C43 C42 1_555 1_555
C44 C43 1_555 1_555
H38 C44 1_555 1_555
C45 C44 1_555 1_555
H39 C45 1_555 1_555
C46 C45 1_555 1_555
H40 C46 1_555 1_555
C47 C46 1_555 1_555
H41 C47 1_555 1_555
C48 C43 1_555 1_555
H42 C48 1_555 1_555
C49 S3 1_555 1_555
C50 C49 1_555 1_555
H43 C50 1_555 1_555
C51 C50 1_555 1_555
H44 C51 1_555 1_555
C52 C51 1_555 1_555
H45 C52 1_555 1_555
C53 C52 1_555 1_555
H46 C53 1_555 1_555
C54 C49 1_555 1_555
H47 C54 1_555 1_555
C55 S4 1_555 1_555
C56 C55 1_555 1_555
H48 C56 1_555 1_555
C57 C56 1_555 1_555
H49 C57 1_555 1_555
C58 C57 1_555 1_555
H50 C58 1_555 1_555
C59 C58 1_555 1_555
H51 C59 1_555 1_555
C60 C55 1_555 1_555
H52 C60 1_555 1_555
C1 C9 1_555 1_555
C5 C6 1_555 1_555
C7 C8 1_555 1_555
C9 C10 1_555 1_555
C10 C11 1_555 1_555
C17 C18 1_555 1_555
C23 C24 1_555 1_555
C29 C30 1_555 1_555
C31 C39 1_555 1_555
C35 C36 1_555 1_555
C37 C38 1_555 1_555
C39 C40 1_555 1_555
C40 C41 1_555 1_555
C47 C48 1_555 1_555
C53 C54 1_555 1_555
C59 C60 1_555 1_555

#END
