
#######################################################################
#
#                 Cambridge Crystallographic Data Centre
#                                CCDC 
#
#######################################################################
#
# If this CIF has been generated from an entry in the Cambridge 
# Structural Database, then it will include bibliographic, chemical, 
# crystal, experimental, refinement or atomic coordinate data resulting 
# from the CCDC's data processing and validation procedures.
#
#######################################################################

data_ZIQRIC
_chemical_formula_moiety         'C30 H24 N2 O5 S2'
_chemical_name_systematic        
(2,3-bis(Phenylsulfonyl)-3,3a-dihydropyrazolo[1,5-a]quinolin-1(2H)-yl)(phenyl)methanone
_symmetry_cell_setting           triclinic
_symmetry_space_group_name_H-M   'P -1'
_symmetry_Int_Tables_number      2
_space_group_name_Hall           '-P 1'
loop_
_symmetry_equiv_pos_site_id
_symmetry_equiv_pos_as_xyz
1 x,y,z
2 -x,-y,-z
_cell_length_a                   10.613(2)
_cell_length_b                   11.153(2)
_cell_length_c                   11.688(2)
_cell_angle_alpha                74.23(3)
_cell_angle_beta                 78.29(3)
_cell_angle_gamma                77.98(3)
_cell_volume                     1286.37
_exptl_crystal_colour            colorless
_exptl_crystal_description       chunk
_cell_formula_units_Z            2
loop_
_atom_site_label
_atom_site_type_symbol
_atom_site_fract_x
_atom_site_fract_y
_atom_site_fract_z
S1 S 0.09853(5) 0.83040(5) 0.88303(5)
S2 S 0.22102(6) 0.49582(5) 0.79168(5)
O1 O 0.18916(17) 0.91681(18) 0.83154(17)
O2 O 0.12028(17) 0.73625(17) 0.99115(14)
O3 O 0.08890(17) 0.48081(16) 0.84510(18)
O4 O 0.2790(2) 0.44876(16) 0.68824(15)
O5 O 0.48970(14) 0.66739(15) 0.66057(13)
N1 N 0.28285(16) 0.71522(16) 0.62911(14)
N2 N 0.18233(16) 0.77531(16) 0.56045(15)
C1 C -0.0600(2) 0.9152(2) 0.89899(19)
C2 C -0.0860(3) 1.0371(2) 0.8312(2)
H1 H -0.0174 1.0791 0.7827
C3 C -0.2145(3) 1.0971(3) 0.8354(2)
H2 H -0.2349 1.1810 0.7892
C4 C -0.3127(3) 1.0346(3) 0.9068(3)
H3 H -0.4009 1.0753 0.9081
C5 C -0.2848(3) 0.9139(3) 0.9763(3)
H4 H -0.3534 0.8728 1.0264
C6 C -0.1578(2) 0.8527(2) 0.9735(2)
H5 H -0.1376 0.7696 1.0214
C7 C 0.3205(2) 0.43047(19) 0.90402(19)
C8 C 0.2640(3) 0.4224(2) 1.0234(2)
H6 H 0.1741 0.4535 1.0442
C9 C 0.3426(3) 0.3674(2) 1.1109(2)
H7 H 0.3064 0.3591 1.1935
C10 C 0.4730(3) 0.3246(2) 1.0792(3)
H8 H 0.5257 0.2863 1.1403
C11 C 0.5285(3) 0.3364(2) 0.9604(3)
H9 H 0.6191 0.3083 0.9399
C12 C 0.4520(2) 0.3894(2) 0.8710(2)
H10 H 0.4888 0.3975 0.7886
C13 C 0.2310(2) 0.66622(19) 0.75357(17)
H11 H 0.2868 0.6812 0.8060
C14 C 0.0961(2) 0.7474(2) 0.77155(18)
H12 H 0.0269 0.6927 0.7998
C15 C 0.0801(2) 0.8344(2) 0.64384(19)
H13 H 0.1007 0.9189 0.6407
C16 C -0.0530(2) 0.8537(2) 0.6111(2)
H14 H -0.1222 0.9056 0.6492
C17 C -0.0778(2) 0.8011(2) 0.5310(2)
H15 H -0.1642 0.8167 0.5134
C18 C 0.0231(2) 0.7200(2) 0.46869(19)
C19 C -0.0037(2) 0.6582(2) 0.3897(2)
H16 H -0.0901 0.6709 0.3729
C20 C 0.0931(3) 0.5789(2) 0.3354(2)
H17 H 0.0737 0.5382 0.2809
C21 C 0.2188(2) 0.5590(2) 0.3608(2)
H18 H 0.2853 0.5030 0.3249
C22 C 0.2483(2) 0.6200(2) 0.43795(19)
H19 H 0.3348 0.6063 0.4545
C23 C 0.1515(2) 0.70108(19) 0.49117(17)
C24 C 0.4118(2) 0.7304(2) 0.59495(18)
C25 C 0.4511(2) 0.8209(2) 0.47984(18)
C26 C 0.3796(2) 0.9407(2) 0.4450(2)
H20 H 0.2982 0.9647 0.4912
C27 C 0.4278(2) 1.0249(2) 0.3423(2)
H21 H 0.3800 1.1073 0.3189
C28 C 0.5451(2) 0.9893(2) 0.2741(2)
H22 H 0.5769 1.0466 0.2028
C29 C 0.6160(2) 0.8709(3) 0.3093(2)
H23 H 0.6969 0.8471 0.2623
C30 C 0.5704(2) 0.7865(2) 0.4126(2)
H24 H 0.6205 0.7054 0.4373
loop_
_geom_bond_atom_site_label_1
_geom_bond_atom_site_label_2
_geom_bond_site_symmetry_1
_geom_bond_site_symmetry_2
S1 O1 1_555 1_555
S2 O3 1_555 1_555
O2 S1 1_555 1_555
O4 S2 1_555 1_555
O5 C24 1_555 1_555
N1 N2 1_555 1_555
N2 C15 1_555 1_555
C1 S1 1_555 1_555
C2 C1 1_555 1_555
H1 C2 1_555 1_555
C3 C2 1_555 1_555
H2 C3 1_555 1_555
C4 C3 1_555 1_555
H3 C4 1_555 1_555
C5 C4 1_555 1_555
H4 C5 1_555 1_555
C6 C1 1_555 1_555
H5 C6 1_555 1_555
C7 S2 1_555 1_555
C8 C7 1_555 1_555
H6 C8 1_555 1_555
C9 C8 1_555 1_555
H7 C9 1_555 1_555
C10 C9 1_555 1_555
H8 C10 1_555 1_555
C11 C10 1_555 1_555
H9 C11 1_555 1_555
C12 C7 1_555 1_555
H10 C12 1_555 1_555
C13 S2 1_555 1_555
H11 C13 1_555 1_555
C14 S1 1_555 1_555
H12 C14 1_555 1_555
C15 C14 1_555 1_555
H13 C15 1_555 1_555
C16 C15 1_555 1_555
H14 C16 1_555 1_555
C17 C16 1_555 1_555
H15 C17 1_555 1_555
C18 C17 1_555 1_555
C19 C18 1_555 1_555
H16 C19 1_555 1_555
C20 C19 1_555 1_555
H17 C20 1_555 1_555
C21 C20 1_555 1_555
H18 C21 1_555 1_555
C22 C21 1_555 1_555
H19 C22 1_555 1_555
C23 N2 1_555 1_555
C24 N1 1_555 1_555
C25 C24 1_555 1_555
C26 C25 1_555 1_555
H20 C26 1_555 1_555
C27 C26 1_555 1_555
H21 C27 1_555 1_555
C28 C27 1_555 1_555
H22 C28 1_555 1_555
C29 C28 1_555 1_555
H23 C29 1_555 1_555
C30 C25 1_555 1_555
H24 C30 1_555 1_555
N1 C13 1_555 1_555
C5 C6 1_555 1_555
C11 C12 1_555 1_555
C13 C14 1_555 1_555
C18 C23 1_555 1_555
C22 C23 1_555 1_555
C29 C30 1_555 1_555

#END
