
#######################################################################
#
#                 Cambridge Crystallographic Data Centre
#                                CCDC 
#
#######################################################################
#
# If this CIF has been generated from an entry in the Cambridge 
# Structural Database, then it will include bibliographic, chemical, 
# crystal, experimental, refinement or atomic coordinate data resulting 
# from the CCDC's data processing and validation procedures.
#
#######################################################################

data_ZIQREY
_chemical_formula_moiety         'C24 H21 Cl1 N2 O5 S2'
_chemical_name_systematic        
5-(2-Chlorophenyl)-6,7-bis(phenylsulfonyl)tetrahydro-1H,5H-pyrazolo[1,2-a]pyrazol-1-one
_symmetry_cell_setting           triclinic
_symmetry_space_group_name_H-M   'P -1'
_symmetry_Int_Tables_number      2
_space_group_name_Hall           '-P 1'
loop_
_symmetry_equiv_pos_site_id
_symmetry_equiv_pos_as_xyz
1 x,y,z
2 -x,-y,-z
_cell_length_a                   8.4650(17)
_cell_length_b                   11.622(2)
_cell_length_c                   13.754(3)
_cell_angle_alpha                112.46(3)
_cell_angle_beta                 91.31(3)
_cell_angle_gamma                110.80(3)
_cell_volume                     1149.13
_exptl_crystal_colour            colorless
_exptl_crystal_description       block
_cell_formula_units_Z            2
loop_
_atom_site_label
_atom_site_type_symbol
_atom_site_fract_x
_atom_site_fract_y
_atom_site_fract_z
Cl1 Cl 0.47244(6) 0.85869(4) 0.18646(4)
S1 S -0.09303(5) 0.47257(4) 0.18359(3)
S2 S -0.07217(5) 0.83265(4) 0.18790(3)
O1 O -0.18579(16) 0.55878(13) 0.44755(10)
O2 O -0.21340(15) 0.38267(12) 0.22055(10)
O3 O -0.12533(15) 0.45122(12) 0.07343(9)
O4 O -0.10521(15) 0.92381(12) 0.28226(10)
O5 O -0.21618(15) 0.72488(12) 0.10708(10)
N1 N -0.01862(16) 0.69693(13) 0.37403(10)
N2 N 0.10847(16) 0.83513(12) 0.41362(10)
C1 C -0.0643(2) 0.65898(16) 0.45480(13)
C2 C 0.0675(2) 0.76758(17) 0.55379(13)
H1 H 0.1141 0.7265 0.5923
H2 H 0.0163 0.8260 0.6031
C3 C 0.2077(2) 0.84842(17) 0.50990(13)
H3 H 0.2653 0.9443 0.5618
H4 H 0.2948 0.8089 0.4911
C4 C -0.08363(19) 0.64379(15) 0.26114(12)
H5 H -0.2006 0.6444 0.2507
C5 C 0.04461(19) 0.74735(14) 0.22597(12)
H6 H 0.0868 0.6977 0.1624
C6 C 0.19599(19) 0.83385(15) 0.32293(12)
H7 H 0.2715 0.7831 0.3182
C7 C 0.30734(19) 0.97547(15) 0.33633(12)
C8 C 0.4353(2) 0.99633(16) 0.27541(13)
C9 C 0.5350(2) 1.12474(18) 0.28366(14)
H8 H 0.6190 1.1363 0.2397
C10 C 0.5114(2) 1.23567(17) 0.35617(15)
H9 H 0.5793 1.3239 0.3623
C11 C 0.3882(2) 1.21802(17) 0.42018(15)
H10 H 0.3736 1.2945 0.4711
C12 C 0.2863(2) 1.08883(16) 0.40986(13)
H11 H 0.2015 1.0776 0.4533
C13 C 0.1148(2) 0.48219(15) 0.21661(12)
C14 C 0.1572(2) 0.47219(16) 0.31103(13)
H12 H 0.0747 0.4587 0.3555
C15 C 0.3216(2) 0.48234(17) 0.33867(14)
H13 H 0.3528 0.4761 0.4027
C16 C 0.4408(2) 0.50162(19) 0.27264(16)
H14 H 0.5532 0.5081 0.2918
C17 C 0.3978(2) 0.51146(19) 0.17911(15)
H15 H 0.4808 0.5247 0.1349
C18 C 0.2332(2) 0.50203(16) 0.14951(13)
H16 H 0.2028 0.5089 0.0856
C19 C 0.0689(2) 0.92621(16) 0.12766(12)
C20 C 0.1026(2) 1.06267(17) 0.16201(14)
H17 H 0.0549 1.1065 0.2196
C21 C 0.2072(3) 1.13407(18) 0.11079(15)
H18 H 0.2294 1.2272 0.1322
C22 C 0.2792(3) 1.0703(2) 0.02873(16)
H19 H 0.3524 1.1204 -0.0050
C23 C 0.2458(3) 0.9344(2) -0.00470(15)
H20 H 0.2969 0.8917 -0.0608
C24 C 0.1379(2) 0.86034(18) 0.04357(14)
H21 H 0.1114 0.7662 0.0196
loop_
_geom_bond_atom_site_label_1
_geom_bond_atom_site_label_2
_geom_bond_site_symmetry_1
_geom_bond_site_symmetry_2
Cl1 C8 1_555 1_555
S1 O2 1_555 1_555
S2 O4 1_555 1_555
O1 C1 1_555 1_555
O3 S1 1_555 1_555
O5 S2 1_555 1_555
N1 N2 1_555 1_555
N2 C3 1_555 1_555
C1 N1 1_555 1_555
C2 C1 1_555 1_555
H1 C2 1_555 1_555
H2 C2 1_555 1_555
C3 C2 1_555 1_555
H3 C3 1_555 1_555
H4 C3 1_555 1_555
C4 S1 1_555 1_555
H5 C4 1_555 1_555
C5 S2 1_555 1_555
H6 C5 1_555 1_555
C6 N2 1_555 1_555
H7 C6 1_555 1_555
C7 C6 1_555 1_555
C8 C7 1_555 1_555
C9 C8 1_555 1_555
H8 C9 1_555 1_555
C10 C9 1_555 1_555
H9 C10 1_555 1_555
C11 C10 1_555 1_555
H10 C11 1_555 1_555
C12 C7 1_555 1_555
H11 C12 1_555 1_555
C13 S1 1_555 1_555
C14 C13 1_555 1_555
H12 C14 1_555 1_555
C15 C14 1_555 1_555
H13 C15 1_555 1_555
C16 C15 1_555 1_555
H14 C16 1_555 1_555
C17 C16 1_555 1_555
H15 C17 1_555 1_555
C18 C13 1_555 1_555
H16 C18 1_555 1_555
C19 S2 1_555 1_555
C20 C19 1_555 1_555
H17 C20 1_555 1_555
C21 C20 1_555 1_555
H18 C21 1_555 1_555
C22 C21 1_555 1_555
H19 C22 1_555 1_555
C23 C22 1_555 1_555
H20 C23 1_555 1_555
C24 C19 1_555 1_555
H21 C24 1_555 1_555
N1 C4 1_555 1_555
C4 C5 1_555 1_555
C5 C6 1_555 1_555
C11 C12 1_555 1_555
C17 C18 1_555 1_555
C23 C24 1_555 1_555

#END
