
#######################################################################
#
#                 Cambridge Crystallographic Data Centre
#                                CCDC 
#
#######################################################################
#
# If this CIF has been generated from an entry in the Cambridge 
# Structural Database, then it will include bibliographic, chemical, 
# crystal, experimental, refinement or atomic coordinate data resulting 
# from the CCDC's data processing and validation procedures.
#
#######################################################################

data_ZIRFAJ
_chemical_formula_moiety         'C19 H14 Br1 N5 O3'
_chemical_name_systematic        
2'-(4-bromophenyl)-1-methyl-5-nitro-5'-phenyl-1H,3'H-2,4'-biimidazol-3'-ol
_symmetry_cell_setting           orthorhombic
_symmetry_space_group_name_H-M   'P b c n'
_symmetry_Int_Tables_number      60
_space_group_name_Hall           '-P 2n 2ab'
loop_
_symmetry_equiv_pos_site_id
_symmetry_equiv_pos_as_xyz
1 x,y,z
2 1/2-x,1/2-y,1/2+z
3 1/2+x,1/2-y,-z
4 -x,y,1/2-z
5 -x,-y,-z
6 1/2+x,1/2+y,1/2-z
7 1/2-x,1/2+y,z
8 x,-y,1/2+z
_cell_length_a                   14.6696(3)
_cell_length_b                   12.3315(3)
_cell_length_c                   19.8491(4)
_cell_angle_alpha                90
_cell_angle_beta                 90
_cell_angle_gamma                90
_cell_volume                     3590.67
_exptl_crystal_colour            yellow
_exptl_crystal_description       block
_cell_formula_units_Z            8
loop_
_atom_site_label
_atom_site_type_symbol
_atom_site_fract_x
_atom_site_fract_y
_atom_site_fract_z
Br1 Br 0.44749(3) 0.87668(3) 0.544946(19)
O1 O 0.55422(18) 0.4103(2) 0.36666(13)
H1 H 0.511(3) 0.371(3) 0.347(2)
O2 O 0.6934(2) 0.0445(2) 0.33687(14)
O3 O 0.6335(2) -0.0317(2) 0.24809(16)
N1 N 0.61949(19) 0.6237(2) 0.25822(14)
N2 N 0.65949(19) 0.2496(2) 0.28067(15)
N3 N 0.6565(2) 0.0486(2) 0.28123(17)
N4 N 0.57540(19) 0.2804(2) 0.18866(15)
N5 N 0.58590(19) 0.4770(2) 0.31569(14)
C1 C 0.5562(2) 0.6554(3) 0.37222(17)
C2 C 0.6402(2) 0.5349(3) 0.21918(17)
C3 C 0.6201(2) 0.3257(3) 0.24054(18)
C4 C 0.6201(2) 0.4409(3) 0.25517(18)
C5 C 0.7205(2) 0.2737(3) 0.33788(18)
H2 H 0.6911 0.2515 0.3800
H3 H 0.7332 0.3517 0.3392
H4 H 0.7778 0.2338 0.3324
C6 C 0.6367(2) 0.1515(3) 0.25197(19)
C7 C 0.5868(2) 0.1718(3) 0.19599(19)
H5 H 0.5633 0.1182 0.1663
C8 C 0.5861(2) 0.5872(3) 0.31612(18)
C9 C 0.5574(3) 0.6196(3) 0.43879(19)
H6 H 0.5785 0.5486 0.4490
C10 C 0.4955(3) 0.8277(3) 0.40900(18)
H7 H 0.4745 0.8989 0.3992
C11 C 0.5263(2) 0.7603(3) 0.35807(19)
H8 H 0.5270 0.7858 0.3129
C12 C 0.4959(3) 0.7890(3) 0.47478(18)
C13 C 0.5278(3) 0.6870(3) 0.4901(2)
H9 H 0.5296 0.6630 0.5355
C14 C 0.6814(2) 0.55031(19) 0.15142(11)
C15 C 0.6931(2) 0.65545(16) 0.12769(12)
H10 H 0.6739 0.7153 0.1543
C16 C 0.7329(2) 0.67301(15) 0.06509(13)
H11 H 0.7409 0.7449 0.0489
C17 C 0.7610(2) 0.58543(19) 0.02621(10)
H12 H 0.7882 0.5974 -0.0166
C18 C 0.7494(2) 0.48030(16) 0.04993(12)
H13 H 0.7686 0.4204 0.0234
C19 C 0.7095(2) 0.46273(15) 0.11254(13)
H14 H 0.7016 0.3909 0.1288
loop_
_geom_bond_atom_site_label_1
_geom_bond_atom_site_label_2
_geom_bond_site_symmetry_1
_geom_bond_site_symmetry_2
Br1 C12 1_555 1_555
O1 H1 1_555 1_555
O2 N3 1_555 1_555
O3 N3 1_555 1_555
N1 C2 1_555 1_555
N2 C3 1_555 1_555
N3 C6 1_555 1_555
N4 C3 1_555 1_555
N5 O1 1_555 1_555
C1 C8 1_555 1_555
C2 C4 1_555 1_555
C3 C4 1_555 1_555
C4 N5 1_555 1_555
C5 N2 1_555 1_555
H2 C5 1_555 1_555
H3 C5 1_555 1_555
H4 C5 1_555 1_555
C6 N2 1_555 1_555
C7 N4 1_555 1_555
H5 C7 1_555 1_555
C8 N1 1_555 1_555
C9 C1 1_555 1_555
H6 C9 1_555 1_555
C10 H7 1_555 1_555
C11 C1 1_555 1_555
H8 C11 1_555 1_555
C12 C10 1_555 1_555
C13 C9 1_555 1_555
H9 C13 1_555 1_555
C14 C2 1_555 1_555
C15 C14 1_555 1_555
H10 C15 1_555 1_555
C16 C15 1_555 1_555
H11 C16 1_555 1_555
C17 C16 1_555 1_555
H12 C17 1_555 1_555
C18 C17 1_555 1_555
H13 C18 1_555 1_555
C19 C14 1_555 1_555
H14 C19 1_555 1_555
N5 C8 1_555 1_555
C6 C7 1_555 1_555
C10 C11 1_555 1_555
C12 C13 1_555 1_555
C18 C19 1_555 1_555

#END
