
#######################################################################
#
#                 Cambridge Crystallographic Data Centre
#                                CCDC 
#
#######################################################################
#
# If this CIF has been generated from an entry in the Cambridge 
# Structural Database, then it will include bibliographic, chemical, 
# crystal, experimental, refinement or atomic coordinate data resulting 
# from the CCDC's data processing and validation procedures.
#
#######################################################################

data_ZIRJAN
_chemical_formula_moiety         'C10 H8 O3 S1'
_chemical_name_systematic        4-Hydroxy-7-methoxy-2H-thiochromen-2-one
_symmetry_cell_setting           monoclinic
_symmetry_space_group_name_H-M   'C 2/c'
_symmetry_Int_Tables_number      15
_space_group_name_Hall           '-C 2yn'
loop_
_symmetry_equiv_pos_site_id
_symmetry_equiv_pos_as_xyz
1 x,y,z
2 -x,y,1/2-z
3 1/2+x,1/2+y,z
4 1/2-x,1/2+y,1/2-z
5 -x,-y,-z
6 x,-y,1/2+z
7 1/2-x,1/2-y,-z
8 1/2+x,1/2-y,1/2+z
_cell_length_a                   24.474(12)
_cell_length_b                   4.005(2)
_cell_length_c                   18.248(9)
_cell_angle_alpha                90
_cell_angle_beta                 92.247(6)
_cell_angle_gamma                90
_cell_volume                     1787.26
_exptl_crystal_colour            yellow
_exptl_crystal_description       rod
_cell_formula_units_Z            8
loop_
_atom_site_label
_atom_site_type_symbol
_atom_site_fract_x
_atom_site_fract_y
_atom_site_fract_z
S1 S 0.09987(2) 0.06649(16) 0.67617(3)
O1 O 0.03784(6) 0.3097(4) 0.41870(8)
O2 O 0.15917(6) 0.0177(4) 0.79452(7)
O3 O 0.25609(6) 0.5136(4) 0.60602(8)
H1 H 0.2798 0.5048 0.6390
C1 C 0.16045(8) 0.1171(5) 0.72991(11)
C2 C 0.20664(8) 0.2627(6) 0.69875(11)
H2 H 0.2379 0.2827 0.7291
C3 C 0.21006(8) 0.3767(5) 0.62890(11)
C4 C 0.16602(8) 0.3654(5) 0.57395(10)
C5 C 0.11474(8) 0.2272(5) 0.58998(10)
C6 C 0.07298(8) 0.2136(6) 0.53668(10)
H3 H 0.0394 0.1210 0.5476
C7 C 0.08115(8) 0.3378(6) 0.46723(11)
C8 C 0.13116(9) 0.4767(6) 0.45027(11)
H4 H 0.1365 0.5609 0.4036
C9 C 0.17258(9) 0.4882(6) 0.50323(12)
H5 H 0.2060 0.5807 0.4916
C10 C 0.04213(10) 0.4560(7) 0.34806(12)
H6 H 0.0499 0.6899 0.3533
H7 H 0.0083 0.4272 0.3204
H8 H 0.0711 0.3496 0.3228
loop_
_geom_bond_atom_site_label_1
_geom_bond_atom_site_label_2
_geom_bond_site_symmetry_1
_geom_bond_site_symmetry_2
S1 C1 1_555 1_555
O1 C7 1_555 1_555
O2 C1 1_555 1_555
O3 H1 1_555 1_555
C1 C2 1_555 1_555
C2 H2 1_555 1_555
C3 O3 1_555 1_555
C4 C3 1_555 1_555
C5 S1 1_555 1_555
C6 C5 1_555 1_555
H3 C6 1_555 1_555
C7 C6 1_555 1_555
C8 C7 1_555 1_555
H4 C8 1_555 1_555
C9 C4 1_555 1_555
H5 C9 1_555 1_555
C10 O1 1_555 1_555
H6 C10 1_555 1_555
H7 C10 1_555 1_555
H8 C10 1_555 1_555
C2 C3 1_555 1_555
C4 C5 1_555 1_555
C8 C9 1_555 1_555

#END
