
#######################################################################
#
#                 Cambridge Crystallographic Data Centre
#                                CCDC 
#
#######################################################################
#
# If this CIF has been generated from an entry in the Cambridge 
# Structural Database, then it will include bibliographic, chemical, 
# crystal, experimental, refinement or atomic coordinate data resulting 
# from the CCDC's data processing and validation procedures.
#
#######################################################################

data_ZIRKOC
_chemical_formula_moiety         'C28 H28 Br1 N3 O3 S1'
_chemical_name_systematic        
N-(2-(2-((2-Bromophenyl)(2-oxopyrrolidin-1-yl)methyl)-1H-indol-3-yl)ethyl)-4-methylbenzenesulfonamide
_symmetry_cell_setting           monoclinic
_symmetry_space_group_name_H-M   'P 21/c'
_symmetry_Int_Tables_number      14
_space_group_name_Hall           '-P 2ybc'
loop_
_symmetry_equiv_pos_site_id
_symmetry_equiv_pos_as_xyz
1 x,y,z
2 -x,1/2+y,1/2-z
3 -x,-y,-z
4 x,1/2-y,1/2+z
_cell_length_a                   11.1078(18)
_cell_length_b                   20.351(3)
_cell_length_c                   12.354(2)
_cell_angle_alpha                90
_cell_angle_beta                 110.522(4)
_cell_angle_gamma                90
_cell_volume                     2615.45
_exptl_crystal_colour            colorless
_exptl_crystal_description       block
_cell_formula_units_Z            4
loop_
_atom_site_label
_atom_site_type_symbol
_atom_site_fract_x
_atom_site_fract_y
_atom_site_fract_z
H1 H 0.951(6) 0.801(3) 1.073(6)
Br1 Br 1.36975(8) 0.74525(4) 0.91900(9)
S1 S 0.75773(17) 0.85928(9) 0.55528(15)
O1 O 0.9830(6) 0.7430(2) 0.7546(4)
O2 O 0.7579(5) 0.7908(3) 0.5270(4)
O3 O 0.7393(5) 0.9079(3) 0.4666(4)
N1 N 1.0926(5) 0.7352(2) 0.9480(4)
N2 N 0.9467(5) 0.8307(3) 1.0326(5)
N3 N 0.8950(6) 0.8745(3) 0.6541(5)
H2 H 0.921(7) 0.849(3) 0.690(6)
C1 C 1.3705(7) 0.7968(3) 1.0480(6)
C2 C 1.4853(7) 0.8112(4) 1.1304(10)
H3 H 1.5609 0.7952 1.1238
C3 C 1.4900(9) 0.8487(5) 1.2224(9)
H4 H 1.5689 0.8608 1.2764
C4 C 1.3776(9) 0.8691(4) 1.2357(7)
H5 H 1.3805 0.8932 1.3006
C5 C 1.2604(7) 0.8536(3) 1.1523(6)
H6 H 1.1850 0.8673 1.1620
C6 C 1.2530(6) 0.8179(3) 1.0546(5)
C7 C 1.1261(5) 0.8054(3) 0.9591(5)
H7 H 1.1392 0.8175 0.8872
C8 C 1.1327(6) 0.6866(3) 1.0416(6)
H8 H 1.0880 0.6932 1.0956
H9 H 1.2247 0.6886 1.0832
C9 C 1.0945(8) 0.6218(3) 0.9773(7)
H10 H 1.1701 0.5987 0.9754
H11 H 1.0504 0.5940 1.0154
C10 C 1.0080(9) 0.6378(3) 0.8584(7)
H12 H 0.9196 0.6276 0.8486
H13 H 1.0321 0.6131 0.8020
C11 C 1.0237(7) 0.7100(3) 0.8439(7)
C12 C 1.0166(5) 0.8469(3) 0.9635(5)
C13 C 0.8550(5) 0.8777(3) 1.0212(5)
C14 C 0.7624(6) 0.8822(3) 1.0722(6)
H14 H 0.7536 0.8499 1.1220
C15 C 0.6842(6) 0.9366(4) 1.0460(6)
H15 H 0.6226 0.9416 1.0806
C16 C 0.6945(6) 0.9847(3) 0.9688(6)
H16 H 0.6388 1.0204 0.9517
C17 C 0.7852(6) 0.9798(3) 0.9181(5)
H17 H 0.7919 1.0119 0.8670
C18 C 0.8680(5) 0.9256(3) 0.9445(5)
C19 C 0.9720(5) 0.9053(3) 0.9077(5)
C20 C 1.0180(6) 0.9398(3) 0.8228(5)
H18 H 1.0958 0.9186 0.8219
H19 H 1.0397 0.9848 0.8484
C21 C 0.9214(6) 0.9407(3) 0.7019(5)
H20 H 0.8422 0.9605 0.7024
H21 H 0.9540 0.9674 0.6532
C22 C 0.6412(6) 0.8737(3) 0.6191(6)
C23 C 0.6443(6) 0.8396(3) 0.7152(6)
H22 H 0.7076 0.8081 0.7464
C24 C 0.5544(7) 0.8516(4) 0.7664(6)
H23 H 0.5570 0.8276 0.8311
C25 C 0.4602(7) 0.8990(4) 0.7228(7)
C26 C 0.4583(7) 0.9324(4) 0.6260(8)
H24 H 0.3952 0.9640 0.5945
C27 C 0.5476(7) 0.9204(4) 0.5739(7)
H25 H 0.5445 0.9439 0.5084
C28 C 0.3653(8) 0.9147(4) 0.7824(7)
H26 H 0.3053 0.8791 0.7706
H27 H 0.3198 0.9543 0.7505
H28 H 0.4107 0.9205 0.8636
loop_
_geom_bond_atom_site_label_1
_geom_bond_atom_site_label_2
_geom_bond_site_symmetry_1
_geom_bond_site_symmetry_2
H1 N2 1_555 1_555
Br1 C1 1_555 1_555
S1 O2 1_555 1_555
O1 C11 1_555 1_555
O3 S1 1_555 1_555
N1 C7 1_555 1_555
N2 C12 1_555 1_555
N3 S1 1_555 1_555
H2 N3 1_555 1_555
C1 C2 1_555 1_555
C2 H3 1_555 1_555
C3 C2 1_555 1_555
H4 C3 1_555 1_555
C4 C3 1_555 1_555
H5 C4 1_555 1_555
C5 C4 1_555 1_555
H6 C5 1_555 1_555
C6 C1 1_555 1_555
C7 C6 1_555 1_555
H7 C7 1_555 1_555
C8 N1 1_555 1_555
H8 C8 1_555 1_555
H9 C8 1_555 1_555
C9 C8 1_555 1_555
H10 C9 1_555 1_555
H11 C9 1_555 1_555
C10 C9 1_555 1_555
H12 C10 1_555 1_555
H13 C10 1_555 1_555
C11 N1 1_555 1_555
C12 C7 1_555 1_555
C13 N2 1_555 1_555
C14 C13 1_555 1_555
H14 C14 1_555 1_555
C15 C14 1_555 1_555
H15 C15 1_555 1_555
C16 C15 1_555 1_555
H16 C16 1_555 1_555
C17 C16 1_555 1_555
H17 C17 1_555 1_555
C18 C13 1_555 1_555
C19 C12 1_555 1_555
C20 C19 1_555 1_555
H18 C20 1_555 1_555
H19 C20 1_555 1_555
C21 N3 1_555 1_555
H20 C21 1_555 1_555
H21 C21 1_555 1_555
C22 S1 1_555 1_555
C23 C22 1_555 1_555
H22 C23 1_555 1_555
C24 C23 1_555 1_555
H23 C24 1_555 1_555
C25 C24 1_555 1_555
C26 C25 1_555 1_555
H24 C26 1_555 1_555
C27 C22 1_555 1_555
H25 C27 1_555 1_555
C28 C25 1_555 1_555
H26 C28 1_555 1_555
H27 C28 1_555 1_555
H28 C28 1_555 1_555
C5 C6 1_555 1_555
C10 C11 1_555 1_555
C17 C18 1_555 1_555
C18 C19 1_555 1_555
C20 C21 1_555 1_555
C26 C27 1_555 1_555

#END
