
#######################################################################
#
#                 Cambridge Crystallographic Data Centre
#                                CCDC 
#
#######################################################################
#
# If this CIF has been generated from an entry in the Cambridge 
# Structural Database, then it will include bibliographic, chemical, 
# crystal, experimental, refinement or atomic coordinate data resulting 
# from the CCDC's data processing and validation procedures.
#
#######################################################################

data_ZIRLAP
_chemical_formula_moiety         'C15 H18 F3 N1 O2 S1'
_chemical_name_systematic        
2-Methyl-N-(2,2,2-trifluoro-1-(1-oxo-2,3-dihydro-1H-inden-2-yl)ethyl)propane-2-sulfinamide
_symmetry_cell_setting           orthorhombic
_symmetry_space_group_name_H-M   'P 21 21 21'
_symmetry_Int_Tables_number      19
_space_group_name_Hall           'P 2ac 2ab'
loop_
_symmetry_equiv_pos_site_id
_symmetry_equiv_pos_as_xyz
1 x,y,z
2 1/2-x,-y,1/2+z
3 -x,1/2+y,1/2-z
4 1/2+x,1/2-y,-z
_cell_length_a                   5.9565(9)
_cell_length_b                   14.401(2)
_cell_length_c                   19.337(3)
_cell_angle_alpha                90
_cell_angle_beta                 90
_cell_angle_gamma                90
_cell_volume                     1658.72
_exptl_crystal_description       block
_cell_formula_units_Z            4
loop_
_atom_site_label
_atom_site_type_symbol
_atom_site_fract_x
_atom_site_fract_y
_atom_site_fract_z
S1 S 0.82945(12) 0.58921(5) 0.19495(3)
N1 N 0.7568(4) 0.48272(15) 0.21758(12)
O1 O 1.2812(3) 0.39933(14) 0.19513(12)
C1 C 1.1247(5) 0.34514(18) 0.19755(14)
O2 O 0.6810(4) 0.66007(12) 0.22569(10)
C2 C 0.7496(4) 0.58551(19) 0.10243(13)
C3 C 0.8767(5) 0.43880(16) 0.27472(12)
H1 H 1.0120 0.4761 0.2825
C4 C 0.9572(5) 0.34155(18) 0.25617(13)
H2 H 1.0320 0.3150 0.2967
F1 F 0.6883(5) 0.52468(16) 0.36072(9)
C5 C 0.8667(6) 0.23274(18) 0.16651(14)
C6 C 1.0637(5) 0.27392(19) 0.14731(15)
C7 C 0.7749(5) 0.27282(18) 0.23183(15)
H3 H 0.7503 0.2247 0.2661
H4 H 0.6341 0.3047 0.2233
F2 F 0.8685(5) 0.40594(16) 0.39334(9)
F3 F 0.5572(5) 0.39177(19) 0.33879(11)
C8 C 0.8783(6) 0.5065(2) 0.06745(14)
H5 H 0.8216 0.4480 0.0835
H6 H 1.0349 0.5114 0.0786
H7 H 0.8593 0.5106 0.0182
C9 C 0.8278(8) 0.6800(2) 0.07427(16)
H8 H 0.8046 0.6820 0.0252
H9 H 0.9844 0.6883 0.0842
H10 H 0.7431 0.7287 0.0959
C10 C 0.4992(5) 0.5736(2) 0.09430(16)
H11 H 0.4228 0.6214 0.1196
H12 H 0.4554 0.5139 0.1119
H13 H 0.4601 0.5778 0.0462
C11 C 0.7465(8) 0.4409(3) 0.34152(18)
C12 C 0.7786(7) 0.1626(2) 0.1265(2)
H14 H 0.6458 0.1332 0.1392
C13 C 0.8922(12) 0.1366(4) 0.0666(3)
H15 H 0.8353 0.0893 0.0391
C14 C 1.1779(8) 0.2489(3) 0.08759(17)
H16 H 1.3113 0.2780 0.0750
C15 C 1.0869(12) 0.1802(4) 0.0482(2)
H17 H 1.1592 0.1625 0.0076
H18 H 0.628(4) 0.4642(15) 0.2130(10)
loop_
_geom_bond_atom_site_label_1
_geom_bond_atom_site_label_2
_geom_bond_site_symmetry_1
_geom_bond_site_symmetry_2
S1 N1 1_555 1_555
N1 C3 1_555 1_555
O1 C1 1_555 1_555
C1 C4 1_555 1_555
O2 S1 1_555 1_555
C2 S1 1_555 1_555
C3 H1 1_555 1_555
C4 C3 1_555 1_555
H2 C4 1_555 1_555
F1 C11 1_555 1_555
C5 C6 1_555 1_555
C6 C1 1_555 1_555
C7 C4 1_555 1_555
H3 C7 1_555 1_555
H4 C7 1_555 1_555
F2 C11 1_555 1_555
F3 C11 1_555 1_555
C8 C2 1_555 1_555
H5 C8 1_555 1_555
H6 C8 1_555 1_555
H7 C8 1_555 1_555
C9 C2 1_555 1_555
H8 C9 1_555 1_555
H9 C9 1_555 1_555
H10 C9 1_555 1_555
C10 C2 1_555 1_555
H11 C10 1_555 1_555
H12 C10 1_555 1_555
H13 C10 1_555 1_555
C11 C3 1_555 1_555
C12 C5 1_555 1_555
H14 C12 1_555 1_555
C13 C12 1_555 1_555
H15 C13 1_555 1_555
C14 C6 1_555 1_555
H16 C14 1_555 1_555
C15 C13 1_555 1_555
H17 C15 1_555 1_555
H18 N1 1_555 1_555
C5 C7 1_555 1_555
C14 C15 1_555 1_555

#END
