
#######################################################################
#
#                 Cambridge Crystallographic Data Centre
#                                CCDC 
#
#######################################################################
#
# If this CIF has been generated from an entry in the Cambridge 
# Structural Database, then it will include bibliographic, chemical, 
# crystal, experimental, refinement or atomic coordinate data resulting 
# from the CCDC's data processing and validation procedures.
#
#######################################################################

data_ZIRMAR
_chemical_formula_moiety         'C23 H15 Br2 N1 O1 S1'
_chemical_name_systematic        
5-{4-[bis(4-bromophenyl)amino]phenyl}thiophene-2-carbaldehyde
_symmetry_cell_setting           triclinic
_symmetry_space_group_name_H-M   'P -1'
_symmetry_Int_Tables_number      2
_space_group_name_Hall           '-P 1'
loop_
_symmetry_equiv_pos_site_id
_symmetry_equiv_pos_as_xyz
1 x,y,z
2 -x,-y,-z
_cell_length_a                   6.9784(4)
_cell_length_b                   7.3112(4)
_cell_length_c                   21.0187(13)
_cell_angle_alpha                81.743(5)
_cell_angle_beta                 89.701(5)
_cell_angle_gamma                71.272(5)
_cell_volume                     1004.12
_exptl_crystal_colour            'yellowish green'
_exptl_crystal_description       plate
_cell_formula_units_Z            2
_exptl_crystal_preparation       'slow evaporation,Luminescent'
loop_
_atom_site_label
_atom_site_type_symbol
_atom_site_fract_x
_atom_site_fract_y
_atom_site_fract_z
Br1 Br 0.03672(7) 0.06512(7) 0.21302(2)
Br2 Br 0.83097(8) 0.89926(8) -0.04489(2)
O1 O 1.2182(5) 0.7832(4) 0.60174(14)
N1 N 0.5509(5) 0.5988(4) 0.21244(14)
C1 C 0.3614(6) 0.1796(5) 0.25623(18)
H1 H 0.3919(6) 0.0646(5) 0.28532(18)
C2 C 0.1986(6) 0.2323(6) 0.21302(19)
C3 C 0.7376(6) 0.7444(5) 0.46063(18)
C4 C 0.6892(6) 0.7193(5) 0.39528(17)
C5 C 0.4303(6) 0.4727(5) 0.21284(17)
C6 C 0.7454(6) 0.8073(6) 0.03612(18)
C7 C 0.5979(6) 0.6453(5) 0.27263(17)
C8 C 0.4583(6) 0.6630(5) 0.32078(18)
H2 H 0.3326(6) 0.6508(5) 0.31239(18)
C9 C 0.4789(6) 0.3001(5) 0.25576(18)
H3 H 0.5907(6) 0.2655(5) 0.28424(18)
C10 C 0.5031(6) 0.6981(5) 0.38053(18)
H4 H 0.4073(6) 0.7079(5) 0.41191(18)
C11 C 0.9071(6) 0.7687(5) 0.56102(18)
C12 C 0.6175(6) 0.6700(5) 0.15326(17)
C13 C 0.1499(6) 0.4011(6) 0.16970(19)
H5 H 0.0403(6) 0.4332(6) 0.14048(19)
C14 C 0.8248(6) 0.7086(5) 0.34614(19)
H6 H 0.9477(6) 0.7275(5) 0.35375(19)
C15 C 0.7814(6) 0.6706(6) 0.28616(18)
H7 H 0.8764(6) 0.6618(6) 0.25457(18)
C16 C 0.2652(6) 0.5228(5) 0.16997(18)
H8 H 0.2321(6) 0.6388(5) 0.14129(18)
C17 C 1.0483(7) 0.7796(6) 0.6098(2)
H9 H 1.0030(7) 0.7842(6) 0.6514(2)
C18 C 0.6528(6) 0.8483(6) 0.14333(18)
H10 H 0.6321(6) 0.9235(6) 0.17644(18)
C19 C 0.7098(6) 0.6312(6) 0.04395(19)
H11 H 0.7283(6) 0.5586(6) 0.01021(19)
C20 C 0.7176(6) 0.9157(6) 0.0857(2)
H12 H 0.7427(6) 1.0343(6) 0.0802(2)
C21 C 0.6464(6) 0.5630(6) 0.10215(19)
H13 H 0.6226(6) 0.4438(6) 0.10741(19)
C22 C 0.6198(6) 0.7482(6) 0.5127(2)
H14 H 0.4885(6) 0.7431(6) 0.5108(2)
C23 C 0.7176(7) 0.7606(6) 0.5696(2)
H15 H 0.6577(7) 0.7630(6) 0.6092(2)
S1 S 0.97007(16) 0.75821(15) 0.48181(5)
loop_
_geom_bond_atom_site_label_1
_geom_bond_atom_site_label_2
_geom_bond_site_symmetry_1
_geom_bond_site_symmetry_2
Br1 C2 1_555 1_555
Br2 C6 1_555 1_555
O1 C17 1_555 1_555
N1 C5 1_555 1_555
C1 H1 1_555 1_555
C2 C1 1_555 1_555
C3 C4 1_555 1_555
C4 C10 1_555 1_555
C5 C9 1_555 1_555
C6 C19 1_555 1_555
C7 N1 1_555 1_555
C8 C7 1_555 1_555
H2 C8 1_555 1_555
C9 C1 1_555 1_555
H3 C9 1_555 1_555
C10 C8 1_555 1_555
H4 C10 1_555 1_555
C11 C17 1_555 1_555
C12 N1 1_555 1_555
C13 C2 1_555 1_555
H5 C13 1_555 1_555
C14 C4 1_555 1_555
H6 C14 1_555 1_555
C15 C7 1_555 1_555
H7 C15 1_555 1_555
C16 C5 1_555 1_555
H8 C16 1_555 1_555
C17 H9 1_555 1_555
C18 C12 1_555 1_555
H10 C18 1_555 1_555
C19 H11 1_555 1_555
C20 C6 1_555 1_555
H12 C20 1_555 1_555
C21 C12 1_555 1_555
H13 C21 1_555 1_555
C22 C3 1_555 1_555
H14 C22 1_555 1_555
C23 C11 1_555 1_555
H15 C23 1_555 1_555
S1 C3 1_555 1_555
C11 S1 1_555 1_555
C13 C16 1_555 1_555
C14 C15 1_555 1_555
C18 C20 1_555 1_555
C19 C21 1_555 1_555
C22 C23 1_555 1_555

#END
