
#######################################################################
#
#                 Cambridge Crystallographic Data Centre
#                                CCDC 
#
#######################################################################
#
# If this CIF has been generated from an entry in the Cambridge 
# Structural Database, then it will include bibliographic, chemical, 
# crystal, experimental, refinement or atomic coordinate data resulting 
# from the CCDC's data processing and validation procedures.
#
#######################################################################

data_ZIRQEZ
_chemical_formula_moiety         'C20 H19 N1 O4'
_chemical_name_systematic        
'methyl 2-[3-(2-methylphenyl)-5-(1-oxo-1-pyridin-2-yl)-2,3-dihydrofuran-2-yl]prop-2-enoate'
_symmetry_cell_setting           orthorhombic
_symmetry_space_group_name_H-M   'P 21 21 21'
_symmetry_Int_Tables_number      19
_space_group_name_Hall           'P 2ac 2ab'
loop_
_symmetry_equiv_pos_site_id
_symmetry_equiv_pos_as_xyz
1 x,y,z
2 1/2+x,1/2-y,-z
3 -x,1/2+y,1/2-z
4 1/2-x,-y,1/2+z
_cell_length_a                   7.166(4)
_cell_length_b                   14.461(6)
_cell_length_c                   16.297(7)
_cell_angle_alpha                90
_cell_angle_beta                 90
_cell_angle_gamma                90
_cell_volume                     1688.82
_exptl_crystal_colour            colorless
_exptl_crystal_description       block
_cell_formula_units_Z            4
loop_
_atom_site_label
_atom_site_type_symbol
_atom_site_fract_x
_atom_site_fract_y
_atom_site_fract_z
O1 O 0.0756(2) 0.61130(10) 0.65939(9)
O2 O 0.6456(2) 0.44648(10) 0.70791(8)
O3 O 0.1569(2) 0.49659(11) 0.57370(10)
O4 O 0.6356(2) 0.28300(11) 0.91717(9)
N1 N 0.7779(3) 0.33483(12) 0.90015(11)
C1 C -0.0966(3) 0.62037(16) 0.61360(15)
H1 H -0.068770 0.635910 0.557654
H2 H -0.171658 0.668307 0.637532
H3 H -0.163646 0.562922 0.615260
C2 C 0.1913(3) 0.54559(14) 0.63230(13)
C3 C 0.3663(3) 0.53610(13) 0.68129(12)
C4 C 0.4693(3) 0.44719(14) 0.66384(12)
H4 H 0.491859 0.441204 0.604774
C5 C 0.6205(3) 0.38918(14) 0.77618(12)
C6 C 0.7797(3) 0.39136(14) 0.83191(12)
C7 C 0.9346(3) 0.44692(15) 0.81772(13)
H5 H 0.934916 0.486180 0.772523
C8 C 1.0885(3) 0.44537(16) 0.86906(14)
H6 H 1.191456 0.482788 0.858890
C9 C 1.0844(3) 0.38614(17) 0.93641(14)
H7 H 1.186525 0.382751 0.971513
C10 C 0.3579(3) 0.36219(13) 0.69549(12)
H8 H 0.228997 0.380326 0.707584
C11 C 0.4609(3) 0.34228(14) 0.77461(12)
H9 H 0.418820 0.303124 0.815943
C12 C 0.9301(3) 0.33295(16) 0.95082(14)
H10 H 0.928496 0.294341 0.996452
C13 C 0.3589(3) 0.27777(13) 0.63938(12)
C14 C 0.1991(3) 0.22315(14) 0.62956(13)
C15 C 0.2117(3) 0.14435(14) 0.58027(14)
H11 H 0.106102 0.107927 0.572670
C16 C 0.3768(3) 0.11903(15) 0.54245(13)
H12 H 0.381862 0.065492 0.510909
C17 C 0.5343(3) 0.17336(15) 0.55158(14)
H13 H 0.645456 0.157251 0.525839
C18 C 0.5236(3) 0.25284(14) 0.60010(13)
H14 H 0.628805 0.289828 0.606254
C19 C 0.0152(3) 0.24807(16) 0.66872(15)
H15 H 0.030443 0.251539 0.727168
H16 H -0.075840 0.201653 0.655682
H17 H -0.025962 0.306870 0.648252
C20 C 0.4211(3) 0.60066(14) 0.73417(14)
H18 H 0.349579 0.653700 0.741518
H19 H 0.530817 0.592780 0.763812
loop_
_geom_bond_atom_site_label_1
_geom_bond_atom_site_label_2
_geom_bond_site_symmetry_1
_geom_bond_site_symmetry_2
O1 C1 1_555 1_555
O2 C4 1_555 1_555
O3 C2 1_555 1_555
O4 N1 1_555 1_555
N1 C6 1_555 1_555
C1 H1 1_555 1_555
H2 C1 1_555 1_555
H3 C1 1_555 1_555
C2 O1 1_555 1_555
C3 C2 1_555 1_555
C4 C3 1_555 1_555
H4 C4 1_555 1_555
C5 O2 1_555 1_555
C6 C5 1_555 1_555
C7 C6 1_555 1_555
H5 C7 1_555 1_555
C8 C7 1_555 1_555
H6 C8 1_555 1_555
C9 C8 1_555 1_555
H7 C9 1_555 1_555
C10 C4 1_555 1_555
H8 C10 1_555 1_555
C11 C5 1_555 1_555
H9 C11 1_555 1_555
C12 N1 1_555 1_555
H10 C12 1_555 1_555
C13 C10 1_555 1_555
C14 C13 1_555 1_555
C15 C14 1_555 1_555
H11 C15 1_555 1_555
C16 C15 1_555 1_555
H12 C16 1_555 1_555
C17 C16 1_555 1_555
H13 C17 1_555 1_555
C18 C13 1_555 1_555
H14 C18 1_555 1_555
C19 C14 1_555 1_555
H15 C19 1_555 1_555
H16 C19 1_555 1_555
H17 C19 1_555 1_555
C20 C3 1_555 1_555
H18 C20 1_555 1_555
H19 C20 1_555 1_555
C9 C12 1_555 1_555
C10 C11 1_555 1_555
C17 C18 1_555 1_555

#END
