
#######################################################################
#
#                 Cambridge Crystallographic Data Centre
#                                CCDC 
#
#######################################################################
#
# If this CIF has been generated from an entry in the Cambridge 
# Structural Database, then it will include bibliographic, chemical, 
# crystal, experimental, refinement or atomic coordinate data resulting 
# from the CCDC's data processing and validation procedures.
#
#######################################################################

data_ZIRSAX
_chemical_formula_moiety         'C19 H18 Cl1 F1 O2'
_chemical_name_systematic        
'ethyl 1-(3-chlorophenyl)-2-(fluoromethyl)-2-phenylcyclopropane-1-carboxylate'
_symmetry_cell_setting           monoclinic
_symmetry_space_group_name_H-M   'P 21'
_symmetry_Int_Tables_number      4
_space_group_name_Hall           'P 2yb'
loop_
_symmetry_equiv_pos_site_id
_symmetry_equiv_pos_as_xyz
1 x,y,z
2 -x,1/2+y,-z
_cell_length_a                   8.1792(13)
_cell_length_b                   22.368(4)
_cell_length_c                   9.6410(15)
_cell_angle_alpha                90
_cell_angle_beta                 90.631(3)
_cell_angle_gamma                90
_cell_volume                     1763.74
_exptl_crystal_colour            colorless
_exptl_crystal_description       prism
_cell_formula_units_Z            4
loop_
_atom_site_label
_atom_site_type_symbol
_atom_site_fract_x
_atom_site_fract_y
_atom_site_fract_z
C1 C 0.8424(5) 0.54347(18) 0.6365(4)
H1 H 0.8742 0.5041 0.6517
C2 C 0.7174(5) 0.5567(2) 0.5408(5)
C3 C 0.6657(5) 0.6141(2) 0.5207(4)
H2 H 0.581 0.6221 0.4584
C4 C 0.7389(5) 0.6596(2) 0.5924(5)
H3 H 0.7035 0.6987 0.5793
C5 C 0.8665(5) 0.64757(19) 0.6853(4)
H4 H 0.9174 0.6789 0.7324
C6 C 0.9179(4) 0.58959(17) 0.7080(4)
C7 C 1.0570(4) 0.57735(16) 0.8066(4)
C8 C 1.1805(5) 0.52958(16) 0.7732(4)
H5 H 1.2284 0.5076 0.8503
H6 H 1.1613 0.5059 0.6904
C9 C 1.2335(4) 0.59333(17) 0.7538(4)
C10 C 1.3570(5) 0.61706(19) 0.8571(4)
H7 H 1.3642 0.5901 0.9357
H8 H 1.4637 0.6188 0.8143
C11 C 1.2417(4) 0.61876(17) 0.6097(4)
C12 C 1.2381(5) 0.5827(2) 0.4926(4)
H9 H 1.2287 0.5415 0.5035
C13 C 1.2479(6) 0.6059(3) 0.3615(5)
H10 H 1.2449 0.5805 0.285
C14 C 1.2618(6) 0.6653(3) 0.3431(6)
H11 H 1.269 0.681 0.254
C15 C 1.2654(7) 0.7034(2) 0.4573(6)
H12 H 1.2735 0.7445 0.4451
C16 C 1.2569(6) 0.6794(2) 0.5889(5)
H13 H 1.2616 0.7048 0.6653
C17 C 1.0255(5) 0.58569(18) 0.9589(4)
C18 C 0.8454(6) 0.6261(3) 1.1268(4)
H14 H 0.934 0.6451 1.1779
H15 H 0.8213 0.588 1.1703
C19 C 0.6996(7) 0.6646(3) 1.1256(6)
H16 H 0.7182 0.6985 1.0668
H17 H 0.678 0.678 1.2181
H18 H 0.6074 0.6423 1.0909
Cl1 Cl 0.62819(18) 0.49870(8) 0.4488(2)
F1 F 1.3135(4) 0.67405(11) 0.9032(3)
O1 O 1.1102(4) 0.56541(15) 1.0507(3)
O2 O 0.8906(3) 0.61721(14) 0.9823(3)
Cl2 Cl 0.62101(16) 0.48828(7) 0.96593(19)
C20 C 0.3991(5) 0.44084(18) 1.1393(4)
H19 H 0.3679 0.4801 1.1564
C21 C 0.5235(5) 0.4291(2) 1.0496(5)
C22 C 0.5739(5) 0.3715(2) 1.0224(5)
H20 H 0.6582 0.3642 0.9606
C23 C 0.4973(5) 0.3250(2) 1.0881(5)
H21 H 0.5305 0.2859 1.0717
C24 C 0.3710(5) 0.33602(19) 1.1786(4)
H22 H 0.32 0.3042 1.2225
C25 C 0.3193(4) 0.39399(18) 1.2049(4)
C26 C 0.1804(5) 0.40567(17) 1.3016(4)
C27 C 0.0544(5) 0.45209(17) 1.2676(4)
H23 H 0.0077 0.4741 1.3443
H24 H 0.0697 0.4755 1.184
C28 C 0.0052(5) 0.38867(17) 1.2506(4)
C29 C -0.1101(7) 0.3638(2) 1.3584(5)
H25 H -0.1196 0.392 1.4343
H26 H -0.2178 0.3585 1.3171
C30 C -0.0089(4) 0.36123(17) 1.1081(4)
C31 C 0.0112(5) 0.3946(2) 0.9891(4)
H27 H 0.035 0.4352 0.9962
C32 C -0.0034(5) 0.3686(3) 0.8601(5)
H28 H 0.0123 0.3917 0.7811
C33 C -0.0408(6) 0.3092(3) 0.8468(5)
H29 H -0.0517 0.292 0.7594
C34 C -0.0622(6) 0.2752(2) 0.9645(6)
H30 H -0.0872 0.2348 0.9566
C35 C -0.0466(5) 0.30079(19) 1.0927(5)
H31 H -0.0615 0.2774 1.1713
C36 C 0.2168(7) 0.3989(2) 1.4551(5)
C37 C 0.4251(17) 0.3647(4) 1.6264(7)
H32 H 0.5419 0.3721 1.6267
H33 H 0.3723 0.3928 1.6881
C38 C 0.393(2) 0.3107(5) 1.6589(11)
H34 H 0.2766 0.3049 1.6584
H35 H 0.4361 0.3024 1.7498
H36 H 0.4417 0.2842 1.5929
F2 F -0.0541(5) 0.30929(15) 1.4095(3)
O3 O 0.1347(5) 0.41946(17) 1.5455(3)
O4 O 0.3511(6) 0.3676(2) 1.4774(3)
loop_
_geom_bond_atom_site_label_1
_geom_bond_atom_site_label_2
_geom_bond_site_symmetry_1
_geom_bond_site_symmetry_2
C1 H1 1_555 1_555
C2 C1 1_555 1_555
C3 C2 1_555 1_555
H2 C3 1_555 1_555
C4 C3 1_555 1_555
H3 C4 1_555 1_555
C5 C4 1_555 1_555
H4 C5 1_555 1_555
C6 C1 1_555 1_555
C7 C6 1_555 1_555
C8 C7 1_555 1_555
H5 C8 1_555 1_555
H6 C8 1_555 1_555
C9 C7 1_555 1_555
C10 C9 1_555 1_555
H7 C10 1_555 1_555
H8 C10 1_555 1_555
C11 C9 1_555 1_555
C12 C11 1_555 1_555
H9 C12 1_555 1_555
C13 C12 1_555 1_555
H10 C13 1_555 1_555
C14 C13 1_555 1_555
H11 C14 1_555 1_555
C15 C14 1_555 1_555
H12 C15 1_555 1_555
C16 C11 1_555 1_555
H13 C16 1_555 1_555
C17 C7 1_555 1_555
C18 H14 1_555 1_555
H15 C18 1_555 1_555
C19 C18 1_555 1_555
H16 C19 1_555 1_555
H17 C19 1_555 1_555
H18 C19 1_555 1_555
Cl1 C2 1_555 1_555
F1 C10 1_555 1_555
O1 C17 1_555 1_555
O2 C17 1_555 1_555
Cl2 C21 1_555 1_555
C20 H19 1_555 1_555
C21 C20 1_555 1_555
C22 C21 1_555 1_555
H20 C22 1_555 1_555
C23 C22 1_555 1_555
H21 C23 1_555 1_555
C24 C23 1_555 1_555
H22 C24 1_555 1_555
C25 C20 1_555 1_555
C26 C25 1_555 1_555
C27 C26 1_555 1_555
H23 C27 1_555 1_555
H24 C27 1_555 1_555
C28 C26 1_555 1_555
C29 C28 1_555 1_555
H25 C29 1_555 1_555
H26 C29 1_555 1_555
C30 C28 1_555 1_555
C31 C30 1_555 1_555
H27 C31 1_555 1_555
C32 C31 1_555 1_555
H28 C32 1_555 1_555
C33 C32 1_555 1_555
H29 C33 1_555 1_555
C34 C33 1_555 1_555
H30 C34 1_555 1_555
C35 C30 1_555 1_555
H31 C35 1_555 1_555
C36 C26 1_555 1_555
C37 H32 1_555 1_555
H33 C37 1_555 1_555
C38 C37 1_555 1_555
H34 C38 1_555 1_555
H35 C38 1_555 1_555
H36 C38 1_555 1_555
F2 C29 1_555 1_555
O3 C36 1_555 1_555
O4 C36 1_555 1_555
C5 C6 1_555 1_555
C8 C9 1_555 1_555
C15 C16 1_555 1_555
C18 O2 1_555 1_555
C24 C25 1_555 1_555
C27 C28 1_555 1_555
C34 C35 1_555 1_555
C37 O4 1_555 1_555

#END
