
#######################################################################
#
#                 Cambridge Crystallographic Data Centre
#                                CCDC 
#
#######################################################################
#
# If this CIF has been generated from an entry in the Cambridge 
# Structural Database, then it will include bibliographic, chemical, 
# crystal, experimental, refinement or atomic coordinate data resulting 
# from the CCDC's data processing and validation procedures.
#
#######################################################################

data_ZIRYUX
_chemical_formula_moiety         'C15 H20 N2 O3'
_chemical_name_systematic        
't-butyl (1,2-dimethyl-3-oxo-2,3-dihydro-1H-indol-2-yl)carbamate'
_symmetry_cell_setting           triclinic
_symmetry_space_group_name_H-M   'P -1'
_symmetry_Int_Tables_number      2
_space_group_name_Hall           '-P 1'
loop_
_symmetry_equiv_pos_site_id
_symmetry_equiv_pos_as_xyz
1 x,y,z
2 -x,-y,-z
_cell_length_a                   6.29480(10)
_cell_length_b                   10.9955(2)
_cell_length_c                   11.2044(2)
_cell_angle_alpha                81.2899(9)
_cell_angle_beta                 89.5727(10)
_cell_angle_gamma                75.9519(9)
_cell_volume                     743.289
_exptl_crystal_colour            yellow
_exptl_crystal_description       plate
_cell_formula_units_Z            2
_exptl_crystal_recrystallization_method 'used as recieved'
loop_
_atom_site_label
_atom_site_type_symbol
_atom_site_fract_x
_atom_site_fract_y
_atom_site_fract_z
O1 O 0.26898(14) 0.35764(9) 0.94395(8)
O2 O 0.03319(14) 0.75261(8) 0.81289(8)
O3 O 0.22794(14) 0.59798(8) 0.71235(8)
N1 N -0.07250(16) 0.57463(9) 0.81926(9)
H1 H -0.1867 0.6137 0.8564
N2 N -0.06388(17) 0.42715(9) 0.67781(9)
C1 C -0.04825(19) 0.44353(11) 0.80512(10)
C2 C 0.18262(19) 0.35937(11) 0.84666(10)
C3 C 0.2604(2) 0.28733(11) 0.75018(11)
C4 C 0.4519(2) 0.19391(12) 0.74154(12)
H2 H 0.5551 0.1652 0.8073
C5 C 0.4880(2) 0.14397(13) 0.63510(14)
H3 H 0.6178 0.0807 0.6268
C6 C 0.3332(2) 0.18678(13) 0.53977(13)
H4 H 0.3615 0.1518 0.4671
C7 C 0.1410(2) 0.27773(12) 0.54685(11)
H5 H 0.0361 0.3035 0.4817
C8 C 0.1064(2) 0.33083(11) 0.65399(11)
C9 C -0.2723(2) 0.46215(12) 0.61122(12)
H6 H -0.3485 0.3940 0.6300
H7 H -0.2467 0.4755 0.5244
H8 H -0.3625 0.5406 0.6343
C10 C -0.2191(2) 0.39255(13) 0.88117(12)
H9 H -0.1961 0.3991 0.9662
H10 H -0.2047 0.3035 0.8729
H11 H -0.3661 0.4424 0.8533
C11 C 0.07893(19) 0.63853(11) 0.77589(10)
C12 C 0.1637(2) 0.84570(11) 0.77410(12)
C13 C 0.1363(3) 0.88632(13) 0.63876(13)
H12 H 0.2093 0.8155 0.5978
H13 H 0.2018 0.9583 0.6150
H14 H -0.0200 0.9115 0.6159
C14 C 0.0570(3) 0.95399(14) 0.84082(16)
H15 H -0.0995 0.9822 0.8186
H16 H 0.1263 1.0247 0.8189
H17 H 0.0753 0.9250 0.9281
C15 C 0.4017(2) 0.79299(14) 0.81372(14)
H18 H 0.4116 0.7608 0.9005
H19 H 0.4801 0.8603 0.7972
H20 H 0.4676 0.7238 0.7691
loop_
_geom_bond_atom_site_label_1
_geom_bond_atom_site_label_2
_geom_bond_site_symmetry_1
_geom_bond_site_symmetry_2
O1 C2 1_555 1_555
O2 C11 1_555 1_555
O3 C11 1_555 1_555
N1 H1 1_555 1_555
N2 C1 1_555 1_555
C1 N1 1_555 1_555
C2 C1 1_555 1_555
C3 C2 1_555 1_555
C4 C3 1_555 1_555
H2 C4 1_555 1_555
C5 C4 1_555 1_555
H3 C5 1_555 1_555
C6 C5 1_555 1_555
H4 C6 1_555 1_555
C7 C6 1_555 1_555
H5 C7 1_555 1_555
C8 N2 1_555 1_555
C9 N2 1_555 1_555
H6 C9 1_555 1_555
H7 C9 1_555 1_555
H8 C9 1_555 1_555
C10 C1 1_555 1_555
H9 C10 1_555 1_555
H10 C10 1_555 1_555
H11 C10 1_555 1_555
C11 N1 1_555 1_555
C12 O2 1_555 1_555
C13 C12 1_555 1_555
H12 C13 1_555 1_555
H13 C13 1_555 1_555
H14 C13 1_555 1_555
C14 C12 1_555 1_555
H15 C14 1_555 1_555
H16 C14 1_555 1_555
H17 C14 1_555 1_555
C15 C12 1_555 1_555
H18 C15 1_555 1_555
H19 C15 1_555 1_555
H20 C15 1_555 1_555
C3 C8 1_555 1_555
C7 C8 1_555 1_555

#END
