
#######################################################################
#
#                 Cambridge Crystallographic Data Centre
#                                CCDC 
#
#######################################################################
#
# If this CIF has been generated from an entry in the Cambridge 
# Structural Database, then it will include bibliographic, chemical, 
# crystal, experimental, refinement or atomic coordinate data resulting 
# from the CCDC's data processing and validation procedures.
#
#######################################################################

data_ZIRZEI
_chemical_formula_moiety         'C16 H22 N2 O3'
_chemical_name_systematic        
't-butyl [(1,3-dimethyl-1H-indol-2-yl)methoxy]carbamate'
_symmetry_cell_setting           monoclinic
_symmetry_space_group_name_H-M   'P 21/c'
_symmetry_Int_Tables_number      14
_space_group_name_Hall           '-P 2ybc'
loop_
_symmetry_equiv_pos_site_id
_symmetry_equiv_pos_as_xyz
1 x,y,z
2 -x,1/2+y,1/2-z
3 -x,-y,-z
4 x,1/2-y,1/2+z
_cell_length_a                   10.0850(2)
_cell_length_b                   17.2469(3)
_cell_length_c                   9.1930(2)
_cell_angle_alpha                90
_cell_angle_beta                 101.3510(10)
_cell_angle_gamma                90
_cell_volume                     1567.71
_exptl_crystal_colour            colorless
_exptl_crystal_description       needle
_cell_formula_units_Z            4
_exptl_crystal_recrystallization_method 'used as received'
loop_
_atom_site_label
_atom_site_type_symbol
_atom_site_fract_x
_atom_site_fract_y
_atom_site_fract_z
O1 O 0.50554(12) 0.73622(8) 0.57262(15)
O2 O 0.17482(12) 0.80544(8) 0.49689(14)
O3 O 0.33741(14) 0.81647(9) 0.35658(15)
N1 N 0.37716(14) 0.76133(10) 0.58630(17)
H1 H 0.3479 0.7548 0.6695
N2 N 0.48702(14) 0.56109(10) 0.66797(16)
C1 C 0.49786(18) 0.66628(11) 0.4826(2)
H2 H 0.5907 0.6497 0.4771
H3 H 0.4499 0.6785 0.3806
C2 C 0.42748(17) 0.60100(11) 0.54068(19)
C3 C 0.30402(17) 0.56912(11) 0.48303(19)
C4 C 0.28582(17) 0.50555(11) 0.5765(2)
C5 C 0.1836(2) 0.45030(12) 0.5727(2)
H4 H 0.1048 0.4515 0.4965
C6 C 0.1989(2) 0.39397(12) 0.6815(3)
H5 H 0.1302 0.3561 0.6795
C7 C 0.3142(2) 0.39177(13) 0.7945(2)
H6 H 0.3221 0.3524 0.8679
C8 C 0.4164(2) 0.44535(13) 0.8017(2)
H7 H 0.4942 0.4437 0.8791
C9 C 0.40192(18) 0.50230(11) 0.6915(2)
C10 C 0.61257(19) 0.58237(14) 0.7662(2)
H8 H 0.6825 0.5914 0.7077
H9 H 0.6411 0.5403 0.8371
H10 H 0.5989 0.6298 0.8200
C11 C 0.2046(2) 0.59558(13) 0.3488(2)
H11 H 0.1332 0.6262 0.3800
H12 H 0.1644 0.5503 0.2923
H13 H 0.2512 0.6276 0.2863
C12 C 0.29887(18) 0.79611(10) 0.46782(19)
C13 C 0.07294(19) 0.85357(11) 0.3987(2)
C14 C 0.1233(2) 0.93615(13) 0.3986(3)
H14 H 0.1466 0.9553 0.5008
H15 H 0.0524 0.9689 0.3413
H16 H 0.2037 0.9378 0.3536
C15 C 0.0407(3) 0.81859(15) 0.2433(2)
H17 H 0.1142 0.8303 0.1913
H18 H -0.0440 0.8407 0.1883
H19 H 0.0309 0.7623 0.2507
C16 C -0.0475(2) 0.84788(14) 0.4742(2)
H20 H -0.0781 0.7939 0.4729
H21 H -0.1211 0.8805 0.4215
H22 H -0.0213 0.8656 0.5772
loop_
_geom_bond_atom_site_label_1
_geom_bond_atom_site_label_2
_geom_bond_site_symmetry_1
_geom_bond_site_symmetry_2
O1 N1 1_555 1_555
O2 C12 1_555 1_555
O3 C12 1_555 1_555
N1 H1 1_555 1_555
N2 C2 1_555 1_555
C1 O1 1_555 1_555
H2 C1 1_555 1_555
H3 C1 1_555 1_555
C2 C1 1_555 1_555
C3 C2 1_555 1_555
C4 C3 1_555 1_555
C5 C4 1_555 1_555
H4 C5 1_555 1_555
C6 C5 1_555 1_555
H5 C6 1_555 1_555
C7 C6 1_555 1_555
H6 C7 1_555 1_555
C8 C7 1_555 1_555
H7 C8 1_555 1_555
C9 N2 1_555 1_555
C10 N2 1_555 1_555
H8 C10 1_555 1_555
H9 C10 1_555 1_555
H10 C10 1_555 1_555
C11 C3 1_555 1_555
H11 C11 1_555 1_555
H12 C11 1_555 1_555
H13 C11 1_555 1_555
C12 N1 1_555 1_555
C13 O2 1_555 1_555
C14 C13 1_555 1_555
H14 C14 1_555 1_555
H15 C14 1_555 1_555
H16 C14 1_555 1_555
C15 C13 1_555 1_555
H17 C15 1_555 1_555
H18 C15 1_555 1_555
H19 C15 1_555 1_555
C16 C13 1_555 1_555
H20 C16 1_555 1_555
H21 C16 1_555 1_555
H22 C16 1_555 1_555
C4 C9 1_555 1_555
C8 C9 1_555 1_555

#END
