
#######################################################################
#
#                 Cambridge Crystallographic Data Centre
#                                CCDC 
#
#######################################################################
#
# If this CIF has been generated from an entry in the Cambridge 
# Structural Database, then it will include bibliographic, chemical, 
# crystal, experimental, refinement or atomic coordinate data resulting 
# from the CCDC's data processing and validation procedures.
#
#######################################################################

data_ZIRZAE
_chemical_formula_moiety         'C16 H22 N2 O3'
_chemical_name_systematic        
't-butyl [(1,3-dimethyl-1H-indol-2-yl)methyl]hydroxycarbamate'
_symmetry_cell_setting           monoclinic
_symmetry_space_group_name_H-M   'P 21/c'
_symmetry_Int_Tables_number      14
_space_group_name_Hall           '-P 2ybc'
loop_
_symmetry_equiv_pos_site_id
_symmetry_equiv_pos_as_xyz
1 x,y,z
2 -x,1/2+y,1/2-z
3 -x,-y,-z
4 x,1/2-y,1/2+z
_cell_length_a                   12.1198(5)
_cell_length_b                   16.2040(7)
_cell_length_c                   7.9546(3)
_cell_angle_alpha                90
_cell_angle_beta                 96.038(2)
_cell_angle_gamma                90
_cell_volume                     1553.53
_exptl_crystal_colour            colorless
_exptl_crystal_description       needle
_cell_formula_units_Z            4
_exptl_crystal_recrystallization_method 'used as received'
loop_
_atom_site_label
_atom_site_type_symbol
_atom_site_fract_x
_atom_site_fract_y
_atom_site_fract_z
O1 O 0.79205(8) 0.19794(6) 0.48426(12)
O2 O 0.68403(8) 0.14382(6) 0.25936(12)
O3 O 0.70700(9) 0.34301(6) 0.42921(13)
N1 N 0.65656(10) 0.27320(7) 0.35095(15)
N2 N 0.38905(10) 0.26150(7) 0.35206(15)
C1 C 0.71187(11) 0.20097(8) 0.35667(17)
C2 C 0.56576(12) 0.29262(9) 0.22174(17)
H1 H 0.5496 0.2436 0.1491
H2 H 0.5892 0.3378 0.1496
C3 C 0.46241(11) 0.31802(9) 0.29534(17)
C4 C 0.42600(11) 0.39692(9) 0.31728(17)
C5 C 0.32370(11) 0.38994(9) 0.39001(17)
C6 C 0.24939(13) 0.44838(10) 0.44312(19)
H3 H 0.2626 0.5058 0.4316
C7 C 0.15647(13) 0.42051(12) 0.5126(2)
H4 H 0.1054 0.4594 0.5491
C8 C 0.13628(13) 0.33604(12) 0.5302(2)
H5 H 0.0715 0.3188 0.5783
C9 C 0.20817(13) 0.27710(10) 0.4795(2)
H6 H 0.1941 0.2198 0.4916
C10 C 0.30252(12) 0.30505(9) 0.40955(17)
C11 C 0.48051(13) 0.47508(10) 0.2708(2)
H7 H 0.5611 0.4699 0.2965
H8 H 0.4537 0.5210 0.3357
H9 H 0.4626 0.4856 0.1497
C12 C 0.39500(13) 0.17151(9) 0.34368(19)
H10 H 0.3376 0.1511 0.2578
H11 H 0.3832 0.1481 0.4539
H12 H 0.4682 0.1550 0.3137
C13 C 0.86298(12) 0.12299(9) 0.51120(19)
C14 C 0.92933(14) 0.11285(12) 0.3607(2)
H13 H 0.8786 0.1022 0.2588
H14 H 0.9807 0.0664 0.3810
H15 H 0.9714 0.1634 0.3453
C15 C 0.79316(14) 0.04807(10) 0.5434(2)
H16 H 0.7457 0.0608 0.6324
H17 H 0.8419 0.0017 0.5793
H18 H 0.7468 0.0333 0.4394
C16 C 0.93749(14) 0.14549(11) 0.6704(2)
H19 H 0.9790 0.1958 0.6502
H20 H 0.9895 0.1002 0.7003
H21 H 0.8919 0.1550 0.7633
H22 H 0.6921(17) 0.3425(13) 0.541(3)
loop_
_geom_bond_atom_site_label_1
_geom_bond_atom_site_label_2
_geom_bond_site_symmetry_1
_geom_bond_site_symmetry_2
O1 C1 1_555 1_555
O2 C1 1_555 1_555
O3 N1 1_555 1_555
N1 C1 1_555 1_555
N2 C3 1_555 1_555
C2 N1 1_555 1_555
H1 C2 1_555 1_555
H2 C2 1_555 1_555
C3 C2 1_555 1_555
C4 C3 1_555 1_555
C5 C4 1_555 1_555
C6 C5 1_555 1_555
H3 C6 1_555 1_555
C7 C6 1_555 1_555
H4 C7 1_555 1_555
C8 C7 1_555 1_555
H5 C8 1_555 1_555
C9 C8 1_555 1_555
H6 C9 1_555 1_555
C10 N2 1_555 1_555
C11 C4 1_555 1_555
H7 C11 1_555 1_555
H8 C11 1_555 1_555
H9 C11 1_555 1_555
C12 N2 1_555 1_555
H10 C12 1_555 1_555
H11 C12 1_555 1_555
H12 C12 1_555 1_555
C13 O1 1_555 1_555
C14 C13 1_555 1_555
H13 C14 1_555 1_555
H14 C14 1_555 1_555
H15 C14 1_555 1_555
C15 C13 1_555 1_555
H16 C15 1_555 1_555
H17 C15 1_555 1_555
H18 C15 1_555 1_555
C16 C13 1_555 1_555
H19 C16 1_555 1_555
H20 C16 1_555 1_555
H21 C16 1_555 1_555
H22 O3 1_555 1_555
C5 C10 1_555 1_555
C9 C10 1_555 1_555

#END
