
#######################################################################
#
#                 Cambridge Crystallographic Data Centre
#                                CCDC 
#
#######################################################################
#
# If this CIF has been generated from an entry in the Cambridge 
# Structural Database, then it will include bibliographic, chemical, 
# crystal, experimental, refinement or atomic coordinate data resulting 
# from the CCDC's data processing and validation procedures.
#
#######################################################################

data_ZISNUN
_chemical_formula_moiety         'C18 H20 Cl1 N1 O3'
_chemical_name_systematic        
"methyl 5'-(3-chlorophenyl)-3-oxospiro[bicyclo[2.2.1]heptane-2,3'-pyrrolidine]-2'-carboxylate"
_symmetry_cell_setting           orthorhombic
_symmetry_space_group_name_H-M   'P 21 21 21'
_symmetry_Int_Tables_number      19
_space_group_name_Hall           'P 2ac 2ab'
loop_
_symmetry_equiv_pos_site_id
_symmetry_equiv_pos_as_xyz
1 x,y,z
2 1/2-x,-y,1/2+z
3 -x,1/2+y,1/2-z
4 1/2+x,1/2-y,-z
_cell_length_a                   6.7241(16)
_cell_length_b                   6.8383(16)
_cell_length_c                   35.075(8)
_cell_angle_alpha                90
_cell_angle_beta                 90
_cell_angle_gamma                90
_cell_volume                     1612.8
_exptl_crystal_colour            colorless
_exptl_crystal_description       block
_cell_formula_units_Z            4
loop_
_atom_site_label
_atom_site_type_symbol
_atom_site_fract_x
_atom_site_fract_y
_atom_site_fract_z
C1 C 0.2400(4) 0.3502(5) 0.77419(8)
C2 C 0.2934(4) 0.1592(5) 0.76978(9)
H1 H 0.323617 0.082055 0.790835
C3 C 0.3016(5) 0.0829(5) 0.73338(9)
H2 H 0.337686 -0.047198 0.729891
C4 C 0.2570(5) 0.1968(5) 0.70220(8)
H3 H 0.263192 0.142854 0.677889
C5 C 0.2032(4) 0.3901(4) 0.70658(8)
C6 C 0.1956(4) 0.4674(5) 0.74330(7)
H4 H 0.160703 0.597629 0.746993
C7 C 0.1501(4) 0.5174(4) 0.67308(7)
H5 H 0.140298 0.652905 0.681959
C8 C -0.0471(4) 0.5305(4) 0.61738(7)
H6 H -0.135587 0.644177 0.616135
C9 C 0.2925(4) 0.5115(5) 0.63912(7)
H7 H 0.410996 0.588220 0.644166
H8 H 0.331387 0.378254 0.633267
C10 C -0.1310(4) 0.3723(5) 0.59198(8)
C11 C -0.2450(5) 0.3050(5) 0.52988(8)
H9 H -0.154762 0.196398 0.528638
H10 H -0.251903 0.367327 0.505394
H11 H -0.374721 0.259158 0.536993
C12 C 0.1722(4) 0.5999(4) 0.60670(7)
C13 C 0.2391(4) 0.5334(4) 0.56714(7)
C14 C 0.2575(5) 0.7151(5) 0.54314(8)
H12 H 0.246657 0.695220 0.515552
C15 C 0.4495(5) 0.8134(6) 0.55677(10)
H13 H 0.488715 0.917956 0.539663
H14 H 0.557198 0.719540 0.558641
C16 C 0.3930(6) 0.8942(5) 0.59638(10)
H15 H 0.479105 0.841411 0.616037
H16 H 0.400947 1.035844 0.596861
C17 C 0.1789(5) 0.8248(4) 0.60168(8)
H17 H 0.103559 0.897789 0.620889
C18 C 0.1002(5) 0.8473(5) 0.56079(9)
H18 H -0.033629 0.796826 0.557717
H19 H 0.107695 0.980875 0.551581
Cl1 Cl 0.23317(14) 0.45164(15) 0.81973(2)
N1 N -0.0421(3) 0.4611(4) 0.65655(6)
H20 H -0.135298 0.398160 0.668007
O1 O -0.1547(4) 0.2059(3) 0.60120(6)
O2 O -0.1755(3) 0.4429(3) 0.55775(5)
O3 O 0.2749(4) 0.3674(3) 0.55803(6)
loop_
_geom_bond_atom_site_label_1
_geom_bond_atom_site_label_2
_geom_bond_site_symmetry_1
_geom_bond_site_symmetry_2
C1 C2 1_555 1_555
C2 H1 1_555 1_555
C3 C2 1_555 1_555
H2 C3 1_555 1_555
C4 C3 1_555 1_555
H3 C4 1_555 1_555
C5 C4 1_555 1_555
C6 C1 1_555 1_555
H4 C6 1_555 1_555
C7 C5 1_555 1_555
H5 C7 1_555 1_555
C8 H6 1_555 1_555
C9 C7 1_555 1_555
H7 C9 1_555 1_555
H8 C9 1_555 1_555
C10 C8 1_555 1_555
C11 H9 1_555 1_555
H10 C11 1_555 1_555
H11 C11 1_555 1_555
C12 C8 1_555 1_555
C13 C12 1_555 1_555
C14 C13 1_555 1_555
H12 C14 1_555 1_555
C15 C14 1_555 1_555
H13 C15 1_555 1_555
H14 C15 1_555 1_555
C16 C15 1_555 1_555
H15 C16 1_555 1_555
H16 C16 1_555 1_555
C17 C12 1_555 1_555
H17 C17 1_555 1_555
C18 C14 1_555 1_555
H18 C18 1_555 1_555
H19 C18 1_555 1_555
Cl1 C1 1_555 1_555
N1 C7 1_555 1_555
H20 N1 1_555 1_555
O1 C10 1_555 1_555
O2 C10 1_555 1_555
O3 C13 1_555 1_555
C5 C6 1_555 1_555
C8 N1 1_555 1_555
C9 C12 1_555 1_555
C11 O2 1_555 1_555
C16 C17 1_555 1_555
C17 C18 1_555 1_555

#END
