
#######################################################################
#
#                 Cambridge Crystallographic Data Centre
#                                CCDC 
#
#######################################################################
#
# If this CIF has been generated from an entry in the Cambridge 
# Structural Database, then it will include bibliographic, chemical, 
# crystal, experimental, refinement or atomic coordinate data resulting 
# from the CCDC's data processing and validation procedures.
#
#######################################################################

data_ZISPOJ
_chemical_formula_moiety         'C10 H12 O4'
_chemical_name_systematic        'ethyl 2,4-dihydroxy-6-methylbenzoate'
_symmetry_cell_setting           monoclinic
_symmetry_space_group_name_H-M   'P 21/n'
_symmetry_Int_Tables_number      14
_space_group_name_Hall           '-P 2yn'
loop_
_symmetry_equiv_pos_site_id
_symmetry_equiv_pos_as_xyz
1 x,y,z
2 1/2-x,1/2+y,1/2-z
3 -x,-y,-z
4 1/2+x,1/2-y,1/2+z
_cell_length_a                   7.818(3)
_cell_length_b                   17.017(6)
_cell_length_c                   8.189(3)
_cell_angle_alpha                90
_cell_angle_beta                 117.459(4)
_cell_angle_gamma                90
_cell_volume                     966.719
_exptl_crystal_colour            colorless
_exptl_crystal_description       sheet
_cell_formula_units_Z            4
loop_
_atom_site_label
_atom_site_type_symbol
_atom_site_fract_x
_atom_site_fract_y
_atom_site_fract_z
O1 O -0.0021(2) 0.46363(7) -0.27773(18)
O2 O 0.11562(18) 0.57656(6) -0.13811(16)
O3 O 0.1367(2) 0.33529(7) -0.13142(19)
H1 H 0.050(4) 0.3664(16) -0.216(3)
O4 O 0.6778(2) 0.32885(8) 0.44828(18)
H2 H 0.648(4) 0.2753(16) 0.410(4)
C1 C 0.2660(2) 0.45967(8) 0.0181(2)
C2 C 0.2682(2) 0.37634(9) 0.0131(2)
C3 C 0.4047(3) 0.33288(9) 0.1552(3)
H3 H 0.403637 0.278312 0.148712
C4 C 0.5412(3) 0.37051(10) 0.3052(2)
C5 C 0.5453(3) 0.45134(10) 0.3168(2)
H4 H 0.640522 0.475644 0.420632
C6 C 0.4098(2) 0.49723(9) 0.1763(2)
C7 C 0.1165(2) 0.49885(9) -0.1435(2)
C8 C -0.0274(3) 0.61634(11) -0.3005(3)
H5 H -0.156271 0.600967 -0.324130
H6 H -0.010341 0.602890 -0.407205
C9 C 0.0009(4) 0.70282(12) -0.2630(3)
H7 H -0.015784 0.715282 -0.156911
H8 H -0.091898 0.731300 -0.367576
H9 H 0.128638 0.717279 -0.240524
C10 C 0.4251(3) 0.58478(9) 0.2029(3)
H10 H 0.535726 0.597063 0.317280
H11 H 0.310970 0.604287 0.205170
H12 H 0.438365 0.608915 0.103419
loop_
_geom_bond_atom_site_label_1
_geom_bond_atom_site_label_2
_geom_bond_site_symmetry_1
_geom_bond_site_symmetry_2
O1 C7 1_555 1_555
O2 C7 1_555 1_555
O3 H1 1_555 1_555
O4 H2 1_555 1_555
C1 C2 1_555 1_555
C2 O3 1_555 1_555
C3 C2 1_555 1_555
H3 C3 1_555 1_555
C4 O4 1_555 1_555
C5 C4 1_555 1_555
H4 C5 1_555 1_555
C6 C1 1_555 1_555
C7 C1 1_555 1_555
C8 O2 1_555 1_555
H5 C8 1_555 1_555
H6 C8 1_555 1_555
C9 C8 1_555 1_555
H7 C9 1_555 1_555
H8 C9 1_555 1_555
H9 C9 1_555 1_555
C10 C6 1_555 1_555
H10 C10 1_555 1_555
H11 C10 1_555 1_555
H12 C10 1_555 1_555
C3 C4 1_555 1_555
C5 C6 1_555 1_555

#END
