
#######################################################################
#
#                 Cambridge Crystallographic Data Centre
#                                CCDC 
#
#######################################################################
#
# If this CIF has been generated from an entry in the Cambridge 
# Structural Database, then it will include bibliographic, chemical, 
# crystal, experimental, refinement or atomic coordinate data resulting 
# from the CCDC's data processing and validation procedures.
#
#######################################################################

data_ZISPUO01
_chemical_formula_moiety         'C16 H16 N2 O4'
_chemical_name_systematic        
2,2'-(hydrazine-1,2-diylidenedimethylylidene)bis(4-methoxyphenol)
_symmetry_cell_setting           monoclinic
_symmetry_space_group_name_H-M   'P 21/c'
_symmetry_Int_Tables_number      14
_space_group_name_Hall           '-P 2ybc'
loop_
_symmetry_equiv_pos_site_id
_symmetry_equiv_pos_as_xyz
1 x,y,z
2 -x,1/2+y,1/2-z
3 -x,-y,-z
4 x,1/2-y,1/2+z
_cell_length_a                   18.616(7)
_cell_length_b                   4.6781(19)
_cell_length_c                   18.616(7)
_cell_angle_alpha                90
_cell_angle_beta                 112.71
_cell_angle_gamma                90
_cell_volume                     1495.53
_exptl_crystal_colour            yellow
_exptl_crystal_description       block
_chemical_melting_point          '490-492 K'
_cell_formula_units_Z            4
_chemical_properties_physical    Heat-sensitive
_exptl_crystal_recrystallization_method N,N-dimethylformamide/ethanol
_exptl_crystal_preparation       Luminescent
loop_
_atom_site_label
_atom_site_type_symbol
_atom_site_fract_x
_atom_site_fract_y
_atom_site_fract_z
O1 O 0.02496(11) 0.4048(4) 0.15178(11)
O2 O -0.26024(12) 0.9263(4) 0.01061(14)
N1 N -0.00580(11) 0.1009(4) 0.02504(11)
C1 C -0.07203(17) 0.7253(6) 0.15319(16)
H1 H -0.0408 0.7757 0.2040
C2 C -0.14305(19) 0.8512(6) 0.11668(19)
H2 H -0.1597 0.9871 0.1433
C3 C -0.19068(16) 0.7813(6) 0.04117(18)
C4 C -0.16648(14) 0.5776(5) 0.00223(15)
H3 H -0.1985 0.5285 -0.0485
C5 C -0.09429(13) 0.4434(5) 0.03805(14)
C6 C -0.04650(16) 0.5216(5) 0.11413(15)
C7 C -0.07153(14) 0.2296(5) -0.00451(14)
H4 H -0.1054 0.1836 -0.0548
C8 C -0.30509(19) 0.8925(8) -0.0699(2)
H5 H -0.2731 0.9297 -0.0988
H6 H -0.3479 1.0245 -0.0857
H7 H -0.3247 0.7006 -0.0799
H8 H 0.031(2) 0.271(8) 0.114(3)
O1B O -0.02496(11) -0.4048(4) -0.15178(11)
O2B O 0.26024(12) -0.9263(4) -0.01061(14)
N1B N 0.00580(11) -0.1009(4) -0.02504(11)
C1B C 0.07203(17) -0.7253(6) -0.15319(16)
H1B H 0.0408 -0.7757 -0.2040
C2B C 0.14305(19) -0.8512(6) -0.11668(19)
H2B H 0.1597 -0.9871 -0.1433
C3B C 0.19068(16) -0.7813(6) -0.04117(18)
C4B C 0.16648(14) -0.5776(5) -0.00223(15)
H3B H 0.1985 -0.5285 0.0485
C5B C 0.09429(13) -0.4434(5) -0.03805(14)
C6B C 0.04650(16) -0.5216(5) -0.11413(15)
C7B C 0.07153(14) -0.2296(5) 0.00451(14)
H4B H 0.1054 -0.1836 0.0548
C8B C 0.30509(19) -0.8925(8) 0.0699(2)
H5B H 0.2731 -0.9297 0.0988
H6B H 0.3479 -1.0245 0.0857
H7B H 0.3247 -0.7006 0.0799
H8B H -0.031(2) -0.271(8) -0.114(3)
O3 O 0.54204(11) 0.0437(5) 0.38956(13)
H9 H 0.547(2) 0.181(9) 0.432(3)
O4 O 0.23554(12) -0.2434(5) 0.22415(13)
N2 N 0.49669(12) 0.3946(4) 0.47195(11)
C9 C 0.31069(17) -0.1603(6) 0.26927(16)
C10 C 0.36862(19) -0.2891(6) 0.25188(17)
H10 H 0.3555 -0.4249 0.2124
C11 C 0.44460(18) -0.2200(6) 0.29170(17)
H11 H 0.4828 -0.3063 0.2785
C12 C 0.46586(15) -0.0217(5) 0.35195(15)
C13 C 0.40846(15) 0.1077(5) 0.37094(14)
C14 C 0.33074(16) 0.0349(5) 0.32913(16)
H12 H 0.2920 0.1193 0.3419
C15 C 0.42632(15) 0.3188(5) 0.43221(15)
H13 H 0.3860 0.4008 0.4429
C16 C 0.17472(18) -0.0882(8) 0.2345(2)
H14 H 0.1796 -0.1055 0.2875
H15 H 0.1253 -0.1638 0.2005
H16 H 0.1781 0.1096 0.2224
O3B O 0.45796(11) 0.9563(5) 0.61044(13)
H9B H 0.453(2) 0.819(9) 0.568(3)
O4B O 0.76446(12) 1.2434(5) 0.77585(13)
N2B N 0.50331(12) 0.6054(4) 0.52805(11)
C9B C 0.68931(17) 1.1603(6) 0.73073(16)
C10B C 0.63138(19) 1.2891(6) 0.74812(17)
H10B H 0.6445 1.4249 0.7876
C11B C 0.55540(18) 1.2200(6) 0.70830(17)
H11B H 0.5172 1.3063 0.7215
C12B C 0.53414(15) 1.0217(5) 0.64805(15)
C13B C 0.59154(15) 0.8923(5) 0.62906(14)
C14B C 0.66926(16) 0.9651(5) 0.67087(16)
H12B H 0.7080 0.8807 0.6581
C15B C 0.57368(15) 0.6812(5) 0.56779(15)
H13B H 0.6140 0.5992 0.5571
C16B C 0.82528(18) 1.0882(8) 0.7655(2)
H14B H 0.8204 1.1055 0.7125
H15B H 0.8747 1.1638 0.7995
H16B H 0.8219 0.8904 0.7776
loop_
_geom_bond_atom_site_label_1
_geom_bond_atom_site_label_2
_geom_bond_site_symmetry_1
_geom_bond_site_symmetry_2
O1 C6 1_555 1_555
O2 C3 1_555 1_555
N1 C7 1_555 1_555
C1 H1 1_555 1_555
C2 C1 1_555 1_555
H2 C2 1_555 1_555
C3 C2 1_555 1_555
C4 C3 1_555 1_555
H3 C4 1_555 1_555
C5 C4 1_555 1_555
C6 C1 1_555 1_555
C7 C5 1_555 1_555
H4 C7 1_555 1_555
C8 O2 1_555 1_555
H5 C8 1_555 1_555
H6 C8 1_555 1_555
H7 C8 1_555 1_555
H8 O1 1_555 1_555
O3 H9 1_555 1_555
O4 C9 1_555 1_555
N2 C15 1_555 1_555
C9 C10 1_555 1_555
C10 H10 1_555 1_555
C11 C10 1_555 1_555
H11 C11 1_555 1_555
C12 O3 1_555 1_555
C13 C12 1_555 1_555
C14 C9 1_555 1_555
H12 C14 1_555 1_555
C15 C13 1_555 1_555
H13 C15 1_555 1_555
C16 O4 1_555 1_555
H14 C16 1_555 1_555
H15 C16 1_555 1_555
H16 C16 1_555 1_555
O1B C6B 1_555 1_555
O2B C3B 1_555 1_555
N1B N1 1_555 1_555
C1B H1B 1_555 1_555
C2B C1B 1_555 1_555
H2B C2B 1_555 1_555
C3B C2B 1_555 1_555
C4B C3B 1_555 1_555
H3B C4B 1_555 1_555
C5B C4B 1_555 1_555
C6B C1B 1_555 1_555
C7B N1B 1_555 1_555
H4B C7B 1_555 1_555
C8B O2B 1_555 1_555
H5B C8B 1_555 1_555
H6B C8B 1_555 1_555
H7B C8B 1_555 1_555
H8B O1B 1_555 1_555
O3B H9B 1_555 1_555
O4B C9B 1_555 1_555
N2B N2 1_555 1_555
C9B C10B 1_555 1_555
C10B H10B 1_555 1_555
C11B C10B 1_555 1_555
H11B C11B 1_555 1_555
C12B O3B 1_555 1_555
C13B C12B 1_555 1_555
C14B C9B 1_555 1_555
H12B C14B 1_555 1_555
C15B N2B 1_555 1_555
H13B C15B 1_555 1_555
C16B O4B 1_555 1_555
H14B C16B 1_555 1_555
H15B C16B 1_555 1_555
H16B C16B 1_555 1_555
C5 C6 1_555 1_555
C11 C12 1_555 1_555
C13 C14 1_555 1_555
C5B C6B 1_555 1_555
C5B C7B 1_555 1_555
C11B C12B 1_555 1_555
C13B C14B 1_555 1_555
C13B C15B 1_555 1_555

#END
