
#######################################################################
#
#                 Cambridge Crystallographic Data Centre
#                                CCDC 
#
#######################################################################
#
# If this CIF has been generated from an entry in the Cambridge 
# Structural Database, then it will include bibliographic, chemical, 
# crystal, experimental, refinement or atomic coordinate data resulting 
# from the CCDC's data processing and validation procedures.
#
#######################################################################

data_ZISPEZ
_chemical_formula_moiety         'C24 H23 Br1 Cl1 N1 O3'
_chemical_name_systematic        
"methyl 4'-(4-bromophenyl)-5'-(4-chlorophenyl)-3-oxospiro[bicyclo[2.2.1]heptane-2,3'-pyrrolidine]-2'-carboxylate"
_symmetry_cell_setting           rhombohedral
_symmetry_space_group_name_H-M   'R -3'
_symmetry_Int_Tables_number      148
_space_group_name_Hall           '-R 3'
loop_
_symmetry_equiv_pos_site_id
_symmetry_equiv_pos_as_xyz
1 x,y,z
2 -y,x-y,z
3 -x+y,-x,z
4 2/3+x,1/3+y,1/3+z
5 2/3-y,1/3+x-y,1/3+z
6 2/3-x+y,1/3-x,1/3+z
7 1/3+x,2/3+y,2/3+z
8 1/3-y,2/3+x-y,2/3+z
9 1/3-x+y,2/3-x,2/3+z
10 -x,-y,-z
11 y,-x+y,-z
12 x-y,x,-z
13 1/3-x,2/3-y,2/3-z
14 1/3+y,2/3-x+y,2/3-z
15 1/3+x-y,2/3+x,2/3-z
16 2/3-x,1/3-y,1/3-z
17 2/3+y,1/3-x+y,1/3-z
18 2/3+x-y,1/3+x,1/3-z
_cell_length_a                   19.338(2)
_cell_length_b                   19.338(2)
_cell_length_c                   30.764(4)
_cell_angle_alpha                90
_cell_angle_beta                 90
_cell_angle_gamma                120
_cell_volume                     9963.15
_exptl_crystal_colour            colorless
_exptl_crystal_description       block
_cell_formula_units_Z            18
loop_
_atom_site_label
_atom_site_type_symbol
_atom_site_fract_x
_atom_site_fract_y
_atom_site_fract_z
Br1 Br 0.87822(2) 0.88786(2) 0.40903(2)
Cl1 Cl 0.94168(9) 0.42160(10) 0.36143(5)
O1 O 0.87088(13) 0.65091(12) 0.59590(7)
O2 O 0.85120(15) 0.47376(14) 0.57658(8)
O3 O 0.78288(15) 0.48279(14) 0.63270(9)
N1 N 0.72117(14) 0.44084(14) 0.52198(10)
C1 C 0.90039(10) 0.79557(8) 0.47334(7)
H1 H 0.942718 0.844247 0.482493
C2 C 0.88200(10) 0.72597(10) 0.49569(6)
H2 H 0.912019 0.728076 0.519790
C3 C 0.81873(11) 0.65321(8) 0.48201(6)
C4 C 0.77386(11) 0.65006(9) 0.44598(7)
H3 H 0.731529 0.601383 0.436833
C5 C 0.79225(12) 0.71966(12) 0.42364(6)
H4 H 0.762226 0.717553 0.399535
C6 C 0.85551(12) 0.79242(10) 0.43732(7)
C7 C 0.79815(16) 0.58001(15) 0.50946(10)
H5 H 0.849455 0.585094 0.517677
C8 C 0.75187(17) 0.49954(16) 0.48664(11)
H6 H 0.706638 0.497482 0.471106
C9 C 0.80052(12) 0.48141(13) 0.45496(8)
C10 C 0.86429(12) 0.47372(13) 0.46970(6)
H7 H 0.877597 0.480443 0.499051
C11 C 0.90818(11) 0.45598(14) 0.44058(9)
H8 H 0.950850 0.450834 0.450438
C12 C 0.88830(16) 0.44593(15) 0.39671(8)
C13 C 0.82452(19) 0.45362(17) 0.38197(6)
H9 H 0.811221 0.446890 0.352618
C14 C 0.78064(14) 0.47136(16) 0.41109(8)
H10 H 0.737967 0.476499 0.401231
C15 C 0.75194(16) 0.56795(16) 0.55292(10)
C16 C 0.67428(17) 0.57318(18) 0.55562(13)
H11 H 0.627919 0.528946 0.541387
C17 C 0.68875(19) 0.65656(18) 0.54316(13)
H12 H 0.638867 0.656996 0.541687
H13 H 0.715839 0.673608 0.515378
C18 C 0.7420(2) 0.7105(2) 0.58041(12)
H14 H 0.717780 0.737896 0.594601
H15 H 0.794473 0.749650 0.569775
C19 C 0.7472(2) 0.65041(19) 0.61164(12)
H16 H 0.761504 0.668327 0.641779
C20 C 0.80105(19) 0.62705(17) 0.58874(11)
C21 C 0.6661(2) 0.5763(2) 0.60512(13)
H17 H 0.622303 0.584339 0.613528
H18 H 0.661616 0.529753 0.619713
C22 C 0.73136(17) 0.48062(16) 0.56355(11)
H19 H 0.680865 0.453708 0.579617
C23 C 0.7960(2) 0.47850(17) 0.59037(12)
C24 C 0.8454(3) 0.4905(3) 0.66160(14)
H20 H 0.894333 0.538315 0.654632
H21 H 0.852445 0.445105 0.658248
H22 H 0.830772 0.493318 0.691107
H23 H 0.677(3) 0.414(3) 0.5155(15)
loop_
_geom_bond_atom_site_label_1
_geom_bond_atom_site_label_2
_geom_bond_site_symmetry_1
_geom_bond_site_symmetry_2
Br1 C6 1_555 1_555
Cl1 C12 1_555 1_555
O1 C20 1_555 1_555
O2 C23 1_555 1_555
O3 C23 1_555 1_555
N1 C8 1_555 1_555
C1 H1 1_555 1_555
C2 C1 1_555 1_555
H2 C2 1_555 1_555
C3 C2 1_555 1_555
C4 C3 1_555 1_555
H3 C4 1_555 1_555
C5 C4 1_555 1_555
H4 C5 1_555 1_555
C6 C1 1_555 1_555
C7 C3 1_555 1_555
H5 C7 1_555 1_555
C8 C7 1_555 1_555
H6 C8 1_555 1_555
C9 C8 1_555 1_555
C10 C9 1_555 1_555
H7 C10 1_555 1_555
C11 C10 1_555 1_555
H8 C11 1_555 1_555
C12 C11 1_555 1_555
C13 C12 1_555 1_555
H9 C13 1_555 1_555
C14 C9 1_555 1_555
H10 C14 1_555 1_555
C15 C7 1_555 1_555
C16 C15 1_555 1_555
H11 C16 1_555 1_555
C17 C16 1_555 1_555
H12 C17 1_555 1_555
H13 C17 1_555 1_555
C18 C17 1_555 1_555
H14 C18 1_555 1_555
H15 C18 1_555 1_555
C19 C18 1_555 1_555
H16 C19 1_555 1_555
C20 C15 1_555 1_555
C21 C16 1_555 1_555
H17 C21 1_555 1_555
H18 C21 1_555 1_555
C22 N1 1_555 1_555
H19 C22 1_555 1_555
C23 C22 1_555 1_555
C24 O3 1_555 1_555
H20 C24 1_555 1_555
H21 C24 1_555 1_555
H22 C24 1_555 1_555
H23 N1 1_555 1_555
C5 C6 1_555 1_555
C13 C14 1_555 1_555
C15 C22 1_555 1_555
C19 C20 1_555 1_555
C19 C21 1_555 1_555

#END
