
#######################################################################
#
#                 Cambridge Crystallographic Data Centre
#                                CCDC 
#
#######################################################################
#
# If this CIF has been generated from an entry in the Cambridge 
# Structural Database, then it will include bibliographic, chemical, 
# crystal, experimental, refinement or atomic coordinate data resulting 
# from the CCDC's data processing and validation procedures.
#
#######################################################################

data_ZISQIE
_chemical_formula_moiety         'C39 H36 N4 O6,C2 H6 O1'
_chemical_name_systematic        
"3',6'-bis(ethylamino)-2-((4-(7-hydroxy-2-oxo-2H-chromen-3-yl)-4-oxobut-2-en-2-yl)amino)-2',7'-dimethylspiro[isoindole-1,9'-xanthen]-3(2H)-one ethanol solvate"
_symmetry_cell_setting           triclinic
_symmetry_space_group_name_H-M   'P -1'
_symmetry_Int_Tables_number      2
_space_group_name_Hall           '-P 1'
loop_
_symmetry_equiv_pos_site_id
_symmetry_equiv_pos_as_xyz
1 x,y,z
2 -x,-y,-z
_cell_length_a                   11.185(7)
_cell_length_b                   11.526(7)
_cell_length_c                   14.694(9)
_cell_angle_alpha                91.811(13)
_cell_angle_beta                 105.027(11)
_cell_angle_gamma                102.516(11)
_cell_volume                     1778.31
_exptl_crystal_colour            yellow
_exptl_crystal_description       block
_cell_formula_units_Z            2
loop_
_atom_site_label
_atom_site_type_symbol
_atom_site_fract_x
_atom_site_fract_y
_atom_site_fract_z
O1 O 0.54331(18) 0.53101(18) 0.87963(13)
O2 O 0.0051(2) 0.2625(2) 0.62592(13)
O3 O 0.2055(2) 0.31418(16) 0.96965(12)
O4 O 0.1238(2) -0.05466(17) 1.01670(13)
O5 O 0.15153(19) -0.00106(16) 1.16632(12)
O6 O 0.2389(2) 0.0901(2) 1.49771(13)
H1 H 0.2232 0.0171 1.4968
C1 C 0.3332(3) 0.5393(2) 0.78662(17)
C2 C 0.2336(3) 0.5972(2) 0.77996(18)
H2 H 0.1612 0.5725 0.7293
C3 C 0.2362(3) 0.6882(2) 0.84367(19)
C4 C 0.3458(3) 0.7260(2) 0.92054(19)
C5 C 0.4455(3) 0.6698(3) 0.92835(19)
H3 H 0.5185 0.6942 0.9785
C6 C 0.4376(3) 0.5780(2) 0.86250(19)
C7 C 0.5468(3) 0.4429(2) 0.81632(19)
C8 C 0.6604(3) 0.4065(3) 0.8354(2)
H4 H 0.7264 0.4421 0.8880
C9 C 0.6767(3) 0.3180(3) 0.7773(2)
C10 C 0.5751(3) 0.2645(3) 0.6984(2)
C11 C 0.4649(3) 0.3041(2) 0.68145(19)
H5 H 0.3986 0.2692 0.6287
C12 C 0.4461(3) 0.3941(2) 0.73896(18)
C13 C 0.3246(2) 0.4370(2) 0.71592(17)
C14 C 0.2841(3) 0.4666(2) 0.61417(18)
C15 C 0.3540(3) 0.5409(3) 0.5657(2)
H6 H 0.4379 0.5806 0.5944
C16 C 0.2951(4) 0.5546(3) 0.4724(2)
H7 H 0.3408 0.6038 0.4380
C17 C 0.1705(4) 0.4970(3) 0.4298(2)
H8 H 0.1324 0.5098 0.3679
C18 C 0.1021(3) 0.4212(3) 0.4777(2)
H9 H 0.0183 0.3810 0.4488
C19 C 0.1606(3) 0.4057(3) 0.57030(18)
C20 C 0.1120(3) 0.3272(3) 0.63641(19)
C21 C 0.1870(3) 0.1732(2) 0.80348(19)
C22 C 0.1816(4) 0.0905(3) 0.7212(2)
H10 H 0.1879 0.1352 0.6679
H11 H 0.1024 0.0317 0.7052
H12 H 0.2510 0.0517 0.7377
C23 C 0.1780(3) 0.1287(2) 0.88934(18)
H13 H 0.1641 0.0466 0.8925
C24 C 0.1887(2) 0.1999(2) 0.96990(18)
C25 C 0.1889(3) 0.1552(2) 1.06292(18)
C26 C 0.2275(3) 0.2344(2) 1.14019(18)
H14 H 0.2519 0.3150 1.1322
C27 C 0.2329(3) 0.2011(2) 1.23255(19)
C28 C 0.2766(3) 0.2811(3) 1.3139(2)
H15 H 0.3046 0.3621 1.3088
C29 C 0.2787(3) 0.2418(3) 1.4004(2)
H16 H 0.3100 0.2959 1.4541
C30 C 0.2346(3) 0.1218(3) 1.4095(2)
C31 C 0.1906(3) 0.0401(3) 1.33067(19)
H17 H 0.1608 -0.0405 1.3360
C32 C 0.1921(3) 0.0816(2) 1.24382(18)
C33 C 0.1527(3) 0.0288(3) 1.07524(19)
C34 C 0.8961(3) 0.3253(3) 0.8768(3)
H18 H 0.9496 0.2685 0.8883
H19 H 0.8662 0.3348 0.9323
C35 C 0.9728(4) 0.4424(3) 0.8617(3)
H20 H 1.0430 0.4706 0.9168
H21 H 0.9203 0.4991 0.8509
H22 H 1.0044 0.4329 0.8078
C36 C 0.5874(3) 0.1654(3) 0.6342(2)
H23 H 0.5100 0.1397 0.5843
H24 H 0.6033 0.0995 0.6700
H25 H 0.6568 0.1940 0.6074
C37 C 0.1257(3) 0.7464(3) 0.8326(2)
H26 H 0.0595 0.7096 0.7771
H27 H 0.1533 0.8298 0.8263
H28 H 0.0938 0.7367 0.8872
C38 C 0.4648(3) 0.8592(3) 1.06528(19)
H29 H 0.5389 0.8881 1.0425
H30 H 0.4796 0.7930 1.1024
C39 C 0.4473(3) 0.9576(3) 1.1269(2)
H31 H 0.5214 0.9825 1.1797
H32 H 0.3740 0.9290 1.1495
H33 H 0.4352 1.0241 1.0907
N1 N 0.7876(3) 0.2789(2) 0.7956(2)
H34 H 0.7931 0.2240 0.7569
N2 N 0.3540(2) 0.8180(2) 0.98539(16)
H35 H 0.2914 0.8521 0.9783
N3 N 0.2117(2) 0.33802(18) 0.71384(14)
N4 N 0.2025(2) 0.28894(19) 0.79680(14)
H36 H 0.2069 0.3350 0.8454
O7 O -0.1917(3) 0.1410(2) 0.48766(16)
H37 H -0.1319 0.1878 0.5248
C40 C -0.3675(4) 0.1450(3) 0.3594(3)
H38 H -0.3931 0.1815 0.3019
H39 H -0.4151 0.1617 0.4020
H40 H -0.3835 0.0602 0.3453
C41 C -0.2298(4) 0.1935(3) 0.4041(2)
H41 H -0.1815 0.1776 0.3610
H42 H -0.2131 0.2793 0.4178
loop_
_geom_bond_atom_site_label_1
_geom_bond_atom_site_label_2
_geom_bond_site_symmetry_1
_geom_bond_site_symmetry_2
O1 C6 1_555 1_555
O2 C20 1_555 1_555
O3 C24 1_555 1_555
O4 C33 1_555 1_555
O5 C32 1_555 1_555
O6 H1 1_555 1_555
C1 C2 1_555 1_555
C2 H2 1_555 1_555
C3 C2 1_555 1_555
C4 C3 1_555 1_555
C5 C4 1_555 1_555
H3 C5 1_555 1_555
C6 C1 1_555 1_555
C7 O1 1_555 1_555
C8 C7 1_555 1_555
H4 C8 1_555 1_555
C9 C8 1_555 1_555
C10 C9 1_555 1_555
C11 C10 1_555 1_555
H5 C11 1_555 1_555
C12 C7 1_555 1_555
C13 C1 1_555 1_555
C14 C13 1_555 1_555
C15 C14 1_555 1_555
H6 C15 1_555 1_555
C16 C15 1_555 1_555
H7 C16 1_555 1_555
C17 C16 1_555 1_555
H8 C17 1_555 1_555
C18 C17 1_555 1_555
H9 C18 1_555 1_555
C19 C14 1_555 1_555
C20 C19 1_555 1_555
C21 C22 1_555 1_555
C22 H10 1_555 1_555
H11 C22 1_555 1_555
H12 C22 1_555 1_555
C23 C21 1_555 1_555
H13 C23 1_555 1_555
C24 C23 1_555 1_555
C25 C24 1_555 1_555
C26 C25 1_555 1_555
H14 C26 1_555 1_555
C27 C26 1_555 1_555
C28 C27 1_555 1_555
H15 C28 1_555 1_555
C29 C28 1_555 1_555
H16 C29 1_555 1_555
C30 O6 1_555 1_555
C31 C30 1_555 1_555
H17 C31 1_555 1_555
C32 C27 1_555 1_555
C33 O5 1_555 1_555
C34 H18 1_555 1_555
H19 C34 1_555 1_555
C35 C34 1_555 1_555
H20 C35 1_555 1_555
H21 C35 1_555 1_555
H22 C35 1_555 1_555
C36 C10 1_555 1_555
H23 C36 1_555 1_555
H24 C36 1_555 1_555
H25 C36 1_555 1_555
C37 C3 1_555 1_555
H26 C37 1_555 1_555
H27 C37 1_555 1_555
H28 C37 1_555 1_555
C38 H29 1_555 1_555
H30 C38 1_555 1_555
C39 C38 1_555 1_555
H31 C39 1_555 1_555
H32 C39 1_555 1_555
H33 C39 1_555 1_555
N1 C9 1_555 1_555
H34 N1 1_555 1_555
N2 C4 1_555 1_555
H35 N2 1_555 1_555
N3 C13 1_555 1_555
N4 C21 1_555 1_555
H36 N4 1_555 1_555
O7 H37 1_555 1_555
C40 H38 1_555 1_555
H39 C40 1_555 1_555
H40 C40 1_555 1_555
C41 O7 1_555 1_555
H41 C41 1_555 1_555
H42 C41 1_555 1_555
C5 C6 1_555 1_555
C11 C12 1_555 1_555
C12 C13 1_555 1_555
C18 C19 1_555 1_555
C20 N3 1_555 1_555
C25 C33 1_555 1_555
C29 C30 1_555 1_555
C31 C32 1_555 1_555
C34 N1 1_555 1_555
C38 N2 1_555 1_555
N3 N4 1_555 1_555
C40 C41 1_555 1_555

#END
