
#######################################################################
#
#                 Cambridge Crystallographic Data Centre
#                                CCDC 
#
#######################################################################
#
# If this CIF has been generated from an entry in the Cambridge 
# Structural Database, then it will include bibliographic, chemical, 
# crystal, experimental, refinement or atomic coordinate data resulting 
# from the CCDC's data processing and validation procedures.
#
#######################################################################

data_ZISQAW
_chemical_formula_moiety         'C24 H22 N2 O1 P2'
_chemical_name_systematic        
"N'-(diphenylphosphanyl)-P,P-diphenylphosphinic hydrazide"
_symmetry_cell_setting           triclinic
_symmetry_space_group_name_H-M   'P -1'
_symmetry_Int_Tables_number      2
_space_group_name_Hall           '-P 1'
loop_
_symmetry_equiv_pos_site_id
_symmetry_equiv_pos_as_xyz
1 x,y,z
2 -x,-y,-z
_cell_length_a                   8.4464(4)
_cell_length_b                   10.4163(5)
_cell_length_c                   13.4880(6)
_cell_angle_alpha                71.550(4)
_cell_angle_beta                 76.477(4)
_cell_angle_gamma                71.750(4)
_cell_volume                     1057.04
_exptl_crystal_colour            colorless
_exptl_crystal_description       prism
_cell_formula_units_Z            2
loop_
_atom_site_label
_atom_site_type_symbol
_atom_site_fract_x
_atom_site_fract_y
_atom_site_fract_z
C1 C 0.48544(17) 0.69757(13) 0.19890(10)
C2 C 0.5326(2) 0.64375(15) 0.29896(11)
H1 H 0.6299 0.5676 0.3110
C3 C 0.4392(2) 0.70007(17) 0.38115(12)
H2 H 0.4725 0.6630 0.4494
C4 C 0.2977(2) 0.81011(17) 0.36409(13)
H3 H 0.2326 0.8481 0.4208
C5 C 0.2506(2) 0.86493(18) 0.26515(14)
H4 H 0.1534 0.9413 0.2536
C6 C 0.34393(19) 0.80947(15) 0.18232(12)
H5 H 0.3111 0.8481 0.1140
C7 C 0.80465(17) 0.66634(13) 0.05663(10)
C8 C 0.93398(19) 0.59595(15) 0.11728(11)
H6 H 0.9210 0.5185 0.1762
C9 C 1.08141(19) 0.63851(17) 0.09194(12)
H7 H 1.1696 0.5900 0.1334
C10 C 1.10071(19) 0.75072(17) 0.00700(12)
H8 H 1.2014 0.7805 -0.0094
C11 C 0.9744(2) 0.82020(17) -0.05451(12)
H9 H 0.9888 0.8970 -0.1136
C12 C 0.82649(19) 0.77819(15) -0.03034(11)
H10 H 0.7400 0.8258 -0.0732
C13 C 0.61345(17) 0.11965(13) 0.30235(10)
C14 C 0.6910(2) 0.02742(16) 0.38775(12)
H11 H 0.6779 0.0565 0.4499
C15 C 0.7867(2) -0.10579(17) 0.38350(13)
H12 H 0.8378 -0.1679 0.4428
C16 C 0.8082(2) -0.14876(16) 0.29358(14)
H13 H 0.8756 -0.2398 0.2902
C17 C 0.7314(2) -0.05915(15) 0.20848(12)
H14 H 0.7451 -0.0891 0.1467
C18 C 0.63471(19) 0.07405(14) 0.21248(11)
H15 H 0.5823 0.1349 0.1534
C19 C 0.28166(18) 0.29918(14) 0.33548(10)
C20 C 0.2203(2) 0.19537(16) 0.32568(12)
H16 H 0.2967 0.1167 0.3042
C21 C 0.0494(2) 0.20513(18) 0.34677(14)
H17 H 0.0093 0.1337 0.3390
C22 C -0.0634(2) 0.31765(17) 0.37906(12)
H18 H -0.1808 0.3240 0.3936
C23 C -0.0042(2) 0.42118(16) 0.39012(12)
H19 H -0.0811 0.4987 0.4128
C24 C 0.1660(2) 0.41228(15) 0.36827(12)
H20 H 0.2052 0.4844 0.3757
N1 N 0.65219(16) 0.45605(12) 0.14559(9)
N2 N 0.50757(15) 0.40184(11) 0.18533(9)
O1 O 0.50978(12) 0.68341(10) -0.00130(7)
P1 P 0.60334(4) 0.62701(3) 0.09005(3)
P2 P 0.50410(5) 0.29827(4) 0.31182(3)
H21 H 0.732(2) 0.4119(19) 0.1144(15)
H22 H 0.482(2) 0.3803(18) 0.1384(14)
loop_
_geom_bond_atom_site_label_1
_geom_bond_atom_site_label_2
_geom_bond_site_symmetry_1
_geom_bond_site_symmetry_2
C1 C2 1_555 1_555
C2 H1 1_555 1_555
C3 C2 1_555 1_555
H2 C3 1_555 1_555
C4 C3 1_555 1_555
H3 C4 1_555 1_555
C5 C4 1_555 1_555
H4 C5 1_555 1_555
C6 C1 1_555 1_555
H5 C6 1_555 1_555
C7 C8 1_555 1_555
C8 H6 1_555 1_555
C9 C8 1_555 1_555
H7 C9 1_555 1_555
C10 C9 1_555 1_555
H8 C10 1_555 1_555
C11 C10 1_555 1_555
H9 C11 1_555 1_555
C12 C7 1_555 1_555
H10 C12 1_555 1_555
C13 C14 1_555 1_555
C14 H11 1_555 1_555
C15 C14 1_555 1_555
H12 C15 1_555 1_555
C16 C15 1_555 1_555
H13 C16 1_555 1_555
C17 C16 1_555 1_555
H14 C17 1_555 1_555
C18 C13 1_555 1_555
H15 C18 1_555 1_555
C19 C20 1_555 1_555
C20 H16 1_555 1_555
C21 C20 1_555 1_555
H17 C21 1_555 1_555
C22 C21 1_555 1_555
H18 C22 1_555 1_555
C23 C22 1_555 1_555
H19 C23 1_555 1_555
C24 C19 1_555 1_555
H20 C24 1_555 1_555
N1 N2 1_555 1_555
N2 P2 1_555 1_555
O1 P1 1_555 1_555
P1 C1 1_555 1_555
P2 C13 1_555 1_555
H21 N1 1_555 1_555
H22 N2 1_555 1_555
C5 C6 1_555 1_555
C7 P1 1_555 1_555
C11 C12 1_555 1_555
C17 C18 1_555 1_555
C19 P2 1_555 1_555
C23 C24 1_555 1_555
N1 P1 1_555 1_555

#END
