
#######################################################################
#
#                 Cambridge Crystallographic Data Centre
#                                CCDC 
#
#######################################################################
#
# If this CIF has been generated from an entry in the Cambridge 
# Structural Database, then it will include bibliographic, chemical, 
# crystal, experimental, refinement or atomic coordinate data resulting 
# from the CCDC's data processing and validation procedures.
#
#######################################################################

data_ZISTUT
_chemical_formula_moiety         'C27 H36 F1 N1 S1'
_chemical_name_systematic        
'[2-(4-fluorophenyl)piperidin-1-yl][2,4,6-triisopropylphenyl]methanethione'
_symmetry_cell_setting           monoclinic
_symmetry_space_group_name_H-M   'P 21'
_symmetry_Int_Tables_number      4
_space_group_name_Hall           'P 2yb'
loop_
_symmetry_equiv_pos_site_id
_symmetry_equiv_pos_as_xyz
1 x,y,z
2 -x,1/2+y,-z
_cell_length_a                   10.2700(15)
_cell_length_b                   9.2558(13)
_cell_length_c                   13.772(2)
_cell_angle_alpha                90
_cell_angle_beta                 106.625(2)
_cell_angle_gamma                90
_cell_volume                     1254.4
_exptl_crystal_colour            colorless
_exptl_crystal_description       block
_cell_formula_units_Z            2
loop_
_atom_site_label
_atom_site_type_symbol
_atom_site_fract_x
_atom_site_fract_y
_atom_site_fract_z
S1 S 0.26056(6) 0.62189(9) 0.09882(5)
F1 F 0.9592(3) 0.9183(3) 0.2678(3)
N1 N 0.47902(16) 0.46695(19) 0.19290(11)
C1 C 0.5478(2) 0.5032(3) 0.11480(14)
H1 H 0.480463 0.552104 0.059586
C2 C 0.5853(3) 0.3627(3) 0.07131(19)
H2 H 0.502529 0.316066 0.031805
H3 H 0.638804 0.385839 0.025636
C3 C 0.6648(3) 0.2569(3) 0.1505(2)
H4 H 0.754975 0.295072 0.182007
H5 H 0.674543 0.166045 0.118168
C4 C 0.5920(3) 0.2307(3) 0.2317(2)
H6 H 0.508297 0.178062 0.202400
H7 H 0.649194 0.172581 0.285926
C5 C 0.5603(2) 0.3736(2) 0.27427(15)
H8 H 0.510539 0.355718 0.323269
H9 H 0.644445 0.422189 0.308861
C6 C 0.35243(18) 0.5087(2) 0.18623(13)
C7 C 0.28692(17) 0.4483(2) 0.26200(13)
C8 C 0.30217(18) 0.5181(2) 0.35521(14)
C9 C 0.23447(19) 0.4617(2) 0.42100(15)
H10 H 0.243118 0.508253 0.482373
C10 C 0.1546(2) 0.3386(2) 0.39830(15)
C11 C 0.1431(2) 0.2705(3) 0.30616(16)
H11 H 0.090697 0.187120 0.290337
C12 C 0.2070(2) 0.3226(2) 0.23701(14)
C13 C 0.1837(3) 0.2470(3) 0.13525(18)
H12 H 0.249819 0.285413 0.102860
C14 C 0.0412(4) 0.2867(6) 0.0683(2)
H13 H 0.028751 0.249135 0.001259
H14 H 0.031670 0.389920 0.065131
H15 H -0.025826 0.245948 0.096534
C15 C 0.2040(5) 0.0848(4) 0.1452(3)
H16 H 0.291812 0.064340 0.190971
H17 H 0.198047 0.044101 0.079953
H18 H 0.134885 0.043183 0.170975
C16 C 0.0843(3) 0.2783(3) 0.47270(19)
H19 H 0.091354 0.351107 0.525625
C17 C -0.0656(3) 0.2505(4) 0.4232(3)
H20 H -0.108362 0.337880 0.392321
H21 H -0.107395 0.219011 0.473611
H22 H -0.075798 0.176969 0.372421
C18 C 0.1536(4) 0.1415(5) 0.5241(3)
H23 H 0.150980 0.068986 0.473725
H24 H 0.107007 0.106812 0.570756
H25 H 0.246347 0.162648 0.560036
C19 C 0.3872(2) 0.6541(2) 0.38339(18)
H26 H 0.449019 0.657891 0.340850
C20 C 0.4736(4) 0.6552(4) 0.4931(2)
H27 H 0.415607 0.653448 0.536791
H28 H 0.528214 0.741106 0.505930
H29 H 0.531516 0.571773 0.505981
C21 C 0.2975(4) 0.7883(4) 0.3601(4)
H30 H 0.239415 0.783001 0.291829
H31 H 0.353646 0.872828 0.367683
H32 H 0.242971 0.793440 0.406173
C22 C 0.6624(2) 0.6107(3) 0.15694(15)
C23 C 0.7963(3) 0.5894(4) 0.1541(2)
H33 H 0.818941 0.504197 0.126991
C24 C 0.8963(3) 0.6935(5) 0.1914(3)
H34 H 0.985049 0.678749 0.189339
C25 C 0.8611(4) 0.8162(4) 0.2303(3)
C26 C 0.7332(4) 0.8432(4) 0.2347(3)
H35 H 0.712647 0.929529 0.261561
C27 C 0.6324(3) 0.7386(3) 0.1978(2)
H36 H 0.544404 0.755427 0.200883
loop_
_geom_bond_atom_site_label_1
_geom_bond_atom_site_label_2
_geom_bond_site_symmetry_1
_geom_bond_site_symmetry_2
S1 C6 1_555 1_555
F1 C25 1_555 1_555
N1 C1 1_555 1_555
C1 H1 1_555 1_555
C2 C1 1_555 1_555
H2 C2 1_555 1_555
H3 C2 1_555 1_555
C3 C2 1_555 1_555
H4 C3 1_555 1_555
H5 C3 1_555 1_555
C4 C3 1_555 1_555
H6 C4 1_555 1_555
H7 C4 1_555 1_555
C5 N1 1_555 1_555
H8 C5 1_555 1_555
H9 C5 1_555 1_555
C6 N1 1_555 1_555
C7 C6 1_555 1_555
C8 C7 1_555 1_555
C9 C8 1_555 1_555
H10 C9 1_555 1_555
C10 C9 1_555 1_555
C11 C10 1_555 1_555
H11 C11 1_555 1_555
C12 C7 1_555 1_555
C13 C12 1_555 1_555
H12 C13 1_555 1_555
C14 C13 1_555 1_555
H13 C14 1_555 1_555
H14 C14 1_555 1_555
H15 C14 1_555 1_555
C15 C13 1_555 1_555
H16 C15 1_555 1_555
H17 C15 1_555 1_555
H18 C15 1_555 1_555
C16 C10 1_555 1_555
H19 C16 1_555 1_555
C17 C16 1_555 1_555
H20 C17 1_555 1_555
H21 C17 1_555 1_555
H22 C17 1_555 1_555
C18 C16 1_555 1_555
H23 C18 1_555 1_555
H24 C18 1_555 1_555
H25 C18 1_555 1_555
C19 C8 1_555 1_555
H26 C19 1_555 1_555
C20 C19 1_555 1_555
H27 C20 1_555 1_555
H28 C20 1_555 1_555
H29 C20 1_555 1_555
C21 C19 1_555 1_555
H30 C21 1_555 1_555
H31 C21 1_555 1_555
H32 C21 1_555 1_555
C22 C1 1_555 1_555
C23 C22 1_555 1_555
H33 C23 1_555 1_555
C24 C23 1_555 1_555
H34 C24 1_555 1_555
C25 C24 1_555 1_555
C26 C25 1_555 1_555
H35 C26 1_555 1_555
C27 C22 1_555 1_555
H36 C27 1_555 1_555
C4 C5 1_555 1_555
C11 C12 1_555 1_555
C26 C27 1_555 1_555

#END
