
#######################################################################
#
#                 Cambridge Crystallographic Data Centre
#                                CCDC 
#
#######################################################################
#
# If this CIF has been generated from an entry in the Cambridge 
# Structural Database, then it will include bibliographic, chemical, 
# crystal, experimental, refinement or atomic coordinate data resulting 
# from the CCDC's data processing and validation procedures.
#
#######################################################################

data_ZISVEF
_chemical_formula_moiety         'C48 H36 N2 O6'
_chemical_name_systematic        
N^3^,N^3^,N^9^,N^9^-tetrakis(4-methoxyphenyl)xantheno[2,1,9,8-klmna]xanthene-3,9-diamine
_symmetry_cell_setting           monoclinic
_symmetry_space_group_name_H-M   'P 21/n'
_symmetry_Int_Tables_number      14
_space_group_name_Hall           '-P 2yn'
loop_
_symmetry_equiv_pos_site_id
_symmetry_equiv_pos_as_xyz
1 x,y,z
2 1/2-x,1/2+y,1/2-z
3 -x,-y,-z
4 1/2+x,1/2-y,1/2+z
_cell_length_a                   21.862(5)
_cell_length_b                   7.435(3)
_cell_length_c                   22.490(6)
_cell_angle_alpha                90
_cell_angle_beta                 98.48(2)
_cell_angle_gamma                90
_cell_volume                     3615.65
_exptl_crystal_colour            yellow
_exptl_crystal_description       block
_cell_formula_units_Z            4
loop_
_atom_site_label
_atom_site_type_symbol
_atom_site_fract_x
_atom_site_fract_y
_atom_site_fract_z
O1 O 0.26280(8) 0.0534(3) 0.16956(8)
C1 C 0.48951(10) 0.5185(3) 0.30848(9)
N1 N 0.45070(9) 0.5399(3) 0.25173(8)
O2 O 0.54776(11) 0.9112(3) 0.07113(10)
C2 C 0.55151(11) 0.4856(3) 0.31151(10)
H1 H 0.568336 0.477156 0.275967
O3 O 0.60624(6) 0.4468(2) 0.47260(6)
C3 C 0.59058(10) 0.4642(3) 0.36658(10)
H2 H 0.632661 0.444079 0.367241
C4 C 0.58225(9) 0.4517(3) 0.52613(9)
C5 C 0.56651(9) 0.4729(3) 0.41869(9)
C6 C 0.53668(9) 0.4673(3) 0.63733(9)
C7 C 0.59956(10) 0.4274(3) 0.63367(10)
H3 H 0.626431 0.405548 0.668998
C8 C 0.62205(10) 0.4200(3) 0.58010(10)
H4 H 0.663555 0.394110 0.579400
C9 C 0.49700(9) 0.4930(3) 0.58205(9)
C10 C 0.52105(9) 0.4854(3) 0.52739(9)
C11 C 0.47639(10) 0.6378(3) 0.20620(9)
C12 C 0.49500(13) 0.5508(4) 0.15720(11)
H5 H 0.491493 0.426418 0.154036
C13 C 0.51845(13) 0.6459(4) 0.11346(12)
H6 H 0.530429 0.586038 0.080730
C14 C 0.52420(12) 0.8279(4) 0.11795(11)
C15 C 0.50688(12) 0.9188(4) 0.16576(12)
H7 H 0.511344 1.042959 0.168777
C16 C 0.48204(11) 0.8202(3) 0.21054(11)
H8 H 0.469546 0.880103 0.243004
C17 C 0.40487(10) 0.4095(3) 0.23248(9)
C18 C 0.35564(11) 0.1223(3) 0.24070(10)
H9 H 0.354467 0.012305 0.260176
C19 C 0.40232(10) 0.2447(3) 0.26016(10)
H10 H 0.432358 0.214967 0.292395
C20 C 0.31098(10) 0.1632(3) 0.19257(10)
C21 C 0.31352(11) 0.3275(3) 0.16396(10)
H11 H 0.283856 0.355770 0.131262
C22 C 0.35929(11) 0.4484(3) 0.18338(10)
H12 H 0.360236 0.558175 0.163739
C23 C 0.54836(16) 1.1000(5) 0.06850(15)
H13 H 0.566363 1.137754 0.034116
H14 H 0.572340 1.146714 0.104377
H15 H 0.506779 1.144552 0.065221
C24 C 0.25600(16) -0.1099(4) 0.19967(15)
H16 H 0.219940 -0.171816 0.180325
H17 H 0.251559 -0.085610 0.240739
H18 H 0.291871 -0.183518 0.198467
O1B O 0.73720(8) 0.9466(3) 0.83044(8)
C1B C 0.51049(10) 0.4815(3) 0.69152(9)
N1B N 0.54930(9) 0.4601(3) 0.74827(8)
O2B O 0.45224(11) 0.0888(3) 0.92887(10)
C2B C 0.44849(11) 0.5144(3) 0.68849(10)
H1B H 0.431664 0.522844 0.724033
O3B O 0.39376(6) 0.5532(2) 0.52740(6)
C3B C 0.40942(10) 0.5358(3) 0.63342(10)
H2B H 0.367339 0.555921 0.632759
C4B C 0.41775(9) 0.5483(3) 0.47387(9)
C5B C 0.43349(9) 0.5271(3) 0.58131(9)
C6B C 0.46332(9) 0.5327(3) 0.36267(9)
C7B C 0.40044(10) 0.5726(3) 0.36633(10)
H3B H 0.373569 0.594452 0.331002
C8B C 0.37795(10) 0.5800(3) 0.41990(10)
H4B H 0.336445 0.605890 0.420600
C9B C 0.50300(9) 0.5070(3) 0.41795(9)
C10B C 0.47895(9) 0.5146(3) 0.47261(9)
C11B C 0.52361(10) 0.3622(3) 0.79380(9)
C12B C 0.50500(13) 0.4492(4) 0.84280(11)
H5B H 0.508507 0.573582 0.845964
C13B C 0.48155(13) 0.3541(4) 0.88654(12)
H6B H 0.469571 0.413962 0.919270
C14B C 0.47580(12) 0.1721(4) 0.88205(11)
C15B C 0.49312(12) 0.0812(4) 0.83424(12)
H7B H 0.488656 -0.042959 0.831223
C16B C 0.51796(11) 0.1798(3) 0.78946(11)
H8B H 0.530454 0.119897 0.756996
C17B C 0.59513(10) 0.5905(3) 0.76752(9)
C18B C 0.64436(11) 0.8777(3) 0.75930(10)
H9B H 0.645533 0.987695 0.739824
C19B C 0.59768(10) 0.7553(3) 0.73984(10)
H10B H 0.567642 0.785033 0.707605
C20B C 0.68902(10) 0.8368(3) 0.80743(10)
C21B C 0.68648(11) 0.6725(3) 0.83604(10)
H11B H 0.716144 0.644230 0.868738
C22B C 0.64071(11) 0.5516(3) 0.81662(10)
H12B H 0.639764 0.441825 0.836261
C23B C 0.45164(16) -0.1000(5) 0.93150(15)
H13B H 0.433637 -0.137754 0.965884
H14B H 0.427660 -0.146714 0.895623
H15B H 0.493221 -0.144552 0.934779
C24B C 0.74400(16) 1.1099(4) 0.80033(15)
H16B H 0.780060 1.171816 0.819675
H17B H 0.748441 1.085610 0.759261
H18B H 0.708129 1.183518 0.801533
N2 N 0.76607(8) 0.4289(3) 0.06328(9)
O4 O 0.61662(8) 0.9571(3) -0.06079(9)
O5 O 0.65970(9) 0.0045(2) 0.22566(8)
O6 O 1.02355(7) 0.5331(2) 0.11275(6)
C25 C 0.96004(10) 0.5029(3) 0.09904(9)
C26 C 0.92583(11) 0.5030(3) 0.14481(10)
H19 H 0.944724 0.518442 0.184308
C27 C 0.86158(11) 0.4793(3) 0.13162(10)
H20 H 0.838243 0.483624 0.162980
C28 C 0.83186(10) 0.4503(3) 0.07453(10)
C29 C 0.72948(10) 0.5676(3) 0.03253(10)
C30 C 0.66623(11) 0.5427(3) 0.01465(12)
H21 H 0.647985 0.434993 0.023648
C31 C 0.63058(11) 0.6734(4) -0.01582(12)
H22 H 0.588414 0.654108 -0.026942
C32 C 0.65656(11) 0.8339(4) -0.03029(10)
C33 C 0.71907(11) 0.8601(3) -0.01422(10)
H23 H 0.737207 0.966647 -0.024527
C34 C 0.75510(10) 0.7282(3) 0.01730(10)
H24 H 0.797245 0.747916 0.028405
C35 C 0.64121(14) 1.1250(4) -0.07282(15)
H25 H 0.672277 1.109342 -0.098408
H26 H 0.659373 1.180011 -0.035768
H27 H 0.608818 1.200680 -0.092513
C36 C 0.73964(10) 0.3212(3) 0.10558(10)
C37 C 0.75001(11) 0.1386(3) 0.10759(11)
H28 H 0.774660 0.088062 0.081637
C38 C 0.72491(11) 0.0284(3) 0.14696(11)
H29 H 0.732745 -0.094570 0.147399
C39 C 0.68824(11) 0.1006(3) 0.18561(10)
C40 C 0.67785(12) 0.2844(3) 0.18467(12)
H30 H 0.653435 0.334668 0.210879
C41 C 0.70330(12) 0.3936(3) 0.14529(12)
H31 H 0.696082 0.516848 0.145322
C42 C 0.66267(14) -0.1867(4) 0.22305(13)
H32 H 0.646193 -0.226511 0.183304
H33 H 0.638875 -0.237542 0.251507
H34 H 0.704938 -0.224744 0.232577
C43 C 1.05863(10) 0.5429(3) 0.06643(9)
C44 C 1.12170(10) 0.5792(3) 0.08026(10)
H35 H 1.139283 0.599430 0.119926
C45 C 1.15770(10) 0.5850(3) 0.03543(10)
H36 H 1.199680 0.609363 0.045435
C46 C 1.13317(9) 0.5551(3) -0.02599(9)
C47 C 1.06869(10) 0.5240(3) -0.03909(9)
C48 C 1.03244(9) 0.5178(3) 0.00757(9)
N2B N 1.23393(8) 0.5711(3) -0.06328(9)
O4B O 1.38338(8) 0.0429(3) 0.06079(9)
O5B O 1.34030(9) 0.9955(2) -0.22566(8)
O6B O 0.97645(7) 0.4669(2) -0.11275(6)
C25B C 1.03996(10) 0.4971(3) -0.09904(9)
C26B C 1.07417(11) 0.4970(3) -0.14481(10)
H19B H 1.055276 0.481558 -0.184308
C27B C 1.13842(11) 0.5207(3) -0.13162(10)
H20B H 1.161757 0.516376 -0.162980
C28B C 1.16814(10) 0.5497(3) -0.07453(10)
C29B C 1.27052(10) 0.4324(3) -0.03253(10)
C30B C 1.33377(11) 0.4573(3) -0.01465(12)
H21B H 1.352015 0.565007 -0.023648
C31B C 1.36942(11) 0.3266(4) 0.01582(12)
H22B H 1.411586 0.345892 0.026942
C32B C 1.34344(11) 0.1661(4) 0.03029(10)
C33B C 1.28093(11) 0.1399(3) 0.01422(10)
H23B H 1.262793 0.033353 0.024527
C34B C 1.24490(10) 0.2718(3) -0.01730(10)
H24B H 1.202755 0.252084 -0.028405
C35B C 1.35879(14) -0.1250(4) 0.07282(15)
H25B H 1.327723 -0.109342 0.098408
H26B H 1.340627 -0.180011 0.035768
H27B H 1.391182 -0.200680 0.092513
C36B C 1.26036(10) 0.6788(3) -0.10558(10)
C37B C 1.24999(11) 0.8614(3) -0.10759(11)
H28B H 1.225340 0.911938 -0.081637
C38B C 1.27509(11) 0.9716(3) -0.14696(11)
H29B H 1.267255 1.094570 -0.147399
C39B C 1.31176(11) 0.8994(3) -0.18561(10)
C40B C 1.32215(12) 0.7156(3) -0.18467(12)
H30B H 1.346565 0.665332 -0.210879
C41B C 1.29670(12) 0.6064(3) -0.14529(12)
H31B H 1.303918 0.483152 -0.145322
C42B C 1.33733(14) 1.1867(4) -0.22305(13)
H32B H 1.353807 1.226511 -0.183304
H33B H 1.361125 1.237542 -0.251507
H34B H 1.295062 1.224744 -0.232577
C43B C 0.94137(10) 0.4571(3) -0.06643(9)
C44B C 0.87830(10) 0.4208(3) -0.08026(10)
H35B H 0.860717 0.400570 -0.119926
C45B C 0.84230(10) 0.4150(3) -0.03543(10)
H36B H 0.800320 0.390637 -0.045435
C46B C 0.86683(9) 0.4449(3) 0.02599(9)
C47B C 0.93131(10) 0.4760(3) 0.03909(9)
C48B C 0.96756(9) 0.4822(3) -0.00757(9)
loop_
_geom_bond_atom_site_label_1
_geom_bond_atom_site_label_2
_geom_bond_site_symmetry_1
_geom_bond_site_symmetry_2
O1 C20 1_555 1_555
C1 N1 1_555 1_555
N1 C11 1_555 1_555
O2 C14 1_555 1_555
C2 C1 1_555 1_555
H1 C2 1_555 1_555
O3 C4 1_555 1_555
C3 C2 1_555 1_555
H2 C3 1_555 1_555
C4 C8 1_555 1_555
C5 O3 1_555 1_555
C6 C7 1_555 1_555
C7 H3 1_555 1_555
C8 C7 1_555 1_555
H4 C8 1_555 1_555
C9 C6 1_555 1_555
C10 C4 1_555 1_555
C11 C12 1_555 1_555
C12 H5 1_555 1_555
C13 C12 1_555 1_555
H6 C13 1_555 1_555
C14 C13 1_555 1_555
C15 C14 1_555 1_555
H7 C15 1_555 1_555
C16 C11 1_555 1_555
H8 C16 1_555 1_555
C17 N1 1_555 1_555
C18 H9 1_555 1_555
C19 C17 1_555 1_555
H10 C19 1_555 1_555
C20 C18 1_555 1_555
C21 C20 1_555 1_555
H11 C21 1_555 1_555
C22 C17 1_555 1_555
H12 C22 1_555 1_555
C23 O2 1_555 1_555
H13 C23 1_555 1_555
H14 C23 1_555 1_555
H15 C23 1_555 1_555
C24 O1 1_555 1_555
H16 C24 1_555 1_555
H17 C24 1_555 1_555
H18 C24 1_555 1_555
N2 C28 1_555 1_555
O4 C32 1_555 1_555
O5 C39 1_555 1_555
O6 C25 1_555 1_555
C25 C26 1_555 1_555
C26 H19 1_555 1_555
C27 C26 1_555 1_555
H20 C27 1_555 1_555
C28 C27 1_555 1_555
C29 N2 1_555 1_555
C30 C29 1_555 1_555
H21 C30 1_555 1_555
C31 C30 1_555 1_555
H22 C31 1_555 1_555
C32 C31 1_555 1_555
C33 C32 1_555 1_555
H23 C33 1_555 1_555
C34 C29 1_555 1_555
H24 C34 1_555 1_555
C35 O4 1_555 1_555
H25 C35 1_555 1_555
H26 C35 1_555 1_555
H27 C35 1_555 1_555
C36 N2 1_555 1_555
C37 C36 1_555 1_555
H28 C37 1_555 1_555
C38 C37 1_555 1_555
H29 C38 1_555 1_555
C39 C38 1_555 1_555
C40 C39 1_555 1_555
H30 C40 1_555 1_555
C41 C36 1_555 1_555
H31 C41 1_555 1_555
C42 O5 1_555 1_555
H32 C42 1_555 1_555
H33 C42 1_555 1_555
H34 C42 1_555 1_555
C43 O6 1_555 1_555
C44 C43 1_555 1_555
H35 C44 1_555 1_555
C45 C44 1_555 1_555
H36 C45 1_555 1_555
C46 C45 1_555 1_555
C47 C46 1_555 1_555
C48 C43 1_555 1_555
O1B C20B 1_555 1_555
C1B C6 1_555 1_555
N1B C1B 1_555 1_555
O2B C14B 1_555 1_555
C2B C1B 1_555 1_555
H1B C2B 1_555 1_555
O3B C4B 1_555 1_555
C3B C2B 1_555 1_555
H2B C3B 1_555 1_555
C4B C8B 1_555 1_555
C5B C9 1_555 1_555
C6B C1 1_555 1_555
C7B C6B 1_555 1_555
H3B C7B 1_555 1_555
C8B C7B 1_555 1_555
H4B C8B 1_555 1_555
C9B C5 1_555 1_555
C10B C10 1_555 1_555
C11B N1B 1_555 1_555
C12B C11B 1_555 1_555
H5B C12B 1_555 1_555
C13B C12B 1_555 1_555
H6B C13B 1_555 1_555
C14B C13B 1_555 1_555
C15B C14B 1_555 1_555
H7B C15B 1_555 1_555
C16B C11B 1_555 1_555
H8B C16B 1_555 1_555
C17B N1B 1_555 1_555
C18B H9B 1_555 1_555
C19B C17B 1_555 1_555
H10B C19B 1_555 1_555
C20B C18B 1_555 1_555
C21B C20B 1_555 1_555
H11B C21B 1_555 1_555
C22B C17B 1_555 1_555
H12B C22B 1_555 1_555
C23B O2B 1_555 1_555
H13B C23B 1_555 1_555
H14B C23B 1_555 1_555
H15B C23B 1_555 1_555
C24B O1B 1_555 1_555
H16B C24B 1_555 1_555
H17B C24B 1_555 1_555
H18B C24B 1_555 1_555
N2B C28B 1_555 1_555
O4B C32B 1_555 1_555
O5B C39B 1_555 1_555
O6B C25B 1_555 1_555
C25B C47 1_555 1_555
C26B C25B 1_555 1_555
H19B C26B 1_555 1_555
C27B C26B 1_555 1_555
H20B C27B 1_555 1_555
C28B C46 1_555 1_555
C29B N2B 1_555 1_555
C30B C29B 1_555 1_555
H21B C30B 1_555 1_555
C31B C30B 1_555 1_555
H22B C31B 1_555 1_555
C32B C31B 1_555 1_555
C33B C32B 1_555 1_555
H23B C33B 1_555 1_555
C34B C29B 1_555 1_555
H24B C34B 1_555 1_555
C35B O4B 1_555 1_555
H25B C35B 1_555 1_555
H26B C35B 1_555 1_555
H27B C35B 1_555 1_555
C36B N2B 1_555 1_555
C37B C36B 1_555 1_555
H28B C37B 1_555 1_555
C38B C37B 1_555 1_555
H29B C38B 1_555 1_555
C39B C38B 1_555 1_555
C40B C39B 1_555 1_555
H30B C40B 1_555 1_555
C41B C36B 1_555 1_555
H31B C41B 1_555 1_555
C42B O5B 1_555 1_555
H32B C42B 1_555 1_555
H33B C42B 1_555 1_555
H34B C42B 1_555 1_555
C43B O6B 1_555 1_555
C44B C43B 1_555 1_555
H35B C44B 1_555 1_555
C45B C44B 1_555 1_555
H36B C45B 1_555 1_555
C46B C28 1_555 1_555
C47B C25 1_555 1_555
C48B C48 1_555 1_555
C3 C5 1_555 1_555
C9 C10 1_555 1_555
C15 C16 1_555 1_555
C18 C19 1_555 1_555
C21 C22 1_555 1_555
C33 C34 1_555 1_555
C40 C41 1_555 1_555
C47 C48 1_555 1_555
O3B C5B 1_555 1_555
C3B C5B 1_555 1_555
C4B C10B 1_555 1_555
C6B C9B 1_555 1_555
C9B C10B 1_555 1_555
C15B C16B 1_555 1_555
C18B C19B 1_555 1_555
C21B C22B 1_555 1_555
C27B C28B 1_555 1_555
C33B C34B 1_555 1_555
C40B C41B 1_555 1_555
C43B C48B 1_555 1_555
C45B C46B 1_555 1_555
C46B C47B 1_555 1_555
C47B C48B 1_555 1_555

#END
