
#######################################################################
#
#                 Cambridge Crystallographic Data Centre
#                                CCDC 
#
#######################################################################
#
# If this CIF has been generated from an entry in the Cambridge 
# Structural Database, then it will include bibliographic, chemical, 
# crystal, experimental, refinement or atomic coordinate data resulting 
# from the CCDC's data processing and validation procedures.
#
#######################################################################

data_ZISZOS
_chemical_formula_moiety         'C60 H99 N6 S1 Si6,1.75(C7 H8)'
_chemical_name_systematic        
'1,3,7,9-Tetra-t-butyl-5-((2,6-diisopropylphenyl)(trimethylsilyl)amino)-10-((2,6-diisopropylphenyl)(trimethylsilyl)-azanylidene)-2,8-diphenyl-1,3,7,9-tetraaza-4,5,6,10-tetrasiladispiro[3.1.3.1]deca-1,7-diene-5-thiol toluene solvate'
_symmetry_cell_setting           triclinic
_symmetry_space_group_name_H-M   'P -1'
_symmetry_Int_Tables_number      2
_space_group_name_Hall           '-P 1'
loop_
_symmetry_equiv_pos_site_id
_symmetry_equiv_pos_as_xyz
1 x,y,z
2 -x,-y,-z
_cell_length_a                   13.0227(6)
_cell_length_b                   23.5664(11)
_cell_length_c                   24.7390(12)
_cell_angle_alpha                76.896(2)
_cell_angle_beta                 89.758(2)
_cell_angle_gamma                89.785(2)
_cell_volume                     7394.55
_exptl_crystal_colour            orange
_exptl_crystal_description       block
_cell_formula_units_Z            4
loop_
_atom_site_label
_atom_site_type_symbol
_atom_site_fract_x
_atom_site_fract_y
_atom_site_fract_z
C1 C 1.0080(3) 0.29999(15) 0.22385(16)
C2 C 1.0004(3) 0.28666(16) 0.28617(16)
H1 H 0.9349 0.3013 0.2972
H2 H 1.0571 0.3056 0.3011
H3 H 1.0044 0.2444 0.3008
C3 C 1.1094(3) 0.27547(19) 0.20742(18)
H4 H 1.1140 0.2339 0.2250
H5 H 1.1669 0.2961 0.2198
H6 H 1.1124 0.2808 0.1670
C4 C 1.0057(3) 0.36575(16) 0.20168(18)
H7 H 1.0173 0.3748 0.1615
H8 H 1.0596 0.3837 0.2196
H9 H 0.9386 0.3810 0.2096
C5 C 0.8814(3) 0.27606(15) 0.15358(16)
C6 C 0.9246(3) 0.31326(16) 0.10132(16)
C7 C 0.8941(3) 0.37114(17) 0.08238(17)
H10 H 0.8457 0.3880 0.1030
C8 C 0.9347(4) 0.40412(19) 0.03313(18)
H11 H 0.9135 0.4434 0.0199
C9 C 1.0068(4) 0.37952(19) 0.00296(18)
H12 H 1.0347 0.4022 -0.0306
C10 C 1.0374(3) 0.32206(19) 0.02208(17)
H13 H 1.0862 0.3053 0.0016
C11 C 0.9964(3) 0.28875(17) 0.07150(17)
H14 H 1.0176 0.2494 0.0847
C12 C 0.7277(3) 0.22981(16) 0.11577(15)
C13 C 0.7659(4) 0.17873(18) 0.09263(18)
H15 H 0.8290 0.1899 0.0712
H16 H 0.7133 0.1682 0.0684
H17 H 0.7798 0.1453 0.1233
C14 C 0.7122(4) 0.28328(17) 0.06782(17)
H18 H 0.7005 0.3178 0.0829
H19 H 0.6527 0.2770 0.0458
H20 H 0.7736 0.2891 0.0442
C15 C 0.6233(3) 0.2172(2) 0.14448(18)
H21 H 0.6300 0.1844 0.1767
H22 H 0.5737 0.2073 0.1184
H23 H 0.5994 0.2517 0.1567
C16 C 0.5304(3) 0.27442(15) 0.26450(15)
C17 C 0.5433(3) 0.33094(16) 0.23098(16)
C18 C 0.6319(3) 0.37009(16) 0.23752(17)
H24 H 0.6730 0.3498 0.2703
C19 C 0.7019(3) 0.38029(17) 0.18673(18)
H25 H 0.7276 0.3428 0.1814
H26 H 0.7598 0.4048 0.1922
H27 H 0.6631 0.3999 0.1539
C20 C 0.5966(4) 0.42883(19) 0.2478(2)
H28 H 0.5609 0.4510 0.2149
H29 H 0.6565 0.4509 0.2554
H30 H 0.5499 0.4223 0.2798
C21 C 0.4725(3) 0.35187(17) 0.18883(17)
H31 H 0.4800 0.3902 0.1665
C22 C 0.3920(3) 0.31797(18) 0.17913(18)
H32 H 0.3451 0.3325 0.1500
C23 C 0.3799(3) 0.26242(18) 0.21222(17)
H33 H 0.3239 0.2393 0.2054
C24 C 0.4470(3) 0.23979(16) 0.25492(16)
C25 C 0.4262(3) 0.17925(17) 0.29095(17)
H34 H 0.4912 0.1646 0.3107
C26 C 0.3444(4) 0.1825(2) 0.33472(19)
H35 H 0.3671 0.2093 0.3573
H36 H 0.3341 0.1436 0.3586
H37 H 0.2797 0.1965 0.3163
C27 C 0.3932(4) 0.13556(19) 0.2571(2)
H38 H 0.3251 0.1463 0.2412
H39 H 0.3906 0.0964 0.2812
H40 H 0.4428 0.1361 0.2270
C28 C 0.5917(4) 0.21117(18) 0.43085(17)
H41 H 0.5258 0.1915 0.4299
H42 H 0.5967 0.2248 0.4653
H43 H 0.6479 0.1839 0.4291
C29 C 0.7215(3) 0.31523(18) 0.37726(18)
H44 H 0.7786 0.2988 0.3598
H45 H 0.7364 0.3117 0.4167
H46 H 0.7128 0.3564 0.3590
C30 C 0.4848(3) 0.32128(18) 0.37310(18)
H47 H 0.4856 0.3548 0.3413
H48 H 0.4856 0.3350 0.4076
H49 H 0.4226 0.2984 0.3719
C31 C 0.6137(3) 0.03211(16) 0.40045(16)
C32 C 0.5926(3) 0.03170(17) 0.34044(16)
H50 H 0.5795 0.0716 0.3194
H51 H 0.5324 0.0075 0.3384
H52 H 0.6523 0.0158 0.3246
C33 C 0.5216(3) 0.05714(17) 0.42558(17)
H53 H 0.5350 0.0559 0.4648
H54 H 0.4604 0.0340 0.4225
H55 H 0.5103 0.0976 0.4056
C34 C 0.6354(3) -0.03063(15) 0.43203(17)
H56 H 0.6989 -0.0445 0.4179
H57 H 0.5782 -0.0557 0.4268
H58 H 0.6431 -0.0318 0.4717
C35 C 0.7561(3) 0.08078(15) 0.44320(15)
C36 C 0.7420(3) 0.05255(16) 0.50284(15)
C37 C 0.7980(3) 0.00213(16) 0.52715(16)
H59 H 0.8428 -0.0153 0.5051
C38 C 0.7877(3) -0.02197(17) 0.58321(16)
H60 H 0.8257 -0.0560 0.5995
C39 C 0.7231(3) 0.00268(17) 0.61577(16)
H61 H 0.7177 -0.0140 0.6544
C40 C 0.6658(3) 0.05206(17) 0.59208(16)
H62 H 0.6205 0.0688 0.6144
C41 C 0.6750(3) 0.07660(16) 0.53599(15)
H63 H 0.6355 0.1101 0.5198
C42 C 0.9071(3) 0.14694(15) 0.45118(15)
C43 C 0.9948(3) 0.10259(17) 0.46255(17)
H64 H 0.9706 0.0666 0.4874
H65 H 1.0519 0.1186 0.4800
H66 H 1.0181 0.0941 0.4275
C44 C 0.8703(3) 0.16235(17) 0.50491(16)
H67 H 0.8092 0.1872 0.4973
H68 H 0.9248 0.1831 0.5196
H69 H 0.8533 0.1265 0.5323
C45 C 0.9444(3) 0.20209(16) 0.41141(16)
H70 H 0.9681 0.1926 0.3768
H71 H 1.0013 0.2188 0.4284
H72 H 0.8880 0.2304 0.4034
C46 C 0.8374(3) 0.00545(15) 0.26181(15)
C47 C 0.8741(3) -0.03664(15) 0.30823(15)
C48 C 0.9685(3) -0.02799(16) 0.34084(16)
H73 H 1.0049 0.0077 0.3201
C49 C 0.9380(3) -0.01848(18) 0.39811(16)
H74 H 0.8915 0.0151 0.3936
H75 H 0.9997 -0.0111 0.4180
H76 H 0.9033 -0.0533 0.4194
C50 C 1.0426(3) -0.07958(16) 0.34763(17)
H77 H 1.0110 -0.1141 0.3714
H78 H 1.1063 -0.0704 0.3647
H79 H 1.0579 -0.0873 0.3112
C51 C 0.8201(3) -0.08879(15) 0.32604(16)
H80 H 0.8426 -0.1160 0.3583
C52 C 0.7356(3) -0.10183(17) 0.29817(17)
H81 H 0.7005 -0.1377 0.3108
C53 C 0.7022(3) -0.06194(16) 0.25149(16)
H82 H 0.6444 -0.0712 0.2319
C54 C 0.7511(3) -0.00853(16) 0.23242(16)
C55 C 0.7061(3) 0.03292(17) 0.18223(17)
H83 H 0.7578 0.0642 0.1685
C56 C 0.6818(4) 0.0039(2) 0.13463(18)
H84 H 0.7419 -0.0182 0.1268
H85 H 0.6644 0.0338 0.1014
H86 H 0.6236 -0.0226 0.1450
C57 C 0.6084(4) 0.06195(19) 0.19803(19)
H87 H 0.5575 0.0320 0.2133
H88 H 0.5802 0.0884 0.1650
H89 H 0.6248 0.0841 0.2259
C58 C 0.9463(4) 0.02369(17) 0.13607(17)
H90 H 0.9165 -0.0144 0.1529
H91 H 1.0055 0.0184 0.1131
H92 H 0.8947 0.0480 0.1129
C59 C 1.1096(3) 0.02135(18) 0.22006(18)
H93 H 1.1392 0.0396 0.2483
H94 H 1.1589 0.0235 0.1896
H95 H 1.0940 -0.0195 0.2367
C60 C 1.0244(3) 0.13656(16) 0.15766(17)
H96 H 0.9619 0.1588 0.1448
H97 H 1.0693 0.1360 0.1259
H98 H 1.0604 0.1549 0.1840
N1 N 0.9193(2) 0.27031(13) 0.20475(13)
N2 N 0.8014(2) 0.23989(13) 0.15805(13)
N3 N 0.6035(2) 0.25123(13) 0.30808(12)
N4 N 0.7040(2) 0.07010(12) 0.40001(12)
N5 N 0.8232(2) 0.12322(12) 0.42253(12)
N6 N 0.8912(2) 0.06024(12) 0.24233(13)
S1 S 1.04502(7) 0.12744(4) 0.30418(4)
Si1 Si 0.82672(8) 0.21076(4) 0.23351(4)
Si2 Si 0.69162(8) 0.19989(4) 0.29242(4)
Si3 Si 0.77684(8) 0.12714(4) 0.34993(4)
Si4 Si 0.89774(8) 0.11741(4) 0.27884(4)
Si5 Si 0.98918(9) 0.06037(5) 0.19266(5)
Si6 Si 0.60074(8) 0.27474(4) 0.37012(4)
C61 C 0.3739(3) 0.53685(16) 0.38981(16)
C62 C 0.4691(3) 0.56479(19) 0.40885(18)
H99 H 0.4762 0.6048 0.3869
H100 H 0.5302 0.5422 0.4037
H101 H 0.4618 0.5653 0.4482
C63 C 0.3578(3) 0.47518(17) 0.42543(18)
H102 H 0.3587 0.4763 0.4648
H103 H 0.4129 0.4496 0.4179
H104 H 0.2914 0.4602 0.4164
C64 C 0.3882(3) 0.53359(18) 0.33026(16)
H105 H 0.3260 0.5176 0.3172
H106 H 0.4468 0.5083 0.3273
H107 H 0.4009 0.5727 0.3075
C65 C 0.2336(3) 0.58539(15) 0.43660(15)
C66 C 0.2532(3) 0.55714(15) 0.49579(15)
C67 C 0.3256(3) 0.58073(16) 0.52586(16)
H108 H 0.3640 0.6141 0.5084
C68 C 0.3411(3) 0.55489(16) 0.58158(16)
H109 H 0.3908 0.5707 0.6020
C69 C 0.2855(3) 0.50678(17) 0.60773(16)
H110 H 0.2961 0.4900 0.6460
C70 C 0.2142(3) 0.48301(16) 0.57795(16)
H111 H 0.1763 0.4496 0.5958
C71 C 0.1977(3) 0.50776(16) 0.52216(15)
H112 H 0.1488 0.4912 0.5019
C72 C 0.0829(3) 0.65136(16) 0.44852(15)
C73 C 0.1257(3) 0.66923(18) 0.49946(16)
H113 H 0.1450 0.6343 0.5274
H114 H 0.0733 0.6910 0.5149
H115 H 0.1863 0.6938 0.4888
C74 C -0.0018(3) 0.60679(16) 0.46446(17)
H116 H -0.0297 0.5972 0.4309
H117 H -0.0566 0.6229 0.4839
H118 H 0.0259 0.5715 0.4889
C75 C 0.0397(3) 0.70530(16) 0.40912(16)
H119 H 0.0940 0.7345 0.3988
H120 H -0.0164 0.7215 0.4275
H121 H 0.0137 0.6946 0.3757
C76 C 0.4426(3) 0.77753(16) 0.24790(15)
C77 C 0.4282(3) 0.83487(17) 0.21638(16)
C78 C 0.3381(3) 0.87331(17) 0.22526(18)
H122 H 0.3001 0.8524 0.2591
C79 C 0.2643(3) 0.8827(2) 0.1770(2)
H123 H 0.2065 0.9068 0.1840
H124 H 0.2386 0.8449 0.1726
H125 H 0.2999 0.9023 0.1429
C80 C 0.3714(4) 0.9326(2) 0.2350(2)
H126 H 0.4026 0.9558 0.2010
H127 H 0.4216 0.9267 0.2652
H128 H 0.3114 0.9533 0.2450
C81 C 0.4961(3) 0.85710(19) 0.17314(18)
H129 H 0.4869 0.8958 0.1521
C82 C 0.5760(3) 0.8243(2) 0.16029(19)
H130 H 0.6215 0.8402 0.1307
C83 C 0.5901(3) 0.76744(19) 0.19098(18)
H131 H 0.6451 0.7447 0.1820
C84 C 0.5244(3) 0.74374(17) 0.23456(17)
C85 C 0.5477(3) 0.68178(17) 0.26862(18)
H132 H 0.4830 0.6657 0.2880
C86 C 0.5836(4) 0.6404(2) 0.2329(2)
H133 H 0.5349 0.6416 0.2026
H134 H 0.5874 0.6006 0.2558
H135 H 0.6517 0.6523 0.2175
C87 C 0.6286(4) 0.6836(2) 0.31282(19)
H136 H 0.6924 0.7000 0.2948
H137 H 0.6415 0.6440 0.3346
H138 H 0.6037 0.7080 0.3374
C88 C 0.3935(3) 0.71548(17) 0.41654(17)
H139 H 0.3376 0.6878 0.4164
H140 H 0.3903 0.7297 0.4508
H141 H 0.4596 0.6960 0.4145
C89 C 0.4961(3) 0.82426(18) 0.35425(18)
H142 H 0.5574 0.8020 0.3488
H143 H 0.5015 0.8363 0.3895
H144 H 0.4905 0.8589 0.3237
C90 C 0.2611(3) 0.81879(18) 0.36623(18)
H145 H 0.2672 0.8595 0.3460
H146 H 0.2520 0.8171 0.4059
H147 H 0.2017 0.8010 0.3524
C91 C -0.0418(3) 0.80045(16) 0.22448(17)
C92 C -0.0274(3) 0.78702(17) 0.28663(16)
H148 H -0.0301 0.7448 0.3013
H149 H -0.0822 0.8058 0.3036
H150 H 0.0393 0.8018 0.2953
C93 C -0.0404(3) 0.86686(16) 0.20189(18)
H151 H 0.0277 0.8820 0.2078
H152 H -0.0922 0.8850 0.2214
H153 H -0.0557 0.8759 0.1621
C94 C -0.1441(3) 0.77559(19) 0.21094(18)
H154 H -0.1506 0.7811 0.1706
H155 H -0.2006 0.7958 0.2251
H156 H -0.1468 0.7339 0.2284
C95 C 0.0779(3) 0.77723(16) 0.15007(16)
C96 C 0.0279(3) 0.81333(17) 0.09908(16)
C97 C -0.0477(4) 0.78790(19) 0.07325(18)
H157 H -0.0669 0.7485 0.0877
C98 C -0.0951(4) 0.8203(2) 0.02605(19)
H158 H -0.1466 0.8030 0.0080
C99 C -0.0678(5) 0.8777(2) 0.0052(2)
H159 H -0.1011 0.8999 -0.0268
C100 C 0.0077(4) 0.9028(2) 0.03089(19)
H160 H 0.0272 0.9420 0.0161
C101 C 0.0551(4) 0.87122(18) 0.07788(17)
H161 H 0.1062 0.8889 0.0958
C102 C 0.2297(3) 0.73326(18) 0.10666(16)
C103 C 0.3356(4) 0.7184(2) 0.13182(19)
H162 H 0.3645 0.7527 0.1423
H163 H 0.3807 0.7065 0.1045
H164 H 0.3298 0.6865 0.1648
C104 C 0.1896(4) 0.68405(18) 0.08243(18)
H165 H 0.1802 0.6491 0.1122
H166 H 0.2389 0.6757 0.0552
H167 H 0.1236 0.6955 0.0642
C105 C 0.2426(4) 0.78803(19) 0.05997(18)
H168 H 0.1798 0.7947 0.0377
H169 H 0.3007 0.7827 0.0363
H170 H 0.2555 0.8217 0.0761
C106 C 0.1416(3) 0.50709(15) 0.25839(16)
C107 C 0.2256(3) 0.49509(16) 0.22649(16)
C108 C 0.2644(3) 0.53847(18) 0.17545(17)
H171 H 0.2112 0.5696 0.1643
C109 C 0.2844(4) 0.5109(2) 0.12639(18)
H172 H 0.3449 0.4855 0.1340
H173 H 0.2967 0.5415 0.0930
H174 H 0.2246 0.4878 0.1207
C110 C 0.3636(4) 0.5671(2) 0.18868(19)
H175 H 0.3491 0.5906 0.2158
H176 H 0.3911 0.5921 0.1546
H177 H 0.4140 0.5368 0.2041
C111 C 0.2782(3) 0.44264(17) 0.24199(17)
H178 H 0.3344 0.4351 0.2200
C112 C 0.2504(3) 0.40082(17) 0.28909(17)
H179 H 0.2873 0.3652 0.2997
C113 C 0.1683(3) 0.41242(16) 0.31981(16)
H180 H 0.1493 0.3841 0.3521
C114 C 0.1108(3) 0.46444(15) 0.30574(15)
C115 C 0.0203(3) 0.47133(16) 0.34175(16)
H181 H -0.0204 0.5059 0.3221
C116 C -0.0507(3) 0.41812(17) 0.35290(17)
H182 H -0.0689 0.4085 0.3176
H183 H -0.1132 0.4270 0.3717
H184 H -0.0152 0.3849 0.3765
C117 C 0.0567(3) 0.48301(17) 0.39712(16)
H185 H 0.0959 0.4494 0.4175
H186 H -0.0030 0.4894 0.4193
H187 H 0.1004 0.5177 0.3900
C118 C -0.1365(3) 0.51930(18) 0.22853(18)
H188 H -0.1197 0.4782 0.2433
H189 H -0.1907 0.5225 0.2006
H190 H -0.1605 0.5366 0.2588
C119 C 0.0217(3) 0.52015(17) 0.14166(17)
H191 H 0.0691 0.5450 0.1158
H192 H -0.0385 0.5115 0.1213
H193 H 0.0564 0.4837 0.1592
C120 C -0.0604(3) 0.63364(17) 0.15967(18)
H194 H -0.0956 0.6525 0.1860
H195 H -0.1072 0.6313 0.1293
H196 H 0.0002 0.6565 0.1446
N7 N 0.2825(2) 0.57451(12) 0.39207(12)
N8 N 0.1644(2) 0.62745(13) 0.41695(12)
N9 N 0.3739(2) 0.75317(13) 0.29397(13)
N10 N 0.0455(3) 0.77110(13) 0.20254(13)
N11 N 0.1603(3) 0.74203(14) 0.15204(13)
N12 N 0.0826(2) 0.56099(13) 0.24167(13)
S2 S -0.06736(7) 0.62765(4) 0.30730(4)
Si7 Si 0.20498(8) 0.63047(4) 0.34362(4)
Si8 Si 0.28389(8) 0.70239(4) 0.28191(4)
Si9 Si 0.14250(8) 0.71255(4) 0.22823(4)
Si10 Si 0.07750(8) 0.61890(4) 0.27727(4)
Si11 Si -0.01977(9) 0.55866(4) 0.19595(5)
Si12 Si 0.38029(8) 0.77812(5) 0.35551(5)
C121 C 0.2721(4) 0.3409(2) 0.5479(2)
H197 H 0.2548 0.3781 0.5227
H198 H 0.3442 0.3412 0.5589
H199 H 0.2282 0.3351 0.5809
C122 C 0.2552(4) 0.2923(2) 0.5190(2)
C123 C 0.2589(5) 0.2343(3) 0.5472(3)
H200 H 0.2707 0.2247 0.5861
C124 C 0.2455(6) 0.1900(2) 0.5190(3)
H201 H 0.2503 0.1504 0.5386
C125 C 0.2257(5) 0.2028(3) 0.4636(3)
H202 H 0.2157 0.1725 0.4446
C126 C 0.2203(4) 0.2598(2) 0.4358(2)
H203 H 0.2068 0.2693 0.3971
C127 C 0.2344(4) 0.3036(2) 0.4633(2)
H204 H 0.2296 0.3430 0.4432
C128 C 0.5407(4) 0.4058(3) 1.0221(3)
H205 H 0.5864 0.3897 0.9978
H206 H 0.5242 0.3755 1.0552
H207 H 0.5748 0.4383 1.0333
C129 C 0.4440(4) 0.4271(2) 0.9918(2)
C130 C 0.4401(5) 0.4399(3) 0.9349(2)
H208 H 0.5000 0.4351 0.9143
C131 C 0.3490(5) 0.4600(3) 0.9066(2)
H209 H 0.3469 0.4682 0.8672
C132 C 0.2646(5) 0.4676(3) 0.9360(3)
H210 H 0.2029 0.4816 0.9172
C133 C 0.2675(5) 0.4551(3) 0.9933(3)
H211 H 0.2076 0.4604 1.0137
C134 C 0.3555(4) 0.4352(2) 1.0208(2)
H212 H 0.3564 0.4268 1.0602
C135 C 0.2952(4) 0.2102(4) 0.0849(2)
H213 H 0.2554 0.2028 0.1181
C136 C 0.3536(5) 0.1659(3) 0.0715(3)
C137 C 0.4118(4) 0.1768(3) 0.0230(3)
H214 H 0.4517 0.1465 0.0138
C138 C 0.4115(6) 0.2320(4) -0.0120(2)
H215 H 0.4512 0.2394 -0.0451
C139 C 0.3530(6) 0.2763(3) 0.0015(3)
H216 H 0.3529 0.3141 -0.0224
C140 C 0.2949(5) 0.2655(3) 0.0500(4)
H217 H 0.2549 0.2958 0.0592
C141 C 0.3486(11) 0.1051(6) 0.1058(5)
H218 H 0.3725 0.0779 0.0838
H219 H 0.2776 0.0958 0.1178
H220 H 0.3925 0.1016 0.1385
C142? C 0.7359(10) 1.0190(6) 0.9845(5)
H221? H 0.7752 0.9943 1.0146
H222? H 0.7485 1.0601 0.9840
H223? H 0.7573 1.0109 0.9490
C143? C 0.4880(9) 0.9422(7) 1.0294(6)
H224? H 0.4643 0.9051 1.0490
C144? C 0.4180(7) 0.9862(9) 1.0083(8)
H225? H 0.3464 0.9792 1.0134
C145? C 0.4527(9) 1.0404(8) 0.9796(8)
H226? H 0.4048 1.0705 0.9651
C146? C 0.5574(10) 1.0507(6) 0.9720(6)
H227? H 0.5811 1.0877 0.9524
C147? C 0.6274(7) 1.0066(6) 0.9932(5)
C148? C 0.5927(8) 0.9524(6) 1.0219(5)
H228? H 0.6405 0.9223 1.0363
loop_
_geom_bond_atom_site_label_1
_geom_bond_atom_site_label_2
_geom_bond_site_symmetry_1
_geom_bond_site_symmetry_2
C1 C2 1_555 1_555
C2 H1 1_555 1_555
H2 C2 1_555 1_555
H3 C2 1_555 1_555
C3 C1 1_555 1_555
H4 C3 1_555 1_555
H5 C3 1_555 1_555
H6 C3 1_555 1_555
C4 C1 1_555 1_555
H7 C4 1_555 1_555
H8 C4 1_555 1_555
H9 C4 1_555 1_555
C5 C6 1_555 1_555
C6 C7 1_555 1_555
C7 H10 1_555 1_555
C8 C7 1_555 1_555
H11 C8 1_555 1_555
C9 C8 1_555 1_555
H12 C9 1_555 1_555
C10 C9 1_555 1_555
H13 C10 1_555 1_555
C11 C6 1_555 1_555
H14 C11 1_555 1_555
C12 C13 1_555 1_555
C13 H15 1_555 1_555
H16 C13 1_555 1_555
H17 C13 1_555 1_555
C14 C12 1_555 1_555
H18 C14 1_555 1_555
H19 C14 1_555 1_555
H20 C14 1_555 1_555
C15 C12 1_555 1_555
H21 C15 1_555 1_555
H22 C15 1_555 1_555
H23 C15 1_555 1_555
C16 C17 1_555 1_555
C17 C18 1_555 1_555
C18 H24 1_555 1_555
C19 C18 1_555 1_555
H25 C19 1_555 1_555
H26 C19 1_555 1_555
H27 C19 1_555 1_555
C20 C18 1_555 1_555
H28 C20 1_555 1_555
H29 C20 1_555 1_555
H30 C20 1_555 1_555
C21 C17 1_555 1_555
H31 C21 1_555 1_555
C22 C21 1_555 1_555
H32 C22 1_555 1_555
C23 C22 1_555 1_555
H33 C23 1_555 1_555
C24 C16 1_555 1_555
C25 C24 1_555 1_555
H34 C25 1_555 1_555
C26 C25 1_555 1_555
H35 C26 1_555 1_555
H36 C26 1_555 1_555
H37 C26 1_555 1_555
C27 C25 1_555 1_555
H38 C27 1_555 1_555
H39 C27 1_555 1_555
H40 C27 1_555 1_555
C28 H41 1_555 1_555
H42 C28 1_555 1_555
H43 C28 1_555 1_555
C29 H44 1_555 1_555
H45 C29 1_555 1_555
H46 C29 1_555 1_555
C30 H47 1_555 1_555
H48 C30 1_555 1_555
H49 C30 1_555 1_555
C31 C32 1_555 1_555
C32 H50 1_555 1_555
H51 C32 1_555 1_555
H52 C32 1_555 1_555
C33 C31 1_555 1_555
H53 C33 1_555 1_555
H54 C33 1_555 1_555
H55 C33 1_555 1_555
C34 C31 1_555 1_555
H56 C34 1_555 1_555
H57 C34 1_555 1_555
H58 C34 1_555 1_555
C35 C36 1_555 1_555
C36 C37 1_555 1_555
C37 H59 1_555 1_555
C38 C37 1_555 1_555
H60 C38 1_555 1_555
C39 C38 1_555 1_555
H61 C39 1_555 1_555
C40 C39 1_555 1_555
H62 C40 1_555 1_555
C41 C36 1_555 1_555
H63 C41 1_555 1_555
C42 C43 1_555 1_555
C43 H64 1_555 1_555
H65 C43 1_555 1_555
H66 C43 1_555 1_555
C44 C42 1_555 1_555
H67 C44 1_555 1_555
H68 C44 1_555 1_555
H69 C44 1_555 1_555
C45 C42 1_555 1_555
H70 C45 1_555 1_555
H71 C45 1_555 1_555
H72 C45 1_555 1_555
C46 C47 1_555 1_555
C47 C48 1_555 1_555
C48 H73 1_555 1_555
C49 C48 1_555 1_555
H74 C49 1_555 1_555
H75 C49 1_555 1_555
H76 C49 1_555 1_555
C50 C48 1_555 1_555
H77 C50 1_555 1_555
H78 C50 1_555 1_555
H79 C50 1_555 1_555
C51 C47 1_555 1_555
H80 C51 1_555 1_555
C52 C51 1_555 1_555
H81 C52 1_555 1_555
C53 C52 1_555 1_555
H82 C53 1_555 1_555
C54 C46 1_555 1_555
C55 C54 1_555 1_555
H83 C55 1_555 1_555
C56 C55 1_555 1_555
H84 C56 1_555 1_555
H85 C56 1_555 1_555
H86 C56 1_555 1_555
C57 C55 1_555 1_555
H87 C57 1_555 1_555
H88 C57 1_555 1_555
H89 C57 1_555 1_555
C58 H90 1_555 1_555
H91 C58 1_555 1_555
H92 C58 1_555 1_555
C59 H93 1_555 1_555
H94 C59 1_555 1_555
H95 C59 1_555 1_555
C60 H96 1_555 1_555
H97 C60 1_555 1_555
H98 C60 1_555 1_555
N1 C1 1_555 1_555
N2 C5 1_555 1_555
N3 C16 1_555 1_555
N4 C31 1_555 1_555
N5 C35 1_555 1_555
N6 C46 1_555 1_555
S1 Si4 1_555 1_555
Si1 N1 1_555 1_555
Si2 N3 1_555 1_555
Si3 N4 1_555 1_555
Si4 N6 1_555 1_555
Si5 C58 1_555 1_555
Si6 C28 1_555 1_555
C61 C62 1_555 1_555
C62 H99 1_555 1_555
H100 C62 1_555 1_555
H101 C62 1_555 1_555
C63 C61 1_555 1_555
H102 C63 1_555 1_555
H103 C63 1_555 1_555
H104 C63 1_555 1_555
C64 C61 1_555 1_555
H105 C64 1_555 1_555
H106 C64 1_555 1_555
H107 C64 1_555 1_555
C65 C66 1_555 1_555
C66 C67 1_555 1_555
C67 H108 1_555 1_555
C68 C67 1_555 1_555
H109 C68 1_555 1_555
C69 C68 1_555 1_555
H110 C69 1_555 1_555
C70 C69 1_555 1_555
H111 C70 1_555 1_555
C71 C66 1_555 1_555
H112 C71 1_555 1_555
C72 C73 1_555 1_555
C73 H113 1_555 1_555
H114 C73 1_555 1_555
H115 C73 1_555 1_555
C74 C72 1_555 1_555
H116 C74 1_555 1_555
H117 C74 1_555 1_555
H118 C74 1_555 1_555
C75 C72 1_555 1_555
H119 C75 1_555 1_555
H120 C75 1_555 1_555
H121 C75 1_555 1_555
C76 C77 1_555 1_555
C77 C78 1_555 1_555
C78 H122 1_555 1_555
C79 C78 1_555 1_555
H123 C79 1_555 1_555
H124 C79 1_555 1_555
H125 C79 1_555 1_555
C80 C78 1_555 1_555
H126 C80 1_555 1_555
H127 C80 1_555 1_555
H128 C80 1_555 1_555
C81 C77 1_555 1_555
H129 C81 1_555 1_555
C82 C81 1_555 1_555
H130 C82 1_555 1_555
C83 C82 1_555 1_555
H131 C83 1_555 1_555
C84 C76 1_555 1_555
C85 C84 1_555 1_555
H132 C85 1_555 1_555
C86 C85 1_555 1_555
H133 C86 1_555 1_555
H134 C86 1_555 1_555
H135 C86 1_555 1_555
C87 C85 1_555 1_555
H136 C87 1_555 1_555
H137 C87 1_555 1_555
H138 C87 1_555 1_555
C88 H139 1_555 1_555
H140 C88 1_555 1_555
H141 C88 1_555 1_555
C89 H142 1_555 1_555
H143 C89 1_555 1_555
H144 C89 1_555 1_555
C90 H145 1_555 1_555
H146 C90 1_555 1_555
H147 C90 1_555 1_555
C91 C92 1_555 1_555
C92 H148 1_555 1_555
H149 C92 1_555 1_555
H150 C92 1_555 1_555
C93 C91 1_555 1_555
H151 C93 1_555 1_555
H152 C93 1_555 1_555
H153 C93 1_555 1_555
C94 C91 1_555 1_555
H154 C94 1_555 1_555
H155 C94 1_555 1_555
H156 C94 1_555 1_555
C95 C96 1_555 1_555
C96 C97 1_555 1_555
C97 H157 1_555 1_555
C98 C97 1_555 1_555
H158 C98 1_555 1_555
C99 C98 1_555 1_555
H159 C99 1_555 1_555
C100 C99 1_555 1_555
H160 C100 1_555 1_555
C101 C96 1_555 1_555
H161 C101 1_555 1_555
C102 C103 1_555 1_555
C103 H162 1_555 1_555
H163 C103 1_555 1_555
H164 C103 1_555 1_555
C104 C102 1_555 1_555
H165 C104 1_555 1_555
H166 C104 1_555 1_555
H167 C104 1_555 1_555
C105 C102 1_555 1_555
H168 C105 1_555 1_555
H169 C105 1_555 1_555
H170 C105 1_555 1_555
C106 C107 1_555 1_555
C107 C108 1_555 1_555
C108 H171 1_555 1_555
C109 C108 1_555 1_555
H172 C109 1_555 1_555
H173 C109 1_555 1_555
H174 C109 1_555 1_555
C110 C108 1_555 1_555
H175 C110 1_555 1_555
H176 C110 1_555 1_555
H177 C110 1_555 1_555
C111 C107 1_555 1_555
H178 C111 1_555 1_555
C112 C111 1_555 1_555
H179 C112 1_555 1_555
C113 C112 1_555 1_555
H180 C113 1_555 1_555
C114 C106 1_555 1_555
C115 C114 1_555 1_555
H181 C115 1_555 1_555
C116 C115 1_555 1_555
H182 C116 1_555 1_555
H183 C116 1_555 1_555
H184 C116 1_555 1_555
C117 C115 1_555 1_555
H185 C117 1_555 1_555
H186 C117 1_555 1_555
H187 C117 1_555 1_555
C118 H188 1_555 1_555
H189 C118 1_555 1_555
H190 C118 1_555 1_555
C119 H191 1_555 1_555
H192 C119 1_555 1_555
H193 C119 1_555 1_555
C120 H194 1_555 1_555
H195 C120 1_555 1_555
H196 C120 1_555 1_555
N7 C61 1_555 1_555
N8 C65 1_555 1_555
N9 C76 1_555 1_555
N10 C91 1_555 1_555
N11 C95 1_555 1_555
N12 C106 1_555 1_555
S2 Si10 1_555 1_555
Si7 N7 1_555 1_555
Si8 N9 1_555 1_555
Si9 N10 1_555 1_555
Si10 N12 1_555 1_555
Si11 C118 1_555 1_555
Si12 C88 1_555 1_555
C121 H197 1_555 1_555
H198 C121 1_555 1_555
H199 C121 1_555 1_555
C122 C121 1_555 1_555
C123 C122 1_555 1_555
H200 C123 1_555 1_555
C124 C123 1_555 1_555
H201 C124 1_555 1_555
C125 C124 1_555 1_555
H202 C125 1_555 1_555
C126 C125 1_555 1_555
H203 C126 1_555 1_555
C127 C122 1_555 1_555
H204 C127 1_555 1_555
C128 H205 1_555 1_555
H206 C128 1_555 1_555
H207 C128 1_555 1_555
C129 C128 1_555 1_555
C130 C129 1_555 1_555
H208 C130 1_555 1_555
C131 C130 1_555 1_555
H209 C131 1_555 1_555
C132 C131 1_555 1_555
H210 C132 1_555 1_555
C133 C132 1_555 1_555
H211 C133 1_555 1_555
C134 C129 1_555 1_555
H212 C134 1_555 1_555
C135 H213 1_555 1_555
C136 C135 1_555 1_555
C137 C136 1_555 1_555
H214 C137 1_555 1_555
C138 C137 1_555 1_555
H215 C138 1_555 1_555
C139 C138 1_555 1_555
H216 C139 1_555 1_555
C140 C135 1_555 1_555
H217 C140 1_555 1_555
C141 C136 1_555 1_555
H218 C141 1_555 1_555
H219 C141 1_555 1_555
H220 C141 1_555 1_555
C5 N1 1_555 1_555
C10 C11 1_555 1_555
C12 N2 1_555 1_555
C23 C24 1_555 1_555
C29 Si6 1_555 1_555
C30 Si6 1_555 1_555
C35 N4 1_555 1_555
C40 C41 1_555 1_555
C42 N5 1_555 1_555
C53 C54 1_555 1_555
C59 Si5 1_555 1_555
C60 Si5 1_555 1_555
N2 Si1 1_555 1_555
N3 Si6 1_555 1_555
N5 Si3 1_555 1_555
N6 Si5 1_555 1_555
Si1 Si2 1_555 1_555
Si1 Si4 1_555 1_555
Si2 Si3 1_555 1_555
Si3 Si4 1_555 1_555
C65 N7 1_555 1_555
C70 C71 1_555 1_555
C72 N8 1_555 1_555
C83 C84 1_555 1_555
C89 Si12 1_555 1_555
C90 Si12 1_555 1_555
C95 N10 1_555 1_555
C100 C101 1_555 1_555
C102 N11 1_555 1_555
C113 C114 1_555 1_555
C119 Si11 1_555 1_555
C120 Si11 1_555 1_555
N8 Si7 1_555 1_555
N9 Si12 1_555 1_555
N11 Si9 1_555 1_555
N12 Si11 1_555 1_555
Si7 Si8 1_555 1_555
Si7 Si10 1_555 1_555
Si8 Si9 1_555 1_555
Si9 Si10 1_555 1_555
C126 C127 1_555 1_555
C133 C134 1_555 1_555
C139 C140 1_555 1_555

#END
