
#######################################################################
#
#                 Cambridge Crystallographic Data Centre
#                                CCDC 
#
#######################################################################
#
# If this CIF has been generated from an entry in the Cambridge 
# Structural Database, then it will include bibliographic, chemical, 
# crystal, experimental, refinement or atomic coordinate data resulting 
# from the CCDC's data processing and validation procedures.
#
#######################################################################

data_ZITBOT
_chemical_formula_moiety         'C36 H52 Li2 N6,0.5(C6 H16 N2)'
_chemical_name_systematic        
'bis((\m~2~-2-Benzylidene-1H,2H-pyridine-N,N)-(tetramethylethylenediamine)-lithium) tetramethylethylenediamine solvate'
_symmetry_cell_setting           monoclinic
_symmetry_space_group_name_H-M   'C 2/c'
_symmetry_Int_Tables_number      15
_space_group_name_Hall           '-C 2yn'
loop_
_symmetry_equiv_pos_site_id
_symmetry_equiv_pos_as_xyz
1 x,y,z
2 -x,y,1/2-z
3 1/2+x,1/2+y,z
4 1/2-x,1/2+y,1/2-z
5 -x,-y,-z
6 x,-y,1/2+z
7 1/2-x,1/2-y,-z
8 1/2+x,1/2-y,1/2+z
_cell_length_a                   14.191(3)
_cell_length_b                   19.153(4)
_cell_length_c                   16.514(3)
_cell_angle_alpha                90
_cell_angle_beta                 100.00(3)
_cell_angle_gamma                90
_cell_volume                     4420.32
_exptl_crystal_colour            orange
_cell_formula_units_Z            4
loop_
_atom_site_label
_atom_site_type_symbol
_atom_site_fract_x
_atom_site_fract_y
_atom_site_fract_z
Li1 Li 0.0000 0.0698(10) 0.2500
Li2 Li 0.0000 0.2219(10) 0.2500
N1 N 0.1033(4) 0.1392(3) 0.3081(4)
C1 C 0.0101(5) 0.1746(4) 0.4050(5)
C2 C 0.0989(6) 0.1561(4) 0.3898(4)
C3 C 0.1853(5) 0.1510(4) 0.4487(5)
C4 C 0.2677(6) 0.1320(5) 0.4247(5)
C5 C 0.2727(6) 0.1185(5) 0.3417(5)
C6 C 0.1873(6) 0.1221(5) 0.2889(5)
C7 C -0.0167(6) 0.1983(4) 0.4827(5)
C8 C 0.0433(6) 0.2322(4) 0.5460(5)
C9 C 0.0101(7) 0.2534(5) 0.6151(5)
C10 C -0.0817(8) 0.2438(5) 0.6251(6)
C11 C -0.1435(7) 0.2140(5) 0.5617(5)
C12 C -0.1111(6) 0.1918(4) 0.4941(5)
N2 N 0.1053(5) 0.3073(3) 0.2561(4)
C13 C 0.0453(6) 0.3676(4) 0.2331(6)
C14 C 0.1619(7) 0.3148(5) 0.3374(5)
C15 C 0.1685(7) 0.3018(5) 0.1974(5)
N3 N 0.0259(6) -0.0109(4) 0.1685(4)
C16 C 0.0353(8) -0.0731(5) 0.2227(5)
C17 C -0.0568(7) -0.0147(5) 0.1023(5)
C18 C 0.1125(7) -0.0068(5) 0.1312(6)
H1 H -0.0239 0.1312 0.3952
H2 H 0.1835 0.1601 0.5056
H3 H 0.3245 0.1269 0.4654
H4 H 0.3327 0.1084 0.3249
H5 H 0.1892 0.1115 0.2324
H6 H 0.1077 0.2415 0.5384
H7 H 0.0545 0.2758 0.6577
H8 H -0.1014 0.2584 0.6753
H9 H -0.2091 0.2078 0.5676
H10 H -0.1551 0.1710 0.4500
H11 H 0.0280 0.3685 0.1743
H12 H 0.0808 0.4094 0.2497
H13 H 0.2079 0.3516 0.3380
H14 H 0.1202 0.3254 0.3756
H15 H 0.1946 0.2717 0.3528
H16 H 0.2124 0.3404 0.2046
H17 H 0.2034 0.2589 0.2078
H18 H 0.1337 0.3018 0.1421
H19 H 0.0970 -0.0706 0.2574
H20 H 0.0325 -0.1155 0.1914
H21 H -0.0488 -0.0510 0.0639
H22 H -0.1147 -0.0226 0.1235
H23 H -0.0603 0.0297 0.0749
H24 H 0.1162 -0.0463 0.0961
H25 H 0.1088 0.0353 0.0991
H26 H 0.1685 -0.0053 0.1731
N1A N -0.1033(4) 0.1392(3) 0.1919(4)
C16A C -0.0353(8) -0.0731(5) 0.2773(5)
N3A N -0.0259(6) -0.0109(4) 0.3315(4)
C17A C 0.0568(7) -0.0147(5) 0.3977(5)
H21A H 0.0488 -0.0510 0.4361
H22A H 0.1147 -0.0226 0.3765
H23A H 0.0603 0.0297 0.4251
C18A C -0.1125(7) -0.0068(5) 0.3688(6)
H24A H -0.1162 -0.0463 0.4039
H25A H -0.1088 0.0353 0.4009
H26A H -0.1685 -0.0053 0.3269
H19A H -0.0970 -0.0706 0.2426
H20A H -0.0325 -0.1155 0.3086
C2A C -0.0989(6) 0.1561(4) 0.1102(4)
C1A C -0.0101(5) 0.1746(4) 0.0950(5)
C7A C 0.0167(6) 0.1983(4) 0.0173(5)
C8A C -0.0433(6) 0.2322(4) -0.0460(5)
C9A C -0.0101(7) 0.2534(5) -0.1151(5)
C10A C 0.0817(8) 0.2438(5) -0.1251(6)
C11A C 0.1435(7) 0.2140(5) -0.0617(5)
C12A C 0.1111(6) 0.1918(4) 0.0059(5)
H10A H 0.1551 0.1710 0.0500
H9A H 0.2091 0.2078 -0.0676
H8A H 0.1014 0.2584 -0.1753
H7A H -0.0545 0.2758 -0.1577
H6A H -0.1077 0.2415 -0.0384
H1A H 0.0239 0.1312 0.1048
C3A C -0.1853(5) 0.1510(4) 0.0513(5)
C4A C -0.2677(6) 0.1320(5) 0.0753(5)
C5A C -0.2727(6) 0.1185(5) 0.1583(5)
C6A C -0.1873(6) 0.1221(5) 0.2111(5)
H5A H -0.1892 0.1115 0.2676
H4A H -0.3327 0.1084 0.1751
H3A H -0.3245 0.1269 0.0346
H2A H -0.1835 0.1601 -0.0056
C13A C -0.0453(6) 0.3676(4) 0.2669(6)
N2A N -0.1053(5) 0.3073(3) 0.2439(4)
C14A C -0.1619(7) 0.3148(5) 0.1626(5)
H13A H -0.2079 0.3516 0.1620
H14A H -0.1202 0.3254 0.1244
H15A H -0.1946 0.2717 0.1472
C15A C -0.1685(7) 0.3018(5) 0.3026(5)
H16A H -0.2124 0.3404 0.2954
H17A H -0.2034 0.2589 0.2922
H18A H -0.1337 0.3018 0.3579
H11A H -0.0280 0.3685 0.3257
H12A H -0.0808 0.4094 0.2503
N4 N 0.3974(12) 0.0221(10) 0.0635(11)
C19 C 0.4757(11) 0.0227(8) 0.0249(9)
C20 C 0.4053(16) 0.0571(11) 0.1393(13)
C21 C 0.3312(16) 0.0600(13) 0.0108(15)
C19D C 0.5243(11) -0.0227(8) -0.0249(9)
N4D N 0.6026(12) -0.0221(10) -0.0635(11)
C20D C 0.5947(16) -0.0571(11) -0.1393(13)
C21D C 0.6688(16) -0.0600(13) -0.0108(15)
loop_
_geom_bond_atom_site_label_1
_geom_bond_atom_site_label_2
_geom_bond_site_symmetry_1
_geom_bond_site_symmetry_2
Li1 N1 1_555 1_555
Li2 N1 1_555 1_555
N1 C2 1_555 1_555
C1 C2 1_555 1_555
C2 C3 1_555 1_555
C3 C4 1_555 1_555
C4 C5 1_555 1_555
C5 C6 1_555 1_555
C6 N1 1_555 1_555
C7 C1 1_555 1_555
C8 C7 1_555 1_555
C9 C8 1_555 1_555
C10 C9 1_555 1_555
C11 C10 1_555 1_555
C12 C7 1_555 1_555
N2 Li2 1_555 1_555
C13 N2 1_555 1_555
C14 N2 1_555 1_555
C15 N2 1_555 1_555
N3 Li1 1_555 1_555
C16 N3 1_555 1_555
C17 N3 1_555 1_555
C18 N3 1_555 1_555
N4 C19 1_555 1_555
C19 C19D 1_555 1_555
C20 N4 1_555 1_555
C21 N4 1_555 1_555
H1 C1 1_555 1_555
H2 C3 1_555 1_555
H3 C4 1_555 1_555
H4 C5 1_555 1_555
H5 C6 1_555 1_555
H6 C8 1_555 1_555
H7 C9 1_555 1_555
H8 C10 1_555 1_555
H9 C11 1_555 1_555
H10 C12 1_555 1_555
H11 C13 1_555 1_555
H12 C13 1_555 1_555
H13 C14 1_555 1_555
H14 C14 1_555 1_555
H15 C14 1_555 1_555
H16 C15 1_555 1_555
H17 C15 1_555 1_555
H18 C15 1_555 1_555
H19 C16 1_555 1_555
H20 C16 1_555 1_555
H21 C17 1_555 1_555
H22 C17 1_555 1_555
H23 C17 1_555 1_555
H24 C18 1_555 1_555
H25 C18 1_555 1_555
H26 C18 1_555 1_555
N1A Li1 1_555 1_555
C16A C16 1_555 1_555
N3A Li1 1_555 1_555
C17A N3A 1_555 1_555
H21A C17A 1_555 1_555
H22A C17A 1_555 1_555
H23A C17A 1_555 1_555
C18A N3A 1_555 1_555
H24A C18A 1_555 1_555
H25A C18A 1_555 1_555
H26A C18A 1_555 1_555
H19A C16A 1_555 1_555
H20A C16A 1_555 1_555
C2A N1A 1_555 1_555
C1A C2A 1_555 1_555
C7A C1A 1_555 1_555
C8A C7A 1_555 1_555
C9A C8A 1_555 1_555
C10A C9A 1_555 1_555
C11A C10A 1_555 1_555
C12A C7A 1_555 1_555
H10A C12A 1_555 1_555
H9A C11A 1_555 1_555
H8A C10A 1_555 1_555
H7A C9A 1_555 1_555
H6A C8A 1_555 1_555
H1A C1A 1_555 1_555
C3A C2A 1_555 1_555
C4A C3A 1_555 1_555
C5A C4A 1_555 1_555
C6A N1A 1_555 1_555
H5A C6A 1_555 1_555
H4A C5A 1_555 1_555
H3A C4A 1_555 1_555
H2A C3A 1_555 1_555
C13A C13 1_555 1_555
N2A Li2 1_555 1_555
C14A N2A 1_555 1_555
H13A C14A 1_555 1_555
H14A C14A 1_555 1_555
H15A C14A 1_555 1_555
C15A N2A 1_555 1_555
H16A C15A 1_555 1_555
H17A C15A 1_555 1_555
H18A C15A 1_555 1_555
H11A C13A 1_555 1_555
H12A C13A 1_555 1_555
C19D N4D 1_555 1_555
N4D C20D 1_555 1_555
C21D N4D 1_555 1_555
Li2 N1A 1_555 1_555
C11 C12 1_555 1_555
C16A N3A 1_555 1_555
C11A C12A 1_555 1_555
C5A C6A 1_555 1_555
C13A N2A 1_555 1_555

#END
