
#######################################################################
#
#                 Cambridge Crystallographic Data Centre
#                                CCDC 
#
#######################################################################
#
# If this CIF has been generated from an entry in the Cambridge 
# Structural Database, then it will include bibliographic, chemical, 
# crystal, experimental, refinement or atomic coordinate data resulting 
# from the CCDC's data processing and validation procedures.
#
#######################################################################

data_ZITCOW01
_chemical_formula_moiety         'C44 H42 F1 O2'
_chemical_name_systematic        
1,1'-(2-Fluoro-1,4-phenylene)bis(5-phenyl-3-(2-phenylethyl)pent-1-yn-3-ol)
_symmetry_cell_setting           orthorhombic
_symmetry_space_group_name_H-M   'P c a 21'
_symmetry_Int_Tables_number      29
_space_group_name_Hall           'P 2c -2ac'
loop_
_symmetry_equiv_pos_site_id
_symmetry_equiv_pos_as_xyz
1 x,y,z
2 -x,-y,1/2+z
3 1/2+x,-y,z
4 1/2-x,y,1/2+z
_cell_length_a                   21.9925(5)
_cell_length_b                   5.70270(10)
_cell_length_c                   27.9387(7)
_cell_angle_alpha                90
_cell_angle_beta                 90
_cell_angle_gamma                90
_cell_volume                     3503.98
_exptl_crystal_colour            colorless
_exptl_crystal_description       block
_cell_formula_units_Z            4
loop_
_atom_site_label
_atom_site_type_symbol
_atom_site_fract_x
_atom_site_fract_y
_atom_site_fract_z
O1 O 0.20784(7) 0.8366(3) 0.01511(5)
H1 H 0.1762 0.9115 0.0237
C1 C 0.43342(11) 0.0375(4) -0.02936(10)
O2 O 0.67849(8) -0.3460(3) -0.02487(6)
H2 H 0.6689 -0.4810 -0.0144
C2 C 0.44947(11) 0.4397(4) 0.02292(10)
H3 H 0.4549 0.5737 0.0403
C3 C 0.38390(11) 0.1697(4) -0.01652(10)
H4 H 0.3458 0.1190 -0.0249
C4 C 0.49912(10) 0.3072(4) 0.00997(10)
H5 H 0.5386 0.3485 0.0203
C5 C 0.49216(10) 0.1022(4) -0.01612(8)
C6 C 0.39090(10) 0.3731(4) 0.01001(8)
C7 C 0.54388(10) -0.0340(4) -0.03071(9)
C8 C 0.58694(10) -0.1424(4) -0.04407(8)
C9 C 0.33937(10) 0.5111(4) 0.02418(8)
C10 C 0.29621(10) 0.6201(4) 0.03691(8)
C11 C 0.64084(9) -0.2657(4) -0.06359(7)
C12 C 0.62062(10) -0.4858(4) -0.09059(8)
H6 H 0.6563 -0.5702 -0.1014
H7 H 0.5986 -0.5873 -0.0688
C13 C 0.58030(14) -0.4312(5) -0.13360(11)
H8 H 0.5483 -0.3249 -0.1235
H9 H 0.6045 -0.3506 -0.1575
C14 C 0.55146(12) -0.6437(4) -0.15642(8)
C15 C 0.58247(15) -0.7723(5) -0.19052(10)
H10 H 0.6220 -0.7309 -0.1989
C16 C 0.5542(2) -0.9662(6) -0.21258(11)
H11 H 0.5750 -1.0534 -0.2355
C17 C 0.4963(3) -1.0245(7) -0.20008(18)
H12 H 0.4775 -1.1512 -0.2149
C18 C 0.46583(19) -0.9008(9) -0.16639(19)
H13 H 0.4265 -0.9440 -0.1578
C19 C 0.49292(14) -0.7125(6) -0.14500(13)
H14 H 0.4714 -0.6281 -0.1221
C20 C 0.67597(9) -0.0909(4) -0.09484(8)
H15 H 0.6491 -0.0348 -0.1199
H16 H 0.6872 0.0429 -0.0753
C21 C 0.73357(11) -0.1901(4) -0.11807(9)
H17 H 0.7591 -0.2594 -0.0936
H18 H 0.7224 -0.3127 -0.1405
C22 C 0.76862(11) -0.0028(4) -0.14392(10)
C23 C 0.79950(12) 0.1709(5) -0.11955(12)
H19 H 0.7989 0.1723 -0.0863
C24 C 0.83142(13) 0.3437(5) -0.14398(16)
H20 H 0.8525 0.4577 -0.1269
C25 C 0.8320(2) 0.3473(7) -0.19251(17)
H21 H 0.8535 0.4625 -0.2089
C26 C 0.8008(2) 0.1807(10) -0.21674(16)
H22 H 0.8003 0.1851 -0.2500
C27 C 0.76960(19) 0.0038(7) -0.19329(12)
H23 H 0.7493 -0.1107 -0.2108
C28 C 0.24247(9) 0.7487(3) 0.05510(7)
C29 C 0.20387(9) 0.5780(3) 0.08454(7)
H24 H 0.1931 0.4457 0.0644
H25 H 0.2284 0.5187 0.1107
C30 C 0.14563(10) 0.6826(4) 0.10518(9)
H26 H 0.1561 0.8032 0.1282
H27 H 0.1226 0.7557 0.0796
C31 C 0.10687(10) 0.5001(4) 0.12918(8)
C32 C 0.07990(10) 0.3221(4) 0.10315(9)
H28 H 0.0856 0.3158 0.0702
C33 C 0.04443(12) 0.1525(5) 0.12539(11)
H29 H 0.0266 0.0345 0.1072
C34 C 0.03552(14) 0.1574(6) 0.17364(12)
H30 H 0.0123 0.0421 0.1885
C35 C 0.06148(16) 0.3366(7) 0.20033(12)
H31 H 0.0554 0.3425 0.2333
C36 C 0.09634(13) 0.5063(6) 0.17810(10)
H32 H 0.1130 0.6269 0.1963
C37 C 0.26302(10) 0.9638(3) 0.08373(7)
H33 H 0.2883 1.0618 0.0635
H34 H 0.2275 1.0545 0.0928
C38 C 0.29862(13) 0.8996(4) 0.12876(9)
H35 H 0.2710 0.8300 0.1518
H36 H 0.3289 0.7825 0.1206
C39 C 0.32988(11) 1.1045(4) 0.15169(8)
C40 C 0.30291(14) 1.2319(5) 0.18794(10)
H37 H 0.2640 1.1928 0.1983
C41 C 0.33370(17) 1.4188(6) 0.20900(11)
H38 H 0.3153 1.5034 0.2335
C42 C 0.39032(15) 1.4785(5) 0.19408(12)
H39 H 0.4107 1.6022 0.2087
C43 C 0.41735(14) 1.3576(6) 0.15774(13)
H40 H 0.4557 1.4014 0.1470
C44 C 0.38771(12) 1.1703(5) 0.13697(11)
H41 H 0.4068 1.0865 0.1127
F1 F 0.42746(15) -0.1570(6) -0.05461(15)
H42? H 0.1968 0.7208 -0.0019
H43? H 0.2323 0.9199 -0.0012
H44? H 0.6809 -0.2423 -0.0031
F2? F 0.4528(2) 0.6382(9) 0.0457(2)
F3? F 0.3297(3) 0.1205(17) -0.0261(4)
F4? F 0.5514(7) 0.359(4) 0.0163(11)
H45? H 0.4280 -0.0949 -0.0472
loop_
_geom_bond_atom_site_label_1
_geom_bond_atom_site_label_2
_geom_bond_site_symmetry_1
_geom_bond_site_symmetry_2
O1 H1 1_555 1_555
C1 C3 1_555 1_555
O2 H2 1_555 1_555
C2 H3 1_555 1_555
C3 H4 1_555 1_555
C4 C2 1_555 1_555
H5 C4 1_555 1_555
C5 C1 1_555 1_555
C6 C2 1_555 1_555
C7 C5 1_555 1_555
C8 C7 1_555 1_555
C9 C6 1_555 1_555
C10 C9 1_555 1_555
C11 O2 1_555 1_555
C12 C11 1_555 1_555
H6 C12 1_555 1_555
H7 C12 1_555 1_555
C13 C12 1_555 1_555
H8 C13 1_555 1_555
H9 C13 1_555 1_555
C14 C13 1_555 1_555
C15 C14 1_555 1_555
H10 C15 1_555 1_555
C16 C15 1_555 1_555
H11 C16 1_555 1_555
C17 C16 1_555 1_555
H12 C17 1_555 1_555
C18 C17 1_555 1_555
H13 C18 1_555 1_555
C19 C14 1_555 1_555
H14 C19 1_555 1_555
C20 C11 1_555 1_555
H15 C20 1_555 1_555
H16 C20 1_555 1_555
C21 C20 1_555 1_555
H17 C21 1_555 1_555
H18 C21 1_555 1_555
C22 C21 1_555 1_555
C23 C22 1_555 1_555
H19 C23 1_555 1_555
C24 C23 1_555 1_555
H20 C24 1_555 1_555
C25 C24 1_555 1_555
H21 C25 1_555 1_555
C26 C25 1_555 1_555
H22 C26 1_555 1_555
C27 C22 1_555 1_555
H23 C27 1_555 1_555
C28 O1 1_555 1_555
C29 C28 1_555 1_555
H24 C29 1_555 1_555
H25 C29 1_555 1_555
C30 C29 1_555 1_555
H26 C30 1_555 1_555
H27 C30 1_555 1_555
C31 C30 1_555 1_555
C32 C31 1_555 1_555
H28 C32 1_555 1_555
C33 C32 1_555 1_555
H29 C33 1_555 1_555
C34 C33 1_555 1_555
H30 C34 1_555 1_555
C35 C34 1_555 1_555
H31 C35 1_555 1_555
C36 C31 1_555 1_555
H32 C36 1_555 1_555
C37 C28 1_555 1_555
H33 C37 1_555 1_555
H34 C37 1_555 1_555
C38 C37 1_555 1_555
H35 C38 1_555 1_555
H36 C38 1_555 1_555
C39 C38 1_555 1_555
C40 C39 1_555 1_555
H37 C40 1_555 1_555
C41 C40 1_555 1_555
H38 C41 1_555 1_555
C42 C41 1_555 1_555
H39 C42 1_555 1_555
C43 C42 1_555 1_555
H40 C43 1_555 1_555
C44 C39 1_555 1_555
H41 C44 1_555 1_555
F1 C1 1_555 1_555
C3 C6 1_555 1_555
C4 C5 1_555 1_555
C8 C11 1_555 1_555
C10 C28 1_555 1_555
C18 C19 1_555 1_555
C26 C27 1_555 1_555
C35 C36 1_555 1_555
C43 C44 1_555 1_555

#END
