
#######################################################################
#
#                 Cambridge Crystallographic Data Centre
#                                CCDC 
#
#######################################################################
#
# If this CIF has been generated from an entry in the Cambridge 
# Structural Database, then it will include bibliographic, chemical, 
# crystal, experimental, refinement or atomic coordinate data resulting 
# from the CCDC's data processing and validation procedures.
#
#######################################################################

data_ZITDIR
_chemical_formula_moiety         '2(C14 H18 I2 O5),2(H2 O1),4(I2),H1 Cl1'
_chemical_name_systematic        
'15,16-Diiodo-2,3,5,6,8,9,11,12-octahydro-1,4,7,10,13-benzopentaoxacyclopentadecine iodine hydrochloride dihydrate'
_symmetry_cell_setting           triclinic
_symmetry_space_group_name_H-M   'P -1'
_symmetry_Int_Tables_number      2
_space_group_name_Hall           '-P 1'
loop_
_symmetry_equiv_pos_site_id
_symmetry_equiv_pos_as_xyz
1 x,y,z
2 -x,-y,-z
_cell_length_a                   10.4991(18)
_cell_length_b                   11.4924(18)
_cell_length_c                   12.079(2)
_cell_angle_alpha                70.836(19)
_cell_angle_beta                 80.96(2)
_cell_angle_gamma                80.188(19)
_cell_volume                     1348.51
_exptl_crystal_colour            red
_cell_formula_units_Z            1
loop_
_atom_site_label
_atom_site_type_symbol
_atom_site_fract_x
_atom_site_fract_y
_atom_site_fract_z
I1 I 0.75748(7) 0.88917(8) 1.00196(8)
I2 I 0.54336(8) 0.79017(10) 0.99848(10)
I3 I 0.16282(8) 0.75959(9) 0.99802(9)
I4 I 0.31290(9) 0.53903(11) 1.01883(11)
I5 I 0.49309(10) 0.08447(11) 0.65274(13)
I6 I 0.58038(12) 0.25242(13) 0.33766(13)
O1 O 0.1978(7) 0.5170(7) 0.6549(7)
O2 O -0.0884(9) 0.8418(9) 0.5574(11)
O3 O 0.2544(7) 0.6328(8) 0.4396(7)
O4 O -0.0439(8) 0.6094(8) 0.7328(9)
O5 O 0.0460(11) 0.8020(9) 0.3513(9)
C1 C 0.3160(10) 0.5148(12) 0.4761(11)
C2 C 0.2852(9) 0.4494(12) 0.5954(11)
C3 C -0.1819(14) 0.7945(16) 0.6535(19)
H1 H -0.2388 0.8627 0.6727
H2 H -0.2346 0.7452 0.6323
C4 C 0.2545(13) 0.6934(15) 0.3161(13)
H3 H 0.2166 0.6459 0.2794
H4 H 0.3423 0.7046 0.2787
C5 C -0.139(2) 0.8922(17) 0.450(2)
H5 H -0.1955 0.9684 0.4492
H6 H -0.1899 0.8346 0.4398
C6 C 0.3401(10) 0.3294(12) 0.6422(11)
H7 H 0.3201 0.2869 0.7215
C7 C 0.4554(11) 0.3330(15) 0.4542(14)
C8 C 0.1406(12) 0.4545(13) 0.7707(11)
H8 H 0.2068 0.4171 0.8241
H9 H 0.0927 0.3902 0.7688
C9 C 0.3981(12) 0.4535(13) 0.4078(12)
H10 H 0.4159 0.4942 0.3278
C10 C -0.040(2) 0.9174(16) 0.3575(18)
H11 H 0.0109 0.9751 0.3677
H12 H -0.0786 0.9564 0.2839
C11 C -0.1173(16) 0.7205(14) 0.7521(16)
H13 H -0.1808 0.6976 0.8205
H14 H -0.0590 0.7684 0.7684
C12 C 0.0510(14) 0.5544(13) 0.8082(12)
H15 H 0.0098 0.5190 0.8873
H16 H 0.1011 0.6172 0.8100
C13 C 0.4265(10) 0.2709(12) 0.5700(13)
C14 C 0.170(2) 0.8222(16) 0.3062(14)
H17 H 0.2040 0.8653 0.3496
H18 H 0.1716 0.8733 0.2243
Cl1 Cl 0.0000 1.0000 1.0000
O6 O -0.0351(7) 0.6014(7) 0.5143(8)
loop_
_geom_bond_atom_site_label_1
_geom_bond_atom_site_label_2
_geom_bond_site_symmetry_1
_geom_bond_site_symmetry_2
I1 I2 1_555 1_555
I3 I4 1_555 1_555
I5 C13 1_555 1_555
I6 C7 1_555 1_555
O1 C2 1_555 1_555
O2 C3 1_555 1_555
O3 C1 1_555 1_555
O4 C11 1_555 1_555
O5 C10 1_555 1_555
C1 C2 1_555 1_555
C2 C6 1_555 1_555
C3 H1 1_555 1_555
H2 C3 1_555 1_555
C4 O3 1_555 1_555
H3 C4 1_555 1_555
H4 C4 1_555 1_555
C5 O2 1_555 1_555
H5 C5 1_555 1_555
H6 C5 1_555 1_555
C6 H7 1_555 1_555
C7 C9 1_555 1_555
C8 O1 1_555 1_555
H8 C8 1_555 1_555
H9 C8 1_555 1_555
C9 C1 1_555 1_555
H10 C9 1_555 1_555
C10 C5 1_555 1_555
H11 C10 1_555 1_555
H12 C10 1_555 1_555
C11 C3 1_555 1_555
H13 C11 1_555 1_555
H14 C11 1_555 1_555
C12 O4 1_555 1_555
H15 C12 1_555 1_555
H16 C12 1_555 1_555
C13 C6 1_555 1_555
C14 O5 1_555 1_555
H17 C14 1_555 1_555
H18 C14 1_555 1_555
C4 C14 1_555 1_555
C7 C13 1_555 1_555
C8 C12 1_555 1_555

#END
