
#######################################################################
#
#                 Cambridge Crystallographic Data Centre
#                                CCDC 
#
#######################################################################
#
# If this CIF has been generated from an entry in the Cambridge 
# Structural Database, then it will include bibliographic, chemical, 
# crystal, experimental, refinement or atomic coordinate data resulting 
# from the CCDC's data processing and validation procedures.
#
#######################################################################

data_ZITHAN01
_chemical_formula_moiety         'C20 H15 N3'
_chemical_name_systematic        1-(Biphenyl-2-yl)-4-phenyl-1H-1,2,3-triazole
_symmetry_cell_setting           orthorhombic
_symmetry_space_group_name_H-M   'P 21 21 21'
_symmetry_Int_Tables_number      19
_space_group_name_Hall           'P 2ac 2ab'
loop_
_symmetry_equiv_pos_site_id
_symmetry_equiv_pos_as_xyz
1 x,y,z
2 1/2-x,-y,1/2+z
3 -x,1/2+y,1/2-z
4 1/2+x,1/2-y,-z
_cell_length_a                   7.9901(2)
_cell_length_b                   12.9361(3)
_cell_length_c                   15.1823(4)
_cell_angle_alpha                90
_cell_angle_beta                 90
_cell_angle_gamma                90
_cell_volume                     1569.25
_exptl_crystal_colour            colorless
_exptl_crystal_description       block
_cell_formula_units_Z            4
loop_
_atom_site_label
_atom_site_type_symbol
_atom_site_fract_x
_atom_site_fract_y
_atom_site_fract_z
N1 N -0.8093(3) -0.49663(18) -0.46265(16)
N2 N -0.9209(4) -0.5003(2) -0.39547(19)
N3 N -0.9506(4) -0.4046(2) -0.37193(19)
C1 C -0.6808(5) -0.7475(4) -0.3123(2)
H1 H -0.7466 -0.8011 -0.3340
C2 C -0.6278(5) -0.7499(4) -0.2248(2)
H2 H -0.6576 -0.8048 -0.1885
C3 C -0.5325(5) -0.6717(4) -0.1933(3)
H3 H -0.4971 -0.6734 -0.1350
C4 C -0.4881(5) -0.5914(4) -0.2446(3)
H4 H -0.4219 -0.5387 -0.2217
C5 C -0.5413(5) -0.5871(4) -0.3324(3)
H5 H -0.5123 -0.5308 -0.3674
C6 C -0.6374(5) -0.6669(4) -0.3675(3)
C7 C -0.6815(4) -0.6704(2) -0.4624(2)
C8 C -0.6403(5) -0.7582(3) -0.5115(2)
H6 H -0.5914 -0.8145 -0.4833
C9 C -0.6707(5) -0.7633(3) -0.6008(2)
H7 H -0.6419 -0.8226 -0.6318
C10 C -0.7432(5) -0.6813(3) -0.6446(2)
H8 H -0.7614 -0.6845 -0.7051
C11 C -0.7882(4) -0.5948(3) -0.5978(2)
H9 H -0.8395 -0.5398 -0.6264
C12 C -0.7574(4) -0.5892(2) -0.5080(2)
C13 C -0.7685(4) -0.3985(2) -0.4809(2)
H10 H -0.6946 -0.3754 -0.5240
C14 C -0.8579(4) -0.3396(2) -0.42341(18)
C15 C -0.8677(4) -0.2261(2) -0.41469(19)
C16 C -0.7950(4) -0.1617(2) -0.4776(2)
H11 H -0.7394 -0.1907 -0.5254
C17 C -0.8044(5) -0.0560(3) -0.4699(3)
H12 H -0.7550 -0.0140 -0.5123
C18 C -0.8870(5) -0.0121(3) -0.3996(3)
H13 H -0.8947 0.0595 -0.3949
C19 C -0.9581(5) -0.0746(3) -0.3360(3)
H14 H -1.0123 -0.0448 -0.2881
C20 C -0.9496(4) -0.1815(3) -0.3431(2)
H15 H -0.9982 -0.2231 -0.3002
loop_
_geom_bond_atom_site_label_1
_geom_bond_atom_site_label_2
_geom_bond_site_symmetry_1
_geom_bond_site_symmetry_2
N1 N2 1_555 1_555
N2 N3 1_555 1_555
N3 C14 1_555 1_555
C1 H1 1_555 1_555
C2 C1 1_555 1_555
H2 C2 1_555 1_555
C3 C2 1_555 1_555
H3 C3 1_555 1_555
C4 C3 1_555 1_555
H4 C4 1_555 1_555
C5 C4 1_555 1_555
H5 C5 1_555 1_555
C6 C1 1_555 1_555
C7 C6 1_555 1_555
C8 C7 1_555 1_555
H6 C8 1_555 1_555
C9 C8 1_555 1_555
H7 C9 1_555 1_555
C10 C9 1_555 1_555
H8 C10 1_555 1_555
C11 C10 1_555 1_555
H9 C11 1_555 1_555
C12 N1 1_555 1_555
C13 N1 1_555 1_555
H10 C13 1_555 1_555
C14 C13 1_555 1_555
C15 C14 1_555 1_555
C16 C15 1_555 1_555
H11 C16 1_555 1_555
C17 C16 1_555 1_555
H12 C17 1_555 1_555
C18 C17 1_555 1_555
H13 C18 1_555 1_555
C19 C18 1_555 1_555
H14 C19 1_555 1_555
C20 C15 1_555 1_555
H15 C20 1_555 1_555
C5 C6 1_555 1_555
C7 C12 1_555 1_555
C11 C12 1_555 1_555
C19 C20 1_555 1_555

#END
