
#######################################################################
#
#                 Cambridge Crystallographic Data Centre
#                                CCDC 
#
#######################################################################
#
# If this CIF has been generated from an entry in the Cambridge 
# Structural Database, then it will include bibliographic, chemical, 
# crystal, experimental, refinement or atomic coordinate data resulting 
# from the CCDC's data processing and validation procedures.
#
#######################################################################

data_ZITHOB
_chemical_formula_moiety         'C12 H8 N4 S1,0.5(H2 O1)'
_chemical_name_systematic        
"3-Methyl[1,3]thiazolo[3',2':2,3][1,2,4]triazino[5,6-b]indole hemihydrate"
_symmetry_cell_setting           triclinic
_symmetry_space_group_name_H-M   'P -1'
_symmetry_Int_Tables_number      2
_space_group_name_Hall           '-P 1'
loop_
_symmetry_equiv_pos_site_id
_symmetry_equiv_pos_as_xyz
1 x,y,z
2 -x,-y,-z
_cell_length_a                   7.1823(8)
_cell_length_b                   11.3707(17)
_cell_length_c                   14.4035(11)
_cell_angle_alpha                84.908(10)
_cell_angle_beta                 76.627(8)
_cell_angle_gamma                82.365(10)
_cell_volume                     1132.21
_exptl_crystal_colour            red
_exptl_crystal_description       needle
_cell_formula_units_Z            4
loop_
_atom_site_label
_atom_site_type_symbol
_atom_site_fract_x
_atom_site_fract_y
_atom_site_fract_z
S1 S 0.70411(10) -0.29956(6) 0.29313(4)
C1 C 0.7547(3) -0.6517(2) -0.00242(16)
N1 N 0.7341(2) -0.30767(17) 0.11451(12)
N2 N 0.7476(2) -0.34660(17) 0.02590(11)
N3 N 0.7420(3) -0.65344(18) 0.09662(13)
C2 C 0.7761(4) -0.6169(3) -0.19667(17)
H1 H 0.7818 -0.6067 -0.2620
N4 N 0.7242(3) -0.49718(17) 0.20019(12)
C3 C 0.7598(3) -0.5377(2) -0.04791(15)
C4 C 0.7506(3) -0.4611(2) 0.02743(14)
C5 C 0.7593(3) -0.7489(2) -0.05514(18)
H2 H 0.7548 -0.8251 -0.0259
C6 C 0.7221(3) -0.3818(2) 0.19626(14)
C7 C 0.7295(3) -0.1867(2) 0.12827(16)
C8 C 0.7389(3) -0.5413(2) 0.11377(16)
C9 C 0.7732(3) -0.5199(2) -0.14579(16)
H3 H 0.7801 -0.4443 -0.1760
C10 C 0.7129(3) -0.1710(2) 0.22047(15)
H4 H 0.7067 -0.0965 0.2437
C11 C 0.7402(4) -0.09979(19) 0.04504(14)
H5 H 0.7355 -0.0213 0.0657
H6 H 0.6335 -0.1032 0.0161
H7 H 0.8587 -0.1184 -0.0007
C12 C 0.7707(3) -0.7295(2) -0.15215(18)
H8 H 0.7749 -0.7938 -0.1885
S2 S 0.38672(9) 0.31968(6) 0.44828(4)
N5 N 0.3197(2) 0.13061(17) 0.38664(12)
N6 N 0.2774(2) 0.01790(17) 0.38174(11)
N7 N 0.2849(3) 0.12259(17) 0.55691(11)
C13 C 0.3216(3) 0.17755(19) 0.47116(16)
C14 C 0.1239(3) -0.2756(2) 0.64066(16)
H9 H 0.1056 -0.2842 0.7069
N8 N 0.1979(2) -0.06460(17) 0.63055(11)
C15 C 0.1895(3) -0.1571(2) 0.49091(15)
C16 C 0.2398(3) 0.0112(2) 0.55615(15)
C17 C 0.1667(3) -0.1682(2) 0.59141(16)
C18 C 0.2384(3) -0.0388(2) 0.46556(14)
C19 C 0.4111(3) 0.3090(2) 0.32713(15)
H10 H 0.4489 0.3699 0.2820
C20 C 0.3708(3) 0.2052(2) 0.30389(15)
C21 C 0.1728(3) -0.2517(2) 0.44042(16)
H11 H 0.1884 -0.2439 0.3743
C22 C 0.1093(3) -0.3688(2) 0.58896(19)
H12 H 0.0829 -0.4414 0.6210
C23 C 0.1328(3) -0.3573(2) 0.49021(18)
H13 H 0.1213 -0.4220 0.4575
C24 C 0.3709(3) 0.1618(2) 0.20964(14)
H14 H 0.4088 0.2219 0.1602
H15 H 0.2439 0.1444 0.2092
H16 H 0.4601 0.0910 0.1986
O1 O 0.8860(3) -0.8939(2) 0.16102(15)
H17 H 0.834(5) -0.805(3) 0.145(2)
H18 H 0.873(4) -0.914(3) 0.2172(18)
loop_
_geom_bond_atom_site_label_1
_geom_bond_atom_site_label_2
_geom_bond_site_symmetry_1
_geom_bond_site_symmetry_2
S1 C6 1_555 1_555
C1 N3 1_555 1_555
N1 N2 1_555 1_555
N2 C4 1_555 1_555
N3 C8 1_555 1_555
C2 H1 1_555 1_555
N4 C6 1_555 1_555
C3 C1 1_555 1_555
C4 C3 1_555 1_555
C5 C1 1_555 1_555
H2 C5 1_555 1_555
C6 N1 1_555 1_555
C7 N1 1_555 1_555
C8 N4 1_555 1_555
C9 C2 1_555 1_555
H3 C9 1_555 1_555
C10 S1 1_555 1_555
H4 C10 1_555 1_555
C11 C7 1_555 1_555
H5 C11 1_555 1_555
H6 C11 1_555 1_555
H7 C11 1_555 1_555
C12 C2 1_555 1_555
H8 C12 1_555 1_555
S2 C13 1_555 1_555
N5 N6 1_555 1_555
N6 C18 1_555 1_555
N7 C13 1_555 1_555
C13 N5 1_555 1_555
C14 H9 1_555 1_555
N8 C16 1_555 1_555
C15 C17 1_555 1_555
C16 N7 1_555 1_555
C17 C14 1_555 1_555
C18 C15 1_555 1_555
C19 S2 1_555 1_555
H10 C19 1_555 1_555
C20 N5 1_555 1_555
C21 C15 1_555 1_555
H11 C21 1_555 1_555
C22 C14 1_555 1_555
H12 C22 1_555 1_555
C23 C21 1_555 1_555
H13 C23 1_555 1_555
C24 C20 1_555 1_555
H14 C24 1_555 1_555
H15 C24 1_555 1_555
H16 C24 1_555 1_555
O1 H17 1_555 1_555
H18 O1 1_555 1_555
C3 C9 1_555 1_555
C4 C8 1_555 1_555
C5 C12 1_555 1_555
C7 C10 1_555 1_555
N8 C17 1_555 1_555
C16 C18 1_555 1_555
C19 C20 1_555 1_555
C22 C23 1_555 1_555

#END
