
#######################################################################
#
#                 Cambridge Crystallographic Data Centre
#                                CCDC 
#
#######################################################################
#
# If this CIF has been generated from an entry in the Cambridge 
# Structural Database, then it will include bibliographic, chemical, 
# crystal, experimental, refinement or atomic coordinate data resulting 
# from the CCDC's data processing and validation procedures.
#
#######################################################################

data_ZITKEU
_chemical_formula_moiety         'C12 H10 I1 N4 S1 1+,Cl1 O4 1-'
_chemical_name_systematic        
"3-(Iodomethyl)-2,3-dihydro[1,3]thiazolo[3',2':2,3][1,2,4]triazino[5,6-b]indol-10-ium perchlorate"
_symmetry_cell_setting           monoclinic
_symmetry_space_group_name_H-M   'P 21/c'
_symmetry_Int_Tables_number      14
_space_group_name_Hall           '-P 2ybc'
loop_
_symmetry_equiv_pos_site_id
_symmetry_equiv_pos_as_xyz
1 x,y,z
2 -x,1/2+y,1/2-z
3 -x,-y,-z
4 x,1/2-y,1/2+z
_cell_length_a                   5.5307(4)
_cell_length_b                   15.5302(16)
_cell_length_c                   18.2673(12)
_cell_angle_alpha                90
_cell_angle_beta                 91.443(6)
_cell_angle_gamma                90
_cell_volume                     1568.53
_exptl_crystal_colour            orange
_exptl_crystal_description       prism
_cell_formula_units_Z            4
loop_
_atom_site_label
_atom_site_type_symbol
_atom_site_fract_x
_atom_site_fract_y
_atom_site_fract_z
S1 S 0.48835(17) 0.53130(6) 0.37705(5)
N1 N 0.8131(5) 0.43914(17) 0.45246(14)
N2 N 0.8290(6) 0.43816(18) 0.32328(15)
C1 C 1.0027(6) 0.3866(2) 0.44835(17)
N3 N 1.1250(5) 0.35116(17) 0.50332(14)
H1 H 1.0928 0.3572 0.5488
N4 N 1.0248(5) 0.38640(17) 0.31787(15)
C2 C 1.4877(6) 0.2641(2) 0.36095(19)
H2 H 1.4882 0.2668 0.3101
C3 C 1.3103(6) 0.3060(2) 0.39971(18)
C4 C 1.4910(6) 0.2553(2) 0.51448(19)
H3 H 1.4907 0.2520 0.5653
C5 C 1.1090(6) 0.3600(2) 0.38007(18)
C6 C 1.3163(6) 0.3018(2) 0.47617(18)
C7 C 1.6635(6) 0.2183(2) 0.3992(2)
H4 H 1.7829 0.1897 0.3738
C8 C 0.5165(7) 0.5327(2) 0.27877(19)
H5 H 0.3587 0.5242 0.2555
H6 H 0.5772 0.5884 0.2636
C9 C 0.7316(6) 0.4633(2) 0.38701(19)
C10 C 1.6645(7) 0.2144(2) 0.47518(19)
H7 H 1.7852 0.1833 0.4998
I1 I 0.6183(5) 0.49604(18) 0.09879(13)
C11 C 0.671(2) 0.4222(7) 0.1981(6)
H8 H 0.5222 0.3941 0.2114
H9 H 0.7944 0.3785 0.1916
C12 C 0.754(4) 0.4884(12) 0.2590(13)
H10 H 0.8717 0.5358 0.2494
Cl1 Cl 0.96088(18) 0.20524(6) 0.19018(5)
O1 O 0.9638(4) 0.12490(14) 0.14892(12)
O2 O 0.7186(5) 0.23446(18) 0.19554(13)
O3 O 1.0991(5) 0.26683(16) 0.15264(15)
O4 O 1.0609(4) 0.18986(16) 0.26081(12)
I2? I 0.6957(8) 0.5149(4) 0.0939(3)
C13? C 0.8582(14) 0.4739(5) 0.1931(3)
H11? H 0.9384 0.4193 0.1849
H12? H 0.9812 0.5154 0.2078
C14? C 0.686(2) 0.4632(8) 0.2547(8)
H13? H 0.5843 0.4134 0.2419
I3? I 0.3551(13) 0.4655(3) 0.1173(3)
loop_
_geom_bond_atom_site_label_1
_geom_bond_atom_site_label_2
_geom_bond_site_symmetry_1
_geom_bond_site_symmetry_2
S1 C8 1_555 1_555
N1 C1 1_555 1_555
N2 N4 1_555 1_555
C1 N3 1_555 1_555
N3 H1 1_555 1_555
N4 C5 1_555 1_555
C2 H2 1_555 1_555
C3 C2 1_555 1_555
C4 H3 1_555 1_555
C5 C1 1_555 1_555
C6 N3 1_555 1_555
C7 C2 1_555 1_555
H4 C7 1_555 1_555
C8 H5 1_555 1_555
H6 C8 1_555 1_555
C9 S1 1_555 1_555
C10 C4 1_555 1_555
H7 C10 1_555 1_555
I1 C11 1_555 1_555
C11 H8 1_555 1_555
H9 C11 1_555 1_555
C12 N2 1_555 1_555
H10 C12 1_555 1_555
Cl1 O1 1_555 1_555
O2 Cl1 1_555 1_555
O3 Cl1 1_555 1_555
O4 Cl1 1_555 1_555
N1 C9 1_555 1_555
N2 C9 1_555 1_555
C3 C5 1_555 1_555
C3 C6 1_555 1_555
C4 C6 1_555 1_555
C7 C10 1_555 1_555
C8 C12 1_555 1_555
C11 C12 1_555 1_555

#END
