
#######################################################################
#
#                 Cambridge Crystallographic Data Centre
#                                CCDC 
#
#######################################################################
#
# If this CIF has been generated from an entry in the Cambridge 
# Structural Database, then it will include bibliographic, chemical, 
# crystal, experimental, refinement or atomic coordinate data resulting 
# from the CCDC's data processing and validation procedures.
#
#######################################################################

data_ZITLEV
_chemical_formula_moiety         'C27 H25 Br1 N2 O2'
_chemical_name_systematic        
'Methyl 3-((4-bromophenyl)amino)-3-(4-methylphenyl)-2-phenyl-2-(1H-pyrrol-2-yl)propanoate'
_symmetry_cell_setting           orthorhombic
_symmetry_space_group_name_H-M   'P 21 21 21'
_symmetry_Int_Tables_number      19
_space_group_name_Hall           'P 2ac 2ab'
loop_
_symmetry_equiv_pos_site_id
_symmetry_equiv_pos_as_xyz
1 x,y,z
2 1/2-x,-y,1/2+z
3 -x,1/2+y,1/2-z
4 1/2+x,1/2-y,-z
_cell_length_a                   10.7237(6)
_cell_length_b                   12.9771(7)
_cell_length_c                   17.3413(10)
_cell_angle_alpha                90
_cell_angle_beta                 90
_cell_angle_gamma                90
_cell_volume                     2413.26
_exptl_crystal_colour            colorless
_exptl_crystal_description       block
_cell_formula_units_Z            4
loop_
_atom_site_label
_atom_site_type_symbol
_atom_site_fract_x
_atom_site_fract_y
_atom_site_fract_z
Br1 Br 0.14633(7) 0.77362(3) 0.14093(3)
O1 O 0.4382(2) 0.0996(2) 0.07778(15)
O2 O 0.3231(3) -0.0030(2) 0.15171(19)
N1 N 0.1453(3) 0.3116(2) 0.08865(17)
H1 H 0.076(3) 0.288(3) 0.0889(19)
N2 N 0.0795(3) 0.0527(3) 0.17926(18)
H2 H 0.1357 0.0476 0.2145
C1 C 0.2855(4) 0.2517(2) 0.19290(18)
C2 C 0.4103(4) 0.2567(3) 0.2132(2)
H3 H 0.4703 0.2559 0.1745
C3 C 0.4483(6) 0.2628(4) 0.2890(3)
H4 H 0.5331 0.2649 0.3001
C4 C 0.3650(8) 0.2658(4) 0.3475(3)
C5 C 0.2383(7) 0.2658(4) 0.3284(3)
H5 H 0.1794 0.2708 0.3676
C6 C 0.1976(4) 0.2582(3) 0.2511(2)
H6 H 0.1129 0.2577 0.2395
C7 C 0.1481(4) 0.4174(2) 0.10156(18)
C8 C 0.2577(4) 0.4700(3) 0.1156(2)
H7 H 0.3327 0.4342 0.1175
C9 C 0.2567(5) 0.5759(3) 0.1267(3)
H8 H 0.3308 0.6109 0.1362
C10 C 0.1461(5) 0.6286(3) 0.1236(2)
C11 C 0.0385(5) 0.5784(3) 0.1093(2)
H9 H -0.0359 0.6151 0.1070
C12 C 0.0376(4) 0.4734(3) 0.0979(2)
H10 H -0.0372 0.4398 0.0877
C13 C 0.2234(3) 0.1268(2) -0.01014(18)
C14 C 0.2498(4) 0.2088(3) -0.05816(19)
H11 H 0.2681 0.2728 -0.0368
C15 C 0.2494(4) 0.1973(3) -0.1377(2)
H12 H 0.2690 0.2532 -0.1690
C16 C 0.2203(4) 0.1047(3) -0.1703(2)
H13 H 0.2171 0.0978 -0.2236
C17 C 0.1959(4) 0.0215(3) -0.1233(2)
H14 H 0.1769 -0.0420 -0.1451
C18 C 0.1992(4) 0.0319(3) -0.0442(2)
H15 H 0.1852 -0.0254 -0.0132
C19 C -0.0411(4) 0.0221(3) 0.1869(3)
H16 H -0.0764 -0.0079 0.2304
C20 C -0.0999(4) 0.0426(4) 0.1211(3)
H17 H -0.1835 0.0297 0.1104
C21 C -0.0124(4) 0.0876(4) 0.0703(3)
H18 H -0.0283 0.1098 0.0203
C22 C 0.0981(3) 0.0926(3) 0.1071(2)
C23 C 0.4043(9) 0.2697(5) 0.4311(3)
H19 H 0.3316 0.2714 0.4634
H20 H 0.4533 0.3305 0.4399
H21 H 0.4530 0.2098 0.4431
C24 C 0.2489(3) 0.2456(2) 0.10858(17)
H22 H 0.3207 0.2710 0.0792
C25 C 0.2228(3) 0.1336(2) 0.07857(19)
C26 C 0.3313(3) 0.0673(3) 0.10784(19)
C27 C 0.5508(4) 0.0493(4) 0.1051(3)
H23 H 0.6220 0.0788 0.0799
H24 H 0.5466 -0.0230 0.0937
H25 H 0.5581 0.0588 0.1599
loop_
_geom_bond_atom_site_label_1
_geom_bond_atom_site_label_2
_geom_bond_site_symmetry_1
_geom_bond_site_symmetry_2
Br1 C10 1_555 1_555
O1 C26 1_555 1_555
O2 C26 1_555 1_555
N1 H1 1_555 1_555
N2 H2 1_555 1_555
C1 C2 1_555 1_555
C2 H3 1_555 1_555
C3 C2 1_555 1_555
H4 C3 1_555 1_555
C4 C3 1_555 1_555
C5 C4 1_555 1_555
H5 C5 1_555 1_555
C6 C1 1_555 1_555
H6 C6 1_555 1_555
C7 N1 1_555 1_555
C8 C7 1_555 1_555
H7 C8 1_555 1_555
C9 C8 1_555 1_555
H8 C9 1_555 1_555
C10 C9 1_555 1_555
C11 C10 1_555 1_555
H9 C11 1_555 1_555
C12 C7 1_555 1_555
H10 C12 1_555 1_555
C13 C14 1_555 1_555
C14 H11 1_555 1_555
C15 C14 1_555 1_555
H12 C15 1_555 1_555
C16 C15 1_555 1_555
H13 C16 1_555 1_555
C17 C16 1_555 1_555
H14 C17 1_555 1_555
C18 C13 1_555 1_555
H15 C18 1_555 1_555
C19 N2 1_555 1_555
H16 C19 1_555 1_555
C20 C19 1_555 1_555
H17 C20 1_555 1_555
C21 C20 1_555 1_555
H18 C21 1_555 1_555
C22 N2 1_555 1_555
C23 C4 1_555 1_555
H19 C23 1_555 1_555
H20 C23 1_555 1_555
H21 C23 1_555 1_555
C24 N1 1_555 1_555
H22 C24 1_555 1_555
C25 C13 1_555 1_555
C26 C25 1_555 1_555
C27 O1 1_555 1_555
H23 C27 1_555 1_555
H24 C27 1_555 1_555
H25 C27 1_555 1_555
C1 C24 1_555 1_555
C5 C6 1_555 1_555
C11 C12 1_555 1_555
C17 C18 1_555 1_555
C21 C22 1_555 1_555
C22 C25 1_555 1_555
C24 C25 1_555 1_555

#END
