
#######################################################################
#
#                 Cambridge Crystallographic Data Centre
#                                CCDC 
#
#######################################################################
#
# If this CIF has been generated from an entry in the Cambridge 
# Structural Database, then it will include bibliographic, chemical, 
# crystal, experimental, refinement or atomic coordinate data resulting 
# from the CCDC's data processing and validation procedures.
#
#######################################################################

data_ZITNEX
_chemical_formula_moiety         'C25 H24 N2 O3'
_chemical_name_systematic        
(3-Hydroxy-4-((4-methoxyphenyl)amino)-6-phenyl-3,4-dihydropyridin-1(2H)-yl)(phenyl)methanone
_symmetry_cell_setting           monoclinic
_symmetry_space_group_name_H-M   'P 21'
_symmetry_Int_Tables_number      4
_space_group_name_Hall           'P 2yb'
loop_
_symmetry_equiv_pos_site_id
_symmetry_equiv_pos_as_xyz
1 x,y,z
2 -x,1/2+y,-z
_cell_length_a                   8.6855(19)
_cell_length_b                   9.1167(19)
_cell_length_c                   12.932(3)
_cell_angle_alpha                90
_cell_angle_beta                 90.585(4)
_cell_angle_gamma                90
_cell_volume                     1023.94
_exptl_crystal_colour            colorless
_exptl_crystal_description       platelet
_cell_formula_units_Z            2
loop_
_atom_site_label
_atom_site_type_symbol
_atom_site_fract_x
_atom_site_fract_y
_atom_site_fract_z
O1 O -0.62363(19) 0.4506(2) 0.35710(13)
O2 O -0.42715(19) 0.6857(2) 0.53411(13)
H1 H -0.4116 0.7620 0.5691
O3 O 0.2882(2) 0.7173(2) 0.84549(12)
N1 N -0.4078(2) 0.5857(2) 0.33328(14)
N2 N -0.0198(2) 0.7209(3) 0.46486(14)
H2 H 0.0368 0.7044 0.4100
C1 C -0.3233(2) 0.5145(3) 0.41837(17)
H3 H -0.2276 0.4693 0.3922
H4 H -0.3872 0.4366 0.4495
C2 C -0.2847(2) 0.6303(3) 0.49852(16)
H5 H -0.2282 0.5833 0.5576
C3 C -0.1823(2) 0.7510(3) 0.45144(16)
H6 H -0.2056 0.8453 0.4875
C4 C -0.2159(2) 0.7718(3) 0.33787(17)
H7 H -0.1568 0.8429 0.3021
C5 C -0.3220(2) 0.6984(2) 0.28360(16)
C6 C -0.5623(3) 0.5630(3) 0.32333(17)
C7 C -0.6620(3) 0.6773(3) 0.27376(17)
C8 C -0.6387(3) 0.8271(3) 0.29049(19)
H8 H -0.5519 0.8599 0.3293
C9 C -0.7434(3) 0.9277(3) 0.2500(2)
H9 H -0.7275 1.0297 0.2608
C10 C -0.8704(3) 0.8801(4) 0.1942(2)
H10 H -0.9410 0.9496 0.1663
C11 C -0.8953(3) 0.7327(4) 0.17898(19)
H11 H -0.9832 0.7005 0.1410
C12 C -0.7919(3) 0.6310(3) 0.21910(17)
H12 H -0.8100 0.5292 0.2092
C13 C -0.3398(2) 0.7151(3) 0.16956(16)
C14 C -0.3107(3) 0.8490(3) 0.12244(19)
H13 H -0.2891 0.9327 0.1638
C15 C -0.3127(3) 0.8618(3) 0.01528(18)
H14 H -0.2918 0.9537 -0.0162
C16 C -0.3454(3) 0.7402(3) -0.04547(18)
H15 H -0.3461 0.7484 -0.1187
C17 C -0.3769(3) 0.6077(3) 0.00052(19)
H16 H -0.3997 0.5245 -0.0412
C18 C -0.3754(3) 0.5945(3) 0.10736(18)
H17 H -0.3987 0.5028 0.1384
C19 C 0.0491(3) 0.7174(3) 0.56268(16)
C20 C -0.0213(3) 0.7744(3) 0.65047(17)
H18 H -0.1222 0.8140 0.6449
C21 C 0.0540(3) 0.7741(3) 0.74620(18)
H19 H 0.0036 0.8119 0.8053
C22 C 0.2015(3) 0.7193(3) 0.75544(17)
C23 C 0.2725(3) 0.6607(3) 0.66886(18)
H20 H 0.3732 0.6209 0.6749
C24 C 0.1978(3) 0.6600(3) 0.57462(18)
H21 H 0.2482 0.6196 0.5163
C25 C 0.2095(3) 0.7493(3) 0.93879(18)
H22 H 0.1690 0.8496 0.9358
H23 H 0.2811 0.7403 0.9975
H24 H 0.1242 0.6801 0.9473
loop_
_geom_bond_atom_site_label_1
_geom_bond_atom_site_label_2
_geom_bond_site_symmetry_1
_geom_bond_site_symmetry_2
O1 C6 1_555 1_555
O2 H1 1_555 1_555
O3 C22 1_555 1_555
N1 C1 1_555 1_555
N2 H2 1_555 1_555
C1 H3 1_555 1_555
H4 C1 1_555 1_555
C2 O2 1_555 1_555
H5 C2 1_555 1_555
C3 N2 1_555 1_555
H6 C3 1_555 1_555
C4 C3 1_555 1_555
H7 C4 1_555 1_555
C5 N1 1_555 1_555
C6 N1 1_555 1_555
C7 C6 1_555 1_555
C8 C7 1_555 1_555
H8 C8 1_555 1_555
C9 C8 1_555 1_555
H9 C9 1_555 1_555
C10 C9 1_555 1_555
H10 C10 1_555 1_555
C11 C10 1_555 1_555
H11 C11 1_555 1_555
C12 C7 1_555 1_555
H12 C12 1_555 1_555
C13 C5 1_555 1_555
C14 C13 1_555 1_555
H13 C14 1_555 1_555
C15 C14 1_555 1_555
H14 C15 1_555 1_555
C16 C15 1_555 1_555
H15 C16 1_555 1_555
C17 C16 1_555 1_555
H16 C17 1_555 1_555
C18 C13 1_555 1_555
H17 C18 1_555 1_555
C19 N2 1_555 1_555
C20 C19 1_555 1_555
H18 C20 1_555 1_555
C21 C20 1_555 1_555
H19 C21 1_555 1_555
C22 C21 1_555 1_555
C23 C22 1_555 1_555
H20 C23 1_555 1_555
C24 C19 1_555 1_555
H21 C24 1_555 1_555
C25 O3 1_555 1_555
H22 C25 1_555 1_555
H23 C25 1_555 1_555
H24 C25 1_555 1_555
C1 C2 1_555 1_555
C2 C3 1_555 1_555
C4 C5 1_555 1_555
C11 C12 1_555 1_555
C17 C18 1_555 1_555
C23 C24 1_555 1_555

#END
