
#######################################################################
#
#                 Cambridge Crystallographic Data Centre
#                                CCDC 
#
#######################################################################
#
# If this CIF has been generated from an entry in the Cambridge 
# Structural Database, then it will include bibliographic, chemical, 
# crystal, experimental, refinement or atomic coordinate data resulting 
# from the CCDC's data processing and validation procedures.
#
#######################################################################

data_ZITNIB
_chemical_formula_moiety         'C39 H30 N2 O5'
_chemical_name_systematic        
'1-Benzoyl-4-(benzoyl(4-methoxyphenyl)amino)-6-phenyl-1,2-dihydropyridin-3-yl benzoate'
_symmetry_cell_setting           monoclinic
_symmetry_space_group_name_H-M   'P 21/n'
_symmetry_Int_Tables_number      14
_space_group_name_Hall           '-P 2yn'
loop_
_symmetry_equiv_pos_site_id
_symmetry_equiv_pos_as_xyz
1 x,y,z
2 1/2-x,1/2+y,1/2-z
3 -x,-y,-z
4 1/2+x,1/2-y,1/2+z
_cell_length_a                   14.442(4)
_cell_length_b                   9.665(3)
_cell_length_c                   22.284(7)
_cell_angle_alpha                90
_cell_angle_beta                 98.549(4)
_cell_angle_gamma                90
_cell_volume                     3075.88
_exptl_crystal_colour            'pale yellow'
_exptl_crystal_description       rod
_cell_formula_units_Z            4
loop_
_atom_site_label
_atom_site_type_symbol
_atom_site_fract_x
_atom_site_fract_y
_atom_site_fract_z
O1 O 0.45737(12) 0.01607(18) 0.21733(8)
O2 O 0.08806(13) -0.2231(2) -0.07306(9)
O3 O 0.30705(14) 0.1681(2) -0.22580(9)
O4 O 0.30847(11) 0.12884(17) 0.02362(8)
O5 O 0.45612(13) 0.1779(2) 0.00967(9)
N1 N 0.40421(13) -0.1211(2) 0.13728(9)
N2 N 0.21632(13) -0.1128(2) -0.02333(9)
C1 C 0.37515(16) -0.2503(2) 0.10988(11)
C2 C 0.32116(16) -0.2455(3) 0.05550(11)
H1 H 0.3033 -0.3293 0.0347
C3 C 0.28932(16) -0.1144(2) 0.02768(11)
C4 C 0.33719(17) -0.0007(2) 0.04711(11)
C5 C 0.42196(17) -0.0129(2) 0.09445(11)
H2 H 0.4774 -0.0372 0.0753
H3 H 0.4344 0.0763 0.1160
C6 C 0.41158(17) -0.3809(2) 0.13911(11)
C7 C 0.49792(17) -0.3859(3) 0.17615(12)
H4 H 0.5349 -0.3045 0.1829
C8 C 0.5302(2) -0.5092(3) 0.20321(13)
H5 H 0.5887 -0.5111 0.2291
C9 C 0.4786(2) -0.6295(3) 0.19317(13)
H6 H 0.5012 -0.7137 0.2118
C10 C 0.3935(2) -0.6253(3) 0.15557(14)
H7 H 0.3580 -0.7078 0.1476
C11 C 0.35963(19) -0.5022(3) 0.12937(12)
H8 H 0.3003 -0.5004 0.1044
C12 C 0.13626(17) -0.1924(3) -0.02509(12)
C13 C 0.10881(17) -0.2360(3) 0.03386(12)
C14 C 0.08510(19) -0.3733(3) 0.04234(14)
H9 H 0.0887 -0.4389 0.0110
C15 C 0.0563(2) -0.4151(3) 0.09602(15)
H10 H 0.0425 -0.5097 0.1020
C16 C 0.04780(19) -0.3198(4) 0.14081(14)
H11 H 0.0274 -0.3485 0.1774
C17 C 0.06897(18) -0.1824(3) 0.13246(13)
H12 H 0.0620 -0.1163 0.1630
C18 C 0.10036(17) -0.1410(3) 0.07950(13)
H13 H 0.1163 -0.0468 0.0743
C19 C 0.23586(17) -0.0445(2) -0.07775(11)
C20 C 0.17088(18) 0.0444(3) -0.10872(12)
H14 H 0.1115 0.0553 -0.0959
C21 C 0.19170(18) 0.1185(3) -0.15877(12)
H15 H 0.1470 0.1802 -0.1797
C22 C 0.27815(18) 0.1012(3) -0.17765(12)
C23 C 0.34257(18) 0.0095(3) -0.14707(12)
H16 H 0.4013 -0.0036 -0.1605
C24 C 0.32198(17) -0.0625(3) -0.09732(12)
H17 H 0.3667 -0.1244 -0.0764
C25 C 0.2506(2) 0.2776(3) -0.25330(15)
H18 H 0.2822 0.3222 -0.2842
H19 H 0.2404 0.3456 -0.2223
H20 H 0.1902 0.2406 -0.2724
C26 C 0.37471(18) 0.2097(3) 0.00299(12)
C27 C 0.33463(18) 0.3357(3) -0.02808(12)
C28 C 0.23913(19) 0.3584(3) -0.04190(13)
H21 H 0.1961 0.2954 -0.0285
C29 C 0.2069(2) 0.4742(3) -0.07557(14)
H22 H 0.1415 0.4890 -0.0862
C30 C 0.2691(2) 0.5678(3) -0.09356(14)
H23 H 0.2467 0.6472 -0.1163
C31 C 0.3639(2) 0.5462(3) -0.07855(14)
H24 H 0.4067 0.6119 -0.0903
C32 C 0.3973(2) 0.4303(3) -0.04666(14)
H25 H 0.4628 0.4149 -0.0373
C33 C 0.41636(16) -0.0905(2) 0.19835(12)
C34 C 0.37597(17) -0.1858(2) 0.24005(11)
C35 C 0.42621(18) -0.2124(3) 0.29663(12)
H26 H 0.4859 -0.1712 0.3081
C36 C 0.3892(2) -0.2993(3) 0.33658(13)
H27 H 0.4240 -0.3188 0.3753
C37 C 0.30184(19) -0.3574(3) 0.32014(13)
H28 H 0.2768 -0.4174 0.3474
C38 C 0.25082(19) -0.3285(3) 0.26410(13)
H29 H 0.1904 -0.3678 0.2531
C39 C 0.28742(17) -0.2430(3) 0.22422(12)
H30 H 0.2521 -0.2230 0.1858
loop_
_geom_bond_atom_site_label_1
_geom_bond_atom_site_label_2
_geom_bond_site_symmetry_1
_geom_bond_site_symmetry_2
O1 C33 1_555 1_555
O2 C12 1_555 1_555
O3 C22 1_555 1_555
O4 C4 1_555 1_555
O5 C26 1_555 1_555
N1 C1 1_555 1_555
N2 C3 1_555 1_555
C1 C2 1_555 1_555
C2 H1 1_555 1_555
C3 C2 1_555 1_555
C4 C3 1_555 1_555
C5 N1 1_555 1_555
H2 C5 1_555 1_555
H3 C5 1_555 1_555
C6 C1 1_555 1_555
C7 C6 1_555 1_555
H4 C7 1_555 1_555
C8 C7 1_555 1_555
H5 C8 1_555 1_555
C9 C8 1_555 1_555
H6 C9 1_555 1_555
C10 C9 1_555 1_555
H7 C10 1_555 1_555
C11 C6 1_555 1_555
H8 C11 1_555 1_555
C12 N2 1_555 1_555
C13 C12 1_555 1_555
C14 C13 1_555 1_555
H9 C14 1_555 1_555
C15 C14 1_555 1_555
H10 C15 1_555 1_555
C16 C15 1_555 1_555
H11 C16 1_555 1_555
C17 C16 1_555 1_555
H12 C17 1_555 1_555
C18 C13 1_555 1_555
H13 C18 1_555 1_555
C19 N2 1_555 1_555
C20 C19 1_555 1_555
H14 C20 1_555 1_555
C21 C20 1_555 1_555
H15 C21 1_555 1_555
C22 C21 1_555 1_555
C23 C22 1_555 1_555
H16 C23 1_555 1_555
C24 C19 1_555 1_555
H17 C24 1_555 1_555
C25 O3 1_555 1_555
H18 C25 1_555 1_555
H19 C25 1_555 1_555
H20 C25 1_555 1_555
C26 O4 1_555 1_555
C27 C26 1_555 1_555
C28 C27 1_555 1_555
H21 C28 1_555 1_555
C29 C28 1_555 1_555
H22 C29 1_555 1_555
C30 C29 1_555 1_555
H23 C30 1_555 1_555
C31 C30 1_555 1_555
H24 C31 1_555 1_555
C32 C27 1_555 1_555
H25 C32 1_555 1_555
C33 N1 1_555 1_555
C34 C33 1_555 1_555
C35 C34 1_555 1_555
H26 C35 1_555 1_555
C36 C35 1_555 1_555
H27 C36 1_555 1_555
C37 C36 1_555 1_555
H28 C37 1_555 1_555
C38 C37 1_555 1_555
H29 C38 1_555 1_555
C39 C34 1_555 1_555
H30 C39 1_555 1_555
C4 C5 1_555 1_555
C10 C11 1_555 1_555
C17 C18 1_555 1_555
C23 C24 1_555 1_555
C31 C32 1_555 1_555
C38 C39 1_555 1_555

#END
