
#######################################################################
#
#                 Cambridge Crystallographic Data Centre
#                                CCDC 
#
#######################################################################
#
# If this CIF has been generated from an entry in the Cambridge 
# Structural Database, then it will include bibliographic, chemical, 
# crystal, experimental, refinement or atomic coordinate data resulting 
# from the CCDC's data processing and validation procedures.
#
#######################################################################

data_ZITNUN
_chemical_formula_moiety         'C25 H23 N1 O4,C1 H2 Cl2'
_chemical_name_systematic        
'1-Benzoyl-4-hydroxy-6-phenylpiperidin-3-yl benzoate dichloromethane solvate'
_symmetry_cell_setting           triclinic
_symmetry_space_group_name_H-M   'P -1'
_symmetry_Int_Tables_number      2
_space_group_name_Hall           '-P 1'
loop_
_symmetry_equiv_pos_site_id
_symmetry_equiv_pos_as_xyz
1 x,y,z
2 -x,-y,-z
_cell_length_a                   8.0339(16)
_cell_length_b                   9.3816(19)
_cell_length_c                   16.457(3)
_cell_angle_alpha                81.47(3)
_cell_angle_beta                 83.21(3)
_cell_angle_gamma                70.96(3)
_cell_volume                     1156.31
_exptl_crystal_colour            colorless
_exptl_crystal_description       plate
_cell_formula_units_Z            2
loop_
_atom_site_label
_atom_site_type_symbol
_atom_site_fract_x
_atom_site_fract_y
_atom_site_fract_z
Cl1 Cl 0.7418(2) 0.62460(17) 0.37165(10)
Cl2 Cl 1.0263(2) 0.42030(16) 0.27752(9)
C1 C 0.9706(7) 0.5656(6) 0.3411(3)
H1 H 1.0036 0.6533 0.3113
H2 H 1.0383 0.5292 0.3907
O1 O 0.6465(4) 0.9111(3) 0.19331(19)
O2 O 0.0051(4) 0.8150(3) 0.19803(18)
H3 H -0.1004 0.8571 0.2087
O3 O 0.2914(4) 0.6901(3) 0.09668(16)
O4 O 0.2006(4) 0.8060(3) -0.02773(18)
N1 N 0.3676(4) 0.9222(3) 0.2395(2)
C2 C -0.0600(6) 0.9768(5) 0.3738(3)
H4 H -0.1406 1.0573 0.3423
C3 C -0.1207(7) 0.9107(5) 0.4469(3)
H5 H -0.2424 0.9454 0.4650
C4 C -0.0050(7) 0.7940(5) 0.4938(3)
H6 H -0.0469 0.7488 0.5442
C5 C 0.1715(7) 0.7435(5) 0.4671(3)
H7 H 0.2513 0.6631 0.4990
C6 C 0.2322(6) 0.8101(5) 0.3941(3)
H8 H 0.3541 0.7754 0.3765
C7 C 0.1175(6) 0.9274(4) 0.3456(2)
C8 C 0.1849(5) 1.0088(4) 0.2675(2)
H9 H 0.1908 1.1061 0.2831
C9 C 0.0721(6) 1.0520(4) 0.1935(2)
H10 H -0.0522 1.1015 0.2127
H11 H 0.1111 1.1274 0.1540
C10 C 0.0802(6) 0.9189(4) 0.1483(2)
H12 H 0.0162 0.9581 0.0970
C11 C 0.2734(6) 0.8330(4) 0.1255(2)
H13 H 0.3250 0.8968 0.0824
C12 C 0.3807(6) 0.7874(4) 0.2006(2)
H14 H 0.3363 0.7159 0.2406
H15 H 0.5059 0.7352 0.1839
C13 C 0.5101(6) 0.9722(5) 0.2341(2)
C14 C 0.4990(5) 1.1054(4) 0.2772(3)
C15 C 0.4399(6) 1.1148(5) 0.3603(3)
H16 H 0.3978 1.0377 0.3909
C16 C 0.4428(6) 1.2365(5) 0.3978(3)
H17 H 0.4027 1.2427 0.4542
C17 C 0.5038(6) 1.3490(5) 0.3535(3)
H18 H 0.5032 1.4333 0.3793
C18 C 0.5655(6) 1.3391(5) 0.2719(3)
H19 H 0.6088 1.4159 0.2418
C19 C 0.5644(6) 1.2164(5) 0.2337(3)
H20 H 0.6085 1.2089 0.1778
C20 C 0.2434(6) 0.6922(5) 0.0202(2)
C21 C 0.2533(5) 0.5380(4) 0.0038(3)
C22 C 0.1829(6) 0.5227(5) -0.0665(3)
H21 H 0.1335 0.6099 -0.1039
C23 C 0.1841(6) 0.3820(5) -0.0824(3)
H22 H 0.1333 0.3731 -0.1299
C24 C 0.2592(6) 0.2541(5) -0.0293(3)
H23 H 0.2600 0.1573 -0.0403
C25 C 0.3334(6) 0.2672(5) 0.0403(3)
H24 H 0.3881 0.1788 0.0758
C26 C 0.3278(6) 0.4095(5) 0.0580(3)
H25 H 0.3745 0.4189 0.1066
loop_
_geom_bond_atom_site_label_1
_geom_bond_atom_site_label_2
_geom_bond_site_symmetry_1
_geom_bond_site_symmetry_2
Cl1 C1 1_555 1_555
Cl2 C1 1_555 1_555
C1 H1 1_555 1_555
H2 C1 1_555 1_555
O1 C13 1_555 1_555
O2 H3 1_555 1_555
O3 C11 1_555 1_555
O4 C20 1_555 1_555
N1 C8 1_555 1_555
C2 H4 1_555 1_555
C3 C2 1_555 1_555
H5 C3 1_555 1_555
C4 C3 1_555 1_555
H6 C4 1_555 1_555
C5 C4 1_555 1_555
H7 C5 1_555 1_555
C6 C5 1_555 1_555
H8 C6 1_555 1_555
C7 C2 1_555 1_555
C8 C7 1_555 1_555
H9 C8 1_555 1_555
C9 C8 1_555 1_555
H10 C9 1_555 1_555
H11 C9 1_555 1_555
C10 O2 1_555 1_555
H12 C10 1_555 1_555
C11 C10 1_555 1_555
H13 C11 1_555 1_555
C12 N1 1_555 1_555
H14 C12 1_555 1_555
H15 C12 1_555 1_555
C13 N1 1_555 1_555
C14 C13 1_555 1_555
C15 C14 1_555 1_555
H16 C15 1_555 1_555
C16 C15 1_555 1_555
H17 C16 1_555 1_555
C17 C16 1_555 1_555
H18 C17 1_555 1_555
C18 C17 1_555 1_555
H19 C18 1_555 1_555
C19 C14 1_555 1_555
H20 C19 1_555 1_555
C20 O3 1_555 1_555
C21 C20 1_555 1_555
C22 C21 1_555 1_555
H21 C22 1_555 1_555
C23 C22 1_555 1_555
H22 C23 1_555 1_555
C24 C23 1_555 1_555
H23 C24 1_555 1_555
C25 C24 1_555 1_555
H24 C25 1_555 1_555
C26 C21 1_555 1_555
H25 C26 1_555 1_555
C6 C7 1_555 1_555
C9 C10 1_555 1_555
C11 C12 1_555 1_555
C18 C19 1_555 1_555
C25 C26 1_555 1_555

#END
