
#######################################################################
#
#                 Cambridge Crystallographic Data Centre
#                                CCDC 
#
#######################################################################
#
# If this CIF has been generated from an entry in the Cambridge 
# Structural Database, then it will include bibliographic, chemical, 
# crystal, experimental, refinement or atomic coordinate data resulting 
# from the CCDC's data processing and validation procedures.
#
#######################################################################

data_ZITNAT
_chemical_formula_moiety         'C25 H19 N1 O4'
_chemical_name_systematic        
'1-Benzoyl-4-oxo-6-phenyl-1,2,3,4-tetrahydropyridin-3-yl benzoate'
_symmetry_cell_setting           triclinic
_symmetry_space_group_name_H-M   'P -1'
_symmetry_Int_Tables_number      2
_space_group_name_Hall           '-P 1'
loop_
_symmetry_equiv_pos_site_id
_symmetry_equiv_pos_as_xyz
1 x,y,z
2 -x,-y,-z
_cell_length_a                   9.5469(19)
_cell_length_b                   10.345(2)
_cell_length_c                   10.549(2)
_cell_angle_alpha                90.45(3)
_cell_angle_beta                 101.91(3)
_cell_angle_gamma                100.25(3)
_cell_volume                     1002.07
_exptl_crystal_colour            colorless
_exptl_crystal_description       block
_cell_formula_units_Z            2
loop_
_atom_site_label
_atom_site_type_symbol
_atom_site_fract_x
_atom_site_fract_y
_atom_site_fract_z
O1 O -0.09153(15) 0.44671(12) -0.16757(12)
O2 O 0.08136(13) 0.08132(13) 0.24914(12)
O3 O 0.12083(13) 0.29622(12) -0.14957(11)
O4 O 0.31562(14) 0.43525(13) -0.03963(12)
N1 N -0.07750(14) 0.16672(13) 0.09773(12)
C1 C -0.33627(16) 0.15821(16) 0.10972(14)
C2 C -0.43875(18) 0.23561(17) 0.12205(17)
H1 H -0.4254 0.3243 0.0972
C3 C -0.55997(19) 0.18321(19) 0.17043(18)
H2 H -0.6296 0.2362 0.1788
C4 C -0.58017(19) 0.0540(2) 0.20666(18)
H3 H -0.6630 0.0187 0.2405
C5 C -0.47955(19) -0.02362(18) 0.19355(17)
H4 H -0.4939 -0.1126 0.2175
C6 C -0.35805(17) 0.02820(16) 0.14556(15)
H5 H -0.2890 -0.0253 0.1370
C7 C -0.20824(17) 0.21419(15) 0.05534(15)
C8 C -0.21562(18) 0.30010(16) -0.04032(15)
H6 H -0.3070 0.3237 -0.0755
C9 C -0.0902(2) 0.35800(16) -0.09180(15)
C10 C 0.04785(19) 0.30241(17) -0.04399(16)
H7 H 0.1132 0.3601 0.0290
C11 C 0.01173(18) 0.16428(17) -0.00004(16)
H8 H -0.0426 0.1046 -0.0747
H9 H 0.1023 0.1321 0.0378
C12 C -0.01994(17) 0.14089(15) 0.22490(15)
C13 C -0.08087(16) 0.19171(15) 0.33030(14)
C14 C -0.09475(19) 0.32284(17) 0.33924(17)
H10 H -0.0717 0.3810 0.2742
C15 C -0.1425(2) 0.3679(2) 0.44402(18)
H11 H -0.1519 0.4574 0.4512
C16 C -0.1765(2) 0.2828(2) 0.53780(18)
H12 H -0.2092 0.3142 0.6094
C17 C -0.1636(2) 0.1529(2) 0.52867(18)
H13 H -0.1884 0.0946 0.5930
C18 C -0.11441(18) 0.10762(17) 0.42556(16)
H14 H -0.1035 0.0184 0.4199
C19 C 0.25534(17) 0.36817(15) -0.13550(15)
C20 C 0.31878(17) 0.35243(15) -0.25044(15)
C21 C 0.24206(18) 0.27581(17) -0.35997(16)
H15 H 0.1443 0.2334 -0.3642
C22 C 0.3083(2) 0.26141(19) -0.46299(17)
H16 H 0.2562 0.2087 -0.5378
C23 C 0.4505(2) 0.32400(19) -0.45673(17)
H17 H 0.4962 0.3134 -0.5271
C24 C 0.52648(19) 0.40190(18) -0.34864(18)
H18 H 0.6236 0.4456 -0.3455
C25 C 0.46144(18) 0.41635(16) -0.24522(16)
H19 H 0.5137 0.4696 -0.1708
loop_
_geom_bond_atom_site_label_1
_geom_bond_atom_site_label_2
_geom_bond_site_symmetry_1
_geom_bond_site_symmetry_2
O1 C9 1_555 1_555
O2 C12 1_555 1_555
O3 C10 1_555 1_555
O4 C19 1_555 1_555
N1 C7 1_555 1_555
C1 C2 1_555 1_555
C2 H1 1_555 1_555
C3 C2 1_555 1_555
H2 C3 1_555 1_555
C4 C3 1_555 1_555
H3 C4 1_555 1_555
C5 C4 1_555 1_555
H4 C5 1_555 1_555
C6 C1 1_555 1_555
H5 C6 1_555 1_555
C7 C1 1_555 1_555
C8 C7 1_555 1_555
H6 C8 1_555 1_555
C9 C8 1_555 1_555
C10 C9 1_555 1_555
H7 C10 1_555 1_555
C11 N1 1_555 1_555
H8 C11 1_555 1_555
H9 C11 1_555 1_555
C12 N1 1_555 1_555
C13 C12 1_555 1_555
C14 C13 1_555 1_555
H10 C14 1_555 1_555
C15 C14 1_555 1_555
H11 C15 1_555 1_555
C16 C15 1_555 1_555
H12 C16 1_555 1_555
C17 C16 1_555 1_555
H13 C17 1_555 1_555
C18 C13 1_555 1_555
H14 C18 1_555 1_555
C19 O3 1_555 1_555
C20 C19 1_555 1_555
C21 C20 1_555 1_555
H15 C21 1_555 1_555
C22 C21 1_555 1_555
H16 C22 1_555 1_555
C23 C22 1_555 1_555
H17 C23 1_555 1_555
C24 C23 1_555 1_555
H18 C24 1_555 1_555
C25 C20 1_555 1_555
H19 C25 1_555 1_555
C5 C6 1_555 1_555
C10 C11 1_555 1_555
C17 C18 1_555 1_555
C24 C25 1_555 1_555

#END
