
#######################################################################
#
#                 Cambridge Crystallographic Data Centre
#                                CCDC 
#
#######################################################################
#
# If this CIF has been generated from an entry in the Cambridge 
# Structural Database, then it will include bibliographic, chemical, 
# crystal, experimental, refinement or atomic coordinate data resulting 
# from the CCDC's data processing and validation procedures.
#
#######################################################################

data_ZITSUQ01
_chemical_formula_moiety         'C40 H48 K2 O12 2+,2(I3 1-)'
_chemical_name_systematic        
'bis((\h^2^-Dibenzo-18-crown-6)-potassium) bis(tri-iodide)'
_symmetry_cell_setting           monoclinic
_symmetry_space_group_name_H-M   'P 21/c'
_symmetry_Int_Tables_number      14
_space_group_name_Hall           '-P 2ybc'
loop_
_symmetry_equiv_pos_site_id
_symmetry_equiv_pos_as_xyz
1 x,y,z
2 -x,1/2+y,1/2-z
3 -x,-y,-z
4 x,1/2-y,1/2+z
_cell_length_a                   9.7870(17)
_cell_length_b                   16.909(3)
_cell_length_c                   15.435(3)
_cell_angle_alpha                90
_cell_angle_beta                 98.435(3)
_cell_angle_gamma                90
_cell_volume                     2526.68
_chemical_melting_point          '123-125 deg.C'
_cell_formula_units_Z            2
_exptl_crystal_recrystallization_method 'diethyl ether/acetone 4:1'
loop_
_atom_site_label
_atom_site_type_symbol
_atom_site_fract_x
_atom_site_fract_y
_atom_site_fract_z
K1 K 0.4624(2) 0.0627(1) 0.8130(1)
O1 O 0.2728(7) 0.0106(4) 0.9139(4)
O2 O 0.4220(7) 0.1320(4) 0.9669(4)
O3 O 0.5867(7) 0.2040(4) 0.8566(5)
O4 O 0.6237(6) 0.1292(4) 0.7004(4)
O5 O 0.4825(7) 0.0051(4) 0.6485(4)
O6 O 0.2885(6) -0.0569(4) 0.7501(4)
C1 C 0.2779(11) 0.0292(7) 1.0017(7)
C2 C 0.2093(12) -0.0128(8) 1.0579(8)
C3 C 0.7789(15) -0.0110(11) 0.8543(10)
C4 C 0.7007(16) -0.0760(9) 0.8259(7)
C5 C 0.6264(12) -0.1182(7) 0.8828(8)
C6 C 0.3586(11) 0.0935(6) 1.0284(7)
C7 C 0.4889(14) 0.2053(7) 0.9912(7)
C8 C 0.5017(14) 0.2493(7) 0.9050(10)
C9 C 0.6145(13) 0.2467(7) 0.7800(9)
C10 C 0.7045(13) 0.1978(6) 0.7326(7)
C11 C 0.6880(10) 0.0780(6) 0.6499(6)
C12 C 0.8210(11) 0.0892(7) 0.6303(7)
C13 C 0.8728(12) 0.0316(10) 0.5795(8)
C14 C 0.8012(13) -0.0360(8) 0.5509(8)
C15 C 0.6632(11) -0.0478(7) 0.5726(7)
C16 C 0.6105(10) 0.0111(6) 0.6225(6)
C17 C 0.4057(10) -0.0669(6) 0.6250(6)
C18 C 0.2670(11) -0.0592(7) 0.6555(6)
C19 C 0.1575(11) -0.0496(7) 0.7820(7)
C20 C 0.1817(11) -0.0549(6) 0.8808(7)
C3B C 0.2211(15) 0.0110(11) 1.1457(10)
K1B K 0.5376(2) -0.0627(1) 1.1870(1)
O1B O 0.7272(7) -0.0106(4) 1.0861(4)
C1B C 0.7221(11) -0.0292(7) 0.9983(7)
C2B C 0.7907(12) 0.0128(8) 0.9421(8)
C5B C 0.3736(12) 0.1182(7) 1.1172(8)
C4B C 0.2993(16) 0.0760(9) 1.1741(7)
O2B O 0.5780(7) -0.1320(4) 1.0331(4)
C6B C 0.6414(11) -0.0935(6) 0.9716(7)
C7B C 0.5111(14) -0.2053(7) 1.0088(7)
C8B C 0.4983(14) -0.2493(7) 1.0950(10)
O3B O 0.4133(7) -0.2040(4) 1.1434(5)
O4B O 0.3763(6) -0.1292(4) 1.2996(4)
C10B C 0.2955(13) -0.1978(6) 1.2674(7)
C9B C 0.3855(13) -0.2467(7) 1.2200(9)
C11B C 0.3120(10) -0.0780(6) 1.3501(6)
C12B C 0.1790(11) -0.0892(7) 1.3697(7)
C13B C 0.1272(12) -0.0316(10) 1.4205(8)
C14B C 0.1988(13) 0.0360(8) 1.4491(8)
C15B C 0.3368(11) 0.0478(7) 1.4274(7)
C16B C 0.3895(10) -0.0111(6) 1.3775(6)
O5B O 0.5175(7) -0.0051(4) 1.3515(4)
O6B O 0.7115(6) 0.0569(4) 1.2499(4)
C18B C 0.7330(11) 0.0592(7) 1.3445(6)
C17B C 0.5943(10) 0.0669(6) 1.3750(6)
C19B C 0.8425(11) 0.0496(7) 1.2180(7)
C20B C 0.8183(11) 0.0549(6) 1.1192(7)
I1 I 0.2059(1) 0.1880(1) 0.6860(1)
I2 I 0.0873(1) 0.2067(1) 0.8518(1)
I3 I -0.0256(1) 0.2348(1) 1.0104(1)
I1B I 0.7941(1) -0.1880(1) 1.3140(1)
I2B I 0.9127(1) -0.2067(1) 1.1482(1)
I3B I 1.0256(1) -0.2348(1) 0.9896(1)
loop_
_geom_bond_atom_site_label_1
_geom_bond_atom_site_label_2
_geom_bond_site_symmetry_1
_geom_bond_site_symmetry_2
K1 O1 1_555 1_555
I1 I2 1_555 1_555
I2 I3 1_555 1_555
O1 C1 1_555 1_555
O2 K1 1_555 1_555
O3 K1 1_555 1_555
O4 K1 1_555 1_555
O5 K1 1_555 1_555
O6 K1 1_555 1_555
C1 C2 1_555 1_555
C2 C3B 1_555 1_555
C3 K1 1_555 1_555
C4 K1 1_555 1_555
C5 C4 1_555 1_555
C6 O2 1_555 1_555
C7 O2 1_555 1_555
C8 O3 1_555 1_555
C9 O3 1_555 1_555
C10 O4 1_555 1_555
C11 O4 1_555 1_555
C12 C11 1_555 1_555
C13 C12 1_555 1_555
C14 C13 1_555 1_555
C15 C14 1_555 1_555
C16 O5 1_555 1_555
C17 O5 1_555 1_555
C18 O6 1_555 1_555
C19 O6 1_555 1_555
C20 O1 1_555 1_555
C3B K1B 1_555 1_555
K1B O1B 1_555 1_555
I1B I2B 1_555 1_555
I2B I3B 1_555 1_555
O1B C1B 1_555 1_555
C1B C2B 1_555 1_555
C2B C3 1_555 1_555
C5B C6 1_555 1_555
C4B C3B 1_555 1_555
O2B K1B 1_555 1_555
C6B C5 1_555 1_555
C7B O2B 1_555 1_555
C8B C7B 1_555 1_555
O3B K1B 1_555 1_555
O4B K1B 1_555 1_555
C10B O4B 1_555 1_555
C9B O3B 1_555 1_555
C11B O4B 1_555 1_555
C12B C11B 1_555 1_555
C13B C12B 1_555 1_555
C14B C13B 1_555 1_555
C15B C14B 1_555 1_555
C16B C11B 1_555 1_555
O5B K1B 1_555 1_555
O6B K1B 1_555 1_555
C18B O6B 1_555 1_555
C17B O5B 1_555 1_555
C19B O6B 1_555 1_555
C20B O1B 1_555 1_555
C1 C6 1_555 1_555
C3 C4 1_555 1_555
C7 C8 1_555 1_555
C9 C10 1_555 1_555
C11 C16 1_555 1_555
C15 C16 1_555 1_555
C17 C18 1_555 1_555
C19 C20 1_555 1_555
K1B C4B 1_555 1_555
C1B C6B 1_555 1_555
C5B C4B 1_555 1_555
O2B C6B 1_555 1_555
C8B O3B 1_555 1_555
C10B C9B 1_555 1_555
C15B C16B 1_555 1_555
C16B O5B 1_555 1_555
C18B C17B 1_555 1_555
C19B C20B 1_555 1_555

#END
