
#######################################################################
#
#                 Cambridge Crystallographic Data Centre
#                                CCDC 
#
#######################################################################
#
# If this CIF has been generated from an entry in the Cambridge 
# Structural Database, then it will include bibliographic, chemical, 
# crystal, experimental, refinement or atomic coordinate data resulting 
# from the CCDC's data processing and validation procedures.
#
#######################################################################

data_ZIVDAJ
_chemical_formula_moiety         'C8 H13 N1 O5'
_chemical_name_systematic        'N-Acetyliminodiacetate dimethyl ester'
_symmetry_cell_setting           monoclinic
_symmetry_space_group_name_H-M   'P 21/c'
_symmetry_Int_Tables_number      14
_space_group_name_Hall           '-P 2ybc'
loop_
_symmetry_equiv_pos_site_id
_symmetry_equiv_pos_as_xyz
1 x,y,z
2 -x,1/2+y,1/2-z
3 -x,-y,-z
4 x,1/2-y,1/2+z
_cell_length_a                   9.411(2)
_cell_length_b                   14.457(3)
_cell_length_c                   7.853(2)
_cell_angle_alpha                90
_cell_angle_beta                 105.95(3)
_cell_angle_gamma                90
_cell_volume                     1027.31
_exptl_crystal_colour            colorless
_cell_formula_units_Z            4
loop_
_atom_site_label
_atom_site_type_symbol
_atom_site_fract_x
_atom_site_fract_y
_atom_site_fract_z
O1 O 0.4549(3) 0.2094(2) 0.1065(4)
O2 O 0.2602(3) 0.2718(2) -0.0838(4)
O3 O 0.7418(3) 0.4752(2) -0.1287(4)
O4 O 0.9021(3) 0.3648(2) -0.1442(4)
O5 O 0.8259(3) 0.4024(2) 0.3067(4)
N1 N 0.6253(3) 0.3650(2) 0.0926(4)
C1 C 0.4676(4) 0.3647(3) 0.0059(5)
C2 C 0.3963(4) 0.2733(3) 0.0190(6)
C3 C 0.1762(5) 0.1878(3) -0.0882(8)
C4 C 0.7216(4) 0.3255(3) -0.0066(6)
C5 C 0.7871(4) 0.3984(3) -0.0987(5)
C6 C 0.9768(4) 0.4271(4) -0.2367(6)
C7 C 0.6906(4) 0.4020(3) 0.2524(5)
C8 C 0.5968(4) 0.4405(3) 0.3607(6)
H1 H 0.4507 0.3817 -0.1162
H2 H 0.4224 0.4108 0.0620
H3 H 0.0797 0.1970 -0.1679
H4 H 0.2250 0.1382 -0.1308
H5 H 0.1671 0.1726 0.0273
H6 H 0.6652 0.2831 -0.0931
H7 H 0.7992 0.2914 0.0737
H8 H 1.0580 0.3955 -0.2630
H9 H 0.9081 0.4470 -0.3450
H10 H 1.0130 0.4799 -0.1636
H11 H 0.6537 0.4657 0.4717
H12 H 0.5361 0.4882 0.2923
H13 H 0.5353 0.3914 0.3823
loop_
_geom_bond_atom_site_label_1
_geom_bond_atom_site_label_2
_geom_bond_site_symmetry_1
_geom_bond_site_symmetry_2
O1 C2 1_555 1_555
O2 C2 1_555 1_555
O3 C5 1_555 1_555
O4 C5 1_555 1_555
O5 C7 1_555 1_555
N1 C1 1_555 1_555
C1 C2 1_555 1_555
C3 O2 1_555 1_555
C4 N1 1_555 1_555
C5 C4 1_555 1_555
C6 O4 1_555 1_555
C7 N1 1_555 1_555
C8 C7 1_555 1_555
H1 C1 1_555 1_555
H2 C1 1_555 1_555
H3 C3 1_555 1_555
H4 C3 1_555 1_555
H5 C3 1_555 1_555
H6 C4 1_555 1_555
H7 C4 1_555 1_555
H8 C6 1_555 1_555
H9 C6 1_555 1_555
H10 C6 1_555 1_555
H11 C8 1_555 1_555
H12 C8 1_555 1_555
H13 C8 1_555 1_555

#END
