
#######################################################################
#
#                 Cambridge Crystallographic Data Centre
#                                CCDC 
#
#######################################################################
#
# If this CIF has been generated from an entry in the Cambridge 
# Structural Database, then it will include bibliographic, chemical, 
# crystal, experimental, refinement or atomic coordinate data resulting 
# from the CCDC's data processing and validation procedures.
#
#######################################################################

data_ZIVRIF
_chemical_formula_moiety         'C24 H28 N2 O8'
_chemical_name_systematic        
N,N'-bis(trans-2-Phenyl-5-hydroxymethyl-1,3-dioxan-5-yl)ethanediamide
_symmetry_cell_setting           monoclinic
_symmetry_space_group_name_H-M   'P 21/c'
_symmetry_Int_Tables_number      14
_space_group_name_Hall           '-P 2ybc'
loop_
_symmetry_equiv_pos_site_id
_symmetry_equiv_pos_as_xyz
1 x,y,z
2 -x,1/2+y,1/2-z
3 -x,-y,-z
4 x,1/2-y,1/2+z
_cell_length_a                   6.2996(11)
_cell_length_b                   31.2070(12)
_cell_length_c                   6.378(3)
_cell_angle_alpha                90
_cell_angle_beta                 110.57(2)
_cell_angle_gamma                90
_cell_volume                     1173.92
_exptl_crystal_colour            colorless
_cell_formula_units_Z            2
loop_
_atom_site_label
_atom_site_type_symbol
_atom_site_fract_x
_atom_site_fract_y
_atom_site_fract_z
O1 O 1.0502(5) 0.10141(10) 1.2065(5)
C1 C 0.9193(10) 0.1394(2) 1.1438(8)
O2 O 0.6889(6) 0.12940(10) 1.0305(6)
C2 C 0.6594(9) 0.1069(2) 0.8278(8)
C3 C 0.8017(9) 0.0660(2) 0.8680(8)
C4 C 1.0452(8) 0.0784(2) 1.0110(8)
C5 C 0.9436(11) 0.1649(2) 1.3496(8)
C6 C 0.7625(11) 0.1856(2) 1.3817(10)
C7 C 0.7959(14) 0.2110(2) 1.5659(12)
C8 C 1.0076(16) 0.2163(2) 1.7230(11)
C9 C 1.1904(13) 0.1957(2) 1.6953(10)
C10 C 1.1561(11) 0.1707(2) 1.5070(9)
N1 N 0.7230(7) 0.03502(12) 0.9956(6)
C11 C 0.5177(10) 0.01726(15) 0.9234(8)
O3 O 0.3618(6) 0.02756(11) 0.7499(5)
C12 C 0.7866(9) 0.0477(2) 0.6417(8)
O4 O 0.8635(6) 0.00442(12) 0.6683(5)
H1 H 0.9753 0.1564 1.0449
H2 H 0.7019 0.1255 0.7270
H3 H 0.5006 0.0996 0.7560
H4 H 1.1368 0.0527 1.0552
H5 H 1.1096 0.0960 0.9231
H6 H 0.6171 0.1822 1.2774
H7 H 0.6729 0.2249 1.5842
H8 H 1.0285 0.2335 1.8475
H9 H 1.3349 0.1986 1.8020
H10 H 1.2798 0.1575 1.4866
H11 H 0.8150 0.02775 1.1259
H12 H 0.6310 0.0489 0.5389
H13 H 0.8792 0.0646 0.5794
H14 H 0.8157 -0.0078 0.5469
C11B C 0.4823(10) -0.01726(15) 1.0766(8)
N1B N 0.2770(7) -0.03502(12) 1.0044(6)
O3B O 0.6382(6) -0.02756(11) 1.2501(5)
C3B C 0.1983(9) -0.0660(2) 1.1320(8)
H11B H 0.1850 -0.02775 0.8741
C2B C 0.3406(9) -0.1069(2) 1.1722(8)
C4B C -0.0452(8) -0.0784(2) 0.9890(8)
C12B C 0.2134(9) -0.0477(2) 1.3583(8)
O2B O 0.3111(6) -0.12940(10) 0.9695(6)
H2B H 0.2981 -0.1255 1.2730
H3B H 0.4994 -0.0996 1.2440
O1B O -0.0502(5) -0.10141(10) 0.7935(5)
H4B H -0.1368 -0.0527 0.9448
H5B H -0.1096 -0.0960 1.0769
O4B O 0.1365(6) -0.00442(12) 1.3317(5)
H12B H 0.3690 -0.0489 1.4611
H13B H 0.1208 -0.0646 1.4206
C1B C 0.0807(10) -0.1394(2) 0.8562(8)
H14B H 0.1843 0.0078 1.4531
C5B C 0.0564(11) -0.1649(2) 0.6504(8)
H1B H 0.0247 -0.1564 0.9551
C6B C 0.2375(11) -0.1856(2) 0.6183(10)
C10B C -0.1561(11) -0.1707(2) 0.4930(9)
C7B C 0.2041(14) -0.2110(2) 0.4341(12)
H6B H 0.3829 -0.1822 0.7226
C9B C -0.1904(13) -0.1957(2) 0.3047(10)
H10B H -0.2798 -0.1575 0.5134
C8B C -0.0076(16) -0.2163(2) 0.2770(11)
H7B H 0.3271 -0.2249 0.4158
H9B H -0.3349 -0.1986 0.1980
H8B H -0.0285 -0.2335 0.1525
loop_
_geom_bond_atom_site_label_1
_geom_bond_atom_site_label_2
_geom_bond_site_symmetry_1
_geom_bond_site_symmetry_2
O1 C1 1_555 1_555
C1 O2 1_555 1_555
O2 C2 1_555 1_555
C2 C3 1_555 1_555
C3 C4 1_555 1_555
C4 O1 1_555 1_555
C5 C1 1_555 1_555
C6 C5 1_555 1_555
C7 C6 1_555 1_555
C8 C7 1_555 1_555
C9 C8 1_555 1_555
C10 C5 1_555 1_555
N1 C3 1_555 1_555
C11 N1 1_555 1_555
O3 C11 1_555 1_555
C12 C3 1_555 1_555
O4 C12 1_555 1_555
H1 C1 1_555 1_555
H2 C2 1_555 1_555
H3 C2 1_555 1_555
H4 C4 1_555 1_555
H5 C4 1_555 1_555
H6 C6 1_555 1_555
H7 C7 1_555 1_555
H8 C8 1_555 1_555
H9 C9 1_555 1_555
H10 C10 1_555 1_555
H11 N1 1_555 1_555
H12 C12 1_555 1_555
H13 C12 1_555 1_555
H14 O4 1_555 1_555
C11B C11 1_555 1_555
N1B C11B 1_555 1_555
O3B C11B 1_555 1_555
C3B N1B 1_555 1_555
H11B N1B 1_555 1_555
C2B C3B 1_555 1_555
C4B C3B 1_555 1_555
C12B C3B 1_555 1_555
O2B C2B 1_555 1_555
H2B C2B 1_555 1_555
H3B C2B 1_555 1_555
O1B C4B 1_555 1_555
H4B C4B 1_555 1_555
H5B C4B 1_555 1_555
O4B C12B 1_555 1_555
H12B C12B 1_555 1_555
H13B C12B 1_555 1_555
C1B O2B 1_555 1_555
H14B O4B 1_555 1_555
C5B C1B 1_555 1_555
H1B C1B 1_555 1_555
C6B C5B 1_555 1_555
C10B C5B 1_555 1_555
C7B C6B 1_555 1_555
H6B C6B 1_555 1_555
C9B C10B 1_555 1_555
H10B C10B 1_555 1_555
C8B C7B 1_555 1_555
H7B C7B 1_555 1_555
H9B C9B 1_555 1_555
H8B C8B 1_555 1_555
C9 C10 1_555 1_555
O1B C1B 1_555 1_555
C9B C8B 1_555 1_555

#END
