
#######################################################################
#
#                 Cambridge Crystallographic Data Centre
#                                CCDC 
#
#######################################################################
#
# If this CIF has been generated from an entry in the Cambridge 
# Structural Database, then it will include bibliographic, chemical, 
# crystal, experimental, refinement or atomic coordinate data resulting 
# from the CCDC's data processing and validation procedures.
#
#######################################################################

data_ZIVSUV
_chemical_formula_moiety         'C25 H26 N2 O3'
_chemical_name_systematic        
3-{2-[1-(2,4-dimethylphenyl)-1H-pyrazol-5-yl]furan-3-yl}-3a,7-dimethyl-3a,4,5,6-tetrahydro-2-benzofuran-1(3H)-one
_symmetry_cell_setting           orthorhombic
_symmetry_space_group_name_H-M   'P 21 21 21'
_symmetry_Int_Tables_number      19
_space_group_name_Hall           'P 2ac 2ab'
loop_
_symmetry_equiv_pos_site_id
_symmetry_equiv_pos_as_xyz
1 x,y,z
2 1/2-x,-y,1/2+z
3 1/2+x,1/2-y,-z
4 -x,1/2+y,1/2-z
_cell_length_a                   9.7782(4)
_cell_length_b                   15.7631(6)
_cell_length_c                   28.3150(14)
_cell_angle_alpha                90
_cell_angle_beta                 90
_cell_angle_gamma                90
_cell_volume                     4364.33
_exptl_crystal_colour            'light colorless'
_exptl_crystal_description       block
_cell_formula_units_Z            8
loop_
_atom_site_label
_atom_site_type_symbol
_atom_site_fract_x
_atom_site_fract_y
_atom_site_fract_z
O1 O 0.7468(4) 0.2377(2) -0.25019(14)
O2 O 0.8072(3) 0.36164(19) -0.21867(11)
O3 O 0.9611(4) 0.6163(2) -0.17118(13)
N1 N 0.6373(5) 0.6216(3) -0.07023(17)
N2 N 0.7108(4) 0.6241(3) -0.11094(15)
C1 C 0.9564(5) 0.3169(3) -0.15754(19)
C2 C 0.9671(6) 0.3104(3) -0.1038(2)
H1 H 1.032229 0.351801 -0.092163
H2 H 0.878887 0.322255 -0.089630
C3 C 1.0136(6) 0.2213(4) -0.0902(3)
H3 H 1.101951 0.209818 -0.104400
H4 H 1.024040 0.218009 -0.056156
C4 C 0.9121(6) 0.1551(4) -0.1062(2)
H5 H 0.956882 0.100207 -0.106132
H6 H 0.837857 0.152792 -0.083570
C5 C 0.8528(5) 0.1704(3) -0.1546(2)
C6 C 0.8739(5) 0.2441(3) -0.17650(19)
C7 C 0.8024(5) 0.2746(3) -0.2186(2)
C8 C 0.8644(5) 0.3907(3) -0.17319(16)
H7 H 0.788969 0.395311 -0.150556
C9 C 1.0979(5) 0.3203(4) -0.1808(2)
H8 H 1.146787 0.369048 -0.169480
H9 H 1.087503 0.324238 -0.214467
H10 H 1.147974 0.269811 -0.173101
C10 C 0.7634(6) 0.1005(3) -0.1734(2)
H11 H 0.818988 0.052427 -0.181453
H12 H 0.716059 0.120091 -0.201023
H13 H 0.698113 0.084369 -0.149725
C11 C 0.9232(4) 0.4772(3) -0.18014(17)
C12 C 1.0174(5) 0.5049(3) -0.21516(19)
H14 H 1.058312 0.471436 -0.238238
C13 C 1.0361(5) 0.5879(3) -0.2086(2)
H15 H 1.092561 0.621824 -0.227122
C14 C 0.8919(5) 0.5460(3) -0.15439(17)
C15 C 0.8027(5) 0.5596(3) -0.11369(18)
C16 C 0.7883(6) 0.5127(4) -0.07382(19)
H16 H 0.836261 0.463906 -0.065565
C17 C 0.6868(7) 0.5531(4) -0.0480(2)
H17 H 0.656423 0.534660 -0.018606
C18 C 0.6799(5) 0.6899(3) -0.14451(19)
C19 C 0.6077(5) 0.6714(3) -0.1847(2)
C20 C 0.5781(5) 0.7378(4) -0.2151(2)
H18 H 0.530076 0.726227 -0.242709
C21 C 0.6174(6) 0.8212(4) -0.2060(3)
C22 C 0.6904(6) 0.8355(4) -0.1655(3)
H19 H 0.719854 0.890291 -0.158864
C23 C 0.7216(6) 0.7721(4) -0.1344(2)
H20 H 0.769982 0.783803 -0.106922
C24 C 0.5548(6) 0.5822(4) -0.1954(2)
H21 H 0.628826 0.547667 -0.206647
H22 H 0.484921 0.585326 -0.219141
H23 H 0.517592 0.557688 -0.167167
C25 C 0.5769(7) 0.8922(5) -0.2393(3)
H24 H 0.478998 0.895381 -0.241145
H25 H 0.613647 0.881091 -0.270125
H26 H 0.612364 0.945029 -0.227720
O4 O 1.1076(4) 0.3946(2) -0.46226(14)
O5 O 0.9402(3) 0.46093(19) -0.42341(12)
O6 O 0.6412(4) 0.6071(2) -0.33477(12)
N3 N 0.3869(4) 0.6033(3) -0.45812(18)
N4 N 0.4884(4) 0.6216(2) -0.42627(16)
C26 C 0.8255(5) 0.3443(3) -0.38764(16)
C27 C 0.6943(5) 0.2928(3) -0.3885(2)
H27 H 0.640899 0.308025 -0.416130
H28 H 0.640291 0.305562 -0.360670
C28 C 0.7269(6) 0.1984(3) -0.3898(2)
H29 H 0.773582 0.182764 -0.360833
H30 H 0.642074 0.166581 -0.391207
C29 C 0.8156(5) 0.1743(3) -0.4316(2)
H31 H 0.864239 0.122528 -0.423829
H32 H 0.756220 0.161819 -0.458159
C30 C 0.9187(5) 0.2396(3) -0.44713(18)
C31 C 0.9200(4) 0.3156(3) -0.42596(16)
C32 C 1.0016(5) 0.3887(3) -0.44027(19)
C33 C 0.8062(5) 0.4373(3) -0.40346(17)
H33 H 0.739419 0.437725 -0.429255
C34 C 0.8989(5) 0.3392(3) -0.33980(17)
H34 H 0.982632 0.370934 -0.341274
H35 H 0.918824 0.281053 -0.332552
H36 H 0.841124 0.362586 -0.315667
C35 C 1.0076(6) 0.2150(4) -0.4872(2)
H37 H 0.951841 0.197178 -0.513310
H38 H 1.066073 0.169094 -0.477747
H39 H 1.062418 0.262602 -0.496559
C36 C 0.7652(5) 0.5036(3) -0.36893(17)
C37 C 0.8340(6) 0.5339(3) -0.32776(18)
H40 H 0.917608 0.514760 -0.316220
C38 C 0.7571(6) 0.5940(4) -0.3091(2)
H41 H 0.779256 0.623690 -0.281795
C39 C 0.6488(5) 0.5501(3) -0.37183(17)
C40 C 0.5370(5) 0.5505(3) -0.40545(18)
C41 C 0.4633(5) 0.4839(3) -0.4232(2)
H42 H 0.471282 0.426951 -0.415191
C42 C 0.3742(6) 0.5197(4) -0.4558(2)
H43 H 0.312723 0.488586 -0.473892
C43 C 0.5377(5) 0.7074(3) -0.42312(19)
C44 C 0.6396(5) 0.7331(3) -0.45397(18)
C45 C 0.6797(6) 0.8178(4) -0.4515(2)
H44 H 0.746398 0.837295 -0.472228
C46 C 0.5226(6) 0.8455(3) -0.3896(3)
H45 H 0.482522 0.882280 -0.367941
C47 C 0.6235(6) 0.8745(3) -0.4191(2)
C48 C 0.4799(6) 0.7621(3) -0.3917(3)
H46 H 0.411306 0.743116 -0.371512
C49 C 0.6734(7) 0.9657(3) -0.4174(3)
H47 H 0.623198 0.999013 -0.439930
H48 H 0.769000 0.967479 -0.425032
H49 H 0.659402 0.988316 -0.386324
C50 C 0.7029(6) 0.6723(4) -0.4878(2)
H50 H 0.756595 0.631608 -0.470709
H51 H 0.760609 0.702699 -0.509401
H52 H 0.632375 0.643514 -0.505077
loop_
_geom_bond_atom_site_label_1
_geom_bond_atom_site_label_2
_geom_bond_site_symmetry_1
_geom_bond_site_symmetry_2
O1 C7 1_555 1_555
O2 C7 1_555 1_555
O3 C13 1_555 1_555
N1 N2 1_555 1_555
N2 C15 1_555 1_555
C1 C2 1_555 1_555
C2 H1 1_555 1_555
H2 C2 1_555 1_555
C3 C2 1_555 1_555
H3 C3 1_555 1_555
H4 C3 1_555 1_555
C4 C3 1_555 1_555
H5 C4 1_555 1_555
H6 C4 1_555 1_555
C5 C4 1_555 1_555
C6 C1 1_555 1_555
C7 C6 1_555 1_555
C8 O2 1_555 1_555
H7 C8 1_555 1_555
C9 C1 1_555 1_555
H8 C9 1_555 1_555
H9 C9 1_555 1_555
H10 C9 1_555 1_555
C10 C5 1_555 1_555
H11 C10 1_555 1_555
H12 C10 1_555 1_555
H13 C10 1_555 1_555
C11 C8 1_555 1_555
C12 C11 1_555 1_555
H14 C12 1_555 1_555
C13 C12 1_555 1_555
H15 C13 1_555 1_555
C14 O3 1_555 1_555
C15 C14 1_555 1_555
C16 C15 1_555 1_555
H16 C16 1_555 1_555
C17 N1 1_555 1_555
H17 C17 1_555 1_555
C18 N2 1_555 1_555
C19 C18 1_555 1_555
C20 C19 1_555 1_555
H18 C20 1_555 1_555
C21 C20 1_555 1_555
C22 C21 1_555 1_555
H19 C22 1_555 1_555
C23 C18 1_555 1_555
H20 C23 1_555 1_555
C24 C19 1_555 1_555
H21 C24 1_555 1_555
H22 C24 1_555 1_555
H23 C24 1_555 1_555
C25 C21 1_555 1_555
H24 C25 1_555 1_555
H25 C25 1_555 1_555
H26 C25 1_555 1_555
O4 C32 1_555 1_555
O5 C32 1_555 1_555
O6 C38 1_555 1_555
N3 N4 1_555 1_555
N4 C40 1_555 1_555
C26 C27 1_555 1_555
C27 H27 1_555 1_555
H28 C27 1_555 1_555
C28 C27 1_555 1_555
H29 C28 1_555 1_555
H30 C28 1_555 1_555
C29 C28 1_555 1_555
H31 C29 1_555 1_555
H32 C29 1_555 1_555
C30 C29 1_555 1_555
C31 C26 1_555 1_555
C32 C31 1_555 1_555
C33 O5 1_555 1_555
H33 C33 1_555 1_555
C34 C26 1_555 1_555
H34 C34 1_555 1_555
H35 C34 1_555 1_555
H36 C34 1_555 1_555
C35 C30 1_555 1_555
H37 C35 1_555 1_555
H38 C35 1_555 1_555
H39 C35 1_555 1_555
C36 C33 1_555 1_555
C37 C36 1_555 1_555
H40 C37 1_555 1_555
C38 C37 1_555 1_555
H41 C38 1_555 1_555
C39 O6 1_555 1_555
C40 C39 1_555 1_555
C41 C40 1_555 1_555
H42 C41 1_555 1_555
C42 N3 1_555 1_555
H43 C42 1_555 1_555
C43 N4 1_555 1_555
C44 C43 1_555 1_555
C45 C44 1_555 1_555
H44 C45 1_555 1_555
C46 H45 1_555 1_555
C47 C45 1_555 1_555
C48 C43 1_555 1_555
H46 C48 1_555 1_555
C49 C47 1_555 1_555
H47 C49 1_555 1_555
H48 C49 1_555 1_555
H49 C49 1_555 1_555
C50 C44 1_555 1_555
H50 C50 1_555 1_555
H51 C50 1_555 1_555
H52 C50 1_555 1_555
C1 C8 1_555 1_555
C5 C6 1_555 1_555
C11 C14 1_555 1_555
C16 C17 1_555 1_555
C22 C23 1_555 1_555
C26 C33 1_555 1_555
C30 C31 1_555 1_555
C36 C39 1_555 1_555
C41 C42 1_555 1_555
C46 C47 1_555 1_555
C46 C48 1_555 1_555

#END
