
#######################################################################
#
#                 Cambridge Crystallographic Data Centre
#                                CCDC 
#
#######################################################################
#
# If this CIF has been generated from an entry in the Cambridge 
# Structural Database, then it will include bibliographic, chemical, 
# crystal, experimental, refinement or atomic coordinate data resulting 
# from the CCDC's data processing and validation procedures.
#
#######################################################################

data_ZIVTAC
_chemical_formula_moiety         'C23 H20 Br1 F1 N2 O3'
_chemical_name_systematic        
3-{5-[1-(4-bromo-2-fluorophenyl)-1H-pyrazol-5-yl]furan-3-yl}-3a,7-dimethyl-3a,4,5,6-tetrahydro-2-benzofuran-1(3H)-one
_symmetry_cell_setting           orthorhombic
_symmetry_space_group_name_H-M   'P 21 21 21'
_symmetry_Int_Tables_number      19
_space_group_name_Hall           'P 2ac 2ab'
loop_
_symmetry_equiv_pos_site_id
_symmetry_equiv_pos_as_xyz
1 x,y,z
2 1/2-x,-y,1/2+z
3 1/2+x,1/2-y,-z
4 -x,1/2+y,1/2-z
_cell_length_a                   8.0477(5)
_cell_length_b                   8.7393(8)
_cell_length_c                   30.042(3)
_cell_angle_alpha                90
_cell_angle_beta                 90
_cell_angle_gamma                90
_cell_volume                     2112.89
_exptl_crystal_colour            'light yellow'
_exptl_crystal_description       plate
_cell_formula_units_Z            4
loop_
_atom_site_label
_atom_site_type_symbol
_atom_site_fract_x
_atom_site_fract_y
_atom_site_fract_z
Br1 Br -0.01719(10) -0.50767(13) -0.19363(3)
O1 O -0.2710(5) -0.4607(5) -0.51437(16)
O2 O -0.0366(5) -0.3814(5) -0.48206(14)
O3 O 0.2773(6) -0.3567(7) -0.37484(16)
N1 N 0.7169(7) -0.4703(11) -0.3039(2)
N2 N 0.5621(7) -0.4449(8) -0.3215(2)
C1 C -0.1213(7) -0.4587(7) -0.5139(2)
C2 C 0.0006(7) -0.5310(6) -0.5439(2)
C3 C -0.0203(8) -0.5706(8) -0.5860(3)
C4 C 0.1258(10) -0.6250(12) -0.6135(3)
H1 H 0.1477 -0.5495 -0.6364
H2 H 0.0944 -0.7193 -0.6283
C5 C 0.2854(9) -0.6530(9) -0.5880(3)
H3 H 0.3788 -0.6508 -0.6084
H4 H 0.2817 -0.7534 -0.5743
C6 C 0.3097(7) -0.5284(9) -0.5513(2)
H5 H 0.4122 -0.5472 -0.5353
H6 H 0.3168 -0.4281 -0.5650
C7 C 0.1640(7) -0.5333(7) -0.5194(2)
C8 C 0.1439(8) -0.3909(8) -0.4914(2)
H7 H 0.1765 -0.3018 -0.5092
C9 C -0.1838(9) -0.5558(9) -0.6105(3)
H8 H -0.2671 -0.5175 -0.5905
H9 H -0.2170 -0.6543 -0.6215
H10 H -0.1709 -0.4863 -0.6350
C10 C 0.1671(9) -0.6773(8) -0.4895(3)
H11 H 0.0823 -0.6689 -0.4671
H12 H 0.2738 -0.6857 -0.4754
H13 H 0.1471 -0.7665 -0.5073
C11 C 0.2314(8) -0.3839(8) -0.4476(2)
C12 C 0.4030(8) -0.4097(8) -0.4386(2)
H14 H 0.4854 -0.4316 -0.4594
C13 C 0.4226(8) -0.3962(9) -0.3945(2)
C14 C 0.1622(10) -0.3506(10) -0.4081(2)
H15 H 0.0507 -0.3267 -0.4040
C15 C 0.5667(8) -0.4185(8) -0.3668(2)
C16 C 0.7316(9) -0.4231(10) -0.3780(3)
H16 H 0.7777 -0.4072 -0.4060
C17 C 0.8173(10) -0.4572(13) -0.3381(3)
H17 H 0.9320 -0.4689 -0.3362
C18 C 0.4205(9) -0.4565(12) -0.2926(2)
C19 C 0.3556(11) -0.6008(12) -0.2837(3)
C20 C 0.2243(12) -0.6189(13) -0.2542(3)
H18 H 0.1807 -0.7151 -0.2479
C21 C 0.1602(8) -0.4874(14) -0.2345(2)
C22 C 0.2228(12) -0.3445(11) -0.2433(3)
H19 H 0.1778 -0.2582 -0.2298
C23 C 0.3518(12) -0.3320(12) -0.2721(3)
H20 H 0.3950 -0.2355 -0.2781
F1 F 0.4101(12) -0.7077(11) -0.3070(3)
H21? H 0.4008 -0.6862 -0.2976
F2? F 0.4082(14) -0.2081(13) -0.2927(4)
loop_
_geom_bond_atom_site_label_1
_geom_bond_atom_site_label_2
_geom_bond_site_symmetry_1
_geom_bond_site_symmetry_2
Br1 C21 1_555 1_555
O1 C1 1_555 1_555
O2 C1 1_555 1_555
O3 C13 1_555 1_555
N1 N2 1_555 1_555
N2 C15 1_555 1_555
C1 C2 1_555 1_555
C2 C3 1_555 1_555
C3 C4 1_555 1_555
C4 H1 1_555 1_555
H2 C4 1_555 1_555
C5 C4 1_555 1_555
H3 C5 1_555 1_555
H4 C5 1_555 1_555
C6 C5 1_555 1_555
H5 C6 1_555 1_555
H6 C6 1_555 1_555
C7 C2 1_555 1_555
C8 O2 1_555 1_555
H7 C8 1_555 1_555
C9 C3 1_555 1_555
H8 C9 1_555 1_555
H9 C9 1_555 1_555
H10 C9 1_555 1_555
C10 C7 1_555 1_555
H11 C10 1_555 1_555
H12 C10 1_555 1_555
H13 C10 1_555 1_555
C11 C8 1_555 1_555
C12 C11 1_555 1_555
H14 C12 1_555 1_555
C13 C12 1_555 1_555
C14 O3 1_555 1_555
H15 C14 1_555 1_555
C15 C13 1_555 1_555
C16 C15 1_555 1_555
H16 C16 1_555 1_555
C17 N1 1_555 1_555
H17 C17 1_555 1_555
C18 N2 1_555 1_555
C19 C18 1_555 1_555
C20 C19 1_555 1_555
H18 C20 1_555 1_555
C21 C20 1_555 1_555
C22 C21 1_555 1_555
H19 C22 1_555 1_555
C23 C18 1_555 1_555
H20 C23 1_555 1_555
F1 C19 1_555 1_555
C6 C7 1_555 1_555
C7 C8 1_555 1_555
C11 C14 1_555 1_555
C16 C17 1_555 1_555
C22 C23 1_555 1_555

#END
