
#######################################################################
#
#                 Cambridge Crystallographic Data Centre
#                                CCDC 
#
#######################################################################
#
# If this CIF has been generated from an entry in the Cambridge 
# Structural Database, then it will include bibliographic, chemical, 
# crystal, experimental, refinement or atomic coordinate data resulting 
# from the CCDC's data processing and validation procedures.
#
#######################################################################

data_ZIVWUZ
_chemical_formula_moiety         
'C60 H64 Cs2 N24 O23 2+,6(C6 H5 N1 O3),2(Cl1 1-),6(H2 O1)'
_chemical_name_systematic        
'(\m-1,2,3-hexamethylcucurbit[5]uril)-tetrakis(4-nitrophenol)-aqua-di-cesium dichloride 4-nitrophenol solvate hexahydrate'
_symmetry_cell_setting           triclinic
_symmetry_space_group_name_H-M   'P -1'
_symmetry_Int_Tables_number      2
_space_group_name_Hall           '-P 1'
loop_
_symmetry_equiv_pos_site_id
_symmetry_equiv_pos_as_xyz
1 x,y,z
2 -x,-y,-z
_cell_length_a                   11.3439(5)
_cell_length_b                   16.5169(8)
_cell_length_c                   31.9518(14)
_cell_angle_alpha                88.985(2)
_cell_angle_beta                 80.261(2)
_cell_angle_gamma                79.077(2)
_cell_volume                     5792.87
_exptl_crystal_colour            colorless
_cell_formula_units_Z            2
loop_
_atom_site_label
_atom_site_type_symbol
_atom_site_fract_x
_atom_site_fract_y
_atom_site_fract_z
Cl2 Cl -0.4843(6) 0.9772(3) -0.04449(15)
Cl3 Cl -0.2211(4) 0.4325(3) 0.5064(2)
O1 O -0.5743(4) 0.4695(2) 0.44087(12)
Cs1 Cs -0.01025(3) 0.11276(2) 0.14527(2)
Cs2 Cs -0.58858(2) 0.38946(2) 0.34018(2)
C1 C 0.0275(3) 0.2388(2) 0.25203(11)
C2 C -0.0237(3) 0.3532(2) 0.30000(11)
C3 C -0.0262(3) 0.2712(2) 0.32517(11)
C4 C -0.2226(3) 0.3567(2) 0.33632(11)
C5 C 0.0180(3) 0.1195(2) 0.29897(13)
H1 H 0.076649 0.089485 0.275715
H2 H 0.050079 0.105492 0.325344
C6 C -0.2073(3) 0.2263(2) 0.37552(11)
H3 H -0.274020 0.259771 0.395004
H4 H -0.144774 0.201909 0.392171
C7 C -0.1210(3) 0.0528(2) 0.26766(12)
C8 C -0.1780(3) 0.0811(2) 0.34083(11)
C9 C -0.2715(3) 0.0368(2) 0.32618(11)
C10 C -0.3724(3) 0.1647(2) 0.35510(10)
C11 C -0.2784(3) -0.0203(2) 0.25101(12)
H5 H -0.212769 -0.044061 0.228055
H6 H -0.310602 -0.066073 0.265767
C12 C -0.5056(3) 0.0815(2) 0.32942(12)
H7 H -0.508085 0.023085 0.334520
H8 H -0.568427 0.113957 0.350653
C13 C -0.3506(3) 0.0616(2) 0.19308(11)
C14 C -0.5040(3) 0.0457(2) 0.25111(12)
C15 C -0.5627(3) 0.0992(2) 0.21517(11)
C16 C -0.6019(3) 0.1769(2) 0.27921(11)
C17 C -0.4607(4) 0.1425(2) 0.14157(12)
H9 H -0.394346 0.112156 0.120734
H10 H -0.537646 0.138875 0.132350
C18 C -0.6802(3) 0.2486(2) 0.21859(11)
H11 H -0.740121 0.279972 0.241040
H12 H -0.724974 0.229708 0.198180
C19 C -0.3422(3) 0.2561(2) 0.12957(11)
C20 C -0.5495(3) 0.2962(2) 0.15303(11)
H13 H -0.611750 0.296275 0.134715
C21 C -0.4914(3) 0.3744(2) 0.14574(11)
H14 H -0.523761 0.409045 0.123116
C22 C -0.5946(3) 0.3752(2) 0.21623(12)
C23 C -0.2686(3) 0.3875(2) 0.12019(10)
H15 H -0.205347 0.355528 0.098891
H16 H -0.303595 0.438052 0.106695
C24 C -0.4921(3) 0.4930(2) 0.19595(13)
H17 H -0.554571 0.521741 0.218563
H18 H -0.491139 0.527897 0.170812
C25 C -0.1059(3) 0.3649(2) 0.16473(11)
C26 C -0.2599(3) 0.4821(2) 0.18197(12)
H19 H -0.262469 0.533381 0.165324
C27 C -0.1671(3) 0.4763(2) 0.21337(11)
H20 H -0.125600 0.524244 0.211076
C28 C -0.3636(3) 0.4844(2) 0.25163(12)
C29 C 0.0268(3) 0.3732(2) 0.21812(11)
H21 H 0.056986 0.422063 0.225411
H22 H 0.089263 0.341361 0.196564
C30 C -0.1991(3) 0.4771(2) 0.29409(11)
H23 H -0.135921 0.510936 0.290432
H24 H -0.266638 0.504757 0.315403
C31 C 0.0650(3) 0.4048(2) 0.31041(12)
H25 H 0.041648 0.423800 0.339732
H26 H 0.146494 0.371753 0.306314
H27 H 0.063507 0.451998 0.291852
C32 C 0.0537(3) 0.2557(3) 0.35953(12)
H28 H 0.027069 0.299015 0.381028
H29 H 0.047045 0.202810 0.372468
H30 H 0.137853 0.255321 0.346912
C33 C -0.1060(4) 0.0414(3) 0.37451(15)
H31 H -0.161727 0.035238 0.400444
H32 H -0.060298 -0.012351 0.364400
H33 H -0.050165 0.076103 0.380118
C34 C -0.2804(4) -0.0435(3) 0.34878(16)
H34 H -0.310308 -0.032502 0.378799
H35 H -0.336044 -0.070856 0.336923
H36 H -0.200493 -0.078828 0.345131
C35 C -0.5503(4) -0.0333(2) 0.26238(16)
H37 H -0.529272 -0.070237 0.237879
H38 H -0.513200 -0.059453 0.285632
H39 H -0.638091 -0.020857 0.270873
C36 C -0.6617(4) 0.0647(3) 0.19785(15)
H40 H -0.729940 0.063349 0.220529
H41 H -0.689071 0.099610 0.175311
H42 H -0.628661 0.009238 0.186751
N1 N 0.0093(2) 0.32347(17) 0.25570(9)
N2 N 0.0106(3) 0.20743(19) 0.29205(9)
N3 N -0.1504(2) 0.39858(18) 0.30999(9)
N4 N -0.1561(2) 0.2797(2) 0.34452(9)
N5 N -0.0955(3) 0.09085(17) 0.30168(9)
N6 N -0.2268(3) 0.02317(19) 0.28096(9)
N7 N -0.2537(3) 0.15988(19) 0.35826(9)
N8 N -0.3858(2) 0.09669(18) 0.33516(9)
N9 N -0.3735(3) 0.03005(18) 0.23268(9)
N10 N -0.4579(3) 0.10295(19) 0.18302(9)
N11 N -0.5340(3) 0.10229(18) 0.28716(9)
N12 N -0.6146(3) 0.17732(17) 0.23721(9)
N13 N -0.4488(3) 0.22865(17) 0.14193(9)
N14 N -0.3631(3) 0.33992(18) 0.13322(10)
N15 N -0.6043(3) 0.30314(19) 0.19717(9)
N16 N -0.5247(2) 0.41603(17) 0.18600(9)
N17 N -0.2130(3) 0.40947(18) 0.15468(10)
N18 N -0.0823(2) 0.39958(18) 0.20025(9)
N19 N -0.3735(3) 0.48220(18) 0.20955(9)
N20 N -0.2427(2) 0.47389(18) 0.25413(9)
O2 O 0.0595(2) 0.19871(15) 0.21886(8)
O3 O -0.0597(2) 0.04261(16) 0.23265(8)
O4 O -0.2503(2) 0.05370(16) 0.17070(8)
O5 O -0.2432(2) 0.21090(16) 0.11583(9)
O6 O -0.0428(2) 0.30478(15) 0.14477(8)
O7 O -0.3310(2) 0.38112(17) 0.35225(8)
O8 O -0.4559(2) 0.22139(15) 0.36900(7)
O9 O -0.6451(2) 0.23228(16) 0.30453(8)
O10 O -0.6401(2) 0.39955(16) 0.25158(8)
O11 O -0.4469(2) 0.49379(16) 0.28136(8)
C37 C -0.8065(3) 0.3015(3) 0.44813(12)
C38 C -0.8654(4) 0.3303(3) 0.48744(13)
H43 H -0.901717 0.386107 0.492258
C39 C -0.8695(4) 0.2737(3) 0.51981(14)
H44 H -0.908184 0.291567 0.547356
C40 C -0.8174(4) 0.1910(3) 0.51241(13)
C41 C -0.7596(4) 0.1643(3) 0.47200(13)
H45 H -0.724887 0.108398 0.466604
C42 C -0.7536(4) 0.2202(3) 0.43996(13)
H46 H -0.713519 0.203066 0.412470
N21 N -0.8224(4) 0.1326(3) 0.54651(12)
O12 O -0.7966(3) 0.35537(18) 0.41535(9)
H47 H -0.870507 0.392072 0.414765
O13 O -0.7721(4) 0.0598(2) 0.53876(12)
O14 O -0.8704(4) 0.1553(3) 0.58202(12)
C43 C -0.8004(4) 0.6304(3) 0.33755(13)
C44 C -0.9008(4) 0.6869(3) 0.35478(16)
H48 H -0.955956 0.673986 0.378189
C45 C -0.9180(4) 0.7641(3) 0.33634(16)
H49 H -0.988011 0.803610 0.346333
C46 C -0.8318(4) 0.7831(3) 0.30307(14)
C47 C -0.7296(4) 0.7282(3) 0.28698(14)
H50 H -0.671552 0.742608 0.264916
C48 C -0.7142(4) 0.6511(3) 0.30404(15)
H51 H -0.645164 0.611478 0.293235
N22 N -0.8556(4) 0.8658(2) 0.28567(14)
O15 O -0.7784(3) 0.5538(2) 0.35439(11)
H52 H -0.839784 0.548969 0.377567
O16 O -0.9490(4) 0.9131(2) 0.29910(15)
O17 O -0.7765(4) 0.8818(2) 0.25683(13)
C49 C 0.1024(2) -0.16185(7) 0.18052(8)
C50 C 0.0166(4) -0.18080(8) 0.21035(9)
H53 H -0.049211 -0.139470 0.221970
C51 C 0.02248(19) -0.26046(7) 0.22464(8)
H54 H -0.034314 -0.274130 0.247344
C52 C 0.11612(19) -0.31900(13) 0.20383(9)
C53 C 0.1999(5) -0.3007(3) 0.17395(17)
H55 H 0.264505 -0.342527 0.161965
C54 C 0.1954(2) -0.22069(13) 0.15951(10)
H56 H 0.252321 -0.207351 0.136759
N23 N 0.1177(4) -0.4032(3) 0.22072(16)
O18 O 0.0960(4) -0.08000(7) 0.16635(9)
H57 H 0.178935 -0.081997 0.155546
O19 O 0.0388(5) -0.4179(3) 0.24740(17)
O20 O 0.2038(5) -0.4564(3) 0.2014(2)
C55 C 0.12507(14) 0.21875(8) 0.02056(4)
C56 C 0.20008(6) 0.19994(8) -0.01806(3)
H58 H 0.236025 0.145167 -0.026094
C57 C 0.22026(7) 0.26471(8) -0.04440(4)
H59 H 0.270779 0.254357 -0.071009
C58 C 0.16695(13) 0.34422(10) -0.03198(4)
C59 C 0.09203(12) 0.36270(9) 0.00673(4)
H60 H 0.056265 0.417530 0.014703
C60 C 0.07107(15) 0.29842(6) 0.03342(5)
H61 H 0.020618 0.308797 0.060043
N24 N 0.1935(3) 0.40908(10) -0.06224(6)
O21 O 0.10113(18) 0.1576(3) 0.04840(9)
H62 H 0.128118 0.107364 0.033269
O22 O 0.2654(4) 0.3900(3) -0.09505(12)
O23 O 0.1397(5) 0.4800(3) -0.05459(17)
C61 C -0.3543(4) 0.5786(2) 0.39851(13)
C62 C -0.4464(4) 0.6055(2) 0.37623(14)
H63 H -0.517219 0.582693 0.381629
C63 C -0.4375(4) 0.6653(2) 0.34601(13)
H64 H -0.501598 0.684662 0.331029
C64 C -0.3303(4) 0.6961(2) 0.33850(13)
C65 C -0.2345(4) 0.6681(3) 0.35892(15)
H65 H -0.161905 0.688716 0.352261
C66 C -0.2463(4) 0.6097(3) 0.38919(14)
H66 H -0.181673 0.590204 0.403893
N25 N -0.3196(4) 0.7609(2) 0.30636(12)
O24 O -0.3615(3) 0.52195(18) 0.42964(9)
H67 H -0.429901 0.509285 0.433182
O25 O -0.4079(4) 0.7903(2) 0.29025(11)
O26 O -0.2216(4) 0.7842(2) 0.29782(13)
C67 C -0.4904(3) 0.2412(2) 0.47637(11)
C68 C -0.5305(4) 0.2708(3) 0.51755(14)
H68 H -0.561370 0.327404 0.522296
C69 C -0.5264(4) 0.2204(2) 0.55082(13)
H69 H -0.552254 0.241669 0.578643
C70 C -0.4841(4) 0.1374(2) 0.54390(12)
C71 C -0.4461(4) 0.1059(3) 0.50368(12)
H70 H -0.417904 0.048882 0.499207
C72 C -0.4493(4) 0.1572(2) 0.47022(13)
H71 H -0.423252 0.135588 0.442480
N26 N -0.4764(4) 0.0826(2) 0.58016(11)
O27 O -0.4979(2) 0.29556(16) 0.44415(8)
H72 H -0.472671 0.270587 0.421104
O28 O -0.4931(4) 0.1146(2) 0.61598(10)
O29 O -0.4532(3) 0.00769(19) 0.57394(10)
C73 C -0.4567(4) 0.75626(11) -0.02303(5)
C74 C -0.5164(5) 0.7868(3) 0.01658(15)
H73 H -0.542217 0.843946 0.021240
C75 C -0.5376(5) 0.7330(3) 0.04896(16)
H74 H -0.575858 0.752025 0.076364
C76 C -0.5006(4) 0.6499(3) 0.03981(14)
C77 C -0.4410(4) 0.6203(3) 0.00018(14)
H75 H -0.414818 0.563259 -0.004782
C78 C -0.4205(5) 0.67444(15) -0.03166(13)
H76 H -0.382016 0.655434 -0.059053
N27 N -0.5160(4) 0.5878(3) 0.07280(13)
O30 O -0.4274(3) 0.81071(9) -0.05604(5)
H77 H -0.456261 0.858939 -0.047912
O31 O -0.5629(4) 0.6169(3) 0.10817(12)
O32 O -0.4832(4) 0.5152(2) 0.06426(13)
C79 C -0.1661(4) 0.20429(12) 0.51191(5)
C80 C -0.2090(5) 0.2317(4) 0.54996(8)
H78 H -0.233276 0.288746 0.555316
C81 C -0.2195(6) 0.1751(4) 0.5838(2)
H79 H -0.250986 0.193414 0.611895
C82 C -0.1815(5) 0.0921(4) 0.57383(18)
C83 C -0.1374(5) 0.0662(4) 0.53284(18)
H80 H -0.113214 0.009317 0.526950
C84 C -0.1273(6) 0.1197(5) 0.50041(18)
H81 H -0.096579 0.101951 0.472207
N28 N -0.1979(5) 0.0309(3) 0.61044(17)
O33 O -0.1552(4) 0.25636(12) 0.47656(4)
H82 H -0.180277 0.305079 0.484499
O34 O -0.2415(6) 0.0570(4) 0.64585(15)
O35 O -0.1646(5) -0.0406(3) 0.60074(17)
C85 C -0.3442(7) -0.1046(3) 0.12474(18)
C86 C -0.2472(6) -0.1405(4) 0.14243(19)
H83 H -0.172944 -0.121870 0.135916
C87 C -0.2583(6) -0.2042(3) 0.16991(19)
H84 H -0.191837 -0.229507 0.182548
C88 C -0.3666(5) -0.2308(3) 0.17884(16)
C89 C -0.4678(6) -0.1958(3) 0.16253(18)
H85 H -0.542328 -0.213822 0.169660
C90 C -0.4519(6) -0.1281(4) 0.13313(19)
H86 H -0.517106 -0.101400 0.120276
N29 N -0.3725(4) -0.3029(2) 0.20752(14)
O36 O -0.3366(6) -0.0420(2) 0.09505(13)
H87 H -0.294334 -0.010483 0.102230
O37 O -0.2827(4) -0.3356(2) 0.22017(13)
O38 O -0.4728(4) -0.3236(2) 0.21530(15)
C91 C 0.17880(3) 0.68976(4) 0.02110(2)
C92 C 0.09770(6) 0.72618(7) 0.05548(2)
H88 H 0.068348 0.783406 0.057059
C93 C 0.06164(6) 0.67501(6) 0.08738(3)
H89 H 0.006236 0.696646 0.111640
C94 C 0.10820(5) 0.59015(5) 0.08344(2)
C95 C 0.19042(6) 0.55525(5) 0.04810(2)
H90 H 0.219590 0.497997 0.046639
C96 C 0.22981(6) 0.60513(6) 0.01471(3)
H91 H 0.285123 0.584178 -0.009699
N30 N 0.07470(5) 0.52820(6) 0.11663(2)
O39 O 0.21619(6) 0.74217(8) -0.01183(3)
H92 H 0.181749 0.790465 -0.005703
O40 O 0.00107(5) 0.56545(9) 0.14680(2)
O41 O 0.12591(5) 0.45559(7) 0.10719(3)
Cl1 Cl 0.04006(13) 0.52303(9) 0.43214(4)
loop_
_geom_bond_atom_site_label_1
_geom_bond_atom_site_label_2
_geom_bond_site_symmetry_1
_geom_bond_site_symmetry_2
O1 Cs2 1_555 1_555
Cs1 O2 1_555 1_555
Cs2 O7 1_555 1_555
C1 N1 1_555 1_555
C2 C3 1_555 1_555
C3 C32 1_555 1_555
C4 N3 1_555 1_555
C5 H1 1_555 1_555
H2 C5 1_555 1_555
C6 H3 1_555 1_555
H4 C6 1_555 1_555
C7 N5 1_555 1_555
C8 C9 1_555 1_555
C9 C34 1_555 1_555
C10 N7 1_555 1_555
C11 H5 1_555 1_555
H6 C11 1_555 1_555
C12 H7 1_555 1_555
H8 C12 1_555 1_555
C13 N9 1_555 1_555
C14 C15 1_555 1_555
C15 C36 1_555 1_555
C16 N11 1_555 1_555
C17 H9 1_555 1_555
H10 C17 1_555 1_555
C18 H11 1_555 1_555
H12 C18 1_555 1_555
C19 N13 1_555 1_555
C20 H13 1_555 1_555
C21 C20 1_555 1_555
H14 C21 1_555 1_555
C22 N15 1_555 1_555
C23 H15 1_555 1_555
H16 C23 1_555 1_555
C24 H17 1_555 1_555
H18 C24 1_555 1_555
C25 N17 1_555 1_555
C26 H19 1_555 1_555
C27 C26 1_555 1_555
H20 C27 1_555 1_555
C28 N19 1_555 1_555
C29 H21 1_555 1_555
H22 C29 1_555 1_555
C30 H23 1_555 1_555
H24 C30 1_555 1_555
C31 C2 1_555 1_555
H25 C31 1_555 1_555
H26 C31 1_555 1_555
H27 C31 1_555 1_555
C32 H28 1_555 1_555
H29 C32 1_555 1_555
H30 C32 1_555 1_555
C33 C8 1_555 1_555
H31 C33 1_555 1_555
H32 C33 1_555 1_555
H33 C33 1_555 1_555
C34 H34 1_555 1_555
H35 C34 1_555 1_555
H36 C34 1_555 1_555
C35 C14 1_555 1_555
H37 C35 1_555 1_555
H38 C35 1_555 1_555
H39 C35 1_555 1_555
C36 H40 1_555 1_555
H41 C36 1_555 1_555
H42 C36 1_555 1_555
N1 C2 1_555 1_555
N2 C1 1_555 1_555
N3 C2 1_555 1_555
N4 C3 1_555 1_555
N5 C5 1_555 1_555
N6 C7 1_555 1_555
N7 C6 1_555 1_555
N8 C9 1_555 1_555
N9 C11 1_555 1_555
N10 C13 1_555 1_555
N11 C12 1_555 1_555
N12 C15 1_555 1_555
N13 C17 1_555 1_555
N14 C19 1_555 1_555
N15 C18 1_555 1_555
N16 C21 1_555 1_555
N17 C23 1_555 1_555
N18 C25 1_555 1_555
N19 C24 1_555 1_555
N20 C27 1_555 1_555
O2 C1 1_555 1_555
O3 Cs1 1_555 1_555
O4 Cs1 1_555 1_555
O5 Cs1 1_555 1_555
O6 Cs1 1_555 1_555
O7 C4 1_555 1_555
O8 Cs2 1_555 1_555
O9 Cs2 1_555 1_555
O10 Cs2 1_555 1_555
O11 Cs2 1_555 1_555
C37 C38 1_555 1_555
C38 H43 1_555 1_555
C39 C38 1_555 1_555
H44 C39 1_555 1_555
C40 C39 1_555 1_555
C41 C40 1_555 1_555
H45 C41 1_555 1_555
C42 C37 1_555 1_555
H46 C42 1_555 1_555
N21 C40 1_555 1_555
O12 Cs2 1_555 1_555
H47 O12 1_555 1_555
O13 N21 1_555 1_555
O14 N21 1_555 1_555
C43 C44 1_555 1_555
C44 H48 1_555 1_555
C45 C44 1_555 1_555
H49 C45 1_555 1_555
C46 C45 1_555 1_555
C47 C46 1_555 1_555
H50 C47 1_555 1_555
C48 C43 1_555 1_555
H51 C48 1_555 1_555
N22 C46 1_555 1_555
O15 Cs2 1_555 1_555
H52 O15 1_555 1_555
O16 N22 1_555 1_555
O17 N22 1_555 1_555
C49 C50 1_555 1_555
C50 H53 1_555 1_555
C51 C50 1_555 1_555
H54 C51 1_555 1_555
C52 C51 1_555 1_555
C53 C52 1_555 1_555
H55 C53 1_555 1_555
C54 C49 1_555 1_555
H56 C54 1_555 1_555
N23 C52 1_555 1_555
O18 Cs1 1_555 1_555
H57 O18 1_555 1_555
O19 N23 1_555 1_555
O20 N23 1_555 1_555
C55 C56 1_555 1_555
C56 H58 1_555 1_555
C57 C56 1_555 1_555
H59 C57 1_555 1_555
C58 C57 1_555 1_555
C59 C58 1_555 1_555
H60 C59 1_555 1_555
C60 C55 1_555 1_555
H61 C60 1_555 1_555
N24 C58 1_555 1_555
O21 Cs1 1_555 1_555
H62 O21 1_555 1_555
O22 N24 1_555 1_555
O23 N24 1_555 1_555
C61 C62 1_555 1_555
C62 H63 1_555 1_555
C63 C62 1_555 1_555
H64 C63 1_555 1_555
C64 C63 1_555 1_555
C65 C64 1_555 1_555
H65 C65 1_555 1_555
C66 C61 1_555 1_555
H66 C66 1_555 1_555
N25 C64 1_555 1_555
O24 C61 1_555 1_555
H67 O24 1_555 1_555
O25 N25 1_555 1_555
O26 N25 1_555 1_555
C67 C68 1_555 1_555
C68 H68 1_555 1_555
C69 C68 1_555 1_555
H69 C69 1_555 1_555
C70 C69 1_555 1_555
C71 C70 1_555 1_555
H70 C71 1_555 1_555
C72 C67 1_555 1_555
H71 C72 1_555 1_555
N26 C70 1_555 1_555
O27 C67 1_555 1_555
H72 O27 1_555 1_555
O28 N26 1_555 1_555
O29 N26 1_555 1_555
C73 C74 1_555 1_555
C74 H73 1_555 1_555
C75 C74 1_555 1_555
H74 C75 1_555 1_555
C76 C75 1_555 1_555
C77 C76 1_555 1_555
H75 C77 1_555 1_555
C78 C73 1_555 1_555
H76 C78 1_555 1_555
N27 C76 1_555 1_555
O30 C73 1_555 1_555
H77 O30 1_555 1_555
O31 N27 1_555 1_555
O32 N27 1_555 1_555
C79 C80 1_555 1_555
C80 H78 1_555 1_555
C81 C80 1_555 1_555
H79 C81 1_555 1_555
C82 C81 1_555 1_555
C83 C82 1_555 1_555
H80 C83 1_555 1_555
C84 C79 1_555 1_555
H81 C84 1_555 1_555
N28 C82 1_555 1_555
O33 C79 1_555 1_555
H82 O33 1_555 1_555
O34 N28 1_555 1_555
O35 N28 1_555 1_555
C85 C86 1_555 1_555
C86 H83 1_555 1_555
C87 C86 1_555 1_555
H84 C87 1_555 1_555
C88 C87 1_555 1_555
C89 C88 1_555 1_555
H85 C89 1_555 1_555
C90 C85 1_555 1_555
H86 C90 1_555 1_555
N29 C88 1_555 1_555
O36 C85 1_555 1_555
H87 O36 1_555 1_555
O37 N29 1_555 1_555
O38 N29 1_555 1_555
C91 C92 1_555 1_555
C92 H88 1_555 1_555
C93 C92 1_555 1_555
H89 C93 1_555 1_555
C94 C93 1_555 1_555
C95 C94 1_555 1_555
H90 C95 1_555 1_555
C96 C91 1_555 1_555
H91 C96 1_555 1_555
N30 C94 1_555 1_555
O39 C91 1_555 1_555
H92 O39 1_555 1_555
O40 N30 1_555 1_555
O41 N30 1_555 1_555
C3 N2 1_555 1_555
C4 N4 1_555 1_555
C5 N2 1_555 1_555
C6 N4 1_555 1_555
C7 O3 1_555 1_555
C8 N5 1_555 1_555
C8 N7 1_555 1_555
C9 N6 1_555 1_555
C10 N8 1_555 1_555
C10 O8 1_555 1_555
C11 N6 1_555 1_555
C12 N8 1_555 1_555
C13 O4 1_555 1_555
C14 N9 1_555 1_555
C14 N11 1_555 1_555
C15 N10 1_555 1_555
C16 N12 1_555 1_555
C16 O9 1_555 1_555
C17 N10 1_555 1_555
C18 N12 1_555 1_555
C19 O5 1_555 1_555
C20 N13 1_555 1_555
C20 N15 1_555 1_555
C21 N14 1_555 1_555
C22 N16 1_555 1_555
C22 O10 1_555 1_555
C23 N14 1_555 1_555
C24 N16 1_555 1_555
C25 O6 1_555 1_555
C26 N17 1_555 1_555
C26 N19 1_555 1_555
C27 N18 1_555 1_555
C28 N20 1_555 1_555
C28 O11 1_555 1_555
C29 N1 1_555 1_555
C29 N18 1_555 1_555
C30 N3 1_555 1_555
C30 N20 1_555 1_555
C37 O12 1_555 1_555
C41 C42 1_555 1_555
C43 O15 1_555 1_555
C47 C48 1_555 1_555
C49 O18 1_555 1_555
C53 C54 1_555 1_555
C55 O21 1_555 1_555
C59 C60 1_555 1_555
C65 C66 1_555 1_555
C71 C72 1_555 1_555
C77 C78 1_555 1_555
C83 C84 1_555 1_555
C89 C90 1_555 1_555
C95 C96 1_555 1_555

#END
