
#######################################################################
#
#                 Cambridge Crystallographic Data Centre
#                                CCDC 
#
#######################################################################
#
# If this CIF has been generated from an entry in the Cambridge 
# Structural Database, then it will include bibliographic, chemical, 
# crystal, experimental, refinement or atomic coordinate data resulting 
# from the CCDC's data processing and validation procedures.
#
#######################################################################

data_ZIVZEM
_chemical_formula_moiety         'C25 H26 Cl1 N1 O5 S1'
_chemical_name_systematic        
"methyl 2'-(4-chlorophenyl)-1'-[(4-methylphenyl)sulfonyl]-3-oxospiro[bicyclo[2.2.1]heptane-2,3'-pyrrolidine]-5'-carboxylate"
_symmetry_cell_setting           monoclinic
_symmetry_space_group_name_H-M   'P 21/n'
_symmetry_Int_Tables_number      14
_space_group_name_Hall           '-P 2yn'
loop_
_symmetry_equiv_pos_site_id
_symmetry_equiv_pos_as_xyz
1 x,y,z
2 1/2-x,1/2+y,1/2-z
3 -x,-y,-z
4 1/2+x,1/2-y,1/2+z
_cell_length_a                   10.1095(14)
_cell_length_b                   13.7964(19)
_cell_length_c                   17.127(2)
_cell_angle_alpha                90
_cell_angle_beta                 101.841(2)
_cell_angle_gamma                90
_cell_volume                     2337.95
_exptl_crystal_colour            colorless
_exptl_crystal_description       block
_cell_formula_units_Z            4
loop_
_atom_site_label
_atom_site_type_symbol
_atom_site_fract_x
_atom_site_fract_y
_atom_site_fract_z
Cl1 Cl 0.09762(6) 0.50456(5) 0.71497(4)
S1 S 0.62615(4) 0.74117(3) 1.01860(2)
O1 O 0.48262(12) 0.75139(9) 0.99887(8)
O2 O 0.69046(14) 0.69103(8) 1.08920(7)
O3 O 0.94606(13) 0.56312(10) 1.05964(7)
O4 O 0.75849(11) 0.49476(8) 0.98763(7)
O5 O 0.65023(14) 0.60822(11) 0.70047(8)
N1 N 0.66924(12) 0.68338(8) 0.94410(7)
C1 C 0.24663(17) 0.56388(14) 0.75788(10)
C2 C 0.25478(17) 0.66184(14) 0.74675(10)
H1 H 0.182437 0.695633 0.716517
C3 C 0.37292(16) 0.70969(12) 0.78139(10)
H2 H 0.379286 0.776209 0.774190
C4 C 0.48144(14) 0.66049(10) 0.82643(8)
C5 C 0.46932(16) 0.56170(11) 0.83795(10)
H3 H 0.540553 0.527963 0.869293
C6 C 0.35238(18) 0.51258(12) 0.80334(11)
H4 H 0.345208 0.446130 0.810611
C7 C 0.60829(14) 0.71642(10) 0.86187(8)
H5 H 0.584038 0.784947 0.864497
C8 C 0.72955(14) 0.70918(10) 0.81785(8)
C9 C 0.81711(16) 0.63062(11) 0.86553(9)
H6 H 0.909334 0.634268 0.857717
H7 H 0.781318 0.566626 0.850094
C10 C 0.81054(15) 0.65270(10) 0.95214(9)
H8 H 0.870659 0.707107 0.971564
C11 C 0.84697(15) 0.56632(11) 1.00752(9)
C12 C 0.7867(2) 0.40607(13) 1.03208(12)
H9 H 0.858857 0.372249 1.015067
H10 H 0.707286 0.366116 1.022907
H11 H 0.812861 0.420644 1.087932
C13 C 0.69686(15) 0.85767(10) 1.02044(8)
C14 C 0.62442(15) 0.93059(11) 0.97447(9)
H12 H 0.539191 0.917984 0.943625
C15 C 0.68025(17) 1.02177(11) 0.97511(10)
H13 H 0.632520 1.070304 0.943636
C16 C 0.80595(17) 1.04262(11) 1.02163(10)
C17 C 0.87743(17) 0.96873(12) 1.06675(10)
H14 H 0.962440 0.981621 1.097751
C18 C 0.82426(16) 0.87626(11) 1.06635(9)
H15 H 0.873264 0.827186 1.096457
C19 C 0.8605(2) 1.14418(13) 1.02422(14)
H16 H 0.855348 1.167269 0.970806
H17 H 0.952973 1.144553 1.052361
H18 H 0.807968 1.185599 1.051153
C20 C 0.79370(17) 0.81076(12) 0.81334(10)
H19 H 0.806423 0.848052 0.863025
C21 C 0.9208(2) 0.80303(16) 0.77738(12)
H20 H 0.980380 0.752186 0.803194
H21 H 0.969982 0.863846 0.782443
C22 C 0.8639(2) 0.77836(19) 0.68891(12)
H22 H 0.895889 0.715637 0.675054
H23 H 0.888985 0.827270 0.653918
C23 C 0.7093(2) 0.77727(16) 0.68387(11)
H24 H 0.653265 0.784592 0.630276
C24 C 0.6934(2) 0.85591(14) 0.74346(12)
H25 H 0.602280 0.859453 0.753156
H26 H 0.722006 0.919146 0.728512
C25 C 0.68602(16) 0.68618(13) 0.72794(9)
loop_
_geom_bond_atom_site_label_1
_geom_bond_atom_site_label_2
_geom_bond_site_symmetry_1
_geom_bond_site_symmetry_2
Cl1 C1 1_555 1_555
S1 O1 1_555 1_555
O2 S1 1_555 1_555
O3 C11 1_555 1_555
O4 C11 1_555 1_555
O5 C25 1_555 1_555
N1 S1 1_555 1_555
C1 C2 1_555 1_555
C2 H1 1_555 1_555
C3 C2 1_555 1_555
H2 C3 1_555 1_555
C4 C3 1_555 1_555
C5 C4 1_555 1_555
H3 C5 1_555 1_555
C6 C1 1_555 1_555
H4 C6 1_555 1_555
C7 N1 1_555 1_555
H5 C7 1_555 1_555
C8 C7 1_555 1_555
C9 C8 1_555 1_555
H6 C9 1_555 1_555
H7 C9 1_555 1_555
C10 N1 1_555 1_555
H8 C10 1_555 1_555
C11 C10 1_555 1_555
C12 O4 1_555 1_555
H9 C12 1_555 1_555
H10 C12 1_555 1_555
H11 C12 1_555 1_555
C13 S1 1_555 1_555
C14 C13 1_555 1_555
H12 C14 1_555 1_555
C15 C14 1_555 1_555
H13 C15 1_555 1_555
C16 C15 1_555 1_555
C17 C16 1_555 1_555
H14 C17 1_555 1_555
C18 C13 1_555 1_555
H15 C18 1_555 1_555
C19 C16 1_555 1_555
H16 C19 1_555 1_555
H17 C19 1_555 1_555
H18 C19 1_555 1_555
C20 C8 1_555 1_555
H19 C20 1_555 1_555
C21 C20 1_555 1_555
H20 C21 1_555 1_555
H21 C21 1_555 1_555
C22 C21 1_555 1_555
H22 C22 1_555 1_555
H23 C22 1_555 1_555
C23 C22 1_555 1_555
H24 C23 1_555 1_555
C24 C20 1_555 1_555
H25 C24 1_555 1_555
H26 C24 1_555 1_555
C25 C8 1_555 1_555
C4 C7 1_555 1_555
C5 C6 1_555 1_555
C9 C10 1_555 1_555
C17 C18 1_555 1_555
C23 C24 1_555 1_555
C23 C25 1_555 1_555

#END
