
#######################################################################
#
#                 Cambridge Crystallographic Data Centre
#                                CCDC 
#
#######################################################################
#
# If this CIF has been generated from an entry in the Cambridge 
# Structural Database, then it will include bibliographic, chemical, 
# crystal, experimental, refinement or atomic coordinate data resulting 
# from the CCDC's data processing and validation procedures.
#
#######################################################################

data_ZIVZAI
_chemical_formula_moiety         'C25 H26 Cl1 N1 O5 S1'
_chemical_name_systematic        
"methyl 5'-(4-chlorophenyl)-1'-[(4-methylphenyl)sulfonyl]-3-oxospiro[bicyclo[2.2.1]heptane-2,3'-pyrrolidine]-2'-carboxylate"
_symmetry_cell_setting           triclinic
_symmetry_space_group_name_H-M   'P 1'
_symmetry_Int_Tables_number      1
_space_group_name_Hall           'P 1'
loop_
_symmetry_equiv_pos_site_id
_symmetry_equiv_pos_as_xyz
1 x,y,z
_cell_length_a                   7.2009(8)
_cell_length_b                   7.6006(9)
_cell_length_c                   22.280(3)
_cell_angle_alpha                94.896(2)
_cell_angle_beta                 93.713(2)
_cell_angle_gamma                90.336(2)
_cell_volume                     1212.33
_exptl_crystal_colour            colorless
_exptl_crystal_description       block
_cell_formula_units_Z            2
loop_
_atom_site_label
_atom_site_type_symbol
_atom_site_fract_x
_atom_site_fract_y
_atom_site_fract_z
Cl1 Cl 1.1098(2) 0.49110(19) 0.45620(7)
S1 S 0.46090(11) 0.04368(11) 0.27015(5)
O1 O 0.3252(4) 0.1185(4) 0.30818(14)
O2 O 0.4146(4) -0.1111(3) 0.23098(15)
O3 O 0.8215(4) 0.1091(5) 0.15275(15)
O4 O 0.6147(4) -0.0101(4) 0.08211(15)
O5 O 0.6295(5) 0.3958(5) 0.05922(16)
N1 N 0.5262(4) 0.1922(3) 0.22684(13)
C1 C 0.8620(3) 0.3668(3) 0.29263(9)
H1 H 0.893673 0.310859 0.255998
C2 C 0.6812(3) 0.4247(3) 0.29943(9)
C3 C 0.6339(3) 0.5083(3) 0.35418(11)
H2 H 0.512988 0.547099 0.358737
C4 C 0.7674(4) 0.5340(3) 0.40213(8)
H3 H 0.735733 0.589994 0.438764
C5 C 0.9482(3) 0.4761(3) 0.39533(10)
C6 C 0.9955(2) 0.3925(3) 0.34058(11)
H4 H 1.116421 0.353754 0.336027
C7 C 0.5324(5) 0.3828(4) 0.24936(16)
H5 H 0.411172 0.415845 0.264212
C8 C 0.5570(5) 0.4690(4) 0.19147(17)
H6 H 0.686909 0.470977 0.182392
H7 H 0.511073 0.588952 0.194295
C9 C 0.4411(5) 0.3518(5) 0.14338(16)
C10 C 0.4946(5) 0.1651(4) 0.16119(16)
H8 H 0.388473 0.084280 0.151047
C11 C 0.6651(6) 0.0877(5) 0.13283(17)
C12 C 0.7674(8) -0.0885(9) 0.0495(3)
H9 H 0.719212 -0.178687 0.019678
H10 H 0.854512 -0.139420 0.077337
H11 H 0.829050 0.001184 0.030001
C13 C 0.2264(5) 0.3714(5) 0.14170(19)
H12 H 0.166760 0.314268 0.173386
C14 C 0.1725(6) 0.5649(6) 0.1370(2)
H13 H 0.239770 0.642092 0.168044
H14 H 0.039869 0.581021 0.140204
C15 C 0.2306(7) 0.5992(7) 0.0736(3)
H15 H 0.126348 0.641318 0.049169
H16 H 0.331228 0.685430 0.076069
C16 C 0.2940(7) 0.4189(7) 0.0473(2)
H17 H 0.289362 0.402423 0.003123
C17 C 0.4791(6) 0.3872(6) 0.07853(19)
C18 C 0.1701(6) 0.2930(6) 0.0774(2)
H18 H 0.205234 0.170404 0.070280
H19 H 0.038758 0.306687 0.066395
C19 C 0.6557(3) -0.0008(3) 0.31669(10)
C20 C 0.6646(3) 0.0598(3) 0.37747(11)
H20 H 0.562881 0.115879 0.393928
C21 C 0.8257(4) 0.0365(4) 0.41366(9)
H21 H 0.831690 0.077026 0.454332
C22 C 0.9778(3) -0.0473(4) 0.38907(14)
C23 C 0.9688(3) -0.1079(4) 0.32828(14)
H22 H 1.070580 -0.163994 0.311828
C24 C 0.8078(3) -0.0846(3) 0.29209(10)
H23 H 0.801772 -0.125142 0.251423
C25 C 1.1575(8) -0.0575(9) 0.4275(3)
H24 H 1.221931 0.054026 0.430011
H25 H 1.234218 -0.147964 0.409713
H26 H 1.130466 -0.085185 0.467330
Cl2 Cl 0.49963(19) 0.76034(19) 0.52947(6)
S2 S 1.14536(11) 0.40626(11) 0.71474(5)
O6 O 1.2816(4) 0.4622(4) 0.67669(15)
O7 O 1.1902(4) 0.2724(3) 0.75383(15)
O8 O 0.7877(4) 0.5280(5) 0.83244(15)
O9 O 0.9951(4) 0.4460(5) 0.90315(14)
O10 O 0.9814(5) 0.8623(5) 0.92629(16)
N2 N 1.0821(4) 0.5765(3) 0.75829(13)
C26 C 0.7480(3) 0.7202(3) 0.69288(9)
H27 H 0.715945 0.684021 0.729719
C27 C 0.9297(2) 0.7730(3) 0.68563(9)
C28 C 0.9777(3) 0.8271(3) 0.63057(11)
H28 H 1.099252 0.862419 0.625716
C29 C 0.8439(4) 0.8283(4) 0.58276(9)
H29 H 0.875913 0.864501 0.545919
C30 C 0.6621(3) 0.7755(3) 0.59001(10)
C31 C 0.6142(2) 0.7214(3) 0.64507(11)
H30 H 0.492602 0.686104 0.649920
C32 C 1.0783(5) 0.7558(4) 0.73607(16)
H31 H 1.200073 0.781710 0.721417
C33 C 1.0539(5) 0.8708(4) 0.79390(17)
H32 H 0.924080 0.876070 0.803096
H33 H 1.100297 0.989698 0.791187
C34 C 1.1704(5) 0.7769(4) 0.84168(16)
C35 C 1.1167(5) 0.5807(5) 0.82336(16)
H34 H 1.222136 0.504926 0.833086
C36 C 0.9426(6) 0.5176(5) 0.85246(18)
C37 C 0.8455(8) 0.3833(10) 0.9363(3)
H35 H 0.738758 0.354615 0.909058
H36 H 0.813624 0.473750 0.966539
H37 H 0.884660 0.279882 0.955366
C38 C 1.1324(6) 0.8451(6) 0.90662(19)
C39 C 1.3194(7) 0.8943(7) 0.9382(2)
H38 H 1.324386 0.900033 0.982344
C40 C 1.3821(7) 1.0618(7) 0.9116(3)
H39 H 1.487145 1.117319 0.935637
H40 H 1.281601 1.145855 0.909277
C41 C 1.4379(6) 0.9946(6) 0.8482(2)
H41 H 1.369971 1.055318 0.817283
H42 H 1.570348 1.010499 0.844614
C42 C 1.3847(5) 0.7991(5) 0.84346(19)
H43 H 1.443976 0.727308 0.811565
C43 C 1.4416(6) 0.7520(7) 0.9075(2)
H44 H 1.573326 0.770707 0.918274
H45 H 1.404690 0.632962 0.914595
C44 C 0.9397(4) 0.3727(3) 0.60798(11)
H46 H 1.041474 0.422716 0.591812
C45 C 0.7785(4) 0.3315(4) 0.57166(10)
H47 H 0.772303 0.353982 0.531196
C46 C 0.6264(3) 0.2568(4) 0.59582(14)
C47 C 0.6357(3) 0.2233(3) 0.65629(15)
H48 H 0.533928 0.173321 0.672457
C48 C 0.7969(4) 0.2645(3) 0.69261(11)
H49 H 0.803097 0.242054 0.733074
C49 C 0.9490(3) 0.3392(3) 0.66845(11)
C50 C 0.4446(8) 0.2251(8) 0.5584(3)
H50 H 0.376261 0.333175 0.558392
H51 H 0.372600 0.137231 0.575318
H52 H 0.469618 0.184820 0.517728
loop_
_geom_bond_atom_site_label_1
_geom_bond_atom_site_label_2
_geom_bond_site_symmetry_1
_geom_bond_site_symmetry_2
Cl1 C5 1_555 1_555
S1 O1 1_555 1_555
O2 S1 1_555 1_555
O3 C11 1_555 1_555
O4 C11 1_555 1_555
O5 C17 1_555 1_555
N1 S1 1_555 1_555
C1 H1 1_555 1_555
C2 C1 1_555 1_555
C3 C2 1_555 1_555
H2 C3 1_555 1_555
C4 C3 1_555 1_555
H3 C4 1_555 1_555
C5 C4 1_555 1_555
C6 C1 1_555 1_555
H4 C6 1_555 1_555
C7 N1 1_555 1_555
H5 C7 1_555 1_555
C8 C7 1_555 1_555
H6 C8 1_555 1_555
H7 C8 1_555 1_555
C9 C8 1_555 1_555
C10 N1 1_555 1_555
H8 C10 1_555 1_555
C11 C10 1_555 1_555
C12 O4 1_555 1_555
H9 C12 1_555 1_555
H10 C12 1_555 1_555
H11 C12 1_555 1_555
C13 C9 1_555 1_555
H12 C13 1_555 1_555
C14 C13 1_555 1_555
H13 C14 1_555 1_555
H14 C14 1_555 1_555
C15 C14 1_555 1_555
H15 C15 1_555 1_555
H16 C15 1_555 1_555
C16 C15 1_555 1_555
H17 C16 1_555 1_555
C17 C9 1_555 1_555
C18 C13 1_555 1_555
H18 C18 1_555 1_555
H19 C18 1_555 1_555
C19 S1 1_555 1_555
C20 C19 1_555 1_555
H20 C20 1_555 1_555
C21 C20 1_555 1_555
H21 C21 1_555 1_555
C22 C21 1_555 1_555
C23 C22 1_555 1_555
H22 C23 1_555 1_555
C24 C19 1_555 1_555
H23 C24 1_555 1_555
C25 C22 1_555 1_555
H24 C25 1_555 1_555
H25 C25 1_555 1_555
H26 C25 1_555 1_555
Cl2 C30 1_555 1_555
S2 O6 1_555 1_555
O7 S2 1_555 1_555
O8 C36 1_555 1_555
O9 C36 1_555 1_555
O10 C38 1_555 1_555
N2 S2 1_555 1_555
C26 H27 1_555 1_555
C27 C26 1_555 1_555
C28 C27 1_555 1_555
H28 C28 1_555 1_555
C29 C28 1_555 1_555
H29 C29 1_555 1_555
C30 C29 1_555 1_555
C31 C26 1_555 1_555
H30 C31 1_555 1_555
C32 N2 1_555 1_555
H31 C32 1_555 1_555
C33 C32 1_555 1_555
H32 C33 1_555 1_555
H33 C33 1_555 1_555
C34 C33 1_555 1_555
C35 N2 1_555 1_555
H34 C35 1_555 1_555
C36 C35 1_555 1_555
C37 O9 1_555 1_555
H35 C37 1_555 1_555
H36 C37 1_555 1_555
H37 C37 1_555 1_555
C38 C34 1_555 1_555
C39 C38 1_555 1_555
H38 C39 1_555 1_555
C40 C39 1_555 1_555
H39 C40 1_555 1_555
H40 C40 1_555 1_555
C41 C40 1_555 1_555
H41 C41 1_555 1_555
H42 C41 1_555 1_555
C42 C34 1_555 1_555
H43 C42 1_555 1_555
C43 C39 1_555 1_555
H44 C43 1_555 1_555
H45 C43 1_555 1_555
C44 H46 1_555 1_555
C45 C44 1_555 1_555
H47 C45 1_555 1_555
C46 C45 1_555 1_555
C47 C46 1_555 1_555
H48 C47 1_555 1_555
C48 C47 1_555 1_555
H49 C48 1_555 1_555
C49 S2 1_555 1_555
C50 C46 1_555 1_555
H50 C50 1_555 1_555
H51 C50 1_555 1_555
H52 C50 1_555 1_555
C2 C7 1_555 1_555
C5 C6 1_555 1_555
C9 C10 1_555 1_555
C16 C17 1_555 1_555
C16 C18 1_555 1_555
C23 C24 1_555 1_555
C27 C32 1_555 1_555
C30 C31 1_555 1_555
C34 C35 1_555 1_555
C41 C42 1_555 1_555
C42 C43 1_555 1_555
C44 C49 1_555 1_555
C48 C49 1_555 1_555

#END
