
#######################################################################
#
#                 Cambridge Crystallographic Data Centre
#                                CCDC 
#
#######################################################################
#
# If this CIF has been generated from an entry in the Cambridge 
# Structural Database, then it will include bibliographic, chemical, 
# crystal, experimental, refinement or atomic coordinate data resulting 
# from the CCDC's data processing and validation procedures.
#
#######################################################################

data_ZIWFUJ
_chemical_formula_moiety         'C21 H19 Cl1 N2'
_chemical_name_systematic        
11-(3-chlorophenyl)-1,2,3,4,5,11a-hexahydro-4aH-dibenzo[b,f]azepine-4a-carbonitrile
_symmetry_cell_setting           monoclinic
_symmetry_space_group_name_H-M   'P 21/c'
_symmetry_Int_Tables_number      14
_space_group_name_Hall           '-P 2ybc'
loop_
_symmetry_equiv_pos_site_id
_symmetry_equiv_pos_as_xyz
1 x,y,z
2 -x,1/2+y,1/2-z
3 -x,-y,-z
4 x,1/2-y,1/2+z
_cell_length_a                   9.7834(6)
_cell_length_b                   9.1871(6)
_cell_length_c                   19.0852(11)
_cell_angle_alpha                90
_cell_angle_beta                 94.337(2)
_cell_angle_gamma                90
_cell_volume                     1710.49
_exptl_crystal_colour            colorless
_exptl_crystal_description       parallelepiped
_cell_formula_units_Z            4
loop_
_atom_site_label
_atom_site_type_symbol
_atom_site_fract_x
_atom_site_fract_y
_atom_site_fract_z
Cl1 Cl 0.22935(4) -0.15325(4) 1.05197(2)
N1 N 0.17928(12) 0.36242(13) 0.72611(6)
H1 H 0.1465(19) 0.447(2) 0.7118(10)
N2 N -0.05723(14) 0.17979(15) 0.81628(7)
C1 C 0.16688(13) 0.25451(15) 0.67453(7)
C2 C 0.10578(14) 0.29561(17) 0.60835(7)
H2 H 0.0685 0.3907 0.6024
C3 C 0.09853(15) 0.20127(18) 0.55181(8)
H3 H 0.0580 0.2322 0.5075
C4 C 0.15071(15) 0.06067(17) 0.55994(7)
H4 H 0.1478 -0.0046 0.5212
C5 C 0.20690(14) 0.01772(16) 0.62543(7)
H5 H 0.2402 -0.0790 0.6310
C6 C 0.21692(13) 0.11101(15) 0.68412(7)
C7 C 0.27690(13) 0.04544(15) 0.74959(7)
H6 H 0.3013 -0.0540 0.7451
C8 C 0.30387(13) 0.09910(14) 0.81465(7)
C9 C 0.28612(13) 0.25420(14) 0.83805(7)
H7 H 0.2688 0.2504 0.8890
C10 C 0.41890(14) 0.34178(15) 0.83293(8)
H8 H 0.4965 0.2884 0.8573
H9 H 0.4378 0.3523 0.7830
C11 C 0.40745(15) 0.49278(16) 0.86592(9)
H10 H 0.3998 0.4823 0.9171
H11 H 0.4917 0.5491 0.8590
C12 C 0.28296(15) 0.57594(16) 0.83352(8)
H12 H 0.2971 0.5995 0.7840
H13 H 0.2735 0.6687 0.8591
C13 C 0.15120(14) 0.48670(15) 0.83656(8)
H14 H 0.0734 0.5412 0.8130
H15 H 0.1319 0.4719 0.8862
C14 C 0.16405(13) 0.33707(14) 0.80046(7)
C15 C 0.03723(14) 0.25032(15) 0.80977(7)
C16 C 0.35790(14) -0.00197(14) 0.87155(7)
C17 C 0.48391(14) -0.07241(15) 0.86898(7)
H16 H 0.5382 -0.0553 0.8306
C18 C 0.53038(14) -0.16759(16) 0.92234(8)
H17 H 0.6163 -0.2148 0.9201
C19 C 0.45251(15) -0.19410(15) 0.97860(7)
H18 H 0.4838 -0.2597 1.0148
C20 C 0.32780(15) -0.12287(15) 0.98108(7)
C21 C 0.27997(14) -0.02695(15) 0.92876(7)
H19 H 0.1948 0.0214 0.9318
loop_
_geom_bond_atom_site_label_1
_geom_bond_atom_site_label_2
_geom_bond_site_symmetry_1
_geom_bond_site_symmetry_2
Cl1 C20 1_555 1_555
N1 H1 1_555 1_555
N2 C15 1_555 1_555
C1 N1 1_555 1_555
C2 C1 1_555 1_555
H2 C2 1_555 1_555
C3 C2 1_555 1_555
H3 C3 1_555 1_555
C4 C3 1_555 1_555
H4 C4 1_555 1_555
C5 C4 1_555 1_555
H5 C5 1_555 1_555
C6 C1 1_555 1_555
C7 C6 1_555 1_555
H6 C7 1_555 1_555
C8 C7 1_555 1_555
C9 C8 1_555 1_555
H7 C9 1_555 1_555
C10 C9 1_555 1_555
H8 C10 1_555 1_555
H9 C10 1_555 1_555
C11 C10 1_555 1_555
H10 C11 1_555 1_555
H11 C11 1_555 1_555
C12 C11 1_555 1_555
H12 C12 1_555 1_555
H13 C12 1_555 1_555
C13 C12 1_555 1_555
H14 C13 1_555 1_555
H15 C13 1_555 1_555
C14 N1 1_555 1_555
C15 C14 1_555 1_555
C16 C8 1_555 1_555
C17 C16 1_555 1_555
H16 C17 1_555 1_555
C18 C17 1_555 1_555
H17 C18 1_555 1_555
C19 C18 1_555 1_555
H18 C19 1_555 1_555
C20 C19 1_555 1_555
C21 C16 1_555 1_555
H19 C21 1_555 1_555
C5 C6 1_555 1_555
C9 C14 1_555 1_555
C13 C14 1_555 1_555
C20 C21 1_555 1_555

#END
