
#######################################################################
#
#                 Cambridge Crystallographic Data Centre
#                                CCDC 
#
#######################################################################
#
# If this CIF has been generated from an entry in the Cambridge 
# Structural Database, then it will include bibliographic, chemical, 
# crystal, experimental, refinement or atomic coordinate data resulting 
# from the CCDC's data processing and validation procedures.
#
#######################################################################

data_ZIWFIX
_chemical_formula_moiety         'C21 H20 N2'
_chemical_name_systematic        
11-phenyl-1,2,3,4,5,11a-hexahydro-4aH-dibenzo[b,f]azepine-4a-carbonitrile
_symmetry_cell_setting           monoclinic
_symmetry_space_group_name_H-M   'C c'
_symmetry_Int_Tables_number      9
_space_group_name_Hall           'C -2yc'
loop_
_symmetry_equiv_pos_site_id
_symmetry_equiv_pos_as_xyz
1 x,y,z
2 x,-y,1/2+z
3 1/2+x,1/2+y,z
4 1/2+x,1/2-y,1/2+z
_cell_length_a                   8.8326(6)
_cell_length_b                   21.8050(19)
_cell_length_c                   17.7177(13)
_cell_angle_alpha                90
_cell_angle_beta                 104.165(2)
_cell_angle_gamma                90
_cell_volume                     3308.59
_exptl_crystal_colour            brown
_exptl_crystal_description       parallelepiped
_cell_formula_units_Z            8
loop_
_atom_site_label
_atom_site_type_symbol
_atom_site_fract_x
_atom_site_fract_y
_atom_site_fract_z
N1 N 0.8126(3) 0.83565(11) 0.39410(15)
H1 H 0.892(6) 0.8371(18) 0.367(2)
N2 N 0.5493(3) 0.95250(13) 0.33820(18)
C1 C 0.7549(4) 0.88666(12) 0.51014(16)
H2 H 0.7410 0.9288 0.5297
C2 C 0.8994(4) 0.85901(15) 0.56628(18)
H3 H 0.8800 0.8557 0.6188
H4 H 0.9173 0.8171 0.5487
C3 C 1.0450(4) 0.89776(18) 0.57073(19)
H5 H 1.1364 0.8771 0.6048
H6 H 1.0321 0.9380 0.5943
C4 C 1.0756(4) 0.90786(15) 0.49050(19)
H7 H 1.1649 0.9363 0.4950
H8 H 1.1035 0.8683 0.4699
C5 C 0.9323(4) 0.93443(13) 0.43439(17)
H9 H 0.9530 0.9382 0.3821
H10 H 0.9121 0.9760 0.4520
C6 C 0.7864(3) 0.89431(12) 0.42869(16)
C7 C 0.6904(4) 0.79669(13) 0.35780(16)
C8 C 0.7011(4) 0.76840(15) 0.28845(18)
H11 H 0.7865 0.7778 0.2667
C9 C 0.5898(4) 0.72706(15) 0.25125(19)
H12 H 0.6004 0.7073 0.2051
C10 C 0.4625(4) 0.71435(13) 0.28112(19)
H13 H 0.3844 0.6865 0.2550
C11 C 0.4496(4) 0.74240(13) 0.34916(19)
H14 H 0.3619 0.7332 0.3693
C12 C 0.5620(4) 0.78413(13) 0.38970(17)
C13 C 0.5363(4) 0.80888(13) 0.46259(17)
H15 H 0.4482 0.7916 0.4766
C14 C 0.6113(3) 0.85072(13) 0.51332(16)
C15 C 0.5521(4) 0.86260(14) 0.58414(17)
C16 C 0.5546(4) 0.81683(15) 0.63878(19)
H16 H 0.5961 0.7777 0.6314
C17 C 0.4973(5) 0.82714(17) 0.7043(2)
H17 H 0.5011 0.7954 0.7414
C18 C 0.4356(4) 0.88298(17) 0.71508(19)
H18 H 0.3942 0.8898 0.7591
C19 C 0.4336(4) 0.92938(15) 0.6620(2)
H19 H 0.3914 0.9683 0.6699
C20 C 0.4926(4) 0.91978(14) 0.59730(19)
H20 H 0.4926 0.9524 0.5617
C21 C 0.6518(4) 0.92699(13) 0.37744(17)
N3 N 0.2123(3) 0.94655(11) 0.22240(15)
H21 H 0.314(6) 0.9482(19) 0.254(2)
N4 N 0.0740(4) 0.82361(13) 0.30322(17)
C22 C 0.0625(4) 0.87832(14) 0.11676(16)
H22 H 0.0527 0.8337 0.1033
C23 C 0.1313(4) 0.90948(19) 0.05484(18)
H23 H 0.0555 0.9065 0.0036
H24 H 0.1486 0.9535 0.0678
C24 C 0.2853(5) 0.8804(2) 0.0494(2)
H25 H 0.2667 0.8375 0.0311
H26 H 0.3286 0.9032 0.0112
C25 C 0.4020(4) 0.88121(17) 0.1281(2)
H27 H 0.4330 0.9241 0.1426
H28 H 0.4968 0.8583 0.1246
C26 C 0.3334(4) 0.85250(15) 0.19116(18)
H29 H 0.4103 0.8561 0.2421
H30 H 0.3144 0.8083 0.1798
C27 C 0.1793(4) 0.88324(13) 0.19662(16)
C28 C 0.1073(4) 0.98256(12) 0.25120(16)
C29 C 0.1726(4) 1.02372(13) 0.31137(18)
H31 H 0.2824 1.0238 0.3323
C30 C 0.0809(4) 1.06428(14) 0.34104(18)
H32 H 0.1282 1.0925 0.3806
C31 C -0.0782(4) 1.06356(14) 0.31314(18)
H33 H -0.1422 1.0906 0.3339
C32 C -0.1439(4) 1.02320(13) 0.25481(17)
H34 H -0.2543 1.0227 0.2362
C33 C -0.0551(4) 0.98237(13) 0.22117(16)
C34 C -0.1428(4) 0.94464(13) 0.15725(16)
H35 H -0.2520 0.9522 0.1448
C35 C -0.1004(4) 0.90138(13) 0.11255(16)
C36 C -0.2222(4) 0.87332(14) 0.04859(18)
C37 C -0.2488(4) 0.81049(15) 0.0451(2)
H36 H -0.1882 0.7845 0.0840
C38 C -0.3639(5) 0.78555(18) -0.0150(2)
H37 H -0.3815 0.7425 -0.0170
C39 C -0.4523(5) 0.8229(2) -0.0715(2)
H38 H -0.5310 0.8057 -0.1124
C40 C -0.4267(5) 0.88490(18) -0.0687(2)
H39 H -0.4871 0.9107 -0.1078
C41 C -0.3129(4) 0.90991(17) -0.00866(19)
H40 H -0.2968 0.9530 -0.0068
C42 C 0.1175(4) 0.84915(13) 0.25554(17)
loop_
_geom_bond_atom_site_label_1
_geom_bond_atom_site_label_2
_geom_bond_site_symmetry_1
_geom_bond_site_symmetry_2
N1 H1 1_555 1_555
N2 C21 1_555 1_555
C1 H2 1_555 1_555
C2 C1 1_555 1_555
H3 C2 1_555 1_555
H4 C2 1_555 1_555
C3 C2 1_555 1_555
H5 C3 1_555 1_555
H6 C3 1_555 1_555
C4 C3 1_555 1_555
H7 C4 1_555 1_555
H8 C4 1_555 1_555
C5 C4 1_555 1_555
H9 C5 1_555 1_555
H10 C5 1_555 1_555
C6 N1 1_555 1_555
C7 N1 1_555 1_555
C8 C7 1_555 1_555
H11 C8 1_555 1_555
C9 C8 1_555 1_555
H12 C9 1_555 1_555
C10 C9 1_555 1_555
H13 C10 1_555 1_555
C11 C10 1_555 1_555
H14 C11 1_555 1_555
C12 C7 1_555 1_555
C13 C12 1_555 1_555
H15 C13 1_555 1_555
C14 C1 1_555 1_555
C15 C14 1_555 1_555
C16 C15 1_555 1_555
H16 C16 1_555 1_555
C17 C16 1_555 1_555
H17 C17 1_555 1_555
C18 C17 1_555 1_555
H18 C18 1_555 1_555
C19 C18 1_555 1_555
H19 C19 1_555 1_555
C20 C15 1_555 1_555
H20 C20 1_555 1_555
C21 C6 1_555 1_555
N3 H21 1_555 1_555
N4 C42 1_555 1_555
C22 H22 1_555 1_555
C23 C22 1_555 1_555
H23 C23 1_555 1_555
H24 C23 1_555 1_555
C24 C23 1_555 1_555
H25 C24 1_555 1_555
H26 C24 1_555 1_555
C25 C24 1_555 1_555
H27 C25 1_555 1_555
H28 C25 1_555 1_555
C26 C25 1_555 1_555
H29 C26 1_555 1_555
H30 C26 1_555 1_555
C27 N3 1_555 1_555
C28 N3 1_555 1_555
C29 C28 1_555 1_555
H31 C29 1_555 1_555
C30 C29 1_555 1_555
H32 C30 1_555 1_555
C31 C30 1_555 1_555
H33 C31 1_555 1_555
C32 C31 1_555 1_555
H34 C32 1_555 1_555
C33 C28 1_555 1_555
C34 C33 1_555 1_555
H35 C34 1_555 1_555
C35 C22 1_555 1_555
C36 C35 1_555 1_555
C37 C36 1_555 1_555
H36 C37 1_555 1_555
C38 C37 1_555 1_555
H37 C38 1_555 1_555
C39 C38 1_555 1_555
H38 C39 1_555 1_555
C40 C39 1_555 1_555
H39 C40 1_555 1_555
C41 C36 1_555 1_555
H40 C41 1_555 1_555
C42 C27 1_555 1_555
C1 C6 1_555 1_555
C5 C6 1_555 1_555
C11 C12 1_555 1_555
C13 C14 1_555 1_555
C19 C20 1_555 1_555
C22 C27 1_555 1_555
C26 C27 1_555 1_555
C32 C33 1_555 1_555
C34 C35 1_555 1_555
C40 C41 1_555 1_555

#END
