
#######################################################################
#
#                 Cambridge Crystallographic Data Centre
#                                CCDC 
#
#######################################################################
#
# If this CIF has been generated from an entry in the Cambridge 
# Structural Database, then it will include bibliographic, chemical, 
# crystal, experimental, refinement or atomic coordinate data resulting 
# from the CCDC's data processing and validation procedures.
#
#######################################################################

data_ZIWMOJ
_chemical_formula_moiety         'C19 H14 O3'
_chemical_name_systematic        
3-phenyl-2,3-dihydro-5H-naphtho[2,3-e][1,4]dioxepin-5-one
_symmetry_cell_setting           monoclinic
_symmetry_space_group_name_H-M   'P 21/c'
_symmetry_Int_Tables_number      14
_space_group_name_Hall           '-P 2ybc'
loop_
_symmetry_equiv_pos_site_id
_symmetry_equiv_pos_as_xyz
1 x,y,z
2 -x,1/2+y,1/2-z
3 -x,-y,-z
4 x,1/2-y,1/2+z
_cell_length_a                   12.5264(3)
_cell_length_b                   10.3959(2)
_cell_length_c                   10.7767(2)
_cell_angle_alpha                90
_cell_angle_beta                 93.142(1)
_cell_angle_gamma                90
_cell_volume                     1401.27
_exptl_crystal_colour            colorless
_exptl_crystal_description       prism
_cell_formula_units_Z            4
loop_
_atom_site_label
_atom_site_type_symbol
_atom_site_fract_x
_atom_site_fract_y
_atom_site_fract_z
C1 C 0.37885(8) 0.18172(10) 0.89993(9)
H1 H 0.4469 0.2140 0.8692
H2 H 0.3834 0.0867 0.9044
C2 C 0.36524(8) 0.23468(9) 1.02922(9)
H3 H 0.3078 0.1855 1.0693
C3 C 0.46840(8) 0.22165(9) 1.10670(9)
C4 C 0.55140(8) 0.30951(10) 1.09655(10)
H4 H 0.5428 0.3806 1.0415
C5 C 0.64680(9) 0.29316(11) 1.16699(11)
H5 H 0.7030 0.3538 1.1608
C6 C 0.66023(9) 0.18852(11) 1.24640(11)
H6 H 0.7254 0.1777 1.2946
C7 C 0.57863(9) 0.10005(10) 1.25522(10)
H7 H 0.5880 0.0279 1.3088
C8 C 0.48272(8) 0.11657(10) 1.18564(10)
H8 H 0.4267 0.0557 1.1921
C9 C 0.19226(8) 0.20379(10) 0.85892(9)
C10 C 0.12453(8) 0.11162(10) 0.81085(9)
H9 H 0.1486 0.0525 0.7512
C11 C 0.01830(8) 0.10368(10) 0.84950(9)
C12 C -0.05410(9) 0.00901(11) 0.80143(10)
H10 H -0.0318 -0.0509 0.7415
C13 C -0.15589(9) 0.00357(11) 0.84099(11)
H11 H -0.2039 -0.0600 0.8079
C14 C -0.19037(9) 0.09099(12) 0.92999(11)
H12 H -0.2611 0.0854 0.9571
C15 C -0.12267(8) 0.18396(11) 0.97773(10)
H13 H -0.1468 0.2428 1.0376
C16 C -0.01672(8) 0.19302(10) 0.93843(9)
C17 C 0.05517(8) 0.28870(9) 0.98517(9)
H14 H 0.0318 0.3502 1.0430
C18 C 0.15825(8) 0.29383(9) 0.94797(9)
C19 C 0.23087(8) 0.39808(9) 0.99728(9)
O1 O 0.29262(6) 0.21715(8) 0.81348(6)
O2 O 0.33554(6) 0.36948(7) 1.02129(7)
O3 O 0.20085(6) 0.50587(7) 1.01660(8)
loop_
_geom_bond_atom_site_label_1
_geom_bond_atom_site_label_2
_geom_bond_site_symmetry_1
_geom_bond_site_symmetry_2
C1 H1 1_555 1_555
H2 C1 1_555 1_555
C2 C1 1_555 1_555
H3 C2 1_555 1_555
C3 C2 1_555 1_555
C4 C3 1_555 1_555
H4 C4 1_555 1_555
C5 C4 1_555 1_555
H5 C5 1_555 1_555
C6 C5 1_555 1_555
H6 C6 1_555 1_555
C7 C6 1_555 1_555
H7 C7 1_555 1_555
C8 C3 1_555 1_555
H8 C8 1_555 1_555
C9 C10 1_555 1_555
C10 H9 1_555 1_555
C11 C10 1_555 1_555
C12 C11 1_555 1_555
H10 C12 1_555 1_555
C13 C12 1_555 1_555
H11 C13 1_555 1_555
C14 C13 1_555 1_555
H12 C14 1_555 1_555
C15 C14 1_555 1_555
H13 C15 1_555 1_555
C16 C11 1_555 1_555
C17 C16 1_555 1_555
H14 C17 1_555 1_555
C18 C9 1_555 1_555
C19 C18 1_555 1_555
O1 C1 1_555 1_555
O2 C2 1_555 1_555
O3 C19 1_555 1_555
C7 C8 1_555 1_555
C9 O1 1_555 1_555
C15 C16 1_555 1_555
C17 C18 1_555 1_555
C19 O2 1_555 1_555

#END
