
#######################################################################
#
#                 Cambridge Crystallographic Data Centre
#                                CCDC 
#
#######################################################################
#
# If this CIF has been generated from an entry in the Cambridge 
# Structural Database, then it will include bibliographic, chemical, 
# crystal, experimental, refinement or atomic coordinate data resulting 
# from the CCDC's data processing and validation procedures.
#
#######################################################################

data_ZIWTUX
_chemical_formula_moiety         'C44 H50 S10'
_chemical_name_systematic        
2,2'-[3,3'-bis(decylsulfanyl)[2,2'-bithiophene]-5,5'-diyl]bis(bisthieno[3,2-b:2',3'-d]thiophene)
_symmetry_cell_setting           triclinic
_symmetry_space_group_name_H-M   'P -1'
_symmetry_Int_Tables_number      2
_space_group_name_Hall           '-P 1'
loop_
_symmetry_equiv_pos_site_id
_symmetry_equiv_pos_as_xyz
1 x,y,z
2 -x,-y,-z
_cell_length_a                   5.2161(2)
_cell_length_b                   13.4218(4)
_cell_length_c                   15.6551(5)
_cell_angle_alpha                83.8879(11)
_cell_angle_beta                 88.3815(10)
_cell_angle_gamma                81.1540(10)
_cell_volume                     1076.73
_exptl_crystal_colour            'orange red'
_exptl_crystal_description       needle
_cell_formula_units_Z            1
loop_
_atom_site_label
_atom_site_type_symbol
_atom_site_fract_x
_atom_site_fract_y
_atom_site_fract_z
S1 S 0.28317(7) 0.55070(2) 0.58097(2)
S2 S 1.05716(8) 0.75192(3) 0.75076(3)
S3 S 0.58157(7) 0.83972(3) 0.53719(2)
S4 S 1.01468(8) 1.03284(3) 0.60485(3)
S5 S -0.14209(7) 0.65693(3) 0.34898(2)
C1 C 0.0701(3) 0.54286(10) 0.49896(9)
C2 C 0.0625(3) 0.62816(10) 0.43917(9)
C3 C 0.2262(3) 0.69652(11) 0.46051(10)
H1 H 0.2409 0.7584 0.4265
C4 C 0.3606(3) 0.66546(11) 0.53430(9)
C5 C 0.5393(3) 0.71600(11) 0.57610(9)
C6 C 0.6882(3) 0.68031(11) 0.64650(10)
H2 H 0.6923 0.6145 0.6761
C7 C 0.8350(3) 0.75284(11) 0.66995(9)
C8 C 0.7998(3) 0.84293(11) 0.61698(9)
C9 C 0.9561(3) 0.91281(11) 0.64145(10)
C10 C 1.1075(3) 0.87407(13) 0.71196(10)
C11 C 1.2726(3) 0.94063(15) 0.73625(11)
H3 H 1.3897 0.9254 0.7829
C12 C 1.2411(4) 1.02868(14) 0.68424(12)
H4 H 1.3343 1.0829 0.6907
C13 C 0.0774(4) 0.70307(13) 0.26598(10)
H5 H -0.0276 0.7381 0.2168
H6 H 0.1675 0.7538 0.2893
C14 C 0.2801(3) 0.62202(14) 0.23298(11)
H7 H 0.3664 0.5797 0.2828
H8 H 0.4136 0.6555 0.2000
C15 C 0.1735(4) 0.55322(14) 0.17616(11)
H9 H 0.0456 0.5172 0.2097
H10 H 0.0817 0.5953 0.1273
C16 C 0.3833(4) 0.47578(14) 0.14154(11)
H11 H 0.4684 0.4315 0.1906
H12 H 0.5164 0.5120 0.1111
C17 C 0.2842(4) 0.40964(14) 0.08043(11)
H13 H 0.1350 0.3806 0.1077
H14 H 0.2218 0.4524 0.0275
C18 C 0.4901(4) 0.32389(15) 0.05641(12)
H15 H 0.6420 0.3533 0.0317
H16 H 0.5475 0.2802 0.1095
C19 C 0.4037(4) 0.25811(15) -0.00718(12)
H17 H 0.3423 0.3016 -0.0599
H18 H 0.2560 0.2263 0.0180
C20 C 0.6190(4) 0.17543(16) -0.03110(13)
H19 H 0.7714 0.2073 -0.0518
H20 H 0.6712 0.1296 0.0213
C21 C 0.5480(4) 0.11249(18) -0.09931(16)
H21 H 0.3992 0.0786 -0.0784
H22 H 0.4930 0.1579 -0.1517
C22 C 0.7711(5) 0.0330(2) -0.12206(18)
H23 H 0.9250 0.0653 -0.1368
H24 H 0.7236 0.0006 -0.1713
H25 H 0.8090 -0.0182 -0.0728
S1A S -0.28317(7) 0.44930(2) 0.41903(2)
S2A S -1.05716(8) 0.24808(3) 0.24924(3)
S3A S -0.58157(7) 0.16028(3) 0.46281(2)
S4A S -1.01468(8) -0.03284(3) 0.39515(3)
S5A S 0.14209(7) 0.34307(3) 0.65102(2)
C1A C -0.0701(3) 0.45714(10) 0.50104(9)
C2A C -0.0625(3) 0.37184(10) 0.56083(9)
C3A C -0.2262(3) 0.30348(11) 0.53949(10)
H1A H -0.2409 0.2416 0.5735
C4A C -0.3606(3) 0.33454(11) 0.46570(9)
C5A C -0.5393(3) 0.28400(11) 0.42390(9)
C6A C -0.6882(3) 0.31969(11) 0.35350(10)
H2A H -0.6923 0.3855 0.3239
C7A C -0.8350(3) 0.24716(11) 0.33005(9)
C8A C -0.7998(3) 0.15707(11) 0.38302(9)
C9A C -0.9561(3) 0.08719(11) 0.35855(10)
C10A C -1.1075(3) 0.12593(13) 0.28804(10)
C11A C -1.2726(3) 0.05937(15) 0.26375(11)
H3A H -1.3897 0.0746 0.2171
C12A C -1.2411(4) -0.02868(14) 0.31576(12)
H4A H -1.3343 -0.0829 0.3093
C13A C -0.0774(4) 0.29693(13) 0.73402(10)
H5A H 0.0276 0.2619 0.7832
H6A H -0.1675 0.2462 0.7107
C14A C -0.2801(3) 0.37798(14) 0.76702(11)
H7A H -0.3664 0.4203 0.7172
H8A H -0.4136 0.3445 0.8000
C15A C -0.1735(4) 0.44678(14) 0.82384(11)
H9A H -0.0456 0.4828 0.7903
H10A H -0.0817 0.4047 0.8727
C16A C -0.3833(4) 0.52422(14) 0.85846(11)
H11A H -0.4684 0.5685 0.8094
H12A H -0.5164 0.4880 0.8889
C17A C -0.2842(4) 0.59036(14) 0.91957(11)
H13A H -0.1350 0.6194 0.8923
H14A H -0.2218 0.5476 0.9725
C18A C -0.4901(4) 0.67611(15) 0.94359(12)
H15A H -0.6420 0.6467 0.9683
H16A H -0.5475 0.7198 0.8905
C19A C -0.4037(4) 0.74189(15) 1.00718(12)
H17A H -0.3423 0.6984 1.0599
H18A H -0.2560 0.7737 0.9820
C20A C -0.6190(4) 0.82457(16) 1.03110(13)
H19A H -0.7714 0.7927 1.0518
H20A H -0.6712 0.8704 0.9787
C21A C -0.5480(4) 0.88751(18) 1.09931(16)
H21A H -0.3992 0.9214 1.0784
H22A H -0.4930 0.8421 1.1517
C22A C -0.7711(5) 0.9670(2) 1.12206(18)
H23A H -0.9250 0.9347 1.1368
H24A H -0.7236 0.9994 1.1713
H25A H -0.8090 1.0182 1.0728
loop_
_geom_bond_atom_site_label_1
_geom_bond_atom_site_label_2
_geom_bond_site_symmetry_1
_geom_bond_site_symmetry_2
S1 C1 1_555 1_555
S2 C7 1_555 1_555
S3 C5 1_555 1_555
S4 C9 1_555 1_555
S5 C2 1_555 1_555
C1 C2 1_555 1_555
C2 C3 1_555 1_555
C3 H1 1_555 1_555
C4 S1 1_555 1_555
C5 C4 1_555 1_555
C6 C5 1_555 1_555
H2 C6 1_555 1_555
C7 C6 1_555 1_555
C8 S3 1_555 1_555
C9 C8 1_555 1_555
C10 S2 1_555 1_555
C11 C10 1_555 1_555
H3 C11 1_555 1_555
C12 S4 1_555 1_555
H4 C12 1_555 1_555
C13 S5 1_555 1_555
H5 C13 1_555 1_555
H6 C13 1_555 1_555
C14 C13 1_555 1_555
H7 C14 1_555 1_555
H8 C14 1_555 1_555
C15 C14 1_555 1_555
H9 C15 1_555 1_555
H10 C15 1_555 1_555
C16 C15 1_555 1_555
H11 C16 1_555 1_555
H12 C16 1_555 1_555
C17 C16 1_555 1_555
H13 C17 1_555 1_555
H14 C17 1_555 1_555
C18 C17 1_555 1_555
H15 C18 1_555 1_555
H16 C18 1_555 1_555
C19 C18 1_555 1_555
H17 C19 1_555 1_555
H18 C19 1_555 1_555
C20 C19 1_555 1_555
H19 C20 1_555 1_555
H20 C20 1_555 1_555
C21 C20 1_555 1_555
H21 C21 1_555 1_555
H22 C21 1_555 1_555
C22 C21 1_555 1_555
H23 C22 1_555 1_555
H24 C22 1_555 1_555
H25 C22 1_555 1_555
S1A C1A 1_555 1_555
S2A C7A 1_555 1_555
S3A C5A 1_555 1_555
S4A C9A 1_555 1_555
S5A C2A 1_555 1_555
C1A C1 1_555 1_555
C2A C1A 1_555 1_555
C3A C2A 1_555 1_555
H1A C3A 1_555 1_555
C4A S1A 1_555 1_555
C5A C4A 1_555 1_555
C6A C5A 1_555 1_555
H2A C6A 1_555 1_555
C7A C6A 1_555 1_555
C8A S3A 1_555 1_555
C9A C8A 1_555 1_555
C10A S2A 1_555 1_555
C11A C10A 1_555 1_555
H3A C11A 1_555 1_555
C12A S4A 1_555 1_555
H4A C12A 1_555 1_555
C13A S5A 1_555 1_555
H5A C13A 1_555 1_555
H6A C13A 1_555 1_555
C14A C13A 1_555 1_555
H7A C14A 1_555 1_555
H8A C14A 1_555 1_555
C15A C14A 1_555 1_555
H9A C15A 1_555 1_555
H10A C15A 1_555 1_555
C16A C15A 1_555 1_555
H11A C16A 1_555 1_555
H12A C16A 1_555 1_555
C17A C16A 1_555 1_555
H13A C17A 1_555 1_555
H14A C17A 1_555 1_555
C18A C17A 1_555 1_555
H15A C18A 1_555 1_555
H16A C18A 1_555 1_555
C19A C18A 1_555 1_555
H17A C19A 1_555 1_555
H18A C19A 1_555 1_555
C20A C19A 1_555 1_555
H19A C20A 1_555 1_555
H20A C20A 1_555 1_555
C21A C20A 1_555 1_555
H21A C21A 1_555 1_555
H22A C21A 1_555 1_555
C22A C21A 1_555 1_555
H23A C22A 1_555 1_555
H24A C22A 1_555 1_555
H25A C22A 1_555 1_555
C3 C4 1_555 1_555
C7 C8 1_555 1_555
C9 C10 1_555 1_555
C11 C12 1_555 1_555
C3A C4A 1_555 1_555
C7A C8A 1_555 1_555
C9A C10A 1_555 1_555
C11A C12A 1_555 1_555

#END
