
#######################################################################
#
#                 Cambridge Crystallographic Data Centre
#                                CCDC 
#
#######################################################################
#
# If this CIF has been generated from an entry in the Cambridge 
# Structural Database, then it will include bibliographic, chemical, 
# crystal, experimental, refinement or atomic coordinate data resulting 
# from the CCDC's data processing and validation procedures.
#
#######################################################################

data_ZIWTIL
_chemical_formula_moiety         'C40 H47 N7 O4,C2 H6 O1'
_chemical_name_systematic        
"5-({[3',6'-bis(ethylamino)-2',7'-dimethyl-3-oxospiro[isoindole-1,9'-xanthen]-2(3H)-yl]imino}methyl)-2,4-dimethyl-N-[2-(morpholin-4-yl)ethyl]-1H-pyrrole-3-carboxamide ethanol solvate"
_symmetry_cell_setting           monoclinic
_symmetry_space_group_name_H-M   'P 21/c'
_symmetry_Int_Tables_number      14
_space_group_name_Hall           '-P 2ybc'
loop_
_symmetry_equiv_pos_site_id
_symmetry_equiv_pos_as_xyz
1 x,y,z
2 -x,1/2+y,1/2-z
3 -x,-y,-z
4 x,1/2-y,1/2+z
_cell_length_a                   22.075(9)
_cell_length_b                   8.958(4)
_cell_length_c                   21.954(9)
_cell_angle_alpha                90
_cell_angle_beta                 114.317(8)
_cell_angle_gamma                90
_cell_volume                     3956.2
_exptl_crystal_colour            yellow
_exptl_crystal_description       plate
_cell_formula_units_Z            4
loop_
_atom_site_label
_atom_site_type_symbol
_atom_site_fract_x
_atom_site_fract_y
_atom_site_fract_z
O1 O 0.16545(13) 0.6125(3) 0.05775(13)
O2 O 0.13817(14) 0.7778(3) 0.32616(14)
O3 O 0.53246(14) 0.9675(4) 0.30902(17)
O4 O 0.6544(3) 0.9845(8) 0.0586(3)
N1 N 0.09248(18) 1.0878(4) -0.03865(17)
H1 H 0.083231 1.178430 -0.032742
N2 N 0.25846(19) 0.1424(4) 0.1468(2)
H2 H 0.269545 0.079986 0.179344
N3 N 0.15511(14) 0.7298(3) 0.23195(14)
N4 N 0.21977(14) 0.7727(3) 0.26234(15)
N5 N 0.35464(16) 0.8606(4) 0.32399(15)
H3 H 0.335138 0.877345 0.350099
N6 N 0.51291(16) 0.7606(5) 0.2479(2)
H4 H 0.490610 0.678803 0.237264
N7 N 0.5866(3) 0.8551(6) 0.1303(2)
C1 C 0.11461(16) 0.7758(4) 0.11076(17)
C2 C 0.08763(16) 0.9176(4) 0.10930(18)
H5 H 0.073096 0.941499 0.142300
C3 C 0.08135(17) 1.0237(4) 0.06193(18)
C4 C 0.10191(17) 0.9857(4) 0.01133(18)
C5 C 0.12953(18) 0.8474(5) 0.01187(19)
H6 H 0.144214 0.822751 -0.020929
C6 C 0.13537(16) 0.7453(4) 0.06136(18)
C7 C 0.17607(18) 0.5080(4) 0.10667(19)
C8 C 0.21065(19) 0.3827(5) 0.1025(2)
H7 H 0.224403 0.373543 0.067880
C9 C 0.22485(19) 0.2703(4) 0.1502(2)
C10 C 0.20341(19) 0.2830(4) 0.2018(2)
C11 C 0.16949(18) 0.4094(4) 0.20300(19)
H8 H 0.155481 0.419449 0.237357
C12 C 0.15438(17) 0.5244(4) 0.15636(18)
C13 C 0.12048(17) 0.6639(4) 0.16391(17)
C14 C 0.05416(18) 0.6304(4) 0.1660(2)
C15 C -0.0006(2) 0.5633(5) 0.1175(2)
H9 H -0.000597 0.535673 0.076705
C16 C -0.0553(2) 0.5381(6) 0.1311(3)
H10 H -0.092342 0.489938 0.099754
C17 C -0.0554(3) 0.5847(6) 0.1917(3)
H11 H -0.093239 0.570125 0.199682
C18 C -0.0017(2) 0.6502(5) 0.2389(3)
H12 H -0.001764 0.680075 0.279420
C19 C 0.05325(19) 0.6716(4) 0.2254(2)
C20 C 0.1185(2) 0.7333(4) 0.2688(2)
C21 C 0.25618(17) 0.7656(4) 0.22988(19)
H13 H 0.237793 0.732770 0.185771
C22 C 0.32413(18) 0.8068(4) 0.25994(18)
C23 C 0.37120(18) 0.7923(4) 0.23473(19)
C24 C 0.43216(18) 0.8422(4) 0.2861(2)
C25 C 0.4193(2) 0.8830(5) 0.3397(2)
C26 C 0.4963(2) 0.8613(5) 0.2824(2)
C27 C 0.5666(2) 0.7810(6) 0.2273(3)
H14 H 0.586580 0.685446 0.225868
H15 H 0.600483 0.844824 0.258868
C28 C 0.5392(3) 0.8509(7) 0.1596(3)
H16 H 0.500442 0.795232 0.130432
H17 H 0.525114 0.951955 0.162963
C29 C 0.5533(4) 0.8863(11) 0.0628(4)
H18 H 0.532648 0.983918 0.056824
H19 H 0.518618 0.812805 0.041803
C30 C 0.6023(5) 0.8832(14) 0.0299(4)
H20 H 0.620461 0.783360 0.033600
H21 H 0.578643 0.906008 -0.017260
C31 C 0.6802(4) 0.9718(11) 0.1217(4)
H22 H 0.709159 1.057003 0.140035
H23 H 0.708180 0.883508 0.132997
C32 C 0.6350(3) 0.9609(8) 0.1560(3)
H24 H 0.661200 0.938743 0.202861
H25 H 0.614029 1.057157 0.153627
C33 C 0.05229(19) 1.1740(4) 0.0639(2)
H26 H 0.012408 1.187971 0.024050
H27 H 0.083826 1.250363 0.066596
H28 H 0.042036 1.179975 0.102282
C34 C 0.1625(3) 1.0811(7) -0.0993(3)
H29 H 0.163088 1.054375 -0.141384
H30 H 0.172249 1.185495 -0.091049
H31 H 0.195420 1.023826 -0.064232
C35 C 0.0974(2) 1.0501(6) -0.1010(2)
H32 H 0.087462 0.944939 -0.110292
H33 H 0.064294 1.106587 -0.137106
C36 C 0.3415(4) 0.1474(10) 0.1054(4)
H34 H 0.351458 0.122562 0.068020
H35 H 0.346819 0.252904 0.113558
H36 H 0.371169 0.094575 0.144316
C37 C 0.2762(3) 0.1070(7) 0.0915(3)
H37 H 0.247437 0.062895 0.051734
C38 C 0.2170(3) 0.1621(5) 0.2517(2)
H38 H 0.195633 0.071922 0.229644
H39 H 0.200137 0.190109 0.284010
H40 H 0.264097 0.145852 0.273913
C39 C 0.3593(2) 0.7359(5) 0.1670(2)
H41 H 0.400324 0.736700 0.161626
H42 H 0.342416 0.635816 0.161920
H43 H 0.327529 0.798922 0.133766
C40 C 0.4641(3) 0.9409(7) 0.4065(2)
H44 H 0.508350 0.950016 0.409022
H45 H 0.448638 1.037034 0.413360
H46 H 0.464120 0.873171 0.440440
O5 O 0.2736(2) 0.9104(5) 0.39476(17)
H47 H 0.235765 0.896372 0.366478
C41 C 0.3426(4) 0.9301(16) 0.5068(3)
H48 H 0.345271 0.923112 0.551444
H49 H 0.372334 0.858782 0.501045
H50 H 0.354952 1.028861 0.499252
C42 C 0.2742(4) 0.8986(12) 0.4587(3)
H51 H 0.261115 0.798966 0.465732
H52 H 0.243647 0.969886 0.463930
loop_
_geom_bond_atom_site_label_1
_geom_bond_atom_site_label_2
_geom_bond_site_symmetry_1
_geom_bond_site_symmetry_2
O1 C6 1_555 1_555
O2 C20 1_555 1_555
O3 C26 1_555 1_555
O4 C30 1_555 1_555
N1 H1 1_555 1_555
N2 H2 1_555 1_555
N3 N4 1_555 1_555
N4 C21 1_555 1_555
N5 H3 1_555 1_555
N6 H4 1_555 1_555
N7 C28 1_555 1_555
C1 C2 1_555 1_555
C2 H5 1_555 1_555
C3 C2 1_555 1_555
C4 N1 1_555 1_555
C5 C4 1_555 1_555
H6 C5 1_555 1_555
C6 C1 1_555 1_555
C7 O1 1_555 1_555
C8 C7 1_555 1_555
H7 C8 1_555 1_555
C9 N2 1_555 1_555
C10 C9 1_555 1_555
C11 C10 1_555 1_555
H8 C11 1_555 1_555
C12 C7 1_555 1_555
C13 N3 1_555 1_555
C14 C13 1_555 1_555
C15 C14 1_555 1_555
H9 C15 1_555 1_555
C16 C15 1_555 1_555
H10 C16 1_555 1_555
C17 C16 1_555 1_555
H11 C17 1_555 1_555
C18 C17 1_555 1_555
H12 C18 1_555 1_555
C19 C14 1_555 1_555
C20 N3 1_555 1_555
C21 H13 1_555 1_555
C22 N5 1_555 1_555
C23 C22 1_555 1_555
C24 C23 1_555 1_555
C25 N5 1_555 1_555
C26 N6 1_555 1_555
C27 N6 1_555 1_555
H14 C27 1_555 1_555
H15 C27 1_555 1_555
C28 C27 1_555 1_555
H16 C28 1_555 1_555
H17 C28 1_555 1_555
C29 N7 1_555 1_555
H18 C29 1_555 1_555
H19 C29 1_555 1_555
C30 C29 1_555 1_555
H20 C30 1_555 1_555
H21 C30 1_555 1_555
C31 O4 1_555 1_555
H22 C31 1_555 1_555
H23 C31 1_555 1_555
C32 N7 1_555 1_555
H24 C32 1_555 1_555
H25 C32 1_555 1_555
C33 C3 1_555 1_555
H26 C33 1_555 1_555
H27 C33 1_555 1_555
H28 C33 1_555 1_555
C34 H29 1_555 1_555
H30 C34 1_555 1_555
H31 C34 1_555 1_555
C35 N1 1_555 1_555
H32 C35 1_555 1_555
H33 C35 1_555 1_555
C36 H34 1_555 1_555
H35 C36 1_555 1_555
H36 C36 1_555 1_555
C37 N2 1_555 1_555
H37 C37 1_555 1_555
C38 C10 1_555 1_555
H38 C38 1_555 1_555
H39 C38 1_555 1_555
H40 C38 1_555 1_555
C39 C23 1_555 1_555
H41 C39 1_555 1_555
H42 C39 1_555 1_555
H43 C39 1_555 1_555
C40 C25 1_555 1_555
H44 C40 1_555 1_555
H45 C40 1_555 1_555
H46 C40 1_555 1_555
O5 H47 1_555 1_555
C41 H48 1_555 1_555
H49 C41 1_555 1_555
H50 C41 1_555 1_555
C42 O5 1_555 1_555
H51 C42 1_555 1_555
H52 C42 1_555 1_555
C1 C13 1_555 1_555
C3 C4 1_555 1_555
C5 C6 1_555 1_555
C8 C9 1_555 1_555
C11 C12 1_555 1_555
C12 C13 1_555 1_555
C18 C19 1_555 1_555
C19 C20 1_555 1_555
C21 C22 1_555 1_555
C24 C25 1_555 1_555
C24 C26 1_555 1_555
C31 C32 1_555 1_555
C34 C35 1_555 1_555
C36 C37 1_555 1_555
C41 C42 1_555 1_555

#END
