
#######################################################################
#
#                 Cambridge Crystallographic Data Centre
#                                CCDC 
#
#######################################################################
#
# If this CIF has been generated from an entry in the Cambridge 
# Structural Database, then it will include bibliographic, chemical, 
# crystal, experimental, refinement or atomic coordinate data resulting 
# from the CCDC's data processing and validation procedures.
#
#######################################################################

data_ZIXJOI
_chemical_formula_moiety         'C21 H22 Cl1 N1 O5'
_chemical_name_systematic        
't-butyl methyl [2-(4-chlorophenyl)ethenyl](2-oxopyridin-1(2H)-yl)propanedioate'
_symmetry_cell_setting           monoclinic
_symmetry_space_group_name_H-M   'C 2/c'
_symmetry_Int_Tables_number      15
_space_group_name_Hall           '-C 2yn'
loop_
_symmetry_equiv_pos_site_id
_symmetry_equiv_pos_as_xyz
1 x,y,z
2 -x,y,1/2-z
3 1/2+x,1/2+y,z
4 1/2-x,1/2+y,1/2-z
5 -x,-y,-z
6 x,-y,1/2+z
7 1/2-x,1/2-y,-z
8 1/2+x,1/2-y,1/2+z
_cell_length_a                   21.242(6)
_cell_length_b                   11.431(4)
_cell_length_c                   17.147(5)
_cell_angle_alpha                90
_cell_angle_beta                 100.194(7)
_cell_angle_gamma                90
_cell_volume                     4097.86
_exptl_crystal_colour            colorless
_exptl_crystal_description       block
_cell_formula_units_Z            8
loop_
_atom_site_label
_atom_site_type_symbol
_atom_site_fract_x
_atom_site_fract_y
_atom_site_fract_z
C1 C 0.97412(13) 0.8640(3) 0.12091(18)
C2 C 0.93538(13) 0.7806(3) 0.14429(19)
H1 H 0.9394 0.7025 0.1306
C3 C 0.88994(13) 0.8145(3) 0.18881(18)
H2 H 0.8631 0.7585 0.2048
C4 C 0.88384(11) 0.9308(2) 0.20981(16)
C5 C 0.92378(13) 1.0128(3) 0.18406(18)
H3 H 0.9201 1.0911 0.1972
C6 C 0.96879(13) 0.9802(3) 0.13945(18)
H4 H 0.9951 1.0359 0.1221
C7 C 0.83535(12) 0.9701(3) 0.25557(16)
H5 H 0.8421 1.0425 0.2804
C8 C 0.78340(11) 0.9133(2) 0.26485(15)
H6 H 0.7778 0.8382 0.2438
C9 C 0.73187(11) 0.9609(2) 0.30735(15)
C10 C 0.65506(11) 0.9071(2) 0.38974(15)
C11 C 0.63062(13) 0.8210(3) 0.43661(16)
H7 H 0.5954 0.8393 0.4596
C12 C 0.65707(14) 0.7139(3) 0.44861(18)
H8 H 0.6403 0.6602 0.4802
C13 C 0.70965(14) 0.6831(3) 0.41377(19)
H9 H 0.7278 0.6090 0.4218
C14 C 0.73365(13) 0.7621(2) 0.36854(17)
H10 H 0.7688 0.7424 0.3457
C15 C 0.75790(12) 1.0633(2) 0.36165(16)
C16 C 0.81230(18) 1.1093(3) 0.4902(2)
H11 H 0.8471 1.1463 0.4708
H12 H 0.8282 1.0715 0.5398
H13 H 0.7812 1.1672 0.4978
C17 C 0.67763(12) 0.9990(2) 0.23929(16)
C18 C 0.59132(14) 0.9105(3) 0.14390(18)
C19 C 0.6250(2) 0.9254(4) 0.0738(2)
H14 H 0.6425 1.0029 0.0743
H15 H 0.5949 0.9137 0.0256
H16 H 0.6588 0.8690 0.0770
C20 C 0.54363(17) 1.0045(4) 0.1509(3)
H17 H 0.5300 0.9982 0.2012
H18 H 0.5073 0.9960 0.1091
H19 H 0.5629 1.0797 0.1468
C21 C 0.56333(18) 0.7893(3) 0.1457(3)
H20 H 0.5968 0.7323 0.1487
H21 H 0.5324 0.7767 0.0984
H22 H 0.5429 0.7819 0.1911
Cl1 Cl 1.03240(5) 0.82375(10) 0.06591(6)
N1 N 0.70719(9) 0.87034(18) 0.35591(12)
O1 O 0.63505(9) 1.00826(17) 0.37703(12)
O2 O 0.78276(9) 1.02314(17) 0.43332(11)
O3 O 0.76044(10) 1.16319(17) 0.34220(12)
O4 O 0.64126(8) 0.90706(16) 0.21611(10)
O5 O 0.67428(9) 1.09345(18) 0.20864(12)
loop_
_geom_bond_atom_site_label_1
_geom_bond_atom_site_label_2
_geom_bond_site_symmetry_1
_geom_bond_site_symmetry_2
C1 C2 1_555 1_555
C2 H1 1_555 1_555
C3 C2 1_555 1_555
H2 C3 1_555 1_555
C4 C3 1_555 1_555
C5 C4 1_555 1_555
H3 C5 1_555 1_555
C6 C1 1_555 1_555
H4 C6 1_555 1_555
C7 C4 1_555 1_555
H5 C7 1_555 1_555
C8 C7 1_555 1_555
H6 C8 1_555 1_555
C9 C8 1_555 1_555
C10 C11 1_555 1_555
C11 H7 1_555 1_555
C12 C11 1_555 1_555
H8 C12 1_555 1_555
C13 C12 1_555 1_555
H9 C13 1_555 1_555
C14 C13 1_555 1_555
H10 C14 1_555 1_555
C15 C9 1_555 1_555
C16 H11 1_555 1_555
H12 C16 1_555 1_555
H13 C16 1_555 1_555
C17 C9 1_555 1_555
C18 C19 1_555 1_555
C19 H14 1_555 1_555
H15 C19 1_555 1_555
H16 C19 1_555 1_555
C20 C18 1_555 1_555
H17 C20 1_555 1_555
H18 C20 1_555 1_555
H19 C20 1_555 1_555
C21 C18 1_555 1_555
H20 C21 1_555 1_555
H21 C21 1_555 1_555
H22 C21 1_555 1_555
Cl1 C1 1_555 1_555
N1 C9 1_555 1_555
O1 C10 1_555 1_555
O2 C15 1_555 1_555
O3 C15 1_555 1_555
O4 C17 1_555 1_555
O5 C17 1_555 1_555
C5 C6 1_555 1_555
C10 N1 1_555 1_555
C14 N1 1_555 1_555
C16 O2 1_555 1_555
C18 O4 1_555 1_555

#END
