
#######################################################################
#
#                 Cambridge Crystallographic Data Centre
#                                CCDC 
#
#######################################################################
#
# If this CIF has been generated from an entry in the Cambridge 
# Structural Database, then it will include bibliographic, chemical, 
# crystal, experimental, refinement or atomic coordinate data resulting 
# from the CCDC's data processing and validation procedures.
#
#######################################################################

data_ZIXKAV
_chemical_formula_moiety         'C21 H22 Br1 N1 O5'
_chemical_name_systematic        
't-butyl methyl (4-bromo-2-oxopyridin-1(2H)-yl)(2-phenylethenyl)propanedioate'
_symmetry_cell_setting           orthorhombic
_symmetry_space_group_name_H-M   'P 21 21 21'
_symmetry_Int_Tables_number      19
_space_group_name_Hall           'P 2ac 2ab'
loop_
_symmetry_equiv_pos_site_id
_symmetry_equiv_pos_as_xyz
1 x,y,z
2 1/2-x,-y,1/2+z
3 -x,1/2+y,1/2-z
4 1/2+x,1/2-y,-z
_cell_length_a                   7.8447(7)
_cell_length_b                   10.8975(10)
_cell_length_c                   23.828(2)
_cell_angle_alpha                90
_cell_angle_beta                 90
_cell_angle_gamma                90
_cell_volume                     2037
_cell_formula_units_Z            4
loop_
_atom_site_label
_atom_site_type_symbol
_atom_site_fract_x
_atom_site_fract_y
_atom_site_fract_z
Br1 Br 0.37685(5) 0.09407(4) 0.53388(2)
C1 C 0.3893(4) 0.2984(3) 0.67849(15)
H1 H 0.341088 0.294488 0.715015
C2 C 0.3522(5) 0.2095(4) 0.64123(15)
H2 H 0.277826 0.143899 0.650727
C3 C 0.4279(4) 0.2170(4) 0.58743(15)
C4 C 0.5723(4) 0.4049(4) 0.61219(14)
C5 C 0.5188(5) 0.5015(4) 0.70201(15)
C6 C 0.4381(4) 0.4822(4) 0.75964(15)
H3 H 0.469644 0.410803 0.780024
C7 C 0.3273(4) 0.5580(3) 0.78319(15)
H4 H 0.292028 0.627283 0.761961
C8 C 0.2539(4) 0.5431(4) 0.84011(16)
C9 C 0.2787(5) 0.4378(4) 0.87181(16)
H5 H 0.342075 0.371047 0.856859
C10 C 0.2105(5) 0.4303(4) 0.92548(16)
H6 H 0.230792 0.359057 0.947499
C11 C 0.1144(5) 0.5240(4) 0.94718(16)
H7 H 0.066571 0.517036 0.983673
C12 C 0.0877(5) 0.6283(4) 0.91572(17)
H8 H 0.021287 0.693616 0.930520
C13 C 0.1576(4) 0.6379(4) 0.86245(17)
H9 H 0.139374 0.710264 0.841046
C14 C 0.4415(4) 0.6144(4) 0.67358(14)
C15 C 0.2167(5) 0.6757(4) 0.60783(17)
C16 C 0.3384(5) 0.7390(4) 0.56762(17)
H10 H 0.412780 0.794722 0.588660
H11 H 0.273078 0.785862 0.539886
H12 H 0.407963 0.677266 0.548378
C17 C 0.0897(5) 0.5972(5) 0.57554(18)
H13 H 0.151099 0.534180 0.554286
H14 H 0.025044 0.649183 0.549580
H15 H 0.011142 0.557770 0.601943
C18 C 0.1278(6) 0.7633(4) 0.64747(19)
H16 H 0.057288 0.716687 0.673870
H17 H 0.055517 0.819459 0.625899
H18 H 0.213231 0.810580 0.668304
C19 C 0.7124(4) 0.5205(4) 0.71401(16)
C20 C 0.9703(4) 0.4189(5) 0.72942(17)
H19 H 1.030540 0.463906 0.699867
H20 H 1.017368 0.335845 0.732452
H21 H 0.984322 0.461737 0.765275
C21 C 0.5342(4) 0.3089(4) 0.57337(16)
H22 H 0.584553 0.309930 0.537113
N1 N 0.4938(3) 0.3936(3) 0.66534(12)
O1 O 0.6613(3) 0.4951(3) 0.60295(11)
O2 O 0.7774(3) 0.6155(3) 0.72532(12)
O3 O 0.7906(3) 0.4116(3) 0.71561(11)
O4 O 0.3116(3) 0.5819(2) 0.64052(10)
O5 O 0.4854(3) 0.7179(2) 0.68357(11)
loop_
_geom_bond_atom_site_label_1
_geom_bond_atom_site_label_2
_geom_bond_site_symmetry_1
_geom_bond_site_symmetry_2
Br1 C3 1_555 1_555
C1 H1 1_555 1_555
C2 C1 1_555 1_555
H2 C2 1_555 1_555
C3 C2 1_555 1_555
C4 C21 1_555 1_555
C5 C6 1_555 1_555
C6 H3 1_555 1_555
C7 C6 1_555 1_555
H4 C7 1_555 1_555
C8 C7 1_555 1_555
C9 C8 1_555 1_555
H5 C9 1_555 1_555
C10 C9 1_555 1_555
H6 C10 1_555 1_555
C11 C10 1_555 1_555
H7 C11 1_555 1_555
C12 C11 1_555 1_555
H8 C12 1_555 1_555
C13 C8 1_555 1_555
H9 C13 1_555 1_555
C14 C5 1_555 1_555
C15 C16 1_555 1_555
C16 H10 1_555 1_555
H11 C16 1_555 1_555
H12 C16 1_555 1_555
C17 C15 1_555 1_555
H13 C17 1_555 1_555
H14 C17 1_555 1_555
H15 C17 1_555 1_555
C18 C15 1_555 1_555
H16 C18 1_555 1_555
H17 C18 1_555 1_555
H18 C18 1_555 1_555
C19 C5 1_555 1_555
C20 H19 1_555 1_555
H20 C20 1_555 1_555
H21 C20 1_555 1_555
C21 C3 1_555 1_555
H22 C21 1_555 1_555
N1 C1 1_555 1_555
O1 C4 1_555 1_555
O2 C19 1_555 1_555
O3 C19 1_555 1_555
O4 C14 1_555 1_555
O5 C14 1_555 1_555
C4 N1 1_555 1_555
C5 N1 1_555 1_555
C12 C13 1_555 1_555
C15 O4 1_555 1_555
C20 O3 1_555 1_555

#END
