
#######################################################################
#
#                 Cambridge Crystallographic Data Centre
#                                CCDC 
#
#######################################################################
#
# If this CIF has been generated from an entry in the Cambridge 
# Structural Database, then it will include bibliographic, chemical, 
# crystal, experimental, refinement or atomic coordinate data resulting 
# from the CCDC's data processing and validation procedures.
#
#######################################################################

data_ZIXWAH
_chemical_formula_moiety         'C14 H14 Cl1 N1 O3'
_chemical_name_systematic        
4-(4-chlorophenyl)-2-[(2-methyl-1,3-dioxolan-2-yl)methyl]-1,3-oxazole
_symmetry_cell_setting           triclinic
_symmetry_space_group_name_H-M   'P -1'
_symmetry_Int_Tables_number      2
_space_group_name_Hall           '-P 1'
loop_
_symmetry_equiv_pos_site_id
_symmetry_equiv_pos_as_xyz
1 x,y,z
2 -x,-y,-z
_cell_length_a                   5.6676(11)
_cell_length_b                   10.566(2)
_cell_length_c                   11.647(2)
_cell_angle_alpha                99.69(3)
_cell_angle_beta                 100.07(3)
_cell_angle_gamma                102.27(3)
_cell_volume                     655.554
_exptl_crystal_colour            colorless
_exptl_crystal_description       block
_cell_formula_units_Z            2
loop_
_atom_site_label
_atom_site_type_symbol
_atom_site_fract_x
_atom_site_fract_y
_atom_site_fract_z
C1 C 1.0920(4) 1.33374(18) 1.04358(16)
C2 C 0.8639(4) 1.2636(2) 1.04674(18)
H1 H 0.7798 1.2956 1.1024
C3 C 0.7575(4) 1.1439(2) 0.96613(18)
H2 H 0.6006 1.0961 0.9678
C4 C 0.8804(3) 1.09434(16) 0.88334(14)
C5 C 1.1110(4) 1.1692(2) 0.8810(2)
H3 H 1.1951 1.1387 0.8248
C6 C 1.2184(4) 1.2891(2) 0.9611(2)
H4 H 1.3738 1.3385 0.9591
C7 C 0.7721(3) 0.96584(16) 0.79976(14)
C8 C 0.5360(3) 0.89300(18) 0.76682(16)
H5 H 0.4019 0.9159 0.7933
C9 C 0.7648(3) 0.79043(16) 0.67548(15)
C10 C 0.8170(3) 0.68310(16) 0.59213(16)
H6 H 0.7214 0.5986 0.6003
H7 H 0.9907 0.6845 0.6149
C11 C 0.7578(3) 0.69267(14) 0.46140(15)
C12 C 0.4663(3) 0.79152(18) 0.3746(2)
H8 H 0.3239 0.8209 0.3934
H9 H 0.4464 0.7698 0.2886
C13 C 0.7022(3) 0.89492(17) 0.43233(18)
H10 H 0.7416 0.9569 0.3817
H11 H 0.6918 0.9435 0.5090
C14 C 0.8343(3) 0.58642(17) 0.38195(19)
H12 H 0.7916 0.5940 0.3003
H13 H 0.7499 0.5005 0.3901
H14 H 1.0098 0.5975 0.4052
Cl1 Cl 1.22894(13) 1.48250(5) 1.14736(5)
N1 N 0.9163(2) 0.89810(14) 0.73905(13)
O1 O 0.5270(2) 0.77927(12) 0.68759(12)
O2 O 0.49836(19) 0.68137(11) 0.42586(11)
O3 O 0.8800(2) 0.81882(11) 0.44607(12)
loop_
_geom_bond_atom_site_label_1
_geom_bond_atom_site_label_2
_geom_bond_site_symmetry_1
_geom_bond_site_symmetry_2
C1 C2 1_555 1_555
C2 H1 1_555 1_555
C3 C2 1_555 1_555
H2 C3 1_555 1_555
C4 C3 1_555 1_555
C5 C4 1_555 1_555
H3 C5 1_555 1_555
C6 C1 1_555 1_555
H4 C6 1_555 1_555
C7 C4 1_555 1_555
C8 C7 1_555 1_555
H5 C8 1_555 1_555
C9 C10 1_555 1_555
C10 H6 1_555 1_555
H7 C10 1_555 1_555
C11 C10 1_555 1_555
C12 H8 1_555 1_555
H9 C12 1_555 1_555
C13 C12 1_555 1_555
H10 C13 1_555 1_555
H11 C13 1_555 1_555
C14 C11 1_555 1_555
H12 C14 1_555 1_555
H13 C14 1_555 1_555
H14 C14 1_555 1_555
Cl1 C1 1_555 1_555
N1 C7 1_555 1_555
O1 C8 1_555 1_555
O2 C11 1_555 1_555
O3 C11 1_555 1_555
C5 C6 1_555 1_555
C9 N1 1_555 1_555
C9 O1 1_555 1_555
C12 O2 1_555 1_555
C13 O3 1_555 1_555

#END
