
#######################################################################
#
#                 Cambridge Crystallographic Data Centre
#                                CCDC 
#
#######################################################################
#
# If this CIF has been generated from an entry in the Cambridge 
# Structural Database, then it will include bibliographic, chemical, 
# crystal, experimental, refinement or atomic coordinate data resulting 
# from the CCDC's data processing and validation procedures.
#
#######################################################################

data_ZIYGOG
_chemical_formula_moiety         'C21 H24 O4'
_chemical_name_systematic        
4b-hydroxy-4-(2-hydroxypropan-2-yl)-6,6-dimethyl-8-methylidene-4b,5,6,7,8,8a-hexahydro-5,7-methanobiphenyleno[2,3-c]furan-3(1H)-one
_symmetry_cell_setting           orthorhombic
_symmetry_space_group_name_H-M   'P 21 21 21'
_symmetry_Int_Tables_number      19
_space_group_name_Hall           'P 2ac 2ab'
loop_
_symmetry_equiv_pos_site_id
_symmetry_equiv_pos_as_xyz
1 x,y,z
2 1/2-x,-y,1/2+z
3 -x,1/2+y,1/2-z
4 1/2+x,1/2-y,-z
_cell_length_a                   6.2996(4)
_cell_length_b                   14.6723(11)
_cell_length_c                   19.1704(13)
_cell_angle_alpha                90
_cell_angle_beta                 90
_cell_angle_gamma                90
_cell_volume                     1771.91
_exptl_crystal_colour            colorless
_exptl_crystal_description       block
_cell_formula_units_Z            4
loop_
_atom_site_label
_atom_site_type_symbol
_atom_site_fract_x
_atom_site_fract_y
_atom_site_fract_z
C1 C 0.6778(5) 0.2841(2) 0.93578(14)
O1 O 0.8165(3) 0.23601(16) 0.95836(11)
O2 O 0.6525(4) 0.36994(13) 0.96063(11)
C2 C 0.4735(6) 0.4137(2) 0.92857(16)
H1 H 0.5161 0.4700 0.9060
H2 H 0.3651 0.4273 0.9630
C3 C 0.3936(5) 0.34706(17) 0.87638(13)
C4 C 0.2275(4) 0.35720(17) 0.83056(13)
H3 H 0.1461 0.4099 0.8276
C5 C 0.1936(4) 0.28193(16) 0.78961(12)
C6 C 0.0482(4) 0.24995(15) 0.73218(11)
H4 H -0.0946 0.2367 0.7498
C7 C 0.0405(3) 0.30686(16) 0.66628(12)
C8 C 0.1842(4) 0.27424(16) 0.61049(12)
H5 H 0.1891 0.3124 0.5685
C9 C 0.1544(4) 0.16974(16) 0.59700(11)
C10 C 0.3084(3) 0.15638(15) 0.66055(11)
H6 H 0.4076 0.1053 0.6559
C11 C 0.1917(3) 0.16051(14) 0.72981(11)
O3 O 0.0904(2) 0.07634(11) 0.74074(8)
H7 H 0.0190 0.0789 0.7765
C12 C 0.3145(3) 0.20186(15) 0.79222(11)
C13 C 0.4809(3) 0.18889(16) 0.83916(11)
C14 C 0.5161(4) 0.26760(17) 0.88083(12)
C15 C 0.5999(3) 0.09912(17) 0.84902(11)
O4 O 0.8249(2) 0.11360(13) 0.85476(9)
H8 H 0.8502 0.1436 0.8899
C16 C 0.5162(5) 0.0540(2) 0.91521(13)
H9 H 0.5891 -0.0027 0.9226
H10 H 0.3669 0.0426 0.9104
H11 H 0.5401 0.0935 0.9543
C17 C 0.5765(4) 0.03561(17) 0.78766(13)
H12 H 0.6345 0.0639 0.7467
H13 H 0.4289 0.0226 0.7802
H14 H 0.6513 -0.0201 0.7970
C18 C -0.0813(5) 0.37930(18) 0.66137(16)
H15 H -0.0808 0.4139 0.6207
H16 H -0.1679 0.3959 0.6985
C19 C -0.0680(4) 0.13170(18) 0.59929(14)
H17 H -0.1466 0.1534 0.5597
H18 H -0.1368 0.1512 0.6414
H19 H -0.0622 0.0663 0.5982
C20 C 0.2596(5) 0.14024(19) 0.52912(12)
H20 H 0.2494 0.0752 0.5244
H21 H 0.4064 0.1579 0.5297
H22 H 0.1894 0.1690 0.4905
C21 C 0.4029(4) 0.25069(17) 0.64280(13)
H23 H 0.5184 0.2488 0.6094
H24 H 0.4397 0.2871 0.6833
loop_
_geom_bond_atom_site_label_1
_geom_bond_atom_site_label_2
_geom_bond_site_symmetry_1
_geom_bond_site_symmetry_2
C1 O1 1_555 1_555
O2 C1 1_555 1_555
C2 O2 1_555 1_555
H1 C2 1_555 1_555
H2 C2 1_555 1_555
C3 C2 1_555 1_555
C4 C3 1_555 1_555
H3 C4 1_555 1_555
C5 C4 1_555 1_555
C6 C5 1_555 1_555
H4 C6 1_555 1_555
C7 C6 1_555 1_555
C8 C7 1_555 1_555
H5 C8 1_555 1_555
C9 C8 1_555 1_555
C10 C9 1_555 1_555
H6 C10 1_555 1_555
C11 C6 1_555 1_555
O3 C11 1_555 1_555
H7 O3 1_555 1_555
C12 C5 1_555 1_555
C13 C12 1_555 1_555
C14 C1 1_555 1_555
C15 C13 1_555 1_555
O4 C15 1_555 1_555
H8 O4 1_555 1_555
C16 C15 1_555 1_555
H9 C16 1_555 1_555
H10 C16 1_555 1_555
H11 C16 1_555 1_555
C17 C15 1_555 1_555
H12 C17 1_555 1_555
H13 C17 1_555 1_555
H14 C17 1_555 1_555
C18 C7 1_555 1_555
H15 C18 1_555 1_555
H16 C18 1_555 1_555
C19 C9 1_555 1_555
H17 C19 1_555 1_555
H18 C19 1_555 1_555
H19 C19 1_555 1_555
C20 C9 1_555 1_555
H20 C20 1_555 1_555
H21 C20 1_555 1_555
H22 C20 1_555 1_555
C21 C8 1_555 1_555
H23 C21 1_555 1_555
H24 C21 1_555 1_555
C3 C14 1_555 1_555
C10 C11 1_555 1_555
C10 C21 1_555 1_555
C11 C12 1_555 1_555
C13 C14 1_555 1_555

#END
