
#######################################################################
#
#                 Cambridge Crystallographic Data Centre
#                                CCDC 
#
#######################################################################
#
# If this CIF has been generated from an entry in the Cambridge 
# Structural Database, then it will include bibliographic, chemical, 
# crystal, experimental, refinement or atomic coordinate data resulting 
# from the CCDC's data processing and validation procedures.
#
#######################################################################

data_ZIYJOI
_chemical_formula_moiety         'C27 H21 F1 N1 O4 P1 S1'
_chemical_name_systematic        
'Diphenyl (5-(4-fluorophenyl)-4-phenyl-2-thioxo-1,3-oxazolidin-4-yl)phosphonate'
_symmetry_cell_setting           monoclinic
_symmetry_space_group_name_H-M   'P 21'
_symmetry_Int_Tables_number      4
_space_group_name_Hall           'P 2yb'
loop_
_symmetry_equiv_pos_site_id
_symmetry_equiv_pos_as_xyz
1 x,y,z
2 -x,1/2+y,-z
_cell_length_a                   6.0487(9)
_cell_length_b                   16.164(2)
_cell_length_c                   12.710(2)
_cell_angle_alpha                90
_cell_angle_beta                 101.390(18)
_cell_angle_gamma                90
_cell_volume                     1218.2
_exptl_crystal_colour            'light colorless'
_exptl_crystal_description       needle
_cell_formula_units_Z            2
loop_
_atom_site_label
_atom_site_type_symbol
_atom_site_fract_x
_atom_site_fract_y
_atom_site_fract_z
S1 S 0.0558(2) -0.65673(10) -0.97566(10)
P1 P -0.39957(19) -0.68628(8) -0.70765(9)
F1 F -0.4537(6) -0.2142(2) -0.8866(3)
O1 O -0.3189(5) -0.5935(2) -0.9388(2)
O2 O -0.6209(4) -0.6723(2) -0.6810(2)
O3 O -0.2204(5) -0.7282(2) -0.6164(2)
O4 O -0.3922(5) -0.7444(2) -0.8050(2)
N1 N -0.0697(5) -0.6167(2) -0.7921(3)
H1 H 0.0609 -0.6257 -0.7527
C1 C -0.2681(7) -0.5929(3) -0.7480(3)
C2 C -0.4188(7) -0.5583(3) -0.8552(4)
H2 H -0.5727 -0.5796 -0.8619
C3 C -0.1114(7) -0.6228(3) -0.8993(4)
C4 C -0.4278(7) -0.4666(3) -0.8671(3)
C5 C -0.6047(9) -0.4236(4) -0.8437(5)
H3 H -0.7205 -0.4524 -0.8215
C6 C -0.6180(11) -0.3390(4) -0.8519(6)
H4 H -0.7432 -0.3109 -0.8379
C7 C -0.4465(11) -0.2977(4) -0.8804(4)
C8 C -0.2709(10) -0.3384(4) -0.9087(6)
H5 H -0.1580 -0.3092 -0.9328
C9 C -0.2617(9) -0.4234(4) -0.9014(5)
H6 H -0.1411 -0.4516 -0.9201
C10 C -0.2120(7) -0.5314(3) -0.6575(4)
C11 C -0.3652(8) -0.5125(4) -0.5926(4)
H7 H -0.5038 -0.5393 -0.6035
C12 C -0.3136(11) -0.4544(4) -0.5124(5)
H8 H -0.4181 -0.4433 -0.4694
C13 C -0.1152(12) -0.4129(5) -0.4940(5)
H9 H -0.0809 -0.3750 -0.4382
C14 C 0.0349(11) -0.4288(6) -0.5609(6)
H10 H 0.1687 -0.3990 -0.5526
C15 C -0.0125(9) -0.4886(5) -0.6398(5)
H11 H 0.0933 -0.5000 -0.6818
C16 C -0.1842(8) -0.7043(3) -0.5075(4)
C17 C -0.3488(11) -0.7167(5) -0.4496(5)
H12 H -0.4858 -0.7411 -0.4799
C18 C -0.303(2) -0.6916(8) -0.3461(7)
H13 H -0.4132 -0.6972 -0.3049
C19 C -0.102(3) -0.6589(7) -0.3009(7)
H14 H -0.0749 -0.6433 -0.2290
C20 C 0.0589(17) -0.6485(7) -0.3577(8)
H15 H 0.1978 -0.6265 -0.3252
C21 C 0.0189(10) -0.6703(5) -0.4655(5)
H16 H 0.1271 -0.6620 -0.5071
C22 C -0.4231(9) -0.8300(3) -0.8084(4)
C23 C -0.6028(12) -0.8672(5) -0.7749(5)
H17 H -0.7055 -0.8357 -0.7465
C24 C -0.6272(15) -0.9511(5) -0.7842(6)
H18 H -0.7471 -0.9766 -0.7612
C25 C -0.483(2) -0.9969(5) -0.8254(6)
H19 H -0.5044 -1.0538 -0.8320
C26 C -0.3038(17) -0.9607(6) -0.8580(6)
H20 H -0.2022 -0.9933 -0.8857
C27 C -0.2723(11) -0.8761(5) -0.8501(5)
H21 H -0.1511 -0.8513 -0.8728
loop_
_geom_bond_atom_site_label_1
_geom_bond_atom_site_label_2
_geom_bond_site_symmetry_1
_geom_bond_site_symmetry_2
S1 C3 1_555 1_555
P1 O2 1_555 1_555
F1 C7 1_555 1_555
O1 C2 1_555 1_555
O3 P1 1_555 1_555
O4 P1 1_555 1_555
N1 H1 1_555 1_555
C1 P1 1_555 1_555
C2 C1 1_555 1_555
H2 C2 1_555 1_555
C3 O1 1_555 1_555
C4 C2 1_555 1_555
C5 C4 1_555 1_555
H3 C5 1_555 1_555
C6 C5 1_555 1_555
H4 C6 1_555 1_555
C7 C6 1_555 1_555
C8 C7 1_555 1_555
H5 C8 1_555 1_555
C9 C4 1_555 1_555
H6 C9 1_555 1_555
C10 C1 1_555 1_555
C11 C10 1_555 1_555
H7 C11 1_555 1_555
C12 C11 1_555 1_555
H8 C12 1_555 1_555
C13 C12 1_555 1_555
H9 C13 1_555 1_555
C14 C13 1_555 1_555
H10 C14 1_555 1_555
C15 C10 1_555 1_555
H11 C15 1_555 1_555
C16 O3 1_555 1_555
C17 C16 1_555 1_555
H12 C17 1_555 1_555
C18 C17 1_555 1_555
H13 C18 1_555 1_555
C19 C18 1_555 1_555
H14 C19 1_555 1_555
C20 C19 1_555 1_555
H15 C20 1_555 1_555
C21 C16 1_555 1_555
H16 C21 1_555 1_555
C22 O4 1_555 1_555
C23 C22 1_555 1_555
H17 C23 1_555 1_555
C24 C23 1_555 1_555
H18 C24 1_555 1_555
C25 C24 1_555 1_555
H19 C25 1_555 1_555
C26 C25 1_555 1_555
H20 C26 1_555 1_555
C27 C22 1_555 1_555
H21 C27 1_555 1_555
N1 C1 1_555 1_555
N1 C3 1_555 1_555
C8 C9 1_555 1_555
C14 C15 1_555 1_555
C20 C21 1_555 1_555
C26 C27 1_555 1_555

#END
