
#######################################################################
#
#                 Cambridge Crystallographic Data Centre
#                                CCDC 
#
#######################################################################
#
# If this CIF has been generated from an entry in the Cambridge 
# Structural Database, then it will include bibliographic, chemical, 
# crystal, experimental, refinement or atomic coordinate data resulting 
# from the CCDC's data processing and validation procedures.
#
#######################################################################

data_ZIYJEY
_chemical_name_common            
(E)-3-(2-(benzo[d]oxazol-2-yl)vinyl)-N,N-diphenylaniline
_chemical_formula_moiety         'C27 H20 N2 O1'
_chemical_name_systematic        
(E)-4-(2-(1,3-benzoxazol-2-yl)vinyl)-N,N-diphenylaniline
_symmetry_cell_setting           monoclinic
_symmetry_space_group_name_H-M   'P 21/c'
_symmetry_Int_Tables_number      14
_space_group_name_Hall           '-P 2ybc'
loop_
_symmetry_equiv_pos_site_id
_symmetry_equiv_pos_as_xyz
1 x,y,z
2 -x,1/2+y,1/2-z
3 -x,-y,-z
4 x,1/2-y,1/2+z
_cell_length_a                   8.1562(16)
_cell_length_b                   14.302(3)
_cell_length_c                   16.983(3)
_cell_angle_alpha                90
_cell_angle_beta                 97.22(3)
_cell_angle_gamma                90
_cell_volume                     1965.36
_exptl_crystal_colour            yellow
_cell_formula_units_Z            4
loop_
_atom_site_label
_atom_site_type_symbol
_atom_site_fract_x
_atom_site_fract_y
_atom_site_fract_z
O1 O 0.03769(11) 0.32733(7) 0.47703(6)
N1 N 1.01839(14) 0.19073(8) 0.68828(7)
N2 N 0.12143(14) 0.45683(8) 0.41721(7)
C1 C -0.25688(17) 0.32852(11) 0.41739(9)
H1 H -0.2878 0.2750 0.4428
C2 C -0.36811(18) 0.37903(11) 0.36493(9)
H2 H -0.4773 0.3590 0.3552
C3 C -0.15931(19) 0.49180(11) 0.33910(10)
H3 H -0.1275 0.5447 0.3130
C4 C 1.10804(16) 0.24957(9) 0.74536(8)
C5 C 1.36562(17) 0.31664(10) 0.80431(9)
H4 H 1.4796 0.3220 0.8060
C6 C 1.11570(18) 0.35567(10) 0.85610(9)
H5 H 1.0604 0.3886 0.8920
C7 C -0.32027(18) 0.45874(12) 0.32672(10)
H6 H -0.3982 0.4906 0.2920
C8 C 1.09953(15) 0.11049(9) 0.66127(8)
C9 C 0.81643(16) 0.30926(10) 0.63618(8)
H7 H 0.8954 0.3556 0.6485
C10 C 0.73716(17) 0.14725(9) 0.63348(9)
H8 H 0.7621 0.0847 0.6441
C11 C 1.18546(16) 0.05000(9) 0.71636(8)
H9 H 1.1845 0.0601 0.7704
C12 C -0.04705(16) 0.44244(10) 0.39221(8)
C13 C 0.65948(17) 0.33357(10) 0.60206(8)
H10 H 0.6343 0.3963 0.5924
C14 C 1.28556(18) 0.36524(10) 0.85868(9)
H11 H 1.3446 0.4037 0.8963
C15 C 0.58005(17) 0.17223(10) 0.59887(9)
H12 H 0.5010 0.1259 0.5867
C16 C 0.37239(16) 0.28876(10) 0.54204(8)
H13 H 0.2918 0.2427 0.5417
C17 C 1.27880(16) 0.26020(9) 0.74755(8)
H14 H 1.3343 0.2292 0.7107
C18 C 0.85803(16) 0.21555(9) 0.65248(8)
C19 C 1.18589(16) 0.01786(10) 0.55541(8)
H15 H 1.1855 0.0069 0.5014
C20 C -0.09776(16) 0.36296(10) 0.42922(8)
C21 C 1.27200(16) -0.02495(10) 0.69075(9)
H16 H 1.3299 -0.0647 0.7277
C22 C 0.16321(16) 0.38805(9) 0.46561(8)
C23 C 1.09885(16) 0.09380(9) 0.58060(8)
H17 H 1.0405 0.1332 0.5435
C24 C 1.02736(16) 0.29769(10) 0.80076(8)
H18 H 0.9139 0.2908 0.8005
C25 C 1.27284(16) -0.04125(9) 0.60998(9)
H19 H 1.3315 -0.0915 0.5929
C26 C 0.32672(17) 0.36938(10) 0.50627(8)
H20 H 0.4052 0.4167 0.5075
C27 C 0.53758(16) 0.26588(9) 0.58178(8)
loop_
_geom_bond_atom_site_label_1
_geom_bond_atom_site_label_2
_geom_bond_site_symmetry_1
_geom_bond_site_symmetry_2
O1 C20 1_555 1_555
N1 C4 1_555 1_555
N2 C12 1_555 1_555
C1 H1 1_555 1_555
C2 C1 1_555 1_555
H2 C2 1_555 1_555
C3 H3 1_555 1_555
C4 C17 1_555 1_555
C5 H4 1_555 1_555
C6 H5 1_555 1_555
C7 C2 1_555 1_555
H6 C7 1_555 1_555
C8 N1 1_555 1_555
C9 H7 1_555 1_555
C10 H8 1_555 1_555
C11 C8 1_555 1_555
H9 C11 1_555 1_555
C12 C3 1_555 1_555
C13 C9 1_555 1_555
H10 C13 1_555 1_555
C14 C5 1_555 1_555
H11 C14 1_555 1_555
C15 C10 1_555 1_555
H12 C15 1_555 1_555
C16 H13 1_555 1_555
C17 C5 1_555 1_555
H14 C17 1_555 1_555
C18 N1 1_555 1_555
C19 H15 1_555 1_555
C20 C1 1_555 1_555
C21 C11 1_555 1_555
H16 C21 1_555 1_555
C22 O1 1_555 1_555
C23 C8 1_555 1_555
H17 C23 1_555 1_555
C24 C4 1_555 1_555
H18 C24 1_555 1_555
C25 C19 1_555 1_555
H19 C25 1_555 1_555
C26 C16 1_555 1_555
H20 C26 1_555 1_555
C27 C13 1_555 1_555
N2 C22 1_555 1_555
C3 C7 1_555 1_555
C6 C14 1_555 1_555
C6 C24 1_555 1_555
C9 C18 1_555 1_555
C10 C18 1_555 1_555
C12 C20 1_555 1_555
C15 C27 1_555 1_555
C16 C27 1_555 1_555
C19 C23 1_555 1_555
C21 C25 1_555 1_555
C22 C26 1_555 1_555

#END
