
#######################################################################
#
#                 Cambridge Crystallographic Data Centre
#                                CCDC 
#
#######################################################################
#
# If this CIF has been generated from an entry in the Cambridge 
# Structural Database, then it will include bibliographic, chemical, 
# crystal, experimental, refinement or atomic coordinate data resulting 
# from the CCDC's data processing and validation procedures.
#
#######################################################################

data_ZIYKOJ
_chemical_formula_moiety         'C33 H28 F1 N2 O6 P1 S1'
_chemical_name_systematic        
"Ethyl 5'-(diphenoxyphosphoryl)-5-fluoro-1-methyl-2-oxo-5'-phenyl-2'-thioxo-1,2-dihydrospiro[indole-3,3'-pyrrolidine]-4'-carboxylate"
_symmetry_cell_setting           monoclinic
_symmetry_space_group_name_H-M   'C 2'
_symmetry_Int_Tables_number      5
_space_group_name_Hall           'C 2y'
loop_
_symmetry_equiv_pos_site_id
_symmetry_equiv_pos_as_xyz
1 x,y,z
2 -x,y,-z
3 1/2+x,1/2+y,z
4 1/2-x,1/2+y,-z
_cell_length_a                   14.8786(11)
_cell_length_b                   15.2541(13)
_cell_length_c                   14.6824(11)
_cell_angle_alpha                90
_cell_angle_beta                 112.524(9)
_cell_angle_gamma                90
_cell_volume                     3078.12
_cell_formula_units_Z            4
loop_
_atom_site_label
_atom_site_type_symbol
_atom_site_fract_x
_atom_site_fract_y
_atom_site_fract_z
S1 S -0.32550(12) -0.48540(12) -0.19930(11)
P1 P 0.04337(11) -0.52255(12) -0.12658(10)
F1 F -0.4105(4) -0.7236(4) -0.5517(3)
O1 O -0.1957(4) -0.3299(3) -0.3011(3)
O2 O -0.0833(4) -0.6103(4) -0.4177(3)
O3 O -0.1221(3) -0.4704(3) -0.4567(3)
O4 O 0.1014(3) -0.5158(3) -0.1967(2)
O5 O 0.0943(3) -0.5708(3) -0.0353(3)
O6 O 0.0132(3) -0.4264(3) -0.1140(3)
N1 N -0.1464(3) -0.5405(3) -0.1653(3)
H1 H -0.1341 -0.5475 -0.1036
N2 N -0.3195(4) -0.3840(4) -0.4367(4)
C1 C -0.3526(5) -0.4669(5) -0.4757(4)
C2 C -0.4261(5) -0.4886(7) -0.5649(5)
H2 H -0.4625 -0.4452 -0.6076
C3 C -0.4437(6) -0.5759(7) -0.5887(5)
H3 H -0.4925 -0.5923 -0.6481
C4 C -0.3906(6) -0.6368(6) -0.5259(5)
C5 C -0.3165(5) -0.6190(5) -0.4365(5)
H4 H -0.2807 -0.6634 -0.3950
C6 C -0.2986(4) -0.5317(5) -0.4122(4)
C7 C -0.2218(4) -0.4882(4) -0.3247(4)
C8 C -0.2421(5) -0.3898(5) -0.3500(5)
C9 C -0.3549(6) -0.3011(6) -0.4863(6)
H5 H -0.3172 -0.2539 -0.4467
H6 H -0.4220 -0.2937 -0.4959
H7 H -0.3488 -0.3010 -0.5491
C10 C -0.1141(4) -0.5084(4) -0.3040(3)
H8 H -0.0796 -0.4523 -0.2864
C11 C -0.0753(4) -0.5659(4) -0.2080(4)
C12 C -0.2299(4) -0.5065(4) -0.2257(4)
C13 C -0.1033(4) -0.5385(5) -0.3979(4)
C14 C -0.1363(6) -0.4866(6) -0.5599(4)
H9 H -0.1947 -0.5210 -0.5927
H10 H -0.0812 -0.5181 -0.5635
C15 C -0.1455(9) -0.3999(7) -0.6065(6)
H11 H -0.1445 -0.4064 -0.6712
H12 H -0.0921 -0.3634 -0.5672
H13 H -0.2057 -0.3733 -0.6116
C16 C -0.0728(5) -0.6657(4) -0.2143(4)
C17 C 0.0025(5) -0.7084(5) -0.2307(6)
H14 H 0.0481 -0.6751 -0.2443
C18 C 0.0113(6) -0.7971(6) -0.2273(6)
H15 H 0.0630 -0.8234 -0.2376
C19 C -0.0544(8) -0.8470(6) -0.2092(6)
H16 H -0.0486 -0.9077 -0.2066
C20 C -0.1295(8) -0.8073(6) -0.1949(6)
H17 H -0.1759 -0.8416 -0.1837
C21 C -0.1387(6) -0.7166(5) -0.1964(5)
H18 H -0.1902 -0.6908 -0.1851
C22 C 0.0755(5) -0.3525(4) -0.0922(5)
C23 C 0.1419(5) -0.3401(5) 0.0011(5)
H19 H 0.1462 -0.3788 0.0516
C24 C 0.2029(6) -0.2681(6) 0.0185(6)
H20 H 0.2509 -0.2598 0.0810
C25 C 0.1941(6) -0.2102(6) -0.0529(8)
H21 H 0.2353 -0.1618 -0.0399
C26 C 0.1242(7) -0.2225(6) -0.1450(7)
H22 H 0.1166 -0.1815 -0.1942
C27 C 0.0650(6) -0.2953(5) -0.1654(6)
H23 H 0.0187 -0.3048 -0.2285
C28 C 0.1997(4) -0.5403(4) -0.1702(4)
C29 C 0.2220(5) -0.6013(5) -0.2280(5)
H24 H 0.1731 -0.6274 -0.2815
C30 C 0.3185(6) -0.6227(6) -0.2046(7)
H25 H 0.3346 -0.6638 -0.2426
C31 C 0.3905(6) -0.5842(6) -0.1265(6)
H26 H 0.4554 -0.5985 -0.1117
C32 C 0.3661(5) -0.5245(6) -0.0700(6)
H27 H 0.4148 -0.4986 -0.0163
C33 C 0.2713(4) -0.5025(5) -0.0919(5)
H28 H 0.2556 -0.4617 -0.0533
loop_
_geom_bond_atom_site_label_1
_geom_bond_atom_site_label_2
_geom_bond_site_symmetry_1
_geom_bond_site_symmetry_2
S1 C12 1_555 1_555
P1 O4 1_555 1_555
F1 C4 1_555 1_555
O1 C8 1_555 1_555
O2 C13 1_555 1_555
O3 C13 1_555 1_555
O4 C28 1_555 1_555
O5 P1 1_555 1_555
O6 P1 1_555 1_555
N1 H1 1_555 1_555
N2 C1 1_555 1_555
C1 C2 1_555 1_555
C2 H2 1_555 1_555
C3 C2 1_555 1_555
H3 C3 1_555 1_555
C4 C3 1_555 1_555
C5 C4 1_555 1_555
H4 C5 1_555 1_555
C6 C1 1_555 1_555
C7 C6 1_555 1_555
C8 N2 1_555 1_555
C9 N2 1_555 1_555
H5 C9 1_555 1_555
H6 C9 1_555 1_555
H7 C9 1_555 1_555
C10 C7 1_555 1_555
H8 C10 1_555 1_555
C11 P1 1_555 1_555
C12 N1 1_555 1_555
C13 C10 1_555 1_555
C14 O3 1_555 1_555
H9 C14 1_555 1_555
H10 C14 1_555 1_555
C15 C14 1_555 1_555
H11 C15 1_555 1_555
H12 C15 1_555 1_555
H13 C15 1_555 1_555
C16 C11 1_555 1_555
C17 C16 1_555 1_555
H14 C17 1_555 1_555
C18 C17 1_555 1_555
H15 C18 1_555 1_555
C19 C18 1_555 1_555
H16 C19 1_555 1_555
C20 C19 1_555 1_555
H17 C20 1_555 1_555
C21 C16 1_555 1_555
H18 C21 1_555 1_555
C22 O6 1_555 1_555
C23 C22 1_555 1_555
H19 C23 1_555 1_555
C24 C23 1_555 1_555
H20 C24 1_555 1_555
C25 C24 1_555 1_555
H21 C25 1_555 1_555
C26 C25 1_555 1_555
H22 C26 1_555 1_555
C27 C22 1_555 1_555
H23 C27 1_555 1_555
C28 C29 1_555 1_555
C29 H24 1_555 1_555
C30 C29 1_555 1_555
H25 C30 1_555 1_555
C31 C30 1_555 1_555
H26 C31 1_555 1_555
C32 C31 1_555 1_555
H27 C32 1_555 1_555
C33 C28 1_555 1_555
H28 C33 1_555 1_555
N1 C11 1_555 1_555
C5 C6 1_555 1_555
C7 C8 1_555 1_555
C7 C12 1_555 1_555
C10 C11 1_555 1_555
C20 C21 1_555 1_555
C26 C27 1_555 1_555
C32 C33 1_555 1_555

#END
