
#######################################################################
#
#                 Cambridge Crystallographic Data Centre
#                                CCDC 
#
#######################################################################
#
# If this CIF has been generated from an entry in the Cambridge 
# Structural Database, then it will include bibliographic, chemical, 
# crystal, experimental, refinement or atomic coordinate data resulting 
# from the CCDC's data processing and validation procedures.
#
#######################################################################

data_ZIYKUQ
_chemical_compound_source        'leaves of Rhododendron micranthum Turcz.'
_chemical_name_common            '3-epi-grayanoside B monohydrate'
_chemical_formula_moiety         'C26 H42 O9,H2 O1'
_chemical_name_systematic        
'3-((3,4,5-trihydroxy-6-(hydroxymethyl)oxan-2-yl)oxy)grayanotox-10-ene-5,6,16-triol monohydrate'
_symmetry_cell_setting           monoclinic
_symmetry_space_group_name_H-M   'P 21'
_symmetry_Int_Tables_number      4
_space_group_name_Hall           'P 2yb'
loop_
_symmetry_equiv_pos_site_id
_symmetry_equiv_pos_as_xyz
1 x,y,z
2 -x,1/2+y,-z
_cell_length_a                   12.2958(4)
_cell_length_b                   6.6149(2)
_cell_length_c                   15.8066(5)
_cell_angle_alpha                90
_cell_angle_beta                 92.7890(10)
_cell_angle_gamma                90
_cell_volume                     1284.11
_exptl_crystal_colour            colorless
_exptl_crystal_description       block
_chemical_melting_point          '230-231 deg.C'
_cell_formula_units_Z            2
loop_
_atom_site_label
_atom_site_type_symbol
_atom_site_fract_x
_atom_site_fract_y
_atom_site_fract_z
C1 C 0.1973(2) 0.6365(5) 0.46081(19)
H1 H 0.1580 0.7686 0.4555
C2 C 0.1732(3) 0.5229(6) 0.37589(19)
H2 H 0.1671 0.3757 0.3858
H3 H 0.1043 0.5716 0.3479
C3 C 0.2704(2) 0.5691(5) 0.32054(18)
H4 H 0.3201 0.4494 0.3214
C4 C 0.3304(2) 0.7482(5) 0.36377(18)
C5 C 0.3194(2) 0.6861(5) 0.45835(18)
C6 C 0.3633(3) 0.8465(5) 0.52502(19)
H5 H 0.3912 0.9650 0.4933
C7 C 0.2794(3) 0.9234(5) 0.5848(2)
H6 H 0.2136 0.9646 0.5505
H7 H 0.3091 1.0460 0.6135
C8 C 0.2444(2) 0.7738(5) 0.65351(18)
C9 C 0.2272(2) 0.5526(5) 0.62137(19)
H8 H 0.3011 0.5027 0.6077
C10 C 0.1577(3) 0.5359(5) 0.5395(2)
C11 C 0.1915(3) 0.4196(5) 0.6950(2)
H9 H 0.1586 0.2946 0.6707
H10 H 0.2575 0.3795 0.7293
C12 C 0.1107(3) 0.5133(6) 0.7545(2)
H11 H 0.1115 0.4346 0.8079
H12 H 0.0363 0.5057 0.7278
C13 C 0.1387(3) 0.7347(5) 0.7748(2)
H13 H 0.0845 0.7947 0.8127
C14 C 0.1395(3) 0.8488(5) 0.6915(2)
H14 H 0.1417 0.9967 0.7009
H15 H 0.0748 0.8149 0.6544
C15 C 0.3250(3) 0.7655(6) 0.73254(19)
H16 H 0.3694 0.6407 0.7317
H17 H 0.3745 0.8836 0.7332
C16 C 0.2551(3) 0.7680(5) 0.8113(2)
C17 C 0.2903(4) 0.6251(7) 0.8818(2)
H18 H 0.3643 0.6593 0.9028
H19 H 0.2890 0.4860 0.8604
H20 H 0.2404 0.6370 0.9281
C18 C 0.4497(3) 0.7598(7) 0.3392(2)
H21 H 0.4523 0.7884 0.2785
H22 H 0.4859 0.6305 0.3519
H23 H 0.4871 0.8679 0.3715
C19 C 0.2731(3) 0.9480(5) 0.3425(2)
H24 H 0.2907 0.9910 0.2855
H25 H 0.2975 1.0512 0.3836
H26 H 0.1941 0.9299 0.3447
C20 C 0.0610(4) 0.4451(10) 0.5356(3)
H27 H 0.0180 0.4443 0.4840
H28 H 0.0349 0.3812 0.5845
C21 C 0.2034(2) 0.4518(5) 0.18655(18)
H29 H 0.1622 0.3581 0.2229
C22 C 0.1313(2) 0.5200(5) 0.11092(17)
H30 H 0.1711 0.6195 0.0762
C23 C 0.0996(2) 0.3344(4) 0.05741(17)
H31 H 0.0527 0.2443 0.0911
C24 C 0.1991(2) 0.2159(4) 0.03274(17)
H32 H 0.2407 0.2955 -0.0087
C25 C 0.2722(3) 0.1691(5) 0.1112(2)
H33 H 0.2334 0.0741 0.1486
C26 C 0.3800(3) 0.0758(6) 0.0892(2)
H34 H 0.4252 0.0532 0.1419
H35 H 0.3664 -0.0571 0.0620
O1 O 0.4385(2) 0.2027(5) 0.03317(19)
H36 H 0.4565 0.3106 0.0582
O2 O 0.16526(16) 0.0277(3) -0.00417(13)
H37 H 0.1868 0.0202 -0.0537
O3 O 0.04021(16) 0.3918(3) -0.01840(12)
H38 H -0.0192 0.4442 -0.0062
O4 O 0.29778(17) 0.3522(3) 0.15726(13)
O5 O 0.03744(17) 0.6115(3) 0.14296(13)
H39 H 0.0078 0.6864 0.1056
O6 O 0.23961(18) 0.6189(3) 0.23356(13)
O7 O 0.37881(18) 0.4994(4) 0.47314(14)
H40 H 0.4348 0.5223 0.5042
O8 O 0.45353(18) 0.7593(4) 0.57402(15)
H41 H 0.5108 0.8226 0.5643
O9 O 0.2593(2) 0.9717(4) 0.84628(15)
H42 H 0.323(3) 1.00(2) 0.854(8)
O10 O 0.4896(3) 0.0503(5) 0.8825(2)
H43 H 0.553(5) 0.067(9) 0.862(3)
H44 H 0.472(4) 0.126(8) 0.922(3)
loop_
_geom_bond_atom_site_label_1
_geom_bond_atom_site_label_2
_geom_bond_site_symmetry_1
_geom_bond_site_symmetry_2
C1 H1 1_555 1_555
C2 C1 1_555 1_555
H2 C2 1_555 1_555
H3 C2 1_555 1_555
C3 C2 1_555 1_555
H4 C3 1_555 1_555
C4 C3 1_555 1_555
C5 C1 1_555 1_555
C6 C5 1_555 1_555
H5 C6 1_555 1_555
C7 C6 1_555 1_555
H6 C7 1_555 1_555
H7 C7 1_555 1_555
C8 C7 1_555 1_555
C9 C8 1_555 1_555
H8 C9 1_555 1_555
C10 C1 1_555 1_555
C11 C9 1_555 1_555
H9 C11 1_555 1_555
H10 C11 1_555 1_555
C12 C11 1_555 1_555
H11 C12 1_555 1_555
H12 C12 1_555 1_555
C13 C12 1_555 1_555
H13 C13 1_555 1_555
C14 C8 1_555 1_555
H14 C14 1_555 1_555
H15 C14 1_555 1_555
C15 C8 1_555 1_555
H16 C15 1_555 1_555
H17 C15 1_555 1_555
C16 C13 1_555 1_555
C17 C16 1_555 1_555
H18 C17 1_555 1_555
H19 C17 1_555 1_555
H20 C17 1_555 1_555
C18 C4 1_555 1_555
H21 C18 1_555 1_555
H22 C18 1_555 1_555
H23 C18 1_555 1_555
C19 C4 1_555 1_555
H24 C19 1_555 1_555
H25 C19 1_555 1_555
H26 C19 1_555 1_555
C20 C10 1_555 1_555
H27 C20 1_555 1_555
H28 C20 1_555 1_555
C21 H29 1_555 1_555
C22 C21 1_555 1_555
H30 C22 1_555 1_555
C23 C22 1_555 1_555
H31 C23 1_555 1_555
C24 C23 1_555 1_555
H32 C24 1_555 1_555
C25 C24 1_555 1_555
H33 C25 1_555 1_555
C26 C25 1_555 1_555
H34 C26 1_555 1_555
H35 C26 1_555 1_555
O1 C26 1_555 1_555
H36 O1 1_555 1_555
O2 C24 1_555 1_555
H37 O2 1_555 1_555
O3 C23 1_555 1_555
H38 O3 1_555 1_555
O4 C21 1_555 1_555
O5 C22 1_555 1_555
H39 O5 1_555 1_555
O6 C3 1_555 1_555
O7 C5 1_555 1_555
H40 O7 1_555 1_555
O8 C6 1_555 1_555
H41 O8 1_555 1_555
O9 C16 1_555 1_555
H42 O9 1_555 1_555
O10 H43 1_555 1_555
H44 O10 1_555 1_555
C4 C5 1_555 1_555
C9 C10 1_555 1_555
C13 C14 1_555 1_555
C15 C16 1_555 1_555
C21 O6 1_555 1_555
C25 O4 1_555 1_555

#END
