
#######################################################################
#
#                 Cambridge Crystallographic Data Centre
#                                CCDC 
#
#######################################################################
#
# If this CIF has been generated from an entry in the Cambridge 
# Structural Database, then it will include bibliographic, chemical, 
# crystal, experimental, refinement or atomic coordinate data resulting 
# from the CCDC's data processing and validation procedures.
#
#######################################################################

data_ZIYREH
_chemical_compound_source        'Cryptomeria fortunei'
_chemical_formula_moiety         'C20 H26 O5'
_chemical_name_systematic        
'2-((3-(2-hydroxypropan-2-yl)-6-methyl-1-oxo-1,3,4,5-tetrahydro-2-benzoxepin-9-yl)methylene)-3-methylbutanoic acid unknown solvate'
_symmetry_cell_setting           triclinic
_symmetry_space_group_name_H-M   'P -1'
_symmetry_Int_Tables_number      2
_space_group_name_Hall           '-P 1'
loop_
_symmetry_equiv_pos_site_id
_symmetry_equiv_pos_as_xyz
1 x,y,z
2 -x,-y,-z
_cell_length_a                   12.8671(3)
_cell_length_b                   14.1050(3)
_cell_length_c                   15.2457(3)
_cell_angle_alpha                64.1960(10)
_cell_angle_beta                 89.7430(10)
_cell_angle_gamma                63.3900(10)
_cell_volume                     2163.92
_exptl_crystal_colour            white
_exptl_crystal_description       needle
_cell_formula_units_Z            4
loop_
_atom_site_label
_atom_site_type_symbol
_atom_site_fract_x
_atom_site_fract_y
_atom_site_fract_z
O1 O 0.47153(12) 0.67002(12) 0.14285(10)
O2 O 0.48663(13) 0.49445(13) 0.32283(11)
H1 H 0.4359 0.5241 0.2724
O3 O 0.30086(12) 0.82247(12) 0.04025(10)
O4 O 0.22639(15) 0.86856(17) 0.39741(12)
O5 O 0.36501(13) 0.76574(14) 0.33748(11)
H2 H 0.4070 0.7353 0.3930
C1 C 0.0813(3) 0.7774(3) 0.2942(2)
H3 H 0.1191 0.7358 0.2574
H4 H 0.0075 0.7769 0.3023
H5 H 0.1332 0.7372 0.3589
C2 C 0.05581(19) 0.9087(2) 0.23649(17)
H6 H 0.0162 0.9493 0.2749
C3 C 0.17317(18) 0.90868(18) 0.23036(15)
C4 C 0.20576(18) 0.95625(18) 0.14562(15)
H7 H 0.1515 0.9936 0.0853
C5 C 0.32198(18) 0.95385(17) 0.14064(14)
C6 C 0.41456(18) 0.87043(17) 0.11969(14)
C7 C 0.39132(18) 0.78744(17) 0.09840(14)
C8 C 0.56775(18) 0.61970(18) 0.22837(15)
H8 H 0.5363 0.6643 0.2655
C9 C 0.59571(19) 0.48876(18) 0.29526(16)
C10 C 0.6392(2) 0.4117(2) 0.24351(19)
H9 H 0.6517 0.3320 0.2878
H10 H 0.7130 0.4059 0.2266
H11 H 0.5802 0.4485 0.1835
C11 C 0.25683(19) 0.84768(19) 0.32965(16)
C12 C -0.0288(2) 0.9757(3) 0.13439(18)
H12 H -0.0486 1.0592 0.1017
H13 H -0.1005 0.9708 0.1429
H14 H 0.0093 0.9395 0.0942
C13 C 0.3457(2) 1.03034(18) 0.16103(15)
H15 H 0.2867 1.0866 0.1754
C14 C 0.4571(2) 1.02299(19) 0.16004(15)
H16 H 0.4700 1.0764 0.1723
C15 C 0.54936(19) 0.93954(18) 0.14150(14)
C16 C 0.52735(18) 0.86176(18) 0.12027(14)
C17 C 0.62294(19) 0.76546(19) 0.10143(16)
H17 H 0.6889 0.7815 0.0889
H18 H 0.5904 0.7692 0.0420
C18 C 0.66968(18) 0.63841(19) 0.19002(16)
H19 H 0.7157 0.5787 0.1694
H20 H 0.7223 0.6266 0.2436
C19 C 0.6707(2) 0.9311(2) 0.14760(18)
H21 H 0.6693 0.9878 0.1670
H22 H 0.6897 0.9496 0.0833
H23 H 0.7301 0.8504 0.1964
C20 C 0.6832(2) 0.4334(2) 0.39257(17)
H24 H 0.6507 0.4824 0.4245
H25 H 0.7575 0.4295 0.3787
H26 H 0.6970 0.3531 0.4362
O6 O 0.34519(13) 0.21887(13) 0.39873(11)
O7 O 0.46360(14) 0.35009(13) 0.50191(10)
H27 H 0.4671 0.3977 0.4481
O8 O 0.25550(16) 0.19758(17) 0.29125(13)
O9 O 0.30256(15) 0.54283(15) 0.18054(12)
O10 O 0.21512(15) 0.68997(14) 0.02286(12)
H28 H 0.2528 0.7170 0.0376
C21 C -0.0260(3) 0.6919(4) 0.0736(4)
H29 H -0.0113 0.6432 0.1447
H30 H -0.1103 0.7353 0.0443
H31 H 0.0019 0.7486 0.0600
C22 C 0.0388(3) 0.6123(3) 0.0295(3)
H32 H 0.0051 0.5588 0.0419
C23 C 0.1717(2) 0.5311(2) 0.07993(19)
C24 C 0.2291(2) 0.4146(2) 0.10566(18)
H33 H 0.1836 0.3812 0.0988
C25 C 0.3592(2) 0.3339(2) 0.14420(17)
C26 C 0.41055(19) 0.24317(19) 0.24329(16)
C27 C 0.33072(19) 0.21884(19) 0.31155(17)
C28 C 0.42896(18) 0.25489(19) 0.41742(15)
H34 H 0.4256 0.3179 0.3531
C29 C 0.3811(2) 0.3135(2) 0.48430(16)
C30 C 0.3810(3) 0.2243(3) 0.58735(18)
H35 H 0.4612 0.1590 0.6217
H36 H 0.3315 0.1926 0.5795
H37 H 0.3501 0.2653 0.6257
C31 C 0.2582(2) 0.4241(2) 0.43055(19)
H38 H 0.2300 0.4609 0.4722
H39 H 0.2039 0.4002 0.4166
H40 H 0.2628 0.4812 0.3688
C32 C 0.0154(3) 0.6876(3) -0.0853(3)
H41 H -0.0692 0.7362 -0.1139
H42 H 0.0513 0.6341 -0.1129
H43 H 0.0497 0.7394 -0.1005
C33 C 0.23742(19) 0.5863(2) 0.10096(16)
C34 C 0.4360(3) 0.3501(2) 0.08221(19)
H44 H 0.4046 0.4100 0.0153
C35 C 0.5587(3) 0.2779(3) 0.1189(2)
H45 H 0.6080 0.2894 0.0754
C36 C 0.6105(2) 0.1894(2) 0.2180(2)
C37 C 0.5348(2) 0.1714(2) 0.28300(18)
C38 C 0.5802(2) 0.0833(2) 0.39279(19)
H46 H 0.6658 0.0302 0.4073
H47 H 0.5423 0.0337 0.4112
C39 C 0.5548(2) 0.1483(2) 0.45610(17)
H48 H 0.5654 0.0916 0.5253
H49 H 0.6115 0.1765 0.4541
C40 C 0.7441(2) 0.1164(3) 0.2538(3)
H50 H 0.7795 0.1467 0.2004
H51 H 0.7700 0.0330 0.2742
H52 H 0.7683 0.1226 0.3096
loop_
_geom_bond_atom_site_label_1
_geom_bond_atom_site_label_2
_geom_bond_site_symmetry_1
_geom_bond_site_symmetry_2
O1 C7 1_555 1_555
O2 H1 1_555 1_555
O3 C7 1_555 1_555
O4 C11 1_555 1_555
O5 H2 1_555 1_555
C1 H3 1_555 1_555
H4 C1 1_555 1_555
H5 C1 1_555 1_555
C2 C1 1_555 1_555
H6 C2 1_555 1_555
C3 C2 1_555 1_555
C4 C3 1_555 1_555
H7 C4 1_555 1_555
C5 C4 1_555 1_555
C6 C5 1_555 1_555
C7 C6 1_555 1_555
C8 O1 1_555 1_555
H8 C8 1_555 1_555
C9 O2 1_555 1_555
C10 C9 1_555 1_555
H9 C10 1_555 1_555
H10 C10 1_555 1_555
H11 C10 1_555 1_555
C11 O5 1_555 1_555
C12 C2 1_555 1_555
H12 C12 1_555 1_555
H13 C12 1_555 1_555
H14 C12 1_555 1_555
C13 C5 1_555 1_555
H15 C13 1_555 1_555
C14 C13 1_555 1_555
H16 C14 1_555 1_555
C15 C14 1_555 1_555
C16 C6 1_555 1_555
C17 C16 1_555 1_555
H17 C17 1_555 1_555
H18 C17 1_555 1_555
C18 C8 1_555 1_555
H19 C18 1_555 1_555
H20 C18 1_555 1_555
C19 C15 1_555 1_555
H21 C19 1_555 1_555
H22 C19 1_555 1_555
H23 C19 1_555 1_555
C20 C9 1_555 1_555
H24 C20 1_555 1_555
H25 C20 1_555 1_555
H26 C20 1_555 1_555
O6 C27 1_555 1_555
O7 H27 1_555 1_555
O8 C27 1_555 1_555
O9 C33 1_555 1_555
O10 H28 1_555 1_555
C21 H29 1_555 1_555
H30 C21 1_555 1_555
H31 C21 1_555 1_555
C22 C21 1_555 1_555
H32 C22 1_555 1_555
C23 C22 1_555 1_555
C24 C23 1_555 1_555
H33 C24 1_555 1_555
C25 C24 1_555 1_555
C26 C25 1_555 1_555
C27 C26 1_555 1_555
C28 O6 1_555 1_555
H34 C28 1_555 1_555
C29 O7 1_555 1_555
C30 C29 1_555 1_555
H35 C30 1_555 1_555
H36 C30 1_555 1_555
H37 C30 1_555 1_555
C31 C29 1_555 1_555
H38 C31 1_555 1_555
H39 C31 1_555 1_555
H40 C31 1_555 1_555
C32 C22 1_555 1_555
H41 C32 1_555 1_555
H42 C32 1_555 1_555
H43 C32 1_555 1_555
C33 O10 1_555 1_555
C34 C25 1_555 1_555
H44 C34 1_555 1_555
C35 C34 1_555 1_555
H45 C35 1_555 1_555
C36 C35 1_555 1_555
C37 C26 1_555 1_555
C38 C37 1_555 1_555
H46 C38 1_555 1_555
H47 C38 1_555 1_555
C39 C28 1_555 1_555
H48 C39 1_555 1_555
H49 C39 1_555 1_555
C40 C36 1_555 1_555
H50 C40 1_555 1_555
H51 C40 1_555 1_555
H52 C40 1_555 1_555
C3 C11 1_555 1_555
C8 C9 1_555 1_555
C15 C16 1_555 1_555
C17 C18 1_555 1_555
C23 C33 1_555 1_555
C28 C29 1_555 1_555
C36 C37 1_555 1_555
C38 C39 1_555 1_555

#END
