
#######################################################################
#
#                 Cambridge Crystallographic Data Centre
#                                CCDC 
#
#######################################################################
#
# If this CIF has been generated from an entry in the Cambridge 
# Structural Database, then it will include bibliographic, chemical, 
# crystal, experimental, refinement or atomic coordinate data resulting 
# from the CCDC's data processing and validation procedures.
#
#######################################################################

data_ZIYTUZ
_chemical_formula_moiety         'C19 H17 N1 O4'
_chemical_name_systematic        
1-benzyl-3-hydroxy-3-(3-oxooxolan-2-yl)-1,3-dihydro-2H-indol-2-one
_symmetry_cell_setting           monoclinic
_symmetry_space_group_name_H-M   'P 21/c'
_symmetry_Int_Tables_number      14
_space_group_name_Hall           '-P 2ybc'
loop_
_symmetry_equiv_pos_site_id
_symmetry_equiv_pos_as_xyz
1 x,y,z
2 -x,1/2+y,1/2-z
3 -x,-y,-z
4 x,1/2-y,1/2+z
_cell_length_a                   10.5989(3)
_cell_length_b                   14.4384(3)
_cell_length_c                   11.1169(3)
_cell_angle_alpha                90
_cell_angle_beta                 116.586(3)
_cell_angle_gamma                90
_cell_volume                     1521.35
_exptl_crystal_colour            colorless
_exptl_crystal_description       block
_cell_formula_units_Z            4
loop_
_atom_site_label
_atom_site_type_symbol
_atom_site_fract_x
_atom_site_fract_y
_atom_site_fract_z
O1 O 0.06152(9) 0.13820(6) 0.08493(8)
O2 O 0.33781(9) 0.01955(6) 0.25185(9)
O3 O -0.02820(9) -0.04695(6) 0.14509(9)
H1 H -0.026254 -0.070930 0.077099
O4 O 0.20427(10) -0.20649(6) 0.22430(10)
N1 N 0.13218(10) 0.14835(7) 0.31261(10)
C1 C 0.09425(11) 0.10250(8) 0.19537(12)
C2 C 0.10175(12) -0.00308(8) 0.22380(12)
C3 C 0.27347(13) -0.13648(9) 0.25369(12)
C4 C 0.15795(11) 0.08594(9) 0.41936(12)
C5 C 0.30130(13) 0.27865(8) 0.38974(12)
C6 C 0.19893(12) 0.03346(9) 0.63589(12)
H2 H 0.219194 0.045734 0.726699
C7 C 0.42637(13) -0.12407(9) 0.35422(13)
H3 H 0.436752 -0.118316 0.446950
H4 H 0.484847 -0.176407 0.350453
C8 C 0.17946(13) -0.05745(9) 0.59045(13)
H5 H 0.186765 -0.106458 0.650246
C9 C 0.14917(12) -0.07725(9) 0.45716(12)
H6 H 0.135941 -0.139368 0.425676
C10 C 0.13881(11) -0.00466(8) 0.37197(12)
C11 C 0.14779(13) 0.24876(8) 0.32839(12)
H7 H 0.105137 0.270207 0.386555
H8 H 0.096051 0.278533 0.239305
C12 C 0.53299(14) 0.26898(10) 0.39849(14)
H9 H 0.594670 0.242743 0.366705
C13 C 0.39279(13) 0.24129(9) 0.34315(12)
H10 H 0.358866 0.196590 0.273041
C14 C 0.35254(14) 0.34450(9) 0.49189(13)
H11 H 0.291338 0.370477 0.524437
C15 C 0.49279(15) 0.37252(10) 0.54661(14)
H12 H 0.526786 0.417643 0.616140
C16 C 0.18938(12) 0.10724(9) 0.55104(12)
H13 H 0.203839 0.169383 0.582421
C17 C 0.22008(12) -0.04125(8) 0.19247(12)
H14 H 0.186491 -0.043689 0.092923
C18 C 0.46577(13) -0.03490(9) 0.30814(13)
H15 H 0.541281 -0.002193 0.384867
H16 H 0.498955 -0.047399 0.239429
C19 C 0.58333(14) 0.33492(10) 0.50020(14)
H17 H 0.679111 0.354139 0.537727
loop_
_geom_bond_atom_site_label_1
_geom_bond_atom_site_label_2
_geom_bond_site_symmetry_1
_geom_bond_site_symmetry_2
O1 C1 1_555 1_555
O2 C17 1_555 1_555
O3 H1 1_555 1_555
O4 C3 1_555 1_555
N1 C1 1_555 1_555
C1 C2 1_555 1_555
C2 O3 1_555 1_555
C3 C7 1_555 1_555
C4 N1 1_555 1_555
C5 C11 1_555 1_555
C6 H2 1_555 1_555
C7 H3 1_555 1_555
H4 C7 1_555 1_555
C8 C6 1_555 1_555
H5 C8 1_555 1_555
C9 C8 1_555 1_555
H6 C9 1_555 1_555
C10 C2 1_555 1_555
C11 N1 1_555 1_555
H7 C11 1_555 1_555
H8 C11 1_555 1_555
C12 H9 1_555 1_555
C13 C5 1_555 1_555
H10 C13 1_555 1_555
C14 C5 1_555 1_555
H11 C14 1_555 1_555
C15 C14 1_555 1_555
H12 C15 1_555 1_555
C16 C4 1_555 1_555
H13 C16 1_555 1_555
C17 C2 1_555 1_555
H14 C17 1_555 1_555
C18 O2 1_555 1_555
H15 C18 1_555 1_555
H16 C18 1_555 1_555
C19 C12 1_555 1_555
H17 C19 1_555 1_555
C3 C17 1_555 1_555
C4 C10 1_555 1_555
C6 C16 1_555 1_555
C7 C18 1_555 1_555
C9 C10 1_555 1_555
C12 C13 1_555 1_555
C15 C19 1_555 1_555

#END
