
#######################################################################
#
#                 Cambridge Crystallographic Data Centre
#                                CCDC 
#
#######################################################################
#
# If this CIF has been generated from an entry in the Cambridge 
# Structural Database, then it will include bibliographic, chemical, 
# crystal, experimental, refinement or atomic coordinate data resulting 
# from the CCDC's data processing and validation procedures.
#
#######################################################################

data_ZIYXAG
_chemical_name_common            'Terbutaline hemisulfate acetic acid solvate'
_chemical_formula_moiety         '2(C12 H20 N1 O3 1+),O4 S1 2-,2(C2 H4 O2)'
_chemical_name_systematic        
'2-t-Butylammonio-1-(3,5-dihydroxyphenyl)ethanol sulfate acetic acid solvate'
_symmetry_cell_setting           orthorhombic
_symmetry_space_group_name_H-M   'P b c a'
_symmetry_Int_Tables_number      61
_space_group_name_Hall           '-P 2ac 2ab'
loop_
_symmetry_equiv_pos_site_id
_symmetry_equiv_pos_as_xyz
1 x,y,z
2 1/2-x,-y,1/2+z
3 1/2+x,1/2-y,-z
4 -x,1/2+y,1/2-z
5 -x,-y,-z
6 1/2+x,y,1/2-z
7 1/2-x,1/2+y,z
8 x,1/2-y,1/2+z
_cell_length_a                   16.560(8)
_cell_length_b                   21.74(1)
_cell_length_c                   19.44(1)
_cell_angle_alpha                90
_cell_angle_beta                 90
_cell_angle_gamma                90
_cell_volume                     6998.68
_exptl_crystal_colour            colorless
_exptl_crystal_description       prism
_cell_formula_units_Z            8
loop_
_atom_site_label
_atom_site_type_symbol
_atom_site_fract_x
_atom_site_fract_y
_atom_site_fract_z
C1 C 0.9253(3) 0.1387(2) 0.8519(3)
H1 H 0.9584(3) 0.1110(2) 0.8750(3)
C2 C 0.9553(2) 0.1959(3) 0.8326(3)
C3 C 0.9059(3) 0.2374(2) 0.7981(3)
H2 H 0.9260(4) 0.2756(2) 0.7851(4)
C4 C 0.8265(3) 0.2217(2) 0.7829(3)
C5 C 0.7965(2) 0.1645(3) 0.8022(3)
H3 H 0.7434(3) 0.1540(4) 0.7920(4)
C6 C 0.8459(3) 0.1231(2) 0.8367(3)
O1 O 1.0325(4) 0.2113(3) 0.8491(4)
H4 H 1.0419(4) 0.2463(3) 0.8357(4)
O2 O 0.8138(4) 0.0687(3) 0.8557(4)
H5 H 0.8482(4) 0.0481(3) 0.8755(4)
C7 C 0.7754(5) 0.2679(4) 0.7464(5)
H6 H 0.7202(5) 0.2519(4) 0.7430(5)
O3 O 0.7741(3) 0.3230(3) 0.7866(3)
H7 H 0.7462(3) 0.3489(3) 0.7672(3)
C8 C 0.8070(5) 0.2803(4) 0.6741(5)
H8 H 0.8640(5) 0.2905(4) 0.6765(5)
H9 H 0.8013(5) 0.2434(4) 0.6465(5)
N1 N 0.7623(4) 0.3319(3) 0.6405(3)
H10 H 0.7760(4) 0.3669(3) 0.6623(3)
H11 H 0.7093(4) 0.3259(3) 0.6479(3)
C9 C 0.7742(6) 0.3423(5) 0.5634(5)
C10 C 0.7369(8) 0.2890(5) 0.5254(5)
H12 H 0.7651(8) 0.2518(5) 0.5369(5)
H13 H 0.7407(8) 0.2961(5) 0.4767(5)
H14 H 0.6812(8) 0.2852(5) 0.5382(5)
C11 C 0.7331(9) 0.4028(6) 0.5480(6)
H15 H 0.7590(9) 0.4351(6) 0.5734(6)
H16 H 0.6773(9) 0.4004(6) 0.5610(6)
H17 H 0.7369(9) 0.4113(6) 0.4996(6)
C12 C 0.8644(8) 0.3469(6) 0.5482(5)
H18 H 0.8869(8) 0.3810(6) 0.5730(5)
H19 H 0.8723(8) 0.3529(6) 0.4997(5)
H20 H 0.8907(8) 0.3096(6) 0.5623(5)
C13 C 0.7133(3) 0.6051(2) 0.6324(3)
H21 H 0.6797(3) 0.6321(2) 0.6088(3)
C14 C 0.6824(2) 0.5505(3) 0.6585(3)
C15 C 0.7326(3) 0.5101(2) 0.6938(3)
H22 H 0.7119(4) 0.4735(2) 0.7113(4)
C16 C 0.8137(3) 0.5243(2) 0.7028(3)
C17 C 0.8446(2) 0.5790(3) 0.6767(3)
H23 H 0.8989(3) 0.5885(4) 0.6827(4)
C18 C 0.7944(3) 0.6194(2) 0.6414(3)
O4 O 0.6023(3) 0.5395(3) 0.6481(3)
H24 H 0.5901(3) 0.5064(3) 0.6654(3)
O5 O 0.8197(4) 0.6736(3) 0.6151(3)
H25 H 0.8679(4) 0.6782(3) 0.6234(3)
C19 C 0.8681(5) 0.4805(4) 0.7390(5)
H26 H 0.9229(5) 0.4974(4) 0.7403(5)
O6 O 0.8687(3) 0.4238(3) 0.7013(3)
H27 H 0.8985(3) 0.3991(3) 0.7206(3)
C20 C 0.8382(5) 0.4715(4) 0.8112(5)
H28 H 0.8478(5) 0.5088(4) 0.8374(5)
H29 H 0.7804(5) 0.4642(4) 0.8102(5)
N2 N 0.8791(4) 0.4187(3) 0.8460(4)
H30 H 0.9322(4) 0.4211(3) 0.8363(4)
H31 H 0.8607(4) 0.3839(3) 0.8265(4)
C21 C 0.8708(6) 0.4116(5) 0.9238(5)
C22 C 0.9137(7) 0.4648(6) 0.9575(5)
H32 H 0.8869(7) 0.5025(6) 0.9457(5)
H33 H 0.9686(7) 0.4662(6) 0.9417(5)
H34 H 0.9130(7) 0.4595(6) 1.0065(5)
C23 C 0.9105(7) 0.3506(5) 0.9405(5)
H35 H 0.8815(7) 0.3180(5) 0.9182(5)
H36 H 0.9097(7) 0.3442(5) 0.9894(5)
H37 H 0.9653(7) 0.3509(5) 0.9245(5)
C24 C 0.7799(6) 0.4096(6) 0.9401(5)
H38 H 0.7559(6) 0.3749(6) 0.9174(5)
H39 H 0.7548(6) 0.4467(6) 0.9242(5)
H40 H 0.7724(6) 0.4058(6) 0.9889(5)
C25 C 0.4218(8) 0.7211(7) 0.6480(9)
H41 H 0.4500(8) 0.7569(7) 0.6318(9)
H42 H 0.4052(8) 0.7275(7) 0.6949(9)
H43 H 0.3750(8) 0.7142(7) 0.6199(9)
C26 C 0.4775(10) 0.6652(13) 0.6441(10)
O7 O 0.5420(7) 0.6855(6) 0.6141(6)
H44 H 0.5365(7) 0.7221(6) 0.6053(6)
O8 O 0.4616(16) 0.6202(6) 0.6567(12)
C27 C 0.0731(8) 0.4328(6) 0.4939(7)
H45 H 0.0742(8) 0.3902(6) 0.4811(7)
H46 H 0.1193(8) 0.4533(6) 0.4750(7)
H47 H 0.0247(8) 0.4515(6) 0.4764(7)
C28 C 0.0745(7) 0.4379(7) 0.5680(7)
O9 O 0.0737(6) 0.3841(4) 0.5970(5)
H48 H 0.0746(6) 0.3882(4) 0.6390(5)
O10 O 0.0738(6) 0.4839(5) 0.6020(6)
S1 S 0.0711(2) 0.37405(13) 0.77706(15)
O11 O 0.0476(3) 0.4267(3) 0.8202(4)
O12 O 0.1405(4) 0.3913(3) 0.7342(3)
O13 O 0.0944(3) 0.3219(3) 0.8210(3)
O14 O 0.0024(4) 0.3567(3) 0.7339(3)
loop_
_geom_bond_atom_site_label_1
_geom_bond_atom_site_label_2
_geom_bond_site_symmetry_1
_geom_bond_site_symmetry_2
C1 H1 1_555 1_555
C2 C1 1_555 1_555
C3 C2 1_555 1_555
H2 C3 1_555 1_555
C4 C3 1_555 1_555
C5 C4 1_555 1_555
H3 C5 1_555 1_555
C6 C1 1_555 1_555
O1 C2 1_555 1_555
H4 O1 1_555 1_555
O2 C6 1_555 1_555
H5 O2 1_555 1_555
C7 C4 1_555 1_555
H6 C7 1_555 1_555
O3 C7 1_555 1_555
H7 O3 1_555 1_555
C8 C7 1_555 1_555
H8 C8 1_555 1_555
H9 C8 1_555 1_555
N1 C8 1_555 1_555
H10 N1 1_555 1_555
H11 N1 1_555 1_555
C9 N1 1_555 1_555
C10 C9 1_555 1_555
H12 C10 1_555 1_555
H13 C10 1_555 1_555
H14 C10 1_555 1_555
C11 C9 1_555 1_555
H15 C11 1_555 1_555
H16 C11 1_555 1_555
H17 C11 1_555 1_555
C12 C9 1_555 1_555
H18 C12 1_555 1_555
H19 C12 1_555 1_555
H20 C12 1_555 1_555
C13 H21 1_555 1_555
C14 C13 1_555 1_555
C15 C14 1_555 1_555
H22 C15 1_555 1_555
C16 C15 1_555 1_555
C17 C16 1_555 1_555
H23 C17 1_555 1_555
C18 C13 1_555 1_555
O4 C14 1_555 1_555
H24 O4 1_555 1_555
O5 C18 1_555 1_555
H25 O5 1_555 1_555
C19 C16 1_555 1_555
H26 C19 1_555 1_555
O6 C19 1_555 1_555
H27 O6 1_555 1_555
C20 C19 1_555 1_555
H28 C20 1_555 1_555
H29 C20 1_555 1_555
N2 C20 1_555 1_555
H30 N2 1_555 1_555
H31 N2 1_555 1_555
C21 N2 1_555 1_555
C22 C21 1_555 1_555
H32 C22 1_555 1_555
H33 C22 1_555 1_555
H34 C22 1_555 1_555
C23 C21 1_555 1_555
H35 C23 1_555 1_555
H36 C23 1_555 1_555
H37 C23 1_555 1_555
C24 C21 1_555 1_555
H38 C24 1_555 1_555
H39 C24 1_555 1_555
H40 C24 1_555 1_555
C25 H41 1_555 1_555
H42 C25 1_555 1_555
H43 C25 1_555 1_555
C26 C25 1_555 1_555
O7 C26 1_555 1_555
H44 O7 1_555 1_555
O8 C26 1_555 1_555
C27 H45 1_555 1_555
H46 C27 1_555 1_555
H47 C27 1_555 1_555
C28 C27 1_555 1_555
O9 C28 1_555 1_555
H48 O9 1_555 1_555
O10 C28 1_555 1_555
S1 O11 1_555 1_555
O12 S1 1_555 1_555
O13 S1 1_555 1_555
O14 S1 1_555 1_555
C5 C6 1_555 1_555
C17 C18 1_555 1_555

#END
