
#######################################################################
#
#                 Cambridge Crystallographic Data Centre
#                                CCDC 
#
#######################################################################
#
# If this CIF has been generated from an entry in the Cambridge 
# Structural Database, then it will include bibliographic, chemical, 
# crystal, experimental, refinement or atomic coordinate data resulting 
# from the CCDC's data processing and validation procedures.
#
#######################################################################

data_ZIYYUD
_chemical_formula_moiety         'C18 H20 N2 O8,C16 H12 N2'
_chemical_name_systematic        
'2,6-bis(2-(2-hydroxyethoxy)ethyl)pyrrolo[3,4-f]isoindole-1,3,5,7(2H,6H)-tetrone pyrene-1,6-diamine'
_symmetry_cell_setting           monoclinic
_symmetry_space_group_name_H-M   'P n'
_symmetry_Int_Tables_number      7
_space_group_name_Hall           'P -2yac'
loop_
_symmetry_equiv_pos_site_id
_symmetry_equiv_pos_as_xyz
1 x,y,z
2 1/2+x,-y,1/2+z
_cell_length_a                   6.9937(2)
_cell_length_b                   11.8675(2)
_cell_length_c                   17.5154(3)
_cell_angle_alpha                90
_cell_angle_beta                 100.8960(10)
_cell_angle_gamma                90
_cell_volume                     1427.53
_exptl_crystal_colour            'blackish green'
_exptl_crystal_description       prism
_cell_formula_units_Z            2
loop_
_atom_site_label
_atom_site_type_symbol
_atom_site_fract_x
_atom_site_fract_y
_atom_site_fract_z
C1 C 0.9784(9) 0.2032(4) 1.1686(3)
H1 H 1.0285 0.1378 1.1433
H2 H 0.9497 0.1785 1.2192
C2 C 1.1294(8) 0.2983(4) 1.1805(3)
H3 H 1.1512 0.3266 1.1297
H4 H 1.0831 0.3616 1.2090
C3 C 0.6502(9) 0.1682(5) 1.1099(3)
H5 H 0.6180 0.1481 1.1609
H6 H 0.6873 0.0985 1.0853
C4 C 0.4768(9) 0.2214(5) 1.0590(3)
H7 H 0.3593 0.1761 1.0616
H8 H 0.4568 0.2977 1.0789
C5 C 0.4606(9) 0.1403(5) 0.9270(3)
C6 C 0.5442(8) 0.3287(5) 0.9424(3)
C7 C 0.4812(8) 0.1853(4) 0.8476(3)
C8 C 0.5326(8) 0.2998(5) 0.8585(3)
C9 C 0.4581(8) 0.1327(4) 0.7782(3)
H9 H 0.4240 0.0553 0.7719
C10 C 0.5617(8) 0.3678(4) 0.7988(3)
H10 H 0.5953 0.4452 0.8059
C11 C 0.4880(8) 0.2008(5) 0.7162(3)
C12 C 0.5375(8) 0.3131(4) 0.7249(3)
C13 C 0.4763(8) 0.1714(4) 0.6324(3)
C14 C 0.5631(9) 0.3598(4) 0.6506(3)
C15 C 0.5429(9) 0.2825(5) 0.5161(3)
H11 H 0.5696 0.2073 0.4960
H12 H 0.6574 0.3308 0.5144
C16 C 0.3667(8) 0.3327(4) 0.4631(3)
H13 H 0.3263 0.4027 0.4863
H14 H 0.3998 0.3516 0.4121
C17 C 0.0385(8) 0.2965(4) 0.4058(3)
H15 H 0.0653 0.3219 0.3550
H16 H -0.0106 0.3615 0.4319
C18 C -0.1054(9) 0.2049(5) 0.3948(3)
H17 H -0.0565 0.1413 0.3674
H18 H -0.1261 0.1776 0.4460
N1 N 0.4995(8) 0.2301(4) 0.9775(3)
N2 N 0.5200(7) 0.2709(4) 0.5961(2)
O1 O 1.3044(7) 0.2536(3) 1.2240(3)
H19 H 1.396(6) 0.317(3) 1.233(2)
O2 O 0.8074(6) 0.2463(2) 1.1205(2)
O3 O 0.5828(6) 0.4183(3) 0.9745(2)
O4 O 0.4123(7) 0.0462(3) 0.9423(2)
O5 O 0.4381(6) 0.0815(3) 0.6012(2)
O6 O 0.6045(7) 0.4524(3) 0.6322(2)
O7 O 0.2106(6) 0.2525(3) 0.4528(2)
O8 O -0.2834(7) 0.2444(4) 0.3508(2)
H20 H -0.429(10) 0.210(5) 0.364(3)
C19 C 0.4326(10) 0.9271(5) 0.4384(3)
H21 H 0.4133 0.9746 0.4799
C20 C 0.4217(9) 0.9729(5) 0.3650(4)
C21 C 0.4705(9) 0.8156(5) 0.4528(3)
H22 H 0.4719 0.7868 0.5036
C22 C 0.4537(8) 0.9022(5) 0.3036(4)
C23 C 0.5085(9) 0.7401(5) 0.3926(3)
C24 C 0.4415(8) 0.9432(4) 0.2258(3)
H23 H 0.4138 1.0208 0.2162
C25 C 0.4961(9) 0.7890(5) 0.3146(4)
C26 C 0.5514(9) 0.6297(5) 0.4057(3)
H24 H 0.5585 0.6022 0.4571
C27 C 0.4670(9) 0.8778(5) 0.1654(3)
H25 H 0.4556 0.9106 0.1152
C28 C 0.5273(8) 0.7153(5) 0.2558(3)
C29 C 0.5854(9) 0.5548(6) 0.3505(3)
H26 H 0.6184 0.4786 0.3634
C30 C 0.5690(8) 0.5966(4) 0.2702(3)
C31 C 0.5999(8) 0.5284(4) 0.2095(3)
C32 C 0.5888(9) 0.5721(4) 0.1351(4)
H27 H 0.6117 0.5253 0.0938
C33 C 0.5425(9) 0.6880(5) 0.1221(3)
H28 H 0.5331 0.7172 0.0711
C34 C 0.5131(8) 0.7543(4) 0.1758(4)
N3 N 0.3912(8) 1.0903(4) 0.3526(3)
H29 H 0.343(9) 1.133(5) 0.398(3)
N4 N 0.6298(8) 0.4108(4) 0.2214(3)
H30 H 0.682(12) 0.390(3) 0.272(5)
H31 H 0.720(9) 0.388(4) 0.188(3)
H32 H 0.339(12) 1.107(3) 0.308(5)
loop_
_geom_bond_atom_site_label_1
_geom_bond_atom_site_label_2
_geom_bond_site_symmetry_1
_geom_bond_site_symmetry_2
C1 H1 1_555 1_555
H2 C1 1_555 1_555
C2 C1 1_555 1_555
H3 C2 1_555 1_555
H4 C2 1_555 1_555
C3 H5 1_555 1_555
H6 C3 1_555 1_555
C4 C3 1_555 1_555
H7 C4 1_555 1_555
H8 C4 1_555 1_555
C5 C7 1_555 1_555
C6 C8 1_555 1_555
C7 C8 1_555 1_555
C8 C10 1_555 1_555
C9 C7 1_555 1_555
H9 C9 1_555 1_555
C10 H10 1_555 1_555
C11 C9 1_555 1_555
C12 C10 1_555 1_555
C13 C11 1_555 1_555
C14 C12 1_555 1_555
C15 H11 1_555 1_555
H12 C15 1_555 1_555
C16 C15 1_555 1_555
H13 C16 1_555 1_555
H14 C16 1_555 1_555
C17 H15 1_555 1_555
H16 C17 1_555 1_555
C18 C17 1_555 1_555
H17 C18 1_555 1_555
H18 C18 1_555 1_555
N1 C4 1_555 1_555
N2 C13 1_555 1_555
O1 C2 1_555 1_555
H19 O1 1_555 1_555
O2 C1 1_555 1_555
O3 C6 1_555 1_555
O4 C5 1_555 1_555
O5 C13 1_555 1_555
O6 C14 1_555 1_555
O7 C16 1_555 1_555
O8 C18 1_555 1_555
H20 O8 1_555 1_555
C19 H21 1_555 1_555
C20 C19 1_555 1_555
C21 C19 1_555 1_555
H22 C21 1_555 1_555
C22 C20 1_555 1_555
C23 C21 1_555 1_555
C24 C22 1_555 1_555
H23 C24 1_555 1_555
C25 C22 1_555 1_555
C26 C23 1_555 1_555
H24 C26 1_555 1_555
C27 C24 1_555 1_555
H25 C27 1_555 1_555
C28 C25 1_555 1_555
C29 C26 1_555 1_555
H26 C29 1_555 1_555
C30 C28 1_555 1_555
C31 C30 1_555 1_555
C32 C31 1_555 1_555
H27 C32 1_555 1_555
C33 C32 1_555 1_555
H28 C33 1_555 1_555
C34 C27 1_555 1_555
N3 C20 1_555 1_555
H29 N3 1_555 1_555
N4 C31 1_555 1_555
H30 N4 1_555 1_555
H31 N4 1_555 1_555
H32 N3 1_555 1_555
C3 O2 1_555 1_555
C5 N1 1_555 1_555
C6 N1 1_555 1_555
C11 C12 1_555 1_555
C14 N2 1_555 1_555
C15 N2 1_555 1_555
C17 O7 1_555 1_555
C23 C25 1_555 1_555
C28 C34 1_555 1_555
C29 C30 1_555 1_555
C33 C34 1_555 1_555

#END
