
#######################################################################
#
#                 Cambridge Crystallographic Data Centre
#                                CCDC 
#
#######################################################################
#
# If this CIF has been generated from an entry in the Cambridge 
# Structural Database, then it will include bibliographic, chemical, 
# crystal, experimental, refinement or atomic coordinate data resulting 
# from the CCDC's data processing and validation procedures.
#
#######################################################################

data_ZIZBOC
_chemical_formula_moiety         'C20 H19 N1 O3'
_chemical_name_systematic        
'ethyl 1-(4-methoxyphenyl)-4-phenyl-1H-pyrrole-3-carboxylate'
_symmetry_cell_setting           monoclinic
_symmetry_space_group_name_H-M   'P 21/c'
_symmetry_Int_Tables_number      14
_space_group_name_Hall           '-P 2ybc'
loop_
_symmetry_equiv_pos_site_id
_symmetry_equiv_pos_as_xyz
1 x,y,z
2 -x,1/2+y,1/2-z
3 -x,-y,-z
4 x,1/2-y,1/2+z
_cell_length_a                   11.2714(5)
_cell_length_b                   21.3678(8)
_cell_length_c                   6.9767(2)
_cell_angle_alpha                90
_cell_angle_beta                 93.008(3)
_cell_angle_gamma                90
_cell_volume                     1677.99
_cell_formula_units_Z            4
loop_
_atom_site_label
_atom_site_type_symbol
_atom_site_fract_x
_atom_site_fract_y
_atom_site_fract_z
O1 O 0.59306(10) 0.04504(4) 0.76586(15)
N1 N 0.57416(10) 0.22926(5) 0.87855(15)
O2 O 0.91919(9) 0.41625(5) 0.89342(15)
O3 O 0.39472(10) 0.03579(5) 0.78463(15)
C1 C 0.40015(12) 0.17840(6) 0.89227(17)
C2 C 0.48345(13) 0.06810(6) 0.79129(18)
C3 C 0.45639(12) 0.23492(6) 0.92125(17)
H1 H 0.4207 0.2713 0.9631
C4 C 0.63054(13) 0.33695(6) 0.80783(18)
H2 H 0.5542 0.3442 0.7556
C5 C 0.65987(12) 0.27873(6) 0.88416(17)
C6 C 0.85814(13) 0.31461(7) 0.96394(19)
H3 H 0.9345 0.3072 1.0160
C7 C 0.71444(13) 0.38459(6) 0.80886(19)
H4 H 0.6944 0.4237 0.7587
C8 C 0.49011(13) 0.13572(6) 0.83017(17)
C9 C 0.77382(12) 0.26769(6) 0.96400(18)
H5 H 0.7931 0.2289 1.0172
C10 C 0.27258(12) 0.16893(6) 0.92393(18)
C11 C 0.22200(13) 0.19815(7) 1.0797(2)
H6 H 0.2699 0.2220 1.1642
C12 C 0.59458(13) 0.16917(6) 0.82465(18)
H7 H 0.6671 0.1532 0.7898
C13 C 0.82911(13) 0.37313(6) 0.88597(19)
C14 C 0.07749(14) 0.12878(7) 0.8282(2)
H8 H 0.0287 0.1058 0.7428
C15 C 0.10180(14) 0.19226(7) 1.1107(2)
H9 H 0.0699 0.2119 1.2151
C16 C 0.19764(14) 0.13459(7) 0.7973(2)
H10 H 0.2286 0.1154 0.6912
C17 C 0.90329(16) 0.47123(7) 0.7775(3)
H11 H 0.8867 0.4593 0.6462
H12 H 0.9744 0.4960 0.7872
H13 H 0.8381 0.4953 0.8216
C18 C 0.60284(16) -0.02148(7) 0.7290(2)
H14 H 0.5655 -0.0318 0.6047
H15 H 0.5644 -0.0453 0.8266
C19 C 0.02964(14) 0.15701(7) 0.9854(2)
H16 H -0.0506 0.1523 1.0068
C20 C 0.73316(18) -0.03615(8) 0.7334(3)
H17 H 0.7712 -0.0096 0.6442
H18 H 0.7441 -0.0791 0.6983
H19 H 0.7675 -0.0292 0.8604
loop_
_geom_bond_atom_site_label_1
_geom_bond_atom_site_label_2
_geom_bond_site_symmetry_1
_geom_bond_site_symmetry_2
O1 C2 1_555 1_555
N1 C3 1_555 1_555
O2 C13 1_555 1_555
O3 C2 1_555 1_555
C1 C3 1_555 1_555
C2 C8 1_555 1_555
C3 H1 1_555 1_555
C4 H2 1_555 1_555
C5 N1 1_555 1_555
C6 H3 1_555 1_555
C7 C4 1_555 1_555
H4 C7 1_555 1_555
C8 C1 1_555 1_555
C9 C5 1_555 1_555
H5 C9 1_555 1_555
C10 C1 1_555 1_555
C11 C10 1_555 1_555
H6 C11 1_555 1_555
C12 N1 1_555 1_555
H7 C12 1_555 1_555
C13 C6 1_555 1_555
C14 H8 1_555 1_555
C15 C11 1_555 1_555
H9 C15 1_555 1_555
C16 C10 1_555 1_555
H10 C16 1_555 1_555
C17 O2 1_555 1_555
H11 C17 1_555 1_555
H12 C17 1_555 1_555
H13 C17 1_555 1_555
C18 O1 1_555 1_555
H14 C18 1_555 1_555
H15 C18 1_555 1_555
C19 C14 1_555 1_555
H16 C19 1_555 1_555
C20 C18 1_555 1_555
H17 C20 1_555 1_555
H18 C20 1_555 1_555
H19 C20 1_555 1_555
C4 C5 1_555 1_555
C6 C9 1_555 1_555
C7 C13 1_555 1_555
C8 C12 1_555 1_555
C14 C16 1_555 1_555
C15 C19 1_555 1_555

#END
