
#######################################################################
#
#                 Cambridge Crystallographic Data Centre
#                                CCDC 
#
#######################################################################
#
# If this CIF has been generated from an entry in the Cambridge 
# Structural Database, then it will include bibliographic, chemical, 
# crystal, experimental, refinement or atomic coordinate data resulting 
# from the CCDC's data processing and validation procedures.
#
#######################################################################

data_ZIZDAP
_chemical_formula_moiety         'C12 H14 N4 O3 S1'
_chemical_name_systematic        
(2-((Ammoniocarbothioyl)carbohydrazonoyl)phenyl)(ethoxy(oxo)acetyl)azanide
_symmetry_cell_setting           monoclinic
_symmetry_space_group_name_H-M   'P 21/n'
_symmetry_Int_Tables_number      14
_space_group_name_Hall           '-P 2yn'
loop_
_symmetry_equiv_pos_site_id
_symmetry_equiv_pos_as_xyz
1 x,y,z
2 1/2-x,1/2+y,1/2-z
3 -x,-y,-z
4 1/2+x,1/2-y,1/2+z
_cell_length_a                   12.364(4)
_cell_length_b                   7.666(2)
_cell_length_c                   15.701(5)
_cell_angle_alpha                90
_cell_angle_beta                 105.983(5)
_cell_angle_gamma                90
_cell_volume                     1430.65
_exptl_crystal_colour            white
_exptl_crystal_description       block
_cell_formula_units_Z            4
loop_
_atom_site_label
_atom_site_type_symbol
_atom_site_fract_x
_atom_site_fract_y
_atom_site_fract_z
S1 S 1.02291(6) 0.88583(11) 1.13627(5)
N1 N 0.84327(19) 0.9356(3) 1.00152(14)
H1 H 0.7876 0.8667 0.9720
H2 H 0.8968 0.9388 0.9736
H3 H 0.8169 1.0428 1.0045
N2 N 0.81414(18) 0.8010(3) 1.12272(14)
H4 H 0.8395 0.7621 1.1759
N3 N 0.70077(18) 0.7869(3) 1.08061(14)
N4 N 0.50170(19) 0.8073(3) 0.94937(13)
O1 O 0.63890(18) 0.9310(3) 0.85787(13)
O2 O 0.49065(15) 0.9939(3) 0.74409(11)
O3 O 0.35950(17) 0.8068(3) 0.81874(12)
C1 C 0.8856(2) 0.8740(3) 1.08255(16)
C2 C 0.6424(2) 0.7075(4) 1.12399(17)
H5 H 0.6801 0.6650 1.1797
C3 C 0.5219(2) 0.6783(4) 1.09335(17)
C4 C 0.4734(3) 0.5956(4) 1.15227(19)
H6 H 0.5190 0.5611 1.2072
C5 C 0.3593(3) 0.5632(5) 1.1315(2)
H7 H 0.3286 0.5075 1.1721
C6 C 0.2924(3) 0.6134(5) 1.0512(2)
H8 H 0.2152 0.5945 1.0374
C7 C 0.3374(3) 0.6917(4) 0.9901(2)
H9 H 0.2905 0.7219 0.9349
C8 C 0.4514(2) 0.7264(4) 1.00961(17)
C9 C 0.4545(2) 0.8409(4) 0.86250(17)
C10 C 0.5402(3) 0.9276(4) 0.82223(17)
C11 C 0.5657(3) 1.0688(4) 0.69633(19)
H10 H 0.6213 0.9836 0.6908
H11 H 0.6045 1.1696 0.7277
C12 C 0.4947(4) 1.1204(5) 0.6076(2)
H12 H 0.4560 1.0198 0.5776
H13 H 0.5413 1.1689 0.5738
H14 H 0.4407 1.2059 0.6140
loop_
_geom_bond_atom_site_label_1
_geom_bond_atom_site_label_2
_geom_bond_site_symmetry_1
_geom_bond_site_symmetry_2
S1 C1 1_555 1_555
N1 H1 1_555 1_555
H2 N1 1_555 1_555
H3 N1 1_555 1_555
N2 H4 1_555 1_555
N3 N2 1_555 1_555
N4 C8 1_555 1_555
O1 C10 1_555 1_555
O2 C10 1_555 1_555
O3 C9 1_555 1_555
C1 N1 1_555 1_555
C2 N3 1_555 1_555
H5 C2 1_555 1_555
C3 C2 1_555 1_555
C4 C3 1_555 1_555
H6 C4 1_555 1_555
C5 C4 1_555 1_555
H7 C5 1_555 1_555
C6 C5 1_555 1_555
H8 C6 1_555 1_555
C7 C6 1_555 1_555
H9 C7 1_555 1_555
C8 C3 1_555 1_555
C9 N4 1_555 1_555
C10 C9 1_555 1_555
C11 O2 1_555 1_555
H10 C11 1_555 1_555
H11 C11 1_555 1_555
C12 C11 1_555 1_555
H12 C12 1_555 1_555
H13 C12 1_555 1_555
H14 C12 1_555 1_555
N2 C1 1_555 1_555
C7 C8 1_555 1_555

#END
