
#######################################################################
#
#                 Cambridge Crystallographic Data Centre
#                                CCDC 
#
#######################################################################
#
# If this CIF has been generated from an entry in the Cambridge 
# Structural Database, then it will include bibliographic, chemical, 
# crystal, experimental, refinement or atomic coordinate data resulting 
# from the CCDC's data processing and validation procedures.
#
#######################################################################

data_ZIZMED
_chemical_formula_moiety         'C29 H28 O6 S2'
_chemical_name_systematic        
'4-(1,3-dithian-2-yl)butane-1,2,3-triyl tribenzoate'
_symmetry_cell_setting           monoclinic
_symmetry_space_group_name_H-M   'P 21'
_symmetry_Int_Tables_number      4
_space_group_name_Hall           'P 2yb'
loop_
_symmetry_equiv_pos_site_id
_symmetry_equiv_pos_as_xyz
1 x,y,z
2 -x,1/2+y,-z
_cell_length_a                   5.6204(4)
_cell_length_b                   21.5493(12)
_cell_length_c                   10.8922(6)
_cell_angle_alpha                90
_cell_angle_beta                 98.449(2)
_cell_angle_gamma                90
_cell_volume                     1304.9
_exptl_crystal_colour            colorless
_exptl_crystal_description       prism
_cell_formula_units_Z            2
loop_
_atom_site_label
_atom_site_type_symbol
_atom_site_fract_x
_atom_site_fract_y
_atom_site_fract_z
C1 C 1.3994(5) 0.27519(11) 0.1941(2)
H1 H 1.3836 0.2453 0.1244
H2 H 1.5374 0.3026 0.1859
C2 C 0.7108(3) 0.56561(8) 0.17702(15)
H3 H 0.8595 0.5903 0.1775
H4 H 0.6594 0.5499 0.0919
C3 C 1.4539(5) 0.23961(10) 0.3144(2)
H5 H 1.5917 0.2116 0.3096
H6 H 1.3132 0.2136 0.3249
C4 C 1.5126(4) 0.28110(10) 0.4268(2)
H7 H 1.6505 0.3079 0.4150
H8 H 1.5632 0.2548 0.5006
C5 C 1.2048(3) 0.37267(8) 0.31299(14)
H9 H 1.3488 0.3981 0.3015
C6 C 0.9949(3) 0.41582(8) 0.32728(15)
H10 H 0.8444 0.3913 0.3127
H11 H 1.0147 0.4306 0.4143
C7 C 0.9649(3) 0.47203(8) 0.24250(14)
H12 H 1.1168 0.4969 0.2521
C8 C 1.0650(3) 0.45951(8) 0.03787(15)
C9 C 0.9757(3) 0.43648(8) -0.08872(14)
C10 C 0.7571(3) 0.40610(8) -0.11744(16)
H13 H 0.6589 0.3989 -0.0550
C11 C 0.6836(4) 0.38649(9) -0.23758(17)
H14 H 0.5337 0.3658 -0.2579
C12 C 0.8261(4) 0.39668(9) -0.32858(16)
H15 H 0.7741 0.3829 -0.4110
C13 C 1.0421(4) 0.42660(9) -0.30051(16)
H16 H 1.1396 0.4337 -0.3634
C14 C 1.1183(3) 0.44659(9) -0.18018(15)
H17 H 1.2684 0.4672 -0.1605
C15 C 0.7548(3) 0.51251(8) 0.26716(14)
H18 H 0.6060 0.4867 0.2629
C16 C 0.6547(3) 0.53225(7) 0.46974(14)
C17 C 0.7403(3) 0.55990(7) 0.59317(14)
C18 C 0.9586(3) 0.59048(8) 0.62142(15)
H19 H 1.0598 0.5956 0.5595
C19 C 1.0293(4) 0.61359(8) 0.73988(17)
H20 H 1.1792 0.6344 0.7592
C20 C 0.8823(4) 0.60652(9) 0.82995(16)
H21 H 0.9311 0.6225 0.9110
C21 C 0.6653(3) 0.57634(9) 0.80249(16)
H22 H 0.5644 0.5716 0.8646
C22 C 0.5934(3) 0.55282(8) 0.68465(15)
H23 H 0.4438 0.5318 0.6661
C23 C 0.4252(3) 0.64578(8) 0.13511(15)
C24 C 0.2365(3) 0.68215(8) 0.18469(15)
C25 C 0.1760(4) 0.67153(9) 0.30208(17)
H24 H 0.2595 0.6409 0.3545
C26 C -0.0055(4) 0.70547(9) 0.34232(19)
H25 H -0.0454 0.6987 0.4230
C27 C -0.1293(4) 0.74926(9) 0.26584(19)
H26 H -0.2571 0.7718 0.2931
C28 C -0.0683(4) 0.76047(9) 0.14971(19)
H27 H -0.1511 0.7915 0.0980
C29 C 0.1122(4) 0.72681(8) 0.10885(17)
H28 H 0.1522 0.7341 0.0283
O1 O 0.90160(19) 0.45178(5) 0.11508(9)
O2 O 1.2581(3) 0.48269(9) 0.06871(12)
O3 O 0.8192(2) 0.53702(5) 0.39166(10)
O4 O 0.4626(2) 0.50754(7) 0.44255(11)
O5 O 0.5248(2) 0.60302(5) 0.21654(10)
O6 O 0.4840(3) 0.65284(7) 0.03397(11)
S1 S 1.12908(10) 0.32191(3) 0.18066(4)
S2 S 1.26731(10) 0.32953(2) 0.45680(4)
loop_
_geom_bond_atom_site_label_1
_geom_bond_atom_site_label_2
_geom_bond_site_symmetry_1
_geom_bond_site_symmetry_2
C1 H1 1_555 1_555
H2 C1 1_555 1_555
C2 H3 1_555 1_555
H4 C2 1_555 1_555
C3 C1 1_555 1_555
H5 C3 1_555 1_555
H6 C3 1_555 1_555
C4 C3 1_555 1_555
H7 C4 1_555 1_555
H8 C4 1_555 1_555
C5 H9 1_555 1_555
C6 C5 1_555 1_555
H10 C6 1_555 1_555
H11 C6 1_555 1_555
C7 C6 1_555 1_555
H12 C7 1_555 1_555
C8 C9 1_555 1_555
C9 C10 1_555 1_555
C10 H13 1_555 1_555
C11 C10 1_555 1_555
H14 C11 1_555 1_555
C12 C11 1_555 1_555
H15 C12 1_555 1_555
C13 C12 1_555 1_555
H16 C13 1_555 1_555
C14 C9 1_555 1_555
H17 C14 1_555 1_555
C15 C2 1_555 1_555
H18 C15 1_555 1_555
C16 C17 1_555 1_555
C17 C18 1_555 1_555
C18 H19 1_555 1_555
C19 C18 1_555 1_555
H20 C19 1_555 1_555
C20 C19 1_555 1_555
H21 C20 1_555 1_555
C21 C20 1_555 1_555
H22 C21 1_555 1_555
C22 C17 1_555 1_555
H23 C22 1_555 1_555
C23 C24 1_555 1_555
C24 C25 1_555 1_555
C25 H24 1_555 1_555
C26 C25 1_555 1_555
H25 C26 1_555 1_555
C27 C26 1_555 1_555
H26 C27 1_555 1_555
C28 C27 1_555 1_555
H27 C28 1_555 1_555
C29 C24 1_555 1_555
H28 C29 1_555 1_555
O1 C7 1_555 1_555
O2 C8 1_555 1_555
O3 C15 1_555 1_555
O4 C16 1_555 1_555
O5 C2 1_555 1_555
O6 C23 1_555 1_555
S1 C1 1_555 1_555
S2 C4 1_555 1_555
C5 S1 1_555 1_555
C5 S2 1_555 1_555
C7 C15 1_555 1_555
C8 O1 1_555 1_555
C13 C14 1_555 1_555
C16 O3 1_555 1_555
C21 C22 1_555 1_555
C23 O5 1_555 1_555
C28 C29 1_555 1_555

#END
