
#######################################################################
#
#                 Cambridge Crystallographic Data Centre
#                                CCDC 
#
#######################################################################
#
# If this CIF has been generated from an entry in the Cambridge 
# Structural Database, then it will include bibliographic, chemical, 
# crystal, experimental, refinement or atomic coordinate data resulting 
# from the CCDC's data processing and validation procedures.
#
#######################################################################

data_ZIZNUT
_chemical_formula_moiety         'C16 H14 O4'
_chemical_name_systematic        
3,12,13,13a-Tetrahydroisochromeno[8,8a-c]chromene-4,10(3aH)-dione
_symmetry_cell_setting           orthorhombic
_symmetry_space_group_name_H-M   'P 21 21 21'
_symmetry_Int_Tables_number      19
_space_group_name_Hall           'P 2ac 2ab'
loop_
_symmetry_equiv_pos_site_id
_symmetry_equiv_pos_as_xyz
1 x,y,z
2 1/2-x,-y,1/2+z
3 -x,1/2+y,1/2-z
4 1/2+x,1/2-y,-z
_cell_length_a                   8.7505(8)
_cell_length_b                   9.3028(7)
_cell_length_c                   15.4206(13)
_cell_angle_alpha                90
_cell_angle_beta                 90
_cell_angle_gamma                90
_cell_volume                     1255.3
_exptl_crystal_colour            colorless
_exptl_crystal_description       block
_cell_formula_units_Z            4
loop_
_atom_site_label
_atom_site_type_symbol
_atom_site_fract_x
_atom_site_fract_y
_atom_site_fract_z
O1 O 0.47272(14) 0.42280(12) 0.60606(7)
O2 O 0.15011(12) 0.84260(12) 0.74200(7)
O3 O 0.60359(12) 0.57277(13) 0.68592(7)
O4 O 0.15176(16) 0.75435(15) 0.87409(8)
C1 C 0.19578(16) 0.50535(16) 0.68938(9)
H1 H 0.0993 0.5613 0.6977
C2 C 0.33233(16) 0.61066(15) 0.68819(9)
C3 C 0.35528(16) 0.67418(16) 0.77981(9)
H2 H 0.4429 0.7431 0.7775
C4 C 0.39231(18) 0.55909(18) 0.84689(9)
H3 H 0.5027 0.5361 0.8441
H4 H 0.3701 0.5969 0.9056
C5 C 0.30155(19) 0.42433(18) 0.83233(10)
H5 H 0.3073 0.3509 0.8750
C6 C 0.21373(18) 0.40151(18) 0.76355(11)
H6 H 0.1585 0.3137 0.7609
C7 C 0.18959(19) 0.42884(17) 0.60162(10)
H7 H 0.0995 0.3646 0.5996
H8 H 0.1794 0.5006 0.5546
C8 C 0.3327(2) 0.34261(18) 0.58851(11)
H9 H 0.3294 0.2574 0.6270
H10 H 0.3354 0.3077 0.5279
C9 C 0.48021(16) 0.53398(15) 0.66201(9)
C10 C 0.30439(17) 0.73708(15) 0.62778(9)
C11 C 0.36332(18) 0.75065(17) 0.54388(10)
H11 H 0.4275 0.6774 0.5211
C12 C 0.3289(2) 0.87024(18) 0.49354(11)
H12 H 0.3693 0.8783 0.4366
C13 C 0.2357(2) 0.97802(18) 0.52638(12)
H13 H 0.2119 1.0594 0.4917
C14 C 0.17726(19) 0.96724(18) 0.60939(11)
H14 H 0.1129 1.0405 0.6320
C15 C 0.21384(17) 0.84803(16) 0.65923(10)
C16 C 0.21345(18) 0.75700(17) 0.80461(10)
loop_
_geom_bond_atom_site_label_1
_geom_bond_atom_site_label_2
_geom_bond_site_symmetry_1
_geom_bond_site_symmetry_2
O1 C8 1_555 1_555
O2 C15 1_555 1_555
O3 C9 1_555 1_555
O4 C16 1_555 1_555
C1 H1 1_555 1_555
C2 C1 1_555 1_555
C3 C2 1_555 1_555
H2 C3 1_555 1_555
C4 C3 1_555 1_555
H3 C4 1_555 1_555
H4 C4 1_555 1_555
C5 C4 1_555 1_555
H5 C5 1_555 1_555
C6 C1 1_555 1_555
H6 C6 1_555 1_555
C7 C1 1_555 1_555
H7 C7 1_555 1_555
H8 C7 1_555 1_555
C8 C7 1_555 1_555
H9 C8 1_555 1_555
H10 C8 1_555 1_555
C9 O1 1_555 1_555
C10 C2 1_555 1_555
C11 C10 1_555 1_555
H11 C11 1_555 1_555
C12 C11 1_555 1_555
H12 C12 1_555 1_555
C13 C12 1_555 1_555
H13 C13 1_555 1_555
C14 C13 1_555 1_555
H14 C14 1_555 1_555
C15 C10 1_555 1_555
C16 O2 1_555 1_555
C2 C9 1_555 1_555
C3 C16 1_555 1_555
C5 C6 1_555 1_555
C14 C15 1_555 1_555

#END
