
#######################################################################
#
#                 Cambridge Crystallographic Data Centre
#                                CCDC 
#
#######################################################################
#
# If this CIF has been generated from an entry in the Cambridge 
# Structural Database, then it will include bibliographic, chemical, 
# crystal, experimental, refinement or atomic coordinate data resulting 
# from the CCDC's data processing and validation procedures.
#
#######################################################################

data_ZIZNIH
_chemical_formula_moiety         'C28 H40 O10,H2 O1'
_chemical_name_systematic        
'4,5-Dihydroxy-6-((2-hydroxy-2-(3-hydroxybut-1-en-1-yl)-1,3,3-trimethylcyclohexyl)oxy)-2-(hydroxymethyl)tetrahydro-2H-pyran-3-yl 3-(4-hydroxyphenyl)acrylate monohydrate'
_symmetry_cell_setting           orthorhombic
_symmetry_space_group_name_H-M   'P 21 21 21'
_symmetry_Int_Tables_number      19
_space_group_name_Hall           'P 2ac 2ab'
loop_
_symmetry_equiv_pos_site_id
_symmetry_equiv_pos_as_xyz
1 x,y,z
2 1/2-x,-y,1/2+z
3 1/2+x,1/2-y,-z
4 -x,1/2+y,1/2-z
_cell_length_a                   7.123(4)
_cell_length_b                   14.047(4)
_cell_length_c                   29.589(8)
_cell_angle_alpha                90
_cell_angle_beta                 90
_cell_angle_gamma                90
_cell_volume                     2960.58
_exptl_crystal_colour            colorless
_exptl_crystal_description       Prism
_cell_formula_units_Z            4
loop_
_atom_site_label
_atom_site_type_symbol
_atom_site_fract_x
_atom_site_fract_y
_atom_site_fract_z
O1 O 0.0648(5) -0.4154(3) -0.56924(11)
H1 H 0.0102 -0.4023 -0.5928
O2 O -0.5747(4) -0.36130(18) -0.33316(8)
O3 O -0.8344(4) -0.29862(16) -0.36679(7)
O4 O -1.0978(3) -0.34020(14) -0.26184(7)
O5 O -1.2718(3) -0.10154(15) -0.28654(7)
H2 H -1.2563 -0.0591 -0.2679
O6 O -0.9197(4) -0.11223(16) -0.33523(8)
H3 H -0.963(7) -0.078(4) -0.3516(16)
O7 O -0.7918(4) -0.46562(15) -0.27636(8)
H4 H -0.7044 -0.4365 -0.2880
O8 O -1.2795(3) -0.24795(14) -0.21667(7)
O9 O -1.5278(4) -0.3679(2) -0.12519(10)
H5 H -1.505(8) -0.431(4) -0.1273(18)
O10 O -0.9177(4) -0.51594(18) -0.09681(8)
H6 H -0.808(9) -0.535(4) -0.0903(18)
C1 C -0.2934(6) -0.3856(3) -0.45842(13)
C2 C -0.3545(5) -0.3619(3) -0.50216(12)
H7 H -0.4754 -0.3386 -0.5065
C3 C -0.2365(6) -0.3727(2) -0.53872(12)
H8 H -0.2806 -0.3586 -0.5675
C4 C -0.0556(7) -0.4040(3) -0.53352(14)
C5 C 0.0139(9) -0.4226(4) -0.49041(15)
H9 H 0.1386 -0.4402 -0.4862
C6 C -0.1072(7) -0.4144(4) -0.45376(15)
H10 H -0.0622 -0.4286 -0.4250
C7 C -0.4061(7) -0.3768(3) -0.41821(13)
H11 H -0.3492 -0.3984 -0.3918
C8 C -0.5812(6) -0.3421(3) -0.41285(11)
H12 H -0.6512 -0.3214 -0.4375
C9 C -0.6568(5) -0.3382(2) -0.36721(10)
C10 C -1.2296(5) -0.2633(2) -0.26140(10)
H13 H -1.3405 -0.2794 -0.2795
C11 C -1.1355(5) -0.1739(2) -0.27974(10)
H14 H -1.0431 -0.1514 -0.2576
C12 C -1.0362(5) -0.1915(2) -0.32480(10)
H15 H -1.1307 -0.1987 -0.3486
C13 C -0.9173(5) -0.2811(2) -0.32275(9)
H16 H -0.8162 -0.2713 -0.3008
C14 C -1.0407(5) -0.3633(2) -0.30651(10)
H17 H -1.1523 -0.3667 -0.3258
C15 C -0.9503(5) -0.4608(2) -0.30477(11)
H18 H -1.0427 -0.5066 -0.2944
H19 H -0.9134 -0.4790 -0.3351
C16 C -1.4420(5) -0.2040(2) -0.12350(11)
C17 C -1.3946(5) -0.3035(2) -0.14471(11)
C18 C -1.4263(5) -0.3083(2) -0.19723(11)
C19 C -1.6178(5) -0.2673(3) -0.21075(14)
H20 H -1.6250 -0.2640 -0.2434
H21 H -1.7157 -0.3101 -0.2004
C20 C -1.6533(6) -0.1690(3) -0.19132(14)
H22 H -1.5630 -0.1244 -0.2037
H23 H -1.7780 -0.1478 -0.1998
C21 C -1.6368(6) -0.1702(3) -0.14031(14)
H24 H -1.7326 -0.2120 -0.1281
H25 H -1.6603 -0.1066 -0.1289
C22 C -1.1967(5) -0.3328(2) -0.13386(11)
H26 H -1.1017 -0.3061 -0.1513
C23 C -1.1450(5) -0.3932(2) -0.10170(10)
H27 H -1.2385 -0.4236 -0.0852
C24 C -0.9455(5) -0.4150(2) -0.09048(10)
H28 H -0.8624 -0.3796 -0.1108
C25 C -0.8992(6) -0.3903(3) -0.04201(12)
H29 H -0.7700 -0.4052 -0.0361
H30 H -0.9782 -0.4264 -0.0221
H31 H -0.9200 -0.3235 -0.0371
C26 C -1.2940(6) -0.1287(2) -0.13456(11)
H32 H -1.3286 -0.0694 -0.1208
H33 H -1.2861 -0.1208 -0.1667
H34 H -1.1743 -0.1488 -0.1231
C27 C -1.4504(7) -0.2122(3) -0.07185(12)
H35 H -1.4793 -0.1511 -0.0591
H36 H -1.3312 -0.2336 -0.0606
H37 H -1.5461 -0.2570 -0.0635
C28 C -1.4110(6) -0.4112(2) -0.21350(13)
H38 H -1.4303 -0.4135 -0.2456
H39 H -1.5046 -0.4492 -0.1987
H40 H -1.2886 -0.4355 -0.2064
O11 O -0.0450(5) -0.3828(4) -0.64852(11)
H41 H 0.026(14) -0.387(7) -0.666(3)
H42 H -0.132(15) -0.402(7) -0.655(3)
loop_
_geom_bond_atom_site_label_1
_geom_bond_atom_site_label_2
_geom_bond_site_symmetry_1
_geom_bond_site_symmetry_2
O1 H1 1_555 1_555
O2 C9 1_555 1_555
O3 C9 1_555 1_555
O4 C10 1_555 1_555
O5 H2 1_555 1_555
O6 H3 1_555 1_555
O7 H4 1_555 1_555
O8 C10 1_555 1_555
O9 H5 1_555 1_555
O10 H6 1_555 1_555
C1 C2 1_555 1_555
C2 H7 1_555 1_555
C3 C2 1_555 1_555
H8 C3 1_555 1_555
C4 O1 1_555 1_555
C5 C4 1_555 1_555
H9 C5 1_555 1_555
C6 C1 1_555 1_555
H10 C6 1_555 1_555
C7 C1 1_555 1_555
H11 C7 1_555 1_555
C8 C7 1_555 1_555
H12 C8 1_555 1_555
C9 C8 1_555 1_555
C10 H13 1_555 1_555
C11 O5 1_555 1_555
H14 C11 1_555 1_555
C12 O6 1_555 1_555
H15 C12 1_555 1_555
C13 O3 1_555 1_555
H16 C13 1_555 1_555
C14 O4 1_555 1_555
H17 C14 1_555 1_555
C15 O7 1_555 1_555
H18 C15 1_555 1_555
H19 C15 1_555 1_555
C16 C17 1_555 1_555
C17 O9 1_555 1_555
C18 O8 1_555 1_555
C19 C18 1_555 1_555
H20 C19 1_555 1_555
H21 C19 1_555 1_555
C20 C19 1_555 1_555
H22 C20 1_555 1_555
H23 C20 1_555 1_555
C21 C16 1_555 1_555
H24 C21 1_555 1_555
H25 C21 1_555 1_555
C22 C17 1_555 1_555
H26 C22 1_555 1_555
C23 C22 1_555 1_555
H27 C23 1_555 1_555
C24 O10 1_555 1_555
H28 C24 1_555 1_555
C25 C24 1_555 1_555
H29 C25 1_555 1_555
H30 C25 1_555 1_555
H31 C25 1_555 1_555
C26 C16 1_555 1_555
H32 C26 1_555 1_555
H33 C26 1_555 1_555
H34 C26 1_555 1_555
C27 C16 1_555 1_555
H35 C27 1_555 1_555
H36 C27 1_555 1_555
H37 C27 1_555 1_555
C28 C18 1_555 1_555
H38 C28 1_555 1_555
H39 C28 1_555 1_555
H40 C28 1_555 1_555
O11 H41 1_555 1_555
H42 O11 1_555 1_555
C3 C4 1_555 1_555
C5 C6 1_555 1_555
C10 C11 1_555 1_555
C11 C12 1_555 1_555
C12 C13 1_555 1_555
C13 C14 1_555 1_555
C14 C15 1_555 1_555
C17 C18 1_555 1_555
C20 C21 1_555 1_555
C23 C24 1_555 1_555

#END
