
#######################################################################
#
#                 Cambridge Crystallographic Data Centre
#                                CCDC 
#
#######################################################################
#
# If this CIF has been generated from an entry in the Cambridge 
# Structural Database, then it will include bibliographic, chemical, 
# crystal, experimental, refinement or atomic coordinate data resulting 
# from the CCDC's data processing and validation procedures.
#
#######################################################################

data_ZIZQOQ
_chemical_formula_moiety         'C28 H22 N4 O4 S2'
_chemical_name_systematic        
N,N'-(Disulfanediylbis((3-methyl-4-nitrophenyl)methylylidene))dianiline
_symmetry_cell_setting           monoclinic
_symmetry_space_group_name_H-M   'C 2/c'
_symmetry_Int_Tables_number      15
_space_group_name_Hall           '-C 2yn'
loop_
_symmetry_equiv_pos_site_id
_symmetry_equiv_pos_as_xyz
1 x,y,z
2 -x,y,1/2-z
3 1/2+x,1/2+y,z
4 1/2-x,1/2+y,1/2-z
5 -x,-y,-z
6 x,-y,1/2+z
7 1/2-x,1/2-y,-z
8 1/2+x,1/2-y,1/2+z
_cell_length_a                   17.9926(6)
_cell_length_b                   10.5476(3)
_cell_length_c                   13.9509(5)
_cell_angle_alpha                90
_cell_angle_beta                 107.885(4)
_cell_angle_gamma                90
_cell_volume                     2519.64
_cell_formula_units_Z            4
loop_
_atom_site_label
_atom_site_type_symbol
_atom_site_fract_x
_atom_site_fract_y
_atom_site_fract_z
S1 S 0.037392(19) 0.39294(3) 0.20775(2)
O1 O 0.26192(6) 0.02365(10) 0.68066(7)
O2 O 0.17356(6) 0.13024(10) 0.72282(7)
N1 N 0.13211(7) 0.20259(12) 0.19437(8)
N2 N 0.20556(7) 0.09509(11) 0.66097(8)
C1 C 0.10223(7) 0.26088(14) 0.25315(9)
C2 C 0.12468(7) 0.22085(13) 0.36083(9)
C3 C 0.14124(8) 0.09303(14) 0.38223(10)
H1 H 0.1342 0.0336 0.3290
C4 C 0.16793(8) 0.05313(14) 0.48115(10)
H2 H 0.1812 -0.0332 0.4971
C5 C 0.17492(8) 0.14232(13) 0.55709(9)
C6 C 0.15725(7) 0.26986(14) 0.53960(9)
C7 C 0.13271(7) 0.30769(13) 0.43855(9)
H3 H 0.1213 0.3945 0.4226
C8 C 0.16504(9) 0.36648(15) 0.62145(11)
H4 H 0.2167(10) 0.3530(18) 0.6799(12)
H5 H 0.1201(11) 0.3570(18) 0.6503(12)
H6 H 0.1647(10) 0.4498(17) 0.5932(12)
C9 C 0.11131(8) 0.22857(14) 0.08909(9)
C10 C 0.04246(8) 0.17954(15) 0.02366(10)
H7 H 0.0069 0.1345 0.0493
C11 C 0.02631(8) 0.19722(15) -0.07929(10)
H8 H -0.0205 0.1639 -0.1243
C12 C 0.07771(9) 0.26294(16) -0.11689(10)
H9 H 0.0661 0.2751 -0.1874
C13 C 0.14615(9) 0.31099(15) -0.05160(10)
H10 H 0.1814 0.3564 -0.0775
C14 C 0.16365(8) 0.29320(13) 0.05151(10)
H11 H 0.2111 0.3250 0.0961
S1A S -0.037392(19) 0.39294(3) 0.29225(2)
O1A O -0.26192(6) 0.02365(10) -0.18066(7)
O2A O -0.17356(6) 0.13024(10) -0.22282(7)
N1A N -0.13211(7) 0.20259(12) 0.30563(8)
N2A N -0.20556(7) 0.09509(11) -0.16097(8)
C1A C -0.10223(7) 0.26088(14) 0.24685(9)
C2A C -0.12468(7) 0.22085(13) 0.13917(9)
C3A C -0.14124(8) 0.09303(14) 0.11777(10)
H1A H -0.1342 0.0336 0.1710
C4A C -0.16793(8) 0.05313(14) 0.01885(10)
H2A H -0.1812 -0.0332 0.0029
C5A C -0.17492(8) 0.14232(13) -0.05709(9)
C6A C -0.15725(7) 0.26986(14) -0.03960(9)
C7A C -0.13271(7) 0.30769(13) 0.06145(9)
H3A H -0.1213 0.3945 0.0774
C8A C -0.16504(9) 0.36648(15) -0.12145(11)
H4A H -0.2167(10) 0.3530(18) -0.1799(12)
H5A H -0.1201(11) 0.3570(18) -0.1503(12)
H6A H -0.1647(10) 0.4498(17) -0.0932(12)
C9A C -0.11131(8) 0.22857(14) 0.41091(9)
C10A C -0.04246(8) 0.17954(15) 0.47634(10)
H7A H -0.0069 0.1345 0.4507
C11A C -0.02631(8) 0.19722(15) 0.57929(10)
H8A H 0.0205 0.1639 0.6243
C12A C -0.07771(9) 0.26294(16) 0.61689(10)
H9A H -0.0661 0.2751 0.6874
C13A C -0.14615(9) 0.31099(15) 0.55160(10)
H10A H -0.1814 0.3564 0.5775
C14A C -0.16365(8) 0.29320(13) 0.44849(10)
H11A H -0.2111 0.3250 0.4039
loop_
_geom_bond_atom_site_label_1
_geom_bond_atom_site_label_2
_geom_bond_site_symmetry_1
_geom_bond_site_symmetry_2
S1 C1 1_555 1_555
O1 N2 1_555 1_555
O2 N2 1_555 1_555
N1 C1 1_555 1_555
N2 C5 1_555 1_555
C1 C2 1_555 1_555
C2 C3 1_555 1_555
C3 H1 1_555 1_555
C4 C3 1_555 1_555
H2 C4 1_555 1_555
C5 C4 1_555 1_555
C6 C5 1_555 1_555
C7 C2 1_555 1_555
H3 C7 1_555 1_555
C8 C6 1_555 1_555
H4 C8 1_555 1_555
H5 C8 1_555 1_555
H6 C8 1_555 1_555
C9 N1 1_555 1_555
C10 C9 1_555 1_555
H7 C10 1_555 1_555
C11 C10 1_555 1_555
H8 C11 1_555 1_555
C12 C11 1_555 1_555
H9 C12 1_555 1_555
C13 C12 1_555 1_555
H10 C13 1_555 1_555
C14 C9 1_555 1_555
H11 C14 1_555 1_555
S1A S1 1_555 1_555
O1A N2A 1_555 1_555
O2A N2A 1_555 1_555
N1A C1A 1_555 1_555
N2A C5A 1_555 1_555
C1A S1A 1_555 1_555
C2A C1A 1_555 1_555
C3A C2A 1_555 1_555
H1A C3A 1_555 1_555
C4A C3A 1_555 1_555
H2A C4A 1_555 1_555
C5A C4A 1_555 1_555
C6A C5A 1_555 1_555
C7A C2A 1_555 1_555
H3A C7A 1_555 1_555
C8A C6A 1_555 1_555
H4A C8A 1_555 1_555
H5A C8A 1_555 1_555
H6A C8A 1_555 1_555
C9A N1A 1_555 1_555
C10A C9A 1_555 1_555
H7A C10A 1_555 1_555
C11A C10A 1_555 1_555
H8A C11A 1_555 1_555
C12A C11A 1_555 1_555
H9A C12A 1_555 1_555
C13A C12A 1_555 1_555
H10A C13A 1_555 1_555
C14A C9A 1_555 1_555
H11A C14A 1_555 1_555
C6 C7 1_555 1_555
C13 C14 1_555 1_555
C6A C7A 1_555 1_555
C13A C14A 1_555 1_555

#END
