
#######################################################################
#
#                 Cambridge Crystallographic Data Centre
#                                CCDC 
#
#######################################################################
#
# If this CIF has been generated from an entry in the Cambridge 
# Structural Database, then it will include bibliographic, chemical, 
# crystal, experimental, refinement or atomic coordinate data resulting 
# from the CCDC's data processing and validation procedures.
#
#######################################################################

data_ZIZXOX
_chemical_formula_moiety         'C16 H21 N1 O6 S1,0.25(C4 H8 O1)'
_chemical_name_systematic        
'7,9,11-Trimethoxy-6-methyl-1,5,6,7-tetrahydro-2H-naphtho[2,1-d][1,2,3]oxathiazepine 4,4-dioxide tetrahydrofuran unknown solvate'
_symmetry_cell_setting           orthorhombic
_symmetry_space_group_name_H-M   'C 2 2 21'
_symmetry_Int_Tables_number      20
_space_group_name_Hall           'C 2n 2'
loop_
_symmetry_equiv_pos_site_id
_symmetry_equiv_pos_as_xyz
1 x,y,z
2 x,-y,-z
3 -x,y,1/2-z
4 -x,-y,1/2+z
5 1/2+x,1/2+y,z
6 1/2+x,1/2-y,-z
7 1/2-x,1/2+y,1/2-z
8 1/2-x,1/2-y,1/2+z
_cell_length_a                   12.9248(19)
_cell_length_b                   15.416(2)
_cell_length_c                   39.310(6)
_cell_angle_alpha                90
_cell_angle_beta                 90
_cell_angle_gamma                90
_cell_volume                     7832.47
_exptl_crystal_colour            colorless
_exptl_crystal_description       prism
_cell_formula_units_Z            16
loop_
_atom_site_label
_atom_site_type_symbol
_atom_site_fract_x
_atom_site_fract_y
_atom_site_fract_z
S2 S 0.39210(5) 0.44635(4) 0.685594(16)
O7 O 1.01689(14) 0.63120(11) 0.66738(5)
O8 O 0.28583(14) 0.44531(14) 0.69471(5)
O9 O 0.42317(14) 0.45935(12) 0.65149(5)
O10 O 0.66896(13) 0.64224(11) 0.75222(4)
O11 O 0.77708(13) 0.38855(10) 0.66496(4)
O12 O 0.43469(14) 0.35539(11) 0.69700(4)
N2 N 0.44844(16) 0.51627(13) 0.70990(5)
H22 H 0.4139 0.5382 0.7272
C17 C 0.61414(19) 0.39232(15) 0.71264(6)
H23 H 0.6831 0.3645 0.7137
H24 H 0.5856 0.3921 0.7360
C18 C 1.0934(2) 0.58471(18) 0.64854(7)
H25 H 1.1150 0.5334 0.6614
H26 H 1.1535 0.6222 0.6446
H27 H 1.0644 0.5666 0.6266
C19 C 0.92493(19) 0.59111(16) 0.67400(6)
C20 C 0.90222(19) 0.50542(15) 0.66535(6)
H28 H 0.9517 0.4711 0.6536
C21 C 0.80625(18) 0.47067(15) 0.67412(6)
C22 C 0.73248(18) 0.51924(14) 0.69198(6)
C23 C 0.62898(18) 0.48596(15) 0.70187(6)
C24 C 0.55151(19) 0.54331(15) 0.70435(6)
C25 C 0.8515(2) 0.64128(15) 0.69061(6)
H29 H 0.8664 0.7000 0.6960
C26 C 0.75714(19) 0.60616(15) 0.69926(6)
C27 C 0.6751(2) 0.66043(15) 0.71638(6)
H30 H 0.6909 0.7233 0.7129
C28 C 0.7557(2) 0.67126(18) 0.77107(7)
H31 H 0.8175 0.6397 0.7637
H32 H 0.7439 0.6606 0.7953
H33 H 0.7657 0.7335 0.7673
C29 C 0.56874(19) 0.64022(16) 0.70181(6)
H34 H 0.5154 0.6702 0.7160
C30 C 0.5582(2) 0.67198(18) 0.66496(7)
H35 H 0.6127 0.6457 0.6510
H36 H 0.5651 0.7353 0.6643
H37 H 0.4903 0.6553 0.6560
C31 C 0.8524(2) 0.33431(17) 0.64912(8)
H38 H 0.8735 0.3600 0.6274
H39 H 0.8226 0.2768 0.6451
H40 H 0.9128 0.3289 0.6640
C32 C 0.54508(19) 0.33670(15) 0.69065(7)
H41 H 0.5611 0.3476 0.6664
H42 H 0.5590 0.2747 0.6954
C33 C 0.9100(10) 0.3772(9) 0.7577(4)
H43 H 0.8364 0.3716 0.7511
C34 C 0.9425(11) 0.4723(7) 0.7575(5)
H44 H 0.9405 0.4970 0.7808
H45 H 0.9013 0.3731 0.7892
C35 C 1.0532(13) 0.4696(9) 0.7438(5)
H46 H 1.1035 0.4871 0.7615
O13 O 0.9731(5) 0.3348(3) 0.73432(15)
C33B C 1.0900(10) 0.3772(9) 0.7423(4)
H43B H 1.1636 0.3716 0.7489
C34B C 1.0575(11) 0.4723(7) 0.7425(5)
H44B H 1.0595 0.4970 0.7192
H45B H 1.0987 0.3731 0.7108
C35B C 0.9468(13) 0.4696(9) 0.7562(5)
H46B H 0.8965 0.4871 0.7385
O13B O 1.0269(5) 0.3348(3) 0.76568(15)
S1 S 0.54436(7) -0.11152(4) 0.56257(2)
O1 O 0.70270(15) 0.42718(12) 0.58920(5)
O2 O 0.56023(19) -0.09087(13) 0.59743(5)
O3 O 0.43938(14) 0.20336(11) 0.58980(4)
O4 O 0.43224(17) -0.08118(14) 0.55267(6)
O5 O 0.76328(14) 0.14892(11) 0.50285(4)
O6 O 0.5507(2) -0.19814(14) 0.55115(7)
N1 N 0.62086(19) -0.05467(15) 0.53930(6)
H1 H 0.6486 -0.0786 0.5211
C1 C 0.6452(2) 0.03310(16) 0.54708(6)
C2 C 0.7587(2) 0.05367(17) 0.55015(6)
H2 H 0.7971 0.0151 0.5340
C3 C 0.77624(19) 0.14705(17) 0.53906(6)
H3 H 0.8489 0.1641 0.5447
C4 C 0.70224(19) 0.20846(16) 0.55680(6)
C5 C 0.7342(2) 0.29002(17) 0.56652(6)
H4 H 0.8034 0.3078 0.5625
C6 C 0.6647(2) 0.34655(16) 0.58235(6)
C7 C 0.6349(2) 0.48894(17) 0.60393(8)
H5 H 0.5741 0.4963 0.5893
H6 H 0.6708 0.5446 0.6062
H7 H 0.6129 0.4687 0.6264
C8 C 0.5653(2) 0.31929(15) 0.59000(6)
H8 H 0.5187 0.3573 0.6013
C9 C 0.53412(18) 0.23603(16) 0.58106(6)
C10 C 0.3730(2) 0.25627(18) 0.60993(7)
H9 H 0.4081 0.2717 0.6312
H10 H 0.3094 0.2243 0.6151
H11 H 0.3558 0.3092 0.5974
C11 C 0.60022(19) 0.17997(15) 0.56280(6)
C12 C 0.5703(2) 0.09228(16) 0.55113(6)
C13 C 0.4594(2) 0.07408(18) 0.54073(6)
H12 H 0.4202 0.1292 0.5418
H13 H 0.4594 0.0548 0.5167
C14 C 0.4019(2) 0.00713(19) 0.56157(8)
H14 H 0.4159 0.0171 0.5860
H15 H 0.3266 0.0140 0.5578
C15 C 0.8009(2) 0.22554(19) 0.48752(7)
H16 H 0.7598 0.2752 0.4953
H17 H 0.7955 0.2205 0.4627
H18 H 0.8735 0.2341 0.4939
C16 C 0.7997(2) 0.0364(2) 0.58576(7)
H19 H 0.7695 0.0783 0.6017
H20 H 0.8752 0.0423 0.5858
H21 H 0.7809 -0.0226 0.5927
C36? C 1.0682(9) 0.3765(10) 0.7339(4)
H47? H 0.8970 0.5071 0.7425
H48? H 1.0610 0.5084 0.7239
H49? H 0.8838 0.3479 0.7500
H50? H 0.9191 0.3520 0.7807
loop_
_geom_bond_atom_site_label_1
_geom_bond_atom_site_label_2
_geom_bond_site_symmetry_1
_geom_bond_site_symmetry_2
S1 O2 1_555 1_555
O1 C6 1_555 1_555
O3 C9 1_555 1_555
O4 S1 1_555 1_555
O5 C3 1_555 1_555
O6 S1 1_555 1_555
N1 S1 1_555 1_555
H1 N1 1_555 1_555
C1 N1 1_555 1_555
C2 C1 1_555 1_555
H2 C2 1_555 1_555
C3 C2 1_555 1_555
H3 C3 1_555 1_555
C4 C3 1_555 1_555
C5 C4 1_555 1_555
H4 C5 1_555 1_555
C6 C5 1_555 1_555
C7 O1 1_555 1_555
H5 C7 1_555 1_555
H6 C7 1_555 1_555
H7 C7 1_555 1_555
C8 C6 1_555 1_555
H8 C8 1_555 1_555
C9 C8 1_555 1_555
C10 O3 1_555 1_555
H9 C10 1_555 1_555
H10 C10 1_555 1_555
H11 C10 1_555 1_555
C11 C4 1_555 1_555
C12 C1 1_555 1_555
C13 C12 1_555 1_555
H12 C13 1_555 1_555
H13 C13 1_555 1_555
C14 O4 1_555 1_555
H14 C14 1_555 1_555
H15 C14 1_555 1_555
C15 O5 1_555 1_555
H16 C15 1_555 1_555
H17 C15 1_555 1_555
H18 C15 1_555 1_555
C16 C2 1_555 1_555
H19 C16 1_555 1_555
H20 C16 1_555 1_555
H21 C16 1_555 1_555
S2 O8 1_555 1_555
O7 C18 1_555 1_555
O9 S2 1_555 1_555
O10 C27 1_555 1_555
O11 C21 1_555 1_555
O12 S2 1_555 1_555
N2 S2 1_555 1_555
H22 N2 1_555 1_555
C17 H23 1_555 1_555
H24 C17 1_555 1_555
C18 H25 1_555 1_555
H26 C18 1_555 1_555
H27 C18 1_555 1_555
C19 O7 1_555 1_555
C20 C19 1_555 1_555
H28 C20 1_555 1_555
C21 C20 1_555 1_555
C22 C21 1_555 1_555
C23 C17 1_555 1_555
C24 N2 1_555 1_555
C25 C19 1_555 1_555
H29 C25 1_555 1_555
C26 C22 1_555 1_555
C27 C26 1_555 1_555
H30 C27 1_555 1_555
C28 O10 1_555 1_555
H31 C28 1_555 1_555
H32 C28 1_555 1_555
H33 C28 1_555 1_555
C29 C24 1_555 1_555
H34 C29 1_555 1_555
C30 C29 1_555 1_555
H35 C30 1_555 1_555
H36 C30 1_555 1_555
H37 C30 1_555 1_555
C31 O11 1_555 1_555
H38 C31 1_555 1_555
H39 C31 1_555 1_555
H40 C31 1_555 1_555
C32 O12 1_555 1_555
H41 C32 1_555 1_555
H42 C32 1_555 1_555
C33 H43 1_555 1_555
C34 C33 1_555 1_555
H44 C34 1_555 1_555
H45 C33 1_555 1_555
C35 C34 1_555 1_555
H46 C35 1_555 1_555
O13 C33 1_555 1_555
C33B C35 1_555 1_555
H43B C33B 1_555 1_555
C34B C34 1_555 1_555
H44B C35 1_555 1_555
H45B C33B 1_555 1_555
C35B C33 1_555 1_555
H46B C34 1_555 1_555
O13B C33 1_555 1_555
C9 C11 1_555 1_555
C11 C12 1_555 1_555
C13 C14 1_555 1_555
C17 C32 1_555 1_555
C22 C23 1_555 1_555
C23 C24 1_555 1_555
C25 C26 1_555 1_555
C27 C29 1_555 1_555
H44 C35B 1_555 1_555
C35 C35B 1_555 1_555
H46 C34B 1_555 1_555
O13 C33B 1_555 1_555
O13 O13B 1_555 1_555
C33B C34B 1_555 1_555
C33B O13B 1_555 1_555
C34B H44B 1_555 1_555
C34B C35B 1_555 1_555
C35B H46B 1_555 1_555

#END
