
#######################################################################
#
#                 Cambridge Crystallographic Data Centre
#                                CCDC 
#
#######################################################################
#
# If this CIF has been generated from an entry in the Cambridge 
# Structural Database, then it will include bibliographic, chemical, 
# crystal, experimental, refinement or atomic coordinate data resulting 
# from the CCDC's data processing and validation procedures.
#
#######################################################################

data_ZOBCAX
_chemical_formula_moiety         'C29 H24 N2 O4 S1'
_chemical_name_systematic        
N-(2,5-diphenyl-1,4-benzoxazepin-3-yl)-4-methoxy-N-methylbenzene-1-sulfonamide
_symmetry_cell_setting           monoclinic
_symmetry_space_group_name_H-M   'P 21/n'
_symmetry_Int_Tables_number      14
_space_group_name_Hall           '-P 2yn'
loop_
_symmetry_equiv_pos_site_id
_symmetry_equiv_pos_as_xyz
1 x,y,z
2 1/2-x,1/2+y,1/2-z
3 -x,-y,-z
4 1/2+x,1/2-y,1/2+z
_cell_length_a                   9.987(2)
_cell_length_b                   11.818(2)
_cell_length_c                   21.197(4)
_cell_angle_alpha                90
_cell_angle_beta                 96.944(7)
_cell_angle_gamma                90
_cell_volume                     2483.45
_exptl_crystal_colour            yellow
_exptl_crystal_description       prismatic
_cell_formula_units_Z            4
loop_
_atom_site_label
_atom_site_type_symbol
_atom_site_fract_x
_atom_site_fract_y
_atom_site_fract_z
S1 S 0.53552(4) 0.23785(3) 0.66193(2)
N1 N 0.56858(13) 0.48092(10) 0.58730(6)
N2 N 0.51142(13) 0.28744(10) 0.58870(6)
O1 O 0.78463(11) 0.43542(9) 0.52027(5)
O2 O 0.67532(13) 0.21050(11) 0.67429(6)
O3 O 0.43541(15) 0.15168(10) 0.66446(6)
O4 O 0.40616(14) 0.61829(12) 0.82209(7)
C1 C 0.80130(16) 0.54557(13) 0.61594(7)
C2 C 0.88255(18) 0.59287(15) 0.66762(8)
H1 H 0.8432 0.6348 0.6976
C3 C 1.02073(19) 0.57783(17) 0.67456(9)
H2 H 1.0737 0.6092 0.7093
C4 C 1.08058(18) 0.51636(16) 0.63011(9)
H3 H 1.1739 0.5087 0.6342
C5 C 1.00206(17) 0.46622(14) 0.57952(8)
H4 H 1.0420 0.4235 0.5500
C6 C 0.86364(16) 0.48026(13) 0.57323(7)
C7 C 0.70549(16) 0.34391(12) 0.53690(7)
C8 C 0.60562(16) 0.37141(12) 0.57168(7)
C9 C 0.65279(16) 0.56011(12) 0.60638(7)
C10 C 0.59379(16) 0.67023(12) 0.62357(7)
C11 C 0.46615(18) 0.67183(14) 0.64320(8)
H5 H 0.4188 0.6044 0.6454
C12 C 0.4084(2) 0.77249(16) 0.65955(10)
H6 H 0.3232 0.7723 0.6731
C13 C 0.4772(2) 0.87313(16) 0.65578(11)
H7 H 0.4384 0.9408 0.6667
C14 C 0.6031(2) 0.87322(14) 0.63582(10)
H8 H 0.6490 0.9412 0.6330
C15 C 0.66229(19) 0.77250(14) 0.61983(9)
H9 H 0.7477 0.7732 0.6066
C16 C 0.74227(17) 0.23518(14) 0.50896(7)
C17 C 0.8495(2) 0.23302(17) 0.47264(9)
H10 H 0.8960 0.2995 0.4665
C18 C 0.8878(2) 0.1330(2) 0.44542(11)
H11 H 0.9600 0.1332 0.4215
C19 C 0.8204(3) 0.03398(19) 0.45342(12)
H12 H 0.8464 -0.0327 0.4351
C20 C 0.7145(3) 0.03442(18) 0.48870(11)
H13 H 0.6683 -0.0325 0.4942
C21 C 0.6750(2) 0.13288(15) 0.51635(10)
H14 H 0.6028 0.1312 0.5402
C22 C 0.37081(18) 0.30457(17) 0.56008(9)
H15 H 0.3395 0.3769 0.5727
H16 H 0.3149 0.2460 0.5743
H17 H 0.3665 0.3019 0.5146
C23 C 0.50178(15) 0.34681(13) 0.71427(7)
C24 C 0.37007(16) 0.36571(14) 0.72677(8)
H18 H 0.3010 0.3175 0.7102
C25 C 0.34283(16) 0.45638(15) 0.76393(8)
H19 H 0.2551 0.4692 0.7727
C26 C 0.44571(17) 0.52879(14) 0.78832(7)
C27 C 0.57795(17) 0.50832(15) 0.77744(8)
H20 H 0.6473 0.5555 0.7949
C28 C 0.60506(16) 0.41696(14) 0.74042(8)
H21 H 0.6933 0.4024 0.7330
C29 C 0.5063(3) 0.6958(2) 0.84804(16)
H22 H 0.5724 0.6566 0.8766
H23 H 0.4651 0.7540 0.8707
H24 H 0.5490 0.7291 0.8144
loop_
_geom_bond_atom_site_label_1
_geom_bond_atom_site_label_2
_geom_bond_site_symmetry_1
_geom_bond_site_symmetry_2
S1 N2 1_555 1_555
N1 C8 1_555 1_555
N2 C8 1_555 1_555
O1 C6 1_555 1_555
O2 S1 1_555 1_555
O3 S1 1_555 1_555
O4 C26 1_555 1_555
C1 C2 1_555 1_555
C2 H1 1_555 1_555
C3 C2 1_555 1_555
H2 C3 1_555 1_555
C4 C3 1_555 1_555
H3 C4 1_555 1_555
C5 C4 1_555 1_555
H4 C5 1_555 1_555
C6 C1 1_555 1_555
C7 O1 1_555 1_555
C8 C7 1_555 1_555
C9 N1 1_555 1_555
C10 C9 1_555 1_555
C11 C10 1_555 1_555
H5 C11 1_555 1_555
C12 C11 1_555 1_555
H6 C12 1_555 1_555
C13 C12 1_555 1_555
H7 C13 1_555 1_555
C14 C13 1_555 1_555
H8 C14 1_555 1_555
C15 C10 1_555 1_555
H9 C15 1_555 1_555
C16 C7 1_555 1_555
C17 C16 1_555 1_555
H10 C17 1_555 1_555
C18 C17 1_555 1_555
H11 C18 1_555 1_555
C19 C18 1_555 1_555
H12 C19 1_555 1_555
C20 C19 1_555 1_555
H13 C20 1_555 1_555
C21 C16 1_555 1_555
H14 C21 1_555 1_555
C22 N2 1_555 1_555
H15 C22 1_555 1_555
H16 C22 1_555 1_555
H17 C22 1_555 1_555
C23 S1 1_555 1_555
C24 C23 1_555 1_555
H18 C24 1_555 1_555
C25 C24 1_555 1_555
H19 C25 1_555 1_555
C26 C25 1_555 1_555
C27 C26 1_555 1_555
H20 C27 1_555 1_555
C28 C23 1_555 1_555
H21 C28 1_555 1_555
C29 O4 1_555 1_555
H22 C29 1_555 1_555
H23 C29 1_555 1_555
H24 C29 1_555 1_555
C1 C9 1_555 1_555
C5 C6 1_555 1_555
C14 C15 1_555 1_555
C20 C21 1_555 1_555
C27 C28 1_555 1_555

#END
