
#######################################################################
#
#                 Cambridge Crystallographic Data Centre
#                                CCDC 
#
#######################################################################
#
# If this CIF has been generated from an entry in the Cambridge 
# Structural Database, then it will include bibliographic, chemical, 
# crystal, experimental, refinement or atomic coordinate data resulting 
# from the CCDC's data processing and validation procedures.
#
#######################################################################

data_ZOBWEU
_chemical_formula_moiety         'C44 H40 N4 2+,4(C2 H6 O1),2(H2 O1),2(Cl1 1-)'
_chemical_name_systematic        
"1,1'-(2',5'-diisopropyl-1,1':4',1''-terphenyl-4,4''-diyl)bis(4-(pyridin-4-yl)pyridinium) dichloride ethanol solvate dihydrate"
_symmetry_cell_setting           monoclinic
_symmetry_space_group_name_H-M   'P 21/c'
_symmetry_Int_Tables_number      14
_space_group_name_Hall           '-P 2ybc'
loop_
_symmetry_equiv_pos_site_id
_symmetry_equiv_pos_as_xyz
1 x,y,z
2 -x,1/2+y,1/2-z
3 -x,-y,-z
4 x,1/2-y,1/2+z
_cell_length_a                   15.6872(18)
_cell_length_b                   19.328(2)
_cell_length_c                   8.3731(9)
_cell_angle_alpha                90
_cell_angle_beta                 95.034(2)
_cell_angle_gamma                90
_cell_volume                     2528.95
_exptl_crystal_colour            yellow
_exptl_crystal_description       block
_cell_formula_units_Z            2
loop_
_atom_site_label
_atom_site_type_symbol
_atom_site_fract_x
_atom_site_fract_y
_atom_site_fract_z
N1 N 0.35122(8) 0.55831(6) 1.07707(14)
N2 N 0.71701(9) 0.56435(7) 1.63479(17)
C1 C 0.06800(10) 0.45757(8) 0.54064(18)
H1 H 0.1157 0.4285 0.5697
C2 C 0.06320(10) 0.52107(8) 0.61868(18)
C3 C -0.00652(10) 0.56534(8) 0.57771(18)
C4 C -0.01921(11) 0.63260(8) 0.6675(2)
H2 H 0.0386 0.6513 0.7047
C5 C -0.06628(14) 0.61770(11) 0.8147(2)
H3 H -0.0716 0.6605 0.8758
H4 H -0.0342 0.5834 0.8820
H5 H -0.1234 0.5996 0.7812
C6 C -0.06708(15) 0.68794(10) 0.5649(3)
H6 H -0.1261 0.6728 0.5370
H7 H -0.0386 0.6951 0.4667
H8 H -0.0672 0.7314 0.6253
C7 C 0.13346(10) 0.53714(8) 0.74574(18)
C8 C 0.14934(11) 0.49070(8) 0.87213(19)
H9 H 0.1116 0.4528 0.8817
C9 C 0.21934(11) 0.49871(8) 0.98463(19)
H10 H 0.2295 0.4669 1.0707
C10 C 0.27370(10) 0.55395(8) 0.96830(17)
C11 C 0.25858(10) 0.60258(8) 0.84784(18)
H11 H 0.2955 0.6412 0.8413
C12 C 0.18825(10) 0.59373(8) 0.73653(18)
H12 H 0.1773 0.6267 0.6530
C13 C 0.37709(10) 0.61895(8) 1.14512(18)
H13 H 0.3443 0.6596 1.1224
C14 C 0.45070(10) 0.62217(8) 1.24723(18)
H14 H 0.4690 0.6653 1.2923
C15 C 0.49872(9) 0.56262(8) 1.28523(17)
C16 C 0.47078(10) 0.50103(8) 1.21018(18)
H15 H 0.5024 0.4596 1.2310
C17 C 0.39809(10) 0.50000(8) 1.10679(18)
H16 H 0.3803 0.4580 1.0553
C18 C 0.57536(10) 0.56402(8) 1.40309(17)
C19 C 0.63413(10) 0.50968(8) 1.41513(19)
H17 H 0.6271 0.4712 1.3445
C20 C 0.70308(11) 0.51218(9) 1.5311(2)
H18 H 0.7425 0.4747 1.5370
C21 C 0.66041(11) 0.61614(8) 1.6221(2)
H19 H 0.6691 0.6538 1.6947
C22 C 0.58986(10) 0.61865(8) 1.51023(19)
H20 H 0.5520 0.6571 1.5068
N1B N -0.35122(8) 0.44169(6) -0.07707(14)
N2B N -0.71701(9) 0.43565(7) -0.63479(17)
C1B C -0.06800(10) 0.54243(8) 0.45936(18)
H1B H -0.1157 0.5715 0.4303
C2B C -0.06320(10) 0.47893(8) 0.38132(18)
C3B C 0.00652(10) 0.43466(8) 0.42229(18)
C4B C 0.01921(11) 0.36740(8) 0.3325(2)
H2B H -0.0386 0.3487 0.2953
C5B C 0.06628(14) 0.38230(11) 0.1853(2)
H3B H 0.0716 0.3395 0.1242
H4B H 0.0342 0.4166 0.1180
H5B H 0.1234 0.4004 0.2188
C6B C 0.06708(15) 0.31206(10) 0.4351(3)
H6B H 0.1261 0.3272 0.4630
H7B H 0.0386 0.3049 0.5333
H8B H 0.0672 0.2686 0.3747
C7B C -0.13346(10) 0.46286(8) 0.25426(18)
C8B C -0.14934(11) 0.50930(8) 0.12787(19)
H9B H -0.1116 0.5472 0.1183
C9B C -0.21934(11) 0.50129(8) 0.01537(19)
H10B H -0.2295 0.5331 -0.0707
C10B C -0.27370(10) 0.44605(8) 0.03170(17)
C11B C -0.25858(10) 0.39742(8) 0.15216(18)
H11B H -0.2955 0.3588 0.1587
C12B C -0.18825(10) 0.40627(8) 0.26347(18)
H12B H -0.1773 0.3733 0.3470
C13B C -0.37709(10) 0.38105(8) -0.14512(18)
H13B H -0.3443 0.3404 -0.1224
C14B C -0.45070(10) 0.37783(8) -0.24723(18)
H14B H -0.4690 0.3347 -0.2923
C15B C -0.49872(9) 0.43738(8) -0.28523(17)
C16B C -0.47078(10) 0.49897(8) -0.21018(18)
H15B H -0.5024 0.5404 -0.2310
C17B C -0.39809(10) 0.50000(8) -0.10679(18)
H16B H -0.3803 0.5420 -0.0553
C18B C -0.57536(10) 0.43598(8) -0.40309(17)
C19B C -0.63413(10) 0.49032(8) -0.41513(19)
H17B H -0.6271 0.5288 -0.3445
C20B C -0.70308(11) 0.48782(9) -0.5311(2)
H18B H -0.7425 0.5253 -0.5370
C21B C -0.66041(11) 0.38386(8) -0.6221(2)
H19B H -0.6691 0.3462 -0.6947
C22B C -0.58986(10) 0.38135(8) -0.51023(19)
H20B H -0.5520 0.3429 -0.5068
C23 C 0.90978(16) 0.14376(17) 0.3168(3)
H21 H 0.8840 0.1234 0.4083
H22 H 0.9586 0.1727 0.3557
H23 H 0.9294 0.1068 0.2488
C24 C 0.84481(17) 0.18710(14) 0.2216(3)
H24 H 0.8225 0.2230 0.2911
H25 H 0.8715 0.2105 0.1334
O1 O 0.77801(9) 0.14464(7) 0.15900(18)
H26 H 0.7419 0.1685 0.1032
C25 C 0.74886(14) 0.68247(11) 0.2092(3)
H27 H 0.7388 0.6454 0.2851
H28 H 0.7731 0.7228 0.2680
H29 H 0.7890 0.6664 0.1339
C26 C 0.66648(14) 0.70210(10) 0.1191(3)
H30 H 0.6272 0.7214 0.1940
H31 H 0.6768 0.7382 0.0391
O2 O 0.62882(10) 0.64403(7) 0.04122(19)
H32 H 0.5846 0.6562 -0.0157
Cl1 Cl 0.46674(3) 0.68633(2) 0.81933(5)
O3 O 0.65576(9) 0.22351(7) 0.98641(18)
H33 H 0.6203(16) 0.2496(13) 1.042(3)
H34 H 0.6255(18) 0.2090(14) 0.908(3)
loop_
_geom_bond_atom_site_label_1
_geom_bond_atom_site_label_2
_geom_bond_site_symmetry_1
_geom_bond_site_symmetry_2
N1 C10 1_555 1_555
N2 C20 1_555 1_555
C1 H1 1_555 1_555
C2 C1 1_555 1_555
C3 C2 1_555 1_555
C4 C3 1_555 1_555
H2 C4 1_555 1_555
C5 C4 1_555 1_555
H3 C5 1_555 1_555
H4 C5 1_555 1_555
H5 C5 1_555 1_555
C6 C4 1_555 1_555
H6 C6 1_555 1_555
H7 C6 1_555 1_555
H8 C6 1_555 1_555
C7 C2 1_555 1_555
C8 C7 1_555 1_555
H9 C8 1_555 1_555
C9 C8 1_555 1_555
H10 C9 1_555 1_555
C10 C9 1_555 1_555
C11 C10 1_555 1_555
H11 C11 1_555 1_555
C12 C7 1_555 1_555
H12 C12 1_555 1_555
C13 N1 1_555 1_555
H13 C13 1_555 1_555
C14 C13 1_555 1_555
H14 C14 1_555 1_555
C15 C14 1_555 1_555
C16 C15 1_555 1_555
H15 C16 1_555 1_555
C17 N1 1_555 1_555
H16 C17 1_555 1_555
C18 C15 1_555 1_555
C19 C18 1_555 1_555
H17 C19 1_555 1_555
C20 C19 1_555 1_555
H18 C20 1_555 1_555
C21 N2 1_555 1_555
H19 C21 1_555 1_555
C22 C18 1_555 1_555
H20 C22 1_555 1_555
C23 H21 1_555 1_555
H22 C23 1_555 1_555
H23 C23 1_555 1_555
C24 C23 1_555 1_555
H24 C24 1_555 1_555
H25 C24 1_555 1_555
O1 C24 1_555 1_555
H26 O1 1_555 1_555
C25 H27 1_555 1_555
H28 C25 1_555 1_555
H29 C25 1_555 1_555
C26 C25 1_555 1_555
H30 C26 1_555 1_555
H31 C26 1_555 1_555
O2 C26 1_555 1_555
H32 O2 1_555 1_555
O3 H33 1_555 1_555
H34 O3 1_555 1_555
N1B C10B 1_555 1_555
N2B C20B 1_555 1_555
C1B C3 1_555 1_555
H1B C1B 1_555 1_555
C2B C1B 1_555 1_555
C3B C1 1_555 1_555
C4B C3B 1_555 1_555
H2B C4B 1_555 1_555
C5B C4B 1_555 1_555
H3B C5B 1_555 1_555
H4B C5B 1_555 1_555
H5B C5B 1_555 1_555
C6B C4B 1_555 1_555
H6B C6B 1_555 1_555
H7B C6B 1_555 1_555
H8B C6B 1_555 1_555
C7B C2B 1_555 1_555
C8B C7B 1_555 1_555
H9B C8B 1_555 1_555
C9B C8B 1_555 1_555
H10B C9B 1_555 1_555
C10B C9B 1_555 1_555
C11B C10B 1_555 1_555
H11B C11B 1_555 1_555
C12B C7B 1_555 1_555
H12B C12B 1_555 1_555
C13B N1B 1_555 1_555
H13B C13B 1_555 1_555
C14B C13B 1_555 1_555
H14B C14B 1_555 1_555
C15B C14B 1_555 1_555
C16B C15B 1_555 1_555
H15B C16B 1_555 1_555
C17B N1B 1_555 1_555
H16B C17B 1_555 1_555
C18B C15B 1_555 1_555
C19B C18B 1_555 1_555
H17B C19B 1_555 1_555
C20B C19B 1_555 1_555
H18B C20B 1_555 1_555
C21B N2B 1_555 1_555
H19B C21B 1_555 1_555
C22B C18B 1_555 1_555
H20B C22B 1_555 1_555
C11 C12 1_555 1_555
C16 C17 1_555 1_555
C21 C22 1_555 1_555
C2B C3B 1_555 1_555
C11B C12B 1_555 1_555
C16B C17B 1_555 1_555
C21B C22B 1_555 1_555

#END
