
#######################################################################
#
#                 Cambridge Crystallographic Data Centre
#                                CCDC 
#
#######################################################################
#
# If this CIF has been generated from an entry in the Cambridge 
# Structural Database, then it will include bibliographic, chemical, 
# crystal, experimental, refinement or atomic coordinate data resulting 
# from the CCDC's data processing and validation procedures.
#
#######################################################################

data_ZOCGUV
_chemical_formula_moiety         'C19 H19 N5 O3 S1,0.5(H2 O1)'
_chemical_name_systematic        
'6-(3,5-Dimethyl-1H-pyrazol-1-yl)-4-methyl-1H-pyrazolo[3,4-b]pyridin-3-yl 4-methylbenzenesulfonate hemihydrate'
_symmetry_cell_setting           monoclinic
_symmetry_space_group_name_H-M   'P 2/n'
_symmetry_Int_Tables_number      13
_space_group_name_Hall           '-P 2yac'
loop_
_symmetry_equiv_pos_site_id
_symmetry_equiv_pos_as_xyz
1 x,y,z
2 1/2-x,y,1/2-z
3 -x,-y,-z
4 1/2+x,-y,1/2+z
_cell_length_a                   13.6373(7)
_cell_length_b                   8.4287(4)
_cell_length_c                   16.8449(9)
_cell_angle_alpha                90
_cell_angle_beta                 92.470(2)
_cell_angle_gamma                90
_cell_volume                     1934.43
_cell_formula_units_Z            4
loop_
_atom_site_label
_atom_site_type_symbol
_atom_site_fract_x
_atom_site_fract_y
_atom_site_fract_z
C1 C 0.9107(2) 1.1224(3) 1.30022(16)
H1 H 0.9377 1.0931 1.3517
H2 H 0.8506 1.1796 1.3060
H3 H 0.9567 1.1883 1.2740
C2 C 0.89067(16) 0.9752(3) 1.25159(12)
C3 C 0.87085(17) 0.9861(3) 1.16998(12)
H4 H 0.8717 1.0850 1.1456
C4 C 0.85015(16) 0.8537(2) 1.12482(11)
H5 H 0.8365 0.8627 1.0704
C5 C 0.84992(14) 0.7067(2) 1.16128(10)
C6 C 0.87127(14) 0.6919(2) 1.24191(11)
H6 H 0.8723 0.5926 1.2659
C7 C 0.89091(14) 0.8262(3) 1.28608(11)
H7 H 0.9047 0.8167 1.3404
N1 N 0.85110(13) 0.69179(18) 0.85472(9)
H8 H 0.8412 0.7704 0.8228
C8 C 0.87592(13) 0.4463(2) 0.89934(10)
C9 C 0.86240(13) 0.5393(2) 0.83115(11)
N2 N 0.86214(11) 0.49040(17) 0.75575(8)
C10 C 0.87606(12) 0.3364(2) 0.74890(10)
C11 C 0.88923(12) 0.2813(2) 0.89020(10)
C12 C 0.90267(16) 0.1720(2) 0.95952(11)
H9 H 0.9082 0.0649 0.9409
H10 H 0.8472 0.1804 0.9925
H11 H 0.9613 0.2005 0.9898
C13 C 0.91783(19) 0.5318(2) 0.59597(13)
H12 H 0.8621 0.5923 0.6115
H13 H 0.9324 0.5577 0.5422
H14 H 0.9735 0.5566 0.6306
C14 C 0.89537(13) 0.3595(2) 0.60157(10)
C15 C 0.89100(14) 0.2486(2) 0.54254(11)
H15 H 0.8998 0.2663 0.4888
C16 C 0.87083(13) 0.1033(2) 0.57830(11)
C17 C 0.85853(18) -0.0557(2) 0.53991(13)
H16 H 0.9217 -0.1042 0.5352
H17 H 0.8275 -0.0433 0.4880
H18 H 0.8185 -0.1217 0.5718
N3 N 0.85744(13) 0.70466(19) 0.93555(9)
C18 C 0.87264(14) 0.5594(2) 0.96074(11)
C19 C 0.88936(12) 0.2289(2) 0.81300(10)
H19 H 0.8983 0.1216 0.8027
N4 N 0.87805(10) 0.27878(15) 0.67012(8)
N5 N 0.86299(11) 0.12032(16) 0.65576(9)
O1 O 0.82610(17) 0.40269(19) 1.15350(10)
O2 O 0.72027(11) 0.5688(2) 1.06654(9)
O3 O 0.89420(11) 0.52955(18) 1.04049(8)
S1 S 0.81229(4) 0.53991(6) 1.10623(3)
O4 O 0.7500 0.91432(19) 0.7500
H20 H 0.7165 0.9734 0.7795
H20A H 0.7835 0.9734 0.7205
loop_
_geom_bond_atom_site_label_1
_geom_bond_atom_site_label_2
_geom_bond_site_symmetry_1
_geom_bond_site_symmetry_2
C1 H1 1_555 1_555
H2 C1 1_555 1_555
H3 C1 1_555 1_555
C2 C1 1_555 1_555
C3 C2 1_555 1_555
H4 C3 1_555 1_555
C4 C3 1_555 1_555
H5 C4 1_555 1_555
C5 C4 1_555 1_555
C6 C5 1_555 1_555
H6 C6 1_555 1_555
C7 C2 1_555 1_555
H7 C7 1_555 1_555
N1 H8 1_555 1_555
C8 C9 1_555 1_555
C9 N1 1_555 1_555
N2 C9 1_555 1_555
C10 N2 1_555 1_555
C11 C8 1_555 1_555
C12 C11 1_555 1_555
H9 C12 1_555 1_555
H10 C12 1_555 1_555
H11 C12 1_555 1_555
C13 H12 1_555 1_555
H13 C13 1_555 1_555
H14 C13 1_555 1_555
C14 C13 1_555 1_555
C15 C14 1_555 1_555
H15 C15 1_555 1_555
C16 C15 1_555 1_555
C17 C16 1_555 1_555
H16 C17 1_555 1_555
H17 C17 1_555 1_555
H18 C17 1_555 1_555
N3 N1 1_555 1_555
C18 C8 1_555 1_555
C19 C10 1_555 1_555
H19 C19 1_555 1_555
N4 C10 1_555 1_555
N5 C16 1_555 1_555
O1 S1 1_555 1_555
O2 S1 1_555 1_555
O3 C18 1_555 1_555
S1 C5 1_555 1_555
O4 H20 1_555 1_555
H20A O4 1_555 1_555
C6 C7 1_555 1_555
C11 C19 1_555 1_555
C14 N4 1_555 1_555
N3 C18 1_555 1_555
N4 N5 1_555 1_555
O3 S1 1_555 1_555

#END
