
#######################################################################
#
#                 Cambridge Crystallographic Data Centre
#                                CCDC 
#
#######################################################################
#
# If this CIF has been generated from an entry in the Cambridge 
# Structural Database, then it will include bibliographic, chemical, 
# crystal, experimental, refinement or atomic coordinate data resulting 
# from the CCDC's data processing and validation procedures.
#
#######################################################################

data_ZOCHEG
_chemical_formula_moiety         'C13 H15 N5 O3 S1,0.5(H2 O1)'
_chemical_name_systematic        
'6-(3,5-Dimethyl-1H-pyrazol-1-yl)-4-methyl-1H-pyrazolo[3,4-b]pyridin-3-yl methanesulfonate hemihydrate'
_symmetry_cell_setting           triclinic
_symmetry_space_group_name_H-M   'P -1'
_symmetry_Int_Tables_number      2
_space_group_name_Hall           '-P 1'
loop_
_symmetry_equiv_pos_site_id
_symmetry_equiv_pos_as_xyz
1 x,y,z
2 -x,-y,-z
_cell_length_a                   8.698(5)
_cell_length_b                   14.393(8)
_cell_length_c                   15.202(10)
_cell_angle_alpha                64.19(2)
_cell_angle_beta                 73.377(18)
_cell_angle_gamma                72.640(17)
_cell_volume                     1608.01
_exptl_crystal_colour            colorless
_exptl_crystal_description       stick
_cell_formula_units_Z            4
loop_
_atom_site_label
_atom_site_type_symbol
_atom_site_fract_x
_atom_site_fract_y
_atom_site_fract_z
S1 S 1.35347(8) -0.20786(5) 0.30999(4)
N1 N 1.3111(2) -0.00791(15) 0.34612(14)
N2 N 1.2413(2) 0.09191(15) 0.34420(14)
H1 H 1.2962 0.1377 0.3338
N3 N 0.9735(2) 0.19917(14) 0.36445(12)
N4 N 0.7033(2) 0.28919(14) 0.38617(13)
N5 N 0.5420(2) 0.30268(16) 0.37926(14)
O1 O 1.20769(19) -0.15612(12) 0.37904(13)
O2 O 1.3159(3) -0.30783(14) 0.33937(15)
O3 O 1.3609(3) -0.13639(16) 0.21000(13)
C1 C 0.2868(3) 0.4346(3) 0.3839(3)
H2 H 0.2616 0.4249 0.3313
H3 H 0.2584 0.5082 0.3726
H4 H 0.2253 0.3961 0.4463
C2 C 0.4666(3) 0.3950(2) 0.38606(18)
C3 C 0.5767(3) 0.44129(19) 0.39740(18)
H5 H 0.5527 0.5059 0.4034
C4 C 0.7258(3) 0.37400(17) 0.39793(16)
C5 C 0.8821(3) 0.3839(2) 0.4122(2)
H6 H 0.8636 0.4458 0.4261
H7 H 0.9629 0.3895 0.3529
H8 H 0.9204 0.3228 0.4669
C6 C 0.8161(3) 0.19634(16) 0.38179(14)
C7 C 0.7562(3) 0.10870(17) 0.39503(16)
H9 H 0.6438 0.1131 0.4064
C8 C 0.8627(3) 0.01691(17) 0.39127(15)
C9 C 1.0311(3) 0.01725(17) 0.37414(15)
C10 C 1.0749(3) 0.10958(17) 0.36075(14)
C11 C 0.8028(3) -0.0772(2) 0.4044(2)
H10 H 0.6855 -0.0647 0.4223
H11 H 0.8491 -0.1385 0.4560
H12 H 0.8356 -0.0884 0.3433
C12 C 1.1852(3) -0.05060(17) 0.36417(16)
C13 C 1.5296(3) -0.2241(2) 0.3537(2)
H13 H 1.6208 -0.2646 0.3240
H14 H 1.5121 -0.2603 0.4246
H15 H 1.5522 -0.1563 0.3363
S2 S 0.95560(8) 0.70793(5) 0.18994(4)
N6 N 0.7237(2) 0.19747(15) 0.12082(14)
N7 N 0.8790(2) 0.21036(14) 0.11372(13)
N8 N 1.0370(2) 0.30075(14) 0.13556(12)
N9 N 1.1778(2) 0.40806(15) 0.15598(14)
H16 H 1.2675 0.3625 0.1664
N10 N 1.1491(2) 0.50800(15) 0.15378(14)
O4 O 0.9310(2) 0.65622(12) 0.12099(12)
O5 O 0.9349(3) 0.63636(16) 0.29002(13)
O6 O 0.8480(2) 0.80789(14) 0.16057(15)
C14 C 0.6045(4) 0.0658(2) 0.1156(2)
H17 H 0.5218 0.0682 0.1725
H18 H 0.6400 -0.0055 0.1192
H19 H 0.5601 0.1097 0.0562
C15 C 0.7479(3) 0.1049(2) 0.11400(18)
C16 C 0.9148(3) 0.05849(19) 0.10256(18)
H20 H 0.9607 -0.0061 0.0964
C17 C 0.9980(3) 0.12604(18) 0.10212(16)
C18 C 1.1780(3) 0.1160(2) 0.0879(2)
H21 H 1.2108 0.1770 0.0333
H22 H 1.2343 0.0541 0.0741
H23 H 1.2049 0.1103 0.1473
C19 C 0.8941(3) 0.30376(16) 0.11820(15)
C20 C 0.7602(3) 0.39120(18) 0.10479(16)
H24 H 0.6640 0.3864 0.0932
C21 C 0.7709(3) 0.48298(17) 0.10870(15)
C22 C 0.9226(3) 0.48246(17) 0.12599(15)
C23 C 1.0448(3) 0.39074(17) 0.13933(14)
C24 C 0.6302(3) 0.5769(2) 0.0958(2)
H25 H 0.5429 0.5638 0.0786
H26 H 0.6668 0.6383 0.0438
H27 H 0.5915 0.5884 0.1568
C25 C 0.9993(3) 0.55067(17) 0.13581(16)
C26 C 1.1584(3) 0.7239(2) 0.1466(2)
H28 H 1.1800 0.7644 0.1763
H29 H 1.1763 0.7601 0.0757
H30 H 1.2305 0.6561 0.1640
O7 O 0.43550(17) 0.24975(12) 0.25023(11)
H31 H 0.4621 0.2712 0.2868
H32 H 0.5186 0.2369 0.2083
loop_
_geom_bond_atom_site_label_1
_geom_bond_atom_site_label_2
_geom_bond_site_symmetry_1
_geom_bond_site_symmetry_2
S1 O1 1_555 1_555
N1 N2 1_555 1_555
N2 H1 1_555 1_555
N3 C6 1_555 1_555
N4 N5 1_555 1_555
N5 C2 1_555 1_555
O1 C12 1_555 1_555
O2 S1 1_555 1_555
O3 S1 1_555 1_555
C1 H2 1_555 1_555
H3 C1 1_555 1_555
H4 C1 1_555 1_555
C2 C1 1_555 1_555
C3 C2 1_555 1_555
H5 C3 1_555 1_555
C4 N4 1_555 1_555
C5 C4 1_555 1_555
H6 C5 1_555 1_555
H7 C5 1_555 1_555
H8 C5 1_555 1_555
C6 N4 1_555 1_555
C7 C6 1_555 1_555
H9 C7 1_555 1_555
C8 C7 1_555 1_555
C9 C8 1_555 1_555
C10 N2 1_555 1_555
C11 C8 1_555 1_555
H10 C11 1_555 1_555
H11 C11 1_555 1_555
H12 C11 1_555 1_555
C12 N1 1_555 1_555
C13 S1 1_555 1_555
H13 C13 1_555 1_555
H14 C13 1_555 1_555
H15 C13 1_555 1_555
S2 O4 1_555 1_555
N6 N7 1_555 1_555
N7 C17 1_555 1_555
N8 C19 1_555 1_555
N9 H16 1_555 1_555
N10 N9 1_555 1_555
O4 C25 1_555 1_555
O5 S2 1_555 1_555
O6 S2 1_555 1_555
C14 H17 1_555 1_555
H18 C14 1_555 1_555
H19 C14 1_555 1_555
C15 N6 1_555 1_555
C16 C15 1_555 1_555
H20 C16 1_555 1_555
C17 C16 1_555 1_555
C18 C17 1_555 1_555
H21 C18 1_555 1_555
H22 C18 1_555 1_555
H23 C18 1_555 1_555
C19 N7 1_555 1_555
C20 C19 1_555 1_555
H24 C20 1_555 1_555
C21 C20 1_555 1_555
C22 C21 1_555 1_555
C23 N8 1_555 1_555
C24 C21 1_555 1_555
H25 C24 1_555 1_555
H26 C24 1_555 1_555
H27 C24 1_555 1_555
C25 N10 1_555 1_555
C26 S2 1_555 1_555
H28 C26 1_555 1_555
H29 C26 1_555 1_555
H30 C26 1_555 1_555
O7 H31 1_555 1_555
H32 O7 1_555 1_555
N3 C10 1_555 1_555
C3 C4 1_555 1_555
C9 C10 1_555 1_555
C9 C12 1_555 1_555
N9 C23 1_555 1_555
C14 C15 1_555 1_555
C22 C23 1_555 1_555
C22 C25 1_555 1_555

#END
