
#######################################################################
#
#                 Cambridge Crystallographic Data Centre
#                                CCDC 
#
#######################################################################
#
# If this CIF has been generated from an entry in the Cambridge 
# Structural Database, then it will include bibliographic, chemical, 
# crystal, experimental, refinement or atomic coordinate data resulting 
# from the CCDC's data processing and validation procedures.
#
#######################################################################

data_ZOCRUG
_chemical_formula_moiety         'C13 H8 Cl2 F3 N5'
_chemical_name_systematic        
N-(2,4-Dichlorophenyl)-5-methyl-2-(trifluoromethyl)[1,2,4]triazolo[1,5-a]pyrimidin-7-amine
_symmetry_cell_setting           triclinic
_symmetry_space_group_name_H-M   'P -1'
_symmetry_Int_Tables_number      2
_space_group_name_Hall           '-P 1'
loop_
_symmetry_equiv_pos_site_id
_symmetry_equiv_pos_as_xyz
1 x,y,z
2 -x,-y,-z
_cell_length_a                   10.3771(2)
_cell_length_b                   11.7351(2)
_cell_length_c                   13.4214(3)
_cell_angle_alpha                83.8920(10)
_cell_angle_beta                 78.2050(10)
_cell_angle_gamma                64.9960(10)
_cell_volume                     1449.58
_exptl_crystal_colour            colorless
_exptl_crystal_description       prism
_cell_formula_units_Z            4
loop_
_atom_site_label
_atom_site_type_symbol
_atom_site_fract_x
_atom_site_fract_y
_atom_site_fract_z
Cl1 Cl 0.66878(6) 0.10184(5) 0.47499(4)
Cl2 Cl 0.48537(5) 0.58241(5) 0.34031(4)
F1 F 0.82974(16) 0.96790(12) -0.00308(13)
F2 F 1.05067(16) 0.84312(14) -0.02605(14)
N1 N 0.82229(17) 0.60551(14) 0.05937(12)
F3 F 0.9267(2) 0.87702(18) 0.12503(11)
N2 N 0.86636(18) 0.72624(15) -0.06913(12)
N3 N 0.85847(18) 0.68588(15) 0.10335(12)
N4 N 0.78065(19) 0.49837(16) 0.20953(12)
H1 H 0.796(3) 0.551(2) 0.2417(18)
N5 N 0.79256(19) 0.56731(15) -0.10440(12)
C1 C 0.5926(2) 0.33828(18) 0.39864(15)
H2 H 0.5048 0.3586 0.4460
C2 C 0.7512(2) 0.47801(19) -0.05682(15)
C3 C 0.7451(2) 0.44971(18) 0.04731(14)
H3 H 0.7157 0.3851 0.0760
C4 C 0.6982(2) 0.21620(18) 0.39181(15)
C5 C 0.8262(2) 0.63095(18) -0.04430(14)
C6 C 0.7814(2) 0.51459(17) 0.10938(14)
C7 C 0.8254(2) 0.18385(19) 0.32213(16)
H4 H 0.8942 0.0989 0.3166
C8 C 0.7483(2) 0.40138(18) 0.26682(14)
C9 C 0.8822(2) 0.75360(18) 0.02157(15)
C10 C 0.6185(2) 0.43021(18) 0.33440(15)
C11 C 0.8510(2) 0.27746(19) 0.26031(15)
H5 H 0.9391 0.2568 0.2133
C12 C 0.9235(2) 0.8602(2) 0.03032(16)
C13 C 0.7096(3) 0.4073(2) -0.12171(17)
H6 H 0.6266 0.4659 -0.1518
H7 H 0.6838 0.3439 -0.0797
H8 H 0.7911 0.3658 -0.1761
C14 C 0.4427(2) 0.14481(19) 0.18935(15)
Cl3 Cl 0.47515(6) -0.18392(5) 0.10726(4)
Cl4 Cl 0.54323(6) 0.23401(5) 0.16006(4)
F4 F -0.02708(16) 0.85431(12) 0.48047(11)
F5 F -0.01105(18) 0.80436(13) 0.32811(11)
F6 F 0.17349(15) 0.80212(12) 0.37758(13)
N6 N 0.14272(18) 0.55278(15) 0.37200(12)
N7 N 0.18801(17) 0.44735(14) 0.43299(12)
N8 N 0.2589(2) 0.30815(16) 0.30233(13)
H9 H 0.230(3) 0.373(2) 0.2605(19)
N9 N 0.11435(18) 0.60455(15) 0.53810(12)
N10 N 0.21355(18) 0.39223(15) 0.60699(12)
C15 C 0.2751(2) 0.27220(18) 0.57762(14)
C16 C 0.2473(2) 0.32558(18) 0.40140(14)
C17 C 0.1016(2) 0.64075(18) 0.44026(15)
C18 C 0.3148(2) 0.18696(18) 0.26032(14)
C19 C 0.0576(2) 0.77591(19) 0.40656(15)
C20 C 0.2914(2) 0.23617(18) 0.47802(14)
H10 H 0.3333 0.1494 0.4627
C21 C 0.1717(2) 0.47891(18) 0.53278(14)
C22 C 0.2881(2) -0.00290(19) 0.23887(16)
H11 H 0.2363 -0.0544 0.2565
C23 C 0.4928(2) 0.03096(19) 0.14109(15)
H12 H 0.5790 0.0034 0.0917
C24 C 0.4135(2) -0.04123(18) 0.16700(15)
C25 C 0.3315(2) 0.17470(19) 0.65822(15)
H13 H 0.4217 0.1740 0.6707
H14 H 0.3498 0.0918 0.6353
H15 H 0.2600 0.1947 0.7212
C26 C 0.2390(2) 0.11166(19) 0.28477(15)
H16 H 0.1523 0.1391 0.3337
loop_
_geom_bond_atom_site_label_1
_geom_bond_atom_site_label_2
_geom_bond_site_symmetry_1
_geom_bond_site_symmetry_2
Cl1 C4 1_555 1_555
Cl2 C10 1_555 1_555
F1 C12 1_555 1_555
F2 C12 1_555 1_555
N1 N3 1_555 1_555
F3 C12 1_555 1_555
N2 C5 1_555 1_555
N3 C9 1_555 1_555
N4 H1 1_555 1_555
N5 C2 1_555 1_555
C1 H2 1_555 1_555
C2 C3 1_555 1_555
C3 H3 1_555 1_555
C4 C1 1_555 1_555
C5 N1 1_555 1_555
C6 N1 1_555 1_555
C7 C4 1_555 1_555
H4 C7 1_555 1_555
C8 N4 1_555 1_555
C9 N2 1_555 1_555
C10 C1 1_555 1_555
C11 C7 1_555 1_555
H5 C11 1_555 1_555
C12 C9 1_555 1_555
C13 C2 1_555 1_555
H6 C13 1_555 1_555
H7 C13 1_555 1_555
H8 C13 1_555 1_555
C14 Cl4 1_555 1_555
Cl3 C24 1_555 1_555
F4 C19 1_555 1_555
F5 C19 1_555 1_555
F6 C19 1_555 1_555
N6 N7 1_555 1_555
N7 C16 1_555 1_555
N8 H9 1_555 1_555
N9 C17 1_555 1_555
N10 C15 1_555 1_555
C15 C20 1_555 1_555
C16 N8 1_555 1_555
C17 N6 1_555 1_555
C18 C14 1_555 1_555
C19 C17 1_555 1_555
C20 C16 1_555 1_555
H10 C20 1_555 1_555
C21 N7 1_555 1_555
C22 H11 1_555 1_555
C23 C14 1_555 1_555
H12 C23 1_555 1_555
C24 C22 1_555 1_555
C25 C15 1_555 1_555
H13 C25 1_555 1_555
H14 C25 1_555 1_555
H15 C25 1_555 1_555
C26 C18 1_555 1_555
H16 C26 1_555 1_555
N4 C6 1_555 1_555
N5 C5 1_555 1_555
C3 C6 1_555 1_555
C8 C10 1_555 1_555
C8 C11 1_555 1_555
N8 C18 1_555 1_555
N9 C21 1_555 1_555
N10 C21 1_555 1_555
C22 C26 1_555 1_555
C23 C24 1_555 1_555

#END
