
#######################################################################
#
#                 Cambridge Crystallographic Data Centre
#                                CCDC 
#
#######################################################################
#
# If this CIF has been generated from an entry in the Cambridge 
# Structural Database, then it will include bibliographic, chemical, 
# crystal, experimental, refinement or atomic coordinate data resulting 
# from the CCDC's data processing and validation procedures.
#
#######################################################################

data_ZOCVEU
_chemical_formula_moiety         'C16 H15 B1 N2'
_chemical_name_systematic        
2,3-diphenyl-2,5-dihydro-1H-1,2-azaborol-1-ium-2-carbonitrile
_symmetry_cell_setting           orthorhombic
_symmetry_space_group_name_H-M   'F d d 2'
_symmetry_Int_Tables_number      43
_space_group_name_Hall           'F 2 -2d'
loop_
_symmetry_equiv_pos_site_id
_symmetry_equiv_pos_as_xyz
1 x,y,z
2 -x,-y,z
3 1/4+x,1/4-y,1/4+z
4 1/4-x,1/4+y,1/4+z
5 x,1/2+y,1/2+z
6 -x,1/2-y,1/2+z
7 1/4+x,3/4-y,3/4+z
8 1/4-x,3/4+y,3/4+z
9 1/2+x,y,1/2+z
10 1/2-x,-y,1/2+z
11 3/4+x,1/4-y,3/4+z
12 3/4-x,1/4+y,3/4+z
13 1/2+x,1/2+y,z
14 1/2-x,1/2-y,z
15 3/4+x,3/4-y,1/4+z
16 3/4-x,3/4+y,1/4+z
_cell_length_a                   24.3106(16)
_cell_length_b                   34.885(2)
_cell_length_c                   6.4451(4)
_cell_angle_alpha                90
_cell_angle_beta                 90
_cell_angle_gamma                90
_cell_volume                     5465.93
_exptl_crystal_colour            colorless
_cell_formula_units_Z            16
loop_
_atom_site_label
_atom_site_type_symbol
_atom_site_fract_x
_atom_site_fract_y
_atom_site_fract_z
N1 N 0.26281(6) 0.05654(4) 0.2953(2)
H1 H 0.2456 0.0446 0.4008
H2 H 0.2864 0.0398 0.2368
N2 N 0.24008(8) 0.03446(5) -0.2465(2)
C1 C 0.23150(6) 0.11572(4) 0.1215(2)
C2 C 0.27171(7) 0.12358(5) 0.2566(3)
H3 H 0.2851 0.1483 0.2750
C3 C 0.29368(8) 0.09048(5) 0.3755(3)
H4 H 0.2873 0.0938 0.5230
H5 H 0.3329 0.0875 0.3519
C4 C 0.15641(7) 0.05966(5) 0.1977(2)
C5 C 0.12286(8) 0.03295(5) 0.1022(3)
H6 H 0.1358 0.0201 -0.0143
C6 C 0.07046(8) 0.02484(6) 0.1750(4)
H7 H 0.0489 0.0067 0.1070
C7 C 0.05020(8) 0.04324(6) 0.3464(3)
H8 H 0.0151 0.0376 0.3952
C8 C 0.08213(9) 0.07001(7) 0.4454(3)
H9 H 0.0688 0.0827 0.5620
C9 C 0.13449(8) 0.07809(7) 0.3707(3)
H10 H 0.1556 0.0964 0.4385
C10 C 0.20148(7) 0.14514(5) 0.0018(2)
C11 C 0.16868(9) 0.13501(6) -0.1661(3)
H11 H 0.1658 0.1093 -0.2038
C12 C 0.14002(10) 0.16262(7) -0.2790(3)
H12 H 0.1184 0.1551 -0.3909
C13 C 0.14336(9) 0.20050(6) -0.2274(4)
H13 H 0.1243 0.2188 -0.3039
C14 C 0.17521(9) 0.21127(6) -0.0608(4)
H14 H 0.1777 0.2370 -0.0247
C15 C 0.20359(8) 0.18410(5) 0.0534(3)
H15 H 0.2245 0.1919 0.1667
C16 C 0.23194(7) 0.04945(5) -0.0921(2)
B1 B 0.21773(7) 0.07058(5) 0.1237(3)
loop_
_geom_bond_atom_site_label_1
_geom_bond_atom_site_label_2
_geom_bond_site_symmetry_1
_geom_bond_site_symmetry_2
N1 H1 1_555 1_555
H2 N1 1_555 1_555
N2 C16 1_555 1_555
C1 C2 1_555 1_555
C2 H3 1_555 1_555
C3 N1 1_555 1_555
H4 C3 1_555 1_555
H5 C3 1_555 1_555
C4 C5 1_555 1_555
C5 H6 1_555 1_555
C6 C5 1_555 1_555
H7 C6 1_555 1_555
C7 C6 1_555 1_555
H8 C7 1_555 1_555
C8 C7 1_555 1_555
H9 C8 1_555 1_555
C9 C4 1_555 1_555
H10 C9 1_555 1_555
C10 C1 1_555 1_555
C11 C10 1_555 1_555
H11 C11 1_555 1_555
C12 C11 1_555 1_555
H12 C12 1_555 1_555
C13 C12 1_555 1_555
H13 C13 1_555 1_555
C14 C13 1_555 1_555
H14 C14 1_555 1_555
C15 C10 1_555 1_555
H15 C15 1_555 1_555
C16 B1 1_555 1_555
B1 N1 1_555 1_555
C1 B1 1_555 1_555
C2 C3 1_555 1_555
C4 B1 1_555 1_555
C8 C9 1_555 1_555
C14 C15 1_555 1_555

#END
