
#######################################################################
#
#                 Cambridge Crystallographic Data Centre
#                                CCDC 
#
#######################################################################
#
# If this CIF has been generated from an entry in the Cambridge 
# Structural Database, then it will include bibliographic, chemical, 
# crystal, experimental, refinement or atomic coordinate data resulting 
# from the CCDC's data processing and validation procedures.
#
#######################################################################

data_ZOCVAQ
_chemical_formula_moiety         'C12 H15 B1 N2'
_chemical_name_systematic        
1-ethyl-3-phenyl-1,5-dihydro-2H-1,2-azaborate-1-ium-2-carbonitrile
_symmetry_cell_setting           orthorhombic
_symmetry_space_group_name_H-M   'P 21 21 21'
_symmetry_Int_Tables_number      19
_space_group_name_Hall           'P 2ac 2ab'
loop_
_symmetry_equiv_pos_site_id
_symmetry_equiv_pos_as_xyz
1 x,y,z
2 1/2-x,-y,1/2+z
3 -x,1/2+y,1/2-z
4 1/2+x,1/2-y,-z
_cell_length_a                   9.4537(9)
_cell_length_b                   11.0206(11)
_cell_length_c                   11.4373(11)
_cell_angle_alpha                90
_cell_angle_beta                 90
_cell_angle_gamma                90
_cell_volume                     1191.6
_exptl_crystal_colour            colorless
_exptl_crystal_description       block
_cell_formula_units_Z            4
loop_
_atom_site_label
_atom_site_type_symbol
_atom_site_fract_x
_atom_site_fract_y
_atom_site_fract_z
N1 N 0.82746(13) 0.53182(11) 0.67010(11)
H1 H 0.7865 0.5548 0.6016
N2 N 0.7625(2) 0.36891(16) 0.94009(13)
C1 C 0.85562(14) 0.31429(14) 0.63270(11)
C2 C 0.97722(17) 0.50317(16) 0.63967(18)
H2 H 1.0107 0.5552 0.5771
H3 H 1.0385 0.5131 0.7070
C3 C 0.97281(16) 0.37407(17) 0.60150(15)
H4 H 1.0456 0.3379 0.5594
C4 C 0.82653(15) 0.18558(15) 0.60890(12)
C5 C 0.90322(19) 0.11816(18) 0.52679(14)
H5 H 0.9749 0.1558 0.4845
C6 C 0.8747(2) -0.0025(2) 0.50740(17)
H6 H 0.9277 -0.0455 0.4528
C7 C 0.7681(2) -0.06021(19) 0.56833(19)
H7 H 0.7487 -0.1417 0.5546
C8 C 0.6905(2) 0.00399(17) 0.64976(18)
H8 H 0.6189 -0.0342 0.6916
C9 C 0.71962(16) 0.12507(16) 0.66887(15)
H9 H 0.6661 0.1675 0.7235
C10 C 0.76082(17) 0.38481(14) 0.84204(14)
C11 C 0.8128(2) 0.63821(17) 0.74872(15)
H10 H 0.8649 0.7060 0.7161
H11 H 0.8540 0.6189 0.8241
C12 C 0.6617(2) 0.67485(19) 0.76575(19)
H12 H 0.6106 0.6095 0.8018
H13 H 0.6200 0.6933 0.6913
H14 H 0.6576 0.7453 0.8150
B1 B 0.75416(17) 0.40524(16) 0.70311(14)
H15 H 0.6567 0.4013 0.6741
loop_
_geom_bond_atom_site_label_1
_geom_bond_atom_site_label_2
_geom_bond_site_symmetry_1
_geom_bond_site_symmetry_2
N1 H1 1_555 1_555
N2 C10 1_555 1_555
C1 C3 1_555 1_555
C2 N1 1_555 1_555
H2 C2 1_555 1_555
H3 C2 1_555 1_555
C3 C2 1_555 1_555
H4 C3 1_555 1_555
C4 C1 1_555 1_555
C5 C4 1_555 1_555
H5 C5 1_555 1_555
C6 C5 1_555 1_555
H6 C6 1_555 1_555
C7 C6 1_555 1_555
H7 C7 1_555 1_555
C8 C7 1_555 1_555
H8 C8 1_555 1_555
C9 C4 1_555 1_555
H9 C9 1_555 1_555
C10 B1 1_555 1_555
C11 N1 1_555 1_555
H10 C11 1_555 1_555
H11 C11 1_555 1_555
C12 C11 1_555 1_555
H12 C12 1_555 1_555
H13 C12 1_555 1_555
H14 C12 1_555 1_555
B1 N1 1_555 1_555
H15 B1 1_555 1_555
C1 B1 1_555 1_555
C8 C9 1_555 1_555

#END
