
#######################################################################
#
#                 Cambridge Crystallographic Data Centre
#                                CCDC 
#
#######################################################################
#
# If this CIF has been generated from an entry in the Cambridge 
# Structural Database, then it will include bibliographic, chemical, 
# crystal, experimental, refinement or atomic coordinate data resulting 
# from the CCDC's data processing and validation procedures.
#
#######################################################################

data_ZODKAG
_chemical_formula_moiety         'C16 H12 Br1 N1 O3'
_chemical_name_systematic        
'methyl 6-bromo-3-oxo-1-phenylisoindoline-1-carboxylate'
_symmetry_cell_setting           monoclinic
_symmetry_space_group_name_H-M   'C 2'
_symmetry_Int_Tables_number      5
_space_group_name_Hall           'C 2y'
loop_
_symmetry_equiv_pos_site_id
_symmetry_equiv_pos_as_xyz
1 x,y,z
2 -x,y,-z
3 1/2+x,1/2+y,z
4 1/2-x,1/2+y,-z
_cell_length_a                   26.917(4)
_cell_length_b                   8.0767(6)
_cell_length_c                   14.993(4)
_cell_angle_alpha                90
_cell_angle_beta                 118.491(12)
_cell_angle_gamma                90
_cell_volume                     2864.74
_exptl_crystal_colour            colorless
_exptl_crystal_description       prismatic
_cell_formula_units_Z            8
loop_
_atom_site_label
_atom_site_type_symbol
_atom_site_fract_x
_atom_site_fract_y
_atom_site_fract_z
Br1 Br -0.065980(10) 0.42977(3) -0.247144(17)
O1 O 0.18981(7) 0.6343(2) 0.18571(13)
O2 O 0.06504(7) 0.0468(2) 0.08790(13)
O3 O 0.14794(7) 0.0861(2) 0.23008(13)
N1 N 0.17529(9) 0.3527(3) 0.15493(16)
H1 H 0.2075(12) 0.317(3) 0.200(2)
C1 C 0.13300(10) 0.2375(3) 0.08201(18)
C2 C 0.16094(10) 0.5149(3) 0.13629(18)
C3 C 0.10394(10) 0.5197(3) 0.04419(18)
C4 C 0.07116(11) 0.6557(3) -0.00677(19)
H2 H 0.0832 0.7652 0.0166
C5 C 0.01984(11) 0.6256(3) -0.09356(19)
H3 H -0.0037 0.7154 -0.1309
C6 C 0.00328(9) 0.4627(3) -0.12537(16)
C7 C 0.03580(11) 0.3254(3) -0.07336(19)
H4 H 0.0236 0.2155 -0.0956
C8 C 0.08686(10) 0.3581(3) 0.01250(19)
C9 C 0.15769(10) 0.1338(3) 0.02550(18)
C10 C 0.16196(11) 0.2037(3) -0.05537(19)
H5 H 0.1497 0.3143 -0.0755
C11 C 0.18421(12) 0.1117(3) -0.1071(2)
H6 H 0.1867 0.1600 -0.1626
C12 C 0.20258(10) -0.0487(3) -0.07822(19)
H7 H 0.2177 -0.1106 -0.1135
C13 C 0.19874(12) -0.1191(3) 0.0033(2)
H8 H 0.2112 -0.2295 0.0236
C14 C 0.17672(10) -0.0282(3) 0.05484(18)
H9 H 0.1746 -0.0766 0.1106
C15 C 0.11002(11) 0.1143(3) 0.13292(19)
C16 C 0.13155(11) -0.0433(3) 0.27901(19)
H10 H 0.0935 -0.0204 0.2691
H11 H 0.1583 -0.0454 0.3518
H12 H 0.1318 -0.1508 0.2490
Br2 Br 0.541811(11) 0.48414(3) 0.744145(19)
O4 O 0.28652(7) 0.2932(2) 0.30796(14)
O5 O 0.34436(7) 0.9015(2) 0.52464(13)
O6 O 0.27982(8) 0.6951(2) 0.47654(14)
N2 N 0.30367(9) 0.5737(3) 0.33769(16)
H13 H 0.2710(11) 0.610(3) 0.294(2)
C17 C 0.34557(10) 0.6870(3) 0.41210(18)
C18 C 0.31647(10) 0.4111(3) 0.35639(17)
C19 C 0.37329(10) 0.4023(3) 0.44783(17)
C20 C 0.40540(11) 0.2641(3) 0.4986(2)
H14 H 0.3931 0.1552 0.4741
C21 C 0.45612(12) 0.2919(3) 0.5864(2)
H15 H 0.4794 0.2008 0.6225
C22 C 0.47298(9) 0.4522(3) 0.62158(17)
C23 C 0.44120(11) 0.5924(3) 0.57122(19)
H16 H 0.4535 0.7012 0.5961
C24 C 0.39059(10) 0.5634(3) 0.48263(19)
C25 C 0.36501(11) 0.8138(3) 0.35939(18)
C26 C 0.41993(12) 0.8169(3) 0.3722(2)
H17 H 0.4478 0.7438 0.4191
C27 C 0.43388(11) 0.9284(4) 0.3158(2)
H18 H 0.4714 0.9307 0.3253
C28 C 0.39389(12) 1.0345(3) 0.2467(2)
H19 H 0.4036 1.1085 0.2082
C29 C 0.33941(12) 1.0322(3) 0.2339(2)
H20 H 0.3116 1.1048 0.1864
C30 C 0.32519(10) 0.9235(3) 0.29065(18)
H21 H 0.2879 0.9244 0.2823
C31 C 0.32327(10) 0.7763(3) 0.47700(18)
C32 C 0.25850(12) 0.7623(3) 0.5418(2)
H22 H 0.2883 0.7574 0.6127
H23 H 0.2259 0.6971 0.5337
H24 H 0.2470 0.8777 0.5230
loop_
_geom_bond_atom_site_label_1
_geom_bond_atom_site_label_2
_geom_bond_site_symmetry_1
_geom_bond_site_symmetry_2
Br1 C6 1_555 1_555
O1 C2 1_555 1_555
O2 C15 1_555 1_555
O3 C15 1_555 1_555
N1 H1 1_555 1_555
C1 N1 1_555 1_555
C2 N1 1_555 1_555
C3 C2 1_555 1_555
C4 C3 1_555 1_555
H2 C4 1_555 1_555
C5 C4 1_555 1_555
H3 C5 1_555 1_555
C6 C5 1_555 1_555
C7 C6 1_555 1_555
H4 C7 1_555 1_555
C8 C1 1_555 1_555
C9 C1 1_555 1_555
C10 C9 1_555 1_555
H5 C10 1_555 1_555
C11 C10 1_555 1_555
H6 C11 1_555 1_555
C12 C11 1_555 1_555
H7 C12 1_555 1_555
C13 C12 1_555 1_555
H8 C13 1_555 1_555
C14 C9 1_555 1_555
H9 C14 1_555 1_555
C15 C1 1_555 1_555
C16 O3 1_555 1_555
H10 C16 1_555 1_555
H11 C16 1_555 1_555
H12 C16 1_555 1_555
Br2 C22 1_555 1_555
O4 C18 1_555 1_555
O5 C31 1_555 1_555
O6 C31 1_555 1_555
N2 H13 1_555 1_555
C17 N2 1_555 1_555
C18 N2 1_555 1_555
C19 C18 1_555 1_555
C20 C19 1_555 1_555
H14 C20 1_555 1_555
C21 C20 1_555 1_555
H15 C21 1_555 1_555
C22 C21 1_555 1_555
C23 C22 1_555 1_555
H16 C23 1_555 1_555
C24 C17 1_555 1_555
C25 C17 1_555 1_555
C26 C25 1_555 1_555
H17 C26 1_555 1_555
C27 C26 1_555 1_555
H18 C27 1_555 1_555
C28 C27 1_555 1_555
H19 C28 1_555 1_555
C29 C28 1_555 1_555
H20 C29 1_555 1_555
C30 C25 1_555 1_555
H21 C30 1_555 1_555
C31 C17 1_555 1_555
C32 O6 1_555 1_555
H22 C32 1_555 1_555
H23 C32 1_555 1_555
H24 C32 1_555 1_555
C3 C8 1_555 1_555
C7 C8 1_555 1_555
C13 C14 1_555 1_555
C19 C24 1_555 1_555
C23 C24 1_555 1_555
C29 C30 1_555 1_555

#END
