
#######################################################################
#
#                 Cambridge Crystallographic Data Centre
#                                CCDC 
#
#######################################################################
#
# If this CIF has been generated from an entry in the Cambridge 
# Structural Database, then it will include bibliographic, chemical, 
# crystal, experimental, refinement or atomic coordinate data resulting 
# from the CCDC's data processing and validation procedures.
#
#######################################################################

data_ZODLAH
_chemical_formula_moiety         'C35 H27 N7'
_chemical_name_systematic        
6,6'-pyridine-2,6-diylbis(6-methyl-5,6-dihydrobenzimidazo[1,2-c]quinazoline)
_symmetry_cell_setting           monoclinic
_symmetry_space_group_name_H-M   'P 21/n'
_symmetry_Int_Tables_number      14
_space_group_name_Hall           '-P 2yn'
loop_
_symmetry_equiv_pos_site_id
_symmetry_equiv_pos_as_xyz
1 x,y,z
2 1/2-x,1/2+y,1/2-z
3 -x,-y,-z
4 1/2+x,1/2-y,1/2+z
_cell_length_a                   11.9764(3)
_cell_length_b                   19.8384(5)
_cell_length_c                   12.5324(3)
_cell_angle_alpha                90
_cell_angle_beta                 112.803(2)
_cell_angle_gamma                90
_cell_volume                     2744.88
_exptl_crystal_colour            white
_exptl_crystal_description       Block
_cell_formula_units_Z            4
loop_
_atom_site_label
_atom_site_type_symbol
_atom_site_fract_x
_atom_site_fract_y
_atom_site_fract_z
N1 N 0.4599(2) 0.88177(13) 0.2915(2)
N2 N 0.4662(2) 0.93145(16) 0.1005(2)
N3 N 0.7863(2) 0.80019(16) 0.7279(2)
N4 N 0.6607(2) 0.80681(15) 0.5418(2)
C1 C 0.6179(3) 0.71978(16) 0.6526(3)
N5 N 0.3733(3) 1.03269(17) 0.1254(3)
H1 H 0.3089 1.0562 0.0913
C2 C 0.5568(3) 0.79427(18) 0.4322(3)
N6 N 0.6655(3) 0.92181(18) 0.1373(3)
C3 C 0.5137(3) 0.70321(17) 0.5533(3)
C4 C 0.5792(3) 0.95907(18) 0.1441(3)
C5 C 0.4831(3) 0.85854(16) 0.3976(3)
C6 C 0.8238(3) 0.85417(17) 0.6721(3)
C7 C 0.3690(3) 0.95946(18) 0.1321(3)
C8 C 0.6913(3) 0.77611(17) 0.6451(3)
N7 N 0.4814(3) 0.74338(17) 0.4571(3)
H2 H 0.4092 0.7382 0.4058
C9 C 0.6439(3) 0.6807(2) 0.7536(3)
H3 H 0.7109 0.6911 0.8203
C10 C 0.9201(3) 0.89735(19) 0.7210(4)
H4 H 0.9699 0.8948 0.7992
C11 C 0.4417(3) 0.8900(2) 0.4734(3)
H5 H 0.4592 0.8727 0.5471
C12 C 0.5974(4) 0.7673(2) 0.3401(3)
H6 H 0.5279 0.7592 0.2702
H7 H 0.6409 0.7259 0.3664
H8 H 0.6493 0.7997 0.3254
C13 C 0.4435(3) 0.6491(2) 0.5582(4)
H9 H 0.3757 0.6374 0.4932
C14 C 0.7471(3) 0.85872(18) 0.5584(3)
C15 C 0.4822(4) 0.86552(19) 0.0670(3)
C16 C 0.8628(4) 0.9480(2) 0.5320(4)
H10 H 0.8781 0.9795 0.4844
C17 C 0.5934(4) 1.0288(2) 0.1917(3)
C18 C 0.6055(4) 0.8618(2) 0.0890(3)
C19 C 0.4900(4) 1.0636(2) 0.1783(3)
C20 C 0.3487(3) 0.9724(2) 0.3273(3)
H11 H 0.3026 1.0112 0.3013
C21 C 0.2431(3) 0.9377(3) 0.0515(4)
H12 H 0.2368 0.8895 0.0538
H13 H 0.2289 0.9517 -0.0261
H14 H 0.1841 0.9581 0.0756
C22 C 0.9402(4) 0.9451(2) 0.6487(5)
H15 H 1.0049 0.9750 0.6781
C23 C 0.3742(4) 0.9475(2) 0.4373(3)
H16 H 0.3455 0.9698 0.4869
C24 C 0.7647(4) 0.9057(2) 0.4852(4)
H17 H 0.7126 0.9086 0.4077
C25 C 0.4079(4) 0.8102(3) 0.0231(3)
H18 H 0.3260 0.8118 0.0099
C26 C 0.4727(4) 0.6127(3) 0.6571(4)
H19 H 0.4242 0.5764 0.6591
C27 C 0.7132(6) 1.1245(3) 0.2764(4)
H20 H 0.7888 1.1448 0.3101
C28 C 0.4582(6) 0.7540(2) 0.0000(4)
H21 H 0.4093 0.7166 -0.0303
C29 C 0.4965(5) 1.1303(2) 0.2125(4)
H22 H 0.4265 1.1542 0.2031
C30 C 0.6537(5) 0.8024(3) 0.0646(4)
H23 H 0.7358 0.7991 0.0792
C31 C 0.5720(4) 0.6285(2) 0.7537(4)
H24 H 0.5904 0.6028 0.8205
C32 C 0.5792(7) 0.7503(2) 0.0196(5)
H25 H 0.6099 0.7109 0.0013
C33 C 0.7040(4) 1.0590(3) 0.2418(4)
H26 H 0.7738 1.0346 0.2523
C34 C 0.6089(7) 1.1607(3) 0.2611(4)
H27 H 0.6147 1.2056 0.2836
C35 C 0.3937(3) 0.93772(17) 0.2577(3)
H28? H 0.6842 0.7640 0.3711
H29? H 0.5711 0.7973 0.2749
H30? H 0.5628 0.7235 0.3159
H31? H 0.1964 0.9767 0.0151
H32? H 0.2043 0.9145 0.0950
H33? H 0.2491 0.9081 -0.0067
loop_
_geom_bond_atom_site_label_1
_geom_bond_atom_site_label_2
_geom_bond_site_symmetry_1
_geom_bond_site_symmetry_2
N1 C5 1_555 1_555
N2 C4 1_555 1_555
N3 C6 1_555 1_555
N4 C2 1_555 1_555
C1 C3 1_555 1_555
N5 H1 1_555 1_555
C2 C5 1_555 1_555
N6 C4 1_555 1_555
C3 N7 1_555 1_555
C4 C17 1_555 1_555
C5 C11 1_555 1_555
C6 C10 1_555 1_555
C7 N2 1_555 1_555
C8 N3 1_555 1_555
N7 C2 1_555 1_555
H2 N7 1_555 1_555
C9 C1 1_555 1_555
H3 C9 1_555 1_555
C10 H4 1_555 1_555
C11 H5 1_555 1_555
C12 C2 1_555 1_555
H6 C12 1_555 1_555
H7 C12 1_555 1_555
H8 C12 1_555 1_555
C13 C3 1_555 1_555
H9 C13 1_555 1_555
C14 N4 1_555 1_555
C15 N2 1_555 1_555
C16 H10 1_555 1_555
C17 C19 1_555 1_555
C18 N6 1_555 1_555
C19 N5 1_555 1_555
C20 H11 1_555 1_555
C21 C7 1_555 1_555
H12 C21 1_555 1_555
H13 C21 1_555 1_555
H14 C21 1_555 1_555
C22 C10 1_555 1_555
H15 C22 1_555 1_555
C23 C11 1_555 1_555
H16 C23 1_555 1_555
C24 C14 1_555 1_555
H17 C24 1_555 1_555
C25 C15 1_555 1_555
H18 C25 1_555 1_555
C26 C13 1_555 1_555
H19 C26 1_555 1_555
C27 H20 1_555 1_555
C28 C25 1_555 1_555
H21 C28 1_555 1_555
C29 C19 1_555 1_555
H22 C29 1_555 1_555
C30 C18 1_555 1_555
H23 C30 1_555 1_555
C31 C9 1_555 1_555
H24 C31 1_555 1_555
C32 C28 1_555 1_555
H25 C32 1_555 1_555
C33 C17 1_555 1_555
H26 C33 1_555 1_555
C34 C27 1_555 1_555
H27 C34 1_555 1_555
C35 N1 1_555 1_555
N4 C8 1_555 1_555
C1 C8 1_555 1_555
N5 C7 1_555 1_555
C6 C14 1_555 1_555
C7 C35 1_555 1_555
C15 C18 1_555 1_555
C16 C22 1_555 1_555
C16 C24 1_555 1_555
C20 C23 1_555 1_555
C20 C35 1_555 1_555
C26 C31 1_555 1_555
C27 C33 1_555 1_555
C29 C34 1_555 1_555
C30 C32 1_555 1_555

#END
