
#######################################################################
#
#                 Cambridge Crystallographic Data Centre
#                                CCDC 
#
#######################################################################
#
# If this CIF has been generated from an entry in the Cambridge 
# Structural Database, then it will include bibliographic, chemical, 
# crystal, experimental, refinement or atomic coordinate data resulting 
# from the CCDC's data processing and validation procedures.
#
#######################################################################

data_ZODLEL
_chemical_formula_moiety         'C35 H29 N7 2+,2(H2 O1),2(Cl1 1-)'
_chemical_name_systematic        
"6,6'-pyridine-2,6-diylbis(6-methyl-5,6-dihydrobenzimidazo[1,2-c]quinazolin-12-ium) dichloride dihydrate"
_symmetry_cell_setting           monoclinic
_symmetry_space_group_name_H-M   'C 2/c'
_symmetry_Int_Tables_number      15
_space_group_name_Hall           '-C 2yn'
loop_
_symmetry_equiv_pos_site_id
_symmetry_equiv_pos_as_xyz
1 x,y,z
2 -x,y,1/2-z
3 1/2+x,1/2+y,z
4 1/2-x,1/2+y,1/2-z
5 -x,-y,-z
6 x,-y,1/2+z
7 1/2-x,1/2-y,-z
8 1/2+x,1/2-y,1/2+z
_cell_length_a                   15.7933(7)
_cell_length_b                   11.5458(4)
_cell_length_c                   17.1322(7)
_cell_angle_alpha                90
_cell_angle_beta                 99.286(4)
_cell_angle_gamma                90
_cell_volume                     3083.05
_exptl_crystal_colour            white
_exptl_crystal_description       Block
_cell_formula_units_Z            4
loop_
_atom_site_label
_atom_site_type_symbol
_atom_site_fract_x
_atom_site_fract_y
_atom_site_fract_z
Cl1 Cl 0.06762(4) 0.34618(5) 0.11170(3)
N1 N 0.0000 -0.17851(18) 0.2500
N2 N -0.08030(9) -0.04597(13) 0.13134(9)
C1 C 0.06595(11) -0.02445(16) 0.10674(10)
N3 N -0.02533(11) 0.12660(14) 0.15514(9)
C2 C -0.01010(12) 0.01942(15) 0.13234(10)
N4 N -0.02350(11) -0.18057(15) 0.05202(9)
C3 C -0.03726(11) -0.23854(15) 0.18697(10)
C4 C -0.10914(13) 0.13222(17) 0.16963(11)
C5 C 0.12396(14) -0.16842(17) 0.02798(12)
H1 H 0.1181 -0.2356 -0.0023
C6 C 0.05556(12) -0.12784(17) 0.06227(10)
C7 C -0.14469(12) 0.02247(17) 0.15622(10)
C8 C 0.20030(14) -0.10868(19) 0.03913(13)
H2 H 0.2453 -0.1351 0.0150
C9 C -0.03777(14) -0.35842(17) 0.18438(12)
H3 H -0.0632 -0.3973 0.1391
C10 C 0.0000 -0.4190(2) 0.2500
H4 H 0.0000 -0.4996 0.2500
C11 C 0.14499(12) 0.03290(17) 0.11887(12)
H5 H 0.1523 0.0999 0.1494
C12 C -0.07762(12) -0.17117(16) 0.11263(11)
C13 C -0.22935(13) 0.0022(2) 0.16542(13)
H6 H -0.2539 -0.0709 0.1576
C14 C -0.15489(15) 0.22625(19) 0.19117(12)
H7 H -0.1301 0.2992 0.1998
C15 C -0.23953(16) 0.2057(2) 0.19913(14)
H8 H -0.2731 0.2661 0.2129
C16 C 0.21150(13) -0.01016(19) 0.08555(14)
H9 H 0.2645 0.0269 0.0941
C17 C -0.16592(13) -0.21688(19) 0.07769(13)
H10 H -0.1992 -0.2283 0.1192
H11 H -0.1600 -0.2892 0.0515
H12 H -0.1943 -0.1619 0.0403
C18 C -0.27493(15) 0.0950(2) 0.18660(14)
H13 H -0.3317 0.0838 0.1929
H14 H -0.0360(17) -0.239(3) 0.0168(16)
H15 H 0.0078(16) 0.184(2) 0.1483(14)
N2A N 0.08030(9) -0.04597(13) 0.36866(9)
C1A C -0.06595(11) -0.02445(16) 0.39326(10)
N3A N 0.02533(11) 0.12660(14) 0.34486(9)
C2A C 0.01010(12) 0.01942(15) 0.36766(10)
N4A N 0.02350(11) -0.18057(15) 0.44798(9)
C3A C 0.03726(11) -0.23854(15) 0.31303(10)
C4A C 0.10914(13) 0.13222(17) 0.33037(11)
C5A C -0.12396(14) -0.16842(17) 0.47202(12)
H1A H -0.1181 -0.2356 0.5023
C6A C -0.05556(12) -0.12784(17) 0.43773(10)
C7A C 0.14469(12) 0.02247(17) 0.34378(10)
C8A C -0.20030(14) -0.10868(19) 0.46087(13)
H2A H -0.2453 -0.1351 0.4850
C9A C 0.03777(14) -0.35842(17) 0.31562(12)
H3A H 0.0632 -0.3973 0.3609
C11A C -0.14499(12) 0.03290(17) 0.38113(12)
H5A H -0.1523 0.0999 0.3506
C12A C 0.07762(12) -0.17117(16) 0.38737(11)
C13A C 0.22935(13) 0.0022(2) 0.33458(13)
H6A H 0.2539 -0.0709 0.3424
C14A C 0.15489(15) 0.22625(19) 0.30883(12)
H7A H 0.1301 0.2992 0.3002
C15A C 0.23953(16) 0.2057(2) 0.30087(14)
H8A H 0.2731 0.2661 0.2871
C16A C -0.21150(13) -0.01016(19) 0.41445(14)
H9A H -0.2645 0.0269 0.4059
C17A C 0.16592(13) -0.21688(19) 0.42231(13)
H10A H 0.1992 -0.2283 0.3808
H11A H 0.1600 -0.2892 0.4485
H12A H 0.1943 -0.1619 0.4597
C18A C 0.27493(15) 0.0950(2) 0.31340(14)
H13A H 0.3317 0.0838 0.3071
H14A H 0.0360(17) -0.239(3) 0.4832(16)
H15A H -0.0078(16) 0.184(2) 0.3517(14)
O1 O 0.10388(14) 0.5290(2) -0.02388(14)
H16 H 0.090(4) 0.470(5) 0.025(3)
H17 H 0.037(4) 0.582(5) -0.049(4)
loop_
_geom_bond_atom_site_label_1
_geom_bond_atom_site_label_2
_geom_bond_site_symmetry_1
_geom_bond_site_symmetry_2
N1 C3 1_555 1_555
N2 C2 1_555 1_555
C1 C2 1_555 1_555
N3 C2 1_555 1_555
N4 C6 1_555 1_555
C3 C9 1_555 1_555
C4 N3 1_555 1_555
C5 H1 1_555 1_555
C6 C1 1_555 1_555
C7 N2 1_555 1_555
C8 C5 1_555 1_555
H2 C8 1_555 1_555
C9 H3 1_555 1_555
C10 C9 1_555 1_555
H4 C10 1_555 1_555
C11 C1 1_555 1_555
H5 C11 1_555 1_555
C12 N2 1_555 1_555
C13 C7 1_555 1_555
H6 C13 1_555 1_555
C14 C4 1_555 1_555
H7 C14 1_555 1_555
C15 C14 1_555 1_555
H8 C15 1_555 1_555
C16 C8 1_555 1_555
H9 C16 1_555 1_555
C17 C12 1_555 1_555
H10 C17 1_555 1_555
H11 C17 1_555 1_555
H12 C17 1_555 1_555
C18 C13 1_555 1_555
H13 C18 1_555 1_555
H14 N4 1_555 1_555
H15 N3 1_555 1_555
O1 H16 1_555 1_555
H17 O1 1_555 1_555
N2A C2A 1_555 1_555
C1A C2A 1_555 1_555
N3A C2A 1_555 1_555
N4A C6A 1_555 1_555
C3A N1 1_555 1_555
C4A N3A 1_555 1_555
C5A H1A 1_555 1_555
C6A C1A 1_555 1_555
C7A N2A 1_555 1_555
C8A C5A 1_555 1_555
H2A C8A 1_555 1_555
C9A C10 1_555 1_555
H3A C9A 1_555 1_555
C11A C1A 1_555 1_555
H5A C11A 1_555 1_555
C12A N2A 1_555 1_555
C13A C7A 1_555 1_555
H6A C13A 1_555 1_555
C14A C4A 1_555 1_555
H7A C14A 1_555 1_555
C15A C14A 1_555 1_555
H8A C15A 1_555 1_555
C16A C8A 1_555 1_555
H9A C16A 1_555 1_555
C17A C12A 1_555 1_555
H10A C17A 1_555 1_555
H11A C17A 1_555 1_555
H12A C17A 1_555 1_555
C18A C13A 1_555 1_555
H13A C18A 1_555 1_555
H14A N4A 1_555 1_555
H15A N3A 1_555 1_555
N4 C12 1_555 1_555
C3 C12 1_555 1_555
C4 C7 1_555 1_555
C5 C6 1_555 1_555
C11 C16 1_555 1_555
C15 C18 1_555 1_555
N4A C12A 1_555 1_555
C3A C9A 1_555 1_555
C3A C12A 1_555 1_555
C4A C7A 1_555 1_555
C5A C6A 1_555 1_555
C11A C16A 1_555 1_555
C15A C18A 1_555 1_555

#END
