
#######################################################################
#
#                 Cambridge Crystallographic Data Centre
#                                CCDC 
#
#######################################################################
#
# If this CIF has been generated from an entry in the Cambridge 
# Structural Database, then it will include bibliographic, chemical, 
# crystal, experimental, refinement or atomic coordinate data resulting 
# from the CCDC's data processing and validation procedures.
#
#######################################################################

data_ZOFCEE
_chemical_formula_moiety         'C37 H31 N3 O4 S2,0.5(C1 H2 Cl2)'
_chemical_name_systematic        
"4,4'-(((9-anthrylmethyl)imino)bis(ethane-2,1-diylsulfanediyl))bis(2-methyl-1H-isoindole-1,3(2H)-dione) dichloromethane solvate"
_symmetry_cell_setting           monoclinic
_symmetry_space_group_name_H-M   'P 21/c'
_symmetry_Int_Tables_number      14
_space_group_name_Hall           '-P 2ybc'
loop_
_symmetry_equiv_pos_site_id
_symmetry_equiv_pos_as_xyz
1 x,y,z
2 -x,1/2+y,1/2-z
3 -x,-y,-z
4 x,1/2-y,1/2+z
_cell_length_a                   5.1901(9)
_cell_length_b                   43.067(7)
_cell_length_c                   15.261(4)
_cell_angle_alpha                90
_cell_angle_beta                 98.17(2)
_cell_angle_gamma                90
_cell_volume                     3376.55
_exptl_crystal_colour            yellow
_exptl_crystal_description       needle
_cell_formula_units_Z            4
loop_
_atom_site_label
_atom_site_type_symbol
_atom_site_fract_x
_atom_site_fract_y
_atom_site_fract_z
C1 C 0.1945(15) 0.16358(18) 0.6667(7)
H1 H 0.0862 0.1509 0.6947
C2 C 0.1554(17) 0.1654(2) 0.5770(7)
H2 H 0.0193 0.1542 0.5457
C3 C 0.311(2) 0.1835(2) 0.5303(8)
H3 H 0.2834 0.1841 0.4688
C4 C 0.5047(19) 0.2002(2) 0.5774(9)
H4 H 0.6077 0.2125 0.5465
C5 C 0.5591(17) 0.1998(2) 0.6716(8)
C6 C 0.7559(16) 0.2176(2) 0.7178(8)
H5 H 0.8602 0.2296 0.6865
C7 C 0.8000(18) 0.2178(2) 0.8073(8)
C8 C 1.0017(18) 0.2365(2) 0.8532(9)
H6 H 1.1091 0.2477 0.8209
C9 C 1.041(2) 0.2383(2) 0.9418(10)
H7 H 1.1723 0.2509 0.9701
C10 C 0.882(2) 0.2211(2) 0.9924(8)
H8 H 0.9095 0.2223 1.0539
C11 C 0.6864(16) 0.20265(19) 0.9505(7)
H9 H 0.5811 0.1918 0.9843
C12 C 0.6413(16) 0.19978(19) 0.8576(7)
C13 C 0.4453(14) 0.18023(18) 0.8119(7)
C14 C 0.3985(15) 0.18061(19) 0.7197(7)
C15 C 0.2898(13) 0.16060(17) 0.8679(6)
H10 H 0.2031 0.1742 0.9052
H11 H 0.1565 0.1495 0.8292
C16 C 0.3255(13) 0.12625(17) 0.9978(6)
H12 H 0.1957 0.1109 0.9754
H13 H 0.2367 0.1432 1.0230
C17 C 0.5157(12) 0.11176(17) 1.0691(5)
H14 H 0.6059 0.0948 1.0448
H15 H 0.4247 0.1036 1.1154
C18 C 0.9551(15) 0.1215(2) 1.1962(6)
C19 C 0.9358(15) 0.0902(2) 1.2180(6)
H16 H 0.7986 0.0784 1.1893
C20 C 1.1163(17) 0.0761(2) 1.2813(7)
H17 H 1.0983 0.0551 1.2934
C21 C 1.3232(15) 0.0925(2) 1.3272(6)
H18 H 1.4423 0.0831 1.3705
C22 C 1.3432(14) 0.1231(2) 1.3057(6)
C23 C 1.1634(15) 0.13732(19) 1.2439(6)
C24 C 1.2423(14) 0.17011(19) 1.2371(5)
C25 C 1.5438(16) 0.1470(2) 1.3408(6)
C26 C 1.6131(12) 0.20295(15) 1.3111(6)
H19 H 1.5007 0.2196 1.3238
H20 H 1.6840 0.2076 1.2578
H21 H 1.7522 0.2007 1.3593
C27 C 0.5807(12) 0.11465(16) 0.8758(5)
H22 H 0.7239 0.1059 0.9160
H23 H 0.6542 0.1249 0.8284
C28 C 0.4071(13) 0.08806(16) 0.8361(5)
H24 H 0.2893 0.0957 0.7856
H25 H 0.3032 0.0806 0.8797
C29 C 0.6953(13) 0.06862(18) 0.7026(5)
C30 C 0.5973(14) 0.09473(19) 0.6549(6)
H26 H 0.4741 0.1068 0.6778
C31 C 0.6738(15) 0.10360(18) 0.5753(7)
H27 H 0.6058 0.1216 0.5471
C32 C 0.8556(14) 0.0854(2) 0.5365(6)
H28 H 0.9072 0.0905 0.4824
C33 C 0.9496(14) 0.06000(18) 0.5831(6)
C34 C 0.8742(13) 0.05119(17) 0.6629(5)
C35 C 1.0103(13) 0.02242(17) 0.6910(6)
C36 C 1.1413(13) 0.03629(18) 0.5598(6)
C37 C 1.3394(12) -0.01197(15) 0.6328(6)
H29 H 1.2354 -0.0305 0.6300
H30 H 1.4555 -0.0116 0.6877
H31 H 1.4387 -0.0118 0.5843
N1 N 0.4493(11) 0.13821(14) 0.9239(5)
N2 N 1.4647(12) 0.17411(16) 1.2993(5)
N3 N 1.1693(11) 0.01536(14) 0.6273(5)
O1 O 1.1366(10) 0.19120(12) 1.1923(4)
O2 O 1.7367(10) 0.14280(13) 1.3942(4)
O3 O 0.9896(10) 0.00625(11) 0.7561(4)
O4 O 1.2499(10) 0.03523(12) 0.4953(4)
S1 S 0.7465(4) 0.14094(5) 1.11415(17)
S2 S 0.5988(4) 0.05627(5) 0.80115(17)
Cl1? Cl 0.478(2) 0.0267(3) 0.0935(9)
C38? C 0.237(7) -0.0027(13) -0.001(4)
H32? H 0.2953 -0.0063 -0.0581
H33? H 0.1512 -0.0203 0.0217
Cl2? Cl 0.102(2) 0.0405(3) 0.0223(9)
loop_
_geom_bond_atom_site_label_1
_geom_bond_atom_site_label_2
_geom_bond_site_symmetry_1
_geom_bond_site_symmetry_2
C1 H1 1_555 1_555
C2 C1 1_555 1_555
H2 C2 1_555 1_555
C3 C2 1_555 1_555
H3 C3 1_555 1_555
C4 C3 1_555 1_555
H4 C4 1_555 1_555
C5 C4 1_555 1_555
C6 C5 1_555 1_555
H5 C6 1_555 1_555
C7 C6 1_555 1_555
C8 C7 1_555 1_555
H6 C8 1_555 1_555
C9 C8 1_555 1_555
H7 C9 1_555 1_555
C10 C9 1_555 1_555
H8 C10 1_555 1_555
C11 C10 1_555 1_555
H9 C11 1_555 1_555
C12 C7 1_555 1_555
C13 C12 1_555 1_555
C14 C1 1_555 1_555
C15 C13 1_555 1_555
H10 C15 1_555 1_555
H11 C15 1_555 1_555
C16 H12 1_555 1_555
H13 C16 1_555 1_555
C17 C16 1_555 1_555
H14 C17 1_555 1_555
H15 C17 1_555 1_555
C18 C19 1_555 1_555
C19 H16 1_555 1_555
C20 C19 1_555 1_555
H17 C20 1_555 1_555
C21 C20 1_555 1_555
H18 C21 1_555 1_555
C22 C21 1_555 1_555
C23 C18 1_555 1_555
C24 C23 1_555 1_555
C25 C22 1_555 1_555
C26 H19 1_555 1_555
H20 C26 1_555 1_555
H21 C26 1_555 1_555
C27 H22 1_555 1_555
H23 C27 1_555 1_555
C28 C27 1_555 1_555
H24 C28 1_555 1_555
H25 C28 1_555 1_555
C29 C30 1_555 1_555
C30 H26 1_555 1_555
C31 C30 1_555 1_555
H27 C31 1_555 1_555
C32 C31 1_555 1_555
H28 C32 1_555 1_555
C33 C32 1_555 1_555
C34 C29 1_555 1_555
C35 C34 1_555 1_555
C36 C33 1_555 1_555
C37 H29 1_555 1_555
H30 C37 1_555 1_555
H31 C37 1_555 1_555
N1 C15 1_555 1_555
N2 C24 1_555 1_555
N3 C35 1_555 1_555
O1 C24 1_555 1_555
O2 C25 1_555 1_555
O3 C35 1_555 1_555
O4 C36 1_555 1_555
S1 C17 1_555 1_555
S2 C28 1_555 1_555
C5 C14 1_555 1_555
C11 C12 1_555 1_555
C13 C14 1_555 1_555
C16 N1 1_555 1_555
C18 S1 1_555 1_555
C22 C23 1_555 1_555
C25 N2 1_555 1_555
C26 N2 1_555 1_555
C27 N1 1_555 1_555
C29 S2 1_555 1_555
C33 C34 1_555 1_555
C36 N3 1_555 1_555
C37 N3 1_555 1_555

#END
