
#######################################################################
#
#                 Cambridge Crystallographic Data Centre
#                                CCDC 
#
#######################################################################
#
# If this CIF has been generated from an entry in the Cambridge 
# Structural Database, then it will include bibliographic, chemical, 
# crystal, experimental, refinement or atomic coordinate data resulting 
# from the CCDC's data processing and validation procedures.
#
#######################################################################

data_ZOFTUL
_chemical_formula_moiety         'C40 H30,0.5(C1 H2 Cl2)'
_chemical_name_systematic        
'6-(2,6-diethylphenyl)-13-(phenylethynyl)pentacene dichloromethane solvate'
_symmetry_cell_setting           monoclinic
_symmetry_space_group_name_H-M   'P 21/n'
_symmetry_Int_Tables_number      14
_space_group_name_Hall           '-P 2yn'
loop_
_symmetry_equiv_pos_site_id
_symmetry_equiv_pos_as_xyz
1 x,y,z
2 1/2-x,1/2+y,1/2-z
3 -x,-y,-z
4 1/2+x,1/2-y,1/2+z
_cell_length_a                   14.2882(11)
_cell_length_b                   12.4255(9)
_cell_length_c                   15.9687(12)
_cell_angle_alpha                90
_cell_angle_beta                 92.4760(17)
_cell_angle_gamma                90
_cell_volume                     2832.4
_exptl_crystal_colour            purple
_exptl_crystal_description       prism
_cell_formula_units_Z            4
loop_
_atom_site_label
_atom_site_type_symbol
_atom_site_fract_x
_atom_site_fract_y
_atom_site_fract_z
Cl1 Cl 0.92273(16) 0.55574(13) 0.45912(10)
C41 C 1.0358(7) 0.5561(7) 0.4878(5)
H31 H 1.0429 0.6136 0.5281
H32 H 1.0666 0.5542 0.4368
Cl1B Cl 1.07727(16) 0.44426(13) 0.54088(10)
C41B C 0.9642(7) 0.4439(7) 0.5122(5)
H31B H 0.9571 0.3864 0.4719
H32B H 0.9334 0.4458 0.5632
C1 C 0.67210(16) 0.12108(17) 0.47488(13)
C2 C 0.58526(14) 0.28916(18) 0.69730(13)
C3 C 0.57621(15) 0.13937(17) 0.48770(13)
C4 C 0.61775(15) 0.22897(18) 0.62282(13)
C5 C 0.74150(15) 0.15594(17) 0.53527(13)
C6 C 0.78406(16) 0.24666(18) 0.66800(14)
H1 H 0.7669 0.2827 0.7155
C7 C 0.38495(16) 0.18496(18) 0.51323(14)
C8 C 0.69920(15) 0.07040(18) 0.39954(14)
C9 C 0.90586(16) 0.17258(18) 0.58275(14)
C10 C 0.71906(16) 0.03117(19) 0.33394(14)
C11 C 0.50537(16) 0.10457(18) 0.42958(14)
H2 H 0.5221 0.0674 0.3824
C12 C 0.83766(16) 0.13791(18) 0.52452(14)
H3 H 0.8544 0.1005 0.4774
C13 C 0.57787(15) 0.40213(19) 0.69278(14)
C14 C 0.55355(15) 0.23320(18) 0.76724(14)
C15 C 0.54915(15) 0.19458(17) 0.56234(13)
C16 C 0.87834(16) 0.22932(18) 0.65601(14)
C17 C 0.41190(16) 0.12521(18) 0.44068(14)
C18 C 0.71343(15) 0.21102(17) 0.61004(13)
C19 C 0.51442(16) 0.2918(2) 0.83158(14)
H4 H 0.4926 0.2552 0.8784
C20 C 0.53934(16) 0.45709(19) 0.75860(14)
H5 H 0.5349 0.5309 0.7565
C21 C 0.33932(17) 0.09087(19) 0.38187(14)
H6 H 0.3555 0.0480 0.3367
C22 C 0.28852(16) 0.2122(2) 0.52082(14)
H7 H 0.2714 0.2511 0.5686
C23 C 0.22333(17) 0.1817(2) 0.46146(15)
H8 H 0.1603 0.2013 0.4661
C24 C 0.45316(16) 0.21624(18) 0.57191(14)
H9 H 0.4352 0.2538 0.6183
C25 C 0.74213(17) -0.01565(19) 0.25522(15)
C26 C 0.50731(16) 0.4020(2) 0.82736(14)
H10 H 0.4809 0.4416 0.8710
C27 C 0.95018(17) 0.2644(2) 0.71565(15)
H11 H 0.9327 0.3004 0.7641
C28 C 0.55940(17) 0.11227(19) 0.77424(15)
H12 H 0.5123 0.0890 0.8118
H13 H 0.5468 0.0810 0.7199
C29 C 1.00347(16) 0.1522(2) 0.57335(15)
H14 H 1.0211 0.1150 0.5255
C30 C 0.24906(17) 0.1184(2) 0.39161(15)
H15 H 0.2039 0.0955 0.3522
C31 C 1.04159(17) 0.2432(2) 0.70406(15)
H16 H 1.0877 0.2669 0.7433
C32 C 1.06869(17) 0.1850(2) 0.63215(15)
H17 H 1.1326 0.1687 0.6266
C33 C 0.60855(18) 0.46015(19) 0.61511(15)
H18 H 0.5744 0.4281 0.5684
H19 H 0.6747 0.4455 0.6093
C34 C 0.70623(18) -0.1157(2) 0.23099(15)
H20 H 0.6669 -0.1523 0.2658
C35 C 0.80191(18) 0.0379(2) 0.20239(16)
H21 H 0.8267 0.1061 0.2179
C36 C 0.8246(2) -0.0077(2) 0.12702(17)
H22 H 0.8646 0.0299 0.0926
C37 C 0.72945(19) -0.1613(2) 0.15521(17)
H23 H 0.7040 -0.2281 0.1386
C38 C 0.7890(2) -0.1071(2) 0.10344(17)
H24 H 0.8050 -0.1383 0.0523
C39 C 0.5944(2) 0.5806(2) 0.61296(17)
H25 H 0.6314 0.6137 0.6591
H26 H 0.6158 0.6047 0.5597
H27 H 0.5284 0.5960 0.6159
C40 C 0.65300(19) 0.0730(2) 0.81154(17)
H28 H 0.6674 0.1071 0.8658
H29 H 0.6534 -0.0047 0.8206
H30 H 0.7028 0.0904 0.7734
loop_
_geom_bond_atom_site_label_1
_geom_bond_atom_site_label_2
_geom_bond_site_symmetry_1
_geom_bond_site_symmetry_2
C1 C3 1_555 1_555
C2 C4 1_555 1_555
C3 C11 1_555 1_555
C4 C15 1_555 1_555
C5 C1 1_555 1_555
C6 H1 1_555 1_555
C7 C17 1_555 1_555
C8 C1 1_555 1_555
C9 C12 1_555 1_555
C10 C8 1_555 1_555
C11 H2 1_555 1_555
C12 C5 1_555 1_555
H3 C12 1_555 1_555
C13 C2 1_555 1_555
C14 C2 1_555 1_555
C15 C3 1_555 1_555
C16 C6 1_555 1_555
C17 C11 1_555 1_555
C18 C4 1_555 1_555
C19 C14 1_555 1_555
H4 C19 1_555 1_555
C20 C13 1_555 1_555
H5 C20 1_555 1_555
C21 C17 1_555 1_555
H6 C21 1_555 1_555
C22 C7 1_555 1_555
H7 C22 1_555 1_555
C23 C22 1_555 1_555
H8 C23 1_555 1_555
C24 C7 1_555 1_555
H9 C24 1_555 1_555
C25 C10 1_555 1_555
C26 C19 1_555 1_555
H10 C26 1_555 1_555
C27 C16 1_555 1_555
H11 C27 1_555 1_555
C28 C14 1_555 1_555
H12 C28 1_555 1_555
H13 C28 1_555 1_555
C29 C9 1_555 1_555
H14 C29 1_555 1_555
C30 C21 1_555 1_555
H15 C30 1_555 1_555
C31 C27 1_555 1_555
H16 C31 1_555 1_555
C32 C29 1_555 1_555
H17 C32 1_555 1_555
C33 C13 1_555 1_555
H18 C33 1_555 1_555
H19 C33 1_555 1_555
C34 C25 1_555 1_555
H20 C34 1_555 1_555
C35 C25 1_555 1_555
H21 C35 1_555 1_555
C36 C35 1_555 1_555
H22 C36 1_555 1_555
C37 C34 1_555 1_555
H23 C37 1_555 1_555
C38 C36 1_555 1_555
H24 C38 1_555 1_555
C39 C33 1_555 1_555
H25 C39 1_555 1_555
H26 C39 1_555 1_555
H27 C39 1_555 1_555
C40 C28 1_555 1_555
H28 C40 1_555 1_555
H29 C40 1_555 1_555
H30 C40 1_555 1_555
Cl1 C41 1_555 1_555
C41 H31 1_555 1_555
H32 C41 1_555 1_555
Cl1B C41 1_555 1_555
C41B Cl1 1_555 1_555
H31B C41B 1_555 1_555
H32B C41B 1_555 1_555
C5 C18 1_555 1_555
C6 C18 1_555 1_555
C9 C16 1_555 1_555
C15 C24 1_555 1_555
C20 C26 1_555 1_555
C23 C30 1_555 1_555
C31 C32 1_555 1_555
C37 C38 1_555 1_555
Cl1B C41B 1_555 1_555

#END
