
#######################################################################
#
#                 Cambridge Crystallographic Data Centre
#                                CCDC 
#
#######################################################################
#
# If this CIF has been generated from an entry in the Cambridge 
# Structural Database, then it will include bibliographic, chemical, 
# crystal, experimental, refinement or atomic coordinate data resulting 
# from the CCDC's data processing and validation procedures.
#
#######################################################################

data_ZOFWUM
_chemical_formula_moiety         'C28 H46 Li1 N1 O4 S1'
_chemical_name_systematic        
Isothiocyanato-(2,3,9,10-tetrakis(spirocyclopentane)-6-methyl-1,4,8,11-tetraoxa-cyclotetradecane)-lithium
_symmetry_cell_setting           orthorhombic
_symmetry_space_group_name_H-M   'P b c a'
_symmetry_Int_Tables_number      61
_space_group_name_Hall           '-P 2ac 2ab'
loop_
_symmetry_equiv_pos_site_id
_symmetry_equiv_pos_as_xyz
1 x,y,z
2 1/2-x,-y,1/2+z
3 1/2+x,1/2-y,-z
4 -x,1/2+y,1/2-z
5 -x,-y,-z
6 1/2+x,y,1/2-z
7 1/2-x,1/2+y,z
8 x,1/2-y,1/2+z
_cell_length_a                   12.829(2)
_cell_length_b                   25.625(5)
_cell_length_c                   16.723(6)
_cell_angle_alpha                90
_cell_angle_beta                 90
_cell_angle_gamma                90
_cell_volume                     5497.57
_cell_formula_units_Z            8
loop_
_atom_site_label
_atom_site_type_symbol
_atom_site_fract_x
_atom_site_fract_y
_atom_site_fract_z
S1 S 0.3576(2) 0.13684(7) 0.3799(1)
O1 O 0.5812(3) 0.1253(1) 0.6926(2)
O2 O 0.6743(3) 0.2001(1) 0.6212(2)
O3 O 0.7398(3) 0.1309(1) 0.4986(2)
O4 O 0.6527(3) 0.0535(1) 0.5671(2)
N1 N 0.4889(4) 0.1431(2) 0.5087(3)
C1 C 0.6274(4) 0.1634(2) 0.7439(3)
C2 C 0.6194(4) 0.2141(2) 0.6952(3)
C3 C 0.6817(5) 0.2393(2) 0.5594(3)
C4 C 0.7682(5) 0.2242(2) 0.5020(3)
C5 C 0.7428(5) 0.1778(2) 0.4497(3)
C6 C 0.7559(4) 0.0811(2) 0.4597(3)
C7 C 0.7541(4) 0.0442(2) 0.5305(3)
C8 C 0.6097(5) 0.0157(2) 0.6206(4)
C9 C 0.5158(5) 0.0397(2) 0.6614(4)
C10 C 0.5427(5) 0.0776(2) 0.7256(4)
C11 C 0.7391(5) 0.1487(2) 0.7651(4)
C12 C 0.7472(6) 0.1430(4) 0.8534(4)
C13 C 0.6390(6) 0.1386(5) 0.8854(4)
C14 C 0.5709(5) 0.1688(2) 0.8258(3)
C15 C 0.6713(5) 0.2624(2) 0.7351(4)
C16 C 0.5931(6) 0.3060(3) 0.7384(5)
C17 C 0.5048(7) 0.2907(3) 0.6887(5)
C18 C 0.5070(5) 0.2308(3) 0.6782(4)
C19 C 0.8602(5) 0.0806(3) 0.4137(4)
C20 C 0.8317(7) 0.0765(4) 0.3259(4)
C21 C 0.7246(7) 0.0565(4) 0.3206(4)
C22 C 0.6731(5) 0.0699(2) 0.3966(3)
C23 C 0.7678(5) -0.0152(2) 0.5054(4)
C24 C 0.8474(5) -0.0376(3) 0.5629(5)
C25 C 0.8934(6) 0.0029(3) 0.6098(5)
C26 C 0.8406(5) 0.0533(2) 0.5919(4)
C27 C 0.8719(5) 0.216(3) 0.5429(4)
C28 C 0.4325(4) 0.1403(2) 0.4558(3)
Li1 Li 0.6174(7) 0.1298(4) 0.5764(6)
loop_
_geom_bond_atom_site_label_1
_geom_bond_atom_site_label_2
_geom_bond_site_symmetry_1
_geom_bond_site_symmetry_2
S1 C28 1_555 1_555
O1 C1 1_555 1_555
O2 C2 1_555 1_555
O3 C5 1_555 1_555
O4 C7 1_555 1_555
N1 C28 1_555 1_555
C1 C2 1_555 1_555
C2 C15 1_555 1_555
C3 O2 1_555 1_555
C4 C3 1_555 1_555
C5 C4 1_555 1_555
C6 O3 1_555 1_555
C7 C6 1_555 1_555
C8 O4 1_555 1_555
C9 C8 1_555 1_555
C10 O1 1_555 1_555
C11 C1 1_555 1_555
C12 C11 1_555 1_555
C13 C12 1_555 1_555
C14 C1 1_555 1_555
C15 C16 1_555 1_555
C16 C17 1_555 1_555
C17 C18 1_555 1_555
C18 C2 1_555 1_555
C19 C6 1_555 1_555
C20 C19 1_555 1_555
C21 C20 1_555 1_555
C22 C6 1_555 1_555
C23 C7 1_555 1_555
C24 C23 1_555 1_555
C25 C24 1_555 1_555
C26 C7 1_555 1_555
C27 C4 1_555 1_555
Li1 O1 1_555 1_555
O2 Li1 1_555 1_555
O3 Li1 1_555 1_555
O4 Li1 1_555 1_555
N1 Li1 1_555 1_555
C9 C10 1_555 1_555
C13 C14 1_555 1_555
C21 C22 1_555 1_555
C25 C26 1_555 1_555

#END
