
#######################################################################
#
#                 Cambridge Crystallographic Data Centre
#                                CCDC 
#
#######################################################################
#
# If this CIF has been generated from an entry in the Cambridge 
# Structural Database, then it will include bibliographic, chemical, 
# crystal, experimental, refinement or atomic coordinate data resulting 
# from the CCDC's data processing and validation procedures.
#
#######################################################################

data_ZOFWEW
_chemical_name_common            Methyl-tetracyclopentyl-14-crown-4
_chemical_formula_moiety         'C27 H46 O4'
_chemical_name_systematic        
2,3,9,10-tetrakis(Spirocyclopentane)-6-methyl-1,4,8,11-tetraoxa-cyclotetradecane
_symmetry_cell_setting           triclinic
_symmetry_space_group_name_H-M   'P 1'
_symmetry_Int_Tables_number      1
_space_group_name_Hall           'P 1'
loop_
_symmetry_equiv_pos_site_id
_symmetry_equiv_pos_as_xyz
1 x,y,z
_cell_length_a                   5.8615(5)
_cell_length_b                   8.6524(6)
_cell_length_c                   12.861(2)
_cell_angle_alpha                80.07(8)
_cell_angle_beta                 77.05(8)
_cell_angle_gamma                88.34(6)
_cell_volume                     626.115
_cell_formula_units_Z            1
loop_
_atom_site_label
_atom_site_type_symbol
_atom_site_fract_x
_atom_site_fract_y
_atom_site_fract_z
O1 O 0.3988(8) 0.2959(6) 0.7065(4)
O2 O 0.1054(7) 0.0402(5) 0.6970(4)
O3 O -0.0578(7) -0.0285(5) 1.0226(3)
O4 O 0.2186(7) 0.2241(5) 1.0481(4)
C1 C 0.291(1) 0.2862(8) 0.6174(5)
C2 C 0.296(1) 0.1053(7) 0.6117(4)
C3 C 0.147(2) -0.031(1) 0.7836(7)
C5 C -0.092(1) -0.1030(7) 0.8607(5)
C6 C -0.073(2) -0.152(1) 0.9629(9)
C8 C 0.026(1) -0.0237(7) 1.1164(4)
C9 C 0.039(1) 0.1446(7) 1.1231(5)
C10 C 0.176(2) 0.304(1) 0.9550(7)
C12 C 0.427(1) 0.3666(7) 0.8751(5)
C13 C 0.401(2) 0.416(1) 0.7641(6)
C15 C 0.053(1) 0.3637(8) 0.6268(6)
C16 C 0.095(1) 0.5155(8) 0.5577(6)
C17 C 0.320(2) 0.503(1) 0.4746(7)
C18 C 0.440(1) 0.396(1) 0.5299(6)
C19 C 0.247(1) 0.065(1) 0.5056(5)
C20 C 0.389(2) -0.0505(9) 0.4709(5)
C21 C 0.537(1) -0.0976(9) 0.5538(8)
C22 C 0.529(1) 0.0358(7) 0.6101(6)
C23 C 0.276(1) -0.0935(8) 1.1142(7)
C24 C 0.238(1) -0.269(1) 1.1762(7)
C25 C 0.024(1) -0.2525(9) 1.2616(6)
C26 C 0.0137(2) -0.118(1) 1.2256(7)
C27 C 0.088(1) 0.160(1) 1.2345(6)
C28 C -0.034(2) 0.309(1) 1.2593(9)
C29 C -0.211(2) 0.3602(9) 1.1931(7)
C30 C -0.205(1) 0.2302(9) 1.1169(7)
C31 C 0.514(3) 0.485(2) 0.923(1)
C4? C 0.056(4) -0.114(3) 0.761(2)
C7? C 0.067(2) -0.094(2) 0.957(1)
C11? C 0.303(2) 0.360(1) 0.9722(9)
C14? C 0.260(3) 0.323(2) 0.792(1)
C32? C 0.138(4) -0.248(3) 0.810(2)
C33? C 0.197(7) -0.282(5) 0.907(3)
C34? C 0.556(6) 0.521(4) 0.813(3)
loop_
_geom_bond_atom_site_label_1
_geom_bond_atom_site_label_2
_geom_bond_site_symmetry_1
_geom_bond_site_symmetry_2
O1 C1 1_555 1_555
O2 C2 1_555 1_555
O3 C6 1_555 1_555
O4 C9 1_555 1_555
C1 C2 1_555 1_555
C2 C19 1_555 1_555
C3 O2 1_555 1_555
C5 C3 1_555 1_555
C6 C5 1_555 1_555
C8 O3 1_555 1_555
C9 C8 1_555 1_555
C10 O4 1_555 1_555
C12 C10 1_555 1_555
C13 O1 1_555 1_555
C15 C1 1_555 1_555
C16 C15 1_555 1_555
C17 C16 1_555 1_555
C18 C1 1_555 1_555
C19 C20 1_555 1_555
C20 C21 1_555 1_555
C21 C22 1_555 1_555
C22 C2 1_555 1_555
C23 C8 1_555 1_555
C24 C23 1_555 1_555
C25 C24 1_555 1_555
C26 C8 1_555 1_555
C27 C9 1_555 1_555
C28 C27 1_555 1_555
C29 C28 1_555 1_555
C30 C9 1_555 1_555
C31 C12 1_555 1_555
C12 C13 1_555 1_555
C17 C18 1_555 1_555
C25 C26 1_555 1_555
C29 C30 1_555 1_555

#END
