
#######################################################################
#
#                 Cambridge Crystallographic Data Centre
#                                CCDC 
#
#######################################################################
#
# If this CIF has been generated from an entry in the Cambridge 
# Structural Database, then it will include bibliographic, chemical, 
# crystal, experimental, refinement or atomic coordinate data resulting 
# from the CCDC's data processing and validation procedures.
#
#######################################################################

data_ZOFXOJ
_chemical_formula_moiety         'C30 H30 Cl2 N2 O3'
_chemical_name_systematic        
(1-(5-(2,6-Dichlorophenyl)-3-methyl-6-nitrocyclohex-2-en-1-yl)pyrrolidin-2-yl)(diphenyl)methanol
_symmetry_cell_setting           orthorhombic
_symmetry_space_group_name_H-M   'P 21 21 21'
_symmetry_Int_Tables_number      19
_space_group_name_Hall           'P 2ac 2ab'
loop_
_symmetry_equiv_pos_site_id
_symmetry_equiv_pos_as_xyz
1 x,y,z
2 1/2-x,-y,1/2+z
3 1/2+x,1/2-y,-z
4 -x,1/2+y,1/2-z
_cell_length_a                   8.9169(13)
_cell_length_b                   17.351(3)
_cell_length_c                   17.602(3)
_cell_angle_alpha                90
_cell_angle_beta                 90
_cell_angle_gamma                90
_cell_volume                     2723.33
_exptl_crystal_colour            colorless
_exptl_crystal_description       prism
_cell_formula_units_Z            4
loop_
_atom_site_label
_atom_site_type_symbol
_atom_site_fract_x
_atom_site_fract_y
_atom_site_fract_z
Cl1 Cl 0.99621(14) 0.14900(6) 0.36280(7)
Cl2 Cl 0.50949(14) 0.04397(7) 0.52176(7)
O1 O 0.3620(4) 0.12542(18) 0.3303(2)
O2 O 0.5810(4) 0.17783(18) 0.3176(2)
O3 O 0.5086(4) -0.01019(18) 0.0528(2)
H1 H 0.574(6) -0.034(3) 0.082(3)
N1 N 0.4979(5) 0.1226(2) 0.3286(2)
N2 N 0.5986(4) 0.03740(19) 0.1925(2)
C1 C 0.8703(5) 0.1508(2) 0.4395(3)
C2 C 0.7493(5) 0.0998(2) 0.4413(3)
C3 C 0.6655(5) 0.1050(2) 0.5079(3)
C4 C 0.6949(5) 0.1549(2) 0.5664(3)
H2 H 0.6341 0.1548 0.6108
C5 C 0.8127(6) 0.2048(2) 0.5602(3)
H3 H 0.8321 0.2410 0.5995
C6 C 0.9028(5) 0.2026(2) 0.4973(3)
H4 H 0.9866 0.2362 0.4932
C7 C 0.7192(5) 0.0441(2) 0.3767(3)
H5 H 0.7896 0.0590 0.3350
C8 C 0.5647(5) 0.0430(2) 0.3416(3)
H6 H 0.4969 0.0151 0.3776
C9 C 0.5603(5) -0.0017(2) 0.2638(3)
H7 H 0.4530 -0.0173 0.2575
C10 C 0.4826(5) 0.0835(2) 0.1527(3)
H8 H 0.4102 0.1059 0.1900
C11 C 0.3993(5) 0.0298(2) 0.0954(3)
C12 C 0.3033(5) 0.0738(3) 0.0391(3)
C13 C 0.2105(6) 0.1344(3) 0.0609(3)
H9 H 0.2089 0.1501 0.1126
C14 C 0.1198(6) 0.1724(3) 0.0082(3)
H10 H 0.0550 0.2126 0.0246
C15 C 0.1238(7) 0.1520(3) -0.0672(3)
H11 H 0.0644 0.1790 -0.1032
C16 C 0.2145(6) 0.0922(3) -0.0901(3)
H12 H 0.2154 0.0773 -0.1421
C17 C 0.3057(6) 0.0527(3) -0.0380(3)
H13 H 0.3687 0.0119 -0.0547
C18 C 0.3002(5) -0.0290(2) 0.1374(3)
C19 C 0.3140(5) -0.1077(2) 0.1248(3)
H14 H 0.3862 -0.1257 0.0893
C20 C 0.2252(6) -0.1602(3) 0.1628(3)
H15 H 0.2388 -0.2137 0.1536
C21 C 0.1177(5) -0.1369(3) 0.2136(3)
H16 H 0.0558 -0.1734 0.2388
C22 C 0.1017(5) -0.0590(3) 0.2272(3)
H17 H 0.0295 -0.0418 0.2631
C23 C 0.1891(5) -0.0056(2) 0.1894(3)
H18 H 0.1741 0.0478 0.1986
C24 C 0.5730(6) 0.1480(3) 0.1133(3)
H19 H 0.5377 0.1558 0.0605
H20 H 0.5629 0.1972 0.1413
C25 C 0.7322(6) 0.1209(3) 0.1141(3)
H21 H 0.8022 0.1652 0.1140
H22 H 0.7534 0.0883 0.0692
C26 C 0.7477(6) 0.0749(3) 0.1864(3)
H23 H 0.8290 0.0363 0.1823
H24 H 0.7675 0.1088 0.2305
C27 C 0.6430(5) -0.0760(2) 0.2734(3)
H25 H 0.6336 -0.1131 0.2339
C28 C 0.7295(5) -0.0949(2) 0.3329(3)
C29 C 0.7573(5) -0.0400(2) 0.3967(3)
H26 H 0.8642 -0.0430 0.4116
H27 H 0.6965 -0.0559 0.4411
C30 C 0.7939(5) -0.1742(2) 0.3427(3)
H28 H 0.7754 -0.2046 0.2967
H29 H 0.7461 -0.1994 0.3863
H30 H 0.9021 -0.1704 0.3516
loop_
_geom_bond_atom_site_label_1
_geom_bond_atom_site_label_2
_geom_bond_site_symmetry_1
_geom_bond_site_symmetry_2
Cl1 C1 1_555 1_555
Cl2 C3 1_555 1_555
O1 N1 1_555 1_555
O2 N1 1_555 1_555
O3 H1 1_555 1_555
N1 C8 1_555 1_555
N2 C9 1_555 1_555
C1 C2 1_555 1_555
C2 C3 1_555 1_555
C3 C4 1_555 1_555
C4 H2 1_555 1_555
C5 C4 1_555 1_555
H3 C5 1_555 1_555
C6 C1 1_555 1_555
H4 C6 1_555 1_555
C7 C2 1_555 1_555
H5 C7 1_555 1_555
C8 C7 1_555 1_555
H6 C8 1_555 1_555
C9 C8 1_555 1_555
H7 C9 1_555 1_555
C10 N2 1_555 1_555
H8 C10 1_555 1_555
C11 O3 1_555 1_555
C12 C11 1_555 1_555
C13 C12 1_555 1_555
H9 C13 1_555 1_555
C14 C13 1_555 1_555
H10 C14 1_555 1_555
C15 C14 1_555 1_555
H11 C15 1_555 1_555
C16 C15 1_555 1_555
H12 C16 1_555 1_555
C17 C12 1_555 1_555
H13 C17 1_555 1_555
C18 C11 1_555 1_555
C19 C18 1_555 1_555
H14 C19 1_555 1_555
C20 C19 1_555 1_555
H15 C20 1_555 1_555
C21 C20 1_555 1_555
H16 C21 1_555 1_555
C22 C21 1_555 1_555
H17 C22 1_555 1_555
C23 C18 1_555 1_555
H18 C23 1_555 1_555
C24 C10 1_555 1_555
H19 C24 1_555 1_555
H20 C24 1_555 1_555
C25 C24 1_555 1_555
H21 C25 1_555 1_555
H22 C25 1_555 1_555
C26 N2 1_555 1_555
H23 C26 1_555 1_555
H24 C26 1_555 1_555
C27 C9 1_555 1_555
H25 C27 1_555 1_555
C28 C27 1_555 1_555
C29 C7 1_555 1_555
H26 C29 1_555 1_555
H27 C29 1_555 1_555
C30 C28 1_555 1_555
H28 C30 1_555 1_555
H29 C30 1_555 1_555
H30 C30 1_555 1_555
C5 C6 1_555 1_555
C10 C11 1_555 1_555
C16 C17 1_555 1_555
C22 C23 1_555 1_555
C25 C26 1_555 1_555
C28 C29 1_555 1_555

#END
