
#######################################################################
#
#                 Cambridge Crystallographic Data Centre
#                                CCDC 
#
#######################################################################
#
# If this CIF has been generated from an entry in the Cambridge 
# Structural Database, then it will include bibliographic, chemical, 
# crystal, experimental, refinement or atomic coordinate data resulting 
# from the CCDC's data processing and validation procedures.
#
#######################################################################

data_ZOFYIE
_chemical_formula_moiety         'C17 H24 O6'
_chemical_name_systematic        
"Dimethyl 4',4'-dimethyl-2'-oxo-8-oxaspiro[bicyclo[3.2.1]octane-2,1'-cyclopentane]-7,7-dicarboxylate"
_symmetry_cell_setting           monoclinic
_symmetry_space_group_name_H-M   'P 21/c'
_symmetry_Int_Tables_number      14
_space_group_name_Hall           '-P 2ybc'
loop_
_symmetry_equiv_pos_site_id
_symmetry_equiv_pos_as_xyz
1 x,y,z
2 -x,1/2+y,1/2-z
3 -x,-y,-z
4 x,1/2-y,1/2+z
_cell_length_a                   12.9911(9)
_cell_length_b                   10.5635(5)
_cell_length_c                   12.5742(8)
_cell_angle_alpha                90
_cell_angle_beta                 105.220(6)
_cell_angle_gamma                90
_cell_volume                     1665.05
_exptl_crystal_colour            'light colorless'
_exptl_crystal_description       block
_cell_formula_units_Z            4
loop_
_atom_site_label
_atom_site_type_symbol
_atom_site_fract_x
_atom_site_fract_y
_atom_site_fract_z
O1 O 0.59146(10) 0.58609(13) 0.42210(11)
O2 O 0.94917(13) 0.62267(15) 0.44732(15)
O3 O 0.86515(12) 0.85487(14) 0.54796(13)
O4 O 0.82780(11) 0.84419(13) 0.36411(12)
O5 O 0.56083(12) 0.82428(14) 0.27677(13)
O6 O 0.63031(12) 0.96932(13) 0.40426(13)
C1 C 0.68436(15) 0.62866(17) 0.39156(15)
H1 H 0.6687 0.6345 0.3111
C2 C 0.69767(14) 0.76407(17) 0.44226(15)
C3 C 0.66037(17) 0.74656(19) 0.54789(17)
H2 H 0.7194 0.7563 0.6131
H3 H 0.6052 0.8073 0.5510
C4 C 0.61685(17) 0.6116(2) 0.53875(16)
H4 H 0.5523 0.6076 0.5651
C5 C 0.69795(19) 0.5159(2) 0.59867(18)
H5 H 0.6684 0.4313 0.5846
H6 H 0.7145 0.5313 0.6774
C6 C 0.79954(18) 0.5251(2) 0.56010(17)
H7 H 0.8444 0.4524 0.5868
H8 H 0.8386 0.6006 0.5910
C7 C 0.77475(16) 0.53037(18) 0.43468(16)
C8 C 0.7388(2) 0.4024(2) 0.3784(2)
H9 H 0.6620 0.4025 0.3478
H10 H 0.7569 0.3347 0.4322
C9 C 0.79448(19) 0.3798(2) 0.28559(19)
C10 C 0.8703(3) 0.4920(3) 0.2930(2)
H11 H 0.9408 0.4624 0.2923
H12 H 0.8445 0.5482 0.2308
C11 C 0.87502(18) 0.55932(19) 0.39696(18)
C12 C 0.7136(3) 0.3766(4) 0.1741(3)
H13 H 0.6644 0.3085 0.1724
H14 H 0.7499 0.3640 0.1175
H15 H 0.6755 0.4554 0.1618
C13 C 0.8557(3) 0.2576(3) 0.3037(3)
H16 H 0.9085 0.2606 0.3733
H17 H 0.8903 0.2456 0.2457
H18 H 0.8077 0.1887 0.3037
C14 C 0.80707(15) 0.82480(17) 0.46151(16)
C15 C 0.93006(19) 0.9005(3) 0.3671(2)
H19 H 0.9391 0.9039 0.2938
H20 H 0.9860 0.8503 0.4129
H21 H 0.9329 0.9847 0.3965
C16 C 0.62059(15) 0.85260(18) 0.36271(17)
C17 C 0.5650(2) 1.0666(2) 0.3395(2)
H22 H 0.5756 1.0673 0.2668
H23 H 0.5846 1.1474 0.3738
H24 H 0.4913 1.0499 0.3349
loop_
_geom_bond_atom_site_label_1
_geom_bond_atom_site_label_2
_geom_bond_site_symmetry_1
_geom_bond_site_symmetry_2
O1 C1 1_555 1_555
O2 C11 1_555 1_555
O3 C14 1_555 1_555
O4 C14 1_555 1_555
O5 C16 1_555 1_555
O6 C16 1_555 1_555
C1 H1 1_555 1_555
C2 C1 1_555 1_555
C3 C2 1_555 1_555
H2 C3 1_555 1_555
H3 C3 1_555 1_555
C4 O1 1_555 1_555
H4 C4 1_555 1_555
C5 C4 1_555 1_555
H5 C5 1_555 1_555
H6 C5 1_555 1_555
C6 C5 1_555 1_555
H7 C6 1_555 1_555
H8 C6 1_555 1_555
C7 C1 1_555 1_555
C8 C7 1_555 1_555
H9 C8 1_555 1_555
H10 C8 1_555 1_555
C9 C8 1_555 1_555
C10 C9 1_555 1_555
H11 C10 1_555 1_555
H12 C10 1_555 1_555
C11 C7 1_555 1_555
C12 C9 1_555 1_555
H13 C12 1_555 1_555
H14 C12 1_555 1_555
H15 C12 1_555 1_555
C13 C9 1_555 1_555
H16 C13 1_555 1_555
H17 C13 1_555 1_555
H18 C13 1_555 1_555
C14 C2 1_555 1_555
C15 O4 1_555 1_555
H19 C15 1_555 1_555
H20 C15 1_555 1_555
H21 C15 1_555 1_555
C16 C2 1_555 1_555
C17 O6 1_555 1_555
H22 C17 1_555 1_555
H23 C17 1_555 1_555
H24 C17 1_555 1_555
C3 C4 1_555 1_555
C6 C7 1_555 1_555
C10 C11 1_555 1_555

#END
