
#######################################################################
#
#                 Cambridge Crystallographic Data Centre
#                                CCDC 
#
#######################################################################
#
# If this CIF has been generated from an entry in the Cambridge 
# Structural Database, then it will include bibliographic, chemical, 
# crystal, experimental, refinement or atomic coordinate data resulting 
# from the CCDC's data processing and validation procedures.
#
#######################################################################

data_ZOGGEJ
_chemical_formula_moiety         'C37 H37 F3 N6 O6'
_chemical_name_systematic        
'isobutyl 4-fluoro-3,5-bis(1-(2-fluoro-5-(isobutoxycarbonyl)phenyl)-1H-1,2,3-triazol-4-yl)benzoate'
_symmetry_cell_setting           monoclinic
_symmetry_space_group_name_H-M   'P 21/c'
_symmetry_Int_Tables_number      14
_space_group_name_Hall           '-P 2ybc'
loop_
_symmetry_equiv_pos_site_id
_symmetry_equiv_pos_as_xyz
1 x,y,z
2 -x,1/2+y,1/2-z
3 -x,-y,-z
4 x,1/2-y,1/2+z
_cell_length_a                   9.6484(19)
_cell_length_b                   13.075(3)
_cell_length_c                   28.303(6)
_cell_angle_alpha                90
_cell_angle_beta                 98.20(3)
_cell_angle_gamma                90
_cell_volume                     3534
_exptl_crystal_colour            colorless
_exptl_crystal_description       rod
_cell_formula_units_Z            4
loop_
_atom_site_label
_atom_site_type_symbol
_atom_site_fract_x
_atom_site_fract_y
_atom_site_fract_z
F1 F 0.0059(3) 0.82904(19) 0.59642(10)
F2 F 0.2452(2) 0.98570(16) 0.49917(8)
F3 F 0.3932(3) 0.72975(19) 0.42255(11)
O1 O 0.3886(4) 1.4381(2) 0.44353(14)
O2 O 0.2458(4) 1.4622(2) 0.49805(12)
O3 O -0.3906(4) 0.9329(3) 0.74882(13)
O4 O -0.3465(4) 1.0907(3) 0.72081(12)
O5 O 0.8814(4) 0.8012(3) 0.29862(13)
O6 O 0.9119(4) 0.6379(3) 0.32060(13)
N1 N 0.0007(4) 1.1875(3) 0.56651(12)
N2 N -0.0703(4) 1.1409(3) 0.59618(13)
N3 N -0.0238(4) 1.0424(2) 0.60025(11)
N4 N 0.5072(4) 1.0814(2) 0.40119(13)
N5 N 0.5596(4) 1.0041(3) 0.38083(13)
N6 N 0.5090(3) 0.9167(2) 0.39868(11)
C1 C 0.2447(5) 1.7379(3) 0.53325(17)
H1 H 0.3251 1.7576 0.5177
H2 H 0.2522 1.7705 0.5647
H3 H 0.1580 1.7601 0.5136
C2 C 0.2427(5) 1.6205(3) 0.53922(18)
H4 H 0.3280 1.6011 0.5618
C3 C 0.1164(5) 1.5874(3) 0.56147(19)
H5 H 0.0307 1.6063 0.5404
H6 H 0.1178 1.6213 0.5924
H7 H 0.1189 1.5131 0.5661
C4 C 0.2540(6) 1.5726(3) 0.4933(2)
H8 H 0.1771 1.5970 0.4689
H9 H 0.3441 1.5916 0.4828
C5 C 0.3156(5) 1.4049(3) 0.47120(17)
C6 C 0.2940(4) 1.2933(3) 0.47914(15)
C7 C 0.2065(4) 1.2591(3) 0.51078(14)
H10 H 0.1589 1.3074 0.5277
C8 C 0.1874(4) 1.1546(3) 0.51802(13)
C9 C 0.2615(4) 1.0885(3) 0.49260(14)
C10 C 0.3488(4) 1.1186(3) 0.46008(14)
C11 C 0.3646(4) 1.2238(3) 0.45382(15)
H11 H 0.4238 1.2481 0.4322
C12 C 0.0925(4) 1.1198(3) 0.55101(14)
C13 C 0.0771(4) 1.0276(3) 0.57202(14)
H12 H 0.1264 0.9661 0.5678
C14 C -0.0857(4) 0.9743(3) 0.63062(15)
C15 C -0.0708(5) 0.8693(4) 0.62845(16)
C16 C -0.1335(6) 0.8037(4) 0.65706(18)
H13 H -0.1205 0.7319 0.6553
C17 C -0.2158(5) 0.8450(4) 0.68831(17)
H14 H -0.2590 0.8006 0.7085
C18 C -0.2371(5) 0.9496(4) 0.69102(16)
C19 C -0.1684(5) 1.0137(4) 0.66244(14)
H15 H -0.1785 1.0857 0.6649
C20 C -0.3321(5) 0.9886(5) 0.72354(17)
C21 C -0.4357(5) 1.1372(5) 0.75259(17)
H16 H -0.5150 1.0908 0.7558
H17 H -0.4745 1.2022 0.7385
C22 C -0.3560(6) 1.1575(4) 0.80063(18)
H18 H -0.3154 1.0910 0.8134
C23 C -0.2368(8) 1.2304(6) 0.7991(3)
H19 H -0.1719 1.2020 0.7788
H20 H -0.1874 1.2408 0.8315
H21 H -0.2731 1.2960 0.7859
C24 C -0.4549(7) 1.1946(6) 0.8341(2)
H22 H -0.4983 1.2590 0.8220
H23 H -0.4024 1.2056 0.8660
H24 H -0.5278 1.1431 0.8359
C25 C 0.4233(4) 1.0460(3) 0.43281(14)
C26 C 0.4244(4) 0.9411(3) 0.43141(14)
H25 H 0.3762 0.8954 0.4495
C27 C 0.5580(4) 0.8199(3) 0.38439(14)
C28 C 0.5037(5) 0.7277(3) 0.39762(17)
C29 C 0.5561(5) 0.6352(3) 0.38653(18)
H26 H 0.5159 0.5734 0.3958
C30 C 0.6696(5) 0.6334(3) 0.36136(16)
H27 H 0.7099 0.5698 0.3545
C31 C 0.7243(5) 0.7235(3) 0.34627(15)
C32 C 0.6681(4) 0.8162(3) 0.35755(14)
H28 H 0.7051 0.8780 0.3469
C33 C 0.8462(5) 0.7272(4) 0.31888(18)
C34 C 1.0367(6) 0.6354(5) 0.2963(2)
H29 H 1.1053 0.6876 0.3099
H30 H 1.0107 0.6494 0.2618
C35 C 1.0987(7) 0.5292(6) 0.3039(3)
H31 H 1.0263 0.4770 0.2920
C36 C 1.1473(9) 0.5117(7) 0.3537(4)
H32 H 1.1882 0.5748 0.3683
H33 H 1.2183 0.4576 0.3570
H34 H 1.0684 0.4907 0.3698
C37 C 1.2232(9) 0.5205(7) 0.2757(4)
H35 H 1.1926 0.5383 0.2422
H36 H 1.2588 0.4502 0.2777
H37 H 1.2977 0.5674 0.2893
loop_
_geom_bond_atom_site_label_1
_geom_bond_atom_site_label_2
_geom_bond_site_symmetry_1
_geom_bond_site_symmetry_2
F1 C15 1_555 1_555
F2 C9 1_555 1_555
F3 C28 1_555 1_555
O1 C5 1_555 1_555
O2 C4 1_555 1_555
O3 C20 1_555 1_555
O4 C20 1_555 1_555
O5 C33 1_555 1_555
O6 C33 1_555 1_555
N1 N2 1_555 1_555
N2 N3 1_555 1_555
N3 C13 1_555 1_555
N4 N5 1_555 1_555
N5 N6 1_555 1_555
N6 C26 1_555 1_555
C1 H1 1_555 1_555
H2 C1 1_555 1_555
H3 C1 1_555 1_555
C2 C1 1_555 1_555
H4 C2 1_555 1_555
C3 C2 1_555 1_555
H5 C3 1_555 1_555
H6 C3 1_555 1_555
H7 C3 1_555 1_555
C4 C2 1_555 1_555
H8 C4 1_555 1_555
H9 C4 1_555 1_555
C5 O2 1_555 1_555
C6 C5 1_555 1_555
C7 C6 1_555 1_555
H10 C7 1_555 1_555
C8 C7 1_555 1_555
C9 C8 1_555 1_555
C10 C9 1_555 1_555
C11 C6 1_555 1_555
H11 C11 1_555 1_555
C12 N1 1_555 1_555
C13 C12 1_555 1_555
H12 C13 1_555 1_555
C14 N3 1_555 1_555
C15 C14 1_555 1_555
C16 C15 1_555 1_555
H13 C16 1_555 1_555
C17 C16 1_555 1_555
H14 C17 1_555 1_555
C18 C17 1_555 1_555
C19 C14 1_555 1_555
H15 C19 1_555 1_555
C20 C18 1_555 1_555
C21 O4 1_555 1_555
H16 C21 1_555 1_555
H17 C21 1_555 1_555
C22 C21 1_555 1_555
H18 C22 1_555 1_555
C23 C22 1_555 1_555
H19 C23 1_555 1_555
H20 C23 1_555 1_555
H21 C23 1_555 1_555
C24 C22 1_555 1_555
H22 C24 1_555 1_555
H23 C24 1_555 1_555
H24 C24 1_555 1_555
C25 N4 1_555 1_555
C26 C25 1_555 1_555
H25 C26 1_555 1_555
C27 N6 1_555 1_555
C28 C27 1_555 1_555
C29 C28 1_555 1_555
H26 C29 1_555 1_555
C30 C29 1_555 1_555
H27 C30 1_555 1_555
C31 C30 1_555 1_555
C32 C27 1_555 1_555
H28 C32 1_555 1_555
C33 C31 1_555 1_555
C34 O6 1_555 1_555
H29 C34 1_555 1_555
H30 C34 1_555 1_555
C35 C34 1_555 1_555
H31 C35 1_555 1_555
C36 C35 1_555 1_555
H32 C36 1_555 1_555
H33 C36 1_555 1_555
H34 C36 1_555 1_555
C37 C35 1_555 1_555
H35 C37 1_555 1_555
H36 C37 1_555 1_555
H37 C37 1_555 1_555
C8 C12 1_555 1_555
C10 C11 1_555 1_555
C10 C25 1_555 1_555
C18 C19 1_555 1_555
C31 C32 1_555 1_555

#END
