
#######################################################################
#
#                 Cambridge Crystallographic Data Centre
#                                CCDC 
#
#######################################################################
#
# If this CIF has been generated from an entry in the Cambridge 
# Structural Database, then it will include bibliographic, chemical, 
# crystal, experimental, refinement or atomic coordinate data resulting 
# from the CCDC's data processing and validation procedures.
#
#######################################################################

data_ZOGKEN
_chemical_formula_moiety         'C23 H18 N2 O4 S1'
_chemical_name_systematic        
N-(1'-methyl-2',5-dioxo-3-(2-thienyl)-1',2',4,5-tetrahydro-3H-spiro[furan-2,3'-indol]-4-yl)benzamide
_symmetry_cell_setting           monoclinic
_symmetry_space_group_name_H-M   'P 21/n'
_symmetry_Int_Tables_number      14
_space_group_name_Hall           '-P 2yn'
loop_
_symmetry_equiv_pos_site_id
_symmetry_equiv_pos_as_xyz
1 x,y,z
2 1/2-x,1/2+y,1/2-z
3 -x,-y,-z
4 1/2+x,1/2-y,1/2+z
_cell_length_a                   10.2604(4)
_cell_length_b                   15.8897(5)
_cell_length_c                   13.0090(6)
_cell_angle_alpha                90
_cell_angle_beta                 108.475(4)
_cell_angle_gamma                90
_cell_volume                     2011.61
_cell_formula_units_Z            4
loop_
_atom_site_label
_atom_site_type_symbol
_atom_site_fract_x
_atom_site_fract_y
_atom_site_fract_z
S1 S 0.71344(12) -0.07755(7) 0.13797(11)
C1 C 0.9019(5) -0.0130(3) 0.2918(4)
H1 H 0.9563 0.0256 0.3406
C2 C 0.9362(3) -0.0963(2) 0.2938(3)
H2 H 1.0156 -0.1208 0.3398
C3 C 0.8379(3) -0.13563(19) 0.2199(3)
H3 H 0.8379 -0.1939 0.2135
O1 O 0.63957(15) 0.21308(9) 0.07385(13)
O2 O 0.65325(17) 0.06699(11) -0.05997(13)
O3 O 0.41795(17) 0.22048(12) 0.06244(16)
O4 O 0.53375(19) 0.18089(11) 0.31695(15)
C4 C 0.7492(2) 0.15106(13) 0.10571(18)
N1 N 0.47347(19) 0.06953(13) 0.20546(16)
C5 C 0.9607(2) 0.16456(14) 0.07516(18)
C6 C 0.8890(2) 0.18955(14) 0.14371(19)
C7 C 0.7506(2) 0.10425(14) 0.00212(18)
N2 N 0.87553(19) 0.11363(13) -0.00870(16)
C8 C 0.7789(2) 0.01134(14) 0.21107(18)
C9 C 0.7089(2) 0.09486(14) 0.18736(18)
H4 H 0.7309 0.1258 0.2559
C10 C 0.5229(2) 0.18183(15) 0.08883(19)
C11 C 0.4726(2) 0.11377(15) 0.29402(19)
C12 C 1.0877(3) 0.26364(18) 0.2487(3)
H5 H 1.1318 0.2978 0.3075
C13 C 0.5523(2) 0.09428(14) 0.13697(18)
H6 H 0.5302 0.0546 0.0762
C14 C 0.3738(2) -0.01034(16) 0.36457(19)
H7 H 0.4060 -0.0461 0.3214
C15 C 0.3948(2) 0.07565(15) 0.36129(18)
C16 C 0.3058(3) -0.04315(19) 0.4312(2)
H8 H 0.2933 -0.1010 0.4337
C17 C 1.0952(2) 0.18793(18) 0.0913(2)
H9 H 1.1421 0.1707 0.0444
C18 C 0.3468(3) 0.12777(18) 0.4266(2)
H10 H 0.3619 0.1855 0.4265
C19 C 1.1568(3) 0.23791(18) 0.1797(3)
H11 H 1.2475 0.2546 0.1930
C20 C 0.9523(3) 0.23925(16) 0.2319(2)
H12 H 0.9058 0.2562 0.2791
C21 C 0.2565(3) 0.0095(2) 0.4939(2)
H13 H 0.2091 -0.0127 0.5380
C22 C 0.2768(3) 0.0948(2) 0.4919(2)
H14 H 0.2433 0.1303 0.5346
C23 C 0.9130(3) 0.0831(2) -0.1009(2)
H15 H 0.8436 0.0450 -0.1425
H16 H 0.9996 0.0543 -0.0755
H17 H 0.9205 0.1297 -0.1455
H18 H 0.421(2) 0.0246(12) 0.188(2)
S2? S 0.9389(3) 0.00945(18) 0.3026(3)
C24? C 0.7367(8) -0.0733(4) 0.1870(7)
H19? H 0.6455 -0.0869 0.1509
H20? H 1.0057 -0.1273 0.3424
H21? H 0.8359 -0.1908 0.1955
loop_
_geom_bond_atom_site_label_1
_geom_bond_atom_site_label_2
_geom_bond_site_symmetry_1
_geom_bond_site_symmetry_2
S1 C3 1_555 1_555
C1 H1 1_555 1_555
C2 C1 1_555 1_555
H2 C2 1_555 1_555
C3 C2 1_555 1_555
H3 C3 1_555 1_555
O1 C4 1_555 1_555
O2 C7 1_555 1_555
O3 C10 1_555 1_555
O4 C11 1_555 1_555
C4 C6 1_555 1_555
N1 C11 1_555 1_555
C5 C6 1_555 1_555
C6 C20 1_555 1_555
C7 C4 1_555 1_555
N2 C5 1_555 1_555
C8 S1 1_555 1_555
C9 C4 1_555 1_555
H4 C9 1_555 1_555
C10 O1 1_555 1_555
C11 C15 1_555 1_555
C12 H5 1_555 1_555
C13 N1 1_555 1_555
H6 C13 1_555 1_555
C14 H7 1_555 1_555
C15 C14 1_555 1_555
C16 C14 1_555 1_555
H8 C16 1_555 1_555
C17 C5 1_555 1_555
H9 C17 1_555 1_555
C18 C15 1_555 1_555
H10 C18 1_555 1_555
C19 C12 1_555 1_555
H11 C19 1_555 1_555
C20 C12 1_555 1_555
H12 C20 1_555 1_555
C21 C16 1_555 1_555
H13 C21 1_555 1_555
C22 C18 1_555 1_555
H14 C22 1_555 1_555
C23 N2 1_555 1_555
H15 C23 1_555 1_555
H16 C23 1_555 1_555
H17 C23 1_555 1_555
H18 N1 1_555 1_555
C1 C8 1_555 1_555
C7 N2 1_555 1_555
C8 C9 1_555 1_555
C9 C13 1_555 1_555
C10 C13 1_555 1_555
C17 C19 1_555 1_555
C21 C22 1_555 1_555

#END
