
#######################################################################
#
#                 Cambridge Crystallographic Data Centre
#                                CCDC 
#
#######################################################################
#
# If this CIF has been generated from an entry in the Cambridge 
# Structural Database, then it will include bibliographic, chemical, 
# crystal, experimental, refinement or atomic coordinate data resulting 
# from the CCDC's data processing and validation procedures.
#
#######################################################################

data_ZOGLEO
_chemical_formula_moiety         'C34 H32 F7 N1 S1'
_chemical_name_systematic        
N,N-bis(4-t-Butylphenyl)-4-(2,3,3,4,4,5,5-heptafluorocyclopent-1-en-1-yl)-2-methyl-1-benzothiophen-5-amine
_symmetry_cell_setting           triclinic
_symmetry_space_group_name_H-M   'P -1'
_symmetry_Int_Tables_number      2
_space_group_name_Hall           '-P 1'
loop_
_symmetry_equiv_pos_site_id
_symmetry_equiv_pos_as_xyz
1 x,y,z
2 -x,-y,-z
_cell_length_a                   10.2806(13)
_cell_length_b                   11.7524(16)
_cell_length_c                   14.0176(18)
_cell_angle_alpha                65.590(10)
_cell_angle_beta                 88.434(15)
_cell_angle_gamma                80.768(15)
_cell_volume                     1520.83
_exptl_crystal_colour            colorless
_exptl_crystal_description       Prism
_cell_formula_units_Z            2
loop_
_atom_site_label
_atom_site_type_symbol
_atom_site_fract_x
_atom_site_fract_y
_atom_site_fract_z
S1 S 1.05865(13) 1.06095(13) 0.13673(10)
N1 N 0.8022(5) 0.6489(4) 0.4408(3)
C1 C 0.6820(8) 0.8032(7) 0.2407(7)
C2 C 0.6620(8) 0.7610(6) 0.1698(5)
C3 C 0.5200(12) 0.7593(10) 0.1493(10)
C4 C 0.4507(9) 0.7930(10) 0.2350(7)
C5 C 0.5518(13) 0.8436(10) 0.2775(8)
F1 F 0.7522(14) 0.7208(13) 0.1173(11)
F2 F 0.4806(5) 0.8389(7) 0.0493(4)
F3 F 0.5003(7) 0.6458(7) 0.1600(7)
F4 F 0.3415(5) 0.8826(7) 0.1906(6)
F5 F 0.4094(6) 0.6913(6) 0.3084(4)
F6 F 0.5296(5) 0.9752(4) 0.2371(5)
F7 F 0.5425(16) 0.8053(12) 0.3790(7)
C6 C 0.9194(5) 1.0994(5) 0.0552(4)
C7 C 0.8313(5) 1.0194(5) 0.0983(4)
H1 H 0.7504 1.0255 0.0640
C8 C 0.8734(5) 0.9248(5) 0.2012(4)
C9 C 0.9969(5) 0.9356(5) 0.2329(4)
C10 C 1.0562(5) 0.8545(5) 0.3309(4)
H2 H 1.1405 0.8628 0.3508
C11 C 0.9898(5) 0.7621(5) 0.3982(4)
H3 H 1.0283 0.7070 0.4656
C12 C 0.8670(5) 0.7479(5) 0.3691(4)
C13 C 0.8076(5) 0.8285(5) 0.2712(4)
C14 C 0.9078(6) 1.2108(5) -0.0489(4)
H4 H 0.8295 1.2131 -0.0884
H5 H 0.9866 1.2033 -0.0882
H6 H 0.8997 1.2889 -0.0382
C15 C 0.7798(5) 0.6453(5) 0.5426(4)
C16 C 0.7579(5) 0.7582(5) 0.5560(4)
H7 H 0.7551 0.8369 0.4969
C17 C 0.7403(5) 0.7562(5) 0.6548(4)
H8 H 0.7268 0.8341 0.6620
C18 C 0.7415(5) 0.6440(5) 0.7439(4)
C19 C 0.7624(5) 0.5329(5) 0.7284(4)
H9 H 0.7634 0.4542 0.7872
C20 C 0.7818(5) 0.5330(5) 0.6301(4)
H10 H 0.7965 0.4550 0.6230
C21 C 0.7263(5) 0.6400(5) 0.8542(4)
C22 C 0.6563(6) 0.7670(5) 0.8504(4)
H11 H 0.6438 0.7602 0.9220
H12 H 0.5702 0.7893 0.8133
H13 H 0.7100 0.8327 0.8135
C23 C 0.8643(6) 0.6098(6) 0.9066(4)
H14 H 0.9082 0.5267 0.9123
H15 H 0.8564 0.6089 0.9768
H16 H 0.9164 0.6747 0.8642
C24 C 0.6463(6) 0.5384(6) 0.9210(4)
H17 H 0.6939 0.4548 0.9309
H18 H 0.5604 0.5536 0.8855
H19 H 0.6334 0.5417 0.9894
C25 C 0.7863(5) 0.5469(5) 0.4153(4)
C26 C 0.6825(5) 0.4806(5) 0.4502(4)
H20 H 0.6182 0.5049 0.4911
C27 C 0.6707(5) 0.3794(5) 0.4265(4)
H21 H 0.5989 0.3350 0.4526
C28 C 0.7611(5) 0.3406(5) 0.3657(4)
C29 C 0.8637(5) 0.4110(5) 0.3283(4)
H22 H 0.9263 0.3889 0.2851
C30 C 0.8769(5) 0.5118(5) 0.3522(4)
H23 H 0.9478 0.5573 0.3256
C31 C 0.7542(5) 0.2264(5) 0.3410(4)
C32 C 0.6336(6) 0.1634(6) 0.3861(5)
H24 H 0.6377 0.1329 0.4626
H25 H 0.6330 0.0919 0.3674
H26 H 0.5530 0.2253 0.3572
C33 C 0.7461(7) 0.2691(6) 0.2210(4)
H27 H 0.6675 0.3334 0.1910
H28 H 0.7406 0.1960 0.2053
H29 H 0.8250 0.3049 0.1905
C34 C 0.8800(6) 0.1275(5) 0.3870(5)
H30 H 0.9576 0.1653 0.3558
H31 H 0.8761 0.0541 0.3714
H32 H 0.8861 0.1002 0.4632
C35? C 0.667(3) 0.840(3) 0.227(3)
C36? C 0.552(4) 0.835(3) 0.277(2)
C37? C 0.451(3) 0.822(3) 0.207(3)
C38? C 0.531(4) 0.739(3) 0.158(4)
C39? C 0.646(3) 0.806(3) 0.1371(16)
F8? F 0.526(7) 0.840(6) 0.367(3)
F9? F 0.395(3) 0.942(2) 0.138(2)
F10? F 0.357(3) 0.764(3) 0.269(2)
F11? F 0.436(2) 0.772(3) 0.0808(16)
F12? F 0.564(3) 0.611(2) 0.191(2)
F13? F 0.6218(16) 0.9049(14) 0.0440(10)
F14? F 0.759(5) 0.734(4) 0.131(4)
loop_
_geom_bond_atom_site_label_1
_geom_bond_atom_site_label_2
_geom_bond_site_symmetry_1
_geom_bond_site_symmetry_2
S1 C6 1_555 1_555
N1 C12 1_555 1_555
C1 C2 1_555 1_555
C2 C3 1_555 1_555
C3 C4 1_555 1_555
C4 C5 1_555 1_555
C5 C1 1_555 1_555
F1 C2 1_555 1_555
F2 C3 1_555 1_555
F3 C3 1_555 1_555
F4 C4 1_555 1_555
F5 C4 1_555 1_555
F6 C5 1_555 1_555
F7 C5 1_555 1_555
C6 C7 1_555 1_555
C7 H1 1_555 1_555
C8 C7 1_555 1_555
C9 S1 1_555 1_555
C10 C9 1_555 1_555
H2 C10 1_555 1_555
C11 C10 1_555 1_555
H3 C11 1_555 1_555
C12 C11 1_555 1_555
C13 C1 1_555 1_555
C14 C6 1_555 1_555
H4 C14 1_555 1_555
H5 C14 1_555 1_555
H6 C14 1_555 1_555
C15 N1 1_555 1_555
C16 C15 1_555 1_555
H7 C16 1_555 1_555
C17 C16 1_555 1_555
H8 C17 1_555 1_555
C18 C17 1_555 1_555
C19 C18 1_555 1_555
H9 C19 1_555 1_555
C20 C15 1_555 1_555
H10 C20 1_555 1_555
C21 C18 1_555 1_555
C22 C21 1_555 1_555
H11 C22 1_555 1_555
H12 C22 1_555 1_555
H13 C22 1_555 1_555
C23 C21 1_555 1_555
H14 C23 1_555 1_555
H15 C23 1_555 1_555
H16 C23 1_555 1_555
C24 C21 1_555 1_555
H17 C24 1_555 1_555
H18 C24 1_555 1_555
H19 C24 1_555 1_555
C25 N1 1_555 1_555
C26 C25 1_555 1_555
H20 C26 1_555 1_555
C27 C26 1_555 1_555
H21 C27 1_555 1_555
C28 C27 1_555 1_555
C29 C28 1_555 1_555
H22 C29 1_555 1_555
C30 C25 1_555 1_555
H23 C30 1_555 1_555
C31 C28 1_555 1_555
C32 C31 1_555 1_555
H24 C32 1_555 1_555
H25 C32 1_555 1_555
H26 C32 1_555 1_555
C33 C31 1_555 1_555
H27 C33 1_555 1_555
H28 C33 1_555 1_555
H29 C33 1_555 1_555
C34 C31 1_555 1_555
H30 C34 1_555 1_555
H31 C34 1_555 1_555
H32 C34 1_555 1_555
C8 C9 1_555 1_555
C8 C13 1_555 1_555
C12 C13 1_555 1_555
C19 C20 1_555 1_555
C29 C30 1_555 1_555

#END
