
#######################################################################
#
#                 Cambridge Crystallographic Data Centre
#                                CCDC 
#
#######################################################################
#
# If this CIF has been generated from an entry in the Cambridge 
# Structural Database, then it will include bibliographic, chemical, 
# crystal, experimental, refinement or atomic coordinate data resulting 
# from the CCDC's data processing and validation procedures.
#
#######################################################################

data_ZOGQAN03
_chemical_formula_moiety         'C17 H12 N4 O4'
_chemical_name_systematic        6-(2,4-Dinitrobenzyl)-2,2'-bipyridine
_symmetry_cell_setting           monoclinic
_symmetry_space_group_name_H-M   'P 21/c'
_symmetry_Int_Tables_number      14
_space_group_name_Hall           '-P 2ybc'
loop_
_symmetry_equiv_pos_site_id
_symmetry_equiv_pos_as_xyz
1 x,y,z
2 -x,1/2+y,1/2-z
3 -x,-y,-z
4 x,1/2-y,1/2+z
_cell_length_a                   8.340(3)
_cell_length_b                   12.740(4)
_cell_length_c                   14.408(4)
_cell_angle_alpha                90
_cell_angle_beta                 92.13(2)
_cell_angle_gamma                90
_cell_volume                     1529.82
_exptl_crystal_colour            blue
_chemical_melting_point          119-118.5deg.C
_cell_formula_units_Z            4
_exptl_crystal_preparation       non-photochromic
loop_
_atom_site_label
_atom_site_type_symbol
_atom_site_fract_x
_atom_site_fract_y
_atom_site_fract_z
N1 N 0.8616(2) 0.4376(1) 0.8217(1)
C1 C 0.8160(2) 0.3513(2) 0.7734(1)
C2 C 0.8565(3) 0.3366(2) 0.6820(2)
C3 C 0.9431(3) 0.4124(2) 0.6380(2)
C4 C 0.9883(2) 0.5015(2) 0.6869(2)
C5 C 0.9454(2) 0.5098(2) 0.7780(2)
C6 C 0.7168(2) 0.2740(2) 0.8233(1)
N2 N 0.6542(2) 0.1945(1) 0.7725(1)
C7 C 0.6858(3) 0.2868(2) 0.9163(2)
C8 C 0.5869(3) 0.2171(2) 0.9583(2)
C9 C 0.5215(3) 0.1357(2) 0.9068(2)
C10 C 0.5584(2) 0.1262(2) 0.8144(1)
C11 C 0.4823(3) 0.0412(2) 0.7542(2)
C12 C 0.5982(2) -0.0234(2) 0.7000(1)
C13 C 0.6715(2) -0.1170(2) 0.7306(1)
C14 C 0.7662(2) -0.1777(2) 0.6756(1)
C15 C 0.7964(2) -0.1410(2) 0.5888(1)
C16 C 0.7333(3) -0.0485(2) 0.5550(1)
C17 C 0.6339(2) 0.0077(2) 0.6104(2)
N3 N 0.6555(2) -0.1548(1) 0.8265(1)
O1 O 0.6217(2) -0.0915(1) 0.8858(1)
O2 O 0.6819(2) -0.2469(1) 0.8431(1)
N4 N 0.9043(2) -0.2025(1) 0.5318(1)
O3 O 0.9343(2) -0.2927(1) 0.5555(1)
O4 O 0.9605(2) -0.1606(1) 0.4641(1)
H1 H 0.8245 0.2745 0.6498
H2 H 0.9713 0.4036 0.5751
H3 H 1.0473 0.5556 0.6584
H4 H 0.9778 0.5707 0.8116
H5 H 0.7326 0.3434 0.9506
H6 H 0.5638 0.2247 1.0219
H7 H 0.4518 0.0866 0.9343
H8 H 0.8090 -0.2427 0.6972
H9 H 0.7578 -0.0240 0.4948
H10 H 0.5872 0.0706 0.5864
H11 H 0.3996 0.0798 0.7055
H12 H 0.4137 -0.0143 0.7910
loop_
_geom_bond_atom_site_label_1
_geom_bond_atom_site_label_2
_geom_bond_site_symmetry_1
_geom_bond_site_symmetry_2
N1 C1 1_555 1_555
C1 C2 1_555 1_555
C2 C3 1_555 1_555
C3 C4 1_555 1_555
C4 C5 1_555 1_555
C5 N1 1_555 1_555
C6 C1 1_555 1_555
N2 C6 1_555 1_555
C7 C6 1_555 1_555
C8 C7 1_555 1_555
C9 C8 1_555 1_555
C10 N2 1_555 1_555
C11 C10 1_555 1_555
C12 C11 1_555 1_555
C13 C12 1_555 1_555
C14 C13 1_555 1_555
C15 C14 1_555 1_555
C16 C15 1_555 1_555
C17 C12 1_555 1_555
N3 C13 1_555 1_555
O1 N3 1_555 1_555
O2 N3 1_555 1_555
N4 C15 1_555 1_555
O3 N4 1_555 1_555
O4 N4 1_555 1_555
H1 C2 1_555 1_555
H2 C3 1_555 1_555
H3 C4 1_555 1_555
H4 C5 1_555 1_555
H5 C7 1_555 1_555
H6 C8 1_555 1_555
H7 C9 1_555 1_555
H8 C14 1_555 1_555
H9 C16 1_555 1_555
H10 C17 1_555 1_555
H11 C11 1_555 1_555
H12 C11 1_555 1_555
C9 C10 1_555 1_555
C16 C17 1_555 1_555

#END
