
#######################################################################
#
#                 Cambridge Crystallographic Data Centre
#                                CCDC 
#
#######################################################################
#
# If this CIF has been generated from an entry in the Cambridge 
# Structural Database, then it will include bibliographic, chemical, 
# crystal, experimental, refinement or atomic coordinate data resulting 
# from the CCDC's data processing and validation procedures.
#
#######################################################################

data_ZOGROC
_chemical_formula_moiety         'C18 H14 Cl1 F1 N2 O6 S1'
_chemical_name_systematic        
'2-Hydroxypropanoic acid ((1-(aminocarbonyl)-6-chloro-5-fluoro-1,2-dihydro-2-oxo-3H-indol-3-ylidene)-2-thienylmethoxy)methyl ester'
_symmetry_cell_setting           triclinic
_symmetry_space_group_name_H-M   'P -1'
_symmetry_Int_Tables_number      2
_space_group_name_Hall           '-P 1'
loop_
_symmetry_equiv_pos_site_id
_symmetry_equiv_pos_as_xyz
1 x,y,z
2 -x,-y,-z
_cell_length_a                   7.823(2)
_cell_length_b                   10.434(2)
_cell_length_c                   12.249(2)
_cell_angle_alpha                88.54(1)
_cell_angle_beta                 75.99(1)
_cell_angle_gamma                88.59(1)
_cell_volume                     969.595
_chemical_melting_point          184-187deg.C
_cell_formula_units_Z            2
loop_
_atom_site_label
_atom_site_type_symbol
_atom_site_fract_x
_atom_site_fract_y
_atom_site_fract_z
N1 N 0.2213(4) 0.4194(3) -0.0383(3)
C1 C 0.3171(5) 0.4733(4) -0.1403(4)
O1 O 0.3489(5) 0.4193(3) -0.2302(3)
C2 C 0.3689(5) 0.6013(4) -0.1130(4)
C3 C 0.3160(5) 0.6124(4) 0.0075(3)
C4 C 0.2187(5) 0.5036(4) 0.0510(3)
C5 C 0.1418(5) 0.4898(4) 0.1644(4)
C6 C 0.1655(5) 0.5861(4) 0.2352(4)
Cl1 Cl 0.0679(2) 0.5753(2) 0.3772(1)
C7 C 0.2646(5) 0.6894(4) 0.1923(4)
F1 F 0.2913(4) 0.7808(3) 0.2637(2)
C8 C 0.3407(5) 0.7060(4) 0.0801(4)
C9 C 0.4518(5) 0.6908(4) -0.1903(4)
O2 O 0.5067(4) 0.7936(3) -0.1434(3)
C10 C 0.5439(5) 0.9123(4) -0.2033(4)
O3 O 0.7269(4) 0.9188(3) -0.2490(3)
C11 C 0.8281(5) 0.9572(4) -0.1802(4)
O4 O 0.7704(4) 0.9942(3) -0.0877(3)
C12 C 1.0203(6) 0.9432(5) -0.2399(4)
O5 O 1.1282(4) 0.9563(3) -0.1656(3)
C13 C 1.0777(6) 1.0303(6) -0.3383(5)
C14 C 0.4827(5) 0.6851(4) -0.3128(3)
S1 S 0.3151(2) 0.6631(2) -0.3756(2)
C15 C 0.4509(6) 0.6703(5) -0.5027(4)
C16 C 0.6165(6) 0.6873(5) -0.5039(4)
C17 C 0.6581(5) 0.7031(4) -0.3966(3)
C18 C 0.1405(5) 0.2969(4) -0.0232(4)
N2 N 0.1847(6) 0.2229(4) -0.1116(4)
O6 O 0.0406(4) 0.2696(3) 0.0660(3)
H1 H 0.0736 0.4158 0.1935
H2 H 0.4090 0.7804 0.0524
H3 H 0.5056 0.9820 -0.1529
H4 H 0.4834 0.9176 -0.2628
H5 H 1.0327 0.8580 -0.2688
H6 H 1.1145(8) 0.9102(8) -0.1224(8)
H7 H 1.0025 1.0206 -0.3889
H8 H 1.1971 1.0092 -0.3763
H9 H 1.0707 1.1173 -0.3139
H10 H 0.4107 0.6625 -0.5702
H11 H 0.7060 0.6891 -0.5731
H12 H 0.7702 0.7209 -0.3819
H13 H 0.2466(8) 0.2502(8) -0.1706(8)
H14 H 0.1380(8) 0.1597(8) -0.0994(8)
loop_
_geom_bond_atom_site_label_1
_geom_bond_atom_site_label_2
_geom_bond_site_symmetry_1
_geom_bond_site_symmetry_2
N1 C1 1_555 1_555
C1 O1 1_555 1_555
C2 C1 1_555 1_555
C3 C2 1_555 1_555
C4 N1 1_555 1_555
C5 C4 1_555 1_555
C6 C5 1_555 1_555
Cl1 C6 1_555 1_555
C7 C6 1_555 1_555
F1 C7 1_555 1_555
C8 C3 1_555 1_555
C9 C2 1_555 1_555
O2 C9 1_555 1_555
C10 O2 1_555 1_555
O3 C10 1_555 1_555
C11 O3 1_555 1_555
O4 C11 1_555 1_555
C12 C11 1_555 1_555
O5 C12 1_555 1_555
C13 C12 1_555 1_555
C14 C9 1_555 1_555
S1 C14 1_555 1_555
C15 S1 1_555 1_555
C16 C15 1_555 1_555
C17 C14 1_555 1_555
C18 N1 1_555 1_555
N2 C18 1_555 1_555
O6 C18 1_555 1_555
H1 C5 1_555 1_555
H2 C8 1_555 1_555
H3 C10 1_555 1_555
H4 C10 1_555 1_555
H5 C12 1_555 1_555
H6 O5 1_555 1_555
H7 C13 1_555 1_555
H8 C13 1_555 1_555
H9 C13 1_555 1_555
H10 C15 1_555 1_555
H11 C16 1_555 1_555
H12 C17 1_555 1_555
H13 N2 1_555 1_555
H14 N2 1_555 1_555
C3 C4 1_555 1_555
C7 C8 1_555 1_555
C16 C17 1_555 1_555

#END
