
#######################################################################
#
#                 Cambridge Crystallographic Data Centre
#                                CCDC 
#
#######################################################################
#
# If this CIF has been generated from an entry in the Cambridge 
# Structural Database, then it will include bibliographic, chemical, 
# crystal, experimental, refinement or atomic coordinate data resulting 
# from the CCDC's data processing and validation procedures.
#
#######################################################################

data_ZOGZAY
_chemical_formula_moiety         'C21 H20 N2 O6 S1'
_chemical_name_systematic        
'methyl 5-(t-butylamino)-2-(4-nitrophenyl)-4-(thiophene-2-carbonyl)furan-3-carboxylate'
_symmetry_cell_setting           orthorhombic
_symmetry_space_group_name_H-M   'P 21 21 21'
_symmetry_Int_Tables_number      19
_space_group_name_Hall           'P 2ac 2ab'
loop_
_symmetry_equiv_pos_site_id
_symmetry_equiv_pos_as_xyz
1 x,y,z
2 1/2-x,-y,1/2+z
3 1/2+x,1/2-y,-z
4 -x,1/2+y,1/2-z
_cell_length_a                   8.534(2)
_cell_length_b                   15.242(4)
_cell_length_c                   16.014(4)
_cell_angle_alpha                90
_cell_angle_beta                 90
_cell_angle_gamma                90
_cell_volume                     2083.02
_exptl_crystal_colour            orange
_exptl_crystal_description       parallelepiped
_cell_formula_units_Z            4
loop_
_atom_site_label
_atom_site_type_symbol
_atom_site_fract_x
_atom_site_fract_y
_atom_site_fract_z
S1 S 0.44608(7) 0.44747(3) 0.37961(3)
C1 C 0.3122(2) 0.60763(11) 0.34333(11)
O1 O 0.21326(17) 0.57211(9) 0.29728(10)
C2 C 0.3989(2) 0.55391(11) 0.40472(11)
C3 C 0.4460(2) 0.57446(12) 0.48409(12)
H1 H 0.4289 0.6286 0.5092
C4 C 0.5237(3) 0.50382(14) 0.52331(13)
H2 H 0.5640 0.5063 0.5772
C5 C 0.5332(3) 0.43177(13) 0.47355(13)
H3 H 0.5820 0.3798 0.4893
O2 O 0.27295(13) 0.84041(7) 0.30872(8)
O3 O 0.65598(18) 0.76172(10) 0.47791(9)
O4 O 0.67733(15) 0.67269(9) 0.36715(9)
C6 C 0.23428(19) 0.75591(11) 0.29734(11)
C7 C 0.3393(2) 0.70068(11) 0.33799(10)
C8 C 0.45413(19) 0.75920(10) 0.37438(10)
C9 C 0.40995(19) 0.84289(11) 0.35681(10)
C10 C 0.6048(2) 0.73305(11) 0.41324(12)
C11 C 0.8178(3) 0.63438(16) 0.40363(17)
H4 H 0.8914 0.6801 0.4163
H5 H 0.8639 0.5941 0.3647
H6 H 0.7906 0.6037 0.4540
C12 C -0.0059(2) 0.79983(13) 0.21448(12)
C13 C -0.0833(3) 0.85462(16) 0.28212(15)
H7 H -0.1296 0.8166 0.3230
H8 H -0.1632 0.8908 0.2577
H9 H -0.0061 0.8912 0.3084
N1 N 0.6059(2) 1.19416(10) 0.41096(11)
O5 O 0.6967(3) 1.20990(11) 0.46819(11)
O6 O 0.5531(2) 1.25087(9) 0.36467(11)
N2 N 0.10830(19) 0.73763(11) 0.25165(10)
H10 H 0.095(3) 0.6823(11) 0.2443(13)
C14 C 0.0727(3) 0.85862(17) 0.15072(14)
H11 H 0.1565 0.8904 0.1769
H12 H -0.0026 0.8993 0.1287
H13 H 0.1139 0.8234 0.1061
C15 C -0.1272(3) 0.74171(17) 0.17278(16)
H14 H -0.0775 0.7066 0.1306
H15 H -0.2065 0.7776 0.1475
H16 H -0.1744 0.7041 0.2138
C16 C 0.4655(2) 0.93188(10) 0.37104(11)
C17 C 0.4094(2) 0.99972(11) 0.32012(12)
H17 H 0.3396 0.9868 0.2773
C18 C 0.4563(2) 1.08528(11) 0.33260(12)
H18 H 0.4196 1.1300 0.2983
C19 C 0.5587(2) 1.10306(11) 0.39684(11)
C20 C 0.6154(2) 1.03866(12) 0.44822(13)
H19 H 0.6845 1.0525 0.4911
C21 C 0.5687(2) 0.95284(12) 0.43554(12)
H20 H 0.6063 0.9087 0.4703
loop_
_geom_bond_atom_site_label_1
_geom_bond_atom_site_label_2
_geom_bond_site_symmetry_1
_geom_bond_site_symmetry_2
S1 C2 1_555 1_555
C1 O1 1_555 1_555
C2 C1 1_555 1_555
C3 C2 1_555 1_555
H1 C3 1_555 1_555
C4 C3 1_555 1_555
H2 C4 1_555 1_555
C5 S1 1_555 1_555
H3 C5 1_555 1_555
O2 C6 1_555 1_555
O3 C10 1_555 1_555
O4 C10 1_555 1_555
C6 C7 1_555 1_555
C7 C1 1_555 1_555
C8 C7 1_555 1_555
C9 O2 1_555 1_555
C10 C8 1_555 1_555
C11 O4 1_555 1_555
H4 C11 1_555 1_555
H5 C11 1_555 1_555
H6 C11 1_555 1_555
C12 C13 1_555 1_555
C13 H7 1_555 1_555
H8 C13 1_555 1_555
H9 C13 1_555 1_555
N1 O5 1_555 1_555
O6 N1 1_555 1_555
N2 C6 1_555 1_555
H10 N2 1_555 1_555
C14 C12 1_555 1_555
H11 C14 1_555 1_555
H12 C14 1_555 1_555
H13 C14 1_555 1_555
C15 C12 1_555 1_555
H14 C15 1_555 1_555
H15 C15 1_555 1_555
H16 C15 1_555 1_555
C16 C9 1_555 1_555
C17 C16 1_555 1_555
H17 C17 1_555 1_555
C18 C17 1_555 1_555
H18 C18 1_555 1_555
C19 N1 1_555 1_555
C20 C19 1_555 1_555
H19 C20 1_555 1_555
C21 C16 1_555 1_555
H20 C21 1_555 1_555
C4 C5 1_555 1_555
C8 C9 1_555 1_555
C12 N2 1_555 1_555
C18 C19 1_555 1_555
C20 C21 1_555 1_555

#END
