
#######################################################################
#
#                 Cambridge Crystallographic Data Centre
#                                CCDC 
#
#######################################################################
#
# If this CIF has been generated from an entry in the Cambridge 
# Structural Database, then it will include bibliographic, chemical, 
# crystal, experimental, refinement or atomic coordinate data resulting 
# from the CCDC's data processing and validation procedures.
#
#######################################################################

data_ZOHDEH
_chemical_formula_moiety         'C24 H27 N3 O3'
_chemical_name_systematic        
'methyl N-((3-methyl-5-oxo-1-phenyl-1,5-dihydro-4H-pyrazol-4-ylidene)(4-methylphenyl)methyl)valinate'
_chemical_properties_biological  
'antibacterial activity against E. coli and Bacillus subtilis'
_symmetry_cell_setting           orthorhombic
_symmetry_space_group_name_H-M   'P 21 21 21'
_symmetry_Int_Tables_number      19
_space_group_name_Hall           'P 2ac 2ab'
loop_
_symmetry_equiv_pos_site_id
_symmetry_equiv_pos_as_xyz
1 x,y,z
2 1/2-x,-y,1/2+z
3 -x,1/2+y,1/2-z
4 1/2+x,1/2-y,-z
_cell_length_a                   9.9057(6)
_cell_length_b                   17.7063(10)
_cell_length_c                   38.839(2)
_cell_angle_alpha                90
_cell_angle_beta                 90
_cell_angle_gamma                90
_cell_volume                     6812.1
_exptl_crystal_colour            yellow
_exptl_crystal_description       BLOCK
_cell_formula_units_Z            12
loop_
_atom_site_label
_atom_site_type_symbol
_atom_site_fract_x
_atom_site_fract_y
_atom_site_fract_z
O1 O 0.5891(3) 0.89718(19) 0.18710(7)
O2 O 0.6777(4) 1.0193(2) 0.09574(9)
O3 O 0.6539(3) 0.9746(2) 0.04277(9)
N1 N 0.3950(4) 0.8424(2) 0.21110(9)
N2 N 0.2794(4) 0.8056(2) 0.19962(10)
N3 N 0.5858(4) 0.8787(2) 0.11874(9)
C1 C 0.2914(6) 0.8601(3) 0.26643(12)
H1 H 0.2108 0.8429 0.2570
C2 C 0.2946(8) 0.8836(4) 0.30020(15)
H2 H 0.2163 0.8840 0.3134
C3 C 0.4137(10) 0.9060(4) 0.31389(15)
H3 H 0.4167 0.9215 0.3367
C4 C 0.5305(7) 0.9062(3) 0.29475(15)
H4 H 0.6118 0.9211 0.3047
C5 C 0.5259(6) 0.8843(3) 0.26068(13)
H5 H 0.6038 0.8847 0.2473
C6 C 0.4049(5) 0.8620(3) 0.24673(12)
C7 C 0.2921(4) 0.7995(2) 0.16614(12)
C8 C 0.4143(4) 0.8333(3) 0.15444(11)
C9 C 0.4801(5) 0.8619(3) 0.18443(12)
C10 C 0.1828(5) 0.7616(3) 0.14661(12)
H6 H 0.1181 0.7409 0.1624
H7 H 0.2204 0.7218 0.1329
H8 H 0.1391 0.7977 0.1319
C11 C 0.4699(4) 0.8414(3) 0.12163(11)
C12 C 0.4008(4) 0.8094(3) 0.09077(11)
C13 C 0.4170(5) 0.7352(3) 0.08213(12)
H9 H 0.4764 0.7048 0.0945
C14 C 0.3438(6) 0.7056(3) 0.05470(13)
H10 H 0.3545 0.6549 0.0490
C15 C 0.2575(6) 0.7483(4) 0.03601(12)
C16 C 0.2458(5) 0.8237(4) 0.04447(13)
H11 H 0.1891 0.8546 0.0316
C17 C 0.3171(5) 0.8542(3) 0.07184(12)
H12 H 0.3080 0.9051 0.0773
C18 C 0.1705(7) 0.7163(4) 0.00660(14)
H13 H 0.0770 0.7181 0.0131
H14 H 0.1961 0.6649 0.0022
H15 H 0.1841 0.7459 -0.0138
C19 C 0.6640(4) 0.8862(3) 0.08736(12)
H16 H 0.6237 0.8552 0.0692
C20 C 0.8108(5) 0.8590(3) 0.09462(15)
H17 H 0.8446 0.8878 0.1144
C21 C 0.8090(7) 0.7775(4) 0.10481(18)
H18 H 0.7711 0.7480 0.0865
H19 H 0.7553 0.7714 0.1252
H20 H 0.8996 0.7609 0.1093
C22 C 0.9035(6) 0.8722(5) 0.06580(17)
H21 H 0.9949 0.8662 0.0736
H22 H 0.8911 0.9226 0.0572
H23 H 0.8853 0.8365 0.0478
C23 C 0.6639(5) 0.9672(4) 0.07671(14)
C24 C 0.6662(6) 1.0492(3) 0.02817(14)
H24 H 0.5895 1.0791 0.0347
H25 H 0.6702 1.0455 0.0035
H26 H 0.7472 1.0726 0.0366
O4 O 0.5008(3) 0.4205(2) -0.02106(7)
O5 O 0.3350(4) 0.4936(2) 0.06137(9)
O6 O 0.3569(4) 0.4703(2) 0.11681(8)
N4 N 0.7057(3) 0.3913(2) -0.04747(8)
N5 N 0.8279(4) 0.3573(2) -0.03785(9)
N6 N 0.5078(3) 0.3788(2) 0.04646(8)
C25 C 0.5728(6) 0.4424(3) -0.09498(13)
H27 H 0.4936 0.4326 -0.0829
C26 C 0.5661(7) 0.4754(4) -0.12688(14)
H28 H 0.4827 0.4879 -0.1363
C27 C 0.6792(9) 0.4897(3) -0.14453(14)
H29 H 0.6743 0.5127 -0.1660
C28 C 0.8015(7) 0.4706(4) -0.13109(14)
H30 H 0.8794 0.4793 -0.1438
C29 C 0.8112(6) 0.4386(3) -0.09895(12)
H31 H 0.8954 0.4273 -0.0897
C30 C 0.6961(5) 0.4235(3) -0.08057(11)
C31 C 0.6157(5) 0.3923(3) -0.02039(11)
C32 C 0.6858(4) 0.3562(2) 0.00780(10)
C33 C 0.8139(4) 0.3361(2) -0.00565(11)
C34 C 0.9282(4) 0.2956(3) 0.01185(12)
H32 H 1.0025 0.2907 -0.0038
H33 H 0.8986 0.2463 0.0189
H34 H 0.9563 0.3238 0.0317
C35 C 0.6319(4) 0.3519(2) 0.04086(11)
C36 C 0.7110(4) 0.3199(3) 0.06997(10)
C37 C 0.7011(5) 0.2451(3) 0.07949(13)
H35 H 0.6414 0.2132 0.0681
C38 C 0.7795(6) 0.2179(3) 0.10584(14)
H36 H 0.7727 0.1671 0.1117
C39 C 0.8670(5) 0.2628(4) 0.12366(13)
C40 C 0.8737(4) 0.3370(3) 0.11459(11)
H37 H 0.9304 0.3691 0.1268
C41 C 0.7979(4) 0.3658(3) 0.08757(10)
H38 H 0.8062 0.4164 0.0814
C42 C 0.9491(6) 0.2324(4) 0.15346(14)
H39 H 0.8909 0.2057 0.1690
H40 H 0.9914 0.2737 0.1654
H41 H 1.0172 0.1987 0.1449
C43 C 0.4413(4) 0.3797(3) 0.08018(10)
H42 H 0.5107 0.3752 0.0980
C44 C 0.3430(5) 0.3131(3) 0.08398(12)
H43 H 0.3920 0.2677 0.0768
C45 C 0.3005(8) 0.3005(4) 0.12183(13)
H44 H 0.2461 0.3422 0.1294
H45 H 0.3796 0.2969 0.1360
H46 H 0.2494 0.2546 0.1236
C46 C 0.2218(5) 0.3196(3) 0.06080(14)
H47 H 0.1740 0.3654 0.0659
H48 H 0.1632 0.2771 0.0644
H49 H 0.2507 0.3204 0.0372
C47 C 0.3737(5) 0.4542(3) 0.08407(14)
C48 C 0.2810(7) 0.5395(4) 0.12459(16)
H50 H 0.2584 0.5648 0.1035
H51 H 0.3353 0.5722 0.1386
H52 H 0.1998 0.5267 0.1367
O7 O 0.0341(4) 0.0491(2) 0.34879(8)
O8 O -0.0553(6) -0.0795(3) 0.26771(13)
O9 O -0.0407(4) -0.0617(3) 0.21185(11)
N7 N 0.2313(4) 0.0909(2) 0.37510(10)
N8 N 0.3564(4) 0.1184(3) 0.36528(11)
N9 N 0.0635(4) 0.0573(3) 0.28020(10)
C49 C 0.0754(6) 0.0696(3) 0.42272(13)
H53 H 0.0027 0.0761 0.4079
C50 C 0.0533(7) 0.0538(4) 0.45692(16)
H54 H -0.0341 0.0510 0.4656
C51 C 0.1632(9) 0.0422(3) 0.47823(15)
H55 H 0.1487 0.0286 0.5011
C52 C 0.2921(8) 0.0501(3) 0.46654(16)
H56 H 0.3644 0.0439 0.4816
C53 C 0.3154(7) 0.0674(3) 0.43232(14)
H57 H 0.4032 0.0733 0.4243
C54 C 0.2081(6) 0.0758(3) 0.41032(13)
C55 C 0.1496(6) 0.0775(3) 0.34767(13)
C56 C 0.2292(5) 0.0981(3) 0.31831(12)
C57 C 0.3534(5) 0.1234(3) 0.33161(13)
C58 C 0.4756(6) 0.1523(4) 0.31353(13)
H58 H 0.5418 0.1674 0.3302
H59 H 0.4514 0.1948 0.2995
H60 H 0.5123 0.1131 0.2992
C59 C 0.1850(5) 0.0887(3) 0.28538(12)
C60 C 0.2716(5) 0.1092(3) 0.25496(11)
C61 C 0.2732(8) 0.1812(3) 0.24158(15)
H61 H 0.2153 0.2182 0.2501
C62 C 0.3629(8) 0.1976(4) 0.21519(16)
H62 H 0.3664 0.2466 0.2065
C63 C 0.4459(6) 0.1441(4) 0.20161(14)
C64 C 0.4403(5) 0.0738(3) 0.21445(13)
H63 H 0.4956 0.0364 0.2052
C65 C 0.3529(5) 0.0558(3) 0.24144(12)
H64 H 0.3508 0.0069 0.2501
C66 C 0.5440(7) 0.1657(4) 0.17354(15)
H65 H 0.5962 0.1223 0.1670
H66 H 0.6033 0.2045 0.1818
H67 H 0.4950 0.1840 0.1539
C67 C 0.0001(5) 0.0417(3) 0.24629(13)
H68 H 0.0658 0.0537 0.2282
C68 C -0.1267(7) 0.0916(4) 0.24068(17)
H69 H -0.1626 0.0824 0.2175
C69 C -0.2306(8) 0.0776(7) 0.26557(19)
H70 H -0.2111 0.1050 0.2863
H71 H -0.2343 0.0245 0.2706
H72 H -0.3160 0.0938 0.2565
C70 C -0.0909(11) 0.1737(5) 0.2442(2)
H73 H -0.1662 0.2041 0.2371
H74 H -0.0144 0.1849 0.2299
H75 H -0.0691 0.1846 0.2677
C71 C -0.0342(5) -0.0394(4) 0.24365(18)
C72 C -0.0811(7) -0.1383(4) 0.20503(18)
H76 H -0.0466 -0.1707 0.2228
H77 H -0.0458 -0.1539 0.1831
H78 H -0.1779 -0.1413 0.2046
loop_
_geom_bond_atom_site_label_1
_geom_bond_atom_site_label_2
_geom_bond_site_symmetry_1
_geom_bond_site_symmetry_2
O1 C9 1_555 1_555
O2 C23 1_555 1_555
O3 C23 1_555 1_555
N1 N2 1_555 1_555
N2 C7 1_555 1_555
N3 C11 1_555 1_555
C1 H1 1_555 1_555
C2 C1 1_555 1_555
H2 C2 1_555 1_555
C3 C2 1_555 1_555
H3 C3 1_555 1_555
C4 C3 1_555 1_555
H4 C4 1_555 1_555
C5 C4 1_555 1_555
H5 C5 1_555 1_555
C6 N1 1_555 1_555
C7 C8 1_555 1_555
C8 C9 1_555 1_555
C9 N1 1_555 1_555
C10 C7 1_555 1_555
H6 C10 1_555 1_555
H7 C10 1_555 1_555
H8 C10 1_555 1_555
C11 C8 1_555 1_555
C12 C11 1_555 1_555
C13 C12 1_555 1_555
H9 C13 1_555 1_555
C14 C13 1_555 1_555
H10 C14 1_555 1_555
C15 C14 1_555 1_555
C16 C15 1_555 1_555
H11 C16 1_555 1_555
C17 C12 1_555 1_555
H12 C17 1_555 1_555
C18 C15 1_555 1_555
H13 C18 1_555 1_555
H14 C18 1_555 1_555
H15 C18 1_555 1_555
C19 N3 1_555 1_555
H16 C19 1_555 1_555
C20 C19 1_555 1_555
H17 C20 1_555 1_555
C21 C20 1_555 1_555
H18 C21 1_555 1_555
H19 C21 1_555 1_555
H20 C21 1_555 1_555
C22 C20 1_555 1_555
H21 C22 1_555 1_555
H22 C22 1_555 1_555
H23 C22 1_555 1_555
C23 C19 1_555 1_555
C24 O3 1_555 1_555
H24 C24 1_555 1_555
H25 C24 1_555 1_555
H26 C24 1_555 1_555
O4 C31 1_555 1_555
O5 C47 1_555 1_555
O6 C47 1_555 1_555
N4 N5 1_555 1_555
N5 C33 1_555 1_555
N6 C35 1_555 1_555
C25 H27 1_555 1_555
C26 C25 1_555 1_555
H28 C26 1_555 1_555
C27 C26 1_555 1_555
H29 C27 1_555 1_555
C28 C27 1_555 1_555
H30 C28 1_555 1_555
C29 C28 1_555 1_555
H31 C29 1_555 1_555
C30 N4 1_555 1_555
C31 N4 1_555 1_555
C32 C31 1_555 1_555
C33 C32 1_555 1_555
C34 C33 1_555 1_555
H32 C34 1_555 1_555
H33 C34 1_555 1_555
H34 C34 1_555 1_555
C35 C32 1_555 1_555
C36 C35 1_555 1_555
C37 C36 1_555 1_555
H35 C37 1_555 1_555
C38 C37 1_555 1_555
H36 C38 1_555 1_555
C39 C38 1_555 1_555
C40 C39 1_555 1_555
H37 C40 1_555 1_555
C41 C36 1_555 1_555
H38 C41 1_555 1_555
C42 C39 1_555 1_555
H39 C42 1_555 1_555
H40 C42 1_555 1_555
H41 C42 1_555 1_555
C43 N6 1_555 1_555
H42 C43 1_555 1_555
C44 C43 1_555 1_555
H43 C44 1_555 1_555
C45 C44 1_555 1_555
H44 C45 1_555 1_555
H45 C45 1_555 1_555
H46 C45 1_555 1_555
C46 C44 1_555 1_555
H47 C46 1_555 1_555
H48 C46 1_555 1_555
H49 C46 1_555 1_555
C47 C43 1_555 1_555
C48 O6 1_555 1_555
H50 C48 1_555 1_555
H51 C48 1_555 1_555
H52 C48 1_555 1_555
O7 C55 1_555 1_555
O8 C71 1_555 1_555
O9 C71 1_555 1_555
N7 N8 1_555 1_555
N8 C57 1_555 1_555
N9 C59 1_555 1_555
C49 H53 1_555 1_555
C50 C49 1_555 1_555
H54 C50 1_555 1_555
C51 C50 1_555 1_555
H55 C51 1_555 1_555
C52 C51 1_555 1_555
H56 C52 1_555 1_555
C53 C52 1_555 1_555
H57 C53 1_555 1_555
C54 N7 1_555 1_555
C55 N7 1_555 1_555
C56 C55 1_555 1_555
C57 C56 1_555 1_555
C58 C57 1_555 1_555
H58 C58 1_555 1_555
H59 C58 1_555 1_555
H60 C58 1_555 1_555
C59 C56 1_555 1_555
C60 C59 1_555 1_555
C61 C60 1_555 1_555
H61 C61 1_555 1_555
C62 C61 1_555 1_555
H62 C62 1_555 1_555
C63 C62 1_555 1_555
C64 C63 1_555 1_555
H63 C64 1_555 1_555
C65 C60 1_555 1_555
H64 C65 1_555 1_555
C66 C63 1_555 1_555
H65 C66 1_555 1_555
H66 C66 1_555 1_555
H67 C66 1_555 1_555
C67 N9 1_555 1_555
H68 C67 1_555 1_555
C68 C67 1_555 1_555
H69 C68 1_555 1_555
C69 C68 1_555 1_555
H70 C69 1_555 1_555
H71 C69 1_555 1_555
H72 C69 1_555 1_555
C70 C68 1_555 1_555
H73 C70 1_555 1_555
H74 C70 1_555 1_555
H75 C70 1_555 1_555
C71 C67 1_555 1_555
C72 O9 1_555 1_555
H76 C72 1_555 1_555
H77 C72 1_555 1_555
H78 C72 1_555 1_555
C1 C6 1_555 1_555
C5 C6 1_555 1_555
C16 C17 1_555 1_555
C25 C30 1_555 1_555
C29 C30 1_555 1_555
C40 C41 1_555 1_555
C49 C54 1_555 1_555
C53 C54 1_555 1_555
C64 C65 1_555 1_555

#END
