
#######################################################################
#
#                 Cambridge Crystallographic Data Centre
#                                CCDC 
#
#######################################################################
#
# If this CIF has been generated from an entry in the Cambridge 
# Structural Database, then it will include bibliographic, chemical, 
# crystal, experimental, refinement or atomic coordinate data resulting 
# from the CCDC's data processing and validation procedures.
#
#######################################################################

data_ZOHFEJ
_chemical_formula_moiety         'C18 H14 Br2 N2'
_chemical_name_systematic        
7-bromo-3-(2-(4-bromophenyl)ethyl)-2,4-dihydroindeno[1,2-c]pyrazole
_symmetry_cell_setting           monoclinic
_symmetry_space_group_name_H-M   'P 21/c'
_symmetry_Int_Tables_number      14
_space_group_name_Hall           '-P 2ybc'
loop_
_symmetry_equiv_pos_site_id
_symmetry_equiv_pos_as_xyz
1 x,y,z
2 -x,1/2+y,1/2-z
3 -x,-y,-z
4 x,1/2-y,1/2+z
_cell_length_a                   4.77210(10)
_cell_length_b                   11.6674(4)
_cell_length_c                   28.3435(7)
_cell_angle_alpha                90
_cell_angle_beta                 91.5770(10)
_cell_angle_gamma                90
_cell_volume                     1577.51
_exptl_crystal_colour            colorless
_exptl_crystal_description       prism
_chemical_melting_point          '420 K'
_cell_formula_units_Z            4
loop_
_atom_site_label
_atom_site_type_symbol
_atom_site_fract_x
_atom_site_fract_y
_atom_site_fract_z
Br1 Br 0.05105(9) 0.63679(3) 0.268950(13)
Br2 Br -1.78371(11) -0.02004(4) 0.652426(17)
N1 N -0.6771(7) 0.4078(3) 0.47281(10)
N2 N -0.5030(7) 0.4720(2) 0.44602(10)
C1 C -0.8146(8) 0.3232(3) 0.44906(12)
C2 C -1.0139(8) 0.2458(3) 0.47382(12)
H1 H -0.9567 0.1668 0.4693
H2 H -1.2000 0.2548 0.4597
C3 C -1.0256(9) 0.2703(4) 0.52599(12)
H3 H -0.8376 0.2620 0.5394
H4 H -1.0793 0.3499 0.5298
C4 C -0.7552(8) 0.2840(3) 0.35386(11)
H5 H -0.9461 0.2906 0.3415
H6 H -0.6973 0.2043 0.3529
C5 C -0.4880(8) 0.3599(3) 0.28015(12)
H7 H -0.5672 0.3054 0.2599
C6 C -0.3014(8) 0.4405(3) 0.26302(11)
H8 H -0.2533 0.4394 0.2314
C7 C -0.1885(8) 0.5220(3) 0.29317(11)
C8 C -0.2464(8) 0.5247(3) 0.34042(11)
H9 H -0.1644 0.5790 0.3605
C9 C -0.4310(7) 0.4439(3) 0.35705(10)
C10 C -0.5554(7) 0.3609(3) 0.32716(11)
C11 C -0.5380(8) 0.4237(3) 0.40362(10)
C12 C -0.7256(8) 0.3326(3) 0.40306(11)
C13 C -1.2193(8) 0.1982(3) 0.55457(12)
C14 C -1.2883(9) 0.0856(3) 0.54343(13)
H10 H -1.2194 0.0529 0.5162
C15 C -1.4577(10) 0.0208(3) 0.57211(14)
H11 H -1.5016 -0.0546 0.5642
C16 C -1.5591(8) 0.0688(3) 0.61201(12)
C17 C -1.4954(9) 0.1795(4) 0.62451(13)
H12 H -1.5659 0.2114 0.6518
C18 C -1.3252(9) 0.2428(3) 0.59593(13)
H13 H -1.2798 0.3176 0.6046
H14 H -0.676(8) 0.428(3) 0.5031(14)
loop_
_geom_bond_atom_site_label_1
_geom_bond_atom_site_label_2
_geom_bond_site_symmetry_1
_geom_bond_site_symmetry_2
Br1 C7 1_555 1_555
Br2 C16 1_555 1_555
N1 N2 1_555 1_555
N2 C11 1_555 1_555
C1 N1 1_555 1_555
C2 C1 1_555 1_555
H1 C2 1_555 1_555
H2 C2 1_555 1_555
C3 C2 1_555 1_555
H3 C3 1_555 1_555
H4 C3 1_555 1_555
C4 H5 1_555 1_555
H6 C4 1_555 1_555
C5 H7 1_555 1_555
C6 C5 1_555 1_555
H8 C6 1_555 1_555
C7 C6 1_555 1_555
C8 C7 1_555 1_555
H9 C8 1_555 1_555
C9 C8 1_555 1_555
C10 C4 1_555 1_555
C11 C9 1_555 1_555
C12 C1 1_555 1_555
C13 C3 1_555 1_555
C14 C13 1_555 1_555
H10 C14 1_555 1_555
C15 C14 1_555 1_555
H11 C15 1_555 1_555
C16 C15 1_555 1_555
C17 C16 1_555 1_555
H12 C17 1_555 1_555
C18 C13 1_555 1_555
H13 C18 1_555 1_555
H14 N1 1_555 1_555
C4 C12 1_555 1_555
C5 C10 1_555 1_555
C9 C10 1_555 1_555
C11 C12 1_555 1_555
C17 C18 1_555 1_555

#END
