
#######################################################################
#
#                 Cambridge Crystallographic Data Centre
#                                CCDC 
#
#######################################################################
#
# If this CIF has been generated from an entry in the Cambridge 
# Structural Database, then it will include bibliographic, chemical, 
# crystal, experimental, refinement or atomic coordinate data resulting 
# from the CCDC's data processing and validation procedures.
#
#######################################################################

data_ZOHHAH
_chemical_formula_moiety         'C38 H44 N4 O2 S2 2+,2(C7 H7 O3 S1 1-)'
_chemical_name_systematic        
"1,1'-((1,4-dioxo-3,6-bis(2-thienyl)pyrrolo[3,4-c]pyrrole-2,5(1H,4H)-diyl)diheptane-7,1-diyl)dipyridinium bis(4-methylbenzenesulfonate)"
_symmetry_cell_setting           triclinic
_symmetry_space_group_name_H-M   'P -1'
_symmetry_Int_Tables_number      2
_space_group_name_Hall           '-P 1'
loop_
_symmetry_equiv_pos_site_id
_symmetry_equiv_pos_as_xyz
1 x,y,z
2 -x,-y,-z
_cell_length_a                   9.371(2)
_cell_length_b                   9.447(2)
_cell_length_c                   27.755(7)
_cell_angle_alpha                84.533(6)
_cell_angle_beta                 83.630(7)
_cell_angle_gamma                88.365(9)
_cell_volume                     2430.41
_exptl_crystal_colour            red
_exptl_crystal_description       needle
_cell_formula_units_Z            2
_chemical_properties_physical    Heat-sensitive
_exptl_crystal_recrystallization_method Water
_exptl_crystal_preparation       Luminescent
loop_
_atom_site_label
_atom_site_type_symbol
_atom_site_fract_x
_atom_site_fract_y
_atom_site_fract_z
S1 S 0.43914(13) 0.26347(14) 0.40459(5)
S2 S 1.02371(14) 0.62757(16) 0.60473(5)
O1 O 0.7091(3) 0.7372(4) 0.45512(12)
O2 O 0.7791(3) 0.1498(4) 0.54646(12)
N1 N 0.6193(4) 0.5177(4) 0.44336(13)
N2 N 0.5410(4) 0.5601(5) 0.08366(14)
N3 N 0.8645(4) 0.3701(4) 0.55954(13)
N4 N 0.9512(4) 0.1038(5) 0.91501(14)
C1 C 0.4350(5) 0.0856(5) 0.40644(19)
H1 H 0.3736 0.0372 0.3899
C2 C 0.5319(6) 0.0196(6) 0.43502(19)
H2 H 0.5444 -0.0786 0.4397
C3 C 0.6095(5) 0.1153(5) 0.45623(19)
H3 H 0.6792 0.0875 0.4768
C4 C 0.5732(5) 0.2566(5) 0.44383(17)
C5 C 0.6327(4) 0.3750(5) 0.46162(16)
C6 C 0.7228(5) 0.3752(5) 0.49920(16)
C7 C 0.7630(5) 0.5132(5) 0.50316(16)
C8 C 0.7011(4) 0.6097(5) 0.46730(16)
C9 C 0.5436(5) 0.5758(5) 0.40215(16)
H4 H 0.5269 0.6769 0.4043
H5 H 0.4507 0.5314 0.4046
C10 C 0.6238(5) 0.5539(6) 0.35282(16)
H6 H 0.6667 0.4591 0.3539
H7 H 0.7007 0.6217 0.3458
C11 C 0.5265(5) 0.5717(6) 0.31193(16)
H8 H 0.4535 0.4995 0.3181
H9 H 0.4782 0.6637 0.3126
C12 C 0.6042(5) 0.5607(6) 0.26145(17)
H10 H 0.6710 0.4804 0.2627
H11 H 0.6596 0.6460 0.2519
C13 C 0.5034(5) 0.5425(6) 0.22280(17)
H12 H 0.4623 0.4486 0.2288
H13 H 0.4252 0.6117 0.2260
C14 C 0.5766(5) 0.5604(6) 0.17155(17)
H14 H 0.6639 0.5025 0.1696
H15 H 0.6036 0.6589 0.1636
C15 C 0.4816(5) 0.5182(7) 0.13425(17)
H16 H 0.4696 0.4160 0.1384
H17 H 0.3874 0.5625 0.1403
C16 C 0.6712(5) 0.5034(6) 0.06598(19)
H18 H 0.7199 0.4380 0.0857
C17 C 0.7276(5) 0.5426(6) 0.02040(18)
H19 H 0.8151 0.5030 0.0087
C18 C 0.6587(6) 0.6406(6) -0.00958(19)
H20 H 0.6986 0.6679 -0.0412
C19 C 0.5276(5) 0.6970(6) 0.00899(18)
H21 H 0.4774 0.7618 -0.0105
C20 C 0.4731(5) 0.6575(6) 0.05547(18)
H22 H 0.3873 0.6986 0.0681
C21 C 1.0475(5) 0.8061(6) 0.59575(19)
H23 H 1.1013 0.8556 0.6146
C22 C 0.9804(5) 0.8686(6) 0.55859(18)
H24 H 0.9814 0.9659 0.5495
C23 C 0.9083(5) 0.7703(5) 0.53486(18)
H25 H 0.8587 0.7956 0.5080
C24 C 0.9200(4) 0.6314(5) 0.55612(16)
C25 C 0.8544(4) 0.5117(5) 0.54060(17)
C26 C 0.7850(5) 0.2790(5) 0.53465(17)
C27 C 0.9490(5) 0.3067(6) 0.59727(16)
H26 H 1.0342 0.3628 0.5972
H27 H 0.9801 0.2119 0.5896
C28 C 0.8675(5) 0.2972(6) 0.64810(16)
H28 H 0.7827 0.2403 0.6485
H29 H 0.8361 0.3918 0.6560
C29 C 0.9604(5) 0.2309(6) 0.68672(17)
H30 H 0.9894 0.1356 0.6789
H31 H 1.0468 0.2862 0.6850
C30 C 0.8877(5) 0.2224(6) 0.73843(17)
H32 H 0.8580 0.3175 0.7463
H33 H 0.8020 0.1661 0.7404
C31 C 0.9826(5) 0.1578(6) 0.77582(17)
H34 H 1.0732 0.2072 0.7713
H35 H 1.0030 0.0591 0.7703
C32 C 0.9162(5) 0.1649(6) 0.82815(17)
H36 H 0.9045 0.2637 0.8349
H37 H 0.8218 0.1232 0.8321
C33 C 1.0079(5) 0.0872(6) 0.86439(17)
H38 H 1.0127 -0.0132 0.8594
H39 H 1.1047 0.1233 0.8585
C34 C 0.8282(5) 0.0355(6) 0.93437(18)
H40 H 0.7816 -0.0204 0.9154
C35 C 0.7736(5) 0.0488(6) 0.98129(19)
H41 H 0.6914 0.0000 0.9945
C36 C 0.8399(5) 0.1345(6) 1.00931(19)
H42 H 0.8016 0.1463 1.0411
C37 C 0.9645(5) 0.2026(6) 0.98933(19)
H43 H 1.0124 0.2591 1.0078
C38 C 1.0158(5) 0.1861(6) 0.94255(18)
H44 H 1.0987 0.2334 0.9291
S3 S 0.54433(13) -0.01673(17) 0.11568(5)
O3 O 0.4242(4) -0.1119(5) 0.13044(13)
O4 O 0.5049(5) 0.1182(5) 0.08960(14)
O5 O 0.6665(3) -0.0894(4) 0.09033(13)
C39 C 0.6029(5) 0.0288(6) 0.17080(18)
C40 C 0.6927(5) 0.1430(6) 0.1703(2)
H45 H 0.7214 0.1971 0.1413
C41 C 0.7395(6) 0.1762(6) 0.2136(2)
H46 H 0.7982 0.2542 0.2131
C42 C 0.7021(5) 0.0979(6) 0.2571(2)
C43 C 0.6130(6) -0.0165(6) 0.2569(2)
H47 H 0.5850 -0.0704 0.2861
C44 C 0.5639(5) -0.0529(6) 0.21408(18)
H48 H 0.5056 -0.1312 0.2146
C45 C 0.7552(6) 0.1340(7) 0.3038(2)
H49 H 0.8532 0.1635 0.2973
H50 H 0.7493 0.0517 0.3270
H51 H 0.6969 0.2097 0.3167
S4 S 0.03934(13) 0.44790(17) 0.11487(5)
O6 O 0.1603(3) 0.5293(4) 0.09017(13)
O7 O 0.0027(5) 0.3341(5) 0.08789(14)
O8 O -0.0819(3) 0.5397(5) 0.12991(13)
C46 C 0.0993(5) 0.3677(6) 0.16961(18)
C47 C 0.1972(5) 0.2534(6) 0.1676(2)
H52 H 0.2303 0.2191 0.1380
C48 C 0.2440(5) 0.1921(6) 0.2104(2)
H53 H 0.3079 0.1151 0.2089
C49 C 0.2010(5) 0.2393(6) 0.25501(19)
C50 C 0.1027(5) 0.3541(6) 0.25623(18)
H54 H 0.0707 0.3890 0.2858
C51 C 0.0530(5) 0.4158(6) 0.21409(18)
H55 H -0.0129 0.4911 0.2157
C52 C 0.2554(6) 0.1732(7) 0.3007(2)
H56 H 0.3585 0.1737 0.2970
H57 H 0.2233 0.0769 0.3071
H58 H 0.2194 0.2264 0.3274
loop_
_geom_bond_atom_site_label_1
_geom_bond_atom_site_label_2
_geom_bond_site_symmetry_1
_geom_bond_site_symmetry_2
S1 C1 1_555 1_555
S2 C21 1_555 1_555
O1 C8 1_555 1_555
O2 C26 1_555 1_555
N1 C5 1_555 1_555
N2 C15 1_555 1_555
N3 C25 1_555 1_555
N4 C33 1_555 1_555
C1 H1 1_555 1_555
C2 C1 1_555 1_555
H2 C2 1_555 1_555
C3 C2 1_555 1_555
H3 C3 1_555 1_555
C4 S1 1_555 1_555
C5 C4 1_555 1_555
C6 C5 1_555 1_555
C7 C6 1_555 1_555
C8 N1 1_555 1_555
C9 N1 1_555 1_555
H4 C9 1_555 1_555
H5 C9 1_555 1_555
C10 C9 1_555 1_555
H6 C10 1_555 1_555
H7 C10 1_555 1_555
C11 C10 1_555 1_555
H8 C11 1_555 1_555
H9 C11 1_555 1_555
C12 C11 1_555 1_555
H10 C12 1_555 1_555
H11 C12 1_555 1_555
C13 C12 1_555 1_555
H12 C13 1_555 1_555
H13 C13 1_555 1_555
C14 C13 1_555 1_555
H14 C14 1_555 1_555
H15 C14 1_555 1_555
C15 C14 1_555 1_555
H16 C15 1_555 1_555
H17 C15 1_555 1_555
C16 N2 1_555 1_555
H18 C16 1_555 1_555
C17 C16 1_555 1_555
H19 C17 1_555 1_555
C18 C17 1_555 1_555
H20 C18 1_555 1_555
C19 C18 1_555 1_555
H21 C19 1_555 1_555
C20 N2 1_555 1_555
H22 C20 1_555 1_555
C21 H23 1_555 1_555
C22 C21 1_555 1_555
H24 C22 1_555 1_555
C23 C22 1_555 1_555
H25 C23 1_555 1_555
C24 S2 1_555 1_555
C25 C7 1_555 1_555
C26 N3 1_555 1_555
C27 N3 1_555 1_555
H26 C27 1_555 1_555
H27 C27 1_555 1_555
C28 C27 1_555 1_555
H28 C28 1_555 1_555
H29 C28 1_555 1_555
C29 C28 1_555 1_555
H30 C29 1_555 1_555
H31 C29 1_555 1_555
C30 C29 1_555 1_555
H32 C30 1_555 1_555
H33 C30 1_555 1_555
C31 C30 1_555 1_555
H34 C31 1_555 1_555
H35 C31 1_555 1_555
C32 C31 1_555 1_555
H36 C32 1_555 1_555
H37 C32 1_555 1_555
C33 C32 1_555 1_555
H38 C33 1_555 1_555
H39 C33 1_555 1_555
C34 N4 1_555 1_555
H40 C34 1_555 1_555
C35 C34 1_555 1_555
H41 C35 1_555 1_555
C36 C35 1_555 1_555
H42 C36 1_555 1_555
C37 C36 1_555 1_555
H43 C37 1_555 1_555
C38 N4 1_555 1_555
H44 C38 1_555 1_555
S3 O3 1_555 1_555
O4 S3 1_555 1_555
O5 S3 1_555 1_555
C39 S3 1_555 1_555
C40 C39 1_555 1_555
H45 C40 1_555 1_555
C41 C40 1_555 1_555
H46 C41 1_555 1_555
C42 C41 1_555 1_555
C43 C42 1_555 1_555
H47 C43 1_555 1_555
C44 C39 1_555 1_555
H48 C44 1_555 1_555
C45 C42 1_555 1_555
H49 C45 1_555 1_555
H50 C45 1_555 1_555
H51 C45 1_555 1_555
S4 O6 1_555 1_555
O7 S4 1_555 1_555
O8 S4 1_555 1_555
C46 S4 1_555 1_555
C47 C46 1_555 1_555
H52 C47 1_555 1_555
C48 C47 1_555 1_555
H53 C48 1_555 1_555
C49 C48 1_555 1_555
C50 C49 1_555 1_555
H54 C50 1_555 1_555
C51 C46 1_555 1_555
H55 C51 1_555 1_555
C52 C49 1_555 1_555
H56 C52 1_555 1_555
H57 C52 1_555 1_555
H58 C52 1_555 1_555
C3 C4 1_555 1_555
C6 C26 1_555 1_555
C7 C8 1_555 1_555
C19 C20 1_555 1_555
C23 C24 1_555 1_555
C24 C25 1_555 1_555
C37 C38 1_555 1_555
C43 C44 1_555 1_555
C50 C51 1_555 1_555

#END
