
#######################################################################
#
#                 Cambridge Crystallographic Data Centre
#                                CCDC 
#
#######################################################################
#
# If this CIF has been generated from an entry in the Cambridge 
# Structural Database, then it will include bibliographic, chemical, 
# crystal, experimental, refinement or atomic coordinate data resulting 
# from the CCDC's data processing and validation procedures.
#
#######################################################################

data_ZOHTIB
_chemical_formula_moiety         'C6 H6 Cl1 N1,C6 H3 Cl3 O1'
_chemical_name_systematic        '3,4,5-trichlorophenol 3-chloroaniline'
_symmetry_cell_setting           monoclinic
_symmetry_space_group_name_H-M   'P 21/c'
_symmetry_Int_Tables_number      14
_space_group_name_Hall           '-P 2ybc'
loop_
_symmetry_equiv_pos_site_id
_symmetry_equiv_pos_as_xyz
1 x,y,z
2 -x,1/2+y,1/2-z
3 -x,-y,-z
4 x,1/2-y,1/2+z
_cell_length_a                   6.9676(7)
_cell_length_b                   21.336(2)
_cell_length_c                   9.1861(10)
_cell_angle_alpha                90
_cell_angle_beta                 99.139(7)
_cell_angle_gamma                90
_cell_volume                     1348.28
_cell_formula_units_Z            4
loop_
_atom_site_label
_atom_site_type_symbol
_atom_site_fract_x
_atom_site_fract_y
_atom_site_fract_z
H1 H -0.741(4) 0.3939(11) 0.451(3)
H2 H -0.588(3) 0.4188(11) 0.546(3)
Cl1 Cl 0.02886(7) 0.28694(2) 0.54553(6)
N1 N -0.6231(3) 0.40358(7) 0.46088(18)
C1 C -0.3200(3) 0.34473(8) 0.49862(18)
H3 H -0.2652 0.3736 0.5689
C2 C -0.4779(3) 0.25816(8) 0.2870(2)
H4 H -0.5311 0.2295 0.2155
C3 C -0.5124(3) 0.35105(8) 0.42951(18)
C4 C -0.2866(3) 0.25088(8) 0.3553(2)
H5 H -0.2110 0.2177 0.3311
C5 C -0.2124(3) 0.29461(8) 0.46036(19)
C6 C -0.5909(3) 0.30724(8) 0.3235(2)
H6 H -0.7192 0.3111 0.2775
H7 H 0.405(4) 0.4798(12) 1.347(3)
Cl2 Cl 0.13436(8) 0.63084(2) 0.84685(6)
Cl3 Cl 0.20997(8) 0.37843(3) 0.85082(6)
Cl4 Cl 0.08451(7) 0.50261(3) 0.67545(5)
O1 O 0.40912(18) 0.51300(6) 1.30530(13)
C7 C 0.2762(2) 0.56365(8) 1.08480(18)
H8 H 0.2902 0.6020 1.1336
C8 C 0.3321(2) 0.50850(8) 1.16050(18)
C9 C 0.3111(2) 0.45141(8) 1.08699(19)
H9 H 0.3486 0.4144 1.1370
C10 C 0.1999(2) 0.56122(8) 0.93703(19)
C11 C 0.2338(2) 0.45008(9) 0.93884(19)
C12 C 0.1777(2) 0.50462(9) 0.86114(18)
loop_
_geom_bond_atom_site_label_1
_geom_bond_atom_site_label_2
_geom_bond_site_symmetry_1
_geom_bond_site_symmetry_2
H1 N1 1_555 1_555
H2 N1 1_555 1_555
Cl1 C5 1_555 1_555
N1 C3 1_555 1_555
C1 H3 1_555 1_555
C2 H4 1_555 1_555
C3 C1 1_555 1_555
C4 C2 1_555 1_555
H5 C4 1_555 1_555
C5 C1 1_555 1_555
C6 C2 1_555 1_555
H6 C6 1_555 1_555
H7 O1 1_555 1_555
Cl2 C10 1_555 1_555
Cl3 C11 1_555 1_555
Cl4 C12 1_555 1_555
O1 C8 1_555 1_555
C7 H8 1_555 1_555
C8 C7 1_555 1_555
C9 C8 1_555 1_555
H9 C9 1_555 1_555
C10 C7 1_555 1_555
C11 C9 1_555 1_555
C12 C10 1_555 1_555
C3 C6 1_555 1_555
C4 C5 1_555 1_555
C11 C12 1_555 1_555

#END
