
#######################################################################
#
#                 Cambridge Crystallographic Data Centre
#                                CCDC 
#
#######################################################################
#
# If this CIF has been generated from an entry in the Cambridge 
# Structural Database, then it will include bibliographic, chemical, 
# crystal, experimental, refinement or atomic coordinate data resulting 
# from the CCDC's data processing and validation procedures.
#
#######################################################################

data_ZOHVAV
_chemical_formula_moiety         'C6 H3 Cl3 O1,C6 H4 Cl2 N1'
_chemical_name_systematic        '3,4,5-trichlorophenol 3,4-dichloroaniline'
_symmetry_cell_setting           triclinic
_symmetry_space_group_name_H-M   'P -1'
_symmetry_Int_Tables_number      2
_space_group_name_Hall           '-P 1'
loop_
_symmetry_equiv_pos_site_id
_symmetry_equiv_pos_as_xyz
1 x,y,z
2 -x,-y,-z
_cell_length_a                   7.0681(6)
_cell_length_b                   9.5008(8)
_cell_length_c                   11.4095(9)
_cell_angle_alpha                85.402(6)
_cell_angle_beta                 83.071(6)
_cell_angle_gamma                71.211(5)
_cell_volume                     719.355
_cell_formula_units_Z            2
loop_
_atom_site_label
_atom_site_type_symbol
_atom_site_fract_x
_atom_site_fract_y
_atom_site_fract_z
C1 C -0.3681(4) 1.1658(3) 0.9778(3)
C2 C -0.3447(5) 1.0815(4) 1.0834(3)
H1 H -0.4039 1.1247 1.1547
C3 C -0.2316(5) 0.9319(4) 1.0814(3)
C4 C -0.1393(5) 0.8651(3) 0.9765(3)
C5 C -0.1636(5) 0.9524(4) 0.8724(3)
C6 C -0.2772(5) 1.1009(3) 0.8719(3)
H2 H -0.2929 1.1571 0.8011
O1 O -0.4772(4) 1.3120(3) 0.9718(2)
Cl1 Cl -0.04927(16) 0.87615(11) 0.73917(9)
Cl2 Cl 0.00093(15) 0.67852(10) 0.97457(11)
Cl3 Cl -0.20748(17) 0.82959(12) 1.21357(9)
H3 H -0.527(8) 1.343(6) 1.036(5)
C7 C 0.5446(6) 0.5887(4) 1.7238(3)
C8 C 0.4006(6) 0.5216(5) 1.7164(3)
H4 H 0.3868 0.4470 1.7715
C9 C 0.2764(6) 0.5664(5) 1.6259(3)
C10 C 0.2955(7) 0.6789(5) 1.5434(3)
C11 C 0.4396(8) 0.7448(5) 1.5508(4)
C12 C 0.5649(7) 0.6998(5) 1.6404(4)
H5 H 0.6633 0.7441 1.6450
Cl4 Cl 0.1081(3) 0.49479(18) 1.61913(15)
Cl5 Cl 0.1329(2) 0.73989(16) 1.43400(9)
N1 N 0.6626(6) 0.5510(5) 1.8203(3)
H6 H 0.682(9) 0.455(8) 1.850(6)
H7 H 0.770(8) 0.569(6) 1.799(5)
Cl6? Cl 0.4440(5) 0.8717(3) 1.4549(2)
loop_
_geom_bond_atom_site_label_1
_geom_bond_atom_site_label_2
_geom_bond_site_symmetry_1
_geom_bond_site_symmetry_2
C1 C2 1_555 1_555
C2 H1 1_555 1_555
C3 C2 1_555 1_555
C4 C3 1_555 1_555
C5 C4 1_555 1_555
C6 C1 1_555 1_555
H2 C6 1_555 1_555
O1 C1 1_555 1_555
Cl1 C5 1_555 1_555
Cl2 C4 1_555 1_555
Cl3 C3 1_555 1_555
H3 O1 1_555 1_555
C7 C8 1_555 1_555
C8 H4 1_555 1_555
C9 C8 1_555 1_555
C10 C9 1_555 1_555
C11 C10 1_555 1_555
C12 C7 1_555 1_555
H5 C12 1_555 1_555
Cl4 C9 1_555 1_555
Cl5 C10 1_555 1_555
N1 C7 1_555 1_555
H6 N1 1_555 1_555
H7 N1 1_555 1_555
C5 C6 1_555 1_555
C11 C12 1_555 1_555

#END
