
#######################################################################
#
#                 Cambridge Crystallographic Data Centre
#                                CCDC 
#
#######################################################################
#
# If this CIF has been generated from an entry in the Cambridge 
# Structural Database, then it will include bibliographic, chemical, 
# crystal, experimental, refinement or atomic coordinate data resulting 
# from the CCDC's data processing and validation procedures.
#
#######################################################################

data_ZOHWUQ
_chemical_formula_moiety         'C7 H8 N2 O1,C7 H6 O3'
_chemical_name_systematic        '3-hydroxybenzoic acid 3-aminobenzamide'
_symmetry_cell_setting           monoclinic
_symmetry_space_group_name_H-M   'P 21/c'
_symmetry_Int_Tables_number      14
_space_group_name_Hall           '-P 2ybc'
loop_
_symmetry_equiv_pos_site_id
_symmetry_equiv_pos_as_xyz
1 x,y,z
2 -x,1/2+y,1/2-z
3 -x,-y,-z
4 x,1/2-y,1/2+z
_cell_length_a                   12.410(15)
_cell_length_b                   5.124(6)
_cell_length_c                   20.06(2)
_cell_angle_alpha                90
_cell_angle_beta                 92.901(14)
_cell_angle_gamma                90
_cell_volume                     1273.96
_cell_formula_units_Z            4
loop_
_atom_site_label
_atom_site_type_symbol
_atom_site_fract_x
_atom_site_fract_y
_atom_site_fract_z
H1 H 0.048(2) -0.597(5) 0.2128(13)
H2 H 0.138(2) -0.751(6) 0.2499(13)
H3 H 0.470(2) -0.707(5) 0.4327(13)
H4 H 0.366(2) -0.824(5) 0.4251(12)
O1 O 0.13450(10) -0.1862(2) 0.20172(6)
C1 C 0.26914(13) -0.3714(3) 0.27586(8)
C2 C 0.43991(15) -0.1618(4) 0.30069(9)
H5 H 0.4907 -0.0357 0.2909
N1 N 0.40137(14) -0.6769(3) 0.42639(8)
N2 N 0.10796(13) -0.6013(3) 0.23451(8)
C3 C 0.38557(13) -0.5228(3) 0.36837(8)
C4 C 0.46071(14) -0.3310(4) 0.35375(9)
H6 H 0.5248 -0.3167 0.3796
C5 C 0.29054(13) -0.5444(3) 0.32859(9)
H7 H 0.2411 -0.6749 0.3373
C6 C 0.16497(13) -0.3820(3) 0.23456(8)
C7 C 0.34378(15) -0.1784(3) 0.26179(9)
H8 H 0.3297 -0.0620 0.2269
H9 H 0.366(2) -0.454(6) 0.5023(16)
O2 O -0.00183(10) 0.2796(3) 0.40432(6)
H10 H -0.0380 0.2806 0.3690
O3 O 0.36355(10) -0.3407(3) 0.53328(7)
O4 O 0.08217(10) -0.0484(3) 0.35493(6)
C8 C 0.27405(14) 0.0140(4) 0.58023(9)
H11 H 0.3183 -0.0052 0.6187
C9 C 0.13962(12) 0.0677(3) 0.46615(8)
C10 C 0.07015(13) 0.0919(3) 0.40321(8)
C11 C 0.19796(15) 0.2132(4) 0.57602(9)
H12 H 0.1923 0.3283 0.6115
C12 C 0.21616(14) -0.1320(3) 0.46995(9)
H13 H 0.2217 -0.2479 0.4346
C13 C 0.13031(14) 0.2416(4) 0.51912(9)
H14 H 0.0794 0.3749 0.5164
C14 C 0.28407(14) -0.1567(3) 0.52692(9)
loop_
_geom_bond_atom_site_label_1
_geom_bond_atom_site_label_2
_geom_bond_site_symmetry_1
_geom_bond_site_symmetry_2
H1 N2 1_555 1_555
H2 N2 1_555 1_555
H3 N1 1_555 1_555
H4 N1 1_555 1_555
O1 C6 1_555 1_555
C1 C5 1_555 1_555
C2 H5 1_555 1_555
N1 C3 1_555 1_555
N2 C6 1_555 1_555
C3 C4 1_555 1_555
C4 C2 1_555 1_555
H6 C4 1_555 1_555
C5 C3 1_555 1_555
H7 C5 1_555 1_555
C6 C1 1_555 1_555
C7 C1 1_555 1_555
H8 C7 1_555 1_555
H9 O3 1_555 1_555
O2 H10 1_555 1_555
O3 C14 1_555 1_555
O4 C10 1_555 1_555
C8 H11 1_555 1_555
C9 C10 1_555 1_555
C10 O2 1_555 1_555
C11 C8 1_555 1_555
H12 C11 1_555 1_555
C12 C9 1_555 1_555
H13 C12 1_555 1_555
C13 C9 1_555 1_555
H14 C13 1_555 1_555
C14 C8 1_555 1_555
C2 C7 1_555 1_555
C11 C13 1_555 1_555
C12 C14 1_555 1_555

#END
