
#######################################################################
#
#                 Cambridge Crystallographic Data Centre
#                                CCDC 
#
#######################################################################
#
# If this CIF has been generated from an entry in the Cambridge 
# Structural Database, then it will include bibliographic, chemical, 
# crystal, experimental, refinement or atomic coordinate data resulting 
# from the CCDC's data processing and validation procedures.
#
#######################################################################

data_ZOHWAW
_chemical_formula_moiety         'C6 H6 Cl1 N1,C6 H3 Cl3 O1'
_chemical_name_systematic        '2,3,4-trichlorophenol 3-chloroaniline'
_symmetry_cell_setting           triclinic
_symmetry_space_group_name_H-M   'P -1'
_symmetry_Int_Tables_number      2
_space_group_name_Hall           '-P 1'
loop_
_symmetry_equiv_pos_site_id
_symmetry_equiv_pos_as_xyz
1 x,y,z
2 -x,-y,-z
_cell_length_a                   7.208(9)
_cell_length_b                   9.333(10)
_cell_length_c                   10.884(13)
_cell_angle_alpha                99.035(14)
_cell_angle_beta                 107.107(6)
_cell_angle_gamma                102.219(10)
_cell_volume                     664.829
_cell_formula_units_Z            2
loop_
_atom_site_label
_atom_site_type_symbol
_atom_site_fract_x
_atom_site_fract_y
_atom_site_fract_z
H1 H 0.070(4) 0.868(3) 0.286(3)
H2 H 0.019(4) 0.984(3) 0.333(3)
Cl1 Cl -0.71511(9) 0.95479(7) 0.10761(7)
N1 N -0.0066(3) 0.8943(2) 0.3094(2)
C1 C -0.1900(3) 0.8492(2) 0.2005(2)
C2 C -0.5251(3) 0.8671(2) 0.1026(2)
C3 C -0.3424(3) 0.9193(2) 0.2042(2)
H3 H -0.3207 0.9997 0.2740
C4 C -0.2251(4) 0.7309(2) 0.0940(3)
H4 H -0.1236 0.6852 0.0901
C5 C -0.5644(4) 0.7485(2) -0.0034(3)
H5 H -0.6893 0.7150 -0.0706
C6 C -0.4110(4) 0.6810(2) -0.0062(3)
H6 H -0.4334 0.6010 -0.0764
H7 H 0.049(4) 0.185(3) 0.557(3)
Cl2 Cl 0.27595(9) 0.59690(6) 0.24122(6)
Cl3 Cl 0.46362(8) 0.83079(5) 0.51627(7)
Cl4 Cl 0.07242(9) 0.25908(6) 0.22791(6)
O1 O 0.0510(2) 0.20209(15) 0.47606(18)
C7 C 0.2616(3) 0.5415(2) 0.3828(2)
C8 C 0.3422(3) 0.6451(2) 0.5047(3)
C9 C 0.3273(3) 0.6014(2) 0.6184(2)
H8 H 0.3822 0.6711 0.6996
C10 C 0.1492(3) 0.3480(2) 0.4901(2)
C11 C 0.1676(3) 0.3918(2) 0.3767(2)
C12 C 0.2299(3) 0.4534(2) 0.6103(2)
H9 H 0.2187 0.4245 0.6864
loop_
_geom_bond_atom_site_label_1
_geom_bond_atom_site_label_2
_geom_bond_site_symmetry_1
_geom_bond_site_symmetry_2
H1 N1 1_555 1_555
H2 N1 1_555 1_555
Cl1 C2 1_555 1_555
N1 C1 1_555 1_555
C1 C3 1_555 1_555
C2 C3 1_555 1_555
C3 H3 1_555 1_555
C4 C1 1_555 1_555
H4 C4 1_555 1_555
C5 C2 1_555 1_555
H5 C5 1_555 1_555
C6 C4 1_555 1_555
H6 C6 1_555 1_555
H7 O1 1_555 1_555
Cl2 C7 1_555 1_555
Cl3 C8 1_555 1_555
Cl4 C11 1_555 1_555
O1 C10 1_555 1_555
C7 C8 1_555 1_555
C8 C9 1_555 1_555
C9 H8 1_555 1_555
C10 C11 1_555 1_555
C11 C7 1_555 1_555
C12 C9 1_555 1_555
H9 C12 1_555 1_555
C5 C6 1_555 1_555
C10 C12 1_555 1_555

#END
