
#######################################################################
#
#                 Cambridge Crystallographic Data Centre
#                                CCDC 
#
#######################################################################
#
# If this CIF has been generated from an entry in the Cambridge 
# Structural Database, then it will include bibliographic, chemical, 
# crystal, experimental, refinement or atomic coordinate data resulting 
# from the CCDC's data processing and validation procedures.
#
#######################################################################

data_ZOHWEA
_chemical_formula_moiety         'C6 H5 Cl2 N1,C6 H3 Cl3 O1'
_chemical_name_systematic        '2,3,4-trichlorophenol 3,5-dichloroaniline'
_symmetry_cell_setting           triclinic
_symmetry_space_group_name_H-M   'P -1'
_symmetry_Int_Tables_number      2
_space_group_name_Hall           '-P 1'
loop_
_symmetry_equiv_pos_site_id
_symmetry_equiv_pos_as_xyz
1 x,y,z
2 -x,-y,-z
_cell_length_a                   7.1441(8)
_cell_length_b                   9.3027(10)
_cell_length_c                   11.8726(13)
_cell_angle_alpha                77.966(5)
_cell_angle_beta                 74.889(5)
_cell_angle_gamma                77.979(5)
_cell_volume                     735.057
_cell_formula_units_Z            2
loop_
_atom_site_label
_atom_site_type_symbol
_atom_site_fract_x
_atom_site_fract_y
_atom_site_fract_z
C1 C 0.3440(3) 0.3479(2) 0.01244(17)
C2 C 0.2305(3) 0.4010(2) 0.11532(17)
C3 C 0.1375(3) 0.5493(2) 0.11040(17)
C4 C 0.1565(3) 0.6433(2) 0.00203(19)
C5 C 0.2672(3) 0.5915(2) -0.09991(18)
H1 H 0.2792 0.6555 -0.1720
C6 C 0.3606(3) 0.4445(2) -0.09522(18)
H2 H 0.4347 0.4103 -0.1642
O1 O 0.4330(2) 0.20375(14) 0.02337(12)
H3 H 0.5063 0.1876 -0.0400
Cl1 Cl 0.20849(9) 0.27996(6) 0.24730(4)
Cl2 Cl 0.00063(8) 0.61395(6) 0.23798(5)
Cl3 Cl 0.04117(8) 0.82751(5) -0.00705(5)
C7 C -0.4223(3) 0.1218(2) 0.72918(16)
C8 C -0.3499(3) 0.2238(2) 0.63179(18)
H4 H -0.2443 0.2683 0.6309
C9 C -0.4374(4) 0.2575(2) 0.53649(19)
C10 C -0.5968(4) 0.1954(3) 0.5351(2)
H5 H -0.6552 0.2199 0.4707
C11 C -0.6655(3) 0.0954(3) 0.6337(2)
C12 C -0.5822(3) 0.0569(2) 0.73044(19)
H6 H -0.6316 -0.0110 0.7953
N1 N -0.3397(3) 0.0894(2) 0.82956(16)
Cl4 Cl -0.33851(13) 0.37939(8) 0.41388(5)
Cl5 Cl -0.86496(9) 0.01310(9) 0.63571(8)
H7 H -0.225(5) 0.109(3) 0.813(3)
H8 H -0.344(4) -0.001(3) 0.861(2)
loop_
_geom_bond_atom_site_label_1
_geom_bond_atom_site_label_2
_geom_bond_site_symmetry_1
_geom_bond_site_symmetry_2
C1 C2 1_555 1_555
C2 C3 1_555 1_555
C3 C4 1_555 1_555
C4 C5 1_555 1_555
C5 H1 1_555 1_555
C6 C1 1_555 1_555
H2 C6 1_555 1_555
O1 C1 1_555 1_555
H3 O1 1_555 1_555
Cl1 C2 1_555 1_555
Cl2 C3 1_555 1_555
Cl3 C4 1_555 1_555
C7 C8 1_555 1_555
C8 H4 1_555 1_555
C9 C8 1_555 1_555
C10 C9 1_555 1_555
H5 C10 1_555 1_555
C11 C10 1_555 1_555
C12 C7 1_555 1_555
H6 C12 1_555 1_555
N1 C7 1_555 1_555
Cl4 C9 1_555 1_555
Cl5 C11 1_555 1_555
H7 N1 1_555 1_555
H8 N1 1_555 1_555
C5 C6 1_555 1_555
C11 C12 1_555 1_555

#END
