
#######################################################################
#
#                 Cambridge Crystallographic Data Centre
#                                CCDC 
#
#######################################################################
#
# If this CIF has been generated from an entry in the Cambridge 
# Structural Database, then it will include bibliographic, chemical, 
# crystal, experimental, refinement or atomic coordinate data resulting 
# from the CCDC's data processing and validation procedures.
#
#######################################################################

data_ZOHXAX
_chemical_formula_moiety         'C7 H8 N2 O1,C7 H6 O4'
_chemical_name_systematic        '3,5-dihydroxybenzoic acid - 4-aminobenzamide'
_symmetry_cell_setting           triclinic
_symmetry_space_group_name_H-M   'P -1'
_symmetry_Int_Tables_number      2
_space_group_name_Hall           '-P 1'
loop_
_symmetry_equiv_pos_site_id
_symmetry_equiv_pos_as_xyz
1 x,y,z
2 -x,-y,-z
_cell_length_a                   4.760(2)
_cell_length_b                   11.501(6)
_cell_length_c                   12.539(6)
_cell_angle_alpha                77.081(6)
_cell_angle_beta                 86.975(6)
_cell_angle_gamma                81.302(6)
_cell_volume                     661.246
_cell_formula_units_Z            2
loop_
_atom_site_label
_atom_site_type_symbol
_atom_site_fract_x
_atom_site_fract_y
_atom_site_fract_z
C1 C 0.2322(3) 0.40273(12) 0.57907(11)
C2 C 0.0373(3) 0.31886(12) 0.63581(11)
C3 C -0.0758(3) 0.25007(12) 0.57508(11)
H1 H -0.0331 0.2589 0.5007
C4 C -0.2527(3) 0.16833(12) 0.62638(11)
C5 C -0.3172(3) 0.15646(12) 0.73683(11)
H2 H -0.4359 0.1015 0.7712
C6 C -0.2052(3) 0.22653(13) 0.79674(11)
C7 C -0.0250(3) 0.30816(12) 0.74690(11)
H3 H 0.0518 0.3544 0.7868
O1 O -0.3550(2) 0.10123(9) 0.56436(8)
O2 O -0.2794(3) 0.20984(11) 0.90389(8)
O3 O 0.2816(2) 0.40852(9) 0.47822(8)
O4 O 0.3433(2) 0.46551(9) 0.63323(8)
H4 H -0.476(4) 0.0587(19) 0.6005(16)
H5 H -0.221(5) 0.270(2) 0.932(2)
H6 H 0.522(8) 0.525(3) 0.575(3)
C8 C -0.4836(3) 0.14805(12) 0.26271(11)
C9 C -0.5281(3) 0.15221(13) 0.15308(11)
H7 H -0.4118 0.1003 0.1168
C10 C -0.7442(3) 0.23322(13) 0.09805(11)
H8 H -0.7720 0.2354 0.0247
C11 C -0.9213(3) 0.31173(12) 0.15029(11)
C12 C -0.8704(3) 0.30901(13) 0.25907(11)
H9 H -0.9836 0.3624 0.2947
C13 C -0.6545(3) 0.22832(13) 0.31491(11)
H10 H -0.6234 0.2277 0.3877
C14 C -1.1568(3) 0.39359(12) 0.08734(11)
N1 N -0.2820(3) 0.05905(11) 0.32326(11)
N2 N -1.3288(3) 0.46829(11) 0.13609(10)
O5 O -1.1936(2) 0.39137(9) -0.00998(8)
H11 H -0.141(4) 0.0340(18) 0.2831(16)
H12 H -0.221(4) 0.0821(18) 0.3809(17)
H13 H -1.306(4) 0.4721(17) 0.2044(17)
H14 H -1.472(4) 0.5143(17) 0.0960(15)
loop_
_geom_bond_atom_site_label_1
_geom_bond_atom_site_label_2
_geom_bond_site_symmetry_1
_geom_bond_site_symmetry_2
C1 C2 1_555 1_555
C2 C3 1_555 1_555
C3 H1 1_555 1_555
C4 C3 1_555 1_555
C5 C4 1_555 1_555
H2 C5 1_555 1_555
C6 C5 1_555 1_555
C7 C2 1_555 1_555
H3 C7 1_555 1_555
O1 C4 1_555 1_555
O2 C6 1_555 1_555
O3 C1 1_555 1_555
O4 C1 1_555 1_555
H4 O1 1_555 1_555
H5 O2 1_555 1_555
H6 O4 1_555 1_555
C8 C9 1_555 1_555
C9 H7 1_555 1_555
C10 C9 1_555 1_555
H8 C10 1_555 1_555
C11 C10 1_555 1_555
C12 C11 1_555 1_555
H9 C12 1_555 1_555
C13 C8 1_555 1_555
H10 C13 1_555 1_555
C14 C11 1_555 1_555
N1 C8 1_555 1_555
N2 C14 1_555 1_555
O5 C14 1_555 1_555
H11 N1 1_555 1_555
H12 N1 1_555 1_555
H13 N2 1_555 1_555
H14 N2 1_555 1_555
C6 C7 1_555 1_555
C12 C13 1_555 1_555

#END
