
#######################################################################
#
#                 Cambridge Crystallographic Data Centre
#                                CCDC 
#
#######################################################################
#
# If this CIF has been generated from an entry in the Cambridge 
# Structural Database, then it will include bibliographic, chemical, 
# crystal, experimental, refinement or atomic coordinate data resulting 
# from the CCDC's data processing and validation procedures.
#
#######################################################################

data_ZOJLIV
_chemical_formula_moiety         
'C21 H20 F1 N6 O2 1+,0.5(C2 H6 O1),0.5(C2 H3 N1),1.5(H2 O1),Cl1 1-'
_chemical_name_systematic        
'19-amino-13-fluoro-4,8,16-trimethyl-9-oxo-17-oxa-4,5,8,20-tetraazatetracyclo[16.3.1.0^2,6^.0^10,15^]docosa-1(22),2,5,10,12,14,18,20-octaene-3-carbonitrile chloride acetonitrile ethanol solvate sesquihydrate'
_symmetry_cell_setting           orthorhombic
_symmetry_space_group_name_H-M   'P 21 21 21'
_symmetry_Int_Tables_number      19
_space_group_name_Hall           'P 2ac 2ab'
loop_
_symmetry_equiv_pos_site_id
_symmetry_equiv_pos_as_xyz
1 x,y,z
2 1/2+x,1/2-y,-z
3 -x,1/2+y,1/2-z
4 1/2-x,-y,1/2+z
_cell_length_a                   13.5237(5)
_cell_length_b                   17.6508(6)
_cell_length_c                   20.4826(6)
_cell_angle_alpha                90
_cell_angle_beta                 90
_cell_angle_gamma                90
_cell_volume                     4889.28
_exptl_crystal_colour            colorless
_exptl_crystal_description       Block
_cell_formula_units_Z            8
loop_
_atom_site_label
_atom_site_type_symbol
_atom_site_fract_x
_atom_site_fract_y
_atom_site_fract_z
Cl1 Cl 0.53966(4) 0.72338(3) 0.31776(2)
Cl2 Cl 0.23217(4) 0.52796(3) 0.41370(2)
O1 O 0.18823(14) 0.69023(10) 0.46951(9)
H1 H 0.1973 0.6440 0.4598
H2 H 0.1375 0.6942 0.4938
F1 F 0.26602(9) 0.53267(7) 0.63819(6)
O2 O 0.58848(11) 0.28603(7) 0.59145(7)
O3 O 0.47530(10) 0.44322(7) 0.44897(6)
N1 N 0.97547(14) 0.58502(10) 0.41139(9)
N2 N 0.95540(13) 0.51389(9) 0.57052(8)
N3 N 0.89829(13) 0.48368(9) 0.61733(8)
N4 N 0.69621(13) 0.37719(9) 0.62296(8)
N5 N 0.46140(13) 0.57313(10) 0.38539(8)
H3 H 0.4569 0.6147 0.3619
H4 H 0.4113 0.5414 0.3871
N6 N 0.62171(13) 0.60565(9) 0.41647(8)
H5 H 0.6186(18) 0.6476(14) 0.3929(12)
C1 C 0.94305(15) 0.56512(11) 0.45998(10)
C2 C 0.90029(15) 0.53623(11) 0.51870(9)
C3 C 0.80214(15) 0.51980(10) 0.53218(9)
C4 C 0.80498(15) 0.48583(10) 0.59454(9)
C5 C 0.72236(15) 0.45665(11) 0.63665(9)
H6 H 0.7420 0.4612 0.6831
H7 H 0.6632 0.4887 0.6299
C6 C 1.06257(15) 0.52175(12) 0.58051(11)
H8 H 1.0759 0.5673 0.6064
H9 H 1.0956 0.5260 0.5381
H10 H 1.0877 0.4772 0.6037
C7 C 0.77819(16) 0.32313(11) 0.62349(10)
H11 H 0.7520 0.2714 0.6217
H12 H 0.8168 0.3297 0.6636
H13 H 0.8207 0.3321 0.5855
C8 C 0.60405(15) 0.35202(11) 0.60859(9)
C9 C 0.51746(15) 0.40510(10) 0.61452(9)
C10 C 0.49802(15) 0.44120(10) 0.67392(9)
H14 H 0.5439 0.4366 0.7088
C11 C 0.41298(15) 0.48342(11) 0.68255(10)
H15 H 0.3991 0.5073 0.7231
C12 C 0.34909(16) 0.48982(11) 0.63071(10)
C13 C 0.36534(15) 0.45665(11) 0.57099(10)
H16 H 0.3198 0.4635 0.5362
C14 C 0.45062(15) 0.41243(10) 0.56252(9)
C15 C 0.47012(16) 0.38009(11) 0.49496(9)
H17 H 0.5367(18) 0.3524(12) 0.4937(10)
C16 C 0.38898(17) 0.32917(12) 0.46917(10)
H18 H 0.3259 0.3565 0.4698
H19 H 0.3840 0.2839 0.4967
H20 H 0.4045 0.3141 0.4243
C17 C 0.55424(15) 0.49016(10) 0.45507(9)
C18 C 0.54359(15) 0.55829(11) 0.41808(9)
C19 C 0.70574(15) 0.59580(11) 0.45232(9)
H21 H 0.7569 0.6326 0.4509
C20 C 0.71578(14) 0.53254(10) 0.49032(9)
C21 C 0.63893(15) 0.47782(10) 0.48917(9)
H22 H 0.6468 0.4318 0.5126
F2 F 0.00186(10) 0.09724(7) 0.74681(7)
O4 O 0.32165(11) 0.14741(7) 0.53108(7)
O5 O 0.21159(11) 0.31903(8) 0.66585(7)
N7 N 0.71152(14) 0.35618(10) 0.79527(9)
N8 N 0.68674(13) 0.17187(9) 0.73102(8)
N9 N 0.62795(13) 0.11873(9) 0.70490(8)
N10 N 0.42895(13) 0.11382(9) 0.61113(8)
N11 N 0.20829(13) 0.40993(9) 0.77085(8)
H23 H 0.2072 0.4401 0.8050
H24 H 0.1589 0.4104 0.7429
N12 N 0.36052(13) 0.36253(10) 0.80381(8)
H25 H 0.354(2) 0.3963(16) 0.8371(14)
C22 C 0.67876(15) 0.30098(11) 0.77514(10)
C23 C 0.63414(15) 0.23368(11) 0.74922(9)
C24 C 0.53504(15) 0.22081(10) 0.73398(9)
C25 C 0.53633(16) 0.14748(11) 0.70541(9)
C26 C 0.45323(16) 0.09935(11) 0.68038(9)
H26 H 0.4713 0.0453 0.6855
H27 H 0.3937 0.1088 0.7073
C27 C 0.79233(15) 0.15633(12) 0.73743(11)
H28 H 0.8024 0.1158 0.7695
H29 H 0.8265 0.2023 0.7520
H30 H 0.8189 0.1405 0.6951
C28 C 0.51276(16) 0.11404(11) 0.56555(10)
H31 H 0.4882 0.1086 0.5208
H32 H 0.5570 0.0717 0.5758
H33 H 0.5489 0.1619 0.5696
C29 C 0.33731(15) 0.12928(10) 0.58861(10)
C30 C 0.25090(15) 0.12301(11) 0.63460(9)
C31 C 0.22949(16) 0.05358(11) 0.66392(9)
H34 H 0.2734 0.0121 0.6580
C32 C 0.14547(16) 0.04410(12) 0.70148(10)
H35 H 0.1305 -0.0033 0.7210
C33 C 0.08423(16) 0.10558(12) 0.70962(10)
C34 C 0.10293(16) 0.17582(12) 0.68261(10)
H36 H 0.0598 0.2172 0.6906
C35 C 0.18640(15) 0.18480(11) 0.64332(9)
C36 C 0.20676(16) 0.26280(11) 0.61386(10)
H37 H 0.2714 0.2616 0.5901
C37 C 0.12667(17) 0.29037(12) 0.56799(10)
H38 H 0.0632 0.2916 0.5911
H39 H 0.1219 0.2559 0.5306
H40 H 0.1431 0.3414 0.5526
C38 C 0.29086(15) 0.31482(11) 0.70621(9)
C39 C 0.28430(15) 0.36385(11) 0.76144(9)
C40 C 0.44154(15) 0.31734(11) 0.79716(9)
H41 H 0.4917 0.3179 0.8296
C41 C 0.45082(15) 0.27118(10) 0.74400(9)
C42 C 0.37337(15) 0.27174(11) 0.69756(9)
H42 H 0.3791 0.2414 0.6595
O6 O 0.51692(13) 0.80427(9) 0.45544(8)
H43 H 0.4680 0.7801 0.4752
H44 H 0.5262 0.7844 0.4182
O7 O 0.35000(14) 0.75329(9) 0.52187(8)
H45 H 0.3031 0.7312 0.5030
C43 C 0.3813(2) 0.70958(17) 0.57587(13)
H46 H 0.3227 0.6855 0.5961
H47 H 0.4112 0.7437 0.6088
C44 C 0.4529(3) 0.65066(18) 0.55911(19)
H48 H 0.4217 0.6135 0.5302
H49 H 0.4753 0.6254 0.5990
H50 H 0.5096 0.6736 0.5369
O8 O 1.01702(12) 0.40167(11) 0.71347(9)
H51 H 0.9906 0.3645 0.7331
H52 H 0.9741 0.4235 0.6898
N13 N 0.64925(18) 0.62197(12) 0.67652(11)
C45 C 0.7174(2) 0.65509(13) 0.66105(11)
C46 C 0.8042(2) 0.69665(14) 0.64169(13)
H53 H 0.8381 0.7159 0.6806
H54 H 0.7849 0.7392 0.6138
H55 H 0.8489 0.6631 0.6175
loop_
_geom_bond_atom_site_label_1
_geom_bond_atom_site_label_2
_geom_bond_site_symmetry_1
_geom_bond_site_symmetry_2
O1 H1 1_555 1_555
H2 O1 1_555 1_555
F1 C12 1_555 1_555
O2 C8 1_555 1_555
O3 C15 1_555 1_555
N1 C1 1_555 1_555
N2 N3 1_555 1_555
N3 C4 1_555 1_555
N4 C5 1_555 1_555
N5 H3 1_555 1_555
H4 N5 1_555 1_555
N6 H5 1_555 1_555
C1 C2 1_555 1_555
C2 N2 1_555 1_555
C3 C2 1_555 1_555
C4 C3 1_555 1_555
C5 C4 1_555 1_555
H6 C5 1_555 1_555
H7 C5 1_555 1_555
C6 N2 1_555 1_555
H8 C6 1_555 1_555
H9 C6 1_555 1_555
H10 C6 1_555 1_555
C7 N4 1_555 1_555
H11 C7 1_555 1_555
H12 C7 1_555 1_555
H13 C7 1_555 1_555
C8 N4 1_555 1_555
C9 C8 1_555 1_555
C10 C9 1_555 1_555
H14 C10 1_555 1_555
C11 C10 1_555 1_555
H15 C11 1_555 1_555
C12 C11 1_555 1_555
C13 C12 1_555 1_555
H16 C13 1_555 1_555
C14 C9 1_555 1_555
C15 C14 1_555 1_555
H17 C15 1_555 1_555
C16 C15 1_555 1_555
H18 C16 1_555 1_555
H19 C16 1_555 1_555
H20 C16 1_555 1_555
C17 O3 1_555 1_555
C18 N5 1_555 1_555
C19 N6 1_555 1_555
H21 C19 1_555 1_555
C20 C3 1_555 1_555
C21 C17 1_555 1_555
H22 C21 1_555 1_555
F2 C33 1_555 1_555
O4 C29 1_555 1_555
O5 C36 1_555 1_555
N7 C22 1_555 1_555
N8 N9 1_555 1_555
N9 C25 1_555 1_555
N10 C26 1_555 1_555
N11 H23 1_555 1_555
H24 N11 1_555 1_555
N12 H25 1_555 1_555
C22 C23 1_555 1_555
C23 N8 1_555 1_555
C24 C23 1_555 1_555
C25 C24 1_555 1_555
C26 C25 1_555 1_555
H26 C26 1_555 1_555
H27 C26 1_555 1_555
C27 N8 1_555 1_555
H28 C27 1_555 1_555
H29 C27 1_555 1_555
H30 C27 1_555 1_555
C28 N10 1_555 1_555
H31 C28 1_555 1_555
H32 C28 1_555 1_555
H33 C28 1_555 1_555
C29 N10 1_555 1_555
C30 C29 1_555 1_555
C31 C30 1_555 1_555
H34 C31 1_555 1_555
C32 C31 1_555 1_555
H35 C32 1_555 1_555
C33 C32 1_555 1_555
C34 C33 1_555 1_555
H36 C34 1_555 1_555
C35 C30 1_555 1_555
C36 C35 1_555 1_555
H37 C36 1_555 1_555
C37 C36 1_555 1_555
H38 C37 1_555 1_555
H39 C37 1_555 1_555
H40 C37 1_555 1_555
C38 O5 1_555 1_555
C39 N11 1_555 1_555
C40 N12 1_555 1_555
H41 C40 1_555 1_555
C41 C24 1_555 1_555
C42 C38 1_555 1_555
H42 C42 1_555 1_555
O6 H43 1_555 1_555
H44 O6 1_555 1_555
O7 H45 1_555 1_555
C43 O7 1_555 1_555
H46 C43 1_555 1_555
H47 C43 1_555 1_555
C44 C43 1_555 1_555
H48 C44 1_555 1_555
H49 C44 1_555 1_555
H50 C44 1_555 1_555
O8 H51 1_555 1_555
H52 O8 1_555 1_555
N13 C45 1_555 1_555
C45 C46 1_555 1_555
C46 H53 1_555 1_555
H54 C46 1_555 1_555
H55 C46 1_555 1_555
N6 C18 1_555 1_555
C13 C14 1_555 1_555
C17 C18 1_555 1_555
C19 C20 1_555 1_555
C20 C21 1_555 1_555
N12 C39 1_555 1_555
C34 C35 1_555 1_555
C38 C39 1_555 1_555
C40 C41 1_555 1_555
C41 C42 1_555 1_555

#END
