
#######################################################################
#
#                 Cambridge Crystallographic Data Centre
#                                CCDC 
#
#######################################################################
#
# If this CIF has been generated from an entry in the Cambridge 
# Structural Database, then it will include bibliographic, chemical, 
# crystal, experimental, refinement or atomic coordinate data resulting 
# from the CCDC's data processing and validation procedures.
#
#######################################################################

data_ZOJPEV
_chemical_formula_moiety         'C12 H9 I3 N1 O1 1+,I3 1-'
_chemical_name_systematic        
'8,10-diiodo-3-(iodomethyl)-2,3-dihydro-[1,4]oxazino[2,3,4-ij]quinolin-4-ium triiodide'
_symmetry_cell_setting           monoclinic
_symmetry_space_group_name_H-M   'P 21/n'
_symmetry_Int_Tables_number      14
_space_group_name_Hall           '-P 2yn'
loop_
_symmetry_equiv_pos_site_id
_symmetry_equiv_pos_as_xyz
1 x,y,z
2 1/2-x,1/2+y,1/2-z
3 -x,-y,-z
4 1/2+x,1/2-y,1/2+z
_cell_length_a                   9.2855(2)
_cell_length_b                   17.1834(4)
_cell_length_c                   12.2416(3)
_cell_angle_alpha                90
_cell_angle_beta                 93.258(2)
_cell_angle_gamma                90
_cell_volume                     1950.07
_exptl_crystal_colour            brown
_exptl_crystal_description       rhombohedral
_cell_formula_units_Z            4
loop_
_atom_site_label
_atom_site_type_symbol
_atom_site_fract_x
_atom_site_fract_y
_atom_site_fract_z
C1 C 0.7782(5) 0.7490(3) 0.0389(4)
C2 C 0.6375(6) 0.7601(3) -0.0089(4)
C3 C 0.5465(5) 0.6970(3) -0.0204(4)
C4 C 0.5938(5) 0.6221(3) 0.0120(4)
H1 H 0.5307 0.5802 0.0045
C5 C 0.7311(6) 0.6105(3) 0.0544(4)
C6 C 0.8286(5) 0.6738(3) 0.0711(4)
C7 C 0.9718(6) 0.6672(3) 0.1148(4)
H2 H 1.0081 0.6186 0.1353
C8 C 1.0577(6) 0.7312(3) 0.1272(4)
H3 H 1.1518 0.7264 0.1567
C9 C 1.0045(6) 0.8035(3) 0.0960(4)
H4 H 1.0636 0.8470 0.1047
C10 C 0.7049(6) 0.8809(3) -0.0726(4)
H5 H 0.6661 0.9312 -0.0950
H6 H 0.7506 0.8581 -0.1344
C11 C 0.8149(6) 0.8912(3) 0.0215(4)
H7 H 0.8952 0.9226 -0.0027
C12 C 0.7537(6) 0.9298(3) 0.1210(4)
H8 H 0.8222 0.9250 0.1835
H9 H 0.6653 0.9037 0.1386
I1 I 0.79737(4) 0.49600(2) 0.08560(3)
I2 I 0.34078(4) 0.71640(2) -0.09376(3)
I3 I 0.71013(4) 1.05059(2) 0.08915(3)
N1 N 0.8694(5) 0.8122(2) 0.0533(3)
O1 O 0.5906(4) 0.83142(19) -0.0407(3)
I4 I 0.99358(4) 0.23970(2) 0.22474(3)
I5 I 1.17709(4) 0.37990(2) 0.23333(3)
I6 I 1.38620(4) 0.50472(2) 0.23675(3)
loop_
_geom_bond_atom_site_label_1
_geom_bond_atom_site_label_2
_geom_bond_site_symmetry_1
_geom_bond_site_symmetry_2
C1 C2 1_555 1_555
C2 C3 1_555 1_555
C3 C4 1_555 1_555
C4 H1 1_555 1_555
C5 C4 1_555 1_555
C6 C1 1_555 1_555
C7 C6 1_555 1_555
H2 C7 1_555 1_555
C8 C7 1_555 1_555
H3 C8 1_555 1_555
C9 C8 1_555 1_555
H4 C9 1_555 1_555
C10 H5 1_555 1_555
H6 C10 1_555 1_555
C11 C10 1_555 1_555
H7 C11 1_555 1_555
C12 C11 1_555 1_555
H8 C12 1_555 1_555
H9 C12 1_555 1_555
I1 C5 1_555 1_555
I2 C3 1_555 1_555
I3 C12 1_555 1_555
N1 C1 1_555 1_555
O1 C2 1_555 1_555
I4 I5 1_555 1_555
I5 I6 1_555 1_555
C5 C6 1_555 1_555
C9 N1 1_555 1_555
C10 O1 1_555 1_555
C11 N1 1_555 1_555

#END
