
#######################################################################
#
#                 Cambridge Crystallographic Data Centre
#                                CCDC 
#
#######################################################################
#
# If this CIF has been generated from an entry in the Cambridge 
# Structural Database, then it will include bibliographic, chemical, 
# crystal, experimental, refinement or atomic coordinate data resulting 
# from the CCDC's data processing and validation procedures.
#
#######################################################################

data_ZOKCUZ
_chemical_formula_moiety         'C26 H26 N2 O3'
_chemical_name_systematic        
N-t-butyl-2-(2-methylene-5-oxo-2,3-dihydro-1,4-benzoxazepin-4(5H)-yl)-2-(1-naphthyl)acetamide
_symmetry_cell_setting           monoclinic
_symmetry_space_group_name_H-M   'P 21/n'
_symmetry_Int_Tables_number      14
_space_group_name_Hall           '-P 2yn'
loop_
_symmetry_equiv_pos_site_id
_symmetry_equiv_pos_as_xyz
1 x,y,z
2 1/2-x,1/2+y,1/2-z
3 -x,-y,-z
4 1/2+x,1/2-y,1/2+z
_cell_length_a                   14.280(4)
_cell_length_b                   21.368(5)
_cell_length_c                   15.182(4)
_cell_angle_alpha                90
_cell_angle_beta                 98.213(4)
_cell_angle_gamma                90
_cell_volume                     4585.05
_exptl_crystal_colour            colorless
_exptl_crystal_description       Block
_cell_formula_units_Z            8
loop_
_atom_site_label
_atom_site_type_symbol
_atom_site_fract_x
_atom_site_fract_y
_atom_site_fract_z
O1 O 0.61191 0.03257 0.12126
O2 O 0.86409 0.12914 0.18570
O3 O 0.70202 0.27125 0.21749
N1 N 0.71307 0.14315 0.20879
N2 N 0.81299 0.27539 0.33930
C1 C 0.74562 0.08961 0.07494
C2 C 0.79998 0.09810 0.00665
C3 C 0.77751 0.07002 -0.07494
C4 C 0.69991 0.03123 -0.08940
C5 C 0.64479 0.02165 -0.02378
C6 C 0.66683 0.05053 0.05786
C7 C 0.57466 0.07588 0.17429
C8 C 0.51176 0.05612 0.22229
C9 C 0.61209 0.14064 0.17325
C10 C 0.77899 0.12178 0.16081
C11 C 0.74443 0.17472 0.29420
C12 C 0.68042 0.15772 0.36198
C13 C 0.61589 0.19936 0.38604
C14 C 0.55401 0.18328 0.44555
C15 C 0.55643 0.12499 0.48112
C16 C 0.62083 0.08005 0.45905
C17 C 0.68434 0.09605 0.39903
C18 C 0.74888 0.04974 0.37831
C19 C 0.74878 -0.00864 0.41516
C20 C 0.68690 -0.02366 0.47433
C21 C 0.62458 0.01925 0.49617
C22 C 0.75177 0.24558 0.27980
C23 C 0.83381 0.34346 0.34215
C24 C 0.74445 0.38112 0.33790
C25 C 0.89605 0.35562 0.43026
C26 C 0.88776 0.35945 0.26626
H1 H 0.85321 0.12361 0.01665
H2 H 0.84701 0.25296 0.37693
H3 H 0.81424 0.07711 -0.11984
H4 H 0.68477 0.01139 -0.14410
H5 H 0.59227 -0.00446 -0.03432
H6 H 0.49362 0.01428 0.21996
H7 H 0.48507 0.08387 0.25882
H8 H 0.60276 0.15630 0.11266
H9 H 0.57719 0.16747 0.20857
H10 H 0.80801 0.15931 0.31664
H11 H 0.61322 0.23947 0.36205
H12 H 0.51097 0.21258 0.46089
H13 H 0.51483 0.11466 0.52070
H14 H 0.79160 0.05914 0.33938
H15 H 0.79090 -0.03872 0.40026
H16 H 0.68822 -0.06350 0.49917
H17 H 0.58358 0.00864 0.53619
H18 H 0.71190 0.36975 0.38667
H19 H 0.70453 0.37280 0.28274
H20 H 0.75983 0.42486 0.34159
H21 H 0.86197 0.34512 0.47835
H22 H 0.91341 0.39904 0.43418
H23 H 0.95210 0.33039 0.43395
H24 H 0.90396 0.40308 0.26889
H25 H 0.94450 0.33482 0.27114
H26 H 0.84904 0.35058 0.21063
O4 O 0.17631 0.30761 0.18818
O5 O 0.42262 0.20333 0.21296
O6 O 0.44446 0.30092 -0.02992
N3 N 0.37312 0.28827 0.13101
N4 N 0.59494 0.29255 0.04208
C27 C 0.25805 0.21053 0.16750
C28 C 0.24759 0.14578 0.15933
C29 C 0.16179 0.11660 0.15499
C30 C 0.08424 0.15173 0.15830
C31 C 0.08826 0.21492 0.16648
C32 C 0.17863 0.24505 0.17134
C33 C 0.23532 0.35011 0.15608
C34 C 0.23803 0.40891 0.18076
C35 C 0.29375 0.32588 0.08779
C36 C 0.35786 0.23427 0.17295
C37 C 0.47039 0.31037 0.13033
C38 C 0.48261 0.37844 0.15947
C39 C 0.48237 0.42513 0.09826
C40 C 0.49507 0.48806 0.12343
C41 C 0.51138 0.50396 0.21013
C42 C 0.51279 0.45801 0.27667
C43 C 0.49523 0.39419 0.25186
C44 C 0.49252 0.34980 0.32007
C45 C 0.51073 0.36700 0.40746
C46 C 0.53232 0.42918 0.43133
C47 C 0.53242 0.47331 0.36783
C48 C 0.50163 0.29997 0.03876
C49 C 0.64947 0.29113 -0.03382
C50 C 0.63020 0.35048 -0.08918
C51 C 0.75321 0.28777 0.00662
C52 C 0.62323 0.23350 -0.09149
H27 H 0.62694 0.28809 0.09416
H28 H 0.30114 0.12146 0.15673
H29 H 0.15718 0.07330 0.14985
H30 H 0.02578 0.13200 0.15485
H31 H 0.03365 0.23819 0.16888
H32 H 0.19934 0.42289 0.22104
H33 H 0.27863 0.43668 0.15799
H34 H 0.25434 0.30054 0.04424
H35 H 0.31771 0.36085 0.05690
H36 H 0.51183 0.28508 0.17347
H37 H 0.47354 0.41497 0.03808
H38 H 0.49222 0.51898 0.08002
H39 H 0.52180 0.54567 0.22613
H40 H 0.47816 0.30830 0.30541
H41 H 0.50876 0.33707 0.45163
H42 H 0.54660 0.44007 0.49104
H43 H 0.54569 0.51461 0.38446
H44 H 0.56456 0.35192 -0.11412
H45 H 0.66844 0.35045 -0.13631
H46 H 0.64548 0.38643 -0.05198
H47 H 0.76428 0.25003 0.04082
H48 H 0.76876 0.32330 0.04461
H49 H 0.79201 0.28788 -0.04006
H50 H 0.63561 0.19643 -0.05601
H51 H 0.66031 0.23268 -0.13947
H52 H 0.55727 0.23515 -0.11526
loop_
_geom_bond_atom_site_label_1
_geom_bond_atom_site_label_2
_geom_bond_site_symmetry_1
_geom_bond_site_symmetry_2
O1 C6 1_555 1_555
O2 C10 1_555 1_555
O3 C22 1_555 1_555
N1 C9 1_555 1_555
N2 C22 1_555 1_555
C1 C2 1_555 1_555
C2 C3 1_555 1_555
C3 C4 1_555 1_555
C4 C5 1_555 1_555
C5 C6 1_555 1_555
C6 C1 1_555 1_555
C7 O1 1_555 1_555
C8 C7 1_555 1_555
C9 C7 1_555 1_555
C10 N1 1_555 1_555
C11 N1 1_555 1_555
C12 C11 1_555 1_555
C13 C12 1_555 1_555
C14 C13 1_555 1_555
C15 C14 1_555 1_555
C16 C15 1_555 1_555
C17 C12 1_555 1_555
C18 C17 1_555 1_555
C19 C18 1_555 1_555
C20 C19 1_555 1_555
C21 C16 1_555 1_555
C22 C11 1_555 1_555
C23 N2 1_555 1_555
C24 C23 1_555 1_555
C25 C23 1_555 1_555
C26 C23 1_555 1_555
H1 C2 1_555 1_555
H2 N2 1_555 1_555
H3 C3 1_555 1_555
H4 C4 1_555 1_555
H5 C5 1_555 1_555
H6 C8 1_555 1_555
H7 C8 1_555 1_555
H8 C9 1_555 1_555
H9 C9 1_555 1_555
H10 C11 1_555 1_555
H11 C13 1_555 1_555
H12 C14 1_555 1_555
H13 C15 1_555 1_555
H14 C18 1_555 1_555
H15 C19 1_555 1_555
H16 C20 1_555 1_555
H17 C21 1_555 1_555
H18 C24 1_555 1_555
H19 C24 1_555 1_555
H20 C24 1_555 1_555
H21 C25 1_555 1_555
H22 C25 1_555 1_555
H23 C25 1_555 1_555
H24 C26 1_555 1_555
H25 C26 1_555 1_555
H26 C26 1_555 1_555
O4 C32 1_555 1_555
O5 C36 1_555 1_555
O6 C48 1_555 1_555
N3 C35 1_555 1_555
N4 C48 1_555 1_555
C27 C28 1_555 1_555
C28 C29 1_555 1_555
C29 C30 1_555 1_555
C30 C31 1_555 1_555
C31 C32 1_555 1_555
C32 C27 1_555 1_555
C33 O4 1_555 1_555
C34 C33 1_555 1_555
C35 C33 1_555 1_555
C36 N3 1_555 1_555
C37 N3 1_555 1_555
C38 C37 1_555 1_555
C39 C38 1_555 1_555
C40 C39 1_555 1_555
C41 C40 1_555 1_555
C42 C41 1_555 1_555
C43 C38 1_555 1_555
C44 C43 1_555 1_555
C45 C44 1_555 1_555
C46 C45 1_555 1_555
C47 C42 1_555 1_555
C48 C37 1_555 1_555
C49 N4 1_555 1_555
C50 C49 1_555 1_555
C51 C49 1_555 1_555
C52 C49 1_555 1_555
H27 N4 1_555 1_555
H28 C28 1_555 1_555
H29 C29 1_555 1_555
H30 C30 1_555 1_555
H31 C31 1_555 1_555
H32 C34 1_555 1_555
H33 C34 1_555 1_555
H34 C35 1_555 1_555
H35 C35 1_555 1_555
H36 C37 1_555 1_555
H37 C39 1_555 1_555
H38 C40 1_555 1_555
H39 C41 1_555 1_555
H40 C44 1_555 1_555
H41 C45 1_555 1_555
H42 C46 1_555 1_555
H43 C47 1_555 1_555
H44 C50 1_555 1_555
H45 C50 1_555 1_555
H46 C50 1_555 1_555
H47 C51 1_555 1_555
H48 C51 1_555 1_555
H49 C51 1_555 1_555
H50 C52 1_555 1_555
H51 C52 1_555 1_555
H52 C52 1_555 1_555
C1 C10 1_555 1_555
C16 C17 1_555 1_555
C20 C21 1_555 1_555
C27 C36 1_555 1_555
C42 C43 1_555 1_555
C46 C47 1_555 1_555

#END
