
#######################################################################
#
#                 Cambridge Crystallographic Data Centre
#                                CCDC 
#
#######################################################################
#
# If this CIF has been generated from an entry in the Cambridge 
# Structural Database, then it will include bibliographic, chemical, 
# crystal, experimental, refinement or atomic coordinate data resulting 
# from the CCDC's data processing and validation procedures.
#
#######################################################################

data_ZOKQEX
_chemical_formula_moiety         'C16 H24 N4 O2'
_chemical_name_systematic        
8-((2-hydroxypropyl)amino)-2-methyl-6-(pyrrolidin-1-yl)-3,4-dihydro-2,7-naphthyridin-1(2H)-one
_symmetry_cell_setting           orthorhombic
_symmetry_space_group_name_H-M   'P b c a'
_symmetry_Int_Tables_number      61
_space_group_name_Hall           '-P 2ac 2ab'
loop_
_symmetry_equiv_pos_site_id
_symmetry_equiv_pos_as_xyz
1 x,y,z
2 1/2-x,-y,1/2+z
3 -x,1/2+y,1/2-z
4 1/2+x,1/2-y,-z
5 -x,-y,-z
6 1/2+x,y,1/2-z
7 x,1/2-y,1/2+z
8 1/2-x,1/2+y,z
_cell_length_a                   10.777(2)
_cell_length_b                   9.4675(19)
_cell_length_c                   31.135(6)
_cell_angle_alpha                90
_cell_angle_beta                 90
_cell_angle_gamma                90
_cell_volume                     3176.74
_exptl_crystal_colour            colorless
_exptl_crystal_description       prism
_cell_formula_units_Z            8
loop_
_atom_site_label
_atom_site_type_symbol
_atom_site_fract_x
_atom_site_fract_y
_atom_site_fract_z
N1 N 1.00238(15) 0.41829(19) 0.35084(5)
C1 C 1.11719(18) 0.3645(2) 0.34856(7)
C2 C 1.20930(18) 0.3953(2) 0.37891(7)
H1 H 1.2872 0.3534 0.3771
C3 C 1.18233(17) 0.4881(2) 0.41124(7)
C4 C 1.27914(19) 0.5349(3) 0.44321(7)
H2 H 1.3409 0.4611 0.4464
H3 H 1.3206 0.6187 0.4325
C5 C 1.2231(2) 0.5660(3) 0.48546(7)
H4 H 1.1972 0.4782 0.4988
H5 H 1.2851 0.6093 0.5038
N2 N 1.11671(15) 0.65984(19) 0.48199(6)
C6 C 1.03385(18) 0.6450(2) 0.44989(7)
C7 C 1.06392(16) 0.5479(2) 0.41480(6)
C8 C 0.97533(16) 0.5063(2) 0.38321(7)
N3 N 0.85771(17) 0.5534(3) 0.38486(8)
H6 H 0.838(2) 0.607(2) 0.4042(8)
C9 C 0.7556(5) 0.5337(7) 0.35500(19)
H7 H 0.7859 0.5058 0.3269
H8 H 0.7076 0.6199 0.3521
C10 C 0.6791(4) 0.4189(5) 0.37465(12)
H9 H 0.7319 0.3373 0.3811
C11 C 0.5761(7) 0.3751(9) 0.3446(3)
H10 H 0.5130 0.4467 0.3443
H11 H 0.5409 0.2876 0.3543
H12 H 0.6088 0.3633 0.3162
O1 O 0.6298(7) 0.4792(7) 0.41516(14)
H13 H 0.6842 0.4781 0.4336
C12 C 1.0851(2) 0.7446(3) 0.51945(7)
H14 H 1.0417 0.8281 0.5104
H15 H 1.1597 0.7712 0.5343
H16 H 1.0332 0.6906 0.5383
O2 O 0.93463(14) 0.71413(19) 0.45079(5)
N4 N 1.14050(16) 0.2795(2) 0.31454(6)
C13 C 1.0474(7) 0.2509(12) 0.2815(2)
H17 H 1.0373 0.3308 0.2623
H18 H 0.9678 0.2273 0.2941
C14 C 1.1044(6) 0.1243(10) 0.2583(3)
H19 H 1.0856 0.0365 0.2730
H20 H 1.0759 0.1184 0.2288
C15 C 1.2416(8) 0.1588(13) 0.2606(3)
H21 H 1.2635 0.2323 0.2403
H22 H 1.2917 0.0758 0.2550
C16 C 1.2582(6) 0.2097(9) 0.3070(3)
H23 H 1.2704 0.1312 0.3266
H24 H 1.3272 0.2749 0.3096
C17? C 0.7626(5) 0.4641(8) 0.3617(2)
H25? H 0.7763 0.4697 0.3309
H26? H 0.7712 0.3662 0.3704
C18? C 0.6345(4) 0.5154(7) 0.3721(2)
H27? H 0.6293 0.6179 0.3679
C19? C 0.5387(7) 0.4424(9) 0.3454(3)
H28? H 0.5640 0.4432 0.3159
H29? H 0.4607 0.4905 0.3483
H30? H 0.5298 0.3465 0.3550
O3? O 0.6095(11) 0.4803(17) 0.4167(3)
H31? H 0.5349 0.4663 0.4199
C20? C 1.0510(10) 0.2462(16) 0.2813(4)
H32? H 1.0082 0.3305 0.2716
H33? H 0.9904 0.1783 0.2914
C21? C 1.1310(13) 0.1835(16) 0.2455(3)
H34? H 1.0832 0.1202 0.2275
H35? H 1.1672 0.2571 0.2278
C22? C 1.2300(15) 0.1040(13) 0.2703(5)
H36? H 1.3016 0.0827 0.2526
H37? H 1.1980 0.0176 0.2828
C23? C 1.2598(7) 0.2149(14) 0.3046(5)
H38? H 1.2954 0.1711 0.3299
H39? H 1.3176 0.2847 0.2936
loop_
_geom_bond_atom_site_label_1
_geom_bond_atom_site_label_2
_geom_bond_site_symmetry_1
_geom_bond_site_symmetry_2
N1 C1 1_555 1_555
C1 C2 1_555 1_555
C2 H1 1_555 1_555
C3 C2 1_555 1_555
C4 C3 1_555 1_555
H2 C4 1_555 1_555
H3 C4 1_555 1_555
C5 C4 1_555 1_555
H4 C5 1_555 1_555
H5 C5 1_555 1_555
N2 C5 1_555 1_555
C6 N2 1_555 1_555
C7 C3 1_555 1_555
C8 N1 1_555 1_555
N3 C8 1_555 1_555
H6 N3 1_555 1_555
C9 N3 1_555 1_555
H7 C9 1_555 1_555
H8 C9 1_555 1_555
C10 C9 1_555 1_555
H9 C10 1_555 1_555
C11 C10 1_555 1_555
H10 C11 1_555 1_555
H11 C11 1_555 1_555
H12 C11 1_555 1_555
O1 C10 1_555 1_555
H13 O1 1_555 1_555
C12 N2 1_555 1_555
H14 C12 1_555 1_555
H15 C12 1_555 1_555
H16 C12 1_555 1_555
O2 C6 1_555 1_555
N4 C1 1_555 1_555
C13 N4 1_555 1_555
H17 C13 1_555 1_555
H18 C13 1_555 1_555
C14 C13 1_555 1_555
H19 C14 1_555 1_555
H20 C14 1_555 1_555
C15 C14 1_555 1_555
H21 C15 1_555 1_555
H22 C15 1_555 1_555
C16 N4 1_555 1_555
H23 C16 1_555 1_555
H24 C16 1_555 1_555
C6 C7 1_555 1_555
C7 C8 1_555 1_555
C15 C16 1_555 1_555

#END
