
#######################################################################
#
#                 Cambridge Crystallographic Data Centre
#                                CCDC 
#
#######################################################################
#
# If this CIF has been generated from an entry in the Cambridge 
# Structural Database, then it will include bibliographic, chemical, 
# crystal, experimental, refinement or atomic coordinate data resulting 
# from the CCDC's data processing and validation procedures.
#
#######################################################################

data_ZOKSUP
_chemical_formula_moiety         'C31 H26 N4 O1,0.5(C4 H8 O2)'
_chemical_name_systematic        
'4-(bis(4-aminophenyl)amino)-N,N-diphenylbenzamide ethyl acetate solvate'
_symmetry_cell_setting           triclinic
_symmetry_space_group_name_H-M   'P -1'
_symmetry_Int_Tables_number      2
_space_group_name_Hall           '-P 1'
loop_
_symmetry_equiv_pos_site_id
_symmetry_equiv_pos_as_xyz
1 x,y,z
2 -x,-y,-z
_cell_length_a                   13.0465(3)
_cell_length_b                   14.1234(3)
_cell_length_c                   15.2036(3)
_cell_angle_alpha                97.5266(16)
_cell_angle_beta                 92.1596(16)
_cell_angle_gamma                105.3963(17)
_cell_volume                     2669.92
_exptl_crystal_colour            colorless
_exptl_crystal_description       block
_cell_formula_units_Z            4
loop_
_atom_site_label
_atom_site_type_symbol
_atom_site_fract_x
_atom_site_fract_y
_atom_site_fract_z
C1 C 0.07580(13) 0.31509(12) 0.50598(10)
C2 C 0.16703(13) 0.39537(11) 0.52928(10)
H1 H 0.1682 0.4434 0.5795
C3 C 0.25503(12) 0.40516(11) 0.47987(10)
H2 H 0.3150 0.4612 0.4958
C4 C 0.25801(12) 0.33489(11) 0.40723(10)
C5 C 0.16586(13) 0.25696(11) 0.38234(10)
H3 H 0.1652 0.2089 0.3322
C6 C 0.07585(13) 0.24830(12) 0.42888(11)
H4 H 0.0132 0.1966 0.4086
C7 C 0.35561(12) 0.32938(11) 0.36178(10)
C8 C -0.01882(12) 0.37376(12) 0.63013(11)
C9 C -0.03307(14) 0.46477(13) 0.61650(12)
H5 H -0.0383 0.4794 0.5575
C10 C -0.03987(13) 0.53467(12) 0.68723(12)
H6 H -0.0472 0.5974 0.6764
C11 C -0.03598(12) 0.51368(12) 0.77447(11)
C12 C -0.02353(13) 0.42120(12) 0.78747(11)
H7 H -0.0216 0.4050 0.8461
C13 C -0.01403(13) 0.35282(12) 0.71673(11)
H8 H -0.0041 0.2909 0.7274
C14 C -0.08492(13) 0.20354(12) 0.55291(10)
C15 C -0.04909(13) 0.12023(13) 0.55847(11)
H9 H 0.0254 0.1271 0.5649
C16 C -0.11989(14) 0.02733(13) 0.55485(11)
H10 H -0.0932 -0.0288 0.5570
C17 C -0.22947(13) 0.01449(12) 0.54810(10)
C18 C -0.26507(13) 0.09912(13) 0.54621(11)
H11 H -0.3394 0.0930 0.5441
C19 C -0.19395(13) 0.19210(12) 0.54734(11)
H12 H -0.2203 0.2483 0.5443
C20 C 0.41282(12) 0.51100(11) 0.35024(10)
C21 C 0.32096(13) 0.52077(13) 0.30796(11)
H13 H 0.2684 0.4637 0.2792
C22 C 0.30638(14) 0.61459(14) 0.30804(13)
H14 H 0.2424 0.6214 0.2810
C23 C 0.38412(15) 0.69840(13) 0.34708(13)
H15 H 0.3741 0.7624 0.3457
C24 C 0.47612(15) 0.68867(13) 0.38795(13)
H16 H 0.5297 0.7461 0.4146
C25 C 0.49045(13) 0.59529(12) 0.39015(11)
H17 H 0.5535 0.5888 0.4190
C26 C 0.53342(13) 0.40584(12) 0.32198(11)
C27 C 0.56564(16) 0.43244(15) 0.24093(13)
H18 H 0.5205 0.4556 0.2035
C28 C 0.66458(18) 0.42515(17) 0.21448(15)
H19 H 0.6871 0.4438 0.1590
C29 C 0.72999(15) 0.39105(14) 0.26835(15)
H20 H 0.7975 0.3863 0.2500
C30 C 0.69737(14) 0.36392(13) 0.34874(14)
H21 H 0.7421 0.3395 0.3854
C31 C 0.59940(13) 0.37207(12) 0.37643(12)
H22 H 0.5777 0.3546 0.4324
N1 N -0.01224(11) 0.30067(10) 0.55668(9)
N2 N 0.43207(10) 0.41566(10) 0.35088(9)
N3 N -0.04228(12) 0.58266(11) 0.84730(10)
H23 H -0.0816 0.5505 0.8881
H24 H -0.0741 0.6274 0.8288
N4 N -0.30114(13) -0.07924(11) 0.54085(11)
H25 H -0.3631 -0.0735 0.5635
H26 H -0.2729 -0.1183 0.5720
O1 O 0.37068(9) 0.24824(8) 0.33705(8)
C32 C 0.41409(13) 0.14687(12) -0.02418(10)
C33 C 0.31398(13) 0.07724(12) -0.04611(10)
H27 H 0.3042 0.0278 -0.0968
C34 C 0.22986(13) 0.08045(12) 0.00573(10)
H28 H 0.1634 0.0318 -0.0090
C35 C 0.24047(13) 0.15357(12) 0.07922(11)
C36 C 0.33999(13) 0.22235(12) 0.10083(11)
H29 H 0.3488 0.2729 0.1505
C37 C 0.42540(13) 0.21825(12) 0.05163(11)
H30 H 0.4929 0.2643 0.0692
C38 C 0.15187(13) 0.16748(12) 0.13317(11)
C39 C 0.59656(13) 0.22345(13) -0.05634(11)
C40 C 0.67676(15) 0.21721(15) 0.00297(13)
H31 H 0.6704 0.1583 0.0287
C41 C 0.76671(15) 0.29724(16) 0.02486(13)
H32 H 0.8217 0.2924 0.0654
C42 C 0.77729(14) 0.38388(15) -0.01161(12)
C43 C 0.69947(16) 0.38723(15) -0.07435(13)
H33 H 0.7077 0.4444 -0.1030
C44 C 0.60961(15) 0.30797(14) -0.09578(12)
H34 H 0.5561 0.3118 -0.1383
C45 C 0.48981(12) 0.07559(12) -0.15493(11)
C46 C 0.45884(13) 0.09859(12) -0.23610(12)
H35 H 0.4412 0.1593 -0.2383
C47 C 0.45351(13) 0.03374(12) -0.31376(11)
H36 H 0.4333 0.0506 -0.3691
C48 C 0.47770(12) -0.05597(12) -0.31105(11)
C49 C 0.50805(13) -0.07940(13) -0.22979(11)
H37 H 0.5245 -0.1407 -0.2273
C50 C 0.51433(14) -0.01357(13) -0.15242(11)
H38 H 0.5357 -0.0298 -0.0972
C51 C -0.01730(12) 0.09078(12) 0.19300(11)
C52 C -0.07719(14) 0.14960(13) 0.16295(12)
H39 H -0.0573 0.1829 0.1133
C53 C -0.16651(15) 0.15929(14) 0.20623(14)
H40 H -0.2070 0.2003 0.1865
C54 C -0.19710(14) 0.11005(15) 0.27756(14)
H41 H -0.2576 0.1182 0.3074
C55 C -0.13960(14) 0.04902(15) 0.30535(12)
H42 H -0.1617 0.0135 0.3534
C56 C -0.04936(14) 0.03921(13) 0.26342(11)
H43 H -0.0097 -0.0027 0.2829
C57 C 0.10897(13) -0.00735(12) 0.15579(10)
C58 C 0.19914(13) -0.00436(13) 0.20859(11)
H44 H 0.2405 0.0567 0.2414
C59 C 0.22845(14) -0.09140(14) 0.21314(12)
H45 H 0.2907 -0.0897 0.2485
C60 C 0.16758(15) -0.18020(14) 0.16665(13)
H46 H 0.1883 -0.2394 0.1697
C61 C 0.07603(15) -0.18341(13) 0.11531(13)
H47 H 0.0336 -0.2449 0.0841
C62 C 0.04664(14) -0.09684(13) 0.10953(12)
H48 H -0.0157 -0.0987 0.0742
N5 N 0.49971(11) 0.14424(11) -0.07434(9)
N6 N 0.07748(11) 0.08238(10) 0.15089(9)
N7 N 0.86745(13) 0.46649(14) 0.01100(11)
H49 H 0.9087 0.4547 0.0557
H50 H 0.8456 0.5214 0.0295
N8 N 0.47504(12) -0.12124(11) -0.39047(10)
H51 H 0.4130 -0.1292 -0.4236
H52 H 0.4789 -0.1811 -0.3768
O2 O 0.14425(10) 0.25069(9) 0.15995(9)
C63 C 0.7135(2) 0.65262(19) 0.0945(2)
C64 C 0.6195(3) 0.5846(2) 0.0387(3)
H53 H 0.6334 0.5834 -0.0243
H54 H 0.5564 0.6083 0.0495
H55 H 0.6072 0.5175 0.0543
C65 C 0.7737(2) 0.7828(2) 0.2125(2)
H56 H 0.8438 0.7817 0.1902
H57 H 0.7662 0.8510 0.2146
C66 C 0.7664(3) 0.7535(3) 0.2996(3)
H58 H 0.7037 0.7678 0.3260
H59 H 0.8308 0.7905 0.3374
H60 H 0.7597 0.6822 0.2949
O3 O 0.8051(2) 0.65157(18) 0.0804(2)
O4 O 0.68897(15) 0.71340(15) 0.15456(15)
loop_
_geom_bond_atom_site_label_1
_geom_bond_atom_site_label_2
_geom_bond_site_symmetry_1
_geom_bond_site_symmetry_2
C1 C2 1_555 1_555
C2 H1 1_555 1_555
C3 C2 1_555 1_555
H2 C3 1_555 1_555
C4 C3 1_555 1_555
C5 C4 1_555 1_555
H3 C5 1_555 1_555
C6 C1 1_555 1_555
H4 C6 1_555 1_555
C7 C4 1_555 1_555
C8 C9 1_555 1_555
C9 H5 1_555 1_555
C10 C9 1_555 1_555
H6 C10 1_555 1_555
C11 C10 1_555 1_555
C12 C11 1_555 1_555
H7 C12 1_555 1_555
C13 C8 1_555 1_555
H8 C13 1_555 1_555
C14 C15 1_555 1_555
C15 H9 1_555 1_555
C16 C15 1_555 1_555
H10 C16 1_555 1_555
C17 C16 1_555 1_555
C18 C17 1_555 1_555
H11 C18 1_555 1_555
C19 C14 1_555 1_555
H12 C19 1_555 1_555
C20 C21 1_555 1_555
C21 H13 1_555 1_555
C22 C21 1_555 1_555
H14 C22 1_555 1_555
C23 C22 1_555 1_555
H15 C23 1_555 1_555
C24 C23 1_555 1_555
H16 C24 1_555 1_555
C25 C20 1_555 1_555
H17 C25 1_555 1_555
C26 C27 1_555 1_555
C27 H18 1_555 1_555
C28 C27 1_555 1_555
H19 C28 1_555 1_555
C29 C28 1_555 1_555
H20 C29 1_555 1_555
C30 C29 1_555 1_555
H21 C30 1_555 1_555
C31 C26 1_555 1_555
H22 C31 1_555 1_555
N1 C1 1_555 1_555
N2 C7 1_555 1_555
N3 C11 1_555 1_555
H23 N3 1_555 1_555
H24 N3 1_555 1_555
N4 C17 1_555 1_555
H25 N4 1_555 1_555
H26 N4 1_555 1_555
O1 C7 1_555 1_555
C32 C33 1_555 1_555
C33 H27 1_555 1_555
C34 C33 1_555 1_555
H28 C34 1_555 1_555
C35 C34 1_555 1_555
C36 C35 1_555 1_555
H29 C36 1_555 1_555
C37 C32 1_555 1_555
H30 C37 1_555 1_555
C38 C35 1_555 1_555
C39 C40 1_555 1_555
C40 H31 1_555 1_555
C41 C40 1_555 1_555
H32 C41 1_555 1_555
C42 C41 1_555 1_555
C43 C42 1_555 1_555
H33 C43 1_555 1_555
C44 C39 1_555 1_555
H34 C44 1_555 1_555
C45 C46 1_555 1_555
C46 H35 1_555 1_555
C47 C46 1_555 1_555
H36 C47 1_555 1_555
C48 C47 1_555 1_555
C49 C48 1_555 1_555
H37 C49 1_555 1_555
C50 C45 1_555 1_555
H38 C50 1_555 1_555
C51 C52 1_555 1_555
C52 H39 1_555 1_555
C53 C52 1_555 1_555
H40 C53 1_555 1_555
C54 C53 1_555 1_555
H41 C54 1_555 1_555
C55 C54 1_555 1_555
H42 C55 1_555 1_555
C56 C51 1_555 1_555
H43 C56 1_555 1_555
C57 C58 1_555 1_555
C58 H44 1_555 1_555
C59 C58 1_555 1_555
H45 C59 1_555 1_555
C60 C59 1_555 1_555
H46 C60 1_555 1_555
C61 C60 1_555 1_555
H47 C61 1_555 1_555
C62 C57 1_555 1_555
H48 C62 1_555 1_555
N5 C32 1_555 1_555
N6 C38 1_555 1_555
N7 C42 1_555 1_555
H49 N7 1_555 1_555
H50 N7 1_555 1_555
N8 C48 1_555 1_555
H51 N8 1_555 1_555
H52 N8 1_555 1_555
O2 C38 1_555 1_555
C63 C64 1_555 1_555
C64 H53 1_555 1_555
H54 C64 1_555 1_555
H55 C64 1_555 1_555
C65 H56 1_555 1_555
H57 C65 1_555 1_555
C66 C65 1_555 1_555
H58 C66 1_555 1_555
H59 C66 1_555 1_555
H60 C66 1_555 1_555
O3 C63 1_555 1_555
O4 C63 1_555 1_555
C5 C6 1_555 1_555
C8 N1 1_555 1_555
C12 C13 1_555 1_555
C14 N1 1_555 1_555
C18 C19 1_555 1_555
C20 N2 1_555 1_555
C24 C25 1_555 1_555
C26 N2 1_555 1_555
C30 C31 1_555 1_555
C36 C37 1_555 1_555
C39 N5 1_555 1_555
C43 C44 1_555 1_555
C45 N5 1_555 1_555
C49 C50 1_555 1_555
C51 N6 1_555 1_555
C55 C56 1_555 1_555
C57 N6 1_555 1_555
C61 C62 1_555 1_555
C65 O4 1_555 1_555

#END
