
#######################################################################
#
#                 Cambridge Crystallographic Data Centre
#                                CCDC 
#
#######################################################################
#
# If this CIF has been generated from an entry in the Cambridge 
# Structural Database, then it will include bibliographic, chemical, 
# crystal, experimental, refinement or atomic coordinate data resulting 
# from the CCDC's data processing and validation procedures.
#
#######################################################################

data_ZOKYOP
_chemical_formula_moiety         'C14 H15 N2 1+,Cl1 1-'
_chemical_name_systematic        '1-benzyl-2-benzylidenehydrazinium chloride'
_symmetry_cell_setting           orthorhombic
_symmetry_space_group_name_H-M   'P 21 21 21'
_symmetry_Int_Tables_number      19
_space_group_name_Hall           'P 2ac 2ab'
loop_
_symmetry_equiv_pos_site_id
_symmetry_equiv_pos_as_xyz
1 x,y,z
2 1/2-x,-y,1/2+z
3 -x,1/2+y,1/2-z
4 1/2+x,1/2-y,-z
_cell_length_a                   7.5186(3)
_cell_length_b                   13.2135(4)
_cell_length_c                   27.5125(13)
_cell_angle_alpha                90
_cell_angle_beta                 90
_cell_angle_gamma                90
_cell_volume                     2733.28
_exptl_crystal_colour            colorless
_exptl_crystal_description       plate
_cell_formula_units_Z            8
loop_
_atom_site_label
_atom_site_type_symbol
_atom_site_fract_x
_atom_site_fract_y
_atom_site_fract_z
N1 N 0.0020(4) 0.01660(18) 0.76484(8)
H1 H -0.1146 0.0052 0.7697
H2 H 0.0240 0.0824 0.7708
N2 N 0.0481(4) -0.0073(2) 0.71501(8)
C1 C 0.1088(5) -0.0474(2) 0.79845(10)
H3 H 0.2341 -0.0317 0.7947
H4 H 0.0916 -0.1183 0.7904
C2 C 0.0537(4) -0.0290(2) 0.84998(10)
C3 C -0.0787(6) -0.0848(3) 0.87105(14)
H5 H -0.1348 -0.1353 0.8531
C4 C -0.1311(7) -0.0672(5) 0.91914(17)
H6 H -0.2210 -0.1059 0.9330
C5 C -0.0518(8) 0.0052(4) 0.94499(15)
H7 H -0.0860 0.0162 0.9770
C6 C 0.0796(9) 0.0636(4) 0.92480(14)
H8 H 0.1329 0.1146 0.9430
C7 C 0.1330(6) 0.0466(3) 0.87724(12)
H9 H 0.2224 0.0861 0.8636
C8 C -0.0512(4) 0.0351(2) 0.68417(11)
H10 H -0.1408 0.0786 0.6945
C9 C -0.0261(5) 0.0164(2) 0.63217(11)
C10 C -0.0982(6) 0.0826(3) 0.59826(13)
H11 H -0.1653 0.1378 0.6084
C11 C -0.0693(6) 0.0659(4) 0.54925(13)
H12 H -0.1195 0.1096 0.5266
C12 C 0.0312(7) -0.0134(4) 0.53360(13)
H13 H 0.0530 -0.0225 0.5006
C13 C 0.1000(8) -0.0799(4) 0.56704(15)
H14 H 0.1667 -0.1349 0.5565
C14 C 0.0713(6) -0.0660(3) 0.61595(13)
H15 H 0.1176 -0.1119 0.6382
Cl1 Cl 0.09346(11) 0.23961(6) 0.77081(3)
N3 N -0.5022(4) 0.72846(18) 0.73457(8)
H16 H -0.5237 0.6631 0.7276
H17 H -0.3857 0.7405 0.7298
N4 N -0.5483(4) 0.7487(2) 0.78485(8)
C15 C -0.6091(5) 0.7942(2) 0.70232(10)
H18 H -0.5919 0.8644 0.7115
H19 H -0.7342 0.7782 0.7061
C16 C -0.5564(4) 0.7802(2) 0.65026(10)
C17 C -0.4337(6) 0.8435(3) 0.62892(14)
H20 H -0.3809 0.8941 0.6475
C18 C -0.3871(8) 0.8334(4) 0.58025(16)
H21 H -0.3053 0.8777 0.5665
C19 C -0.4605(8) 0.7595(4) 0.55297(16)
H22 H -0.4298 0.7527 0.5204
C20 C -0.5809(8) 0.6945(3) 0.57377(14)
H23 H -0.6309 0.6433 0.5551
C21 C -0.6292(6) 0.7040(3) 0.62219(13)
H24 H -0.7105 0.6591 0.6358
C22 C -0.4491(4) 0.7032(3) 0.81487(11)
H25 H -0.3586 0.6611 0.8038
C23 C -0.4774(5) 0.7172(3) 0.86718(11)
C24 C -0.4065(6) 0.6483(3) 0.89958(14)
H26 H -0.3354 0.5959 0.8881
C25 C -0.4397(7) 0.6564(4) 0.94855(15)
H27 H -0.3928 0.6092 0.9701
C26 C -0.5419(7) 0.7342(4) 0.96545(14)
H28 H -0.5648 0.7396 0.9986
C27 C -0.6113(8) 0.8050(3) 0.93387(14)
H29 H -0.6802 0.8580 0.9457
C28 C -0.5785(6) 0.7970(3) 0.88458(12)
H30 H -0.6240 0.8449 0.8632
Cl2 Cl -0.59376(11) 0.50536(5) 0.72765(3)
loop_
_geom_bond_atom_site_label_1
_geom_bond_atom_site_label_2
_geom_bond_site_symmetry_1
_geom_bond_site_symmetry_2
N1 H1 1_555 1_555
H2 N1 1_555 1_555
N2 N1 1_555 1_555
C1 N1 1_555 1_555
H3 C1 1_555 1_555
H4 C1 1_555 1_555
C2 C1 1_555 1_555
C3 C2 1_555 1_555
H5 C3 1_555 1_555
C4 C3 1_555 1_555
H6 C4 1_555 1_555
C5 C4 1_555 1_555
H7 C5 1_555 1_555
C6 C5 1_555 1_555
H8 C6 1_555 1_555
C7 C2 1_555 1_555
H9 C7 1_555 1_555
C8 N2 1_555 1_555
H10 C8 1_555 1_555
C9 C8 1_555 1_555
C10 C9 1_555 1_555
H11 C10 1_555 1_555
C11 C10 1_555 1_555
H12 C11 1_555 1_555
C12 C11 1_555 1_555
H13 C12 1_555 1_555
C13 C12 1_555 1_555
H14 C13 1_555 1_555
C14 C9 1_555 1_555
H15 C14 1_555 1_555
N3 H16 1_555 1_555
H17 N3 1_555 1_555
N4 N3 1_555 1_555
C15 N3 1_555 1_555
H18 C15 1_555 1_555
H19 C15 1_555 1_555
C16 C15 1_555 1_555
C17 C16 1_555 1_555
H20 C17 1_555 1_555
C18 C17 1_555 1_555
H21 C18 1_555 1_555
C19 C18 1_555 1_555
H22 C19 1_555 1_555
C20 C19 1_555 1_555
H23 C20 1_555 1_555
C21 C16 1_555 1_555
H24 C21 1_555 1_555
C22 N4 1_555 1_555
H25 C22 1_555 1_555
C23 C22 1_555 1_555
C24 C23 1_555 1_555
H26 C24 1_555 1_555
C25 C24 1_555 1_555
H27 C25 1_555 1_555
C26 C25 1_555 1_555
H28 C26 1_555 1_555
C27 C26 1_555 1_555
H29 C27 1_555 1_555
C28 C23 1_555 1_555
H30 C28 1_555 1_555
C6 C7 1_555 1_555
C13 C14 1_555 1_555
C20 C21 1_555 1_555
C27 C28 1_555 1_555

#END
