
#######################################################################
#
#                 Cambridge Crystallographic Data Centre
#                                CCDC 
#
#######################################################################
#
# If this CIF has been generated from an entry in the Cambridge 
# Structural Database, then it will include bibliographic, chemical, 
# crystal, experimental, refinement or atomic coordinate data resulting 
# from the CCDC's data processing and validation procedures.
#
#######################################################################

data_ZOKZAC
_chemical_formula_moiety         'C32 H64 Cl4 Mg5 N4 O6'
_chemical_name_systematic        
(\m-oxo)-bis(\m-1-(propan-2-yl)-2-(prop-1-en-2-yl)hydrazine-1,2-diyl)-tris(\m-chloro)-pentakis(tetrahydrofuran)-chloro-penta-magnesium
_symmetry_cell_setting           monoclinic
_symmetry_space_group_name_H-M   'P 21/n'
_symmetry_Int_Tables_number      14
_space_group_name_Hall           '-P 2yn'
loop_
_symmetry_equiv_pos_site_id
_symmetry_equiv_pos_as_xyz
1 x,y,z
2 1/2-x,1/2+y,1/2-z
3 -x,-y,-z
4 1/2+x,1/2-y,1/2+z
_cell_length_a                   11.483(2)
_cell_length_b                   18.8942(15)
_cell_length_c                   21.2253(17)
_cell_angle_alpha                90
_cell_angle_beta                 100.705(9)
_cell_angle_gamma                90
_cell_volume                     4524.94
_exptl_crystal_colour            colorless
_exptl_crystal_description       prism
_cell_formula_units_Z            4
loop_
_atom_site_label
_atom_site_type_symbol
_atom_site_fract_x
_atom_site_fract_y
_atom_site_fract_z
Mg1 Mg 0.12505(5) 0.30008(3) 0.41790(3)
Mg2 Mg 0.06684(5) 0.25020(3) 0.54695(3)
Mg3 Mg 0.30726(5) 0.32368(3) 0.54465(3)
Mg4 Mg 0.29179(5) 0.17554(3) 0.47820(3)
Mg5 Mg 0.47432(5) 0.22016(3) 0.40011(3)
Cl1 Cl -0.06717(4) 0.25112(2) 0.44002(2)
Cl2 Cl 0.17630(4) 0.41333(2) 0.478854(19)
Cl3 Cl 0.21995(4) 0.28965(2) 0.642132(19)
Cl4 Cl 0.24574(5) 0.06481(2) 0.51685(2)
O1 O 0.19540(10) 0.25326(6) 0.49973(5)
O2 O 0.01631(11) 0.35463(6) 0.34271(6)
O3 O 0.01341(11) 0.16093(6) 0.58378(6)
O4 O -0.05376(12) 0.31438(7) 0.58060(6)
O5 O 0.39557(10) 0.40287(6) 0.60355(6)
O6 O 0.59300(11) 0.15134(6) 0.36466(6)
N1 N 0.24531(12) 0.26376(7) 0.36388(6)
N2 N 0.28927(12) 0.19039(7) 0.37938(6)
N3 N 0.45470(12) 0.29129(7) 0.50869(7)
N4 N 0.46639(12) 0.21321(7) 0.50164(6)
C1 C 0.30596(14) 0.29696(8) 0.32402(7)
C2 C 0.39598(16) 0.26773(10) 0.29601(8)
H1 H 0.4355(19) 0.2984(11) 0.2699(10)
H2 H 0.3975(19) 0.2172(12) 0.2863(10)
C3 C 0.27704(17) 0.37518(9) 0.31230(9)
H3 H 0.2078 0.3800 0.2778
H4 H 0.3450 0.3993 0.3000
H5 H 0.2598 0.3966 0.3516
C4 C 0.22799(14) 0.14045(8) 0.33085(8)
H6 H 0.2265 0.1612 0.2874
C5 C 0.09960(15) 0.12660(9) 0.33889(9)
H7 H 0.0997 0.1041 0.3805
H8 H 0.0608 0.0953 0.3045
H9 H 0.0565 0.1716 0.3367
C6 C 0.29930(16) 0.07138(9) 0.33604(9)
H10 H 0.3755 0.0799 0.3229
H11 H 0.2548 0.0355 0.3081
H12 H 0.3132 0.0546 0.3805
C7 C 0.53055(15) 0.32819(9) 0.47965(8)
C8 C 0.61913(17) 0.30011(10) 0.45006(9)
H13 H 0.655(2) 0.2562(12) 0.4649(11)
H14 H 0.664(2) 0.3321(12) 0.4304(11)
C9 C 0.50926(16) 0.40785(9) 0.47527(9)
H15 H 0.4248 0.4175 0.4733
H16 H 0.5338 0.4262 0.4366
H17 H 0.5555 0.4310 0.5132
C10 C 0.55564(16) 0.18442(10) 0.55459(8)
H18 H 0.6303 0.2126 0.5582
C11 C 0.5135(2) 0.18658(12) 0.61916(9)
H19 H 0.4935 0.2354 0.6287
H20 H 0.5767 0.1692 0.6531
H21 H 0.4432 0.1565 0.6169
C12 C 0.5812(2) 0.10768(11) 0.53935(11)
H22 H 0.5067 0.0811 0.5301
H23 H 0.6336 0.0864 0.5762
H24 H 0.6198 0.1062 0.5019
C13 C -0.03505(17) 0.31525(10) 0.28512(9)
H25 H -0.0746 0.2717 0.2963
H26 H 0.0267 0.3021 0.2603
C14 C -0.1237(2) 0.36541(13) 0.24738(10)
H27 H -0.1864 0.3396 0.2179
H28 H -0.0848 0.3995 0.2225
C15 C -0.1732(2) 0.40230(13) 0.30058(11)
H29 H -0.2095 0.4484 0.2859
H30 H -0.2329 0.3725 0.3161
C16 C -0.06357(19) 0.41214(11) 0.35219(9)
H31 H -0.0263 0.4586 0.3475
H32 H -0.0842 0.4093 0.3954
C17 C -0.0940(2) 0.12227(12) 0.55644(13)
H33 H -0.0850 0.0984 0.5161
H34 H -0.1631 0.1545 0.5475
C18 C -0.1091(2) 0.06780(14) 0.60821(14)
H35 H -0.1432 0.0894 0.6432
H36 H -0.1585 0.0271 0.5900
C19 C 0.0206(3) 0.04674(14) 0.63052(15)
H37 H 0.0493 0.0164 0.5986
H38 H 0.0328 0.0221 0.6724
C20 C 0.08085(19) 0.11942(11) 0.63594(10)
H39 H 0.0779 0.1415 0.6779
H40 H 0.1647 0.1152 0.6311
C21 C -0.10112(18) 0.38219(10) 0.55371(9)
H41 H -0.1440 0.3761 0.5091
H42 H -0.0365 0.4170 0.5540
C22 C -0.1844(2) 0.40622(11) 0.59664(10)
H43 H -0.2653 0.3875 0.5817
H44 H -0.1878 0.4585 0.5986
C23 C -0.1294(2) 0.37520(13) 0.66101(11)
H45 H -0.1887 0.3703 0.6891
H46 H -0.0627 0.4047 0.6829
C24 C -0.0864(2) 0.30349(12) 0.64297(9)
H47 H -0.0171 0.2877 0.6749
H48 H -0.1500 0.2676 0.6402
C25 C 0.33913(16) 0.46384(9) 0.62757(9)
H49 H 0.2708 0.4487 0.6466
H50 H 0.3109 0.4977 0.5924
C26 C 0.43502(17) 0.49801(10) 0.67870(9)
H51 H 0.4397 0.5496 0.6715
H52 H 0.4186 0.4897 0.7223
C27 C 0.55007(17) 0.46105(10) 0.67002(9)
H53 H 0.5872 0.4853 0.6374
H54 H 0.6077 0.4587 0.7109
C28 C 0.50551(16) 0.38815(9) 0.64765(8)
H55 H 0.5627 0.3635 0.6257
H56 H 0.4912 0.3588 0.6841
C29 C 0.66954(16) 0.18224(10) 0.32353(9)
H57 H 0.7174 0.2214 0.3460
H58 H 0.6213 0.2008 0.2834
C30 C 0.74950(19) 0.12231(11) 0.30900(10)
H59 H 0.8281 0.1244 0.3375
H60 H 0.7602 0.1239 0.2638
C31 C 0.6801(2) 0.05501(13) 0.32236(13)
H61 H 0.6170 0.0431 0.2854
H62 H 0.7335 0.0139 0.3329
C32 C 0.6296(2) 0.07787(10) 0.37855(12)
H63 H 0.5609 0.0481 0.3834
H64 H 0.6898 0.0749 0.4184
H65? H -0.1119 0.1260 0.5091
H66? H -0.1632 0.1390 0.5741
C33? C -0.0572(13) 0.0441(5) 0.5792(5)
H67? H -0.1239 0.0100 0.5718
H68? H 0.0114 0.0256 0.5621
C34? C -0.0253(12) 0.0704(7) 0.6485(5)
H69? H 0.0013 0.0318 0.6795
H70? H -0.0902 0.0975 0.6620
H71? H 0.1136 0.1489 0.6736
H72? H 0.1452 0.0919 0.6222
H73? H 0.7220 0.1036 0.2652
H74? H 0.8324 0.1387 0.3129
C35? C 0.7398(10) 0.0689(6) 0.3569(6)
H75? H 0.7432 0.0211 0.3381
H76? H 0.8067 0.0735 0.3935
H77? H 0.6400 0.0684 0.4251
H78? H 0.5691 0.0449 0.3557
loop_
_geom_bond_atom_site_label_1
_geom_bond_atom_site_label_2
_geom_bond_site_symmetry_1
_geom_bond_site_symmetry_2
Mg1 Cl1 1_555 1_555
Mg2 Cl1 1_555 1_555
Mg3 Cl2 1_555 1_555
Mg4 Cl4 1_555 1_555
Mg5 O6 1_555 1_555
Cl2 Mg1 1_555 1_555
Cl3 Mg2 1_555 1_555
O1 Mg1 1_555 1_555
O2 Mg1 1_555 1_555
O3 Mg2 1_555 1_555
O4 Mg2 1_555 1_555
O5 Mg3 1_555 1_555
O6 C29 1_555 1_555
N1 Mg1 1_555 1_555
N2 Mg4 1_555 1_555
N3 Mg3 1_555 1_555
N4 Mg4 1_555 1_555
C1 N1 1_555 1_555
C2 Mg5 1_555 1_555
H1 C2 1_555 1_555
H2 C2 1_555 1_555
C3 C1 1_555 1_555
H3 C3 1_555 1_555
H4 C3 1_555 1_555
H5 C3 1_555 1_555
C4 N2 1_555 1_555
H6 C4 1_555 1_555
C5 C4 1_555 1_555
H7 C5 1_555 1_555
H8 C5 1_555 1_555
H9 C5 1_555 1_555
C6 C4 1_555 1_555
H10 C6 1_555 1_555
H11 C6 1_555 1_555
H12 C6 1_555 1_555
C7 N3 1_555 1_555
C8 Mg5 1_555 1_555
H13 C8 1_555 1_555
H14 C8 1_555 1_555
C9 C7 1_555 1_555
H15 C9 1_555 1_555
H16 C9 1_555 1_555
H17 C9 1_555 1_555
C10 N4 1_555 1_555
H18 C10 1_555 1_555
C11 C10 1_555 1_555
H19 C11 1_555 1_555
H20 C11 1_555 1_555
H21 C11 1_555 1_555
C12 C10 1_555 1_555
H22 C12 1_555 1_555
H23 C12 1_555 1_555
H24 C12 1_555 1_555
C13 O2 1_555 1_555
H25 C13 1_555 1_555
H26 C13 1_555 1_555
C14 C13 1_555 1_555
H27 C14 1_555 1_555
H28 C14 1_555 1_555
C15 C14 1_555 1_555
H29 C15 1_555 1_555
H30 C15 1_555 1_555
C16 O2 1_555 1_555
H31 C16 1_555 1_555
H32 C16 1_555 1_555
C17 O3 1_555 1_555
H33 C17 1_555 1_555
H34 C17 1_555 1_555
C18 C17 1_555 1_555
H35 C18 1_555 1_555
H36 C18 1_555 1_555
C19 C18 1_555 1_555
H37 C19 1_555 1_555
H38 C19 1_555 1_555
C20 O3 1_555 1_555
H39 C20 1_555 1_555
H40 C20 1_555 1_555
C21 O4 1_555 1_555
H41 C21 1_555 1_555
H42 C21 1_555 1_555
C22 C21 1_555 1_555
H43 C22 1_555 1_555
H44 C22 1_555 1_555
C23 C22 1_555 1_555
H45 C23 1_555 1_555
H46 C23 1_555 1_555
C24 O4 1_555 1_555
H47 C24 1_555 1_555
H48 C24 1_555 1_555
C25 O5 1_555 1_555
H49 C25 1_555 1_555
H50 C25 1_555 1_555
C26 C25 1_555 1_555
H51 C26 1_555 1_555
H52 C26 1_555 1_555
C27 C26 1_555 1_555
H53 C27 1_555 1_555
H54 C27 1_555 1_555
C28 O5 1_555 1_555
H55 C28 1_555 1_555
H56 C28 1_555 1_555
C29 H57 1_555 1_555
H58 C29 1_555 1_555
C30 C29 1_555 1_555
H59 C30 1_555 1_555
H60 C30 1_555 1_555
C31 C30 1_555 1_555
H61 C31 1_555 1_555
H62 C31 1_555 1_555
C32 O6 1_555 1_555
H63 C32 1_555 1_555
H64 C32 1_555 1_555
Mg2 O1 1_555 1_555
Mg3 Cl3 1_555 1_555
Mg3 O1 1_555 1_555
Mg4 O1 1_555 1_555
Mg5 N2 1_555 1_555
Mg5 N4 1_555 1_555
N1 N2 1_555 1_555
N3 N4 1_555 1_555
C1 C2 1_555 1_555
C7 C8 1_555 1_555
C15 C16 1_555 1_555
C19 C20 1_555 1_555
C23 C24 1_555 1_555
C27 C28 1_555 1_555
C31 C32 1_555 1_555

#END
