
#######################################################################
#
#                 Cambridge Crystallographic Data Centre
#                                CCDC 
#
#######################################################################
#
# If this CIF has been generated from an entry in the Cambridge 
# Structural Database, then it will include bibliographic, chemical, 
# crystal, experimental, refinement or atomic coordinate data resulting 
# from the CCDC's data processing and validation procedures.
#
#######################################################################

data_ZOLJOZ
_chemical_name_common            'Triquat silicate hydrate clathrate'
_chemical_formula_moiety         '2(C18 H30 N3 3+),H2 O20 Si8 6-,41(H2 O1)'
_chemical_name_systematic        
"2,3,4,5,6,7,8,9-Octahydro-2,2,5,5,8,8-hexamethyl-1H-benzo(1,2-c:3,4-c':5,6-c'')tripyrrolium silicate hydrate clathrate"
_symmetry_cell_setting           triclinic
_symmetry_space_group_name_H-M   'P -1'
_symmetry_Int_Tables_number      2
_space_group_name_Hall           '-P 1'
loop_
_symmetry_equiv_pos_site_id
_symmetry_equiv_pos_as_xyz
1 x,y,z
2 -x,-y,-z
_cell_length_a                   12.910(6)
_cell_length_b                   13.699(6)
_cell_length_c                   13.945(6)
_cell_angle_alpha                100.76(4)
_cell_angle_beta                 114.77(4)
_cell_angle_gamma                94.55(5)
_cell_volume                     2165.37
_exptl_crystal_colour            colorless
_cell_formula_units_Z            1
_chemical_properties_physical    Air-sensitive
loop_
_atom_site_label
_atom_site_type_symbol
_atom_site_fract_x
_atom_site_fract_y
_atom_site_fract_z
Si1 Si 0.6988(1) 0.1420(1) 0.6147(1)
Si2 Si 0.6288(1) -0.0104(1) 0.3935(1)
Si3 Si 0.6245(1) -0.0353(1) 0.6998(1)
Si4 Si 0.5573(1) -0.1882(1) 0.4762(1)
O1 O 0.6883(2) 0.0649(2) 0.6871(2)
O2 O 0.6992(2) 0.0752(2) 0.5048(2)
O3 O 0.4934(2) -0.0177(2) 0.6803(2)
O4 O 0.6117(2) -0.1306(2) 0.6047(2)
O5 O 0.5821(2) 0.1916(2) 0.5761(2)
O6 O 0.6107(2) -0.1186(2) 0.4186(2)
O7 O 0.8107(2) 0.2256(2) 0.6805(2)
O8 O 0.7070(2) -0.0180(2) 0.3275(2)
O9 O 0.6932(2) -0.0540(2) 0.8167(2)
O10 O 0.5869(2) -0.2981(2) 0.4595(2)
Si2A Si 0.3712(1) 0.0104(1) 0.6065(1)
O2A O 0.3008(2) -0.0752(2) 0.4952(2)
Si1A Si 0.3012(1) -0.1420(1) 0.3853(1)
O1A O 0.3117(2) -0.0649(2) 0.3129(2)
Si3A Si 0.3755(1) 0.0353(1) 0.3002(1)
O3A O 0.5066(2) 0.0177(2) 0.3197(2)
Si4A Si 0.4427(1) 0.1882(1) 0.5238(1)
O4A O 0.3883(2) 0.1306(2) 0.3953(2)
O9A O 0.3068(2) 0.0540(2) 0.1833(2)
O6A O 0.3893(2) 0.1186(2) 0.5814(2)
O8A O 0.2930(2) 0.0180(2) 0.6725(2)
O10A O 0.4131(2) 0.2981(2) 0.5405(2)
O5A O 0.4179(2) -0.1916(2) 0.4239(2)
O7A O 0.1893(2) -0.2256(2) 0.3195(2)
N1 N 0.6427(2) 0.2492(2) -0.0583(2)
N2 N 0.6730(2) 0.3529(2) 0.3777(2)
N3 N 1.0093(2) 0.1153(2) 0.3002(2)
C1 C 0.7853(3) 0.2296(3) 0.1076(3)
C2 C 0.7221(3) 0.3003(3) 0.1326(3)
C3 C 0.7293(3) 0.3262(3) 0.2363(3)
C4 C 0.8011(3) 0.2817(3) 0.3170(3)
C5 C 0.8656(3) 0.2136(3) 0.2931(3)
C6 C 0.8578(3) 0.1869(3) 0.1879(3)
C7 C 0.5453(3) 0.1659(3) -0.0837(3)
C8 C 0.6223(3) 0.2822(3) -0.1607(3)
C9 C 0.6655(3) 0.4309(3) 0.4649(3)
C10 C 0.5762(3) 0.2649(3) 0.3375(3)
C11 C 1.1153(3) 0.1924(3) 0.3323(3)
C12 C 1.0467(3) 0.0171(3) 0.3225(3)
C13 C 0.7583(3) 0.2116(3) -0.0107(3)
C14 C 0.6499(3) 0.3347(3) 0.0324(3)
C15 C 0.6679(3) 0.3950(3) 0.2825(3)
C16 C 0.7888(3) 0.3163(3) 0.4193(3)
C17 C 0.9431(3) 0.1537(3) 0.3637(3)
C18 C 0.9270(3) 0.1053(3) 0.1809(3)
O11 O 0.3694(2) 0.9639(2) 0.8600(2)
O12 O 0.4103(3) 0.0798(2) 0.0622(2)
O13 O 0.3403(3) 0.3813(2) 0.3690(2)
O14 O 0.2611(2) 0.2406(2) 0.1734(2)
O15 O 0.4235(2) 0.5443(2) 0.3160(2)
O16 O 0.0433(3) 0.2872(3) 0.0964(3)
O17 O 0.0799(2) 0.9667(2) 0.0796(3)
O18 O 0.0234(2) 0.7922(2) 0.1288(2)
O19 O 0.2069(2) 0.5840(2) 0.2492(2)
O20 O 0.8458(3) 0.8372(2) 0.3638(3)
O21 O 0.6322(3) 0.6121(3) 0.1573(3)
O22 O 0.8183(4) -0.1766(7) 0.1484(4)
O23 O 0.1135(5) 0.5478(8) 0.0248(4)
O24 O 0.8409(7) 0.5525(4) 0.1522(8)
O25 O 0.0470(4) 0.4395(3) 0.2661(3)
O26 O 0.0754(4) 0.4242(3) 0.4786(4)
O27 O 0.0148(3) 0.7230(3) 0.3656(4)
O28 O 0.4330(3) 0.4852(2) 0.1152(2)
O29 O 0.3689(2) 0.2769(2) 0.0474(2)
O30 O 0.7401(2) 0.6658(2) 0.3844(2)
O31? O 0.8292(11) -0.2401(17) 0.1368(10)
O32? O 0.1141(11) 0.4748(17) 0.0325(10)
O33? O 0.8152(17) 0.5875(20) 0.0889(19)
O34? O 0.0944(14) 0.5370(14) 0.3290(13)
O35? O 0.8897(18) 0.5491(16) 0.2732(18)
loop_
_geom_bond_atom_site_label_1
_geom_bond_atom_site_label_2
_geom_bond_site_symmetry_1
_geom_bond_site_symmetry_2
Si1 O1 1_555 1_555
Si2 O2 1_555 1_555
Si3 O1 1_555 1_555
Si4 O4 1_555 1_555
O2 Si1 1_555 1_555
O3 Si3 1_555 1_555
O4 Si3 1_555 1_555
O5 Si1 1_555 1_555
O6 Si2 1_555 1_555
O7 Si1 1_555 1_555
O8 Si2 1_555 1_555
O9 Si3 1_555 1_555
O10 Si4 1_555 1_555
N1 C7 1_555 1_555
N2 C9 1_555 1_555
N3 C11 1_555 1_555
C1 C2 1_555 1_555
C2 C3 1_555 1_555
C3 C4 1_555 1_555
C4 C5 1_555 1_555
C5 C6 1_555 1_555
C6 C1 1_555 1_555
C8 N1 1_555 1_555
C10 N2 1_555 1_555
C12 N3 1_555 1_555
C13 N1 1_555 1_555
C14 N1 1_555 1_555
C15 N2 1_555 1_555
C16 N2 1_555 1_555
C17 N3 1_555 1_555
C18 N3 1_555 1_555
Si2A O3 1_555 1_555
O2A Si2A 1_555 1_555
Si1A O2A 1_555 1_555
O1A Si1A 1_555 1_555
Si3A O1A 1_555 1_555
O3A Si2 1_555 1_555
Si4A O5 1_555 1_555
O4A Si3A 1_555 1_555
O9A Si3A 1_555 1_555
O6A Si2A 1_555 1_555
O8A Si2A 1_555 1_555
O10A Si4A 1_555 1_555
O5A Si4 1_555 1_555
O7A Si1A 1_555 1_555
Si4 O6 1_555 1_555
C1 C13 1_555 1_555
C2 C14 1_555 1_555
C3 C15 1_555 1_555
C4 C16 1_555 1_555
C5 C17 1_555 1_555
C6 C18 1_555 1_555
Si1A O5A 1_555 1_555
Si3A O3A 1_555 1_555
Si4A O4A 1_555 1_555
Si4A O6A 1_555 1_555

#END
