
#######################################################################
#
#                 Cambridge Crystallographic Data Centre
#                                CCDC 
#
#######################################################################
#
# If this CIF has been generated from an entry in the Cambridge 
# Structural Database, then it will include bibliographic, chemical, 
# crystal, experimental, refinement or atomic coordinate data resulting 
# from the CCDC's data processing and validation procedures.
#
#######################################################################

data_ZOLMOC
_chemical_formula_moiety         'C36 H28 N4 P4 S4,2(C6 H6)'
_chemical_name_systematic        
'1,3:5,7-Dibenzoperhydro-2,4,6,8-tetraphenyl-2,4,6,8-tetraphospha-1,3,5,7-tetrazaocine-2,4,6,8-tetrathione benzene solvate'
_symmetry_cell_setting           monoclinic
_symmetry_space_group_name_H-M   'C 2/c'
_symmetry_Int_Tables_number      15
_space_group_name_Hall           '-C 2yn'
loop_
_symmetry_equiv_pos_site_id
_symmetry_equiv_pos_as_xyz
1 x,y,z
2 -x,y,1/2-z
3 1/2+x,1/2+y,z
4 1/2-x,1/2+y,1/2-z
5 -x,-y,-z
6 x,-y,1/2+z
7 1/2-x,1/2-y,-z
8 1/2+x,1/2-y,1/2+z
_cell_length_a                   26.674(5)
_cell_length_b                   9.976(2)
_cell_length_c                   19.732(5)
_cell_angle_alpha                90
_cell_angle_beta                 120.470(10)
_cell_angle_gamma                90
_cell_volume                     4525.54
_exptl_crystal_colour            colorless
_cell_formula_units_Z            4
loop_
_atom_site_label
_atom_site_type_symbol
_atom_site_fract_x
_atom_site_fract_y
_atom_site_fract_z
P1 P 0.0737(1) -0.0603(1) 0.3524(1)
P2 P -0.0523(1) 0.0203(1) 0.3113(1)
S1 S 0.0626(1) -0.2464(1) 0.3363(1)
S2 S -0.0838(1) 0.1445(1) 0.3551(1)
N1 N 0.0201(1) 0.0444(3) 0.3467(2)
N2 N 0.0869(1) 0.0354(3) 0.2899(2)
C1 C 0.1346(2) -0.0175(4) 0.4478(2)
C2 C 0.1277(2) 0.0394(5) 0.5062(3)
C3 C 0.1748(2) 0.0622(5) 0.5803(3)
C4 C 0.2290(3) 0.0279(6) 0.5962(3)
C5 C 0.2369(2) -0.0306(7) 0.5396(3)
C6 C 0.1898(2) -0.0539(6) 0.4648(3)
C7 C -0.0606(2) -0.1486(5) 0.3353(3)
C8 C -0.0220(2) -0.1961(5) 0.4101(3)
C9 C -0.0306(3) -0.3203(6) 0.4328(4)
C10 C -0.0783(3) -0.3952(6) 0.3821(5)
C11 C -0.1178(3) -0.3461(6) 0.3088(4)
C12 C -0.1092(2) -0.2225(5) 0.2854(3)
C13 C 0.0422(2) 0.1760(4) 0.3424(2)
C14 C 0.0805(2) 0.1701(4) 0.3138(2)
C15 C 0.1100(2) 0.2819(5) 0.3123(3)
C16 C 0.0984(2) 0.4028(5) 0.3350(3)
C17 C 0.0592(2) 0.4100(5) 0.3618(3)
C18 C 0.0324(2) 0.2969(4) 0.3675(3)
H1 H 0.0893 0.0648 0.4940
H2 H 0.1590 0.1005 0.6205
H3 H 0.2620 0.0468 0.6471
H4 H 0.2753 -0.0577 0.5525
H5 H 0.1954 -0.0933 0.4248
H6 H 0.0105 -0.1419 0.4459
H7 H -0.0039 -0.3544 0.4843
H8 H -0.0829 -0.4836 0.3974
H9 H -0.1517 -0.3986 0.2754
H10 H -0.1369 -0.1881 0.2344
H11 H 0.1383 0.2755 0.2960
H12 H 0.1172 0.4830 0.3324
H13 H 0.0507 0.4954 0.3761
H14 H 0.0075 0.3011 0.3893
N2A N -0.0869(1) 0.0354(3) 0.2101(2)
P1A P -0.0737(1) -0.0603(1) 0.1476(1)
S1A S -0.0626(1) -0.2464(1) 0.1637(1)
N1A N -0.0201(1) 0.0444(3) 0.1533(2)
P2A P 0.0523(1) 0.0203(1) 0.1887(1)
S2A S 0.0838(1) 0.1445(1) 0.1449(1)
C7A C 0.0606(2) -0.1486(5) 0.1647(3)
C8A C 0.0220(2) -0.1961(5) 0.0899(3)
C9A C 0.0306(3) -0.3203(6) 0.0672(4)
C10A C 0.0783(3) -0.3952(6) 0.1179(5)
C11A C 0.1178(3) -0.3461(6) 0.1912(4)
C12A C 0.1092(2) -0.2225(5) 0.2146(3)
H10A H 0.1369 -0.1881 0.2656
H9A H 0.1517 -0.3986 0.2246
H8A H 0.0829 -0.4836 0.1026
H7A H 0.0039 -0.3544 0.0157
H6A H -0.0105 -0.1419 0.0541
C13A C -0.0422(2) 0.1760(4) 0.1576(2)
C14A C -0.0805(2) 0.1701(4) 0.1862(2)
C15A C -0.1100(2) 0.2819(5) 0.1877(3)
C16A C -0.0984(2) 0.4028(5) 0.1650(3)
C17A C -0.0592(2) 0.4100(5) 0.1382(3)
C18A C -0.0324(2) 0.2969(4) 0.1325(3)
H14A H -0.0075 0.3011 0.1107
H13A H -0.0507 0.4954 0.1239
H12A H -0.1172 0.4830 0.1676
H11A H -0.1383 0.2755 0.2040
C1A C -0.1346(2) -0.0175(4) 0.0522(2)
C2A C -0.1277(2) 0.0394(5) -0.0062(3)
C3A C -0.1748(2) 0.0622(5) -0.0803(3)
C4A C -0.2290(3) 0.0279(6) -0.0962(3)
C5A C -0.2369(2) -0.0306(7) -0.0396(3)
C6A C -0.1898(2) -0.0539(6) 0.0352(3)
H5A H -0.1954 -0.0933 0.0752
H4A H -0.2753 -0.0577 -0.0525
H3A H -0.2620 0.0468 -0.1471
H2A H -0.1590 0.1005 -0.1205
H1A H -0.0893 0.0648 0.0060
C19 C 0.2348(3) 0.4178(7) 0.6377(4)
C20 C 0.1904(3) 0.4507(7) 0.5663(4)
C21 C 0.1671(3) 0.5737(9) 0.5511(4)
C22 C 0.1879(3) 0.6679(7) 0.6103(5)
C23 C 0.2333(4) 0.6325(8) 0.6834(5)
C24 C 0.2564(3) 0.5068(8) 0.6960(4)
H15 H 0.2516 0.3298 0.6469
H16 H 0.1746 0.3847 0.5253
H17 H 0.1359 0.5964 0.4995
H18 H 0.1718 0.7567 0.6010
H19 H 0.2483 0.6959 0.7258
H20 H 0.2882 0.4835 0.7470
loop_
_geom_bond_atom_site_label_1
_geom_bond_atom_site_label_2
_geom_bond_site_symmetry_1
_geom_bond_site_symmetry_2
P1 S1 1_555 1_555
P2 S2 1_555 1_555
N1 P1 1_555 1_555
N2 P1 1_555 1_555
C1 P1 1_555 1_555
C2 C1 1_555 1_555
C3 C2 1_555 1_555
C4 C3 1_555 1_555
C5 C4 1_555 1_555
C6 C1 1_555 1_555
C7 P2 1_555 1_555
C8 C7 1_555 1_555
C9 C8 1_555 1_555
C10 C9 1_555 1_555
C11 C10 1_555 1_555
C12 C7 1_555 1_555
C13 N1 1_555 1_555
C14 N2 1_555 1_555
C15 C14 1_555 1_555
C16 C15 1_555 1_555
C17 C16 1_555 1_555
C18 C13 1_555 1_555
C19 C20 1_555 1_555
C20 C21 1_555 1_555
C21 C22 1_555 1_555
C22 C23 1_555 1_555
C23 C24 1_555 1_555
C24 C19 1_555 1_555
H1 C2 1_555 1_555
H2 C3 1_555 1_555
H3 C4 1_555 1_555
H4 C5 1_555 1_555
H5 C6 1_555 1_555
H6 C8 1_555 1_555
H7 C9 1_555 1_555
H8 C10 1_555 1_555
H9 C11 1_555 1_555
H10 C12 1_555 1_555
H11 C15 1_555 1_555
H12 C16 1_555 1_555
H13 C17 1_555 1_555
H14 C18 1_555 1_555
H15 C19 1_555 1_555
H16 C20 1_555 1_555
H17 C21 1_555 1_555
H18 C22 1_555 1_555
H19 C23 1_555 1_555
H20 C24 1_555 1_555
N2A P2 1_555 1_555
P1A N2A 1_555 1_555
S1A P1A 1_555 1_555
N1A P1A 1_555 1_555
P2A N2 1_555 1_555
S2A P2A 1_555 1_555
C7A P2A 1_555 1_555
C8A C7A 1_555 1_555
C9A C8A 1_555 1_555
C10A C9A 1_555 1_555
C11A C10A 1_555 1_555
C12A C7A 1_555 1_555
H10A C12A 1_555 1_555
H9A C11A 1_555 1_555
H8A C10A 1_555 1_555
H7A C9A 1_555 1_555
H6A C8A 1_555 1_555
C13A N1A 1_555 1_555
C14A N2A 1_555 1_555
C15A C14A 1_555 1_555
C16A C15A 1_555 1_555
C17A C16A 1_555 1_555
C18A C13A 1_555 1_555
H14A C18A 1_555 1_555
H13A C17A 1_555 1_555
H12A C16A 1_555 1_555
H11A C15A 1_555 1_555
C1A P1A 1_555 1_555
C2A C1A 1_555 1_555
C3A C2A 1_555 1_555
C4A C3A 1_555 1_555
C5A C4A 1_555 1_555
C6A C1A 1_555 1_555
H5A C6A 1_555 1_555
H4A C5A 1_555 1_555
H3A C4A 1_555 1_555
H2A C3A 1_555 1_555
H1A C2A 1_555 1_555
P2 N1 1_555 1_555
C5 C6 1_555 1_555
C11 C12 1_555 1_555
C13 C14 1_555 1_555
C17 C18 1_555 1_555
N1A P2A 1_555 1_555
C11A C12A 1_555 1_555
C13A C14A 1_555 1_555
C17A C18A 1_555 1_555
C5A C6A 1_555 1_555

#END
