
#######################################################################
#
#                 Cambridge Crystallographic Data Centre
#                                CCDC 
#
#######################################################################
#
# If this CIF has been generated from an entry in the Cambridge 
# Structural Database, then it will include bibliographic, chemical, 
# crystal, experimental, refinement or atomic coordinate data resulting 
# from the CCDC's data processing and validation procedures.
#
#######################################################################

data_ZOLMIW
_chemical_formula_moiety         'C36 H28 N4 P4 S3,C6 H6'
_chemical_name_systematic        
'1,3:5,7-Dibenzoperhydro-2,4,6,8-tetraphenyl-2,4,6,8-tetraphospha-1,3,5,7-tetrazaocine-2,4,6-trithione benzene solvate'
_symmetry_cell_setting           triclinic
_symmetry_space_group_name_H-M   'P -1'
_symmetry_Int_Tables_number      2
_space_group_name_Hall           '-P 1'
loop_
_symmetry_equiv_pos_site_id
_symmetry_equiv_pos_as_xyz
1 x,y,z
2 -x,-y,-z
_cell_length_a                   11.209(2)
_cell_length_b                   13.449(2)
_cell_length_c                   13.872(3)
_cell_angle_alpha                92.373(14)
_cell_angle_beta                 96.703(14)
_cell_angle_gamma                105.718(13)
_cell_volume                     1993.4
_exptl_crystal_colour            colorless
_cell_formula_units_Z            2
loop_
_atom_site_label
_atom_site_type_symbol
_atom_site_fract_x
_atom_site_fract_y
_atom_site_fract_z
P1 P 0.6958(1) 0.8218(1) 0.3230(1)
P2 P 0.4403(1) 0.8006(1) 0.3937(1)
P3 P 0.4183(1) 0.6067(1) 0.2671(1)
P4 P 0.5809(1) 0.7108(1) 0.1208(1)
S1 S 0.7237(1) 0.7020(1) 0.3800(1)
S2 S 0.3426(1) 0.8899(1) 0.4319(1)
S3 S 0.5747(1) 0.7430(1) -0.0134(1)
N1 N 0.6575(3) 0.8183(2) 0.1976(2)
N2 N 0.5731(3) 0.8674(2) 0.3494(2)
N3 N 0.3573(3) 0.7046(2) 0.3100(2)
N4 N 0.4386(3) 0.6595(2) 0.1553(2)
C1 C 0.8295(4) 0.9336(3) 0.3481(3)
C2 C 0.9452(4) 0.9218(4) 0.3310(3)
C3 C 1.0507(5) 1.0032(4) 0.3530(4)
C4 C 1.0455(5) 1.0959(4) 0.3946(4)
C5 C 0.9330(5) 1.1074(4) 0.4123(4)
C6 C 0.8250(5) 1.0272(4) 0.3901(3)
C7 C 0.4970(4) 0.7414(3) 0.4958(3)
C8 C 0.4424(5) 0.6418(4) 0.5182(3)
C9 C 0.4802(6) 0.6065(4) 0.6047(4)
C10 C 0.5708(5) 0.6711(4) 0.6717(3)
C11 C 0.6276(5) 0.7708(4) 0.6510(3)
C12 C 0.5905(4) 0.8056(3) 0.5634(3)
C13 C 0.2711(4) 0.5070(3) 0.2289(3)
C14 C 0.2398(5) 0.4560(4) 0.1373(3)
C15 C 0.1397(5) 0.3699(4) 0.1175(4)
C16 C 0.0677(5) 0.3325(4) 0.1879(4)
C17 C 0.0969(5) 0.3817(4) 0.2798(4)
C18 C 0.1979(5) 0.4682(4) 0.2996(4)
C19 C 0.6681(4) 0.6192(3) 0.1462(3)
C20 C 0.7979(4) 0.6534(4) 0.1499(3)
C21 C 0.8676(5) 0.5847(4) 0.1626(4)
C22 C 0.8109(5) 0.4820(4) 0.1701(4)
C23 C 0.6824(5) 0.4468(4) 0.1633(4)
C24 C 0.6123(4) 0.5146(3) 0.1506(3)
C25 C 0.6096(4) 0.9079(3) 0.1882(3)
C26 C 0.5624(4) 0.9348(3) 0.2716(3)
C27 C 0.5238(5) 1.0233(3) 0.2791(3)
C28 C 0.5288(5) 1.0838(4) 0.2003(3)
C29 C 0.5745(5) 1.0570(3) 0.1170(3)
C30 C 0.6182(4) 0.9711(3) 0.1116(3)
C31 C 0.2948(4) 0.7361(3) 0.2220(3)
C32 C 0.3411(4) 0.7123(3) 0.1378(3)
C33 C 0.2898(4) 0.7344(4) 0.0481(3)
C34 C 0.1956(5) 0.7827(4) 0.0455(4)
C35 C 0.1498(5) 0.8053(4) 0.1280(4)
C36 C 0.1973(4) 0.7806(3) 0.2180(3)
H1 H 0.9495 0.8560 0.3043
H2 H 1.1300 0.9951 0.3401
H3 H 1.1206 1.1516 0.4106
H4 H 0.9305 1.1728 0.4413
H5 H 0.7464 1.0363 0.4035
H6 H 0.3789 0.5967 0.4716
H7 H 0.4414 0.5372 0.6203
H8 H 0.5971 0.6469 0.7325
H9 H 0.6915 0.8164 0.6970
H10 H 0.6292 0.8749 0.5478
H11 H 0.2889 0.4830 0.0871
H12 H 0.1197 0.3348 0.0536
H13 H -0.0024 0.2722 0.1739
H14 H 0.0457 0.3569 0.3294
H15 H 0.2200 0.5017 0.3641
H16 H 0.8361 0.7253 0.1425
H17 H 0.9570 0.6086 0.1672
H18 H 0.8601 0.4337 0.1771
H19 H 0.6435 0.3751 0.1712
H20 H 0.5228 0.4900 0.1430
H21 H 0.4957 1.0432 0.3378
H22 H 0.4961 1.1428 0.2018
H23 H 0.5787 1.1008 0.0638
H24 H 0.6533 0.9542 0.0554
H25 H 0.3202 0.7165 -0.0102
H26 H 0.1618 0.8006 -0.0160
H27 H 0.0849 0.8397 0.1227
H28 H 0.1635 0.7943 0.2759
C37 C 1.0214(11) 1.0490(7) 0.0916(5)
C38 C 0.9192(8) 0.9643(8) 0.0634(8)
C39 C 1.0997(8) 1.0840(5) 0.0293(9)
H29 H 1.0370 1.0839 0.1555
H30 H 0.8631 0.9405 0.1102
H31 H 1.1716 1.1426 0.0463
C39A C 0.9003(8) 0.9160(5) -0.0293(9)
C37A C 0.9786(11) 0.9510(7) -0.0916(5)
C38A C 1.0808(8) 1.0357(8) -0.0634(8)
H30A H 1.1369 1.0595 -0.1102
H29A H 0.9630 0.9161 -0.1555
H31A H 0.8284 0.8574 -0.0463
C40 C 0.8930(7) 0.4876(9) 0.4371(6)
C41 C 0.9865(10) 0.5805(7) 0.4478(6)
C42 C 0.9038(8) 0.4079(7) 0.4894(7)
H32 H 0.8188 0.4803 0.3920
H33 H 0.9748 0.6368 0.4111
H34 H 0.8377 0.3444 0.4830
C42A C 1.0962(8) 0.5921(7) 0.5106(7)
C40A C 1.1070(7) 0.5124(9) 0.5629(6)
C41A C 1.0135(10) 0.4195(7) 0.5522(6)
H33A H 1.0252 0.3632 0.5889
H32A H 1.1812 0.5197 0.6080
H34A H 1.1623 0.6556 0.5170
loop_
_geom_bond_atom_site_label_1
_geom_bond_atom_site_label_2
_geom_bond_site_symmetry_1
_geom_bond_site_symmetry_2
P1 S1 1_555 1_555
P2 S2 1_555 1_555
P3 N3 1_555 1_555
P4 S3 1_555 1_555
N1 P1 1_555 1_555
N2 P1 1_555 1_555
N3 P2 1_555 1_555
N4 P3 1_555 1_555
C1 P1 1_555 1_555
C2 C1 1_555 1_555
C3 C2 1_555 1_555
C4 C3 1_555 1_555
C5 C4 1_555 1_555
C6 C1 1_555 1_555
C7 P2 1_555 1_555
C8 C7 1_555 1_555
C9 C8 1_555 1_555
C10 C9 1_555 1_555
C11 C10 1_555 1_555
C12 C7 1_555 1_555
C13 P3 1_555 1_555
C14 C13 1_555 1_555
C15 C14 1_555 1_555
C16 C15 1_555 1_555
C17 C16 1_555 1_555
C18 C13 1_555 1_555
C19 P4 1_555 1_555
C20 C19 1_555 1_555
C21 C20 1_555 1_555
C22 C21 1_555 1_555
C23 C22 1_555 1_555
C24 C19 1_555 1_555
C25 N1 1_555 1_555
C26 N2 1_555 1_555
C27 C26 1_555 1_555
C28 C27 1_555 1_555
C29 C28 1_555 1_555
C30 C25 1_555 1_555
C31 N3 1_555 1_555
C32 N4 1_555 1_555
C33 C32 1_555 1_555
C34 C33 1_555 1_555
C35 C34 1_555 1_555
C36 C31 1_555 1_555
C37 C38 1_555 1_555
C38 H30 1_555 1_555
C39 C37 1_555 1_555
C40 C41 1_555 1_555
C41 H33 1_555 1_555
C42 C40 1_555 1_555
H1 C2 1_555 1_555
H2 C3 1_555 1_555
H3 C4 1_555 1_555
H4 C5 1_555 1_555
H5 C6 1_555 1_555
H6 C8 1_555 1_555
H7 C9 1_555 1_555
H8 C10 1_555 1_555
H9 C11 1_555 1_555
H10 C12 1_555 1_555
H11 C14 1_555 1_555
H12 C15 1_555 1_555
H13 C16 1_555 1_555
H14 C17 1_555 1_555
H15 C18 1_555 1_555
H16 C20 1_555 1_555
H17 C21 1_555 1_555
H18 C22 1_555 1_555
H19 C23 1_555 1_555
H20 C24 1_555 1_555
H21 C27 1_555 1_555
H22 C28 1_555 1_555
H23 C29 1_555 1_555
H24 C30 1_555 1_555
H25 C33 1_555 1_555
H26 C34 1_555 1_555
H27 C35 1_555 1_555
H28 C36 1_555 1_555
H29 C37 1_555 1_555
H31 C39 1_555 1_555
H32 C40 1_555 1_555
H34 C42 1_555 1_555
C39A C38 1_555 1_555
C37A C39A 1_555 1_555
C38A C39 1_555 1_555
H30A C38A 1_555 1_555
H29A C37A 1_555 1_555
H31A C39A 1_555 1_555
C42A C41 1_555 1_555
C40A C42A 1_555 1_555
C41A C42 1_555 1_555
H33A C41A 1_555 1_555
H32A C40A 1_555 1_555
H34A C42A 1_555 1_555
P2 N2 1_555 1_555
P4 N1 1_555 1_555
P4 N4 1_555 1_555
C5 C6 1_555 1_555
C11 C12 1_555 1_555
C17 C18 1_555 1_555
C23 C24 1_555 1_555
C25 C26 1_555 1_555
C29 C30 1_555 1_555
C31 C32 1_555 1_555
C35 C36 1_555 1_555
C37A C38A 1_555 1_555
C40A C41A 1_555 1_555

#END
