
#######################################################################
#
#                 Cambridge Crystallographic Data Centre
#                                CCDC 
#
#######################################################################
#
# If this CIF has been generated from an entry in the Cambridge 
# Structural Database, then it will include bibliographic, chemical, 
# crystal, experimental, refinement or atomic coordinate data resulting 
# from the CCDC's data processing and validation procedures.
#
#######################################################################

data_ZOMBOS
_chemical_formula_moiety         'C24 H22 N2 O4,0.5(C4 H8 O2)'
_chemical_name_systematic        
"Methyl-5,6-dimethyl-11-methoxycarbonylmethyl-6,11-dihydro-5H-cyclopenta(2,1-b:3,4-b')diindole-11-carboxylate ethyl acetate solvate"
_symmetry_cell_setting           orthorhombic
_symmetry_space_group_name_H-M   'F d d d'
_symmetry_Int_Tables_number      70
_space_group_name_Hall           '-F 2uv 2vw'
loop_
_symmetry_equiv_pos_site_id
_symmetry_equiv_pos_as_xyz
1 x,y,z
2 1/4-x,1/4-y,z
3 x,1/4-y,1/4-z
4 1/4-x,y,1/4-z
5 x,1/2+y,1/2+z
6 1/4-x,3/4-y,1/2+z
7 x,3/4-y,3/4-z
8 1/4-x,1/2+y,3/4-z
9 1/2+x,y,1/2+z
10 3/4-x,1/4-y,1/2+z
11 1/2+x,1/4-y,3/4-z
12 3/4-x,y,3/4-z
13 1/2+x,1/2+y,z
14 3/4-x,3/4-y,z
15 1/2+x,3/4-y,1/4-z
16 3/4-x,1/2+y,1/4-z
17 -x,-y,-z
18 3/4+x,3/4+y,-z
19 -x,3/4+y,3/4+z
20 3/4+x,-y,3/4+z
21 -x,1/2-y,1/2-z
22 3/4+x,1/4+y,1/2-z
23 -x,1/4+y,1/4+z
24 3/4+x,1/2-y,1/4+z
25 1/2-x,-y,1/2-z
26 1/4+x,3/4+y,1/2-z
27 1/2-x,3/4+y,1/4+z
28 1/4+x,-y,1/4+z
29 1/2-x,1/2-y,-z
30 1/4+x,1/4+y,-z
31 1/2-x,1/4+y,3/4+z
32 1/4+x,1/2-y,3/4+z
_cell_length_a                   18.043(1)
_cell_length_b                   30.5830(9)
_cell_length_c                   33.323(4)
_cell_angle_alpha                90
_cell_angle_beta                 90
_cell_angle_gamma                90
_cell_volume                     18387.9
_exptl_crystal_colour            colorless
_chemical_melting_point          '187-189 deg.C'
_cell_formula_units_Z            32
loop_
_atom_site_label
_atom_site_type_symbol
_atom_site_fract_x
_atom_site_fract_y
_atom_site_fract_z
N1 N 0.5116(1) 0.02440(7) 0.04930(6)
C3 C 0.4477(1) 0.04467(7) 0.03747(7)
C4 C 0.4229(1) 0.07766(7) 0.00932(7)
N2 N 0.4511(1) 0.10784(6) -0.01748(6)
C5 C 0.3905(1) 0.12953(8) -0.03375(7)
C6 C 0.3906(2) 0.16228(8) -0.06305(8)
C7 C 0.3233(2) 0.17882(9) -0.07472(8)
C8 C 0.2573(2) 0.16381(9) -0.05784(8)
C9 C 0.2564(2) 0.13134(8) -0.02884(7)
C10 C 0.3241(1) 0.11329(7) -0.01642(7)
C11 C 0.3472(1) 0.08004(7) 0.01071(7)
C12 C 0.3161(1) 0.04933(7) 0.04279(7)
C13 C 0.3867(1) 0.02683(7) 0.05620(7)
C14 C 0.4131(1) -0.00717(7) 0.08181(7)
C15 C 0.3814(2) -0.03759(8) 0.10830(8)
C16 C 0.4276(2) -0.0661(1) 0.1287(1)
C17 C 0.5046(2) -0.0654(1) 0.1236(1)
C18 C 0.5376(2) -0.03647(9) 0.09747(9)
C19 C 0.4915(1) -0.00742(8) 0.07692(8)
C20 C 0.5872(1) 0.0344(1) 0.0376(1)
C21 C 0.5281(2) 0.1179(9) -0.02624(9)
C22 C 0.2812(1) 0.07711(7) 0.07647(7)
C23 C 0.2495(1) 0.05018(8) 0.10999(7)
O3 O 0.2233(1) 0.01460(6) 0.10693(6)
O4 O 0.2536(2) 0.07104(7) 0.14465(6)
C24 C 0.2235(3) 0.0487(1) 0.1795(1)
C25 C 0.2605(1) 0.01830(8) 0.02354(7)
O5 O 0.19685(9) 0.03925(6) 0.01504(5)
O6 O 0.27191(9) -0.01913(6) 0.01511(6)
C26 C 0.1424(2) 0.0143(1) -0.00672(9)
C1 C 0.4566(3) 0.0711(1) 0.1744(1)
C2 C 0.5070(10) 0.0912(4) 0.1434(5)
O1 O 0.4653(2) 0.1250 0.1250
O2 O 0.5539(3) 0.1186(2) 0.1710(2)
C2B C 0.5070(10) 0.1588(4) 0.1066(5)
C1B C 0.4566(3) 0.1789(1) 0.0756(1)
O2B O 0.5539(3) 0.1314(2) 0.0790(2)
C27? C 0.4980(7) 0.1054(4) 0.1575(4)
loop_
_geom_bond_atom_site_label_1
_geom_bond_atom_site_label_2
_geom_bond_site_symmetry_1
_geom_bond_site_symmetry_2
C1 C2 1_555 1_555
C2 O1 1_555 1_555
O1 C2B 1_555 1_555
O2 C2 1_555 1_555
N1 C3 1_555 1_555
C3 C4 1_555 1_555
C4 N2 1_555 1_555
N2 C5 1_555 1_555
C5 C6 1_555 1_555
C6 C7 1_555 1_555
C7 C8 1_555 1_555
C8 C9 1_555 1_555
C9 C10 1_555 1_555
C10 C5 1_555 1_555
C11 C4 1_555 1_555
C12 C11 1_555 1_555
C13 C3 1_555 1_555
C14 C13 1_555 1_555
C15 C14 1_555 1_555
C16 C15 1_555 1_555
C17 C16 1_555 1_555
C18 C17 1_555 1_555
C19 N1 1_555 1_555
C20 N1 1_555 1_555
C21 N2 1_555 1_555
C22 C12 1_555 1_555
C23 C22 1_555 1_555
O3 C23 1_555 1_555
O4 C23 1_555 1_555
C24 O4 1_555 1_555
C25 C12 1_555 1_555
O5 C25 1_555 1_555
O6 C25 1_555 1_555
C26 O5 1_555 1_555
C2B C1B 1_555 1_555
O2B C2B 1_555 1_555
C10 C11 1_555 1_555
C12 C13 1_555 1_555
C14 C19 1_555 1_555
C18 C19 1_555 1_555

#END
