
#######################################################################
#
#                 Cambridge Crystallographic Data Centre
#                                CCDC 
#
#######################################################################
#
# If this CIF has been generated from an entry in the Cambridge 
# Structural Database, then it will include bibliographic, chemical, 
# crystal, experimental, refinement or atomic coordinate data resulting 
# from the CCDC's data processing and validation procedures.
#
#######################################################################

data_ZOMCUZ
_chemical_formula_moiety         'C22 H27 Br1 N2 O1'
_chemical_name_systematic        
((4-Allyl-2,5-dimethyl-1-piperazinyl)(4-bromophenyl)methyl)phenol
_symmetry_cell_setting           monoclinic
_symmetry_space_group_name_H-M   'P 21/c'
_symmetry_Int_Tables_number      14
_space_group_name_Hall           '-P 2ybc'
loop_
_symmetry_equiv_pos_site_id
_symmetry_equiv_pos_as_xyz
1 x,y,z
2 -x,1/2+y,1/2-z
3 -x,-y,-z
4 x,1/2-y,1/2+z
_cell_length_a                   9.2336(6)
_cell_length_b                   20.610(4)
_cell_length_c                   11.1757(8)
_cell_angle_alpha                90
_cell_angle_beta                 104.663(5)
_cell_angle_gamma                90
_cell_volume                     2057.52
_exptl_crystal_colour            colorless
_cell_formula_units_Z            4
loop_
_atom_site_label
_atom_site_type_symbol
_atom_site_fract_x
_atom_site_fract_y
_atom_site_fract_z
Br1 Br 1.12972(7) 0.09944(4) 0.25490(6)
O1 O 0.5294(5) 0.4761(2) -0.2352(4)
N1 N 0.5429(4) 0.3171(2) 0.1691(3)
N2 N 0.3999(4) 0.3974(2) 0.3178(3)
C1 C 0.6293(5) 0.3039(3) 0.0757(4)
C2 C 0.7537(5) 0.2555(2) 0.1230(4)
C3 C 0.7502(6) 0.2130(2) 0.2192(4)
C4 C 0.8607(6) 0.1673(3) 0.2583(5)
C5 C 0.9781(5) 0.1617(2) 0.2039(5)
C6 C 0.9810(6) 0.2030(3) 0.1060(5)
C7 C 0.8706(5) 0.2482(3) 0.0672(4)
C8 C 0.6775(5) 0.3655(2) 0.0201(4)
C9 C 0.5852(5) 0.3937(2) -0.0850(4)
C10 C 0.6243(5) 0.4524(2) -0.1297(4)
C11 C 0.7531(5) 0.4830(3) -0.0698(4)
C12 C 0.8459(5) 0.4557(2) 0.0349(4)
C13 C 0.8091(6) 0.3978(2) 0.0788(5)
C14 C 0.3905(5) 0.3415(3) 0.1176(4)
C15 C 0.3173(6) 0.3527(3) 0.2238(5)
C16 C 0.5497(5) 0.3707(3) 0.3708(4)
C17 C 0.6260(5) 0.3601(3) 0.2664(4)
C18 C 0.2955(6) 0.2938(4) 0.0275(6)
C19 C 0.6478(7) 0.4144(3) 0.4676(6)
C20 C 0.3139(7) 0.4070(3) 0.4124(5)
C21 C 0.1773(6) 0.4457(3) 0.3684(5)
C22 C 0.0435(8) 0.4315(5) 0.3794(6)
loop_
_geom_bond_atom_site_label_1
_geom_bond_atom_site_label_2
_geom_bond_site_symmetry_1
_geom_bond_site_symmetry_2
Br1 C5 1_555 1_555
O1 C10 1_555 1_555
N1 C1 1_555 1_555
N2 C15 1_555 1_555
C1 C2 1_555 1_555
C2 C3 1_555 1_555
C3 C4 1_555 1_555
C4 C5 1_555 1_555
C5 C6 1_555 1_555
C6 C7 1_555 1_555
C7 C2 1_555 1_555
C8 C1 1_555 1_555
C9 C8 1_555 1_555
C10 C9 1_555 1_555
C11 C10 1_555 1_555
C12 C11 1_555 1_555
C13 C8 1_555 1_555
C14 N1 1_555 1_555
C15 C14 1_555 1_555
C16 N2 1_555 1_555
C17 N1 1_555 1_555
C18 C14 1_555 1_555
C19 C16 1_555 1_555
C20 N2 1_555 1_555
C21 C20 1_555 1_555
C22 C21 1_555 1_555
C12 C13 1_555 1_555
C16 C17 1_555 1_555

#END
