
#######################################################################
#
#                 Cambridge Crystallographic Data Centre
#                                CCDC 
#
#######################################################################
#
# If this CIF has been generated from an entry in the Cambridge 
# Structural Database, then it will include bibliographic, chemical, 
# crystal, experimental, refinement or atomic coordinate data resulting 
# from the CCDC's data processing and validation procedures.
#
#######################################################################

data_ZOMQAV
_chemical_formula_moiety         'C30 H34 N7 O9 1+,N1 O3 1-,H2 O1'
_chemical_name_systematic        
'2-(((5-(methoxycarbonyl)pyridin-2-yl)carbonyl)amino)-N,N-bis(2-(((5-(methoxycarbonyl)pyridin-2-yl)carbonyl)amino)ethyl)ethanaminium nitrate monohydrate'
_symmetry_cell_setting           triclinic
_symmetry_space_group_name_H-M   'P -1'
_symmetry_Int_Tables_number      2
_space_group_name_Hall           '-P 1'
loop_
_symmetry_equiv_pos_site_id
_symmetry_equiv_pos_as_xyz
1 x,y,z
2 -x,-y,-z
_cell_length_a                   7.1760(8)
_cell_length_b                   14.1252(14)
_cell_length_c                   17.4500(18)
_cell_angle_alpha                108.268(9)
_cell_angle_beta                 91.425(9)
_cell_angle_gamma                103.228(9)
_cell_volume                     1626.11
_exptl_crystal_colour            colorless
_exptl_crystal_description       sheet
_cell_formula_units_Z            2
loop_
_atom_site_label
_atom_site_type_symbol
_atom_site_fract_x
_atom_site_fract_y
_atom_site_fract_z
O1 O 0.1354(3) 0.78030(19) 0.33071(14)
O2 O 0.1149(5) 1.2845(2) 0.31385(19)
O3 O -0.0555(3) 1.16899(19) 0.20081(14)
O4 O 0.6857(4) 0.9515(2) 0.38974(15)
O5 O 0.2999(4) 0.9216(2) -0.00834(16)
O6 O 0.2812(4) 1.0742(2) 0.07838(16)
O7 O 0.2930(3) 0.5951(2) 0.21311(15)
O8 O -0.5496(4) 0.6381(2) -0.00367(15)
O9 O -0.3086(3) 0.6426(2) -0.08303(15)
N1 N 0.3438(4) 0.6831(2) 0.40381(18)
H1 H 0.2962 0.7050 0.3640
N2 N 0.2015(4) 0.8948(2) 0.45795(17)
H2 H 0.2321 0.9604 0.4876
N3 N 0.1930(4) 1.0504(2) 0.39827(18)
N4 N 0.5989(4) 0.7848(2) 0.30874(18)
H3 H 0.5399 0.7418 0.2617
N5 N 0.4717(4) 0.8388(2) 0.18610(19)
N6 N 0.0261(4) 0.5393(2) 0.26931(18)
H4 H -0.0987 0.5329 0.2703
N7 N -0.1956(4) 0.5930(2) 0.16927(18)
C1 C 0.3716(5) 0.7694(3) 0.4846(2)
H5 H 0.4895 0.8231 0.4866
H6 H 0.3901 0.7418 0.5291
C2 C 0.2010(5) 0.8182(3) 0.4982(2)
H7 H 0.0807 0.7630 0.4785
H8 H 0.1997 0.8513 0.5572
C3 C 0.1577(5) 0.8694(3) 0.3784(2)
C4 C 0.1330(5) 0.9540(3) 0.3474(2)
C5 C 0.0464(5) 0.9275(3) 0.2689(2)
H9 H 0.0094 0.8578 0.2345
C6 C 0.0156(5) 1.0061(3) 0.2426(2)
H10 H -0.0462 0.9911 0.1898
C7 C 0.0759(5) 1.1068(3) 0.2941(2)
C8 C 0.1675(5) 1.1255(3) 0.3706(2)
H11 H 0.2143 1.1949 0.4048
C9 C 0.0499(5) 1.1971(3) 0.2721(3)
C10 C -0.1009(5) 1.2530(3) 0.1788(2)
H12 H -0.1790 1.2253 0.1261
H13 H 0.0187 1.3009 0.1753
H14 H -0.1730 1.2895 0.2201
C11 C 0.5299(5) 0.6570(3) 0.3810(2)
H15 H 0.5033 0.5958 0.3314
H16 H 0.5859 0.6384 0.4250
C12 C 0.6764(5) 0.7431(3) 0.3658(2)
H17 H 0.7232 0.7991 0.4180
H18 H 0.7878 0.7170 0.3441
C13 C 0.6136(5) 0.8852(3) 0.3247(2)
C14 C 0.5389(5) 0.9150(3) 0.2569(2)
C15 C 0.5440(5) 1.0174(3) 0.2675(2)
H19 H 0.5936 1.0692 0.3182
C16 C 0.4769(5) 1.0430(3) 0.2044(2)
H20 H 0.4804 1.1126 0.2105
C17 C 0.4040(5) 0.9657(3) 0.1318(2)
C18 C 0.4064(5) 0.8647(3) 0.1257(2)
H21 H 0.3586 0.8117 0.0754
C19 C 0.3251(5) 0.9831(3) 0.0599(3)
C20 C 0.2115(6) 1.1009(3) 0.0112(2)
H22 H 0.3199 1.1407 -0.0078
H23 H 0.1184 1.1423 0.0292
H24 H 0.1492 1.0379 -0.0331
C21 C 0.1974(5) 0.5891(3) 0.4079(2)
H25 H 0.2554 0.5588 0.4436
H26 H 0.0853 0.6110 0.4329
C22 C 0.1275(5) 0.5070(3) 0.3262(2)
H27 H 0.2396 0.4848 0.3014
H28 H 0.0406 0.4465 0.3347
C23 C 0.1156(5) 0.5784(3) 0.2158(2)
C24 C -0.0092(5) 0.6004(3) 0.1559(2)
C25 C 0.0687(5) 0.6228(3) 0.0906(2)
H29 H 0.2020 0.6294 0.0852
C26 C -0.0493(5) 0.6358(3) 0.0332(2)
H30 H 0.0001 0.6495 -0.0133
C27 C -0.2423(5) 0.6283(3) 0.0449(2)
C28 C -0.3083(5) 0.6078(3) 0.1138(2)
H31 H -0.4398 0.6040 0.1219
C29 C -0.3841(5) 0.6368(3) -0.0153(2)
C30 C -0.4404(6) 0.6454(3) -0.1465(2)
H32 H -0.3714 0.6493 -0.1936
H33 H -0.4926 0.7059 -0.1262
H34 H -0.5460 0.5829 -0.1624
O10 O 0.1729(4) 0.3879(2) 0.49414(16)
H35 H 0.2761 0.4355 0.5099
H36 H 0.1470 0.3742 0.4434
O11 O 0.6627(4) 0.4255(2) 0.31280(16)
O12 O 0.5592(4) 0.4131(2) 0.42566(16)
O13 O 0.5834(5) 0.2771(2) 0.33043(19)
N8 N 0.5993(4) 0.3696(2) 0.35496(18)
loop_
_geom_bond_atom_site_label_1
_geom_bond_atom_site_label_2
_geom_bond_site_symmetry_1
_geom_bond_site_symmetry_2
O1 C3 1_555 1_555
O2 C9 1_555 1_555
O3 C9 1_555 1_555
O4 C13 1_555 1_555
O5 C19 1_555 1_555
O6 C19 1_555 1_555
O7 C23 1_555 1_555
O8 C29 1_555 1_555
O9 C29 1_555 1_555
N1 H1 1_555 1_555
N2 H2 1_555 1_555
N3 C4 1_555 1_555
N4 H3 1_555 1_555
N5 C14 1_555 1_555
N6 H4 1_555 1_555
N7 C24 1_555 1_555
C1 N1 1_555 1_555
H5 C1 1_555 1_555
H6 C1 1_555 1_555
C2 N2 1_555 1_555
H7 C2 1_555 1_555
H8 C2 1_555 1_555
C3 N2 1_555 1_555
C4 C3 1_555 1_555
C5 C4 1_555 1_555
H9 C5 1_555 1_555
C6 C5 1_555 1_555
H10 C6 1_555 1_555
C7 C6 1_555 1_555
C8 N3 1_555 1_555
H11 C8 1_555 1_555
C9 C7 1_555 1_555
C10 O3 1_555 1_555
H12 C10 1_555 1_555
H13 C10 1_555 1_555
H14 C10 1_555 1_555
C11 N1 1_555 1_555
H15 C11 1_555 1_555
H16 C11 1_555 1_555
C12 N4 1_555 1_555
H17 C12 1_555 1_555
H18 C12 1_555 1_555
C13 N4 1_555 1_555
C14 C13 1_555 1_555
C15 C14 1_555 1_555
H19 C15 1_555 1_555
C16 C15 1_555 1_555
H20 C16 1_555 1_555
C17 C16 1_555 1_555
C18 N5 1_555 1_555
H21 C18 1_555 1_555
C19 C17 1_555 1_555
C20 O6 1_555 1_555
H22 C20 1_555 1_555
H23 C20 1_555 1_555
H24 C20 1_555 1_555
C21 N1 1_555 1_555
H25 C21 1_555 1_555
H26 C21 1_555 1_555
C22 N6 1_555 1_555
H27 C22 1_555 1_555
H28 C22 1_555 1_555
C23 N6 1_555 1_555
C24 C23 1_555 1_555
C25 C24 1_555 1_555
H29 C25 1_555 1_555
C26 C25 1_555 1_555
H30 C26 1_555 1_555
C27 C26 1_555 1_555
C28 N7 1_555 1_555
H31 C28 1_555 1_555
C29 C27 1_555 1_555
C30 O9 1_555 1_555
H32 C30 1_555 1_555
H33 C30 1_555 1_555
H34 C30 1_555 1_555
O10 H35 1_555 1_555
H36 O10 1_555 1_555
O11 N8 1_555 1_555
O12 N8 1_555 1_555
O13 N8 1_555 1_555
C1 C2 1_555 1_555
C7 C8 1_555 1_555
C11 C12 1_555 1_555
C17 C18 1_555 1_555
C21 C22 1_555 1_555
C27 C28 1_555 1_555

#END
