
#######################################################################
#
#                 Cambridge Crystallographic Data Centre
#                                CCDC 
#
#######################################################################
#
# If this CIF has been generated from an entry in the Cambridge 
# Structural Database, then it will include bibliographic, chemical, 
# crystal, experimental, refinement or atomic coordinate data resulting 
# from the CCDC's data processing and validation procedures.
#
#######################################################################

data_ZOMTEC
_chemical_formula_moiety         'C30 H31 N1 O2 S1'
_chemical_name_systematic        
N-(2-(5-isopropyl-3,8-dimethylazulen-1-yl)-2-phenylvinyl)-4-methylbenzenesulfonamide
_symmetry_cell_setting           monoclinic
_symmetry_space_group_name_H-M   'P 21/c'
_symmetry_Int_Tables_number      14
_space_group_name_Hall           '-P 2ybc'
loop_
_symmetry_equiv_pos_site_id
_symmetry_equiv_pos_as_xyz
1 x,y,z
2 -x,1/2+y,1/2-z
3 -x,-y,-z
4 x,1/2-y,1/2+z
_cell_length_a                   14.503(3)
_cell_length_b                   15.868(3)
_cell_length_c                   12.034(2)
_cell_angle_alpha                90
_cell_angle_beta                 110.71(3)
_cell_angle_gamma                90
_cell_volume                     2590.47
_exptl_crystal_colour            'dark blue'
_exptl_crystal_description       block
_cell_formula_units_Z            4
loop_
_atom_site_label
_atom_site_type_symbol
_atom_site_fract_x
_atom_site_fract_y
_atom_site_fract_z
C1 C 0.02586(18) 0.10019(13) 0.4488(2)
H1 H 0.0472 0.0909 0.5347
H2 H 0.0629 0.0629 0.4149
H3 H -0.0447 0.0880 0.4123
C2 C 0.04462(14) 0.19045(13) 0.42493(18)
C3 C 0.09302(17) 0.21041(14) 0.3472(2)
H4 H 0.1146 0.1663 0.3088
C4 C 0.11035(15) 0.29336(13) 0.32467(19)
H5 H 0.1437 0.3062 0.2716
C5 C 0.07843(12) 0.35753(12) 0.38063(16)
C6 C 0.02899(12) 0.33920(12) 0.45786(16)
H6 H 0.0065 0.3833 0.4952
C7 C 0.01310(14) 0.25619(12) 0.47946(18)
H7 H -0.0201 0.2435 0.5328
C8 C 0.20195(12) 0.49464(11) 0.59069(16)
H8 H 0.1403 0.5060 0.5988
C9 C 0.28170(12) 0.48728(11) 0.68890(16)
C10 C 0.27801(13) 0.50431(12) 0.80862(16)
C11 C 0.19843(14) 0.54432(13) 0.82491(18)
H9 H 0.1436 0.5607 0.7574
C12 C 0.19740(16) 0.56083(14) 0.9376(2)
H10 H 0.1417 0.5877 0.9461
C13 C 0.27579(19) 0.53880(16) 1.0372(2)
H11 H 0.2753 0.5507 1.1143
C14 C 0.35485(19) 0.49911(18) 1.0226(2)
H12 H 0.4094 0.4832 1.0907
C15 C 0.35681(16) 0.48176(16) 0.91017(19)
H13 H 0.4125 0.4543 0.9026
C16 C 0.37970(12) 0.47174(12) 0.67837(15)
C17 C 0.44291(12) 0.54070(12) 0.67827(15)
H14 H 0.4287 0.5981 0.6879
C18 C 0.52710(12) 0.51279(12) 0.66237(15)
C19 C 0.52188(12) 0.42465(12) 0.65156(15)
C20 C 0.59597(13) 0.37597(12) 0.63461(16)
H15 H 0.6514 0.4072 0.6332
C21 C 0.60256(15) 0.28945(13) 0.61945(17)
C22 C 0.52887(15) 0.23273(13) 0.61565(19)
H16 H 0.5422 0.1763 0.5996
C23 C 0.43821(15) 0.24335(13) 0.6312(2)
H17 H 0.4018 0.1926 0.6240
C24 C 0.39136(13) 0.31356(12) 0.65505(17)
C25 C 0.42621(12) 0.39719(11) 0.66128(15)
C26 C 0.60787(13) 0.56918(13) 0.65381(18)
H18 H 0.6113 0.5646 0.5742
H19 H 0.6710 0.5519 0.7131
H20 H 0.5938 0.6277 0.6686
C27 C 0.29537(15) 0.29676(13) 0.6737(2)
H21 H 0.2407 0.3201 0.6070
H22 H 0.2969 0.3234 0.7477
H23 H 0.2862 0.2358 0.6784
C28 C 0.78921(17) 0.27979(18) 0.7067(2)
H24 H 0.7991 0.3408 0.7047
H25 H 0.8459 0.2503 0.6987
H26 H 0.7827 0.2644 0.7825
C29 C 0.69626(15) 0.25482(14) 0.60517(19)
H27 H 0.6918 0.1920 0.6066
C30 C 0.70438(19) 0.27856(16) 0.4867(2)
H28 H 0.6456 0.2589 0.4220
H29 H 0.7631 0.2521 0.4797
H30 H 0.7096 0.3399 0.4821
N1 N 0.20506(10) 0.48626(10) 0.47558(14)
H31 H 0.2593(8) 0.4682(13) 0.4704(19)
O1 O 0.13740(9) 0.46768(8) 0.25982(11)
O2 O 0.02939(8) 0.51492(8) 0.36953(11)
S1 S 0.10709(3) 0.46277(3) 0.36077(4)
loop_
_geom_bond_atom_site_label_1
_geom_bond_atom_site_label_2
_geom_bond_site_symmetry_1
_geom_bond_site_symmetry_2
C1 H1 1_555 1_555
H2 C1 1_555 1_555
H3 C1 1_555 1_555
C2 C1 1_555 1_555
C3 C2 1_555 1_555
H4 C3 1_555 1_555
C4 C3 1_555 1_555
H5 C4 1_555 1_555
C5 C4 1_555 1_555
C6 C5 1_555 1_555
H6 C6 1_555 1_555
C7 C2 1_555 1_555
H7 C7 1_555 1_555
C8 H8 1_555 1_555
C9 C8 1_555 1_555
C10 C9 1_555 1_555
C11 C10 1_555 1_555
H9 C11 1_555 1_555
C12 C11 1_555 1_555
H10 C12 1_555 1_555
C13 C12 1_555 1_555
H11 C13 1_555 1_555
C14 C13 1_555 1_555
H12 C14 1_555 1_555
C15 C10 1_555 1_555
H13 C15 1_555 1_555
C16 C9 1_555 1_555
C17 C16 1_555 1_555
H14 C17 1_555 1_555
C18 C17 1_555 1_555
C19 C18 1_555 1_555
C20 C19 1_555 1_555
H15 C20 1_555 1_555
C21 C20 1_555 1_555
C22 C21 1_555 1_555
H16 C22 1_555 1_555
C23 C22 1_555 1_555
H17 C23 1_555 1_555
C24 C23 1_555 1_555
C25 C16 1_555 1_555
C26 C18 1_555 1_555
H18 C26 1_555 1_555
H19 C26 1_555 1_555
H20 C26 1_555 1_555
C27 C24 1_555 1_555
H21 C27 1_555 1_555
H22 C27 1_555 1_555
H23 C27 1_555 1_555
C28 H24 1_555 1_555
H25 C28 1_555 1_555
H26 C28 1_555 1_555
C29 C21 1_555 1_555
H27 C29 1_555 1_555
C30 C29 1_555 1_555
H28 C30 1_555 1_555
H29 C30 1_555 1_555
H30 C30 1_555 1_555
N1 C8 1_555 1_555
H31 N1 1_555 1_555
O1 S1 1_555 1_555
O2 S1 1_555 1_555
S1 C5 1_555 1_555
C6 C7 1_555 1_555
C14 C15 1_555 1_555
C19 C25 1_555 1_555
C24 C25 1_555 1_555
C28 C29 1_555 1_555
N1 S1 1_555 1_555

#END
