
#######################################################################
#
#                 Cambridge Crystallographic Data Centre
#                                CCDC 
#
#######################################################################
#
# If this CIF has been generated from an entry in the Cambridge 
# Structural Database, then it will include bibliographic, chemical, 
# crystal, experimental, refinement or atomic coordinate data resulting 
# from the CCDC's data processing and validation procedures.
#
#######################################################################

data_ZOMVAA
_chemical_formula_moiety         'C15 H12 O2 S1'
_chemical_name_systematic        
'2-(2-methylphenyl)-1-benzothiophene 1,1-dioxide'
_symmetry_cell_setting           orthorhombic
_symmetry_space_group_name_H-M   'P b c a'
_symmetry_Int_Tables_number      61
_space_group_name_Hall           '-P 2ac 2ab'
loop_
_symmetry_equiv_pos_site_id
_symmetry_equiv_pos_as_xyz
1 x,y,z
2 1/2-x,-y,1/2+z
3 -x,1/2+y,1/2-z
4 1/2+x,1/2-y,-z
5 -x,-y,-z
6 1/2+x,y,1/2-z
7 x,1/2-y,1/2+z
8 1/2-x,1/2+y,z
_cell_length_a                   7.867(4)
_cell_length_b                   13.181(6)
_cell_length_c                   23.940(11)
_cell_angle_alpha                90
_cell_angle_beta                 90
_cell_angle_gamma                90
_cell_volume                     2482.46
_exptl_crystal_colour            colorless
_exptl_crystal_description       prism
_cell_formula_units_Z            8
loop_
_atom_site_label
_atom_site_type_symbol
_atom_site_fract_x
_atom_site_fract_y
_atom_site_fract_z
S1 S 0.15932(9) 0.27542(5) 0.16268(3)
O1 O 0.3231(3) 0.23155(16) 0.15203(8)
O2 O 0.0155(3) 0.20839(15) 0.16020(8)
C1 C 0.1564(3) 0.3457(2) 0.22562(10)
C2 C 0.1743(4) 0.3110(2) 0.27940(11)
H1 H 0.1935 0.2427 0.2867
C3 C 0.1627(4) 0.3813(2) 0.32253(13)
H2 H 0.1755 0.3602 0.3594
C4 C 0.1322(4) 0.4825(2) 0.31096(12)
H3 H 0.1236 0.5284 0.3403
C5 C 0.1141(4) 0.5170(2) 0.25670(12)
H4 H 0.0936 0.5852 0.2495
C6 C 0.1272(4) 0.44755(19) 0.21302(10)
C7 C 0.1142(4) 0.4667(2) 0.15309(11)
H5 H 0.0971 0.5316 0.1389
C8 C 0.1282(3) 0.38581(18) 0.11965(10)
C9 C 0.1276(3) 0.37565(18) 0.05822(10)
C10 C 0.2144(3) 0.44528(19) 0.02384(10)
C11 C 0.2084(4) 0.4293(2) -0.03344(11)
H6 H 0.2640 0.4749 -0.0568
C12 C 0.1230(4) 0.3484(2) -0.05717(12)
H7 H 0.1226 0.3398 -0.0957
C13 C 0.0389(4) 0.2810(2) -0.02356(13)
H8 H -0.0199 0.2269 -0.0393
C14 C 0.0414(4) 0.2935(2) 0.03361(12)
H9 H -0.0147 0.2470 0.0562
C15 C 0.3143(4) 0.5334(2) 0.04672(13)
H10 H 0.2378 0.5871 0.0567
H11 H 0.3924 0.5572 0.0188
H12 H 0.3763 0.5120 0.0792
loop_
_geom_bond_atom_site_label_1
_geom_bond_atom_site_label_2
_geom_bond_site_symmetry_1
_geom_bond_site_symmetry_2
S1 O1 1_555 1_555
O2 S1 1_555 1_555
C1 S1 1_555 1_555
C2 C1 1_555 1_555
H1 C2 1_555 1_555
C3 C2 1_555 1_555
H2 C3 1_555 1_555
C4 C3 1_555 1_555
H3 C4 1_555 1_555
C5 C4 1_555 1_555
H4 C5 1_555 1_555
C6 C1 1_555 1_555
C7 C6 1_555 1_555
H5 C7 1_555 1_555
C8 S1 1_555 1_555
C9 C8 1_555 1_555
C10 C9 1_555 1_555
C11 C10 1_555 1_555
H6 C11 1_555 1_555
C12 C11 1_555 1_555
H7 C12 1_555 1_555
C13 C12 1_555 1_555
H8 C13 1_555 1_555
C14 C9 1_555 1_555
H9 C14 1_555 1_555
C15 C10 1_555 1_555
H10 C15 1_555 1_555
H11 C15 1_555 1_555
H12 C15 1_555 1_555
C5 C6 1_555 1_555
C7 C8 1_555 1_555
C13 C14 1_555 1_555

#END
