
#######################################################################
#
#                 Cambridge Crystallographic Data Centre
#                                CCDC 
#
#######################################################################
#
# If this CIF has been generated from an entry in the Cambridge 
# Structural Database, then it will include bibliographic, chemical, 
# crystal, experimental, refinement or atomic coordinate data resulting 
# from the CCDC's data processing and validation procedures.
#
#######################################################################

data_ZONQIC
_chemical_formula_moiety         'C6 H18 N3 O1 P1,C8 H9 N1 O3 S1'
_chemical_name_systematic        
'Phenylsulfonylacetamide hexamethylphosphoramide'
_symmetry_cell_setting           triclinic
_symmetry_space_group_name_H-M   'P -1'
_symmetry_Int_Tables_number      2
_space_group_name_Hall           '-P 1'
loop_
_symmetry_equiv_pos_site_id
_symmetry_equiv_pos_as_xyz
1 x,y,z
2 -x,-y,-z
_cell_length_a                   8.694(2)
_cell_length_b                   9.360(2)
_cell_length_c                   12.366(2)
_cell_angle_alpha                101.25(3)
_cell_angle_beta                 96.48(3)
_cell_angle_gamma                97.44(3)
_cell_volume                     968.729
_exptl_crystal_colour            colorless
_chemical_melting_point          80-84deg.C
_cell_formula_units_Z            2
loop_
_atom_site_label
_atom_site_type_symbol
_atom_site_fract_x
_atom_site_fract_y
_atom_site_fract_z
S1 S 0.0216(1) 0.4346(1) 0.2900(1)
O2 O 0.1267(2) 0.3759(2) 0.2169(2)
O3 O -0.0658(2) 0.3367(2) 0.3457(2)
O4 O 0.2847(3) 0.4549(2) 0.4973(2)
N4 N 0.4135(3) 0.6167(3) 0.4115(2)
C7 C 0.1317(3) 0.5877(3) 0.3902(2)
C8 C 0.2853(3) 0.5466(3) 0.4379(2)
C9 C -0.1117(3) 0.5170(3) 0.2123(2)
C10 C -0.2639(3) 0.5178(3) 0.2376(2)
C11 C -0.3694(4) 0.5744(3) 0.1715(3)
C12 C -0.3227(3) 0.6293(3) 0.0821(2)
C13 C -0.1715(4) 0.6302(3) 0.0585(2)
C14 C -0.0640(3) 0.5746(3) 0.1237(2)
H19 H -0.2947(3) 0.4802(3) 0.2992(2)
H20 H -0.4737(4) 0.5756(3) 0.1874(3)
H21 H -0.3960(3) 0.6667(3) 0.0364(2)
H22 H -0.1410(4) 0.6692(3) -0.0026(2)
H23 H 0.0407(3) 0.5756(3) 0.1083(2)
H24 H 0.4136(3) 0.6779(3) 0.3865(2)
H25 H 0.5029(3) 0.6094(3) 0.4466(2)
H26 H 0.1499(3) 0.6700(3) 0.3628(2)
H27 H 0.0705(3) 0.6229(3) 0.4601(2)
P1 P 0.3137(1) 0.9304(1) 0.2362(1)
O1 O 0.3440(2) 0.7820(2) 0.2492(2)
N1 N 0.2428(3) 0.9198(2) 0.1040(2)
N2 N 0.1842(3) 1.0062(3) 0.3052(2)
N3 N 0.4735(3) 1.0518(3) 0.2809(2)
C1 C 0.2734(4) 0.8019(3) 0.0175(3)
C2 C 0.2222(4) 1.0541(3) 0.0641(3)
C3 C 0.0159(3) 0.9706(3) 0.2667(3)
C4 C 0.2194(4) 1.0625(4) 0.4260(3)
C5 C 0.4777(4) 1.2104(3) 0.2867(3)
C6 C 0.6279(3) 1.0058(5) 0.2779(3)
H1 H 0.1856(12) 0.7775(16) -0.0435(8)
H2 H 0.2852(24) 0.7146(8) 0.0485(5)
H3 H 0.3699(13) 0.8340(9) -0.0109(12)
H4 H 0.1403(17) 1.0306(5) -0.0007(11)
H5 H 0.3210(8) 1.0956(13) 0.0429(16)
H6 H 0.1916(24) 1.1261(9) 0.1234(6)
H7 H -0.0324(5) 1.0597(6) 0.2845(15)
H8 H -0.0308(5) 0.8957(17) 0.3037(13)
H9 H -0.0021(3) 0.9326(21) 0.1859(4)
H10 H 0.1741(23) 1.1529(14) 0.4463(3)
H11 H 0.3333(4) 1.0840(24) 0.4481(4)
H12 H 0.1744(23) 0.9882(11) 0.4643(3)
H13 H 0.5470(21) 1.2660(3) 0.3538(10)
H14 H 0.3718(6) 1.2349(5) 0.2894(19)
H15 H 0.5172(25) 1.2362(6) 0.2207(9)
H16 H 0.7009(8) 1.0645(18) 0.3421(11)
H17 H 0.6667(12) 1.0209(24) 0.2089(9)
H18 H 0.6195(6) 0.9011(8) 0.2806(20)
loop_
_geom_bond_atom_site_label_1
_geom_bond_atom_site_label_2
_geom_bond_site_symmetry_1
_geom_bond_site_symmetry_2
S1 O2 1_555 1_555
P1 O1 1_555 1_555
O3 S1 1_555 1_555
O4 C8 1_555 1_555
N1 P1 1_555 1_555
N2 P1 1_555 1_555
N3 P1 1_555 1_555
N4 C8 1_555 1_555
C1 N1 1_555 1_555
C2 N1 1_555 1_555
C3 N2 1_555 1_555
C4 N2 1_555 1_555
C5 N3 1_555 1_555
C6 N3 1_555 1_555
C7 S1 1_555 1_555
C8 C7 1_555 1_555
C9 S1 1_555 1_555
C10 C9 1_555 1_555
C11 C10 1_555 1_555
C12 C11 1_555 1_555
C13 C12 1_555 1_555
C14 C9 1_555 1_555
H1 C1 1_555 1_555
H2 C1 1_555 1_555
H3 C1 1_555 1_555
H4 C2 1_555 1_555
H5 C2 1_555 1_555
H6 C2 1_555 1_555
H7 C3 1_555 1_555
H8 C3 1_555 1_555
H9 C3 1_555 1_555
H10 C4 1_555 1_555
H11 C4 1_555 1_555
H12 C4 1_555 1_555
H13 C5 1_555 1_555
H14 C5 1_555 1_555
H15 C5 1_555 1_555
H16 C6 1_555 1_555
H17 C6 1_555 1_555
H18 C6 1_555 1_555
H19 C10 1_555 1_555
H20 C11 1_555 1_555
H21 C12 1_555 1_555
H22 C13 1_555 1_555
H23 C14 1_555 1_555
H24 N4 1_555 1_555
H25 N4 1_555 1_555
H26 C7 1_555 1_555
H27 C7 1_555 1_555
C13 C14 1_555 1_555

#END
