
#######################################################################
#
#                 Cambridge Crystallographic Data Centre
#                                CCDC 
#
#######################################################################
#
# If this CIF has been generated from an entry in the Cambridge 
# Structural Database, then it will include bibliographic, chemical, 
# crystal, experimental, refinement or atomic coordinate data resulting 
# from the CCDC's data processing and validation procedures.
#
#######################################################################

data_ZONRAV
_chemical_name_common            
Perhydro-1(4,5)3(4,5)-dixanthenocyclobutaphane
_chemical_formula_moiety         'C28 H44 O2'
_chemical_name_systematic        
26,29-Dioxa-heptacyclo(13.9.3.3^3,13^.0^7,28^.0^9,30^.0^19,27^.0^21,25^)triacontane
_symmetry_cell_setting           monoclinic
_symmetry_space_group_name_H-M   'P 21/c'
_symmetry_Int_Tables_number      14
_space_group_name_Hall           '-P 2ybc'
loop_
_symmetry_equiv_pos_site_id
_symmetry_equiv_pos_as_xyz
1 x,y,z
2 -x,1/2+y,1/2-z
3 -x,-y,-z
4 x,1/2-y,1/2+z
_cell_length_a                   5.387(2)
_cell_length_b                   21.611(4)
_cell_length_c                   19.820(4)
_cell_angle_alpha                90
_cell_angle_beta                 93.45(3)
_cell_angle_gamma                90
_cell_volume                     2303.23
_chemical_melting_point          272-275deg.C
_cell_formula_units_Z            4
loop_
_atom_site_label
_atom_site_type_symbol
_atom_site_fract_x
_atom_site_fract_y
_atom_site_fract_z
O1 O 0.3766(3) 0.49974(8) 0.26119(9)
O2 O 0.5428(3) 0.36606(8) 0.2493(1)
C1 C 0.4329(5) 0.5109(1) 0.1931(1)
C2 C 0.2234(5) 0.4867(1) 0.1466(1)
C3 C 0.2660(6) 0.5029(1) 0.0734(2)
C4 C 0.3141(6) 0.5720(2) 0.0634(2)
C5 C 0.5318(6) 0.5931(1) 0.1096(2)
C6 C 0.4856(5) 0.5798(1) 0.1832(1)
C7 C 0.6946(6) 0.6001(1) 0.2335(2)
C8 C 0.6488(5) 0.5812(1) 0.3054(1)
C9 C 0.8623(6) 0.5957(1) 0.3559(2)
C10 C 0.8065(7) 0.5748(2) 0.4263(2)
C11 C 0.7413(6) 0.5066(1) 0.4277(2)
C12 C 0.5262(5) 0.4902(1) 0.3768(1)
C13 C 0.5851(5) 0.5122(1) 0.3070(1)
C14 C 0.4540(5) 0.4214(1) 0.3778(1)
C15 C 0.6001(5) 0.3304(1) 0.3089(1)
C16 C 0.6619(5) 0.3745(1) 0.3664(2)
C17 C 0.7307(6) 0.3369(2) 0.4301(2)
C18 C 0.9362(7) 0.2899(2) 0.4212(2)
C19 C 0.8749(6) 0.2481(2) 0.3611(2)
C20 C 0.8112(6) 0.2850(1) 0.2972(2)
C21 C 0.7431(6) 0.2453(1) 0.2354(2)
C22 C 0.6614(6) 0.2844(1) 0.1740(2)
C23 C 0.5782(7) 0.2474(1) 0.1114(2)
C24 C 0.4980(7) 0.2897(2) 0.0533(2)
C25 C 0.2983(6) 0.3346(1) 0.0728(2)
C26 C 0.3751(5) 0.3726(1) 0.1355(1)
C27 C 0.4585(5) 0.3292(1) 0.1925(1)
C28 C 0.1698(5) 0.4178(1) 0.1554(1)
H1 H 0.5792 0.4884 0.1844
H2 H 0.0777 0.5082 0.1579
H3 H 0.3403 0.6019 0.1936
H4 H 0.5076 0.6034 0.3187
H5 H 0.3854 0.5130 0.3894
H6 H 0.7236 0.4895 0.2929
H7 H 0.4567 0.3074 0.3189
H8 H 0.8051 0.3973 0.3555
H9 H 0.9537 0.3086 0.2877
H10 H 0.8005 0.3086 0.1629
H11 H 0.5151 0.3967 0.1251
H12 H 0.3188 0.3058 0.2047
H13 H 0.4058 0.4804 0.0598
H14 H 0.1228 0.4914 0.0460
H15 H 0.3504 0.5792 0.0178
H16 H 0.1700 0.5947 0.0735
H17 H 0.6775 0.5718 0.0979
H18 H 0.5547 0.6364 0.1040
H19 H 0.8454 0.5817 0.2211
H20 H 0.7089 0.6438 0.2317
H21 H 1.0074 0.5751 0.3427
H22 H 0.8905 0.6391 0.3564
H23 H 0.9487 0.5820 0.4560
H24 H 0.6703 0.5981 0.4410
H25 H 0.8835 0.4832 0.4172
H26 H 0.6953 0.4961 0.4718
H27 H 0.3917 0.4128 0.4206
H28 H 0.3260 0.4151 0.3434
H29 H 0.7845 0.3647 0.4652
H30 H 0.5868 0.3155 0.4428
H31 H 1.0867 0.3113 0.4144
H32 H 0.9564 0.2653 0.4609
H33 H 1.0145 0.2225 0.3541
H34 H 0.7366 0.2229 0.3705
H35 H 0.8840 0.2215 0.2250
H36 H 0.6109 0.2184 0.2455
H37 H 0.7124 0.2224 0.0985
H38 H 0.4423 0.2218 0.1215
H39 H 0.6381 0.3125 0.0403
H40 H 0.4347 0.2653 0.0163
H41 H 0.2627 0.3621 0.0361
H42 H 0.1530 0.3117 0.0815
H43 H 0.1420 0.4110 0.2017
H44 H 0.0229 0.4083 0.1285
loop_
_geom_bond_atom_site_label_1
_geom_bond_atom_site_label_2
_geom_bond_site_symmetry_1
_geom_bond_site_symmetry_2
O1 C1 1_555 1_555
O2 C15 1_555 1_555
C1 C2 1_555 1_555
C2 C3 1_555 1_555
C3 C4 1_555 1_555
C4 C5 1_555 1_555
C5 C6 1_555 1_555
C6 C1 1_555 1_555
C7 C6 1_555 1_555
C8 C7 1_555 1_555
C9 C8 1_555 1_555
C10 C9 1_555 1_555
C11 C10 1_555 1_555
C12 C11 1_555 1_555
C13 O1 1_555 1_555
C14 C12 1_555 1_555
C15 C16 1_555 1_555
C16 C14 1_555 1_555
C17 C16 1_555 1_555
C18 C17 1_555 1_555
C19 C18 1_555 1_555
C20 C15 1_555 1_555
C21 C20 1_555 1_555
C22 C21 1_555 1_555
C23 C22 1_555 1_555
C24 C23 1_555 1_555
C25 C24 1_555 1_555
C26 C25 1_555 1_555
C27 O2 1_555 1_555
C28 C2 1_555 1_555
H1 C1 1_555 1_555
H2 C2 1_555 1_555
H3 C6 1_555 1_555
H4 C8 1_555 1_555
H5 C12 1_555 1_555
H6 C13 1_555 1_555
H7 C15 1_555 1_555
H8 C16 1_555 1_555
H9 C20 1_555 1_555
H10 C22 1_555 1_555
H11 C26 1_555 1_555
H12 C27 1_555 1_555
H13 C3 1_555 1_555
H14 C3 1_555 1_555
H15 C4 1_555 1_555
H16 C4 1_555 1_555
H17 C5 1_555 1_555
H18 C5 1_555 1_555
H19 C7 1_555 1_555
H20 C7 1_555 1_555
H21 C9 1_555 1_555
H22 C9 1_555 1_555
H23 C10 1_555 1_555
H24 C10 1_555 1_555
H25 C11 1_555 1_555
H26 C11 1_555 1_555
H27 C14 1_555 1_555
H28 C14 1_555 1_555
H29 C17 1_555 1_555
H30 C17 1_555 1_555
H31 C18 1_555 1_555
H32 C18 1_555 1_555
H33 C19 1_555 1_555
H34 C19 1_555 1_555
H35 C21 1_555 1_555
H36 C21 1_555 1_555
H37 C23 1_555 1_555
H38 C23 1_555 1_555
H39 C24 1_555 1_555
H40 C24 1_555 1_555
H41 C25 1_555 1_555
H42 C25 1_555 1_555
H43 C28 1_555 1_555
H44 C28 1_555 1_555
C8 C13 1_555 1_555
C12 C13 1_555 1_555
C19 C20 1_555 1_555
C22 C27 1_555 1_555
C26 C28 1_555 1_555
C26 C27 1_555 1_555

#END
