
#######################################################################
#
#                 Cambridge Crystallographic Data Centre
#                                CCDC 
#
#######################################################################
#
# If this CIF has been generated from an entry in the Cambridge 
# Structural Database, then it will include bibliographic, chemical, 
# crystal, experimental, refinement or atomic coordinate data resulting 
# from the CCDC's data processing and validation procedures.
#
#######################################################################

data_ZONVOP
_chemical_formula_moiety         'C17 H21 Br1 O2'
_chemical_name_systematic        
'ethyl 4-(4-bromophenyl)bicyclo[2.2.2]octane-1-carboxylate'
_symmetry_cell_setting           orthorhombic
_symmetry_space_group_name_H-M   'P b c a'
_symmetry_Int_Tables_number      61
_space_group_name_Hall           '-P 2ac 2ab'
loop_
_symmetry_equiv_pos_site_id
_symmetry_equiv_pos_as_xyz
1 x,y,z
2 1/2+x,1/2-y,-z
3 -x,1/2+y,1/2-z
4 1/2-x,-y,1/2+z
5 -x,-y,-z
6 1/2-x,1/2+y,z
7 x,1/2-y,1/2+z
8 1/2+x,y,1/2-z
_cell_length_a                   12.4907(4)
_cell_length_b                   11.6530(3)
_cell_length_c                   20.5395(7)
_cell_angle_alpha                90
_cell_angle_beta                 90
_cell_angle_gamma                90
_cell_volume                     2989.61
_exptl_crystal_colour            yellow
_exptl_crystal_description       prism
_cell_formula_units_Z            8
_exptl_crystal_recrystallization_method ethanol
loop_
_atom_site_label
_atom_site_type_symbol
_atom_site_fract_x
_atom_site_fract_y
_atom_site_fract_z
Br1 Br 0.257644(12) 0.030188(13) 0.359384(7)
O1 O -0.04024(10) 0.40320(9) 0.82301(5)
O2 O -0.01125(9) 0.22057(8) 0.85036(5)
C1 C 0.03575(13) 0.27426(11) 0.74322(6)
C2 C 0.13070(13) 0.19224(14) 0.74839(7)
H1 H 0.185(2) 0.2299(16) 0.7700(10)
H2 H 0.1116(16) 0.1236(16) 0.7726(8)
C3 C 0.17127(12) 0.15921(12) 0.68067(6)
H3 H 0.2455(13) 0.1862(16) 0.6741(10)
H4 H 0.1711(12) 0.0753(13) 0.6757(7)
C4 C 0.10191(12) 0.21452(11) 0.62681(7)
C5 C -0.01603(12) 0.18002(13) 0.63762(7)
H5 H -0.0585(16) 0.2210(14) 0.6044(9)
H6 H -0.0239(13) 0.0986(14) 0.6310(7)
C6 C -0.05432(13) 0.21210(13) 0.70612(7)
H7 H -0.0782(14) 0.1459(14) 0.7305(8)
H8 H -0.1143(16) 0.2629(13) 0.7032(8)
C7 C 0.06873(15) 0.38006(12) 0.70387(7)
H9 H 0.0109(14) 0.4297(14) 0.7001(8)
H10 H 0.1280(15) 0.4191(15) 0.7284(8)
C8 C 0.10850(13) 0.34520(12) 0.63578(6)
H11 H 0.0632(12) 0.3858(12) 0.6025(7)
H12 H 0.1863(14) 0.3705(13) 0.6301(7)
C9 C -0.00826(12) 0.30919(12) 0.80899(7)
C10 C -0.05621(13) 0.24289(12) 0.91428(7)
H13 H -0.0114(13) 0.2987(12) 0.9345(7)
H14 H -0.1291(12) 0.2766(10) 0.9109(7)
C11 C -0.05844(14) 0.12994(13) 0.94959(7)
H15 H 0.0133(14) 0.0967(13) 0.9494(7)
H16 H -0.0792(13) 0.1410(12) 0.9944(8)
H17 H -0.1089(13) 0.0758(14) 0.9294(7)
C12 C 0.13849(11) 0.17399(11) 0.56004(6)
C13 C 0.17770(11) 0.24713(11) 0.51197(7)
H18 H 0.1817(13) 0.3267(13) 0.5189(7)
C14 C 0.21161(12) 0.20637(12) 0.45188(7)
H19 H 0.2395(11) 0.2573(14) 0.4207(9)
C15 C 0.20620(11) 0.09021(12) 0.43949(6)
C16 C 0.16534(11) 0.01495(11) 0.48538(6)
H20 H 0.1606(12) -0.0620(12) 0.4748(7)
C17 C 0.13242(11) 0.05687(11) 0.54511(7)
H21 H 0.1062(12) 0.0046(12) 0.5761(7)
loop_
_geom_bond_atom_site_label_1
_geom_bond_atom_site_label_2
_geom_bond_site_symmetry_1
_geom_bond_site_symmetry_2
Br1 C15 1_555 1_555
O1 C9 1_555 1_555
O2 C9 1_555 1_555
C1 C2 1_555 1_555
C2 H1 1_555 1_555
H2 C2 1_555 1_555
C3 C2 1_555 1_555
H3 C3 1_555 1_555
H4 C3 1_555 1_555
C4 C3 1_555 1_555
C5 C4 1_555 1_555
H5 C5 1_555 1_555
H6 C5 1_555 1_555
C6 C1 1_555 1_555
H7 C6 1_555 1_555
H8 C6 1_555 1_555
C7 C1 1_555 1_555
H9 C7 1_555 1_555
H10 C7 1_555 1_555
C8 C4 1_555 1_555
H11 C8 1_555 1_555
H12 C8 1_555 1_555
C9 C1 1_555 1_555
C10 O2 1_555 1_555
H13 C10 1_555 1_555
H14 C10 1_555 1_555
C11 C10 1_555 1_555
H15 C11 1_555 1_555
H16 C11 1_555 1_555
H17 C11 1_555 1_555
C12 C4 1_555 1_555
C13 C12 1_555 1_555
H18 C13 1_555 1_555
C14 C13 1_555 1_555
H19 C14 1_555 1_555
C15 C14 1_555 1_555
C16 C15 1_555 1_555
H20 C16 1_555 1_555
C17 C12 1_555 1_555
H21 C17 1_555 1_555
C5 C6 1_555 1_555
C7 C8 1_555 1_555
C16 C17 1_555 1_555

#END
