
#######################################################################
#
#                 Cambridge Crystallographic Data Centre
#                                CCDC 
#
#######################################################################
#
# If this CIF has been generated from an entry in the Cambridge 
# Structural Database, then it will include bibliographic, chemical, 
# crystal, experimental, refinement or atomic coordinate data resulting 
# from the CCDC's data processing and validation procedures.
#
#######################################################################

data_ZONZEJ
_chemical_name_common            
'5-(4-bromophenyl)decahydroquinolinium chloride'
_chemical_formula_moiety         'C15 H21 Br1 N1 1+,Cl1 1-'
_chemical_name_systematic        
'rac-trans-5-(4-Bromophenyl)-trans-decahydroquinolinium chloride'
_symmetry_cell_setting           monoclinic
_symmetry_space_group_name_H-M   'C 2/c'
_symmetry_Int_Tables_number      15
_space_group_name_Hall           '-C 2yn'
loop_
_symmetry_equiv_pos_site_id
_symmetry_equiv_pos_as_xyz
1 x,y,z
2 -x,y,1/2-z
3 1/2+x,1/2+y,z
4 1/2-x,1/2+y,1/2-z
5 -x,-y,-z
6 x,-y,1/2+z
7 1/2-x,1/2-y,-z
8 1/2+x,1/2-y,1/2+z
_cell_length_a                   34.2470(14)
_cell_length_b                   7.3585(3)
_cell_length_c                   26.3303(14)
_cell_angle_alpha                90
_cell_angle_beta                 112.870(5)
_cell_angle_gamma                90
_cell_volume                     6113.79
_exptl_crystal_colour            colorless
_exptl_crystal_description       plate
_cell_formula_units_Z            16
loop_
_atom_site_label
_atom_site_type_symbol
_atom_site_fract_x
_atom_site_fract_y
_atom_site_fract_z
Br1 Br 0.17548(5) 0.0910(2) 0.15881(7)
N1 N 0.4599(3) -0.0475(15) 0.3875(5)
H1 H 0.4923 -0.0329 0.4015
H2 H 0.4532 -0.1844 0.3843
C1 C 0.4444(4) 0.0370(17) 0.4295(5)
H3 H 0.4575 -0.0267 0.4652
H4 H 0.4529 0.1664 0.4352
C2 C 0.3969(4) 0.0222(18) 0.4088(6)
H5 H 0.3890 -0.1071 0.4090
H6 H 0.3870 0.0891 0.4341
C3 C 0.3753(4) 0.0961(18) 0.3520(5)
H7 H 0.3787 0.2299 0.3534
H8 H 0.3446 0.0697 0.3391
C4 C 0.3917(4) 0.0201(16) 0.3100(5)
H9 H 0.3846 -0.1124 0.3059
C5 C 0.3715(4) 0.1047(17) 0.2526(5)
H10 H 0.3802 0.2354 0.2573
C6 C 0.3915(4) 0.0228(17) 0.2151(6)
H11 H 0.3833 -0.1068 0.2087
H12 H 0.3798 0.0854 0.1790
C7 C 0.4390(4) 0.0357(18) 0.2377(6)
H13 H 0.4499 -0.0308 0.2132
H14 H 0.4476 0.1646 0.2388
C8 C 0.4577(5) -0.0433(18) 0.2944(6)
H15 H 0.4526 -0.1760 0.2920
H16 H 0.4888 -0.0240 0.3096
C9 C 0.4403(4) 0.0358(16) 0.3332(6)
H17 H 0.4476 0.1680 0.3372
C10 C 0.23552(18) 0.0997(13) 0.1842(4)
C11 C 0.2570(2) 0.2645(10) 0.1968(4)
H18 H 0.2415 0.3753 0.1902
C12 C 0.3010(2) 0.2673(8) 0.2192(4)
H19 H 0.3157 0.3800 0.2278
C13 C 0.32361(18) 0.1052(10) 0.2289(4)
C14 C 0.3022(3) -0.0596(9) 0.2163(4)
H20 H 0.3176 -0.1704 0.2229
C15 C 0.2581(3) -0.0624(10) 0.1939(4)
H21 H 0.2434 -0.1751 0.1853
Br2 Br -0.32337(5) -0.0596(3) 0.02055(9)
N2 N -0.0402(3) -0.0521(14) 0.0698(5)
H22 H -0.0080 -0.0304 0.0878
H23 H -0.0452 -0.1904 0.0687
C16 C -0.0557(4) 0.0155(16) 0.0139(5)
H24 H -0.0425 -0.0533 -0.0075
H25 H -0.0479 0.1451 0.0141
C17 C -0.1025(4) -0.0041(15) -0.0123(6)
H26 H -0.1096 -0.1349 -0.0178
H27 H -0.1127 0.0539 -0.0491
C18 C -0.1254(4) 0.0781(19) 0.0203(5)
H28 H -0.1560 0.0501 0.0024
H29 H -0.1220 0.2119 0.0214
C19 C -0.1075(4) 0.0015(16) 0.0798(6)
H30 H -0.1130 -0.1323 0.0780
C20 C -0.1288(4) 0.0895(17) 0.1152(5)
H31 H -0.1233 0.2233 0.1163
C21 C -0.1091(5) 0.017(2) 0.1756(6)
H32 H -0.1210 0.0860 0.1986
H33 H -0.1166 -0.1123 0.1762
C22 C -0.0599(4) 0.0374(18) 0.2002(6)
H34 H -0.0526 0.1680 0.2059
H35 H -0.0482 -0.0234 0.2365
C23 C -0.0401(4) -0.042(2) 0.1638(6)
H36 H -0.0433 -0.1761 0.1629
H37 H -0.0094 -0.0143 0.1792
C24 C -0.0602(4) 0.0318(17) 0.1053(5)
H38 H -0.0548 0.1657 0.1068
C25 C -0.1766(5) 0.062(2) 0.0937(6)
C26 C -0.2056(4) 0.204(2) 0.0830(6)
H39 H -0.1968 0.3273 0.0894
C27 C -0.2490(5) 0.154(3) 0.0620(7)
H40 H -0.2690 0.2499 0.0556
C28 C -0.2650(6) -0.019(3) 0.0501(8)
C29 C -0.2356(5) -0.160(3) 0.0651(7)
H41 H -0.2449 -0.2828 0.0615
C30 C -0.1912(4) -0.1183(19) 0.0860(6)
H42 H -0.1713 -0.2149 0.0949
Cl1 Cl 0.55661(9) 0.0291(4) 0.43262(15)
Cl2 Cl 0.05714(9) 0.0334(4) 0.12419(14)
loop_
_geom_bond_atom_site_label_1
_geom_bond_atom_site_label_2
_geom_bond_site_symmetry_1
_geom_bond_site_symmetry_2
Br1 C10 1_555 1_555
N1 H1 1_555 1_555
H2 N1 1_555 1_555
C1 N1 1_555 1_555
H3 C1 1_555 1_555
H4 C1 1_555 1_555
C2 C1 1_555 1_555
H5 C2 1_555 1_555
H6 C2 1_555 1_555
C3 C2 1_555 1_555
H7 C3 1_555 1_555
H8 C3 1_555 1_555
C4 C3 1_555 1_555
H9 C4 1_555 1_555
C5 C4 1_555 1_555
H10 C5 1_555 1_555
C6 C5 1_555 1_555
H11 C6 1_555 1_555
H12 C6 1_555 1_555
C7 C6 1_555 1_555
H13 C7 1_555 1_555
H14 C7 1_555 1_555
C8 C7 1_555 1_555
H15 C8 1_555 1_555
H16 C8 1_555 1_555
C9 N1 1_555 1_555
H17 C9 1_555 1_555
C10 C11 1_555 1_555
C11 H18 1_555 1_555
C12 C11 1_555 1_555
H19 C12 1_555 1_555
C13 C5 1_555 1_555
C14 C13 1_555 1_555
H20 C14 1_555 1_555
C15 C10 1_555 1_555
H21 C15 1_555 1_555
Br2 C28 1_555 1_555
N2 H22 1_555 1_555
H23 N2 1_555 1_555
C16 N2 1_555 1_555
H24 C16 1_555 1_555
H25 C16 1_555 1_555
C17 C16 1_555 1_555
H26 C17 1_555 1_555
H27 C17 1_555 1_555
C18 C17 1_555 1_555
H28 C18 1_555 1_555
H29 C18 1_555 1_555
C19 C18 1_555 1_555
H30 C19 1_555 1_555
C20 C19 1_555 1_555
H31 C20 1_555 1_555
C21 C20 1_555 1_555
H32 C21 1_555 1_555
H33 C21 1_555 1_555
C22 C21 1_555 1_555
H34 C22 1_555 1_555
H35 C22 1_555 1_555
C23 C22 1_555 1_555
H36 C23 1_555 1_555
H37 C23 1_555 1_555
C24 N2 1_555 1_555
H38 C24 1_555 1_555
C25 C20 1_555 1_555
C26 C25 1_555 1_555
H39 C26 1_555 1_555
C27 C26 1_555 1_555
H40 C27 1_555 1_555
C28 C27 1_555 1_555
C29 C28 1_555 1_555
H41 C29 1_555 1_555
C30 C25 1_555 1_555
H42 C30 1_555 1_555
C4 C9 1_555 1_555
C8 C9 1_555 1_555
C12 C13 1_555 1_555
C14 C15 1_555 1_555
C19 C24 1_555 1_555
C23 C24 1_555 1_555
C29 C30 1_555 1_555

#END
