
#######################################################################
#
#                 Cambridge Crystallographic Data Centre
#                                CCDC 
#
#######################################################################
#
# If this CIF has been generated from an entry in the Cambridge 
# Structural Database, then it will include bibliographic, chemical, 
# crystal, experimental, refinement or atomic coordinate data resulting 
# from the CCDC's data processing and validation procedures.
#
#######################################################################

data_ZONZIN
_chemical_formula_moiety         'C19 H25 Br1 Si1'
_chemical_name_systematic        
(2-[4-(4-Bromophenyl)bicyclo[2.2.2]oct-1-yl]ethynyl)(trimethyl)silane
_symmetry_cell_setting           monoclinic
_symmetry_space_group_name_H-M   'P 21'
_symmetry_Int_Tables_number      4
_space_group_name_Hall           'P 2yb'
loop_
_symmetry_equiv_pos_site_id
_symmetry_equiv_pos_as_xyz
1 x,y,z
2 -x,1/2+y,-z
_cell_length_a                   6.4240(6)
_cell_length_b                   7.7298(8)
_cell_length_c                   17.9089(15)
_cell_angle_alpha                90
_cell_angle_beta                 90.039(6)
_cell_angle_gamma                90
_cell_volume                     889.288
_exptl_crystal_colour            colorless
_exptl_crystal_description       plate
_cell_formula_units_Z            2
loop_
_atom_site_label
_atom_site_type_symbol
_atom_site_fract_x
_atom_site_fract_y
_atom_site_fract_z
Br1 Br 0.7602(2) 0.5616(4) 0.30381(4)
Si1 Si 0.8221(3) 0.5575(8) 1.05072(11)
C1 C 0.8071(13) 0.554(3) 0.6519(3)
C2 C 1.0324(12) 0.579(2) 0.6829(4)
H1 H 1.0775 0.7151 0.6799
H2 H 1.1432 0.5032 0.6507
C3 C 1.0279(16) 0.5154(15) 0.7681(5)
H3 H 1.0554 0.3765 0.7713
H4 H 1.1473 0.5816 0.8006
C4 C 0.8113(12) 0.560(3) 0.7977(4)
C5 C 0.746(3) 0.7396(14) 0.7670(5)
H5 H 0.6031 0.7819 0.7942
H6 H 0.8673 0.8342 0.7791
C6 C 0.711(2) 0.7284(17) 0.6819(7)
H7 H 0.7855 0.8380 0.6544
H8 H 0.5451 0.7326 0.6696
C7 C 0.688(3) 0.408(3) 0.6837(10)
H9 H 0.7707 0.2874 0.6727
H10 H 0.5367 0.4000 0.6561
C8 C 0.654(2) 0.4265(17) 0.7696(6)
H11 H 0.4955 0.4700 0.7811
H12 H 0.6780 0.3026 0.7973
C9 C 0.7988(14) 0.549(3) 0.5660(3)
C10 C 0.9673(18) 0.5234(18) 0.5227(5)
H13 H 1.1166 0.5054 0.5493
C11 C 0.9573(18) 0.5196(17) 0.4458(6)
H14 H 1.0895 0.4768 0.4135
C12 C 0.7748(16) 0.572(3) 0.4101(3)
C13 C 0.6001(18) 0.598(2) 0.4489(6)
H15 H 0.4532 0.6153 0.4205
C14 C 0.6107(16) 0.6021(17) 0.5284(5)
H16 H 0.4783 0.6455 0.5604
C15 C 0.8152(13) 0.547(3) 0.8811(4)
C16 C 0.8211(14) 0.542(2) 0.9483(4)
C17 C 1.1002(13) 0.564(3) 1.0843(4)
H17 H 1.1675 0.4345 1.0806
H18 H 1.1043 0.6074 1.1422
H19 H 1.1895 0.6526 1.0497
C18 C 0.685(3) 0.3529(19) 1.0849(7)
H20 H 0.5193 0.3621 1.0730
H21 H 0.7086 0.3393 1.1449
H22 H 0.7500 0.2406 1.0564
C19 C 0.697(3) 0.744(2) 1.0864(8)
H23 H 0.8040 0.8535 1.0844
H24 H 0.6500 0.7210 1.1440
H25 H 0.5599 0.7730 1.0527
loop_
_geom_bond_atom_site_label_1
_geom_bond_atom_site_label_2
_geom_bond_site_symmetry_1
_geom_bond_site_symmetry_2
Br1 C12 1_555 1_555
Si1 C16 1_555 1_555
C1 C2 1_555 1_555
C2 H1 1_555 1_555
H2 C2 1_555 1_555
C3 C2 1_555 1_555
H3 C3 1_555 1_555
H4 C3 1_555 1_555
C4 C3 1_555 1_555
C5 C4 1_555 1_555
H5 C5 1_555 1_555
H6 C5 1_555 1_555
C6 C1 1_555 1_555
H7 C6 1_555 1_555
H8 C6 1_555 1_555
C7 C1 1_555 1_555
H9 C7 1_555 1_555
H10 C7 1_555 1_555
C8 C4 1_555 1_555
H11 C8 1_555 1_555
H12 C8 1_555 1_555
C9 C1 1_555 1_555
C10 C9 1_555 1_555
H13 C10 1_555 1_555
C11 C10 1_555 1_555
H14 C11 1_555 1_555
C12 C11 1_555 1_555
C13 C12 1_555 1_555
H15 C13 1_555 1_555
C14 C9 1_555 1_555
H16 C14 1_555 1_555
C15 C4 1_555 1_555
C16 C15 1_555 1_555
C17 Si1 1_555 1_555
H17 C17 1_555 1_555
H18 C17 1_555 1_555
H19 C17 1_555 1_555
C18 Si1 1_555 1_555
H20 C18 1_555 1_555
H21 C18 1_555 1_555
H22 C18 1_555 1_555
C19 Si1 1_555 1_555
H23 C19 1_555 1_555
H24 C19 1_555 1_555
H25 C19 1_555 1_555
C5 C6 1_555 1_555
C7 C8 1_555 1_555
C13 C14 1_555 1_555

#END
