
#######################################################################
#
#                 Cambridge Crystallographic Data Centre
#                                CCDC 
#
#######################################################################
#
# If this CIF has been generated from an entry in the Cambridge 
# Structural Database, then it will include bibliographic, chemical, 
# crystal, experimental, refinement or atomic coordinate data resulting 
# from the CCDC's data processing and validation procedures.
#
#######################################################################

data_ZOQCIT
_chemical_formula_moiety         'C20 H16 N2 O2'
_chemical_name_systematic        3,6-bis(Phenylcarbonoimidoyl)benzene-1,2-diol
_symmetry_cell_setting           tetragonal
_symmetry_space_group_name_H-M   'P 43 21 2'
_symmetry_Int_Tables_number      96
_space_group_name_Hall           'P 4nw 2abw'
loop_
_symmetry_equiv_pos_site_id
_symmetry_equiv_pos_as_xyz
1 x,y,z
2 1/2-y,1/2+x,3/4+z
3 -x,-y,1/2+z
4 1/2+y,1/2-x,1/4+z
5 1/2+x,1/2-y,1/4-z
6 y,x,-z
7 1/2-x,1/2+y,3/4-z
8 -y,-x,1/2-z
_cell_length_a                   7.0094(3)
_cell_length_b                   7.0094(3)
_cell_length_c                   32.787(2)
_cell_angle_alpha                90
_cell_angle_beta                 90
_cell_angle_gamma                90
_cell_volume                     1610.88
_exptl_crystal_colour            colorless
_exptl_crystal_description       rod
_cell_formula_units_Z            4
loop_
_atom_site_label
_atom_site_type_symbol
_atom_site_fract_x
_atom_site_fract_y
_atom_site_fract_z
O1 O 0.2804(2) 0.5154(2) 0.01904(5)
H1 H 0.2202 0.5981 0.0299
N1 N 0.2234(3) 0.8402(3) 0.05348(5)
C1 C 0.0898(3) 0.9705(3) 0.07029(6)
C2 C 0.3890(3) 0.8938(3) 0.04211(6)
H2 H 0.4279 1.0185 0.0472
C3 C 0.7030(3) 0.8228(3) 0.01037(7)
H3 H 0.7441 0.9447 0.0173
C4 C 0.0730(4) 1.1562(3) 0.05582(6)
H4 H 0.1571 1.2011 0.0361
C5 C -0.0348(4) 0.9060(4) 0.10017(7)
H5 H -0.0250 0.7817 0.1099
C6 C 0.5183(3) 0.7634(3) 0.02131(6)
C7 C -0.1915(4) 1.2108(4) 0.10087(7)
H6 H -0.2852 1.2913 0.1112
C8 C 0.4567(3) 0.5807(3) 0.01038(6)
C9 C -0.0689(4) 1.2742(4) 0.07076(7)
H7 H -0.0819 1.3971 0.0605
C10 C -0.1735(4) 1.0264(4) 0.11543(8)
H8 H -0.2556 0.9831 0.1357
O1E O 0.5154(2) 0.2804(2) -0.01904(5)
H1E H 0.5981 0.2202 -0.0299
N1E N 0.8402(3) 0.2234(3) -0.05348(5)
C1E C 0.9705(3) 0.0898(3) -0.07029(6)
C2E C 0.8938(3) 0.3890(3) -0.04211(6)
H2E H 1.0185 0.4279 -0.0472
C3E C 0.8228(3) 0.7030(3) -0.01037(7)
H3E H 0.9447 0.7441 -0.0173
C4E C 1.1562(3) 0.0730(4) -0.05582(6)
H4E H 1.2011 0.1571 -0.0361
C5E C 0.9060(4) -0.0348(4) -0.10017(7)
H5E H 0.7817 -0.0250 -0.1099
C6E C 0.7634(3) 0.5183(3) -0.02131(6)
C7E C 1.2108(4) -0.1915(4) -0.10087(7)
H6E H 1.2913 -0.2852 -0.1112
C8E C 0.5807(3) 0.4567(3) -0.01038(6)
C9E C 1.2742(4) -0.0689(4) -0.07076(7)
H7E H 1.3971 -0.0819 -0.0605
C10E C 1.0264(4) -0.1735(4) -0.11543(8)
H8E H 0.9831 -0.2556 -0.1357
loop_
_geom_bond_atom_site_label_1
_geom_bond_atom_site_label_2
_geom_bond_site_symmetry_1
_geom_bond_site_symmetry_2
O1 H1 1_555 1_555
N1 C1 1_555 1_555
C1 C4 1_555 1_555
C2 N1 1_555 1_555
H2 C2 1_555 1_555
C3 H3 1_555 1_555
C4 H4 1_555 1_555
C5 C1 1_555 1_555
H5 C5 1_555 1_555
C6 C2 1_555 1_555
C7 H6 1_555 1_555
C8 O1 1_555 1_555
C9 C4 1_555 1_555
H7 C9 1_555 1_555
C10 C5 1_555 1_555
H8 C10 1_555 1_555
O1E H1E 1_555 1_555
N1E C1E 1_555 1_555
C1E C4E 1_555 1_555
C2E N1E 1_555 1_555
H2E C2E 1_555 1_555
C3E C3 1_555 1_555
H3E C3E 1_555 1_555
C4E H4E 1_555 1_555
C5E C1E 1_555 1_555
H5E C5E 1_555 1_555
C6E C2E 1_555 1_555
C7E H6E 1_555 1_555
C8E C8 1_555 1_555
C9E C4E 1_555 1_555
H7E C9E 1_555 1_555
C10E C5E 1_555 1_555
H8E C10E 1_555 1_555
C3 C6 1_555 1_555
C6 C8 1_555 1_555
C7 C9 1_555 1_555
C7 C10 1_555 1_555
O1E C8E 1_555 1_555
C3E C6E 1_555 1_555
C6E C8E 1_555 1_555
C7E C9E 1_555 1_555
C7E C10E 1_555 1_555

#END
