
#######################################################################
#
#                 Cambridge Crystallographic Data Centre
#                                CCDC 
#
#######################################################################
#
# If this CIF has been generated from an entry in the Cambridge 
# Structural Database, then it will include bibliographic, chemical, 
# crystal, experimental, refinement or atomic coordinate data resulting 
# from the CCDC's data processing and validation procedures.
#
#######################################################################

data_ZOQDAM
_chemical_formula_moiety         'C11 H10 N2 O2'
_chemical_name_systematic        2-Cyano-3-(2-methoxyphenyl)-2-propenamide
_symmetry_cell_setting           monoclinic
_symmetry_space_group_name_H-M   'I 2/a'
_symmetry_Int_Tables_number      15
_space_group_name_Hall           '-I 2ya'
loop_
_symmetry_equiv_pos_site_id
_symmetry_equiv_pos_as_xyz
1 x,y,z
2 1/2-x,y,-z
3 1/2+x,1/2+y,1/2+z
4 -x,1/2+y,1/2-z
5 -x,-y,-z
6 1/2+x,-y,z
7 1/2-x,1/2-y,1/2-z
8 x,1/2-y,1/2+z
_cell_length_a                   13.7381(9)
_cell_length_b                   8.8770(4)
_cell_length_c                   17.5640(9)
_cell_angle_alpha                90
_cell_angle_beta                 103.368(6)
_cell_angle_gamma                90
_cell_volume                     2083.95
_exptl_crystal_colour            yellow
_exptl_crystal_description       block
_cell_formula_units_Z            8
loop_
_atom_site_label
_atom_site_type_symbol
_atom_site_fract_x
_atom_site_fract_y
_atom_site_fract_z
O1 O 0.07945(10) 0.65094(13) 0.29288(7)
O2 O 0.15108(13) 0.76188(16) 0.54529(9)
N1 N 0.02799(12) 0.42670(16) 0.23912(8)
H1 H 0.0124 0.4642 0.1927
H2 H 0.0192 0.3322 0.2461
N2 N 0.08869(16) 0.15365(19) 0.38274(10)
C1 C 0.06565(12) 0.51488(19) 0.30014(10)
C2 C 0.08956(14) 0.2830(2) 0.38293(10)
C3 C 0.09079(12) 0.44348(18) 0.37968(10)
C4 C 0.11126(12) 0.53343(19) 0.44279(10)
H3 H 0.1110 0.6355 0.4309
C5 C 0.13371(12) 0.50151(19) 0.52619(10)
C6 C 0.13567(15) 0.3575(2) 0.55823(11)
H4 H 0.1222 0.2749 0.5249
C7 C 0.15694(16) 0.3342(3) 0.63795(12)
H5 H 0.1592 0.2369 0.6579
C8 C 0.17471(16) 0.4552(3) 0.68768(12)
H6 H 0.1877 0.4396 0.7414
C9 C 0.17355(15) 0.5992(3) 0.65906(12)
H7 H 0.1861 0.6805 0.6933
C10 C 0.15346(14) 0.6233(2) 0.57854(11)
C11 C 0.1879(3) 0.8885(3) 0.59412(18)
H8 H 0.1867 0.9766 0.5622
H9 H 0.2552 0.8690 0.6225
H10 H 0.1463 0.9048 0.6304
loop_
_geom_bond_atom_site_label_1
_geom_bond_atom_site_label_2
_geom_bond_site_symmetry_1
_geom_bond_site_symmetry_2
O1 C1 1_555 1_555
O2 C10 1_555 1_555
N1 H1 1_555 1_555
H2 N1 1_555 1_555
N2 C2 1_555 1_555
C1 N1 1_555 1_555
C2 C3 1_555 1_555
C3 C1 1_555 1_555
C4 C3 1_555 1_555
H3 C4 1_555 1_555
C5 C4 1_555 1_555
C6 C5 1_555 1_555
H4 C6 1_555 1_555
C7 C6 1_555 1_555
H5 C7 1_555 1_555
C8 C7 1_555 1_555
H6 C8 1_555 1_555
C9 C8 1_555 1_555
H7 C9 1_555 1_555
C10 C5 1_555 1_555
C11 O2 1_555 1_555
H8 C11 1_555 1_555
H9 C11 1_555 1_555
H10 C11 1_555 1_555
C9 C10 1_555 1_555

#END
