
#######################################################################
#
#                 Cambridge Crystallographic Data Centre
#                                CCDC 
#
#######################################################################
#
# If this CIF has been generated from an entry in the Cambridge 
# Structural Database, then it will include bibliographic, chemical, 
# crystal, experimental, refinement or atomic coordinate data resulting 
# from the CCDC's data processing and validation procedures.
#
#######################################################################

data_ZOQMUP
_chemical_formula_moiety         'C20 H32 O4'
_chemical_name_systematic        
4-methoxy-9,15,15-trimethyl-5,14,16-trioxapentacyclo[10.5.2.0^1,10^.0^4,9^.0^13,17^]nonadecane
_symmetry_cell_setting           orthorhombic
_symmetry_space_group_name_H-M   'P 21 21 21'
_symmetry_Int_Tables_number      19
_space_group_name_Hall           'P 2ac 2ab'
loop_
_symmetry_equiv_pos_site_id
_symmetry_equiv_pos_as_xyz
1 x,y,z
2 1/2+x,1/2-y,-z
3 -x,1/2+y,1/2-z
4 1/2-x,-y,1/2+z
_cell_length_a                   7.8967(2)
_cell_length_b                   8.3168(3)
_cell_length_c                   27.2944(8)
_cell_angle_alpha                90
_cell_angle_beta                 90
_cell_angle_gamma                90
_cell_volume                     1792.57
_exptl_crystal_colour            colorless
_exptl_crystal_description       plate
_cell_formula_units_Z            4
loop_
_atom_site_label
_atom_site_type_symbol
_atom_site_fract_x
_atom_site_fract_y
_atom_site_fract_z
C1 C 0.4160(2) 0.5424(2) 0.51044(5)
C2 C 0.2919(2) 0.6624(2) 0.48938(5)
C3 C 0.22032(18) 0.59880(19) 0.44112(5)
C4 C 0.35891(16) 0.54458(16) 0.40468(4)
C5 C 0.2688(2) 0.4576(2) 0.36232(6)
C6 C 0.47948(18) 0.42728(15) 0.43170(5)
O1 O 0.54367(13) 0.49731(12) 0.47565(3)
O2 O 0.38001(14) 0.28895(12) 0.44305(4)
C7 C 0.4618(3) 0.1666(2) 0.47105(7)
C8 C 0.63566(19) 0.38586(16) 0.40139(5)
C9 C 0.73765(17) 0.53523(16) 0.38752(5)
C10 C 0.63233(16) 0.66235(14) 0.36071(4)
C11 C 0.72440(16) 0.82481(15) 0.36227(4)
O3 O 0.88046(12) 0.82087(12) 0.33548(4)
C12 C 0.89431(17) 0.97010(17) 0.30995(5)
C13 C 0.9886(2) 0.9419(2) 0.26256(6)
C14 C 0.9760(2) 1.0967(2) 0.34226(6)
O4 O 0.72523(13) 1.01392(13) 0.29814(4)
C15 C 0.61903(16) 0.95766(16) 0.33676(5)
C16 C 0.45514(17) 0.88810(18) 0.31697(5)
C17 C 0.35673(17) 0.82307(18) 0.36121(5)
C18 C 0.46369(15) 0.69444(15) 0.38872(4)
C19 C 0.4916(2) 0.7505(2) 0.28147(5)
C20 C 0.60273(19) 0.62129(18) 0.30636(5)
H1 H 0.475(2) 0.590(2) 0.5384(6)
H2 H 0.360(3) 0.445(2) 0.5216(6)
H3 H 0.199(3) 0.678(2) 0.5136(6)
H4 H 0.347(3) 0.768(3) 0.4835(6)
H5 H 0.148(2) 0.680(2) 0.4253(6)
H6 H 0.150(2) 0.508(2) 0.4482(6)
H7 H 0.344(3) 0.402(3) 0.3396(7)
H8 H 0.196(3) 0.370(3) 0.3756(7)
H9 H 0.198(3) 0.528(3) 0.3420(7)
H10 H 0.372(3) 0.107(3) 0.4872(8)
H11 H 0.535(3) 0.214(3) 0.4989(9)
H12 H 0.546(3) 0.094(3) 0.4500(8)
H13 H 0.705(2) 0.312(2) 0.4189(6)
H14 H 0.602(2) 0.327(2) 0.3703(6)
H15 H 0.779(2) 0.586(2) 0.4191(6)
H16 H 0.839(2) 0.504(2) 0.3676(6)
H17 H 0.746(2) 0.8546(19) 0.3965(5)
H18 H 0.995(4) 1.039(3) 0.2458(8)
H19 H 1.108(3) 0.905(3) 0.2690(7)
H20 H 0.926(3) 0.858(3) 0.2428(8)
H21 H 0.969(3) 1.204(3) 0.3256(7)
H22 H 1.092(3) 1.072(3) 0.3497(7)
H23 H 0.913(3) 1.103(3) 0.3735(7)
H24 H 0.596(2) 1.051(2) 0.3596(6)
H25 H 0.386(2) 0.971(2) 0.3006(6)
H26 H 0.331(2) 0.914(2) 0.3859(6)
H27 H 0.246(2) 0.780(2) 0.3511(6)
H28 H 0.499(2) 0.7435(19) 0.4211(6)
H29 H 0.550(2) 0.790(2) 0.2532(7)
H30 H 0.390(3) 0.709(2) 0.2704(6)
H31 H 0.714(2) 0.615(2) 0.2909(6)
H32 H 0.554(2) 0.513(2) 0.3026(6)
loop_
_geom_bond_atom_site_label_1
_geom_bond_atom_site_label_2
_geom_bond_site_symmetry_1
_geom_bond_site_symmetry_2
C1 C2 1_555 1_555
C2 C3 1_555 1_555
C3 C4 1_555 1_555
C4 C5 1_555 1_555
C5 H7 1_555 1_555
C6 C4 1_555 1_555
O1 C1 1_555 1_555
O2 C6 1_555 1_555
C7 O2 1_555 1_555
C8 C6 1_555 1_555
C9 C8 1_555 1_555
C10 C9 1_555 1_555
C11 C10 1_555 1_555
O3 C11 1_555 1_555
C12 O3 1_555 1_555
C13 C12 1_555 1_555
C14 C12 1_555 1_555
O4 C12 1_555 1_555
C15 C11 1_555 1_555
C16 C15 1_555 1_555
C17 C16 1_555 1_555
C18 C4 1_555 1_555
C19 C16 1_555 1_555
C20 C10 1_555 1_555
H1 C1 1_555 1_555
H2 C1 1_555 1_555
H3 C2 1_555 1_555
H4 C2 1_555 1_555
H5 C3 1_555 1_555
H6 C3 1_555 1_555
H8 C5 1_555 1_555
H9 C5 1_555 1_555
H10 C7 1_555 1_555
H11 C7 1_555 1_555
H12 C7 1_555 1_555
H13 C8 1_555 1_555
H14 C8 1_555 1_555
H15 C9 1_555 1_555
H16 C9 1_555 1_555
H17 C11 1_555 1_555
H18 C13 1_555 1_555
H19 C13 1_555 1_555
H20 C13 1_555 1_555
H21 C14 1_555 1_555
H22 C14 1_555 1_555
H23 C14 1_555 1_555
H24 C15 1_555 1_555
H25 C16 1_555 1_555
H26 C17 1_555 1_555
H27 C17 1_555 1_555
H28 C18 1_555 1_555
H29 C19 1_555 1_555
H30 C19 1_555 1_555
H31 C20 1_555 1_555
H32 C20 1_555 1_555
C6 O1 1_555 1_555
C10 C18 1_555 1_555
O4 C15 1_555 1_555
C17 C18 1_555 1_555
C19 C20 1_555 1_555

#END
