
#######################################################################
#
#                 Cambridge Crystallographic Data Centre
#                                CCDC 
#
#######################################################################
#
# If this CIF has been generated from an entry in the Cambridge 
# Structural Database, then it will include bibliographic, chemical, 
# crystal, experimental, refinement or atomic coordinate data resulting 
# from the CCDC's data processing and validation procedures.
#
#######################################################################

data_ZOQPAY
_chemical_formula_moiety         'C55 H39 N1,1.5(C3 H6 O1)'
_chemical_name_systematic        
'2,3-bis(4-(triphenylvinyl)phenyl)acrylonitrile acetone solvate'
_symmetry_cell_setting           monoclinic
_symmetry_space_group_name_H-M   'C 2'
_symmetry_Int_Tables_number      5
_space_group_name_Hall           'C 2y'
loop_
_symmetry_equiv_pos_site_id
_symmetry_equiv_pos_as_xyz
1 x,y,z
2 -x,y,-z
3 1/2+x,1/2+y,z
4 1/2-x,1/2+y,-z
_cell_length_a                   42.9951(16)
_cell_length_b                   9.1135(3)
_cell_length_c                   12.2084(5)
_cell_angle_alpha                90
_cell_angle_beta                 106.498(4)
_cell_angle_gamma                90
_cell_volume                     4586.74
_exptl_crystal_colour            yellow
_exptl_crystal_description       block
_cell_formula_units_Z            4
loop_
_atom_site_label
_atom_site_type_symbol
_atom_site_fract_x
_atom_site_fract_y
_atom_site_fract_z
C1 C 0.46959(10) 0.2602(6) 0.7765(4)
N1 N 0.45358(11) 0.1574(6) 0.7529(5)
C2 C 0.49168(8) 0.3907(5) 0.8039(3)
C3 C 0.48061(9) 0.5298(5) 0.7860(3)
H1 H 0.4966 0.6044 0.7962
C4 C 0.52704(8) 0.3559(5) 0.8433(3)
C5 C 0.53819(7) 0.2251(5) 0.8113(3)
H2 H 0.5232 0.1567 0.7666
C6 C 0.57107(7) 0.1929(4) 0.8438(3)
H3 H 0.5784 0.1033 0.8200
C7 C 0.59355(7) 0.2901(4) 0.9111(2)
C8 C 0.58250(8) 0.4187(4) 0.9467(3)
H4 H 0.5974 0.4848 0.9944
C9 C 0.54931(8) 0.4521(5) 0.9128(3)
H5 H 0.5419 0.5410 0.9374
C10 C 0.62913(6) 0.2541(4) 0.9478(2)
C11 C 0.64550(7) 0.2274(4) 0.8709(2)
C12 C 0.63013(6) 0.2495(4) 0.7452(2)
C13 C 0.61442(8) 0.3786(4) 0.7011(3)
H6 H 0.6130 0.4558 0.7517
C14 C 0.60084(9) 0.3969(5) 0.5849(3)
H7 H 0.5901 0.4860 0.5563
C15 C 0.60285(9) 0.2860(6) 0.5105(3)
H8 H 0.5934 0.2980 0.4306
C16 C 0.61853(10) 0.1587(5) 0.5524(3)
H9 H 0.6201 0.0823 0.5012
C17 C 0.63220(8) 0.1399(5) 0.6685(3)
H10 H 0.6431 0.0509 0.6962
C18 C 0.67939(6) 0.1693(4) 0.9011(2)
C19 C 0.68897(7) 0.0501(4) 0.9748(2)
H11 H 0.6742 0.0071 1.0102
C20 C 0.72010(7) -0.0054(4) 0.9960(3)
H12 H 0.7264 -0.0869 1.0459
C21 C 0.74196(7) 0.0552(4) 0.9462(3)
H13 H 0.7634 0.0169 0.9628
C22 C 0.73281(7) 0.1712(4) 0.8724(3)
H14 H 0.7477 0.2123 0.8365
C23 C 0.70192(7) 0.2281(4) 0.8505(2)
H15 H 0.6958 0.3090 0.7999
C24 C 0.64377(7) 0.2500(4) 1.0757(2)
C25 C 0.62569(7) 0.1880(4) 1.1426(2)
H16 H 0.6050 0.1473 1.1063
C26 C 0.63722(8) 0.1844(4) 1.2602(3)
H17 H 0.6246 0.1403 1.3038
C27 C 0.66671(9) 0.2442(5) 1.3140(3)
H18 H 0.6746 0.2426 1.3949
C28 C 0.68511(8) 0.3075(4) 1.2493(3)
H19 H 0.7056 0.3500 1.2864
C29 C 0.67367(7) 0.3088(4) 1.1304(3)
H20 H 0.6866 0.3505 1.0868
C30 C 0.44679(8) 0.5792(5) 0.7526(3)
C31 C 0.42170(8) 0.5010(4) 0.7769(3)
H21 H 0.4262 0.4096 0.8155
C32 C 0.39034(7) 0.5550(4) 0.7453(2)
H22 H 0.3736 0.5007 0.7637
C33 C 0.38293(6) 0.6866(4) 0.6876(2)
C34 C 0.40768(7) 0.7652(5) 0.6617(3)
H23 H 0.4029 0.8548 0.6205
C35 C 0.43929(8) 0.7133(5) 0.6958(3)
H24 H 0.4561 0.7698 0.6803
C36 C 0.34872(6) 0.7410(4) 0.6503(2)
C37 C 0.33121(6) 0.7633(4) 0.7252(2)
C38 C 0.34462(6) 0.7535(4) 0.8512(2)
C39 C 0.37438(7) 0.8163(4) 0.9103(3)
H25 H 0.3870 0.8651 0.8691
C40 C 0.38557(8) 0.8077(4) 1.0289(3)
H26 H 0.4059 0.8502 1.0679
C41 C 0.36746(8) 0.7381(5) 1.0903(3)
H27 H 0.3751 0.7336 1.1713
C42 C 0.33830(8) 0.6754(4) 1.0340(3)
H28 H 0.3260 0.6257 1.0759
C43 C 0.32681(7) 0.6844(4) 0.9159(2)
H29 H 0.3063 0.6425 0.8782
C44 C 0.29566(6) 0.7968(4) 0.6835(2)
C45 C 0.28339(7) 0.9250(4) 0.7162(2)
H30 H 0.2975 0.9901 0.7680
C46 C 0.25050(7) 0.9594(4) 0.6737(3)
H31 H 0.2424 1.0485 0.6952
C47 C 0.22970(7) 0.8628(4) 0.5997(3)
H32 H 0.2073 0.8854 0.5706
C48 C 0.24173(7) 0.7339(4) 0.5688(2)
H33 H 0.2275 0.6676 0.5188
C49 C 0.27424(7) 0.7002(4) 0.6098(2)
H34 H 0.2822 0.6109 0.5879
C50 C 0.33503(6) 0.7608(4) 0.5245(2)
C51 C 0.33967(7) 0.6532(4) 0.4504(3)
H35 H 0.3522 0.5689 0.4804
C52 C 0.32626(8) 0.6666(5) 0.3331(3)
H36 H 0.3294 0.5909 0.2838
C53 C 0.30829(8) 0.7897(5) 0.2877(3)
H37 H 0.2989 0.7985 0.2076
C54 C 0.30412(8) 0.8993(4) 0.3600(3)
H38 H 0.2921 0.9846 0.3293
C55 C 0.31739(7) 0.8861(4) 0.4773(3)
H39 H 0.3145 0.9629 0.5261
C56 C 0.5000 0.854(2) 1.0000
C57 C 0.4707(2) 0.9084(15) 0.9928(9)
H40 H 0.4695 0.9345 1.0693
H41 H 0.4542 0.8347 0.9593
H42 H 0.4670 0.9962 0.9444
O1 O 0.5000 0.7098(13) 1.0000
C57A C 0.5293(2) 0.9084(15) 1.0072(9)
H40A H 0.5305 0.9345 0.9307
H41A H 0.5458 0.8347 1.0407
H42A H 0.5330 0.9962 1.0556
C58? C 0.5020(5) 0.6611(17) 0.784(2)
N2? N 0.5173(5) 0.7575(17) 0.783(2)
H43? H 0.4765 0.3124 0.7910
C59? C 0.5268(4) 0.815(2) 0.7219(15)
H44? H 0.5391 0.8970 0.7602
H45? H 0.5045 0.8427 0.6911
H46? H 0.5283 0.7358 0.7754
C60? C 0.5400(4) 0.7627(17) 0.6383(12)
C61? C 0.5246(4) 0.6396(18) 0.5778(13)
H47? H 0.5358 0.6089 0.5221
H48? H 0.5022 0.6674 0.5377
H49? H 0.5244 0.5582 0.6302
O2? O 0.5658(3) 0.8223(15) 0.6194(10)
O3? O 0.5131(5) 0.863(3) 0.652(2)
C62? C 0.5135(5) 0.965(3) 0.5773(18)
C63? C 0.5409(6) 1.006(4) 0.548(3)
H50? H 0.5597 0.9484 0.5854
H51? H 0.5363 0.9958 0.4671
H52? H 0.5451 1.1073 0.5691
C64? C 0.4856(6) 1.053(3) 0.523(2)
H53? H 0.4680 1.0167 0.5490
H54? H 0.4892 1.1550 0.5436
H55? H 0.4804 1.0435 0.4417
loop_
_geom_bond_atom_site_label_1
_geom_bond_atom_site_label_2
_geom_bond_site_symmetry_1
_geom_bond_site_symmetry_2
C1 N1 1_555 1_555
C2 C1 1_555 1_555
C3 C2 1_555 1_555
H1 C3 1_555 1_555
C4 C2 1_555 1_555
C5 C4 1_555 1_555
H2 C5 1_555 1_555
C6 C5 1_555 1_555
H3 C6 1_555 1_555
C7 C6 1_555 1_555
C8 C7 1_555 1_555
H4 C8 1_555 1_555
C9 C4 1_555 1_555
H5 C9 1_555 1_555
C10 C7 1_555 1_555
C11 C10 1_555 1_555
C12 C11 1_555 1_555
C13 C12 1_555 1_555
H6 C13 1_555 1_555
C14 C13 1_555 1_555
H7 C14 1_555 1_555
C15 C14 1_555 1_555
H8 C15 1_555 1_555
C16 C15 1_555 1_555
H9 C16 1_555 1_555
C17 C12 1_555 1_555
H10 C17 1_555 1_555
C18 C11 1_555 1_555
C19 C18 1_555 1_555
H11 C19 1_555 1_555
C20 C19 1_555 1_555
H12 C20 1_555 1_555
C21 C20 1_555 1_555
H13 C21 1_555 1_555
C22 C21 1_555 1_555
H14 C22 1_555 1_555
C23 C18 1_555 1_555
H15 C23 1_555 1_555
C24 C10 1_555 1_555
C25 C24 1_555 1_555
H16 C25 1_555 1_555
C26 C25 1_555 1_555
H17 C26 1_555 1_555
C27 C26 1_555 1_555
H18 C27 1_555 1_555
C28 C27 1_555 1_555
H19 C28 1_555 1_555
C29 C24 1_555 1_555
H20 C29 1_555 1_555
C30 C3 1_555 1_555
C31 C30 1_555 1_555
H21 C31 1_555 1_555
C32 C31 1_555 1_555
H22 C32 1_555 1_555
C33 C32 1_555 1_555
C34 C33 1_555 1_555
H23 C34 1_555 1_555
C35 C30 1_555 1_555
H24 C35 1_555 1_555
C36 C33 1_555 1_555
C37 C36 1_555 1_555
C38 C37 1_555 1_555
C39 C38 1_555 1_555
H25 C39 1_555 1_555
C40 C39 1_555 1_555
H26 C40 1_555 1_555
C41 C40 1_555 1_555
H27 C41 1_555 1_555
C42 C41 1_555 1_555
H28 C42 1_555 1_555
C43 C38 1_555 1_555
H29 C43 1_555 1_555
C44 C37 1_555 1_555
C45 C44 1_555 1_555
H30 C45 1_555 1_555
C46 C45 1_555 1_555
H31 C46 1_555 1_555
C47 C46 1_555 1_555
H32 C47 1_555 1_555
C48 C47 1_555 1_555
H33 C48 1_555 1_555
C49 C44 1_555 1_555
H34 C49 1_555 1_555
C50 C36 1_555 1_555
C51 C50 1_555 1_555
H35 C51 1_555 1_555
C52 C51 1_555 1_555
H36 C52 1_555 1_555
C53 C52 1_555 1_555
H37 C53 1_555 1_555
C54 C53 1_555 1_555
H38 C54 1_555 1_555
C55 C50 1_555 1_555
H39 C55 1_555 1_555
C56 C57 1_555 1_555
C57 H40 1_555 1_555
H41 C57 1_555 1_555
H42 C57 1_555 1_555
O1 C56 1_555 1_555
C57A C56 1_555 1_555
H40A C57A 1_555 1_555
H41A C57A 1_555 1_555
H42A C57A 1_555 1_555
C8 C9 1_555 1_555
C16 C17 1_555 1_555
C22 C23 1_555 1_555
C28 C29 1_555 1_555
C34 C35 1_555 1_555
C42 C43 1_555 1_555
C48 C49 1_555 1_555
C54 C55 1_555 1_555

#END
