
#######################################################################
#
#                 Cambridge Crystallographic Data Centre
#                                CCDC 
#
#######################################################################
#
# If this CIF has been generated from an entry in the Cambridge 
# Structural Database, then it will include bibliographic, chemical, 
# crystal, experimental, refinement or atomic coordinate data resulting 
# from the CCDC's data processing and validation procedures.
#
#######################################################################

data_ZOQQUT
_chemical_formula_moiety         'C52 H52 N4 O4,H2 O1,Cs1 1+,F1 1-,C1 H1 Cl3'
_chemical_name_systematic        
'cesium fluoride 1,28,33,33,42,42-hexamethyl-6,9,20,23-tetraoxa-47,48,49,50-tetraazadecacyclo[26.9.9.2^2,5^.2^24,27^.1^29,32^.1^34,37^.1^38,41^.1^43,46^.0^10,19^.0^12,17^]tetrapentaconta-2,4,10,12,14,16,18,24,26,29,31,34,36,38,40,43,45,51,53-nonadecaene chloroform solvate monohydrate'
_symmetry_cell_setting           monoclinic
_symmetry_space_group_name_H-M   'P 21/n'
_symmetry_Int_Tables_number      14
_space_group_name_Hall           '-P 2yn'
loop_
_symmetry_equiv_pos_site_id
_symmetry_equiv_pos_as_xyz
1 x,y,z
2 1/2-x,1/2+y,1/2-z
3 -x,-y,-z
4 1/2+x,1/2-y,1/2+z
_cell_length_a                   10.6749(10)
_cell_length_b                   19.2778(15)
_cell_length_c                   25.096(2)
_cell_angle_alpha                90
_cell_angle_beta                 100.513(2)
_cell_angle_gamma                90
_cell_volume                     5077.78
_exptl_crystal_colour            colorless
_exptl_crystal_description       prisms
_cell_formula_units_Z            4
loop_
_atom_site_label
_atom_site_type_symbol
_atom_site_fract_x
_atom_site_fract_y
_atom_site_fract_z
Cs1 Cs 0.660944(16) 0.037575(10) 0.291015(7)
C1 C 0.5076(2) 0.20991(13) 0.30458(10)
C2 C 0.4096(2) 0.16329(13) 0.30298(11)
H1 H 0.3676 0.1523 0.3322
C3 C 0.3822(2) 0.13445(13) 0.25005(11)
H2 H 0.3183 0.1010 0.2374
C4 C 0.4649(2) 0.16381(13) 0.22040(10)
C5 C 0.4802(2) 0.15401(14) 0.16195(10)
C6 C 0.5926(2) 0.10683(13) 0.16000(10)
C7 C 0.5986(3) 0.04066(13) 0.14037(11)
H3 H 0.5286 0.0137 0.1229
C8 C 0.7280(3) 0.01989(14) 0.15087(11)
H4 H 0.7600 -0.0238 0.1421
C9 C 0.7993(2) 0.07406(13) 0.17594(10)
C10 C 0.9417(2) 0.08267(13) 0.19298(11)
C11 C 0.9814(2) 0.09303(13) 0.25347(11)
C12 C 1.0574(3) 0.05376(15) 0.29225(12)
H5 H 1.0867 0.0080 0.2877
C13 C 1.0841(2) 0.09397(15) 0.34046(11)
H6 H 1.1349 0.0799 0.3738
C14 C 1.0239(2) 0.15638(13) 0.33032(10)
C15 C 1.0302(2) 0.22238(14) 0.36334(10)
C16 C 0.9059(2) 0.23431(14) 0.38262(10)
C17 C 0.8800(3) 0.24186(17) 0.43377(11)
H7 H 0.9403 0.2402 0.4667
C18 C 0.7470(3) 0.25268(16) 0.42870(11)
H8 H 0.7022 0.2597 0.4577
C19 C 0.6946(2) 0.25114(13) 0.37471(10)
C20 C 0.5592(2) 0.26427(13) 0.34625(11)
C21 C 0.3587(3) 0.12063(16) 0.12964(12)
H9 H 0.3444 0.0756 0.1457
H10 H 0.3688 0.1140 0.0919
H11 H 0.2857 0.1510 0.1307
C22 C 0.9850(3) 0.14634(15) 0.16379(11)
H12 H 0.9646 0.1391 0.1245
H13 H 1.0771 0.1526 0.1750
H14 H 0.9407 0.1878 0.1733
C23 C 1.0096(3) 0.01857(16) 0.17628(14)
H15 H 0.9810 -0.0227 0.1935
H16 H 1.1019 0.0240 0.1879
H17 H 0.9896 0.0133 0.1368
C24 C 1.1373(2) 0.21589(16) 0.41311(11)
H18 H 1.1180 0.1776 0.4360
H19 H 1.1441 0.2593 0.4338
H20 H 1.2182 0.2066 0.4012
C25 C 0.4733(3) 0.26762(17) 0.38906(13)
H21 H 0.3860 0.2787 0.3714
H22 H 0.5048 0.3036 0.4157
H23 H 0.4744 0.2227 0.4074
C26 C 0.5544(3) 0.33570(14) 0.31812(13)
H24 H 0.6096 0.3350 0.2909
H25 H 0.5840 0.3716 0.3452
H26 H 0.4667 0.3458 0.3004
C27 C 0.5004(2) 0.22442(14) 0.13559(10)
C28 C 0.5664(2) 0.22741(14) 0.09246(10)
H27 H 0.5972 0.1857 0.0793
C29 C 0.5879(2) 0.28997(14) 0.06845(10)
H28 H 0.6329 0.2909 0.0391
C30 C 0.5438(2) 0.35125(13) 0.08725(10)
C31 C 0.4738(2) 0.34941(14) 0.12885(11)
H29 H 0.4408 0.3910 0.1412
C32 C 0.4527(2) 0.28608(14) 0.15214(11)
H30 H 0.4041 0.2850 0.1803
C33 C 0.5538(2) 0.47457(14) 0.08770(11)
H31 H 0.5864 0.4721 0.1272
H32 H 0.4613 0.4845 0.0819
C34 C 0.6219(2) 0.53065(14) 0.06260(12)
H33 H 0.6025 0.5270 0.0226
H34 H 0.5942 0.5769 0.0731
C35 C 0.8349(2) 0.55685(13) 0.05384(10)
C36 C 0.7957(2) 0.60301(13) 0.01313(10)
H35 H 0.7075 0.6130 0.0026
C37 C 0.8856(2) 0.63642(13) -0.01382(10)
C38 C 0.8476(3) 0.68711(14) -0.05397(11)
H36 H 0.7603 0.6995 -0.0636
C39 C 0.9359(3) 0.71868(15) -0.07928(11)
H37 H 0.9097 0.7533 -0.1059
C40 C 1.0645(3) 0.70005(16) -0.06610(12)
H38 H 1.1248 0.7213 -0.0845
C41 C 1.1042(3) 0.65135(15) -0.02690(11)
H39 H 1.1917 0.6389 -0.0185
C42 C 1.0159(2) 0.61950(13) 0.00119(10)
C43 C 1.0548(2) 0.57248(14) 0.04460(10)
H40 H 1.1426 0.5618 0.0554
C44 C 0.9677(2) 0.54232(12) 0.07109(10)
C45 C 1.1275(2) 0.48330(14) 0.13253(11)
H41 H 1.1706 0.5247 0.1506
H42 H 1.1684 0.4716 0.1013
C46 C 1.1407(3) 0.42367(14) 0.17149(10)
H43 H 1.0849 0.3851 0.1555
H44 H 1.2298 0.4068 0.1781
C47 C 1.1012(2) 0.39035(13) 0.25726(10)
C48 C 1.1556(2) 0.32561(13) 0.25327(11)
H45 H 1.2061 0.3171 0.2265
C49 C 1.1354(2) 0.27340(14) 0.28877(10)
H46 H 1.1742 0.2294 0.2863
C50 C 1.0600(2) 0.28351(13) 0.32802(10)
C51 C 1.0128(3) 0.34990(14) 0.33301(10)
H47 H 0.9649 0.3592 0.3606
C52 C 1.0343(3) 0.40274(14) 0.29839(11)
H48 H 1.0027 0.4480 0.3030
N1 N 0.54231(18) 0.20811(11) 0.25449(8)
H49 H 0.6054 0.2321 0.2455
N2 N 0.71540(19) 0.12678(11) 0.18171(8)
H50 H 0.7370 0.1672 0.1970
N3 N 0.95952(19) 0.15450(11) 0.27765(8)
H51 H 0.9109 0.1881 0.2616
N4 N 0.79216(19) 0.23977(11) 0.34670(8)
H52 H 0.7833 0.2365 0.3112
O1 O 0.57591(17) 0.41096(10) 0.06277(7)
O2 O 0.75551(16) 0.52191(10) 0.08179(7)
O3 O 0.99544(16) 0.49786(9) 0.11404(7)
O4 O 1.10717(18) 0.44401(9) 0.22133(7)
O5 O 0.7050(3) -0.12028(12) 0.31131(11)
H53 H 0.7079 -0.1651 0.2950
H54 H 0.6518 -0.1036 0.2902
F1 F 0.77580(13) 0.25039(7) 0.23364(6)
Cl1 Cl 0.8338(3) 0.13429(18) 0.00670(12)
Cl2 Cl 0.5818(4) 0.08415(17) -0.02106(10)
Cl3 Cl 0.7830(6) -0.0242(2) 0.00697(18)
C53 C 0.7450(9) 0.0631(5) 0.0158(3)
H55 H 0.7371 0.0658 0.0548
Cl4? Cl 0.7724(11) 0.0632(7) -0.0896(4)
Cl5? Cl 0.9093(11) 0.0798(7) 0.0104(5)
Cl6? Cl 0.6241(12) 0.0476(7) -0.0046(6)
C54? C 0.7674(15) 0.0321(10) -0.0274(6)
H56? H 0.7855 -0.0189 -0.0264
loop_
_geom_bond_atom_site_label_1
_geom_bond_atom_site_label_2
_geom_bond_site_symmetry_1
_geom_bond_site_symmetry_2
C1 C2 1_555 1_555
C2 H1 1_555 1_555
C3 C2 1_555 1_555
H2 C3 1_555 1_555
C4 C3 1_555 1_555
C5 C4 1_555 1_555
C6 C5 1_555 1_555
C7 C6 1_555 1_555
H3 C7 1_555 1_555
C8 C7 1_555 1_555
H4 C8 1_555 1_555
C9 C8 1_555 1_555
C10 C9 1_555 1_555
C11 C10 1_555 1_555
C12 C11 1_555 1_555
H5 C12 1_555 1_555
C13 C12 1_555 1_555
H6 C13 1_555 1_555
C14 C13 1_555 1_555
C15 C14 1_555 1_555
C16 C15 1_555 1_555
C17 C16 1_555 1_555
H7 C17 1_555 1_555
C18 C17 1_555 1_555
H8 C18 1_555 1_555
C19 C18 1_555 1_555
C20 C1 1_555 1_555
C21 C5 1_555 1_555
H9 C21 1_555 1_555
H10 C21 1_555 1_555
H11 C21 1_555 1_555
C22 C10 1_555 1_555
H12 C22 1_555 1_555
H13 C22 1_555 1_555
H14 C22 1_555 1_555
C23 C10 1_555 1_555
H15 C23 1_555 1_555
H16 C23 1_555 1_555
H17 C23 1_555 1_555
C24 C15 1_555 1_555
H18 C24 1_555 1_555
H19 C24 1_555 1_555
H20 C24 1_555 1_555
C25 C20 1_555 1_555
H21 C25 1_555 1_555
H22 C25 1_555 1_555
H23 C25 1_555 1_555
C26 C20 1_555 1_555
H24 C26 1_555 1_555
H25 C26 1_555 1_555
H26 C26 1_555 1_555
C27 C5 1_555 1_555
C28 C27 1_555 1_555
H27 C28 1_555 1_555
C29 C28 1_555 1_555
H28 C29 1_555 1_555
C30 C29 1_555 1_555
C31 C30 1_555 1_555
H29 C31 1_555 1_555
C32 C27 1_555 1_555
H30 C32 1_555 1_555
C33 H31 1_555 1_555
H32 C33 1_555 1_555
C34 C33 1_555 1_555
H33 C34 1_555 1_555
H34 C34 1_555 1_555
C35 C36 1_555 1_555
C36 H35 1_555 1_555
C37 C36 1_555 1_555
C38 C37 1_555 1_555
H36 C38 1_555 1_555
C39 C38 1_555 1_555
H37 C39 1_555 1_555
C40 C39 1_555 1_555
H38 C40 1_555 1_555
C41 C40 1_555 1_555
H39 C41 1_555 1_555
C42 C37 1_555 1_555
C43 C42 1_555 1_555
H40 C43 1_555 1_555
C44 C35 1_555 1_555
C45 H41 1_555 1_555
H42 C45 1_555 1_555
C46 C45 1_555 1_555
H43 C46 1_555 1_555
H44 C46 1_555 1_555
C47 C48 1_555 1_555
C48 H45 1_555 1_555
C49 C48 1_555 1_555
H46 C49 1_555 1_555
C50 C15 1_555 1_555
C51 C50 1_555 1_555
H47 C51 1_555 1_555
C52 C47 1_555 1_555
H48 C52 1_555 1_555
N1 C1 1_555 1_555
H49 N1 1_555 1_555
N2 C6 1_555 1_555
H50 N2 1_555 1_555
N3 C11 1_555 1_555
H51 N3 1_555 1_555
N4 C16 1_555 1_555
H52 N4 1_555 1_555
O1 C30 1_555 1_555
O2 C34 1_555 1_555
O3 C44 1_555 1_555
O4 C46 1_555 1_555
O5 H53 1_555 1_555
H54 O5 1_555 1_555
Cl1 C53 1_555 1_555
Cl2 C53 1_555 1_555
Cl3 C53 1_555 1_555
C53 H55 1_555 1_555
C4 N1 1_555 1_555
C9 N2 1_555 1_555
C14 N3 1_555 1_555
C19 C20 1_555 1_555
C19 N4 1_555 1_555
C31 C32 1_555 1_555
C33 O1 1_555 1_555
C35 O2 1_555 1_555
C41 C42 1_555 1_555
C43 C44 1_555 1_555
C45 O3 1_555 1_555
C47 O4 1_555 1_555
C49 C50 1_555 1_555
C51 C52 1_555 1_555

#END
