
#######################################################################
#
#                 Cambridge Crystallographic Data Centre
#                                CCDC 
#
#######################################################################
#
# If this CIF has been generated from an entry in the Cambridge 
# Structural Database, then it will include bibliographic, chemical, 
# crystal, experimental, refinement or atomic coordinate data resulting 
# from the CCDC's data processing and validation procedures.
#
#######################################################################

data_ZOQQAZ
_chemical_formula_moiety         
'C52 H52 N4 O4,C1 H4 O1,Cs1 1+,F1 1-,2.5(C1 H1 Cl3)'
_chemical_name_systematic        
'cesium fluoride 1,30,35,35,44,44-hexamethyl-7,10,21,24-tetraoxa-49,50,51,52-tetraazadecacyclo[28.9.9.1^2,6^.1^25,29^.1^31,34^.1^36,39^.1^40,43^.1^45,48^.0^11,20^.0^13,18^]tetrapentaconta-2(54),3,5,11,13,15,17,19,25(53),26,28,31,33,36,38,40,42,45,47-nonadecaene methanol chloroform solvate'
_symmetry_cell_setting           monoclinic
_symmetry_space_group_name_H-M   'P 21/n'
_symmetry_Int_Tables_number      14
_space_group_name_Hall           '-P 2yn'
loop_
_symmetry_equiv_pos_site_id
_symmetry_equiv_pos_as_xyz
1 x,y,z
2 1/2-x,1/2+y,1/2-z
3 -x,-y,-z
4 1/2+x,1/2-y,1/2+z
_cell_length_a                   16.266(4)
_cell_length_b                   18.186(4)
_cell_length_c                   21.458(5)
_cell_angle_alpha                90
_cell_angle_beta                 109.336(6)
_cell_angle_gamma                90
_cell_volume                     5989.52
_exptl_crystal_colour            colorless
_exptl_crystal_description       prisms
_cell_formula_units_Z            4
loop_
_atom_site_label
_atom_site_type_symbol
_atom_site_fract_x
_atom_site_fract_y
_atom_site_fract_z
Cs1 Cs 0.21807(3) 0.10858(2) 0.330312(19)
C53 C 0.2314(5) 0.5252(3) 0.3038(4)
H53 H 0.2211 0.4864 0.3307
H54 H 0.2793 0.5548 0.3297
H55 H 0.1801 0.5552 0.2875
O5 O 0.2513(3) 0.4947(2) 0.2497(2)
H56 H 0.2519 0.4481 0.2532
F1 F 0.25326(17) 0.35148(14) 0.26061(13)
C1 C 0.2053(3) 0.2130(2) 0.1240(2)
C2 C 0.1390(3) 0.1704(3) 0.0817(2)
H1 H 0.1449 0.1373 0.0492
C3 C 0.0622(3) 0.1849(3) 0.0952(2)
H2 H 0.0065 0.1647 0.0726
C4 C 0.0820(3) 0.2342(2) 0.1479(2)
C5 C 0.0235(3) 0.2721(3) 0.1794(2)
C6 C 0.0509(3) 0.2556(3) 0.2532(2)
C7 C 0.0093(4) 0.2156(3) 0.2886(3)
H3 H -0.0427 0.1878 0.2709
C8 C 0.0597(4) 0.2239(3) 0.3575(3)
H4 H 0.0470 0.2024 0.3937
C9 C 0.1296(3) 0.2687(3) 0.3615(2)
C10 C 0.2029(4) 0.2960(3) 0.4213(2)
C11 C 0.2901(4) 0.2642(3) 0.4234(2)
C12 C 0.3437(4) 0.2132(3) 0.4656(2)
H5 H 0.3309 0.1869 0.4994
C13 C 0.4209(4) 0.2073(3) 0.4494(3)
H6 H 0.4693 0.1768 0.4708
C14 C 0.4134(3) 0.2538(2) 0.3970(2)
C15 C 0.4769(3) 0.2748(3) 0.3613(2)
C16 C 0.4515(3) 0.2355(3) 0.2947(2)
C17 C 0.4923(3) 0.1836(2) 0.2707(2)
H7 H 0.5469 0.1619 0.2943
C18 C 0.4400(3) 0.1661(3) 0.2039(2)
H8 H 0.4520 0.1303 0.1758
C19 C 0.3679(3) 0.2131(2) 0.1891(2)
C20 C 0.2967(3) 0.2271(3) 0.1246(2)
C21 C -0.0713(3) 0.2449(3) 0.1466(3)
H9 H -0.0751 0.1928 0.1569
H10 H -0.0882 0.2511 0.0986
H11 H -0.1104 0.2736 0.1634
C22 C 0.1846(5) 0.2737(3) 0.4848(3)
H12 H 0.1265 0.2909 0.4823
H13 H 0.2284 0.2960 0.5231
H14 H 0.1872 0.2200 0.4893
C23 C 0.2084(5) 0.3808(3) 0.4186(3)
H15 H 0.2244 0.3952 0.3801
H16 H 0.2526 0.3988 0.4589
H17 H 0.1517 0.4022 0.4150
C24 C 0.5706(4) 0.2494(3) 0.4039(3)
H18 H 0.5848 0.2691 0.4487
H19 H 0.6129 0.2677 0.3839
H20 H 0.5728 0.1956 0.4057
C25 C 0.3152(4) 0.1809(4) 0.0708(3)
H21 H 0.3725 0.1939 0.0683
H22 H 0.2704 0.1906 0.0281
H23 H 0.3146 0.1286 0.0815
C26 C 0.3026(4) 0.3088(3) 0.1057(3)
H24 H 0.2913 0.3407 0.1388
H25 H 0.2593 0.3185 0.0623
H26 H 0.3610 0.3189 0.1040
C27 C 0.0253(3) 0.3570(3) 0.1698(2)
C28 C 0.0571(3) 0.3887(3) 0.1226(2)
H27 H 0.0754 0.3580 0.0938
C29 C 0.0618(3) 0.4640(3) 0.1178(2)
C30 C 0.0332(4) 0.5102(3) 0.1572(3)
H28 H 0.0378 0.5620 0.1540
C31 C -0.0026(4) 0.4797(3) 0.2016(3)
H29 H -0.0255 0.5111 0.2272
C32 C -0.0055(4) 0.4050(3) 0.2094(3)
H30 H -0.0282 0.3852 0.2413
C33 C 0.1121(3) 0.4564(3) 0.0243(2)
H31 H 0.0568 0.4345 -0.0044
H32 H 0.1531 0.4159 0.0443
C34 C 0.1497(3) 0.5044(3) -0.0157(2)
H33 H 0.1463 0.4796 -0.0576
H34 H 0.1171 0.5512 -0.0263
C35 C 0.2880(3) 0.5543(3) -0.0073(2)
C36 C 0.2583(3) 0.5847(3) -0.0702(2)
H35 H 0.1985 0.5803 -0.0960
C37 C 0.3173(4) 0.6229(3) -0.0969(3)
C38 C 0.2866(4) 0.6537(3) -0.1611(3)
H36 H 0.2277 0.6472 -0.1884
C39 C 0.3447(5) 0.6938(3) -0.1834(3)
H37 H 0.3247 0.7156 -0.2260
C40 C 0.4324(4) 0.7022(3) -0.1436(3)
H38 H 0.4714 0.7295 -0.1592
C41 C 0.4611(4) 0.6708(3) -0.0823(3)
H39 H 0.5204 0.6767 -0.0558
C42 C 0.4056(4) 0.6299(3) -0.0573(3)
C43 C 0.4357(4) 0.5971(3) 0.0058(3)
H40 H 0.4955 0.6014 0.0317
C44 C 0.3795(3) 0.5584(3) 0.0310(2)
C45 C 0.4920(3) 0.5180(3) 0.1278(2)
H41 H 0.5190 0.5659 0.1451
H42 H 0.5228 0.4971 0.0991
C46 C 0.4980(3) 0.4660(3) 0.1843(2)
H43 H 0.4573 0.4243 0.1686
H44 H 0.5579 0.4464 0.2032
C47 C 0.4776(3) 0.4689(3) 0.2896(2)
C48 C 0.4818(3) 0.3935(3) 0.2965(2)
H45 H 0.4872 0.3638 0.2616
C49 C 0.4783(3) 0.3600(3) 0.3544(2)
C50 C 0.4749(4) 0.4044(3) 0.4063(3)
H46 H 0.4748 0.3826 0.4465
C51 C 0.4717(4) 0.4814(3) 0.3995(3)
H47 H 0.4692 0.5111 0.4352
C52 C 0.4721(4) 0.5146(3) 0.3410(2)
H48 H 0.4688 0.5665 0.3360
N1 N 0.1693(3) 0.2497(2) 0.16513(19)
H49 H 0.1982 0.2788 0.1977
N2 N 0.1233(3) 0.2875(2) 0.29788(19)
H50 H 0.1603 0.3160 0.2873
N3 N 0.3334(3) 0.2868(2) 0.38224(19)
H51 H 0.3125 0.3187 0.3500
N4 N 0.3753(3) 0.2543(2) 0.24540(19)
H52 H 0.3374 0.2871 0.2490
O1 O 0.0969(2) 0.49914(17) 0.07431(16)
O2 O 0.2389(2) 0.5182(2) 0.02280(17)
O3 O 0.4001(2) 0.5276(2) 0.09085(17)
O4 O 0.4752(2) 0.50775(19) 0.23317(17)
loop_
_geom_bond_atom_site_label_1
_geom_bond_atom_site_label_2
_geom_bond_site_symmetry_1
_geom_bond_site_symmetry_2
C1 C2 1_555 1_555
C2 H1 1_555 1_555
C3 C2 1_555 1_555
H2 C3 1_555 1_555
C4 C3 1_555 1_555
C5 C4 1_555 1_555
C6 C5 1_555 1_555
C7 C6 1_555 1_555
H3 C7 1_555 1_555
C8 C7 1_555 1_555
H4 C8 1_555 1_555
C9 C8 1_555 1_555
C10 C9 1_555 1_555
C11 C10 1_555 1_555
C12 C11 1_555 1_555
H5 C12 1_555 1_555
C13 C12 1_555 1_555
H6 C13 1_555 1_555
C14 C13 1_555 1_555
C15 C14 1_555 1_555
C16 C15 1_555 1_555
C17 C16 1_555 1_555
H7 C17 1_555 1_555
C18 C17 1_555 1_555
H8 C18 1_555 1_555
C19 C18 1_555 1_555
C20 C1 1_555 1_555
C21 C5 1_555 1_555
H9 C21 1_555 1_555
H10 C21 1_555 1_555
H11 C21 1_555 1_555
C22 C10 1_555 1_555
H12 C22 1_555 1_555
H13 C22 1_555 1_555
H14 C22 1_555 1_555
C23 C10 1_555 1_555
H15 C23 1_555 1_555
H16 C23 1_555 1_555
H17 C23 1_555 1_555
C24 C15 1_555 1_555
H18 C24 1_555 1_555
H19 C24 1_555 1_555
H20 C24 1_555 1_555
C25 C20 1_555 1_555
H21 C25 1_555 1_555
H22 C25 1_555 1_555
H23 C25 1_555 1_555
C26 C20 1_555 1_555
H24 C26 1_555 1_555
H25 C26 1_555 1_555
H26 C26 1_555 1_555
C27 C5 1_555 1_555
C28 C27 1_555 1_555
H27 C28 1_555 1_555
C29 C28 1_555 1_555
C30 C29 1_555 1_555
H28 C30 1_555 1_555
C31 C30 1_555 1_555
H29 C31 1_555 1_555
C32 C27 1_555 1_555
H30 C32 1_555 1_555
C33 H31 1_555 1_555
H32 C33 1_555 1_555
C34 C33 1_555 1_555
H33 C34 1_555 1_555
H34 C34 1_555 1_555
C35 C36 1_555 1_555
C36 H35 1_555 1_555
C37 C36 1_555 1_555
C38 C37 1_555 1_555
H36 C38 1_555 1_555
C39 C38 1_555 1_555
H37 C39 1_555 1_555
C40 C39 1_555 1_555
H38 C40 1_555 1_555
C41 C40 1_555 1_555
H39 C41 1_555 1_555
C42 C37 1_555 1_555
C43 C42 1_555 1_555
H40 C43 1_555 1_555
C44 C35 1_555 1_555
C45 H41 1_555 1_555
H42 C45 1_555 1_555
C46 C45 1_555 1_555
H43 C46 1_555 1_555
H44 C46 1_555 1_555
C47 C48 1_555 1_555
C48 H45 1_555 1_555
C49 C15 1_555 1_555
C50 C49 1_555 1_555
H46 C50 1_555 1_555
C51 C50 1_555 1_555
H47 C51 1_555 1_555
C52 C47 1_555 1_555
H48 C52 1_555 1_555
N1 C1 1_555 1_555
H49 N1 1_555 1_555
N2 C6 1_555 1_555
H50 N2 1_555 1_555
N3 C11 1_555 1_555
H51 N3 1_555 1_555
N4 C16 1_555 1_555
H52 N4 1_555 1_555
O1 C29 1_555 1_555
O2 C34 1_555 1_555
O3 C44 1_555 1_555
O4 C46 1_555 1_555
C53 H53 1_555 1_555
H54 C53 1_555 1_555
H55 C53 1_555 1_555
O5 C53 1_555 1_555
H56 O5 1_555 1_555
C4 N1 1_555 1_555
C9 N2 1_555 1_555
C14 N3 1_555 1_555
C19 C20 1_555 1_555
C19 N4 1_555 1_555
C31 C32 1_555 1_555
C33 O1 1_555 1_555
C35 O2 1_555 1_555
C41 C42 1_555 1_555
C43 C44 1_555 1_555
C45 O3 1_555 1_555
C47 O4 1_555 1_555
C48 C49 1_555 1_555
C51 C52 1_555 1_555

#END
