
#######################################################################
#
#                 Cambridge Crystallographic Data Centre
#                                CCDC 
#
#######################################################################
#
# If this CIF has been generated from an entry in the Cambridge 
# Structural Database, then it will include bibliographic, chemical, 
# crystal, experimental, refinement or atomic coordinate data resulting 
# from the CCDC's data processing and validation procedures.
#
#######################################################################

data_ZOQRAA
_chemical_formula_moiety         'C52 H52 N4 O4,2(C2 H3 N1)'
_chemical_name_systematic        
'1,28,33,33,42,42-hexamethyl-6,9,20,23-tetraoxa-47,48,49,50-tetraazadecacyclo[26.9.9.2^2,5^.2^24,27^.1^29,32^.1^34,37^.1^38,41^.1^43,46^.0^10,19^.0^12,17^]tetrapentaconta-2,4,10,12,14,16,18,24,26,29,31,34,36,38,40,43,45,51,53-nonadecaene acetonitrile solvate'
_symmetry_cell_setting           monoclinic
_symmetry_space_group_name_H-M   'P 21/m'
_symmetry_Int_Tables_number      11
_space_group_name_Hall           '-P 2yb'
loop_
_symmetry_equiv_pos_site_id
_symmetry_equiv_pos_as_xyz
1 x,y,z
2 -x,1/2+y,-z
3 -x,-y,-z
4 x,1/2-y,z
_cell_length_a                   10.229(2)
_cell_length_b                   17.037(4)
_cell_length_c                   14.599(3)
_cell_angle_alpha                90
_cell_angle_beta                 108.803(12)
_cell_angle_gamma                90
_cell_volume                     2408.41
_exptl_crystal_colour            colorless
_exptl_crystal_description       prisms
_cell_formula_units_Z            2
loop_
_atom_site_label
_atom_site_type_symbol
_atom_site_fract_x
_atom_site_fract_y
_atom_site_fract_z
C1 C 0.5954(3) 0.32353(17) 0.5162(2)
C2 C 0.6621(3) 0.37772(19) 0.5842(2)
H1 H 0.6728 0.3758 0.6513
C3 C 0.7128(3) 0.43753(19) 0.5366(2)
H2 H 0.7636 0.4825 0.5667
C4 C 0.6762(3) 0.41947(17) 0.4404(2)
C5 C 0.7001(3) 0.46057(16) 0.3549(2)
C6 C 0.8178(3) 0.42160(18) 0.3308(2)
C7 C 0.9495(3) 0.4450(2) 0.3416(3)
H3 H 0.9903 0.4934 0.3686
C8 C 1.0147(3) 0.3847(2) 0.3054(3)
H4 H 1.1074 0.3858 0.3049
C9 C 0.9227(3) 0.3244(2) 0.2712(2)
C10 C 0.9286(4) 0.2500 0.2155(3)
C11 C 0.5146(5) 0.2500 0.5233(3)
C12 C 0.3731(4) 0.2500 0.4436(3)
H5 H 0.3247 0.2009 0.4463
C13 C 0.4922(6) 0.2500 0.6222(3)
C14 C 1.0623(5) 0.2500 0.1891(4)
H6 H 1.1421 0.2500 0.2484
H7 H 1.0637 0.2962 0.1495
C15 C 0.8049(5) 0.2500 0.1207(3)
H8 H 0.8054 0.2014 0.0849
C16 C 0.5657(3) 0.45829(16) 0.2675(2)
C17 C 0.4384(3) 0.46623(16) 0.2828(2)
H9 H 0.4361 0.4740 0.3466
C18 C 0.3157(3) 0.46293(16) 0.2066(2)
H10 H 0.2305 0.4681 0.2191
C19 C 0.3156(3) 0.45218(16) 0.1118(2)
C20 C 0.4409(3) 0.44710(16) 0.0935(2)
H11 H 0.4429 0.4414 0.0293
C21 C 0.5640(3) 0.45053(16) 0.1717(2)
H12 H 0.6494 0.4475 0.1591
C22 C 0.1737(3) 0.43657(17) -0.0571(2)
H13 H 0.2419 0.3982 -0.0652
H14 H 0.1888 0.4875 -0.0847
C23 C 0.7373(3) 0.54750(17) 0.3820(2)
H15 H 0.8205 0.5500 0.4390
H16 H 0.6605 0.5731 0.3967
H17 H 0.7544 0.5744 0.3277
C24 C 0.0290(3) 0.40777(17) -0.1061(2)
H18 H -0.0373 0.4383 -0.0839
H19 H 0.0042 0.4138 -0.1771
C25 C -0.1032(3) 0.29237(15) -0.1010(2)
C26 C -0.2245(3) 0.33197(17) -0.11749(19)
H20 H -0.2241 0.3877 -0.1189
C27 C -0.3517(3) 0.29173(15) -0.13269(19)
C28 C -0.4795(3) 0.33195(17) -0.1497(2)
H21 H -0.4809 0.3877 -0.1493
C29 C -0.6005(3) 0.29110(16) -0.16675(19)
H22 H -0.6850 0.3188 -0.1786
N1 N 0.6064(2) 0.34846(13) 0.42882(17)
H23 H 0.5737 0.3229 0.3737
N2 N 0.8038(2) 0.34781(14) 0.28880(17)
H24 H 0.7283 0.3193 0.2751
O1 O 0.18699(19) 0.44520(11) 0.04392(13)
O2 O 0.02504(19) 0.32668(11) -0.08135(14)
C1C C 0.5954(3) 0.17647(17) 0.5162(2)
C2C C 0.6621(3) 0.12228(19) 0.5842(2)
H1C H 0.6728 0.1242 0.6513
C3C C 0.7128(3) 0.06247(19) 0.5366(2)
H2C H 0.7636 0.0175 0.5667
C4C C 0.6762(3) 0.08053(17) 0.4404(2)
C5C C 0.7001(3) 0.03943(16) 0.3549(2)
C6C C 0.8178(3) 0.07840(18) 0.3308(2)
C7C C 0.9495(3) 0.0550(2) 0.3416(3)
H3C H 0.9903 0.0066 0.3686
C8C C 1.0147(3) 0.1153(2) 0.3054(3)
H4C H 1.1074 0.1142 0.3049
C9C C 0.9227(3) 0.1756(2) 0.2712(2)
H5C H 0.3247 0.2991 0.4463
H7C H 1.0637 0.2038 0.1495
H8C H 0.8054 0.2986 0.0849
C16C C 0.5657(3) 0.04171(16) 0.2675(2)
C17C C 0.4384(3) 0.03377(16) 0.2828(2)
H9C H 0.4361 0.0260 0.3466
C18C C 0.3157(3) 0.03707(16) 0.2066(2)
H10C H 0.2305 0.0319 0.2191
C19C C 0.3156(3) 0.04782(16) 0.1118(2)
C20C C 0.4409(3) 0.05290(16) 0.0935(2)
H11C H 0.4429 0.0586 0.0293
C21C C 0.5640(3) 0.04947(16) 0.1717(2)
H12C H 0.6494 0.0525 0.1591
C22C C 0.1737(3) 0.06343(17) -0.0571(2)
H13C H 0.2419 0.1018 -0.0652
H14C H 0.1888 0.0125 -0.0847
C23C C 0.7373(3) -0.04750(17) 0.3820(2)
H15C H 0.8205 -0.0500 0.4390
H16C H 0.6605 -0.0731 0.3967
H17C H 0.7544 -0.0744 0.3277
C24C C 0.0290(3) 0.09223(17) -0.1061(2)
H18C H -0.0373 0.0617 -0.0839
H19C H 0.0042 0.0862 -0.1771
C25C C -0.1032(3) 0.20763(15) -0.1010(2)
C26C C -0.2245(3) 0.16803(17) -0.11749(19)
H20C H -0.2241 0.1123 -0.1189
C27C C -0.3517(3) 0.20827(15) -0.13269(19)
C28C C -0.4795(3) 0.16805(17) -0.1497(2)
H21C H -0.4809 0.1123 -0.1493
C29C C -0.6005(3) 0.20890(16) -0.16675(19)
H22C H -0.6850 0.1812 -0.1786
N1C N 0.6064(2) 0.15154(13) 0.42882(17)
H23C H 0.5737 0.1771 0.3737
N2C N 0.8038(2) 0.15219(14) 0.28880(17)
H24C H 0.7283 0.1807 0.2751
O1C O 0.18699(19) 0.05480(11) 0.04392(13)
O2C O 0.02504(19) 0.17332(11) -0.08135(14)
N3 N 0.5110(4) 0.2500 0.2309(3)
C30 C 0.4209(4) 0.2500 0.1596(3)
C31 C 0.3080(4) 0.2500 0.0682(3)
H25? H 0.7186 0.2535 0.1360
H26? H 0.8122 0.2951 0.0810
H27? H 0.2425 0.2918 0.0689
H28? H 0.2606 0.1992 0.0593
H29? H 0.3448 0.2590 0.0148
N4? N 1.0593(8) 0.2903(5) 0.7008(5)
C32? C 1.0079(7) 0.2727(5) 0.6224(5)
C33? C 0.9423(6) 0.2525(18) 0.5215(4)
H30? H 0.8599 0.2207 0.5148
H31? H 1.0070 0.2225 0.4981
H32? H 0.9156 0.3006 0.4832
H33? H 0.3182 0.2944 0.4534
H34? H 0.4525 0.1996 0.6321
H35? H 0.4288 0.2926 0.6245
H36? H 0.3862 0.2547 0.3802
H37? H 0.5808 0.2578 0.6733
loop_
_geom_bond_atom_site_label_1
_geom_bond_atom_site_label_2
_geom_bond_site_symmetry_1
_geom_bond_site_symmetry_2
C1 C2 1_555 1_555
C2 H1 1_555 1_555
C3 C2 1_555 1_555
H2 C3 1_555 1_555
C4 C3 1_555 1_555
C5 C4 1_555 1_555
C6 C5 1_555 1_555
C7 C6 1_555 1_555
H3 C7 1_555 1_555
C8 C7 1_555 1_555
H4 C8 1_555 1_555
C9 C8 1_555 1_555
C10 C9 1_555 1_555
C11 C1 1_555 1_555
C12 C11 1_555 1_555
H5 C12 1_555 1_555
C13 C11 1_555 1_555
C14 C10 1_555 1_555
H6 C14 1_555 1_555
H7 C14 1_555 1_555
C15 C10 1_555 1_555
H8 C15 1_555 1_555
C16 C5 1_555 1_555
C17 C16 1_555 1_555
H9 C17 1_555 1_555
C18 C17 1_555 1_555
H10 C18 1_555 1_555
C19 C18 1_555 1_555
C20 C19 1_555 1_555
H11 C20 1_555 1_555
C21 C16 1_555 1_555
H12 C21 1_555 1_555
C22 H13 1_555 1_555
H14 C22 1_555 1_555
C23 C5 1_555 1_555
H15 C23 1_555 1_555
H16 C23 1_555 1_555
H17 C23 1_555 1_555
C24 C22 1_555 1_555
H18 C24 1_555 1_555
H19 C24 1_555 1_555
C25 C26 1_555 1_555
C26 H20 1_555 1_555
C27 C26 1_555 1_555
C28 C27 1_555 1_555
H21 C28 1_555 1_555
C29 C28 1_555 1_555
H22 C29 1_555 1_555
N1 C1 1_555 1_555
H23 N1 1_555 1_555
N2 C6 1_555 1_555
H24 N2 1_555 1_555
O1 C19 1_555 1_555
O2 C24 1_555 1_555
N3 C30 1_555 1_555
C30 C31 1_555 1_555
C1C C11 1_555 1_555
C2C C1C 1_555 1_555
H1C C2C 1_555 1_555
C3C C2C 1_555 1_555
H2C C3C 1_555 1_555
C4C C3C 1_555 1_555
C5C C4C 1_555 1_555
C6C C5C 1_555 1_555
C7C C6C 1_555 1_555
H3C C7C 1_555 1_555
C8C C7C 1_555 1_555
H4C C8C 1_555 1_555
C9C C10 1_555 1_555
H5C C12 1_555 1_555
H7C C14 1_555 1_555
H8C C15 1_555 1_555
C16C C5C 1_555 1_555
C17C C16C 1_555 1_555
H9C C17C 1_555 1_555
C18C C17C 1_555 1_555
H10C C18C 1_555 1_555
C19C C18C 1_555 1_555
C20C C19C 1_555 1_555
H11C C20C 1_555 1_555
C21C C16C 1_555 1_555
H12C C21C 1_555 1_555
C22C H13C 1_555 1_555
H14C C22C 1_555 1_555
C23C C5C 1_555 1_555
H15C C23C 1_555 1_555
H16C C23C 1_555 1_555
H17C C23C 1_555 1_555
C24C C22C 1_555 1_555
H18C C24C 1_555 1_555
H19C C24C 1_555 1_555
C25C C25 1_555 1_555
C26C C25C 1_555 1_555
H20C C26C 1_555 1_555
C27C C27 1_555 1_555
C28C C27C 1_555 1_555
H21C C28C 1_555 1_555
C29C C29 1_555 1_555
H22C C29C 1_555 1_555
N1C C1C 1_555 1_555
H23C N1C 1_555 1_555
N2C C6C 1_555 1_555
H24C N2C 1_555 1_555
O1C C19C 1_555 1_555
O2C C24C 1_555 1_555
C4 N1 1_555 1_555
C9 N2 1_555 1_555
C20 C21 1_555 1_555
C22 O1 1_555 1_555
C25 O2 1_555 1_555
C4C N1C 1_555 1_555
C8C C9C 1_555 1_555
C9C N2C 1_555 1_555
C20C C21C 1_555 1_555
C22C O1C 1_555 1_555
C25C O2C 1_555 1_555
C26C C27C 1_555 1_555
C28C C29C 1_555 1_555

#END
