
#######################################################################
#
#                 Cambridge Crystallographic Data Centre
#                                CCDC 
#
#######################################################################
#
# If this CIF has been generated from an entry in the Cambridge 
# Structural Database, then it will include bibliographic, chemical, 
# crystal, experimental, refinement or atomic coordinate data resulting 
# from the CCDC's data processing and validation procedures.
#
#######################################################################

data_ZORYIO
_chemical_formula_moiety         'C18 H16 N2 O7'
_chemical_name_systematic        
(1R,4S,4aS,8S,8aR)-8-(3',5'-Dinitrobenzoyloxy)-1\a,4\a,4a\a,5,6,7,8\b,8a\a-octahydro-1,4-methanonaphthalen-5-one
_symmetry_cell_setting           orthorhombic
_symmetry_space_group_name_H-M   'P 21 21 21'
_symmetry_Int_Tables_number      19
_space_group_name_Hall           'P 2ac 2ab'
loop_
_symmetry_equiv_pos_site_id
_symmetry_equiv_pos_as_xyz
1 x,y,z
2 1/2-x,-y,1/2+z
3 1/2+x,1/2-y,-z
4 -x,1/2+y,1/2-z
_cell_length_a                   10.617(1)
_cell_length_b                   11.1950(8)
_cell_length_c                   13.8569(9)
_cell_angle_alpha                90
_cell_angle_beta                 90
_cell_angle_gamma                90
_cell_volume                     1646.99
_exptl_crystal_colour            colorless
_chemical_melting_point          '168-169 deg.C'
_cell_formula_units_Z            4
loop_
_atom_site_label
_atom_site_type_symbol
_atom_site_fract_x
_atom_site_fract_y
_atom_site_fract_z
O1 O 0.5376(3) -0.2210(2) 0.8006(2)
O2 O 0.5974(2) 0.0457(2) 0.6066(2)
O3 O 0.6817(2) 0.1172(2) 0.4694(2)
O4 O 0.2033(2) 0.1146(3) 0.2077(2)
O5 O 0.3989(3) 0.1664(3) 0.1954(2)
O6 O 0.1433(2) 0.1071(3) 0.6522(2)
O7 O 0.0229(2) 0.0986(3) 0.5284(2)
N1 N 0.3075(3) 0.1353(3) 0.2416(2)
N2 N 0.1265(3) 0.1025(3) 0.5657(2)
C1 C 0.7796(3) -0.0878(3) 0.6428(2)
C2 C 0.7736(4) -0.1553(3) 0.5452(3)
C3 C 0.8175(4) -0.2790(3) 0.5810(3)
C4 C 0.6390(4) -0.1845(3) 0.5223(3)
C5 C 0.5994(4) -0.2665(3) 0.5848(3)
C6 C 0.7076(4) -0.2944(3) 0.6507(3)
C7 C 0.7271(3) -0.1831(3) 0.7153(2)
C8 C 0.6141(3) -0.1469(3) 0.7736(2)
C9 C 0.6009(4) -0.0180(3) 0.8012(3)
C10 C 0.6990(3) 0.0652(3) 0.7579(3)
C11 C 0.7208(3) 0.0358(3) 0.6529(3)
C12 C 0.5919(3) 0.0897(3) 0.5176(2)
C13 C 0.4598(3) 0.0985(3) 0.4822(2)
C14 C 0.4429(3) 0.1140(3) 0.3834(2)
C15 C 0.3239(3) 0.1219(3) 0.3472(2)
C16 C 0.2189(3) 0.1180(3) 0.4040(2)
C17 C 0.2382(3) 0.1045(3) 0.5020(2)
C18 C 0.3562(3) 0.0941(3) 0.5420(2)
H1 H 0.8635 -0.0619 0.6540
H2 H 0.8151 -0.1148 0.4940
H3 H 0.8969 -0.2769 0.6124
H4 H 0.8190 -0.3376 0.5314
H5 H 0.5903 -0.1502 0.4717
H6 H 0.5176 -0.3009 0.5872
H7 H 0.6985 -0.3671 0.6852
H8 H 0.7842 -0.1967 0.7669
H9 H 0.6065 -0.0126 0.8694
H10 H 0.5201 0.0085 0.7808
H11 H 0.7759 0.0564 0.7922
H12 H 0.6703 0.1452 0.7631
H13 H 0.7788 0.0885 0.6227
H14 H 0.5136 0.1190 0.3416
H15 H 0.1366 0.1243 0.3774
H16 H 0.3661 0.0840 0.6096
loop_
_geom_bond_atom_site_label_1
_geom_bond_atom_site_label_2
_geom_bond_site_symmetry_1
_geom_bond_site_symmetry_2
O1 C8 1_555 1_555
O2 C11 1_555 1_555
O3 C12 1_555 1_555
O4 N1 1_555 1_555
O5 N1 1_555 1_555
O6 N2 1_555 1_555
O7 N2 1_555 1_555
N1 C15 1_555 1_555
N2 C17 1_555 1_555
C1 C2 1_555 1_555
C2 C3 1_555 1_555
C3 C6 1_555 1_555
C4 C2 1_555 1_555
C5 C4 1_555 1_555
C6 C5 1_555 1_555
C7 C1 1_555 1_555
C8 C7 1_555 1_555
C9 C8 1_555 1_555
C10 C9 1_555 1_555
C11 C1 1_555 1_555
C12 O2 1_555 1_555
C13 C12 1_555 1_555
C14 C13 1_555 1_555
C15 C14 1_555 1_555
C16 C15 1_555 1_555
C17 C16 1_555 1_555
C18 C13 1_555 1_555
H1 C1 1_555 1_555
H2 C2 1_555 1_555
H3 C3 1_555 1_555
H4 C3 1_555 1_555
H5 C4 1_555 1_555
H6 C5 1_555 1_555
H7 C6 1_555 1_555
H8 C7 1_555 1_555
H9 C9 1_555 1_555
H10 C9 1_555 1_555
H11 C10 1_555 1_555
H12 C10 1_555 1_555
H13 C11 1_555 1_555
H14 C14 1_555 1_555
H15 C16 1_555 1_555
H16 C18 1_555 1_555
C6 C7 1_555 1_555
C10 C11 1_555 1_555
C17 C18 1_555 1_555

#END
