
#######################################################################
#
#                 Cambridge Crystallographic Data Centre
#                                CCDC 
#
#######################################################################
#
# If this CIF has been generated from an entry in the Cambridge 
# Structural Database, then it will include bibliographic, chemical, 
# crystal, experimental, refinement or atomic coordinate data resulting 
# from the CCDC's data processing and validation procedures.
#
#######################################################################

data_ZORYAG
_chemical_formula_moiety         'C17 H19 I3 N2 O7'
_chemical_name_systematic        
"1'-(Ethoxycarbonyloxy)ethyl 5-acetylamino-3-(N-methylacetylamino)-2,4,6-tri-iodobenzenecarboxylate"
_chemical_properties_biological  'X-Ray liver contrast agent'
_symmetry_cell_setting           orthorhombic
_symmetry_space_group_name_H-M   'P 21 21 21'
_symmetry_Int_Tables_number      19
_space_group_name_Hall           'P 2ac 2ab'
loop_
_symmetry_equiv_pos_site_id
_symmetry_equiv_pos_as_xyz
1 x,y,z
2 1/2-x,-y,1/2+z
3 1/2+x,1/2-y,-z
4 -x,1/2+y,1/2-z
_cell_length_a                   10.489(3)
_cell_length_b                   11.677(6)
_cell_length_c                   19.466(6)
_cell_angle_alpha                90
_cell_angle_beta                 90
_cell_angle_gamma                90
_cell_volume                     2384.2
_cell_formula_units_Z            4
loop_
_atom_site_label
_atom_site_type_symbol
_atom_site_fract_x
_atom_site_fract_y
_atom_site_fract_z
I1 I 0.8962(1) 0.9338(1) 0.42273(6)
I2 I 1.4672(1) 0.8739(1) 0.40410(8)
I3 I 1.2075(1) 1.2367(1) 0.23135(5)
O1 O 1.389(2) 0.960(1) 0.1967(8)
O2 O 1.186(2) 0.730(2) 0.536(1)
O3 O 0.892(1) 1.119(1) 0.2652(6)
O4 O 0.948(1) 1.229(1) 0.3568(5)
O5 O 0.777(1) 1.323(1) 0.4020(6)
O6 O 0.635(2) 1.195(1) 0.3562(8)
O7 O 0.603(1) 1.285(1) 0.4559(7)
N1 N 1.427(1) 1.072(1) 0.2909(7)
N2 N 1.168(3) 0.814(3) 0.436(1)
C1 C 1.079(1) 1.074(1) 0.3328(8)
C2 C 1.073(2) 0.986(2) 0.3814(9)
C3 C 1.184(2) 0.930(2) 0.3988(9)
C4 C 1.301(2) 0.954(2) 0.372(1)
C5 C 1.310(2) 1.045(1) 0.3210(8)
C6 C 1.196(2) 1.102(2) 0.3045(8)
C7 C 1.461(2) 1.023(2) 0.230(1)
C8 C 1.589(2) 1.055(2) 0.2036(9)
C9 C 1.182(4) 0.821(3) 0.505(2)
C10 C 1.203(2) 0.921(2) 0.538(1)
C11 C 1.148(2) 0.701(2) 0.393(1)
C12 C 0.965(2) 1.138(2) 0.3124(9)
C13 C 0.854(2) 1.316(2) 0.342(1)
C14 C 0.923(2) 1.433(2) 0.337(1)
C15 C 0.666(2) 1.260(2) 0.4022(8)
C16 C 0.479(2) 1.227(2) 0.465(1)
C17 C 0.374(2) 1.291(2) 0.430(1)
O8? O 1.186(3) 0.680(2) 0.510(1)
N3? N 1.184(3) 0.861(3) 0.465(2)
C18? C 1.148(2) 0.701(2) 0.393(1)
C19? C 1.203(2) 0.921(2) 0.538(1)
C20? C 1.177(3) 0.741(4) 0.455(2)
loop_
_geom_bond_atom_site_label_1
_geom_bond_atom_site_label_2
_geom_bond_site_symmetry_1
_geom_bond_site_symmetry_2
I1 C2 1_555 1_555
I2 C4 1_555 1_555
I3 C6 1_555 1_555
O1 C7 1_555 1_555
O2 C9 1_555 1_555
O3 C12 1_555 1_555
O4 C12 1_555 1_555
O5 C13 1_555 1_555
O6 C15 1_555 1_555
O7 C15 1_555 1_555
N1 C5 1_555 1_555
N2 C3 1_555 1_555
C1 C2 1_555 1_555
C2 C3 1_555 1_555
C3 C4 1_555 1_555
C4 C5 1_555 1_555
C5 C6 1_555 1_555
C6 C1 1_555 1_555
C7 N1 1_555 1_555
C8 C7 1_555 1_555
C9 N2 1_555 1_555
C10 C9 1_555 1_555
C11 N2 1_555 1_555
C12 C1 1_555 1_555
C13 O4 1_555 1_555
C14 C13 1_555 1_555
C15 O5 1_555 1_555
C16 O7 1_555 1_555
C17 C16 1_555 1_555

#END
