
#######################################################################
#
#                 Cambridge Crystallographic Data Centre
#                                CCDC 
#
#######################################################################
#
# If this CIF has been generated from an entry in the Cambridge 
# Structural Database, then it will include bibliographic, chemical, 
# crystal, experimental, refinement or atomic coordinate data resulting 
# from the CCDC's data processing and validation procedures.
#
#######################################################################

data_ZOSRUW01
_chemical_formula_moiety         'C46 H38 S1'
_chemical_name_systematic        
2,7-di-t-butyl-9,15-diphenyldibenzo[10,11:6,7]tetraceno[2,3-b]thiophene
_symmetry_cell_setting           monoclinic
_symmetry_space_group_name_H-M   'P 21/n'
_symmetry_Int_Tables_number      14
_space_group_name_Hall           '-P 2yn'
loop_
_symmetry_equiv_pos_site_id
_symmetry_equiv_pos_as_xyz
1 x,y,z
2 1/2-x,1/2+y,1/2-z
3 -x,-y,-z
4 1/2+x,1/2-y,1/2+z
_cell_length_a                   15.7237(13)
_cell_length_b                   10.1948(8)
_cell_length_c                   21.2943(17)
_cell_angle_alpha                90
_cell_angle_beta                 100.685(2)
_cell_angle_gamma                90
_cell_volume                     3354.29
_exptl_crystal_colour            yellow
_exptl_crystal_description       prism
_cell_formula_units_Z            4
loop_
_atom_site_label
_atom_site_type_symbol
_atom_site_fract_x
_atom_site_fract_y
_atom_site_fract_z
S2 S 0.6474(2) 1.1235(6) 1.0316(2)
C3 C 0.5453(5) 1.1741(13) 1.0361(5)
H3 H 0.5275 1.1934 1.0743
C4 C 0.4918(8) 1.1834(14) 0.9769(5)
H4 H 0.4363 1.2186 0.9703
C5 C 0.66404(13) 0.93424(17) 0.62039(9)
C6 C 0.57353(13) 0.90606(18) 0.60599(9)
C7 C 0.53612(14) 0.8566(2) 0.54511(9)
C8 C 0.44968(15) 0.8150(2) 0.53364(10)
H5 H 0.4247 0.7863 0.4930
C9 C 0.40099(14) 0.8156(2) 0.58069(9)
C10 C 0.43781(14) 0.8719(2) 0.63936(9)
H6 H 0.4048 0.8750 0.6713
C11 C 0.52102(13) 0.92340(18) 0.65241(9)
C12 C 0.55859(13) 0.98381(18) 0.71484(8)
C13 C 0.50726(12) 1.03431(18) 0.75613(9)
C14 C 0.54546(13) 1.06538(18) 0.82065(9)
C15 C 0.49568(14) 1.1155(2) 0.86436(9)
H7 H 0.4379 1.1373 0.8500
C16 C 0.53185(14) 1.1323(2) 0.92745(10)
C17 C 0.62034(14) 1.1012(2) 0.94953(9)
C18 C 0.67029(14) 1.0563(2) 0.90819(9)
H8 H 0.7282 1.0366 0.9233
C19 C 0.63534(13) 1.03945(18) 0.84280(9)
C20 C 0.68807(12) 1.00195(17) 0.79785(9)
C21 C 0.65204(12) 0.98498(17) 0.73358(9)
C22 C 0.70445(13) 0.97313(18) 0.68266(9)
C23 C 0.79144(13) 1.00831(19) 0.69092(10)
H9 H 0.8175 1.0414 0.7305
C24 C 0.84199(14) 0.99732(19) 0.64401(10)
C25 C 0.80284(15) 0.9485(2) 0.58562(11)
H10 H 0.8359 0.9349 0.5542
C26 C 0.71438(14) 0.9188(2) 0.57230(10)
C27 C 0.67349(17) 0.8732(2) 0.51054(11)
H11 H 0.7062 0.8635 0.4786
C28 C 0.58894(16) 0.8443(2) 0.49780(10)
H12 H 0.5641 0.8154 0.4571
C29 C 0.31171(16) 0.7520(2) 0.57249(11)
C30 C 0.3188(2) 0.6304(4) 0.61343(16)
H13 H 0.3477 0.6514 0.6560
H14 H 0.3513 0.5648 0.5957
H15 H 0.2619 0.5975 0.6146
C31 C 0.24598(19) 0.8457(4) 0.59288(18)
H16 H 0.2594 0.8579 0.6383
H17 H 0.1889 0.8094 0.5811
H18 H 0.2483 0.9287 0.5720
C32 C 0.27577(18) 0.7161(3) 0.50377(12)
H19 H 0.2184 0.6812 0.5007
H20 H 0.3123 0.6514 0.4895
H21 H 0.2737 0.7929 0.4774
C33 C 0.41386(13) 1.0678(2) 0.73514(9)
C34 C 0.39132(15) 1.1707(2) 0.69347(10)
H22 H 0.4343 1.2156 0.6776
C35 C 0.30570(19) 1.2085(3) 0.67469(13)
H23 H 0.2916 1.2778 0.6463
C36 C 0.24173(19) 1.1433(4) 0.69821(15)
H24 H 0.1842 1.1682 0.6858
C37 C 0.26328(17) 1.0418(3) 0.73985(14)
H25 H 0.2200 0.9975 0.7556
C38 C 0.34824(15) 1.0043(2) 0.75884(11)
H26 H 0.3619 0.9357 0.7878
C39 C 0.78095(13) 0.97301(18) 0.82557(9)
C40 C 0.83841(14) 1.0704(2) 0.85197(10)
H27 H 0.8204 1.1574 0.8502
C41 C 0.92178(15) 1.0392(2) 0.88073(11)
H28 H 0.9599 1.1053 0.8980
C42 C 0.94884(15) 0.9110(2) 0.88400(11)
H29 H 1.0050 0.8901 0.9038
C43 C 0.89288(15) 0.8135(2) 0.85795(10)
H30 H 0.9113 0.7266 0.8599
C44 C 0.80944(14) 0.84445(19) 0.82885(9)
H31 H 0.7719 0.7781 0.8112
C45 C 0.93713(14) 1.0400(2) 0.65909(11)
C46 C 0.98253(17) 1.0179(3) 0.60215(13)
H32 H 0.9777 0.9272 0.5898
H33 H 1.0425 1.0411 0.6141
H34 H 0.9558 1.0714 0.5669
C47 C 0.94270(18) 1.1847(2) 0.67640(15)
H35 H 0.9107 1.2350 0.6418
H36 H 1.0022 1.2120 0.6842
H37 H 0.9187 1.1987 0.7142
C48 C 0.98525(17) 0.9579(3) 0.71490(13)
H38 H 0.9597 0.9721 0.7520
H39 H 1.0450 0.9835 0.7241
H40 H 0.9811 0.8667 0.7036
S1? S 0.4845(3) 1.1859(3) 0.98845(19)
C1? C 0.5825(7) 1.1736(16) 1.0432(7)
H1? H 0.5885 1.1951 1.0863
C2? C 0.6493(10) 1.129(2) 1.0156(5)
H2? H 0.7059 1.1180 1.0372
loop_
_geom_bond_atom_site_label_1
_geom_bond_atom_site_label_2
_geom_bond_site_symmetry_1
_geom_bond_site_symmetry_2
S2 C3 1_555 1_555
C3 H3 1_555 1_555
C4 C3 1_555 1_555
H4 C4 1_555 1_555
C5 C6 1_555 1_555
C6 C7 1_555 1_555
C7 C8 1_555 1_555
C8 H5 1_555 1_555
C9 C8 1_555 1_555
C10 C9 1_555 1_555
H6 C10 1_555 1_555
C11 C6 1_555 1_555
C12 C11 1_555 1_555
C13 C12 1_555 1_555
C14 C13 1_555 1_555
C15 C14 1_555 1_555
H7 C15 1_555 1_555
C16 C4 1_555 1_555
C17 S2 1_555 1_555
C18 C17 1_555 1_555
H8 C18 1_555 1_555
C19 C14 1_555 1_555
C20 C19 1_555 1_555
C21 C12 1_555 1_555
C22 C5 1_555 1_555
C23 C22 1_555 1_555
H9 C23 1_555 1_555
C24 C23 1_555 1_555
C25 C24 1_555 1_555
H10 C25 1_555 1_555
C26 C5 1_555 1_555
C27 C26 1_555 1_555
H11 C27 1_555 1_555
C28 C7 1_555 1_555
H12 C28 1_555 1_555
C29 C9 1_555 1_555
C30 C29 1_555 1_555
H13 C30 1_555 1_555
H14 C30 1_555 1_555
H15 C30 1_555 1_555
C31 C29 1_555 1_555
H16 C31 1_555 1_555
H17 C31 1_555 1_555
H18 C31 1_555 1_555
C32 C29 1_555 1_555
H19 C32 1_555 1_555
H20 C32 1_555 1_555
H21 C32 1_555 1_555
C33 C13 1_555 1_555
C34 C33 1_555 1_555
H22 C34 1_555 1_555
C35 C34 1_555 1_555
H23 C35 1_555 1_555
C36 C35 1_555 1_555
H24 C36 1_555 1_555
C37 C36 1_555 1_555
H25 C37 1_555 1_555
C38 C33 1_555 1_555
H26 C38 1_555 1_555
C39 C20 1_555 1_555
C40 C39 1_555 1_555
H27 C40 1_555 1_555
C41 C40 1_555 1_555
H28 C41 1_555 1_555
C42 C41 1_555 1_555
H29 C42 1_555 1_555
C43 C42 1_555 1_555
H30 C43 1_555 1_555
C44 C39 1_555 1_555
H31 C44 1_555 1_555
C45 C24 1_555 1_555
C46 C45 1_555 1_555
H32 C46 1_555 1_555
H33 C46 1_555 1_555
H34 C46 1_555 1_555
C47 C45 1_555 1_555
H35 C47 1_555 1_555
H36 C47 1_555 1_555
H37 C47 1_555 1_555
C48 C45 1_555 1_555
H38 C48 1_555 1_555
H39 C48 1_555 1_555
H40 C48 1_555 1_555
C10 C11 1_555 1_555
C15 C16 1_555 1_555
C16 C17 1_555 1_555
C18 C19 1_555 1_555
C20 C21 1_555 1_555
C21 C22 1_555 1_555
C25 C26 1_555 1_555
C27 C28 1_555 1_555
C37 C38 1_555 1_555
C43 C44 1_555 1_555

#END
