
#######################################################################
#
#                 Cambridge Crystallographic Data Centre
#                                CCDC 
#
#######################################################################
#
# If this CIF has been generated from an entry in the Cambridge 
# Structural Database, then it will include bibliographic, chemical, 
# crystal, experimental, refinement or atomic coordinate data resulting 
# from the CCDC's data processing and validation procedures.
#
#######################################################################

data_ZOSWEL
_chemical_formula_moiety         'C10 H9 F2 N2 1+,I1 1-'
_chemical_name_systematic        
'1-(2,4-difluorophenyl)-3-methyl-1H-imidazolium iodide'
_symmetry_cell_setting           monoclinic
_symmetry_space_group_name_H-M   'P 21/n'
_symmetry_Int_Tables_number      14
_space_group_name_Hall           '-P 2yn'
loop_
_symmetry_equiv_pos_site_id
_symmetry_equiv_pos_as_xyz
1 x,y,z
2 1/2-x,1/2+y,1/2-z
3 -x,-y,-z
4 1/2+x,1/2-y,1/2+z
_cell_length_a                   10.6599(4)
_cell_length_b                   18.5135(6)
_cell_length_c                   12.3423(4)
_cell_angle_alpha                90
_cell_angle_beta                 109.284(3)
_cell_angle_gamma                90
_cell_volume                     2299.11
_exptl_crystal_description       block
_cell_formula_units_Z            8
loop_
_atom_site_label
_atom_site_type_symbol
_atom_site_fract_x
_atom_site_fract_y
_atom_site_fract_z
F1 F 0.7351(2) 0.21626(11) 0.45319(16)
F2 F 1.01781(19) 0.34229(13) 0.76542(15)
N1 N 0.6631(2) 0.33339(12) 0.12479(18)
N2 N 0.7821(2) 0.30988(12) 0.29921(18)
C1 C 0.7048(3) 0.35979(15) 0.2300(2)
H1 H 0.6838 0.4060 0.2527
C2 C 0.7893(3) 0.25008(15) 0.2340(2)
H2 H 0.8373 0.2068 0.2609
C3 C 0.7149(3) 0.26542(16) 0.1250(2)
H3 H 0.7009 0.2349 0.0602
C4 C 0.8458(2) 0.31854(15) 0.4200(2)
C5 C 0.9318(3) 0.37571(17) 0.4631(2)
H4 H 0.9506 0.4091 0.4121
C6 C 0.9902(3) 0.38414(18) 0.5806(3)
H5 H 1.0491 0.4231 0.6116
C7 C 0.9606(3) 0.3346(2) 0.6508(2)
C8 C 0.8770(3) 0.27711(19) 0.6122(2)
H6 H 0.8595 0.2435 0.6635
C9 C 0.8196(3) 0.27056(16) 0.4948(2)
C10 C 0.5737(3) 0.37089(18) 0.0236(2)
H7 H 0.4813 0.3592 0.0151
H8 H 0.5931 0.3553 -0.0450
H9 H 0.5872 0.4232 0.0335
F3 F 0.31161(18) 0.42638(10) 0.13970(15)
F4 F 0.05233(17) 0.51810(12) -0.21617(14)
N3 N 0.2717(2) 0.54947(11) 0.25262(18)
N4 N 0.3820(2) 0.59644(13) 0.41549(18)
C11 C 0.3420(2) 0.60683(15) 0.3034(2)
H10 H 0.3602 0.6482 0.2655
C12 C 0.2694(3) 0.49987(16) 0.3360(2)
H11 H 0.2273 0.4539 0.3239
C13 C 0.3385(3) 0.52967(16) 0.4375(2)
H12 H 0.3544 0.5086 0.5110
C14 C 0.2143(2) 0.54132(14) 0.1308(2)
C15 C 0.1390(3) 0.59697(15) 0.0653(2)
H13 H 0.1246 0.6400 0.1013
C16 C 0.0846(3) 0.58947(17) -0.0531(2)
H14 H 0.0329 0.6270 -0.0992
C17 C 0.1076(3) 0.52652(18) -0.1012(2)
C18 C 0.1831(3) 0.47066(16) -0.0395(2)
H15 H 0.1976 0.4279 -0.0763
C19 C 0.2365(2) 0.47907(15) 0.0772(2)
C20 C 0.4720(3) 0.64521(19) 0.5001(3)
H16 H 0.5644 0.6318 0.5113
H17 H 0.4551 0.6413 0.5733
H18 H 0.4565 0.6951 0.4722
I1 I 0.62679(2) 0.55070(2) 0.26227(2)
I2 I 0.16735(2) 0.29320(2) 0.31012(2)
loop_
_geom_bond_atom_site_label_1
_geom_bond_atom_site_label_2
_geom_bond_site_symmetry_1
_geom_bond_site_symmetry_2
F1 C9 1_555 1_555
F2 C7 1_555 1_555
N1 C1 1_555 1_555
N2 C1 1_555 1_555
C1 H1 1_555 1_555
C2 N2 1_555 1_555
H2 C2 1_555 1_555
C3 N1 1_555 1_555
H3 C3 1_555 1_555
C4 N2 1_555 1_555
C5 C4 1_555 1_555
H4 C5 1_555 1_555
C6 C5 1_555 1_555
H5 C6 1_555 1_555
C7 C6 1_555 1_555
C8 C7 1_555 1_555
H6 C8 1_555 1_555
C9 C4 1_555 1_555
C10 N1 1_555 1_555
H7 C10 1_555 1_555
H8 C10 1_555 1_555
H9 C10 1_555 1_555
F3 C19 1_555 1_555
F4 C17 1_555 1_555
N3 C11 1_555 1_555
N4 C11 1_555 1_555
C11 H10 1_555 1_555
C12 N3 1_555 1_555
H11 C12 1_555 1_555
C13 N4 1_555 1_555
H12 C13 1_555 1_555
C14 N3 1_555 1_555
C15 C14 1_555 1_555
H13 C15 1_555 1_555
C16 C15 1_555 1_555
H14 C16 1_555 1_555
C17 C16 1_555 1_555
C18 C17 1_555 1_555
H15 C18 1_555 1_555
C19 C14 1_555 1_555
C20 N4 1_555 1_555
H16 C20 1_555 1_555
H17 C20 1_555 1_555
H18 C20 1_555 1_555
C2 C3 1_555 1_555
C8 C9 1_555 1_555
C12 C13 1_555 1_555
C18 C19 1_555 1_555

#END
