
#######################################################################
#
#                 Cambridge Crystallographic Data Centre
#                                CCDC 
#
#######################################################################
#
# If this CIF has been generated from an entry in the Cambridge 
# Structural Database, then it will include bibliographic, chemical, 
# crystal, experimental, refinement or atomic coordinate data resulting 
# from the CCDC's data processing and validation procedures.
#
#######################################################################

data_ZOTDAP
_chemical_formula_moiety         'C10 H11 N3,3(H2 O1)'
_chemical_name_systematic        
'5,7-dimethyl-1,8-naphthyridin-2-amine trihydrate'
_symmetry_cell_setting           monoclinic
_symmetry_space_group_name_H-M   'P 21/c'
_symmetry_Int_Tables_number      14
_space_group_name_Hall           '-P 2ybc'
loop_
_symmetry_equiv_pos_site_id
_symmetry_equiv_pos_as_xyz
1 x,y,z
2 -x,1/2+y,1/2-z
3 -x,-y,-z
4 x,1/2-y,1/2+z
_cell_length_a                   7.0612(5)
_cell_length_b                   17.0603(15)
_cell_length_c                   10.3203(10)
_cell_angle_alpha                90
_cell_angle_beta                 97.420(7)
_cell_angle_gamma                90
_cell_volume                     1232.84
_exptl_crystal_colour            'light yellow'
_exptl_crystal_description       needle
_cell_formula_units_Z            4
loop_
_atom_site_label
_atom_site_type_symbol
_atom_site_fract_x
_atom_site_fract_y
_atom_site_fract_z
N1 N 0.8499(4) 0.69365(19) 0.2977(4)
H1 H 0.884(5) 0.740(2) 0.336(4)
H2 H 0.831(6) 0.685(3) 0.215(5)
N2 N 0.7641(3) 0.56459(13) 0.3202(2)
N3 N 0.6854(3) 0.43413(13) 0.3352(2)
C1 C 0.8186(3) 0.63234(17) 0.3754(3)
C2 C 0.8477(4) 0.64284(19) 0.5139(3)
H3 H 0.8867 0.6911 0.5499
C3 C 0.8178(3) 0.58189(18) 0.5917(3)
H4 H 0.8346 0.5883 0.6819
C4 C 0.7611(3) 0.50814(16) 0.5373(2)
C5 C 0.7355(3) 0.50276(15) 0.3984(2)
C6 C 0.6576(4) 0.37122(17) 0.4058(3)
C7 C 0.6776(4) 0.37362(19) 0.5441(3)
H5 H 0.6560 0.3285 0.5905
C8 C 0.7278(3) 0.44070(18) 0.6097(3)
C9 C 0.6092(5) 0.29644(19) 0.3341(4)
H6 H 0.5072 0.3055 0.2647
H7 H 0.5699 0.2581 0.3933
H8 H 0.7194 0.2776 0.2981
C10 C 0.7493(5) 0.4438(2) 0.7572(3)
H9 H 0.7111 0.3945 0.7904
H10 H 0.6702 0.4848 0.7844
H11 H 0.8803 0.4540 0.7904
O1 O 0.6880(4) 0.41393(15) 0.0675(2)
H12 H 0.6813 0.4163 0.1491
H13 H 0.7027 0.4598 0.0383
O2 O 0.9705(4) 0.66719(16) 0.9446(4)
H14 H 1.0693 0.6389 0.9430
H15 H 0.8835 0.6404 0.9734
O3 O 0.6968(3) 0.5800(2) 0.0480(2)
H16 H 0.7079 0.5753 0.1306
H17 H 0.5808 0.5892 0.0187
loop_
_geom_bond_atom_site_label_1
_geom_bond_atom_site_label_2
_geom_bond_site_symmetry_1
_geom_bond_site_symmetry_2
N1 H1 1_555 1_555
H2 N1 1_555 1_555
N2 C1 1_555 1_555
N3 C5 1_555 1_555
C1 N1 1_555 1_555
C2 C1 1_555 1_555
H3 C2 1_555 1_555
C3 C2 1_555 1_555
H4 C3 1_555 1_555
C4 C3 1_555 1_555
C5 N2 1_555 1_555
C6 N3 1_555 1_555
C7 C6 1_555 1_555
H5 C7 1_555 1_555
C8 C4 1_555 1_555
C9 C6 1_555 1_555
H6 C9 1_555 1_555
H7 C9 1_555 1_555
H8 C9 1_555 1_555
C10 C8 1_555 1_555
H9 C10 1_555 1_555
H10 C10 1_555 1_555
H11 C10 1_555 1_555
O1 H12 1_555 1_555
H13 O1 1_555 1_555
O2 H14 1_555 1_555
H15 O2 1_555 1_555
O3 H16 1_555 1_555
H17 O3 1_555 1_555
C4 C5 1_555 1_555
C7 C8 1_555 1_555

#END
