
#######################################################################
#
#                 Cambridge Crystallographic Data Centre
#                                CCDC 
#
#######################################################################
#
# If this CIF has been generated from an entry in the Cambridge 
# Structural Database, then it will include bibliographic, chemical, 
# crystal, experimental, refinement or atomic coordinate data resulting 
# from the CCDC's data processing and validation procedures.
#
#######################################################################

data_ZOTWUC
_chemical_formula_moiety         'C7 H6 Cl1 N1 O2'
_chemical_name_systematic        '2-chloro-6-methylisonicotinic acid'
_symmetry_cell_setting           monoclinic
_symmetry_space_group_name_H-M   'P 21/n'
_symmetry_Int_Tables_number      14
_space_group_name_Hall           '-P 2yn'
loop_
_symmetry_equiv_pos_site_id
_symmetry_equiv_pos_as_xyz
1 x,y,z
2 1/2-x,1/2+y,1/2-z
3 -x,-y,-z
4 1/2+x,1/2-y,1/2+z
_cell_length_a                   7.2279(18)
_cell_length_b                   7.615(3)
_cell_length_c                   13.593(3)
_cell_angle_alpha                90
_cell_angle_beta                 91.58(2)
_cell_angle_gamma                90
_cell_volume                     747.881
_exptl_crystal_colour            colorless
_exptl_crystal_description       block
_cell_formula_units_Z            4
loop_
_atom_site_label
_atom_site_type_symbol
_atom_site_fract_x
_atom_site_fract_y
_atom_site_fract_z
Cl1 Cl -0.3409(2) 0.8654(3) 0.44450(14)
O1 O 0.2041(5) 0.7679(7) 0.6993(3)
H1 H 0.2845 0.7850 0.7420
O2 O 0.4235(7) 0.6141(7) 0.6245(3)
C1 C 0.1698(6) 0.5615(7) 0.2563(3)
H2 H 0.0995 0.4572 0.2419
H3 H 0.2991 0.5328 0.2605
H4 H 0.1484 0.6462 0.2049
N1 N -0.0634(6) 0.7153(6) 0.3612(3)
C2 C -0.1234(7) 0.7782(7) 0.4466(4)
C3 C -0.0186(8) 0.7767(8) 0.5337(4)
H5 H -0.0628 0.8257 0.5912
C4 C 0.1568(7) 0.6980(7) 0.5314(4)
C5 C 0.2770(8) 0.6879(8) 0.6239(4)
C6 C 0.1060(7) 0.6435(7) 0.3609(4)
C7 C 0.2184(8) 0.6334(7) 0.4459(4)
H6 H 0.3351 0.5824 0.4436
loop_
_geom_bond_atom_site_label_1
_geom_bond_atom_site_label_2
_geom_bond_site_symmetry_1
_geom_bond_site_symmetry_2
Cl1 C2 1_555 1_555
O1 H1 1_555 1_555
O2 C5 1_555 1_555
C1 H2 1_555 1_555
H3 C1 1_555 1_555
H4 C1 1_555 1_555
N1 C2 1_555 1_555
C2 C3 1_555 1_555
C3 H5 1_555 1_555
C4 C3 1_555 1_555
C5 O1 1_555 1_555
C6 C1 1_555 1_555
C7 C4 1_555 1_555
H6 C7 1_555 1_555
N1 C6 1_555 1_555
C4 C5 1_555 1_555
C6 C7 1_555 1_555

#END
