
#######################################################################
#
#                 Cambridge Crystallographic Data Centre
#                                CCDC 
#
#######################################################################
#
# If this CIF has been generated from an entry in the Cambridge 
# Structural Database, then it will include bibliographic, chemical, 
# crystal, experimental, refinement or atomic coordinate data resulting 
# from the CCDC's data processing and validation procedures.
#
#######################################################################

data_ZOVCES01
_chemical_formula_moiety         'C16 H12 S12'
_chemical_name_systematic        
cis,cis-2,5,7,10-Tetrathia-1,6(2,7)-ditetrathiafulvalenacyclodecaphane
_symmetry_cell_setting           orthorhombic
_symmetry_space_group_name_H-M   'P b c a'
_symmetry_Int_Tables_number      61
_space_group_name_Hall           '-P 2ac 2ab'
loop_
_symmetry_equiv_pos_site_id
_symmetry_equiv_pos_as_xyz
1 x,y,z
2 1/2-x,-y,1/2+z
3 1/2+x,1/2-y,-z
4 -x,1/2+y,1/2-z
5 -x,-y,-z
6 1/2+x,y,1/2-z
7 1/2-x,1/2+y,z
8 x,1/2-y,1/2+z
_cell_length_a                   22.446(3)
_cell_length_b                   12.290(2)
_cell_length_c                   8.310(2)
_cell_angle_alpha                90
_cell_angle_beta                 90
_cell_angle_gamma                90
_cell_volume                     2292.41
_exptl_crystal_colour            yellow
_exptl_crystal_description       plates
_chemical_melting_point          258-260deg.C(dec.)
_cell_formula_units_Z            4
_exptl_crystal_recrystallization_method chlorobenzene
loop_
_atom_site_label
_atom_site_type_symbol
_atom_site_fract_x
_atom_site_fract_y
_atom_site_fract_z
S1 S 0.13383(7) 0.00160(15) 0.38620(25)
C1 C 0.11605(31) 0.13862(57) 0.34474(90)
S2 S 0.16929(7) 0.23151(16) 0.41959(25)
C2 C 0.20510(32) 0.13699(63) 0.54522(93)
C3 C 0.18975(29) 0.03311(62) 0.52962(90)
S3 S 0.01409(7) 0.08066(15) 0.18781(26)
C4 C 0.06739(29) 0.17104(53) 0.26857(89)
S4 S 0.05122(9) 0.30856(14) 0.23300(28)
C5 C -0.01647(32) 0.28681(57) 0.14071(93)
C6 C -0.03411(29) 0.18221(56) 0.12096(87)
S5 S 0.22818(7) -0.07356(19) 0.62170(28)
C7 C 0.16936(32) -0.14169(57) 0.73897(99)
S6 S -0.09514(9) 0.14529(16) 0.00059(25)
C8 C 0.14170(31) -0.06595(59) 0.86022(92)
S6D S 0.09514(9) -0.14529(16) 0.99941(25)
C6D C 0.03411(29) -0.18221(56) 0.87904(87)
S3D S -0.01409(7) -0.08066(15) 0.81219(26)
C4D C -0.06739(29) -0.17104(53) 0.73143(89)
C1D C -0.11605(31) -0.13862(57) 0.65526(90)
S1D S -0.13383(7) -0.00160(15) 0.61380(25)
C3D C -0.18975(29) -0.03311(62) 0.47038(90)
C2D C -0.20510(32) -0.13699(63) 0.45478(93)
S2D S -0.16929(7) -0.23151(16) 0.58041(25)
S5D S -0.22818(7) 0.07356(19) 0.37830(28)
C7D C -0.16936(32) 0.14169(57) 0.26103(99)
C8D C -0.14170(31) 0.06595(59) 0.13978(92)
S4D S -0.05122(9) -0.30856(14) 0.76700(28)
C5D C 0.01647(32) -0.28681(57) 0.85929(93)
loop_
_geom_bond_atom_site_label_1
_geom_bond_atom_site_label_2
_geom_bond_site_symmetry_1
_geom_bond_site_symmetry_2
S1 C1 1_555 1_555
C1 S2 1_555 1_555
S2 C2 1_555 1_555
C2 C3 1_555 1_555
C3 S1 1_555 1_555
S3 C4 1_555 1_555
C4 C1 1_555 1_555
S4 C4 1_555 1_555
C5 S4 1_555 1_555
C6 S3 1_555 1_555
S5 C3 1_555 1_555
C7 S5 1_555 1_555
S6 C6 1_555 1_555
C8 C7 1_555 1_555
S6D C8 1_555 1_555
C6D S6D 1_555 1_555
S3D C6D 1_555 1_555
C4D S3D 1_555 1_555
C1D C4D 1_555 1_555
S1D C1D 1_555 1_555
C3D S1D 1_555 1_555
C2D C3D 1_555 1_555
S2D C1D 1_555 1_555
S5D C3D 1_555 1_555
C7D S5D 1_555 1_555
C8D S6 1_555 1_555
S4D C4D 1_555 1_555
C5D C6D 1_555 1_555
C5 C6 1_555 1_555
C2D S2D 1_555 1_555
C7D C8D 1_555 1_555
S4D C5D 1_555 1_555

#END
