
#######################################################################
#
#                 Cambridge Crystallographic Data Centre
#                                CCDC 
#
#######################################################################
#
# If this CIF has been generated from an entry in the Cambridge 
# Structural Database, then it will include bibliographic, chemical, 
# crystal, experimental, refinement or atomic coordinate data resulting 
# from the CCDC's data processing and validation procedures.
#
#######################################################################

data_ZOVCAO10
_chemical_formula_moiety         'C26 H27 O5 P1'
_chemical_name_systematic        
'Methyl 4,6-O-benzylidene-3-deoxy-3-(diphenylphosphino)-\a-D-altropyranoside'
_symmetry_cell_setting           monoclinic
_symmetry_space_group_name_H-M   'P 21'
_symmetry_Int_Tables_number      4
_space_group_name_Hall           'P 2yb'
loop_
_symmetry_equiv_pos_site_id
_symmetry_equiv_pos_as_xyz
1 x,y,z
2 -x,1/2+y,-z
_cell_length_a                   9.294(1)
_cell_length_b                   7.999(1)
_cell_length_c                   15.925(2)
_cell_angle_alpha                90
_cell_angle_beta                 96.17(5)
_cell_angle_gamma                90
_cell_volume                     1177.05
_chemical_melting_point          204-206deg.C
_cell_formula_units_Z            2
loop_
_atom_site_label
_atom_site_type_symbol
_atom_site_fract_x
_atom_site_fract_y
_atom_site_fract_z
P1 P 0.2533(1) -0.801 0.8053(8)
O1 O 0.5108(4) -0.7995(6) 0.6844(2)
O2 O 0.2199(4) -0.5781(5) 0.5699(2)
O3 O 0.0462(4) -1.0067(4) 0.6825(2)
O4 O 0.3588(4) -0.9124(5) 0.5718(2)
O5 O 0.1190(4) -1.2493(4) 0.6168(2)
C1 C 0.4129(6) -0.7627(7) 0.6129(3)
C2 C 0.2958(6) -0.6520(7) 0.6438(3)
C3 C 0.1852(5) -0.7479(6) 0.6925(3)
C4 C 0.1418(5) -0.9041(7) 0.6403(3)
C5 C 0.2729(5) -1.0077(7) 0.6232(2)
C6 C 0.2221(6) -1.1606(7) 0.5726(4)
C7 C -0.0012(5) -1.1426(7) 0.6303(3)
C8 C 0.6347(7) -0.894(1) 0.6651(6)
C9 C -0.1114(5) -1.2412(7) 0.6721(3)
C10 C -0.2129(7) -1.3286(9) 0.6024(4)
C11 C -0.3228(7) -1.416(1) 0.6551(4)
C12 C -0.3270(7) -1.418(1) 0.7413(4)
C13 C -0.2251(7) -1.327(1) 0.7924(4)
C14 C -0.1160(6) -1.2387(8) 0.7590(4)
C15 C 0.0814(5) -0.8232(7) 0.8553(3)
C16 C -0.0472(6) -0.7433(9) 0.8292(4)
C17 C -0.1678(7) -0.744(1) 0.8725(4)
C18 C -0.1560(7) -0.881(1) 0.9422(4)
C19 C -0.0257(8) -0.958(1) 0.9689(4)
C20 C 0.0944(7) -0.9318(9) 0.9256(4)
C21 C 0.3129(5) -0.5901(7) 0.8427(3)
C22 C 0.4390(6) -0.5834(9) 0.8983(3)
C23 C 0.4929(6) -0.428(1) 0.9263(4)
C24 C 0.4249(7) -0.2826(9) 0.8983(4)
C25 C 0.2986(7) -0.2867(9) 0.8421(4)
C26 C 0.2426(6) -0.4441(8) 0.8170(4)
loop_
_geom_bond_atom_site_label_1
_geom_bond_atom_site_label_2
_geom_bond_site_symmetry_1
_geom_bond_site_symmetry_2
P1 C3 1_555 1_555
O1 C1 1_555 1_555
O2 C2 1_555 1_555
O3 C4 1_555 1_555
O4 C1 1_555 1_555
O5 C6 1_555 1_555
C1 C2 1_555 1_555
C2 C3 1_555 1_555
C3 C4 1_555 1_555
C4 C5 1_555 1_555
C5 O4 1_555 1_555
C6 C5 1_555 1_555
C7 O3 1_555 1_555
C8 O1 1_555 1_555
C9 C7 1_555 1_555
C10 C9 1_555 1_555
C11 C10 1_555 1_555
C12 C11 1_555 1_555
C13 C12 1_555 1_555
C14 C9 1_555 1_555
C15 P1 1_555 1_555
C16 C15 1_555 1_555
C17 C16 1_555 1_555
C18 C17 1_555 1_555
C19 C18 1_555 1_555
C20 C15 1_555 1_555
C21 P1 1_555 1_555
C22 C21 1_555 1_555
C23 C22 1_555 1_555
C24 C23 1_555 1_555
C25 C24 1_555 1_555
C26 C21 1_555 1_555
O5 C7 1_555 1_555
C13 C14 1_555 1_555
C19 C20 1_555 1_555
C25 C26 1_555 1_555

#END
