
#######################################################################
#
#                 Cambridge Crystallographic Data Centre
#                                CCDC 
#
#######################################################################
#
# If this CIF has been generated from an entry in the Cambridge 
# Structural Database, then it will include bibliographic, chemical, 
# crystal, experimental, refinement or atomic coordinate data resulting 
# from the CCDC's data processing and validation procedures.
#
#######################################################################

data_ZOWCAP
_chemical_formula_moiety         'C18 H20 O6'
_chemical_name_systematic        
2,11-Epoxy-3,8,14,18-tetrahydroxytetracyclo(12.4.0.0^2,11^.0^4,9^)octadeca-4,6,8-triene-10-one
_symmetry_cell_setting           orthorhombic
_symmetry_space_group_name_H-M   'F d d 2'
_symmetry_Int_Tables_number      43
_space_group_name_Hall           'F 2 -2d'
loop_
_symmetry_equiv_pos_site_id
_symmetry_equiv_pos_as_xyz
1 x,y,z
2 -x,-y,z
3 1/4-x,1/4+y,1/4+z
4 3/4+x,3/4-y,1/4+z
5 x,1/2+y,1/2+z
6 -x,1/2-y,1/2+z
7 1/4-x,3/4+y,3/4+z
8 3/4+x,1/4-y,3/4+z
9 1/2+x,y,1/2+z
10 1/2-x,-y,1/2+z
11 3/4-x,1/4+y,3/4+z
12 1/4+x,3/4-y,3/4+z
13 1/2+x,1/2+y,z
14 1/2-x,1/2-y,z
15 3/4-x,3/4+y,1/4+z
16 1/4+x,1/4-y,1/4+z
_cell_length_a                   25.162(6)
_cell_length_b                   27.454(8)
_cell_length_c                   8.747(4)
_cell_angle_alpha                90
_cell_angle_beta                 90
_cell_angle_gamma                90
_cell_volume                     6042.41
_exptl_crystal_colour            colorless
_cell_formula_units_Z            16
loop_
_atom_site_label
_atom_site_type_symbol
_atom_site_fract_x
_atom_site_fract_y
_atom_site_fract_z
O1 O 0.1587(2) 0.1552(2) 0.0682(7)
O2 O 0.0592(2) 0.1275(2) 0.0597(8)
O3 O 0.0042(2) 0.2823(2) 0.4162(6)
O4 O 0.0044(2) 0.1662(2) 0.3982(6)
O5 O -0.0896(2) 0.2949(2) 0.2721(8)
O6 O -0.0942(2) 0.1318(2) 0.4849(7)
C1 C 0.1404(3) 0.1926(3) 0.1525(11)
C2 C 0.1769(3) 0.2266(3) 0.1995(11)
C3 C 0.1598(3) 0.2670(3) 0.2812(10)
C4 C 0.1070(3) 0.2740(3) 0.3168(10)
C5 C 0.0696(3) 0.2397(3) 0.2696(8)
C6 C 0.0107(3) 0.2499(3) 0.2901(9)
C7 C -0.0223(3) 0.2040(2) 0.3104(9)
C8 C -0.0813(3) 0.2103(2) 0.3476(11)
C9 C -0.1109(3) 0.1601(3) 0.3521(9)
C10 C -0.0989(3) 0.1313(3) 0.2092(10)
C11 C -0.0397(3) 0.1189(3) 0.1868(10)
C12 C -0.0032(3) 0.1593(2) 0.2314(9)
C13 C 0.0494(3) 0.1600(3) 0.1502(10)
C14 C 0.0869(3) 0.1982(3) 0.1888(9)
C15 C -0.1090(3) 0.2467(3) 0.2407(11)
C16 C -0.1684(3) 0.2482(3) 0.2589(13)
C17 C -0.1946(3) 0.1978(3) 0.2552(13)
C18 C -0.1703(3) 0.1660(3) 0.3751(11)
loop_
_geom_bond_atom_site_label_1
_geom_bond_atom_site_label_2
_geom_bond_site_symmetry_1
_geom_bond_site_symmetry_2
O1 C1 1_555 1_555
O2 C13 1_555 1_555
O3 C6 1_555 1_555
O4 C7 1_555 1_555
O5 C15 1_555 1_555
O6 C9 1_555 1_555
C1 C2 1_555 1_555
C2 C3 1_555 1_555
C3 C4 1_555 1_555
C4 C5 1_555 1_555
C5 C6 1_555 1_555
C6 C7 1_555 1_555
C7 C8 1_555 1_555
C8 C9 1_555 1_555
C9 C10 1_555 1_555
C10 C11 1_555 1_555
C11 C12 1_555 1_555
C12 O4 1_555 1_555
C13 C12 1_555 1_555
C14 C1 1_555 1_555
C15 C8 1_555 1_555
C16 C15 1_555 1_555
C17 C16 1_555 1_555
C18 C9 1_555 1_555
C5 C14 1_555 1_555
C7 C12 1_555 1_555
C13 C14 1_555 1_555
C17 C18 1_555 1_555

#END
