
#######################################################################
#
#                 Cambridge Crystallographic Data Centre
#                                CCDC 
#
#######################################################################
#
# If this CIF has been generated from an entry in the Cambridge 
# Structural Database, then it will include bibliographic, chemical, 
# crystal, experimental, refinement or atomic coordinate data resulting 
# from the CCDC's data processing and validation procedures.
#
#######################################################################

data_ZOWGEZ
_chemical_formula_moiety         'C17 H16 P2 S2'
_chemical_name_systematic        
'2,3-Diphenyl-3,3a,4,6a-tetrahydro-2H-cyclopenta[d][1,2,3]thiadiphosphole 3-sulfide'
_symmetry_cell_setting           triclinic
_symmetry_space_group_name_H-M   'P -1'
_symmetry_Int_Tables_number      2
_space_group_name_Hall           '-P 1'
loop_
_symmetry_equiv_pos_site_id
_symmetry_equiv_pos_as_xyz
1 x,y,z
2 -x,-y,-z
_cell_length_a                   8.2807(11)
_cell_length_b                   9.2592(12)
_cell_length_c                   10.5079(12)
_cell_angle_alpha                96.082(6)
_cell_angle_beta                 92.159(7)
_cell_angle_gamma                98.496(7)
_cell_volume                     791.177
_exptl_crystal_colour            colorless
_exptl_crystal_description       block
_cell_formula_units_Z            2
loop_
_atom_site_label
_atom_site_type_symbol
_atom_site_fract_x
_atom_site_fract_y
_atom_site_fract_z
C1 C 0.2997(5) 0.8107(5) 0.9042(4)
H1 H 0.2651 0.8772 0.976
C2 C 0.4409(5) 0.8990(5) 0.8408(4)
H2 H 0.451 1.0049 0.8757
C3 C 0.5884(6) 0.8394(5) 0.8851(4)
H3 H 0.6971 0.8779 0.8676
C4 C 0.5503(6) 0.7263(5) 0.9518(4)
H4 H 0.6297 0.6764 0.9884
C5 C 0.3702(6) 0.6851(5) 0.9637(4)
H5 H 0.3431 0.6827 1.0545
H6 H 0.3287 0.5883 0.9152
C6 C 0.0298(5) 0.9073(4) 0.7654(4)
C7 C -0.0769(6) 0.8978(5) 0.6582(4)
H7 H -0.0994 0.809 0.6021
C8 C -0.1507(6) 1.0183(5) 0.6332(4)
H8 H -0.2209 1.0128 0.5586
C9 C -0.1219(6) 1.1457(5) 0.7168(4)
H9 H -0.1742 1.2269 0.7
C10 C -0.0182(6) 1.1569(5) 0.8247(4)
H10 H 0.0007 1.245 0.8819
C11 C 0.0587(6) 1.0373(5) 0.8487(4)
H11 H 0.1311 1.0445 0.9221
C12 C 0.3336(5) 0.5403(4) 0.6418(4)
C13 C 0.2332(6) 0.4042(5) 0.6338(4)
H12 H 0.1183 0.3983 0.6196
C14 C 0.3006(6) 0.2772(5) 0.6465(4)
H13 H 0.2321 0.1847 0.6416
C15 C 0.4690(6) 0.2866(5) 0.6665(4)
H14 H 0.5155 0.2001 0.6753
C16 C 0.5685(6) 0.4202(5) 0.6736(4)
H15 H 0.6833 0.4257 0.6878
C17 C 0.5020(5) 0.5466(5) 0.6601(4)
H16 H 0.5716 0.6383 0.6634
P1 P 0.11986(15) 0.74490(12) 0.79411(10)
P2 P 0.23738(15) 0.70028(12) 0.61126(10)
S1 S 0.41625(14) 0.88335(11) 0.66028(10)
S2 S -0.03384(15) 0.58607(12) 0.84765(11)
loop_
_geom_bond_atom_site_label_1
_geom_bond_atom_site_label_2
_geom_bond_site_symmetry_1
_geom_bond_site_symmetry_2
C1 H1 1_555 1_555
C2 C1 1_555 1_555
H2 C2 1_555 1_555
C3 C2 1_555 1_555
H3 C3 1_555 1_555
C4 C3 1_555 1_555
H4 C4 1_555 1_555
C5 C1 1_555 1_555
H5 C5 1_555 1_555
H6 C5 1_555 1_555
C6 C7 1_555 1_555
C7 H7 1_555 1_555
C8 C7 1_555 1_555
H8 C8 1_555 1_555
C9 C8 1_555 1_555
H9 C9 1_555 1_555
C10 C9 1_555 1_555
H10 C10 1_555 1_555
C11 C6 1_555 1_555
H11 C11 1_555 1_555
C12 C13 1_555 1_555
C13 H12 1_555 1_555
C14 C13 1_555 1_555
H13 C14 1_555 1_555
C15 C14 1_555 1_555
H14 C15 1_555 1_555
C16 C15 1_555 1_555
H15 C16 1_555 1_555
C17 C12 1_555 1_555
H16 C17 1_555 1_555
P1 C1 1_555 1_555
P2 C12 1_555 1_555
S1 C2 1_555 1_555
S2 P1 1_555 1_555
C4 C5 1_555 1_555
C6 P1 1_555 1_555
C10 C11 1_555 1_555
C16 C17 1_555 1_555
P1 P2 1_555 1_555
P2 S1 1_555 1_555

#END
