
#######################################################################
#
#                 Cambridge Crystallographic Data Centre
#                                CCDC 
#
#######################################################################
#
# If this CIF has been generated from an entry in the Cambridge 
# Structural Database, then it will include bibliographic, chemical, 
# crystal, experimental, refinement or atomic coordinate data resulting 
# from the CCDC's data processing and validation procedures.
#
#######################################################################

data_ZOWSEJ
_chemical_formula_moiety         'C28 H26 N1 O1 P1'
_chemical_name_systematic        
'(4-Dimethylaminostilbenyl)diphenylphosphine oxide'
_symmetry_cell_setting           monoclinic
_symmetry_space_group_name_H-M   'P 21'
_symmetry_Int_Tables_number      4
_space_group_name_Hall           'P 2yb'
loop_
_symmetry_equiv_pos_site_id
_symmetry_equiv_pos_as_xyz
1 x,y,z
2 -x,1/2+y,-z
_cell_length_a                   8.685(3)
_cell_length_b                   43.31(2)
_cell_length_c                   6.258(2)
_cell_angle_alpha                90
_cell_angle_beta                 104.30(3)
_cell_angle_gamma                90
_cell_volume                     2281
_exptl_crystal_colour            red-orange
_chemical_melting_point          255deg.C
_cell_formula_units_Z            4
loop_
_atom_site_label
_atom_site_type_symbol
_atom_site_fract_x
_atom_site_fract_y
_atom_site_fract_z
C1 C 0.8927(8) 0.0387(2) 0.452(1)
C2 C 0.8225(8) 0.0428(2) 0.616(1)
P1 P 0.5579(2) 0.16310(6) 0.8868(3)
O1 O 0.5617(6) 0.1624(2) 1.1246(7)
C3 C 0.9584(8) 0.0090(2) 0.394(1)
C4 C 1.0332(9) 0.0092(2) 0.221(1)
C5 C 1.1031(9) -0.0165(2) 0.162(1)
C6 C 1.1069(8) -0.0442(2) 0.275(1)
C7 C 1.0279(9) -0.0449(2) 0.453(1)
C8 C 0.9612(9) -0.0181(2) 0.509(1)
N1 N 1.1802(8) -0.0705(2) 0.226(1)
C9 C 1.251(1) -0.0712(3) 0.043(2)
C10 C 1.206(1) -0.0960(2) 0.364(2)
C11 C 0.7616(7) 0.0729(2) 0.668(1)
C12 C 0.6947(8) 0.0740(2) 0.857(1)
C13 C 0.6387(9) 0.1016(2) 0.916(1)
C14 C 0.6411(8) 0.1288(2) 0.797(1)
C15 C 0.7049(8) 0.1280(2) 0.614(1)
C16 C 0.7622(9) 0.0998(2) 0.557(1)
C17 C 0.6614(8) 0.1970(2) 0.818(1)
C18 C 0.6461(8) 0.2077(2) 0.606(1)
C19 C 0.724(1) 0.2337(2) 0.568(1)
C20 C 0.822(1) 0.2497(2) 0.740(2)
C21 C 0.838(1) 0.2389(2) 0.951(2)
C22 C 0.761(1) 0.2120(2) 0.989(1)
C23 C 0.3556(8) 0.1663(2) 0.719(1)
C24 C 0.3104(8) 0.1584(2) 0.497(1)
C25 C 0.1504(9) 0.1609(2) 0.383(1)
C26 C 0.0392(8) 0.1695(2) 0.489(1)
C27 C 0.084(1) 0.1772(3) 0.709(2)
C28 C 0.2405(9) 0.1754(2) 0.824(1)
H1 H 0.901 0.056 0.353
H2 H 0.817 0.024 0.715
H3 H 1.042 0.029 0.140
H4 H 1.150 -0.016 0.030
H5 H 1.028 -0.065 0.536
H6 H 0.906 -0.019 0.632
H7 H 1.300 -0.093 0.035
H8 H 1.166 -0.069 -0.099
H9 H 1.334 -0.056 0.051
H10 H 1.265 -0.113 0.306
H11 H 1.274 -0.091 0.520
H12 H 1.104 -0.105 0.386
H13 H 0.682 0.055 0.943
H14 H 0.600 0.103 1.055
H15 H 0.707 0.147 0.521
H16 H 0.813 0.099 0.425
H17 H 0.578 0.196 0.478
H18 H 0.709 0.241 0.413
H19 H 0.879 0.269 0.712
H20 H 0.906 0.251 1.077
H21 H 0.777 0.204 1.142
H22 H 0.394 0.150 0.426
H23 H 0.120 0.157 0.217
H24 H -0.082 0.169 0.406
H25 H -0.001 0.185 0.781
H26 H 0.272 0.180 0.989
C29 C 0.383(1) 0.4619(2) 0.093(1)
C30 C 0.398(1) 0.4477(3) 0.267(2)
P2 P 0.0401(2) 0.33002(6) 0.4059(3)
O2 O 0.0375(6) 0.3287(1) 0.6401(7)
C31 C 0.4806(8) 0.4902(2) 0.070(1)
C32 C 0.4530(9) 0.5035(2) -0.138(1)
C33 C 0.5310(9) 0.5283(2) -0.182(1)
C34 C 0.6463(8) 0.5439(2) -0.019(1)
C35 C 0.6761(9) 0.5302(2) 0.194(1)
C36 C 0.597(1) 0.5045(2) 0.234(1)
N2 N 0.7244(8) 0.5687(2) -0.062(1)
C37 C 0.813(1) 0.5883(2) 0.111(2)
C38 C 0.694(1) 0.5821(2) -0.279(2)
C39 C 0.3030(8) 0.4181(2) 0.285(1)
C40 C 0.3207(9) 0.4049(3) 0.493(1)
C41 C 0.2395(9) 0.3793(2) 0.518(1)
C42 C 0.1389(8) 0.3646(2) 0.344(1)
C43 C 0.1196(9) 0.3769(2) 0.134(1)
C44 C 0.201(1) 0.4033(2) 0.107(1)
C45 C 0.1428(8) 0.2970(2) 0.327(1)
C46 C 0.1963(9) 0.2955(2) 0.140(1)
C47 C 0.278(1) 0.2694(2) 0.100(1)
C48 C 0.307(1) 0.2461(3) 0.238(2)
C49 C 0.250(1) 0.2466(3) 0.425(2)
C50 C 0.169(1) 0.2726(3) 0.471(1)
C51 C -0.1600(8) 0.3302(2) 0.226(1)
C52 C -0.1971(8) 0.3233(3) 0.007(1)
C53 C -0.352(1) 0.3242(3) -0.114(1)
C54 C -0.4715(9) 0.3313(3) -0.013(2)
C55 C -0.434(1) 0.3377(3) 0.204(2)
C56 C -0.278(1) 0.3378(3) 0.324(2)
H27 H 0.307 0.454 -0.046
H28 H 0.473 0.456 0.407
H29 H 0.365 0.494 -0.260
H30 H 0.506 0.537 -0.339
H31 H 0.758 0.541 0.313
H32 H 0.621 0.496 0.389
H33 H 0.861 0.606 0.040
H34 H 0.741 0.598 0.194
H35 H 0.899 0.577 0.208
H36 H 0.767 0.601 -0.278
H37 H 0.723 0.567 -0.388
H38 H 0.583 0.589 -0.336
H39 H 0.400 0.414 0.622
H40 H 0.254 0.370 0.674
H41 H 0.039 0.368 0.000
H42 H 0.195 0.411 -0.052
H43 H 0.176 0.313 0.026
H44 H 0.308 0.267 -0.048
H45 H 0.385 0.229 0.224
H46 H 0.266 0.228 0.526
H47 H 0.128 0.273 0.612
H48 H -0.108 0.318 -0.066
H49 H -0.379 0.318 -0.275
H50 H -0.586 0.331 -0.103
H51 H -0.520 0.345 0.275
H52 H -0.250 0.341 0.492
loop_
_geom_bond_atom_site_label_1
_geom_bond_atom_site_label_2
_geom_bond_site_symmetry_1
_geom_bond_site_symmetry_2
C1 C2 1_555 1_555
C2 C11 1_555 1_555
P1 O1 1_555 1_555
C3 C1 1_555 1_555
C4 C3 1_555 1_555
C5 C4 1_555 1_555
C6 C5 1_555 1_555
C7 C6 1_555 1_555
C8 C3 1_555 1_555
N1 C6 1_555 1_555
C9 N1 1_555 1_555
C10 N1 1_555 1_555
C11 C12 1_555 1_555
C12 C13 1_555 1_555
C13 C14 1_555 1_555
C14 P1 1_555 1_555
C15 C14 1_555 1_555
C16 C11 1_555 1_555
C17 P1 1_555 1_555
C18 C17 1_555 1_555
C19 C18 1_555 1_555
C20 C19 1_555 1_555
C21 C20 1_555 1_555
C22 C17 1_555 1_555
C23 P1 1_555 1_555
C24 C23 1_555 1_555
C25 C24 1_555 1_555
C26 C25 1_555 1_555
C27 C26 1_555 1_555
C28 C23 1_555 1_555
C29 C30 1_555 1_555
C30 C39 1_555 1_555
P2 O2 1_555 1_555
C31 C29 1_555 1_555
C32 C31 1_555 1_555
C33 C32 1_555 1_555
C34 C33 1_555 1_555
C35 C34 1_555 1_555
C36 C31 1_555 1_555
N2 C34 1_555 1_555
C37 N2 1_555 1_555
C38 N2 1_555 1_555
C39 C40 1_555 1_555
C40 C41 1_555 1_555
C41 C42 1_555 1_555
C42 P2 1_555 1_555
C43 C42 1_555 1_555
C44 C39 1_555 1_555
C45 P2 1_555 1_555
C46 C45 1_555 1_555
C47 C46 1_555 1_555
C48 C47 1_555 1_555
C49 C48 1_555 1_555
C50 C45 1_555 1_555
C51 P2 1_555 1_555
C52 C51 1_555 1_555
C53 C52 1_555 1_555
C54 C53 1_555 1_555
C55 C54 1_555 1_555
C56 C51 1_555 1_555
H1 C1 1_555 1_555
H2 C2 1_555 1_555
H3 C4 1_555 1_555
H4 C5 1_555 1_555
H5 C7 1_555 1_555
H6 C8 1_555 1_555
H7 C9 1_555 1_555
H8 C9 1_555 1_555
H9 C9 1_555 1_555
H10 C10 1_555 1_555
H11 C10 1_555 1_555
H12 C10 1_555 1_555
H13 C12 1_555 1_555
H14 C13 1_555 1_555
H15 C15 1_555 1_555
H16 C16 1_555 1_555
H17 C18 1_555 1_555
H18 C19 1_555 1_555
H19 C20 1_555 1_555
H20 C21 1_555 1_555
H21 C22 1_555 1_555
H22 C24 1_555 1_555
H23 C25 1_555 1_555
H24 C26 1_555 1_555
H25 C27 1_555 1_555
H26 C28 1_555 1_555
H27 C29 1_555 1_555
H28 C30 1_555 1_555
H29 C32 1_555 1_555
H30 C33 1_555 1_555
H31 C35 1_555 1_555
H32 C36 1_555 1_555
H33 C37 1_555 1_555
H34 C37 1_555 1_555
H35 C37 1_555 1_555
H36 C38 1_555 1_555
H37 C38 1_555 1_555
H38 C38 1_555 1_555
H39 C40 1_555 1_555
H40 C41 1_555 1_555
H41 C43 1_555 1_555
H42 C44 1_555 1_555
H43 C46 1_555 1_555
H44 C47 1_555 1_555
H45 C48 1_555 1_555
H46 C49 1_555 1_555
H47 C50 1_555 1_555
H48 C52 1_555 1_555
H49 C53 1_555 1_555
H50 C54 1_555 1_555
H51 C55 1_555 1_555
H52 C56 1_555 1_555
C7 C8 1_555 1_555
C15 C16 1_555 1_555
C21 C22 1_555 1_555
C27 C28 1_555 1_555
C35 C36 1_555 1_555
C43 C44 1_555 1_555
C49 C50 1_555 1_555
C55 C56 1_555 1_555

#END
