
#######################################################################
#
#                 Cambridge Crystallographic Data Centre
#                                CCDC 
#
#######################################################################
#
# If this CIF has been generated from an entry in the Cambridge 
# Structural Database, then it will include bibliographic, chemical, 
# crystal, experimental, refinement or atomic coordinate data resulting 
# from the CCDC's data processing and validation procedures.
#
#######################################################################

data_ZOXCIA
_chemical_formula_moiety         'C8 H8 N7 O6 1+,C1 N5 O2 1-'
_chemical_name_systematic        
'amino(2-(2,4,6-trinitrobenzylidene)hydrazino)methaniminium 5-nitro-3,4-dihydrotetrazol-2-ide'
_symmetry_cell_setting           triclinic
_symmetry_space_group_name_H-M   'P -1'
_symmetry_Int_Tables_number      2
_space_group_name_Hall           '-P 1'
loop_
_symmetry_equiv_pos_site_id
_symmetry_equiv_pos_as_xyz
1 x,y,z
2 -x,-y,-z
_cell_length_a                   8.0665(8)
_cell_length_b                   8.3119(8)
_cell_length_c                   13.9189(14)
_cell_angle_alpha                90.693(3)
_cell_angle_beta                 104.018(3)
_cell_angle_gamma                118.084(3)
_cell_volume                     790.114
_exptl_crystal_colour            colorless
_exptl_crystal_description       block
_cell_formula_units_Z            2
loop_
_atom_site_label
_atom_site_type_symbol
_atom_site_fract_x
_atom_site_fract_y
_atom_site_fract_z
C1 C 0.9230(3) 0.9459(3) 0.11874(17)
N1 N 0.8760(3) 0.7720(3) 0.09574(15)
N2 N 0.7453(3) 0.7228(3) 0.00504(16)
N3 N 0.7187(3) 0.8639(3) -0.02206(15)
N4 N 0.8330(3) 1.0097(3) 0.05040(15)
N5 N 1.0624(3) 1.0613(3) 0.21046(16)
O1 O 1.1094(3) 0.9859(3) 0.27834(13)
O2 O 1.1223(3) 1.2273(3) 0.21545(14)
C2 C 0.7505(3) 0.6919(3) 0.42783(17)
C3 C 0.7656(3) 0.6172(3) 0.34221(17)
C4 C 0.9468(3) 0.6250(3) 0.35300(17)
C5 C 1.0983(3) 0.6991(3) 0.43952(17)
H1 H 1.2196 0.7035 0.4433
C6 C 1.0686(3) 0.7667(3) 0.52032(17)
C7 C 0.8968(3) 0.7687(3) 0.51707(17)
H2 H 0.8805 0.8201 0.5731
C8 C 0.6085(3) 0.5531(3) 0.24720(17)
H3 H 0.5552 0.4348 0.2100
C9 C 0.3513(3) 0.7310(3) 0.09045(17)
N6 N 0.5634(3) 0.6823(3) 0.42846(14)
N7 N 0.5483(3) 0.6664(3) 0.21796(13)
N8 N 0.4072(3) 0.6101(3) 0.12854(13)
H4 H 0.3540 0.4977 0.0966
N9 N 0.2175(3) 0.6750(3) 0.00347(14)
H5 H 0.1776 0.7500 -0.0240
H6 H 0.1679 0.5624 -0.0273
N10 N 0.4297(3) 0.8972(3) 0.13932(14)
H7 H 0.3931 0.9758 0.1140
H8 H 0.5190 0.9302 0.1974
N11 N 0.9849(4) 0.5570(3) 0.26684(15)
N12 N 1.2258(3) 0.8401(3) 0.61538(15)
O3 O 0.4144(2) 0.5333(2) 0.40054(12)
O4 O 0.5711(2) 0.8248(2) 0.46065(13)
O5 O 0.8467(3) 0.4220(3) 0.20940(13)
O6 O 1.1513(3) 0.6361(3) 0.25974(13)
O7 O 1.2111(2) 0.9300(2) 0.68041(12)
O8 O 1.3604(2) 0.8058(2) 0.62439(13)
loop_
_geom_bond_atom_site_label_1
_geom_bond_atom_site_label_2
_geom_bond_site_symmetry_1
_geom_bond_site_symmetry_2
C1 N1 1_555 1_555
N1 N2 1_555 1_555
N2 N3 1_555 1_555
N3 N4 1_555 1_555
N4 C1 1_555 1_555
N5 C1 1_555 1_555
O1 N5 1_555 1_555
O2 N5 1_555 1_555
C2 C3 1_555 1_555
C3 C4 1_555 1_555
C4 C5 1_555 1_555
C5 H1 1_555 1_555
C6 C5 1_555 1_555
C7 C2 1_555 1_555
H2 C7 1_555 1_555
C8 C3 1_555 1_555
H3 C8 1_555 1_555
C9 N8 1_555 1_555
N6 C2 1_555 1_555
N7 C8 1_555 1_555
N8 N7 1_555 1_555
H4 N8 1_555 1_555
N9 C9 1_555 1_555
H5 N9 1_555 1_555
H6 N9 1_555 1_555
N10 C9 1_555 1_555
H7 N10 1_555 1_555
H8 N10 1_555 1_555
N11 C4 1_555 1_555
N12 C6 1_555 1_555
O3 N6 1_555 1_555
O4 N6 1_555 1_555
O5 N11 1_555 1_555
O6 N11 1_555 1_555
O7 N12 1_555 1_555
O8 N12 1_555 1_555
C6 C7 1_555 1_555

#END
