
#######################################################################
#
#                 Cambridge Crystallographic Data Centre
#                                CCDC 
#
#######################################################################
#
# If this CIF has been generated from an entry in the Cambridge 
# Structural Database, then it will include bibliographic, chemical, 
# crystal, experimental, refinement or atomic coordinate data resulting 
# from the CCDC's data processing and validation procedures.
#
#######################################################################

data_ZOXGAW
_chemical_formula_moiety         'C86 H78'
_chemical_name_systematic        
"7,16-bis(4-nonylphenyl)-5,9,14,18-tetraphenylanthra[2',3':4,5]pentaleno[1,2-b]anthracene unknown solvate"
_symmetry_cell_setting           triclinic
_symmetry_space_group_name_H-M   'P -1'
_symmetry_Int_Tables_number      2
_space_group_name_Hall           '-P 1'
loop_
_symmetry_equiv_pos_site_id
_symmetry_equiv_pos_as_xyz
1 x,y,z
2 -x,-y,-z
_cell_length_a                   9.7359(19)
_cell_length_b                   16.193(3)
_cell_length_c                   22.166(5)
_cell_angle_alpha                99.203(10)
_cell_angle_beta                 101.335(12)
_cell_angle_gamma                101.921(9)
_cell_volume                     3278.43
_exptl_crystal_colour            red
_exptl_crystal_description       prism
_cell_formula_units_Z            2
_chemical_properties_physical    
'Air-sensitive, Moisture-sensitive, Oxygen-sensitive, Light-sensitive'
_exptl_crystal_recrystallization_method 
'slow diffusion of methanol or acetonitrile into a chloroform solution'
loop_
_atom_site_label
_atom_site_type_symbol
_atom_site_fract_x
_atom_site_fract_y
_atom_site_fract_z
C1 C 0.8196(5) 0.3680(3) 0.6385(2)
H1 H 0.8277 0.3619 0.5961
C2 C 0.8029(5) 0.4431(3) 0.6703(2)
H2 H 0.7959 0.4887 0.6487
C3 C 0.7954(4) 0.4560(2) 0.7337(2)
C4 C 0.7784(4) 0.5343(2) 0.7667(2)
C5 C 0.7713(4) 0.5440(2) 0.8287(2)
C6 C 0.7567(4) 0.6236(2) 0.8633(2)
H3 H 0.7535 0.6709 0.8431
C7 C 0.7476(4) 0.6322(2) 0.92301(19)
C8 C 0.7327(4) 0.7036(2) 0.96959(18)
C9 C 0.7361(4) 0.7893(2) 0.97581(19)
C10 C 0.7328(4) 0.8201(2) 1.04142(19)
C11 C 0.7370(4) 0.9009(2) 1.0736(2)
H4 H 0.7433 0.9477 1.0526
C12 C 0.7322(4) 0.9150(2) 1.13711(19)
C13 C 0.7327(4) 0.9972(2) 1.1702(2)
C14 C 0.7287(5) 1.0117(3) 1.2326(2)
C15 C 0.7274(5) 1.0943(3) 1.2676(2)
H5 H 0.7272 1.1411 1.2467
C16 C 0.7267(6) 1.1071(3) 1.3285(3)
H6 H 0.7246 1.1624 1.3498
C17 C 0.8246(5) 0.2993(3) 0.6703(2)
H7 H 0.8347 0.2461 0.6487
C18 C 0.8153(4) 0.3079(2) 0.7311(2)
H8 H 0.8192 0.2602 0.7509
C19 C 0.7999(4) 0.3854(2) 0.7665(2)
C20 C 0.7874(4) 0.3949(2) 0.8282(2)
C21 C 0.7744(4) 0.4732(2) 0.86191(19)
C22 C 0.7654(4) 0.4853(2) 0.92532(19)
H9 H 0.7688 0.4392 0.9469
C23 C 0.7517(4) 0.5623(2) 0.95639(19)
C24 C 0.7371(4) 0.5904(2) 1.02085(19)
C25 C 0.7265(4) 0.6752(2) 1.02616(19)
C26 C 0.7241(4) 0.7490(2) 1.0739(2)
C27 C 0.7210(4) 0.7608(2) 1.1350(2)
H10 H 0.7151 0.7129 1.1549
C28 C 0.7266(4) 0.8441(2) 1.1708(2)
C29 C 0.7220(4) 0.8585(3) 1.2333(2)
C30 C 0.7248(5) 0.9418(3) 1.2665(2)
C31 C 0.7278(6) 0.9597(3) 1.3313(2)
H11 H 0.7290 0.9147 1.3541
C32 C 0.7290(7) 1.0394(3) 1.3619(2)
H12 H 0.7314 1.0500 1.4055
C33 C 0.7673(5) 0.6063(3) 0.73271(19)
C34 C 0.6357(6) 0.6072(3) 0.6952(2)
H13 H 0.5532 0.5612 0.6902
C35 C 0.6243(6) 0.6752(3) 0.6650(3)
H14 H 0.5338 0.6754 0.6394
C36 C 0.7403(6) 0.7410(3) 0.6714(2)
H15 H 0.7317 0.7867 0.6499
C37 C 0.8719(6) 0.7418(3) 0.7094(2)
H16 H 0.9538 0.7882 0.7147
C38 C 0.8827(5) 0.6741(3) 0.7395(2)
H17 H 0.9730 0.6748 0.7657
C39 C 0.7415(5) 0.8417(2) 0.92726(19)
C40 C 0.6517(5) 0.8104(3) 0.8676(2)
H18 H 0.5892 0.7542 0.8581
C41 C 0.6508(6) 0.8573(3) 0.8227(2)
H19 H 0.5874 0.8335 0.7824
C42 C 0.7406(6) 0.9400(3) 0.8339(2)
C43 C 0.8323(6) 0.9706(3) 0.8932(2)
H20 H 0.8968 1.0261 0.9023
C44 C 0.8330(5) 0.9228(3) 0.9396(2)
H21 H 0.8965 0.9459 0.9799
C45 C 0.7422(4) 1.0710(2) 1.13519(19)
C46 C 0.6182(5) 1.0833(3) 1.0979(3)
H22 H 0.5266 1.0455 1.0938
C47 C 0.6298(6) 1.1512(4) 1.0670(3)
H23 H 0.5449 1.1603 1.0423
C48 C 0.7593(6) 1.2051(3) 1.0710(2)
H24 H 0.7655 1.2515 1.0495
C49 C 0.8810(6) 1.1914(3) 1.1067(2)
H25 H 0.9726 1.2283 1.1095
C50 C 0.8724(5) 1.1250(3) 1.1385(2)
H26 H 0.9580 1.1165 1.1631
C51 C 0.7834(4) 0.3199(2) 0.86077(19)
C52 C 0.9064(5) 0.2912(3) 0.8801(2)
H27 H 0.9959 0.3192 0.8731
C53 C 0.8987(5) 0.2219(3) 0.9097(2)
H28 H 0.9837 0.2032 0.9235
C54 C 0.7702(5) 0.1799(3) 0.9193(2)
H29 H 0.7656 0.1320 0.9393
C55 C 0.6467(5) 0.2078(3) 0.8997(2)
H30 H 0.5571 0.1798 0.9066
C56 C 0.6552(4) 0.2770(3) 0.8700(2)
H31 H 0.5700 0.2951 0.8557
C57 C 0.7329(4) 0.5368(2) 1.06768(18)
C58 C 0.6282(4) 0.5351(3) 1.10387(19)
H32 H 0.5605 0.5693 1.0972
C59 C 0.6218(5) 0.4857(3) 1.1481(2)
H33 H 0.5495 0.4860 1.1713
C60 C 0.7193(5) 0.4347(2) 1.1598(2)
C61 C 0.8235(5) 0.4371(3) 1.1258(2)
H34 H 0.8925 0.4040 1.1337
C62 C 0.8309(4) 0.4865(2) 1.08021(19)
H35 H 0.9037 0.4860 1.0573
C63 C 0.7077(4) 0.7849(3) 1.26722(19)
C64 C 0.5831(5) 0.7580(3) 1.2874(2)
H36 H 0.5076 0.7867 1.2803
C65 C 0.5675(5) 0.6898(3) 1.3178(2)
H37 H 0.4825 0.6723 1.3322
C66 C 0.6764(5) 0.6473(3) 1.3272(2)
H38 H 0.6656 0.5997 1.3475
C67 C 0.7990(5) 0.6730(3) 1.3076(2)
H39 H 0.8737 0.6436 1.3146
C68 C 0.8161(5) 0.7409(3) 1.2777(2)
H40 H 0.9023 0.7581 1.2641
C69 C 0.7348(8) 0.9913(4) 0.7834(3)
H41 H 0.6596 0.9576 0.7458
H42 H 0.7069 1.0450 0.7982
C70 C 0.8695(8) 1.0130(5) 0.7664(4)
H43 H 0.9046 0.9601 0.7577
H44 H 0.9413 1.0538 0.8022
C71 C 0.8583(8) 1.0550(5) 0.7067(4)
H45 H 0.8002 1.0981 0.7112
H46 H 0.9566 1.0862 0.7060
C72 C 0.7943(11) 0.9947(5) 0.6464(4)
H47 H 0.6989 0.9603 0.6480
H48 H 0.8565 0.9543 0.6402
C73 C 0.7749(10) 1.0373(5) 0.5907(4)
H49 H 0.7624 0.9937 0.5520
H50 H 0.8639 1.0825 0.5949
C74 C 0.6437(9) 1.0790(5) 0.5833(3)
H51 H 0.5536 1.0330 0.5746
H52 H 0.6508 1.1183 0.6235
C75 C 0.6346(9) 1.1289(5) 0.5314(3)
H53 H 0.7265 1.1733 0.5395
H54 H 0.6250 1.0889 0.4912
C76 C 0.5120(8) 1.1725(6) 0.5239(4)
H55 H 0.5228 1.2152 0.5629
H56 H 0.4192 1.1291 0.5164
C77 C 0.5110(10) 1.2179(8) 0.4688(4)
H57 H 0.4291 1.2448 0.4635
H58 H 0.5019 1.1758 0.4303
H59 H 0.6014 1.2625 0.4770
C78 C 0.7128(6) 0.3816(3) 1.2091(2)
H60 H 0.7502 0.3305 1.1970
H61 H 0.6104 0.3605 1.2100
C79 C 0.7968(5) 0.4289(3) 1.2743(2)
H62 H 0.7540 0.4772 1.2875
H63 H 0.8971 0.4542 1.2724
C80 C 0.8022(6) 0.3754(3) 1.3239(2)
H64 H 0.8529 0.3302 1.3129
H65 H 0.7022 0.3462 1.3237
C81 C 0.8772(8) 0.4267(5) 1.3896(3)
H66 H 0.9767 0.4563 1.3893
H67 H 0.8261 0.4720 1.4002
C82 C 0.8857(9) 0.3762(5) 1.4408(3)
H68 H 0.7895 0.3375 1.4363
H69 H 0.9112 0.4166 1.4821
C83 C 0.9958(9) 0.3229(6) 1.4393(3)
H70 H 1.0923 0.3624 1.4461
H71 H 0.9734 0.2856 1.3969
C84 C 1.0029(8) 0.2657(6) 1.4883(3)
H72 H 1.0321 0.3034 1.5308
H73 H 0.9047 0.2292 1.4835
C85 C 1.1006(10) 0.2103(6) 1.4846(4)
H74 H 1.1997 0.2470 1.4920
H75 H 1.0752 0.1753 1.4413
C86 C 1.1019(10) 0.1512(6) 1.5291(4)
H76 H 1.1770 0.1200 1.5253
H77 H 1.0075 0.1099 1.5192
H78 H 1.1220 0.1847 1.5721
loop_
_geom_bond_atom_site_label_1
_geom_bond_atom_site_label_2
_geom_bond_site_symmetry_1
_geom_bond_site_symmetry_2
C1 H1 1_555 1_555
C2 C1 1_555 1_555
H2 C2 1_555 1_555
C3 C2 1_555 1_555
C4 C3 1_555 1_555
C5 C4 1_555 1_555
C6 C5 1_555 1_555
H3 C6 1_555 1_555
C7 C6 1_555 1_555
C8 C7 1_555 1_555
C9 C8 1_555 1_555
C10 C9 1_555 1_555
C11 C10 1_555 1_555
H4 C11 1_555 1_555
C12 C11 1_555 1_555
C13 C12 1_555 1_555
C14 C13 1_555 1_555
C15 C14 1_555 1_555
H5 C15 1_555 1_555
C16 C15 1_555 1_555
H6 C16 1_555 1_555
C17 C1 1_555 1_555
H7 C17 1_555 1_555
C18 C17 1_555 1_555
H8 C18 1_555 1_555
C19 C3 1_555 1_555
C20 C19 1_555 1_555
C21 C5 1_555 1_555
C22 C21 1_555 1_555
H9 C22 1_555 1_555
C23 C7 1_555 1_555
C24 C23 1_555 1_555
C25 C8 1_555 1_555
C26 C10 1_555 1_555
C27 C26 1_555 1_555
H10 C27 1_555 1_555
C28 C12 1_555 1_555
C29 C28 1_555 1_555
C30 C14 1_555 1_555
C31 C30 1_555 1_555
H11 C31 1_555 1_555
C32 C16 1_555 1_555
H12 C32 1_555 1_555
C33 C4 1_555 1_555
C34 C33 1_555 1_555
H13 C34 1_555 1_555
C35 C34 1_555 1_555
H14 C35 1_555 1_555
C36 C35 1_555 1_555
H15 C36 1_555 1_555
C37 C36 1_555 1_555
H16 C37 1_555 1_555
C38 C33 1_555 1_555
H17 C38 1_555 1_555
C39 C9 1_555 1_555
C40 C39 1_555 1_555
H18 C40 1_555 1_555
C41 C40 1_555 1_555
H19 C41 1_555 1_555
C42 C41 1_555 1_555
C43 C42 1_555 1_555
H20 C43 1_555 1_555
C44 C39 1_555 1_555
H21 C44 1_555 1_555
C45 C13 1_555 1_555
C46 C45 1_555 1_555
H22 C46 1_555 1_555
C47 C46 1_555 1_555
H23 C47 1_555 1_555
C48 C47 1_555 1_555
H24 C48 1_555 1_555
C49 C48 1_555 1_555
H25 C49 1_555 1_555
C50 C45 1_555 1_555
H26 C50 1_555 1_555
C51 C20 1_555 1_555
C52 C51 1_555 1_555
H27 C52 1_555 1_555
C53 C52 1_555 1_555
H28 C53 1_555 1_555
C54 C53 1_555 1_555
H29 C54 1_555 1_555
C55 C54 1_555 1_555
H30 C55 1_555 1_555
C56 C51 1_555 1_555
H31 C56 1_555 1_555
C57 C24 1_555 1_555
C58 C57 1_555 1_555
H32 C58 1_555 1_555
C59 C58 1_555 1_555
H33 C59 1_555 1_555
C60 C59 1_555 1_555
C61 C60 1_555 1_555
H34 C61 1_555 1_555
C62 C57 1_555 1_555
H35 C62 1_555 1_555
C63 C29 1_555 1_555
C64 C63 1_555 1_555
H36 C64 1_555 1_555
C65 C64 1_555 1_555
H37 C65 1_555 1_555
C66 C65 1_555 1_555
H38 C66 1_555 1_555
C67 C66 1_555 1_555
H39 C67 1_555 1_555
C68 C63 1_555 1_555
H40 C68 1_555 1_555
C69 C42 1_555 1_555
H41 C69 1_555 1_555
H42 C69 1_555 1_555
C70 C69 1_555 1_555
H43 C70 1_555 1_555
H44 C70 1_555 1_555
C71 C70 1_555 1_555
H45 C71 1_555 1_555
H46 C71 1_555 1_555
C72 C71 1_555 1_555
H47 C72 1_555 1_555
H48 C72 1_555 1_555
C73 C72 1_555 1_555
H49 C73 1_555 1_555
H50 C73 1_555 1_555
C74 C73 1_555 1_555
H51 C74 1_555 1_555
H52 C74 1_555 1_555
C75 C74 1_555 1_555
H53 C75 1_555 1_555
H54 C75 1_555 1_555
C76 C75 1_555 1_555
H55 C76 1_555 1_555
H56 C76 1_555 1_555
C77 C76 1_555 1_555
H57 C77 1_555 1_555
H58 C77 1_555 1_555
H59 C77 1_555 1_555
C78 C60 1_555 1_555
H60 C78 1_555 1_555
H61 C78 1_555 1_555
C79 C78 1_555 1_555
H62 C79 1_555 1_555
H63 C79 1_555 1_555
C80 C79 1_555 1_555
H64 C80 1_555 1_555
H65 C80 1_555 1_555
C81 C80 1_555 1_555
H66 C81 1_555 1_555
H67 C81 1_555 1_555
C82 C81 1_555 1_555
H68 C82 1_555 1_555
H69 C82 1_555 1_555
C83 C82 1_555 1_555
H70 C83 1_555 1_555
H71 C83 1_555 1_555
C84 C83 1_555 1_555
H72 C84 1_555 1_555
H73 C84 1_555 1_555
C85 C84 1_555 1_555
H74 C85 1_555 1_555
H75 C85 1_555 1_555
C86 C85 1_555 1_555
H76 C86 1_555 1_555
H77 C86 1_555 1_555
H78 C86 1_555 1_555
C18 C19 1_555 1_555
C20 C21 1_555 1_555
C22 C23 1_555 1_555
C24 C25 1_555 1_555
C25 C26 1_555 1_555
C27 C28 1_555 1_555
C29 C30 1_555 1_555
C31 C32 1_555 1_555
C37 C38 1_555 1_555
C43 C44 1_555 1_555
C49 C50 1_555 1_555
C55 C56 1_555 1_555
C61 C62 1_555 1_555
C67 C68 1_555 1_555

#END
