
#######################################################################
#
#                 Cambridge Crystallographic Data Centre
#                                CCDC 
#
#######################################################################
#
# If this CIF has been generated from an entry in the Cambridge 
# Structural Database, then it will include bibliographic, chemical, 
# crystal, experimental, refinement or atomic coordinate data resulting 
# from the CCDC's data processing and validation procedures.
#
#######################################################################

data_ZOXJOL
_chemical_compound_source        'basidiomycete Antrodia cinnamomea'
_chemical_name_common            'Antcin A'
_chemical_formula_moiety         'C29 H42 O4'
_chemical_name_systematic        
'4-\a-Methylergosta-8,24(28)-dien-3,11-dion-26-oic acid'
_symmetry_cell_setting           monoclinic
_symmetry_space_group_name_H-M   'P 21'
_symmetry_Int_Tables_number      4
_space_group_name_Hall           'P 2yb'
loop_
_symmetry_equiv_pos_site_id
_symmetry_equiv_pos_as_xyz
1 x,y,z
2 -x,1/2+y,-z
_cell_length_a                   9.8330(24)
_cell_length_b                   7.6482(22)
_cell_length_c                   18.055(3)
_cell_angle_alpha                90
_cell_angle_beta                 102.180(18)
_cell_angle_gamma                90
_cell_volume                     1327.26
_exptl_crystal_colour            colorless
_chemical_melting_point          173-175deg.C
_cell_formula_units_Z            2
loop_
_atom_site_label
_atom_site_type_symbol
_atom_site_fract_x
_atom_site_fract_y
_atom_site_fract_z
C1 C 0.7744(9) 0.4215(10) 0.5042(4)
C2 C 0.7719(9) 0.3932(11) 0.5878(4)
C3 C 0.8392(7) 0.2275(12) 0.6164(4)
C4 C 0.7828(7) 0.0666(12) 0.5709(4)
C5 C 0.7925(8) 0.1038(10) 0.4877(4)
C6 C 0.7562(9) -0.0528(11) 0.4354(5)
C7 C 0.7971(9) -0.0212(11) 0.3609(5)
C8 C 0.7744(7) 0.1628(10) 0.3322(4)
C9 C 0.7340(7) 0.2900(10) 0.3723(4)
C10 C 0.7119(7) 0.2656(11) 0.4538(4)
C11 C 0.6948(8) 0.4606(11) 0.3337(4)
C12 C 0.7385(9) 0.4997(12) 0.2598(4)
C13 C 0.7180(8) 0.3379(11) 0.2089(4)
C14 C 0.8066(7) 0.1956(11) 0.2560(4)
C15 C 0.8010(9) 0.0432(14) 0.1985(5)
C16 C 0.8006(10) 0.1398(15) 0.1230(5)
C17 C 0.7818(9) 0.3418(13) 0.1375(4)
C18 C 0.5636(9) 0.2898(14) 0.1901(5)
C19 C 0.5552(8) 0.2489(14) 0.4507(5)
C20 C 0.7029(9) 0.4366(16) 0.0666(5)
C21 C 0.6747(14) 0.6259(19) 0.0799(6)
C22 C 0.7852(10) 0.4187(19) 0.0017(5)
C23 C 0.7018(12) 0.4639(20) -0.0757(5)
C24 C 0.7683(12) 0.4656(24) -0.1399(6)
C25 C 0.7791(13) 0.3563(24) -0.1907(7)
C26 C 0.661(4) 0.194(7) -0.2104(22)
C27 C 0.827(3) 0.160(4) -0.1428(15)
C28 C 0.783(3) 0.614(5) -0.2060(17)
C29 C 0.8548(11) -0.1026(12) 0.6050(5)
O1 O 0.9344(6) 0.2191(9) 0.6696(3)
O2 O 0.6256(6) 0.5693 0.3598(3)
O3 O 0.570(3) 0.336(5) -0.2727(18)
O4 O 0.666(3) 0.098(5) -0.2534(17)
H1 H 0.722 0.533 0.485
H2 H 0.872 0.442 0.498
H3 H 0.825 0.493 0.617
H4 H 0.675 0.407 0.595
H5 H 0.680 0.062 0.570
H6 H 0.893 0.130 0.490
H7 H 0.653 -0.066 0.428
H8 H 0.799 -0.161 0.463
H9 H 0.898 -0.046 0.368
H10 H 0.745 -0.102 0.321
H11 H 0.838 0.538 0.269
H12 H 0.687 0.605 0.234
H13 H 0.904 0.241 0.265
H14 H 0.715 -0.027 0.197
H15 H 0.881 -0.039 0.214
H16 H 0.725 0.092 0.083
H17 H 0.887 0.110 0.105
H18 H 0.874 0.399 0.150
H19 H 0.527 0.291 0.237
H20 H 0.554 0.172 0.167
H21 H 0.512 0.379 0.154
H22 H 0.515 0.147 0.418
H23 H 0.504 0.356 0.427
H24 H 0.533 0.236 0.501
H25 H 0.609 0.378 0.049
H26 H 0.617 0.651 0.118
H27 H 0.628 0.689 0.033
H28 H 0.768 0.694 0.097
H29 H 0.875 0.485 0.012
H30 H 0.817 0.294 -0.001
H31 H 0.659 0.580 -0.067
H32 H 0.617 0.384 -0.084
C30? C 0.6210(19) 0.303(3) -0.2391(10)
C31? C 0.9041(19) 0.216(3) -0.1342(10)
C32? C 0.8090(21) 0.649(3) -0.1546(12)
O5? O 0.5171(18) 0.341(3) -0.2187(9)
O6? O 0.6058(12) 0.2102(19) -0.2891(7)
loop_
_geom_bond_atom_site_label_1
_geom_bond_atom_site_label_2
_geom_bond_site_symmetry_1
_geom_bond_site_symmetry_2
C1 C2 1_555 1_555
C2 C3 1_555 1_555
C3 C4 1_555 1_555
C4 C5 1_555 1_555
C5 C6 1_555 1_555
C6 C7 1_555 1_555
C7 C8 1_555 1_555
C8 C9 1_555 1_555
C9 C10 1_555 1_555
C10 C1 1_555 1_555
C11 C9 1_555 1_555
C12 C11 1_555 1_555
C13 C12 1_555 1_555
C14 C8 1_555 1_555
C15 C14 1_555 1_555
C16 C15 1_555 1_555
C17 C13 1_555 1_555
C18 C13 1_555 1_555
C19 C10 1_555 1_555
C20 C17 1_555 1_555
C21 C20 1_555 1_555
C22 C20 1_555 1_555
C23 C22 1_555 1_555
C24 C23 1_555 1_555
C25 C24 1_555 1_555
C26 C25 1_555 1_555
C27 C25 1_555 1_555
C28 C24 1_555 1_555
C29 C4 1_555 1_555
O1 C3 1_555 1_555
O2 C11 1_555 1_555
O3 C26 1_555 1_555
O4 C26 1_555 1_555
H1 C1 1_555 1_555
H2 C1 1_555 1_555
H3 C2 1_555 1_555
H4 C2 1_555 1_555
H5 C4 1_555 1_555
H6 C5 1_555 1_555
H7 C6 1_555 1_555
H8 C6 1_555 1_555
H9 C7 1_555 1_555
H10 C7 1_555 1_555
H11 C12 1_555 1_555
H12 C12 1_555 1_555
H13 C14 1_555 1_555
H14 C15 1_555 1_555
H15 C15 1_555 1_555
H16 C16 1_555 1_555
H17 C16 1_555 1_555
H18 C17 1_555 1_555
H19 C18 1_555 1_555
H20 C18 1_555 1_555
H21 C18 1_555 1_555
H22 C19 1_555 1_555
H23 C19 1_555 1_555
H24 C19 1_555 1_555
H25 C20 1_555 1_555
H26 C21 1_555 1_555
H27 C21 1_555 1_555
H28 C21 1_555 1_555
H29 C22 1_555 1_555
H30 C22 1_555 1_555
H31 C23 1_555 1_555
H32 C23 1_555 1_555
C5 C10 1_555 1_555
C13 C14 1_555 1_555
C16 C17 1_555 1_555

#END
