
#######################################################################
#
#                 Cambridge Crystallographic Data Centre
#                                CCDC 
#
#######################################################################
#
# If this CIF has been generated from an entry in the Cambridge 
# Structural Database, then it will include bibliographic, chemical, 
# crystal, experimental, refinement or atomic coordinate data resulting 
# from the CCDC's data processing and validation procedures.
#
#######################################################################

data_ZOXJIF02
_chemical_compound_source        'whole herb of Sagittaria pygmaea'
_chemical_formula_moiety         'C20 H30 O2'
_chemical_name_systematic        'ent-Isopimar-8(14),15-dien-19-oic acid'
_chemical_properties_biological  'tested for antibacterial activity'
_symmetry_cell_setting           orthorhombic
_symmetry_space_group_name_H-M   'P 21 21 21'
_symmetry_Int_Tables_number      19
_space_group_name_Hall           'P 2ac 2ab'
loop_
_symmetry_equiv_pos_site_id
_symmetry_equiv_pos_as_xyz
1 x,y,z
2 1/2-x,-y,1/2+z
3 -x,1/2+y,1/2-z
4 1/2+x,1/2-y,-z
_cell_length_a                   7.3821(18)
_cell_length_b                   10.772(3)
_cell_length_c                   42.971(11)
_cell_angle_alpha                90
_cell_angle_beta                 90
_cell_angle_gamma                90
_cell_volume                     3417.05
_exptl_crystal_colour            colorless
_exptl_crystal_description       plate
_chemical_melting_point          '168-169 deg.C'
_cell_formula_units_Z            8
loop_
_atom_site_label
_atom_site_type_symbol
_atom_site_fract_x
_atom_site_fract_y
_atom_site_fract_z
O1 O 0.4919(5) 0.5684(2) 0.38141(6)
O2 O 0.5745(5) 0.7057(2) 0.41692(6)
H1 H 0.5250 0.7553 0.4041
C1 C 0.8937(6) 0.4594(4) 0.47970(9)
H2 H 0.9450 0.5443 0.4796
H3 H 0.9624 0.4099 0.4951
C2 C 0.9191(6) 0.4024(4) 0.44787(9)
H4 H 0.8734 0.3159 0.4480
H5 H 1.0498 0.4001 0.4427
C3 C 0.8186(6) 0.4765(4) 0.42323(9)
H6 H 0.8354 0.4357 0.4028
H7 H 0.8727 0.5604 0.4219
C4 C 0.6121(6) 0.4896(3) 0.42975(9)
C5 C 0.5833(6) 0.5333(4) 0.46376(9)
H8 H 0.6315 0.6201 0.4640
C6 C 0.3846(6) 0.5479(4) 0.47199(9)
H9 H 0.3293 0.4651 0.4752
H10 H 0.3199 0.5894 0.4547
C7 C 0.3656(7) 0.6259(4) 0.50199(9)
H11 H 0.4048 0.7122 0.4978
H12 H 0.2367 0.6282 0.5084
C8 C 0.4755(6) 0.5741(3) 0.52763(9)
C9 C 0.6737(6) 0.5466(4) 0.51981(9)
H13 H 0.7280 0.6287 0.5142
C10 C 0.6908(6) 0.4662(3) 0.49009(9)
C11 C 0.7787(7) 0.5024(4) 0.54907(9)
H14 H 0.8780 0.4469 0.5423
H15 H 0.8347 0.5758 0.5591
C12 C 0.6663(7) 0.4350(4) 0.57302(10)
H16 H 0.7434 0.4171 0.5913
H17 H 0.6271 0.3545 0.5642
C13 C 0.4993(7) 0.5060(4) 0.58386(9)
C14 C 0.4020(7) 0.5576(4) 0.55608(10)
H18 H 0.2787 0.5804 0.5587
C15 C 0.5585(7) 0.6105(5) 0.60512(11)
H19 H 0.5823 0.5887 0.6261
C16 C 0.5807(8) 0.7279(5) 0.59778(13)
H20 H 0.5589 0.7551 0.5771
H21 H 0.6186 0.7857 0.6132
C17 C 0.3741(8) 0.4223(4) 0.60184(10)
H22 H 0.2669 0.4693 0.6084
H23 H 0.4370 0.3904 0.6203
H24 H 0.3368 0.3527 0.5886
C18 C 0.5104(7) 0.3696(3) 0.42115(9)
H25 H 0.3812 0.3797 0.4257
H26 H 0.5590 0.3003 0.4333
H27 H 0.5264 0.3525 0.3989
C19 C 0.5508(6) 0.5912(4) 0.40717(9)
C20 C 0.6206(6) 0.3336(3) 0.49731(9)
H28 H 0.6316 0.2818 0.4787
H29 H 0.4933 0.3379 0.5037
H30 H 0.6927 0.2974 0.5142
O3 O 0.5107(5) 0.8710(2) 0.37333(6)
O4 O 0.4653(4) 0.7346(2) 0.33568(6)
H31 H 0.4595 0.6855 0.3511
C21 C 0.6173(6) 1.0035(4) 0.25736(9)
H32 H 0.6733 0.9231 0.2517
H33 H 0.6368 1.0612 0.2397
C22 C 0.7130(6) 1.0540(3) 0.28538(9)
H34 H 0.6665 1.1380 0.2901
H35 H 0.8442 1.0609 0.2810
C23 C 0.6839(6) 0.9693(4) 0.31341(9)
H36 H 0.7456 1.0058 0.3317
H37 H 0.7404 0.8877 0.3092
C24 C 0.4822(6) 0.9497(3) 0.32124(9)
C25 C 0.3813(6) 0.9066(3) 0.29182(8)
H38 H 0.4317 0.8224 0.2872
C26 C 0.1779(6) 0.8855(4) 0.29661(8)
H39 H 0.1589 0.8365 0.3158
H40 H 0.1170 0.9667 0.2993
C27 C 0.0925(6) 0.8172(3) 0.26907(8)
H41 H 0.1292 0.7288 0.2698
H42 H -0.0410 0.8206 0.2711
C28 C 0.1467(6) 0.8712(3) 0.23772(8)
C29 C 0.3442(6) 0.9031(3) 0.23381(8)
H43 H 0.4116 0.8227 0.2349
C30 C 0.4158(6) 0.9841(3) 0.26144(9)
C31 C 0.3833(7) 0.9575(4) 0.20154(8)
H44 H 0.3621 1.0482 0.2021
H45 H 0.5126 0.9438 0.1964
C32 C 0.2674(7) 0.9010(4) 0.17616(9)
H46 H 0.2953 0.8113 0.1746
H47 H 0.2992 0.9400 0.1560
C33 C 0.0646(7) 0.9168(3) 0.18181(9)
C34 C 0.0240(6) 0.8819(3) 0.21531(9)
H48 H -0.0988 0.8664 0.2206
C35 C -0.0386(7) 0.8297(4) 0.16121(9)
H49 H -0.0103 0.7444 0.1640
C36 C -0.1598(7) 0.8520(4) 0.14029(10)
H50 H -0.1957 0.9350 0.1361
H51 H -0.2131 0.7853 0.1291
C37 C 0.0060(7) 1.0525(3) 0.17557(9)
H52 H -0.1244 1.0609 0.1793
H53 H 0.0331 1.0743 0.1539
H54 H 0.0721 1.1083 0.1895
C38 C 0.4076(7) 1.0678(3) 0.33676(9)
H55 H 0.4811 1.0880 0.3551
H56 H 0.2818 1.0537 0.3432
H57 H 0.4123 1.1369 0.3219
C39 C 0.4837(6) 0.8475(3) 0.34566(9)
C40 C 0.3133(6) 1.1091(3) 0.26094(9)
H58 H 0.3566 1.1616 0.2780
H59 H 0.1832 1.0939 0.2635
H60 H 0.3350 1.1510 0.2410
loop_
_geom_bond_atom_site_label_1
_geom_bond_atom_site_label_2
_geom_bond_site_symmetry_1
_geom_bond_site_symmetry_2
O1 C19 1_555 1_555
O2 H1 1_555 1_555
C1 H2 1_555 1_555
H3 C1 1_555 1_555
C2 C1 1_555 1_555
H4 C2 1_555 1_555
H5 C2 1_555 1_555
C3 C2 1_555 1_555
H6 C3 1_555 1_555
H7 C3 1_555 1_555
C4 C3 1_555 1_555
C5 C4 1_555 1_555
H8 C5 1_555 1_555
C6 C5 1_555 1_555
H9 C6 1_555 1_555
H10 C6 1_555 1_555
C7 C6 1_555 1_555
H11 C7 1_555 1_555
H12 C7 1_555 1_555
C8 C7 1_555 1_555
C9 C8 1_555 1_555
H13 C9 1_555 1_555
C10 C1 1_555 1_555
C11 C9 1_555 1_555
H14 C11 1_555 1_555
H15 C11 1_555 1_555
C12 C11 1_555 1_555
H16 C12 1_555 1_555
H17 C12 1_555 1_555
C13 C12 1_555 1_555
C14 C8 1_555 1_555
H18 C14 1_555 1_555
C15 C13 1_555 1_555
H19 C15 1_555 1_555
C16 C15 1_555 1_555
H20 C16 1_555 1_555
H21 C16 1_555 1_555
C17 C13 1_555 1_555
H22 C17 1_555 1_555
H23 C17 1_555 1_555
H24 C17 1_555 1_555
C18 C4 1_555 1_555
H25 C18 1_555 1_555
H26 C18 1_555 1_555
H27 C18 1_555 1_555
C19 O2 1_555 1_555
C20 C10 1_555 1_555
H28 C20 1_555 1_555
H29 C20 1_555 1_555
H30 C20 1_555 1_555
O3 C39 1_555 1_555
O4 H31 1_555 1_555
C21 H32 1_555 1_555
H33 C21 1_555 1_555
C22 C21 1_555 1_555
H34 C22 1_555 1_555
H35 C22 1_555 1_555
C23 C22 1_555 1_555
H36 C23 1_555 1_555
H37 C23 1_555 1_555
C24 C23 1_555 1_555
C25 C24 1_555 1_555
H38 C25 1_555 1_555
C26 C25 1_555 1_555
H39 C26 1_555 1_555
H40 C26 1_555 1_555
C27 C26 1_555 1_555
H41 C27 1_555 1_555
H42 C27 1_555 1_555
C28 C27 1_555 1_555
C29 C28 1_555 1_555
H43 C29 1_555 1_555
C30 C21 1_555 1_555
C31 C29 1_555 1_555
H44 C31 1_555 1_555
H45 C31 1_555 1_555
C32 C31 1_555 1_555
H46 C32 1_555 1_555
H47 C32 1_555 1_555
C33 C32 1_555 1_555
C34 C28 1_555 1_555
H48 C34 1_555 1_555
C35 C33 1_555 1_555
H49 C35 1_555 1_555
C36 C35 1_555 1_555
H50 C36 1_555 1_555
H51 C36 1_555 1_555
C37 C33 1_555 1_555
H52 C37 1_555 1_555
H53 C37 1_555 1_555
H54 C37 1_555 1_555
C38 C24 1_555 1_555
H55 C38 1_555 1_555
H56 C38 1_555 1_555
H57 C38 1_555 1_555
C39 O4 1_555 1_555
C40 C30 1_555 1_555
H58 C40 1_555 1_555
H59 C40 1_555 1_555
H60 C40 1_555 1_555
C4 C19 1_555 1_555
C5 C10 1_555 1_555
C9 C10 1_555 1_555
C13 C14 1_555 1_555
C24 C39 1_555 1_555
C25 C30 1_555 1_555
C29 C30 1_555 1_555
C33 C34 1_555 1_555

#END
