
#######################################################################
#
#                 Cambridge Crystallographic Data Centre
#                                CCDC 
#
#######################################################################
#
# If this CIF has been generated from an entry in the Cambridge 
# Structural Database, then it will include bibliographic, chemical, 
# crystal, experimental, refinement or atomic coordinate data resulting 
# from the CCDC's data processing and validation procedures.
#
#######################################################################

data_ZOXKIG
_chemical_compound_source        'stems of Piper puberulum'
_chemical_formula_moiety         'C23 H28 O6'
_chemical_name_systematic        'Puberulin A'
_chemical_properties_biological  
'platelet activating factor receptor antagonist activity'
_symmetry_cell_setting           orthorhombic
_symmetry_space_group_name_H-M   'P 21 21 21'
_symmetry_Int_Tables_number      19
_space_group_name_Hall           'P 2ac 2ab'
loop_
_symmetry_equiv_pos_site_id
_symmetry_equiv_pos_as_xyz
1 x,y,z
2 1/2-x,-y,1/2+z
3 1/2+x,1/2-y,-z
4 -x,1/2+y,1/2-z
_cell_length_a                   14.903(2)
_cell_length_b                   15.398(2)
_cell_length_c                   9.298(2)
_cell_angle_alpha                90
_cell_angle_beta                 90
_cell_angle_gamma                90
_cell_volume                     2133.67
_exptl_crystal_colour            colorless
_chemical_melting_point          130-131deg.C
_cell_formula_units_Z            4
loop_
_atom_site_label
_atom_site_type_symbol
_atom_site_fract_x
_atom_site_fract_y
_atom_site_fract_z
C1 C 0.0405(2) 0.1827(2) 0.1456(3)
C2 C 0.0651(3) 0.0933(2) 0.0916(4)
C3 C 0.1114(3) 0.0784(2) -0.0292(4)
C4 C 0.1393(3) 0.1542(3) -0.1164(4)
C5 C 0.1195(3) 0.2418(2) -0.0491(4)
C6 C 0.1814(2) 0.2529(2) 0.0872(4)
C7 C 0.1209(2) 0.2290(2) 0.2162(3)
C8 C 0.0238(2) 0.2380(2) 0.0118(4)
C9 C 0.1373(4) -0.0102(3) -0.0823(5)
C10 C 0.1571(6) -0.0715(5) 0.0328(10)
C11 C 0.1170(5) -0.1393(3) 0.0715(7)
C12 C 0.1672(3) 0.1763(3) 0.3328(4)
O1 O -0.0303(2) 0.1784(2) 0.2474(3)
C13 C -0.1135(3) 0.1473(4) 0.1925(5)
O2 O 0.1763(2) 0.1480(2) -0.2310(3)
O3 O -0.0064(2) 0.3222(2) 0.0571(3)
C14 C -0.0588(3) 0.3665(3) -0.0331(4)
O4 O -0.0792(3) 0.3391(2) -0.1491(4)
C15 C -0.0851(4) 0.4524(3) 0.0267(6)
C16 C 0.2268(2) 0.3409(2) 0.1033(4)
C17 C 0.3021(2) 0.3444(2) 0.1936(4)
C18 C 0.3488(3) 0.4205(3) 0.2153(4)
C19 C 0.3224(3) 0.4960(2) 0.1433(4)
C20 C 0.2482(3) 0.4926(2) 0.0537(4)
C21 C 0.2012(3) 0.4153(3) 0.0334(4)
O5 O 0.4225(2) 0.4291(2) 0.3020(3)
C22 C 0.4476(3) 0.3549(3) 0.3837(5)
O6 O 0.3733(2) 0.5689(2) 0.1665(3)
C23 C 0.3549(4) 0.6427(3) 0.0799(5)
C24? C 0.0921(6) -0.0830(5) -0.0099(11)
loop_
_geom_bond_atom_site_label_1
_geom_bond_atom_site_label_2
_geom_bond_site_symmetry_1
_geom_bond_site_symmetry_2
C1 C2 1_555 1_555
C2 C3 1_555 1_555
C3 C4 1_555 1_555
C4 C5 1_555 1_555
C5 C6 1_555 1_555
C6 C7 1_555 1_555
C7 C1 1_555 1_555
C8 C1 1_555 1_555
C9 C3 1_555 1_555
C10 C9 1_555 1_555
C11 C10 1_555 1_555
C12 C7 1_555 1_555
O1 C1 1_555 1_555
C13 O1 1_555 1_555
O2 C4 1_555 1_555
O3 C8 1_555 1_555
C14 O3 1_555 1_555
O4 C14 1_555 1_555
C15 C14 1_555 1_555
C16 C6 1_555 1_555
C17 C16 1_555 1_555
C18 C17 1_555 1_555
C19 C18 1_555 1_555
C20 C19 1_555 1_555
C21 C16 1_555 1_555
O5 C18 1_555 1_555
C22 O5 1_555 1_555
O6 C19 1_555 1_555
C23 O6 1_555 1_555
C5 C8 1_555 1_555
C20 C21 1_555 1_555

#END
