
#######################################################################
#
#                 Cambridge Crystallographic Data Centre
#                                CCDC 
#
#######################################################################
#
# If this CIF has been generated from an entry in the Cambridge 
# Structural Database, then it will include bibliographic, chemical, 
# crystal, experimental, refinement or atomic coordinate data resulting 
# from the CCDC's data processing and validation procedures.
#
#######################################################################

data_ZOXMOQ
_chemical_formula_moiety         'C17 H18 N4 O3'
_chemical_name_systematic        
'ethyl 8-amino-7,9b-dicyano-2-methyl-3a,4,5,6,6a,9b-hexahydropyrano[4,3,2-ij]isoquinoline-3-carboxylate'
_symmetry_cell_setting           triclinic
_symmetry_space_group_name_H-M   'P -1'
_symmetry_Int_Tables_number      2
_space_group_name_Hall           '-P 1'
loop_
_symmetry_equiv_pos_site_id
_symmetry_equiv_pos_as_xyz
1 x,y,z
2 -x,-y,-z
_cell_length_a                   7.9219(8)
_cell_length_b                   10.2365(13)
_cell_length_c                   11.9557(14)
_cell_angle_alpha                108.694(2)
_cell_angle_beta                 105.2940(10)
_cell_angle_gamma                100.3700(10)
_cell_volume                     847.903
_exptl_crystal_description       block
_cell_formula_units_Z            2
loop_
_atom_site_label
_atom_site_type_symbol
_atom_site_fract_x
_atom_site_fract_y
_atom_site_fract_z
N1 N 0.7731(3) 0.4941(2) 0.9098(2)
N2 N 0.9944(3) 0.7113(3) 1.0124(2)
H1 H 1.0393 0.8020 1.0323
H2 H 1.0584 0.6652 1.0457
N3 N 0.7877(3) 0.9729(3) 0.9225(3)
N4 N 0.6920(4) 0.4444(3) 0.5546(3)
O1 O 0.5935(2) 0.2707(2) 0.79748(19)
O2 O 0.1260(3) 0.1448(2) 0.4148(2)
O3 O 0.1727(3) -0.0457(2) 0.4577(2)
C1 C 0.4680(4) 0.1631(3) 0.6834(3)
C2 C 0.3431(4) 0.1950(3) 0.6064(3)
C3 C 0.3282(3) 0.3467(3) 0.6456(3)
H3 H 0.2729 0.3631 0.5695
C4 C 0.5208(3) 0.4550(3) 0.7170(3)
C5 C 0.6352(4) 0.4120(3) 0.8144(3)
C6 C 0.8243(4) 0.6418(3) 0.9292(3)
C7 C 0.7093(4) 0.7015(3) 0.8700(3)
C8 C 0.5172(4) 0.6115(3) 0.7830(3)
H4 H 0.4790 0.6503 0.7185
C9 C 0.3822(4) 0.6179(3) 0.8548(3)
H5 H 0.4279 0.5928 0.9263
H6 H 0.3746 0.7158 0.8865
C10 C 0.1921(4) 0.5167(3) 0.7727(3)
H7 H 0.1113 0.5237 0.8214
H8 H 0.1429 0.5435 0.7027
C11 C 0.2032(4) 0.3641(3) 0.7239(3)
H9 H 0.0816 0.2994 0.6727
H10 H 0.2488 0.3372 0.7944
C12 C 0.5040(4) 0.0231(3) 0.6759(3)
H11 H 0.4281 -0.0507 0.5955
H12 H 0.4768 -0.0016 0.7414
H13 H 0.6302 0.0315 0.6858
C13 C 0.2073(4) 0.0823(4) 0.4874(3)
C14 C -0.0200(4) 0.0518(3) 0.2983(3)
H14 H -0.1063 -0.0155 0.3127
H15 H 0.0285 -0.0022 0.2380
C15 C -0.1111(5) 0.1496(4) 0.2507(3)
H16 H -0.1620 0.1997 0.3101
H17 H -0.2068 0.0935 0.1712
H18 H -0.0227 0.2181 0.2404
C16 C 0.6197(4) 0.4509(3) 0.6261(3)
C17 C 0.7553(4) 0.8522(4) 0.9009(3)
loop_
_geom_bond_atom_site_label_1
_geom_bond_atom_site_label_2
_geom_bond_site_symmetry_1
_geom_bond_site_symmetry_2
N1 C5 1_555 1_555
N2 H1 1_555 1_555
H2 N2 1_555 1_555
N3 C17 1_555 1_555
N4 C16 1_555 1_555
O1 C1 1_555 1_555
O2 C13 1_555 1_555
O3 C13 1_555 1_555
C1 C2 1_555 1_555
C2 C3 1_555 1_555
C3 H3 1_555 1_555
C4 C3 1_555 1_555
C5 O1 1_555 1_555
C6 N1 1_555 1_555
C7 C6 1_555 1_555
C8 C4 1_555 1_555
H4 C8 1_555 1_555
C9 C8 1_555 1_555
H5 C9 1_555 1_555
H6 C9 1_555 1_555
C10 C9 1_555 1_555
H7 C10 1_555 1_555
H8 C10 1_555 1_555
C11 C3 1_555 1_555
H9 C11 1_555 1_555
H10 C11 1_555 1_555
C12 C1 1_555 1_555
H11 C12 1_555 1_555
H12 C12 1_555 1_555
H13 C12 1_555 1_555
C13 C2 1_555 1_555
C14 O2 1_555 1_555
H14 C14 1_555 1_555
H15 C14 1_555 1_555
C15 C14 1_555 1_555
H16 C15 1_555 1_555
H17 C15 1_555 1_555
H18 C15 1_555 1_555
C16 C4 1_555 1_555
C17 C7 1_555 1_555
N2 C6 1_555 1_555
C4 C5 1_555 1_555
C7 C8 1_555 1_555
C10 C11 1_555 1_555

#END
