
#######################################################################
#
#                 Cambridge Crystallographic Data Centre
#                                CCDC 
#
#######################################################################
#
# If this CIF has been generated from an entry in the Cambridge 
# Structural Database, then it will include bibliographic, chemical, 
# crystal, experimental, refinement or atomic coordinate data resulting 
# from the CCDC's data processing and validation procedures.
#
#######################################################################

data_ZOXNUX
_chemical_name_common            
7,16-bis(4-nonylphenyl)dianthraceno[a,e]pentalene
_chemical_formula_moiety         'C62 H62'
_chemical_name_systematic        
7,16-bis(4-nonylphenyl)anthra[2',3':4,5]pentaleno[1,2-b]anthracene
_symmetry_cell_setting           triclinic
_symmetry_space_group_name_H-M   'P -1'
_symmetry_Int_Tables_number      2
_space_group_name_Hall           '-P 1'
loop_
_symmetry_equiv_pos_site_id
_symmetry_equiv_pos_as_xyz
1 x,y,z
2 -x,-y,-z
_cell_length_a                   4.9784(3)
_cell_length_b                   11.3963(7)
_cell_length_c                   19.9225(11)
_cell_angle_alpha                95.603(4)
_cell_angle_beta                 92.746(4)
_cell_angle_gamma                93.200(4)
_cell_volume                     1121.54
_exptl_crystal_colour            purple
_exptl_crystal_description       prism
_cell_formula_units_Z            1
_chemical_properties_physical    
'Air-sensitive, Moisture-sensitive, Oxygen-sensitive, Light-sensitive'
_exptl_crystal_recrystallization_method methanol/acetonitrile/chloroform
loop_
_atom_site_label
_atom_site_type_symbol
_atom_site_fract_x
_atom_site_fract_y
_atom_site_fract_z
C1 C -0.0152(8) 0.0115(3) 1.0354(2)
C2 C 0.1527(7) 0.1001(3) 1.0653(2)
C3 C 0.3239(8) 0.1392(3) 1.0108(2)
C4 C 0.5289(8) 0.2223(4) 1.0139(2)
H1 H 0.5868 0.2651 1.0559
C5 C 0.6594(8) 0.2460(3) 0.95353(19)
C6 C 0.8772(7) 0.3286(3) 0.95523(19)
H2 H 0.9447 0.3671 0.9976
C7 C 1.0000(7) 0.3568(3) 0.8968(2)
C8 C 1.2233(8) 0.4420(3) 0.8977(2)
H3 H 1.2972 0.4799 0.9397
C9 C 1.3309(9) 0.4694(4) 0.8393(3)
H4 H 1.4768 0.5272 0.8408
C10 C 1.2272(10) 0.4125(4) 0.7763(2)
H5 H 1.3036 0.4326 0.7359
C11 C 1.0203(9) 0.3297(4) 0.7734(2)
H6 H 0.9542 0.2915 0.7308
C12 C 0.9004(8) 0.2994(3) 0.8332(2)
C13 C 0.6863(8) 0.2137(3) 0.8313(2)
H7 H 0.6220 0.1740 0.7889
C14 C 0.5649(8) 0.1850(3) 0.8895(2)
C15 C 0.3469(8) 0.0961(3) 0.8881(2)
H8 H 0.2805 0.0542 0.8465
C16 C 0.2351(7) 0.0722(3) 0.9480(2)
C17 C 0.1683(8) 0.1532(4) 1.1361(2)
C18 C 0.2040(14) 0.2664(4) 1.2690(2)
C19 C 0.1559(14) 0.2774(7) 1.1473(4)
H9 H 0.1338 0.3227 1.1100
C20 C 0.1759(17) 0.3325(7) 1.2123(4)
H10 H 0.1708 0.4160 1.2194
C21 C 0.195(2) 0.1485(8) 1.2589(5)
H11 H 0.2008 0.1031 1.2965
C22 C 0.1762(15) 0.0916(7) 1.1931(4)
H12 H 0.1687 0.0077 1.1871
C23 C 0.3091(18) 0.3216(7) 1.3409(4)
H13 H 0.2475 0.2709 1.3754
H14 H 0.5086 0.3285 1.3438
C24 C 0.199(3) 0.4421(12) 1.3529(9)
H15 H 0.0006 0.4333 1.3532
H16 H 0.2460 0.4888 1.3152
C25 C 0.311(2) 0.5094(8) 1.4198(4)
H17 H 0.2754 0.4603 1.4571
H18 H 0.5088 0.5229 1.4182
C26 C 0.185(2) 0.6294(8) 1.4344(5)
H19 H 0.2044 0.6757 1.3952
H20 H -0.0101 0.6158 1.4408
C27 C 0.322(2) 0.7000(8) 1.4981(5)
H21 H 0.2408 0.6666 1.5370
H22 H 0.5122 0.6792 1.4993
C28 C 0.328(2) 0.8356(8) 1.5140(4)
H23 H 0.4878 0.8689 1.4930
H24 H 0.1676 0.8630 1.4904
C29 C 0.335(4) 0.8880(17) 1.5817(9)
H25 H 0.4943 0.8600 1.6058
H26 H 0.1740 0.8562 1.6027
C30 C 0.346(3) 1.0236(9) 1.5960(5)
H27 H 0.5375 1.0508 1.5938
H28 H 0.2490 1.0525 1.5569
C31 C 0.251(3) 1.0879(15) 1.6552(9)
H29 H 0.2950 1.1725 1.6541
H30 H 0.3378 1.0612 1.6958
H31 H 0.0552 1.0736 1.6561
C1A C 0.0152(8) -0.0115(3) 0.9646(2)
C2A C -0.1527(7) -0.1001(3) 0.9347(2)
C3A C -0.3239(8) -0.1392(3) 0.9892(2)
C4A C -0.5289(8) -0.2223(4) 0.9861(2)
H1A H -0.5868 -0.2651 0.9441
C5A C -0.6594(8) -0.2460(3) 1.04647(19)
C6A C -0.8772(7) -0.3286(3) 1.04477(19)
H2A H -0.9447 -0.3671 1.0024
C7A C -1.0000(7) -0.3568(3) 1.1032(2)
C8A C -1.2233(8) -0.4420(3) 1.1023(2)
H3A H -1.2972 -0.4799 1.0603
C9A C -1.3309(9) -0.4694(4) 1.1607(3)
H4A H -1.4768 -0.5272 1.1592
C10A C -1.2272(10) -0.4125(4) 1.2237(2)
H5A H -1.3036 -0.4326 1.2641
C11A C -1.0203(9) -0.3297(4) 1.2266(2)
H6A H -0.9542 -0.2915 1.2692
C12A C -0.9004(8) -0.2994(3) 1.1668(2)
C13A C -0.6863(8) -0.2137(3) 1.1687(2)
H7A H -0.6220 -0.1740 1.2111
C14A C -0.5649(8) -0.1850(3) 1.1105(2)
C15A C -0.3469(8) -0.0961(3) 1.1119(2)
H8A H -0.2805 -0.0542 1.1535
C16A C -0.2351(7) -0.0722(3) 1.0520(2)
C17A C -0.1683(8) -0.1532(4) 0.8639(2)
C18A C -0.2040(14) -0.2664(4) 0.7310(2)
C19A C -0.1559(14) -0.2774(7) 0.8527(4)
H9A H -0.1338 -0.3227 0.8900
C20A C -0.1759(17) -0.3325(7) 0.7877(4)
H10A H -0.1708 -0.4160 0.7806
C21A C -0.195(2) -0.1485(8) 0.7411(5)
H11A H -0.2008 -0.1031 0.7035
C22A C -0.1762(15) -0.0916(7) 0.8069(4)
H12A H -0.1687 -0.0077 0.8129
C23A C -0.3091(18) -0.3216(7) 0.6591(4)
H13A H -0.2475 -0.2709 0.6246
H14A H -0.5086 -0.3285 0.6562
C24A C -0.199(3) -0.4421(12) 0.6471(9)
H15A H -0.0006 -0.4333 0.6468
H16A H -0.2460 -0.4888 0.6848
C25A C -0.311(2) -0.5094(8) 0.5802(4)
H17A H -0.2754 -0.4603 0.5429
H18A H -0.5088 -0.5229 0.5818
C26A C -0.185(2) -0.6294(8) 0.5656(5)
H19A H -0.2044 -0.6757 0.6048
H20A H 0.0101 -0.6158 0.5592
C27A C -0.322(2) -0.7000(8) 0.5019(5)
H21A H -0.2408 -0.6666 0.4630
H22A H -0.5122 -0.6792 0.5007
C28A C -0.328(2) -0.8356(8) 0.4860(4)
H23A H -0.4878 -0.8689 0.5070
H24A H -0.1676 -0.8630 0.5096
C29A C -0.335(4) -0.8880(17) 0.4183(9)
H25A H -0.4943 -0.8600 0.3942
H26A H -0.1740 -0.8562 0.3973
C30A C -0.346(3) -1.0236(9) 0.4040(5)
H27A H -0.5375 -1.0508 0.4062
H28A H -0.2490 -1.0525 0.4431
C31A C -0.251(3) -1.0879(15) 0.3448(9)
H29A H -0.2950 -1.1725 0.3459
H30A H -0.3378 -1.0612 0.3042
H31A H -0.0552 -1.0736 0.3439
C32? C 0.4221(19) 0.1852(8) 1.1702(4)
H32? H 0.5829 0.1703 1.1479
C33? C 0.437(2) 0.2372(9) 1.2348(5)
H33? H 0.6085 0.2544 1.2575
C34? C -0.040(3) 0.2298(8) 1.2359(5)
H34? H -0.2016 0.2417 1.2586
C35? C -0.0564(18) 0.1759(7) 1.1701(4)
H35? H -0.2285 0.1544 1.1484
C36? C 0.1205(19) 0.3350(7) 1.3375(4)
H36? H -0.0777 0.3396 1.3360
H37? H 0.1715 0.2896 1.3756
C37? C 0.253(4) 0.4601(15) 1.3506(11)
H38? H 0.4512 0.4557 1.3518
H39? H 0.2009 0.5057 1.3128
C38? C 0.175(2) 0.5249(9) 1.4161(5)
H40? H -0.0233 0.5276 1.4147
H41? H 0.2278 0.4784 1.4535
C39? C 0.297(2) 0.6493(10) 1.4321(6)
H42? H 0.2580 0.6942 1.3930
H43? H 0.4953 0.6462 1.4376
C40? C 0.200(2) 0.7159(10) 1.4944(5)
H44? H 0.0120 0.6828 1.4949
H45? H 0.2984 0.6802 1.5309
C41? C 0.183(2) 0.8138(8) 1.5189(5)
H46? H 0.0958 0.8523 1.4844
C42? C 0.227(3) 0.9013(14) 1.5732(8)
H47? H 0.3442 0.8673 1.6040
C43? C 0.192(3) 0.9989(10) 1.6015(5)
H48? H 0.0023 0.9948 1.6141
H49? H 0.2012 1.0530 1.5656
C44? C 0.357(4) 1.0687(18) 1.6656(10)
H50? H 0.2804 1.1452 1.6764
H51? H 0.5462 1.0812 1.6553
H52? H 0.3449 1.0223 1.7044
loop_
_geom_bond_atom_site_label_1
_geom_bond_atom_site_label_2
_geom_bond_site_symmetry_1
_geom_bond_site_symmetry_2
C1 C2 1_555 1_555
C2 C3 1_555 1_555
C3 C4 1_555 1_555
C4 H1 1_555 1_555
C5 C4 1_555 1_555
C6 C5 1_555 1_555
H2 C6 1_555 1_555
C7 C6 1_555 1_555
C8 C7 1_555 1_555
H3 C8 1_555 1_555
C9 C8 1_555 1_555
H4 C9 1_555 1_555
C10 C9 1_555 1_555
H5 C10 1_555 1_555
C11 C10 1_555 1_555
H6 C11 1_555 1_555
C12 C7 1_555 1_555
C13 C12 1_555 1_555
H7 C13 1_555 1_555
C14 C5 1_555 1_555
C15 C14 1_555 1_555
H8 C15 1_555 1_555
C16 C3 1_555 1_555
C17 C2 1_555 1_555
C18 C20 1_555 1_555
C19 C17 1_555 1_555
H9 C19 1_555 1_555
C20 C19 1_555 1_555
H10 C20 1_555 1_555
C21 C18 1_555 1_555
H11 C21 1_555 1_555
C22 C17 1_555 1_555
H12 C22 1_555 1_555
C23 C18 1_555 1_555
H13 C23 1_555 1_555
H14 C23 1_555 1_555
C24 C23 1_555 1_555
H15 C24 1_555 1_555
H16 C24 1_555 1_555
C25 C24 1_555 1_555
H17 C25 1_555 1_555
H18 C25 1_555 1_555
C26 C25 1_555 1_555
H19 C26 1_555 1_555
H20 C26 1_555 1_555
C27 C26 1_555 1_555
H21 C27 1_555 1_555
H22 C27 1_555 1_555
C28 C27 1_555 1_555
H23 C28 1_555 1_555
H24 C28 1_555 1_555
C29 C28 1_555 1_555
H25 C29 1_555 1_555
H26 C29 1_555 1_555
C30 C29 1_555 1_555
H27 C30 1_555 1_555
H28 C30 1_555 1_555
C31 C30 1_555 1_555
H29 C31 1_555 1_555
H30 C31 1_555 1_555
H31 C31 1_555 1_555
C1A C1 1_555 1_555
C2A C1A 1_555 1_555
C3A C2A 1_555 1_555
C4A C3A 1_555 1_555
H1A C4A 1_555 1_555
C5A C4A 1_555 1_555
C6A C5A 1_555 1_555
H2A C6A 1_555 1_555
C7A C6A 1_555 1_555
C8A C7A 1_555 1_555
H3A C8A 1_555 1_555
C9A C8A 1_555 1_555
H4A C9A 1_555 1_555
C10A C9A 1_555 1_555
H5A C10A 1_555 1_555
C11A C10A 1_555 1_555
H6A C11A 1_555 1_555
C12A C7A 1_555 1_555
C13A C12A 1_555 1_555
H7A C13A 1_555 1_555
C14A C5A 1_555 1_555
C15A C14A 1_555 1_555
H8A C15A 1_555 1_555
C16A C1 1_555 1_555
C17A C2A 1_555 1_555
C18A C20A 1_555 1_555
C19A C17A 1_555 1_555
H9A C19A 1_555 1_555
C20A C19A 1_555 1_555
H10A C20A 1_555 1_555
C21A C18A 1_555 1_555
H11A C21A 1_555 1_555
C22A C17A 1_555 1_555
H12A C22A 1_555 1_555
C23A C18A 1_555 1_555
H13A C23A 1_555 1_555
H14A C23A 1_555 1_555
C24A C23A 1_555 1_555
H15A C24A 1_555 1_555
H16A C24A 1_555 1_555
C25A C24A 1_555 1_555
H17A C25A 1_555 1_555
H18A C25A 1_555 1_555
C26A C25A 1_555 1_555
H19A C26A 1_555 1_555
H20A C26A 1_555 1_555
C27A C26A 1_555 1_555
H21A C27A 1_555 1_555
H22A C27A 1_555 1_555
C28A C27A 1_555 1_555
H23A C28A 1_555 1_555
H24A C28A 1_555 1_555
C29A C28A 1_555 1_555
H25A C29A 1_555 1_555
H26A C29A 1_555 1_555
C30A C29A 1_555 1_555
H27A C30A 1_555 1_555
H28A C30A 1_555 1_555
C31A C30A 1_555 1_555
H29A C31A 1_555 1_555
H30A C31A 1_555 1_555
H31A C31A 1_555 1_555
C11 C12 1_555 1_555
C13 C14 1_555 1_555
C15 C16 1_555 1_555
C16 C1A 1_555 1_555
C21 C22 1_555 1_555
C3A C16A 1_555 1_555
C11A C12A 1_555 1_555
C13A C14A 1_555 1_555
C15A C16A 1_555 1_555
C21A C22A 1_555 1_555

#END
