
#######################################################################
#
#                 Cambridge Crystallographic Data Centre
#                                CCDC 
#
#######################################################################
#
# If this CIF has been generated from an entry in the Cambridge 
# Structural Database, then it will include bibliographic, chemical, 
# crystal, experimental, refinement or atomic coordinate data resulting 
# from the CCDC's data processing and validation procedures.
#
#######################################################################

data_ZOXPUZ
_chemical_formula_moiety         'C32 H50 Mg1 N4'
_chemical_name_systematic        
bis(N,N'-di-t-butyl-2-phenylethanamidinato)-magnesium
_symmetry_cell_setting           orthorhombic
_symmetry_space_group_name_H-M   'P b c a'
_symmetry_Int_Tables_number      61
_space_group_name_Hall           '-P 2ac 2ab'
loop_
_symmetry_equiv_pos_site_id
_symmetry_equiv_pos_as_xyz
1 x,y,z
2 1/2-x,-y,1/2+z
3 1/2+x,1/2-y,-z
4 -x,1/2+y,1/2-z
5 -x,-y,-z
6 1/2+x,y,1/2-z
7 1/2-x,1/2+y,z
8 x,1/2-y,1/2+z
_cell_length_a                   20.441(5)
_cell_length_b                   11.399(5)
_cell_length_c                   27.842(5)
_cell_angle_alpha                90
_cell_angle_beta                 90
_cell_angle_gamma                90
_cell_volume                     6487.38
_exptl_crystal_colour            colorless
_exptl_crystal_description       block
_cell_formula_units_Z            8
loop_
_atom_site_label
_atom_site_type_symbol
_atom_site_fract_x
_atom_site_fract_y
_atom_site_fract_z
Mg1 Mg -0.03364(6) 0.65405(12) -0.14544(5)
N1 N 0.02848(16) 0.5177(3) -0.13015(13)
N2 N 0.04480(16) 0.6422(3) -0.19072(12)
N3 N -0.07414(15) 0.7812(3) -0.10241(12)
N4 N -0.13185(16) 0.6777(3) -0.15523(12)
C1 C 0.06798(19) 0.5480(3) -0.16685(15)
C2 C 0.13141(19) 0.4848(4) -0.17925(16)
H1 H 0.1382 0.4904 -0.2137
H2 H 0.1262 0.4024 -0.1715
C3 C 0.1927(2) 0.5301(4) -0.15407(15)
C4 C 0.2500(2) 0.4657(4) -0.15884(17)
H3 H 0.2498 0.3983 -0.1777
C5 C 0.3071(2) 0.4989(5) -0.13646(19)
H4 H 0.3447 0.4536 -0.1399
C6 C 0.3087(2) 0.5998(5) -0.10876(18)
H5 H 0.3474 0.6239 -0.0942
C7 C 0.2519(2) 0.6640(4) -0.10300(17)
H6 H 0.2523 0.7305 -0.0837
C8 C 0.1946(2) 0.6308(4) -0.12559(17)
H7 H 0.1570 0.6758 -0.1218
C9 C 0.0362(2) 0.4233(4) -0.09463(17)
C10 C -0.0225(3) 0.4393(5) -0.06091(19)
H8 H -0.0205 0.5154 -0.0462
H9 H -0.0215 0.3800 -0.0364
H10 H -0.0623 0.4324 -0.0790
C11 C 0.0292(3) 0.3009(4) -0.1171(2)
H11 H -0.0102 0.2976 -0.1358
H12 H 0.0274 0.2429 -0.0921
H13 H 0.0661 0.2855 -0.1375
C12 C 0.0982(2) 0.4323(5) -0.06510(18)
H14 H 0.1353 0.4150 -0.0850
H15 H 0.0963 0.3772 -0.0391
H16 H 0.1022 0.5103 -0.0525
C13 C 0.0682(2) 0.6925(4) -0.23634(15)
C14 C 0.0252(2) 0.8013(4) -0.24440(17)
H17 H -0.0198 0.7778 -0.2470
H18 H 0.0383 0.8400 -0.2735
H19 H 0.0302 0.8542 -0.2178
C15 C 0.1395(2) 0.7336(4) -0.23492(17)
H20 H 0.1455 0.7868 -0.2086
H21 H 0.1501 0.7726 -0.2645
H22 H 0.1678 0.6670 -0.2308
C16 C 0.0570(2) 0.6081(4) -0.27900(16)
H23 H 0.0839 0.5397 -0.2751
H24 H 0.0684 0.6470 -0.3084
H25 H 0.0119 0.5852 -0.2800
C17 C -0.13299(18) 0.7625(3) -0.12167(15)
C18 C -0.19535(19) 0.8238(4) -0.10588(15)
H26 H -0.2230 0.8357 -0.1338
H27 H -0.1841 0.9005 -0.0933
C19 C -0.23445(19) 0.7570(4) -0.06776(15)
C20 C -0.2114(2) 0.6552(4) -0.04550(16)
H28 H -0.1708 0.6249 -0.0541
C21 C -0.2487(2) 0.5985(4) -0.01049(16)
H29 H -0.2330 0.5309 0.0042
C22 C -0.3088(2) 0.6433(4) 0.00209(17)
H30 H -0.3337 0.6055 0.0254
C23 C -0.3325(2) 0.7431(4) -0.01932(18)
H31 H -0.3731 0.7729 -0.0104
C24 C -0.2954(2) 0.7995(4) -0.05451(16)
H32 H -0.3119 0.8665 -0.0693
C25 C -0.1828(2) 0.6469(4) -0.19065(16)
C26 C -0.1555(3) 0.5392(4) -0.21638(18)
H33 H -0.1146 0.5588 -0.2314
H34 H -0.1860 0.5136 -0.2404
H35 H -0.1486 0.4773 -0.1935
C27 C -0.1906(2) 0.7463(4) -0.22756(16)
H36 H -0.2078 0.8148 -0.2119
H37 H -0.2202 0.7219 -0.2524
H38 H -0.1488 0.7643 -0.2414
C28 C -0.2490(2) 0.6114(4) -0.16932(17)
H39 H -0.2423 0.5564 -0.1437
H40 H -0.2754 0.5757 -0.1938
H41 H -0.2709 0.6797 -0.1571
C29 C -0.0549(2) 0.8703(4) -0.06661(15)
C30 C -0.0579(2) 0.9945(4) -0.08781(17)
H42 H -0.0339 0.9966 -0.1174
H43 H -0.0391 1.0491 -0.0655
H44 H -0.1027 1.0153 -0.0938
C31 C -0.0928(2) 0.8643(4) -0.01955(16)
H45 H -0.1365 0.8924 -0.0246
H46 H -0.0714 0.9122 0.0041
H47 H -0.0942 0.7846 -0.0085
C32 C 0.0169(2) 0.8415(5) -0.05604(19)
H48 H 0.0200 0.7633 -0.0434
H49 H 0.0337 0.8961 -0.0329
H50 H 0.0419 0.8470 -0.0851
loop_
_geom_bond_atom_site_label_1
_geom_bond_atom_site_label_2
_geom_bond_site_symmetry_1
_geom_bond_site_symmetry_2
Mg1 N1 1_555 1_555
N1 C1 1_555 1_555
N2 Mg1 1_555 1_555
N3 Mg1 1_555 1_555
N4 Mg1 1_555 1_555
C1 N2 1_555 1_555
C2 C1 1_555 1_555
H1 C2 1_555 1_555
H2 C2 1_555 1_555
C3 C2 1_555 1_555
C4 C3 1_555 1_555
H3 C4 1_555 1_555
C5 C4 1_555 1_555
H4 C5 1_555 1_555
C6 C5 1_555 1_555
H5 C6 1_555 1_555
C7 C6 1_555 1_555
H6 C7 1_555 1_555
C8 C3 1_555 1_555
H7 C8 1_555 1_555
C9 N1 1_555 1_555
C10 C9 1_555 1_555
H8 C10 1_555 1_555
H9 C10 1_555 1_555
H10 C10 1_555 1_555
C11 C9 1_555 1_555
H11 C11 1_555 1_555
H12 C11 1_555 1_555
H13 C11 1_555 1_555
C12 C9 1_555 1_555
H14 C12 1_555 1_555
H15 C12 1_555 1_555
H16 C12 1_555 1_555
C13 N2 1_555 1_555
C14 C13 1_555 1_555
H17 C14 1_555 1_555
H18 C14 1_555 1_555
H19 C14 1_555 1_555
C15 C13 1_555 1_555
H20 C15 1_555 1_555
H21 C15 1_555 1_555
H22 C15 1_555 1_555
C16 C13 1_555 1_555
H23 C16 1_555 1_555
H24 C16 1_555 1_555
H25 C16 1_555 1_555
C17 N3 1_555 1_555
C18 C17 1_555 1_555
H26 C18 1_555 1_555
H27 C18 1_555 1_555
C19 C18 1_555 1_555
C20 C19 1_555 1_555
H28 C20 1_555 1_555
C21 C20 1_555 1_555
H29 C21 1_555 1_555
C22 C21 1_555 1_555
H30 C22 1_555 1_555
C23 C22 1_555 1_555
H31 C23 1_555 1_555
C24 C19 1_555 1_555
H32 C24 1_555 1_555
C25 N4 1_555 1_555
C26 C25 1_555 1_555
H33 C26 1_555 1_555
H34 C26 1_555 1_555
H35 C26 1_555 1_555
C27 C25 1_555 1_555
H36 C27 1_555 1_555
H37 C27 1_555 1_555
H38 C27 1_555 1_555
C28 C25 1_555 1_555
H39 C28 1_555 1_555
H40 C28 1_555 1_555
H41 C28 1_555 1_555
C29 N3 1_555 1_555
C30 C29 1_555 1_555
H42 C30 1_555 1_555
H43 C30 1_555 1_555
H44 C30 1_555 1_555
C31 C29 1_555 1_555
H45 C31 1_555 1_555
H46 C31 1_555 1_555
H47 C31 1_555 1_555
C32 C29 1_555 1_555
H48 C32 1_555 1_555
H49 C32 1_555 1_555
H50 C32 1_555 1_555
N4 C17 1_555 1_555
C7 C8 1_555 1_555
C23 C24 1_555 1_555

#END
