
#######################################################################
#
#                 Cambridge Crystallographic Data Centre
#                                CCDC 
#
#######################################################################
#
# If this CIF has been generated from an entry in the Cambridge 
# Structural Database, then it will include bibliographic, chemical, 
# crystal, experimental, refinement or atomic coordinate data resulting 
# from the CCDC's data processing and validation procedures.
#
#######################################################################

data_ZOXPIN
_chemical_formula_moiety         'C54 H72 Mg2 N4'
_chemical_name_systematic        
bis(\m-N,N'-dicyclohexyl-2-phenylethanamidinato)-dibenzyl-di-magnesium
_symmetry_cell_setting           monoclinic
_symmetry_space_group_name_H-M   'P 21/c'
_symmetry_Int_Tables_number      14
_space_group_name_Hall           '-P 2ybc'
loop_
_symmetry_equiv_pos_site_id
_symmetry_equiv_pos_as_xyz
1 x,y,z
2 -x,1/2+y,1/2-z
3 -x,-y,-z
4 x,1/2-y,1/2+z
_cell_length_a                   12.618(5)
_cell_length_b                   11.279(5)
_cell_length_c                   19.871(5)
_cell_angle_alpha                90
_cell_angle_beta                 122.834(15)
_cell_angle_gamma                90
_cell_volume                     2376.22
_exptl_crystal_colour            colorless
_exptl_crystal_description       block
_cell_formula_units_Z            2
loop_
_atom_site_label
_atom_site_type_symbol
_atom_site_fract_x
_atom_site_fract_y
_atom_site_fract_z
Mg1 Mg 0.95979(4) 0.53408(4) 0.91949(3)
N1 N 1.15214(11) 0.51232(10) 0.96344(7)
N2 N 1.09507(11) 0.61272(10) 1.03759(7)
C1 C 1.18469(13) 0.59136(12) 1.01990(8)
C2 C 1.30182(14) 0.77151(13) 1.01562(9)
C3 C 1.22633(15) 0.77968(13) 0.93244(9)
H1 H 1.1728 0.7173 0.9030
C4 C 1.22995(17) 0.87997(14) 0.89285(10)
H2 H 1.1798 0.8838 0.8372
C5 C 1.30797(17) 0.97372(14) 0.93609(12)
H3 H 1.3114 1.0403 0.9097
C6 C 1.38095(16) 0.96816(14) 1.01884(11)
H4 H 1.4322 1.0319 1.0481
C7 C 1.24063(13) 0.47518(12) 0.94066(8)
H5 H 1.2997 0.5405 0.9531
C8 C 1.16980(14) 0.45195(13) 0.85089(9)
H6 H 1.1229 0.5223 0.8220
H7 H 1.1101 0.3878 0.8369
C9 C 1.26225(15) 0.41908(14) 0.82658(9)
H8 H 1.2157 0.4020 0.7697
H9 H 1.3177 0.4857 0.8368
C10 C 1.34074(15) 0.31121(14) 0.87323(9)
H10 H 1.2861 0.2425 0.8580
H11 H 1.4024 0.2955 0.8595
C11 C 1.40861(14) 0.33004(14) 0.96323(9)
H12 H 1.4721 0.3912 0.9797
H13 H 1.4511 0.2573 0.9907
C12 C 1.31704(14) 0.36645(13) 0.98761(9)
H14 H 1.2602 0.3012 0.9777
H15 H 1.3641 0.3840 1.0445
C13 C 1.10017(13) 0.72673(12) 1.07643(8)
H16 H 1.1693 0.7741 1.0816
C14 C 0.97774(15) 0.79515(13) 1.02416(9)
H17 H 0.9072 0.7457 1.0134
H18 H 0.9678 0.8136 0.9734
C15 C 0.97522(16) 0.91054(14) 1.06403(9)
H19 H 1.0383 0.9645 1.0681
H20 H 0.8933 0.9479 1.0308
C16 C 1.00085(15) 0.88862(14) 1.14726(9)
H21 H 1.0039 0.9638 1.1720
H22 H 0.9328 0.8419 1.1429
C17 C 1.12522(16) 0.82338(14) 1.19944(9)
H23 H 1.1379 0.8068 1.2512
H24 H 1.1940 0.8734 1.2080
C18 C 1.12637(15) 0.70683(13) 1.16016(9)
H25 H 1.2080 0.6691 1.1934
H26 H 1.0630 0.6539 1.1567
C19 C 0.82972(15) 0.62678(14) 0.81136(9)
H27 H 0.8687 0.6995 0.8091
H28 H 0.8109 0.5783 0.7658
C20 C 0.71060(14) 0.65581(14) 0.80559(9)
C21 C 0.68708(16) 0.76845(14) 0.82512(9)
H29 H 0.7472 0.8278 0.8406
C22 C 0.57689(17) 0.79376(16) 0.82205(10)
H30 H 0.5643 0.8693 0.8352
C23 C 0.48549(16) 0.70746(17) 0.79962(10)
H31 H 0.4117 0.7244 0.7976
C24 C 0.50588(16) 0.59526(17) 0.78016(10)
H32 H 0.4454 0.5363 0.7650
C25 C 0.61620(15) 0.57076(15) 0.78330(9)
H33 H 0.6280 0.4949 0.7701
C26 C 1.37815(14) 0.86799(13) 1.05862(10)
H34 H 1.4275 0.8652 1.1143
C27 C 1.30759(13) 0.65976(13) 1.06085(8)
H35 H 1.3737 0.6085 1.0665
H36 H 1.3299 0.6819 1.1142
Mg1B Mg 1.04021(4) 0.46592(4) 1.08051(3)
N1B N 0.84786(11) 0.48768(10) 1.03656(7)
N2B N 0.90493(11) 0.38728(10) 0.96241(7)
C1B C 0.81531(13) 0.40864(12) 0.98010(8)
C2B C 0.69818(14) 0.22849(13) 0.98438(9)
C3B C 0.77367(15) 0.22032(13) 1.06756(9)
H1B H 0.8272 0.2827 1.0970
C4B C 0.77005(17) 0.12003(14) 1.10715(10)
H2B H 0.8202 0.1162 1.1628
C5B C 0.69203(17) 0.02628(14) 1.06391(12)
H3B H 0.6886 -0.0403 1.0903
C6B C 0.61905(16) 0.03184(14) 0.98116(11)
H4B H 0.5678 -0.0319 0.9519
C7B C 0.75937(13) 0.52482(12) 1.05934(8)
H5B H 0.7003 0.4595 1.0469
C8B C 0.83020(14) 0.54805(13) 1.14911(9)
H6B H 0.8771 0.4777 1.1780
H7B H 0.8899 0.6122 1.1631
C9B C 0.73775(15) 0.58092(14) 1.17342(9)
H8B H 0.7843 0.5980 1.2303
H9B H 0.6823 0.5143 1.1632
C10B C 0.65926(15) 0.68879(14) 1.12677(9)
H10B H 0.7139 0.7575 1.1420
H11B H 0.5976 0.7045 1.1405
C11B C 0.59139(14) 0.66996(14) 1.03677(9)
H12B H 0.5279 0.6088 1.0203
H13B H 0.5489 0.7427 1.0093
C12B C 0.68296(14) 0.63355(13) 1.01239(9)
H14B H 0.7398 0.6988 1.0223
H15B H 0.6359 0.6160 0.9555
C13B C 0.89983(13) 0.27327(12) 0.92357(8)
H16B H 0.8307 0.2259 0.9184
C14B C 1.02226(15) 0.20485(13) 0.97584(9)
H17B H 1.0928 0.2543 0.9866
H18B H 1.0322 0.1864 1.0266
C15B C 1.02478(16) 0.08946(14) 0.93597(9)
H19B H 0.9617 0.0355 0.9319
H20B H 1.1067 0.0521 0.9692
C16B C 0.99915(15) 0.11138(14) 0.85274(9)
H21B H 0.9961 0.0362 0.8280
H22B H 1.0672 0.1581 0.8571
C17B C 0.87478(16) 0.17662(14) 0.80056(9)
H23B H 0.8621 0.1932 0.7488
H24B H 0.8060 0.1266 0.7920
C18B C 0.87363(15) 0.29317(13) 0.83984(9)
H25B H 0.7920 0.3309 0.8066
H26B H 0.9370 0.3461 0.8433
C19B C 1.17028(15) 0.37322(14) 1.18864(9)
H27B H 1.1313 0.3005 1.1909
H28B H 1.1891 0.4217 1.2342
C20B C 1.28940(14) 0.34419(14) 1.19441(9)
C21B C 1.31292(16) 0.23155(14) 1.17488(9)
H29B H 1.2528 0.1722 1.1594
C22B C 1.42311(17) 0.20624(16) 1.17795(10)
H30B H 1.4357 0.1307 1.1648
C23B C 1.51451(16) 0.29254(17) 1.20038(10)
H31B H 1.5883 0.2756 1.2024
C24B C 1.49412(16) 0.40474(17) 1.21984(10)
H32B H 1.5546 0.4637 1.2350
C25B C 1.38380(15) 0.42924(15) 1.21670(9)
H33B H 1.3720 0.5051 1.2299
C26B C 0.62185(14) 0.13201(13) 0.94138(10)
H34B H 0.5725 0.1348 0.8857
C27B C 0.69241(13) 0.34024(13) 0.93915(8)
H35B H 0.6263 0.3915 0.9335
H36B H 0.6701 0.3181 0.8858
loop_
_geom_bond_atom_site_label_1
_geom_bond_atom_site_label_2
_geom_bond_site_symmetry_1
_geom_bond_site_symmetry_2
Mg1 N1 1_555 1_555
N1 C1 1_555 1_555
N2 Mg1 1_555 1_555
C1 N2 1_555 1_555
C2 C3 1_555 1_555
C3 H1 1_555 1_555
C4 C3 1_555 1_555
H2 C4 1_555 1_555
C5 C4 1_555 1_555
H3 C5 1_555 1_555
C6 C5 1_555 1_555
H4 C6 1_555 1_555
C7 N1 1_555 1_555
H5 C7 1_555 1_555
C8 C7 1_555 1_555
H6 C8 1_555 1_555
H7 C8 1_555 1_555
C9 C8 1_555 1_555
H8 C9 1_555 1_555
H9 C9 1_555 1_555
C10 C9 1_555 1_555
H10 C10 1_555 1_555
H11 C10 1_555 1_555
C11 C10 1_555 1_555
H12 C11 1_555 1_555
H13 C11 1_555 1_555
C12 C7 1_555 1_555
H14 C12 1_555 1_555
H15 C12 1_555 1_555
C13 N2 1_555 1_555
H16 C13 1_555 1_555
C14 C13 1_555 1_555
H17 C14 1_555 1_555
H18 C14 1_555 1_555
C15 C14 1_555 1_555
H19 C15 1_555 1_555
H20 C15 1_555 1_555
C16 C15 1_555 1_555
H21 C16 1_555 1_555
H22 C16 1_555 1_555
C17 C16 1_555 1_555
H23 C17 1_555 1_555
H24 C17 1_555 1_555
C18 C13 1_555 1_555
H25 C18 1_555 1_555
H26 C18 1_555 1_555
C19 Mg1 1_555 1_555
H27 C19 1_555 1_555
H28 C19 1_555 1_555
C20 C19 1_555 1_555
C21 C20 1_555 1_555
H29 C21 1_555 1_555
C22 C21 1_555 1_555
H30 C22 1_555 1_555
C23 C22 1_555 1_555
H31 C23 1_555 1_555
C24 C23 1_555 1_555
H32 C24 1_555 1_555
C25 C20 1_555 1_555
H33 C25 1_555 1_555
C26 C2 1_555 1_555
H34 C26 1_555 1_555
C27 C1 1_555 1_555
H35 C27 1_555 1_555
H36 C27 1_555 1_555
Mg1B N2 1_555 1_555
N1B Mg1B 1_555 1_555
N2B Mg1 1_555 1_555
C1B N1B 1_555 1_555
C2B C3B 1_555 1_555
C3B H1B 1_555 1_555
C4B C3B 1_555 1_555
H2B C4B 1_555 1_555
C5B C4B 1_555 1_555
H3B C5B 1_555 1_555
C6B C5B 1_555 1_555
H4B C6B 1_555 1_555
C7B N1B 1_555 1_555
H5B C7B 1_555 1_555
C8B C7B 1_555 1_555
H6B C8B 1_555 1_555
H7B C8B 1_555 1_555
C9B C8B 1_555 1_555
H8B C9B 1_555 1_555
H9B C9B 1_555 1_555
C10B C9B 1_555 1_555
H10B C10B 1_555 1_555
H11B C10B 1_555 1_555
C11B C10B 1_555 1_555
H12B C11B 1_555 1_555
H13B C11B 1_555 1_555
C12B C7B 1_555 1_555
H14B C12B 1_555 1_555
H15B C12B 1_555 1_555
C13B N2B 1_555 1_555
H16B C13B 1_555 1_555
C14B C13B 1_555 1_555
H17B C14B 1_555 1_555
H18B C14B 1_555 1_555
C15B C14B 1_555 1_555
H19B C15B 1_555 1_555
H20B C15B 1_555 1_555
C16B C15B 1_555 1_555
H21B C16B 1_555 1_555
H22B C16B 1_555 1_555
C17B C16B 1_555 1_555
H23B C17B 1_555 1_555
H24B C17B 1_555 1_555
C18B C13B 1_555 1_555
H25B C18B 1_555 1_555
H26B C18B 1_555 1_555
C19B Mg1B 1_555 1_555
H27B C19B 1_555 1_555
H28B C19B 1_555 1_555
C20B C19B 1_555 1_555
C21B C20B 1_555 1_555
H29B C21B 1_555 1_555
C22B C21B 1_555 1_555
H30B C22B 1_555 1_555
C23B C22B 1_555 1_555
H31B C23B 1_555 1_555
C24B C23B 1_555 1_555
H32B C24B 1_555 1_555
C25B C20B 1_555 1_555
H33B C25B 1_555 1_555
C26B C2B 1_555 1_555
H34B C26B 1_555 1_555
C27B C1B 1_555 1_555
H35B C27B 1_555 1_555
H36B C27B 1_555 1_555
C2 C27 1_555 1_555
C6 C26 1_555 1_555
C11 C12 1_555 1_555
C17 C18 1_555 1_555
C24 C25 1_555 1_555
Mg1B N2B 1_555 1_555
N2B C1B 1_555 1_555
C2B C27B 1_555 1_555
C6B C26B 1_555 1_555
C11B C12B 1_555 1_555
C17B C18B 1_555 1_555
C24B C25B 1_555 1_555

#END
