
#######################################################################
#
#                 Cambridge Crystallographic Data Centre
#                                CCDC 
#
#######################################################################
#
# If this CIF has been generated from an entry in the Cambridge 
# Structural Database, then it will include bibliographic, chemical, 
# crystal, experimental, refinement or atomic coordinate data resulting 
# from the CCDC's data processing and validation procedures.
#
#######################################################################

data_ZOXXER
_chemical_formula_moiety         'C22 H26 N2 O4'
_chemical_name_systematic        
't-butyl 2-(4-(1-methyl-1H-imidazol-2-yl)-4-oxobutan-2-yl)-1-oxoindane-2-carboxylate'
_symmetry_cell_setting           monoclinic
_symmetry_space_group_name_H-M   'P 21/c'
_symmetry_Int_Tables_number      14
_space_group_name_Hall           '-P 2ybc'
loop_
_symmetry_equiv_pos_site_id
_symmetry_equiv_pos_as_xyz
1 x,y,z
2 -x,1/2+y,1/2-z
3 -x,-y,-z
4 x,1/2-y,1/2+z
_cell_length_a                   10.1905(5)
_cell_length_b                   11.5731(6)
_cell_length_c                   17.4203(8)
_cell_angle_alpha                90
_cell_angle_beta                 97.5045(16)
_cell_angle_gamma                90
_cell_volume                     2036.88
_exptl_crystal_colour            colorless
_exptl_crystal_description       prism
_cell_formula_units_Z            4
loop_
_atom_site_label
_atom_site_type_symbol
_atom_site_fract_x
_atom_site_fract_y
_atom_site_fract_z
C1 C 0.21092(13) 0.34740(11) 0.48117(7)
C2 C 0.30438(14) 0.37209(11) 0.42221(7)
H1 H 0.3941 0.3865 0.4499
H2 H 0.2750 0.4434 0.3936
C3 C 0.31207(13) 0.27380(11) 0.36402(7)
H3 H 0.2244 0.2336 0.3569
C4 C 0.33720(12) 0.32174(11) 0.28458(7)
C5 C 0.34956(12) 0.22095(11) 0.22694(7)
C6 C 0.46918(12) 0.24108(10) 0.18959(7)
C7 C 0.51388(12) 0.17753(11) 0.12994(7)
H4 H 0.4671 0.1113 0.1090
C8 C 0.62802(13) 0.21385(11) 0.10231(7)
H5 H 0.6606 0.1727 0.0615
C9 C 0.69578(13) 0.31128(12) 0.13434(8)
H6 H 0.7740 0.3353 0.1147
C10 C 0.65182(12) 0.37381(11) 0.19408(7)
H7 H 0.6994 0.4393 0.2156
C11 C 0.53613(12) 0.33789(10) 0.22157(7)
C12 C 0.46703(12) 0.39203(11) 0.28426(7)
H8 H 0.4472 0.4744 0.2726
H9 H 0.5228 0.3866 0.3351
C13 C 0.19358(12) 0.44430(11) 0.53375(7)
C14 C 0.11292(13) 0.55579(11) 0.61768(7)
H10 H 0.0609 0.5862 0.6544
C15 C 0.21861(13) 0.60779(11) 0.59095(7)
H11 H 0.2524 0.6818 0.6068
C16 C -0.00127(13) 0.36553(12) 0.59573(8)
H12 H -0.0712 0.4026 0.6206
H13 H 0.0412 0.3052 0.6298
H14 H -0.0398 0.3310 0.5466
C17 C 0.41680(14) 0.18588(12) 0.39667(8)
H15 H 0.3957 0.1570 0.4465
H16 H 0.5039 0.2230 0.4041
H17 H 0.4179 0.1213 0.3604
C18 C 0.21652(12) 0.39176(11) 0.24849(7)
C19 C 0.14827(13) 0.52571(11) 0.14079(7)
C20 C 0.13181(17) 0.62899(13) 0.19245(9)
H18 H 0.2192 0.6584 0.2138
H19 H 0.0833 0.6054 0.2349
H20 H 0.0824 0.6898 0.1620
C21 C 0.01731(14) 0.46780(13) 0.11242(9)
H21 H -0.0262 0.4446 0.1569
H22 H 0.0332 0.3994 0.0818
H23 H -0.0396 0.5220 0.0802
C22 C 0.22027(15) 0.55797(13) 0.07284(8)
H24 H 0.3068 0.5911 0.0921
H25 H 0.1679 0.6149 0.0403
H26 H 0.2326 0.4888 0.0422
N1 N 0.09708(10) 0.45169(9) 0.58118(6)
N2 N 0.26887(11) 0.53899(9) 0.53846(6)
O1 O 0.15165(10) 0.25630(8) 0.48425(6)
O2 O 0.27226(9) 0.14132(8) 0.21652(5)
O3 O 0.11369(10) 0.39777(9) 0.27515(6)
O4 O 0.24198(9) 0.44233(8) 0.18336(5)
loop_
_geom_bond_atom_site_label_1
_geom_bond_atom_site_label_2
_geom_bond_site_symmetry_1
_geom_bond_site_symmetry_2
C1 C2 1_555 1_555
C2 H1 1_555 1_555
H2 C2 1_555 1_555
C3 C2 1_555 1_555
H3 C3 1_555 1_555
C4 C3 1_555 1_555
C5 C4 1_555 1_555
C6 C5 1_555 1_555
C7 C6 1_555 1_555
H4 C7 1_555 1_555
C8 C7 1_555 1_555
H5 C8 1_555 1_555
C9 C8 1_555 1_555
H6 C9 1_555 1_555
C10 C9 1_555 1_555
H7 C10 1_555 1_555
C11 C6 1_555 1_555
C12 C4 1_555 1_555
H8 C12 1_555 1_555
H9 C12 1_555 1_555
C13 C1 1_555 1_555
C14 H10 1_555 1_555
C15 C14 1_555 1_555
H11 C15 1_555 1_555
C16 H12 1_555 1_555
H13 C16 1_555 1_555
H14 C16 1_555 1_555
C17 C3 1_555 1_555
H15 C17 1_555 1_555
H16 C17 1_555 1_555
H17 C17 1_555 1_555
C18 C4 1_555 1_555
C19 C20 1_555 1_555
C20 H18 1_555 1_555
H19 C20 1_555 1_555
H20 C20 1_555 1_555
C21 C19 1_555 1_555
H21 C21 1_555 1_555
H22 C21 1_555 1_555
H23 C21 1_555 1_555
C22 C19 1_555 1_555
H24 C22 1_555 1_555
H25 C22 1_555 1_555
H26 C22 1_555 1_555
N1 C13 1_555 1_555
N2 C13 1_555 1_555
O1 C1 1_555 1_555
O2 C5 1_555 1_555
O3 C18 1_555 1_555
O4 C18 1_555 1_555
C10 C11 1_555 1_555
C11 C12 1_555 1_555
C14 N1 1_555 1_555
C15 N2 1_555 1_555
C16 N1 1_555 1_555
C19 O4 1_555 1_555

#END
