
#######################################################################
#
#                 Cambridge Crystallographic Data Centre
#                                CCDC 
#
#######################################################################
#
# If this CIF has been generated from an entry in the Cambridge 
# Structural Database, then it will include bibliographic, chemical, 
# crystal, experimental, refinement or atomic coordinate data resulting 
# from the CCDC's data processing and validation procedures.
#
#######################################################################

data_ZOYDOG
_chemical_formula_moiety         'C17 H15 N3 O1'
_chemical_name_systematic        
4-Methoxyacetophenone-(4-cyanobenzylidene)hydrazone
_symmetry_cell_setting           triclinic
_symmetry_space_group_name_H-M   'P -1'
_symmetry_Int_Tables_number      2
_space_group_name_Hall           '-P 1'
loop_
_symmetry_equiv_pos_site_id
_symmetry_equiv_pos_as_xyz
1 x,y,z
2 -x,-y,-z
_cell_length_a                   12.729(3)
_cell_length_b                   13.713(5)
_cell_length_c                   16.788(3)
_cell_angle_alpha                88.16(2)
_cell_angle_beta                 81.56(2)
_cell_angle_gamma                86.61(2)
_cell_volume                     2892.77
_exptl_crystal_colour            yellow
_cell_formula_units_Z            8
loop_
_atom_site_label
_atom_site_type_symbol
_atom_site_fract_x
_atom_site_fract_y
_atom_site_fract_z
O1 O 0.7278(2) 0.4175(3) 0.1426(2)
N1 N 0.4607(3) 0.3714(3) 0.4861(2)
N2 N 0.4180(3) 0.3616(3) 0.5679(2)
N3 N 0.0046(4) 0.3340(4) 0.9426(2)
C1 C 0.8380(4) 0.3996(4) 0.1143(3)
C2 C 0.6944(4) 0.4027(3) 0.2240(3)
C3 C 0.5868(4) 0.4204(4) 0.2471(3)
C4 C 0.5442(4) 0.4112(4) 0.3282(3)
C5 C 0.6094(3) 0.3829(3) 0.3844(2)
C6 C 0.7150(4) 0.3637(4) 0.3593(3)
C7 C 0.7603(3) 0.3732(4) 0.2777(3)
C8 C 0.5638(4) 0.3713(3) 0.4710(3)
C9 C 0.6356(4) 0.3629(3) 0.5342(3)
C10 C 0.3194(4) 0.3673(4) 0.5796(3)
C11 C 0.2559(3) 0.3608(3) 0.6579(3)
C12 C 0.1463(4) 0.3682(4) 0.6653(3)
C13 C 0.0817(3) 0.3622(4) 0.7375(3)
C14 C 0.1281(3) 0.3466(3) 0.8070(3)
C15 C 0.2376(4) 0.3370(4) 0.8021(3)
C16 C 0.2998(4) 0.3451(4) 0.7291(3)
C17 C 0.0595(4) 0.3386(4) 0.8834(3)
H1 H 0.8510 0.4122 0.0578
H2 H 0.8782 0.4411 0.1407
H3 H 0.8582 0.3332 0.1254
H4 H 0.5418 0.4386 0.2080
H5 H 0.4702 0.4244 0.3447
H6 H 0.7597 0.3433 0.3980
H7 H 0.8340 0.3594 0.2610
H8 H 0.5942 0.3560 0.5857
H9 H 0.6834 0.3073 0.5245
H10 H 0.6747 0.4200 0.5325
H11 H 0.2832 0.3766 0.5340
H12 H 0.1142 0.3779 0.6177
H13 H 0.0065 0.3685 0.7401
H14 H 0.2694 0.3247 0.8494
H15 H 0.3749 0.3398 0.7265
O2 O 0.0815(3) 0.3819(3) 0.4520(2)
N4 N 0.3619(3) 0.3793(3) 0.1124(2)
N5 N 0.4057(3) 0.3820(3) 0.0300(2)
N6 N 0.8292(3) 0.3359(4) -0.3398(2)
C18 C -0.0328(4) 0.3844(4) 0.4741(3)
C19 C 0.1188(3) 0.3858(3) 0.3713(2)
C20 C 0.2268(4) 0.3716(4) 0.3509(3)
C21 C 0.2731(3) 0.3749(4) 0.2707(3)
C22 C 0.2118(3) 0.3942(3) 0.2092(2)
C23 C 0.1023(3) 0.4090(4) 0.2313(2)
C24 C 0.0567(4) 0.4058(4) 0.3122(3)
C25 C 0.2611(3) 0.3959(3) 0.1244(2)
C26 C 0.1960(4) 0.4146(4) 0.0591(3)
C27 C 0.5055(4) 0.3698(3) 0.0227(2)
C28 C 0.5743(4) 0.3656(3) -0.0560(2)
C29 C 0.6846(4) 0.3474(4) -0.0594(3)
C30 C 0.7475(4) 0.3407(4) -0.1331(3)
C31 C 0.7038(3) 0.3540(3) -0.2042(2)
C32 C 0.5946(3) 0.3708(4) -0.2015(3)
C33 C 0.5305(4) 0.3775(4) -0.1288(3)
C34 C 0.7726(4) 0.3440(4) -0.2810(3)
H16 H -0.0498 0.3813 0.5311
H17 H -0.0633 0.4433 0.4539
H18 H -0.0601 0.3301 0.4518
H19 H 0.2702 0.3595 0.3920
H20 H 0.3479 0.3637 0.2575
H21 H 0.0580 0.42154 0.1907
H22 H -0.0179 0.4175 0.3262
H23 H 0.2407 0.4129 0.0085
H24 H 0.1456 0.3657 0.0612
H25 H 0.1596 0.4769 0.0655
H26 H 0.5380 0.3629 0.0701
H27 H 0.7153 0.3397 -0.0111
H28 H 0.8218 0.3268 -0.1355
H29 H 0.5645 0.3775 -0.2500
H30 H 0.4560 0.3902 -0.1270
O3 O 0.6404(2) 0.1087(3) -0.3960(2)
N7 N 0.3662(3) 0.1369(3) -0.0536(2)
N8 N 0.3203(3) 0.1371(3) 0.0280(2)
N9 N -0.1021(4) 0.1468(4) 0.3971(2)
C35 C 0.7507(4) 0.0945(5) -0.4198(3)
C36 C 0.6044(4) 0.1112(4) -0.3142(3)
C37 C 0.4971(4) 0.1300(4) -0.2937(3)
C38 C 0.4534(4) 0.1343(4) -0.2129(3)
C39 C 0.5165(3) 0.1185(3) -0.1519(2)
C40 C 0.6235(4) 0.1000(4) -0.1757(3)
C41 C 0.6691(4) 0.0948(4) -0.2563(3)
C42 C 0.4691(4) 0.1246(3) -0.0668(2)
C43 C 0.5386(4) 0.1166(4) -0.0018(3)
C44 C 0.2218(4) 0.1529(3) 0.0365(3)
C45 C 0.1560(3) 0.1508(3) 0.1160(2)
C46 C 0.0463(4) 0.1626(4) 0.1196(3)
C47 C -0.0203(3) 0.1593(3) 0.1916(3)
C48 C 0.0232(3) 0.1476(3) 0.2621(2)
C49 C 0.1332(4) 0.1368(4) 0.2601(3)
C50 C 0.1979(3) 0.1392(4) 0.1879(3)
C51 C -0.0454(4) 0.1467(4) 0.3376(3)
H31 H 0.7657 0.0941 -0.4769
H32 H 0.7859 0.1460 -0.4002
H33 H 0.7751 0.0338 -0.3982
H34 H 0.4528 0.1400 -0.3345
H35 H 0.3791 0.1483 -0.1989
H36 H 0.6684 0.0903 -0.1353
H37 H 0.7432 0.0802 -0.2706
H38 H 0.4956 0.1220 0.0492
H39 H 0.5773 0.0551 -0.0046
H40 H 0.5687 0.1675 -0.0090
H41 H 0.1883 0.1667 -0.0098
H42 H 0.0167 0.1733 0.0711
H43 H -0.0952 0.1649 0.1929
H44 H 0.1627 0.1278 0.3088
H45 H 0.2728 0.1327 0.1866
O4 O 0.0018(2) 0.0800(2) 0.9229(2)
N10 N 0.2601(3) 0.1188(3) 0.5761(2)
N11 N 0.2993(3) 0.1295(3) 0.4941(2)
N12 N 0.7168(3) 0.1663(4) 0.1200(2)
C52 C -0.1109(4) 0.0959(4) 0.9523(3)
C53 C 0.0311(3) 0.0921(3) 0.8422(2)
C54 C 0.1397(4) 0.0760(4) 0.8159(3)
C55 C 0.1798(3) 0.0861(3) 0.7360(2)
C56 C 0.1137(4) 0.1110(3) 0.6782(3)
C57 C 0.0050(3) 0.1262(4) 0.7049(3)
C58 C -0.0342(4) 0.1181(4) 0.7867(3)
C59 C 0.1580(3) 0.1207(3) 0.5919(2)
C60 C 0.0860(4) 0.1334(5) 0.5309(3)
C61 C 0.4005(4) 0.1223(4) 0.4829(3)
C62 C 0.4657(4) 0.1310(3) 0.4036(3)
C63 C 0.5759(4) 0.1178(4) 0.3982(3)
C64 C 0.6389(4) 0.1263(4) 0.3251(3)
C65 C 0.5941(4) 0.1488(4) 0.2551(3)
C66 C 0.4843(4) 0.1616(4) 0.2605(3)
C67 C 0.4216(4) 0.1536(4) 0.3323(3)
C68 C 0.6627(4) 0.1572(4) 0.1799(3)
H46 H -0.1228 0.0856 1.0090
H47 H -0.1335 0.1610 0.9393
H48 H -0.1499 0.0515 0.9276
H49 H 0.1863 0.0578 0.8538
H50 H 0.2542 0.0758 0.7195
H51 H -0.0425 0.1422 0.6671
H52 H -0.1079 0.1310 0.8040
H53 H 0.1266 0.1384 0.4789
H54 H 0.0431 0.0786 0.5332
H55 H 0.0416 0.1911 0.5411
H56 H 0.4359 0.1106 0.5285
H57 H 0.6074 0.1028 0.4453
H58 H 0.7138 0.1167 0.3219
H59 H 0.4529 0.1761 0.2132
H60 H 0.3466 0.1632 0.3350
loop_
_geom_bond_atom_site_label_1
_geom_bond_atom_site_label_2
_geom_bond_site_symmetry_1
_geom_bond_site_symmetry_2
O1 C1 1_555 1_555
N1 N2 1_555 1_555
N2 C10 1_555 1_555
N3 C17 1_555 1_555
C1 H1 1_555 1_555
C2 O1 1_555 1_555
C3 C2 1_555 1_555
C4 C3 1_555 1_555
C5 C4 1_555 1_555
C6 C5 1_555 1_555
C7 C2 1_555 1_555
C8 N1 1_555 1_555
C9 C8 1_555 1_555
C10 C11 1_555 1_555
C11 C12 1_555 1_555
C12 C13 1_555 1_555
C13 C14 1_555 1_555
C14 C15 1_555 1_555
C15 C16 1_555 1_555
C16 C11 1_555 1_555
C17 C14 1_555 1_555
H2 C1 1_555 1_555
H3 C1 1_555 1_555
H4 C3 1_555 1_555
H5 C4 1_555 1_555
H6 C6 1_555 1_555
H7 C7 1_555 1_555
H8 C9 1_555 1_555
H9 C9 1_555 1_555
H10 C9 1_555 1_555
H11 C10 1_555 1_555
H12 C12 1_555 1_555
H13 C13 1_555 1_555
H14 C15 1_555 1_555
H15 C16 1_555 1_555
O2 C18 1_555 1_555
N4 N5 1_555 1_555
N5 C27 1_555 1_555
N6 C34 1_555 1_555
C18 H16 1_555 1_555
C19 O2 1_555 1_555
C20 C19 1_555 1_555
C21 C20 1_555 1_555
C22 C21 1_555 1_555
C23 C22 1_555 1_555
C24 C19 1_555 1_555
C25 N4 1_555 1_555
C26 C25 1_555 1_555
C27 C28 1_555 1_555
C28 C29 1_555 1_555
C29 C30 1_555 1_555
C30 C31 1_555 1_555
C31 C32 1_555 1_555
C32 C33 1_555 1_555
C33 C28 1_555 1_555
C34 C31 1_555 1_555
H17 C18 1_555 1_555
H18 C18 1_555 1_555
H19 C20 1_555 1_555
H20 C21 1_555 1_555
H21 C23 1_555 1_555
H22 C24 1_555 1_555
H23 C26 1_555 1_555
H24 C26 1_555 1_555
H25 C26 1_555 1_555
H26 C27 1_555 1_555
H27 C29 1_555 1_555
H28 C30 1_555 1_555
H29 C32 1_555 1_555
H30 C33 1_555 1_555
O3 C35 1_555 1_555
N7 N8 1_555 1_555
N8 C44 1_555 1_555
N9 C51 1_555 1_555
C35 H31 1_555 1_555
C36 O3 1_555 1_555
C37 C36 1_555 1_555
C38 C37 1_555 1_555
C39 C38 1_555 1_555
C40 C39 1_555 1_555
C41 C36 1_555 1_555
C42 N7 1_555 1_555
C43 C42 1_555 1_555
C44 C45 1_555 1_555
C45 C46 1_555 1_555
C46 C47 1_555 1_555
C47 C48 1_555 1_555
C48 C49 1_555 1_555
C49 C50 1_555 1_555
C50 C45 1_555 1_555
C51 C48 1_555 1_555
H32 C35 1_555 1_555
H33 C35 1_555 1_555
H34 C37 1_555 1_555
H35 C38 1_555 1_555
H36 C40 1_555 1_555
H37 C41 1_555 1_555
H38 C43 1_555 1_555
H39 C43 1_555 1_555
H40 C43 1_555 1_555
H41 C44 1_555 1_555
H42 C46 1_555 1_555
H43 C47 1_555 1_555
H44 C49 1_555 1_555
H45 C50 1_555 1_555
O4 C52 1_555 1_555
N10 N11 1_555 1_555
N11 C61 1_555 1_555
N12 C68 1_555 1_555
C52 H46 1_555 1_555
C53 O4 1_555 1_555
C54 C53 1_555 1_555
C55 C54 1_555 1_555
C56 C55 1_555 1_555
C57 C56 1_555 1_555
C58 C53 1_555 1_555
C59 N10 1_555 1_555
C60 C59 1_555 1_555
C61 C62 1_555 1_555
C62 C63 1_555 1_555
C63 C64 1_555 1_555
C64 C65 1_555 1_555
C65 C66 1_555 1_555
C66 C67 1_555 1_555
C67 C62 1_555 1_555
C68 C65 1_555 1_555
H47 C52 1_555 1_555
H48 C52 1_555 1_555
H49 C54 1_555 1_555
H50 C55 1_555 1_555
H51 C57 1_555 1_555
H52 C58 1_555 1_555
H53 C60 1_555 1_555
H54 C60 1_555 1_555
H55 C60 1_555 1_555
H56 C61 1_555 1_555
H57 C63 1_555 1_555
H58 C64 1_555 1_555
H59 C66 1_555 1_555
H60 C67 1_555 1_555
C5 C8 1_555 1_555
C6 C7 1_555 1_555
C22 C25 1_555 1_555
C23 C24 1_555 1_555
C39 C42 1_555 1_555
C40 C41 1_555 1_555
C56 C59 1_555 1_555
C57 C58 1_555 1_555

#END
