
#######################################################################
#
#                 Cambridge Crystallographic Data Centre
#                                CCDC 
#
#######################################################################
#
# If this CIF has been generated from an entry in the Cambridge 
# Structural Database, then it will include bibliographic, chemical, 
# crystal, experimental, refinement or atomic coordinate data resulting 
# from the CCDC's data processing and validation procedures.
#
#######################################################################

data_ZOYHUS
_chemical_formula_moiety         'C45 H41 F12 N3 O1 P1 S1 1+,Br1 1-'
_chemical_name_systematic        
'N-(1-((3,5-bis(Trifluoromethyl)benzyl)(diphenyl)phosphonio)-3-phenylpropan-2-yl)-N^2^-((3,5-bis(trifluoromethyl)phenyl)carbamothioyl)-3-methylvalinamide bromide unknown solvate'
_symmetry_cell_setting           monoclinic
_symmetry_space_group_name_H-M   'P 21'
_symmetry_Int_Tables_number      4
_space_group_name_Hall           'P 2yb'
loop_
_symmetry_equiv_pos_site_id
_symmetry_equiv_pos_as_xyz
1 x,y,z
2 -x,1/2+y,-z
_cell_length_a                   13.7975(12)
_cell_length_b                   22.645(2)
_cell_length_c                   17.6234(16)
_cell_angle_alpha                90
_cell_angle_beta                 108.396(2)
_cell_angle_gamma                90
_cell_volume                     5224.95
_exptl_crystal_colour            colorless
_exptl_crystal_description       prismatic
_cell_formula_units_Z            4
loop_
_atom_site_label
_atom_site_type_symbol
_atom_site_fract_x
_atom_site_fract_y
_atom_site_fract_z
Br1 Br 0.42445(8) 0.67944(4) 0.75170(6)
Br2 Br 0.57812(8) 0.00629(5) 0.29227(6)
P1 P 0.55187(17) 0.84450(11) 0.15746(14)
S1 S 0.4929(2) 1.03153(14) -0.02168(15)
O1 O 0.7700(5) 0.9731(4) 0.0531(4)
N1 N 0.7049(5) 0.9659(4) 0.1550(4)
H1 H 0.6696 0.9824 0.1815
N2 N 0.6150(6) 1.0760(4) 0.1138(5)
H2 H 0.6230 1.0958 0.1570
N3 N 0.4514(6) 1.0639(4) 0.1124(5)
H3 H 0.4751 1.0807 0.1583
C1 C 0.7300(7) 0.9979(5) 0.0959(6)
C2 C 0.7037(7) 1.0629(4) 0.0900(6)
H4 H 0.6873 1.0741 0.0336
C3 C 0.7976(8) 1.1015(6) 0.1386(9)
C4 C 0.8282(10) 1.0899(7) 0.2258(9)
H5 H 0.8960 1.1047 0.2509
H6 H 0.8269 1.0481 0.2349
H7 H 0.7816 1.1093 0.2481
C5 C 0.8869(9) 1.0886(8) 0.1031(11)
H8 H 0.9245 1.1243 0.1033
H9 H 0.8588 1.0745 0.0493
H10 H 0.9316 1.0592 0.1351
C6 C 0.7686(11) 1.1663(6) 0.1214(10)
H11 H 0.7242 1.1782 0.1510
H12 H 0.7342 1.1714 0.0652
H13 H 0.8293 1.1901 0.1371
C7 C 0.5191(7) 1.0581(4) 0.0703(6)
C8 C 0.3495(8) 1.0464(4) 0.0912(6)
C9 C 0.2831(8) 1.0496(5) 0.0156(7)
H14 H 0.3054 1.0628 -0.0261
C10 C 0.1786(9) 1.0326(6) 0.0005(8)
C11 C 0.1456(8) 1.0134(6) 0.0633(8)
H15 H 0.0775 1.0034 0.0542
C12 C 0.2128(8) 1.0095(6) 0.1369(6)
C13 C 0.3144(8) 1.0286(5) 0.1508(7)
H16 H 0.3588 1.0288 0.2030
C14 C 0.1805(12) 0.9896(8) 0.2059(10)
C15 C 0.1063(14) 1.0380(14) -0.0856(13)
C16 C 0.7372(7) 0.9060(4) 0.1717(6)
H17 H 0.7263 0.8858 0.1205
C17 C 0.8524(7) 0.9013(6) 0.2199(7)
H18 H 0.8906 0.9277 0.1965
H19 H 0.8627 0.9142 0.2744
C18 C 0.8938(8) 0.8397(6) 0.2214(8)
C19 C 0.9107(10) 0.8042(10) 0.2890(9)
H20 H 0.9004 0.8195 0.3349
C20 C 0.9437(12) 0.7447(8) 0.2879(14)
H21 H 0.9500 0.7199 0.3313
C21 C 0.9643(14) 0.7260(10) 0.2265(18)
H22 H 0.9929 0.6887 0.2285
C22 C 0.9464(12) 0.7584(9) 0.1577(14)
H23 H 0.9549 0.7418 0.1119
C23 C 0.9145(10) 0.8178(8) 0.1582(10)
H24 H 0.9080 0.8417 0.1139
C24 C 0.6726(6) 0.8745(5) 0.2155(5)
H25 H 0.6602 0.9022 0.2535
H26 H 0.7132 0.8425 0.2463
C25 C 0.5693(8) 0.7871(5) 0.0932(6)
C26 C 0.4883(10) 0.7633(6) 0.0318(8)
H27 H 0.4218 0.7745 0.0269
C27 C 0.5047(16) 0.7250(6) -0.0197(9)
H28 H 0.4509 0.7144 -0.0646
C28 C 0.5991(14) 0.7007(6) -0.0081(10)
H29 H 0.6079 0.6703 -0.0407
C29 C 0.6790(12) 0.7216(8) 0.0515(11)
H30 H 0.7438 0.7061 0.0591
C30 C 0.6661(10) 0.7656(6) 0.1010(9)
H31 H 0.7226 0.7810 0.1400
C31 C 0.4898(5) 0.8151(3) 0.2232(4)
C32 C 0.4550(6) 0.8534(3) 0.2706(5)
H32 H 0.4637 0.8939 0.2671
C33 C 0.4072(6) 0.8311(4) 0.3231(4)
H33 H 0.3839 0.8567 0.3548
C34 C 0.3942(7) 0.7705(4) 0.3282(5)
H34 H 0.3622 0.7556 0.3633
C35 C 0.4290(8) 0.7322(3) 0.2808(6)
H35 H 0.4203 0.6917 0.2842
C36 C 0.4768(7) 0.7545(3) 0.2283(5)
H36 H 0.5000 0.7289 0.1965
C37 C 0.4745(6) 0.9040(4) 0.0998(6)
H37 H 0.4636 0.9326 0.1372
H38 H 0.5140 0.9234 0.0703
C38 C 0.3726(7) 0.8886(5) 0.0419(6)
C39 C 0.3578(7) 0.8903(5) -0.0378(6)
H39 H 0.4105 0.9026 -0.0564
C40 C 0.2652(9) 0.8740(7) -0.0915(7)
C41 C 0.1873(8) 0.8531(6) -0.0635(7)
H40 H 0.1260 0.8398 -0.0992
C42 C 0.2022(8) 0.8524(6) 0.0163(7)
C43 C 0.2928(8) 0.8703(5) 0.0705(7)
H41 H 0.3014 0.8703 0.1250
C44 C 0.2507(11) 0.8757(17) -0.1821(9)
C45 C 0.1183(13) 0.8314(12) 0.0439(11)
F1 F 0.1526(14) 1.0286(17) -0.1386(11)
F2 F 0.063(2) 1.0899(16) -0.0949(17)
F3 F 0.041(2) 0.9968(15) -0.1030(17)
F4 F 0.146(3) 1.0344(15) 0.237(2)
F5 F 0.100(3) 0.9541(14) 0.188(3)
F6 F 0.249(3) 0.970(2) 0.2639(19)
F7 F 0.299(2) 0.8224(14) -0.1946(13)
F8 F 0.308(3) 0.9166(14) -0.1976(14)
F9 F 0.1587(19) 0.8895(19) -0.2194(15)
F10 F 0.035(2) 0.830(2) 0.002(2)
F11 F 0.122(2) 0.8508(14) 0.109(2)
F12 F 0.119(3) 0.766(2) 0.038(3)
P2 P 0.45013(16) 0.84331(11) 0.63434(14)
S2 S 0.5069(2) 0.65872(13) 0.47929(15)
O2 O 0.2315(5) 0.7144(3) 0.4191(4)
N4 N 0.2991(5) 0.7211(3) 0.5531(4)
H42 H 0.3360 0.7046 0.5966
N5 N 0.3884(5) 0.6120(3) 0.5540(4)
H43 H 0.3813 0.5920 0.5934
N6 N 0.5510(6) 0.6240(4) 0.6321(4)
H44 H 0.5287 0.6064 0.6666
C46 C 0.2722(6) 0.6907(5) 0.4831(6)
C47 C 0.2990(7) 0.6241(4) 0.4884(5)
H45 H 0.3150 0.6141 0.4396
C48 C 0.2038(8) 0.5834(5) 0.4894(7)
C49 C 0.1128(9) 0.5995(8) 0.4160(9)
H46 H 0.1328 0.5967 0.3687
H47 H 0.0912 0.6391 0.4215
H48 H 0.0574 0.5727 0.4119
C50 C 0.2312(11) 0.5218(6) 0.4830(9)
H49 H 0.2877 0.5113 0.5289
H50 H 0.2501 0.5166 0.4354
H51 H 0.1738 0.4970 0.4804
C51 C 0.1779(9) 0.5937(7) 0.5660(8)
H52 H 0.1209 0.5694 0.5660
H53 H 0.1607 0.6345 0.5693
H54 H 0.2358 0.5838 0.6112
C52 C 0.4814(7) 0.6293(4) 0.5584(5)
C53 C 0.6545(7) 0.6425(5) 0.6621(6)
C54 C 0.6908(7) 0.6615(5) 0.7393(6)
H55 H 0.6471 0.6622 0.7702
C55 C 0.7895(8) 0.6795(6) 0.7724(6)
C56 C 0.8548(8) 0.6786(6) 0.7272(7)
H56 H 0.9221 0.6911 0.7493
C57 C 0.8206(8) 0.6597(6) 0.6507(7)
C58 C 0.7201(7) 0.6403(5) 0.6189(7)
H57 H 0.6975 0.6256 0.5670
C59 C 0.8262(10) 0.7004(8) 0.8563(9)
C60 C 0.8923(12) 0.6566(11) 0.6013(11)
C61 C 0.2656(6) 0.7806(4) 0.5537(5)
H58 H 0.2778 0.8012 0.5087
C62 C 0.1502(7) 0.7862(5) 0.5440(7)
H59 H 0.1122 0.7589 0.5029
H60 H 0.1394 0.7749 0.5938
C63 C 0.1103(7) 0.8456(6) 0.5226(7)
C64 C 0.0877(8) 0.8824(7) 0.5776(8)
H61 H 0.0933 0.8677 0.6280
C65 C 0.0564(11) 0.9415(10) 0.5594(14)
H62 H 0.0435 0.9660 0.5975
C66 C 0.0460(12) 0.9610(9) 0.4872(18)
H63 H 0.0242 0.9996 0.4741
C67 C 0.0669(11) 0.9253(10) 0.4293(12)
H64 H 0.0595 0.9404 0.3787
C68 C 0.0978(9) 0.8690(7) 0.4467(8)
H65 H 0.1109 0.8454 0.4078
C69 C 0.3279(6) 0.8123(4) 0.6311(5)
H66 H 0.3397 0.7844 0.6748
H67 H 0.2862 0.8439 0.6411
C70 C 0.4318(7) 0.9010(4) 0.5607(6)
C71 C 0.5028(13) 0.9186(7) 0.5309(11)
H68 H 0.5664 0.9004 0.5490
C72 C 0.4892(17) 0.9614(8) 0.4760(12)
H69 H 0.5427 0.9728 0.4577
C73 C 0.3990(15) 0.9870(7) 0.4480(9)
H70 H 0.3873 1.0148 0.4073
C74 C 0.3265(13) 0.9732(9) 0.4774(14)
H71 H 0.2661 0.9948 0.4626
C75 C 0.3389(11) 0.9253(9) 0.5320(13)
H72 H 0.2843 0.9113 0.5472
C76 C 0.5094(7) 0.8714(4) 0.7313(6)
C77 C 0.5387(9) 0.8342(5) 0.7965(6)
H73 H 0.5209 0.7945 0.7894
C78 C 0.5939(10) 0.8541(8) 0.8724(7)
H74 H 0.6206 0.8282 0.9148
C79 C 0.6072(11) 0.9153(9) 0.8817(9)
H75 H 0.6356 0.9309 0.9327
C80 C 0.5805(14) 0.9513(7) 0.8199(10)
H76 H 0.5948 0.9914 0.8280
C81 C 0.5322(10) 0.9314(6) 0.7441(7)
H77 H 0.5147 0.9576 0.7014
C82 C 0.5288(6) 0.7856(4) 0.6147(5)
H78 H 0.5373 0.7555 0.6554
H79 H 0.4920 0.7678 0.5637
C83 C 0.6335(7) 0.8030(4) 0.6125(6)
C84 C 0.6508(8) 0.7995(5) 0.5401(6)
H80 H 0.6012 0.7842 0.4956
C85 C 0.7441(9) 0.8191(6) 0.5341(8)
C86 C 0.8166(8) 0.8430(7) 0.5980(8)
H81 H 0.8775 0.8573 0.5929
C87 C 0.7986(8) 0.8458(6) 0.6699(7)
C88 C 0.7082(7) 0.8261(5) 0.6782(6)
H82 H 0.6972 0.8281 0.7276
C89 C 0.7610(12) 0.8196(9) 0.4528(11)
C90 C 0.8784(16) 0.8749(13) 0.7399(12)
F13 F 0.7910(19) 0.6676(11) 0.9070(11)
F14 F 0.924(2) 0.7011(15) 0.8917(16)
F15 F 0.791(2) 0.7544(10) 0.8638(18)
F16 F 0.8521(19) 0.6465(17) 0.5242(17)
F17 F 0.946(2) 0.604(2) 0.622(2)
F18 F 0.953(3) 0.7080(16) 0.609(2)
F19 F 0.799(2) 0.8655(12) 0.4359(15)
F20 F 0.695(2) 0.7938(16) 0.3953(19)
F21 F 0.840(3) 0.7806(13) 0.460(2)
F22 F 0.9632(13) 0.8292(15) 0.7616(15)
F23 F 0.897(2) 0.9248(13) 0.7229(19)
F24 F 0.8475(10) 0.8794(9) 0.8033(7)
F25? F 0.121(3) 1.0855(17) -0.1221(16)
F26? F 0.0110(17) 1.033(2) -0.0855(17)
F27? F 0.102(5) 0.985(2) -0.123(2)
F28? F 0.207(2) 1.0231(12) 0.2691(14)
F29? F 0.0799(18) 0.9799(15) 0.184(2)
F30? F 0.2293(18) 0.9400(8) 0.2370(13)
F31? F 0.202(2) 0.8260(12) -0.2184(11)
F32? F 0.320(3) 0.8855(17) -0.2067(18)
F33? F 0.176(3) 0.9236(15) -0.218(2)
F34? F 0.0439(17) 0.8771(13) 0.0325(18)
F35? F 0.1501(18) 0.8134(14) 0.1216(15)
F36? F 0.071(2) 0.7858(16) 0.0089(18)
F37? F 0.856(3) 0.6557(16) 0.9021(16)
F38? F 0.912(2) 0.7321(13) 0.8732(17)
F39? F 0.760(2) 0.7306(17) 0.8759(19)
F40? F 0.8478(18) 0.6846(11) 0.5330(16)
F41? F 0.913(3) 0.603(2) 0.584(3)
F42? F 0.9776(15) 0.6795(13) 0.6321(14)
F43? F 0.713(2) 0.8640(14) 0.4093(12)
F44? F 0.724(3) 0.7702(16) 0.414(2)
F45? F 0.8617(18) 0.8099(17) 0.4629(17)
F46? F 0.9453(14) 0.9033(14) 0.7266(16)
F47? F 0.818(5) 0.938(3) 0.761(4)
F48? F 0.921(4) 0.835(2) 0.786(3)
loop_
_geom_bond_atom_site_label_1
_geom_bond_atom_site_label_2
_geom_bond_site_symmetry_1
_geom_bond_site_symmetry_2
P1 C24 1_555 1_555
S1 C7 1_555 1_555
O1 C1 1_555 1_555
N1 H1 1_555 1_555
N2 H2 1_555 1_555
N3 H3 1_555 1_555
C1 N1 1_555 1_555
C2 N2 1_555 1_555
H4 C2 1_555 1_555
C3 C2 1_555 1_555
C4 C3 1_555 1_555
H5 C4 1_555 1_555
H6 C4 1_555 1_555
H7 C4 1_555 1_555
C5 C3 1_555 1_555
H8 C5 1_555 1_555
H9 C5 1_555 1_555
H10 C5 1_555 1_555
C6 C3 1_555 1_555
H11 C6 1_555 1_555
H12 C6 1_555 1_555
H13 C6 1_555 1_555
C7 N2 1_555 1_555
C8 N3 1_555 1_555
C9 C8 1_555 1_555
H14 C9 1_555 1_555
C10 C9 1_555 1_555
C11 C10 1_555 1_555
H15 C11 1_555 1_555
C12 C11 1_555 1_555
C13 C8 1_555 1_555
H16 C13 1_555 1_555
C14 C12 1_555 1_555
C15 C10 1_555 1_555
C16 N1 1_555 1_555
H17 C16 1_555 1_555
C17 C16 1_555 1_555
H18 C17 1_555 1_555
H19 C17 1_555 1_555
C18 C17 1_555 1_555
C19 C18 1_555 1_555
H20 C19 1_555 1_555
C20 C19 1_555 1_555
H21 C20 1_555 1_555
C21 C20 1_555 1_555
H22 C21 1_555 1_555
C22 C21 1_555 1_555
H23 C22 1_555 1_555
C23 C18 1_555 1_555
H24 C23 1_555 1_555
C24 C16 1_555 1_555
H25 C24 1_555 1_555
H26 C24 1_555 1_555
C25 P1 1_555 1_555
C26 C25 1_555 1_555
H27 C26 1_555 1_555
C27 C26 1_555 1_555
H28 C27 1_555 1_555
C28 C27 1_555 1_555
H29 C28 1_555 1_555
C29 C28 1_555 1_555
H30 C29 1_555 1_555
C30 C25 1_555 1_555
H31 C30 1_555 1_555
C31 P1 1_555 1_555
C32 C31 1_555 1_555
H32 C32 1_555 1_555
C33 C32 1_555 1_555
H33 C33 1_555 1_555
C34 C33 1_555 1_555
H34 C34 1_555 1_555
C35 C34 1_555 1_555
H35 C35 1_555 1_555
C36 C31 1_555 1_555
H36 C36 1_555 1_555
C37 P1 1_555 1_555
H37 C37 1_555 1_555
H38 C37 1_555 1_555
C38 C37 1_555 1_555
C39 C38 1_555 1_555
H39 C39 1_555 1_555
C40 C39 1_555 1_555
C41 C40 1_555 1_555
H40 C41 1_555 1_555
C42 C41 1_555 1_555
C43 C38 1_555 1_555
H41 C43 1_555 1_555
C44 C40 1_555 1_555
C45 C42 1_555 1_555
F1 C15 1_555 1_555
F2 C15 1_555 1_555
F3 C15 1_555 1_555
F4 C14 1_555 1_555
F5 C14 1_555 1_555
F6 C14 1_555 1_555
F7 C44 1_555 1_555
F8 C44 1_555 1_555
F9 C44 1_555 1_555
F10 C45 1_555 1_555
F11 C45 1_555 1_555
F12 C45 1_555 1_555
P2 C69 1_555 1_555
S2 C52 1_555 1_555
O2 C46 1_555 1_555
N4 H42 1_555 1_555
N5 H43 1_555 1_555
N6 H44 1_555 1_555
C46 N4 1_555 1_555
C47 N5 1_555 1_555
H45 C47 1_555 1_555
C48 C47 1_555 1_555
C49 C48 1_555 1_555
H46 C49 1_555 1_555
H47 C49 1_555 1_555
H48 C49 1_555 1_555
C50 C48 1_555 1_555
H49 C50 1_555 1_555
H50 C50 1_555 1_555
H51 C50 1_555 1_555
C51 C48 1_555 1_555
H52 C51 1_555 1_555
H53 C51 1_555 1_555
H54 C51 1_555 1_555
C52 N5 1_555 1_555
C53 N6 1_555 1_555
C54 C53 1_555 1_555
H55 C54 1_555 1_555
C55 C54 1_555 1_555
C56 C55 1_555 1_555
H56 C56 1_555 1_555
C57 C56 1_555 1_555
C58 C53 1_555 1_555
H57 C58 1_555 1_555
C59 C55 1_555 1_555
C60 C57 1_555 1_555
C61 N4 1_555 1_555
H58 C61 1_555 1_555
C62 C61 1_555 1_555
H59 C62 1_555 1_555
H60 C62 1_555 1_555
C63 C62 1_555 1_555
C64 C63 1_555 1_555
H61 C64 1_555 1_555
C65 C64 1_555 1_555
H62 C65 1_555 1_555
C66 C65 1_555 1_555
H63 C66 1_555 1_555
C67 C66 1_555 1_555
H64 C67 1_555 1_555
C68 C63 1_555 1_555
H65 C68 1_555 1_555
C69 C61 1_555 1_555
H66 C69 1_555 1_555
H67 C69 1_555 1_555
C70 P2 1_555 1_555
C71 C70 1_555 1_555
H68 C71 1_555 1_555
C72 C71 1_555 1_555
H69 C72 1_555 1_555
C73 C72 1_555 1_555
H70 C73 1_555 1_555
C74 C73 1_555 1_555
H71 C74 1_555 1_555
C75 C70 1_555 1_555
H72 C75 1_555 1_555
C76 P2 1_555 1_555
C77 C76 1_555 1_555
H73 C77 1_555 1_555
C78 C77 1_555 1_555
H74 C78 1_555 1_555
C79 C78 1_555 1_555
H75 C79 1_555 1_555
C80 C79 1_555 1_555
H76 C80 1_555 1_555
C81 C76 1_555 1_555
H77 C81 1_555 1_555
C82 P2 1_555 1_555
H78 C82 1_555 1_555
H79 C82 1_555 1_555
C83 C82 1_555 1_555
C84 C83 1_555 1_555
H80 C84 1_555 1_555
C85 C84 1_555 1_555
C86 C85 1_555 1_555
H81 C86 1_555 1_555
C87 C86 1_555 1_555
C88 C83 1_555 1_555
H82 C88 1_555 1_555
C89 C85 1_555 1_555
C90 C87 1_555 1_555
F13 C59 1_555 1_555
F14 C59 1_555 1_555
F15 C59 1_555 1_555
F16 C60 1_555 1_555
F17 C60 1_555 1_555
F18 C60 1_555 1_555
F19 C89 1_555 1_555
F20 C89 1_555 1_555
F21 C89 1_555 1_555
F22 C90 1_555 1_555
F23 C90 1_555 1_555
F24 C90 1_555 1_555
N3 C7 1_555 1_555
C1 C2 1_555 1_555
C12 C13 1_555 1_555
C22 C23 1_555 1_555
C29 C30 1_555 1_555
C35 C36 1_555 1_555
C42 C43 1_555 1_555
N6 C52 1_555 1_555
C46 C47 1_555 1_555
C57 C58 1_555 1_555
C67 C68 1_555 1_555
C74 C75 1_555 1_555
C80 C81 1_555 1_555
C87 C88 1_555 1_555

#END
