
#######################################################################
#
#                 Cambridge Crystallographic Data Centre
#                                CCDC 
#
#######################################################################
#
# If this CIF has been generated from an entry in the Cambridge 
# Structural Database, then it will include bibliographic, chemical, 
# crystal, experimental, refinement or atomic coordinate data resulting 
# from the CCDC's data processing and validation procedures.
#
#######################################################################

data_ZOZBOH
_chemical_formula_moiety         'C31 H23 B1 N2 O1'
_chemical_name_systematic        
6,6,12-Triphenyl-6H,12H-7\l^5^,6\l^5^-[3,1]benzimidazo[1,2-c][1,3,2]benzoxazaborinine
_symmetry_cell_setting           orthorhombic
_symmetry_space_group_name_H-M   'P b c a'
_symmetry_Int_Tables_number      61
_space_group_name_Hall           '-P 2ac 2ab'
loop_
_symmetry_equiv_pos_site_id
_symmetry_equiv_pos_as_xyz
1 x,y,z
2 1/2-x,-y,1/2+z
3 -x,1/2+y,1/2-z
4 1/2+x,1/2-y,-z
5 -x,-y,-z
6 1/2+x,y,1/2-z
7 x,1/2-y,1/2+z
8 1/2-x,1/2+y,z
_cell_length_a                   13.918(2)
_cell_length_b                   18.380(3)
_cell_length_c                   18.813(3)
_cell_angle_alpha                90
_cell_angle_beta                 90
_cell_angle_gamma                90
_cell_volume                     4812.61
_exptl_crystal_colour            colorless
_exptl_crystal_description       block
_cell_formula_units_Z            8
loop_
_atom_site_label
_atom_site_type_symbol
_atom_site_fract_x
_atom_site_fract_y
_atom_site_fract_z
B1 B 0.2189(3) 0.10374(18) 0.46225(19)
O1 O 0.22138(14) 0.02246(10) 0.45223(11)
N1 N 0.25081(17) 0.11436(12) 0.54302(12)
N2 N 0.33352(18) 0.09264(13) 0.64118(13)
C1 C 0.2962(2) -0.01606(15) 0.47744(16)
C2 C 0.3204(2) -0.08100(16) 0.44260(18)
H1 H 0.2855 -0.0963 0.4032
C3 C 0.3959(3) -0.12173(16) 0.46705(19)
H2 H 0.4116 -0.1648 0.4439
C4 C 0.4493(2) -0.10037(17) 0.52533(19)
H3 H 0.5012 -0.1282 0.5404
C5 C 0.4250(2) -0.03755(16) 0.56103(17)
H4 H 0.4606 -0.0232 0.6004
C6 C 0.3475(2) 0.00465(14) 0.53854(17)
C7 C 0.3131(2) 0.06954(15) 0.57426(16)
C8 C 0.2298(2) 0.17004(15) 0.59177(15)
C9 C 0.1708(2) 0.23155(16) 0.58642(17)
H5 H 0.1356 0.2415 0.5456
C10 C 0.1678(2) 0.27643(16) 0.64492(18)
H6 H 0.1305 0.3183 0.6428
C11 C 0.2181(2) 0.26184(18) 0.70692(19)
H7 H 0.2131 0.2937 0.7451
C12 C 0.2755(2) 0.20062(18) 0.71294(17)
H8 H 0.3089 0.1898 0.7544
C13 C 0.2802(2) 0.15636(15) 0.65313(16)
C14 C 0.3916(3) 0.06060(18) 0.69638(17)
C15 C 0.4779(3) 0.0906(2) 0.7122(2)
H9 H 0.5027 0.1285 0.6849
C16 C 0.5286(4) 0.0635(3) 0.7703(3)
H10 H 0.5878 0.0833 0.7826
C17 C 0.4903(6) 0.0066(4) 0.8097(2)
H11 H 0.5238 -0.0119 0.8485
C18 C 0.4051(5) -0.0215(3) 0.7915(3)
H12 H 0.3802 -0.0597 0.8182
C19 C 0.3540(3) 0.0040(2) 0.7358(2)
H13 H 0.2947 -0.0161 0.7242
C20 C 0.1094(2) 0.12852(15) 0.45152(15)
C21 C 0.0364(2) 0.09500(17) 0.49012(18)
H14 H 0.0531 0.0609 0.5245
C22 C -0.0598(2) 0.11012(19) 0.4796(2)
H15 H -0.1064 0.0865 0.5064
C23 C -0.0862(3) 0.1607(2) 0.4289(2)
H16 H -0.1507 0.1710 0.4209
C24 C -0.0161(3) 0.19542(19) 0.3904(2)
H17 H -0.0336 0.2299 0.3566
C25 C 0.0798(2) 0.18003(16) 0.40110(17)
H18 H 0.1259 0.2044 0.3743
C26 C 0.2967(2) 0.14291(16) 0.41193(16)
C27 C 0.3283(2) 0.21465(17) 0.42432(17)
H19 H 0.3040 0.2401 0.4631
C28 C 0.3946(3) 0.24833(19) 0.3802(2)
H20 H 0.4141 0.2957 0.3899
C29 C 0.4316(2) 0.2126(2) 0.3227(2)
H21 H 0.4761 0.2354 0.2934
C30 C 0.4021(3) 0.1421(2) 0.30844(18)
H22 H 0.4264 0.1173 0.2693
C31 C 0.3364(2) 0.10892(18) 0.35260(17)
H23 H 0.3177 0.0615 0.3423
loop_
_geom_bond_atom_site_label_1
_geom_bond_atom_site_label_2
_geom_bond_site_symmetry_1
_geom_bond_site_symmetry_2
B1 O1 1_555 1_555
O1 C1 1_555 1_555
N1 B1 1_555 1_555
N2 C7 1_555 1_555
C1 C2 1_555 1_555
C2 H1 1_555 1_555
C3 C2 1_555 1_555
H2 C3 1_555 1_555
C4 C3 1_555 1_555
H3 C4 1_555 1_555
C5 C4 1_555 1_555
H4 C5 1_555 1_555
C6 C1 1_555 1_555
C7 N1 1_555 1_555
C8 N1 1_555 1_555
C9 C8 1_555 1_555
H5 C9 1_555 1_555
C10 C9 1_555 1_555
H6 C10 1_555 1_555
C11 C10 1_555 1_555
H7 C11 1_555 1_555
C12 C11 1_555 1_555
H8 C12 1_555 1_555
C13 N2 1_555 1_555
C14 N2 1_555 1_555
C15 C14 1_555 1_555
H9 C15 1_555 1_555
C16 C15 1_555 1_555
H10 C16 1_555 1_555
C17 C16 1_555 1_555
H11 C17 1_555 1_555
C18 C17 1_555 1_555
H12 C18 1_555 1_555
C19 C14 1_555 1_555
H13 C19 1_555 1_555
C20 B1 1_555 1_555
C21 C20 1_555 1_555
H14 C21 1_555 1_555
C22 C21 1_555 1_555
H15 C22 1_555 1_555
C23 C22 1_555 1_555
H16 C23 1_555 1_555
C24 C23 1_555 1_555
H17 C24 1_555 1_555
C25 C20 1_555 1_555
H18 C25 1_555 1_555
C26 B1 1_555 1_555
C27 C26 1_555 1_555
H19 C27 1_555 1_555
C28 C27 1_555 1_555
H20 C28 1_555 1_555
C29 C28 1_555 1_555
H21 C29 1_555 1_555
C30 C29 1_555 1_555
H22 C30 1_555 1_555
C31 C26 1_555 1_555
H23 C31 1_555 1_555
C5 C6 1_555 1_555
C6 C7 1_555 1_555
C8 C13 1_555 1_555
C12 C13 1_555 1_555
C18 C19 1_555 1_555
C24 C25 1_555 1_555
C30 C31 1_555 1_555

#END
