
#######################################################################
#
#                 Cambridge Crystallographic Data Centre
#                                CCDC 
#
#######################################################################
#
# If this CIF has been generated from an entry in the Cambridge 
# Structural Database, then it will include bibliographic, chemical, 
# crystal, experimental, refinement or atomic coordinate data resulting 
# from the CCDC's data processing and validation procedures.
#
#######################################################################

data_ZOZLOR
_chemical_formula_moiety         'C14 H15 N1 O4'
_chemical_name_systematic        
'Ethyl 2-hydroxy-2-(1H-indol-3-yl)-3-oxobutanoate'
_symmetry_cell_setting           monoclinic
_symmetry_space_group_name_H-M   'P 21/c'
_symmetry_Int_Tables_number      14
_space_group_name_Hall           '-P 2ybc'
loop_
_symmetry_equiv_pos_site_id
_symmetry_equiv_pos_as_xyz
1 x,y,z
2 -x,1/2+y,1/2-z
3 -x,-y,-z
4 x,1/2-y,1/2+z
_cell_length_a                   10.860(5)
_cell_length_b                   11.654(5)
_cell_length_c                   11.196(5)
_cell_angle_alpha                90
_cell_angle_beta                 108.693(8)
_cell_angle_gamma                90
_cell_volume                     1342.25
_cell_formula_units_Z            4
loop_
_atom_site_label
_atom_site_type_symbol
_atom_site_fract_x
_atom_site_fract_y
_atom_site_fract_z
O1 O 0.8233(2) 0.04773(14) 0.54510(14)
H1 H 0.8429 -0.0050 0.5062
O2 O 0.82001(19) -0.15789(14) 0.63197(17)
O3 O 1.0772(2) 0.09091(16) 0.6188(2)
O4 O 1.10717(19) 0.0153(2) 0.8084(2)
C1 C 0.8400(2) 0.12448(17) 0.74495(19)
C2 C 1.0355(3) 0.05070(19) 0.6965(2)
C3 C 0.8635(2) -0.08887(17) 0.7148(2)
C4 C 0.9112(2) 0.19806(18) 0.8369(2)
H2 H 1.0014 0.2020 0.8665
C5 C 0.8902(2) 0.03504(17) 0.6749(2)
C6 C 0.7060(2) 0.14616(19) 0.7275(2)
C7 C 0.7034(3) 0.2353(2) 0.8128(3)
C8 C 0.8891(4) -0.1172(2) 0.8488(3)
H3 H 0.8740 -0.1975 0.8570
H4 H 0.8322 -0.0733 0.8814
H5 H 0.9778 -0.0992 0.8954
C9 C 0.5878(3) 0.1012(3) 0.6508(3)
H6 H 0.5861 0.0421 0.5945
C10 C 0.5874(3) 0.2793(3) 0.8213(3)
H7 H 0.5872 0.3382 0.8773
C11 C 1.2481(3) 0.0242(4) 0.8393(5)
H8 H 1.2734 0.0059 0.7660
H9 H 1.2765 0.1017 0.8660
C12 C 0.4745(3) 0.2334(4) 0.7452(4)
H10 H 0.3956 0.2606 0.7497
C13 C 0.4754(3) 0.1456(4) 0.6601(4)
H11 H 0.3966 0.1166 0.6083
C14 C 1.3067(4) -0.0559(4) 0.9399(5)
H12 H 1.2979 -0.0274 1.0172
H13 H 1.3972 -0.0647 0.9492
H14 H 1.2640 -0.1289 0.9202
N1 N 0.8297(2) 0.26453(16) 0.8784(2)
loop_
_geom_bond_atom_site_label_1
_geom_bond_atom_site_label_2
_geom_bond_site_symmetry_1
_geom_bond_site_symmetry_2
O1 H1 1_555 1_555
O2 C3 1_555 1_555
O3 C2 1_555 1_555
O4 C2 1_555 1_555
C1 C4 1_555 1_555
C2 C5 1_555 1_555
C3 C5 1_555 1_555
C4 H2 1_555 1_555
C5 O1 1_555 1_555
C6 C1 1_555 1_555
C7 C6 1_555 1_555
C8 C3 1_555 1_555
H3 C8 1_555 1_555
H4 C8 1_555 1_555
H5 C8 1_555 1_555
C9 C6 1_555 1_555
H6 C9 1_555 1_555
C10 C7 1_555 1_555
H7 C10 1_555 1_555
C11 O4 1_555 1_555
H8 C11 1_555 1_555
H9 C11 1_555 1_555
C12 C10 1_555 1_555
H10 C12 1_555 1_555
C13 C9 1_555 1_555
H11 C13 1_555 1_555
C14 C11 1_555 1_555
H12 C14 1_555 1_555
H13 C14 1_555 1_555
H14 C14 1_555 1_555
N1 C4 1_555 1_555
C1 C5 1_555 1_555
C7 N1 1_555 1_555
C12 C13 1_555 1_555

#END
