
#######################################################################
#
#                 Cambridge Crystallographic Data Centre
#                                CCDC 
#
#######################################################################
#
# If this CIF has been generated from an entry in the Cambridge 
# Structural Database, then it will include bibliographic, chemical, 
# crystal, experimental, refinement or atomic coordinate data resulting 
# from the CCDC's data processing and validation procedures.
#
#######################################################################

data_ZOZRIF
_chemical_formula_moiety         'C26 H18 N4'
_chemical_name_systematic        1,4-bis(2,2'-Bipyrid-4-yl)benzene
_symmetry_cell_setting           monoclinic
_symmetry_space_group_name_H-M   'P 21/n'
_symmetry_Int_Tables_number      14
_space_group_name_Hall           '-P 2yn'
loop_
_symmetry_equiv_pos_site_id
_symmetry_equiv_pos_as_xyz
1 x,y,z
2 1/2-x,1/2+y,1/2-z
3 -x,-y,-z
4 1/2+x,1/2-y,1/2+z
_cell_length_a                   10.025(1)
_cell_length_b                   8.689(1)
_cell_length_c                   12.063(1)
_cell_angle_alpha                90
_cell_angle_beta                 114.01(1)
_cell_angle_gamma                90
_cell_volume                     959.856
_exptl_crystal_colour            colorless
_cell_formula_units_Z            2
loop_
_atom_site_label
_atom_site_type_symbol
_atom_site_fract_x
_atom_site_fract_y
_atom_site_fract_z
N1 N 0.5122(2) 0.2379(2) 0.9877(1)
N2 N 0.8044(1) -0.0197(2) 1.0165(1)
C1 C 0.6380(2) 0.1625(2) 1.0420(1)
C2 C 0.7197(2) 0.1731(2) 1.1656(2)
C3 C 0.6710(2) 0.2621(2) 1.2352(1)
C4 C 0.5410(2) 0.3368(3) 1.1810(2)
C5 C 0.4669(2) 0.3219(3) 1.0582(2)
C6 C 0.6850(2) 0.0679(2) 0.9618(1)
C7 C 0.6076(2) 0.0716(2) 0.8369(1)
C8 C 0.6526(2) -0.0160(2) 0.7620(1)
C9 C 0.7753(2) -0.1081(2) 0.8197(1)
C10 C 0.8454(2) -0.1051(2) 0.9440(2)
C11 C 0.5735(2) -0.0102(2) 0.6276(1)
C12 C 0.6433(2) -0.0453(2) 0.5518(1)
C13 C 0.4281(2) 0.0351(2) 0.5725(1)
H1 H 0.8094 0.1188 1.2022
H2 H 0.7270 0.2715 1.3201
H3 H 0.5031 0.3974 1.2271
H4 H 0.3768 0.3751 1.0204
H5 H 0.5232 0.1346 0.8022
H6 H 0.8101 -0.1724 0.7735
H7 H 0.9291 -0.1685 0.9810
H8 H 0.7434 -0.0738 0.5857
H9 H 0.3772 0.0631 0.6208
C13B C 0.5719(2) -0.0351(2) 0.4275(1)
C11B C 0.4265(2) 0.0102(2) 0.3724(1)
C8B C 0.3474(2) 0.0160(2) 0.2380(1)
C7B C 0.3924(2) -0.0716(2) 0.1631(1)
C6B C 0.3150(2) -0.0679(2) 0.0382(1)
N2B N 0.1956(1) 0.0197(2) -0.0165(1)
C10B C 0.1546(2) 0.1051(2) 0.0560(2)
C9B C 0.2247(2) 0.1081(2) 0.1803(1)
H6B H 0.1899 0.1724 0.2265
H7B H 0.0709 0.1685 0.0190
C1B C 0.3620(2) -0.1625(2) -0.0420(1)
N1B N 0.4878(2) -0.2379(2) 0.0123(1)
C5B C 0.5331(2) -0.3219(3) -0.0582(2)
C4B C 0.4590(2) -0.3368(3) -0.1810(2)
C3B C 0.3290(2) -0.2621(2) -0.2352(1)
C2B C 0.2803(2) -0.1731(2) -0.1656(2)
H1B H 0.1906 -0.1188 -0.2022
H2B H 0.2730 -0.2715 -0.3201
H3B H 0.4969 -0.3974 -0.2271
H4B H 0.6232 -0.3751 -0.0204
H5B H 0.4768 -0.1346 0.1978
C12B C 0.3567(2) 0.0453(2) 0.4482(1)
H8B H 0.2566 0.0738 0.4143
H9B H 0.6228 -0.0631 0.3792
loop_
_geom_bond_atom_site_label_1
_geom_bond_atom_site_label_2
_geom_bond_site_symmetry_1
_geom_bond_site_symmetry_2
N1 C1 1_555 1_555
N2 C6 1_555 1_555
C1 C2 1_555 1_555
C2 C3 1_555 1_555
C3 C4 1_555 1_555
C4 C5 1_555 1_555
C5 N1 1_555 1_555
C6 C1 1_555 1_555
C7 C6 1_555 1_555
C8 C7 1_555 1_555
C9 C8 1_555 1_555
C10 N2 1_555 1_555
C11 C8 1_555 1_555
C12 C11 1_555 1_555
C13 C11 1_555 1_555
H1 C2 1_555 1_555
H2 C3 1_555 1_555
H3 C4 1_555 1_555
H4 C5 1_555 1_555
H5 C7 1_555 1_555
H6 C9 1_555 1_555
H7 C10 1_555 1_555
H8 C12 1_555 1_555
H9 C13 1_555 1_555
C13B C12 1_555 1_555
C11B C13B 1_555 1_555
C8B C11B 1_555 1_555
C7B C8B 1_555 1_555
C6B C7B 1_555 1_555
N2B C6B 1_555 1_555
C10B N2B 1_555 1_555
C9B C8B 1_555 1_555
H6B C9B 1_555 1_555
H7B C10B 1_555 1_555
C1B C6B 1_555 1_555
N1B C1B 1_555 1_555
C5B N1B 1_555 1_555
C4B C5B 1_555 1_555
C3B C4B 1_555 1_555
C2B C1B 1_555 1_555
H1B C2B 1_555 1_555
H2B C3B 1_555 1_555
H3B C4B 1_555 1_555
H4B C5B 1_555 1_555
H5B C7B 1_555 1_555
C12B C13 1_555 1_555
H8B C12B 1_555 1_555
H9B C13B 1_555 1_555
C9 C10 1_555 1_555
C11B C12B 1_555 1_555
C10B C9B 1_555 1_555
C3B C2B 1_555 1_555

#END
