
#######################################################################
#
#                 Cambridge Crystallographic Data Centre
#                                CCDC 
#
#######################################################################
#
# If this CIF has been generated from an entry in the Cambridge 
# Structural Database, then it will include bibliographic, chemical, 
# crystal, experimental, refinement or atomic coordinate data resulting 
# from the CCDC's data processing and validation procedures.
#
#######################################################################

data_ZOZSEM
_chemical_formula_moiety         'C18 H13 N1 O4,2(C2 H4 O2)'
_chemical_name_systematic        
'3,4-Diphenylpyrrole-2,5-dicarboxylic acid acetic acid solvate'
_symmetry_cell_setting           triclinic
_symmetry_space_group_name_H-M   'P -1'
_symmetry_Int_Tables_number      2
_space_group_name_Hall           '-P 1'
loop_
_symmetry_equiv_pos_site_id
_symmetry_equiv_pos_as_xyz
1 x,y,z
2 -x,-y,-z
_cell_length_a                   6.4630(10)
_cell_length_b                   10.665(2)
_cell_length_c                   15.623(3)
_cell_angle_alpha                87.07(3)
_cell_angle_beta                 82.13(3)
_cell_angle_gamma                88.24(3)
_cell_volume                     1065.02
_exptl_crystal_colour            colorless
_cell_formula_units_Z            2
loop_
_atom_site_label
_atom_site_type_symbol
_atom_site_fract_x
_atom_site_fract_y
_atom_site_fract_z
N1 N 0.4419(8) 1.1262(4) 0.3724(3)
O1 O 0.2780(7) 0.9499(4) 0.4975(3)
O2 O 0.1318(7) 0.8547(4) 0.3977(2)
O3 O 0.6397(7) 1.3980(4) 0.2476(3)
O4 O 0.7444(7) 1.2961(4) 0.3640(3)
C1 C 0.2940(10) 1.0447(5) 0.3573(3)
C2 C 0.2368(9) 1.0742(5) 0.2749(3)
C3 C 0.3536(10) 1.1787(5) 0.2414(3)
C4 C 0.4805(10) 1.2099(5) 0.3019(3)
C5 C 0.2336(10) 0.9459(6) 0.4251(4)
C6 C 0.6269(10) 1.3088(6) 0.3008(4)
C7 C 0.0897(10) 1.0087(5) 0.2296(4)
C8 C -0.1108(11) 0.9839(5) 0.2672(4)
C9 C -0.2498(12) 0.9257(6) 0.2234(5)
C10 C -0.1864(14) 0.8898(7) 0.1401(6)
C11 C 0.0112(15) 0.9130(6) 0.1009(4)
C12 C 0.1513(11) 0.9718(5) 0.1448(4)
C13 C 0.3450(12) 1.2437(5) 0.1545(4)
C14 C 0.1602(11) 1.2915(5) 0.1326(4)
C15 C 0.1515(13) 1.3512(6) 0.0513(5)
C16 C 0.3280(15) 1.3618(7) -0.0060(4)
C17 C 0.5133(14) 1.3142(7) 0.0142(4)
C18 C 0.5244(11) 1.2542(6) 0.0947(4)
H1 H 0.5031 1.1257 0.4208
H2 H 0.0867 0.8071 0.4412
H3 H 0.8376 1.3516 0.3560
H6 H -0.1518 1.0082 0.3255
H7 H -0.3887 0.9100 0.2517
H8 H -0.2828 0.8494 0.1094
H9 H 0.0530 0.8882 0.0427
H10 H 0.2914 0.9868 0.1177
H11 H 0.0357 1.2828 0.1734
H12 H 0.0222 1.3863 0.0361
H13 H 0.3205 1.4015 -0.0621
H14 H 0.6376 1.3235 -0.0267
H15 H 0.6533 1.2185 0.1100
O5 O -0.0391(8) 0.6808(4) 0.5083(3)
O6 O -0.3037(7) 0.5574(4) 0.5562(3)
C19 C -0.2098(12) 0.6445(6) 0.5015(4)
C20 C -0.3436(11) 0.6888(6) 0.4351(4)
H4 H -0.2261 0.5396 0.5951
H16 H -0.2697 0.7510 0.3972
H17 H -0.3742 0.6197 0.4022
H18 H -0.4717 0.7251 0.4627
O7 O -0.0419(7) 0.5118(4) 0.6743(3)
O8 O 0.0728(8) 0.4323(4) 0.7930(3)
C21 C -0.0672(12) 0.4413(6) 0.7393(4)
C22 C -0.2501(12) 0.3625(6) 0.7625(4)
H5 H 0.1628 0.4885 0.7779
H19 H -0.3412 0.3757 0.7190
H20 H -0.2084 0.2754 0.7661
H21 H -0.3221 0.3861 0.8174
loop_
_geom_bond_atom_site_label_1
_geom_bond_atom_site_label_2
_geom_bond_site_symmetry_1
_geom_bond_site_symmetry_2
N1 C1 1_555 1_555
O1 C5 1_555 1_555
O2 C5 1_555 1_555
O3 C6 1_555 1_555
O4 C6 1_555 1_555
O5 C19 1_555 1_555
O6 C19 1_555 1_555
O7 C21 1_555 1_555
O8 C21 1_555 1_555
C1 C2 1_555 1_555
C2 C3 1_555 1_555
C3 C4 1_555 1_555
C4 N1 1_555 1_555
C5 C1 1_555 1_555
C6 C4 1_555 1_555
C7 C2 1_555 1_555
C8 C7 1_555 1_555
C9 C8 1_555 1_555
C10 C9 1_555 1_555
C11 C10 1_555 1_555
C12 C7 1_555 1_555
C13 C3 1_555 1_555
C14 C13 1_555 1_555
C15 C14 1_555 1_555
C16 C15 1_555 1_555
C17 C16 1_555 1_555
C18 C13 1_555 1_555
C19 C20 1_555 1_555
C20 H16 1_555 1_555
C21 C22 1_555 1_555
C22 H19 1_555 1_555
H1 N1 1_555 1_555
H2 O2 1_555 1_555
H3 O4 1_555 1_555
H4 O6 1_555 1_555
H5 O8 1_555 1_555
H6 C8 1_555 1_555
H7 C9 1_555 1_555
H8 C10 1_555 1_555
H9 C11 1_555 1_555
H10 C12 1_555 1_555
H11 C14 1_555 1_555
H12 C15 1_555 1_555
H13 C16 1_555 1_555
H14 C17 1_555 1_555
H15 C18 1_555 1_555
H17 C20 1_555 1_555
H18 C20 1_555 1_555
H20 C22 1_555 1_555
H21 C22 1_555 1_555
C11 C12 1_555 1_555
C17 C18 1_555 1_555

#END
