
#######################################################################
#
#                 Cambridge Crystallographic Data Centre
#                                CCDC 
#
#######################################################################
#
# If this CIF has been generated from an entry in the Cambridge 
# Structural Database, then it will include bibliographic, chemical, 
# crystal, experimental, refinement or atomic coordinate data resulting 
# from the CCDC's data processing and validation procedures.
#
#######################################################################

data_ZOZVUF
_chemical_name_common            "2'-Deoxycytidine-N(3)-cyanoborane monohydrate"
_chemical_formula_moiety         'C10 H15 B1 N4 O4,H2 O1'
_chemical_name_systematic        
'(4-Amino-1-(2-deoxy-\b-D-ribofuranosyl)-2-oxo-1H-3-pyrimidinio)(cyano)borate monohydrate'
_chemical_properties_biological  
'in vivo antineoplastic activity against various tumors, with potential use in boron neutron-capture therapy for brain cancer'
_symmetry_cell_setting           monoclinic
_symmetry_space_group_name_H-M   'P 21'
_symmetry_Int_Tables_number      4
_space_group_name_Hall           'P 2yb'
loop_
_symmetry_equiv_pos_site_id
_symmetry_equiv_pos_as_xyz
1 x,y,z
2 -x,1/2+y,-z
_cell_length_a                   6.879(2)
_cell_length_b                   8.215(2)
_cell_length_c                   11.961(2)
_cell_angle_alpha                90
_cell_angle_beta                 93.3(2)
_cell_angle_gamma                90
_cell_volume                     674.807
_exptl_crystal_colour            colorless
_cell_formula_units_Z            2
loop_
_atom_site_label
_atom_site_type_symbol
_atom_site_fract_x
_atom_site_fract_y
_atom_site_fract_z
N1 N 0.8628(3) 0.8492 0.9097(2)
C1 C 0.8070(3) 0.8561(4) 1.0185(2)
O1 O 0.6355(2) 0.8523(4) 1.0379(2)
N2 N 0.9525(3) 0.8659(3) 1.1037(2)
C2 C 1.1422(3) 0.8855(4) 1.0807(2)
N3 N 1.2801(3) 0.8990(3) 1.1615(2)
C3 C 1.1912(4) 0.8927(5) 0.9671(2)
C4 C 1.0520(3) 0.8722(5) 0.8858(2)
B1 B 0.8803(4) 0.8438(5) 1.2271(2)
C5 C 0.7730(4) 1.0061(4) 1.2614(2)
N4 N 0.6960(4) 1.1210(5) 1.2885(2)
C6 C 0.7077(3) 0.8178(4) 0.8192(2)
C7 C 0.6135(4) 0.9716(4) 0.7699(2)
C8 C 0.7062(4) 0.9897(4) 0.6578(2)
O2 O 0.5819(4) 1.0632(3) 0.5732(2)
C9 C 0.7425(4) 0.8137(4) 0.6269(2)
O3 O 0.7986(3) 0.7368(1) 0.7326(1)
C10 C 0.8967(5) 0.7828(4) 0.5445(3)
O4 O 1.0783(3) 0.8571(4) 0.5777(2)
H3 H 1.001(4) 0.824(3) 1.288(3)
H4 H 0.785(4) 0.745(4) 1.231(2)
H5 H 1.258(4) 0.914(4) 1.235(3)
H6 H 1.403(5) 0.909(5) 1.145(3)
H7 H 1.326(4) 0.916(4) 0.953(2)
H8 H 1.074(4) 0.871(4) 0.811(3)
H9 H 0.614(4) 0.744(4) 0.856(2)
H10 H 0.648(4) 1.068(4) 0.819(3)
H11 H 0.474(5) 0.947(5) 0.748(3)
H12 H 0.824(4) 1.049(3) 0.672(3)
H13 H 0.585(6) 1.150(6) 0.579(3)
H14 H 0.615(4) 0.763(4) 0.594(2)
H15 H 0.921(5) 0.672(5) 0.541(3)
H16 H 0.851(5) 0.836(6) 0.468(3)
H17 H 1.129(6) 0.803(6) 0.623(3)
O5 O 0.3471(3) 0.8906(3) 0.4111(2)
H1 H 0.433(5) 0.946(5) 0.445(3)
H2 H 0.255(6) 0.895(7) 0.445(4)
loop_
_geom_bond_atom_site_label_1
_geom_bond_atom_site_label_2
_geom_bond_site_symmetry_1
_geom_bond_site_symmetry_2
N1 C1 1_555 1_555
C1 O1 1_555 1_555
N2 C1 1_555 1_555
C2 N2 1_555 1_555
N3 C2 1_555 1_555
C3 C2 1_555 1_555
C4 N1 1_555 1_555
B1 N2 1_555 1_555
C5 B1 1_555 1_555
N4 C5 1_555 1_555
C6 N1 1_555 1_555
C7 C6 1_555 1_555
C8 C7 1_555 1_555
O2 C8 1_555 1_555
C9 C8 1_555 1_555
O3 C6 1_555 1_555
C10 C9 1_555 1_555
O4 C10 1_555 1_555
O5 H1 1_555 1_555
H2 O5 1_555 1_555
H3 B1 1_555 1_555
H4 B1 1_555 1_555
H5 N3 1_555 1_555
H6 N3 1_555 1_555
H7 C3 1_555 1_555
H8 C4 1_555 1_555
H9 C6 1_555 1_555
H10 C7 1_555 1_555
H11 C7 1_555 1_555
H12 C8 1_555 1_555
H13 O2 1_555 1_555
H14 C9 1_555 1_555
H15 C10 1_555 1_555
H16 C10 1_555 1_555
H17 O4 1_555 1_555
C3 C4 1_555 1_555
C9 O3 1_555 1_555

#END
