
#######################################################################
#
#                 Cambridge Crystallographic Data Centre
#                                CCDC 
#
#######################################################################
#
# If this CIF has been generated from an entry in the Cambridge 
# Structural Database, then it will include bibliographic, chemical, 
# crystal, experimental, refinement or atomic coordinate data resulting 
# from the CCDC's data processing and validation procedures.
#
#######################################################################

data_ZOZWAM
_chemical_formula_moiety         'C7 H13 N3 O2 2+,2(Cl1 1-)'
_chemical_name_systematic        'L-Histidine methyl ester dihydrochloride'
_symmetry_cell_setting           monoclinic
_symmetry_space_group_name_H-M   'P 21'
_symmetry_Int_Tables_number      4
_space_group_name_Hall           'P 2yb'
loop_
_symmetry_equiv_pos_site_id
_symmetry_equiv_pos_as_xyz
1 x,y,z
2 -x,1/2+y,-z
_cell_length_a                   8.215(2)
_cell_length_b                   7.105(3)
_cell_length_c                   9.512(2)
_cell_angle_alpha                90
_cell_angle_beta                 94.54(1)
_cell_angle_gamma                90
_cell_volume                     553.45
_exptl_crystal_colour            colorless
_cell_formula_units_Z            2
loop_
_atom_site_label
_atom_site_type_symbol
_atom_site_fract_x
_atom_site_fract_y
_atom_site_fract_z
Cl1 Cl 0.21602(9) 0.067(2) -0.58895(8)
Cl2 Cl 0.81079(8) 0.152(2) 0.07582(7)
O1 O 0.7951(2) 0.056(2) -0.4878(2)
O2 O 0.6591(2) 0.073(2) -0.2945(2)
N1 N 1.0433(3) -0.126(2) -0.3414(2)
N2 N 1.1807(2) 0.138(2) 0.0026(2)
N3 N 1.4346(2) 0.130(2) -0.0344(3)
C1 C 0.7814(3) 0.050(2) -0.3498(3)
C2 C 0.9456(3) 0.016(2) -0.2675(3)
C3 C 1.0414(3) 0.196(2) -0.2381(3)
C4 C 1.1885(3) 0.165(2) -0.1407(3)
C5 C 1.3493(3) 0.158(2) -0.1630(3)
C6 C 1.3297(3) 0.119(2) 0.0639(3)
C7 C 0.6414(3) 0.084(2) -0.5729(3)
H1 H 0.9201 -0.0368 -0.1786
H2 H 1.0694 0.2441 -0.3262
H3 H 0.9707 0.2850 -0.1971
H4 H 1.3934 0.1772 -0.2520
H5 H 1.5513 0.1178 -0.0191
H6 H 1.3564 0.0997 0.1615
H7 H 1.0834 0.1349 0.0486
H8 H 1.1425 -0.1504 -0.2864
H9 H 1.0680 -0.0763 -0.4309
H10 H 0.9839 -0.2399 -0.3564
H11 H 0.5890 0.1928 -0.5487
H12 H 0.5694 -0.0241 -0.5575
H13 H 0.6595 0.0823 -0.6708
loop_
_geom_bond_atom_site_label_1
_geom_bond_atom_site_label_2
_geom_bond_site_symmetry_1
_geom_bond_site_symmetry_2
O1 C1 1_555 1_555
O2 C1 1_555 1_555
N1 C2 1_555 1_555
N2 C4 1_555 1_555
N3 C5 1_555 1_555
C1 C2 1_555 1_555
C2 C3 1_555 1_555
C3 C4 1_555 1_555
C4 C5 1_555 1_555
C5 H4 1_555 1_555
C6 N2 1_555 1_555
C7 O1 1_555 1_555
H1 C2 1_555 1_555
H2 C3 1_555 1_555
H3 C3 1_555 1_555
H5 N3 1_555 1_555
H6 C6 1_555 1_555
H7 N2 1_555 1_555
H8 N1 1_555 1_555
H9 N1 1_555 1_555
H10 N1 1_555 1_555
H11 C7 1_555 1_555
H12 C7 1_555 1_555
H13 C7 1_555 1_555
N3 C6 1_555 1_555

#END
