
#######################################################################
#
#                 Cambridge Crystallographic Data Centre
#                                CCDC 
#
#######################################################################
#
# If this CIF has been generated from an entry in the Cambridge 
# Structural Database, then it will include bibliographic, chemical, 
# crystal, experimental, refinement or atomic coordinate data resulting 
# from the CCDC's data processing and validation procedures.
#
#######################################################################

data_ZUBCAA
_chemical_compound_source        'leaves of Clausena lansium (Lour.) Skeel'
_chemical_formula_moiety         'C18 H19 N1 O3'
_chemical_name_systematic        (+)-(3R,4S,5R,7S)-Neoclausenamide
_chemical_properties_biological  'agent in Chinese folk medicine'
_symmetry_cell_setting           orthorhombic
_symmetry_space_group_name_H-M   'P 21 21 21'
_symmetry_Int_Tables_number      19
_space_group_name_Hall           'P 2ac 2ab'
loop_
_symmetry_equiv_pos_site_id
_symmetry_equiv_pos_as_xyz
1 x,y,z
2 1/2-x,-y,1/2+z
3 1/2+x,1/2-y,-z
4 -x,1/2+y,1/2-z
_cell_length_a                   7.438(5)
_cell_length_b                   33.511(7)
_cell_length_c                   6.109(6)
_cell_angle_alpha                90
_cell_angle_beta                 90
_cell_angle_gamma                90
_cell_volume                     1522.7
_exptl_crystal_colour            colorless
_chemical_melting_point          179.6-181.4deg.C
_cell_formula_units_Z            4
loop_
_atom_site_label
_atom_site_type_symbol
_atom_site_fract_x
_atom_site_fract_y
_atom_site_fract_z
O1 O 0.9659(7) -0.0080(1) 0.888(1)
O2 O 0.8555(8) 0.0389(2) 0.4769(9)
O3 O 1.207(1) 0.0780(2) 0.392(1)
N1 N 1.1374(7) 0.0481(2) 0.842(1)
C1 C 0.984(1) 0.0268(2) 0.822(2)
C2 C 0.8509(10) 0.0512(3) 0.694(1)
C3 C 0.9203(9) 0.0945(2) 0.715(1)
C4 C 1.1231(8) 0.0895(2) 0.769(1)
C5 C 1.249(1) 0.0998(2) 0.581(1)
C6 C 1.2468(9) 0.1445(2) 0.541(1)
C7 C 1.3267(10) 0.1695(2) 0.693(1)
C8 C 1.319(1) 0.2104(2) 0.666(2)
C9 C 1.240(1) 0.2267(2) 0.480(2)
C10 C 1.163(1) 0.2018(2) 0.328(2)
C11 C 1.168(1) 0.1604(2) 0.355(1)
C12 C 0.8236(8) 0.1207(2) 0.879(1)
C13 C 0.741(1) 0.1049(3) 1.062(1)
C14 C 0.656(1) 0.1303(3) 1.217(2)
C15 C 0.654(1) 0.1706(3) 1.179(2)
C16 C 0.736(1) 0.1859(3) 0.999(2)
C17 C 0.822(1) 0.1621(2) 0.848(1)
C18 C 1.302(1) 0.0319(2) 0.936(2)
H1 H 0.7535 0.0508 0.7624
H2 H 0.9110 0.1070 0.5756
H3 H 1.1520 0.1064 0.8899
H4 H 0.8586 0.0307 0.3274
H5 H 1.3419 0.0971 0.6499
H6 H 1.1785 0.0631 0.2631
H7 H 1.3772 0.1616 0.8430
H8 H 1.3410 0.2260 0.7759
H9 H 1.2293 0.2608 0.4430
H10 H 1.1262 0.2102 0.1599
H11 H 1.1175 0.1463 0.2254
H12 H 0.8661 0.1767 0.7040
H13 H 0.7403 0.2119 0.9791
H14 H 0.6117 0.1847 1.3002
H15 H 0.6246 0.1186 1.3952
H16 H 0.7447 0.0816 1.1022
H17 H 1.2745 0.0090 1.0189
H18 H 1.3825 0.0254 0.8210
H19 H 1.3549 0.0517 1.0270
loop_
_geom_bond_atom_site_label_1
_geom_bond_atom_site_label_2
_geom_bond_site_symmetry_1
_geom_bond_site_symmetry_2
O1 C1 1_555 1_555
O2 C2 1_555 1_555
O3 C5 1_555 1_555
N1 C1 1_555 1_555
C1 C2 1_555 1_555
C2 C3 1_555 1_555
C3 C4 1_555 1_555
C4 N1 1_555 1_555
C5 C4 1_555 1_555
C6 C5 1_555 1_555
C7 C6 1_555 1_555
C8 C7 1_555 1_555
C9 C8 1_555 1_555
C10 C9 1_555 1_555
C11 C6 1_555 1_555
C12 C3 1_555 1_555
C13 C12 1_555 1_555
C14 C13 1_555 1_555
C15 C14 1_555 1_555
C16 C15 1_555 1_555
C17 C12 1_555 1_555
C18 N1 1_555 1_555
H1 C2 1_555 1_555
H2 C3 1_555 1_555
H3 C4 1_555 1_555
H4 O2 1_555 1_555
H5 C5 1_555 1_555
H6 O3 1_555 1_555
H7 C7 1_555 1_555
H8 C8 1_555 1_555
H9 C9 1_555 1_555
H10 C10 1_555 1_555
H11 C11 1_555 1_555
H12 C17 1_555 1_555
H13 C16 1_555 1_555
H14 C15 1_555 1_555
H15 C14 1_555 1_555
H16 C13 1_555 1_555
H17 C18 1_555 1_555
H18 C18 1_555 1_555
H19 C18 1_555 1_555
C10 C11 1_555 1_555
C16 C17 1_555 1_555

#END
