
#######################################################################
#
#                 Cambridge Crystallographic Data Centre
#                                CCDC 
#
#######################################################################
#
# If this CIF has been generated from an entry in the Cambridge 
# Structural Database, then it will include bibliographic, chemical, 
# crystal, experimental, refinement or atomic coordinate data resulting 
# from the CCDC's data processing and validation procedures.
#
#######################################################################

data_ZUBDUX
_chemical_formula_moiety         'C23 H15 Cl3 N2 O3 S1'
_chemical_name_systematic        
(5-((4-chlorophenyl)sulfonyl)-3-methyl-1-phenyl-1H-pyrazol-4-yl)(2,4-dichlorophenyl)methanone
_symmetry_cell_setting           monoclinic
_symmetry_space_group_name_H-M   'P 21/n'
_symmetry_Int_Tables_number      14
_space_group_name_Hall           '-P 2yn'
loop_
_symmetry_equiv_pos_site_id
_symmetry_equiv_pos_as_xyz
1 x,y,z
2 1/2-x,1/2+y,1/2-z
3 -x,-y,-z
4 1/2+x,1/2-y,1/2+z
_cell_length_a                   10.266(2)
_cell_length_b                   13.960(3)
_cell_length_c                   15.514(4)
_cell_angle_alpha                90
_cell_angle_beta                 91.073(5)
_cell_angle_gamma                90
_cell_volume                     2222.97
_cell_formula_units_Z            4
loop_
_atom_site_label
_atom_site_type_symbol
_atom_site_fract_x
_atom_site_fract_y
_atom_site_fract_z
S1 S 0.27515(8) 0.73408(6) 0.13360(6)
Cl1 Cl 0.62904(12) 0.61749(11) 0.44346(8)
Cl2 Cl 0.58343(7) 0.57831(7) -0.17133(6)
Cl3 Cl 0.21201(10) 0.63797(8) -0.40829(6)
O1 O 0.3508(2) 0.77277(15) 0.06593(14)
O2 O 0.16526(19) 0.78600(14) 0.16393(15)
O3 O 0.4703(2) 0.61040(18) -0.00749(14)
N1 N 0.1365(2) 0.56421(18) 0.14289(16)
N2 N 0.1153(2) 0.47963(18) 0.10156(17)
C1 C 0.3767(3) 0.7053(2) 0.2217(2)
C2 C 0.4978(3) 0.6665(2) 0.2066(2)
H1 H 0.5264 0.6586 0.1505
C3 C 0.5758(3) 0.6396(3) 0.2756(3)
H2 H 0.6580 0.6139 0.2664
C4 C 0.5323(4) 0.6508(3) 0.3572(3)
C5 C 0.4126(4) 0.6904(3) 0.3725(3)
H3 H 0.3851 0.6991 0.4288
C6 C 0.3334(3) 0.7175(2) 0.3039(3)
H4 H 0.2516 0.7436 0.3134
C7 C 0.2216(3) 0.6202(2) 0.0986(2)
C8 C 0.2553(3) 0.5702(2) 0.0257(2)
C9 C 0.1859(3) 0.4841(2) 0.0300(2)
C10 C 0.1885(3) 0.4007(2) -0.0298(2)
H5 H 0.2694 0.3669 -0.0223
H6 H 0.1805 0.4229 -0.0883
H7 H 0.1174 0.3585 -0.0176
C11 C 0.0883(3) 0.5751(2) 0.2285(2)
C12 C -0.0061(3) 0.6417(2) 0.2461(2)
H8 H -0.0411 0.6799 0.2024
C13 C -0.0479(3) 0.6507(2) 0.3296(3)
H9 H -0.1115 0.6956 0.3425
C14 C 0.0039(4) 0.5939(3) 0.3938(2)
H10 H -0.0238 0.6011 0.4501
C15 C 0.0961(3) 0.5266(3) 0.3753(2)
H11 H 0.1298 0.4874 0.4187
C16 C 0.1386(3) 0.5172(2) 0.2924(2)
H12 H 0.2014 0.4716 0.2795
C17 C 0.3614(3) 0.5946(2) -0.0356(2)
C18 C 0.3278(3) 0.5981(2) -0.1292(2)
C19 C 0.1979(3) 0.6083(2) -0.1551(2)
H13 H 0.1338 0.6081 -0.1135
C20 C 0.1617(3) 0.6187(2) -0.2401(2)
H14 H 0.0742 0.6247 -0.2559
C21 C 0.2563(3) 0.6202(2) -0.3017(2)
C22 C 0.3847(3) 0.6075(2) -0.2790(2)
H15 H 0.4478 0.6064 -0.3212
C23 C 0.4199(3) 0.5967(2) -0.1939(2)
loop_
_geom_bond_atom_site_label_1
_geom_bond_atom_site_label_2
_geom_bond_site_symmetry_1
_geom_bond_site_symmetry_2
S1 O1 1_555 1_555
Cl1 C4 1_555 1_555
Cl2 C23 1_555 1_555
Cl3 C21 1_555 1_555
O2 S1 1_555 1_555
O3 C17 1_555 1_555
N1 N2 1_555 1_555
N2 C9 1_555 1_555
C1 S1 1_555 1_555
C2 C1 1_555 1_555
H1 C2 1_555 1_555
C3 C2 1_555 1_555
H2 C3 1_555 1_555
C4 C3 1_555 1_555
C5 C4 1_555 1_555
H3 C5 1_555 1_555
C6 C1 1_555 1_555
H4 C6 1_555 1_555
C7 S1 1_555 1_555
C8 C7 1_555 1_555
C9 C8 1_555 1_555
C10 C9 1_555 1_555
H5 C10 1_555 1_555
H6 C10 1_555 1_555
H7 C10 1_555 1_555
C11 N1 1_555 1_555
C12 C11 1_555 1_555
H8 C12 1_555 1_555
C13 C12 1_555 1_555
H9 C13 1_555 1_555
C14 C13 1_555 1_555
H10 C14 1_555 1_555
C15 C14 1_555 1_555
H11 C15 1_555 1_555
C16 C11 1_555 1_555
H12 C16 1_555 1_555
C17 C8 1_555 1_555
C18 C17 1_555 1_555
C19 C18 1_555 1_555
H13 C19 1_555 1_555
C20 C19 1_555 1_555
H14 C20 1_555 1_555
C21 C20 1_555 1_555
C22 C21 1_555 1_555
H15 C22 1_555 1_555
C23 C18 1_555 1_555
N1 C7 1_555 1_555
C5 C6 1_555 1_555
C15 C16 1_555 1_555
C22 C23 1_555 1_555

#END
