
#######################################################################
#
#                 Cambridge Crystallographic Data Centre
#                                CCDC 
#
#######################################################################
#
# If this CIF has been generated from an entry in the Cambridge 
# Structural Database, then it will include bibliographic, chemical, 
# crystal, experimental, refinement or atomic coordinate data resulting 
# from the CCDC's data processing and validation procedures.
#
#######################################################################

data_ZUBLAL
_chemical_formula_moiety         'C25 H21 F3 N2 O6'
_chemical_name_systematic        
"ethyl 1'-methyl-2',4,6-trioxo-3-(4-(trifluoromethyl)phenyl)-1',2',5,6,7,7a-hexahydro-3H-spiro[furo[3,4-c]pyridine-1,3'-indole]-3a(4H)-carboxylate"
_symmetry_cell_setting           triclinic
_symmetry_space_group_name_H-M   'P -1'
_symmetry_Int_Tables_number      2
_space_group_name_Hall           '-P 1'
loop_
_symmetry_equiv_pos_site_id
_symmetry_equiv_pos_as_xyz
1 x,y,z
2 -x,-y,-z
_cell_length_a                   12.3631(10)
_cell_length_b                   14.6129(12)
_cell_length_c                   15.0199(12)
_cell_angle_alpha                102.619(6)
_cell_angle_beta                 90.115(5)
_cell_angle_gamma                114.981(5)
_cell_volume                     2386.57
_cell_formula_units_Z            4
loop_
_atom_site_label
_atom_site_type_symbol
_atom_site_fract_x
_atom_site_fract_y
_atom_site_fract_z
O1 O 0.20887(18) 0.36728(14) 0.18343(14)
N1 N 0.1711(2) 0.58155(18) 0.16235(16)
C1 C 0.2663(3) 0.6242(2) 0.23284(19)
F1 F 0.3740(6) -0.0257(3) 0.0445(5)
N2 N 0.1841(2) 0.38085(19) 0.43000(17)
H1 H 0.2357 0.3860 0.4715
O2 O 0.1801(2) 0.52464(19) 0.51858(17)
C2 C 0.2726(2) 0.5468(2) 0.26931(19)
F2 F 0.2892(5) -0.0918(3) 0.1486(3)
O3 O 0.1858(3) 0.23023(19) 0.35596(17)
C3 C 0.1694(2) 0.4448(2) 0.22160(19)
F3 F 0.2069(6) -0.1348(4) 0.0298(4)
C4 C 0.0623(3) 0.3923(2) 0.27820(19)
H2 H -0.0123 0.3763 0.2420
C5 C 0.0659(3) 0.2875(2) 0.27733(19)
O4 O -0.1282(2) 0.1472(2) 0.21548(19)
O5 O 0.04810(18) 0.41601(16) 0.07898(14)
C6 C 0.1140(3) 0.2672(2) 0.1825(2)
H3 H 0.0508 0.2510 0.1342
O6 O -0.0812(3) 0.2061(2) 0.3672(2)
C7 C 0.1206(3) 0.4769(2) 0.14439(19)
C8 C 0.3482(3) 0.7274(2) 0.2615(2)
H4 H 0.3428 0.7783 0.2364
C9 C 0.4395(3) 0.7517(3) 0.3301(2)
H5 H 0.4951 0.8206 0.3524
C10 C 0.4486(3) 0.6757(2) 0.3652(2)
H6 H 0.5111 0.6935 0.4097
C11 C 0.3649(3) 0.5719(2) 0.3346(2)
H7 H 0.3717 0.5205 0.3581
C12 C 0.1610(3) 0.1858(2) 0.1593(2)
C13 C 0.2816(3) 0.2119(3) 0.1590(3)
H8 H 0.3368 0.2816 0.1754
C14 C 0.3215(4) 0.1358(3) 0.1346(3)
H9 H 0.4033 0.1544 0.1334
C15 C 0.2416(4) 0.0331(3) 0.1123(3)
C16 C 0.1219(5) 0.0061(3) 0.1114(4)
H10 H 0.0674 -0.0637 0.0960
C17 C 0.0811(4) 0.0819(3) 0.1331(3)
H11 H -0.0009 0.0629 0.1302
C18 C -0.0592(3) 0.2046(2) 0.2810(2)
C19 C -0.2003(6) 0.1311(5) 0.3834(4)
H12 H -0.1914 0.0891 0.4222
H13 H -0.2455 0.0852 0.3257
C20 C -0.2637(6) 0.1927(7) 0.4294(7)
H14 H -0.3407 0.1464 0.4427
H15 H -0.2741 0.2322 0.3895
H16 H -0.2169 0.2392 0.4854
C21 C 0.2879(6) -0.0457(4) 0.0882(4)
C22 C 0.1500(3) 0.2958(2) 0.3564(2)
C23 C 0.1463(3) 0.4589(2) 0.4459(2)
C24 C 0.0622(3) 0.4556(2) 0.3729(2)
H17 H 0.0825 0.5264 0.3691
H18 H -0.0185 0.4272 0.3909
C25 C 0.1516(3) 0.6392(3) 0.1012(3)
H19 H 0.0812 0.5945 0.0591
H20 H 0.2199 0.6639 0.0676
H21 H 0.1408 0.6974 0.1367
C26 C 0.6873(3) 0.5411(2) 0.0539(2)
F4 F 1.3422(4) 1.1353(4) 0.4696(4)
N3 N 0.5897(2) 0.41864(18) 0.33790(16)
C27 C 0.6444(3) 0.5234(2) 0.35594(19)
F5 F 1.3808(3) 1.0909(4) 0.3508(3)
F6 F 1.3995(3) 1.0261(3) 0.4562(5)
N4 N 0.8029(2) 0.61917(19) 0.06992(17)
H22 H 0.8494 0.6140 0.0285
O7 O 0.7250(2) 0.8528(2) 0.28425(18)
O8 O 0.6558(2) 0.47521(19) -0.01834(17)
O9 O 0.84158(17) 0.63276(14) 0.31662(14)
C28 C 1.3345(5) 1.0456(4) 0.4115(4)
O10 O 0.63239(19) 0.58426(16) 0.42106(14)
C29 C 0.6701(3) 0.6077(2) 0.2221(2)
H23 H 0.6115 0.6236 0.2582
C30 C 0.8542(3) 0.7047(2) 0.1436(2)
O11 O 0.9555(2) 0.76971(19) 0.14415(17)
C31 C 0.6066(3) 0.5444(2) 0.1270(2)
H24 H 0.5562 0.4736 0.1306
H25 H 0.5544 0.5729 0.1089
C32 C 0.9751(3) 0.8143(2) 0.3409(2)
C33 C 0.6874(3) 0.2487(3) 0.1700(2)
H26 H 0.6739 0.1798 0.1474
C34 C 0.6205(3) 0.2721(2) 0.2381(2)
H27 H 0.5642 0.2209 0.2628
C35 C 0.7366(3) 0.7956(2) 0.2191(2)
C36 C 0.7732(3) 0.3250(3) 0.1351(2)
H28 H 0.8182 0.3072 0.0909
C37 C 0.5121(3) 0.3604(3) 0.3985(2)
H29 H 0.4867 0.4050 0.4409
H30 H 0.5554 0.3351 0.4319
H31 H 0.4430 0.3026 0.3627
O12 O 0.7129(4) 0.7944(2) 0.1332(2)
C38 C 1.0694(3) 0.7882(3) 0.3410(3)
H32 H 1.0548 0.7186 0.3245
C39 C 1.2089(4) 0.9668(3) 0.3882(3)
C40 C 1.1858(3) 0.8641(3) 0.3652(3)
H33 H 1.2487 0.8451 0.3659
C41 C 0.9995(4) 0.9183(3) 0.3670(3)
H34 H 0.9366 0.9374 0.3697
C42 C 1.1157(4) 0.9938(3) 0.3892(4)
H35 H 1.1309 1.0636 0.4049
C43 C 0.7257(2) 0.4534(2) 0.23083(19)
C44 C 0.7928(3) 0.4281(2) 0.1656(2)
H36 H 0.8508 0.4796 0.1421
C45 C 0.8471(3) 0.7331(2) 0.3175(2)
H37 H 0.8001 0.7494 0.3657
C46 C 0.7784(3) 0.7125(2) 0.22274(19)
C47 C 0.6418(2) 0.3755(2) 0.26724(19)
C48 C 0.7245(2) 0.5551(2) 0.27839(18)
C49 C 0.5446(7) 0.8083(7) 0.0722(7)
H38 H 0.5148 0.8549 0.0580
H39 H 0.4952 0.7708 0.1134
H40 H 0.5429 0.7600 0.0168
C50 C 0.6694(9) 0.8686(5) 0.1162(4)
H41 H 0.7195 0.9092 0.0763
H42 H 0.6719 0.9158 0.1736
loop_
_geom_bond_atom_site_label_1
_geom_bond_atom_site_label_2
_geom_bond_site_symmetry_1
_geom_bond_site_symmetry_2
O1 C3 1_555 1_555
N1 C1 1_555 1_555
C1 C2 1_555 1_555
F1 C21 1_555 1_555
N2 H1 1_555 1_555
O2 C23 1_555 1_555
C2 C3 1_555 1_555
F2 C21 1_555 1_555
O3 C22 1_555 1_555
C3 C4 1_555 1_555
F3 C21 1_555 1_555
C4 H2 1_555 1_555
C5 C4 1_555 1_555
O4 C18 1_555 1_555
O5 C7 1_555 1_555
C6 O1 1_555 1_555
H3 C6 1_555 1_555
O6 C18 1_555 1_555
C7 N1 1_555 1_555
C8 C1 1_555 1_555
H4 C8 1_555 1_555
C9 C8 1_555 1_555
H5 C9 1_555 1_555
C10 C9 1_555 1_555
H6 C10 1_555 1_555
C11 C2 1_555 1_555
H7 C11 1_555 1_555
C12 C6 1_555 1_555
C13 C12 1_555 1_555
H8 C13 1_555 1_555
C14 C13 1_555 1_555
H9 C14 1_555 1_555
C15 C14 1_555 1_555
C16 C15 1_555 1_555
H10 C16 1_555 1_555
C17 C12 1_555 1_555
H11 C17 1_555 1_555
C18 C5 1_555 1_555
C19 O6 1_555 1_555
H12 C19 1_555 1_555
H13 C19 1_555 1_555
C20 C19 1_555 1_555
H14 C20 1_555 1_555
H15 C20 1_555 1_555
H16 C20 1_555 1_555
C21 C15 1_555 1_555
C22 N2 1_555 1_555
C23 N2 1_555 1_555
C24 C4 1_555 1_555
H17 C24 1_555 1_555
H18 C24 1_555 1_555
C25 N1 1_555 1_555
H19 C25 1_555 1_555
H20 C25 1_555 1_555
H21 C25 1_555 1_555
C26 N4 1_555 1_555
F4 C28 1_555 1_555
N3 C27 1_555 1_555
C27 O10 1_555 1_555
F5 C28 1_555 1_555
F6 C28 1_555 1_555
N4 H22 1_555 1_555
O7 C35 1_555 1_555
O8 C26 1_555 1_555
O9 C45 1_555 1_555
C28 C39 1_555 1_555
C29 H23 1_555 1_555
C30 N4 1_555 1_555
O11 C30 1_555 1_555
C31 C26 1_555 1_555
H24 C31 1_555 1_555
H25 C31 1_555 1_555
C32 C38 1_555 1_555
C33 H26 1_555 1_555
C34 C33 1_555 1_555
H27 C34 1_555 1_555
C35 O12 1_555 1_555
C36 C33 1_555 1_555
H28 C36 1_555 1_555
C37 N3 1_555 1_555
H29 C37 1_555 1_555
H30 C37 1_555 1_555
H31 C37 1_555 1_555
O12 C50 1_555 1_555
C38 H32 1_555 1_555
C39 C40 1_555 1_555
C40 C38 1_555 1_555
H33 C40 1_555 1_555
C41 C32 1_555 1_555
H34 C41 1_555 1_555
C42 C39 1_555 1_555
H35 C42 1_555 1_555
C43 C44 1_555 1_555
C44 C36 1_555 1_555
H36 C44 1_555 1_555
C45 C32 1_555 1_555
H37 C45 1_555 1_555
C46 C29 1_555 1_555
C47 N3 1_555 1_555
C48 C27 1_555 1_555
C49 H38 1_555 1_555
H39 C49 1_555 1_555
H40 C49 1_555 1_555
C50 C49 1_555 1_555
H41 C50 1_555 1_555
H42 C50 1_555 1_555
C3 C7 1_555 1_555
C5 C6 1_555 1_555
C5 C22 1_555 1_555
C10 C11 1_555 1_555
C16 C17 1_555 1_555
C23 C24 1_555 1_555
O9 C48 1_555 1_555
C29 C31 1_555 1_555
C29 C48 1_555 1_555
C30 C46 1_555 1_555
C34 C47 1_555 1_555
C35 C46 1_555 1_555
C41 C42 1_555 1_555
C43 C47 1_555 1_555
C43 C48 1_555 1_555
C45 C46 1_555 1_555

#END
