
#######################################################################
#
#                 Cambridge Crystallographic Data Centre
#                                CCDC 
#
#######################################################################
#
# If this CIF has been generated from an entry in the Cambridge 
# Structural Database, then it will include bibliographic, chemical, 
# crystal, experimental, refinement or atomic coordinate data resulting 
# from the CCDC's data processing and validation procedures.
#
#######################################################################

data_ZUBTEX
_chemical_formula_moiety         'C34 H33 Br1 N2 O5'
_chemical_name_systematic        
"1'-t-Butyl 4-ethyl 2-(4-bromophenyl)-9-methyl-2'-oxo-1,2,4,9-tetrahydrospiro[carbazole-3,3'-indole]-1',4(2'H)-dicarboxylate"
_symmetry_cell_setting           monoclinic
_symmetry_space_group_name_H-M   'P 21'
_symmetry_Int_Tables_number      4
_space_group_name_Hall           'P 2yb'
loop_
_symmetry_equiv_pos_site_id
_symmetry_equiv_pos_as_xyz
1 x,y,z
2 -x,1/2+y,-z
_cell_length_a                   9.412
_cell_length_b                   12.475
_cell_length_c                   13.310
_cell_angle_alpha                90
_cell_angle_beta                 98.26
_cell_angle_gamma                90
_cell_volume                     1546.58
_cell_formula_units_Z            2
loop_
_atom_site_label
_atom_site_type_symbol
_atom_site_fract_x
_atom_site_fract_y
_atom_site_fract_z
Br1 Br -0.50928(15) 0.15059(11) 0.90101(11)
C1 C -0.2258(7) 0.6555(8) 0.8933(5)
H1 H -0.3269 0.6568 0.8656
H2 H -0.2184 0.6465 0.9663
C2 C -0.3988(10) 0.2753(8) 0.8847(7)
O1 O 0.2162(6) 0.7145(7) 0.7167(5)
C3 C -0.2527(6) 0.6031(6) 0.6621(5)
C4 C -0.0530(7) 0.4856(6) 0.6936(5)
O2 O -0.3377(5) 0.6757(5) 0.6652(4)
O3 O -0.4896(6) 0.5435(6) 0.5222(4)
N1 N -0.2565(7) 0.5268(6) 0.5850(5)
N2 N -0.1824(6) 0.8566(6) 0.9142(5)
C5 C -0.2412(7) 0.4589(6) 0.8566(5)
C6 C -0.0363(7) 0.8856(6) 0.7961(5)
O4 O 0.1795(6) 0.6224(6) 0.8561(4)
C7 C 0.1364(7) 0.6668(6) 0.7776(5)
C8 C -0.1583(7) 0.7590(7) 0.8706(5)
C9 C 0.0587(13) 1.0573(9) 0.7617(9)
H3 H 0.1157 1.1002 0.7266
C10 C -0.1012(11) 0.3696(9) 0.5452(7)
H4 H -0.1581 0.3502 0.4850
C11 C -0.1067(8) 0.9358(7) 0.8714(5)
C12 C -0.1171(6) 0.5840(6) 0.7388(4)
C13 C -0.4557(9) 0.3520(9) 0.8139(8)
H5 H -0.5443 0.3410 0.7743
C14 C -0.1528(7) 0.5600(6) 0.8478(5)
H6 H -0.0608 0.5489 0.8912
C15 C -0.2688(11) 0.2923(8) 0.9429(7)
H7 H -0.2332 0.2433 0.9929
C16 C 0.0208(12) 0.3127(9) 0.5826(10)
H8 H 0.0485 0.2556 0.5449
C17 C -0.1926(9) 0.3811(7) 0.9271(5)
H9 H -0.1029 0.3903 0.9657
C18 C -0.0223(6) 0.6848(6) 0.7363(4)
H10 H -0.0289 0.7090 0.6658
C19 C -0.0723(7) 0.7735(6) 0.7976(5)
C20 C -0.2681(12) 0.8740(9) 0.9964(6)
H11 H -0.3100 0.8073 1.0132
H12 H -0.3429 0.9248 0.9748
H13 H -0.2075 0.9012 1.0550
C21 C -0.1352(8) 0.4581(7) 0.6026(5)
C22 C 0.0496(9) 0.9495(7) 0.7405(7)
H14 H 0.0983 0.9194 0.6914
C23 C -0.6218(11) 0.5391(14) 0.4460(8)
C24 C -0.3671(10) 0.5155(12) 0.5000(6)
C25 C -0.3769(8) 0.4467(8) 0.8031(7)
H15 H -0.4166 0.5008 0.7598
C26 C 0.0661(8) 0.4241(8) 0.7284(6)
H16 H 0.1224 0.4409 0.7896
C27 C 0.1014(10) 0.3372(8) 0.6719(8)
H17 H 0.1811 0.2955 0.6957
C28 C 0.4112(11) 0.8214(14) 0.7982(10)
H18 H 0.5128 0.8239 0.8201
H19 H 0.3614 0.8302 0.8557
H20 H 0.3844 0.8780 0.7503
C29 C -0.0979(10) 1.0440(8) 0.8900(7)
H21 H -0.1465 1.0754 0.9386
C30 C -0.0147(13) 1.1046(9) 0.8343(9)
H22 H -0.0074 1.1782 0.8452
C31 C 0.3716(8) 0.7142(13) 0.7483(11)
H23 H 0.4212 0.7043 0.6899
H24 H 0.3985 0.6563 0.7959
O5 O -0.3380(9) 0.4854(18) 0.4205(7)
C32 C -0.7352(15) 0.5737(19) 0.5047(12)
H25 H -0.8262 0.5734 0.4615
H26 H -0.7146 0.6448 0.5303
H27 H -0.7387 0.5253 0.5604
C33 C -0.611(2) 0.618(5) 0.3646(17)
H28 H -0.6966 0.6148 0.3156
H29 H -0.5292 0.6020 0.3321
H30 H -0.6015 0.6887 0.3933
C34 C -0.646(2) 0.431(3) 0.408(3)
H31 H -0.7308 0.4289 0.3586
H32 H -0.6566 0.3834 0.4629
H33 H -0.5648 0.4083 0.3763
loop_
_geom_bond_atom_site_label_1
_geom_bond_atom_site_label_2
_geom_bond_site_symmetry_1
_geom_bond_site_symmetry_2
Br1 C2 1_555 1_555
C1 H1 1_555 1_555
H2 C1 1_555 1_555
C2 C13 1_555 1_555
O1 C7 1_555 1_555
C3 O2 1_555 1_555
C4 C12 1_555 1_555
O3 C23 1_555 1_555
N1 C3 1_555 1_555
N2 C8 1_555 1_555
C5 C14 1_555 1_555
C6 C11 1_555 1_555
O4 C7 1_555 1_555
C7 C18 1_555 1_555
C8 C1 1_555 1_555
C9 H3 1_555 1_555
C10 H4 1_555 1_555
C11 N2 1_555 1_555
C12 C3 1_555 1_555
C13 H5 1_555 1_555
C14 C1 1_555 1_555
H6 C14 1_555 1_555
C15 C2 1_555 1_555
H7 C15 1_555 1_555
C16 C10 1_555 1_555
H8 C16 1_555 1_555
C17 C5 1_555 1_555
H9 C17 1_555 1_555
C18 C12 1_555 1_555
H10 C18 1_555 1_555
C19 C6 1_555 1_555
C20 N2 1_555 1_555
H11 C20 1_555 1_555
H12 C20 1_555 1_555
H13 C20 1_555 1_555
C21 C4 1_555 1_555
C22 C6 1_555 1_555
H14 C22 1_555 1_555
C23 C32 1_555 1_555
C24 O3 1_555 1_555
C25 C5 1_555 1_555
H15 C25 1_555 1_555
C26 C4 1_555 1_555
H16 C26 1_555 1_555
C27 C16 1_555 1_555
H17 C27 1_555 1_555
C28 H18 1_555 1_555
H19 C28 1_555 1_555
H20 C28 1_555 1_555
C29 C11 1_555 1_555
H21 C29 1_555 1_555
C30 C9 1_555 1_555
H22 C30 1_555 1_555
C31 O1 1_555 1_555
H23 C31 1_555 1_555
H24 C31 1_555 1_555
O5 C24 1_555 1_555
C32 H25 1_555 1_555
H26 C32 1_555 1_555
H27 C32 1_555 1_555
C33 C23 1_555 1_555
H28 C33 1_555 1_555
H29 C33 1_555 1_555
H30 C33 1_555 1_555
C34 C23 1_555 1_555
H31 C34 1_555 1_555
H32 C34 1_555 1_555
H33 C34 1_555 1_555
N1 C21 1_555 1_555
N1 C24 1_555 1_555
C8 C19 1_555 1_555
C9 C22 1_555 1_555
C10 C21 1_555 1_555
C12 C14 1_555 1_555
C13 C25 1_555 1_555
C15 C17 1_555 1_555
C18 C19 1_555 1_555
C26 C27 1_555 1_555
C28 C31 1_555 1_555
C29 C30 1_555 1_555

#END
