
#######################################################################
#
#                 Cambridge Crystallographic Data Centre
#                                CCDC 
#
#######################################################################
#
# If this CIF has been generated from an entry in the Cambridge 
# Structural Database, then it will include bibliographic, chemical, 
# crystal, experimental, refinement or atomic coordinate data resulting 
# from the CCDC's data processing and validation procedures.
#
#######################################################################

data_ZUBWIE
_chemical_formula_moiety         'C29 H24 Cl2 N4 O7 S1'
_chemical_name_systematic        
(+-)-N-(4-Methoxybenzyl)-N-(2-((1R,4aS,8aR)-6,7-dichloro-4a,8a-dicyano-3-methyl-5,8-dioxo-1,4,4a,5,8,8a-hexahydronaphthalen-1-yl)ethyl)-4-nitrobenzenesulfonamide
_symmetry_cell_setting           triclinic
_symmetry_space_group_name_H-M   'P -1'
_symmetry_Int_Tables_number      2
_space_group_name_Hall           '-P 1'
loop_
_symmetry_equiv_pos_site_id
_symmetry_equiv_pos_as_xyz
1 x,y,z
2 -x,-y,-z
_cell_length_a                   10.269(3)
_cell_length_b                   12.472(4)
_cell_length_c                   13.200(4)
_cell_angle_alpha                104.685(4)
_cell_angle_beta                 105.552(4)
_cell_angle_gamma                99.886(4)
_cell_volume                     1522.5
_exptl_crystal_colour            'light yellow'
_exptl_crystal_description       block
_cell_formula_units_Z            2
loop_
_atom_site_label
_atom_site_type_symbol
_atom_site_fract_x
_atom_site_fract_y
_atom_site_fract_z
Cl1 Cl 0.07154(8) -0.38104(5) 0.23100(6)
Cl2 Cl 0.04624(9) -0.35872(6) -0.00755(6)
S1 S 0.53883(8) 0.32664(6) 0.60829(6)
O1 O 0.7470(3) 0.6880(2) 1.1216(2)
O2 O 0.7020(3) 0.5288(3) 1.1551(2)
O3 O 0.5798(2) 0.22199(18) 0.59999(19)
O4 O 0.5920(2) 0.40537(19) 0.55829(19)
O5 O -0.2399(3) 0.3017(2) 0.2685(2)
O6 O 0.1235(3) -0.11934(18) 0.00229(16)
O7 O 0.1064(2) -0.15932(16) 0.38855(16)
N1 N 0.7073(3) 0.5837(3) 1.0920(2)
N2 N 0.3686(2) 0.29495(18) 0.55911(18)
N3 N 0.2130(3) 0.1608(2) 0.1490(2)
N4 N 0.4474(3) -0.0188(3) 0.2957(3)
C1 C 0.6627(3) 0.5210(3) 0.9720(2)
C2 C 0.6287(3) 0.4028(3) 0.9395(3)
H1 H 0.6314 0.3641 0.9914
C3 C 0.5903(3) 0.3429(3) 0.8278(2)
H2 H 0.5669 0.2632 0.8037
C4 C 0.5870(3) 0.4027(2) 0.7520(2)
C5 C 0.6207(3) 0.5220(2) 0.7870(3)
H3 H 0.6170 0.5615 0.7356
C6 C 0.6596(3) 0.5814(3) 0.8987(3)
H4 H 0.6833 0.6611 0.9236
C7 C 0.3086(3) 0.3976(2) 0.5661(2)
H5 H 0.3086 0.4294 0.6412
H6 H 0.3683 0.4558 0.5501
C8 C 0.1621(3) 0.3697(2) 0.4874(2)
C9 C 0.1355(4) 0.3509(3) 0.3745(3)
H7 H 0.2094 0.3537 0.3463
C10 C 0.0011(4) 0.3283(3) 0.3040(3)
H8 H -0.0156 0.3149 0.2285
C11 C -0.1104(4) 0.3255(3) 0.3464(3)
C12 C -0.0854(4) 0.3431(3) 0.4572(3)
H9 H -0.1591 0.3398 0.4857
C13 C 0.0503(3) 0.3657(2) 0.5263(2)
H10 H 0.0667 0.3786 0.6017
C14 C -0.3593(4) 0.2876(4) 0.3055(4)
H11 H -0.3640 0.2240 0.3341
H12 H -0.4429 0.2732 0.2444
H13 H -0.3508 0.3562 0.3628
C15 C 0.2916(3) 0.2004(2) 0.5872(2)
H14 H 0.2017 0.2134 0.5889
H15 H 0.3439 0.2016 0.6608
C16 C 0.2680(3) 0.0821(2) 0.5053(2)
H16 H 0.2189 0.0243 0.5286
H17 H 0.3579 0.0673 0.5060
C17 C 0.1835(3) 0.0724(2) 0.3873(2)
H18 H 0.2252 0.1414 0.3730
C18 C 0.1913(2) -0.0308(2) 0.29719(19)
C19 C 0.1047(3) -0.0290(2) 0.1791(2)
C20 C -0.0504(3) -0.0385(2) 0.1711(2)
H19 H -0.0934 -0.0086 0.1131
H20 H -0.0985 -0.1190 0.1495
C21 C -0.0709(3) 0.0237(2) 0.2759(2)
C22 C 0.0329(3) 0.0711(2) 0.3713(2)
H21 H 0.0107 0.1064 0.4332
C23 C -0.2200(3) 0.0274(3) 0.2641(3)
H22 H -0.2256 0.0664 0.3350
H23 H -0.2788 -0.0493 0.2371
H24 H -0.2507 0.0677 0.2128
C24 C 0.1104(3) -0.1297(2) 0.0869(2)
C25 C 0.0898(3) -0.2418(2) 0.1078(2)
C26 C 0.1011(3) -0.2514(2) 0.2084(2)
C27 C 0.1304(3) -0.1491(2) 0.3074(2)
C28 C 0.1656(3) 0.0788(2) 0.1625(2)
C29 C 0.3374(3) -0.0245(2) 0.2988(2)
loop_
_geom_bond_atom_site_label_1
_geom_bond_atom_site_label_2
_geom_bond_site_symmetry_1
_geom_bond_site_symmetry_2
Cl1 C26 1_555 1_555
Cl2 C25 1_555 1_555
S1 O3 1_555 1_555
O1 N1 1_555 1_555
O2 N1 1_555 1_555
O4 S1 1_555 1_555
O5 C11 1_555 1_555
O6 C24 1_555 1_555
O7 C27 1_555 1_555
N1 C1 1_555 1_555
N2 S1 1_555 1_555
N3 C28 1_555 1_555
N4 C29 1_555 1_555
C1 C2 1_555 1_555
C2 H1 1_555 1_555
C3 C2 1_555 1_555
H2 C3 1_555 1_555
C4 S1 1_555 1_555
C5 C4 1_555 1_555
H3 C5 1_555 1_555
C6 C1 1_555 1_555
H4 C6 1_555 1_555
C7 N2 1_555 1_555
H5 C7 1_555 1_555
H6 C7 1_555 1_555
C8 C7 1_555 1_555
C9 C8 1_555 1_555
H7 C9 1_555 1_555
C10 C9 1_555 1_555
H8 C10 1_555 1_555
C11 C10 1_555 1_555
C12 C11 1_555 1_555
H9 C12 1_555 1_555
C13 C8 1_555 1_555
H10 C13 1_555 1_555
C14 O5 1_555 1_555
H11 C14 1_555 1_555
H12 C14 1_555 1_555
H13 C14 1_555 1_555
C15 N2 1_555 1_555
H14 C15 1_555 1_555
H15 C15 1_555 1_555
C16 C15 1_555 1_555
H16 C16 1_555 1_555
H17 C16 1_555 1_555
C17 C16 1_555 1_555
H18 C17 1_555 1_555
C18 C17 1_555 1_555
C19 C18 1_555 1_555
C20 C19 1_555 1_555
H19 C20 1_555 1_555
H20 C20 1_555 1_555
C21 C20 1_555 1_555
C22 C17 1_555 1_555
H21 C22 1_555 1_555
C23 C21 1_555 1_555
H22 C23 1_555 1_555
H23 C23 1_555 1_555
H24 C23 1_555 1_555
C24 C19 1_555 1_555
C25 C24 1_555 1_555
C26 C25 1_555 1_555
C27 C18 1_555 1_555
C28 C19 1_555 1_555
C29 C18 1_555 1_555
C3 C4 1_555 1_555
C5 C6 1_555 1_555
C12 C13 1_555 1_555
C21 C22 1_555 1_555
C26 C27 1_555 1_555

#END
