
#######################################################################
#
#                 Cambridge Crystallographic Data Centre
#                                CCDC 
#
#######################################################################
#
# If this CIF has been generated from an entry in the Cambridge 
# Structural Database, then it will include bibliographic, chemical, 
# crystal, experimental, refinement or atomic coordinate data resulting 
# from the CCDC's data processing and validation procedures.
#
#######################################################################

data_ZUCFUA
_chemical_formula_moiety         'C35 H42 N6 O6 S4,H2 O1,x(C1 H4 O1)'
_chemical_name_systematic        
"3-(hydroxymethyl)-10b-(3-((5-(hydroxymethyl)-1,4-dimethyl-2,5-bis(methylsulfanyl)-3,6-dioxopiperazin-2-yl)methyl)-1H-indol-1-yl)-2-methyl-3,11a-bis(methylsulfanyl)-6,10b,11,11a-tetrahydro-2H-pyrazino[1',2':1,5]pyrrolo[2,3-b]indole-1,4(3H,5aH)-dione methanol solvate monohydrate"
_symmetry_cell_setting           monoclinic
_symmetry_space_group_name_H-M   'P 21'
_symmetry_Int_Tables_number      4
_space_group_name_Hall           'P 2yb'
loop_
_symmetry_equiv_pos_site_id
_symmetry_equiv_pos_as_xyz
1 x,y,z
2 -x,1/2+y,-z
_cell_length_a                   13.3191(3)
_cell_length_b                   13.7927(3)
_cell_length_c                   21.8874(5)
_cell_angle_alpha                90
_cell_angle_beta                 96.0450(10)
_cell_angle_gamma                90
_cell_volume                     3998.5
_exptl_crystal_colour            colorless
_exptl_crystal_description       needle
_cell_formula_units_Z            4
loop_
_atom_site_label
_atom_site_type_symbol
_atom_site_fract_x
_atom_site_fract_y
_atom_site_fract_z
C38 C -0.0887(3) 0.2351(4) 0.8895(3)
H49 H -0.0600 0.2119 0.9289
H50 H -0.1450 0.1951 0.8747
H51 H -0.1111 0.3008 0.8933
C39 C 0.0332(4) 0.5817(4) 0.9070(3)
H52 H 0.0796 0.6170 0.8847
H53 H 0.0299 0.6113 0.9465
H54 H -0.0326 0.5825 0.8844
C40 C -0.0530(5) 0.4003(6) 1.0223(4)
H55 H -0.0809 0.4060 0.9802
H56 H -0.1042 0.4142 1.0487
H57 H -0.0284 0.3355 1.0298
C41 C 0.1799(3) 0.1903(3) 0.9402(2)
H58 H 0.2476 0.1930 0.9602
H59 H 0.1800 0.1587 0.9012
H60 H 0.1380 0.1545 0.9654
C42 C 0.3884(3) 0.5957(3) 1.16934(16)
H61 H 0.3832 0.5733 1.2109
H62 H 0.3893 0.6660 1.1697
C43 C 0.6335(2) 0.5645(2) 0.91502(15)
C44 C 0.5863(2) 0.4757(2) 0.90402(14)
C45 C 0.5361(2) 0.4388(2) 1.04490(14)
C46 C 0.0485(2) 0.4197(3) 0.8679(2)
C47 C 0.1245(3) 0.4564(3) 0.97383(18)
C48 C 0.1575(3) 0.3502(3) 0.97881(18)
C49 C 0.0977(3) 0.3199(3) 0.86951(18)
C50 C 0.1798(3) 0.3205(3) 0.82470(17)
H63 H 0.2099 0.2565 0.8240
H64 H 0.1485 0.3345 0.7836
C51 C 0.2608(2) 0.3934(2) 0.84187(15)
C52 C 0.3443(2) 0.3769(2) 0.88222(15)
H65 H 0.3610 0.3177 0.9009
C53 C 0.49115(19) 0.47151(19) 0.93581(13)
C54 C 0.3822(2) 0.6284(2) 0.84450(14)
H66 H 0.4430 0.6530 0.8630
C55 C 0.3170(3) 0.6856(3) 0.80774(16)
H67 H 0.3328 0.7507 0.8028
C56 C 0.2272(3) 0.6488(3) 0.77743(18)
H68 H 0.1848 0.6892 0.7525
C57 C 0.2011(2) 0.5519(3) 0.78441(16)
H69 H 0.1418 0.5270 0.7641
C58 C 0.2222(3) 0.5175(3) 0.98526(19)
H70 H 0.2718 0.4807 1.0113
H71 H 0.2491 0.5277 0.9463
C59 C 0.3551(2) 0.5325(2) 0.85347(13)
C60 C 0.2661(2) 0.4930(2) 0.82261(14)
C61 C 0.4994(2) 0.3941(2) 1.10133(16)
C62 C 0.4856(3) 0.5578(2) 1.14715(16)
C63 C 0.4883(2) 0.6001(2) 1.08189(15)
C64 C 0.4968(2) 0.57049(19) 0.97222(13)
H72 H 0.4353 0.6089 0.9623
C65 C 0.7185(3) 0.5875(3) 0.88726(17)
H73 H 0.7495 0.6477 0.8935
C66 C 0.7561(3) 0.5199(4) 0.8505(2)
H74 H 0.8134 0.5345 0.8313
C67 C 0.7116(3) 0.4308(3) 0.84095(18)
H75 H 0.7402 0.3857 0.8163
C68 C 0.6257(2) 0.4069(3) 0.86703(16)
H76 H 0.5951 0.3467 0.8602
C69 C 0.4890(2) 0.3923(2) 0.98615(14)
H77 H 0.4202 0.3724 0.9902
H78 H 0.5276 0.3359 0.9760
C70 C 0.7024(3) 0.3078(3) 1.0402(2)
H79 H 0.6615 0.2672 1.0633
H80 H 0.7724 0.2944 1.0522
H81 H 0.6869 0.2949 0.9972
C71 C 0.4669(4) 0.4060(3) 1.20754(18)
H82 H 0.3959 0.3942 1.2079
H83 H 0.4899 0.4486 1.2408
H84 H 0.5029 0.3457 1.2123
N7 N 0.4852(2) 0.4511(2) 1.14873(13)
N8 N 0.50713(17) 0.53950(16) 1.03718(12)
N9 N 0.58425(18) 0.62107(17) 0.95557(12)
H85 H 0.5653 0.6777 0.9375
N10 N 0.40085(17) 0.46121(16) 0.89141(11)
N11 N 0.0683(2) 0.4797(2) 0.91554(16)
N12 N 0.1399(2) 0.2898(2) 0.93101(14)
O7 O 0.48766(18) 0.30515(17) 1.10314(11)
O8 O 0.3044(2) 0.5626(2) 1.13018(13)
H86 H 0.2529 0.5881 1.1400
O9 O 0.4707(2) 0.68568(17) 1.07340(11)
O10 O -0.00207(18) 0.4463(2) 0.82107(13)
O11 O 0.2099(2) 0.6076(2) 1.01252(13)
H87 H 0.247(4) 0.604(4) 1.0449(15)
O12 O 0.2013(3) 0.3215(2) 1.02747(14)
S7 S 0.60943(17) 0.5874(2) 1.19040(10)
C72 C 0.5819(6) 0.6938(5) 1.2312(3)
H88 H 0.5591 0.7438 1.2025
H89 H 0.6418 0.7152 1.2558
H90 H 0.5302 0.6799 1.2573
S8 S 0.67631(5) 0.43440(6) 1.05553(4)
S9 S 0.00460(8) 0.23058(9) 0.83641(6)
S10 S 0.05002(9) 0.48515(10) 1.03746(6)
O13 O 0.7842(4) 0.8885(3) 0.84634(17)
H94 H 0.769(6) 0.9449(19) 0.854(3)
H95 H 0.788(7) 0.856(4) 0.8779(19)
H96 H 0.2768(11) 0.399(6) 0.657(4)
O14 O 0.2146(4) 0.3932(4) 0.6521(2)
H97 H 0.199(5) 0.367(6) 0.619(2)
C1 C 0.4989(3) 0.3979(4) 0.60121(19)
C2 C 0.4864(3) 0.5617(4) 0.64658(17)
C3 C 0.4888(3) 0.6035(4) 0.5822(2)
C4 C 0.4963(2) 0.5744(3) 0.47201(16)
H1 H 0.4347 0.6127 0.4622
C5 C 0.7189(3) 0.5915(4) 0.3865(2)
H2 H 0.7513 0.6508 0.3932
C6 C 0.7552(3) 0.5234(5) 0.3490(2)
H3 H 0.8119 0.5378 0.3293
C7 C 0.7100(3) 0.4339(4) 0.3397(2)
H4 H 0.7382 0.3883 0.3153
C8 C 0.6239(3) 0.4113(3) 0.36620(18)
H5 H 0.5919 0.3518 0.3591
C9 C 0.4891(3) 0.3975(3) 0.48584(17)
H6 H 0.4203 0.3776 0.4899
H7 H 0.5276 0.3411 0.4757
C10 C 0.7009(3) 0.3132(3) 0.5408(2)
H8 H 0.6674 0.2739 0.5687
H9 H 0.7723 0.3013 0.5470
H10 H 0.6760 0.2971 0.4993
C11 C 0.4670(4) 0.4127(4) 0.7072(2)
H11 H 0.3968 0.3962 0.7058
H12 H 0.4843 0.4578 0.7400
H13 H 0.5072 0.3551 0.7141
C12 C 0.2219(3) 0.5223(4) 0.4851(2)
H14 H 0.2710 0.4858 0.5118
H15 H 0.2498 0.5317 0.4464
C13 C 0.3558(2) 0.5376(3) 0.35313(16)
C14 C 0.2672(2) 0.4974(3) 0.32237(16)
C15 C 0.0490(3) 0.4247(4) 0.3666(2)
C16 C 0.1239(3) 0.4610(4) 0.4733(2)
C17 C 0.1561(3) 0.3549(4) 0.4778(2)
C18 C 0.0984(3) 0.3234(3) 0.3691(2)
C19 C 0.1808(3) 0.3246(4) 0.3238(2)
H16 H 0.2115 0.2609 0.3232
H17 H 0.1493 0.3384 0.2828
C20 C 0.2614(3) 0.3984(3) 0.34087(17)
C21 C 0.3442(3) 0.3816(3) 0.38221(18)
H18 H 0.3605 0.3227 0.4014
C22 C 0.3820(3) 0.6329(3) 0.34409(16)
H19 H 0.4423 0.6577 0.3631
C23 C 0.3176(3) 0.6912(3) 0.30646(18)
H20 H 0.3341 0.7559 0.3009
C24 C 0.2276(3) 0.6535(4) 0.2766(2)
H21 H 0.1845 0.6936 0.2518
C25 C 0.2023(3) 0.5570(4) 0.28370(18)
H22 H 0.1433 0.5319 0.2632
C26 C -0.0877(4) 0.2390(5) 0.3888(3)
H23 H -0.0567 0.2224 0.4290
H24 H -0.1405 0.1935 0.3765
H25 H -0.1157 0.3031 0.3896
C27 C 0.0329(4) 0.5845(5) 0.4067(3)
H26 H 0.0794 0.6201 0.3847
H27 H 0.0299 0.6134 0.4464
H28 H -0.0329 0.5861 0.3842
C28 C 0.1789(4) 0.1956(4) 0.4397(3)
H29 H 0.2504 0.1978 0.4513
H30 H 0.1654 0.1593 0.4023
H31 H 0.1464 0.1650 0.4717
C29 C 0.3854(4) 0.6000(4) 0.6679(2)
H32 H 0.3792 0.5781 0.7095
H33 H 0.3855 0.6703 0.6679
C30 C 0.6331(3) 0.5700(3) 0.41387(18)
C31 C 0.5866(3) 0.4802(3) 0.40380(18)
C32 C 0.5362(2) 0.4437(3) 0.54505(17)
C33 C 0.4910(2) 0.4753(3) 0.43606(17)
N1 N 0.4867(2) 0.4571(3) 0.64854(16)
N2 N 0.5077(2) 0.5440(2) 0.53689(14)
N3 N 0.5848(2) 0.6256(2) 0.45508(15)
H34 H 0.5659 0.6827 0.4375
N4 N 0.4002(2) 0.4665(2) 0.39087(14)
N5 N 0.0668(3) 0.4837(3) 0.41426(19)
N6 N 0.1402(2) 0.2941(3) 0.43026(16)
O1 O 0.4887(2) 0.3104(3) 0.60351(14)
O2 O 0.3034(2) 0.5659(3) 0.62843(15)
H35 H 0.2505 0.5840 0.6409
O3 O 0.4712(3) 0.6896(3) 0.57305(14)
O4 O -0.0020(2) 0.4511(3) 0.31938(16)
O5 O 0.2088(3) 0.6134(3) 0.51181(17)
H36 H 0.248(4) 0.604(6) 0.543(2)
O6 O 0.2006(3) 0.3269(3) 0.52668(17)
S1 S 0.6128(2) 0.5850(2) 0.68919(12)
C34 C 0.5839(8) 0.6899(7) 0.7327(5)
H37 H 0.5597 0.7408 0.7051
H38 H 0.6437 0.7111 0.7573
H39 H 0.5329 0.6736 0.7588
S2 S 0.67665(7) 0.43916(9) 0.55479(5)
S3 S 0.00464(10) 0.23550(12) 0.33554(7)
S4 S 0.0481(3) 0.4932(5) 0.5354(2)
C35 C -0.0626(10) 0.4202(17) 0.5134(10)
H40 H -0.0945 0.4420 0.4745
H41 H -0.1090 0.4262 0.5440
H42 H -0.0430 0.3535 0.5103
S5? S 0.5655(3) 0.6393(3) 0.70493(15)
C36? C 0.6835(7) 0.5791(9) 0.6962(6)
H43? H 0.6812 0.5140 0.7117
H44? H 0.7378 0.6137 0.7189
H45? H 0.6941 0.5774 0.6536
S6? S 0.0531(11) 0.4836(14) 0.5391(7)
C37? C -0.035(2) 0.381(2) 0.5345(13)
H46? H -0.0602 0.3701 0.4923
H47? H -0.0908 0.3962 0.5576
H48? H -0.0012 0.3245 0.5511
S11? S 0.5685(5) 0.6289(3) 1.20410(19)
C73? C 0.6855(9) 0.5671(10) 1.1957(6)
H91? H 0.6765 0.4986 1.2007
H92? H 0.7369 0.5900 1.2263
H93? H 0.7055 0.5797 1.1555
loop_
_geom_bond_atom_site_label_1
_geom_bond_atom_site_label_2
_geom_bond_site_symmetry_1
_geom_bond_site_symmetry_2
C1 C32 1_555 1_555
C2 C3 1_555 1_555
C3 N2 1_555 1_555
C4 H1 1_555 1_555
C5 H2 1_555 1_555
C6 C5 1_555 1_555
H3 C6 1_555 1_555
C7 C6 1_555 1_555
H4 C7 1_555 1_555
C8 C7 1_555 1_555
H5 C8 1_555 1_555
C9 H6 1_555 1_555
H7 C9 1_555 1_555
C10 H8 1_555 1_555
H9 C10 1_555 1_555
H10 C10 1_555 1_555
C11 H11 1_555 1_555
H12 C11 1_555 1_555
H13 C11 1_555 1_555
C12 H14 1_555 1_555
H15 C12 1_555 1_555
C13 C14 1_555 1_555
C14 C20 1_555 1_555
C15 C18 1_555 1_555
C16 C12 1_555 1_555
C17 C16 1_555 1_555
C18 C19 1_555 1_555
C19 H16 1_555 1_555
H17 C19 1_555 1_555
C20 C19 1_555 1_555
C21 C20 1_555 1_555
H18 C21 1_555 1_555
C22 C13 1_555 1_555
H19 C22 1_555 1_555
C23 C22 1_555 1_555
H20 C23 1_555 1_555
C24 C23 1_555 1_555
H21 C24 1_555 1_555
C25 C14 1_555 1_555
H22 C25 1_555 1_555
C26 H23 1_555 1_555
H24 C26 1_555 1_555
H25 C26 1_555 1_555
C27 H26 1_555 1_555
H27 C27 1_555 1_555
H28 C27 1_555 1_555
C28 H29 1_555 1_555
H30 C28 1_555 1_555
H31 C28 1_555 1_555
C29 C2 1_555 1_555
H32 C29 1_555 1_555
H33 C29 1_555 1_555
C30 C5 1_555 1_555
C31 C8 1_555 1_555
C32 C9 1_555 1_555
C33 C4 1_555 1_555
N1 C1 1_555 1_555
N2 C4 1_555 1_555
N3 C4 1_555 1_555
H34 N3 1_555 1_555
N4 C13 1_555 1_555
N5 C15 1_555 1_555
N6 C17 1_555 1_555
O1 C1 1_555 1_555
O2 C29 1_555 1_555
H35 O2 1_555 1_555
O3 C3 1_555 1_555
O4 C15 1_555 1_555
O5 C12 1_555 1_555
H36 O5 1_555 1_555
O6 C17 1_555 1_555
S1 C2 1_555 1_555
C34 S1 1_555 1_555
H37 C34 1_555 1_555
H38 C34 1_555 1_555
H39 C34 1_555 1_555
S2 C10 1_555 1_555
S3 C18 1_555 1_555
S4 C16 1_555 1_555
C35 S4 1_555 1_555
H40 C35 1_555 1_555
H41 C35 1_555 1_555
H42 C35 1_555 1_555
C38 H49 1_555 1_555
H50 C38 1_555 1_555
H51 C38 1_555 1_555
C39 H52 1_555 1_555
H53 C39 1_555 1_555
H54 C39 1_555 1_555
C40 H55 1_555 1_555
H56 C40 1_555 1_555
H57 C40 1_555 1_555
C41 H58 1_555 1_555
H59 C41 1_555 1_555
H60 C41 1_555 1_555
C42 H61 1_555 1_555
H62 C42 1_555 1_555
C43 C44 1_555 1_555
C44 C53 1_555 1_555
C45 C61 1_555 1_555
C46 C49 1_555 1_555
C47 C48 1_555 1_555
C48 N12 1_555 1_555
C49 C50 1_555 1_555
C50 H63 1_555 1_555
H64 C50 1_555 1_555
C51 C50 1_555 1_555
C52 C51 1_555 1_555
H65 C52 1_555 1_555
C53 C64 1_555 1_555
C54 H66 1_555 1_555
C55 C54 1_555 1_555
H67 C55 1_555 1_555
C56 C55 1_555 1_555
H68 C56 1_555 1_555
C57 C56 1_555 1_555
H69 C57 1_555 1_555
C58 C47 1_555 1_555
H70 C58 1_555 1_555
H71 C58 1_555 1_555
C59 C54 1_555 1_555
C60 C51 1_555 1_555
C61 N7 1_555 1_555
C62 C42 1_555 1_555
C63 C62 1_555 1_555
C64 H72 1_555 1_555
C65 C43 1_555 1_555
H73 C65 1_555 1_555
C66 C65 1_555 1_555
H74 C66 1_555 1_555
C67 C66 1_555 1_555
H75 C67 1_555 1_555
C68 C44 1_555 1_555
H76 C68 1_555 1_555
C69 C45 1_555 1_555
H77 C69 1_555 1_555
H78 C69 1_555 1_555
C70 H79 1_555 1_555
H80 C70 1_555 1_555
H81 C70 1_555 1_555
C71 H82 1_555 1_555
H83 C71 1_555 1_555
H84 C71 1_555 1_555
N7 C62 1_555 1_555
N8 C45 1_555 1_555
N9 C43 1_555 1_555
H85 N9 1_555 1_555
N10 C52 1_555 1_555
N11 C39 1_555 1_555
N12 C41 1_555 1_555
O7 C61 1_555 1_555
O8 C42 1_555 1_555
H86 O8 1_555 1_555
O9 C63 1_555 1_555
O10 C46 1_555 1_555
O11 C58 1_555 1_555
H87 O11 1_555 1_555
O12 C48 1_555 1_555
S7 C62 1_555 1_555
C72 S7 1_555 1_555
H88 C72 1_555 1_555
H89 C72 1_555 1_555
H90 C72 1_555 1_555
S8 C45 1_555 1_555
S9 C38 1_555 1_555
S10 C40 1_555 1_555
O13 H94 1_555 1_555
H95 O13 1_555 1_555
H96 O14 1_555 1_555
O14 H97 1_555 1_555
C2 N1 1_555 1_555
C9 C33 1_555 1_555
C11 N1 1_555 1_555
C16 N5 1_555 1_555
C18 N6 1_555 1_555
C21 N4 1_555 1_555
C24 C25 1_555 1_555
C26 S3 1_555 1_555
C27 N5 1_555 1_555
C28 N6 1_555 1_555
C30 C31 1_555 1_555
C30 N3 1_555 1_555
C31 C33 1_555 1_555
C32 N2 1_555 1_555
C32 S2 1_555 1_555
C33 N4 1_555 1_555
C46 N11 1_555 1_555
C47 N11 1_555 1_555
C47 S10 1_555 1_555
C49 N12 1_555 1_555
C49 S9 1_555 1_555
C53 C69 1_555 1_555
C53 N10 1_555 1_555
C57 C60 1_555 1_555
C59 C60 1_555 1_555
C59 N10 1_555 1_555
C63 N8 1_555 1_555
C64 N8 1_555 1_555
C64 N9 1_555 1_555
C67 C68 1_555 1_555
C70 S8 1_555 1_555
C71 N7 1_555 1_555

#END
