
#######################################################################
#
#                 Cambridge Crystallographic Data Centre
#                                CCDC 
#
#######################################################################
#
# If this CIF has been generated from an entry in the Cambridge 
# Structural Database, then it will include bibliographic, chemical, 
# crystal, experimental, refinement or atomic coordinate data resulting 
# from the CCDC's data processing and validation procedures.
#
#######################################################################

data_ZUCPUK
_chemical_formula_moiety         'C64 H88 N8 2+,2(C1 H2 Cl2),2(B1 F4 1-)'
_chemical_name_systematic        
'3,4,7,8,11,12,15,16,19,20,23,24,27,28,31,32-hexadecaethyl-34,35,37,38,39,40-hexaaza-33,36-diazonianonacyclo[28.2.1.1^2,5^.1^6,9^.1^10,13^.1^14,17^.1^18,21^.1^22,25^.1^26,29^]tetraconta-1(33),2,4,6,8,10,12,14,16,18(36),19,21,23,25,27,29,31-heptadecaene bis(tetrafluoroborate) dichloromethane solvate'
_symmetry_cell_setting           monoclinic
_symmetry_space_group_name_H-M   'C 2/c'
_symmetry_Int_Tables_number      15
_space_group_name_Hall           '-C 2yn'
loop_
_symmetry_equiv_pos_site_id
_symmetry_equiv_pos_as_xyz
1 x,y,z
2 -x,y,1/2-z
3 1/2+x,1/2+y,z
4 1/2-x,1/2+y,1/2-z
5 -x,-y,-z
6 x,-y,1/2+z
7 1/2-x,1/2-y,-z
8 1/2+x,1/2-y,1/2+z
_cell_length_a                   13.6035(2)
_cell_length_b                   17.8163(2)
_cell_length_c                   27.6851(3)
_cell_angle_alpha                90
_cell_angle_beta                 100.498(1)
_cell_angle_gamma                90
_cell_volume                     6597.56
_exptl_crystal_colour            'metallic blue'
_exptl_crystal_description       prisms
_cell_formula_units_Z            4
_exptl_crystal_preparation       Luminescent
loop_
_atom_site_label
_atom_site_type_symbol
_atom_site_fract_x
_atom_site_fract_y
_atom_site_fract_z
N1 N 0.43305(10) 0.01878(8) 0.20157(5)
N2 N 0.31782(10) 0.13166(8) 0.14361(5)
N3 N 0.33770(11) 0.29712(8) 0.13633(5)
N4 N 0.42642(10) 0.41413(8) 0.20472(5)
C1 C 0.45979(12) -0.04368(9) 0.22965(6)
C2 C 0.39286(12) -0.10203(9) 0.21074(6)
C3 C 0.33061(12) -0.07500(9) 0.16880(6)
C4 C 0.35774(12) 0.00116(9) 0.16281(6)
C5 C 0.31671(12) 0.05760(9) 0.12894(6)
C6 C 0.26695(12) 0.05561(9) 0.07914(6)
C7 C 0.23361(12) 0.12816(9) 0.06600(6)
C8 C 0.26547(12) 0.17529(9) 0.10710(6)
C9 C 0.25902(12) 0.25498(9) 0.11189(6)
C10 C 0.18172(13) 0.30522(9) 0.09325(6)
C11 C 0.21737(12) 0.37830(9) 0.10383(6)
C12 C 0.31521(12) 0.37224(9) 0.13100(6)
C13 C 0.38067(12) 0.42786(9) 0.15716(6)
C14 C 0.40797(13) 0.50066(10) 0.14543(6)
C15 C 0.46781(13) 0.53133(9) 0.18761(6)
C16 C 0.47569(12) 0.47722(9) 0.22472(6)
C17 C 0.37547(13) -0.17262(9) 0.23793(6)
H1 H 0.4338 -0.1834 0.2621
H2 H 0.3641 -0.2140 0.2154
C18 C 0.28528(14) -0.16311(11) 0.26302(7)
H3 H 0.2747 -0.2081 0.2804
H4 H 0.2973 -0.1219 0.2857
H5 H 0.2271 -0.1528 0.2386
C19 C 0.24498(12) -0.11790(10) 0.13941(6)
H6 H 0.2432 -0.1670 0.1536
H7 H 0.2564 -0.1241 0.1064
C20 C 0.14290(13) -0.08140(11) 0.13731(7)
H8 H 0.0914 -0.1116 0.1183
H9 H 0.1302 -0.0761 0.1701
H10 H 0.1435 -0.0328 0.1225
C21 C 0.26477(13) -0.00823(10) 0.04330(6)
H11 H 0.2374 0.0099 0.0110
H12 H 0.2210 -0.0466 0.0514
C22 C 0.36709(15) -0.04270(11) 0.04264(7)
H13 H 0.3605 -0.0827 0.0191
H14 H 0.4109 -0.0049 0.0338
H15 H 0.3943 -0.0620 0.0747
C23 C 0.18483(13) 0.15209(10) 0.01508(6)
H16 H 0.2266 0.1364 -0.0075
H17 H 0.1806 0.2059 0.0138
C24 C 0.08064(15) 0.11860(11) -0.00231(7)
H18 H 0.0536 0.1353 -0.0350
H19 H 0.0846 0.0648 -0.0019
H20 H 0.0381 0.1349 0.0197
C25 C 0.07460(13) 0.28373(10) 0.07474(7)
H21 H 0.0720 0.2324 0.0641
H22 H 0.0474 0.3145 0.0470
C26 C 0.01015(14) 0.29257(11) 0.11406(7)
H23 H -0.0577 0.2783 0.1015
H24 H 0.0368 0.2613 0.1416
H25 H 0.0120 0.3441 0.1244
C27 C 0.15701(13) 0.44892(10) 0.09193(6)
H26 H 0.0963 0.4365 0.0698
H27 H 0.1940 0.4830 0.0752
C28 C 0.13038(15) 0.48922(11) 0.13645(7)
H28 H 0.0919 0.5335 0.1262
H29 H 0.0919 0.4559 0.1530
H30 H 0.1907 0.5030 0.1584
C29 C 0.38845(15) 0.53600(11) 0.09526(7)
H31 H 0.3562 0.4999 0.0719
H32 H 0.4518 0.5481 0.0867
C30 C 0.32578(18) 0.60702(12) 0.09112(8)
H33 H 0.3173 0.6265 0.0583
H34 H 0.2615 0.5952 0.0989
H35 H 0.3583 0.6439 0.1138
C31 C 0.52175(15) 0.60549(11) 0.18977(7)
H36 H 0.4882 0.6397 0.2081
H37 H 0.5158 0.6251 0.1571
C32 C 0.63177(15) 0.60398(12) 0.21368(8)
H38 H 0.6595 0.6536 0.2139
H39 H 0.6387 0.5859 0.2468
H40 H 0.6667 0.5711 0.1951
H41 H 0.4684(14) 0.0584(12) 0.2012(7)
H42 H 0.3360(15) 0.1478(12) 0.1732(8)
H43 H 0.3936(15) 0.2812(11) 0.1488(7)
H44 H 0.4165(14) 0.3764(11) 0.2212(7)
N1A N 0.56695(10) 0.01878(8) 0.29843(5)
N2A N 0.68218(10) 0.13166(8) 0.35639(5)
N3A N 0.66230(11) 0.29712(8) 0.36367(5)
N4A N 0.57358(10) 0.41413(8) 0.29528(5)
C1A C 0.54021(12) -0.04368(9) 0.27035(6)
C2A C 0.60714(12) -0.10203(9) 0.28926(6)
C3A C 0.66939(12) -0.07500(9) 0.33120(6)
C4A C 0.64226(12) 0.00116(9) 0.33719(6)
C5A C 0.68329(12) 0.05760(9) 0.37106(6)
C6A C 0.73305(12) 0.05561(9) 0.42086(6)
C7A C 0.76639(12) 0.12816(9) 0.43400(6)
C8A C 0.73453(12) 0.17529(9) 0.39290(6)
C9A C 0.74098(12) 0.25498(9) 0.38811(6)
C10A C 0.81828(13) 0.30522(9) 0.40675(6)
C11A C 0.78263(12) 0.37830(9) 0.39617(6)
C12A C 0.68479(12) 0.37224(9) 0.36900(6)
C13A C 0.61933(12) 0.42786(9) 0.34284(6)
C14A C 0.59203(13) 0.50066(10) 0.35457(6)
C15A C 0.53219(13) 0.53133(9) 0.31239(6)
C16A C 0.52431(12) 0.47722(9) 0.27528(6)
C17A C 0.62453(13) -0.17262(9) 0.26207(6)
H1A H 0.5662 -0.1834 0.2379
H2A H 0.6359 -0.2140 0.2846
C18A C 0.71472(14) -0.16311(11) 0.23698(7)
H3A H 0.7253 -0.2081 0.2196
H4A H 0.7027 -0.1219 0.2143
H5A H 0.7729 -0.1528 0.2614
C19A C 0.75502(12) -0.11790(10) 0.36059(6)
H6A H 0.7568 -0.1670 0.3464
H7A H 0.7436 -0.1241 0.3936
C20A C 0.85710(13) -0.08140(11) 0.36269(7)
H8A H 0.9086 -0.1116 0.3817
H9A H 0.8698 -0.0761 0.3299
H10A H 0.8565 -0.0328 0.3775
C21A C 0.73523(13) -0.00823(10) 0.45670(6)
H11A H 0.7626 0.0099 0.4890
H12A H 0.7790 -0.0466 0.4486
C22A C 0.63291(15) -0.04270(11) 0.45736(7)
H13A H 0.6395 -0.0827 0.4809
H14A H 0.5891 -0.0049 0.4662
H15A H 0.6057 -0.0620 0.4253
C23A C 0.81517(13) 0.15209(10) 0.48492(6)
H16A H 0.7734 0.1364 0.5075
H17A H 0.8194 0.2059 0.4862
C24A C 0.91936(15) 0.11860(11) 0.50231(7)
H18A H 0.9464 0.1353 0.5350
H19A H 0.9154 0.0648 0.5019
H20A H 0.9619 0.1349 0.4803
C25A C 0.92540(13) 0.28373(10) 0.42526(7)
H21A H 0.9280 0.2324 0.4359
H22A H 0.9526 0.3145 0.4530
C26A C 0.98985(14) 0.29257(11) 0.38594(7)
H23A H 1.0577 0.2783 0.3985
H24A H 0.9632 0.2613 0.3584
H25A H 0.9880 0.3441 0.3756
C27A C 0.84299(13) 0.44892(10) 0.40807(6)
H26A H 0.9037 0.4365 0.4302
H27A H 0.8060 0.4830 0.4248
C28A C 0.86962(15) 0.48922(11) 0.36355(7)
H28A H 0.9081 0.5335 0.3738
H29A H 0.9081 0.4559 0.3470
H30A H 0.8093 0.5030 0.3416
C29A C 0.61155(15) 0.53600(11) 0.40474(7)
H31A H 0.6438 0.4999 0.4281
H32A H 0.5482 0.5481 0.4133
C30A C 0.67422(18) 0.60702(12) 0.40888(8)
H33A H 0.6827 0.6265 0.4417
H34A H 0.7385 0.5952 0.4011
H35A H 0.6417 0.6439 0.3862
C31A C 0.47825(15) 0.60549(11) 0.31023(7)
H36A H 0.5118 0.6397 0.2919
H37A H 0.4842 0.6251 0.3429
C32A C 0.36823(15) 0.60398(12) 0.28632(8)
H38A H 0.3405 0.6536 0.2861
H39A H 0.3613 0.5859 0.2532
H40A H 0.3333 0.5711 0.3049
H41A H 0.5316(14) 0.0584(12) 0.2988(7)
H42A H 0.6640(15) 0.1478(12) 0.3268(8)
H43A H 0.6064(15) 0.2812(11) 0.3512(7)
H44A H 0.5835(14) 0.3764(11) 0.2788(7)
Cl1 Cl 0.64625(4) 0.25161(3) 0.03076(2)
Cl2 Cl 0.48375(5) 0.16595(5) 0.05949(2)
C33 C 0.58833(18) 0.22037(14) 0.07920(8)
H45 H 0.5692 0.2633 0.0963
H46 H 0.6357 0.1919 0.1020
F1 F 0.69273(8) 0.20536(6) 0.19108(4)
F2 F 0.55073(9) 0.26932(7) 0.19544(5)
F3 F 0.54650(9) 0.14387(7) 0.18792(5)
F4 F 0.62326(9) 0.19661(7) 0.25955(4)
B1 B 0.60422(16) 0.20380(12) 0.20897(7)
loop_
_geom_bond_atom_site_label_1
_geom_bond_atom_site_label_2
_geom_bond_site_symmetry_1
_geom_bond_site_symmetry_2
N1 C1 1_555 1_555
N2 C5 1_555 1_555
N3 C9 1_555 1_555
N4 C13 1_555 1_555
C1 C2 1_555 1_555
C2 C3 1_555 1_555
C3 C4 1_555 1_555
C4 N1 1_555 1_555
C5 C4 1_555 1_555
C6 C5 1_555 1_555
C7 C6 1_555 1_555
C8 N2 1_555 1_555
C9 C8 1_555 1_555
C10 C9 1_555 1_555
C11 C10 1_555 1_555
C12 N3 1_555 1_555
C13 C12 1_555 1_555
C14 C13 1_555 1_555
C15 C14 1_555 1_555
C16 N4 1_555 1_555
C17 C2 1_555 1_555
H1 C17 1_555 1_555
H2 C17 1_555 1_555
C18 C17 1_555 1_555
H3 C18 1_555 1_555
H4 C18 1_555 1_555
H5 C18 1_555 1_555
C19 C3 1_555 1_555
H6 C19 1_555 1_555
H7 C19 1_555 1_555
C20 C19 1_555 1_555
H8 C20 1_555 1_555
H9 C20 1_555 1_555
H10 C20 1_555 1_555
C21 C6 1_555 1_555
H11 C21 1_555 1_555
H12 C21 1_555 1_555
C22 C21 1_555 1_555
H13 C22 1_555 1_555
H14 C22 1_555 1_555
H15 C22 1_555 1_555
C23 C7 1_555 1_555
H16 C23 1_555 1_555
H17 C23 1_555 1_555
C24 C23 1_555 1_555
H18 C24 1_555 1_555
H19 C24 1_555 1_555
H20 C24 1_555 1_555
C25 C10 1_555 1_555
H21 C25 1_555 1_555
H22 C25 1_555 1_555
C26 C25 1_555 1_555
H23 C26 1_555 1_555
H24 C26 1_555 1_555
H25 C26 1_555 1_555
C27 C11 1_555 1_555
H26 C27 1_555 1_555
H27 C27 1_555 1_555
C28 C27 1_555 1_555
H28 C28 1_555 1_555
H29 C28 1_555 1_555
H30 C28 1_555 1_555
C29 C14 1_555 1_555
H31 C29 1_555 1_555
H32 C29 1_555 1_555
C30 C29 1_555 1_555
H33 C30 1_555 1_555
H34 C30 1_555 1_555
H35 C30 1_555 1_555
C31 C15 1_555 1_555
H36 C31 1_555 1_555
H37 C31 1_555 1_555
C32 C31 1_555 1_555
H38 C32 1_555 1_555
H39 C32 1_555 1_555
H40 C32 1_555 1_555
H41 N1 1_555 1_555
H42 N2 1_555 1_555
H43 N3 1_555 1_555
H44 N4 1_555 1_555
Cl1 C33 1_555 1_555
Cl2 C33 1_555 1_555
C33 H45 1_555 1_555
H46 C33 1_555 1_555
F1 B1 1_555 1_555
F2 B1 1_555 1_555
F3 B1 1_555 1_555
F4 B1 1_555 1_555
N1A C1A 1_555 1_555
N2A C5A 1_555 1_555
N3A C9A 1_555 1_555
N4A C13A 1_555 1_555
C1A C1 1_555 1_555
C2A C1A 1_555 1_555
C3A C2A 1_555 1_555
C4A N1A 1_555 1_555
C5A C4A 1_555 1_555
C6A C5A 1_555 1_555
C7A C6A 1_555 1_555
C8A N2A 1_555 1_555
C9A C8A 1_555 1_555
C10A C9A 1_555 1_555
C11A C10A 1_555 1_555
C12A N3A 1_555 1_555
C13A C12A 1_555 1_555
C14A C13A 1_555 1_555
C15A C14A 1_555 1_555
C16A C16 1_555 1_555
C17A C2A 1_555 1_555
H1A C17A 1_555 1_555
H2A C17A 1_555 1_555
C18A C17A 1_555 1_555
H3A C18A 1_555 1_555
H4A C18A 1_555 1_555
H5A C18A 1_555 1_555
C19A C3A 1_555 1_555
H6A C19A 1_555 1_555
H7A C19A 1_555 1_555
C20A C19A 1_555 1_555
H8A C20A 1_555 1_555
H9A C20A 1_555 1_555
H10A C20A 1_555 1_555
C21A C6A 1_555 1_555
H11A C21A 1_555 1_555
H12A C21A 1_555 1_555
C22A C21A 1_555 1_555
H13A C22A 1_555 1_555
H14A C22A 1_555 1_555
H15A C22A 1_555 1_555
C23A C7A 1_555 1_555
H16A C23A 1_555 1_555
H17A C23A 1_555 1_555
C24A C23A 1_555 1_555
H18A C24A 1_555 1_555
H19A C24A 1_555 1_555
H20A C24A 1_555 1_555
C25A C10A 1_555 1_555
H21A C25A 1_555 1_555
H22A C25A 1_555 1_555
C26A C25A 1_555 1_555
H23A C26A 1_555 1_555
H24A C26A 1_555 1_555
H25A C26A 1_555 1_555
C27A C11A 1_555 1_555
H26A C27A 1_555 1_555
H27A C27A 1_555 1_555
C28A C27A 1_555 1_555
H28A C28A 1_555 1_555
H29A C28A 1_555 1_555
H30A C28A 1_555 1_555
C29A C14A 1_555 1_555
H31A C29A 1_555 1_555
H32A C29A 1_555 1_555
C30A C29A 1_555 1_555
H33A C30A 1_555 1_555
H34A C30A 1_555 1_555
H35A C30A 1_555 1_555
C31A C15A 1_555 1_555
H36A C31A 1_555 1_555
H37A C31A 1_555 1_555
C32A C31A 1_555 1_555
H38A C32A 1_555 1_555
H39A C32A 1_555 1_555
H40A C32A 1_555 1_555
H41A N1A 1_555 1_555
H42A N2A 1_555 1_555
H43A N3A 1_555 1_555
H44A N4A 1_555 1_555
C7 C8 1_555 1_555
C11 C12 1_555 1_555
C15 C16 1_555 1_555
N4A C16A 1_555 1_555
C3A C4A 1_555 1_555
C7A C8A 1_555 1_555
C11A C12A 1_555 1_555
C15A C16A 1_555 1_555

#END
