
#######################################################################
#
#                 Cambridge Crystallographic Data Centre
#                                CCDC 
#
#######################################################################
#
# If this CIF has been generated from an entry in the Cambridge 
# Structural Database, then it will include bibliographic, chemical, 
# crystal, experimental, refinement or atomic coordinate data resulting 
# from the CCDC's data processing and validation procedures.
#
#######################################################################

data_ZUCQUL
_chemical_formula_moiety         'C19 H15 N1'
_chemical_name_systematic        2-methyl-3-phenyl-1H-benzo[g]indole
_symmetry_cell_setting           monoclinic
_symmetry_space_group_name_H-M   'C c'
_symmetry_Int_Tables_number      9
_space_group_name_Hall           'C -2yc'
loop_
_symmetry_equiv_pos_site_id
_symmetry_equiv_pos_as_xyz
1 x,y,z
2 x,-y,1/2+z
3 1/2+x,1/2+y,z
4 1/2+x,1/2-y,1/2+z
_cell_length_a                   10.182(3)
_cell_length_b                   19.806(7)
_cell_length_c                   8.310(3)
_cell_angle_alpha                90
_cell_angle_beta                 126.517(5)
_cell_angle_gamma                90
_cell_volume                     1346.83
_exptl_crystal_colour            colorless
_exptl_crystal_description       needle
_chemical_melting_point          '353-355 K'
_cell_formula_units_Z            4
_chemical_properties_physical    Heat-sensitive
_exptl_crystal_recrystallization_method ethanol
loop_
_atom_site_label
_atom_site_type_symbol
_atom_site_fract_x
_atom_site_fract_y
_atom_site_fract_z
C1 C 0.3679(2) 0.08187(9) 0.6170(3)
C2 C 0.2435(2) 0.08842(9) 0.4076(3)
C3 C 0.2150(2) 0.04092(10) 0.2630(3)
H1 H 0.2804 0.0014 0.3045
C4 C 0.0941(3) 0.05138(11) 0.0635(3)
H2 H 0.0766 0.0192 -0.0323
C5 C -0.0043(3) 0.10964(11) 0.0001(3)
H3 H -0.0878 0.1167 -0.1383
C6 C 0.0202(3) 0.15615(11) 0.1379(3)
H4 H -0.0469 0.1952 0.0932
C7 C 0.1436(2) 0.14709(9) 0.3452(3)
C8 C 0.1686(2) 0.19441(9) 0.4912(3)
H5 H 0.1030 0.2340 0.4473
C9 C 0.2837(2) 0.18440(9) 0.6915(3)
H6 H 0.2950 0.2158 0.7855
C10 C 0.3864(2) 0.12673(10) 0.7585(3)
C11 C 0.5221(2) 0.10345(9) 0.9527(3)
C12 C 0.5817(2) 0.04633(9) 0.9214(3)
C13 C 0.7197(3) 0.00050(10) 1.0639(3)
H7 H 0.8113 0.0087 1.0574
H8 H 0.6839 -0.0465 1.0278
H9 H 0.7545 0.0092 1.2002
C14 C 0.5816(2) 0.13407(9) 1.1479(3)
C15 C 0.7479(2) 0.14385(9) 1.2992(3)
H10 H 0.8260 0.1304 1.2779
C16 C 0.8006(2) 0.17308(10) 1.4807(3)
H11 H 0.9141 0.1790 1.5829
C17 C 0.6876(3) 0.19365(9) 1.5127(3)
H12 H 0.7234 0.2146 1.6354
C18 C 0.5224(3) 0.18351(10) 1.3653(3)
H13 H 0.4451 0.1966 1.3883
C19 C 0.4692(3) 0.15425(9) 1.1835(3)
H14 H 0.3556 0.1479 1.0827
N1 N 0.4870(2) 0.03357(8) 0.7181(2)
H15 H 0.493(3) -0.0027(14) 0.664(4)
loop_
_geom_bond_atom_site_label_1
_geom_bond_atom_site_label_2
_geom_bond_site_symmetry_1
_geom_bond_site_symmetry_2
C1 C2 1_555 1_555
C2 C3 1_555 1_555
C3 H1 1_555 1_555
C4 C3 1_555 1_555
H2 C4 1_555 1_555
C5 C4 1_555 1_555
H3 C5 1_555 1_555
C6 C5 1_555 1_555
H4 C6 1_555 1_555
C7 C2 1_555 1_555
C8 C7 1_555 1_555
H5 C8 1_555 1_555
C9 C8 1_555 1_555
H6 C9 1_555 1_555
C10 C1 1_555 1_555
C11 C10 1_555 1_555
C12 C11 1_555 1_555
C13 C12 1_555 1_555
H7 C13 1_555 1_555
H8 C13 1_555 1_555
H9 C13 1_555 1_555
C14 C11 1_555 1_555
C15 C14 1_555 1_555
H10 C15 1_555 1_555
C16 C15 1_555 1_555
H11 C16 1_555 1_555
C17 C16 1_555 1_555
H12 C17 1_555 1_555
C18 C17 1_555 1_555
H13 C18 1_555 1_555
C19 C14 1_555 1_555
H14 C19 1_555 1_555
N1 C1 1_555 1_555
H15 N1 1_555 1_555
C6 C7 1_555 1_555
C9 C10 1_555 1_555
C12 N1 1_555 1_555
C18 C19 1_555 1_555

#END
