
#######################################################################
#
#                 Cambridge Crystallographic Data Centre
#                                CCDC 
#
#######################################################################
#
# If this CIF has been generated from an entry in the Cambridge 
# Structural Database, then it will include bibliographic, chemical, 
# crystal, experimental, refinement or atomic coordinate data resulting 
# from the CCDC's data processing and validation procedures.
#
#######################################################################

data_ZUCTAU
_chemical_formula_moiety         'C26 H27 N1 O7 S1'
_chemical_name_systematic        
'Diethyl 3-(methylsulfonyl)-2-(2-naphthyl)-5-phenyl-1,3-oxazolidine-4,4-dicarboxylate'
_symmetry_cell_setting           monoclinic
_symmetry_space_group_name_H-M   'P 21'
_symmetry_Int_Tables_number      4
_space_group_name_Hall           'P 2yb'
loop_
_symmetry_equiv_pos_site_id
_symmetry_equiv_pos_as_xyz
1 x,y,z
2 -x,1/2+y,-z
_cell_length_a                   11.1671(2)
_cell_length_b                   7.62443(14)
_cell_length_c                   14.6056(3)
_cell_angle_alpha                90
_cell_angle_beta                 94.1026(19)
_cell_angle_gamma                90
_cell_volume                     1240.37
_exptl_crystal_colour            colorless
_cell_formula_units_Z            2
loop_
_atom_site_label
_atom_site_type_symbol
_atom_site_fract_x
_atom_site_fract_y
_atom_site_fract_z
S1 S 0.44918(6) 0.30432(11) 0.63556(6)
O1 O 0.2857(2) 0.7293(3) 0.68669(14)
O2 O 0.4794(2) 0.3595(4) 0.54718(18)
O3 O 0.5422(2) 0.2513(4) 0.7017(2)
O4 O 0.4032(3) 0.4741(4) 0.93042(16)
O5 O 0.5828(2) 0.6526(5) 0.7131(2)
N1 N 0.3745(2) 0.4647(4) 0.68225(17)
O6 O 0.3304(3) 0.2659(4) 0.8331(2)
O7 O 0.6144(3) 0.5335(6) 0.8522(2)
C1 C 0.2370(3) 0.5713(4) 0.5501(2)
C2 C 0.2474(3) 0.7281(5) 0.8437(2)
C3 C 0.3345(3) 0.6147(4) 0.6230(2)
H1 H 0.4031 0.6694 0.5958
C4 C 0.2475(2) 0.6325(4) 0.4630(2)
H2 H 0.3166 0.6923 0.4494
C5 C 0.3431(3) 0.7110(4) 0.7764(2)
H3 H 0.4013 0.8063 0.7872
C6 C 0.1544(3) 0.6059(5) 0.3929(2)
C7 C 0.3773(3) 0.4031(5) 0.8485(2)
C8 C 0.1331(3) 0.4790(5) 0.5709(2)
H4 H 0.1262 0.4368 0.6300
C9 C 0.4131(3) 0.5300(5) 0.7739(2)
C10 C 0.0502(3) 0.5156(5) 0.4147(2)
C11 C 0.1636(4) 0.6687(7) 0.3026(2)
H5 H 0.2326 0.7270 0.2876
C12 C 0.0425(3) 0.4512(5) 0.5046(3)
H6 H -0.0253 0.3889 0.5190
C13 C 0.5502(3) 0.5688(6) 0.7860(3)
C14 C 0.2629(4) 0.8457(6) 0.9162(3)
H7 H 0.3333 0.9110 0.9243
C15 C -0.0431(3) 0.4905(6) 0.3440(3)
H8 H -0.1118 0.4288 0.3567
C16 C 0.1421(4) 0.6350(7) 0.8317(3)
H9 H 0.1310 0.5566 0.7830
C17 C 0.0711(4) 0.6439(9) 0.2373(3)
H10 H 0.0774 0.6865 0.1781
C18 C 0.3440(4) 0.1323(6) 0.6223(4)
H11 H 0.2764 0.1699 0.5829
H12 H 0.3176 0.1006 0.6812
H13 H 0.3807 0.0326 0.5955
C19 C 0.0687(5) 0.7754(10) 0.9633(3)
H14 H 0.0080 0.7933 1.0027
C20 C 0.0521(4) 0.6569(9) 0.8916(3)
H15 H -0.0187 0.5927 0.8836
C21 C -0.0329(4) 0.5552(8) 0.2587(3)
H16 H -0.0956 0.5405 0.2139
C22 C 0.3659(6) 0.3794(9) 1.0094(3)
H17 H 0.4166 0.2777 1.0218
H18 H 0.2834 0.3403 0.9987
C23 C 0.1735(5) 0.8656(8) 0.9762(3)
H19 H 0.1853 0.9415 1.0259
C24 C 0.7530(6) 0.6425(10) 0.6271(6)
H20 H 0.7462 0.7375 0.5839
H21 H 0.7074 0.5440 0.6029
H22 H 0.8358 0.6095 0.6377
C25 C 0.7094(5) 0.6946(14) 0.7084(5)
H23 H 0.7204 0.8202 0.7154
H24 H 0.7553 0.6376 0.7589
C26 C 0.3777(8) 0.5063(11) 1.0895(4)
H25 H 0.3326 0.6107 1.0741
H26 H 0.4607 0.5360 1.1026
H27 H 0.3472 0.4525 1.1425
loop_
_geom_bond_atom_site_label_1
_geom_bond_atom_site_label_2
_geom_bond_site_symmetry_1
_geom_bond_site_symmetry_2
S1 O2 1_555 1_555
O1 C3 1_555 1_555
O3 S1 1_555 1_555
O4 C7 1_555 1_555
O5 C13 1_555 1_555
N1 S1 1_555 1_555
O6 C7 1_555 1_555
O7 C13 1_555 1_555
C1 C3 1_555 1_555
C2 C5 1_555 1_555
C3 N1 1_555 1_555
H1 C3 1_555 1_555
C4 C1 1_555 1_555
H2 C4 1_555 1_555
C5 O1 1_555 1_555
H3 C5 1_555 1_555
C6 C4 1_555 1_555
C7 C9 1_555 1_555
C8 C1 1_555 1_555
H4 C8 1_555 1_555
C9 N1 1_555 1_555
C10 C6 1_555 1_555
C11 C6 1_555 1_555
H5 C11 1_555 1_555
C12 C8 1_555 1_555
H6 C12 1_555 1_555
C13 C9 1_555 1_555
C14 C2 1_555 1_555
H7 C14 1_555 1_555
C15 C10 1_555 1_555
H8 C15 1_555 1_555
C16 C2 1_555 1_555
H9 C16 1_555 1_555
C17 C11 1_555 1_555
H10 C17 1_555 1_555
C18 S1 1_555 1_555
H11 C18 1_555 1_555
H12 C18 1_555 1_555
H13 C18 1_555 1_555
C19 H14 1_555 1_555
C20 C16 1_555 1_555
H15 C20 1_555 1_555
C21 C15 1_555 1_555
H16 C21 1_555 1_555
C22 O4 1_555 1_555
H17 C22 1_555 1_555
H18 C22 1_555 1_555
C23 C14 1_555 1_555
H19 C23 1_555 1_555
C24 H20 1_555 1_555
H21 C24 1_555 1_555
H22 C24 1_555 1_555
C25 O5 1_555 1_555
H23 C25 1_555 1_555
H24 C25 1_555 1_555
C26 C22 1_555 1_555
H25 C26 1_555 1_555
H26 C26 1_555 1_555
H27 C26 1_555 1_555
C5 C9 1_555 1_555
C10 C12 1_555 1_555
C17 C21 1_555 1_555
C19 C20 1_555 1_555
C19 C23 1_555 1_555
C24 C25 1_555 1_555

#END
