
#######################################################################
#
#                 Cambridge Crystallographic Data Centre
#                                CCDC 
#
#######################################################################
#
# If this CIF has been generated from an entry in the Cambridge 
# Structural Database, then it will include bibliographic, chemical, 
# crystal, experimental, refinement or atomic coordinate data resulting 
# from the CCDC's data processing and validation procedures.
#
#######################################################################

data_ZUCVOK
_chemical_formula_moiety         'C19 H15 F3 N2 O2'
_chemical_name_systematic        
3-(N-(2,4-dimethylphenyl)-2,2,2-trifluoroethanehydrazonoyl)-2H-chromen-2-one
_symmetry_cell_setting           triclinic
_symmetry_space_group_name_H-M   'P -1'
_symmetry_Int_Tables_number      2
_space_group_name_Hall           '-P 1'
loop_
_symmetry_equiv_pos_site_id
_symmetry_equiv_pos_as_xyz
1 x,y,z
2 -x,-y,-z
_cell_length_a                   9.7562(8)
_cell_length_b                   10.0941(9)
_cell_length_c                   10.2639(7)
_cell_angle_alpha                94.046(6)
_cell_angle_beta                 107.172(7)
_cell_angle_gamma                111.493(8)
_cell_volume                     880.229
_cell_formula_units_Z            2
loop_
_atom_site_label
_atom_site_type_symbol
_atom_site_fract_x
_atom_site_fract_y
_atom_site_fract_z
F2 F 0.3920(15) -0.4413(9) 0.0855(13)
F3 F 0.6345(9) -0.3171(7) 0.1437(9)
F4 F 0.535(3) -0.3916(17) 0.3017(12)
O1 O 0.2601(2) -0.1561(2) -0.13500(18)
O2 O 0.4968(2) -0.1528(2) -0.0560(2)
N1 N 0.5817(3) -0.1148(2) 0.3226(2)
N2 N 0.5790(3) 0.0160(2) 0.3471(2)
C1 C -0.0453(3) -0.1968(4) 0.0148(3)
H1 H -0.0644 -0.2092 0.0977
C2 C -0.1590(4) -0.1905(4) -0.0966(4)
H2 H -0.2547 -0.1988 -0.0898
C3 C -0.1312(4) -0.1719(5) -0.2189(4)
H3 H -0.2088 -0.1674 -0.2949
C4 C 0.0085(4) -0.1598(4) -0.2315(3)
H4 H 0.0262 -0.1471 -0.3149
C5 C 0.1225(3) -0.1668(3) -0.1183(3)
C6 C 0.0989(3) -0.1851(3) 0.0076(3)
C7 C 0.2221(3) -0.1954(3) 0.1171(3)
H5 H 0.2095 -0.2070 0.2025
C8 C 0.3550(3) -0.1888(3) 0.1008(3)
C9 C 0.3794(3) -0.1659(3) -0.0319(3)
C10 C 0.4812(3) -0.2067(3) 0.2118(3)
C11 C 0.5073(16) -0.3416(14) 0.1738(14)
C12 C 0.7112(3) 0.1269(3) 0.4490(2)
C13 C 0.7054(3) 0.2614(3) 0.4794(3)
C14 C 0.8395(4) 0.3721(3) 0.5756(3)
H6 H 0.8378 0.4627 0.5955
C15 C 0.9744(4) 0.3539(3) 0.6428(3)
C16 C 0.9748(3) 0.2185(3) 0.6128(3)
H7 H 1.0638 0.2028 0.6575
C17 C 0.8448(3) 0.1059(3) 0.5171(3)
H8 H 0.8472 0.0155 0.4984
C18 C 0.5610(4) 0.2860(4) 0.4110(3)
H9 H 0.5431 0.2796 0.3132
H10 H 0.5747 0.3807 0.4515
H11 H 0.4725 0.2134 0.4243
C19 C 1.1156(4) 0.4780(4) 0.7478(4)
H12 H 1.2064 0.4561 0.7649
H13 H 1.0963 0.4910 0.8332
H14 H 1.1337 0.5657 0.7116
H15 H 0.525(3) 0.045(3) 0.282(3)
F1? F 0.491(3) -0.4086(13) 0.0962(14)
F5? F 0.3565(7) -0.4515(5) 0.2338(8)
F6? F 0.6031(12) -0.3633(14) 0.3020(16)
C20? C 0.4792(13) -0.3583(11) 0.2139(11)
loop_
_geom_bond_atom_site_label_1
_geom_bond_atom_site_label_2
_geom_bond_site_symmetry_1
_geom_bond_site_symmetry_2
F2 C11 1_555 1_555
F3 C11 1_555 1_555
F4 C11 1_555 1_555
O1 C5 1_555 1_555
O2 C9 1_555 1_555
N1 N2 1_555 1_555
N2 C12 1_555 1_555
C1 H1 1_555 1_555
C2 C1 1_555 1_555
H2 C2 1_555 1_555
C3 C2 1_555 1_555
H3 C3 1_555 1_555
C4 C3 1_555 1_555
H4 C4 1_555 1_555
C5 C4 1_555 1_555
C6 C1 1_555 1_555
C7 C6 1_555 1_555
H5 C7 1_555 1_555
C8 C7 1_555 1_555
C9 O1 1_555 1_555
C10 N1 1_555 1_555
C11 C10 1_555 1_555
C12 C13 1_555 1_555
C13 C14 1_555 1_555
C14 H6 1_555 1_555
C15 C14 1_555 1_555
C16 C15 1_555 1_555
H7 C16 1_555 1_555
C17 C12 1_555 1_555
H8 C17 1_555 1_555
C18 C13 1_555 1_555
H9 C18 1_555 1_555
H10 C18 1_555 1_555
H11 C18 1_555 1_555
C19 C15 1_555 1_555
H12 C19 1_555 1_555
H13 C19 1_555 1_555
H14 C19 1_555 1_555
H15 N2 1_555 1_555
C5 C6 1_555 1_555
C8 C9 1_555 1_555
C8 C10 1_555 1_555
C16 C17 1_555 1_555

#END
