
#######################################################################
#
#                 Cambridge Crystallographic Data Centre
#                                CCDC 
#
#######################################################################
#
# If this CIF has been generated from an entry in the Cambridge 
# Structural Database, then it will include bibliographic, chemical, 
# crystal, experimental, refinement or atomic coordinate data resulting 
# from the CCDC's data processing and validation procedures.
#
#######################################################################

data_ZUDCOQ
_chemical_formula_moiety         'C11 H9 F3 O2'
_chemical_name_systematic        4-Phenyl-2-(trifluoromethyl)butyrolactone
_symmetry_cell_setting           orthorhombic
_symmetry_space_group_name_H-M   'I b a 2'
_symmetry_Int_Tables_number      45
_space_group_name_Hall           'I 2 -2c'
loop_
_symmetry_equiv_pos_site_id
_symmetry_equiv_pos_as_xyz
1 x,y,z
2 -x,-y,z
3 -x,y,1/2+z
4 x,-y,1/2+z
5 1/2+x,1/2+y,1/2+z
6 1/2-x,1/2-y,1/2+z
7 1/2-x,1/2+y,z
8 1/2+x,1/2-y,z
_cell_length_a                   10.0784(9)
_cell_length_b                   22.470(2)
_cell_length_c                   8.9385(8)
_cell_angle_alpha                90
_cell_angle_beta                 90
_cell_angle_gamma                90
_cell_volume                     2024.23
_exptl_crystal_colour            white
_chemical_melting_point          86.6-87.6deg.C
_cell_formula_units_Z            8
loop_
_atom_site_label
_atom_site_type_symbol
_atom_site_fract_x
_atom_site_fract_y
_atom_site_fract_z
F1 F 0.2371(2) 0.5280(1) 0.9704(3)
F2 F 0.1394(2) 0.4907(1) 0.7787(2)
F3 F 0.1217(2) 0.4474(1) 0.9925(3)
O1 O 0.4090(3) 0.4414(1) 1.1259(3)
O2 O 0.4402(2) 0.3617(1) 0.9817(3)
C1 C 0.4157(4) 0.3442(2) 0.8257(4)
C2 C 0.2993(4) 0.3837(1) 0.7787(4)
C3 C 0.3258(4) 0.4403(2) 0.8672(4)
C4 C 0.3948(3) 0.4175(1) 1.0064(4)
C5 C 0.2074(4) 0.4764(2) 0.9018(4)
C6 C 0.3914(3) 0.2780(1) 0.8158(4)
C7 C 0.4667(4) 0.2447(2) 0.7184(4)
C8 C 0.4437(4) 0.1841(2) 0.7020(4)
C9 C 0.3473(4) 0.1566(2) 0.7862(5)
C10 C 0.2725(4) 0.1897(2) 0.8847(4)
C11 C 0.2937(3) 0.2504(2) 0.9000(4)
H1 H 0.3001(4) 0.3914(1) 0.6697(4)
H2 H 0.2132(4) 0.3657(1) 0.8068(4)
H3 H 0.5350(4) 0.2632(2) 0.6620(4)
H4 H 0.4946(4) 0.1617(2) 0.6325(4)
H5 H 0.3324(4) 0.1150(2) 0.7764(5)
H6 H 0.2058(4) 0.1708(2) 0.9428(4)
H7 H 0.2415(3) 0.2730(2) 0.9680(4)
H8 H 0.5024(39) 0.3530(13) 0.7675(41)
H9 H 0.3869(35) 0.4669(15) 0.8203(40)
loop_
_geom_bond_atom_site_label_1
_geom_bond_atom_site_label_2
_geom_bond_site_symmetry_1
_geom_bond_site_symmetry_2
F1 C5 1_555 1_555
F2 C5 1_555 1_555
F3 C5 1_555 1_555
O1 C4 1_555 1_555
O2 C1 1_555 1_555
C1 C2 1_555 1_555
C2 C3 1_555 1_555
C3 C4 1_555 1_555
C4 O2 1_555 1_555
C5 C3 1_555 1_555
C6 C1 1_555 1_555
C7 C6 1_555 1_555
C8 C7 1_555 1_555
C9 C8 1_555 1_555
C10 C9 1_555 1_555
C11 C6 1_555 1_555
H1 C2 1_555 1_555
H2 C2 1_555 1_555
H3 C7 1_555 1_555
H4 C8 1_555 1_555
H5 C9 1_555 1_555
H6 C10 1_555 1_555
H7 C11 1_555 1_555
H8 C1 1_555 1_555
H9 C3 1_555 1_555
C10 C11 1_555 1_555

#END
