
#######################################################################
#
#                 Cambridge Crystallographic Data Centre
#                                CCDC 
#
#######################################################################
#
# If this CIF has been generated from an entry in the Cambridge 
# Structural Database, then it will include bibliographic, chemical, 
# crystal, experimental, refinement or atomic coordinate data resulting 
# from the CCDC's data processing and validation procedures.
#
#######################################################################

data_ZUDMES
_chemical_formula_moiety         'C94 H70 N8'
_chemical_name_systematic        
"2,15,21,34-tetra-t-butyl-6,11,25,30-tetrahydro-6,11:25,30-[1,2]-dibenzeno-naphtho[2,3-i]naphtho[1''''',2''''':6'''',7'''']quinoxalino[2'''',3'''':9''',10''']phenanthro[4''',5''':5'',6'',7'',8'']quinoxalino[2'',3'':6',7']quinoxalino[2',3':9,10]phenanthro[4,5-abc]phenazine unknown solvate"
_symmetry_cell_setting           triclinic
_symmetry_space_group_name_H-M   'P -1'
_symmetry_Int_Tables_number      2
_space_group_name_Hall           '-P 1'
loop_
_symmetry_equiv_pos_site_id
_symmetry_equiv_pos_as_xyz
1 x,y,z
2 -x,-y,-z
_cell_length_a                   19.147(6)
_cell_length_b                   20.818(7)
_cell_length_c                   26.276(9)
_cell_angle_alpha                104.155(8)
_cell_angle_beta                 106.234(8)
_cell_angle_gamma                92.153(9)
_cell_volume                     9687.41
_exptl_crystal_colour            orange
_exptl_crystal_description       plate
_cell_formula_units_Z            4
loop_
_atom_site_label
_atom_site_type_symbol
_atom_site_fract_x
_atom_site_fract_y
_atom_site_fract_z
C1 C -0.4869(9) 0.1773(9) 0.0908(7)
H1 H -0.5034 0.1425 0.1066
C2 C -0.4457(9) 0.2679(9) 0.0509(7)
H2 H -0.4304 0.3025 0.0344
C3 C 0.8745(10) 0.6201(10) 0.9438(8)
H3 H 0.8928 0.6497 0.9245
C4 C 0.8302(11) 0.5455(10) 0.9943(8)
H4 H 0.8130 0.5161 1.0143
C5 C 0.1230(9) 0.4177(10) 0.5928(7)
H5 H 0.1077 0.3850 0.6084
C6 C 0.0856(10) 0.4262(10) 0.5390(7)
N1 N 0.0217(9) 0.3836(9) 0.5103(7)
C7 C -0.0164(10) 0.3880(10) 0.4607(8)
C8 C -0.0848(10) 0.3456(10) 0.4309(8)
C9 C -0.1227(9) 0.3472(9) 0.3775(7)
C10 C -0.1882(10) 0.3080(10) 0.3511(7)
C11 C -0.2303(10) 0.3089(10) 0.2948(7)
N2 N -0.2931(9) 0.2701(9) 0.2691(7)
C12 C -0.3289(10) 0.2745(11) 0.2175(8)
C13 C -0.3903(11) 0.2267(11) 0.1867(8)
H6 H -0.4061 0.1938 0.2017
C14 C -0.4257(10) 0.2298(10) 0.1347(7)
C15 C -0.4019(10) 0.2805(10) 0.1129(7)
C16 C -0.3417(10) 0.3235(10) 0.1411(7)
H7 H -0.3245 0.3550 0.1254
C17 C -0.3042(11) 0.3201(11) 0.1959(8)
N3 N -0.2418(9) 0.3612(9) 0.2220(7)
C18 C -0.2035(9) 0.3557(9) 0.2708(7)
C19 C -0.1339(10) 0.3972(10) 0.3006(8)
C20 C -0.0957(10) 0.3943(10) 0.3532(7)
C21 C -0.0314(10) 0.4359(10) 0.3801(7)
C22 C 0.0109(10) 0.4347(10) 0.4359(7)
N4 N 0.0718(9) 0.4758(9) 0.4624(7)
C23 C 0.1092(10) 0.4737(10) 0.5159(8)
C24 C 0.1734(10) 0.5196(10) 0.5411(7)
H8 H 0.1904 0.5503 0.5245
C25 C 0.2092(11) 0.5131(11) 0.5952(8)
N5 N 0.2737(9) 0.5555(9) 0.6219(7)
C26 C 0.3147(9) 0.5492(10) 0.6705(7)
C27 C 0.3839(9) 0.5902(10) 0.6975(8)
C28 C 0.4301(9) 0.5791(10) 0.7452(7)
C29 C 0.5000(10) 0.6115(12) 0.7656(8)
C30 C 0.5518(10) 0.5999(11) 0.8147(8)
N6 N 0.6211(9) 0.6246(9) 0.8291(7)
C31 C 0.6666(9) 0.6062(11) 0.8710(8)
C32 C 0.7425(9) 0.6297(11) 0.8847(8)
H9 H 0.7596 0.6570 0.8655
C33 C 0.7890(10) 0.6107(11) 0.9265(9)
C34 C 0.7644(10) 0.5660(12) 0.9535(9)
C35 C 0.6922(10) 0.5464(12) 0.9422(9)
H10 H 0.6751 0.5208 0.9625
C36 C 0.6430(9) 0.5661(12) 0.8981(9)
N7 N 0.5718(9) 0.5434(9) 0.8862(7)
C37 C 0.5256(9) 0.5586(12) 0.8435(9)
C38 C 0.4487(9) 0.5308(11) 0.8227(8)
C39 C 0.4025(9) 0.5384(10) 0.7736(7)
C40 C 0.3338(9) 0.5031(10) 0.7517(7)
C41 C 0.2875(10) 0.5050(10) 0.6974(7)
N8 N 0.2264(9) 0.4642(9) 0.6721(7)
C42 C 0.1860(10) 0.4656(10) 0.6188(8)
C43 C 0.4206(10) 0.4931(11) 0.8512(8)
H11 H 0.4517 0.4878 0.8847
C44 C 0.3490(11) 0.4630(11) 0.8324(8)
C45 C 0.3036(10) 0.4670(10) 0.7809(8)
H12 H 0.2546 0.4461 0.7666
C46 C -0.1111(10) 0.2992(10) 0.4539(8)
H13 H -0.0824 0.2938 0.4882
C47 C -0.1797(11) 0.2603(11) 0.4268(9)
C48 C -0.2180(10) 0.2650(10) 0.3747(8)
H14 H -0.2639 0.2391 0.3554
C49 C -0.1115(10) 0.4451(10) 0.2780(8)
H15 H -0.1428 0.4509 0.2446
C50 C -0.0452(10) 0.4847(10) 0.3025(8)
C51 C -0.0049(11) 0.4816(10) 0.3561(8)
H16 H 0.0395 0.5100 0.3756
C52 C 0.4081(10) 0.6351(10) 0.6720(8)
H17 H 0.3763 0.6420 0.6394
C53 C 0.4793(11) 0.6702(10) 0.6946(9)
C54 C 0.5239(11) 0.6580(12) 0.7424(9)
H18 H 0.5714 0.6819 0.7593
C55 C 0.3161(11) 0.4304(11) 0.8690(9)
C56 C 0.2977(13) 0.4858(12) 0.9105(9)
H19 H 0.2625 0.5114 0.8913
H20 H 0.2761 0.4667 0.9340
H21 H 0.3423 0.5153 0.9332
C57 C 0.3694(14) 0.3918(14) 0.8982(11)
H22 H 0.4151 0.4207 0.9192
H23 H 0.3490 0.3750 0.9235
H24 H 0.3792 0.3541 0.8715
C58 C 0.2474(12) 0.3844(12) 0.8377(11)
H25 H 0.2111 0.4085 0.8179
H26 H 0.2582 0.3468 0.8114
H27 H 0.2280 0.3677 0.8634
C59 C -0.2078(12) 0.2141(11) 0.4567(9)
C60 C -0.2255(19) 0.2557(17) 0.5057(12)
H28 H -0.2631 0.2840 0.4937
H29 H -0.2437 0.2265 0.5245
H30 H -0.1813 0.2839 0.5310
C61 C -0.1507(14) 0.1719(14) 0.4761(12)
H31 H -0.1058 0.2004 0.4999
H32 H -0.1681 0.1450 0.4969
H33 H -0.1404 0.1424 0.4444
C62 C -0.2732(13) 0.1662(13) 0.4212(11)
H34 H -0.3133 0.1910 0.4069
H35 H -0.2608 0.1368 0.3905
H36 H -0.2885 0.1395 0.4430
C63 C -0.0210(11) 0.5398(11) 0.2792(9)
C64 C 0.0596(12) 0.5630(16) 0.3029(13)
H37 H 0.0875 0.5248 0.2969
H38 H 0.0728 0.5956 0.2848
H39 H 0.0711 0.5839 0.3424
C65 C -0.0625(13) 0.5987(11) 0.2887(11)
H40 H -0.0545 0.6168 0.3282
H41 H -0.0454 0.6330 0.2738
H42 H -0.1148 0.5850 0.2702
C66 C -0.0346(16) 0.5136(15) 0.2184(9)
H43 H -0.0079 0.4748 0.2110
H44 H -0.0871 0.5005 0.2003
H45 H -0.0176 0.5485 0.2039
C67 C 0.4988(12) 0.7268(12) 0.6708(10)
C68 C 0.5786(13) 0.7520(17) 0.6912(14)
H46 H 0.5942 0.7668 0.7315
H47 H 0.6068 0.7162 0.6791
H48 H 0.5870 0.7896 0.6765
C69 C 0.4767(18) 0.7047(17) 0.6094(10)
H49 H 0.4245 0.6879 0.5952
H50 H 0.4856 0.7425 0.5951
H51 H 0.5055 0.6691 0.5976
C70 C 0.4578(17) 0.7860(13) 0.6846(13)
H52 H 0.4699 0.8030 0.7246
H53 H 0.4717 0.8210 0.6691
H54 H 0.4050 0.7722 0.6689
C71 C -0.4542(10) 0.1489(9) 0.0478(7)
C72 C -0.4443(11) 0.0854(9) 0.0253(8)
H55 H -0.4618 0.0516 0.0387
C73 C -0.4109(12) 0.0654(10) -0.0155(9)
H56 H -0.4042 0.0201 -0.0291
C74 C -0.3873(11) 0.1170(11) -0.0357(8)
H57 H -0.3632 0.1071 -0.0633
C75 C -0.3994(10) 0.1807(10) -0.0151(8)
H58 H -0.3851 0.2135 -0.0309
C76 C -0.4298(10) 0.2016(9) 0.0256(7)
C77 C -0.5230(9) 0.2636(11) 0.0453(9)
C78 C -0.5741(12) 0.3024(12) 0.0240(11)
H59 H -0.5585 0.3380 0.0115
C79 C -0.6463(12) 0.2916(13) 0.0203(11)
H60 H -0.6804 0.3184 0.0043
C80 C -0.6699(11) 0.2404(14) 0.0404(12)
H61 H -0.7204 0.2304 0.0360
C81 C -0.6188(11) 0.2056(13) 0.0663(12)
H62 H -0.6342 0.1747 0.0834
C82 C -0.5462(10) 0.2132(11) 0.0688(9)
C83 C 0.9006(11) 0.5560(9) 0.9329(8)
C84 C 0.9458(11) 0.5281(11) 0.9044(8)
H63 H 0.9668 0.5559 0.8875
C85 C 0.9646(14) 0.4648(12) 0.8971(11)
H64 H 0.9925 0.4486 0.8729
C86 C 0.9416(15) 0.4232(12) 0.9267(11)
H65 H 0.9551 0.3794 0.9250
C87 C 0.8988(12) 0.4515(10) 0.9574(9)
H66 H 0.8811 0.4241 0.9762
C88 C 0.8783(11) 0.5132(10) 0.9647(8)
C89 C 0.8680(15) 0.6078(12) 1.0316(9)
C90 C 0.8914(19) 0.6263(15) 1.0883(9)
H67 H 0.8785 0.5973 1.1079
C91 C 0.9330(18) 0.6861(16) 1.1166(10)
H68 H 0.9576 0.6946 1.1548
C92 C 0.939(3) 0.7355(15) 1.0885(13)
H69 H 0.9501 0.7815 1.1072
C93 C 0.928(2) 0.7129(14) 1.0327(12)
H70 H 0.9427 0.7423 1.0140
C94 C 0.8979(14) 0.6495(12) 1.0035(8)
C95 C 1.3817(9) 1.0171(9) 0.7486(8)
H71 H 1.3621 1.0228 0.7107
C96 C 1.4330(9) 1.0031(8) 0.8450(7)
H72 H 1.4535 0.9981 0.8830
C97 C 0.1154(10) 0.1593(9) 0.7143(8)
H73 H 0.1375 0.1518 0.7514
C98 C 0.0574(10) 0.1774(9) 0.6199(8)
H74 H 0.0345 0.1843 0.5828
C99 C 0.7193(10) 0.5908(13) 0.6718(10)
H75 H 0.6953 0.6056 0.6406
C100 C 0.7944(11) 0.6097(13) 0.7033(9)
N9 N 0.8329(10) 0.6481(11) 0.6812(8)
C101 C 0.9030(10) 0.6711(12) 0.7090(8)
C102 C 0.9435(10) 0.7147(10) 0.6890(8)
C103 C 1.0142(9) 0.7434(10) 0.7197(7)
C104 C 1.0505(9) 0.7866(10) 0.7004(8)
C105 C 1.1238(10) 0.8209(11) 0.7324(7)
N10 N 1.1588(8) 0.8613(9) 0.7128(6)
C106 C 1.2256(10) 0.8909(11) 0.7465(8)
C107 C 1.2635(10) 0.9349(10) 0.7267(8)
H76 H 1.2434 0.9412 0.6911
C108 C 1.3293(10) 0.9673(10) 0.7603(8)
C109 C 1.3599(10) 0.9572(10) 0.8138(8)
C110 C 1.3234(9) 0.9176(10) 0.8335(8)
H77 H 1.3426 0.9128 0.8697
C111 C 1.2543(10) 0.8832(11) 0.7981(8)
N11 N 1.2222(8) 0.8400(9) 0.8181(6)
C112 C 1.1561(10) 0.8097(10) 0.7857(7)
C113 C 1.1155(10) 0.7633(10) 0.8039(8)
C114 C 1.0480(9) 0.7304(10) 0.7720(7)
C115 C 1.0108(10) 0.6892(11) 0.7925(8)
C116 C 0.9366(10) 0.6576(11) 0.7616(8)
N12 N 0.9010(9) 0.6193(10) 0.7821(7)
C117 C 0.8285(11) 0.5940(12) 0.7525(9)
C118 C 0.7956(10) 0.5470(12) 0.7732(10)
H78 H 0.8206 0.5290 0.8023
C119 C 0.7192(10) 0.5310(12) 0.7434(9)
N13 N 0.6807(9) 0.4888(9) 0.7629(7)
C120 C 0.6104(9) 0.4685(10) 0.7368(7)
C121 C 0.5694(10) 0.4245(11) 0.7559(8)
C122 C 0.4971(9) 0.4006(10) 0.7275(7)
C123 C 0.4603(9) 0.3578(11) 0.7462(8)
C124 C 0.3829(9) 0.3332(12) 0.7181(8)
N14 N 0.3455(9) 0.2964(9) 0.7387(7)
C125 C 0.2745(10) 0.2749(12) 0.7095(8)
C126 C 0.2365(11) 0.2332(12) 0.7315(9)
H79 H 0.2591 0.2233 0.7653
C127 C 0.1668(11) 0.2088(12) 0.7018(9)
C128 C 0.1346(10) 0.2183(12) 0.6481(9)
C129 C 0.1714(10) 0.2566(11) 0.6270(8)
H80 H 0.1490 0.2661 0.5930
C130 C 0.2450(10) 0.2821(12) 0.6580(8)
N15 N 0.2813(9) 0.3208(9) 0.6371(7)
C131 C 0.3495(10) 0.3459(11) 0.6660(8)
C132 C 0.3927(10) 0.3884(11) 0.6455(8)
C133 C 0.4627(9) 0.4162(10) 0.6765(7)
C134 C 0.5009(9) 0.4565(11) 0.6560(8)
C135 C 0.5758(9) 0.4841(11) 0.6849(8)
N16 N 0.6110(9) 0.5244(9) 0.6659(7)
C136 C 0.6852(10) 0.5465(12) 0.6941(9)
C137 C 0.3612(11) 0.3987(11) 0.5939(8)
H81 H 0.3128 0.3788 0.5735
C138 C 0.3984(10) 0.4373(10) 0.5718(7)
C139 C 0.4694(10) 0.4677(11) 0.6043(8)
H82 H 0.4959 0.4960 0.5911
C140 C 0.9092(11) 0.7285(11) 0.6381(8)
H83 H 0.8603 0.7098 0.6178
C141 C 0.9478(10) 0.7701(11) 0.6177(8)
C142 C 1.0183(10) 0.7989(11) 0.6496(8)
H84 H 1.0448 0.8273 0.6365
C143 C 1.1491(10) 0.7505(10) 0.8543(8)
H85 H 1.1975 0.7706 0.8745
C144 C 1.1136(10) 0.7094(10) 0.8752(8)
C145 C 1.0426(10) 0.6776(11) 0.8443(8)
H86 H 1.0169 0.6493 0.8581
C146 C 0.6059(11) 0.4043(11) 0.8031(8)
H87 H 0.6552 0.4218 0.8230
C147 C 0.5688(11) 0.3581(11) 0.8204(8)
C148 C 0.4947(11) 0.3395(12) 0.7934(9)
H88 H 0.4670 0.3135 0.8077
C149 C 0.3706(10) 0.4482(10) 0.5133(8)
C150 C 0.2946(10) 0.4127(11) 0.4844(8)
H89 H 0.2615 0.4304 0.5056
H90 H 0.2773 0.4198 0.4476
H91 H 0.2954 0.3649 0.4813
C151 C 0.3669(12) 0.5209(10) 0.5161(9)
H92 H 0.3352 0.5389 0.5384
H93 H 0.4161 0.5451 0.5328
H94 H 0.3469 0.5262 0.4789
C152 C 0.4189(11) 0.4194(12) 0.4793(9)
H95 H 0.4208 0.3721 0.4779
H96 H 0.3991 0.4243 0.4419
H97 H 0.4684 0.4432 0.4959
C153 C 0.9089(10) 0.7913(10) 0.5650(8)
C154 C 0.8419(10) 0.7437(10) 0.5300(8)
H98 H 0.8562 0.6989 0.5189
H99 H 0.8073 0.7427 0.5512
H100 H 0.8187 0.7584 0.4972
C155 C 0.8859(13) 0.8596(10) 0.5815(10)
H101 H 0.8534 0.8588 0.6044
H102 H 0.9293 0.8915 0.6025
H103 H 0.8599 0.8728 0.5486
C156 C 0.9588(11) 0.7918(12) 0.5298(9)
H104 H 0.9736 0.7472 0.5191
H105 H 0.9330 0.8050 0.4967
H106 H 1.0023 0.8237 0.5506
C157 C 1.1481(10) 0.6928(10) 0.9305(8)
C158 C 1.0994(12) 0.7086(12) 0.9669(9)
H107 H 1.0917 0.7558 0.9730
H108 H 1.0521 0.6810 0.9491
H109 H 1.1226 0.6993 1.0022
C159 C 1.1618(12) 0.6211(10) 0.9197(10)
H110 H 1.1937 0.6127 0.8959
H111 H 1.1856 0.6110 0.9545
H112 H 1.1152 0.5927 0.9015
C160 C 1.2205(10) 0.7344(11) 0.9619(9)
H113 H 1.2132 0.7818 0.9696
H114 H 1.2408 0.7227 0.9966
H115 H 1.2546 0.7259 0.9399
C161 C 0.6063(10) 0.3338(11) 0.8720(8)
C162 C 0.6866(10) 0.3586(13) 0.8944(10)
H116 H 0.6929 0.4075 0.9048
H117 H 0.7085 0.3426 0.9268
H118 H 0.7107 0.3418 0.8662
C163 C 0.5710(11) 0.3592(12) 0.9167(8)
H119 H 0.5761 0.4080 0.9266
H120 H 0.5190 0.3420 0.9033
H121 H 0.5951 0.3439 0.9491
C164 C 0.5988(13) 0.2590(10) 0.8566(10)
H122 H 0.5468 0.2417 0.8419
H123 H 0.6234 0.2429 0.8287
H124 H 0.6212 0.2437 0.8893
C165 C 1.4527(10) 0.9926(12) 0.7570(8)
C166 C 1.4959(13) 0.9767(16) 0.7231(9)
H125 H 1.4774 0.9811 0.6867
C167 C 1.5635(13) 0.9550(13) 0.7372(10)
H126 H 1.5907 0.9457 0.7116
C168 C 1.5922(12) 0.9465(15) 0.7908(11)
H127 H 1.6386 0.9310 0.8022
C169 C 1.5498(13) 0.9617(16) 0.8253(10)
H128 H 1.5690 0.9569 0.8615
C170 C 1.4823(10) 0.9832(12) 0.8122(8)
C171 C 1.4196(11) 1.0714(8) 0.8457(8)
C172 C 1.4274(11) 1.1258(9) 0.8886(8)
H129 H 1.4444 1.1200 0.9246
C173 C 1.4128(12) 1.1879(10) 0.8840(9)
H130 H 1.4203 1.2240 0.9158
C174 C 1.3864(13) 1.1975(10) 0.8309(9)
H131 H 1.3759 1.2400 0.8255
C175 C 1.3765(12) 1.1423(10) 0.7875(8)
H132 H 1.3587 1.1486 0.7517
C176 C 1.3896(11) 1.0802(9) 0.7908(8)
C177 C 0.1040(14) 0.0976(10) 0.6707(8)
C178 C 0.1103(16) 0.0338(11) 0.6731(10)
H133 H 0.1243 0.0259 0.7085
C179 C 0.0982(18) -0.0204(12) 0.6285(12)
H134 H 0.1085 -0.0634 0.6328
C180 C 0.0694(18) -0.0092(12) 0.5753(11)
H135 H 0.0629 -0.0441 0.5429
C181 C 0.0514(15) 0.0528(12) 0.5725(9)
H136 H 0.0252 0.0581 0.5376
C182 C 0.0684(14) 0.1079(10) 0.6164(9)
C183 C 0.0137(11) 0.1991(12) 0.6564(8)
C184 C -0.0512(12) 0.2257(14) 0.6487(10)
H137 H -0.0734 0.2314 0.6132
C185 C -0.0876(14) 0.2449(17) 0.6869(12)
H138 H -0.1311 0.2660 0.6792
C186 C -0.0570(14) 0.2316(16) 0.7388(11)
H139 H -0.0815 0.2401 0.7662
C187 C 0.0090(14) 0.2062(15) 0.7480(9)
H140 H 0.0302 0.2006 0.7837
C188 C 0.0474(11) 0.1880(13) 0.7111(9)
loop_
_geom_bond_atom_site_label_1
_geom_bond_atom_site_label_2
_geom_bond_site_symmetry_1
_geom_bond_site_symmetry_2
C1 H1 1_555 1_555
C2 H2 1_555 1_555
C3 H3 1_555 1_555
C4 H4 1_555 1_555
C5 H5 1_555 1_555
C6 C5 1_555 1_555
N1 C6 1_555 1_555
C7 N1 1_555 1_555
C8 C7 1_555 1_555
C9 C8 1_555 1_555
C10 C9 1_555 1_555
C11 C10 1_555 1_555
N2 C11 1_555 1_555
C12 N2 1_555 1_555
C13 C12 1_555 1_555
H6 C13 1_555 1_555
C14 C1 1_555 1_555
C15 C2 1_555 1_555
C16 C15 1_555 1_555
H7 C16 1_555 1_555
C17 C12 1_555 1_555
N3 C17 1_555 1_555
C18 C11 1_555 1_555
C19 C18 1_555 1_555
C20 C9 1_555 1_555
C21 C20 1_555 1_555
C22 C7 1_555 1_555
N4 C22 1_555 1_555
C23 C6 1_555 1_555
C24 C23 1_555 1_555
H8 C24 1_555 1_555
C25 C24 1_555 1_555
N5 C25 1_555 1_555
C26 N5 1_555 1_555
C27 C26 1_555 1_555
C28 C27 1_555 1_555
C29 C28 1_555 1_555
C30 C29 1_555 1_555
N6 C30 1_555 1_555
C31 N6 1_555 1_555
C32 C31 1_555 1_555
H9 C32 1_555 1_555
C33 C3 1_555 1_555
C34 C4 1_555 1_555
C35 C34 1_555 1_555
H10 C35 1_555 1_555
C36 C31 1_555 1_555
N7 C36 1_555 1_555
C37 C30 1_555 1_555
C38 C37 1_555 1_555
C39 C28 1_555 1_555
C40 C39 1_555 1_555
C41 C26 1_555 1_555
N8 C41 1_555 1_555
C42 C5 1_555 1_555
C43 C38 1_555 1_555
H11 C43 1_555 1_555
C44 C43 1_555 1_555
C45 C40 1_555 1_555
H12 C45 1_555 1_555
C46 C8 1_555 1_555
H13 C46 1_555 1_555
C47 C46 1_555 1_555
C48 C10 1_555 1_555
H14 C48 1_555 1_555
C49 C19 1_555 1_555
H15 C49 1_555 1_555
C50 C49 1_555 1_555
C51 C21 1_555 1_555
H16 C51 1_555 1_555
C52 C27 1_555 1_555
H17 C52 1_555 1_555
C53 C52 1_555 1_555
C54 C29 1_555 1_555
H18 C54 1_555 1_555
C55 C44 1_555 1_555
C56 C55 1_555 1_555
H19 C56 1_555 1_555
H20 C56 1_555 1_555
H21 C56 1_555 1_555
C57 C55 1_555 1_555
H22 C57 1_555 1_555
H23 C57 1_555 1_555
H24 C57 1_555 1_555
C58 C55 1_555 1_555
H25 C58 1_555 1_555
H26 C58 1_555 1_555
H27 C58 1_555 1_555
C59 C47 1_555 1_555
C60 C59 1_555 1_555
H28 C60 1_555 1_555
H29 C60 1_555 1_555
H30 C60 1_555 1_555
C61 C59 1_555 1_555
H31 C61 1_555 1_555
H32 C61 1_555 1_555
H33 C61 1_555 1_555
C62 C59 1_555 1_555
H34 C62 1_555 1_555
H35 C62 1_555 1_555
H36 C62 1_555 1_555
C63 C50 1_555 1_555
C64 C63 1_555 1_555
H37 C64 1_555 1_555
H38 C64 1_555 1_555
H39 C64 1_555 1_555
C65 C63 1_555 1_555
H40 C65 1_555 1_555
H41 C65 1_555 1_555
H42 C65 1_555 1_555
C66 C63 1_555 1_555
H43 C66 1_555 1_555
H44 C66 1_555 1_555
H45 C66 1_555 1_555
C67 C53 1_555 1_555
C68 C67 1_555 1_555
H46 C68 1_555 1_555
H47 C68 1_555 1_555
H48 C68 1_555 1_555
C69 C67 1_555 1_555
H49 C69 1_555 1_555
H50 C69 1_555 1_555
H51 C69 1_555 1_555
C70 C67 1_555 1_555
H52 C70 1_555 1_555
H53 C70 1_555 1_555
H54 C70 1_555 1_555
C71 C1 1_555 1_555
C72 C71 1_555 1_555
H55 C72 1_555 1_555
C73 C72 1_555 1_555
H56 C73 1_555 1_555
C74 C73 1_555 1_555
H57 C74 1_555 1_555
C75 C74 1_555 1_555
H58 C75 1_555 1_555
C76 C2 1_555 1_555
C77 C2 1_555 1_555
C78 C77 1_555 1_555
H59 C78 1_555 1_555
C79 C78 1_555 1_555
H60 C79 1_555 1_555
C80 C79 1_555 1_555
H61 C80 1_555 1_555
C81 C80 1_555 1_555
H62 C81 1_555 1_555
C82 C1 1_555 1_555
C83 C3 1_555 1_555
C84 C83 1_555 1_555
H63 C84 1_555 1_555
C85 C84 1_555 1_555
H64 C85 1_555 1_555
C86 C85 1_555 1_555
H65 C86 1_555 1_555
C87 C86 1_555 1_555
H66 C87 1_555 1_555
C88 C4 1_555 1_555
C89 C4 1_555 1_555
C90 C89 1_555 1_555
H67 C90 1_555 1_555
C91 C90 1_555 1_555
H68 C91 1_555 1_555
C92 C91 1_555 1_555
H69 C92 1_555 1_555
C93 C92 1_555 1_555
H70 C93 1_555 1_555
C94 C3 1_555 1_555
C95 H71 1_555 1_555
C96 H72 1_555 1_555
C97 H73 1_555 1_555
C98 H74 1_555 1_555
C99 H75 1_555 1_555
C100 C99 1_555 1_555
N9 C100 1_555 1_555
C101 N9 1_555 1_555
C102 C101 1_555 1_555
C103 C102 1_555 1_555
C104 C103 1_555 1_555
C105 C104 1_555 1_555
N10 C105 1_555 1_555
C106 N10 1_555 1_555
C107 C106 1_555 1_555
H76 C107 1_555 1_555
C108 C95 1_555 1_555
C109 C96 1_555 1_555
C110 C109 1_555 1_555
H77 C110 1_555 1_555
C111 C106 1_555 1_555
N11 C111 1_555 1_555
C112 C105 1_555 1_555
C113 C112 1_555 1_555
C114 C103 1_555 1_555
C115 C114 1_555 1_555
C116 C101 1_555 1_555
N12 C116 1_555 1_555
C117 C100 1_555 1_555
C118 C117 1_555 1_555
H78 C118 1_555 1_555
C119 C118 1_555 1_555
N13 C119 1_555 1_555
C120 N13 1_555 1_555
C121 C120 1_555 1_555
C122 C121 1_555 1_555
C123 C122 1_555 1_555
C124 C123 1_555 1_555
N14 C124 1_555 1_555
C125 N14 1_555 1_555
C126 C125 1_555 1_555
H79 C126 1_555 1_555
C127 C97 1_555 1_555
C128 C98 1_555 1_555
C129 C128 1_555 1_555
H80 C129 1_555 1_555
C130 C125 1_555 1_555
N15 C130 1_555 1_555
C131 C124 1_555 1_555
C132 C131 1_555 1_555
C133 C122 1_555 1_555
C134 C133 1_555 1_555
C135 C120 1_555 1_555
N16 C135 1_555 1_555
C136 C99 1_555 1_555
C137 C132 1_555 1_555
H81 C137 1_555 1_555
C138 C137 1_555 1_555
C139 C134 1_555 1_555
H82 C139 1_555 1_555
C140 C102 1_555 1_555
H83 C140 1_555 1_555
C141 C140 1_555 1_555
C142 C104 1_555 1_555
H84 C142 1_555 1_555
C143 C113 1_555 1_555
H85 C143 1_555 1_555
C144 C143 1_555 1_555
C145 C115 1_555 1_555
H86 C145 1_555 1_555
C146 C121 1_555 1_555
H87 C146 1_555 1_555
C147 C146 1_555 1_555
C148 C123 1_555 1_555
H88 C148 1_555 1_555
C149 C138 1_555 1_555
C150 C149 1_555 1_555
H89 C150 1_555 1_555
H90 C150 1_555 1_555
H91 C150 1_555 1_555
C151 C149 1_555 1_555
H92 C151 1_555 1_555
H93 C151 1_555 1_555
H94 C151 1_555 1_555
C152 C149 1_555 1_555
H95 C152 1_555 1_555
H96 C152 1_555 1_555
H97 C152 1_555 1_555
C153 C141 1_555 1_555
C154 C153 1_555 1_555
H98 C154 1_555 1_555
H99 C154 1_555 1_555
H100 C154 1_555 1_555
C155 C153 1_555 1_555
H101 C155 1_555 1_555
H102 C155 1_555 1_555
H103 C155 1_555 1_555
C156 C153 1_555 1_555
H104 C156 1_555 1_555
H105 C156 1_555 1_555
H106 C156 1_555 1_555
C157 C144 1_555 1_555
C158 C157 1_555 1_555
H107 C158 1_555 1_555
H108 C158 1_555 1_555
H109 C158 1_555 1_555
C159 C157 1_555 1_555
H110 C159 1_555 1_555
H111 C159 1_555 1_555
H112 C159 1_555 1_555
C160 C157 1_555 1_555
H113 C160 1_555 1_555
H114 C160 1_555 1_555
H115 C160 1_555 1_555
C161 C147 1_555 1_555
C162 C161 1_555 1_555
H116 C162 1_555 1_555
H117 C162 1_555 1_555
H118 C162 1_555 1_555
C163 C161 1_555 1_555
H119 C163 1_555 1_555
H120 C163 1_555 1_555
H121 C163 1_555 1_555
C164 C161 1_555 1_555
H122 C164 1_555 1_555
H123 C164 1_555 1_555
H124 C164 1_555 1_555
C165 C95 1_555 1_555
C166 C165 1_555 1_555
H125 C166 1_555 1_555
C167 C166 1_555 1_555
H126 C167 1_555 1_555
C168 C167 1_555 1_555
H127 C168 1_555 1_555
C169 C168 1_555 1_555
H128 C169 1_555 1_555
C170 C96 1_555 1_555
C171 C96 1_555 1_555
C172 C171 1_555 1_555
H129 C172 1_555 1_555
C173 C172 1_555 1_555
H130 C173 1_555 1_555
C174 C173 1_555 1_555
H131 C174 1_555 1_555
C175 C174 1_555 1_555
H132 C175 1_555 1_555
C176 C95 1_555 1_555
C177 C97 1_555 1_555
C178 C177 1_555 1_555
H133 C178 1_555 1_555
C179 C178 1_555 1_555
H134 C179 1_555 1_555
C180 C179 1_555 1_555
H135 C180 1_555 1_555
C181 C180 1_555 1_555
H136 C181 1_555 1_555
C182 C98 1_555 1_555
C183 C98 1_555 1_555
C184 C183 1_555 1_555
H137 C184 1_555 1_555
C185 C184 1_555 1_555
H138 C185 1_555 1_555
C186 C185 1_555 1_555
H139 C186 1_555 1_555
C187 C186 1_555 1_555
H140 C187 1_555 1_555
C188 C97 1_555 1_555
C13 C14 1_555 1_555
C14 C15 1_555 1_555
C16 C17 1_555 1_555
N3 C18 1_555 1_555
C19 C20 1_555 1_555
C21 C22 1_555 1_555
N4 C23 1_555 1_555
C25 C42 1_555 1_555
C32 C33 1_555 1_555
C33 C34 1_555 1_555
C35 C36 1_555 1_555
N7 C37 1_555 1_555
C38 C39 1_555 1_555
C40 C41 1_555 1_555
N8 C42 1_555 1_555
C44 C45 1_555 1_555
C47 C48 1_555 1_555
C50 C51 1_555 1_555
C53 C54 1_555 1_555
C71 C76 1_555 1_555
C75 C76 1_555 1_555
C77 C82 1_555 1_555
C81 C82 1_555 1_555
C83 C88 1_555 1_555
C87 C88 1_555 1_555
C89 C94 1_555 1_555
C93 C94 1_555 1_555
C107 C108 1_555 1_555
C108 C109 1_555 1_555
C110 C111 1_555 1_555
N11 C112 1_555 1_555
C113 C114 1_555 1_555
C115 C116 1_555 1_555
N12 C117 1_555 1_555
C119 C136 1_555 1_555
C126 C127 1_555 1_555
C127 C128 1_555 1_555
C129 C130 1_555 1_555
N15 C131 1_555 1_555
C132 C133 1_555 1_555
C134 C135 1_555 1_555
N16 C136 1_555 1_555
C138 C139 1_555 1_555
C141 C142 1_555 1_555
C144 C145 1_555 1_555
C147 C148 1_555 1_555
C165 C170 1_555 1_555
C169 C170 1_555 1_555
C171 C176 1_555 1_555
C175 C176 1_555 1_555
C177 C182 1_555 1_555
C181 C182 1_555 1_555
C183 C188 1_555 1_555
C187 C188 1_555 1_555

#END
