
#######################################################################
#
#                 Cambridge Crystallographic Data Centre
#                                CCDC 
#
#######################################################################
#
# If this CIF has been generated from an entry in the Cambridge 
# Structural Database, then it will include bibliographic, chemical, 
# crystal, experimental, refinement or atomic coordinate data resulting 
# from the CCDC's data processing and validation procedures.
#
#######################################################################

data_ZUDMIW
_chemical_formula_moiety         'C94 H70 N8,6(C6 H4 Cl2)'
_chemical_name_systematic        
"2,15,21,34-tetra-t-butyl-6,11,25,30-tetrahydro-6,11:25,30-[1,2]-dibenzeno-naphtho[2,3-i]naphtho[1''''',2''''':6'''',7'''']quinoxalino[2'''',3'''':9''',10''']phenanthro[4''',5''':5'',6'',7'',8'']quinoxalino[2'',3'':6',7']quinoxalino[2',3':9,10]phenanthro[4,5-abc]phenazine 1,2-dichlorobenzene solvate"
_symmetry_cell_setting           triclinic
_symmetry_space_group_name_H-M   'P -1'
_symmetry_Int_Tables_number      2
_space_group_name_Hall           '-P 1'
loop_
_symmetry_equiv_pos_site_id
_symmetry_equiv_pos_as_xyz
1 x,y,z
2 -x,-y,-z
_cell_length_a                   12.6319(10)
_cell_length_b                   13.7783(11)
_cell_length_c                   16.8980(14)
_cell_angle_alpha                99.7650(10)
_cell_angle_beta                 109.5870(10)
_cell_angle_gamma                93.7070(10)
_cell_volume                     2707.21
_exptl_crystal_colour            orange
_exptl_crystal_description       Prisma
_cell_formula_units_Z            1
loop_
_atom_site_label
_atom_site_type_symbol
_atom_site_fract_x
_atom_site_fract_y
_atom_site_fract_z
C1 C 0.0963(4) 0.0745(4) 0.1816(3)
H1 H 0.1475 0.0492 0.1510
C2 C -0.0390(4) 0.1396(4) 0.2594(3)
H2 H -0.0917 0.1643 0.2889
C3 C 1.0726(4) 0.4571(4) 0.9604(3)
H3 H 1.1214 0.4274 0.9339
C4 C 0.9559(4) 0.4452(4) 0.9151(3)
N1 N 0.9141(3) 0.3905(3) 0.8334(2)
C5 C 0.8038(4) 0.3809(4) 0.7929(3)
C6 C 0.7565(4) 0.3252(3) 0.7044(3)
C7 C 0.6383(4) 0.3177(4) 0.6589(3)
C8 C 0.5956(4) 0.2662(4) 0.5728(3)
C9 C 0.4739(4) 0.2569(3) 0.5252(3)
N2 N 0.4344(3) 0.2091(3) 0.4433(2)
C10 C 0.3215(4) 0.1972(3) 0.4022(3)
C11 C 0.2744(4) 0.1459(4) 0.3143(3)
H4 H 0.3228 0.1235 0.2844
C12 C 0.1609(4) 0.1296(4) 0.2744(3)
C13 C 0.0859(4) 0.1656(4) 0.3166(3)
C14 C 0.1272(4) 0.2169(4) 0.3990(3)
H5 H 0.0770 0.2416 0.4264
C15 C 0.2471(4) 0.2335(4) 0.4444(3)
N3 N 0.2873(3) 0.2834(3) 0.5264(2)
C16 C 0.3991(4) 0.2957(4) 0.5662(3)
C17 C 0.4459(4) 0.3498(4) 0.6558(3)
C18 C 0.5634(4) 0.3598(3) 0.7001(3)
C19 C 0.6066(4) 0.4121(4) 0.7868(3)
C20 C 0.7286(4) 0.4249(3) 0.8337(3)
N4 N 0.7675(3) 0.4761(3) 0.9131(2)
C21 C 0.8821(4) 0.4881(4) 0.9560(3)
C22 C 0.8250(4) 0.2783(4) 0.6650(3)
H6 H 0.9036 0.2824 0.6968
C23 C 0.7833(4) 0.2257(4) 0.5809(3)
C24 C 0.6681(4) 0.2206(4) 0.5356(3)
H7 H 0.6378 0.1851 0.4778
C25 C 0.3749(4) 0.3876(4) 0.6976(3)
H8 H 0.2956 0.3794 0.6666
C26 C 0.4153(4) 0.4369(4) 0.7830(3)
C27 C 0.5330(4) 0.4481(4) 0.8260(3)
H9 H 0.5633 0.4817 0.8843
C28 C 0.8610(4) 0.1684(4) 0.5423(3)
C29 C 0.9822(5) 0.2202(6) 0.5779(4)
H10 H 1.0296 0.1800 0.5539
H11 H 1.0113 0.2286 0.6405
H12 H 0.9839 0.2855 0.5623
C30 C 0.8625(6) 0.0662(5) 0.5672(4)
H13 H 0.9115 0.0278 0.5435
H14 H 0.7854 0.0306 0.5441
H15 H 0.8916 0.0749 0.6298
C31 C 0.8187(5) 0.1547(5) 0.4452(3)
H16 H 0.8717 0.1204 0.4230
H17 H 0.8135 0.2198 0.4292
H18 H 0.7437 0.1150 0.4207
C32 C 0.3389(4) 0.4749(5) 0.8316(3)
C33 C 0.2136(5) 0.4567(6) 0.7743(4)
H19 H 0.1677 0.4810 0.8082
H20 H 0.1907 0.3854 0.7511
H21 H 0.2023 0.4921 0.7271
C34 C 0.3749(6) 0.5865(5) 0.8695(5)
H22 H 0.3281 0.6103 0.9028
H23 H 0.3649 0.6227 0.8228
H24 H 0.4548 0.5978 0.9069
C35 C 0.3530(5) 0.4188(6) 0.9058(4)
H25 H 0.3136 0.4492 0.9428
H26 H 0.4338 0.4228 0.9396
H27 H 0.3207 0.3491 0.8821
C36 C 0.0239(4) 0.1483(4) 0.1391(3)
C37 C 0.0262(5) 0.1831(4) 0.0676(3)
H28 H 0.0762 0.1600 0.0395
C38 C -0.0443(5) 0.2515(5) 0.0369(4)
H29 H -0.0427 0.2755 -0.0122
C39 C -0.1173(5) 0.2848(5) 0.0781(4)
H30 H -0.1650 0.3322 0.0571
C40 C -0.1218(4) 0.2503(4) 0.1494(3)
H31 H -0.1734 0.2722 0.1764
C41 C -0.0491(4) 0.1829(4) 0.1806(3)
C42 C -0.0575(4) 0.0270(4) 0.2296(3)
C43 C -0.1354(4) -0.0377(4) 0.2415(3)
H32 H -0.1855 -0.0133 0.2691
C44 C -0.1404(5) -0.1391(5) 0.2127(4)
H33 H -0.1948 -0.1844 0.2198
C45 C -0.0663(5) -0.1740(5) 0.1737(4)
H34 H -0.0684 -0.2435 0.1556
C46 C 0.0113(5) -0.1084(4) 0.1606(3)
H35 H 0.0607 -0.1326 0.1323
C47 C 0.0161(4) -0.0078(4) 0.1890(3)
C1A C 1.9037(4) 0.9255(4) 1.8184(3)
H1A H 1.8525 0.9508 1.8490
C2A C 2.0390(4) 0.8604(4) 1.7406(3)
H2A H 2.0917 0.8357 1.7111
C3A C 0.9274(4) 0.5429(4) 1.0396(3)
H3A H 0.8786 0.5726 1.0661
C4A C 1.0441(4) 0.5548(4) 1.0849(3)
N1A N 1.0859(3) 0.6095(3) 1.1666(2)
C5A C 1.1962(4) 0.6191(4) 1.2071(3)
C6A C 1.2435(4) 0.6748(3) 1.2956(3)
C7A C 1.3617(4) 0.6823(4) 1.3411(3)
C8A C 1.4044(4) 0.7338(4) 1.4272(3)
C9A C 1.5261(4) 0.7431(3) 1.4748(3)
N2A N 1.5656(3) 0.7909(3) 1.5567(2)
C10A C 1.6785(4) 0.8028(3) 1.5978(3)
C11A C 1.7256(4) 0.8541(4) 1.6857(3)
H4A H 1.6772 0.8765 1.7156
C12A C 1.8391(4) 0.8704(4) 1.7256(3)
C13A C 1.9141(4) 0.8344(4) 1.6834(3)
C14A C 1.8728(4) 0.7831(4) 1.6010(3)
H5A H 1.9230 0.7584 1.5736
C15A C 1.7529(4) 0.7665(4) 1.5556(3)
N3A N 1.7127(3) 0.7166(3) 1.4736(2)
C16A C 1.6009(4) 0.7043(4) 1.4338(3)
C17A C 1.5541(4) 0.6502(4) 1.3442(3)
C18A C 1.4366(4) 0.6402(3) 1.2999(3)
C19A C 1.3934(4) 0.5879(4) 1.2132(3)
C20A C 1.2714(4) 0.5751(3) 1.1663(3)
N4A N 1.2325(3) 0.5239(3) 1.0869(2)
C21A C 1.1179(4) 0.5119(4) 1.0440(3)
C22A C 1.1750(4) 0.7217(4) 1.3350(3)
H6A H 1.0964 0.7176 1.3032
C23A C 1.2167(4) 0.7743(4) 1.4191(3)
C24A C 1.3319(4) 0.7794(4) 1.4644(3)
H7A H 1.3622 0.8149 1.5222
C25A C 1.6251(4) 0.6124(4) 1.3024(3)
H8A H 1.7044 0.6206 1.3334
C26A C 1.5847(4) 0.5631(4) 1.2170(3)
C27A C 1.4670(4) 0.5519(4) 1.1740(3)
H9A H 1.4367 0.5183 1.1157
C28A C 1.1390(4) 0.8316(4) 1.4577(3)
C29A C 1.0178(5) 0.7798(6) 1.4221(4)
H10A H 0.9704 0.8200 1.4461
H11A H 0.9887 0.7714 1.3595
H12A H 1.0161 0.7145 1.4377
C30A C 1.1375(6) 0.9338(5) 1.4328(4)
H13A H 1.0885 0.9722 1.4565
H14A H 1.2146 0.9694 1.4559
H15A H 1.1084 0.9251 1.3702
C31A C 1.1813(5) 0.8453(5) 1.5548(3)
H16A H 1.1283 0.8796 1.5770
H17A H 1.1865 0.7802 1.5708
H18A H 1.2563 0.8850 1.5793
C32A C 1.6611(4) 0.5251(5) 1.1684(3)
C33A C 1.7864(5) 0.5433(6) 1.2257(4)
H19A H 1.8323 0.5190 1.1918
H20A H 1.8093 0.6146 1.2489
H21A H 1.7977 0.5079 1.2729
C34A C 1.6251(6) 0.4135(5) 1.1305(5)
H22A H 1.6719 0.3897 1.0972
H23A H 1.6351 0.3773 1.1772
H24A H 1.5452 0.4022 1.0931
C35A C 1.6470(5) 0.5812(6) 1.0942(4)
H25A H 1.6864 0.5508 1.0572
H26A H 1.5662 0.5772 1.0604
H27A H 1.6793 0.6509 1.1179
C36A C 1.9761(4) 0.8517(4) 1.8609(3)
C37A C 1.9738(5) 0.8169(4) 1.9324(3)
H28A H 1.9238 0.8400 1.9605
C38A C 2.0443(5) 0.7485(5) 1.9631(4)
H29A H 2.0427 0.7245 2.0122
C39A C 2.1173(5) 0.7152(5) 1.9219(4)
H30A H 2.1650 0.6678 1.9429
C40A C 2.1218(4) 0.7497(4) 1.8506(3)
H31A H 2.1734 0.7278 1.8236
C41A C 2.0491(4) 0.8171(4) 1.8194(3)
C42A C 2.0575(4) 0.9730(4) 1.7704(3)
C43A C 2.1354(4) 1.0377(4) 1.7585(3)
H32A H 2.1855 1.0133 1.7309
C44A C 2.1404(5) 1.1391(5) 1.7873(4)
H33A H 2.1948 1.1844 1.7802
C45A C 2.0663(5) 1.1740(5) 1.8263(4)
H34A H 2.0684 1.2435 1.8444
C46A C 1.9887(5) 1.1084(4) 1.8394(3)
H35A H 1.9393 1.1326 1.8677
C47A C 1.9839(4) 1.0078(4) 1.8110(3)
Cl1 Cl 0.6922(2) 0.7005(2) 0.9127(3)
Cl2 Cl 0.6988(5) 0.9181(5) 0.9996(3)
C48 C 0.6031(6) 0.7721(6) 0.8616(5)
C49 C 0.5987(7) 0.8677(6) 0.9018(4)
C50 C 0.5193(8) 0.9241(5) 0.8594(5)
H36 H 0.5163 0.9894 0.8869
C51 C 0.4443(6) 0.8849(6) 0.7767(5)
H37 H 0.3901 0.9235 0.7476
C52 C 0.4488(6) 0.7893(6) 0.7364(4)
H38 H 0.3975 0.7625 0.6799
C53 C 0.5281(7) 0.7329(5) 0.7789(5)
H39 H 0.5312 0.6675 0.7514
Cl3 Cl 0.6750(3) -0.1133(3) 0.3387(2)
Cl4 Cl 0.4766(5) -0.0295(4) 0.3915(3)
C54 C 0.5378(6) -0.1316(8) 0.2673(5)
C55 C 0.4494(7) -0.0970(7) 0.2906(5)
C56 C 0.3396(6) -0.1146(8) 0.2311(7)
H40 H 0.2792 -0.0910 0.2470
C57 C 0.3183(7) -0.1668(10) 0.1482(6)
H41 H 0.2433 -0.1788 0.1075
C58 C 0.4068(9) -0.2014(9) 0.1248(5)
H42 H 0.3922 -0.2370 0.0682
C59 C 0.5165(8) -0.1838(8) 0.1844(6)
H43 H 0.5770 -0.2074 0.1684
Cl7 Cl 0.7466(7) 0.4489(4) 0.4555(3)
Cl8 Cl 0.9788(6) 0.5058(7) 0.5803(7)
C66 C 0.7562(8) 0.5054(9) 0.5558(5)
C67 C 0.8671(7) 0.5290(8) 0.6133(6)
C68 C 0.8885(9) 0.5761(10) 0.6977(6)
H48 H 0.9642 0.5922 0.7369
C69 C 0.7990(13) 0.5996(10) 0.7246(5)
H49 H 0.8136 0.6318 0.7822
C70 C 0.6881(11) 0.5761(9) 0.6671(8)
H50 H 0.6269 0.5922 0.6855
C71 C 0.6667(7) 0.5290(9) 0.5828(7)
H51 H 0.5909 0.5129 0.5435
Cl7A Cl 0.2534(7) 0.5511(4) 0.5445(3)
Cl8A Cl 0.0212(6) 0.4942(7) 0.4197(7)
C66A C 0.2438(8) 0.4946(9) 0.4442(5)
C67A C 0.1329(7) 0.4710(8) 0.3867(6)
C68A C 0.1115(9) 0.4239(10) 0.3023(6)
H48A H 0.0358 0.4078 0.2631
C69A C 0.2010(13) 0.4004(10) 0.2754(5)
H49A H 0.1864 0.3682 0.2178
C70A C 0.3119(11) 0.4239(9) 0.3329(8)
H50A H 0.3731 0.4078 0.3145
C71A C 0.3333(7) 0.4710(9) 0.4172(7)
H51A H 0.4091 0.4871 0.4565
Cl5? Cl 0.5469(5) -0.1901(6) 0.1581(5)
Cl6? Cl 0.2910(5) -0.1698(6) 0.1246(4)
C60? C 0.5052(8) -0.1359(9) 0.2400(7)
C61? C 0.3910(7) -0.1274(9) 0.2231(6)
C62? C 0.3550(7) -0.0849(9) 0.2887(7)
H44? H 0.2769 -0.0791 0.2771
C63? C 0.4330(11) -0.0509(10) 0.3712(6)
H45? H 0.4084 -0.0218 0.4160
C64? C 0.5472(10) -0.0593(10) 0.3881(6)
H46? H 0.6006 -0.0361 0.4444
C65? C 0.5833(7) -0.1019(9) 0.3225(8)
H47? H 0.6613 -0.1077 0.3340
Cl9? Cl 0.6535(12) 0.4470(7) 0.4512(6)
Cl10? Cl 0.5687(9) 0.5553(7) 0.5986(7)
C72? C 0.7447(14) 0.496(3) 0.5539(10)
C73? C 0.7009(13) 0.539(3) 0.6146(12)
C74? C 0.7732(18) 0.580(3) 0.6979(11)
H52? H 0.7433 0.6095 0.7394
C75? C 0.8891(17) 0.576(3) 0.7206(12)
H53? H 0.9385 0.6039 0.7776
C76? C 0.9328(11) 0.533(2) 0.6599(15)
H54? H 1.0120 0.5303 0.6754
C77? C 0.8606(14) 0.492(2) 0.5766(13)
H55? H 0.8905 0.4624 0.5351
Cl11? Cl 0.831(3) 0.591(3) 0.7114(18)
Cl12? Cl 0.9800(12) 0.5371(11) 0.6349(9)
C78? C 0.770(2) 0.560(4) 0.602(2)
C79? C 0.8482(19) 0.538(4) 0.5625(16)
C80? C 0.813(3) 0.477(5) 0.4816(17)
H56? H 0.8671 0.4615 0.4546
C81? C 0.700(4) 0.437(4) 0.440(2)
H57? H 0.6763 0.3954 0.3847
C82? C 0.622(3) 0.459(5) 0.479(3)
H58? H 0.5441 0.4323 0.4510
C83? C 0.656(2) 0.520(5) 0.560(3)
H59? H 0.6027 0.5353 0.5873
loop_
_geom_bond_atom_site_label_1
_geom_bond_atom_site_label_2
_geom_bond_site_symmetry_1
_geom_bond_site_symmetry_2
C1 H1 1_555 1_555
C2 H2 1_555 1_555
C3 H3 1_555 1_555
C4 C3 1_555 1_555
N1 C4 1_555 1_555
C5 N1 1_555 1_555
C6 C5 1_555 1_555
C7 C6 1_555 1_555
C8 C7 1_555 1_555
C9 C8 1_555 1_555
N2 C9 1_555 1_555
C10 N2 1_555 1_555
C11 C10 1_555 1_555
H4 C11 1_555 1_555
C12 C1 1_555 1_555
C13 C2 1_555 1_555
C14 C13 1_555 1_555
H5 C14 1_555 1_555
C15 C10 1_555 1_555
N3 C15 1_555 1_555
C16 C9 1_555 1_555
C17 C16 1_555 1_555
C18 C7 1_555 1_555
C19 C18 1_555 1_555
C20 C5 1_555 1_555
N4 C20 1_555 1_555
C21 C4 1_555 1_555
C22 C6 1_555 1_555
H6 C22 1_555 1_555
C23 C22 1_555 1_555
C24 C8 1_555 1_555
H7 C24 1_555 1_555
C25 C17 1_555 1_555
H8 C25 1_555 1_555
C26 C25 1_555 1_555
C27 C19 1_555 1_555
H9 C27 1_555 1_555
C28 C23 1_555 1_555
C29 C28 1_555 1_555
H10 C29 1_555 1_555
H11 C29 1_555 1_555
H12 C29 1_555 1_555
C30 C28 1_555 1_555
H13 C30 1_555 1_555
H14 C30 1_555 1_555
H15 C30 1_555 1_555
C31 C28 1_555 1_555
H16 C31 1_555 1_555
H17 C31 1_555 1_555
H18 C31 1_555 1_555
C32 C26 1_555 1_555
C33 C32 1_555 1_555
H19 C33 1_555 1_555
H20 C33 1_555 1_555
H21 C33 1_555 1_555
C34 C32 1_555 1_555
H22 C34 1_555 1_555
H23 C34 1_555 1_555
H24 C34 1_555 1_555
C35 C32 1_555 1_555
H25 C35 1_555 1_555
H26 C35 1_555 1_555
H27 C35 1_555 1_555
C36 C1 1_555 1_555
C37 C36 1_555 1_555
H28 C37 1_555 1_555
C38 C37 1_555 1_555
H29 C38 1_555 1_555
C39 C38 1_555 1_555
H30 C39 1_555 1_555
C40 C39 1_555 1_555
H31 C40 1_555 1_555
C41 C2 1_555 1_555
C42 C2 1_555 1_555
C43 C42 1_555 1_555
H32 C43 1_555 1_555
C44 C43 1_555 1_555
H33 C44 1_555 1_555
C45 C44 1_555 1_555
H34 C45 1_555 1_555
C46 C45 1_555 1_555
H35 C46 1_555 1_555
C47 C1 1_555 1_555
Cl1 C48 1_555 1_555
Cl2 C49 1_555 1_555
C48 C49 1_555 1_555
C49 C50 1_555 1_555
C50 H36 1_555 1_555
C51 C50 1_555 1_555
H37 C51 1_555 1_555
C52 C51 1_555 1_555
H38 C52 1_555 1_555
C53 C48 1_555 1_555
H39 C53 1_555 1_555
Cl3 C54 1_555 1_555
Cl4 C55 1_555 1_555
C54 C55 1_555 1_555
C55 C56 1_555 1_555
C56 H40 1_555 1_555
C57 C56 1_555 1_555
H41 C57 1_555 1_555
C58 C57 1_555 1_555
H42 C58 1_555 1_555
C59 C54 1_555 1_555
H43 C59 1_555 1_555
Cl7 C66 1_555 1_555
Cl8 C67 1_555 1_555
C66 C67 1_555 1_555
C67 C68 1_555 1_555
C68 H48 1_555 1_555
C69 C68 1_555 1_555
H49 C69 1_555 1_555
C70 C69 1_555 1_555
H50 C70 1_555 1_555
C71 C66 1_555 1_555
H51 C71 1_555 1_555
C1A H1A 1_555 1_555
C2A H2A 1_555 1_555
C3A C21 1_555 1_555
H3A C3A 1_555 1_555
C4A C3A 1_555 1_555
N1A C4A 1_555 1_555
C5A N1A 1_555 1_555
C6A C5A 1_555 1_555
C7A C6A 1_555 1_555
C8A C7A 1_555 1_555
C9A C8A 1_555 1_555
N2A C9A 1_555 1_555
C10A N2A 1_555 1_555
C11A C10A 1_555 1_555
H4A C11A 1_555 1_555
C12A C1A 1_555 1_555
C13A C2A 1_555 1_555
C14A C13A 1_555 1_555
H5A C14A 1_555 1_555
C15A C10A 1_555 1_555
N3A C15A 1_555 1_555
C16A C9A 1_555 1_555
C17A C16A 1_555 1_555
C18A C7A 1_555 1_555
C19A C18A 1_555 1_555
C20A C5A 1_555 1_555
N4A C20A 1_555 1_555
C21A C3 1_555 1_555
C22A C6A 1_555 1_555
H6A C22A 1_555 1_555
C23A C22A 1_555 1_555
C24A C8A 1_555 1_555
H7A C24A 1_555 1_555
C25A C17A 1_555 1_555
H8A C25A 1_555 1_555
C26A C25A 1_555 1_555
C27A C19A 1_555 1_555
H9A C27A 1_555 1_555
C28A C23A 1_555 1_555
C29A C28A 1_555 1_555
H10A C29A 1_555 1_555
H11A C29A 1_555 1_555
H12A C29A 1_555 1_555
C30A C28A 1_555 1_555
H13A C30A 1_555 1_555
H14A C30A 1_555 1_555
H15A C30A 1_555 1_555
C31A C28A 1_555 1_555
H16A C31A 1_555 1_555
H17A C31A 1_555 1_555
H18A C31A 1_555 1_555
C32A C26A 1_555 1_555
C33A C32A 1_555 1_555
H19A C33A 1_555 1_555
H20A C33A 1_555 1_555
H21A C33A 1_555 1_555
C34A C32A 1_555 1_555
H22A C34A 1_555 1_555
H23A C34A 1_555 1_555
H24A C34A 1_555 1_555
C35A C32A 1_555 1_555
H25A C35A 1_555 1_555
H26A C35A 1_555 1_555
H27A C35A 1_555 1_555
C36A C1A 1_555 1_555
C37A C36A 1_555 1_555
H28A C37A 1_555 1_555
C38A C37A 1_555 1_555
H29A C38A 1_555 1_555
C39A C38A 1_555 1_555
H30A C39A 1_555 1_555
C40A C39A 1_555 1_555
H31A C40A 1_555 1_555
C41A C2A 1_555 1_555
C42A C2A 1_555 1_555
C43A C42A 1_555 1_555
H32A C43A 1_555 1_555
C44A C43A 1_555 1_555
H33A C44A 1_555 1_555
C45A C44A 1_555 1_555
H34A C45A 1_555 1_555
C46A C45A 1_555 1_555
H35A C46A 1_555 1_555
C47A C1A 1_555 1_555
Cl7A C66A 1_555 1_555
Cl8A C67A 1_555 1_555
C66A C67A 1_555 1_555
C67A C68A 1_555 1_555
C68A H48A 1_555 1_555
C69A C68A 1_555 1_555
H49A C69A 1_555 1_555
C70A C69A 1_555 1_555
H50A C70A 1_555 1_555
C71A C66A 1_555 1_555
H51A C71A 1_555 1_555
C11 C12 1_555 1_555
C12 C13 1_555 1_555
C14 C15 1_555 1_555
N3 C16 1_555 1_555
C17 C18 1_555 1_555
C19 C20 1_555 1_555
N4 C21 1_555 1_555
C23 C24 1_555 1_555
C26 C27 1_555 1_555
C36 C41 1_555 1_555
C40 C41 1_555 1_555
C42 C47 1_555 1_555
C46 C47 1_555 1_555
C52 C53 1_555 1_555
C58 C59 1_555 1_555
C70 C71 1_555 1_555
C4A C21A 1_555 1_555
C11A C12A 1_555 1_555
C12A C13A 1_555 1_555
C14A C15A 1_555 1_555
N3A C16A 1_555 1_555
C17A C18A 1_555 1_555
C19A C20A 1_555 1_555
N4A C21A 1_555 1_555
C23A C24A 1_555 1_555
C26A C27A 1_555 1_555
C36A C41A 1_555 1_555
C40A C41A 1_555 1_555
C42A C47A 1_555 1_555
C46A C47A 1_555 1_555
C70A C71A 1_555 1_555

#END
