
#######################################################################
#
#                 Cambridge Crystallographic Data Centre
#                                CCDC 
#
#######################################################################
#
# If this CIF has been generated from an entry in the Cambridge 
# Structural Database, then it will include bibliographic, chemical, 
# crystal, experimental, refinement or atomic coordinate data resulting 
# from the CCDC's data processing and validation procedures.
#
#######################################################################

data_ZUDTAT11
_chemical_formula_moiety         'C32 H44 N2 O2'
_chemical_name_systematic        
2,4-bis(4-(N,N-di-n-butylamino)phenyl)squaraine
_symmetry_cell_setting           monoclinic
_symmetry_space_group_name_H-M   'P 21/c'
_symmetry_Int_Tables_number      14
_space_group_name_Hall           '-P 2ybc'
loop_
_symmetry_equiv_pos_site_id
_symmetry_equiv_pos_as_xyz
1 x,y,z
2 -x,1/2+y,1/2-z
3 -x,-y,-z
4 x,1/2-y,1/2+z
_cell_length_a                   8.9784(2)
_cell_length_b                   19.4936(4)
_cell_length_c                   8.8957(2)
_cell_angle_alpha                90
_cell_angle_beta                 116.2340(10)
_cell_angle_gamma                90
_cell_volume                     1396.57
_exptl_crystal_colour            blue
_exptl_crystal_description       prism
_cell_formula_units_Z            2
loop_
_atom_site_label
_atom_site_type_symbol
_atom_site_fract_x
_atom_site_fract_y
_atom_site_fract_z
O1 O 0.15886(10) -0.07870(4) -0.05083(11)
C1 C 0.07283(13) -0.03591(6) -0.02328(13)
C2 C 0.09425(14) 0.03585(6) 0.03173(13)
C3 C 0.22064(13) 0.08510(6) 0.07506(13)
C4 C 0.37295(13) 0.07032(6) 0.07101(13)
H1 H 0.3894 0.0261 0.0358
C5 C 0.49738(13) 0.11790(6) 0.11638(13)
H2 H 0.5988 0.1061 0.1136
C6 C 0.47650(13) 0.18517(6) 0.16783(13)
C7 C 0.32195(13) 0.20012(6) 0.17016(14)
H3 H 0.3036 0.2445 0.2027
C8 C 0.19995(13) 0.15166(6) 0.12642(13)
H4 H 0.0989 0.1629 0.1306
N1 N 0.59794(11) 0.23329(5) 0.21412(11)
C9 C 0.57140(14) 0.30316(6) 0.25939(14)
H5 H 0.6806 0.3253 0.3239
H6 H 0.5149 0.3005 0.3328
C10 C 0.46804(14) 0.34749(6) 0.10767(14)
H7 H 0.3581 0.3258 0.0436
H8 H 0.5239 0.3501 0.0336
C11 C 0.44391(15) 0.41977(6) 0.15842(14)
H9 H 0.5529 0.4432 0.2110
H10 H 0.4006 0.4168 0.2431
C12 C 0.32474(16) 0.46247(6) 0.01061(16)
H11 H 0.3644 0.4640 -0.0758
H12 H 0.3192 0.5092 0.0486
H13 H 0.2140 0.4417 -0.0360
C13 C 0.75822(13) 0.22197(6) 0.21159(14)
H14 H 0.7871 0.2632 0.1648
H15 H 0.7478 0.1829 0.1366
C14 C 0.89856(14) 0.20718(6) 0.38493(14)
H16 H 1.0052 0.2070 0.3772
H17 H 0.9033 0.2447 0.4618
C15 C 0.87997(15) 0.13926(6) 0.45928(15)
H18 H 0.8831 0.1013 0.3867
H19 H 0.7703 0.1381 0.4606
C16 C 1.01548(17) 0.12769(7) 0.63695(16)
H20 H 1.1245 0.1294 0.6368
H21 H 1.0000 0.0827 0.6771
H22 H 1.0090 0.1636 0.7110
O1B O -0.15886(10) 0.07870(4) 0.05083(11)
C1B C -0.07283(13) 0.03591(6) 0.02328(13)
C2B C -0.09425(14) -0.03585(6) -0.03173(13)
C3B C -0.22064(13) -0.08510(6) -0.07506(13)
C4B C -0.37295(13) -0.07032(6) -0.07101(13)
H1B H -0.3894 -0.0261 -0.0358
C5B C -0.49738(13) -0.11790(6) -0.11638(13)
H2B H -0.5988 -0.1061 -0.1136
C6B C -0.47650(13) -0.18517(6) -0.16783(13)
C7B C -0.32195(13) -0.20012(6) -0.17016(14)
H3B H -0.3036 -0.2445 -0.2027
C8B C -0.19995(13) -0.15166(6) -0.12642(13)
H4B H -0.0989 -0.1629 -0.1306
N1B N -0.59794(11) -0.23329(5) -0.21412(11)
C9B C -0.57140(14) -0.30316(6) -0.25939(14)
H5B H -0.6806 -0.3253 -0.3239
H6B H -0.5149 -0.3005 -0.3328
C10B C -0.46804(14) -0.34749(6) -0.10767(14)
H7B H -0.3581 -0.3258 -0.0436
H8B H -0.5239 -0.3501 -0.0336
C11B C -0.44391(15) -0.41977(6) -0.15842(14)
H9B H -0.5529 -0.4432 -0.2110
H10B H -0.4006 -0.4168 -0.2431
C12B C -0.32474(16) -0.46247(6) -0.01061(16)
H11B H -0.3644 -0.4640 0.0758
H12B H -0.3192 -0.5092 -0.0486
H13B H -0.2140 -0.4417 0.0360
C13B C -0.75822(13) -0.22197(6) -0.21159(14)
H14B H -0.7871 -0.2632 -0.1648
H15B H -0.7478 -0.1829 -0.1366
C14B C -0.89856(14) -0.20718(6) -0.38493(14)
H16B H -1.0052 -0.2070 -0.3772
H17B H -0.9033 -0.2447 -0.4618
C15B C -0.87997(15) -0.13926(6) -0.45928(15)
H18B H -0.8831 -0.1013 -0.3867
H19B H -0.7703 -0.1381 -0.4606
C16B C -1.01548(17) -0.12769(7) -0.63695(16)
H20B H -1.1245 -0.1294 -0.6368
H21B H -1.0000 -0.0827 -0.6771
H22B H -1.0090 -0.1636 -0.7110
loop_
_geom_bond_atom_site_label_1
_geom_bond_atom_site_label_2
_geom_bond_site_symmetry_1
_geom_bond_site_symmetry_2
O1 C1 1_555 1_555
C1 C2 1_555 1_555
C2 C3 1_555 1_555
C3 C4 1_555 1_555
C4 H1 1_555 1_555
C5 C4 1_555 1_555
H2 C5 1_555 1_555
C6 C5 1_555 1_555
C7 C6 1_555 1_555
H3 C7 1_555 1_555
C8 C3 1_555 1_555
H4 C8 1_555 1_555
N1 C6 1_555 1_555
C9 N1 1_555 1_555
H5 C9 1_555 1_555
H6 C9 1_555 1_555
C10 C9 1_555 1_555
H7 C10 1_555 1_555
H8 C10 1_555 1_555
C11 C10 1_555 1_555
H9 C11 1_555 1_555
H10 C11 1_555 1_555
C12 C11 1_555 1_555
H11 C12 1_555 1_555
H12 C12 1_555 1_555
H13 C12 1_555 1_555
C13 N1 1_555 1_555
H14 C13 1_555 1_555
H15 C13 1_555 1_555
C14 C13 1_555 1_555
H16 C14 1_555 1_555
H17 C14 1_555 1_555
C15 C14 1_555 1_555
H18 C15 1_555 1_555
H19 C15 1_555 1_555
C16 C15 1_555 1_555
H20 C16 1_555 1_555
H21 C16 1_555 1_555
H22 C16 1_555 1_555
O1B C1B 1_555 1_555
C1B C2 1_555 1_555
C2B C1 1_555 1_555
C3B C2B 1_555 1_555
C4B C3B 1_555 1_555
H1B C4B 1_555 1_555
C5B C4B 1_555 1_555
H2B C5B 1_555 1_555
C6B C5B 1_555 1_555
C7B C6B 1_555 1_555
H3B C7B 1_555 1_555
C8B C3B 1_555 1_555
H4B C8B 1_555 1_555
N1B C6B 1_555 1_555
C9B N1B 1_555 1_555
H5B C9B 1_555 1_555
H6B C9B 1_555 1_555
C10B C9B 1_555 1_555
H7B C10B 1_555 1_555
H8B C10B 1_555 1_555
C11B C10B 1_555 1_555
H9B C11B 1_555 1_555
H10B C11B 1_555 1_555
C12B C11B 1_555 1_555
H11B C12B 1_555 1_555
H12B C12B 1_555 1_555
H13B C12B 1_555 1_555
C13B N1B 1_555 1_555
H14B C13B 1_555 1_555
H15B C13B 1_555 1_555
C14B C13B 1_555 1_555
H16B C14B 1_555 1_555
H17B C14B 1_555 1_555
C15B C14B 1_555 1_555
H18B C15B 1_555 1_555
H19B C15B 1_555 1_555
C16B C15B 1_555 1_555
H20B C16B 1_555 1_555
H21B C16B 1_555 1_555
H22B C16B 1_555 1_555
C7 C8 1_555 1_555
C1B C2B 1_555 1_555
C7B C8B 1_555 1_555

#END
