
#######################################################################
#
#                 Cambridge Crystallographic Data Centre
#                                CCDC 
#
#######################################################################
#
# If this CIF has been generated from an entry in the Cambridge 
# Structural Database, then it will include bibliographic, chemical, 
# crystal, experimental, refinement or atomic coordinate data resulting 
# from the CCDC's data processing and validation procedures.
#
#######################################################################

data_ZUDWAW
_chemical_formula_moiety         'C14 H12 O2 S3,2(H2 O1)'
_chemical_name_systematic        
'1,9-bis(S-Methylsulfinyl)dibenzothiophene dihydrate'
_symmetry_cell_setting           orthorhombic
_symmetry_space_group_name_H-M   'C 2 2 21'
_symmetry_Int_Tables_number      20
_space_group_name_Hall           'C 2n 2'
loop_
_symmetry_equiv_pos_site_id
_symmetry_equiv_pos_as_xyz
1 x,y,z
2 -x,-y,1/2+z
3 x,-y,-z
4 -x,y,1/2-z
5 1/2+x,1/2+y,z
6 1/2-x,1/2-y,1/2+z
7 1/2+x,1/2-y,-z
8 1/2-x,1/2+y,1/2-z
_cell_length_a                   13.629
_cell_length_b                   15.881(1)
_cell_length_c                   7.025
_cell_angle_alpha                90
_cell_angle_beta                 90
_cell_angle_gamma                90
_cell_volume                     1520.51
_chemical_melting_point          238-242deg.C
_cell_formula_units_Z            4
loop_
_atom_site_label
_atom_site_type_symbol
_atom_site_fract_x
_atom_site_fract_y
_atom_site_fract_z
S1 S 0.8675(1) 0.00000 0.5000
S2 S 1.2524(1) -0.08804(6) 0.5801(2)
O1 O 1.2786(3) -0.1539(2) 0.7243(6)
C1 C 0.9568(3) -0.0773(3) 0.4953(7)
C2 C 0.9339(3) -0.1628(3) 0.4876(9)
C3 C 1.0083(4) -0.2204(3) 0.4897(9)
C4 C 1.1027(3) -0.1932(3) 0.5084(9)
C5 C 1.1279(3) -0.1083(2) 0.5165(7)
C6 C 1.0535(3) -0.0463(2) 0.5021(7)
C7 C 1.3121(4) -0.1217(3) 0.3660(9)
H1 H 0.867(3) -0.179(2) 0.487(7)
H2 H 0.983(3) -0.284(2) 0.496(8)
H3 H 1.155(3) -0.231(2) 0.528(7)
H4 H 1.390(3) -0.104(3) 0.384(6)
H5 H 1.294(3) -0.087(3) 0.261(6)
H6 H 1.300(3) -0.182(3) 0.353(6)
C6B C 1.0535(3) 0.0463(2) 0.4979(7)
C1B C 0.9568(3) 0.0773(3) 0.5047(7)
C2B C 0.9339(3) 0.1628(3) 0.5124(9)
C3B C 1.0083(4) 0.2204(3) 0.5103(9)
C4B C 1.1027(3) 0.1932(3) 0.4916(9)
C5B C 1.1279(3) 0.1083(2) 0.4835(7)
S2B S 1.2524(1) 0.08804(6) 0.4199(2)
O1B O 1.2786(3) 0.1539(2) 0.2757(6)
C7B C 1.3121(4) 0.1217(3) 0.6340(9)
H4B H 1.390(3) 0.104(3) 0.616(6)
H5B H 1.294(3) 0.087(3) 0.739(6)
H6B H 1.300(3) 0.182(3) 0.647(6)
H3B H 1.155(3) 0.231(2) 0.472(7)
H2B H 0.983(3) 0.284(2) 0.504(8)
H1B H 0.867(3) 0.179(2) 0.513(7)
O2 O 0.4382(3) 0.0741(3) 0.0955(7)
loop_
_geom_bond_atom_site_label_1
_geom_bond_atom_site_label_2
_geom_bond_site_symmetry_1
_geom_bond_site_symmetry_2
S1 C1 1_555 1_555
S2 O1 1_555 1_555
C1 C2 1_555 1_555
C2 C3 1_555 1_555
C3 C4 1_555 1_555
C4 C5 1_555 1_555
C5 S2 1_555 1_555
C6 C1 1_555 1_555
C7 S2 1_555 1_555
H1 C2 1_555 1_555
H2 C3 1_555 1_555
H3 C4 1_555 1_555
H4 C7 1_555 1_555
H5 C7 1_555 1_555
H6 C7 1_555 1_555
C6B C6 1_555 1_555
C1B S1 1_555 1_555
C2B C1B 1_555 1_555
C3B C2B 1_555 1_555
C4B C3B 1_555 1_555
C5B C6B 1_555 1_555
S2B C5B 1_555 1_555
O1B S2B 1_555 1_555
C7B S2B 1_555 1_555
H4B C7B 1_555 1_555
H5B C7B 1_555 1_555
H6B C7B 1_555 1_555
H3B C4B 1_555 1_555
H2B C3B 1_555 1_555
H1B C2B 1_555 1_555
C5 C6 1_555 1_555
C6B C1B 1_555 1_555
C4B C5B 1_555 1_555

#END
