
#######################################################################
#
#                 Cambridge Crystallographic Data Centre
#                                CCDC 
#
#######################################################################
#
# If this CIF has been generated from an entry in the Cambridge 
# Structural Database, then it will include bibliographic, chemical, 
# crystal, experimental, refinement or atomic coordinate data resulting 
# from the CCDC's data processing and validation procedures.
#
#######################################################################

data_ZUFRAT
_chemical_formula_moiety         'C8 H6 I2 S4'
_chemical_name_systematic        2,3-Di-iodo-6,7-dimethyltetrathiafulvalene
_symmetry_cell_setting           monoclinic
_symmetry_space_group_name_H-M   'P 21/n'
_symmetry_Int_Tables_number      14
_space_group_name_Hall           '-P 2yn'
loop_
_symmetry_equiv_pos_site_id
_symmetry_equiv_pos_as_xyz
1 x,y,z
2 1/2-x,1/2+y,1/2-z
3 -x,-y,-z
4 1/2+x,1/2-y,1/2+z
_cell_length_a                   10.670(2)
_cell_length_b                   10.176(2)
_cell_length_c                   12.888(3)
_cell_angle_alpha                90
_cell_angle_beta                 108.36(3)
_cell_angle_gamma                90
_cell_volume                     1328.12
_exptl_crystal_colour            red
_chemical_melting_point          186.0deg.C
_cell_formula_units_Z            4
loop_
_atom_site_label
_atom_site_type_symbol
_atom_site_fract_x
_atom_site_fract_y
_atom_site_fract_z
I1 I 0.5556(1) 0.1780(1) 0.6240(1)
I2 I 0.9016(1) 0.2062(1) 0.8201(1)
S1 S 0.4430(2) -0.2380(3) 0.9524(2)
S2 S 0.7115(2) -0.2417(3) 1.1063(2)
S3 S 0.5166(2) -0.0126(3) 0.8120(2)
S4 S 0.7908(2) -0.0016(3) 0.9613(2)
C1 C 0.6034(8) -0.1720(9) 0.9890(7)
C2 C 0.4742(8) -0.3465(9) 1.0647(7)
C3 C 0.5950(8) -0.3491(9) 1.1343(7)
C4 C 0.3525(8) -0.4248(9) 1.0673(7)
C5 C 0.6465(8) -0.4317(10) 1.2353(7)
C6 C 0.6324(8) -0.0750(9) 0.9290(7)
C7 C 0.6280(9) 0.0835(9) 0.7734(7)
C8 C 0.7513(8) 0.0895(9) 0.8420(7)
H1 H 0.3751 -0.4815 1.1300
H2 H 0.2843 -0.3650 1.0709
H3 H 0.3214 -0.4767 1.0020
H4 H 0.5771 -0.4863 1.2437
H5 H 0.7170 -0.4859 1.2282
H6 H 0.6792 -0.3760 1.2982
loop_
_geom_bond_atom_site_label_1
_geom_bond_atom_site_label_2
_geom_bond_site_symmetry_1
_geom_bond_site_symmetry_2
I1 C7 1_555 1_555
I2 C8 1_555 1_555
S1 C1 1_555 1_555
S2 C1 1_555 1_555
S3 C6 1_555 1_555
S4 C6 1_555 1_555
C1 C6 1_555 1_555
C2 S1 1_555 1_555
C3 S2 1_555 1_555
C4 C2 1_555 1_555
C5 C3 1_555 1_555
C7 S3 1_555 1_555
C8 S4 1_555 1_555
H1 C4 1_555 1_555
H2 C4 1_555 1_555
H3 C4 1_555 1_555
H4 C5 1_555 1_555
H5 C5 1_555 1_555
H6 C5 1_555 1_555
C2 C3 1_555 1_555
C7 C8 1_555 1_555

#END
