
#######################################################################
#
#                 Cambridge Crystallographic Data Centre
#                                CCDC 
#
#######################################################################
#
# If this CIF has been generated from an entry in the Cambridge 
# Structural Database, then it will include bibliographic, chemical, 
# crystal, experimental, refinement or atomic coordinate data resulting 
# from the CCDC's data processing and validation procedures.
#
#######################################################################

data_ZUFTUR
_chemical_formula_moiety         'C12 H6 F3 N3'
_chemical_name_systematic        2-anilino-3,5,6-trifluoroisonicotinonitrile
_symmetry_cell_setting           triclinic
_symmetry_space_group_name_H-M   'P -1'
_symmetry_Int_Tables_number      2
_space_group_name_Hall           '-P 1'
loop_
_symmetry_equiv_pos_site_id
_symmetry_equiv_pos_as_xyz
1 x,y,z
2 -x,-y,-z
_cell_length_a                   8.8617(2)
_cell_length_b                   9.9871(2)
_cell_length_c                   12.4080(3)
_cell_angle_alpha                76.814(1)
_cell_angle_beta                 73.813(1)
_cell_angle_gamma                79.227(1)
_cell_volume                     1017.83
_exptl_crystal_colour            'light orange'
_exptl_crystal_description       plate
_cell_formula_units_Z            4
loop_
_atom_site_label
_atom_site_type_symbol
_atom_site_fract_x
_atom_site_fract_y
_atom_site_fract_z
N1 N 0.26574(12) 0.42350(10) 0.18187(9)
N2 N 0.47351(13) 0.33663(11) 0.03908(9)
N3 N 0.64005(14) 0.26519(13) 0.47284(10)
F1 F 0.65457(8) 0.24932(7) 0.19196(6)
F2 F 0.23967(9) 0.42958(8) 0.47543(6)
F3 F 0.06363(8) 0.50390(8) 0.31718(6)
C1 C 0.41254(14) 0.36025(12) 0.14779(10)
C2 C 0.50854(14) 0.31574(12) 0.22613(10)
C3 C 0.45418(14) 0.33847(12) 0.33650(10)
C4 C 0.29956(14) 0.40516(12) 0.36879(10)
C5 C 0.21374(14) 0.44237(12) 0.28809(11)
C6 C 0.55531(15) 0.29697(13) 0.41420(11)
C7 C 0.40171(14) 0.36346(12) -0.05314(10)
C8 C 0.48981(15) 0.31093(13) -0.15025(11)
C9 C 0.43122(16) 0.33297(14) -0.24602(11)
C10 C 0.28214(16) 0.40714(13) -0.24671(11)
C11 C 0.19391(16) 0.45851(13) -0.14982(11)
C12 C 0.25178(15) 0.43843(13) -0.05325(11)
H1 H 0.569(2) 0.3024(17) 0.0223(14)
H2 H 0.590(2) 0.2547(16) -0.1450(14)
H3 H 0.497(2) 0.2941(16) -0.3096(15)
H4 H 0.2376(19) 0.4244(15) -0.3128(14)
H5 H 0.086(2) 0.5109(16) -0.1509(14)
H6 H 0.1900(18) 0.4783(15) 0.0100(13)
N4 N 0.77901(12) 0.91050(11) 0.44577(9)
N5 N 0.98865(13) 0.82754(11) 0.53696(9)
N6 N 1.15905(14) 0.77012(12) 0.05925(10)
F4 F 1.17319(8) 0.74867(7) 0.34096(6)
F5 F 0.76062(9) 0.93705(8) 0.15564(6)
F6 F 0.57837(8) 0.99518(8) 0.36078(7)
C13 C 0.92796(14) 0.85180(12) 0.44342(10)
C14 C 1.02521(14) 0.81289(12) 0.34182(11)
C15 C 0.97208(14) 0.83933(12) 0.24385(10)
C16 C 0.81728(15) 0.90467(12) 0.24897(10)
C17 C 0.72889(14) 0.93497(12) 0.35205(11)
C18 C 1.07403(15) 0.80106(13) 0.14011(11)
C19 C 0.91604(14) 0.85704(12) 0.64714(10)
C20 C 1.00382(15) 0.80610(13) 0.72925(11)
C21 C 0.94260(16) 0.82824(13) 0.84012(11)
C22 C 0.79202(16) 0.90166(13) 0.87157(11)
C23 C 0.70577(16) 0.95247(13) 0.78980(11)
C24 C 0.76611(15) 0.93178(13) 0.67756(11)
H7 H 1.088(2) 0.7883(16) 0.5283(14)
H8 H 1.1060(19) 0.7521(15) 0.7058(13)
H9 H 1.0081(19) 0.7909(16) 0.8934(14)
H10 H 0.7448(18) 0.9143(15) 0.9497(14)
H11 H 0.6040(19) 1.0013(15) 0.8114(13)
H12 H 0.7054(19) 0.9695(15) 0.6252(13)
loop_
_geom_bond_atom_site_label_1
_geom_bond_atom_site_label_2
_geom_bond_site_symmetry_1
_geom_bond_site_symmetry_2
N1 C1 1_555 1_555
N2 C1 1_555 1_555
N3 C6 1_555 1_555
F1 C2 1_555 1_555
F2 C4 1_555 1_555
F3 C5 1_555 1_555
C1 C2 1_555 1_555
C2 C3 1_555 1_555
C3 C4 1_555 1_555
C4 C5 1_555 1_555
C5 N1 1_555 1_555
C6 C3 1_555 1_555
C7 N2 1_555 1_555
C8 C7 1_555 1_555
C9 C8 1_555 1_555
C10 C9 1_555 1_555
C11 C10 1_555 1_555
C12 C7 1_555 1_555
H1 N2 1_555 1_555
H2 C8 1_555 1_555
H3 C9 1_555 1_555
H4 C10 1_555 1_555
H5 C11 1_555 1_555
H6 C12 1_555 1_555
N4 C13 1_555 1_555
N5 C13 1_555 1_555
N6 C18 1_555 1_555
F4 C14 1_555 1_555
F5 C16 1_555 1_555
F6 C17 1_555 1_555
C13 C14 1_555 1_555
C14 C15 1_555 1_555
C15 C16 1_555 1_555
C16 C17 1_555 1_555
C17 N4 1_555 1_555
C18 C15 1_555 1_555
C19 N5 1_555 1_555
C20 C19 1_555 1_555
C21 C20 1_555 1_555
C22 C21 1_555 1_555
C23 C22 1_555 1_555
C24 C19 1_555 1_555
H7 N5 1_555 1_555
H8 C20 1_555 1_555
H9 C21 1_555 1_555
H10 C22 1_555 1_555
H11 C23 1_555 1_555
H12 C24 1_555 1_555
C11 C12 1_555 1_555
C23 C24 1_555 1_555

#END
