
#######################################################################
#
#                 Cambridge Crystallographic Data Centre
#                                CCDC 
#
#######################################################################
#
# If this CIF has been generated from an entry in the Cambridge 
# Structural Database, then it will include bibliographic, chemical, 
# crystal, experimental, refinement or atomic coordinate data resulting 
# from the CCDC's data processing and validation procedures.
#
#######################################################################

data_ZUFVON
_chemical_formula_moiety         
'C17 H14 Cl4 O4 P1 S2 1-,C6 H16 N1 1+,2(C1 H1 Cl3)'
_chemical_name_systematic        
'N,N-diethylethanaminium 2,4,14,16-tetrachloro-6,7,11,12-tetrahydro-18H-dibenzo[g,j][1,3,6,12,2]tetraoxaphosphacyclotetradecine-9-thiolate 9-sulfide chloroform solvate'
_symmetry_cell_setting           triclinic
_symmetry_space_group_name_H-M   'P -1'
_symmetry_Int_Tables_number      2
_space_group_name_Hall           '-P 1'
loop_
_symmetry_equiv_pos_site_id
_symmetry_equiv_pos_as_xyz
1 x,y,z
2 -x,-y,-z
_cell_length_a                   11.383(2)
_cell_length_b                   12.660(3)
_cell_length_c                   14.672(3)
_cell_angle_alpha                74.16(3)
_cell_angle_beta                 79.58(3)
_cell_angle_gamma                70.90(3)
_cell_volume                     1912.33
_cell_formula_units_Z            2
loop_
_atom_site_label
_atom_site_type_symbol
_atom_site_fract_x
_atom_site_fract_y
_atom_site_fract_z
P1 P 1.13822(10) 0.67609(9) 0.20452(8)
S1 S 1.07382(9) 0.73828(9) 0.31852(7)
S2 S 1.14264(9) 0.78510(9) 0.07998(7)
Cl1 Cl 0.77474(9) 0.35889(9) 0.14246(8)
Cl2 Cl 0.57238(9) 0.33463(10) 0.50550(8)
Cl3 Cl 1.17635(9) -0.06503(9) 0.53528(8)
Cl4 Cl 1.49505(9) 0.16406(9) 0.33407(9)
O1 O 1.2735(2) 0.3652(2) 0.31218(17)
O2 O 1.2769(2) 0.59025(19) 0.20927(17)
O3 O 1.05548(19) 0.5946(2) 0.20658(17)
O4 O 0.9943(2) 0.3794(2) 0.2175(2)
C1 C 0.8934(4) 0.3722(3) 0.2826(3)
C2 C 0.7862(4) 0.3623(3) 0.2580(3)
C3 C 0.6873(4) 0.3519(3) 0.3254(3)
H1 H 0.6153 0.3462 0.3082
C4 C 0.6948(3) 0.3499(3) 0.4183(3)
C5 C 0.8015(4) 0.3576(3) 0.4445(3)
H2 H 0.8062 0.3561 0.5075
C6 C 0.9020(3) 0.3678(3) 0.3766(3)
C7 C 1.0196(3) 0.3789(3) 0.4023(2)
H3 H 1.0015 0.4019 0.4624
H4 H 1.0457 0.4386 0.3540
C8 C 1.1269(3) 0.2665(3) 0.4107(3)
C9 C 1.1064(3) 0.1639(3) 0.4616(3)
H5 H 1.0267 0.1623 0.4894
C10 C 1.2027(4) 0.0654(3) 0.4712(3)
C11 C 1.3225(4) 0.0628(3) 0.4320(3)
H6 H 1.3872 -0.0055 0.4398
C12 C 1.3435(3) 0.1645(4) 0.3809(3)
C13 C 1.2463(4) 0.2677(3) 0.3691(3)
C14 C 1.2839(3) 0.4445(4) 0.3607(3)
H7 H 1.3367 0.4036 0.4119
H8 H 1.2019 0.4819 0.3885
C15 C 1.3373(3) 0.5316(3) 0.2949(3)
H9 H 1.3347 0.5885 0.3287
H10 H 1.4245 0.4947 0.2770
C16 C 1.0812(3) 0.5343(3) 0.1316(3)
H11 H 1.1613 0.4755 0.1370
H12 H 1.0845 0.5873 0.0701
C17 C 0.9789(3) 0.4800(4) 0.1402(3)
H13 H 0.8984 0.5350 0.1512
H14 H 0.9806 0.4588 0.0811
N1 N 1.1255(4) 0.9996(4) 0.1832(3)
H15 H 1.128(4) 0.919(3) 0.182(4)
C18 C 1.2231(5) 0.9766(4) 0.2490(3)
H16 H 1.2284 1.0496 0.2541
H17 H 1.1955 0.9375 0.3119
C19 C 1.3473(4) 0.9082(4) 0.2201(4)
H18 H 1.4028 0.8970 0.2663
H19 H 1.3774 0.9473 0.1591
H20 H 1.3438 0.8349 0.2159
C20 C 0.9974(4) 1.0503(4) 0.2301(3)
H21 H 0.9904 1.0076 0.2957
H22 H 0.9880 1.1291 0.2307
C21 C 0.8943(4) 1.0484(3) 0.1811(3)
H23 H 0.8152 1.0813 0.2138
H24 H 0.9020 0.9705 0.1814
H25 H 0.8994 1.0921 0.1166
C22 C 1.1524(4) 1.0644(4) 0.0849(4)
H26 H 1.0892 1.0687 0.0466
H27 H 1.2324 1.0217 0.0581
C23 C 1.1559(4) 1.1871(4) 0.0772(3)
H28 H 1.1726 1.2230 0.0116
H29 H 1.2204 1.1840 0.1127
H30 H 1.0767 1.2308 0.1025
C24 C 0.2496(5) 0.2329(5) 0.7108(4)
Cl5 Cl 0.3288(10) 0.1281(9) 0.6507(9)
Cl6 Cl 0.2726(11) 0.1875(11) 0.8233(8)
Cl7 Cl 0.3204(6) 0.3468(7) 0.6910(6)
H31 H 0.165(3) 0.245(3) 0.705(3)
C25 C 0.5248(6) 0.2916(6) 0.0049(5)
Cl11 Cl 0.5708(8) 0.1430(9) 0.0685(7)
Cl12 Cl 0.4378(6) 0.3856(8) 0.0852(7)
Cl13 Cl 0.4339(11) 0.3192(11) -0.0732(8)
H32 H 0.606(3) 0.302(4) -0.009(3)
Cl8? Cl 0.2681(7) 0.3573(7) 0.6562(7)
Cl9? Cl 0.2850(10) 0.1517(9) 0.8248(7)
Cl10? Cl 0.3133(12) 0.1568(10) 0.6306(9)
Cl14? Cl 0.5267(9) 0.1546(11) 0.0490(8)
Cl15? Cl 0.4455(9) 0.3616(11) 0.0838(10)
Cl16? Cl 0.4458(9) 0.3363(8) -0.1078(8)
loop_
_geom_bond_atom_site_label_1
_geom_bond_atom_site_label_2
_geom_bond_site_symmetry_1
_geom_bond_site_symmetry_2
P1 S1 1_555 1_555
S2 P1 1_555 1_555
Cl1 C2 1_555 1_555
Cl2 C4 1_555 1_555
Cl3 C10 1_555 1_555
Cl4 C12 1_555 1_555
O1 C13 1_555 1_555
O2 P1 1_555 1_555
O3 P1 1_555 1_555
O4 C1 1_555 1_555
C1 C2 1_555 1_555
C2 C3 1_555 1_555
C3 H1 1_555 1_555
C4 C3 1_555 1_555
C5 C4 1_555 1_555
H2 C5 1_555 1_555
C6 C1 1_555 1_555
C7 C6 1_555 1_555
H3 C7 1_555 1_555
H4 C7 1_555 1_555
C8 C7 1_555 1_555
C9 C8 1_555 1_555
H5 C9 1_555 1_555
C10 C9 1_555 1_555
C11 C10 1_555 1_555
H6 C11 1_555 1_555
C12 C11 1_555 1_555
C13 C8 1_555 1_555
C14 O1 1_555 1_555
H7 C14 1_555 1_555
H8 C14 1_555 1_555
C15 O2 1_555 1_555
H9 C15 1_555 1_555
H10 C15 1_555 1_555
C16 O3 1_555 1_555
H11 C16 1_555 1_555
H12 C16 1_555 1_555
C17 O4 1_555 1_555
H13 C17 1_555 1_555
H14 C17 1_555 1_555
N1 H15 1_555 1_555
C18 N1 1_555 1_555
H16 C18 1_555 1_555
H17 C18 1_555 1_555
C19 C18 1_555 1_555
H18 C19 1_555 1_555
H19 C19 1_555 1_555
H20 C19 1_555 1_555
C20 N1 1_555 1_555
H21 C20 1_555 1_555
H22 C20 1_555 1_555
C21 C20 1_555 1_555
H23 C21 1_555 1_555
H24 C21 1_555 1_555
H25 C21 1_555 1_555
C22 N1 1_555 1_555
H26 C22 1_555 1_555
H27 C22 1_555 1_555
C23 C22 1_555 1_555
H28 C23 1_555 1_555
H29 C23 1_555 1_555
H30 C23 1_555 1_555
C24 Cl5 1_555 1_555
Cl6 C24 1_555 1_555
Cl7 C24 1_555 1_555
H31 C24 1_555 1_555
C25 Cl11 1_555 1_555
Cl12 C25 1_555 1_555
Cl13 C25 1_555 1_555
H32 C25 1_555 1_555
C5 C6 1_555 1_555
C12 C13 1_555 1_555
C14 C15 1_555 1_555
C16 C17 1_555 1_555

#END
