
#######################################################################
#
#                 Cambridge Crystallographic Data Centre
#                                CCDC 
#
#######################################################################
#
# If this CIF has been generated from an entry in the Cambridge 
# Structural Database, then it will include bibliographic, chemical, 
# crystal, experimental, refinement or atomic coordinate data resulting 
# from the CCDC's data processing and validation procedures.
#
#######################################################################

data_ZUGMIZ
_chemical_formula_moiety         'C56 H40 N6,C1 H2 Cl2'
_chemical_name_systematic        
'2-(2,2-Dicyano-1-(4-(dimethylamino)phenyl)vinyl)-3-((4-(dimethylamino)phenyl)ethynyl)-4,5,6,6a-tetraphenylpentalene-1,1(6aH)-dicarbonitrile dichloromethane unknown solvate'
_symmetry_cell_setting           monoclinic
_symmetry_space_group_name_H-M   'C 2/c'
_symmetry_Int_Tables_number      15
_space_group_name_Hall           '-C 2yn'
loop_
_symmetry_equiv_pos_site_id
_symmetry_equiv_pos_as_xyz
1 x,y,z
2 -x,y,1/2-z
3 1/2+x,1/2+y,z
4 1/2-x,1/2+y,1/2-z
5 -x,-y,-z
6 x,-y,1/2+z
7 1/2-x,1/2-y,-z
8 1/2+x,1/2-y,1/2+z
_cell_length_a                   24.8188(15)
_cell_length_b                   10.1321(6)
_cell_length_c                   40.666(2)
_cell_angle_alpha                90
_cell_angle_beta                 105.334(2)
_cell_angle_gamma                90
_cell_volume                     9862.1
_exptl_crystal_colour            'light black'
_exptl_crystal_description       plate
_cell_formula_units_Z            8
_exptl_crystal_recrystallization_method dichloromethane/n-pentane
loop_
_atom_site_label
_atom_site_type_symbol
_atom_site_fract_x
_atom_site_fract_y
_atom_site_fract_z
N1 N 0.15978(11) -0.0141(3) 0.26581(6)
N2 N -0.10966(11) -0.0296(3) -0.05369(7)
C1 C 0.14426(12) 0.5002(3) 0.04407(7)
C2 C 0.09450(13) 0.5028(3) 0.01818(7)
H1 H 0.0615 0.5372 0.0227
N3 N -0.06697(13) 0.1568(4) 0.16506(10)
N4 N -0.06184(11) 0.4891(3) 0.10208(7)
C3 C 0.13902(16) -0.0226(5) 0.29601(9)
H2 H 0.1377 0.0660 0.3055
H3 H 0.1640 -0.0787 0.3131
H4 H 0.1014 -0.0607 0.2898
C4 C 0.13557(13) 0.0702(3) 0.24016(8)
C5 C 0.08893(13) 0.1475(4) 0.24116(8)
H5 H 0.0749 0.1443 0.2607
C6 C 0.06331(13) 0.2278(4) 0.21424(8)
H6 H 0.0314 0.2772 0.2155
C7 C 0.08295(13) 0.2387(4) 0.18502(8)
C8 C 0.05414(13) 0.3187(4) 0.15564(8)
C9 C 0.08603(12) 0.3991(3) 0.13798(8)
C10 C 0.07764(12) 0.4200(3) 0.10356(7)
C11 C 0.04182(13) 0.3476(3) 0.07717(8)
C12 C 0.01173(13) 0.2831(3) 0.05454(8)
C13 C -0.02051(12) 0.2054(3) 0.02749(8)
C14 C -0.00988(13) 0.2102(3) -0.00459(8)
H7 H 0.0184 0.2677 -0.0080
C15 C -0.03929(13) 0.1341(3) -0.03135(8)
H8 H -0.0313 0.1402 -0.0529
C16 C -0.08120(12) 0.0473(3) -0.02709(8)
C17 C -0.09653(15) -0.0234(4) -0.08650(9)
H9 H -0.1012 0.0673 -0.0951
H10 H -0.1217 -0.0820 -0.1027
H11 H -0.0578 -0.0515 -0.0837
C18 C 0.20115(14) -0.1084(4) 0.26167(8)
H12 H 0.2354 -0.0617 0.2610
H13 H 0.1868 -0.1571 0.2403
H14 H 0.2093 -0.1702 0.2809
C19 C 0.13112(13) 0.1671(4) 0.18500(8)
H15 H 0.1467 0.1760 0.1661
C20 C 0.15679(13) 0.0841(3) 0.21136(7)
H16 H 0.1890 0.0358 0.2101
C21 C 0.11451(12) 0.5255(3) 0.09870(7)
C22 C 0.13209(12) 0.6040(3) 0.13142(7)
C23 C 0.13717(12) 0.4813(3) 0.15685(7)
C24 C 0.18940(14) 0.4097(4) 0.15601(7)
N5 N 0.22861(12) 0.3564(3) 0.15370(7)
C25 C 0.13931(13) 0.5144(4) 0.19247(8)
N6 N 0.14124(13) 0.5414(3) 0.22017(7)
C26 C 0.08679(13) 0.7002(3) 0.13587(8)
C27 C 0.09475(13) 0.7842(4) 0.16390(8)
H17 H 0.1293 0.7824 0.1810
C28 C 0.05350(14) 0.8695(4) 0.16728(9)
H18 H 0.0597 0.9247 0.1868
C29 C 0.00285(15) 0.8761(4) 0.14254(10)
H19 H -0.0256 0.9352 0.1450
C30 C -0.00544(14) 0.7954(4) 0.11444(10)
H20 H -0.0397 0.7999 0.0972
C31 C 0.03564(13) 0.7074(3) 0.11100(8)
H21 H 0.0290 0.6515 0.0916
C32 C 0.18382(12) 0.6758(3) 0.12777(8)
C33 C 0.21854(12) 0.7697(3) 0.15257(7)
C34 C 0.22692(13) 0.8972(3) 0.14260(8)
H22 H 0.2088 0.9256 0.1201
C35 C 0.26134(14) 0.9834(4) 0.16503(8)
H23 H 0.2661 1.0711 0.1580
C36 C 0.28884(13) 0.9429(4) 0.19751(8)
H24 H 0.3129 1.0020 0.2127
C37 C 0.28122(13) 0.8160(4) 0.20779(8)
H25 H 0.3000 0.7878 0.2302
C38 C 0.24610(12) 0.7292(4) 0.18543(8)
H26 H 0.2409 0.6420 0.1926
C39 C 0.18933(12) 0.6517(3) 0.09605(7)
C40 C 0.23260(12) 0.7083(3) 0.08124(7)
C41 C 0.28907(12) 0.6961(3) 0.09845(8)
H27 H 0.2998 0.6521 0.1198
C42 C 0.32912(13) 0.7479(3) 0.08443(9)
H28 H 0.3675 0.7377 0.0960
C43 C 0.31417(14) 0.8146(3) 0.05373(9)
H29 H 0.3421 0.8504 0.0443
C44 C 0.25841(14) 0.8291(3) 0.03683(8)
H30 H 0.2480 0.8765 0.0160
C45 C 0.21774(13) 0.7747(3) 0.05026(7)
H31 H 0.1795 0.7828 0.0382
C46 C 0.14671(12) 0.5562(3) 0.07775(7)
C47 C 0.09296(14) 0.4555(3) -0.01400(8)
H32 H 0.0592 0.4602 -0.0316
C48 C 0.13995(15) 0.4018(3) -0.02071(8)
H33 H 0.1384 0.3681 -0.0427
C49 C 0.18938(15) 0.3975(3) 0.00493(9)
H34 H 0.2217 0.3591 0.0005
C50 C 0.19215(13) 0.4484(3) 0.03691(8)
H35 H 0.2266 0.4482 0.0540
C51 C -0.06263(12) 0.1197(3) 0.03154(8)
H36 H -0.0710 0.1150 0.0530
C52 C -0.09195(13) 0.0428(3) 0.00519(9)
H37 H -0.1201 -0.0147 0.0087
C53 C -0.14676(14) -0.1327(4) -0.04772(10)
H38 H -0.1259 -0.1926 -0.0299
H39 H -0.1618 -0.1824 -0.0688
H40 H -0.1776 -0.0927 -0.0404
C54 C -0.00339(13) 0.3210(4) 0.14480(8)
C55 C -0.03755(14) 0.2292(4) 0.15684(10)
C56 C -0.03471(13) 0.4151(4) 0.12070(9)
C57 C 0.1599(2) -0.2675(5) 0.38508(14)
H41 H 0.1241 -0.3165 0.3789
H42 H 0.1697 -0.2423 0.3638
Cl1 Cl 0.20924(5) -0.35924(11) 0.40893(3)
Cl2 Cl 0.15320(10) -0.11311(15) 0.41100(10)
H43? H 0.1234 -0.3071 0.3851
H44? H 0.1633 -0.2714 0.3614
Cl3? Cl 0.1590(2) -0.1101(3) 0.39603(10)
loop_
_geom_bond_atom_site_label_1
_geom_bond_atom_site_label_2
_geom_bond_site_symmetry_1
_geom_bond_site_symmetry_2
N1 C3 1_555 1_555
N2 C16 1_555 1_555
C1 C2 1_555 1_555
C2 H1 1_555 1_555
N3 C55 1_555 1_555
N4 C56 1_555 1_555
C3 H2 1_555 1_555
H3 C3 1_555 1_555
H4 C3 1_555 1_555
C4 N1 1_555 1_555
C5 C4 1_555 1_555
H5 C5 1_555 1_555
C6 C5 1_555 1_555
H6 C6 1_555 1_555
C7 C6 1_555 1_555
C8 C7 1_555 1_555
C9 C8 1_555 1_555
C10 C9 1_555 1_555
C11 C10 1_555 1_555
C12 C11 1_555 1_555
C13 C12 1_555 1_555
C14 C13 1_555 1_555
H7 C14 1_555 1_555
C15 C14 1_555 1_555
H8 C15 1_555 1_555
C16 C15 1_555 1_555
C17 N2 1_555 1_555
H9 C17 1_555 1_555
H10 C17 1_555 1_555
H11 C17 1_555 1_555
C18 N1 1_555 1_555
H12 C18 1_555 1_555
H13 C18 1_555 1_555
H14 C18 1_555 1_555
C19 C7 1_555 1_555
H15 C19 1_555 1_555
C20 C4 1_555 1_555
H16 C20 1_555 1_555
C21 C10 1_555 1_555
C22 C21 1_555 1_555
C23 C9 1_555 1_555
C24 C23 1_555 1_555
N5 C24 1_555 1_555
C25 C23 1_555 1_555
N6 C25 1_555 1_555
C26 C22 1_555 1_555
C27 C26 1_555 1_555
H17 C27 1_555 1_555
C28 C27 1_555 1_555
H18 C28 1_555 1_555
C29 C28 1_555 1_555
H19 C29 1_555 1_555
C30 C29 1_555 1_555
H20 C30 1_555 1_555
C31 C26 1_555 1_555
H21 C31 1_555 1_555
C32 C22 1_555 1_555
C33 C32 1_555 1_555
C34 C33 1_555 1_555
H22 C34 1_555 1_555
C35 C34 1_555 1_555
H23 C35 1_555 1_555
C36 C35 1_555 1_555
H24 C36 1_555 1_555
C37 C36 1_555 1_555
H25 C37 1_555 1_555
C38 C33 1_555 1_555
H26 C38 1_555 1_555
C39 C32 1_555 1_555
C40 C39 1_555 1_555
C41 C40 1_555 1_555
H27 C41 1_555 1_555
C42 C41 1_555 1_555
H28 C42 1_555 1_555
C43 C42 1_555 1_555
H29 C43 1_555 1_555
C44 C43 1_555 1_555
H30 C44 1_555 1_555
C45 C40 1_555 1_555
H31 C45 1_555 1_555
C46 C1 1_555 1_555
C47 C2 1_555 1_555
H32 C47 1_555 1_555
C48 C47 1_555 1_555
H33 C48 1_555 1_555
C49 C48 1_555 1_555
H34 C49 1_555 1_555
C50 C1 1_555 1_555
H35 C50 1_555 1_555
C51 C13 1_555 1_555
H36 C51 1_555 1_555
C52 C16 1_555 1_555
H37 C52 1_555 1_555
C53 N2 1_555 1_555
H38 C53 1_555 1_555
H39 C53 1_555 1_555
H40 C53 1_555 1_555
C54 C8 1_555 1_555
C55 C54 1_555 1_555
C56 C54 1_555 1_555
C57 H41 1_555 1_555
H42 C57 1_555 1_555
Cl1 C57 1_555 1_555
Cl2 C57 1_555 1_555
C19 C20 1_555 1_555
C21 C46 1_555 1_555
C22 C23 1_555 1_555
C30 C31 1_555 1_555
C37 C38 1_555 1_555
C39 C46 1_555 1_555
C44 C45 1_555 1_555
C49 C50 1_555 1_555
C51 C52 1_555 1_555

#END
