
#######################################################################
#
#                 Cambridge Crystallographic Data Centre
#                                CCDC 
#
#######################################################################
#
# If this CIF has been generated from an entry in the Cambridge 
# Structural Database, then it will include bibliographic, chemical, 
# crystal, experimental, refinement or atomic coordinate data resulting 
# from the CCDC's data processing and validation procedures.
#
#######################################################################

data_ZUGMAR
_chemical_formula_moiety         'C50 H40 N2'
_chemical_name_systematic        
4,4'-(3-(2,3,4,5-Tetraphenylcyclopenta-2,4-dien-1-ylidene)penta-1,4-diyne-1,5-diyl)bis(N,N-dimethylaniline)
_symmetry_cell_setting           monoclinic
_symmetry_space_group_name_H-M   'P 21'
_symmetry_Int_Tables_number      4
_space_group_name_Hall           'P 2yb'
loop_
_symmetry_equiv_pos_site_id
_symmetry_equiv_pos_as_xyz
1 x,y,z
2 -x,1/2+y,-z
_cell_length_a                   6.3795(8)
_cell_length_b                   14.9657(19)
_cell_length_c                   18.793(3)
_cell_angle_alpha                90
_cell_angle_beta                 93.088(3)
_cell_angle_gamma                90
_cell_volume                     1791.63
_exptl_crystal_colour            black
_exptl_crystal_description       needle
_cell_formula_units_Z            2
loop_
_atom_site_label
_atom_site_type_symbol
_atom_site_fract_x
_atom_site_fract_y
_atom_site_fract_z
N1 N 0.5701(3) 0.35972(14) 1.19664(11)
N2 N 1.9477(3) 0.08467(15) 0.84404(12)
C1 C 0.6942(3) 0.47775(15) 0.60589(12)
C2 C 0.5738(3) 0.53284(15) 0.65498(13)
C3 C 1.3995(4) 0.23677(16) 0.80102(14)
C4 C 0.9584(4) 0.34857(15) 0.62041(12)
C5 C 0.8253(3) 0.42235(15) 0.64619(12)
C6 C 0.4220(3) 0.60382(15) 0.63342(12)
C7 C 0.5784(4) 0.55828(15) 0.78937(13)
C8 C 1.0649(4) 0.33729(16) 0.77696(13)
C9 C 0.6697(4) 0.48110(14) 0.52723(12)
C10 C 0.7926(4) 0.43913(15) 0.72140(12)
C11 C 0.4535(4) 0.49653(16) 0.41737(13)
H1 H 0.3189 0.5054 0.3943
C12 C 0.8192(4) 0.47102(16) 0.41150(13)
H2 H 0.9384 0.4619 0.3842
C13 C 0.2163(4) 0.60074(15) 0.65568(13)
H3 H 0.1761 0.5538 0.6861
C14 C 1.1669(4) 0.36260(16) 0.60483(13)
H4 H 1.2275 0.4201 0.6120
C15 C 0.8430(4) 0.47003(15) 0.48498(13)
H5 H 0.9788 0.4617 0.5073
C16 C 0.8301(4) 0.40933(16) 0.85072(13)
C17 C 0.4746(4) 0.49528(15) 0.49157(13)
H6 H 0.3543 0.5042 0.5184
C18 C 0.7309(4) 0.39592(16) 0.98419(13)
C19 C 0.1264(4) 0.73442(17) 0.59031(14)
H7 H 0.0257 0.7782 0.5751
C20 C 0.4826(4) 0.41309(16) 1.07646(13)
H8 H 0.3498 0.4335 1.0903
C21 C 0.6328(3) 0.51000(15) 0.72368(13)
C22 C 0.7250(4) 0.61760(17) 0.82122(14)
H9 H 0.8556 0.6268 0.8003
C23 C 1.2871(4) 0.29421(17) 0.57903(13)
H10 H 1.4277 0.3055 0.5674
C24 C 1.2172(4) 0.29103(16) 0.78747(14)
C25 C 0.6209(4) 0.37119(16) 1.12723(13)
C26 C 0.6254(4) 0.48501(16) 0.37707(13)
H11 H 0.6109 0.4866 0.3265
C27 C 0.3313(4) 0.73975(16) 0.56869(13)
H12 H 0.3717 0.7881 0.5396
C28 C 0.8767(4) 0.26264(15) 0.61152(14)
H13 H 0.7358 0.2511 0.6227
C29 C 0.9983(4) 0.19371(16) 0.58661(14)
H14 H 0.9402 0.1355 0.5809
C30 C 1.7665(4) 0.13324(16) 0.83022(14)
C31 C 0.0703(4) 0.66524(17) 0.63392(13)
H15 H -0.0691 0.6617 0.6491
C32 C 0.4764(4) 0.67462(16) 0.58950(13)
H16 H 0.6151 0.6781 0.5737
C33 C 0.8689(4) 0.35450(16) 1.03472(13)
H17 H 1.0018 0.3343 1.0208
C34 C 1.2037(4) 0.20926(16) 0.57007(13)
H18 H 1.2868 0.1622 0.5527
C35 C 0.7860(4) 0.40493(17) 0.91226(14)
C36 C 1.4991(4) 0.19320(17) 0.74649(14)
H19 H 1.4427 0.1984 0.6988
C37 C 0.8911(4) 0.39733(15) 0.77958(13)
C38 C 0.3891(4) 0.54607(17) 0.82113(14)
H20 H 0.2888 0.5052 0.8009
C39 C 0.5373(4) 0.42488(17) 1.00708(14)
H21 H 0.4411 0.4534 0.9740
C40 C 1.4842(4) 0.22580(17) 0.87078(14)
H22 H 1.4174 0.2536 0.9089
C41 C 0.8155(4) 0.34258(17) 1.10396(13)
H23 H 0.9124 0.3143 1.1369
C42 C 1.6630(4) 0.17527(17) 0.88532(14)
H24 H 1.7167 0.1689 0.9332
C43 C 1.6776(4) 0.14283(17) 0.76027(14)
H25 H 1.7419 0.1141 0.7220
C44 C 0.6981(4) 0.30179(18) 1.24324(13)
H26 H 0.7080 0.2426 1.2214
H27 H 0.6338 0.2963 1.2892
H28 H 0.8390 0.3274 1.2506
C45 C 0.3575(4) 0.37816(18) 1.21711(14)
H29 H 0.3212 0.4403 1.2055
H30 H 0.3491 0.3686 1.2685
H31 H 0.2590 0.3380 1.1911
C46 C 0.4916(5) 0.65130(18) 0.91328(14)
H32 H 0.4617 0.6831 0.9553
C47 C 0.3447(4) 0.59309(18) 0.88229(14)
H33 H 0.2132 0.5853 0.9029
C48 C 0.6816(5) 0.66283(18) 0.88272(15)
H34 H 0.7833 0.7022 0.9042
C49 C 2.0669(4) 0.05345(18) 0.78549(15)
H35 H 1.9864 0.0076 0.7587
H36 H 2.2003 0.0280 0.8042
H37 H 2.0949 0.1037 0.7539
C50 C 2.0476(4) 0.08554(19) 0.91554(15)
H38 H 2.0754 0.1474 0.9303
H39 H 2.1802 0.0525 0.9157
H40 H 1.9545 0.0573 0.9487
loop_
_geom_bond_atom_site_label_1
_geom_bond_atom_site_label_2
_geom_bond_site_symmetry_1
_geom_bond_site_symmetry_2
N1 C25 1_555 1_555
N2 C30 1_555 1_555
C1 C2 1_555 1_555
C2 C6 1_555 1_555
C3 C24 1_555 1_555
C4 C5 1_555 1_555
C5 C1 1_555 1_555
C6 C13 1_555 1_555
C7 C21 1_555 1_555
C8 C24 1_555 1_555
C9 C1 1_555 1_555
C10 C5 1_555 1_555
C11 H1 1_555 1_555
C12 H2 1_555 1_555
C13 H3 1_555 1_555
C14 C4 1_555 1_555
H4 C14 1_555 1_555
C15 C9 1_555 1_555
H5 C15 1_555 1_555
C16 C35 1_555 1_555
C17 C9 1_555 1_555
H6 C17 1_555 1_555
C18 C33 1_555 1_555
C19 H7 1_555 1_555
C20 H8 1_555 1_555
C21 C2 1_555 1_555
C22 C7 1_555 1_555
H9 C22 1_555 1_555
C23 C14 1_555 1_555
H10 C23 1_555 1_555
C25 C20 1_555 1_555
C26 C11 1_555 1_555
H11 C26 1_555 1_555
C27 C19 1_555 1_555
H12 C27 1_555 1_555
C28 C4 1_555 1_555
H13 C28 1_555 1_555
C29 C28 1_555 1_555
H14 C29 1_555 1_555
C30 C42 1_555 1_555
C31 C13 1_555 1_555
H15 C31 1_555 1_555
C32 C6 1_555 1_555
H16 C32 1_555 1_555
C33 H17 1_555 1_555
C34 C23 1_555 1_555
H18 C34 1_555 1_555
C35 C18 1_555 1_555
C36 C3 1_555 1_555
H19 C36 1_555 1_555
C37 C8 1_555 1_555
C38 C7 1_555 1_555
H20 C38 1_555 1_555
C39 C18 1_555 1_555
H21 C39 1_555 1_555
C40 C3 1_555 1_555
H22 C40 1_555 1_555
C41 C25 1_555 1_555
H23 C41 1_555 1_555
C42 C40 1_555 1_555
H24 C42 1_555 1_555
C43 C30 1_555 1_555
H25 C43 1_555 1_555
C44 N1 1_555 1_555
H26 C44 1_555 1_555
H27 C44 1_555 1_555
H28 C44 1_555 1_555
C45 N1 1_555 1_555
H29 C45 1_555 1_555
H30 C45 1_555 1_555
H31 C45 1_555 1_555
C46 H32 1_555 1_555
C47 C38 1_555 1_555
H33 C47 1_555 1_555
C48 C22 1_555 1_555
H34 C48 1_555 1_555
C49 N2 1_555 1_555
H35 C49 1_555 1_555
H36 C49 1_555 1_555
H37 C49 1_555 1_555
C50 N2 1_555 1_555
H38 C50 1_555 1_555
H39 C50 1_555 1_555
H40 C50 1_555 1_555
C10 C21 1_555 1_555
C10 C37 1_555 1_555
C11 C17 1_555 1_555
C12 C15 1_555 1_555
C12 C26 1_555 1_555
C16 C37 1_555 1_555
C19 C31 1_555 1_555
C20 C39 1_555 1_555
C27 C32 1_555 1_555
C29 C34 1_555 1_555
C33 C41 1_555 1_555
C36 C43 1_555 1_555
C46 C47 1_555 1_555
C46 C48 1_555 1_555

#END
