
#######################################################################
#
#                 Cambridge Crystallographic Data Centre
#                                CCDC 
#
#######################################################################
#
# If this CIF has been generated from an entry in the Cambridge 
# Structural Database, then it will include bibliographic, chemical, 
# crystal, experimental, refinement or atomic coordinate data resulting 
# from the CCDC's data processing and validation procedures.
#
#######################################################################

data_ZUGPOI
_chemical_formula_moiety         'C7 H3 Cl1 N2 O2'
_chemical_name_systematic        5-Chloro-2-nitrobenzonitrile
_symmetry_cell_setting           monoclinic
_symmetry_space_group_name_H-M   'P 21/n'
_symmetry_Int_Tables_number      14
_space_group_name_Hall           '-P 2yn'
loop_
_symmetry_equiv_pos_site_id
_symmetry_equiv_pos_as_xyz
1 x,y,z
2 1/2-x,1/2+y,1/2-z
3 -x,-y,-z
4 1/2+x,1/2-y,1/2+z
_cell_length_a                   7.889(2)
_cell_length_b                   15.064(12)
_cell_length_c                   7.311(4)
_cell_angle_alpha                90
_cell_angle_beta                 118.22(3)
_cell_angle_gamma                90
_cell_volume                     765.567
_exptl_crystal_colour            'pale yellow'
_cell_formula_units_Z            4
loop_
_atom_site_label
_atom_site_type_symbol
_atom_site_fract_x
_atom_site_fract_y
_atom_site_fract_z
Cl1 Cl 0.23796(6) 0.55824(3) 0.28334(7)
C1 C -0.0885(2) 0.3496(1) 0.2429(2)
C2 C -0.2524(2) 0.3914(1) 0.2288(2)
C3 C -0.2687(2) 0.4830(1) 0.2256(2)
C4 C -0.1174(2) 0.5344(1) 0.2402(3)
C5 C 0.0469(2) 0.4938(1) 0.2580(2)
C6 C 0.0625(2) 0.4020(1) 0.2577(3)
C7 C -0.0682(2) 0.2548(1) 0.2367(3)
N1 N -0.0408(2) 0.1808(1) 0.2310(3)
N2 N -0.4131(2) 0.3389(1) 0.2200(2)
O1 O -0.3874(2) 0.26002(9) 0.2586(3)
O2 O -0.5631(2) 0.37715(8) 0.1762(2)
H1 H -0.387(3) 0.507(1) 0.222(3)
H2 H -0.127(3) 0.599(1) 0.242(3)
H3 H 0.170(3) 0.377(1) 0.262(3)
loop_
_geom_bond_atom_site_label_1
_geom_bond_atom_site_label_2
_geom_bond_site_symmetry_1
_geom_bond_site_symmetry_2
Cl1 C5 1_555 1_555
C1 C2 1_555 1_555
C2 C3 1_555 1_555
C3 C4 1_555 1_555
C4 C5 1_555 1_555
C5 C6 1_555 1_555
C6 C1 1_555 1_555
C7 C1 1_555 1_555
N1 C7 1_555 1_555
N2 C2 1_555 1_555
O1 N2 1_555 1_555
O2 N2 1_555 1_555
H1 C3 1_555 1_555
H2 C4 1_555 1_555
H3 C6 1_555 1_555

#END
