
#######################################################################
#
#                 Cambridge Crystallographic Data Centre
#                                CCDC 
#
#######################################################################
#
# If this CIF has been generated from an entry in the Cambridge 
# Structural Database, then it will include bibliographic, chemical, 
# crystal, experimental, refinement or atomic coordinate data resulting 
# from the CCDC's data processing and validation procedures.
#
#######################################################################

data_ZUGPOG
_chemical_formula_moiety         'C8 H6 N2 O2'
_chemical_name_systematic        6-Methyl-2-nitrobenzonitrile
_symmetry_cell_setting           orthorhombic
_symmetry_space_group_name_H-M   'P b c a'
_symmetry_Int_Tables_number      61
_space_group_name_Hall           '-P 2ac 2ab'
loop_
_symmetry_equiv_pos_site_id
_symmetry_equiv_pos_as_xyz
1 x,y,z
2 1/2-x,-y,1/2+z
3 1/2+x,1/2-y,-z
4 -x,1/2+y,1/2-z
5 -x,-y,-z
6 1/2+x,y,1/2-z
7 1/2-x,1/2+y,z
8 x,1/2-y,1/2+z
_cell_length_a                   9.969(2)
_cell_length_b                   14.728(4)
_cell_length_c                   10.179(3)
_cell_angle_alpha                90
_cell_angle_beta                 90
_cell_angle_gamma                90
_cell_volume                     1494.52
_exptl_crystal_colour            yellow
_cell_formula_units_Z            8
loop_
_atom_site_label
_atom_site_type_symbol
_atom_site_fract_x
_atom_site_fract_y
_atom_site_fract_z
C1 C 0.4165(2) 0.3278(2) 0.1492(2)
C2 C 0.3325(3) 0.3012(2) 0.0468(2)
C3 C 0.2663(3) 0.3619(2) -0.0335(3)
C4 C 0.2827(3) 0.4532(2) -0.0091(3)
C5 C 0.3646(3) 0.4820(2) 0.0912(3)
C6 C 0.4325(2) 0.4214(2) 0.1716(3)
C7 C 0.4871(3) 0.2660(2) 0.2336(3)
N1 N 0.5488(2) 0.2254(2) 0.3075(2)
N2 N 0.3141(2) 0.2040(1) 0.0177(2)
O1 O 0.3715(3) 0.1490(1) 0.0876(2)
O2 O 0.2429(1) 0.1821(1) -0.0743(2)
C8 C 0.5230(3) 0.4535(2) 0.2789(3)
H1 H 0.206(3) 0.346(2) -0.105(3)
H2 H 0.227(3) 0.498(2) -0.063(2)
H3 H 0.375(2) 0.538(2) 0.104(2)
H4 H 0.521(4) 0.522(3) 0.282(3)
H5 H 0.616(3) 0.429(2) 0.268(3)
H6 H 0.488(4) 0.429(2) 0.367(3)
loop_
_geom_bond_atom_site_label_1
_geom_bond_atom_site_label_2
_geom_bond_site_symmetry_1
_geom_bond_site_symmetry_2
C1 C2 1_555 1_555
C2 C3 1_555 1_555
C3 C4 1_555 1_555
C4 C5 1_555 1_555
C5 C6 1_555 1_555
C6 C1 1_555 1_555
C7 C1 1_555 1_555
N1 C7 1_555 1_555
N2 C2 1_555 1_555
O1 N2 1_555 1_555
O2 N2 1_555 1_555
C8 C6 1_555 1_555
H1 C3 1_555 1_555
H2 C4 1_555 1_555
H3 C5 1_555 1_555
H4 C8 1_555 1_555
H5 C8 1_555 1_555
H6 C8 1_555 1_555

#END
