
#######################################################################
#
#                 Cambridge Crystallographic Data Centre
#                                CCDC 
#
#######################################################################
#
# If this CIF has been generated from an entry in the Cambridge 
# Structural Database, then it will include bibliographic, chemical, 
# crystal, experimental, refinement or atomic coordinate data resulting 
# from the CCDC's data processing and validation procedures.
#
#######################################################################

data_ZUGSEB
_chemical_formula_moiety         'C16 H20 N2 O2'
_chemical_name_systematic        
Morpholin-4-yl(3,3,5-trimethyl-3H-indol-2-yl)methanone
_symmetry_cell_setting           triclinic
_symmetry_space_group_name_H-M   'P -1'
_symmetry_Int_Tables_number      2
_space_group_name_Hall           '-P 1'
loop_
_symmetry_equiv_pos_site_id
_symmetry_equiv_pos_as_xyz
1 x,y,z
2 -x,-y,-z
_cell_length_a                   8.567(3)
_cell_length_b                   9.792(4)
_cell_length_c                   10.008(4)
_cell_angle_alpha                115.226(5)
_cell_angle_beta                 95.598(3)
_cell_angle_gamma                103.798(6)
_cell_volume                     718.361
_exptl_crystal_colour            colorless
_exptl_crystal_description       platelet
_cell_formula_units_Z            2
_exptl_crystal_recrystallization_method chloroform
loop_
_atom_site_label
_atom_site_type_symbol
_atom_site_fract_x
_atom_site_fract_y
_atom_site_fract_z
O1 O 0.5707(3) 0.6753(3) 0.4362(3)
O2 O -0.0147(3) 0.3818(3) 0.2735(3)
N1 N 0.4164(3) 0.6485(3) 0.0871(3)
N2 N 0.2980(3) 0.5997(3) 0.3372(3)
C1 C 0.6876(4) 0.9234(4) -0.0855(4)
C2 C 0.7882(5) 1.0306(5) -0.1435(5)
C3 C 0.7385(4) 0.9495(4) 0.0634(4)
C4 C 0.6430(4) 0.8492(4) 0.1105(3)
C5 C 0.5002(4) 0.7296(4) 0.0135(3)
C6 C 0.4476(4) 0.6992(4) -0.1350(4)
C7 C 0.5447(4) 0.7987(4) -0.1840(4)
C8 C 0.6650(4) 0.8435(4) 0.2590(4)
C9 C 0.5044(4) 0.7133(4) 0.2245(3)
C10 C 0.4582(4) 0.6604(4) 0.3397(4)
C11 C 0.2573(4) 0.5393(4) 0.4463(4)
C12 C 0.1521(4) 0.6037(5) 0.2497(4)
C13 C 0.0306(5) 0.4359(5) 0.1644(4)
C14 C 0.1291(5) 0.3748(5) 0.3569(5)
C15 C 0.8172(4) 0.7865(5) 0.2785(5)
C16 C 0.6791(5) 1.0035(4) 0.3974(4)
loop_
_geom_bond_atom_site_label_1
_geom_bond_atom_site_label_2
_geom_bond_site_symmetry_1
_geom_bond_site_symmetry_2
O1 C10 1_555 1_555
O2 C13 1_555 1_555
N1 C5 1_555 1_555
N2 C10 1_555 1_555
C1 C2 1_555 1_555
C3 C1 1_555 1_555
C4 C3 1_555 1_555
C5 C4 1_555 1_555
C6 C5 1_555 1_555
C7 C1 1_555 1_555
C8 C4 1_555 1_555
C9 N1 1_555 1_555
C10 C9 1_555 1_555
C11 N2 1_555 1_555
C12 N2 1_555 1_555
C13 C12 1_555 1_555
C14 O2 1_555 1_555
C15 C8 1_555 1_555
C16 C8 1_555 1_555
C6 C7 1_555 1_555
C8 C9 1_555 1_555
C11 C14 1_555 1_555

#END
