
#######################################################################
#
#                 Cambridge Crystallographic Data Centre
#                                CCDC 
#
#######################################################################
#
# If this CIF has been generated from an entry in the Cambridge 
# Structural Database, then it will include bibliographic, chemical, 
# crystal, experimental, refinement or atomic coordinate data resulting 
# from the CCDC's data processing and validation procedures.
#
#######################################################################

data_ZUGZUY01
_chemical_compound_source        
'isolated from the culture broth of Penicillium camemberti'
_chemical_name_common            'Penicamedine A'
_chemical_formula_moiety         'C21 H22 N2 O7'
_chemical_name_systematic        
1-acetyl-1,10a,10b-trihydroxy-3,3,8-trimethyl-1,3a,4,10a,10b,10c-hexahydro-2H,3H-10-oxa-2a,8-diazacyclopenta[3,4]pentaleno[1,6-cd]acenaphthylene-2,9(8H)-dione
_symmetry_cell_setting           tetragonal
_symmetry_space_group_name_H-M   'P 41 21 2'
_symmetry_Int_Tables_number      92
_space_group_name_Hall           'P 4abw 2nw'
loop_
_symmetry_equiv_pos_site_id
_symmetry_equiv_pos_as_xyz
1 x,y,z
2 1/2-y,1/2+x,1/4+z
3 1/2+y,1/2-x,3/4+z
4 1/2+x,1/2-y,3/4-z
5 1/2-x,1/2+y,1/4-z
6 -x,-y,1/2+z
7 y,x,-z
8 -y,-x,1/2-z
_cell_length_a                   14.8560(8)
_cell_length_b                   14.8560(8)
_cell_length_c                   17.8997(11)
_cell_angle_alpha                90
_cell_angle_beta                 90
_cell_angle_gamma                90
_cell_volume                     3950.48
_exptl_crystal_colour            colorless
_exptl_crystal_description       prism
_cell_formula_units_Z            8
loop_
_atom_site_label
_atom_site_type_symbol
_atom_site_fract_x
_atom_site_fract_y
_atom_site_fract_z
O1 O 0.21809(11) 0.80118(11) 0.05162(9)
O2 O -0.06469(11) 0.76835(12) 0.10852(10)
O3 O 0.19358(13) 0.77377(14) -0.11505(10)
O4 O 0.04305(11) 0.64714(11) 0.01641(8)
H1 H -0.0051 0.6665 0.0351
O5 O 0.11180(12) 0.73712(11) 0.24749(9)
O6 O 0.07832(11) 0.82861(12) -0.00443(9)
H2 H 0.1017 0.8144 -0.0455
O7 O 0.12403(12) 0.89622(11) 0.15706(9)
H3 H 0.1641 0.8836 0.1885
C1 C 0.12412(15) 0.78574(16) 0.05338(12)
N1 N 0.11385(13) 0.66090(12) 0.13557(10)
C2 C 0.5366(2) 0.7067(2) 0.0309(2)
H4 H 0.6003 0.7035 0.0351
C3 C 0.48528(19) 0.6737(2) 0.0886(2)
H5 H 0.5135 0.6462 0.1305
C4 C 0.39160(18) 0.68066(18) 0.08563(17)
C5 C 0.35619(16) 0.72239(17) 0.02405(16)
C6 C 0.25883(16) 0.72963(17) 0.00720(14)
C7 C 0.08659(16) 0.81710(16) 0.12943(12)
C8 C -0.01518(16) 0.83182(18) 0.11875(13)
C9 C -0.0470(2) 0.92744(19) 0.11993(18)
H6 H -0.1090 0.9303 0.1015
H7 H -0.0081 0.9641 0.0879
H8 H -0.0446 0.9505 0.1712
C10 C 0.20623(15) 0.64452(16) 0.02835(13)
H9 H 0.1981 0.6038 -0.0156
C11 C 0.24733(16) 0.59302(15) 0.09673(13)
H10 H 0.2714 0.5339 0.0789
C12 C 0.32328(18) 0.64348(18) 0.13870(15)
H11 H 0.2969 0.6933 0.1682
H12 H 0.3532 0.6016 0.1739
C13 C 0.4997(2) 0.7447(2) -0.0337(2)
H13 H 0.5364 0.7655 -0.0735
C14 C 0.40627(18) 0.75039(18) -0.03632(19)
N2 N 0.34691(16) 0.77418(16) -0.09516(15)
C15 C 0.25957(18) 0.76015(18) -0.07569(15)
C16 C 0.3752(2) 0.8031(3) -0.1693(2)
H14 H 0.3250 0.7965 -0.2043
H15 H 0.4259 0.7659 -0.1860
H16 H 0.3939 0.8663 -0.1674
C17 C 0.16500(17) 0.57495(15) 0.14844(13)
C18 C 0.11615(15) 0.68257(16) 0.05546(12)
C19 C 0.10490(16) 0.73391(15) 0.17966(12)
C20 C 0.1884(2) 0.55728(17) 0.23011(13)
H17 H 0.2183 0.6103 0.2512
H18 H 0.2287 0.5052 0.2334
H19 H 0.1331 0.5449 0.2582
C21 C 0.10928(18) 0.49605(16) 0.11982(14)
H20 H 0.0516 0.4942 0.1463
H21 H 0.1420 0.4398 0.1285
H22 H 0.0984 0.5034 0.0662
loop_
_geom_bond_atom_site_label_1
_geom_bond_atom_site_label_2
_geom_bond_site_symmetry_1
_geom_bond_site_symmetry_2
O1 C1 1_555 1_555
O2 C8 1_555 1_555
O3 C15 1_555 1_555
O4 H1 1_555 1_555
O5 C19 1_555 1_555
O6 H2 1_555 1_555
O7 H3 1_555 1_555
C1 O6 1_555 1_555
N1 C17 1_555 1_555
C2 H4 1_555 1_555
C3 C2 1_555 1_555
H5 C3 1_555 1_555
C4 C3 1_555 1_555
C5 C4 1_555 1_555
C6 O1 1_555 1_555
C7 O7 1_555 1_555
C8 C7 1_555 1_555
C9 C8 1_555 1_555
H6 C9 1_555 1_555
H7 C9 1_555 1_555
H8 C9 1_555 1_555
C10 C6 1_555 1_555
H9 C10 1_555 1_555
C11 C10 1_555 1_555
H10 C11 1_555 1_555
C12 C4 1_555 1_555
H11 C12 1_555 1_555
H12 C12 1_555 1_555
C13 C2 1_555 1_555
H13 C13 1_555 1_555
C14 C5 1_555 1_555
N2 C14 1_555 1_555
C15 C6 1_555 1_555
C16 N2 1_555 1_555
H14 C16 1_555 1_555
H15 C16 1_555 1_555
H16 C16 1_555 1_555
C17 C11 1_555 1_555
C18 O4 1_555 1_555
C19 N1 1_555 1_555
C20 C17 1_555 1_555
H17 C20 1_555 1_555
H18 C20 1_555 1_555
H19 C20 1_555 1_555
C21 C17 1_555 1_555
H20 C21 1_555 1_555
H21 C21 1_555 1_555
H22 C21 1_555 1_555
C1 C7 1_555 1_555
C1 C18 1_555 1_555
N1 C18 1_555 1_555
C5 C6 1_555 1_555
C7 C19 1_555 1_555
C10 C18 1_555 1_555
C11 C12 1_555 1_555
C13 C14 1_555 1_555
N2 C15 1_555 1_555

#END
