
#######################################################################
#
#                 Cambridge Crystallographic Data Centre
#                                CCDC 
#
#######################################################################
#
# If this CIF has been generated from an entry in the Cambridge 
# Structural Database, then it will include bibliographic, chemical, 
# crystal, experimental, refinement or atomic coordinate data resulting 
# from the CCDC's data processing and validation procedures.
#
#######################################################################

data_ZUHBIP
_chemical_formula_moiety         'C7 H11 N2 1+,C8 H5 O4 1-'
_chemical_name_systematic        
'4-(dimethylamino)pyridinium 1,3-benzodioxole-5-carboxylate'
_symmetry_cell_setting           monoclinic
_symmetry_space_group_name_H-M   'P 21/c'
_symmetry_Int_Tables_number      14
_space_group_name_Hall           '-P 2ybc'
loop_
_symmetry_equiv_pos_site_id
_symmetry_equiv_pos_as_xyz
1 x,y,z
2 -x,1/2+y,1/2-z
3 -x,-y,-z
4 x,1/2-y,1/2+z
_cell_length_a                   11.4012(11)
_cell_length_b                   7.9832(6)
_cell_length_c                   15.7809(13)
_cell_angle_alpha                90
_cell_angle_beta                 106.2740(10)
_cell_angle_gamma                90
_cell_volume                     1378.8
_exptl_crystal_colour            colorless
_exptl_crystal_description       block
_cell_formula_units_Z            4
loop_
_atom_site_label
_atom_site_type_symbol
_atom_site_fract_x
_atom_site_fract_y
_atom_site_fract_z
N1 N -0.01413(19) 0.2878(3) -0.15380(13)
H1 H -0.0555 0.2729 -0.2079
N2 N 0.17424(17) 0.3809(2) 0.10483(12)
C1 C -0.0484(2) 0.2138(3) -0.08842(17)
H2 H -0.1165 0.1442 -0.1026
C2 C 0.0128(2) 0.2369(3) -0.00245(16)
H3 H -0.0127 0.1820 0.0413
C3 C 0.11508(19) 0.3441(3) 0.02096(14)
C4 C 0.1510(2) 0.4136(3) -0.05023(14)
H4 H 0.2209 0.4797 -0.0391
C5 C 0.0849(2) 0.3849(3) -0.13405(15)
H5 H 0.1091 0.4345 -0.1797
C6 C 0.1454(2) 0.2980(4) 0.17905(16)
H6 H 0.0584 0.2871 0.1669
H7 H 0.1766 0.3636 0.2316
H8 H 0.1823 0.1890 0.1875
C7 C 0.2808(2) 0.4886(4) 0.12629(16)
H9 H 0.3499 0.4275 0.1192
H10 H 0.2972 0.5258 0.1863
H11 H 0.2658 0.5838 0.0876
O1 O 0.86149(18) 0.3248(3) 0.68416(11)
O2 O 0.7228(2) 0.1539(3) 0.70839(13)
O3 O 0.65152(17) 0.5733(2) 0.38096(11)
O4 O 0.47388(16) 0.4233(2) 0.32301(11)
C8 C 0.7578(2) 0.2550(3) 0.66172(16)
C9 C 0.6775(2) 0.2987(3) 0.57183(14)
C10 C 0.7127(2) 0.4248(3) 0.52290(15)
H12 H 0.7843 0.4854 0.5455
C11 C 0.63777(19) 0.4558(3) 0.44056(14)
C12 C 0.5312(2) 0.3685(3) 0.40614(14)
C13 C 0.4942(2) 0.2466(3) 0.45293(16)
H13 H 0.4219 0.1879 0.4296
C14 C 0.5691(2) 0.2133(3) 0.53707(16)
H14 H 0.5457 0.1314 0.5710
C15 C 0.5502(3) 0.5528(4) 0.30500(16)
H15 H 0.5785 0.5224 0.2545
H16 H 0.5047 0.6567 0.2916
loop_
_geom_bond_atom_site_label_1
_geom_bond_atom_site_label_2
_geom_bond_site_symmetry_1
_geom_bond_site_symmetry_2
N1 H1 1_555 1_555
N2 C3 1_555 1_555
C1 N1 1_555 1_555
H2 C1 1_555 1_555
C2 C1 1_555 1_555
H3 C2 1_555 1_555
C3 C2 1_555 1_555
C4 C3 1_555 1_555
H4 C4 1_555 1_555
C5 N1 1_555 1_555
H5 C5 1_555 1_555
C6 N2 1_555 1_555
H6 C6 1_555 1_555
H7 C6 1_555 1_555
H8 C6 1_555 1_555
C7 N2 1_555 1_555
H9 C7 1_555 1_555
H10 C7 1_555 1_555
H11 C7 1_555 1_555
O1 C8 1_555 1_555
O2 C8 1_555 1_555
O3 C11 1_555 1_555
O4 C12 1_555 1_555
C8 C9 1_555 1_555
C9 C10 1_555 1_555
C10 H12 1_555 1_555
C11 C10 1_555 1_555
C12 C11 1_555 1_555
C13 C12 1_555 1_555
H13 C13 1_555 1_555
C14 C9 1_555 1_555
H14 C14 1_555 1_555
C15 O3 1_555 1_555
H15 C15 1_555 1_555
H16 C15 1_555 1_555
C4 C5 1_555 1_555
O4 C15 1_555 1_555
C13 C14 1_555 1_555

#END
