
#######################################################################
#
#                 Cambridge Crystallographic Data Centre
#                                CCDC 
#
#######################################################################
#
# If this CIF has been generated from an entry in the Cambridge 
# Structural Database, then it will include bibliographic, chemical, 
# crystal, experimental, refinement or atomic coordinate data resulting 
# from the CCDC's data processing and validation procedures.
#
#######################################################################

data_ZUHCEM
_chemical_formula_moiety         'C7 H11 N2 1+,C7 H4 Cl1 O3 1-'
_chemical_name_systematic        
'4-(Dimethylamino)pyridinium 2-hydroxy-5-chlorobenzoate'
_symmetry_cell_setting           monoclinic
_symmetry_space_group_name_H-M   'P 21/c'
_symmetry_Int_Tables_number      14
_space_group_name_Hall           '-P 2ybc'
loop_
_symmetry_equiv_pos_site_id
_symmetry_equiv_pos_as_xyz
1 x,y,z
2 -x,1/2+y,1/2-z
3 -x,-y,-z
4 x,1/2-y,1/2+z
_cell_length_a                   13.9028(12)
_cell_length_b                   7.9794(6)
_cell_length_c                   12.7175(11)
_cell_angle_alpha                90
_cell_angle_beta                 98.6220(10)
_cell_angle_gamma                90
_cell_volume                     1394.88
_exptl_crystal_colour            colorless
_exptl_crystal_description       block
_cell_formula_units_Z            4
loop_
_atom_site_label
_atom_site_type_symbol
_atom_site_fract_x
_atom_site_fract_y
_atom_site_fract_z
Cl1 Cl 0.48243(8) 0.23280(18) 0.44681(9)
O1 O 0.82576(18) -0.0715(3) 0.51512(19)
O2 O 0.87830(19) -0.0863(4) 0.35910(19)
O3 O 0.7818(2) 0.0308(4) 0.19614(19)
H1 H 0.8270 -0.0157 0.2338
C1 C 0.8154(3) -0.0454(5) 0.4172(3)
C2 C 0.7262(3) 0.0399(4) 0.3644(3)
C3 C 0.7135(3) 0.0740(5) 0.2554(3)
C4 C 0.6300(3) 0.1546(6) 0.2076(3)
H2 H 0.6218 0.1764 0.1349
C5 C 0.5594(3) 0.2025(5) 0.2656(3)
H3 H 0.5038 0.2572 0.2329
C6 C 0.5715(3) 0.1688(5) 0.3733(3)
C7 C 0.6532(3) 0.0879(5) 0.4217(3)
H4 H 0.6599 0.0647 0.4941
N1 N -0.0116(2) 0.7458(4) 0.5754(2)
H5 H -0.0639 0.8035 0.5587
N2 N 0.2399(2) 0.4743(4) 0.6542(2)
C8 C 0.0130(3) 0.6898(5) 0.6740(3)
H6 H -0.0271 0.7134 0.7244
C9 C 0.0949(3) 0.5992(5) 0.7032(3)
H7 H 0.1101 0.5615 0.7729
C10 C 0.1574(3) 0.5616(4) 0.6288(3)
C11 C 0.1279(3) 0.6230(5) 0.5249(3)
H8 H 0.1657 0.6015 0.4720
C12 C 0.0455(3) 0.7121(5) 0.5021(3)
H9 H 0.0275 0.7517 0.4332
C13 C 0.3024(3) 0.4330(6) 0.5757(3)
H10 H 0.2639 0.3852 0.5140
H11 H 0.3508 0.3536 0.6056
H12 H 0.3337 0.5328 0.5558
C14 C 0.2727(3) 0.4162(6) 0.7622(3)
H13 H 0.3052 0.5059 0.8035
H14 H 0.3169 0.3241 0.7604
H15 H 0.2177 0.3802 0.7938
loop_
_geom_bond_atom_site_label_1
_geom_bond_atom_site_label_2
_geom_bond_site_symmetry_1
_geom_bond_site_symmetry_2
Cl1 C6 1_555 1_555
O1 C1 1_555 1_555
O2 C1 1_555 1_555
O3 H1 1_555 1_555
C1 C2 1_555 1_555
C2 C3 1_555 1_555
C3 O3 1_555 1_555
C4 C3 1_555 1_555
H2 C4 1_555 1_555
C5 C4 1_555 1_555
H3 C5 1_555 1_555
C6 C5 1_555 1_555
C7 C2 1_555 1_555
H4 C7 1_555 1_555
N1 H5 1_555 1_555
N2 C10 1_555 1_555
C8 N1 1_555 1_555
H6 C8 1_555 1_555
C9 C8 1_555 1_555
H7 C9 1_555 1_555
C10 C9 1_555 1_555
C11 C10 1_555 1_555
H8 C11 1_555 1_555
C12 N1 1_555 1_555
H9 C12 1_555 1_555
C13 N2 1_555 1_555
H10 C13 1_555 1_555
H11 C13 1_555 1_555
H12 C13 1_555 1_555
C14 N2 1_555 1_555
H13 C14 1_555 1_555
H14 C14 1_555 1_555
H15 C14 1_555 1_555
C6 C7 1_555 1_555
C11 C12 1_555 1_555

#END
