
#######################################################################
#
#                 Cambridge Crystallographic Data Centre
#                                CCDC 
#
#######################################################################
#
# If this CIF has been generated from an entry in the Cambridge 
# Structural Database, then it will include bibliographic, chemical, 
# crystal, experimental, refinement or atomic coordinate data resulting 
# from the CCDC's data processing and validation procedures.
#
#######################################################################

data_ZUHDAJ
_chemical_formula_moiety         'C7 H11 N2 1+,C7 H5 O6 S1 1-,H2 O1'
_chemical_name_systematic        
'4-(Dimethylamino)pyridinium 3-carboxy-4-hydroxybenzenesulfonate monohydrate'
_symmetry_cell_setting           monoclinic
_symmetry_space_group_name_H-M   'P 21/c'
_symmetry_Int_Tables_number      14
_space_group_name_Hall           '-P 2ybc'
loop_
_symmetry_equiv_pos_site_id
_symmetry_equiv_pos_as_xyz
1 x,y,z
2 -x,1/2+y,1/2-z
3 -x,-y,-z
4 x,1/2-y,1/2+z
_cell_length_a                   7.1340(6)
_cell_length_b                   23.805(2)
_cell_length_c                   10.0821(9)
_cell_angle_alpha                90
_cell_angle_beta                 110.566(2)
_cell_angle_gamma                90
_cell_volume                     1603.07
_exptl_crystal_colour            colorless
_exptl_crystal_description       BLOCK
_cell_formula_units_Z            4
loop_
_atom_site_label
_atom_site_type_symbol
_atom_site_fract_x
_atom_site_fract_y
_atom_site_fract_z
N1 N 0.3029(4) 0.22813(10) 0.8294(3)
H1 H 0.3366 0.2630 0.8381
N2 N 0.1443(4) 0.06146(10) 0.7889(3)
C1 C 0.1965(5) 0.20720(13) 0.7019(3)
H2 H 0.1584 0.2309 0.6236
C2 C 0.1429(4) 0.15224(12) 0.6838(3)
H3 H 0.0712 0.1386 0.5937
C3 C 0.1960(4) 0.11570(11) 0.8020(3)
C4 C 0.3061(5) 0.14023(13) 0.9344(3)
H4 H 0.3436 0.1183 1.0159
C5 C 0.3568(5) 0.19466(14) 0.9438(4)
H5 H 0.4313 0.2096 1.0318
C6 C 0.0459(6) 0.03547(15) 0.6507(4)
H6 H -0.0899 0.0485 0.6116
H7 H 0.0470 -0.0046 0.6613
H8 H 0.1159 0.0455 0.5884
C7 C 0.1945(7) 0.02417(15) 0.9111(4)
H9 H 0.3337 0.0143 0.9409
H10 H 0.1146 -0.0093 0.8858
H11 H 0.1684 0.0429 0.9872
O1 O 0.7664(3) 0.26096(8) 0.7207(2)
H12 H 0.8185 0.2892 0.7648
O2 O 0.8794(4) 0.22320(10) 0.9361(2)
O3 O 0.8005(4) 0.11728(10) 0.9652(2)
H13 H 0.8489 0.1483 0.9917
O4 O 0.5507(3) 0.07317(8) 0.2975(2)
O5 O 0.3971(4) 0.16372(8) 0.2900(2)
O6 O 0.2238(3) 0.07894(9) 0.3151(2)
S1 S 0.41457(12) 0.10652(3) 0.34350(8)
C8 C 0.7919(5) 0.21872(12) 0.8086(3)
C9 C 0.7037(4) 0.16532(11) 0.7400(3)
C10 C 0.7097(5) 0.11747(13) 0.8227(3)
C11 C 0.6177(5) 0.06839(12) 0.7581(3)
H14 H 0.6189 0.0370 0.8132
C12 C 0.5256(5) 0.06559(12) 0.6146(3)
H15 H 0.4630 0.0325 0.5727
C13 C 0.5249(4) 0.11225(11) 0.5303(3)
C14 C 0.6140(4) 0.16131(11) 0.5929(3)
H16 H 0.6146 0.1923 0.5367
O7 O 0.8912(3) 0.35973(8) 0.8219(2)
H17 H 0.7928 0.3812 0.8142
H18 H 0.9885 0.3798 0.8193
loop_
_geom_bond_atom_site_label_1
_geom_bond_atom_site_label_2
_geom_bond_site_symmetry_1
_geom_bond_site_symmetry_2
N1 H1 1_555 1_555
N2 C3 1_555 1_555
C1 N1 1_555 1_555
H2 C1 1_555 1_555
C2 C1 1_555 1_555
H3 C2 1_555 1_555
C3 C2 1_555 1_555
C4 C3 1_555 1_555
H4 C4 1_555 1_555
C5 N1 1_555 1_555
H5 C5 1_555 1_555
C6 N2 1_555 1_555
H6 C6 1_555 1_555
H7 C6 1_555 1_555
H8 C6 1_555 1_555
C7 N2 1_555 1_555
H9 C7 1_555 1_555
H10 C7 1_555 1_555
H11 C7 1_555 1_555
O1 H12 1_555 1_555
O2 C8 1_555 1_555
O3 H13 1_555 1_555
O4 S1 1_555 1_555
O5 S1 1_555 1_555
O6 S1 1_555 1_555
S1 C13 1_555 1_555
C8 O1 1_555 1_555
C9 C8 1_555 1_555
C10 O3 1_555 1_555
C11 C10 1_555 1_555
H14 C11 1_555 1_555
C12 C11 1_555 1_555
H15 C12 1_555 1_555
C13 C12 1_555 1_555
C14 C9 1_555 1_555
H16 C14 1_555 1_555
O7 H17 1_555 1_555
H18 O7 1_555 1_555
C4 C5 1_555 1_555
C9 C10 1_555 1_555
C13 C14 1_555 1_555

#END
