
#######################################################################
#
#                 Cambridge Crystallographic Data Centre
#                                CCDC 
#
#######################################################################
#
# If this CIF has been generated from an entry in the Cambridge 
# Structural Database, then it will include bibliographic, chemical, 
# crystal, experimental, refinement or atomic coordinate data resulting 
# from the CCDC's data processing and validation procedures.
#
#######################################################################

data_ZUHGOY02
_chemical_formula_moiety         'C11 H9 N1 O4'
_chemical_name_systematic        
'3-(1,3-Dioxo-1,3-dihydro-2H-isoindol-2-yl)propanoic acid'
_symmetry_cell_setting           triclinic
_symmetry_space_group_name_H-M   'P -1'
_symmetry_Int_Tables_number      2
_space_group_name_Hall           '-P 1'
loop_
_symmetry_equiv_pos_site_id
_symmetry_equiv_pos_as_xyz
1 x,y,z
2 -x,-y,-z
_cell_length_a                   8.629(2)
_cell_length_b                   10.440(3)
_cell_length_c                   12.379(4)
_cell_angle_alpha                80.505(11)
_cell_angle_beta                 76.238(11)
_cell_angle_gamma                65.983(9)
_cell_volume                     986.472
_exptl_crystal_colour            colorless
_exptl_crystal_description       block
_cell_formula_units_Z            4
loop_
_atom_site_label
_atom_site_type_symbol
_atom_site_fract_x
_atom_site_fract_y
_atom_site_fract_z
O1 O 0.21791(17) 0.47226(13) 0.03756(11)
O2 O 0.21318(17) 0.91368(13) -0.06881(11)
O3 O -0.12026(15) 0.72943(12) -0.26041(9)
O4 O -0.35992(15) 0.86110(13) -0.14883(10)
H1 H -0.4065 0.8583 -0.1984
N1 N 0.19083(17) 0.69692(14) -0.03500(11)
C1 C 0.24797(19) 0.57568(16) 0.03607(13)
C2 C 0.34984(19) 0.60355(16) 0.10460(12)
C3 C 0.4341(2) 0.52032(18) 0.18823(13)
H2 H 0.4357 0.4302 0.2097
C4 C 0.5164(2) 0.5770(2) 0.23901(14)
H3 H 0.5740 0.5239 0.2960
C5 C 0.5144(2) 0.7109(2) 0.20655(14)
H4 H 0.5700 0.7461 0.2426
C6 C 0.4310(2) 0.79441(18) 0.12106(14)
H5 H 0.4309 0.8839 0.0985
C7 C 0.34857(19) 0.73750(16) 0.07154(12)
C8 C 0.2458(2) 0.79939(16) -0.01852(13)
C9 C 0.0962(2) 0.70987(19) -0.12186(14)
H6 H 0.1225 0.6168 -0.1432
H7 H 0.1346 0.7628 -0.1870
C10 C -0.0975(2) 0.78232(16) -0.08504(13)
H8 H -0.1357 0.7323 -0.0178
H9 H -0.1250 0.8774 -0.0677
C11 C -0.1916(2) 0.78726(15) -0.17424(13)
O5 O 0.73502(16) 0.44618(13) 0.46221(11)
O6 O 0.86929(17) -0.00234(13) 0.62214(11)
O7 O 0.50612(16) 0.16442(16) 0.31083(10)
O8 O 0.26784(17) 0.20799(18) 0.44053(11)
H10 H 0.2247 0.2109 0.3874
N2 N 0.77957(17) 0.21602(14) 0.52586(11)
C12 C 0.79643(19) 0.34355(16) 0.52344(13)
C13 C 0.90221(18) 0.32372(16) 0.60832(12)
C14 C 0.9587(2) 0.41528(17) 0.64005(14)
H11 H 0.9306 0.5070 0.6080
C15 C 1.0595(2) 0.36452(19) 0.72204(14)
H12 H 1.0995 0.4236 0.7455
C16 C 1.1013(2) 0.2277(2) 0.76940(13)
H13 H 1.1696 0.1966 0.8237
C17 C 1.0435(2) 0.13603(18) 0.73749(13)
H14 H 1.0709 0.0443 0.7695
C18 C 0.94352(18) 0.18709(16) 0.65626(12)
C19 C 0.8646(2) 0.11635(16) 0.60401(13)
C20 C 0.7000(2) 0.18511(19) 0.44763(14)
H15 H 0.7638 0.0881 0.4295
H16 H 0.7077 0.2447 0.3793
C21 C 0.5125(2) 0.20769(17) 0.49273(13)
H17 H 0.5051 0.1406 0.5561
H18 H 0.4504 0.3015 0.5182
C22 C 0.4302(2) 0.19025(17) 0.40536(13)
loop_
_geom_bond_atom_site_label_1
_geom_bond_atom_site_label_2
_geom_bond_site_symmetry_1
_geom_bond_site_symmetry_2
O1 C1 1_555 1_555
O2 C8 1_555 1_555
O3 C11 1_555 1_555
O4 H1 1_555 1_555
N1 C1 1_555 1_555
C1 C2 1_555 1_555
C2 C3 1_555 1_555
C3 H2 1_555 1_555
C4 C3 1_555 1_555
H3 C4 1_555 1_555
C5 C4 1_555 1_555
H4 C5 1_555 1_555
C6 C5 1_555 1_555
H5 C6 1_555 1_555
C7 C2 1_555 1_555
C8 N1 1_555 1_555
C9 N1 1_555 1_555
H6 C9 1_555 1_555
H7 C9 1_555 1_555
C10 C9 1_555 1_555
H8 C10 1_555 1_555
H9 C10 1_555 1_555
C11 O4 1_555 1_555
O5 C12 1_555 1_555
O6 C19 1_555 1_555
O7 C22 1_555 1_555
O8 H10 1_555 1_555
N2 C12 1_555 1_555
C12 C13 1_555 1_555
C13 C14 1_555 1_555
C14 H11 1_555 1_555
C15 C14 1_555 1_555
H12 C15 1_555 1_555
C16 C15 1_555 1_555
H13 C16 1_555 1_555
C17 C16 1_555 1_555
H14 C17 1_555 1_555
C18 C13 1_555 1_555
C19 N2 1_555 1_555
C20 N2 1_555 1_555
H15 C20 1_555 1_555
H16 C20 1_555 1_555
C21 C20 1_555 1_555
H17 C21 1_555 1_555
H18 C21 1_555 1_555
C22 O8 1_555 1_555
C6 C7 1_555 1_555
C7 C8 1_555 1_555
C10 C11 1_555 1_555
C17 C18 1_555 1_555
C18 C19 1_555 1_555
C21 C22 1_555 1_555

#END
