
#######################################################################
#
#                 Cambridge Crystallographic Data Centre
#                                CCDC 
#
#######################################################################
#
# If this CIF has been generated from an entry in the Cambridge 
# Structural Database, then it will include bibliographic, chemical, 
# crystal, experimental, refinement or atomic coordinate data resulting 
# from the CCDC's data processing and validation procedures.
#
#######################################################################

data_ZUHGUG
_chemical_formula_moiety         'C23 H50 N2 2+,H2 O1,2(Cl1 1-)'
_chemical_name_systematic        
'1-methyl-1-octadecylpiperazinediium dichloride monohydrate'
_symmetry_cell_setting           triclinic
_symmetry_space_group_name_H-M   'P -1'
_symmetry_Int_Tables_number      2
_space_group_name_Hall           '-P 1'
loop_
_symmetry_equiv_pos_site_id
_symmetry_equiv_pos_as_xyz
1 x,y,z
2 -x,-y,-z
_cell_length_a                   6.0428(3)
_cell_length_b                   6.4067(3)
_cell_length_c                   35.1026(16)
_cell_angle_alpha                94.042(4)
_cell_angle_beta                 90.983(4)
_cell_angle_gamma                95.026(4)
_cell_volume                     1350.01
_cell_formula_units_Z            2
loop_
_atom_site_label
_atom_site_type_symbol
_atom_site_fract_x
_atom_site_fract_y
_atom_site_fract_z
Cl1 Cl 0.06769(8) 0.87131(7) 0.349453(14)
Cl2 Cl 0.35194(8) 0.69930(7) 0.465076(14)
N1 N 0.3158(3) 0.6426(2) 0.63094(4)
N2 N 0.3152(3) 0.7692(2) 0.55216(5)
C1 C 0.4515(3) 0.8329(3) 0.61852(6)
H1 H 0.5883 0.8585 0.6347
H2 H 0.3655 0.9569 0.6225
C2 C 0.5148(3) 0.8100(3) 0.57737(6)
H3 H 0.6013 0.9401 0.5706
H4 H 0.6100 0.6924 0.5735
C3 C 0.1773(3) 0.5793(2) 0.56276(5)
H5 H 0.2607 0.4540 0.5581
H6 H 0.0401 0.5590 0.5466
C4 C 0.1170(3) 0.6022(3) 0.60414(5)
H7 H 0.0217 0.7197 0.6079
H8 H 0.0292 0.4723 0.6107
C5 C 0.4483(3) 0.4546(3) 0.63104(5)
H9 H 0.4871 0.4120 0.6048
H10 H 0.3597 0.3385 0.6418
H11 H 0.5845 0.4907 0.6465
C6 C 0.1826(8) 0.6593(9) 0.67055(17)
H12 H 0.0983 0.7852 0.6715
H13 H 0.0751 0.5341 0.6717
C7 C 0.3428(7) 0.6736(6) 0.70447(12)
H14 H 0.4758 0.7684 0.6994
H15 H 0.3916 0.5328 0.7083
C8 C 0.2308(6) 0.7578(6) 0.74093(10)
H16 H 0.1992 0.9051 0.7382
H17 H 0.0876 0.6737 0.7439
C9 C 0.3777(6) 0.7478(5) 0.77650(10)
H18 H 0.3845 0.5985 0.7816
H19 H 0.5303 0.8053 0.7710
C10 C 0.3024(6) 0.8657(5) 0.81246(10)
H20 H 0.1510 0.8073 0.8185
H21 H 0.2950 1.0152 0.8076
C11 C 0.4572(6) 0.8514(5) 0.84676(10)
H22 H 0.4550 0.7023 0.8526
H23 H 0.6105 0.8979 0.8396
C12 C 0.4012(6) 0.9798(5) 0.88267(10)
H24 H 0.2492 0.9315 0.8903
H25 H 0.4009 1.1288 0.8769
C13 C 0.5607(6) 0.9659(5) 0.91612(10)
H26 H 0.7130 1.0106 0.9082
H27 H 0.5581 0.8172 0.9222
C14 C 0.5097(6) 1.0983(5) 0.95221(10)
H28 H 0.5128 1.2472 0.9462
H29 H 0.3575 1.0538 0.9602
C15 C 0.6713(6) 1.0819(5) 0.98540(10)
H30 H 0.8237 1.1255 0.9774
H31 H 0.6674 0.9332 0.9916
C16 C 0.6200(6) 1.2169(5) 1.02150(10)
H32 H 0.6232 1.3653 1.0152
H33 H 0.4677 1.1729 1.0295
C17 C 0.7797(6) 1.2026(5) 1.05470(10)
H34 H 0.9322 1.2459 1.0467
H35 H 0.7760 1.0543 1.0610
C18 C 0.7297(6) 1.3373(5) 1.09050(10)
H36 H 0.7333 1.4858 1.0842
H37 H 0.5775 1.2938 1.0986
C19 C 0.8915(6) 1.3223(5) 1.12365(10)
H38 H 1.0434 1.3662 1.1154
H39 H 0.8885 1.1735 1.1297
C20 C 0.8440(6) 1.4548(5) 1.15989(10)
H40 H 0.8443 1.6034 1.1538
H41 H 0.6936 1.4089 1.1685
C21 C 1.0100(6) 1.4405(5) 1.19223(10)
H42 H 1.1605 1.4840 1.1833
H43 H 1.0080 1.2919 1.1984
C22 C 0.9685(6) 1.5736(6) 1.22863(10)
H44 H 0.8187 1.5307 1.2379
H45 H 0.9723 1.7230 1.2229
C23 C 1.1422(7) 1.5507(6) 1.26009(11)
H46 H 1.1101 1.6385 1.2830
H47 H 1.2905 1.5955 1.2512
H48 H 1.1369 1.4035 1.2662
H49 H 0.231(3) 0.885(3) 0.5545(5)
H50 H 0.351(4) 0.753(3) 0.5222(7)
O1 O -0.0414(2) 0.9229(2) 0.43386(5)
H88 H 0.055(4) 0.870(3) 0.4459(6)
H89 H 0.001(4) 0.903(3) 0.4050(7)
C24? C 0.2756(8) 0.7220(9) 0.67016(19)
H51? H 0.1683 0.6175 0.6810
H52? H 0.1990 0.8516 0.6684
C25? C 0.4658(7) 0.7734(6) 0.69975(12)
H53? H 0.5897 0.8566 0.6882
H54? H 0.5214 0.6412 0.7073
C26? C 0.3885(6) 0.8974(6) 0.73510(10)
H55? H 0.3615 1.0406 0.7284
H56? H 0.2463 0.8282 0.7434
C27? C 0.5584(6) 0.9131(6) 0.76813(10)
H57? H 0.5804 0.7695 0.7753
H58? H 0.7022 0.9755 0.7592
C28? C 0.4944(6) 1.0428(5) 0.80354(10)
H59? H 0.3443 0.9891 0.8112
H60? H 0.4874 1.1902 0.7972
C29? C 0.6563(6) 1.0379(6) 0.83716(10)
H61? H 0.6606 0.8905 0.8437
H62? H 0.8069 1.0878 0.8291
C30? C 0.5998(6) 1.1702(5) 0.87281(10)
H63? H 0.5986 1.3183 0.8665
H64? H 0.4483 1.1221 0.8806
C31? C 0.7606(6) 1.1603(5) 0.90627(10)
H65? H 0.9123 1.2064 0.8983
H66? H 0.7603 1.0123 0.9127
C32? C 0.7076(6) 1.2951(5) 0.94229(10)
H67? H 0.7097 1.4434 0.9360
H68? H 0.5555 1.2500 0.9502
C33? C 0.8686(6) 1.2817(5) 0.97565(10)
H69? H 1.0207 1.3272 0.9677
H70? H 0.8669 1.1333 0.9819
C34? C 0.8154(6) 1.4156(5) 1.01162(10)
H71? H 0.8177 1.5640 1.0054
H72? H 0.6630 1.3705 1.0194
C35? C 0.9749(6) 1.4022(5) 1.04509(10)
H73? H 1.1271 1.4482 1.0373
H74? H 0.9733 1.2536 1.0512
C36? C 0.9211(6) 1.5345(5) 1.08103(10)
H75? H 0.9229 1.6830 1.0749
H76? H 0.7687 1.4887 1.0888
C37? C 1.0800(6) 1.5212(6) 1.11458(10)
H77? H 1.2322 1.5683 1.1069
H78? H 1.0793 1.3725 1.1206
C38? C 1.0250(6) 1.6515(5) 1.15045(10)
H79? H 1.0261 1.8003 1.1445
H80? H 0.8727 1.6046 1.1581
C39? C 1.1842(6) 1.6375(5) 1.18399(10)
H81? H 1.1830 1.4886 1.1899
H82? H 1.3364 1.6840 1.1763
C40? C 1.1311(6) 1.7674(6) 1.22004(10)
H83? H 0.9787 1.7217 1.2278
H84? H 1.1339 1.9167 1.2143
C41? C 1.2926(7) 1.7488(6) 1.25327(12)
H85? H 1.2450 1.8292 1.2760
H86? H 1.4420 1.8044 1.2466
H87? H 1.2944 1.6008 1.2586
loop_
_geom_bond_atom_site_label_1
_geom_bond_atom_site_label_2
_geom_bond_site_symmetry_1
_geom_bond_site_symmetry_2
N1 C1 1_555 1_555
N2 C2 1_555 1_555
C1 H1 1_555 1_555
H2 C1 1_555 1_555
C2 C1 1_555 1_555
H3 C2 1_555 1_555
H4 C2 1_555 1_555
C3 N2 1_555 1_555
H5 C3 1_555 1_555
H6 C3 1_555 1_555
C4 N1 1_555 1_555
H7 C4 1_555 1_555
H8 C4 1_555 1_555
C5 N1 1_555 1_555
H9 C5 1_555 1_555
H10 C5 1_555 1_555
H11 C5 1_555 1_555
C6 N1 1_555 1_555
H12 C6 1_555 1_555
H13 C6 1_555 1_555
C7 C6 1_555 1_555
H14 C7 1_555 1_555
H15 C7 1_555 1_555
C8 C7 1_555 1_555
H16 C8 1_555 1_555
H17 C8 1_555 1_555
C9 C8 1_555 1_555
H18 C9 1_555 1_555
H19 C9 1_555 1_555
C10 C9 1_555 1_555
H20 C10 1_555 1_555
H21 C10 1_555 1_555
C11 C10 1_555 1_555
H22 C11 1_555 1_555
H23 C11 1_555 1_555
C12 C11 1_555 1_555
H24 C12 1_555 1_555
H25 C12 1_555 1_555
C13 C12 1_555 1_555
H26 C13 1_555 1_555
H27 C13 1_555 1_555
C14 C13 1_555 1_555
H28 C14 1_555 1_555
H29 C14 1_555 1_555
C15 C14 1_555 1_555
H30 C15 1_555 1_555
H31 C15 1_555 1_555
C16 C15 1_555 1_555
H32 C16 1_555 1_555
H33 C16 1_555 1_555
C17 C16 1_555 1_555
H34 C17 1_555 1_555
H35 C17 1_555 1_555
C18 C17 1_555 1_555
H36 C18 1_555 1_555
H37 C18 1_555 1_555
C19 C18 1_555 1_555
H38 C19 1_555 1_555
H39 C19 1_555 1_555
C20 C19 1_555 1_555
H40 C20 1_555 1_555
H41 C20 1_555 1_555
C21 C20 1_555 1_555
H42 C21 1_555 1_555
H43 C21 1_555 1_555
C22 C21 1_555 1_555
H44 C22 1_555 1_555
H45 C22 1_555 1_555
C23 C22 1_555 1_555
H46 C23 1_555 1_555
H47 C23 1_555 1_555
H48 C23 1_555 1_555
H49 N2 1_555 1_555
H50 N2 1_555 1_555
O1 H88 1_555 1_555
H89 O1 1_555 1_555
C3 C4 1_555 1_555

#END
