
#######################################################################
#
#                 Cambridge Crystallographic Data Centre
#                                CCDC 
#
#######################################################################
#
# If this CIF has been generated from an entry in the Cambridge 
# Structural Database, then it will include bibliographic, chemical, 
# crystal, experimental, refinement or atomic coordinate data resulting 
# from the CCDC's data processing and validation procedures.
#
#######################################################################

data_ZUHHER
_chemical_formula_moiety         'C12 H20 N2 2+,H2 O1,2(Cl1 1-)'
_chemical_name_systematic        
'1-benzyl-1-methylpiperazinediium dichloride monohydrate'
_symmetry_cell_setting           monoclinic
_symmetry_space_group_name_H-M   'P 21/c'
_symmetry_Int_Tables_number      14
_space_group_name_Hall           '-P 2ybc'
loop_
_symmetry_equiv_pos_site_id
_symmetry_equiv_pos_as_xyz
1 x,y,z
2 -x,1/2+y,1/2-z
3 -x,-y,-z
4 x,1/2-y,1/2+z
_cell_length_a                   13.1702(12)
_cell_length_b                   11.9871(10)
_cell_length_c                   9.6280(9)
_cell_angle_alpha                90
_cell_angle_beta                 109.262(11)
_cell_angle_gamma                90
_cell_volume                     1434.91
_cell_formula_units_Z            4
loop_
_atom_site_label
_atom_site_type_symbol
_atom_site_fract_x
_atom_site_fract_y
_atom_site_fract_z
Cl1 Cl 0.30026(4) 0.42807(4) 0.24090(5)
Cl2 Cl 0.54003(4) 0.22867(4) 0.57545(5)
O1 O 0.27216(13) 0.62781(14) 0.02463(18)
H1 H 0.3285(18) 0.6487(19) 0.015(2)
H2 H 0.2886(19) 0.570(2) 0.092(3)
N1 N 0.27165(11) 0.08550(12) 0.19700(16)
N2 N 0.39318(14) -0.09880(15) 0.1263(2)
C1 C 0.23108(15) -0.03322(14) 0.1770(2)
H3 H 0.1515 -0.0326 0.1382
H4 H 0.2533 -0.0708 0.2740
C2 C 0.27313(15) -0.09899(16) 0.0732(2)
H5 H 0.2466 -0.1767 0.0666
H6 H 0.2460 -0.0656 -0.0263
C3 C 0.43442(15) 0.01763(16) 0.1395(2)
H7 H 0.4107 0.0536 0.0414
H8 H 0.5140 0.0169 0.1765
C4 C 0.39317(14) 0.08345(17) 0.2435(2)
H9 H 0.4201 0.1610 0.2491
H10 H 0.4222 0.0505 0.3431
C5 C 0.24346(13) 0.14274(16) 0.32175(19)
H11 H 0.2761 0.0997 0.4135
H12 H 0.2762 0.2180 0.3371
C6 C 0.12445(14) 0.15406(16) 0.29506(19)
C7 C 0.07138(15) 0.07443(16) 0.3504(2)
H13 H 0.1098 0.0114 0.4012
C8 C -0.03751(15) 0.08589(17) 0.3321(2)
H14 H -0.0732 0.0305 0.3694
C9 C -0.09345(15) 0.17787(17) 0.2598(2)
H15 H -0.1675 0.1863 0.2483
C10 C -0.04145(16) 0.25782(17) 0.2042(2)
H16 H -0.0802 0.3207 0.1534
C11 C 0.06707(15) 0.24652(16) 0.2224(2)
H17 H 0.1024 0.3022 0.1851
C12 C 0.22589(14) 0.15174(15) 0.05796(19)
H18 H 0.2493 0.1190 -0.0197
H19 H 0.2513 0.2290 0.0754
H20 H 0.1472 0.1505 0.0274
H21 H 0.4170(18) -0.1460(19) 0.055(3)
H22 H 0.4151(15) -0.1339(16) 0.219(2)
loop_
_geom_bond_atom_site_label_1
_geom_bond_atom_site_label_2
_geom_bond_site_symmetry_1
_geom_bond_site_symmetry_2
O1 H1 1_555 1_555
H2 O1 1_555 1_555
N1 C1 1_555 1_555
N2 C2 1_555 1_555
C1 H3 1_555 1_555
H4 C1 1_555 1_555
C2 C1 1_555 1_555
H5 C2 1_555 1_555
H6 C2 1_555 1_555
C3 N2 1_555 1_555
H7 C3 1_555 1_555
H8 C3 1_555 1_555
C4 N1 1_555 1_555
H9 C4 1_555 1_555
H10 C4 1_555 1_555
C5 N1 1_555 1_555
H11 C5 1_555 1_555
H12 C5 1_555 1_555
C6 C5 1_555 1_555
C7 C6 1_555 1_555
H13 C7 1_555 1_555
C8 C7 1_555 1_555
H14 C8 1_555 1_555
C9 C8 1_555 1_555
H15 C9 1_555 1_555
C10 C9 1_555 1_555
H16 C10 1_555 1_555
C11 C6 1_555 1_555
H17 C11 1_555 1_555
C12 N1 1_555 1_555
H18 C12 1_555 1_555
H19 C12 1_555 1_555
H20 C12 1_555 1_555
H21 N2 1_555 1_555
H22 N2 1_555 1_555
C3 C4 1_555 1_555
C10 C11 1_555 1_555

#END
