
#######################################################################
#
#                 Cambridge Crystallographic Data Centre
#                                CCDC 
#
#######################################################################
#
# If this CIF has been generated from an entry in the Cambridge 
# Structural Database, then it will include bibliographic, chemical, 
# crystal, experimental, refinement or atomic coordinate data resulting 
# from the CCDC's data processing and validation procedures.
#
#######################################################################

data_ZUJRIH
_chemical_formula_moiety         'C31 H29 B1 F2 N4 S1,0.5(C4 H8 O1)'
_chemical_name_systematic        
"4,4'-(1,1-difluoro-4-phenyl-[1,3,2]diazaborinino[6,1-b][1,3]benzothiazole-2,3(1H)-diyl)bis(N,N-dimethylaniline) tetrahydrofuran solvate"
_symmetry_cell_setting           monoclinic
_symmetry_space_group_name_H-M   'C 2'
_symmetry_Int_Tables_number      5
_space_group_name_Hall           'C 2y'
loop_
_symmetry_equiv_pos_site_id
_symmetry_equiv_pos_as_xyz
1 x,y,z
2 -x,y,-z
3 1/2+x,1/2+y,z
4 1/2-x,1/2+y,-z
_cell_length_a                   29.997(3)
_cell_length_b                   8.4716(9)
_cell_length_c                   12.7084(11)
_cell_angle_alpha                90
_cell_angle_beta                 112.788(2)
_cell_angle_gamma                90
_cell_volume                     2977.41
_exptl_crystal_colour            colorless
_exptl_crystal_description       needle
_cell_formula_units_Z            4
loop_
_atom_site_label
_atom_site_type_symbol
_atom_site_fract_x
_atom_site_fract_y
_atom_site_fract_z
F1 F 0.14266(12) 0.2785(4) 1.1927(2)
F2 F 0.07933(11) 0.1141(4) 1.1323(3)
N1 N 0.15661(13) 0.0088(5) 1.1574(3)
N2 N 0.11369(14) 0.1924(5) 0.9978(3)
N3 N -0.01030(19) 0.7174(6) 0.8447(5)
N4 N 0.10741(17) 0.2754(7) 0.4792(4)
S1 S 0.20889(6) -0.2246(2) 1.14550(12)
B1 B 0.1219(2) 0.1521(8) 1.1214(5)
C1 C 0.17379(17) -0.0620(6) 1.0865(4)
C2 C 0.17320(18) -0.0624(7) 1.2657(4)
C3 C 0.20120(19) -0.1965(8) 1.2715(4)
C4 C 0.2200(2) -0.2851(9) 1.3723(6)
H1 H 0.2390 -0.3740 1.3780
C5 C 0.2091(2) -0.2348(12) 1.4627(5)
H2 H 0.2210 -0.2918 1.5305
C6 C 0.1815(3) -0.1044(10) 1.4564(6)
H3 H 0.1755 -0.0743 1.5201
C7 C 0.1622(2) -0.0162(8) 1.3577(5)
H4 H 0.1427 0.0708 1.3531
C8 C 0.13416(17) 0.1193(6) 0.9333(4)
C9 C 0.16407(17) -0.0097(6) 0.9748(4)
C10 C 0.08177(19) 0.3285(6) 0.9508(4)
C11 C 0.03228(18) 0.3109(6) 0.9100(4)
H5 H 0.0191 0.2109 0.9075
C12 C 0.00236(19) 0.4379(7) 0.8732(4)
H6 H -0.0309 0.4217 0.8448
C13 C 0.0195(2) 0.5890(7) 0.8767(4)
C14 C 0.0701(2) 0.6041(7) 0.9197(5)
H7 H 0.0836 0.7039 0.9236
C15 C 0.10000(19) 0.4764(7) 0.9558(5)
H8 H 0.1333 0.4909 0.9843
C16 C -0.0618(2) 0.7004(8) 0.7993(6)
H9 H -0.0724 0.6504 0.7258
H10 H -0.0766 0.8026 0.7915
H11 H -0.0711 0.6368 0.8500
C17 C 0.0086(3) 0.8725(8) 0.8507(7)
H12 H 0.0309 0.8936 0.9273
H13 H -0.0174 0.9476 0.8295
H14 H 0.0251 0.8813 0.7995
C18 C 0.12439(17) 0.1748(6) 0.8165(4)
C19 C 0.08178(19) 0.1446(7) 0.7262(5)
H15 H 0.0562 0.0999 0.7400
C20 C 0.0759(2) 0.1787(8) 0.6155(4)
H16 H 0.0466 0.1547 0.5563
C21 C 0.1123(2) 0.2474(7) 0.5902(4)
C22 C 0.15447(18) 0.2831(7) 0.6823(4)
H17 H 0.1795 0.3333 0.6696
C23 C 0.16016(18) 0.2462(6) 0.7915(4)
H18 H 0.1893 0.2703 0.8509
C24 C 0.0627(2) 0.2326(9) 0.3874(5)
H19 H 0.0594 0.1198 0.3840
H20 H 0.0628 0.2711 0.3165
H21 H 0.0360 0.2785 0.4006
C25 C 0.1400(3) 0.3846(9) 0.4582(6)
H22 H 0.1446 0.4753 0.5065
H23 H 0.1265 0.4171 0.3797
H24 H 0.1706 0.3340 0.4743
C26 C 0.18680(19) -0.0958(6) 0.9072(4)
C27 C 0.1610(2) -0.1987(8) 0.8207(5)
H25 H 0.1282 -0.2143 0.8033
C28 C 0.1830(3) -0.2779(8) 0.7600(5)
H26 H 0.1649 -0.3451 0.7012
C29 C 0.2308(3) -0.2599(8) 0.7844(5)
H27 H 0.2454 -0.3145 0.7428
C30 C 0.2573(2) -0.1615(8) 0.8701(5)
H28 H 0.2902 -0.1493 0.8883
C31 C 0.2351(2) -0.0799(7) 0.9300(4)
H29 H 0.2535 -0.0117 0.9879
O1? O 0.0000 0.857(3) 0.5000
C32? C 0.0316(11) 0.737(3) 0.485(3)
H30? H 0.0650 0.7723 0.5154
H31? H 0.0222 0.7107 0.4048
C33? C 0.0242(6) 0.598(3) 0.5526(16)
H32? H -0.0218 0.6246 0.3755
H33? H 0.0449 0.5074 0.5591
H34? H 0.0205 0.5253 0.4718
O2? O 0.0467(9) 0.809(3) 0.545(3)
C34? C 0.0068(14) 0.848(3) 0.440(3)
H35? H 0.0214 0.8517 0.3847
H36? H -0.0097 0.9455 0.4375
C35? C -0.0309(9) 0.716(3) 0.419(3)
H37? H -0.0406 0.6800 0.3418
H38? H -0.0592 0.7440 0.4327
H39? H 0.0144 0.5120 0.4638
C36? C 0.0521(4) 0.643(3) 0.536(3)
H40? H 0.0433 0.6520 0.6009
H41? H 0.0826 0.5893 0.5593
C37? C 0.0000 0.584(2) 0.5000
loop_
_geom_bond_atom_site_label_1
_geom_bond_atom_site_label_2
_geom_bond_site_symmetry_1
_geom_bond_site_symmetry_2
F1 B1 1_555 1_555
F2 B1 1_555 1_555
N1 B1 1_555 1_555
N2 B1 1_555 1_555
N3 C13 1_555 1_555
N4 C21 1_555 1_555
S1 C1 1_555 1_555
C1 N1 1_555 1_555
C2 N1 1_555 1_555
C3 S1 1_555 1_555
C4 C3 1_555 1_555
H1 C4 1_555 1_555
C5 C4 1_555 1_555
H2 C5 1_555 1_555
C6 C5 1_555 1_555
H3 C6 1_555 1_555
C7 C2 1_555 1_555
H4 C7 1_555 1_555
C8 N2 1_555 1_555
C9 C1 1_555 1_555
C10 N2 1_555 1_555
C11 C10 1_555 1_555
H5 C11 1_555 1_555
C12 C11 1_555 1_555
H6 C12 1_555 1_555
C13 C12 1_555 1_555
C14 C13 1_555 1_555
H7 C14 1_555 1_555
C15 C10 1_555 1_555
H8 C15 1_555 1_555
C16 N3 1_555 1_555
H9 C16 1_555 1_555
H10 C16 1_555 1_555
H11 C16 1_555 1_555
C17 N3 1_555 1_555
H12 C17 1_555 1_555
H13 C17 1_555 1_555
H14 C17 1_555 1_555
C18 C8 1_555 1_555
C19 C18 1_555 1_555
H15 C19 1_555 1_555
C20 C19 1_555 1_555
H16 C20 1_555 1_555
C21 C20 1_555 1_555
C22 C21 1_555 1_555
H17 C22 1_555 1_555
C23 C18 1_555 1_555
H18 C23 1_555 1_555
C24 N4 1_555 1_555
H19 C24 1_555 1_555
H20 C24 1_555 1_555
H21 C24 1_555 1_555
C25 N4 1_555 1_555
H22 C25 1_555 1_555
H23 C25 1_555 1_555
H24 C25 1_555 1_555
C26 C9 1_555 1_555
C27 C26 1_555 1_555
H25 C27 1_555 1_555
C28 C27 1_555 1_555
H26 C28 1_555 1_555
C29 C28 1_555 1_555
H27 C29 1_555 1_555
C30 C29 1_555 1_555
H28 C30 1_555 1_555
C31 C26 1_555 1_555
H29 C31 1_555 1_555
C2 C3 1_555 1_555
C6 C7 1_555 1_555
C8 C9 1_555 1_555
C14 C15 1_555 1_555
C22 C23 1_555 1_555
C30 C31 1_555 1_555

#END
