
#######################################################################
#
#                 Cambridge Crystallographic Data Centre
#                                CCDC 
#
#######################################################################
#
# If this CIF has been generated from an entry in the Cambridge 
# Structural Database, then it will include bibliographic, chemical, 
# crystal, experimental, refinement or atomic coordinate data resulting 
# from the CCDC's data processing and validation procedures.
#
#######################################################################

data_ZUKCUF
_chemical_formula_moiety         'C13 H18 O7'
_chemical_name_systematic        
2-(hydroxymethyl)-6-(4-methoxyphenoxy)tetrahydro-2H-pyran-3,4,5-triol
_symmetry_cell_setting           monoclinic
_symmetry_space_group_name_H-M   'P 21'
_symmetry_Int_Tables_number      4
_space_group_name_Hall           'P 2yb'
loop_
_symmetry_equiv_pos_site_id
_symmetry_equiv_pos_as_xyz
1 x,y,z
2 -x,1/2+y,-z
_cell_length_a                   4.8576(6)
_cell_length_b                   9.2069(12)
_cell_length_c                   14.7648(19)
_cell_angle_alpha                90
_cell_angle_beta                 95.696(8)
_cell_angle_gamma                90
_cell_volume                     657.072
_exptl_crystal_colour            colorless
_exptl_crystal_description       Needle
_cell_formula_units_Z            2
loop_
_atom_site_label
_atom_site_type_symbol
_atom_site_fract_x
_atom_site_fract_y
_atom_site_fract_z
C1 C 0.8014(6) 0.6832(3) 0.06599(18)
H1 H 0.7018 0.7465 0.0205
C2 C 0.7592(7) 0.5041(3) 0.22513(19)
H2 H 0.5613 0.5136 0.2319
C3 C 0.8172(7) 0.4497(3) 0.3840(2)
C4 C 0.8980(7) 0.8859(3) 0.18489(19)
H3 H 0.8608 0.9144 0.2457
H4 H 1.0968 0.8771 0.1843
C5 C 0.6812(6) 0.5296(3) 0.05747(18)
H5 H 0.4809 0.5361 0.0604
C6 C 0.7633(6) 0.7396(3) 0.16194(19)
H6 H 0.5651 0.7466 0.1686
C7 C 0.8021(7) 0.4299(3) 0.1345(2)
H7 H 0.9986 0.4107 0.1298
C8 C 0.5683(7) 0.5703(4) 0.4958(2)
H8 H 0.4385 0.6387 0.5101
C9 C 0.9500(7) 0.3639(3) 0.4523(2)
H9 H 1.0789 0.2952 0.4378
C10 C 0.6299(8) 0.5537(3) 0.4058(2)
H10 H 0.5443 0.6130 0.3604
C11 C 0.7028(7) 0.4837(3) 0.56402(19)
C12 C 0.8921(7) 0.3796(4) 0.5422(2)
H11 H 0.9797 0.3207 0.5875
C13 C 0.5138(8) 0.6153(4) 0.6834(2)
H12 H 0.5976 0.7023 0.6630
H13 H 0.5212 0.6160 0.7486
H14 H 0.3244 0.6107 0.6579
O1 O 1.0867(5) 0.6750(2) 0.04946(15)
H15 H 1.1430 0.7563 0.0382
O2 O 0.7963(4) 0.9966(2) 0.12111(14)
H16 H 0.6373 0.9772 0.1009
O3 O 0.7292(4) 0.4667(2) -0.02881(13)
H17 H 0.8913 0.4791 -0.0380
O4 O 0.8900(5) 0.4203(2) 0.29624(15)
O5 O 0.8889(5) 0.6432(2) 0.22997(13)
O6 O 0.6442(6) 0.2991(2) 0.12573(16)
H18 H 0.7425 0.2302 0.1431
O7 O 0.6579(6) 0.4934(3) 0.65504(15)
loop_
_geom_bond_atom_site_label_1
_geom_bond_atom_site_label_2
_geom_bond_site_symmetry_1
_geom_bond_site_symmetry_2
C1 H1 1_555 1_555
C2 H2 1_555 1_555
C3 C9 1_555 1_555
C4 H3 1_555 1_555
H4 C4 1_555 1_555
C5 C1 1_555 1_555
H5 C5 1_555 1_555
C6 C1 1_555 1_555
H6 C6 1_555 1_555
C7 C2 1_555 1_555
H7 C7 1_555 1_555
C8 H8 1_555 1_555
C9 H9 1_555 1_555
C10 C3 1_555 1_555
H10 C10 1_555 1_555
C11 C8 1_555 1_555
C12 C9 1_555 1_555
H11 C12 1_555 1_555
C13 H12 1_555 1_555
H13 C13 1_555 1_555
H14 C13 1_555 1_555
O1 C1 1_555 1_555
H15 O1 1_555 1_555
O2 C4 1_555 1_555
H16 O2 1_555 1_555
O3 C5 1_555 1_555
H17 O3 1_555 1_555
O4 C2 1_555 1_555
O5 C2 1_555 1_555
O6 C7 1_555 1_555
H18 O6 1_555 1_555
O7 C11 1_555 1_555
C3 O4 1_555 1_555
C4 C6 1_555 1_555
C5 C7 1_555 1_555
C6 O5 1_555 1_555
C8 C10 1_555 1_555
C11 C12 1_555 1_555
C13 O7 1_555 1_555

#END
