
#######################################################################
#
#                 Cambridge Crystallographic Data Centre
#                                CCDC 
#
#######################################################################
#
# If this CIF has been generated from an entry in the Cambridge 
# Structural Database, then it will include bibliographic, chemical, 
# crystal, experimental, refinement or atomic coordinate data resulting 
# from the CCDC's data processing and validation procedures.
#
#######################################################################

data_ZUKLOI
_chemical_formula_moiety         'C34 H31 N3 O3'
_chemical_name_systematic        
4'-(4-(2-(4-(2-(2-methoxyethoxy)ethoxy)phenyl)vinyl)phenyl)-2,2':6',2''-terpyridine
_symmetry_cell_setting           monoclinic
_symmetry_space_group_name_H-M   'P 21/c'
_symmetry_Int_Tables_number      14
_space_group_name_Hall           '-P 2ybc'
loop_
_symmetry_equiv_pos_site_id
_symmetry_equiv_pos_as_xyz
1 x,y,z
2 -x,1/2+y,1/2-z
3 -x,-y,-z
4 x,1/2-y,1/2+z
_cell_length_a                   21.569(2)
_cell_length_b                   11.9264(13)
_cell_length_c                   11.1252(9)
_cell_angle_alpha                90
_cell_angle_beta                 100.590(10)
_cell_angle_gamma                90
_cell_volume                     2813.11
_exptl_crystal_colour            white
_exptl_crystal_description       needle
_cell_formula_units_Z            4
loop_
_atom_site_label
_atom_site_type_symbol
_atom_site_fract_x
_atom_site_fract_y
_atom_site_fract_z
N1 N 0.39531(19) 0.4022(3) 0.0446(3)
N2 N 0.4623(2) 0.1646(4) 0.2181(4)
N3 N 0.3095(3) 0.6536(4) -0.0481(4)
O1 O 0.06804(18) 0.3991(4) 1.1228(3)
O2 O -0.0187(15) 0.330(3) 1.279(2)
O3 O -0.1150(7) 0.2636(15) 1.4191(18)
C1 C 0.4056(2) 0.3296(4) 0.1381(4)
C2 C 0.3719(2) 0.3325(4) 0.2329(4)
H1 H 0.3797 0.2798 0.2955
C3 C 0.3265(2) 0.4149(4) 0.2338(4)
C4 C 0.3157(2) 0.4899(4) 0.1365(4)
H2 H 0.2849 0.5451 0.1329
C5 C 0.3514(2) 0.4816(4) 0.0447(4)
C6 C 0.4550(2) 0.2445(4) 0.1326(4)
C7 C 0.4911(3) 0.2498(5) 0.0417(5)
H3 H 0.4850 0.3070 -0.0161
C8 C 0.5357(3) 0.1693(6) 0.0386(6)
H4 H 0.5604 0.1711 -0.0216
C9 C 0.5438(3) 0.0856(6) 0.1251(6)
H5 H 0.5739 0.0299 0.1245
C10 C 0.5060(3) 0.0865(6) 0.2128(5)
H6 H 0.5113 0.0297 0.2712
C11 C 0.3436(3) 0.5618(4) -0.0583(4)
C12 C 0.3710(3) 0.5407(5) -0.1602(4)
H7 H 0.3948 0.4764 -0.1646
C13 C 0.3618(3) 0.6173(6) -0.2540(5)
H8 H 0.3793 0.6045 -0.3233
C14 C 0.3278(4) 0.7108(6) -0.2465(6)
H9 H 0.3215 0.7634 -0.3094
C15 C 0.3023(4) 0.7261(6) -0.1412(6)
H10 H 0.2789 0.7907 -0.1353
C16 C 0.2931(2) 0.4275(4) 0.3388(4)
C17 C 0.2336(2) 0.4763(5) 0.3252(5)
H11 H 0.2136 0.5005 0.2484
C18 C 0.2038(3) 0.4893(5) 0.4247(5)
H12 H 0.1641 0.5226 0.4134
C19 C 0.2319(2) 0.4535(4) 0.5409(5)
C20 C 0.2918(2) 0.4063(4) 0.5544(4)
H13 H 0.3120 0.3830 0.6315
C21 C 0.3221(2) 0.3935(4) 0.4565(4)
H14 H 0.3622 0.3618 0.4685
C22 C 0.1969(2) 0.4627(5) 0.6407(4)
H15 H 0.1605 0.5063 0.6271
C23 C 0.2128(2) 0.4137(4) 0.7502(4)
H16 H 0.2511 0.3758 0.7656
C24 C 0.1754(2) 0.4139(4) 0.8493(4)
C25 C 0.1212(3) 0.4785(5) 0.8470(5)
H17 H 0.1083 0.5267 0.7815
C26 C 0.0866(3) 0.4729(5) 0.9382(5)
H18 H 0.0508 0.5172 0.9352
C27 C 0.1056(3) 0.3999(5) 1.0358(5)
C28 C 0.1591(2) 0.3354(5) 1.0406(4)
H19 H 0.1716 0.2859 1.1051
C29 C 0.1935(2) 0.3451(5) 0.9499(5)
H20 H 0.2305 0.3038 0.9557
C30 C 0.0837(3) 0.3219(5) 1.2219(5)
H21 H 0.1285 0.3246 1.2548
H22 H 0.0727 0.2461 1.1943
C31 C 0.0457(5) 0.3570(13) 1.3197(10)
H23 H 0.0617 0.3183 1.3958
H24 H 0.0502 0.4370 1.3345
C32 C -0.0359(7) 0.2177(14) 1.2966(15)
H25 H -0.0073 0.1866 1.3661
H26 H -0.0313 0.1743 1.2249
C33 C -0.1025(7) 0.2069(14) 1.3178(15)
H27 H -0.1308 0.2344 1.2460
H28 H -0.1117 0.1280 1.3266
C34 C -0.1747(7) 0.2322(12) 1.4473(14)
H29 H -0.2075 0.2484 1.3787
H30 H -0.1821 0.2737 1.5173
H31 H -0.1746 0.1534 1.4650
O4? O -0.010(5) 0.357(9) 1.324(7)
O5? O -0.132(3) 0.254(5) 1.480(4)
H32? H 0.1088 0.3703 1.2962
H33? H 0.1120 0.2681 1.2079
C35? C 0.023(3) 0.280(4) 1.260(4)
H34? H -0.0059 0.2567 1.1863
H35? H 0.0331 0.2138 1.3102
C36? C -0.0307(19) 0.307(4) 1.428(4)
H36? H -0.0016 0.3278 1.5016
H37? H -0.0298 0.2265 1.4198
C37? C -0.097(2) 0.344(6) 1.440(5)
H38? H -0.0942 0.4051 1.4979
H39? H -0.1192 0.3706 1.3615
C38? C -0.161(3) 0.182(5) 1.384(6)
H40? H -0.1860 0.2263 1.3204
H41? H -0.1881 0.1292 1.4146
H42? H -0.1294 0.1424 1.3510
loop_
_geom_bond_atom_site_label_1
_geom_bond_atom_site_label_2
_geom_bond_site_symmetry_1
_geom_bond_site_symmetry_2
N1 C1 1_555 1_555
N2 C6 1_555 1_555
N3 C11 1_555 1_555
O1 C27 1_555 1_555
O2 C31 1_555 1_555
O3 C33 1_555 1_555
C1 C2 1_555 1_555
C2 H1 1_555 1_555
C3 C2 1_555 1_555
C4 C3 1_555 1_555
H2 C4 1_555 1_555
C5 N1 1_555 1_555
C6 C1 1_555 1_555
C7 C6 1_555 1_555
H3 C7 1_555 1_555
C8 C7 1_555 1_555
H4 C8 1_555 1_555
C9 C8 1_555 1_555
H5 C9 1_555 1_555
C10 N2 1_555 1_555
H6 C10 1_555 1_555
C11 C5 1_555 1_555
C12 C11 1_555 1_555
H7 C12 1_555 1_555
C13 C12 1_555 1_555
H8 C13 1_555 1_555
C14 C13 1_555 1_555
H9 C14 1_555 1_555
C15 N3 1_555 1_555
H10 C15 1_555 1_555
C16 C3 1_555 1_555
C17 C16 1_555 1_555
H11 C17 1_555 1_555
C18 C17 1_555 1_555
H12 C18 1_555 1_555
C19 C18 1_555 1_555
C20 C19 1_555 1_555
H13 C20 1_555 1_555
C21 C16 1_555 1_555
H14 C21 1_555 1_555
C22 C19 1_555 1_555
H15 C22 1_555 1_555
C23 C22 1_555 1_555
H16 C23 1_555 1_555
C24 C23 1_555 1_555
C25 C24 1_555 1_555
H17 C25 1_555 1_555
C26 C25 1_555 1_555
H18 C26 1_555 1_555
C27 C26 1_555 1_555
C28 C27 1_555 1_555
H19 C28 1_555 1_555
C29 C24 1_555 1_555
H20 C29 1_555 1_555
C30 O1 1_555 1_555
H21 C30 1_555 1_555
H22 C30 1_555 1_555
C31 C30 1_555 1_555
H23 C31 1_555 1_555
H24 C31 1_555 1_555
C32 O2 1_555 1_555
H25 C32 1_555 1_555
H26 C32 1_555 1_555
C33 C32 1_555 1_555
H27 C33 1_555 1_555
H28 C33 1_555 1_555
C34 O3 1_555 1_555
H29 C34 1_555 1_555
H30 C34 1_555 1_555
H31 C34 1_555 1_555
C4 C5 1_555 1_555
C9 C10 1_555 1_555
C14 C15 1_555 1_555
C20 C21 1_555 1_555
C28 C29 1_555 1_555

#END
