
#######################################################################
#
#                 Cambridge Crystallographic Data Centre
#                                CCDC 
#
#######################################################################
#
# If this CIF has been generated from an entry in the Cambridge 
# Structural Database, then it will include bibliographic, chemical, 
# crystal, experimental, refinement or atomic coordinate data resulting 
# from the CCDC's data processing and validation procedures.
#
#######################################################################

data_ZUKWOT
_chemical_formula_moiety         'C10 H18 N1 1+,Br1 1-'
_chemical_name_systematic        
'6a-allyloctahydrocyclopenta[b]pyrrolium bromide'
_symmetry_cell_setting           orthorhombic
_symmetry_space_group_name_H-M   'P 21 21 21'
_symmetry_Int_Tables_number      19
_space_group_name_Hall           'P 2ac 2ab'
loop_
_symmetry_equiv_pos_site_id
_symmetry_equiv_pos_as_xyz
1 x,y,z
2 1/2-x,-y,1/2+z
3 -x,1/2+y,1/2-z
4 1/2+x,1/2-y,-z
_cell_length_a                   8.6150(7)
_cell_length_b                   10.6071(9)
_cell_length_c                   11.8897(10)
_cell_angle_alpha                90
_cell_angle_beta                 90
_cell_angle_gamma                90
_cell_volume                     1086.48
_exptl_crystal_colour            colorless
_exptl_crystal_description       prism
_cell_formula_units_Z            4
loop_
_atom_site_label
_atom_site_type_symbol
_atom_site_fract_x
_atom_site_fract_y
_atom_site_fract_z
Br1 Br 0.03683(2) 0.583761(19) 0.970417(18)
N1 N 0.39911(19) 0.62240(16) 1.03894(15)
C1 C 0.3939(3) 0.6126(2) 1.16453(18)
H1 H 0.3367 0.5385 1.1885
H2 H 0.3477 0.6870 1.1980
C2 C 0.5647(3) 0.6019(3) 1.19384(19)
H3 H 0.5786 0.5650 1.2678
H4 H 0.6146 0.6839 1.1922
C3 C 0.6308(3) 0.5151(2) 1.1017(2)
H5 H 0.7363 0.5408 1.0811
C4 C 0.6268(4) 0.3745(3) 1.1356(3)
H6 H 0.7300 0.3449 1.1548
H7 H 0.5589 0.3616 1.1996
C5 C 0.5676(4) 0.3083(3) 1.0366(3)
H8 H 0.5213 0.2285 1.0580
H9 H 0.6507 0.2922 0.9835
C6 C 0.4445(3) 0.39623(19) 0.9843(2)
H10 H 0.3465 0.3904 1.0241
H11 H 0.4279 0.3769 0.9055
C7 C 0.5189(2) 0.52769(19) 0.99922(17)
C8 C 0.5964(3) 0.5776(3) 0.89271(18)
H12 H 0.6442 0.6582 0.9096
H13 H 0.6784 0.5198 0.8711
C9 C 0.4881(3) 0.5944(3) 0.79425(19)
H14 H 0.4628 0.5232 0.7524
C10 C 0.4276(4) 0.7013(3) 0.7636(2)
H15 H 0.4503 0.7744 0.8035
H16 H 0.3615 0.7046 0.7018
H17 H 0.303(3) 0.607(2) 1.006(2)
H18 H 0.428(3) 0.698(3) 1.021(3)
loop_
_geom_bond_atom_site_label_1
_geom_bond_atom_site_label_2
_geom_bond_site_symmetry_1
_geom_bond_site_symmetry_2
N1 C1 1_555 1_555
C1 H1 1_555 1_555
H2 C1 1_555 1_555
C2 C1 1_555 1_555
H3 C2 1_555 1_555
H4 C2 1_555 1_555
C3 C2 1_555 1_555
H5 C3 1_555 1_555
C4 C3 1_555 1_555
H6 C4 1_555 1_555
H7 C4 1_555 1_555
C5 C4 1_555 1_555
H8 C5 1_555 1_555
H9 C5 1_555 1_555
C6 C5 1_555 1_555
H10 C6 1_555 1_555
H11 C6 1_555 1_555
C7 N1 1_555 1_555
C8 C7 1_555 1_555
H12 C8 1_555 1_555
H13 C8 1_555 1_555
C9 C8 1_555 1_555
H14 C9 1_555 1_555
C10 C9 1_555 1_555
H15 C10 1_555 1_555
H16 C10 1_555 1_555
H17 N1 1_555 1_555
H18 N1 1_555 1_555
C3 C7 1_555 1_555
C6 C7 1_555 1_555

#END
