
#######################################################################
#
#                 Cambridge Crystallographic Data Centre
#                                CCDC 
#
#######################################################################
#
# If this CIF has been generated from an entry in the Cambridge 
# Structural Database, then it will include bibliographic, chemical, 
# crystal, experimental, refinement or atomic coordinate data resulting 
# from the CCDC's data processing and validation procedures.
#
#######################################################################

data_ZUKXEK
_chemical_formula_moiety         'C17 H14 Cl2 O6'
_chemical_name_systematic        
'3-((3,4-dichlorobenzoyl)oxy)-2-hydroxy-2-(3-methoxyphenyl)propanoic acid'
_symmetry_cell_setting           monoclinic
_symmetry_space_group_name_H-M   'P 21'
_symmetry_Int_Tables_number      4
_space_group_name_Hall           'P 2yb'
loop_
_symmetry_equiv_pos_site_id
_symmetry_equiv_pos_as_xyz
1 x,y,z
2 -x,1/2+y,-z
_cell_length_a                   16.764(2)
_cell_length_b                   5.7286(7)
_cell_length_c                   17.464(2)
_cell_angle_alpha                90
_cell_angle_beta                 92.170(3)
_cell_angle_gamma                90
_cell_volume                     1675.94
_exptl_crystal_colour            colorless
_exptl_crystal_description       block
_cell_formula_units_Z            4
loop_
_atom_site_label
_atom_site_type_symbol
_atom_site_fract_x
_atom_site_fract_y
_atom_site_fract_z
C1 C 0.6450(3) 1.1157(9) 1.0899(3)
H1 H 0.6107 1.2177 1.0611
C2 C 0.6765(3) 1.1846(9) 1.1605(3)
H2 H 0.6613 1.3305 1.1813
C3 C 0.7301(3) 1.0431(9) 1.2013(3)
C4 C 0.7518(3) 0.8277(9) 1.1702(3)
C5 C 0.7172(3) 0.7535(9) 1.1010(3)
H3 H 0.7303 0.6047 1.0811
C6 C 0.6634(3) 0.8965(9) 1.0609(3)
C7 C 0.6247(3) 0.8034(9) 0.9893(3)
C8 C 0.5568(3) 0.9083(9) 0.8726(3)
H4 H 0.5021 0.8588 0.8847
H5 H 0.5837 0.7773 0.847
C9 C 0.5540(3) 1.1215(9) 0.8214(3)
C10 C 0.6383(3) 1.1765(9) 0.7946(3)
C11 C 0.4998(3) 1.0720(9) 0.7503(3)
C12 C 0.5156(3) 0.8826(9) 0.7018(3)
H6 H 0.5597 0.7823 0.7129
C13 C 0.4660(3) 0.8442(10) 0.6376(3)
C14 C 0.5421(3) 0.5183(11) 0.5955(4)
H7 H 0.5914 0.6096 0.5929
H8 H 0.5407 0.3998 0.555
H9 H 0.5404 0.4417 0.6456
C15 C 0.4007(3) 0.9887(10) 0.6224(3)
H10 H 0.3664 0.9604 0.5788
C16 C 0.3855(3) 1.1721(11) 0.6704(3)
H11 H 0.341 1.2707 0.6593
C17 C 0.4346(3) 1.2160(10) 0.7352(3)
H12 H 0.4235 1.3423 0.7684
Cl1 Cl 0.76716(8) 1.1248(2) 1.29057(7)
Cl2 Cl 0.82134(7) 0.6532(2) 1.21760(7)
O1 O 0.6147(2) 0.5992(6) 0.9759(2)
O2 O 0.6013(2) 0.9759(6) 0.9418(2)
O3 O 0.52269(19) 1.3143(7) 0.8608(2)
H13 H 0.554 1.3508 0.8975
O4 O 0.6805(2) 1.0085(7) 0.7743(2)
O5 O 0.6581(2) 1.3905(6) 0.7932(2)
H14 H 0.7048 1.4027 0.7779
O6 O 0.4753(2) 0.6686(7) 0.5853(2)
C18 C -0.0390(3) -0.1476(9) 0.0907(3)
H15 H -0.0052 -0.2485 0.1204
C19 C -0.0683(3) -0.2162(10) 0.0187(3)
H16 H -0.0533 -0.3631 -0.0015
C20 C -0.1195(3) -0.0712(9) -0.0239(3)
C21 C -0.1427(3) 0.1409(9) 0.0062(3)
C22 C -0.1127(3) 0.2128(9) 0.0772(3)
H17 H -0.1282 0.3592 0.0974
C23 C -0.0598(3) 0.0707(9) 0.1189(3)
C24 C -0.0258(3) 0.1597(9) 0.1933(3)
C25 C 0.0462(3) 0.0686(9) 0.3074(3)
H18 H 0.0026 0.1155 0.3408
H19 H 0.083 0.2024 0.3024
C26 C 0.0903(3) -0.1398(10) 0.3408(3)
C27 C 0.1637(3) -0.1966(10) 0.2934(3)
C28 C 0.1210(3) -0.0767(10) 0.4222(3)
C29 C 0.0939(3) -0.2000(13) 0.4840(3)
H20 H 0.0571 -0.3247 0.4766
C30 C 0.1215(4) -0.1384(16) 0.5573(3)
H21 H 0.1026 -0.2213 0.6
C31 C 0.1752(4) 0.0387(13) 0.5693(3)
H22 H 0.1936 0.0769 0.6198
C32 C 0.2028(3) 0.1626(11) 0.5071(3)
C33 C 0.2854(4) 0.4798(11) 0.4655(4)
H23 H 0.3065 0.3825 0.4248
H24 H 0.3277 0.5821 0.4864
H25 H 0.2412 0.575 0.4445
C34 C 0.1757(3) 0.1071(10) 0.4335(3)
H26 H 0.1939 0.1927 0.3909
Cl3 Cl -0.15137(8) -0.1545(2) -0.11504(7)
Cl4 Cl -0.20979(7) 0.3181(2) -0.04429(7)
O7 O -0.0321(2) 0.3612(7) 0.2149(2)
O8 O 0.0143(2) -0.0028(6) 0.2331(2)
O9 O 0.0398(2) -0.3357(7) 0.3454(2)
H27 H 0.0194 -0.3652 0.3018
O10 O 0.2015(2) -0.0313(7) 0.2647(2)
O11 O 0.1819(2) -0.4122(7) 0.2877(2)
H28 H 0.2223 -0.4258 0.261
O12 O 0.2571(2) 0.3329(8) 0.5254(2)
loop_
_geom_bond_atom_site_label_1
_geom_bond_atom_site_label_2
_geom_bond_site_symmetry_1
_geom_bond_site_symmetry_2
C1 H1 1_555 1_555
C2 C1 1_555 1_555
H2 C2 1_555 1_555
C3 C2 1_555 1_555
C4 C3 1_555 1_555
C5 C4 1_555 1_555
H3 C5 1_555 1_555
C6 C1 1_555 1_555
C7 C6 1_555 1_555
C8 H4 1_555 1_555
H5 C8 1_555 1_555
C9 C8 1_555 1_555
C10 C9 1_555 1_555
C11 C9 1_555 1_555
C12 C11 1_555 1_555
H6 C12 1_555 1_555
C13 C12 1_555 1_555
C14 H7 1_555 1_555
H8 C14 1_555 1_555
H9 C14 1_555 1_555
C15 C13 1_555 1_555
H10 C15 1_555 1_555
C16 C15 1_555 1_555
H11 C16 1_555 1_555
C17 C11 1_555 1_555
H12 C17 1_555 1_555
Cl1 C3 1_555 1_555
Cl2 C4 1_555 1_555
O1 C7 1_555 1_555
O2 C7 1_555 1_555
O3 C9 1_555 1_555
H13 O3 1_555 1_555
O4 C10 1_555 1_555
O5 C10 1_555 1_555
H14 O5 1_555 1_555
O6 C13 1_555 1_555
C18 H15 1_555 1_555
C19 C18 1_555 1_555
H16 C19 1_555 1_555
C20 C19 1_555 1_555
C21 C20 1_555 1_555
C22 C21 1_555 1_555
H17 C22 1_555 1_555
C23 C18 1_555 1_555
C24 C23 1_555 1_555
C25 H18 1_555 1_555
H19 C25 1_555 1_555
C26 C25 1_555 1_555
C27 C26 1_555 1_555
C28 C26 1_555 1_555
C29 C28 1_555 1_555
H20 C29 1_555 1_555
C30 C29 1_555 1_555
H21 C30 1_555 1_555
C31 C30 1_555 1_555
H22 C31 1_555 1_555
C32 C31 1_555 1_555
C33 H23 1_555 1_555
H24 C33 1_555 1_555
H25 C33 1_555 1_555
C34 C28 1_555 1_555
H26 C34 1_555 1_555
Cl3 C20 1_555 1_555
Cl4 C21 1_555 1_555
O7 C24 1_555 1_555
O8 C24 1_555 1_555
O9 C26 1_555 1_555
H27 O9 1_555 1_555
O10 C27 1_555 1_555
O11 C27 1_555 1_555
H28 O11 1_555 1_555
O12 C32 1_555 1_555
C5 C6 1_555 1_555
C8 O2 1_555 1_555
C14 O6 1_555 1_555
C16 C17 1_555 1_555
C22 C23 1_555 1_555
C25 O8 1_555 1_555
C32 C34 1_555 1_555
C33 O12 1_555 1_555

#END
