
#######################################################################
#
#                 Cambridge Crystallographic Data Centre
#                                CCDC 
#
#######################################################################
#
# If this CIF has been generated from an entry in the Cambridge 
# Structural Database, then it will include bibliographic, chemical, 
# crystal, experimental, refinement or atomic coordinate data resulting 
# from the CCDC's data processing and validation procedures.
#
#######################################################################

data_ZUKYEL
_chemical_formula_moiety         'C15 H22 O5'
_chemical_name_systematic        
't-butyl 2,3-dihydroxy-2-(3-methoxyphenyl)butanoate'
_symmetry_cell_setting           triclinic
_symmetry_space_group_name_H-M   'P 1'
_symmetry_Int_Tables_number      1
_space_group_name_Hall           'P 1'
loop_
_symmetry_equiv_pos_site_id
_symmetry_equiv_pos_as_xyz
1 x,y,z
_cell_length_a                   5.8957(9)
_cell_length_b                   10.6844(16)
_cell_length_c                   12.4428(19)
_cell_angle_alpha                96.538(4)
_cell_angle_beta                 102.138(4)
_cell_angle_gamma                90.841(4)
_cell_volume                     760.689
_exptl_crystal_colour            colorless
_exptl_crystal_description       Plate
_cell_formula_units_Z            2
loop_
_atom_site_label
_atom_site_type_symbol
_atom_site_fract_x
_atom_site_fract_y
_atom_site_fract_z
O1 O 0.5568(5) 0.3922(2) 0.5583(2)
H1 H 0.418(11) 0.371(5) 0.565(4)
O2 O 1.0587(5) 0.4252(3) 0.5891(3)
H2 H 0.956(10) 0.452(5) 0.543(4)
O3 O 0.7477(4) 0.1950(2) 0.7687(2)
O4 O 0.4165(5) 0.1966(3) 0.6389(3)
O5 O 0.4317(5) 0.7388(3) 0.8411(3)
C1 C 0.7139(6) 0.3581(4) 0.6534(3)
C2 C 0.9403(6) 0.3203(4) 0.6160(3)
H3 H 1.0450 0.2871 0.6797
C3 C 0.8925(7) 0.2139(4) 0.5192(4)
H4 H 0.8008 0.2456 0.4534
H5 H 0.8060 0.1440 0.5389
H6 H 1.0401 0.1842 0.5037
C4 C 0.6065(6) 0.2401(4) 0.6866(4)
C5 C 0.6842(7) 0.0751(4) 0.8073(3)
C6 C 0.4426(9) 0.0800(5) 0.8369(5)
H7 H 0.4133 0.0039 0.8697
H8 H 0.3234 0.0849 0.7696
H9 H 0.4380 0.1545 0.8901
C7 C 0.8686(10) 0.0634(5) 0.9053(4)
H10 H 1.0189 0.0580 0.8835
H11 H 0.8378 -0.0129 0.9376
H12 H 0.8720 0.1373 0.9601
C8 C 0.6855(8) -0.0303(4) 0.7163(4)
H13 H 0.8263 -0.0219 0.6873
H14 H 0.5485 -0.0262 0.6567
H15 H 0.6823 -0.1114 0.7458
C9 C 0.7477(6) 0.4656(4) 0.7500(3)
C10 C 0.9349(7) 0.4727(4) 0.8385(4)
H16 H 1.0504 0.4114 0.8404
C11 C 0.9542(7) 0.5704(4) 0.9254(3)
H17 H 1.0844 0.5758 0.9858
C12 C 0.7856(7) 0.6587(4) 0.9242(4)
H18 H 0.8003 0.7252 0.9830
C13 C 0.5929(7) 0.6498(4) 0.8358(3)
C14 C 0.5745(7) 0.5535(4) 0.7480(3)
H19 H 0.4449 0.5480 0.6874
C15 C 0.2399(7) 0.7353(4) 0.7492(4)
H20 H 0.2970 0.7456 0.6821
H21 H 0.1370 0.8037 0.7629
H22 H 0.1540 0.6541 0.7394
O6 O 0.4308(4) 0.5990(2) 0.4496(2)
H23 H 0.515(8) 0.546(4) 0.473(4)
O7 O 0.9097(4) 0.5747(2) 0.4207(2)
H24 H 1.055(5) 0.588(5) 0.429(4)
O8 O 0.4427(4) 0.8053(2) 0.2500(2)
O9 O 0.2372(4) 0.7975(3) 0.3818(2)
O10 O 0.0651(5) 0.2608(3) 0.1513(3)
C16 C 0.5172(6) 0.6381(3) 0.3606(3)
C17 C 0.7755(6) 0.6828(3) 0.3973(3)
H25 H 0.8239 0.7201 0.3351
C18 C 0.8155(6) 0.7815(4) 0.4985(3)
H26 H 0.7695 0.7455 0.5601
H27 H 0.7224 0.8546 0.4810
H28 H 0.9803 0.8079 0.5195
C19 C 0.3785(6) 0.7561(3) 0.3329(3)
C20 C 0.3469(6) 0.9257(3) 0.2143(3)
C21 C 0.0822(7) 0.9172(4) 0.1858(4)
H29 H 0.0291 0.8382 0.1383
H30 H 0.0238 0.9887 0.1468
H31 H 0.0237 0.9191 0.2541
C22 C 0.4396(7) 0.9377(5) 0.1107(4)
H32 H 0.6097 0.9404 0.1294
H33 H 0.3857 1.0154 0.0805
H34 H 0.3832 0.8650 0.0555
C23 C 0.4443(7) 1.0306(4) 0.3039(4)
H35 H 0.3787 1.0225 0.3690
H36 H 0.4042 1.1119 0.2771
H37 H 0.6136 1.0260 0.3240
C24 C 0.4676(6) 0.5373(3) 0.2600(3)
C25 C 0.5785(7) 0.5380(4) 0.1719(3)
H38 H 0.6949 0.6012 0.1739
C26 C 0.5194(7) 0.4463(4) 0.0806(3)
H39 H 0.5968 0.4469 0.0210
C27 C 0.3480(7) 0.3540(4) 0.0762(4)
H40 H 0.3086 0.2913 0.0141
C28 C 0.2354(6) 0.3542(4) 0.1630(3)
C29 C 0.2926(6) 0.4448(4) 0.2546(3)
H41 H 0.2133 0.4443 0.3136
C30 C -0.0588(7) 0.2607(4) 0.2384(4)
H42 H 0.0503 0.2511 0.3079
H43 H -0.1743 0.1904 0.2207
H44 H -0.1372 0.3404 0.2462
loop_
_geom_bond_atom_site_label_1
_geom_bond_atom_site_label_2
_geom_bond_site_symmetry_1
_geom_bond_site_symmetry_2
O1 H1 1_555 1_555
O2 H2 1_555 1_555
O3 C4 1_555 1_555
O4 C4 1_555 1_555
O5 C13 1_555 1_555
C1 O1 1_555 1_555
C2 O2 1_555 1_555
H3 C2 1_555 1_555
C3 C2 1_555 1_555
H4 C3 1_555 1_555
H5 C3 1_555 1_555
H6 C3 1_555 1_555
C4 C1 1_555 1_555
C5 O3 1_555 1_555
C6 C5 1_555 1_555
H7 C6 1_555 1_555
H8 C6 1_555 1_555
H9 C6 1_555 1_555
C7 C5 1_555 1_555
H10 C7 1_555 1_555
H11 C7 1_555 1_555
H12 C7 1_555 1_555
C8 C5 1_555 1_555
H13 C8 1_555 1_555
H14 C8 1_555 1_555
H15 C8 1_555 1_555
C9 C1 1_555 1_555
C10 C9 1_555 1_555
H16 C10 1_555 1_555
C11 C10 1_555 1_555
H17 C11 1_555 1_555
C12 C11 1_555 1_555
H18 C12 1_555 1_555
C13 C12 1_555 1_555
C14 C9 1_555 1_555
H19 C14 1_555 1_555
C15 O5 1_555 1_555
H20 C15 1_555 1_555
H21 C15 1_555 1_555
H22 C15 1_555 1_555
O6 H23 1_555 1_555
O7 H24 1_555 1_555
O8 C19 1_555 1_555
O9 C19 1_555 1_555
O10 C28 1_555 1_555
C16 O6 1_555 1_555
C17 O7 1_555 1_555
H25 C17 1_555 1_555
C18 C17 1_555 1_555
H26 C18 1_555 1_555
H27 C18 1_555 1_555
H28 C18 1_555 1_555
C19 C16 1_555 1_555
C20 O8 1_555 1_555
C21 C20 1_555 1_555
H29 C21 1_555 1_555
H30 C21 1_555 1_555
H31 C21 1_555 1_555
C22 C20 1_555 1_555
H32 C22 1_555 1_555
H33 C22 1_555 1_555
H34 C22 1_555 1_555
C23 C20 1_555 1_555
H35 C23 1_555 1_555
H36 C23 1_555 1_555
H37 C23 1_555 1_555
C24 C16 1_555 1_555
C25 C24 1_555 1_555
H38 C25 1_555 1_555
C26 C25 1_555 1_555
H39 C26 1_555 1_555
C27 C26 1_555 1_555
H40 C27 1_555 1_555
C28 C27 1_555 1_555
C29 C24 1_555 1_555
H41 C29 1_555 1_555
C30 O10 1_555 1_555
H42 C30 1_555 1_555
H43 C30 1_555 1_555
H44 C30 1_555 1_555
C1 C2 1_555 1_555
C13 C14 1_555 1_555
C16 C17 1_555 1_555
C28 C29 1_555 1_555

#END
