
#######################################################################
#
#                 Cambridge Crystallographic Data Centre
#                                CCDC 
#
#######################################################################
#
# If this CIF has been generated from an entry in the Cambridge 
# Structural Database, then it will include bibliographic, chemical, 
# crystal, experimental, refinement or atomic coordinate data resulting 
# from the CCDC's data processing and validation procedures.
#
#######################################################################

data_ZULCOY
_chemical_formula_moiety         'C27 H25 Br1 Cl1 N3 O6,0.5(C4 H8 O2)'
_chemical_name_systematic        
'2,3-Isopropylidene-1-(3-methyl-4-chloro-6-methoxypyrazolo(3,4-b)quinoline)-\b-D-ribofuranosyl p-bromobenzoate ester ethyl acetate solvate'
_symmetry_cell_setting           monoclinic
_symmetry_space_group_name_H-M   'P 21'
_symmetry_Int_Tables_number      4
_space_group_name_Hall           'P 2yb'
loop_
_symmetry_equiv_pos_site_id
_symmetry_equiv_pos_as_xyz
1 x,y,z
2 -x,1/2+y,-z
_cell_length_a                   20.622(3)
_cell_length_b                   8.058(1)
_cell_length_c                   18.858(2)
_cell_angle_alpha                90
_cell_angle_beta                 102.58(1)
_cell_angle_gamma                90
_cell_volume                     3058.44
_cell_formula_units_Z            4
loop_
_atom_site_label
_atom_site_type_symbol
_atom_site_fract_x
_atom_site_fract_y
_atom_site_fract_z
N4 N -0.0270(2) 0.1406(7) -0.2730(2)
N5 N 0.0142(2) 0.2065(7) -0.2122(3)
C28 C -0.0131(2) 0.1777(7) -0.1570(3)
C29 C -0.0735(2) 0.0866(7) -0.1798(3)
C30 C -0.1227(2) 0.0182(7) -0.1495(2)
C31 C -0.1757(2) -0.0646(7) -0.1933(3)
C32 C -0.2277(3) -0.1403(7) -0.1658(3)
C33 C -0.2776(2) -0.2233(8) -0.2118(3)
C34 C -0.2796(3) -0.2357(8) -0.2874(3)
C35 C -0.2301(3) -0.1635(8) -0.3143(3)
C36 C -0.1766(2) -0.0753(7) -0.2696(3)
N6 N -0.1292(2) -0.0115(6) -0.3009(2)
C37 C -0.0816(2) 0.0644(7) -0.2555(3)
C38 C 0.0198(3) 0.2375(9) -0.0830(3)
O7 O -0.3307(2) -0.2974(6) -0.1913(2)
C39 C -0.3320(3) -0.2872(12) -0.1166(4)
C40 C -0.0064(3) 0.1282(9) -0.3413(3)
C41 C 0.0354(3) 0.2760(9) -0.3527(3)
C42 C 0.1068(3) 0.2127(10) -0.3337(3)
C43 C 0.1014(2) 0.0261(9) -0.3253(3)
O8 O 0.0316(2) -0.0156(6) -0.3456(2)
C44 C 0.1275(3) -0.0354(10) -0.2496(4)
O9 O 0.1991(2) -0.0181(7) -0.2344(2)
O10 O 0.0243(2) 0.3055(8) -0.4287(2)
O11 O 0.1339(2) 0.2564(9) -0.3937(2)
C45 C 0.0866(3) 0.3426(13) -0.4458(4)
C46 C 0.0994(5) 0.5308(15) -0.4366(6)
C47 C 0.0861(5) 0.2818(21) -0.5187(5)
C48 C 0.2301(3) -0.0067(10) -0.1642(3)
O12 O 0.2005(2) -0.0100(11) -0.1154(3)
C49 C 0.3031(3) 0.0068(10) -0.1531(3)
C50 C 0.3402(3) 0.0473(13) -0.0853(4)
C51 C 0.4070(4) 0.0565(15) -0.0715(5)
C52 C 0.4397(3) 0.0176(13) -0.1278(4)
C53 C 0.4041(3) -0.0229(15) -0.1946(4)
C54 C 0.3360(3) -0.0273(13) -0.2078(4)
Br2 Br 0.53259(4) 0.0361(2) -0.11031(6)
Cl2 Cl -0.11657(7) 0.0310(2) -0.05651(6)
H26 H -0.2277 -0.1327 -0.1129
H27 H -0.3166 -0.2963 -0.3203
H28 H -0.2315 -0.1729 -0.3675
H29 H 0.0638 0.3006 -0.0856
H30 H -0.0123 0.3183 -0.0636
H31 H 0.0311 0.1357 -0.0477
H32 H -0.3745 -0.3477 -0.1075
H33 H -0.2894 -0.3443 -0.0856
H34 H -0.3331 -0.1621 -0.1014
H35 H -0.0505 0.1234 -0.3815
H36 H 0.0254 0.3800 -0.3233
H37 H 0.1368 0.2613 -0.2860
H38 H 0.1303 -0.0299 -0.3581
H41 H 0.0991 0.5655 -0.3830
H42 H 0.1458 0.5593 -0.4478
H43 H 0.0620 0.5957 -0.4727
H44 H 0.0772 0.1534 -0.5209
H45 H 0.0485 0.3423 -0.5563
H46 H 0.1323 0.3059 -0.5314
H47 H 0.3168 0.0706 -0.0451
H48 H 0.4329 0.0902 -0.0224
H49 H 0.4274 -0.0497 -0.2344
H50 H 0.3100 -0.0555 -0.2575
C55 C 0.309(1) 0.206(6) -0.464(2)
C56 C 0.291(2) -0.148(9) -0.423(2)
C57 C 0.291(1) 0.035(6) -0.506(2)
C58 C 0.322(2) 0.400(7) -0.450(2)
C59 C 0.250(2) -0.153(6) -0.496(2)
C61 C 0.293(1) 0.005(6) -0.420(2)
N1 N 0.3019(2) -0.2531(6) 0.2477(2)
N2 N 0.3227(2) -0.2826(6) 0.1845(2)
C1 C 0.2786(2) -0.2208(7) 0.1313(3)
C2 C 0.2265(2) -0.1416(7) 0.1583(2)
C3 C 0.1699(2) -0.0514(7) 0.1305(2)
C4 C 0.1311(2) 0.0062(7) 0.1784(2)
C5 C 0.0710(2) 0.1003(7) 0.1546(2)
C6 C 0.0361(2) 0.1474(7) 0.2038(3)
C7 C 0.0586(2) 0.1127(8) 0.2787(3)
C8 C 0.1139(2) 0.0272(8) 0.3028(3)
C9 C 0.1538(2) -0.0316(6) 0.2539(2)
N3 N 0.2100(2) -0.1150(6) 0.2826(2)
C10 C 0.2439(2) -0.1645(7) 0.2332(3)
C11 C 0.2855(3) -0.2439(10) 0.0545(3)
O1 O -0.0224(2) 0.2385(6) 0.1866(2)
C12 C -0.0482(3) 0.2701(9) 0.1121(3)
C13 C 0.3471(2) -0.2745(7) 0.3169(3)
C14 C 0.3935(2) -0.4209(7) 0.3156(3)
C15 C 0.4613(2) -0.3428(7) 0.3150(3)
C16 C 0.4514(2) -0.1570(7) 0.3182(3)
O2 O 0.3882(2) -0.1342(5) 0.3376(2)
C17 C 0.4515(3) -0.0676(8) 0.2475(3)
O3 O 0.5204(2) -0.0635(5) 0.2419(2)
O4 O 0.4038(2) -0.5035(6) 0.3838(2)
O5 O 0.5037(2) -0.4038(6) 0.3783(2)
C18 C 0.4714(3) -0.5427(7) 0.4022(3)
C19 C 0.4859(4) -0.7008(9) 0.3643(4)
C20 C 0.4936(5) -0.5548(10) 0.4842(3)
C21 C 0.5321(3) -0.0085(10) 0.1792(3)
O6 O 0.4889(2) 0.0358(9) 0.1288(3)
C22 C 0.6039(3) -0.0112(9) 0.1779(3)
C23 C 0.6212(4) 0.0396(14) 0.1153(4)
C24 C 0.6894(4) 0.0460(14) 0.1143(4)
C25 C 0.7362(3) -0.0045(11) 0.1732(4)
C26 C 0.7183(3) -0.0568(14) 0.2340(4)
C27 C 0.6508(3) -0.0578(11) 0.2362(4)
Br1 Br 0.82636(4) 0.00000 0.16779(6)
Cl1 Cl 0.14712(6) -0.0064(2) 0.03894(6)
H1 H 0.0553 0.1303 0.1022
H2 H 0.0324 0.1533 0.3140
H3 H 0.1283 0.0029 0.3559
H4 H 0.3299 -0.3075 0.0541
H5 H 0.2451 -0.3130 0.0257
H6 H 0.2864 -0.1274 0.0298
H7 H -0.0922 0.3395 0.1060
H8 H -0.0132 0.3372 0.0907
H9 H -0.0584 0.1571 0.0842
H10 H 0.3181 -0.2929 0.3523
H11 H 0.3747 -0.5009 0.2720
H12 H 0.4810 -0.3701 0.2695
H13 H 0.4914 -0.1057 0.3560
H14 H 0.4329 0.0534 0.2488
H15 H 0.4226 -0.1325 0.2034
H16 H 0.4697 -0.6866 0.3079
H17 H 0.5372 -0.7241 0.3771
H18 H 0.4607 -0.8008 0.3818
H19 H 0.4826 -0.4433 0.5079
H20 H 0.4685 -0.6531 0.5031
H21 H 0.5450 -0.5764 0.4983
H22 H 0.5865 0.0713 0.0715
H23 H 0.7035 0.0879 0.0701
H24 H 0.7527 -0.0944 0.2770
H25 H 0.6372 -0.0936 0.2816
C60? C 0.290(2) -0.348(7) -0.477(2)
H39? H 0.4329 0.0534 0.2488
H40? H 0.4226 -0.1325 0.2034
loop_
_geom_bond_atom_site_label_1
_geom_bond_atom_site_label_2
_geom_bond_site_symmetry_1
_geom_bond_site_symmetry_2
N1 N2 1_555 1_555
N2 C1 1_555 1_555
C1 C2 1_555 1_555
C2 C3 1_555 1_555
C3 C4 1_555 1_555
C4 C5 1_555 1_555
C5 C6 1_555 1_555
C6 C7 1_555 1_555
C7 C8 1_555 1_555
C8 C9 1_555 1_555
C9 C4 1_555 1_555
N3 C9 1_555 1_555
C10 N1 1_555 1_555
C11 C1 1_555 1_555
O1 C6 1_555 1_555
C12 O1 1_555 1_555
C13 N1 1_555 1_555
C14 C13 1_555 1_555
C15 C14 1_555 1_555
C16 C15 1_555 1_555
O2 C13 1_555 1_555
C17 C16 1_555 1_555
O3 C17 1_555 1_555
O4 C14 1_555 1_555
O5 C15 1_555 1_555
C18 O4 1_555 1_555
C19 C18 1_555 1_555
C20 C18 1_555 1_555
C21 O3 1_555 1_555
O6 C21 1_555 1_555
C22 C21 1_555 1_555
C23 C22 1_555 1_555
C24 C23 1_555 1_555
C25 C24 1_555 1_555
C26 C25 1_555 1_555
C27 C22 1_555 1_555
Br1 C25 1_555 1_555
Cl1 C3 1_555 1_555
N4 N5 1_555 1_555
N5 C28 1_555 1_555
C28 C29 1_555 1_555
C29 C30 1_555 1_555
C30 C31 1_555 1_555
C31 C32 1_555 1_555
C32 C33 1_555 1_555
C33 C34 1_555 1_555
C34 C35 1_555 1_555
C35 C36 1_555 1_555
C36 C31 1_555 1_555
N6 C36 1_555 1_555
C37 N4 1_555 1_555
C38 C28 1_555 1_555
O7 C33 1_555 1_555
C39 O7 1_555 1_555
C40 N4 1_555 1_555
C41 C40 1_555 1_555
C42 C41 1_555 1_555
C43 C42 1_555 1_555
O8 C40 1_555 1_555
C44 C43 1_555 1_555
O9 C44 1_555 1_555
O10 C41 1_555 1_555
O11 C42 1_555 1_555
C45 O10 1_555 1_555
C46 C45 1_555 1_555
C47 C45 1_555 1_555
C48 O9 1_555 1_555
O12 C48 1_555 1_555
C49 C48 1_555 1_555
C50 C49 1_555 1_555
C51 C50 1_555 1_555
C52 C51 1_555 1_555
C53 C52 1_555 1_555
C54 C49 1_555 1_555
Br2 C52 1_555 1_555
Cl2 C30 1_555 1_555
C55 C57 1_555 1_555
C56 C59 1_555 1_555
C57 C61 1_555 1_555
C58 C55 1_555 1_555
C61 C56 1_555 1_555
H1 C5 1_555 1_555
H2 C7 1_555 1_555
H3 C8 1_555 1_555
H4 C11 1_555 1_555
H5 C11 1_555 1_555
H6 C11 1_555 1_555
H7 C12 1_555 1_555
H8 C12 1_555 1_555
H9 C12 1_555 1_555
H10 C13 1_555 1_555
H11 C14 1_555 1_555
H12 C15 1_555 1_555
H13 C16 1_555 1_555
H14 C17 1_555 1_555
H15 C17 1_555 1_555
H16 C19 1_555 1_555
H17 C19 1_555 1_555
H18 C19 1_555 1_555
H19 C20 1_555 1_555
H20 C20 1_555 1_555
H21 C20 1_555 1_555
H22 C23 1_555 1_555
H23 C24 1_555 1_555
H24 C26 1_555 1_555
H25 C27 1_555 1_555
H26 C32 1_555 1_555
H27 C34 1_555 1_555
H28 C35 1_555 1_555
H29 C38 1_555 1_555
H30 C38 1_555 1_555
H31 C38 1_555 1_555
H32 C39 1_555 1_555
H33 C39 1_555 1_555
H34 C39 1_555 1_555
H35 C40 1_555 1_555
H36 C41 1_555 1_555
H37 C42 1_555 1_555
H38 C43 1_555 1_555
H41 C46 1_555 1_555
H42 C46 1_555 1_555
H43 C46 1_555 1_555
H44 C47 1_555 1_555
H45 C47 1_555 1_555
H46 C47 1_555 1_555
H47 C50 1_555 1_555
H48 C51 1_555 1_555
H49 C53 1_555 1_555
H50 C54 1_555 1_555
C2 C10 1_555 1_555
N3 C10 1_555 1_555
C16 O2 1_555 1_555
O5 C18 1_555 1_555
C26 C27 1_555 1_555
C29 C37 1_555 1_555
N6 C37 1_555 1_555
C43 O8 1_555 1_555
O11 C45 1_555 1_555
C53 C54 1_555 1_555

#END
