
#######################################################################
#
#                 Cambridge Crystallographic Data Centre
#                                CCDC 
#
#######################################################################
#
# If this CIF has been generated from an entry in the Cambridge 
# Structural Database, then it will include bibliographic, chemical, 
# crystal, experimental, refinement or atomic coordinate data resulting 
# from the CCDC's data processing and validation procedures.
#
#######################################################################

data_ZULHET
_chemical_formula_moiety         'C24 H32 Cl2 N2 O4'
_chemical_name_systematic        
N,N'-bis(4-Chlorophenyl)-1,10-diaza-18-crown-6
_symmetry_cell_setting           orthorhombic
_symmetry_space_group_name_H-M   'P 21 21 21'
_symmetry_Int_Tables_number      19
_space_group_name_Hall           'P 2ac 2ab'
loop_
_symmetry_equiv_pos_site_id
_symmetry_equiv_pos_as_xyz
1 x,y,z
2 1/2-x,-y,1/2+z
3 1/2+x,1/2-y,-z
4 -x,1/2+y,1/2-z
_cell_length_a                   4.852(1)
_cell_length_b                   11.989(2)
_cell_length_c                   41.231(8)
_cell_angle_alpha                90
_cell_angle_beta                 90
_cell_angle_gamma                90
_cell_volume                     2398.43
_cell_formula_units_Z            4
loop_
_atom_site_label
_atom_site_type_symbol
_atom_site_fract_x
_atom_site_fract_y
_atom_site_fract_z
Cl1 Cl 0.027(2) 1.6336(5) 0.7537(2)
Cl2 Cl 0.881(2) 0.485(5) 1.0032(2)
O1 O 0.352(3) 1.014(1) 0.8221(3)
O2 O 0.647(3) 0.803(1) 0.8334(4)
O3 O 0.611(3) 1.110(1) 0.9258(3)
O4 O 0.357(3) 1.325(1) 0.9176(3)
N1 N 0.458(3) 1.306(1) 0.8469(3)
N2 N 0.876(4) 0.836(1) 0.9017(4)
C1 C 0.357(4) 1.190(2) 0.8481(5)
C2 C 0.496(5) 1.121(2) 0.8246(5)
C3 C 0.455(4) 0.941(1) 0.7974(5)
C4 C 0.714(4) 0.876(2) 0.8076(5)
C5 C 0.882(5) 0.750(2) 0.8478(5)
C6 C 1.028(4) 0.823(2) 0.8730(5)
C7 C 0.685(5) 0.935(2) 0.9041(5)
C8 C 0.816(4) 1.026(2) 0.9257(6)
C9 C 0.708(5) 1.204(2) 0.9435(5)
C10 C 0.474(5) 1.284(2) 0.9460(5)
C11 C 0.542(5) 1.394(1) 0.9007(4)
C12 C 0.667(5) 1.331(2) 0.8718(5)
C13 C 0.356(6) 1.384(2) 0.8259(6)
C14 C 0.463(7) 1.489(2) 0.8239(8)
C15 C 0.368(7) 1.566(2) 0.8023(7)
C16 C 0.158(8) 1.536(2) 0.7814(7)
C17 C 0.059(6) 1.430(2) 0.7820(6)
C18 C 0.164(6) 1.353(3) 0.8025(6)
C19 C 0.870(6) 0.752(2) 0.9249(7)
C20 C 0.705(6) 0.756(2) 0.9503(7)
C21 C 0.706(8) 0.680(3) 0.9754(9)
C22 C 0.855(7) 0.590(2) 0.9736(6)
C23 C 1.031(7) 0.576(2) 0.9480(7)
C24 C 1.029(6) 0.652(2) 0.9219(6)
loop_
_geom_bond_atom_site_label_1
_geom_bond_atom_site_label_2
_geom_bond_site_symmetry_1
_geom_bond_site_symmetry_2
Cl1 C16 1_555 1_555
Cl2 C22 1_555 1_555
O1 C2 1_555 1_555
O2 C4 1_555 1_555
O3 C8 1_555 1_555
O4 C10 1_555 1_555
N1 C1 1_555 1_555
N2 C6 1_555 1_555
C1 C2 1_555 1_555
C3 O1 1_555 1_555
C4 C3 1_555 1_555
C5 O2 1_555 1_555
C6 C5 1_555 1_555
C7 N2 1_555 1_555
C8 C7 1_555 1_555
C9 O3 1_555 1_555
C10 C9 1_555 1_555
C11 O4 1_555 1_555
C12 N1 1_555 1_555
C13 N1 1_555 1_555
C14 C13 1_555 1_555
C15 C14 1_555 1_555
C16 C15 1_555 1_555
C17 C16 1_555 1_555
C18 C13 1_555 1_555
C19 N2 1_555 1_555
C20 C19 1_555 1_555
C21 C20 1_555 1_555
C22 C21 1_555 1_555
C23 C22 1_555 1_555
C24 C19 1_555 1_555
C11 C12 1_555 1_555
C17 C18 1_555 1_555
C23 C24 1_555 1_555

#END
