
#######################################################################
#
#                 Cambridge Crystallographic Data Centre
#                                CCDC 
#
#######################################################################
#
# If this CIF has been generated from an entry in the Cambridge 
# Structural Database, then it will include bibliographic, chemical, 
# crystal, experimental, refinement or atomic coordinate data resulting 
# from the CCDC's data processing and validation procedures.
#
#######################################################################

data_ZULHIZ
_chemical_formula_moiety         'C53 H50 O10,C1 H2 Cl2'
_chemical_name_systematic        
'4,9,19,28,32,34-Hexamethoxy-14,24,26,30-tetrakis(prop-2-yn-1-yloxy)hexacyclo[21.2.2.2^3,6^.2^8,11^.2^13,16^.2^18,21^]pentatriaconta-1(25),3,5,8,10,13,15,18,20,23,26,28,30,32,34-pentadecaene dichloromethane solvate'
_symmetry_cell_setting           triclinic
_symmetry_space_group_name_H-M   'P -1'
_symmetry_Int_Tables_number      2
_space_group_name_Hall           '-P 1'
loop_
_symmetry_equiv_pos_site_id
_symmetry_equiv_pos_as_xyz
1 x,y,z
2 -x,-y,-z
_cell_length_a                   12.0078(5)
_cell_length_b                   19.6299(9)
_cell_length_c                   20.8822(8)
_cell_angle_alpha                97.198(4)
_cell_angle_beta                 98.706(3)
_cell_angle_gamma                96.895(3)
_cell_volume                     4778.38
_exptl_crystal_colour            colorless
_exptl_crystal_description       block
_chemical_melting_point          '352 K'
_cell_formula_units_Z            4
_exptl_crystal_recrystallization_method 'Vapour Deposition'
loop_
_atom_site_label
_atom_site_type_symbol
_atom_site_fract_x
_atom_site_fract_y
_atom_site_fract_z
Cl1 Cl 0.0366(4) 0.8477(3) -0.3125(2)
Cl2 Cl 0.1561(4) 0.8186(3) -0.1859(2)
C1 C 0.0807(16) 0.7952(10) -0.2580(7)
H1 H 0.0106 0.7669 -0.2513
H2 H 0.1231 0.7628 -0.2815
Cl3 Cl 0.3674(5) 0.6338(4) 0.2639(3)
Cl4 Cl 0.5256(4) 0.7703(3) 0.2639(2)
C2 C 0.4848(16) 0.6680(12) 0.2522(9)
H3 H 0.4922 0.6502 0.2068
H4 H 0.5437 0.6501 0.2815
O1 O 0.1471(4) 1.0086(2) -0.0487(2)
O2 O -0.2109(3) 0.93825(19) -0.25651(17)
O3 O -0.1100(3) 0.7852(2) -0.07398(18)
O4 O -0.2764(3) 0.67189(19) -0.33085(18)
O5 O 0.0638(3) 0.5863(2) -0.18341(18)
O6 O 0.0663(3) 0.6463(2) -0.43485(18)
O7 O 0.4182(3) 0.70794(18) -0.23935(17)
O8 O 0.3094(3) 0.8859(2) -0.41653(19)
O9 O 0.4914(3) 0.9606(2) -0.1646(2)
O10 O 0.1369(3) 1.0764(2) -0.2906(2)
C3 C 0.1546(5) 1.0829(3) -0.1546(3)
H5 H 0.1250 1.1206 -0.1764
H6 H 0.1925 1.1029 -0.1096
C4 C 0.0567(4) 0.9888(3) -0.0995(3)
C5 C 0.0565(4) 1.0268(3) -0.1519(3)
C6 C -0.0328(4) 1.0102(3) -0.2039(3)
H7 H -0.0333 1.0353 -0.2400
C7 C -0.1218(4) 0.9576(3) -0.2046(2)
C8 C -0.1246(4) 0.9225(3) -0.1516(2)
C9 C -0.0340(5) 0.9384(3) -0.0998(3)
H8 H -0.0346 0.9138 -0.0634
C10 C 0.1651(5) 0.9660(4) 0.0012(3)
H9 H 0.0905 0.9477 0.0117
H10 H 0.2098 0.9947 0.0413
C11 C 0.2238(5) 0.9085(4) -0.0170(3)
C12 C 0.2753(7) 0.8617(4) -0.0279(4)
H11 H 0.3166 0.8242 -0.0367
C13 C -0.1968(5) 0.9655(3) -0.3150(3)
H12 H -0.1225 0.9572 -0.3270
H13 H -0.1990 1.0161 -0.3086
C14 C -0.2890(5) 0.9309(3) -0.3666(3)
C15 C -0.3610(5) 0.9056(3) -0.4100(3)
H14 H -0.4196 0.8851 -0.4453
C16 C -0.2256(4) 0.8677(3) -0.1499(3)
H15 H -0.2380 0.8683 -0.1041
H16 H -0.2948 0.8801 -0.1754
C17 C -0.2099(4) 0.7954(3) -0.1771(2)
C18 C -0.2549(4) 0.7677(3) -0.2416(3)
H17 H -0.2989 0.7937 -0.2685
C19 C -0.2358(4) 0.7015(3) -0.2672(2)
C20 C -0.1745(4) 0.6618(3) -0.2286(3)
C21 C -0.1320(4) 0.6894(3) -0.1636(3)
H18 H -0.0904 0.6627 -0.1363
C22 C -0.1495(4) 0.7553(3) -0.1381(2)
C23 C -0.0222(6) 0.7555(4) -0.0379(3)
H19 H 0.0383 0.7495 -0.0639
H20 H -0.0538 0.7103 -0.0282
H21 H 0.0092 0.7863 0.0032
C24 C -0.3397(7) 0.7111(4) -0.3720(3)
H22 H -0.3667 0.6834 -0.4151
H23 H -0.2910 0.7534 -0.3767
H24 H -0.4050 0.7237 -0.3525
C25 C -0.1467(4) 0.5927(3) -0.2572(3)
H25 H -0.2096 0.5699 -0.2924
H26 H -0.1387 0.5624 -0.2227
C26 C 0.0680(4) 0.6007(2) -0.2458(2)
C27 C -0.0367(4) 0.6022(2) -0.2849(3)
C28 C -0.0373(4) 0.6173(3) -0.3481(3)
H27 H -0.1079 0.6179 -0.3754
C29 C 0.0630(4) 0.6312(3) -0.3722(2)
C30 C 0.1669(4) 0.6298(2) -0.3336(2)
C31 C 0.1688(4) 0.6131(2) -0.2705(2)
H28 H 0.2393 0.6101 -0.2442
C32 C 0.1682(5) 0.5901(4) -0.1414(3)
H29 H 0.2131 0.5565 -0.1600
H30 H 0.1541 0.5793 -0.0985
H31 H 0.2102 0.6369 -0.1364
C33 C -0.0281(6) 0.6724(4) -0.4669(3)
H32 H -0.0096 0.6884 -0.5072
H33 H -0.0464 0.7113 -0.4381
H34 H -0.0937 0.6357 -0.4778
C34 C 0.2787(4) 0.6473(2) -0.3580(2)
H35 H 0.2674 0.6330 -0.4060
H36 H 0.3363 0.6211 -0.3373
C35 C 0.3945(4) 0.7531(3) -0.2836(2)
C36 C 0.3222(4) 0.7247(2) -0.3421(2)
C37 C 0.2935(4) 0.7697(3) -0.3867(2)
H37 H 0.2440 0.7520 -0.4268
C38 C 0.3359(4) 0.8392(3) -0.3736(3)
C39 C 0.4109(4) 0.8665(3) -0.3169(3)
C40 C 0.4397(4) 0.8224(3) -0.2721(3)
H38 H 0.4915 0.8402 -0.2329
C41 C 0.4696(5) 0.7390(3) -0.1750(3)
H39 H 0.4272 0.7762 -0.1595
H40 H 0.5489 0.7598 -0.1750
C42 C 0.4689(5) 0.6867(3) -0.1318(3)
C43 C 0.4691(6) 0.6469(3) -0.0941(3)
C44 C 0.2075(5) 0.8665(3) -0.4620(3)
H41 H 0.1447 0.8498 -0.4397
H42 H 0.2167 0.8290 -0.4963
C45 C 0.1826(6) 0.9289(3) -0.4913(3)
C46 C 0.1659(7) 0.9796(4) -0.5134(4)
H43 H 0.1524 1.0206 -0.5314
C47 C 0.4590(4) 0.9431(3) -0.3010(3)
H44 H 0.5370 0.9483 -0.2758
H45 H 0.4638 0.9623 -0.3423
C48 C 0.4018(4) 0.9898(3) -0.1937(3)
C49 C 0.3865(4) 0.9837(3) -0.2620(3)
C50 C 0.2983(4) 1.0131(3) -0.2939(3)
H46 H 0.2877 1.0101 -0.3402
C51 C 0.2258(4) 1.0466(3) -0.2599(3)
C52 C 0.2393(4) 1.0518(3) -0.1920(3)
C53 C 0.3292(4) 1.0239(3) -0.1598(3)
H47 H 0.3411 1.0283 -0.1134
C54 C 0.5071(6) 0.9627(4) -0.0960(3)
H48 H 0.4385 0.9394 -0.0837
H49 H 0.5218 1.0112 -0.0749
H50 H 0.5721 0.9392 -0.0819
C55 C 0.0982(6) 1.0525(4) -0.3575(3)
H51 H 0.1560 1.0685 -0.3829
H52 H 0.0274 1.0707 -0.3718
H53 H 0.0841 1.0017 -0.3647
H54 H 0.460(7) 0.619(3) -0.062(3)
O11 O 0.3962(3) 0.48385(16) 0.07289(17)
O12 O 0.4207(3) 0.76401(18) 0.05683(19)
O13 O 0.5792(3) 0.47895(18) 0.29975(16)
O14 O 0.8066(3) 0.6529(2) 0.15895(18)
O15 O 0.4273(3) 0.5824(2) 0.48021(19)
O16 O 0.7970(3) 0.7122(2) 0.3934(2)
O17 O 0.0813(3) 0.6725(2) 0.35173(18)
O18 O 0.4792(3) 0.8531(2) 0.44751(18)
O19 O 0.0837(3) 0.60800(17) 0.11571(17)
O20 O 0.2325(3) 0.87985(18) 0.22719(18)
C56 C 0.2048(4) 0.6900(3) 0.0433(2)
H55 H 0.2165 0.7281 0.0172
H56 H 0.1405 0.6557 0.0188
C57 C 0.4004(4) 0.5539(2) 0.0677(2)
C58 C 0.3037(4) 0.5854(2) 0.0564(2)
H57 H 0.2309 0.5584 0.0509
C59 C 0.3114(4) 0.6557(2) 0.0528(2)
C60 C 0.4191(4) 0.6941(2) 0.0609(2)
C61 C 0.5155(4) 0.6621(2) 0.0711(2)
H58 H 0.5882 0.6890 0.0758
C62 C 0.5086(4) 0.5920(2) 0.0747(2)
C63 C 0.2986(4) 0.4513(3) 0.0941(3)
H59 H 0.2769 0.4838 0.1287
H60 H 0.3185 0.4099 0.1135
C64 C 0.2012(5) 0.4300(3) 0.0417(3)
C65 C 0.1242(6) 0.4134(3) -0.0016(3)
H61 H 0.0620 0.4000 -0.0367
C66 C 0.5243(5) 0.8093(3) 0.0812(3)
H62 H 0.5582 0.7973 0.1238
H63 H 0.5073 0.8575 0.0888
C67 C 0.6079(5) 0.8060(3) 0.0366(3)
C68 C 0.6758(6) 0.8024(4) 0.0023(3)
H64 H 0.7311 0.7995 -0.0256
C69 C 0.6156(4) 0.5595(3) 0.0878(2)
H65 H 0.6759 0.5840 0.0682
H66 H 0.6009 0.5105 0.0667
C70 C 0.6333(4) 0.5203(2) 0.2621(2)
C71 C 0.6001(4) 0.5180(2) 0.1961(2)
H67 H 0.5369 0.4853 0.1740
C72 C 0.6566(4) 0.5624(2) 0.1605(2)
C73 C 0.7483(4) 0.6095(2) 0.1943(2)
C74 C 0.7841(4) 0.6104(3) 0.2603(2)
H68 H 0.8494 0.6417 0.2819
C75 C 0.7276(4) 0.5672(2) 0.2960(2)
C76 C 0.4704(4) 0.4421(3) 0.2707(3)
H69 H 0.4778 0.4096 0.2325
H70 H 0.4195 0.4750 0.2570
H71 H 0.4387 0.4164 0.3027
C77 C 0.8098(5) 0.7243(3) 0.1794(3)
H72 H 0.8426 0.7507 0.1483
H73 H 0.8566 0.7374 0.2230
H74 H 0.7323 0.7344 0.1813
C78 C 0.7618(4) 0.5703(3) 0.3690(2)
H75 H 0.8417 0.5929 0.3827
H76 H 0.7569 0.5227 0.3803
C79 C 0.6848(4) 0.6107(3) 0.4050(2)
C80 C 0.7026(4) 0.6826(3) 0.4154(2)
C81 C 0.6293(4) 0.7198(3) 0.4459(2)
H77 H 0.6440 0.7690 0.4531
C82 C 0.5353(4) 0.6867(3) 0.4661(2)
C83 C 0.5181(4) 0.6146(3) 0.4561(2)
C84 C 0.5924(4) 0.5775(3) 0.4263(2)
H78 H 0.5793 0.5282 0.4204
C85 C 0.3651(5) 0.5214(3) 0.4415(3)
H79 H 0.4062 0.4811 0.4468
H80 H 0.3518 0.5270 0.3947
C86 C 0.2575(6) 0.5124(3) 0.4665(3)
C87 C 0.1709(7) 0.5063(5) 0.4879(4)
C88 C 0.8168(6) 0.7856(3) 0.3993(4)
H81 H 0.8735 0.7993 0.3717
H82 H 0.7452 0.8027 0.3828
C89 C 0.8563(6) 0.8169(4) 0.4638(4)
C90 C 0.8901(8) 0.8418(5) 0.5204(6)
C91 C 0.4544(4) 0.7272(3) 0.4980(2)
H83 H 0.4977 0.7697 0.5253
H84 H 0.4176 0.6989 0.5271
C92 C 0.1801(4) 0.7174(3) 0.3770(2)
C93 C 0.2635(4) 0.7019(3) 0.4247(2)
H85 H 0.2517 0.6595 0.4419
C94 C 0.3634(4) 0.7470(3) 0.4477(2)
C95 C 0.3783(4) 0.8096(3) 0.4226(2)
C96 C 0.2935(4) 0.8258(3) 0.3762(2)
H86 H 0.3037 0.8690 0.3603
C97 C 0.1943(4) 0.7799(3) 0.3527(2)
C98 C 0.0813(5) 0.6021(3) 0.3586(3)
H87 H 0.0139 0.5744 0.3308
H88 H 0.0800 0.5963 0.4045
H89 H 0.1501 0.5865 0.3454
C99 C 0.4960(6) 0.9160(3) 0.4216(4)
H90 H 0.4933 0.9059 0.3742
H91 H 0.5703 0.9420 0.4421
H92 H 0.4359 0.9437 0.4305
C100 C 0.1066(4) 0.7970(3) 0.2991(2)
H93 H 0.0299 0.7758 0.3041
H94 H 0.1077 0.8479 0.3035
C101 C 0.1159(4) 0.6757(2) 0.1442(2)
C102 C 0.0922(4) 0.7022(3) 0.2044(2)
H95 H 0.0489 0.6729 0.2274
C103 C 0.1300(4) 0.7705(2) 0.2319(2)
C104 C 0.1927(4) 0.8128(2) 0.1973(2)
C105 C 0.2122(4) 0.7869(2) 0.1358(2)
H96 H 0.2519 0.8169 0.1118
C106 C 0.1755(4) 0.7185(2) 0.1083(2)
C107 C 0.0443(5) 0.5595(3) 0.1550(3)
H97 H 0.0384 0.5124 0.1315
H98 H -0.0306 0.5682 0.1644
H99 H 0.0980 0.5643 0.1961
C108 C 0.3087(6) 0.9201(3) 0.1953(4)
H100 H 0.2706 0.9240 0.1513
H101 H 0.3764 0.8974 0.1922
H102 H 0.3313 0.9665 0.2207
H103 H 0.915(9) 0.851(6) 0.5662(14)
H104 H 0.097(4) 0.509(6) 0.497(6)
loop_
_geom_bond_atom_site_label_1
_geom_bond_atom_site_label_2
_geom_bond_site_symmetry_1
_geom_bond_site_symmetry_2
Cl1 C1 1_555 1_555
Cl2 C1 1_555 1_555
C1 H1 1_555 1_555
H2 C1 1_555 1_555
Cl3 C2 1_555 1_555
Cl4 C2 1_555 1_555
C2 H3 1_555 1_555
H4 C2 1_555 1_555
O1 C4 1_555 1_555
O2 C7 1_555 1_555
O3 C22 1_555 1_555
O4 C19 1_555 1_555
O5 C26 1_555 1_555
O6 C29 1_555 1_555
O7 C35 1_555 1_555
O8 C38 1_555 1_555
O9 C48 1_555 1_555
O10 C51 1_555 1_555
C3 H5 1_555 1_555
H6 C3 1_555 1_555
C4 C5 1_555 1_555
C5 C3 1_555 1_555
C6 C5 1_555 1_555
H7 C6 1_555 1_555
C7 C6 1_555 1_555
C8 C7 1_555 1_555
C9 C4 1_555 1_555
H8 C9 1_555 1_555
C10 O1 1_555 1_555
H9 C10 1_555 1_555
H10 C10 1_555 1_555
C11 C10 1_555 1_555
C12 C11 1_555 1_555
H11 C12 1_555 1_555
C13 O2 1_555 1_555
H12 C13 1_555 1_555
H13 C13 1_555 1_555
C14 C13 1_555 1_555
C15 C14 1_555 1_555
H14 C15 1_555 1_555
C16 C8 1_555 1_555
H15 C16 1_555 1_555
H16 C16 1_555 1_555
C17 C16 1_555 1_555
C18 C17 1_555 1_555
H17 C18 1_555 1_555
C19 C18 1_555 1_555
C20 C19 1_555 1_555
C21 C20 1_555 1_555
H18 C21 1_555 1_555
C22 C17 1_555 1_555
C23 O3 1_555 1_555
H19 C23 1_555 1_555
H20 C23 1_555 1_555
H21 C23 1_555 1_555
C24 O4 1_555 1_555
H22 C24 1_555 1_555
H23 C24 1_555 1_555
H24 C24 1_555 1_555
C25 C20 1_555 1_555
H25 C25 1_555 1_555
H26 C25 1_555 1_555
C26 C27 1_555 1_555
C27 C25 1_555 1_555
C28 C27 1_555 1_555
H27 C28 1_555 1_555
C29 C28 1_555 1_555
C30 C29 1_555 1_555
C31 C26 1_555 1_555
H28 C31 1_555 1_555
C32 O5 1_555 1_555
H29 C32 1_555 1_555
H30 C32 1_555 1_555
H31 C32 1_555 1_555
C33 O6 1_555 1_555
H32 C33 1_555 1_555
H33 C33 1_555 1_555
H34 C33 1_555 1_555
C34 C30 1_555 1_555
H35 C34 1_555 1_555
H36 C34 1_555 1_555
C35 C36 1_555 1_555
C36 C34 1_555 1_555
C37 C36 1_555 1_555
H37 C37 1_555 1_555
C38 C37 1_555 1_555
C39 C38 1_555 1_555
C40 C35 1_555 1_555
H38 C40 1_555 1_555
C41 O7 1_555 1_555
H39 C41 1_555 1_555
H40 C41 1_555 1_555
C42 C41 1_555 1_555
C43 C42 1_555 1_555
C44 O8 1_555 1_555
H41 C44 1_555 1_555
H42 C44 1_555 1_555
C45 C44 1_555 1_555
C46 C45 1_555 1_555
H43 C46 1_555 1_555
C47 C39 1_555 1_555
H44 C47 1_555 1_555
H45 C47 1_555 1_555
C48 C49 1_555 1_555
C49 C47 1_555 1_555
C50 C49 1_555 1_555
H46 C50 1_555 1_555
C51 C50 1_555 1_555
C52 C3 1_555 1_555
C53 C48 1_555 1_555
H47 C53 1_555 1_555
C54 O9 1_555 1_555
H48 C54 1_555 1_555
H49 C54 1_555 1_555
H50 C54 1_555 1_555
C55 O10 1_555 1_555
H51 C55 1_555 1_555
H52 C55 1_555 1_555
H53 C55 1_555 1_555
H54 C43 1_555 1_555
O11 C57 1_555 1_555
O12 C60 1_555 1_555
O13 C70 1_555 1_555
O14 C73 1_555 1_555
O15 C83 1_555 1_555
O16 C80 1_555 1_555
O17 C92 1_555 1_555
O18 C95 1_555 1_555
O19 C101 1_555 1_555
O20 C104 1_555 1_555
C56 H55 1_555 1_555
H56 C56 1_555 1_555
C57 C58 1_555 1_555
C58 H57 1_555 1_555
C59 C56 1_555 1_555
C60 C59 1_555 1_555
C61 C60 1_555 1_555
H58 C61 1_555 1_555
C62 C57 1_555 1_555
C63 O11 1_555 1_555
H59 C63 1_555 1_555
H60 C63 1_555 1_555
C64 C63 1_555 1_555
C65 C64 1_555 1_555
H61 C65 1_555 1_555
C66 O12 1_555 1_555
H62 C66 1_555 1_555
H63 C66 1_555 1_555
C67 C66 1_555 1_555
C68 C67 1_555 1_555
H64 C68 1_555 1_555
C69 C62 1_555 1_555
H65 C69 1_555 1_555
H66 C69 1_555 1_555
C70 C71 1_555 1_555
C71 H67 1_555 1_555
C72 C69 1_555 1_555
C73 C72 1_555 1_555
C74 C73 1_555 1_555
H68 C74 1_555 1_555
C75 C70 1_555 1_555
C76 O13 1_555 1_555
H69 C76 1_555 1_555
H70 C76 1_555 1_555
H71 C76 1_555 1_555
C77 O14 1_555 1_555
H72 C77 1_555 1_555
H73 C77 1_555 1_555
H74 C77 1_555 1_555
C78 C75 1_555 1_555
H75 C78 1_555 1_555
H76 C78 1_555 1_555
C79 C78 1_555 1_555
C80 C79 1_555 1_555
C81 C80 1_555 1_555
H77 C81 1_555 1_555
C82 C81 1_555 1_555
C83 C82 1_555 1_555
C84 C79 1_555 1_555
H78 C84 1_555 1_555
C85 O15 1_555 1_555
H79 C85 1_555 1_555
H80 C85 1_555 1_555
C86 C85 1_555 1_555
C87 C86 1_555 1_555
C88 O16 1_555 1_555
H81 C88 1_555 1_555
H82 C88 1_555 1_555
C89 C88 1_555 1_555
C90 C89 1_555 1_555
C91 C82 1_555 1_555
H83 C91 1_555 1_555
H84 C91 1_555 1_555
C92 C93 1_555 1_555
C93 H85 1_555 1_555
C94 C91 1_555 1_555
C95 C94 1_555 1_555
C96 C95 1_555 1_555
H86 C96 1_555 1_555
C97 C92 1_555 1_555
C98 O17 1_555 1_555
H87 C98 1_555 1_555
H88 C98 1_555 1_555
H89 C98 1_555 1_555
C99 O18 1_555 1_555
H90 C99 1_555 1_555
H91 C99 1_555 1_555
H92 C99 1_555 1_555
C100 C97 1_555 1_555
H93 C100 1_555 1_555
H94 C100 1_555 1_555
C101 C102 1_555 1_555
C102 H95 1_555 1_555
C103 C100 1_555 1_555
C104 C103 1_555 1_555
C105 C104 1_555 1_555
H96 C105 1_555 1_555
C106 C56 1_555 1_555
C107 O19 1_555 1_555
H97 C107 1_555 1_555
H98 C107 1_555 1_555
H99 C107 1_555 1_555
C108 O20 1_555 1_555
H100 C108 1_555 1_555
H101 C108 1_555 1_555
H102 C108 1_555 1_555
H103 C90 1_555 1_555
H104 C87 1_555 1_555
C8 C9 1_555 1_555
C21 C22 1_555 1_555
C30 C31 1_555 1_555
C39 C40 1_555 1_555
C51 C52 1_555 1_555
C52 C53 1_555 1_555
C58 C59 1_555 1_555
C61 C62 1_555 1_555
C71 C72 1_555 1_555
C74 C75 1_555 1_555
C83 C84 1_555 1_555
C93 C94 1_555 1_555
C96 C97 1_555 1_555
C101 C106 1_555 1_555
C102 C103 1_555 1_555
C105 C106 1_555 1_555

#END
