
#######################################################################
#
#                 Cambridge Crystallographic Data Centre
#                                CCDC 
#
#######################################################################
#
# If this CIF has been generated from an entry in the Cambridge 
# Structural Database, then it will include bibliographic, chemical, 
# crystal, experimental, refinement or atomic coordinate data resulting 
# from the CCDC's data processing and validation procedures.
#
#######################################################################

data_ZUMCOB
_chemical_formula_moiety         'C30 H28 F6 N4 O2,C1 H1 Cl3'
_chemical_name_systematic        
"3,3'-bis(2-(trifluoromethyl)hexahydropyrimidin-2-yl)-1,1'-binaphthalene-2,2'-diol chloroform solvate"
_symmetry_cell_setting           orthorhombic
_symmetry_space_group_name_H-M   'P 21 21 21'
_symmetry_Int_Tables_number      19
_space_group_name_Hall           'P 2ac 2ab'
loop_
_symmetry_equiv_pos_site_id
_symmetry_equiv_pos_as_xyz
1 x,y,z
2 1/2-x,-y,1/2+z
3 -x,1/2+y,1/2-z
4 1/2+x,1/2-y,-z
_cell_length_a                   11.5447(4)
_cell_length_b                   14.4270(5)
_cell_length_c                   19.4717(7)
_cell_angle_alpha                90
_cell_angle_beta                 90
_cell_angle_gamma                90
_cell_volume                     3243.12
_exptl_crystal_colour            colorless
_exptl_crystal_description       needle
_cell_formula_units_Z            4
loop_
_atom_site_label
_atom_site_type_symbol
_atom_site_fract_x
_atom_site_fract_y
_atom_site_fract_z
Cl1 Cl 0.04571(13) 0.70431(15) 0.74237(10)
Cl2 Cl 0.23271(14) 0.6659(2) 0.64761(9)
Cl3 Cl 0.1428(2) 0.52697(17) 0.73583(12)
C1 C 0.1071(4) 0.6248(4) 0.6866(2)
H1 H 0.0494 0.6072 0.6506
F1 F -0.22549(15) 0.73326(11) 0.90941(9)
F2 F -0.23791(14) 0.88088(11) 0.89747(8)
F3 F -0.08142(14) 0.81053(13) 0.86963(8)
F4 F 0.28453(16) 1.21959(11) 0.80664(9)
F5 F 0.47031(17) 1.22408(13) 0.80032(10)
F6 F 0.36707(17) 1.22762(13) 0.70840(9)
O1 O 0.12307(15) 0.84759(12) 0.95054(10)
O2 O 0.15437(15) 1.05211(14) 0.83380(10)
N1 N -0.22301(16) 0.82589(15) 1.03351(11)
H2 H -0.2942 0.8310 1.0178
N2 N -0.04058(17) 0.74729(14) 1.00239(11)
H3 H -0.0145 0.7095 0.9705
N3 N 0.28529(19) 1.05155(16) 0.72416(10)
H4 H 0.2290 1.0874 0.7092
N4 N 0.4921(2) 1.06227(19) 0.73497(12)
H5 H 0.5442 1.1048 0.7253
C2 C 0.11789(18) 1.00866(16) 0.96729(11)
C3 C 0.06313(18) 0.92374(16) 0.97036(11)
C4 C -0.05515(18) 0.91702(15) 0.99310(11)
C5 C -0.11143(18) 0.99588(16) 1.01312(12)
H6 H -0.1895 0.9915 1.0283
C6 C -0.05756(19) 1.08345(16) 1.01203(12)
C7 C -0.1161(2) 1.16436(18) 1.03380(14)
H7 H -0.1932 1.1596 1.0506
C8 C -0.0639(2) 1.24901(19) 1.03109(16)
H8 H -0.1046 1.3030 1.0452
C9 C 0.0513(3) 1.25579(18) 1.00714(18)
H9 H 0.0881 1.3147 1.0060
C10 C 0.1107(2) 1.17925(17) 0.98557(15)
H10 H 0.1878 1.1857 0.9691
C11 C 0.0584(2) 1.09004(16) 0.98754(12)
C12 C 0.23798(18) 1.01415(15) 0.93917(11)
C13 C 0.33676(18) 0.99767(15) 0.98076(11)
C14 C 0.3286(2) 0.97534(17) 1.05117(12)
H11 H 0.2543 0.9700 1.0718
C15 C 0.4254(2) 0.96118(18) 1.09047(13)
H12 H 0.4175 0.9471 1.1379
C16 C 0.5372(2) 0.96740(18) 1.06099(13)
H13 H 0.6041 0.9574 1.0885
C17 C 0.5485(2) 0.98780(17) 0.99289(13)
H14 H 0.6235 0.9912 0.9730
C18 C 0.44949(18) 1.00400(15) 0.95123(11)
C19 C 0.45950(19) 1.02825(16) 0.88139(12)
H15 H 0.5345 1.0322 0.8616
C20 C 0.36526(19) 1.04633(16) 0.84114(11)
C21 C 0.25165(18) 1.03730(16) 0.87111(11)
C22 C -0.12076(19) 0.82495(16) 0.98960(12)
C23 C -0.1946(2) 0.81738(19) 1.10721(13)
H16 H -0.2672 0.8105 1.1338
H17 H -0.1557 0.8748 1.1228
C24 C -0.1162(2) 0.73489(18) 1.12157(14)
H18 H -0.1583 0.6764 1.1123
H19 H -0.0923 0.7351 1.1704
C25 C -0.0100(2) 0.74135(18) 1.07551(14)
H20 H 0.0356 0.7968 1.0885
H21 H 0.0394 0.6861 1.0830
C26 C -0.1662(2) 0.81317(19) 0.91562(13)
C27 C 0.3814(2) 1.08321(18) 0.76764(12)
C28 C 0.2954(3) 0.9512(2) 0.70873(15)
H22 H 0.2310 0.9322 0.6782
H23 H 0.2891 0.9153 0.7519
C29 C 0.4103(3) 0.9299(3) 0.67417(15)
H24 H 0.4175 0.8624 0.6664
H25 H 0.4142 0.9615 0.6291
C30 C 0.5082(3) 0.9633(3) 0.71968(15)
H26 H 0.5090 0.9273 0.7630
H27 H 0.5833 0.9538 0.6961
C31 C 0.3746(2) 1.1891(2) 0.77062(13)
H28 H 0.085(3) 0.805(3) 0.9642(18)
H29 H 0.170(3) 1.062(2) 0.7962(19)
loop_
_geom_bond_atom_site_label_1
_geom_bond_atom_site_label_2
_geom_bond_site_symmetry_1
_geom_bond_site_symmetry_2
Cl1 C1 1_555 1_555
Cl2 C1 1_555 1_555
Cl3 C1 1_555 1_555
C1 H1 1_555 1_555
F1 C26 1_555 1_555
F2 C26 1_555 1_555
F3 C26 1_555 1_555
F4 C31 1_555 1_555
F5 C31 1_555 1_555
F6 C31 1_555 1_555
O1 C3 1_555 1_555
O2 C21 1_555 1_555
N1 H2 1_555 1_555
N2 H3 1_555 1_555
N3 H4 1_555 1_555
N4 H5 1_555 1_555
C2 C3 1_555 1_555
C3 C4 1_555 1_555
C4 C5 1_555 1_555
C5 H6 1_555 1_555
C6 C5 1_555 1_555
C7 C6 1_555 1_555
H7 C7 1_555 1_555
C8 C7 1_555 1_555
H8 C8 1_555 1_555
C9 C8 1_555 1_555
H9 C9 1_555 1_555
C10 C9 1_555 1_555
H10 C10 1_555 1_555
C11 C2 1_555 1_555
C12 C2 1_555 1_555
C13 C12 1_555 1_555
C14 C13 1_555 1_555
H11 C14 1_555 1_555
C15 C14 1_555 1_555
H12 C15 1_555 1_555
C16 C15 1_555 1_555
H13 C16 1_555 1_555
C17 C16 1_555 1_555
H14 C17 1_555 1_555
C18 C13 1_555 1_555
C19 C18 1_555 1_555
H15 C19 1_555 1_555
C20 C19 1_555 1_555
C21 C12 1_555 1_555
C22 N1 1_555 1_555
C23 N1 1_555 1_555
H16 C23 1_555 1_555
H17 C23 1_555 1_555
C24 C23 1_555 1_555
H18 C24 1_555 1_555
H19 C24 1_555 1_555
C25 N2 1_555 1_555
H20 C25 1_555 1_555
H21 C25 1_555 1_555
C26 C22 1_555 1_555
C27 N3 1_555 1_555
C28 N3 1_555 1_555
H22 C28 1_555 1_555
H23 C28 1_555 1_555
C29 C28 1_555 1_555
H24 C29 1_555 1_555
H25 C29 1_555 1_555
C30 N4 1_555 1_555
H26 C30 1_555 1_555
H27 C30 1_555 1_555
C31 C27 1_555 1_555
H28 O1 1_555 1_555
H29 O2 1_555 1_555
N2 C22 1_555 1_555
N4 C27 1_555 1_555
C4 C22 1_555 1_555
C6 C11 1_555 1_555
C10 C11 1_555 1_555
C17 C18 1_555 1_555
C20 C21 1_555 1_555
C20 C27 1_555 1_555
C24 C25 1_555 1_555
C29 C30 1_555 1_555

#END
