
#######################################################################
#
#                 Cambridge Crystallographic Data Centre
#                                CCDC 
#
#######################################################################
#
# If this CIF has been generated from an entry in the Cambridge 
# Structural Database, then it will include bibliographic, chemical, 
# crystal, experimental, refinement or atomic coordinate data resulting 
# from the CCDC's data processing and validation procedures.
#
#######################################################################

data_ZUMDAO
_chemical_formula_moiety         'C36 H36 F6 N4 O2,2(C1 H1 Cl3)'
_chemical_name_systematic        
"3,3'-bis(2-(trifluoromethyl)octahydro-1H-benzimidazol-2-yl)-1,1'-binaphthalene-2,2'-diol chloroform solvate"
_symmetry_cell_setting           monoclinic
_symmetry_space_group_name_H-M   'C 2'
_symmetry_Int_Tables_number      5
_space_group_name_Hall           'C 2y'
loop_
_symmetry_equiv_pos_site_id
_symmetry_equiv_pos_as_xyz
1 x,y,z
2 -x,y,-z
3 1/2+x,1/2+y,z
4 1/2-x,1/2+y,-z
_cell_length_a                   18.621(6)
_cell_length_b                   9.489(3)
_cell_length_c                   11.431(3)
_cell_angle_alpha                90
_cell_angle_beta                 96.732(8)
_cell_angle_gamma                90
_cell_volume                     2005.87
_exptl_crystal_colour            colorless
_exptl_crystal_description       plate
_cell_formula_units_Z            2
loop_
_atom_site_label
_atom_site_type_symbol
_atom_site_fract_x
_atom_site_fract_y
_atom_site_fract_z
Cl1 Cl 0.87687(13) 0.1822(3) 0.31622(17)
Cl2 Cl 0.93602(11) 0.0577(3) 0.1179(2)
Cl3 Cl 0.78598(9) 0.1347(3) 0.09458(18)
C1 C 0.8734(3) 0.1791(9) 0.1629(6)
H1 H 0.8860 0.2750 0.1355
F1 F 0.7808(2) 0.4545(6) 0.6823(5)
F2 F 0.8437(3) 0.4613(7) 0.5362(4)
F3 F 0.7683(2) 0.2930(7) 0.5479(4)
O1 O 0.8916(3) 0.3380(5) 0.9421(4)
H2 H 0.8658 0.2800 0.9006
N1 N 0.9079(3) 0.1907(8) 0.6020(4)
H3 H 0.9382 0.2146 0.5518
N2 N 0.8373(3) 0.1942(6) 0.7626(4)
H4 H 0.8038 0.2190 0.8069
C2 C 0.9955(3) 0.4776(6) 0.9334(4)
C3 C 0.9392(3) 0.3984(6) 0.8764(5)
C4 C 0.9323(3) 0.3792(6) 0.7508(5)
C5 C 0.9811(3) 0.4489(7) 0.6879(5)
H5 H 0.9777 0.4361 0.6050
C6 C 1.0356(3) 0.5378(6) 0.7430(5)
C7 C 1.0812(3) 0.6186(8) 0.6772(5)
H6 H 1.0756 0.6110 0.5938
C8 C 1.1331(3) 0.7076(7) 0.7318(6)
H7 H 1.1626 0.7619 0.6865
C9 C 1.1419(3) 0.7168(8) 0.8558(6)
H8 H 1.1783 0.7771 0.8935
C10 C 1.0998(3) 0.6418(7) 0.9229(5)
H9 H 1.1077 0.6489 1.0063
C11 C 1.0434(3) 0.5519(6) 0.8684(5)
C12 C 0.8755(3) 0.2861(7) 0.6836(5)
C13 C 0.8800(3) 0.0482(9) 0.6207(6)
H10 H 0.8318 0.0385 0.5728
C14 C 0.8684(3) 0.0517(8) 0.7497(5)
H11 H 0.9171 0.0494 0.7972
C15 C 0.8262(4) -0.0769(8) 0.7835(7)
H12 H 0.7779 -0.0796 0.7370
H13 H 0.8197 -0.0734 0.8682
C16 C 0.8705(4) -0.2080(9) 0.7571(7)
H14 H 0.9160 -0.2093 0.8115
H15 H 0.8427 -0.2936 0.7725
C17 C 0.8888(4) -0.2122(9) 0.6307(7)
H16 H 0.8438 -0.2272 0.5769
H17 H 0.9212 -0.2933 0.6217
C18 C 0.9258(4) -0.0757(10) 0.5946(7)
H18 H 0.9745 -0.0673 0.6392
H19 H 0.9313 -0.0784 0.5095
C19 C 0.8171(4) 0.3762(9) 0.6116(6)
F1A F 1.2192(2) 0.4545(6) 1.3177(5)
F2A F 1.1563(3) 0.4613(7) 1.4638(4)
F3A F 1.2317(2) 0.2930(7) 1.4521(4)
O1A O 1.1084(3) 0.3380(5) 1.0579(4)
H2A H 1.1342 0.2800 1.0994
N1A N 1.0921(3) 0.1907(8) 1.3980(4)
H3A H 1.0618 0.2146 1.4482
N2A N 1.1627(3) 0.1942(6) 1.2374(4)
H4A H 1.1962 0.2190 1.1931
C2A C 1.0045(3) 0.4776(6) 1.0666(4)
C3A C 1.0608(3) 0.3984(6) 1.1236(5)
C4A C 1.0677(3) 0.3792(6) 1.2492(5)
C5A C 1.0189(3) 0.4489(7) 1.3121(5)
H5A H 1.0223 0.4361 1.3950
C6A C 0.9644(3) 0.5378(6) 1.2570(5)
C7A C 0.9188(3) 0.6186(8) 1.3228(5)
H6A H 0.9244 0.6110 1.4062
C8A C 0.8669(3) 0.7076(7) 1.2682(6)
H7A H 0.8374 0.7619 1.3135
C9A C 0.8581(3) 0.7168(8) 1.1442(6)
H8A H 0.8217 0.7771 1.1065
C10A C 0.9002(3) 0.6418(7) 1.0771(5)
H9A H 0.8923 0.6489 0.9937
C11A C 0.9566(3) 0.5519(6) 1.1316(5)
C12A C 1.1245(3) 0.2861(7) 1.3164(5)
C13A C 1.1200(3) 0.0482(9) 1.3793(6)
H10A H 1.1682 0.0385 1.4272
C14A C 1.1316(3) 0.0517(8) 1.2503(5)
H11A H 1.0829 0.0494 1.2028
C15A C 1.1738(4) -0.0769(8) 1.2165(7)
H12A H 1.2221 -0.0796 1.2630
H13A H 1.1803 -0.0734 1.1318
C16A C 1.1295(4) -0.2080(9) 1.2429(7)
H14A H 1.0840 -0.2093 1.1885
H15A H 1.1573 -0.2936 1.2275
C17A C 1.1112(4) -0.2122(9) 1.3693(7)
H16A H 1.1562 -0.2272 1.4231
H17A H 1.0788 -0.2933 1.3783
C18A C 1.0742(4) -0.0757(10) 1.4054(7)
H18A H 1.0255 -0.0673 1.3608
H19A H 1.0687 -0.0784 1.4905
C19A C 1.1829(4) 0.3762(9) 1.3884(6)
loop_
_geom_bond_atom_site_label_1
_geom_bond_atom_site_label_2
_geom_bond_site_symmetry_1
_geom_bond_site_symmetry_2
Cl1 C1 1_555 1_555
Cl2 C1 1_555 1_555
Cl3 C1 1_555 1_555
C1 H1 1_555 1_555
F1 C19 1_555 1_555
F2 C19 1_555 1_555
F3 C19 1_555 1_555
O1 H2 1_555 1_555
N1 H3 1_555 1_555
N2 H4 1_555 1_555
C2 C3 1_555 1_555
C3 O1 1_555 1_555
C4 C3 1_555 1_555
C5 C4 1_555 1_555
H5 C5 1_555 1_555
C6 C5 1_555 1_555
C7 C6 1_555 1_555
H6 C7 1_555 1_555
C8 C7 1_555 1_555
H7 C8 1_555 1_555
C9 C8 1_555 1_555
H8 C9 1_555 1_555
C10 C9 1_555 1_555
H9 C10 1_555 1_555
C11 C2 1_555 1_555
C12 N1 1_555 1_555
C13 N1 1_555 1_555
H10 C13 1_555 1_555
C14 N2 1_555 1_555
H11 C14 1_555 1_555
C15 C14 1_555 1_555
H12 C15 1_555 1_555
H13 C15 1_555 1_555
C16 C15 1_555 1_555
H14 C16 1_555 1_555
H15 C16 1_555 1_555
C17 C16 1_555 1_555
H16 C17 1_555 1_555
H17 C17 1_555 1_555
C18 C13 1_555 1_555
H18 C18 1_555 1_555
H19 C18 1_555 1_555
C19 C12 1_555 1_555
F1A C19A 1_555 1_555
F2A C19A 1_555 1_555
F3A C19A 1_555 1_555
O1A H2A 1_555 1_555
N1A H3A 1_555 1_555
N2A H4A 1_555 1_555
C2A C2 1_555 1_555
C3A O1A 1_555 1_555
C4A C3A 1_555 1_555
C5A C4A 1_555 1_555
H5A C5A 1_555 1_555
C6A C5A 1_555 1_555
C7A C6A 1_555 1_555
H6A C7A 1_555 1_555
C8A C7A 1_555 1_555
H7A C8A 1_555 1_555
C9A C8A 1_555 1_555
H8A C9A 1_555 1_555
C10A C9A 1_555 1_555
H9A C10A 1_555 1_555
C11A C2A 1_555 1_555
C12A N1A 1_555 1_555
C13A N1A 1_555 1_555
H10A C13A 1_555 1_555
C14A N2A 1_555 1_555
H11A C14A 1_555 1_555
C15A C14A 1_555 1_555
H12A C15A 1_555 1_555
H13A C15A 1_555 1_555
C16A C15A 1_555 1_555
H14A C16A 1_555 1_555
H15A C16A 1_555 1_555
C17A C16A 1_555 1_555
H16A C17A 1_555 1_555
H17A C17A 1_555 1_555
C18A C13A 1_555 1_555
H18A C18A 1_555 1_555
H19A C18A 1_555 1_555
C19A C12A 1_555 1_555
N2 C12 1_555 1_555
C4 C12 1_555 1_555
C6 C11 1_555 1_555
C10 C11 1_555 1_555
C13 C14 1_555 1_555
C17 C18 1_555 1_555
N2A C12A 1_555 1_555
C2A C3A 1_555 1_555
C4A C12A 1_555 1_555
C6A C11A 1_555 1_555
C10A C11A 1_555 1_555
C13A C14A 1_555 1_555
C17A C18A 1_555 1_555

#END
