
#######################################################################
#
#                 Cambridge Crystallographic Data Centre
#                                CCDC 
#
#######################################################################
#
# If this CIF has been generated from an entry in the Cambridge 
# Structural Database, then it will include bibliographic, chemical, 
# crystal, experimental, refinement or atomic coordinate data resulting 
# from the CCDC's data processing and validation procedures.
#
#######################################################################

data_ZUMDES
_chemical_formula_moiety         'C23 H19 N3 O2'
_chemical_name_systematic        
10,11-dimethyl-1,8-diphenyl-4,10,11-triazatricyclo[6.2.2.0^2,7^]dodeca-2,4,6-triene-9,12-dione
_symmetry_cell_setting           monoclinic
_symmetry_space_group_name_H-M   'P 21/c'
_symmetry_Int_Tables_number      14
_space_group_name_Hall           '-P 2ybc'
loop_
_symmetry_equiv_pos_site_id
_symmetry_equiv_pos_as_xyz
1 x,y,z
2 -x,1/2+y,1/2-z
3 -x,-y,-z
4 x,1/2-y,1/2+z
_cell_length_a                   11.3009(2)
_cell_length_b                   7.81000(10)
_cell_length_c                   20.9263(3)
_cell_angle_alpha                90
_cell_angle_beta                 98.7660(10)
_cell_angle_gamma                90
_cell_volume                     1825.38
_exptl_crystal_colour            colorless
_exptl_crystal_description       plate
_cell_formula_units_Z            4
loop_
_atom_site_label
_atom_site_type_symbol
_atom_site_fract_x
_atom_site_fract_y
_atom_site_fract_z
C1 C 0.25935(11) 0.40014(16) 0.02588(6)
C2 C 0.23971(12) 0.70351(17) 0.04586(6)
C3 C 0.34379(11) 0.38325(16) 0.09026(6)
C4 C 0.32085(11) 0.50789(16) 0.13448(6)
N1 N 0.49324(12) 0.25765(19) 0.17001(7)
C5 C 0.11016(11) 0.49788(17) 0.08786(6)
C6 C 0.38875(13) 0.51168(19) 0.19490(7)
H1 H 0.3779(16) 0.594(3) 0.2254(10)
C7 C 0.42738(13) 0.25826(19) 0.11070(7)
H2 H 0.4363(16) 0.160(3) 0.0829(9)
C8 C 0.21493(11) 0.62606(16) 0.11046(6)
C9 C 0.18957(12) 0.75256(17) 0.16219(6)
C10 C 0.28382(13) 0.28348(18) -0.02876(6)
C11 C 0.27269(16) 0.6303(2) -0.06215(7)
H3 H 0.339(2) 0.576(3) -0.0748(12)
H4 H 0.192(2) 0.603(4) -0.0925(13)
H5 H 0.282(2) 0.750(4) -0.0631(11)
C12 C 0.23614(15) 0.9176(2) 0.16556(8)
H6 H 0.2811(19) 0.952(3) 0.1313(11)
C13 C 0.19265(16) 0.2213(2) -0.07464(7)
H7 H 0.1072(19) 0.245(3) -0.0704(10)
C14 C 0.12986(18) 0.6990(2) 0.21208(8)
H8 H 0.096(2) 0.583(3) 0.2107(11)
C15 C 0.47457(14) 0.3846(2) 0.20971(8)
H9 H 0.531(2) 0.383(3) 0.2525(12)
C16 C 0.15530(18) 0.9742(3) 0.26333(9)
H10 H 0.142(2) 1.054(3) 0.2965(12)
C17 C 0.40236(16) 0.2551(2) -0.03734(8)
H11 H 0.4702(19) 0.307(3) -0.0078(11)
C18 C 0.07850(15) 0.2131(2) 0.04565(9)
H12 H 0.1312(19) 0.119(3) 0.0367(11)
H13 H 0.053(2) 0.197(3) 0.0929(13)
H14 H 0.007(2) 0.205(4) 0.0124(13)
C19 C 0.1122(2) 0.8085(3) 0.26185(9)
H15 H 0.067(2) 0.770(4) 0.2955(13)
C20 C 0.2194(2) 0.1224(2) -0.12579(9)
H16 H 0.153(2) 0.084(3) -0.1553(12)
C21 C 0.2180(2) 1.0272(2) 0.21549(9)
H17 H 0.248(2) 1.141(4) 0.2173(14)
C22 C 0.4273(2) 0.1580(3) -0.08922(10)
H18 H 0.517(2) 0.133(4) -0.0989(13)
C23 C 0.3365(2) 0.0890(3) -0.13247(10)
H19 H 0.348(2) 0.023(4) -0.1673(14)
N2 N 0.26802(10) 0.58138(15) 0.00497(5)
N3 N 0.13741(9) 0.38044(14) 0.04389(5)
O1 O 0.23136(13) 0.85469(14) 0.03214(5)
O2 O 0.01620(9) 0.49707(16) 0.10929(6)
loop_
_geom_bond_atom_site_label_1
_geom_bond_atom_site_label_2
_geom_bond_site_symmetry_1
_geom_bond_site_symmetry_2
C1 C3 1_555 1_555
C2 C8 1_555 1_555
C3 C4 1_555 1_555
C4 C6 1_555 1_555
N1 C7 1_555 1_555
C5 C8 1_555 1_555
C6 H1 1_555 1_555
C7 C3 1_555 1_555
H2 C7 1_555 1_555
C8 C4 1_555 1_555
C9 C8 1_555 1_555
C10 C1 1_555 1_555
C11 H3 1_555 1_555
H4 C11 1_555 1_555
H5 C11 1_555 1_555
C12 C9 1_555 1_555
H6 C12 1_555 1_555
C13 C10 1_555 1_555
H7 C13 1_555 1_555
C14 C9 1_555 1_555
H8 C14 1_555 1_555
C15 N1 1_555 1_555
H9 C15 1_555 1_555
C16 H10 1_555 1_555
C17 C10 1_555 1_555
H11 C17 1_555 1_555
C18 H12 1_555 1_555
H13 C18 1_555 1_555
H14 C18 1_555 1_555
C19 C14 1_555 1_555
H15 C19 1_555 1_555
C20 C13 1_555 1_555
H16 C20 1_555 1_555
C21 C12 1_555 1_555
H17 C21 1_555 1_555
C22 C17 1_555 1_555
H18 C22 1_555 1_555
C23 C20 1_555 1_555
H19 C23 1_555 1_555
N2 C1 1_555 1_555
N3 C1 1_555 1_555
O1 C2 1_555 1_555
O2 C5 1_555 1_555
C2 N2 1_555 1_555
C5 N3 1_555 1_555
C6 C15 1_555 1_555
C11 N2 1_555 1_555
C16 C19 1_555 1_555
C16 C21 1_555 1_555
C18 N3 1_555 1_555
C22 C23 1_555 1_555

#END
