
#######################################################################
#
#                 Cambridge Crystallographic Data Centre
#                                CCDC 
#
#######################################################################
#
# If this CIF has been generated from an entry in the Cambridge 
# Structural Database, then it will include bibliographic, chemical, 
# crystal, experimental, refinement or atomic coordinate data resulting 
# from the CCDC's data processing and validation procedures.
#
#######################################################################

data_ZUMHUM
_chemical_formula_moiety         'C17 H31 N3 O5'
_chemical_name_systematic        
N-Isobutyl-1-(((2-((isobutyrylamino)oxy)-3-methylbutanoyl)amino)oxy)cyclopropanecarboxamide
_symmetry_cell_setting           orthorhombic
_symmetry_space_group_name_H-M   'P 21 21 21'
_symmetry_Int_Tables_number      19
_space_group_name_Hall           'P 2ac 2ab'
loop_
_symmetry_equiv_pos_site_id
_symmetry_equiv_pos_as_xyz
1 x,y,z
2 1/2-x,-y,1/2+z
3 -x,1/2+y,1/2-z
4 1/2+x,1/2-y,-z
_cell_length_a                   8.869(2)
_cell_length_b                   12.673(3)
_cell_length_c                   18.561(5)
_cell_angle_alpha                90
_cell_angle_beta                 90
_cell_angle_gamma                90
_cell_volume                     2086.2
_cell_formula_units_Z            4
loop_
_atom_site_label
_atom_site_type_symbol
_atom_site_fract_x
_atom_site_fract_y
_atom_site_fract_z
N1 N 0.6679(2) 0.52426(17) 0.33842(11)
N2 N 0.74047(19) 0.47548(14) 0.17083(9)
N3 N 1.03011(18) 0.35730(15) 0.12760(9)
O1 O 0.7943(2) 0.67630(14) 0.35405(9)
O2 O 0.64297(14) 0.55632(12) 0.19369(9)
O3 O 0.6139(2) 0.35560(14) 0.23740(10)
O4 O 0.89095(14) 0.32823(11) 0.09737(7)
O5 O 0.99742(15) 0.52324(11) 0.08844(8)
C1 C 0.7740(6) 0.3447(3) 0.49385(16)
H1 H 0.8269 0.2787 0.4954
H2 H 0.6724 0.3347 0.5104
H3 H 0.8241 0.3948 0.5243
C2 C 0.7716(4) 0.3849(2) 0.41863(15)
H4 H 0.7202 0.3317 0.3893
C3 C 0.6812(3) 0.4863(2) 0.41209(13)
H5 H 0.5809 0.4745 0.4314
H6 H 0.7290 0.5405 0.4411
C4 C 0.7303(2) 0.61232(17) 0.31466(12)
C5 C 0.7164(2) 0.63355(17) 0.23591(12)
C6 C 0.8324(3) 0.70041(18) 0.19959(14)
H7 H 0.9143 0.7278 0.2288
H8 H 0.8598 0.6827 0.1504
C7 C 0.6796(3) 0.7428(2) 0.21249(16)
H9 H 0.6136 0.7511 0.1712
H10 H 0.6680 0.7961 0.2495
C8 C 0.7062(2) 0.37715(17) 0.19054(11)
C9 C 0.7886(2) 0.29018(16) 0.15164(10)
H11 H 0.8455 0.2486 0.1869
C10 C 0.6757(2) 0.21849(17) 0.11421(11)
H12 H 0.6029 0.1956 0.1507
C11 C 0.5878(3) 0.2760(2) 0.05594(15)
H13 H 0.6555 0.2975 0.0183
H14 H 0.5401 0.3371 0.0763
H15 H 0.5124 0.2298 0.0364
C12 C 0.7518(3) 0.12025(19) 0.08520(16)
H16 H 0.6770 0.0734 0.0659
H17 H 0.8052 0.0855 0.1235
H18 H 0.8215 0.1396 0.0479
C13 C 1.0780(2) 0.45588(16) 0.11465(10)
C14 C 1.2367(2) 0.47832(17) 0.14019(10)
H19 H 1.2908 0.4112 0.1442
C15 C 1.3180(3) 0.5467(2) 0.08666(14)
H20 H 1.3244 0.5106 0.0413
H21 H 1.4177 0.5616 0.1040
H22 H 1.2637 0.6117 0.0805
C16 C 1.2294(3) 0.5279(3) 0.21319(14)
H23 H 1.1931 0.5990 0.2089
H24 H 1.3282 0.5284 0.2343
H25 H 1.1621 0.4881 0.2433
C17 C 0.9238(5) 0.3953(5) 0.3904(3)
H26 H 0.9815 0.4406 0.4214
H27 H 0.9200 0.4251 0.3429
H28 H 0.9705 0.3270 0.3884
H29 H 1.091(2) 0.3055(17) 0.1357(10)
H30 H 0.624(2) 0.4827(18) 0.3044(12)
H31 H 0.7990(19) 0.4929(13) 0.1338(9)
loop_
_geom_bond_atom_site_label_1
_geom_bond_atom_site_label_2
_geom_bond_site_symmetry_1
_geom_bond_site_symmetry_2
N1 C3 1_555 1_555
N2 O2 1_555 1_555
N3 O4 1_555 1_555
O1 C4 1_555 1_555
O2 C5 1_555 1_555
O3 C8 1_555 1_555
O4 C9 1_555 1_555
O5 C13 1_555 1_555
C1 H1 1_555 1_555
H2 C1 1_555 1_555
H3 C1 1_555 1_555
C2 C1 1_555 1_555
H4 C2 1_555 1_555
C3 C2 1_555 1_555
H5 C3 1_555 1_555
H6 C3 1_555 1_555
C4 N1 1_555 1_555
C5 C4 1_555 1_555
C6 C5 1_555 1_555
H7 C6 1_555 1_555
H8 C6 1_555 1_555
C7 C5 1_555 1_555
H9 C7 1_555 1_555
H10 C7 1_555 1_555
C8 N2 1_555 1_555
C9 C8 1_555 1_555
H11 C9 1_555 1_555
C10 C9 1_555 1_555
H12 C10 1_555 1_555
C11 C10 1_555 1_555
H13 C11 1_555 1_555
H14 C11 1_555 1_555
H15 C11 1_555 1_555
C12 C10 1_555 1_555
H16 C12 1_555 1_555
H17 C12 1_555 1_555
H18 C12 1_555 1_555
C13 N3 1_555 1_555
C14 C13 1_555 1_555
H19 C14 1_555 1_555
C15 C14 1_555 1_555
H20 C15 1_555 1_555
H21 C15 1_555 1_555
H22 C15 1_555 1_555
C16 C14 1_555 1_555
H23 C16 1_555 1_555
H24 C16 1_555 1_555
H25 C16 1_555 1_555
C17 C2 1_555 1_555
H26 C17 1_555 1_555
H27 C17 1_555 1_555
H28 C17 1_555 1_555
H29 N3 1_555 1_555
H30 N1 1_555 1_555
H31 N2 1_555 1_555
C6 C7 1_555 1_555

#END
