
#######################################################################
#
#                 Cambridge Crystallographic Data Centre
#                                CCDC 
#
#######################################################################
#
# If this CIF has been generated from an entry in the Cambridge 
# Structural Database, then it will include bibliographic, chemical, 
# crystal, experimental, refinement or atomic coordinate data resulting 
# from the CCDC's data processing and validation procedures.
#
#######################################################################

data_ZUMJAU
_chemical_formula_moiety         'C22 H40 N4 O7'
_chemical_name_systematic        
N-((1-(Isobutylamino)-3-methyl-1-oxobutan-2-yl)oxy)-1-(((2-((isobutyrylamino)oxy)-3-methylbutanoyl)amino)oxy)cyclopropanecarboxamide
_symmetry_cell_setting           tetragonal
_symmetry_space_group_name_H-M   'P 41 21 2'
_symmetry_Int_Tables_number      92
_space_group_name_Hall           'P 4abw 2nw'
loop_
_symmetry_equiv_pos_site_id
_symmetry_equiv_pos_as_xyz
1 x,y,z
2 -x,-y,1/2+z
3 1/2-y,1/2+x,1/4+z
4 1/2+y,1/2-x,3/4+z
5 1/2-x,1/2+y,1/4-z
6 1/2+x,1/2-y,3/4-z
7 y,x,-z
8 -y,-x,1/2-z
_cell_length_a                   9.2000(19)
_cell_length_b                   9.200(3)
_cell_length_c                   64.15(2)
_cell_angle_alpha                90
_cell_angle_beta                 90
_cell_angle_gamma                90
_cell_volume                     5429.66
_exptl_crystal_colour            colorless
_exptl_crystal_description       prismatic
_cell_formula_units_Z            8
loop_
_atom_site_label
_atom_site_type_symbol
_atom_site_fract_x
_atom_site_fract_y
_atom_site_fract_z
C1 C 0.9010(8) 1.2332(7) 0.01315(11)
H1 H 1.0038 1.2075 0.0116
C2 C 0.8154(9) 1.1329(9) 0.00040(14)
H2 H 0.8402 1.0346 0.0039
H3 H 0.8359 1.1498 -0.0141
H4 H 0.7138 1.1486 0.0030
C3 C 0.8817(9) 1.3894(7) 0.00613(12)
H5 H 0.8966 1.3956 -0.0087
H6 H 0.9512 1.4500 0.0131
H7 H 0.7852 1.4215 0.0095
C4 C 0.8612(7) 1.2249(7) 0.03670(11)
H8 H 0.9214 1.2925 0.0444
H9 H 0.7605 1.2531 0.0386
N1 N 0.8829(5) 1.0767(5) 0.04498(8)
H10 H 0.9614(13) 1.045(3) 0.0391(4)
C5 C 0.7784(8) 1.0080(7) 0.05346(9)
O1 O 0.6503(5) 1.0415(5) 0.05651(8)
C6 C 0.8140(6) 0.8515(7) 0.06028(9)
H11 H 0.8077 0.8480 0.0755
C7 C 0.7117(7) 0.7346(7) 0.05160(10)
H12 H 0.6137 0.7571 0.0566
C8 C 0.7064(7) 0.7375(7) 0.02812(10)
H13 H 0.8035 0.7334 0.0227
H14 H 0.6603 0.8256 0.0236
H15 H 0.6520 0.6554 0.0232
C9 C 0.7497(7) 0.5869(6) 0.05944(11)
H16 H 0.6674 0.5236 0.0579
H17 H 0.7763 0.5929 0.0739
H18 H 0.8299 0.5490 0.0516
O2 O 0.9616(4) 0.8134(4) 0.05452(6)
N2 N 1.0469(6) 0.7747(5) 0.07104(8)
H19 H 1.052(6) 0.6822(10) 0.0731(7)
C10 C 1.1649(7) 0.8638(6) 0.07664(10)
O3 O 1.1689(4) 0.9875(4) 0.06908(8)
C11 C 1.2519(6) 0.8050(6) 0.09313(10)
C12 C 1.3031(9) 0.9070(7) 0.10997(13)
H20 H 1.2649 1.0052 0.1098
H21 H 1.3179 0.8667 0.1238
C13 C 1.4076(6) 0.8686(8) 0.09398(12)
H22 H 1.4862 0.8036 0.0978
H23 H 1.4332 0.9425 0.0838
O4 O 1.2338(4) 0.6592(4) 0.09919(6)
N3 N 1.3044(5) 0.5615(5) 0.08559(8)
H24 H 1.3980(10) 0.566(6) 0.0847(8)
C14 C 1.2253(6) 0.4586(6) 0.07592(10)
O5 O 1.0922(4) 0.4741(4) 0.07446(7)
C15 C 1.3080(5) 0.3419(6) 0.06485(11)
H25 H 1.2836 0.2469 0.0708
C16 C 1.2720(8) 0.3426(8) 0.04103(10)
H26 H 1.1664 0.3328 0.0396
C17 C 1.3152(10) 0.4820(8) 0.03033(13)
H27 H 1.4191 0.4859 0.0291
H28 H 1.2820 0.5633 0.0384
H29 H 1.2720 0.4854 0.0167
C18 C 1.3417(10) 0.2035(7) 0.03170(12)
H30 H 1.2966 0.1815 0.0186
H31 H 1.3278 0.1237 0.0411
H32 H 1.4438 0.2193 0.0296
O6 O 1.4618(4) 0.3672(4) 0.06669(6)
N4 N 1.5296(5) 0.2680(5) 0.08009(8)
H33 H 1.541(5) 0.1868(12) 0.0735(3)
C19 C 1.5869(7) 0.3181(8) 0.09736(10)
O7 O 1.5603(4) 0.4408(5) 0.10430(6)
C20 C 1.6883(6) 0.2145(7) 0.10871(10)
H34 H 1.6705 0.1164 0.1033
C21 C 1.6572(10) 0.2134(11) 0.13099(11)
H35 H 1.6593 0.3112 0.1362
H36 H 1.7291 0.1563 0.1381
H37 H 1.5628 0.1722 0.1333
C22 C 1.8448(7) 0.2546(9) 0.10366(14)
H38 H 1.8723 0.3390 0.1115
H39 H 1.8534 0.2751 0.0890
H40 H 1.9076 0.1750 0.1072
loop_
_geom_bond_atom_site_label_1
_geom_bond_atom_site_label_2
_geom_bond_site_symmetry_1
_geom_bond_site_symmetry_2
C1 H1 1_555 1_555
C2 C1 1_555 1_555
H2 C2 1_555 1_555
H3 C2 1_555 1_555
H4 C2 1_555 1_555
C3 C1 1_555 1_555
H5 C3 1_555 1_555
H6 C3 1_555 1_555
H7 C3 1_555 1_555
C4 C1 1_555 1_555
H8 C4 1_555 1_555
H9 C4 1_555 1_555
N1 C4 1_555 1_555
H10 N1 1_555 1_555
C5 N1 1_555 1_555
O1 C5 1_555 1_555
C6 C5 1_555 1_555
H11 C6 1_555 1_555
C7 C6 1_555 1_555
H12 C7 1_555 1_555
C8 C7 1_555 1_555
H13 C8 1_555 1_555
H14 C8 1_555 1_555
H15 C8 1_555 1_555
C9 C7 1_555 1_555
H16 C9 1_555 1_555
H17 C9 1_555 1_555
H18 C9 1_555 1_555
O2 C6 1_555 1_555
N2 O2 1_555 1_555
H19 N2 1_555 1_555
C10 N2 1_555 1_555
O3 C10 1_555 1_555
C11 C10 1_555 1_555
C12 C11 1_555 1_555
H20 C12 1_555 1_555
H21 C12 1_555 1_555
C13 C11 1_555 1_555
H22 C13 1_555 1_555
H23 C13 1_555 1_555
O4 C11 1_555 1_555
N3 O4 1_555 1_555
H24 N3 1_555 1_555
C14 N3 1_555 1_555
O5 C14 1_555 1_555
C15 C14 1_555 1_555
H25 C15 1_555 1_555
C16 C15 1_555 1_555
H26 C16 1_555 1_555
C17 C16 1_555 1_555
H27 C17 1_555 1_555
H28 C17 1_555 1_555
H29 C17 1_555 1_555
C18 C16 1_555 1_555
H30 C18 1_555 1_555
H31 C18 1_555 1_555
H32 C18 1_555 1_555
O6 C15 1_555 1_555
N4 O6 1_555 1_555
H33 N4 1_555 1_555
C19 N4 1_555 1_555
O7 C19 1_555 1_555
C20 C19 1_555 1_555
H34 C20 1_555 1_555
C21 C20 1_555 1_555
H35 C21 1_555 1_555
H36 C21 1_555 1_555
H37 C21 1_555 1_555
C22 C20 1_555 1_555
H38 C22 1_555 1_555
H39 C22 1_555 1_555
H40 C22 1_555 1_555
C12 C13 1_555 1_555

#END
