
#######################################################################
#
#                 Cambridge Crystallographic Data Centre
#                                CCDC 
#
#######################################################################
#
# If this CIF has been generated from an entry in the Cambridge 
# Structural Database, then it will include bibliographic, chemical, 
# crystal, experimental, refinement or atomic coordinate data resulting 
# from the CCDC's data processing and validation procedures.
#
#######################################################################

data_ZUMQIJ
_chemical_formula_moiety         'C34 H44 O5 S1'
_chemical_name_systematic        
2,3-dibutoxy-9-(4-methoxyphenyl)-5,5-dimethyl-8-(phenylsulfonyl)-6,7,8,9-tetrahydro-5H-benzo[7]annulene
_symmetry_cell_setting           monoclinic
_symmetry_space_group_name_H-M   'P 21/n'
_symmetry_Int_Tables_number      14
_space_group_name_Hall           '-P 2yn'
loop_
_symmetry_equiv_pos_site_id
_symmetry_equiv_pos_as_xyz
1 x,y,z
2 1/2-x,1/2+y,1/2-z
3 -x,-y,-z
4 1/2+x,1/2-y,1/2+z
_cell_length_a                   10.3966(8)
_cell_length_b                   11.0245(10)
_cell_length_c                   26.053(2)
_cell_angle_alpha                90
_cell_angle_beta                 91.850(4)
_cell_angle_gamma                90
_cell_volume                     2984.57
_exptl_crystal_colour            colorless
_cell_formula_units_Z            4
loop_
_atom_site_label
_atom_site_type_symbol
_atom_site_fract_x
_atom_site_fract_y
_atom_site_fract_z
C1 C 0.13505(19) 0.73036(18) 0.48256(7)
H1 H 0.1347 0.6601 0.4583
C2 C -0.00074(19) 0.73867(19) 0.50254(7)
H2 H -0.0640 0.7364 0.4733
H3 H -0.0114 0.8165 0.5209
C3 C -0.02541(19) 0.63310(18) 0.53891(7)
H4 H 0.0354 0.5667 0.5316
H5 H -0.1137 0.6022 0.5320
C4 C -0.01086(19) 0.66671(19) 0.59571(7)
C5 C 0.11886(19) 0.72605(18) 0.60987(7)
C6 C 0.12919(19) 0.76714(18) 0.66112(7)
H6 H 0.0568 0.7576 0.6821
C7 C 0.23795(19) 0.82020(19) 0.68250(7)
C8 C 0.34659(19) 0.83170(19) 0.65265(7)
C9 C 0.33843(19) 0.79601(18) 0.60187(7)
H7 H 0.4113 0.8069 0.5813
C10 C 0.22558(19) 0.74378(17) 0.57918(7)
C11 C 0.24499(18) 0.70518(18) 0.52314(7)
H8 H 0.3190 0.7553 0.5117
C12 C -0.12277(19) 0.75258(19) 0.60829(7)
H9 H -0.1113 0.8303 0.5908
H10 H -0.1236 0.7660 0.6455
H11 H -0.2045 0.7160 0.5966
C13 C -0.0267(2) 0.54842(19) 0.62669(7)
H12 H -0.1115 0.5132 0.6187
H13 H -0.0190 0.5664 0.6635
H14 H 0.0405 0.4906 0.6176
C14 C 0.12642(19) 0.8915(2) 0.75483(7)
H15 H 0.0851 0.8142 0.7644
H16 H 0.0676 0.9353 0.7306
C15 C 0.1536(2) 0.9679(2) 0.80230(7)
H17 H 0.2150 1.0331 0.7940
H18 H 0.1942 0.9166 0.8295
C16 C 0.0306(2) 1.0246(2) 0.82247(8)
H19 H 0.0531 1.0722 0.8537
H20 H -0.0051 1.0816 0.7963
C17 C -0.0729(2) 0.9327(2) 0.83532(8)
H21 H -0.1027 0.8912 0.8039
H22 H -0.1454 0.9747 0.8506
H23 H -0.0372 0.8731 0.8598
C18 C 0.56412(19) 0.9062(2) 0.64831(8)
H24 H 0.5429 0.9612 0.6192
H25 H 0.5997 0.8299 0.6346
C19 C 0.66014(19) 0.9656(2) 0.68546(8)
H26 H 0.7417 0.9795 0.6677
H27 H 0.6786 0.9096 0.7145
C20 C 0.6128(2) 1.0855(2) 0.70642(8)
H28 H 0.6020 1.1440 0.6778
H29 H 0.5274 1.0730 0.7214
C21 C 0.7038(2) 1.1389(2) 0.74707(8)
H30 H 0.7131 1.0824 0.7760
H31 H 0.6690 1.2161 0.7592
H32 H 0.7881 1.1529 0.7323
C22 C 0.29027(18) 0.57351(19) 0.51787(7)
C23 C 0.28212(18) 0.48740(19) 0.55600(7)
H33 H 0.2487 0.5101 0.5881
C24 C 0.32156(18) 0.36769(19) 0.54873(7)
H34 H 0.3145 0.3098 0.5755
C25 C 0.37110(19) 0.33424(19) 0.50203(7)
C26 C 0.38346(18) 0.42020(19) 0.46365(7)
H35 H 0.4195 0.3980 0.4319
C27 C 0.34361(18) 0.53776(19) 0.47144(7)
H36 H 0.3524 0.5958 0.4448
C28 C 0.3878(2) 0.1262(2) 0.52705(9)
H37 H 0.4416 0.1407 0.5580
H38 H 0.4092 0.0470 0.5125
H39 H 0.2969 0.1272 0.5359
C29 C 0.0516(2) 0.85464(19) 0.39507(7)
C30 C 0.0701(2) 0.7769(2) 0.35391(7)
H40 H 0.1485 0.7334 0.3514
C31 C -0.0268(2) 0.7634(2) 0.31680(8)
H41 H -0.0155 0.7108 0.2884
C32 C -0.1411(2) 0.8276(2) 0.32131(8)
H42 H -0.2082 0.8181 0.2960
C33 C -0.1579(2) 0.9051(2) 0.36223(8)
H43 H -0.2362 0.9488 0.3647
C34 C -0.0619(2) 0.9195(2) 0.39952(8)
H44 H -0.0732 0.9727 0.4277
O1 O 0.29510(14) 0.84379(15) 0.42282(5)
O2 O 0.15121(15) 0.97011(14) 0.47502(5)
O3 O 0.45209(13) 0.88211(14) 0.67713(5)
O4 O 0.24669(13) 0.86795(14) 0.73116(5)
O5 O 0.41090(14) 0.21926(13) 0.49012(5)
S1 S 0.17141(5) 0.86201(5) 0.44507(2)
loop_
_geom_bond_atom_site_label_1
_geom_bond_atom_site_label_2
_geom_bond_site_symmetry_1
_geom_bond_site_symmetry_2
C1 H1 1_555 1_555
C2 C1 1_555 1_555
H2 C2 1_555 1_555
H3 C2 1_555 1_555
C3 C2 1_555 1_555
H4 C3 1_555 1_555
H5 C3 1_555 1_555
C4 C3 1_555 1_555
C5 C4 1_555 1_555
C6 C5 1_555 1_555
H6 C6 1_555 1_555
C7 C6 1_555 1_555
C8 C7 1_555 1_555
C9 C8 1_555 1_555
H7 C9 1_555 1_555
C10 C5 1_555 1_555
C11 C1 1_555 1_555
H8 C11 1_555 1_555
C12 C4 1_555 1_555
H9 C12 1_555 1_555
H10 C12 1_555 1_555
H11 C12 1_555 1_555
C13 C4 1_555 1_555
H12 C13 1_555 1_555
H13 C13 1_555 1_555
H14 C13 1_555 1_555
C14 H15 1_555 1_555
H16 C14 1_555 1_555
C15 C14 1_555 1_555
H17 C15 1_555 1_555
H18 C15 1_555 1_555
C16 C15 1_555 1_555
H19 C16 1_555 1_555
H20 C16 1_555 1_555
C17 C16 1_555 1_555
H21 C17 1_555 1_555
H22 C17 1_555 1_555
H23 C17 1_555 1_555
C18 H24 1_555 1_555
H25 C18 1_555 1_555
C19 C18 1_555 1_555
H26 C19 1_555 1_555
H27 C19 1_555 1_555
C20 C19 1_555 1_555
H28 C20 1_555 1_555
H29 C20 1_555 1_555
C21 C20 1_555 1_555
H30 C21 1_555 1_555
H31 C21 1_555 1_555
H32 C21 1_555 1_555
C22 C11 1_555 1_555
C23 C22 1_555 1_555
H33 C23 1_555 1_555
C24 C23 1_555 1_555
H34 C24 1_555 1_555
C25 C24 1_555 1_555
C26 C25 1_555 1_555
H35 C26 1_555 1_555
C27 C22 1_555 1_555
H36 C27 1_555 1_555
C28 H37 1_555 1_555
H38 C28 1_555 1_555
H39 C28 1_555 1_555
C29 C30 1_555 1_555
C30 H40 1_555 1_555
C31 C30 1_555 1_555
H41 C31 1_555 1_555
C32 C31 1_555 1_555
H42 C32 1_555 1_555
C33 C32 1_555 1_555
H43 C33 1_555 1_555
C34 C29 1_555 1_555
H44 C34 1_555 1_555
O1 S1 1_555 1_555
O2 S1 1_555 1_555
O3 C8 1_555 1_555
O4 C7 1_555 1_555
O5 C25 1_555 1_555
S1 C1 1_555 1_555
C9 C10 1_555 1_555
C10 C11 1_555 1_555
C14 O4 1_555 1_555
C18 O3 1_555 1_555
C26 C27 1_555 1_555
C28 O5 1_555 1_555
C29 S1 1_555 1_555
C33 C34 1_555 1_555

#END
