
#######################################################################
#
#                 Cambridge Crystallographic Data Centre
#                                CCDC 
#
#######################################################################
#
# If this CIF has been generated from an entry in the Cambridge 
# Structural Database, then it will include bibliographic, chemical, 
# crystal, experimental, refinement or atomic coordinate data resulting 
# from the CCDC's data processing and validation procedures.
#
#######################################################################

data_ZUNCIW
_chemical_formula_moiety         'C48 H30 N4'
_chemical_name_systematic        
2,2'-(1,3-Phenylene)bis(1-phenyl-1H-phenanthro[9,10-d]imidazole)
_symmetry_cell_setting           orthorhombic
_symmetry_space_group_name_H-M   'P b c n'
_symmetry_Int_Tables_number      60
_space_group_name_Hall           '-P 2n 2ab'
loop_
_symmetry_equiv_pos_site_id
_symmetry_equiv_pos_as_xyz
1 x,y,z
2 1/2-x,1/2-y,1/2+z
3 -x,y,1/2-z
4 1/2+x,1/2-y,-z
5 -x,-y,-z
6 1/2+x,1/2+y,1/2-z
7 x,-y,1/2+z
8 1/2-x,1/2+y,z
_cell_length_a                   24.996(5)
_cell_length_b                   9.4441(19)
_cell_length_c                   14.619(3)
_cell_angle_alpha                90
_cell_angle_beta                 90
_cell_angle_gamma                90
_cell_volume                     3451.03
_exptl_crystal_description       block
_cell_formula_units_Z            4
loop_
_atom_site_label
_atom_site_type_symbol
_atom_site_fract_x
_atom_site_fract_y
_atom_site_fract_z
N1 N 0.40909(4) 1.04196(12) 0.44880(8)
C1 C 0.34883(6) 0.70819(16) 0.39627(10)
N2 N 0.41222(5) 0.88736(14) 0.33243(8)
C2 C 0.5000 1.0293(2) 0.2500
H1 H 0.5000 0.9308 0.2500
C3 C 0.37927(6) 0.83619(16) 0.40029(10)
C4 C 0.31114(6) 0.77696(17) 0.54799(10)
C5 C 0.34529(6) 0.89870(16) 0.55365(10)
C6 C 0.37658(5) 0.92817(15) 0.47321(10)
C7 C 0.41883(6) 1.17004(15) 0.49973(9)
C8 C 0.5000 1.3200(2) 0.2500
H2 H 0.5000 1.4184 0.2500
C9 C 0.46511(6) 1.10074(16) 0.30798(10)
C10 C 0.31230(6) 0.68286(16) 0.46829(11)
C11 C 0.46492(7) 1.24836(17) 0.30678(10)
H3 H 0.4414 1.2984 0.3439
C12 C 0.42907(5) 1.01101(16) 0.36268(9)
C13 C 0.34679(6) 0.97768(18) 0.63511(10)
H4 H 0.3704 1.0534 0.6403
C14 C 0.27759(7) 0.7496(2) 0.62341(13)
H5 H 0.2541 0.6734 0.6207
C15 C 0.37775(7) 1.26410(18) 0.51359(11)
H6 H 0.3436 1.2441 0.4921
C16 C 0.27856(7) 0.8318(2) 0.70057(13)
H7 H 0.2554 0.8119 0.7487
C17 C 0.35383(7) 0.61225(18) 0.32389(12)
H8 H 0.3786 0.6291 0.2777
C18 C 0.27952(7) 0.56171(19) 0.46071(13)
H9 H 0.2540 0.5440 0.5056
C19 C 0.31377(7) 0.9444(2) 0.70732(12)
H10 H 0.3151 0.9977 0.7608
C20 C 0.46938(7) 1.19931(18) 0.53203(11)
H11 H 0.4970 1.1346 0.5235
C21 C 0.28444(8) 0.4700(2) 0.38910(13)
H12 H 0.2622 0.3912 0.3859
C22 C 0.32225(8) 0.4929(2) 0.32076(13)
H13 H 0.3261 0.4281 0.2733
C23 C 0.38774(9) 1.3889(2) 0.55993(12)
H14 H 0.3600 1.4524 0.5705
C24 C 0.43785(10) 1.4196(2) 0.59007(14)
H15 H 0.4444 1.5051 0.6196
C25 C 0.47878(9) 1.3252(2) 0.57708(14)
H16 H 0.5129 1.3460 0.5986
N1B N 0.59091(4) 1.04196(12) 0.05120(8)
C1B C 0.65117(6) 0.70819(16) 0.10373(10)
N2B N 0.58778(5) 0.88736(14) 0.16757(8)
C3B C 0.62073(6) 0.83619(16) 0.09971(10)
C4B C 0.68886(6) 0.77696(17) -0.04799(10)
C5B C 0.65471(6) 0.89870(16) -0.05365(10)
C6B C 0.62342(5) 0.92817(15) 0.02679(10)
C7B C 0.58117(6) 1.17004(15) 0.00027(9)
C9B C 0.53489(6) 1.10074(16) 0.19202(10)
C10B C 0.68770(6) 0.68286(16) 0.03171(11)
C11B C 0.53508(7) 1.24836(17) 0.19322(10)
H3B H 0.5586 1.2984 0.1561
C12B C 0.57093(5) 1.01101(16) 0.13732(9)
C13B C 0.65321(6) 0.97768(18) -0.13511(10)
H4B H 0.6296 1.0534 -0.1403
C14B C 0.72241(7) 0.7496(2) -0.12341(13)
H5B H 0.7459 0.6734 -0.1207
C15B C 0.62225(7) 1.26410(18) -0.01359(11)
H6B H 0.6564 1.2441 0.0079
C16B C 0.72144(7) 0.8318(2) -0.20057(13)
H7B H 0.7446 0.8119 -0.2487
C17B C 0.64617(7) 0.61225(18) 0.17611(12)
H8B H 0.6214 0.6291 0.2223
C18B C 0.72048(7) 0.56171(19) 0.03929(13)
H9B H 0.7460 0.5440 -0.0056
C19B C 0.68623(7) 0.9444(2) -0.20732(12)
H10B H 0.6849 0.9977 -0.2608
C20B C 0.53062(7) 1.19931(18) -0.03203(11)
H11B H 0.5030 1.1346 -0.0235
C21B C 0.71556(8) 0.4700(2) 0.11090(13)
H12B H 0.7378 0.3912 0.1141
C22B C 0.67775(8) 0.4929(2) 0.17924(13)
H13B H 0.6739 0.4281 0.2267
C23B C 0.61226(9) 1.3889(2) -0.05993(12)
H14B H 0.6400 1.4524 -0.0705
C24B C 0.56215(10) 1.4196(2) -0.09007(14)
H15B H 0.5556 1.5051 -0.1196
C25B C 0.52122(9) 1.3252(2) -0.07708(14)
H16B H 0.4871 1.3460 -0.0986
loop_
_geom_bond_atom_site_label_1
_geom_bond_atom_site_label_2
_geom_bond_site_symmetry_1
_geom_bond_site_symmetry_2
N1 C6 1_555 1_555
C1 C3 1_555 1_555
N2 C3 1_555 1_555
C2 H1 1_555 1_555
C3 C6 1_555 1_555
C4 C5 1_555 1_555
C5 C6 1_555 1_555
C7 N1 1_555 1_555
C8 H2 1_555 1_555
C9 C2 1_555 1_555
C10 C1 1_555 1_555
C11 C8 1_555 1_555
H3 C11 1_555 1_555
C12 N1 1_555 1_555
C13 C5 1_555 1_555
H4 C13 1_555 1_555
C14 C4 1_555 1_555
H5 C14 1_555 1_555
C15 C7 1_555 1_555
H6 C15 1_555 1_555
C16 C14 1_555 1_555
H7 C16 1_555 1_555
C17 C1 1_555 1_555
H8 C17 1_555 1_555
C18 C10 1_555 1_555
H9 C18 1_555 1_555
C19 C13 1_555 1_555
H10 C19 1_555 1_555
C20 C7 1_555 1_555
H11 C20 1_555 1_555
C21 C18 1_555 1_555
H12 C21 1_555 1_555
C22 C17 1_555 1_555
H13 C22 1_555 1_555
C23 C15 1_555 1_555
H14 C23 1_555 1_555
C24 C23 1_555 1_555
H15 C24 1_555 1_555
C25 C20 1_555 1_555
H16 C25 1_555 1_555
N1B C6B 1_555 1_555
C1B C3B 1_555 1_555
N2B C3B 1_555 1_555
C3B C6B 1_555 1_555
C4B C5B 1_555 1_555
C5B C6B 1_555 1_555
C7B N1B 1_555 1_555
C9B C2 1_555 1_555
C10B C1B 1_555 1_555
C11B C8 1_555 1_555
H3B C11B 1_555 1_555
C12B N1B 1_555 1_555
C13B C5B 1_555 1_555
H4B C13B 1_555 1_555
C14B C4B 1_555 1_555
H5B C14B 1_555 1_555
C15B C7B 1_555 1_555
H6B C15B 1_555 1_555
C16B C14B 1_555 1_555
H7B C16B 1_555 1_555
C17B C1B 1_555 1_555
H8B C17B 1_555 1_555
C18B C10B 1_555 1_555
H9B C18B 1_555 1_555
C19B C13B 1_555 1_555
H10B C19B 1_555 1_555
C20B C7B 1_555 1_555
H11B C20B 1_555 1_555
C21B C18B 1_555 1_555
H12B C21B 1_555 1_555
C22B C17B 1_555 1_555
H13B C22B 1_555 1_555
C23B C15B 1_555 1_555
H14B C23B 1_555 1_555
C24B C23B 1_555 1_555
H15B C24B 1_555 1_555
C25B C20B 1_555 1_555
H16B C25B 1_555 1_555
N2 C12 1_555 1_555
C4 C10 1_555 1_555
C9 C11 1_555 1_555
C9 C12 1_555 1_555
C16 C19 1_555 1_555
C21 C22 1_555 1_555
C24 C25 1_555 1_555
N2B C12B 1_555 1_555
C4B C10B 1_555 1_555
C9B C11B 1_555 1_555
C9B C12B 1_555 1_555
C16B C19B 1_555 1_555
C21B C22B 1_555 1_555
C24B C25B 1_555 1_555

#END
