
#######################################################################
#
#                 Cambridge Crystallographic Data Centre
#                                CCDC 
#
#######################################################################
#
# If this CIF has been generated from an entry in the Cambridge 
# Structural Database, then it will include bibliographic, chemical, 
# crystal, experimental, refinement or atomic coordinate data resulting 
# from the CCDC's data processing and validation procedures.
#
#######################################################################

data_ZUNHIB
_chemical_name_common            'Baicalein hemihydrate'
_chemical_formula_moiety         'C15 H10 O5,0.5(H2 O1)'
_chemical_name_systematic        
'5,6,7-Trihydroxy-2-phenyl-4H-chromen-4-one hemihydrate'
_symmetry_cell_setting           monoclinic
_symmetry_space_group_name_H-M   'P 21/c'
_symmetry_Int_Tables_number      14
_space_group_name_Hall           '-P 2ybc'
loop_
_symmetry_equiv_pos_site_id
_symmetry_equiv_pos_as_xyz
1 x,y,z
2 -x,1/2+y,1/2-z
3 -x,-y,-z
4 x,1/2-y,1/2+z
_cell_length_a                   3.8097(2)
_cell_length_b                   19.9030(11)
_cell_length_c                   16.2375(8)
_cell_angle_alpha                90
_cell_angle_beta                 97.830(4)
_cell_angle_gamma                90
_cell_volume                     1219.72
_exptl_crystal_colour            yellow
_exptl_crystal_description       plate
_cell_formula_units_Z            4
loop_
_atom_site_label
_atom_site_type_symbol
_atom_site_fract_x
_atom_site_fract_y
_atom_site_fract_z
O1 O 1.0370(6) 0.14048(11) 0.43787(12)
O2 O 0.8046(8) 0.39168(14) 0.55980(16)
H1 H 0.6930 0.4159 0.5246
O3 O 1.1434(7) 0.30015(12) 0.65604(13)
H2 H 1.2757 0.2730 0.6943
O4 O 0.5509(7) 0.36327(12) 0.39736(13)
H3 H 0.4897 0.3484 0.3505
O5 O 0.4825(7) 0.27353(12) 0.27836(13)
C1 C 1.1856(10) -0.0787(2) 0.3045(3)
H4 H 1.2369 -0.1232 0.2933
C2 C 1.2494(10) -0.0549(2) 0.3836(2)
H5 H 1.3482 -0.0832 0.4262
C3 C 1.1691(9) 0.01082(19) 0.4014(2)
H6 H 1.2166 0.0265 0.4557
C4 C 1.0191(9) 0.05314(18) 0.3392(2)
C5 C 0.9210(9) 0.12255(17) 0.35768(19)
C6 C 0.9659(9) 0.20404(17) 0.4655(2)
C7 C 0.7826(8) 0.25109(18) 0.41234(18)
C8 C 0.7284(9) 0.31506(18) 0.4453(2)
C9 C 0.8519(10) 0.32982(17) 0.5260(2)
C10 C 1.0907(9) 0.21805(18) 0.5474(2)
H7 H 1.2128 0.1857 0.5814
C11 C 1.0305(10) 0.28117(19) 0.5780(2)
C12 C 0.6567(9) 0.23250(18) 0.32854(19)
C13 C 0.7325(9) 0.16542(18) 0.30505(19)
H8 H 0.6486 0.1509 0.2515
C14 C 0.9593(11) 0.0291(2) 0.2579(2)
H9 H 0.8620 0.0571 0.2149
C15 C 1.0454(12) -0.0371(2) 0.2413(3)
H10 H 1.0078 -0.0530 0.1869
O6 O 0.329(2) 0.4909(4) 0.5322(6)
loop_
_geom_bond_atom_site_label_1
_geom_bond_atom_site_label_2
_geom_bond_site_symmetry_1
_geom_bond_site_symmetry_2
O1 C5 1_555 1_555
O2 H1 1_555 1_555
O3 H2 1_555 1_555
O4 H3 1_555 1_555
O5 C12 1_555 1_555
C1 H4 1_555 1_555
C2 C1 1_555 1_555
H5 C2 1_555 1_555
C3 C2 1_555 1_555
H6 C3 1_555 1_555
C4 C3 1_555 1_555
C5 C4 1_555 1_555
C6 O1 1_555 1_555
C7 C6 1_555 1_555
C8 O4 1_555 1_555
C9 O2 1_555 1_555
C10 C6 1_555 1_555
H7 C10 1_555 1_555
C11 O3 1_555 1_555
C12 C7 1_555 1_555
C13 C5 1_555 1_555
H8 C13 1_555 1_555
C14 C4 1_555 1_555
H9 C14 1_555 1_555
C15 C1 1_555 1_555
H10 C15 1_555 1_555
C7 C8 1_555 1_555
C8 C9 1_555 1_555
C9 C11 1_555 1_555
C10 C11 1_555 1_555
C12 C13 1_555 1_555
C14 C15 1_555 1_555

#END
