
#######################################################################
#
#                 Cambridge Crystallographic Data Centre
#                                CCDC 
#
#######################################################################
#
# If this CIF has been generated from an entry in the Cambridge 
# Structural Database, then it will include bibliographic, chemical, 
# crystal, experimental, refinement or atomic coordinate data resulting 
# from the CCDC's data processing and validation procedures.
#
#######################################################################

data_ZUNHOH
_chemical_name_common            'Baicalein monohydrate'
_chemical_formula_moiety         'C15 H10 O5,H2 O1'
_chemical_name_systematic        
'5,6,7-Trihydroxy-2-phenyl-4H-chromen-4-one monohydrate'
_symmetry_cell_setting           monoclinic
_symmetry_space_group_name_H-M   'P 21/n'
_symmetry_Int_Tables_number      14
_space_group_name_Hall           '-P 2yn'
loop_
_symmetry_equiv_pos_site_id
_symmetry_equiv_pos_as_xyz
1 x,y,z
2 1/2-x,1/2+y,1/2-z
3 -x,-y,-z
4 1/2+x,1/2-y,1/2+z
_cell_length_a                   3.7722(18)
_cell_length_b                   19.907(9)
_cell_length_c                   16.748(9)
_cell_angle_alpha                90
_cell_angle_beta                 95.43(4)
_cell_angle_gamma                90
_cell_volume                     1252.02
_exptl_crystal_colour            yellow
_exptl_crystal_description       plate
_cell_formula_units_Z            4
loop_
_atom_site_label
_atom_site_type_symbol
_atom_site_fract_x
_atom_site_fract_y
_atom_site_fract_z
O1 O 0.2662(18) 0.9858(3) 0.5930(3)
H1 H 0.39(2) 0.987(6) 0.638(3)
H2 H 0.35(2) 0.949(2) 0.579(5)
O2 O -0.2968(10) 0.90011(15) 0.5037(2)
H3 H -0.3720 0.9215 0.4638
O3 O -0.0503(10) 0.81446(16) 0.61776(18)
H4 H 0.0317 0.7850 0.6483
O4 O -0.3865(9) 0.85994(14) 0.34693(18)
H5 H -0.3820 0.8433 0.3022
O5 O -0.2927(8) 0.76492(14) 0.24179(17)
C1 C -0.2043(12) 0.8366(2) 0.4814(3)
C2 C -0.2425(10) 0.81656(18) 0.4028(2)
C3 C -0.1329(9) 0.75088(19) 0.3808(2)
C4 C 0.0067(10) 0.70858(18) 0.4424(2)
O6 O 0.1201(7) 0.64424(13) 0.42566(17)
C5 C 0.1014(10) 0.6230(2) 0.3484(3)
C6 C 0.2197(10) 0.5523(2) 0.3420(2)
C7 C 0.3135(12) 0.5275(2) 0.2686(3)
H6 H 0.3154 0.5560 0.2246
C8 C 0.4036(13) 0.4603(2) 0.2618(3)
H7 H 0.4648 0.4436 0.2131
C9 C 0.4021(13) 0.4183(2) 0.3277(3)
H8 H 0.4589 0.3732 0.3226
C10 C -0.0686(11) 0.7917(2) 0.5413(3)
C11 C -0.1592(11) 0.7288(2) 0.2991(3)
C12 C -0.0268(12) 0.6620(2) 0.2875(3)
H9 H -0.0306 0.6454 0.2355
C13 C 0.0361(11) 0.72683(19) 0.5216(2)
H10 H 0.1234 0.6969 0.5613
C14 C 0.2303(11) 0.5097(2) 0.4080(3)
H11 H 0.1786 0.5263 0.4574
C15 C 0.3183(13) 0.4422(2) 0.4002(3)
H12 H 0.3200 0.4135 0.4440
loop_
_geom_bond_atom_site_label_1
_geom_bond_atom_site_label_2
_geom_bond_site_symmetry_1
_geom_bond_site_symmetry_2
O1 H1 1_555 1_555
H2 O1 1_555 1_555
O2 H3 1_555 1_555
O3 H4 1_555 1_555
O4 H5 1_555 1_555
O5 C11 1_555 1_555
C1 O2 1_555 1_555
C2 O4 1_555 1_555
C3 C2 1_555 1_555
C4 C3 1_555 1_555
O6 C4 1_555 1_555
C5 O6 1_555 1_555
C6 C5 1_555 1_555
C7 C6 1_555 1_555
H6 C7 1_555 1_555
C8 C7 1_555 1_555
H7 C8 1_555 1_555
C9 C8 1_555 1_555
H8 C9 1_555 1_555
C10 O3 1_555 1_555
C11 C3 1_555 1_555
C12 C5 1_555 1_555
H9 C12 1_555 1_555
C13 C4 1_555 1_555
H10 C13 1_555 1_555
C14 C6 1_555 1_555
H11 C14 1_555 1_555
C15 C9 1_555 1_555
H12 C15 1_555 1_555
C1 C2 1_555 1_555
C1 C10 1_555 1_555
C10 C13 1_555 1_555
C11 C12 1_555 1_555
C14 C15 1_555 1_555

#END
