
#######################################################################
#
#                 Cambridge Crystallographic Data Centre
#                                CCDC 
#
#######################################################################
#
# If this CIF has been generated from an entry in the Cambridge 
# Structural Database, then it will include bibliographic, chemical, 
# crystal, experimental, refinement or atomic coordinate data resulting 
# from the CCDC's data processing and validation procedures.
#
#######################################################################

data_ZUNROP
_chemical_formula_moiety         'C56 H68 N4 O16'
_chemical_name_systematic        
2,2,11,11,20,20,29,29-octakis(Ethoxycarbonyl)(3~4~)(2,6)pyridinophane
_symmetry_cell_setting           tetragonal
_symmetry_space_group_name_H-M   'I 41/a'
_symmetry_Int_Tables_number      88
_space_group_name_Hall           '-I 4ad'
loop_
_symmetry_equiv_pos_site_id
_symmetry_equiv_pos_as_xyz
1 x,y,z
2 3/4-y,1/4+x,1/4+z
3 1/2-x,-y,1/2+z
4 3/4+y,3/4-x,3/4+z
5 1/2+x,1/2+y,1/2+z
6 1/4-y,3/4+x,3/4+z
7 -x,1/2-y,z
8 1/4+y,1/4-x,1/4+z
9 -x,-y,-z
10 1/4+y,3/4-x,3/4-z
11 1/2+x,y,1/2-z
12 1/4-y,1/4+x,1/4-z
13 1/2-x,1/2-y,1/2-z
14 3/4+y,1/4-x,1/4-z
15 x,1/2+y,-z
16 3/4-y,3/4+x,3/4-z
_cell_length_a                   26.287(3)
_cell_length_b                   26.287(3)
_cell_length_c                   9.056(1)
_cell_angle_alpha                90
_cell_angle_beta                 90
_cell_angle_gamma                90
_cell_volume                     6257.75
_exptl_crystal_colour            colorless
_exptl_crystal_description       prism
_chemical_melting_point          114deg.C
_cell_formula_units_Z            4
loop_
_atom_site_label
_atom_site_type_symbol
_atom_site_fract_x
_atom_site_fract_y
_atom_site_fract_z
C1 C 0.4324(2) 0.1973(2) 0.1751(5)
C2 C 0.3932(2) 0.1618(2) 0.2534(5)
C3 C 0.3863(2) 0.1162(2) 0.1541(7)
O1 O 0.3661(2) 0.1175(2) 0.0352(5)
O2 O 0.4063(2) 0.0742(2) 0.2064(5)
C4 C 0.4060(4) 0.0276(4) 0.1160(12)
C5 C 0.3673(9) -0.0020(8) 0.1449(28)
C6 C 0.3421(2) 0.1888(2) 0.2562(5)
O3 O 0.3330(1) 0.2294(2) 0.2045(5)
O4 O 0.3078(1) 0.1605(1) 0.3256(4)
C7 C 0.2575(2) 0.1817(3) 0.3377(9)
C8 C 0.2276(6) 0.1452(8) 0.4171(20)
C9 C 0.4093(2) 0.1467(1) 0.4105(4)
C10 C 0.4032(1) 0.1862(2) 0.5286(5)
C11 C 0.3798(2) 0.1751(5) 0.6610(5)
C12 C 0.3783(2) 0.2113(2) 0.7701(5)
C13 C 0.4001(2) 0.2578(2) 0.7449(5)
C14 C 0.4825(1) 0.1723(2) 0.1415(5)
N1 N 0.4240(1) 0.2319(1) 0.5033(4)
H1 H 0.4177(2) 0.2095(2) 0.0835(5)
H2 H 0.4386(2) 0.2267(2) 0.2376(5)
H3 H 0.4051(4) 0.0369(4) 0.0124(12)
H4 H 0.4372(4) 0.0089(4) 0.1332(12)
H5 H 0.3689(9) -0.0317(8) 0.0834(28)
H6 H 0.3362(9) 0.0160(8) 0.1260(28)
H7 H 0.3684(9) -0.0120(8) 0.2468(28)
H8 H 0.2585(2) 0.2138(3) 0.3906(9)
H9 H 0.2432(2) 0.1877(3) 0.2405(9)
H10 H 0.1935(6) 0.1578(8) 0.4280(20)
H11 H 0.2422(6) 0.1397(8) 0.5128(20)
H12 H 0.2270(6) 0.1137(8) 0.3635(20)
H13 H 0.3898(2) 0.1170(1) 0.4393(4)
H14 H 0.4448(2) 0.1367(1) 0.4077(4)
H15 H 0.3652(2) 0.1433(2) 0.6762(5)
H16 H 0.3627(2) 0.2043(2) 0.8600(5)
H17 H 0.4000(2) 0.2826(2) 0.8182(5)
C14I C 0.4223(2) 0.2675(1) 0.6085(5)
C1I C 0.4473(2) 0.3176(2) 0.5749(5)
C2I C 0.4118(2) 0.3568(2) 0.4966(5)
C3I C 0.3662(2) 0.3637(2) 0.5959(7)
O1I O 0.3675(2) 0.3839(2) 0.7148(5)
O2I O 0.3242(2) 0.3437(2) 0.5436(5)
C4I C 0.2776(4) 0.3440(4) 0.6340(12)
C5I C 0.2480(8) 0.3827(9) 0.6051(28)
H5I H 0.2183(8) 0.3811(9) 0.6666(28)
H6I H 0.2660(8) 0.4138(9) 0.6240(28)
H7I H 0.2380(8) 0.3816(9) 0.5032(28)
H3I H 0.2869(4) 0.3449(4) 0.7376(12)
H4I H 0.2589(4) 0.3128(4) 0.6168(12)
C6I C 0.4388(2) 0.4079(2) 0.4938(5)
O3I O 0.4794(2) 0.4170(1) 0.5455(5)
O4I O 0.4105(1) 0.4422(1) 0.4244(4)
C7I C 0.4317(3) 0.4925(2) 0.4123(9)
C8I C 0.3952(8) 0.5224(6) 0.3329(20)
H10I H 0.4078(8) 0.5565(6) 0.3220(20)
H11I H 0.3897(8) 0.5078(6) 0.2372(20)
H12I H 0.3637(8) 0.5230(6) 0.3865(20)
H8I H 0.4638(3) 0.4915(2) 0.3594(9)
H9I H 0.4377(3) 0.5068(2) 0.5095(9)
C9I C 0.3967(1) 0.3407(2) 0.3395(4)
C10I C 0.4362(2) 0.3468(1) 0.2214(5)
C11I C 0.4251(5) 0.3702(2) 0.0890(5)
C12I C 0.4613(2) 0.3717(2) -0.0201(5)
C13I C 0.5078(2) 0.3499(2) 0.0051(5)
C14F C 0.5175(1) 0.3277(2) 0.1415(5)
C1F C 0.5676(2) 0.3027(2) 0.1751(5)
C2F C 0.6068(2) 0.3382(2) 0.2534(5)
C3F C 0.6137(2) 0.3838(2) 0.1541(7)
O1F O 0.6339(2) 0.3825(2) 0.0352(5)
O2F O 0.5937(2) 0.4258(2) 0.2064(5)
C4F C 0.5940(4) 0.4724(4) 0.1160(12)
C5F C 0.6327(9) 0.5020(8) 0.1449(28)
H5F H 0.6311(9) 0.5317(8) 0.0834(28)
H6F H 0.6638(9) 0.4840(8) 0.1260(28)
H7F H 0.6316(9) 0.5120(8) 0.2468(28)
H3F H 0.5949(4) 0.4631(4) 0.0124(12)
H4F H 0.5628(4) 0.4911(4) 0.1332(12)
C6F C 0.6579(2) 0.3112(2) 0.2562(5)
O3F O 0.6670(1) 0.2706(2) 0.2045(5)
O4F O 0.6922(1) 0.3395(1) 0.3256(4)
C7F C 0.7425(2) 0.3183(3) 0.3377(9)
C8F C 0.7724(6) 0.3548(8) 0.4171(20)
H10F H 0.8065(6) 0.3422(8) 0.4280(20)
H11F H 0.7578(6) 0.3603(8) 0.5128(20)
H12F H 0.7730(6) 0.3863(8) 0.3635(20)
H8F H 0.7415(2) 0.2862(3) 0.3906(9)
H9F H 0.7568(2) 0.3123(3) 0.2405(9)
C9F C 0.5907(2) 0.3533(1) 0.4105(4)
C10F C 0.5968(1) 0.3138(2) 0.5286(5)
C11F C 0.6202(2) 0.3249(5) 0.6610(5)
C12F C 0.6217(2) 0.2887(2) 0.7701(5)
C13F C 0.5999(2) 0.2422(2) 0.7449(5)
C14O C 0.5777(2) 0.2325(1) 0.6085(5)
C1O C 0.5527(2) 0.1824(2) 0.5749(5)
C2O C 0.5882(2) 0.1432(2) 0.4966(5)
C3O C 0.6338(2) 0.1363(2) 0.5959(7)
O1O O 0.6325(2) 0.1161(2) 0.7148(5)
O2O O 0.6758(2) 0.1563(2) 0.5436(5)
C4O C 0.7224(4) 0.1560(4) 0.6340(12)
C5O C 0.7520(8) 0.1173(9) 0.6051(28)
H5O H 0.7817(8) 0.1189(9) 0.6666(28)
H6O H 0.7340(8) 0.0862(9) 0.6240(28)
H7O H 0.7620(8) 0.1184(9) 0.5032(28)
H3O H 0.7131(4) 0.1551(4) 0.7376(12)
H4O H 0.7411(4) 0.1872(4) 0.6168(12)
C6O C 0.5612(2) 0.0921(2) 0.4938(5)
O3O O 0.5206(2) 0.0830(1) 0.5455(5)
O4O O 0.5895(1) 0.0578(1) 0.4244(4)
C7O C 0.5683(3) 0.0075(2) 0.4123(9)
C8O C 0.6048(8) -0.0224(6) 0.3329(20)
H10O H 0.5922(8) -0.0565(6) 0.3220(20)
H11O H 0.6103(8) -0.0078(6) 0.2372(20)
H12O H 0.6363(8) -0.0230(6) 0.3865(20)
H8O H 0.5362(3) 0.0085(2) 0.3594(9)
H9O H 0.5623(3) -0.0068(2) 0.5095(9)
C9O C 0.6033(1) 0.1593(2) 0.3395(4)
C10O C 0.5638(2) 0.1532(1) 0.2214(5)
C11O C 0.5749(5) 0.1298(2) 0.0890(5)
C12O C 0.5387(2) 0.1283(2) -0.0201(5)
C13O C 0.4922(2) 0.1501(2) 0.0051(5)
N1O N 0.5181(1) 0.1740(1) 0.2467(4)
H17O H 0.4674(2) 0.1500(2) -0.0682(5)
H16O H 0.5457(2) 0.1127(2) -0.1100(5)
H15O H 0.6067(2) 0.1152(2) 0.0738(5)
H13O H 0.6330(1) 0.1398(2) 0.3107(4)
H14O H 0.6133(1) 0.1948(2) 0.3423(4)
H1O H 0.5405(2) 0.1677(2) 0.6665(5)
H2O H 0.5233(2) 0.1886(2) 0.5124(5)
N1F N 0.5760(1) 0.2681(1) 0.5033(4)
H17F H 0.6000(2) 0.2174(2) 0.8182(5)
H16F H 0.6373(2) 0.2957(2) 0.8600(5)
H15F H 0.6348(2) 0.3567(2) 0.6762(5)
H13F H 0.6102(2) 0.3830(1) 0.4393(4)
H14F H 0.5552(2) 0.3633(1) 0.4077(4)
H1F H 0.5823(2) 0.2905(2) 0.0835(5)
H2F H 0.5614(2) 0.2733(2) 0.2376(5)
N1I N 0.4819(1) 0.3260(1) 0.2467(4)
H17I H 0.5326(2) 0.3500(2) -0.0682(5)
H16I H 0.4543(2) 0.3873(2) -0.1100(5)
H15I H 0.3933(2) 0.3848(2) 0.0738(5)
H13I H 0.3670(1) 0.3602(2) 0.3107(4)
H14I H 0.3867(1) 0.3052(2) 0.3423(4)
H1I H 0.4595(2) 0.3323(2) 0.6665(5)
H2I H 0.4767(2) 0.3114(2) 0.5124(5)
C15? C 0.4507(8) 0.0060(8) 0.1115(25)
C16? C 0.2344(8) 0.1772(12) 0.4615(23)
H18? H 0.3815(4) 0.0038(4) 0.1565(12)
H19? H 0.3954(4) 0.0360(4) 0.0163(12)
H20? H 0.4490(8) -0.0241(8) 0.0518(25)
H21? H 0.4610(8) -0.0030(8) 0.2098(25)
H22? H 0.4749(8) 0.0292(8) 0.0697(25)
H23? H 0.2597(2) 0.2177(3) 0.3147(9)
H24? H 0.2364(2) 0.1661(3) 0.2623(9)
H25? H 0.2015(8) 0.1929(12) 0.4550(23)
H26? H 0.2539(8) 0.1936(12) 0.5375(23)
H27? H 0.2305(8) 0.1418(12) 0.4849(23)
loop_
_geom_bond_atom_site_label_1
_geom_bond_atom_site_label_2
_geom_bond_site_symmetry_1
_geom_bond_site_symmetry_2
C1 C2 1_555 1_555
C2 C3 1_555 1_555
C3 O1 1_555 1_555
O2 C3 1_555 1_555
C4 O2 1_555 1_555
C5 C4 1_555 1_555
C6 C2 1_555 1_555
O3 C6 1_555 1_555
O4 C6 1_555 1_555
C7 O4 1_555 1_555
C8 C7 1_555 1_555
C9 C2 1_555 1_555
C10 C9 1_555 1_555
C11 C10 1_555 1_555
C12 C11 1_555 1_555
C13 C12 1_555 1_555
C14 C1 1_555 1_555
N1 C10 1_555 1_555
H1 C1 1_555 1_555
H2 C1 1_555 1_555
H3 C4 1_555 1_555
H4 C4 1_555 1_555
H5 C5 1_555 1_555
H6 C5 1_555 1_555
H7 C5 1_555 1_555
H8 C7 1_555 1_555
H9 C7 1_555 1_555
H10 C8 1_555 1_555
H11 C8 1_555 1_555
H12 C8 1_555 1_555
H13 C9 1_555 1_555
H14 C9 1_555 1_555
H15 C11 1_555 1_555
H16 C12 1_555 1_555
H17 C13 1_555 1_555
C14I C13 1_555 1_555
C1I C14I 1_555 1_555
C2I C1I 1_555 1_555
C3I C2I 1_555 1_555
O1I C3I 1_555 1_555
O2I C3I 1_555 1_555
C4I O2I 1_555 1_555
C5I C4I 1_555 1_555
H5I C5I 1_555 1_555
H6I C5I 1_555 1_555
H7I C5I 1_555 1_555
H3I C4I 1_555 1_555
H4I C4I 1_555 1_555
C6I C2I 1_555 1_555
O3I C6I 1_555 1_555
O4I C6I 1_555 1_555
C7I O4I 1_555 1_555
C8I C7I 1_555 1_555
H10I C8I 1_555 1_555
H11I C8I 1_555 1_555
H12I C8I 1_555 1_555
H8I C7I 1_555 1_555
H9I C7I 1_555 1_555
C9I C2I 1_555 1_555
C10I C9I 1_555 1_555
C11I C10I 1_555 1_555
C12I C11I 1_555 1_555
C13I C12I 1_555 1_555
C14F C13I 1_555 1_555
C1F C14F 1_555 1_555
C2F C1F 1_555 1_555
C3F C2F 1_555 1_555
O1F C3F 1_555 1_555
O2F C3F 1_555 1_555
C4F O2F 1_555 1_555
C5F C4F 1_555 1_555
H5F C5F 1_555 1_555
H6F C5F 1_555 1_555
H7F C5F 1_555 1_555
H3F C4F 1_555 1_555
H4F C4F 1_555 1_555
C6F C2F 1_555 1_555
O3F C6F 1_555 1_555
O4F C6F 1_555 1_555
C7F O4F 1_555 1_555
C8F C7F 1_555 1_555
H10F C8F 1_555 1_555
H11F C8F 1_555 1_555
H12F C8F 1_555 1_555
H8F C7F 1_555 1_555
H9F C7F 1_555 1_555
C9F C2F 1_555 1_555
C10F C9F 1_555 1_555
C11F C10F 1_555 1_555
C12F C11F 1_555 1_555
C13F C12F 1_555 1_555
C14O C13F 1_555 1_555
C1O C14O 1_555 1_555
C2O C1O 1_555 1_555
C3O C2O 1_555 1_555
O1O C3O 1_555 1_555
O2O C3O 1_555 1_555
C4O O2O 1_555 1_555
C5O C4O 1_555 1_555
H5O C5O 1_555 1_555
H6O C5O 1_555 1_555
H7O C5O 1_555 1_555
H3O C4O 1_555 1_555
H4O C4O 1_555 1_555
C6O C2O 1_555 1_555
O3O C6O 1_555 1_555
O4O C6O 1_555 1_555
C7O O4O 1_555 1_555
C8O C7O 1_555 1_555
H10O C8O 1_555 1_555
H11O C8O 1_555 1_555
H12O C8O 1_555 1_555
H8O C7O 1_555 1_555
H9O C7O 1_555 1_555
C9O C2O 1_555 1_555
C10O C9O 1_555 1_555
C11O C10O 1_555 1_555
C12O C11O 1_555 1_555
C13O C14 1_555 1_555
N1O C14 1_555 1_555
H17O C13O 1_555 1_555
H16O C12O 1_555 1_555
H15O C11O 1_555 1_555
H13O C9O 1_555 1_555
H14O C9O 1_555 1_555
H1O C1O 1_555 1_555
H2O C1O 1_555 1_555
N1F C10F 1_555 1_555
H17F C13F 1_555 1_555
H16F C12F 1_555 1_555
H15F C11F 1_555 1_555
H13F C9F 1_555 1_555
H14F C9F 1_555 1_555
H1F C1F 1_555 1_555
H2F C1F 1_555 1_555
N1I C10I 1_555 1_555
H17I C13I 1_555 1_555
H16I C12I 1_555 1_555
H15I C11I 1_555 1_555
H13I C9I 1_555 1_555
H14I C9I 1_555 1_555
H1I C1I 1_555 1_555
H2I C1I 1_555 1_555
N1 C14I 1_555 1_555
C14F N1I 1_555 1_555
C14O N1F 1_555 1_555
C10O N1O 1_555 1_555
C12O C13O 1_555 1_555

#END
