
#######################################################################
#
#                 Cambridge Crystallographic Data Centre
#                                CCDC 
#
#######################################################################
#
# If this CIF has been generated from an entry in the Cambridge 
# Structural Database, then it will include bibliographic, chemical, 
# crystal, experimental, refinement or atomic coordinate data resulting 
# from the CCDC's data processing and validation procedures.
#
#######################################################################

data_ZUNSAC
_chemical_formula_moiety         'C45 H54 O12'
_chemical_name_systematic        
2,2,11,11,20,20-hexakis(Ethoxycarbonyl)-9,18,27-trimethoxy(3~3~)metacyclophane
_symmetry_cell_setting           monoclinic
_symmetry_space_group_name_H-M   'P 21/n'
_symmetry_Int_Tables_number      14
_space_group_name_Hall           '-P 2yn'
loop_
_symmetry_equiv_pos_site_id
_symmetry_equiv_pos_as_xyz
1 x,y,z
2 1/2-x,1/2+y,1/2-z
3 -x,-y,-z
4 1/2+x,1/2-y,1/2+z
_cell_length_a                   11.857(1)
_cell_length_b                   19.603(1)
_cell_length_c                   18.939(1)
_cell_angle_alpha                90
_cell_angle_beta                 106.14(1)
_cell_angle_gamma                90
_cell_volume                     4228.54
_exptl_crystal_colour            colorless
_exptl_crystal_description       prisms
_chemical_melting_point          142deg.C
_cell_formula_units_Z            4
loop_
_atom_site_label
_atom_site_type_symbol
_atom_site_fract_x
_atom_site_fract_y
_atom_site_fract_z
C1 C 0.5033(3) 0.5991(2) 0.4891(2)
C2 C 0.3822(3) 0.6217(2) 0.4996(2)
C3 C 0.3835(4) 0.6240(2) 0.5812(2)
C4 C 0.3916(4) 0.5558(2) 0.6198(2)
C5 C 0.2935(4) 0.5159(3) 0.6139(3)
C6 C 0.3024(5) 0.4533(3) 0.6486(3)
C7 C 0.4085(4) 0.4310(3) 0.6915(3)
C8 C 0.5097(4) 0.4700(2) 0.7010(2)
C9 C 0.4977(4) 0.5320(2) 0.6636(2)
C10 C 0.2858(4) 0.5727(2) 0.4568(2)
O1 O 0.3009(3) 0.5217(2) 0.4259(2)
O2 O 0.1812(2) 0.5955(1) 0.4598(2)
C11 C 0.0770(4) 0.5555(3) 0.4209(3)
C12 C 0.0369(5) 0.5753(3) 0.3428(3)
C13 C 0.3513(4) 0.6920(2) 0.4661(3)
O3 O 0.3531(3) 0.7438(2) 0.4999(2)
O4 O 0.3234(3) 0.6884(2) 0.3928(2)
C14 C 0.2988(5) 0.7519(3) 0.3517(3)
C15 C 0.1852(5) 0.7489(3) 0.3005(3)
C16 C 0.6254(4) 0.4452(2) 0.7497(2)
C17 C 0.6538(4) 0.4702(2) 0.8308(2)
C18 C 0.6824(4) 0.5478(2) 0.8383(2)
C19 C 0.8034(4) 0.5660(2) 0.8315(2)
C20 C 0.8974(5) 0.5720(2) 0.8936(3)
C21 C 1.0081(5) 0.5874(3) 0.8885(3)
C22 C 1.0259(4) 0.5985(2) 0.8207(3)
C23 C 0.9347(4) 0.5944(2) 0.7570(2)
C24 C 0.8237(4) 0.5776(2) 0.7634(2)
C25 C 0.5480(4) 0.4515(3) 0.8581(3)
O5 O 0.5262(3) 0.3948(2) 0.8723(2)
O6 O 0.4833(3) 0.5054(2) 0.8632(2)
C26 C 0.3420(10) 0.4869(7) 0.8553(8)
C27 C 0.3490(22) 0.5168(15) 0.9262(13)
C28 C 0.7578(4) 0.4331(2) 0.8823(3)
O7 O 0.7816(3) 0.4391(2) 0.9481(2)
O8 O 0.8191(3) 0.3960(2) 0.8479(2)
C29 C 0.9259(5) 0.3627(4) 0.8933(4)
C30 C 1.0236(6) 0.3848(5) 0.8759(5)
C31 C 0.9534(4) 0.6056(2) 0.6818(2)
C32 C 0.9681(4) 0.6805(2) 0.6606(2)
C33 C 0.8550(4) 0.7235(2) 0.6538(2)
C34 C 0.7620(4) 0.7151(2) 0.5812(2)
C35 C 0.7599(4) 0.7602(2) 0.5247(3)
C36 C 0.6791(4) 0.7514(3) 0.4571(3)
C37 C 0.5989(4) 0.6993(3) 0.4452(3)
C38 C 0.5946(4) 0.6551(2) 0.5017(2)
C39 C 0.6770(4) 0.6638(2) 0.5691(2)
C40 C 0.9967(4) 0.6801(3) 0.5877(3)
O9 O 0.9864(3) 0.6313(2) 0.5478(2)
O10 O 1.0314(3) 0.7415(2) 0.5719(2)
C41 C 1.0507(6) 0.7493(3) 0.4993(3)
C42 C 1.0805(9) 0.8195(3) 0.4907(4)
C43 C 1.0697(4) 0.7131(3) 0.7176(3)
O11 O 1.0613(3) 0.7563(2) 0.7603(2)
O12 O 1.1713(3) 0.6858(2) 0.7146(2)
C44 C 1.2779(5) 0.7149(4) 0.7640(4)
C45 C 1.3205(11) 0.7679(6) 0.7254(7)
H1 H 0.5340(3) 0.5620(2) 0.5227(2)
H2 H 0.4904(3) 0.5818(2) 0.4395(2)
H3 H 0.4496(4) 0.6517(2) 0.6075(2)
H4 H 0.3126(4) 0.6468(2) 0.5847(2)
H5 H 0.2204(4) 0.5314(3) 0.5863(3)
H6 H 0.2360(5) 0.4263(3) 0.6427(3)
H7 H 0.4132(4) 0.3889(3) 0.7148(3)
H8 H 0.5643(4) 0.5587(2) 0.6684(2)
H9 H 0.0963(4) 0.5073(3) 0.4247(3)
H10 H 0.0144(4) 0.5631(3) 0.4438(3)
H11 H -0.0318(20) 0.5494(14) 0.3186(6)
H12 H 0.0980(13) 0.5662(18) 0.3197(6)
H13 H 0.0183(32) 0.6230(5) 0.3391(3)
H14 H 0.3021(5) 0.7897(3) 0.3853(3)
H15 H 0.3575(5) 0.7594(3) 0.3257(3)
H16 H 0.1693(17) 0.7910(9) 0.2737(18)
H17 H 0.1272(6) 0.7417(23) 0.3264(4)
H18 H 0.1826(13) 0.7119(15) 0.2668(15)
H19 H 0.6875(4) 0.4602(2) 0.7291(2)
H20 H 0.6239(4) 0.5721(2) 0.8008(2)
H21 H 0.6762(4) 0.5633(2) 0.8858(2)
H22 H 0.8856(5) 0.5655(2) 0.9397(3)
H23 H 1.0707(5) 0.5902(3) 0.9308(3)
H24 H 1.1009(4) 0.6090(2) 0.8177(3)
H25 H 0.7613(4) 0.5741(2) 0.7211(2)
H26 H 0.2875(10) 0.5103(7) 0.8148(8)
H27 H 0.2742(22) 0.5128(15) 0.9362(13)
H28 H 0.3698(22) 0.5641(15) 0.9258(13)
H29 H 0.4075(22) 0.4933(15) 0.9636(13)
H30 H 0.3476(13) 0.4488(7) 0.8771(11)
H31 H 0.9339(5) 0.3721(4) 0.9447(4)
H32 H 0.9187(5) 0.3137(4) 0.8862(4)
H33 H 1.0948(8) 0.3639(29) 0.9083(26)
H34 H 1.0294(34) 0.4334(7) 0.8812(38)
H35 H 1.0184(30) 0.3726(32) 0.8260(14)
H36 H 0.8870(4) 0.5862(2) 0.6452(2)
H37 H 1.0228(4) 0.5804(2) 0.6796(2)
H38 H 0.8217(4) 0.7106(2) 0.6932(2)
H39 H 0.8767(4) 0.7713(2) 0.6604(2)
H40 H 0.8127(4) 0.7964(2) 0.5323(3)
H41 H 0.6790(4) 0.7814(3) 0.4190(3)
H42 H 0.5468(4) 0.6935(3) 0.3988(3)
H43 H 0.6756(4) 0.6346(2) 0.6075(2)
H44 H 1.1140(6) 0.7197(3) 0.4950(3)
H45 H 0.9802(6) 0.7369(3) 0.4613(3)
H46 H 1.0938(61) 0.8256(8) 0.4434(16)
H47 H 1.1505(34) 0.8312(11) 0.5285(23)
H48 H 1.0172(25) 0.8484(4) 0.4947(38)
H49 H 1.2607(5) 0.7336(4) 0.8073(4)
H50 H 1.3371(5) 0.6797(4) 0.7797(4)
H51 H 1.2637(39) 0.8040(24) 0.7131(48)
H52 H 1.3331(83) 0.7495(13) 0.6812(28)
H53 H 1.3932(45) 0.7855(35) 0.7562(21)
C46? C 0.3910(13) 0.4891(7) 0.8989(11)
C47? C 0.3178(20) 0.5468(13) 0.8869(18)
C48? C 1.3769(15) 0.6845(13) 0.7636(13)
H54? H 0.6253(4) 0.0395(72) 0.7495(2)
H55? H 0.3258(10) 0.4383(7) 0.8533(8)
H56? H 0.4247(13) 0.4811(7) 0.9511(11)
H57? H 0.2549(20) 0.5397(13) 0.9089(18)
H58? H 0.2859(20) 0.5539(13) 0.8350(18)
H59? H 0.3625(20) 0.5860(13) 0.9085(18)
H60? H 1.2828(5) 0.7624(4) 0.7510(4)
H61? H 1.2704(5) 0.7136(4) 0.8137(4)
H62? H 1.3783(81) 0.6394(40) 0.783(11)
H63? H 1.4420(16) 0.7103(59) 0.7931(94)
H64? H 1.3825(87) 0.6819(96) 0.7141(18)
loop_
_geom_bond_atom_site_label_1
_geom_bond_atom_site_label_2
_geom_bond_site_symmetry_1
_geom_bond_site_symmetry_2
C1 C2 1_555 1_555
C2 C3 1_555 1_555
C3 C4 1_555 1_555
C4 C5 1_555 1_555
C5 C6 1_555 1_555
C6 C7 1_555 1_555
C7 C8 1_555 1_555
C8 C9 1_555 1_555
C9 C4 1_555 1_555
C10 C2 1_555 1_555
O1 C10 1_555 1_555
O2 C10 1_555 1_555
C11 O2 1_555 1_555
C12 C11 1_555 1_555
C13 C2 1_555 1_555
O3 C13 1_555 1_555
O4 C13 1_555 1_555
C14 O4 1_555 1_555
C15 C14 1_555 1_555
C16 C8 1_555 1_555
C17 C16 1_555 1_555
C18 C17 1_555 1_555
C19 C18 1_555 1_555
C20 C19 1_555 1_555
C21 C20 1_555 1_555
C22 C21 1_555 1_555
C23 C22 1_555 1_555
C24 C19 1_555 1_555
C25 C17 1_555 1_555
O5 C25 1_555 1_555
O6 C25 1_555 1_555
C26 O6 1_555 1_555
C27 C26 1_555 1_555
C28 C17 1_555 1_555
O7 C28 1_555 1_555
O8 C28 1_555 1_555
C29 O8 1_555 1_555
C30 C29 1_555 1_555
C31 C23 1_555 1_555
C32 C31 1_555 1_555
C33 C32 1_555 1_555
C34 C33 1_555 1_555
C35 C34 1_555 1_555
C36 C35 1_555 1_555
C37 C36 1_555 1_555
C38 C1 1_555 1_555
C39 C34 1_555 1_555
C40 C32 1_555 1_555
O9 C40 1_555 1_555
O10 C40 1_555 1_555
C41 O10 1_555 1_555
C42 C41 1_555 1_555
C43 C32 1_555 1_555
O11 C43 1_555 1_555
O12 C43 1_555 1_555
C44 O12 1_555 1_555
C45 C44 1_555 1_555
H1 C1 1_555 1_555
H2 C1 1_555 1_555
H3 C3 1_555 1_555
H4 C3 1_555 1_555
H5 C5 1_555 1_555
H6 C6 1_555 1_555
H7 C7 1_555 1_555
H8 C9 1_555 1_555
H9 C11 1_555 1_555
H10 C11 1_555 1_555
H11 C12 1_555 1_555
H12 C12 1_555 1_555
H13 C12 1_555 1_555
H14 C14 1_555 1_555
H15 C14 1_555 1_555
H16 C15 1_555 1_555
H17 C15 1_555 1_555
H18 C15 1_555 1_555
H19 C16 1_555 1_555
H20 C18 1_555 1_555
H21 C18 1_555 1_555
H22 C20 1_555 1_555
H23 C21 1_555 1_555
H24 C22 1_555 1_555
H25 C24 1_555 1_555
H26 C26 1_555 1_555
H27 C27 1_555 1_555
H28 C27 1_555 1_555
H29 C27 1_555 1_555
H30 C26 1_555 1_555
H31 C29 1_555 1_555
H32 C29 1_555 1_555
H33 C30 1_555 1_555
H34 C30 1_555 1_555
H35 C30 1_555 1_555
H36 C31 1_555 1_555
H37 C31 1_555 1_555
H38 C33 1_555 1_555
H39 C33 1_555 1_555
H40 C35 1_555 1_555
H41 C36 1_555 1_555
H42 C37 1_555 1_555
H43 C39 1_555 1_555
H44 C41 1_555 1_555
H45 C41 1_555 1_555
H46 C42 1_555 1_555
H47 C42 1_555 1_555
H48 C42 1_555 1_555
H49 C44 1_555 1_555
H50 C44 1_555 1_555
H51 C45 1_555 1_555
H52 C45 1_555 1_555
H53 C45 1_555 1_555
C23 C24 1_555 1_555
C37 C38 1_555 1_555
C38 C39 1_555 1_555

#END
