
#######################################################################
#
#                 Cambridge Crystallographic Data Centre
#                                CCDC 
#
#######################################################################
#
# If this CIF has been generated from an entry in the Cambridge 
# Structural Database, then it will include bibliographic, chemical, 
# crystal, experimental, refinement or atomic coordinate data resulting 
# from the CCDC's data processing and validation procedures.
#
#######################################################################

data_ZUNSOS
_chemical_name_common            2-(t-butyl)-1H-benzo[e]isoindol-3(2H)-one
_chemical_formula_moiety         'C16 H17 N1 O1'
_chemical_name_systematic        
2-t-butyl-1,2-dihydro-3H-benzo[e]isoindol-3-one
_symmetry_cell_setting           monoclinic
_symmetry_space_group_name_H-M   'P 21/c'
_symmetry_Int_Tables_number      14
_space_group_name_Hall           '-P 2ybc'
loop_
_symmetry_equiv_pos_site_id
_symmetry_equiv_pos_as_xyz
1 x,y,z
2 -x,1/2+y,1/2-z
3 -x,-y,-z
4 x,1/2-y,1/2+z
_cell_length_a                   9.307(4)
_cell_length_b                   12.211(6)
_cell_length_c                   12.522(6)
_cell_angle_alpha                90
_cell_angle_beta                 108.630(5)
_cell_angle_gamma                90
_cell_volume                     1348.53
_exptl_crystal_colour            colorless
_exptl_crystal_description       block
_cell_formula_units_Z            4
loop_
_atom_site_label
_atom_site_type_symbol
_atom_site_fract_x
_atom_site_fract_y
_atom_site_fract_z
N1 N 0.27386(15) 0.25278(10) 0.12985(11)
O1 O 0.17920(15) 0.24715(10) 0.27973(10)
C1 C 0.20817(16) 0.29581(13) 0.20350(12)
C2 C 0.17811(15) 0.41220(12) 0.17273(12)
C3 C 0.10971(18) 0.49185(14) 0.22213(14)
H1 H 0.0765 0.4743 0.2826
C4 C 0.09365(19) 0.59476(14) 0.17914(15)
H2 H 0.0472 0.6479 0.2101
C5 C 0.14578(17) 0.62307(12) 0.08854(14)
C6 C 0.1315(2) 0.73089(15) 0.04485(18)
H3 H 0.0876 0.7849 0.0767
C7 C 0.1810(3) 0.75647(17) -0.0429(2)
H4 H 0.1711 0.8279 -0.0700
C8 C 0.2462(2) 0.67756(17) -0.09279(19)
H5 H 0.2781 0.6962 -0.1536
C9 C 0.2638(2) 0.57223(15) -0.05260(16)
H6 H 0.3088 0.5200 -0.0858
C10 C 0.21423(15) 0.54264(12) 0.03835(13)
C11 C 0.22773(15) 0.43594(11) 0.08417(12)
C12 C 0.29287(17) 0.33516(12) 0.05024(13)
H7 H 0.2378 0.3148 -0.0269
H8 H 0.3991 0.3452 0.0578
C13 C 0.32780(19) 0.13823(13) 0.13358(16)
C14 C 0.1964(3) 0.06051(16) 0.1239(3)
H9 H 0.2322 -0.0137 0.1302
H10 H 0.1196 0.0706 0.0522
H11 H 0.1545 0.0756 0.1832
C15 C 0.3871(3) 0.11756(18) 0.0359(2)
H12 H 0.4726 0.1642 0.0429
H13 H 0.3087 0.1330 -0.0337
H14 H 0.4176 0.0424 0.0368
C16 C 0.4540(3) 0.1210(2) 0.2444(2)
H15 H 0.5351 0.1714 0.2495
H16 H 0.4912 0.0474 0.2479
H17 H 0.4154 0.1335 0.3060
loop_
_geom_bond_atom_site_label_1
_geom_bond_atom_site_label_2
_geom_bond_site_symmetry_1
_geom_bond_site_symmetry_2
N1 C1 1_555 1_555
O1 C1 1_555 1_555
C1 C2 1_555 1_555
C2 C3 1_555 1_555
C3 H1 1_555 1_555
C4 C3 1_555 1_555
H2 C4 1_555 1_555
C5 C4 1_555 1_555
C6 C5 1_555 1_555
H3 C6 1_555 1_555
C7 C6 1_555 1_555
H4 C7 1_555 1_555
C8 C7 1_555 1_555
H5 C8 1_555 1_555
C9 C8 1_555 1_555
H6 C9 1_555 1_555
C10 C5 1_555 1_555
C11 C2 1_555 1_555
C12 N1 1_555 1_555
H7 C12 1_555 1_555
H8 C12 1_555 1_555
C13 N1 1_555 1_555
C14 C13 1_555 1_555
H9 C14 1_555 1_555
H10 C14 1_555 1_555
H11 C14 1_555 1_555
C15 C13 1_555 1_555
H12 C15 1_555 1_555
H13 C15 1_555 1_555
H14 C15 1_555 1_555
C16 C13 1_555 1_555
H15 C16 1_555 1_555
H16 C16 1_555 1_555
H17 C16 1_555 1_555
C9 C10 1_555 1_555
C10 C11 1_555 1_555
C11 C12 1_555 1_555

#END
