
#######################################################################
#
#                 Cambridge Crystallographic Data Centre
#                                CCDC 
#
#######################################################################
#
# If this CIF has been generated from an entry in the Cambridge 
# Structural Database, then it will include bibliographic, chemical, 
# crystal, experimental, refinement or atomic coordinate data resulting 
# from the CCDC's data processing and validation procedures.
#
#######################################################################

data_ZUNZAJ
_chemical_formula_moiety         'C27 H29 O4 1+,Cl1 O4 1-,0.5(H2 O1)'
_chemical_name_systematic        
'4,6-bis(p-Methoxystyryl)-2,2-pentamethylene-spiro-1,3-dioxenium perchlorate hemihydrate'
_symmetry_cell_setting           triclinic
_symmetry_space_group_name_H-M   'P -1'
_symmetry_Int_Tables_number      2
_space_group_name_Hall           '-P 1'
loop_
_symmetry_equiv_pos_site_id
_symmetry_equiv_pos_as_xyz
1 x,y,z
2 -x,-y,-z
_cell_length_a                   9.939(5)
_cell_length_b                   10.270(5)
_cell_length_c                   13.921(7)
_cell_angle_alpha                79.72(2)
_cell_angle_beta                 74.70(2)
_cell_angle_gamma                68.73(2)
_cell_volume                     1271.82
_chemical_melting_point          200-202deg.C
_cell_formula_units_Z            2
loop_
_atom_site_label
_atom_site_type_symbol
_atom_site_fract_x
_atom_site_fract_y
_atom_site_fract_z
O1 O -0.3325(3) 0.7097(3) 0.4497(2)
O2 O -0.1896(3) 0.6437(3) 0.5729(2)
O3 O 0.3355(3) 0.1283(3) 0.9596(2)
O4 O -0.7441(3) 0.6158(3) 0.0302(2)
C1 C -0.3134(4) 0.5739(4) 0.4454(3)
C2 C -0.2374(4) 0.4713(4) 0.5087(3)
C3 C -0.1728(4) 0.5080(4) 0.5723(3)
C4 C -0.0829(4) 0.4117(4) 0.6355(3)
C5 C -0.0339(4) 0.4560(4) 0.7020(3)
C6 C 0.0587(4) 0.3699(4) 0.7698(3)
C7 C 0.0891(4) 0.4357(4) 0.8377(3)
C8 C 0.1793(4) 0.3594(4) 0.9039(3)
C9 C 0.2425(4) 0.2144(4) 0.9011(3)
C10 C 0.2126(4) 0.1474(4) 0.8340(3)
C11 C 0.1219(4) 0.2227(4) 0.7700(3)
C12 C 0.3663(4) 0.1898(4) 1.0328(3)
C13 C -0.3720(4) 0.5486(4) 0.3697(3)
C14 C -0.4695(4) 0.6535(4) 0.3240(3)
C15 C -0.5394(4) 0.6429(4) 0.2473(3)
C16 C -0.6559(4) 0.7588(4) 0.2206(3)
C17 C -0.7277(4) 0.7563(4) 0.1479(3)
C18 C -0.6820(4) 0.6328(5) 0.1020(3)
C19 C -0.5674(4) 0.5160(4) 0.1279(3)
C20 C -0.4949(4) 0.5213(4) 0.1983(3)
C21 C -0.8415(4) 0.7392(5) -0.0134(3)
C22 C -0.3185(4) 0.7468(4) 0.5415(3)
C23 C -0.4559(4) 0.7509(4) 0.6216(3)
C24 C -0.4523(5) 0.8066(4) 0.7160(3)
C25 C -0.4315(5) 0.9501(4) 0.6900(3)
C26 C -0.2904(4) 0.9423(4) 0.6112(3)
C27 C -0.2883(4) 0.8834(4) 0.5168(3)
Cl1 Cl 0.0728(2) 0.8611(2) 0.7144(1)
O5 O 0.1985(6) 0.8615(6) 0.7443(4)
O6 O 0.0089(6) 1.0000(6) 0.6697(5)
O7 O -0.0391(24) 0.8995(26) 0.8144(16)
O8 O 0.0388(20) 0.7497(15) 0.7206(15)
O17 O 0.0832(11) 0.8583(10) 0.4692(7)
O9? O 0.2092(10) 0.7765(10) 0.7386(7)
O10? O -0.0137(14) 0.9925(14) 0.7194(11)
O11? O -0.0233(14) 0.7797(13) 0.7615(10)
O12? O 0.1117(14) 0.8281(13) 0.6027(9)
O13? O 0.0809(17) 0.7606(18) 0.6510(16)
O14? O 0.0135(31) 0.9351(28) 0.8388(21)
O15? O -0.0503(19) 0.8351(24) 0.7962(15)
O16? O 0.1791(20) 0.8282(17) 0.5948(12)
loop_
_geom_bond_atom_site_label_1
_geom_bond_atom_site_label_2
_geom_bond_site_symmetry_1
_geom_bond_site_symmetry_2
O1 C1 1_555 1_555
O2 C3 1_555 1_555
O3 C9 1_555 1_555
O4 C18 1_555 1_555
C1 C2 1_555 1_555
C2 C3 1_555 1_555
C3 C4 1_555 1_555
C4 C5 1_555 1_555
C5 C6 1_555 1_555
C6 C7 1_555 1_555
C7 C8 1_555 1_555
C8 C9 1_555 1_555
C9 C10 1_555 1_555
C10 C11 1_555 1_555
C11 C6 1_555 1_555
C12 O3 1_555 1_555
C13 C1 1_555 1_555
C14 C13 1_555 1_555
C15 C14 1_555 1_555
C16 C15 1_555 1_555
C17 C16 1_555 1_555
C18 C17 1_555 1_555
C19 C18 1_555 1_555
C20 C15 1_555 1_555
C21 O4 1_555 1_555
C22 O1 1_555 1_555
C23 C22 1_555 1_555
C24 C23 1_555 1_555
C25 C24 1_555 1_555
C26 C25 1_555 1_555
C27 C22 1_555 1_555
Cl1 O5 1_555 1_555
O6 Cl1 1_555 1_555
O7 Cl1 1_555 1_555
O8 Cl1 1_555 1_555
O2 C22 1_555 1_555
C19 C20 1_555 1_555
C26 C27 1_555 1_555

#END
