
#######################################################################
#
#                 Cambridge Crystallographic Data Centre
#                                CCDC 
#
#######################################################################
#
# If this CIF has been generated from an entry in the Cambridge 
# Structural Database, then it will include bibliographic, chemical, 
# crystal, experimental, refinement or atomic coordinate data resulting 
# from the CCDC's data processing and validation procedures.
#
#######################################################################

data_ZUPKOM
_chemical_formula_moiety         'C17 H24 Br1 N1 O2'
_chemical_name_systematic        
't-butyl (4-(4-bromophenyl)hex-5-en-3-yl)carbamate'
_symmetry_cell_setting           monoclinic
_symmetry_space_group_name_H-M   'P 21'
_symmetry_Int_Tables_number      4
_space_group_name_Hall           'P 2yb'
loop_
_symmetry_equiv_pos_site_id
_symmetry_equiv_pos_as_xyz
1 x,y,z
2 -x,1/2+y,-z
_cell_length_a                   9.0028(9)
_cell_length_b                   22.187(2)
_cell_length_c                   9.7931(10)
_cell_angle_alpha                90
_cell_angle_beta                 110.278(2)
_cell_angle_gamma                90
_cell_volume                     1834.89
_exptl_crystal_colour            colorless
_exptl_crystal_description       prismatic
_cell_formula_units_Z            4
loop_
_atom_site_label
_atom_site_type_symbol
_atom_site_fract_x
_atom_site_fract_y
_atom_site_fract_z
Br1 Br -0.01906(9) 1.02341(3) 0.46094(8)
N1 N 0.3696(6) 0.6972(3) 0.8144(5)
O1 O 0.4130(6) 0.6569(2) 0.6190(4)
O2 O 0.5132(5) 0.6159(2) 0.8439(4)
C1 C 0.2787(8) 0.7512(3) 0.7455(6)
H1 H 0.2566 0.7735 0.8227
C2 C 0.3791(7) 0.7928(3) 0.6877(6)
H2 H 0.3902 0.7730 0.6023
C3 C 0.5384(9) 0.8031(3) 0.7906(8)
H3 H 0.5487 0.8283 0.8692
C4 C 0.6680(9) 0.7800(4) 0.7817(10)
H4 H 0.6631 0.7545 0.7048
H5 H 0.7653 0.7889 0.8523
C5 C 0.1204(7) 0.7345(3) 0.6347(7)
H6 H 0.0644 0.7712 0.5929
H7 H 0.1381 0.7120 0.5567
C6 C 0.0194(8) 0.6983(5) 0.6938(10)
H8 H 0.0673 0.6596 0.7236
H9 H -0.0829 0.6931 0.6202
H10 H 0.0080 0.7187 0.7761
C7 C 0.2910(7) 0.8517(3) 0.6353(6)
C8 C 0.2569(10) 0.8911(4) 0.7289(7)
H11 H 0.2937 0.8829 0.8281
C9 C 0.1687(9) 0.9429(4) 0.6782(7)
H12 H 0.1493 0.9697 0.7431
C10 C 0.1111(7) 0.9540(3) 0.5333(7)
C11 C 0.1385(8) 0.9163(4) 0.4375(7)
H13 H 0.0965 0.9241 0.3382
C12 C 0.2301(7) 0.8655(4) 0.4888(6)
H14 H 0.2513 0.8399 0.4226
C13 C 0.4310(8) 0.6576(3) 0.7487(6)
C14 C 0.6070(7) 0.5696(3) 0.8067(6)
C15 C 0.5020(9) 0.5292(4) 0.6903(7)
H15 H 0.4227 0.5117 0.7231
H16 H 0.5644 0.4977 0.6697
H17 H 0.4516 0.5523 0.6037
C16 C 0.6790(8) 0.5339(4) 0.9450(7)
H18 H 0.7419 0.5601 1.0211
H19 H 0.7448 0.5025 0.9292
H20 H 0.5963 0.5163 0.9727
C17 C 0.7328(10) 0.6002(4) 0.7614(10)
H21 H 0.6832 0.6236 0.6752
H22 H 0.7999 0.5702 0.7420
H23 H 0.7953 0.6261 0.8384
H24 H 0.409(5) 0.702(2) 0.901(2)
Br2 Br 1.02819(10) -0.13226(3) 1.04210(8)
N2 N 0.6486(6) 0.1976(3) 0.7066(5)
O3 O 0.5940(5) 0.2406(2) 0.8920(4)
O4 O 0.4945(5) 0.2786(2) 0.6608(4)
C18 C 0.7352(7) 0.1465(3) 0.7867(6)
H25 H 0.7580 0.1543 0.8905
C19 C 0.6312(6) 0.0888(3) 0.7451(5)
H26 H 0.6014 0.0827 0.6399
C20 C 0.4793(9) 0.0985(3) 0.7791(8)
H27 H 0.4882 0.1013 0.8764
C21 C 0.3416(10) 0.1029(5) 0.6833(10)
H28 H 0.3284 0.1002 0.5850
H29 H 0.2541 0.1088 0.7116
C22 C 0.8919(7) 0.1399(3) 0.7628(7)
H30 H 0.8724 0.1350 0.6596
H31 H 0.9453 0.1039 0.8123
C23 C 0.9995(9) 0.1947(4) 0.8194(11)
H32 H 0.9509 0.2298 0.7649
H33 H 1.1000 0.1878 0.8083
H34 H 1.0150 0.2009 0.9205
C24 C 0.7223(7) 0.0334(3) 0.8212(6)
C25 C 0.7787(8) 0.0282(4) 0.9690(6)
H35 H 0.7586 0.0585 1.0258
C26 C 0.8650(9) -0.0215(4) 1.0351(6)
H36 H 0.9017 -0.0250 1.1359
C27 C 0.8968(7) -0.0659(4) 0.9517(7)
C28 C 0.8399(10) -0.0628(4) 0.8055(7)
H37 H 0.8612 -0.0929 0.7489
C29 C 0.7470(9) -0.0124(3) 0.7409(7)
H38 H 0.7012 -0.0107 0.6400
C30 C 0.5773(7) 0.2395(3) 0.7640(6)
C31 C 0.3957(8) 0.3250(3) 0.6964(7)
C32 C 0.4978(9) 0.3665(4) 0.8102(8)
H39 H 0.5474 0.3444 0.8987
H40 H 0.4341 0.3982 0.8276
H41 H 0.5778 0.3835 0.7776
C33 C 0.3225(8) 0.3561(4) 0.5516(7)
H42 H 0.4045 0.3739 0.5230
H43 H 0.2515 0.3870 0.5599
H44 H 0.2651 0.3272 0.4797
C34 C 0.2691(9) 0.2946(4) 0.7416(10)
H45 H 0.2103 0.2671 0.6668
H46 H 0.1989 0.3246 0.7557
H47 H 0.3181 0.2730 0.8308
H48 H 0.624(4) 0.200(2) 0.617(2)
loop_
_geom_bond_atom_site_label_1
_geom_bond_atom_site_label_2
_geom_bond_site_symmetry_1
_geom_bond_site_symmetry_2
Br1 C10 1_555 1_555
N1 C1 1_555 1_555
O1 C13 1_555 1_555
O2 C13 1_555 1_555
C1 H1 1_555 1_555
C2 C1 1_555 1_555
H2 C2 1_555 1_555
C3 C2 1_555 1_555
H3 C3 1_555 1_555
C4 C3 1_555 1_555
H4 C4 1_555 1_555
H5 C4 1_555 1_555
C5 C1 1_555 1_555
H6 C5 1_555 1_555
H7 C5 1_555 1_555
C6 C5 1_555 1_555
H8 C6 1_555 1_555
H9 C6 1_555 1_555
H10 C6 1_555 1_555
C7 C2 1_555 1_555
C8 C7 1_555 1_555
H11 C8 1_555 1_555
C9 C8 1_555 1_555
H12 C9 1_555 1_555
C10 C9 1_555 1_555
C11 C10 1_555 1_555
H13 C11 1_555 1_555
C12 C7 1_555 1_555
H14 C12 1_555 1_555
C13 N1 1_555 1_555
C14 O2 1_555 1_555
C15 C14 1_555 1_555
H15 C15 1_555 1_555
H16 C15 1_555 1_555
H17 C15 1_555 1_555
C16 C14 1_555 1_555
H18 C16 1_555 1_555
H19 C16 1_555 1_555
H20 C16 1_555 1_555
C17 C14 1_555 1_555
H21 C17 1_555 1_555
H22 C17 1_555 1_555
H23 C17 1_555 1_555
H24 N1 1_555 1_555
Br2 C27 1_555 1_555
N2 C18 1_555 1_555
O3 C30 1_555 1_555
O4 C30 1_555 1_555
C18 H25 1_555 1_555
C19 C18 1_555 1_555
H26 C19 1_555 1_555
C20 C19 1_555 1_555
H27 C20 1_555 1_555
C21 C20 1_555 1_555
H28 C21 1_555 1_555
H29 C21 1_555 1_555
C22 C18 1_555 1_555
H30 C22 1_555 1_555
H31 C22 1_555 1_555
C23 C22 1_555 1_555
H32 C23 1_555 1_555
H33 C23 1_555 1_555
H34 C23 1_555 1_555
C24 C19 1_555 1_555
C25 C24 1_555 1_555
H35 C25 1_555 1_555
C26 C25 1_555 1_555
H36 C26 1_555 1_555
C27 C26 1_555 1_555
C28 C27 1_555 1_555
H37 C28 1_555 1_555
C29 C24 1_555 1_555
H38 C29 1_555 1_555
C30 N2 1_555 1_555
C31 O4 1_555 1_555
C32 C31 1_555 1_555
H39 C32 1_555 1_555
H40 C32 1_555 1_555
H41 C32 1_555 1_555
C33 C31 1_555 1_555
H42 C33 1_555 1_555
H43 C33 1_555 1_555
H44 C33 1_555 1_555
C34 C31 1_555 1_555
H45 C34 1_555 1_555
H46 C34 1_555 1_555
H47 C34 1_555 1_555
H48 N2 1_555 1_555
C11 C12 1_555 1_555
C28 C29 1_555 1_555

#END
