
#######################################################################
#
#                 Cambridge Crystallographic Data Centre
#                                CCDC 
#
#######################################################################
#
# If this CIF has been generated from an entry in the Cambridge 
# Structural Database, then it will include bibliographic, chemical, 
# crystal, experimental, refinement or atomic coordinate data resulting 
# from the CCDC's data processing and validation procedures.
#
#######################################################################

data_ZUPPOR
_chemical_formula_moiety         'C74 H82 N2 O8 S2'
_chemical_name_systematic        
5,12-bis(adamantan-1-ylsulfanyl)-2,9-bis(2,4-dibutoxybenzyl)isoquinolino[4',5',6':6,5,10]anthra[2,1,9-def]isoquinoline-1,3,8,10(2H,9H)-tetrone
_symmetry_cell_setting           monoclinic
_symmetry_space_group_name_H-M   'P 21/c'
_symmetry_Int_Tables_number      14
_space_group_name_Hall           '-P 2ybc'
loop_
_symmetry_equiv_pos_site_id
_symmetry_equiv_pos_as_xyz
1 x,y,z
2 -x,1/2+y,1/2-z
3 -x,-y,-z
4 x,1/2-y,1/2+z
_cell_length_a                   19.6220(10)
_cell_length_b                   20.8987(7)
_cell_length_c                   16.5571(10)
_cell_angle_alpha                90
_cell_angle_beta                 113.399(6)
_cell_angle_gamma                90
_cell_volume                     6231.27
_exptl_crystal_colour            red
_exptl_crystal_description       plate
_cell_formula_units_Z            4
loop_
_atom_site_label
_atom_site_type_symbol
_atom_site_fract_x
_atom_site_fract_y
_atom_site_fract_z
C1 C 0.4670(4) 0.6228(2) 0.1423(4)
C2 C 0.4094(3) 0.6258(2) 0.0575(3)
H1 H 0.4151 0.6036 0.0105
C3 C 0.3462(3) 0.6597(2) 0.0411(3)
C4 C 0.2701(3) 0.7260(2) 0.0950(3)
C5 C 0.2602(3) 0.7559(2) 0.1634(4)
H2 H 0.2183 0.7828 0.1519
C6 C 0.3115(3) 0.7468(2) 0.2499(4)
H3 H 0.3031 0.7661 0.2971
C7 C 0.4111(4) 0.6982(2) 0.4327(4)
C8 C 0.4696(3) 0.7033(2) 0.5158(3)
H4 H 0.4577 0.7066 0.5660
C9 C 0.5418(3) 0.7038(2) 0.5281(4)
C10 C 0.6352(4) 0.6912(2) 0.4660(4)
C11 C 0.6516(4) 0.6813(2) 0.3939(4)
H5 H 0.7018 0.6824 0.4002
C12 C 0.5954(3) 0.6696(2) 0.3110(3)
H6 H 0.6088 0.6611 0.2628
C13 C 0.5215(3) 0.6701(2) 0.2971(3)
C14 C 0.5032(3) 0.6872(2) 0.3698(3)
C15 C 0.5604(3) 0.6934(2) 0.4545(3)
C16 C 0.4281(3) 0.6972(2) 0.3588(3)
C17 C 0.3746(3) 0.7099(2) 0.2678(4)
C18 C 0.3909(3) 0.6861(2) 0.1974(3)
C19 C 0.3349(3) 0.6904(2) 0.1103(3)
C20 C 0.4610(3) 0.6579(2) 0.2112(3)
C21 C 0.2868(3) 0.6612(2) -0.0491(4)
O1 O 0.2933(3) 0.63350(19) -0.1104(3)
N1 N 0.2227(3) 0.6946(2) -0.0603(3)
C22 C 0.2117(3) 0.7310(3) 0.0050(4)
O2 O 0.1568(2) 0.7634(2) -0.0133(3)
C23 C 0.6011(3) 0.7136(2) 0.6153(4)
O3 O 0.5874(2) 0.72417(18) 0.6801(2)
N2 N 0.6739(3) 0.7102(2) 0.6233(3)
C24 C 0.6950(4) 0.6995(2) 0.5521(4)
O4 O 0.7606(3) 0.69745(18) 0.5659(3)
C25 C 0.1006(4) 0.6514(3) -0.1559(4)
C26 C 0.0261(4) 0.6712(3) -0.1883(4)
C27 C -0.0298(4) 0.6311(3) -0.1880(4)
H7 H -0.0797 0.6456 -0.2092
C28 C -0.0115(4) 0.5689(3) -0.1559(4)
C29 C 0.0605(4) 0.5473(3) -0.1287(4)
H8 H 0.0722 0.5042 -0.1103
C30 C 0.1154(4) 0.5885(3) -0.1281(4)
H9 H 0.1651 0.5733 -0.1080
C31 C 0.1622(3) 0.6969(3) -0.1489(3)
H10 H 0.1821 0.6855 -0.1934
H11 H 0.1422 0.7410 -0.1614
O5 O 0.0145(3) 0.7329(2) -0.2194(3)
C32 C -0.0564(4) 0.7612(3) -0.2369(5)
H12 H -0.0737 0.7493 -0.1903
H13 H -0.0935 0.7461 -0.2942
C33 C -0.0468(4) 0.8328(3) -0.2387(4)
H14 H -0.0959 0.8536 -0.2556
H15 H -0.0277 0.8435 -0.2841
C34 C 0.0058(4) 0.8596(3) -0.1510(4)
H16 H -0.0136 0.8492 -0.1057
H17 H 0.0547 0.8386 -0.1338
C35 C 0.0160(5) 0.9306(4) -0.1525(5)
H18 H 0.0504 0.9451 -0.0943
H19 H -0.0320 0.9519 -0.1681
H20 H 0.0363 0.9413 -0.1962
O6 O -0.0693(3) 0.5341(2) -0.1540(3)
C36 C -0.0544(4) 0.4699(3) -0.1222(5)
H21 H -0.0132 0.4693 -0.0632
H22 H -0.0396 0.4437 -0.1624
C37 C -0.1233(4) 0.4431(3) -0.1172(5)
H23 H -0.1642 0.4452 -0.1763
H24 H -0.1374 0.4700 -0.0771
C38 C -0.1140(5) 0.3742(3) -0.0848(5)
H25 H -0.0691 0.3711 -0.0295
H26 H -0.1573 0.3621 -0.0717
C39 C -0.1072(6) 0.3275(4) -0.1516(7)
H27 H -0.1013 0.2840 -0.1277
H28 H -0.0638 0.3387 -0.1639
H29 H -0.1520 0.3297 -0.2061
C40 C 0.7523(3) 0.7849(3) 0.7415(3)
C41 C 0.8017(3) 0.7946(3) 0.8284(4)
C42 C 0.8229(4) 0.8555(3) 0.8612(4)
H30 H 0.8563 0.8615 0.9206
C43 C 0.7947(4) 0.9080(3) 0.8062(4)
C44 C 0.7463(4) 0.8996(3) 0.7196(4)
H31 H 0.7273 0.9354 0.6820
C45 C 0.7258(4) 0.8372(3) 0.6885(4)
H32 H 0.6926 0.8311 0.6289
C46 C 0.7320(4) 0.7163(3) 0.7117(4)
H33 H 0.7771 0.6939 0.7136
H34 H 0.7154 0.6946 0.7539
O7 O 0.8253(2) 0.73963(19) 0.8759(2)
C47 C 0.8740(4) 0.7436(3) 0.9674(4)
H35 H 0.8536 0.7731 0.9989
H36 H 0.9236 0.7592 0.9742
C48 C 0.8791(4) 0.6765(3) 1.0028(4)
H37 H 0.9167 0.6756 1.0641
H38 H 0.8962 0.6475 0.9674
C49 C 0.8048(5) 0.6515(3) 1.0014(5)
H39 H 0.7887 0.6794 1.0388
H40 H 0.7667 0.6540 0.9405
C50 C 0.8096(6) 0.5830(3) 1.0337(5)
H41 H 0.7611 0.5696 1.0316
H42 H 0.8466 0.5802 1.0944
H43 H 0.8242 0.5549 0.9960
O8 O 0.8191(3) 0.96626(19) 0.8441(3)
C51 C 0.7972(5) 1.0211(3) 0.7878(4)
H44 H 0.7427 1.0269 0.7654
H45 H 0.8110 1.0152 0.7369
C52 C 0.8363(4) 1.0791(3) 0.8405(5)
H46 H 0.8172 1.1177 0.8040
H47 H 0.8237 1.0828 0.8926
C53 C 0.9188(4) 1.0777(3) 0.8710(4)
H48 H 0.9317 1.0638 0.8216
H49 H 0.9392 1.0456 0.9186
C54 C 0.9554(5) 1.1424(4) 0.9047(5)
H50 H 1.0093 1.1384 0.9239
H51 H 0.9438 1.1561 0.9544
H52 H 0.9366 1.1741 0.8574
S1 S 0.54247(9) 0.57091(6) 0.15427(9)
C55 C 0.5042(4) 0.4905(2) 0.1599(4)
C56 C 0.5642(4) 0.4454(3) 0.1576(4)
H53 H 0.6116 0.4545 0.2079
H54 H 0.5718 0.4521 0.1026
C57 C 0.4316(4) 0.4763(3) 0.0817(4)
H55 H 0.4384 0.4823 0.0260
H56 H 0.3924 0.5061 0.0818
C58 C 0.4944(4) 0.4816(3) 0.2454(4)
H57 H 0.4559 0.5114 0.2477
H58 H 0.5416 0.4912 0.2958
C59 C 0.4709(4) 0.4120(3) 0.2518(4)
H59 H 0.4641 0.4059 0.3081
C60 C 0.5309(4) 0.3660(3) 0.2488(4)
H60 H 0.5784 0.3745 0.2993
H61 H 0.5161 0.3213 0.2531
C61 C 0.5407(4) 0.3756(3) 0.1623(4)
H62 H 0.5801 0.3460 0.1604
C62 C 0.4680(4) 0.3616(3) 0.0854(4)
H63 H 0.4531 0.3167 0.0885
H64 H 0.4743 0.3673 0.0294
C63 C 0.4080(4) 0.4067(3) 0.0882(4)
H65 H 0.3600 0.3974 0.0376
C64 C 0.3986(4) 0.3976(3) 0.1743(5)
H66 H 0.3591 0.4265 0.1758
H67 H 0.3833 0.3530 0.1784
S2 S 0.32083(9) 0.68549(6) 0.42983(10)
C65 C 0.3157(4) 0.5970(3) 0.4305(4)
C66 C 0.2463(4) 0.5842(3) 0.4484(5)
H68 H 0.2025 0.6041 0.4018
H69 H 0.2522 0.6032 0.5056
C67 C 0.3829(4) 0.5670(3) 0.5035(4)
H70 H 0.3894 0.5859 0.5610
H71 H 0.4283 0.5758 0.4930
C68 C 0.3073(4) 0.5695(3) 0.3427(4)
H72 H 0.3525 0.5783 0.3318
H73 H 0.2645 0.5896 0.2950
C69 C 0.2950(5) 0.4968(3) 0.3434(4)
H74 H 0.2888 0.4782 0.2852
C70 C 0.3624(5) 0.4673(3) 0.4153(5)
H75 H 0.4074 0.4769 0.4044
H76 H 0.3565 0.4203 0.4152
C71 C 0.3709(4) 0.4946(3) 0.5050(4)
H77 H 0.4149 0.4747 0.5525
C72 C 0.3015(5) 0.4811(3) 0.5223(5)
H78 H 0.2938 0.4344 0.5233
H79 H 0.3076 0.4989 0.5802
C73 C 0.2346(4) 0.5117(3) 0.4502(5)
H80 H 0.1890 0.5029 0.4612
C74 C 0.2258(5) 0.4832(3) 0.3611(5)
H81 H 0.2179 0.4364 0.3615
H82 H 0.1818 0.5022 0.3138
loop_
_geom_bond_atom_site_label_1
_geom_bond_atom_site_label_2
_geom_bond_site_symmetry_1
_geom_bond_site_symmetry_2
C1 C2 1_555 1_555
C2 H1 1_555 1_555
C3 C2 1_555 1_555
C4 C5 1_555 1_555
C5 H2 1_555 1_555
C6 C5 1_555 1_555
H3 C6 1_555 1_555
C7 C8 1_555 1_555
C8 H4 1_555 1_555
C9 C8 1_555 1_555
C10 C11 1_555 1_555
C11 H5 1_555 1_555
C12 C11 1_555 1_555
H6 C12 1_555 1_555
C13 C12 1_555 1_555
C14 C13 1_555 1_555
C15 C9 1_555 1_555
C16 C7 1_555 1_555
C17 C6 1_555 1_555
C18 C17 1_555 1_555
C19 C3 1_555 1_555
C20 C1 1_555 1_555
C21 C3 1_555 1_555
O1 C21 1_555 1_555
N1 C21 1_555 1_555
C22 C4 1_555 1_555
O2 C22 1_555 1_555
C23 C9 1_555 1_555
O3 C23 1_555 1_555
N2 C23 1_555 1_555
C24 C10 1_555 1_555
O4 C24 1_555 1_555
C25 C26 1_555 1_555
C26 C27 1_555 1_555
C27 H7 1_555 1_555
C28 C27 1_555 1_555
C29 C28 1_555 1_555
H8 C29 1_555 1_555
C30 C25 1_555 1_555
H9 C30 1_555 1_555
C31 N1 1_555 1_555
H10 C31 1_555 1_555
H11 C31 1_555 1_555
O5 C26 1_555 1_555
C32 O5 1_555 1_555
H12 C32 1_555 1_555
H13 C32 1_555 1_555
C33 C32 1_555 1_555
H14 C33 1_555 1_555
H15 C33 1_555 1_555
C34 C33 1_555 1_555
H16 C34 1_555 1_555
H17 C34 1_555 1_555
C35 C34 1_555 1_555
H18 C35 1_555 1_555
H19 C35 1_555 1_555
H20 C35 1_555 1_555
O6 C28 1_555 1_555
C36 O6 1_555 1_555
H21 C36 1_555 1_555
H22 C36 1_555 1_555
C37 C36 1_555 1_555
H23 C37 1_555 1_555
H24 C37 1_555 1_555
C38 C37 1_555 1_555
H25 C38 1_555 1_555
H26 C38 1_555 1_555
C39 C38 1_555 1_555
H27 C39 1_555 1_555
H28 C39 1_555 1_555
H29 C39 1_555 1_555
C40 C41 1_555 1_555
C41 C42 1_555 1_555
C42 H30 1_555 1_555
C43 C42 1_555 1_555
C44 C43 1_555 1_555
H31 C44 1_555 1_555
C45 C40 1_555 1_555
H32 C45 1_555 1_555
C46 N2 1_555 1_555
H33 C46 1_555 1_555
H34 C46 1_555 1_555
O7 C41 1_555 1_555
C47 O7 1_555 1_555
H35 C47 1_555 1_555
H36 C47 1_555 1_555
C48 C47 1_555 1_555
H37 C48 1_555 1_555
H38 C48 1_555 1_555
C49 C48 1_555 1_555
H39 C49 1_555 1_555
H40 C49 1_555 1_555
C50 C49 1_555 1_555
H41 C50 1_555 1_555
H42 C50 1_555 1_555
H43 C50 1_555 1_555
O8 C43 1_555 1_555
C51 O8 1_555 1_555
H44 C51 1_555 1_555
H45 C51 1_555 1_555
C52 C51 1_555 1_555
H46 C52 1_555 1_555
H47 C52 1_555 1_555
C53 C52 1_555 1_555
H48 C53 1_555 1_555
H49 C53 1_555 1_555
C54 C53 1_555 1_555
H50 C54 1_555 1_555
H51 C54 1_555 1_555
H52 C54 1_555 1_555
S1 C1 1_555 1_555
C55 S1 1_555 1_555
C56 C55 1_555 1_555
H53 C56 1_555 1_555
H54 C56 1_555 1_555
C57 C55 1_555 1_555
H55 C57 1_555 1_555
H56 C57 1_555 1_555
C58 C55 1_555 1_555
H57 C58 1_555 1_555
H58 C58 1_555 1_555
C59 C58 1_555 1_555
H59 C59 1_555 1_555
C60 C59 1_555 1_555
H60 C60 1_555 1_555
H61 C60 1_555 1_555
C61 C56 1_555 1_555
H62 C61 1_555 1_555
C62 C61 1_555 1_555
H63 C62 1_555 1_555
H64 C62 1_555 1_555
C63 C57 1_555 1_555
H65 C63 1_555 1_555
C64 C59 1_555 1_555
H66 C64 1_555 1_555
H67 C64 1_555 1_555
S2 C7 1_555 1_555
C65 S2 1_555 1_555
C66 C65 1_555 1_555
H68 C66 1_555 1_555
H69 C66 1_555 1_555
C67 C65 1_555 1_555
H70 C67 1_555 1_555
H71 C67 1_555 1_555
C68 C65 1_555 1_555
H72 C68 1_555 1_555
H73 C68 1_555 1_555
C69 C68 1_555 1_555
H74 C69 1_555 1_555
C70 C69 1_555 1_555
H75 C70 1_555 1_555
H76 C70 1_555 1_555
C71 C67 1_555 1_555
H77 C71 1_555 1_555
C72 C71 1_555 1_555
H78 C72 1_555 1_555
H79 C72 1_555 1_555
C73 C66 1_555 1_555
H80 C73 1_555 1_555
C74 C69 1_555 1_555
H81 C74 1_555 1_555
H82 C74 1_555 1_555
C4 C19 1_555 1_555
C10 C15 1_555 1_555
C13 C20 1_555 1_555
C14 C15 1_555 1_555
C14 C16 1_555 1_555
C16 C17 1_555 1_555
C18 C19 1_555 1_555
C18 C20 1_555 1_555
N1 C22 1_555 1_555
N2 C24 1_555 1_555
C25 C31 1_555 1_555
C29 C30 1_555 1_555
C40 C46 1_555 1_555
C44 C45 1_555 1_555
C60 C61 1_555 1_555
C62 C63 1_555 1_555
C63 C64 1_555 1_555
C70 C71 1_555 1_555
C72 C73 1_555 1_555
C73 C74 1_555 1_555

#END
