
#######################################################################
#
#                 Cambridge Crystallographic Data Centre
#                                CCDC 
#
#######################################################################
#
# If this CIF has been generated from an entry in the Cambridge 
# Structural Database, then it will include bibliographic, chemical, 
# crystal, experimental, refinement or atomic coordinate data resulting 
# from the CCDC's data processing and validation procedures.
#
#######################################################################

data_ZUPPUX
_chemical_formula_moiety         'C74 H82 N2 O8 S2,C1 H1 Cl3'
_chemical_name_systematic        
"5,13-bis(adamantan-1-ylsulfanyl)-2,9-bis(2,4-dibutoxybenzyl)isoquinolino[4',5',6':6,5,10]anthra[2,1,9-def]isoquinoline-1,3,8,10(2H,9H)-tetrone chloroform solvate"
_symmetry_cell_setting           monoclinic
_symmetry_space_group_name_H-M   'P 21/c'
_symmetry_Int_Tables_number      14
_space_group_name_Hall           '-P 2ybc'
loop_
_symmetry_equiv_pos_site_id
_symmetry_equiv_pos_as_xyz
1 x,y,z
2 -x,1/2+y,1/2-z
3 -x,-y,-z
4 x,1/2-y,1/2+z
_cell_length_a                   20.9121(6)
_cell_length_b                   13.3093(3)
_cell_length_c                   24.3484(6)
_cell_angle_alpha                90
_cell_angle_beta                 107.082(3)
_cell_angle_gamma                90
_cell_volume                     6477.82
_exptl_crystal_colour            red
_exptl_crystal_description       plate
_cell_formula_units_Z            4
loop_
_atom_site_label
_atom_site_type_symbol
_atom_site_fract_x
_atom_site_fract_y
_atom_site_fract_z
C1 C 0.5083(3) 0.7664(4) 0.4500(2)
C2 C 0.5639(3) 0.7162(4) 0.4418(2)
H1 H 0.5791 0.6557 0.4622
C3 C 0.5969(3) 0.7530(4) 0.4047(2)
C4 C 0.6044(3) 0.8719(4) 0.3319(2)
C5 C 0.5832(3) 0.9596(4) 0.3025(2)
H2 H 0.6055 0.9826 0.2761
C6 C 0.5299(3) 1.0168(4) 0.3100(2)
C7 C 0.3942(3) 1.1007(4) 0.3160(2)
H3 H 0.4035 1.1125 0.2807
C8 C 0.3413(3) 1.1527(4) 0.3271(2)
H4 H 0.3149 1.1973 0.2991
C9 C 0.3273(3) 1.1396(4) 0.3786(2)
C10 C 0.3479(3) 1.0523(4) 0.4701(2)
C11 C 0.3819(3) 0.9811(4) 0.5081(2)
H5 H 0.3736 0.9740 0.5442
C12 C 0.4287(3) 0.9188(4) 0.4945(2)
H6 H 0.4511 0.8692 0.5214
C13 C 0.4435(2) 0.9278(4) 0.4421(2)
C14 C 0.4900(3) 0.8611(4) 0.4260(2)
C15 C 0.5195(3) 0.8958(4) 0.3822(2)
C16 C 0.5731(3) 0.8398(4) 0.3731(2)
C17 C 0.4940(3) 0.9836(4) 0.3478(2)
C18 C 0.4339(3) 1.0321(4) 0.3547(2)
C19 C 0.4134(3) 1.0086(4) 0.4050(2)
C20 C 0.3633(3) 1.0674(4) 0.4179(2)
C21 C 0.6551(3) 0.6974(4) 0.3983(2)
O1 O 0.68037(19) 0.6268(3) 0.42865(16)
N1 N 0.6802(2) 0.7271(3) 0.35286(19)
C22 C 0.6573(3) 0.8107(4) 0.3189(2)
O2 O 0.68053(19) 0.8324(3) 0.27972(16)
C23 C 0.2745(3) 1.2000(4) 0.3910(2)
O3 O 0.2405(2) 1.2597(3) 0.35709(17)
N2 N 0.2651(2) 1.1882(3) 0.44536(18)
C24 C 0.2976(3) 1.1159(4) 0.4851(2)
O4 O 0.28521(19) 1.1070(3) 0.53118(16)
C25 C 0.8031(3) 0.6995(4) 0.3726(2)
C26 C 0.8566(3) 0.6425(4) 0.3665(2)
C27 C 0.9225(3) 0.6680(4) 0.3934(3)
H7 H 0.9580 0.6269 0.3893
C28 C 0.9360(3) 0.7564(4) 0.4271(2)
C29 C 0.8840(3) 0.8131(5) 0.4328(2)
H8 H 0.8928 0.8722 0.4557
C30 C 0.8184(3) 0.7855(4) 0.4056(2)
H9 H 0.7831 0.8268 0.4098
C31 C 0.7330(3) 0.6659(4) 0.3416(2)
H10 H 0.7273 0.6665 0.2998
H11 H 0.7274 0.5956 0.3528
O5 O 0.8381(2) 0.5593(3) 0.33235(18)
C32 C 0.8892(3) 0.5033(5) 0.3178(3)
H12 H 0.9197 0.4722 0.3526
H13 H 0.9156 0.5480 0.3003
C33 C 0.8547(3) 0.4225(5) 0.2752(3)
H14 H 0.8892 0.3799 0.2664
H15 H 0.8281 0.3792 0.2934
C34 C 0.8090(4) 0.4638(6) 0.2195(3)
H16 H 0.8358 0.5053 0.2006
H17 H 0.7753 0.5080 0.2283
C35 C 0.7734(5) 0.3826(7) 0.1782(3)
H18 H 0.7450 0.4137 0.1430
H19 H 0.7456 0.3425 0.1961
H20 H 0.8064 0.3390 0.1688
O6 O 1.00252(19) 0.7747(3) 0.45226(18)
C36 C 1.0199(3) 0.8677(5) 0.4830(3)
H21 H 0.9989 0.8714 0.5145
H22 H 1.0040 0.9253 0.4569
C37 C 1.0951(3) 0.8705(6) 0.5071(3)
H23 H 1.1077 0.9290 0.5332
H24 H 1.1101 0.8092 0.5303
C38 C 1.1310(4) 0.8775(7) 0.4623(4)
H25 H 1.1172 0.9401 0.4401
H26 H 1.1171 0.8203 0.4354
C39 C 1.2070(3) 0.8767(6) 0.4864(3)
H27 H 1.2269 0.8820 0.4547
H28 H 1.2214 0.8139 0.5073
H29 H 1.2215 0.9338 0.5125
C40 C 0.1446(3) 1.2272(4) 0.4303(2)
C41 C 0.0949(3) 1.2954(5) 0.4333(3)
C42 C 0.0281(3) 1.2761(5) 0.4068(3)
H30 H -0.0050 1.3230 0.4096
C43 C 0.0096(3) 1.1868(5) 0.3757(3)
C44 C 0.0574(3) 1.1156(5) 0.3738(3)
H31 H 0.0448 1.0537 0.3542
C45 C 0.1245(3) 1.1372(5) 0.4015(3)
H32 H 0.1576 1.0887 0.4007
C46 C 0.2163(3) 1.2554(4) 0.4589(2)
H33 H 0.2239 1.3245 0.4472
H34 H 0.2242 1.2557 0.5010
O7 O 0.1184(2) 1.3795(4) 0.4663(3)
C47 C 0.0709(4) 1.4530(6) 0.4712(4)
H35 H 0.0387 1.4232 0.4894
H36 H 0.0457 1.4782 0.4327
C48 C 0.1092(5) 1.5385(7) 0.5080(4)
H37 H 0.1313 1.5130 0.5472
H38 H 0.0772 1.5915 0.5111
C49 C 0.1621(5) 1.5845(7) 0.4836(4)
H39 H 0.1834 1.6420 0.5080
H40 H 0.1973 1.5339 0.4852
C50 C 0.1342(6) 1.6202(9) 0.4225(5)
H41 H 0.1703 1.6489 0.4093
H42 H 0.1000 1.6716 0.4206
H43 H 0.1140 1.5634 0.3979
O8 O -0.0569(2) 1.1775(3) 0.3496(2)
C51 C -0.0789(3) 1.0924(5) 0.3124(3)
H44 H -0.0761 1.0302 0.3353
H45 H -0.0507 1.0842 0.2864
C52 C -0.1509(3) 1.1132(5) 0.2781(3)
H46 H -0.1676 1.0561 0.2518
H47 H -0.1521 1.1738 0.2543
C53 C -0.1980(3) 1.1292(5) 0.3149(3)
H48 H -0.1787 1.1809 0.3443
H49 H -0.2414 1.1548 0.2902
C54 C -0.2103(3) 1.0336(5) 0.3448(3)
H50 H -0.2405 1.0484 0.3678
H51 H -0.1676 1.0085 0.3699
H52 H -0.2305 0.9826 0.3159
S1 S 0.46355(6) 0.69430(10) 0.48868(5)
C55 C 0.4097(3) 0.6145(4) 0.4313(2)
C56 C 0.3484(3) 0.6718(5) 0.3963(3)
H53 H 0.3622 0.7272 0.3751
H54 H 0.3247 0.7013 0.4222
C57 C 0.3880(3) 0.5293(4) 0.4647(2)
H55 H 0.4279 0.4926 0.4881
H56 H 0.3643 0.5577 0.4909
C58 C 0.4465(3) 0.5682(4) 0.3915(2)
H57 H 0.4617 0.6221 0.3702
H58 H 0.4863 0.5309 0.4145
C59 C 0.3995(3) 0.4971(4) 0.3493(2)
H59 H 0.4235 0.4679 0.3230
C60 C 0.3382(3) 0.5554(5) 0.3136(2)
H60 H 0.3525 0.6099 0.2922
H61 H 0.3081 0.5098 0.2855
C61 C 0.3013(3) 0.5998(5) 0.3535(3)
H62 H 0.2609 0.6373 0.3304
C62 C 0.2797(3) 0.5137(5) 0.3869(3)
H63 H 0.2555 0.5416 0.4128
H64 H 0.2493 0.4672 0.3596
C63 C 0.3417(3) 0.4573(5) 0.4218(2)
H65 H 0.3277 0.4017 0.4434
C64 C 0.3776(3) 0.4128(4) 0.3813(2)
H66 H 0.4171 0.3740 0.4036
H67 H 0.3472 0.3668 0.3537
S2 S 0.51397(6) 1.12626(10) 0.26488(5)
C65 C 0.5688(3) 1.2228(4) 0.3084(2)
C66 C 0.5375(3) 1.2722(4) 0.3520(2)
H68 H 0.4922 1.2974 0.3318
H69 H 0.5335 1.2218 0.3808
C67 C 0.5733(3) 1.3021(4) 0.2635(2)
H70 H 0.5928 1.2715 0.2350
H71 H 0.5280 1.3270 0.2429
C68 C 0.6387(3) 1.1842(4) 0.3393(2)
H72 H 0.6586 1.1529 0.3113
H73 H 0.6360 1.1325 0.3678
C69 C 0.6828(3) 1.2721(5) 0.3699(3)
H74 H 0.7286 1.2466 0.3905
C70 C 0.6517(3) 1.3211(4) 0.4132(2)
H75 H 0.6493 1.2714 0.4429
H76 H 0.6799 1.3779 0.4327
C71 C 0.5817(3) 1.3587(4) 0.3820(2)
H77 H 0.5617 1.3900 0.4104
C72 C 0.5860(3) 1.4385(4) 0.3373(3)
H78 H 0.5408 1.4642 0.3171
H79 H 0.6140 1.4956 0.3566
C73 C 0.6172(3) 1.3895(4) 0.2938(2)
H80 H 0.6202 1.4407 0.2646
C74 C 0.6876(3) 1.3509(4) 0.3249(3)
H81 H 0.7163 1.4075 0.3441
H82 H 0.7078 1.3204 0.2969
C79 C 0.0902(5) 0.3122(7) 0.2745(4)
H92 H 0.1116 0.2660 0.3071
Cl1 Cl 0.14306(11) 0.32654(16) 0.23219(8)
Cl2 Cl 0.07305(18) 0.4280(2) 0.30234(11)
Cl3 Cl 0.01190(14) 0.2584(3) 0.23241(12)
O9? O 0.1198(12) 1.3910(18) 0.4446(13)
C75? C 0.0732(11) 1.4695(16) 0.4433(14)
H83? H 0.0498 1.4581 0.4727
H84? H 0.0395 1.4734 0.4051
C76? C 0.1146(14) 1.565(2) 0.4561(13)
H85? H 0.1361 1.5734 0.4251
H86? H 0.0831 1.6218 0.4528
C77? C 0.1665(15) 1.576(2) 0.5105(13)
H87? H 0.1956 1.6336 0.5085
H88? H 0.1945 1.5146 0.5186
C78? C 0.1349(19) 1.593(3) 0.5583(15)
H89? H 0.1701 1.6045 0.5945
H90? H 0.1089 1.5333 0.5621
H91? H 0.1053 1.6514 0.5492
loop_
_geom_bond_atom_site_label_1
_geom_bond_atom_site_label_2
_geom_bond_site_symmetry_1
_geom_bond_site_symmetry_2
C1 C2 1_555 1_555
C2 H1 1_555 1_555
C3 C2 1_555 1_555
C4 C5 1_555 1_555
C5 H2 1_555 1_555
C6 C5 1_555 1_555
C7 H3 1_555 1_555
C8 C7 1_555 1_555
H4 C8 1_555 1_555
C9 C8 1_555 1_555
C10 C11 1_555 1_555
C11 H5 1_555 1_555
C12 C11 1_555 1_555
H6 C12 1_555 1_555
C13 C12 1_555 1_555
C14 C1 1_555 1_555
C15 C14 1_555 1_555
C16 C3 1_555 1_555
C17 C6 1_555 1_555
C18 C7 1_555 1_555
C19 C13 1_555 1_555
C20 C9 1_555 1_555
C21 C3 1_555 1_555
O1 C21 1_555 1_555
N1 C21 1_555 1_555
C22 C4 1_555 1_555
O2 C22 1_555 1_555
C23 C9 1_555 1_555
O3 C23 1_555 1_555
N2 C23 1_555 1_555
C24 C10 1_555 1_555
O4 C24 1_555 1_555
C25 C26 1_555 1_555
C26 C27 1_555 1_555
C27 H7 1_555 1_555
C28 C27 1_555 1_555
C29 C28 1_555 1_555
H8 C29 1_555 1_555
C30 C25 1_555 1_555
H9 C30 1_555 1_555
C31 N1 1_555 1_555
H10 C31 1_555 1_555
H11 C31 1_555 1_555
O5 C26 1_555 1_555
C32 O5 1_555 1_555
H12 C32 1_555 1_555
H13 C32 1_555 1_555
C33 C32 1_555 1_555
H14 C33 1_555 1_555
H15 C33 1_555 1_555
C34 C33 1_555 1_555
H16 C34 1_555 1_555
H17 C34 1_555 1_555
C35 C34 1_555 1_555
H18 C35 1_555 1_555
H19 C35 1_555 1_555
H20 C35 1_555 1_555
O6 C28 1_555 1_555
C36 O6 1_555 1_555
H21 C36 1_555 1_555
H22 C36 1_555 1_555
C37 C36 1_555 1_555
H23 C37 1_555 1_555
H24 C37 1_555 1_555
C38 C37 1_555 1_555
H25 C38 1_555 1_555
H26 C38 1_555 1_555
C39 C38 1_555 1_555
H27 C39 1_555 1_555
H28 C39 1_555 1_555
H29 C39 1_555 1_555
C40 C41 1_555 1_555
C41 C42 1_555 1_555
C42 H30 1_555 1_555
C43 C42 1_555 1_555
C44 C43 1_555 1_555
H31 C44 1_555 1_555
C45 C40 1_555 1_555
H32 C45 1_555 1_555
C46 N2 1_555 1_555
H33 C46 1_555 1_555
H34 C46 1_555 1_555
O7 C41 1_555 1_555
C47 O7 1_555 1_555
H35 C47 1_555 1_555
H36 C47 1_555 1_555
C48 C47 1_555 1_555
H37 C48 1_555 1_555
H38 C48 1_555 1_555
C49 C48 1_555 1_555
H39 C49 1_555 1_555
H40 C49 1_555 1_555
C50 C49 1_555 1_555
H41 C50 1_555 1_555
H42 C50 1_555 1_555
H43 C50 1_555 1_555
O8 C43 1_555 1_555
C51 O8 1_555 1_555
H44 C51 1_555 1_555
H45 C51 1_555 1_555
C52 C51 1_555 1_555
H46 C52 1_555 1_555
H47 C52 1_555 1_555
C53 C52 1_555 1_555
H48 C53 1_555 1_555
H49 C53 1_555 1_555
C54 C53 1_555 1_555
H50 C54 1_555 1_555
H51 C54 1_555 1_555
H52 C54 1_555 1_555
S1 C1 1_555 1_555
C55 S1 1_555 1_555
C56 C55 1_555 1_555
H53 C56 1_555 1_555
H54 C56 1_555 1_555
C57 C55 1_555 1_555
H55 C57 1_555 1_555
H56 C57 1_555 1_555
C58 C55 1_555 1_555
H57 C58 1_555 1_555
H58 C58 1_555 1_555
C59 C58 1_555 1_555
H59 C59 1_555 1_555
C60 C59 1_555 1_555
H60 C60 1_555 1_555
H61 C60 1_555 1_555
C61 C56 1_555 1_555
H62 C61 1_555 1_555
C62 C61 1_555 1_555
H63 C62 1_555 1_555
H64 C62 1_555 1_555
C63 C57 1_555 1_555
H65 C63 1_555 1_555
C64 C59 1_555 1_555
H66 C64 1_555 1_555
H67 C64 1_555 1_555
S2 C6 1_555 1_555
C65 S2 1_555 1_555
C66 C65 1_555 1_555
H68 C66 1_555 1_555
H69 C66 1_555 1_555
C67 C65 1_555 1_555
H70 C67 1_555 1_555
H71 C67 1_555 1_555
C68 C65 1_555 1_555
H72 C68 1_555 1_555
H73 C68 1_555 1_555
C69 C68 1_555 1_555
H74 C69 1_555 1_555
C70 C69 1_555 1_555
H75 C70 1_555 1_555
H76 C70 1_555 1_555
C71 C66 1_555 1_555
H77 C71 1_555 1_555
C72 C71 1_555 1_555
H78 C72 1_555 1_555
H79 C72 1_555 1_555
C73 C67 1_555 1_555
H80 C73 1_555 1_555
C74 C69 1_555 1_555
H81 C74 1_555 1_555
H82 C74 1_555 1_555
C79 H92 1_555 1_555
Cl1 C79 1_555 1_555
Cl2 C79 1_555 1_555
Cl3 C79 1_555 1_555
C4 C16 1_555 1_555
C10 C20 1_555 1_555
C13 C14 1_555 1_555
C15 C16 1_555 1_555
C15 C17 1_555 1_555
C17 C18 1_555 1_555
C18 C19 1_555 1_555
C19 C20 1_555 1_555
N1 C22 1_555 1_555
N2 C24 1_555 1_555
C25 C31 1_555 1_555
C29 C30 1_555 1_555
C40 C46 1_555 1_555
C44 C45 1_555 1_555
C60 C61 1_555 1_555
C62 C63 1_555 1_555
C63 C64 1_555 1_555
C70 C71 1_555 1_555
C72 C73 1_555 1_555
C73 C74 1_555 1_555

#END
