
#######################################################################
#
#                 Cambridge Crystallographic Data Centre
#                                CCDC 
#
#######################################################################
#
# If this CIF has been generated from an entry in the Cambridge 
# Structural Database, then it will include bibliographic, chemical, 
# crystal, experimental, refinement or atomic coordinate data resulting 
# from the CCDC's data processing and validation procedures.
#
#######################################################################

data_ZUPPEH
_chemical_formula_moiety         'C27 H20 N2 O1'
_chemical_name_systematic        
N-(8-(4-methylphenyl)-1-naphthyl)quinoline-2-carboxamide
_symmetry_cell_setting           triclinic
_symmetry_space_group_name_H-M   'P -1'
_symmetry_Int_Tables_number      2
_space_group_name_Hall           '-P 1'
loop_
_symmetry_equiv_pos_site_id
_symmetry_equiv_pos_as_xyz
1 x,y,z
2 -x,-y,-z
_cell_length_a                   8.5453(7)
_cell_length_b                   12.4572(11)
_cell_length_c                   19.0765(16)
_cell_angle_alpha                95.307(2)
_cell_angle_beta                 98.940(2)
_cell_angle_gamma                96.754(2)
_cell_volume                     1979.37
_exptl_crystal_colour            yellow
_exptl_crystal_description       Prism
_cell_formula_units_Z            4
loop_
_atom_site_label
_atom_site_type_symbol
_atom_site_fract_x
_atom_site_fract_y
_atom_site_fract_z
O1 O 1.30861(12) 0.29788(9) 0.09163(6)
N1 N 1.06329(13) 0.21044(9) 0.03592(6)
H1 H 0.9629 0.2101 0.0368
N2 N 0.92870(13) 0.30041(9) 0.13977(6)
C1 C 0.69206(19) 0.52559(13) 0.04998(8)
H2 H 0.5914 0.5154 0.0665
H3 H 0.6939 0.5850 0.0213
H4 H 0.7771 0.5416 0.0902
C2 C 0.71361(16) 0.42362(12) 0.00604(7)
C3 C 0.62670(16) 0.32462(12) 0.01192(7)
H5 H 0.5442 0.3227 0.0386
C4 C 0.66094(16) 0.22826(12) -0.02140(7)
H6 H 0.6018 0.1626 -0.0164
C5 C 0.78293(15) 0.22874(11) -0.06221(7)
C6 C 0.86201(16) 0.32879(12) -0.07236(7)
H7 H 0.9392 0.3314 -0.1018
C7 C 0.82715(16) 0.42443(12) -0.03922(8)
H8 H 0.8803 0.4905 -0.0472
C8 C 0.82535(16) 0.12536(11) -0.09532(7)
C9 C 0.71253(17) 0.06424(12) -0.14772(8)
H9 H 0.6105 0.0844 -0.1566
C10 C 0.74658(19) -0.02753(12) -0.18812(8)
H10 H 0.6668 -0.0695 -0.2216
C11 C 0.89795(18) -0.05441(12) -0.17767(8)
H11 H 0.9227 -0.1122 -0.2065
C12 C 1.01798(17) 0.00409(11) -0.12374(7)
C13 C 0.98083(16) 0.09214(11) -0.07830(7)
C14 C 1.10267(16) 0.13856(11) -0.01839(7)
C15 C 1.25316(16) 0.10750(12) -0.01190(8)
H12 H 1.3321 0.1403 0.0256
C16 C 1.28911(17) 0.02695(12) -0.06110(8)
H13 H 1.3928 0.0096 -0.0572
C17 C 1.17406(17) -0.02602(12) -0.11435(8)
H14 H 1.1979 -0.0823 -0.1448
C18 C 1.16323(16) 0.27968(11) 0.08661(7)
C19 C 1.07903(16) 0.33861(11) 0.13943(7)
C20 C 1.16407(17) 0.42958(12) 0.18472(8)
H15 H 1.2703 0.4532 0.1823
C21 C 1.08667(18) 0.48216(12) 0.23222(8)
H16 H 1.1400 0.5425 0.2626
C22 C 0.92590(17) 0.44485(12) 0.23507(7)
C23 C 0.85022(16) 0.35264(11) 0.18721(7)
C24 C 0.68787(17) 0.31415(12) 0.18728(8)
H17 H 0.6377 0.2534 0.1564
C25 C 0.60456(18) 0.36601(13) 0.23261(8)
H18 H 0.4973 0.3411 0.2317
C26 C 0.6796(2) 0.45695(13) 0.28068(8)
H19 H 0.6217 0.4910 0.3116
C27 C 0.83645(19) 0.49533(13) 0.28222(8)
H20 H 0.8850 0.5550 0.3144
O2 O 0.34944(13) 0.58939(9) 0.36384(6)
N3 N 0.51152(13) 0.75194(9) 0.37777(6)
H21 H 0.5387 0.8121 0.4052
N4 N 0.41408(13) 0.81282(10) 0.49749(6)
C28 C 0.7009(2) 0.71515(14) 0.66611(8)
H22 H 0.7880 0.7430 0.7039
H23 H 0.6742 0.6383 0.6672
H24 H 0.6097 0.7510 0.6723
C29 C 0.74904(17) 0.73564(12) 0.59538(7)
C30 C 0.72722(17) 0.65199(12) 0.53984(7)
H25 H 0.6868 0.5821 0.5472
C31 C 0.76478(16) 0.67120(11) 0.47362(7)
H26 H 0.7505 0.6138 0.4374
C32 C 0.82349(15) 0.77509(11) 0.46059(7)
C33 C 0.84810(16) 0.85848(12) 0.51676(7)
H27 H 0.8895 0.9283 0.5096
C34 C 0.81178(17) 0.83881(12) 0.58322(7)
H28 H 0.8297 0.8955 0.6201
C35 C 0.86627(16) 0.79587(11) 0.38978(7)
C36 C 1.02309(17) 0.83571(12) 0.38866(8)
H29 H 1.0922 0.8561 0.4318
C37 C 1.08195(18) 0.84651(13) 0.32460(8)
H30 H 1.1878 0.8753 0.3256
C38 C 0.98323(19) 0.81460(13) 0.26097(8)
H31 H 1.0238 0.8186 0.2187
C39 C 0.81958(18) 0.77535(12) 0.25831(8)
C40 C 0.75684(16) 0.76937(11) 0.32355(7)
C41 C 0.58739(17) 0.73922(11) 0.31689(7)
C42 C 0.49410(18) 0.70688(12) 0.25127(8)
H32 H 0.3852 0.6851 0.2484
C43 C 0.5605(2) 0.70623(13) 0.18852(8)
H33 H 0.4969 0.6808 0.1447
C44 C 0.7184(2) 0.74291(13) 0.19191(8)
H34 H 0.7603 0.7467 0.1499
C45 C 0.40089(16) 0.67867(12) 0.39663(7)
C46 C 0.34600(16) 0.71669(12) 0.46526(7)
C47 C 0.22785(17) 0.64929(13) 0.49064(8)
H35 H 0.1819 0.5828 0.4652
C48 C 0.18271(18) 0.68401(13) 0.55343(9)
H36 H 0.1050 0.6411 0.5714
C49 C 0.25394(17) 0.78494(13) 0.59114(8)
C50 C 0.37093(16) 0.84751(12) 0.56100(8)
C51 C 0.44712(19) 0.94860(12) 0.59738(8)
H37 H 0.5230 0.9904 0.5777
C52 C 0.4088(2) 0.98487(14) 0.66186(8)
H38 H 0.4613 1.0504 0.6864
C53 C 0.2908(2) 0.92396(15) 0.69121(9)
H39 H 0.2639 0.9507 0.7343
C54 C 0.2159(2) 0.82640(15) 0.65728(9)
H40 H 0.1391 0.7866 0.6776
loop_
_geom_bond_atom_site_label_1
_geom_bond_atom_site_label_2
_geom_bond_site_symmetry_1
_geom_bond_site_symmetry_2
O1 C18 1_555 1_555
N1 H1 1_555 1_555
N2 C19 1_555 1_555
C1 H2 1_555 1_555
H3 C1 1_555 1_555
H4 C1 1_555 1_555
C2 C1 1_555 1_555
C3 C2 1_555 1_555
H5 C3 1_555 1_555
C4 C3 1_555 1_555
H6 C4 1_555 1_555
C5 C4 1_555 1_555
C6 C5 1_555 1_555
H7 C6 1_555 1_555
C7 C2 1_555 1_555
H8 C7 1_555 1_555
C8 C5 1_555 1_555
C9 C8 1_555 1_555
H9 C9 1_555 1_555
C10 C9 1_555 1_555
H10 C10 1_555 1_555
C11 C10 1_555 1_555
H11 C11 1_555 1_555
C12 C11 1_555 1_555
C13 C8 1_555 1_555
C14 N1 1_555 1_555
C15 C14 1_555 1_555
H12 C15 1_555 1_555
C16 C15 1_555 1_555
H13 C16 1_555 1_555
C17 C12 1_555 1_555
H14 C17 1_555 1_555
C18 N1 1_555 1_555
C19 C18 1_555 1_555
C20 C19 1_555 1_555
H15 C20 1_555 1_555
C21 C20 1_555 1_555
H16 C21 1_555 1_555
C22 C21 1_555 1_555
C23 N2 1_555 1_555
C24 C23 1_555 1_555
H17 C24 1_555 1_555
C25 C24 1_555 1_555
H18 C25 1_555 1_555
C26 C25 1_555 1_555
H19 C26 1_555 1_555
C27 C22 1_555 1_555
H20 C27 1_555 1_555
O2 C45 1_555 1_555
N3 H21 1_555 1_555
N4 C46 1_555 1_555
C28 H22 1_555 1_555
H23 C28 1_555 1_555
H24 C28 1_555 1_555
C29 C28 1_555 1_555
C30 C29 1_555 1_555
H25 C30 1_555 1_555
C31 C30 1_555 1_555
H26 C31 1_555 1_555
C32 C31 1_555 1_555
C33 C32 1_555 1_555
H27 C33 1_555 1_555
C34 C29 1_555 1_555
H28 C34 1_555 1_555
C35 C32 1_555 1_555
C36 C35 1_555 1_555
H29 C36 1_555 1_555
C37 C36 1_555 1_555
H30 C37 1_555 1_555
C38 C37 1_555 1_555
H31 C38 1_555 1_555
C39 C38 1_555 1_555
C40 C35 1_555 1_555
C41 N3 1_555 1_555
C42 C41 1_555 1_555
H32 C42 1_555 1_555
C43 C42 1_555 1_555
H33 C43 1_555 1_555
C44 C39 1_555 1_555
H34 C44 1_555 1_555
C45 N3 1_555 1_555
C46 C45 1_555 1_555
C47 C46 1_555 1_555
H35 C47 1_555 1_555
C48 C47 1_555 1_555
H36 C48 1_555 1_555
C49 C48 1_555 1_555
C50 N4 1_555 1_555
C51 C50 1_555 1_555
H37 C51 1_555 1_555
C52 C51 1_555 1_555
H38 C52 1_555 1_555
C53 C52 1_555 1_555
H39 C53 1_555 1_555
C54 C49 1_555 1_555
H40 C54 1_555 1_555
C6 C7 1_555 1_555
C12 C13 1_555 1_555
C13 C14 1_555 1_555
C16 C17 1_555 1_555
C22 C23 1_555 1_555
C26 C27 1_555 1_555
C33 C34 1_555 1_555
C39 C40 1_555 1_555
C40 C41 1_555 1_555
C43 C44 1_555 1_555
C49 C50 1_555 1_555
C53 C54 1_555 1_555

#END
