
#######################################################################
#
#                 Cambridge Crystallographic Data Centre
#                                CCDC 
#
#######################################################################
#
# If this CIF has been generated from an entry in the Cambridge 
# Structural Database, then it will include bibliographic, chemical, 
# crystal, experimental, refinement or atomic coordinate data resulting 
# from the CCDC's data processing and validation procedures.
#
#######################################################################

data_ZURCIA
_chemical_formula_moiety         'C26 H29 N1 O1,C1 H2 Cl2'
_chemical_name_systematic        
'2-((2,6-Di-isopropylphenyl)imino)-1-ethyl-1,2-dihydroacenaphthylen-1-ol dichloromethane solvate'
_symmetry_cell_setting           triclinic
_symmetry_space_group_name_H-M   'P -1'
_symmetry_Int_Tables_number      2
_space_group_name_Hall           '-P 1'
loop_
_symmetry_equiv_pos_site_id
_symmetry_equiv_pos_as_xyz
1 x,y,z
2 -x,-y,-z
_cell_length_a                   10.7614(7)
_cell_length_b                   11.2065(10)
_cell_length_c                   12.0353(13)
_cell_angle_alpha                110.492(9)
_cell_angle_beta                 103.284(7)
_cell_angle_gamma                101.698(7)
_cell_volume                     1257.75
_cell_formula_units_Z            2
loop_
_atom_site_label
_atom_site_type_symbol
_atom_site_fract_x
_atom_site_fract_y
_atom_site_fract_z
Cl1 Cl 0.23017(11) 0.15820(9) 0.94568(9)
Cl2 Cl 0.15417(11) 0.35095(12) 1.12486(10)
C1 C 0.2832(3) 0.3022(4) 1.0801(3)
H1 H 0.3377 0.3737 1.0678
H2 H 0.3397 0.2893 1.1475
O1 O 0.47640(12) 0.36551(14) 0.35021(13)
H3 H 0.4592 0.3719 0.4146
N1 N 0.62784(14) 0.64593(14) 0.45606(14)
C2 C 0.66701(17) 0.55521(17) 0.38977(16)
C3 C 0.61726(17) 0.40927(17) 0.37805(16)
C4 C 0.65530(19) 0.33165(18) 0.26735(18)
C5 C 0.6262(3) 0.1975(2) 0.1996(2)
H4 H 0.5701 0.1356 0.2159
C6 C 0.6841(3) 0.1548(3) 0.1033(2)
H5 H 0.6639 0.0634 0.0561
C7 C 0.7682(3) 0.2427(3) 0.0774(2)
H6 H 0.8056 0.2102 0.0150
C8 C 0.7985(2) 0.3819(2) 0.14426(19)
C9 C 0.73793(18) 0.42210(19) 0.23746(17)
C10 C 0.8791(2) 0.4868(3) 0.1275(2)
H7 H 0.9220 0.4661 0.0676
C11 C 0.8944(2) 0.6170(3) 0.1975(2)
H8 H 0.9492 0.6835 0.1851
C12 C 0.8308(2) 0.6555(2) 0.2882(2)
H9 H 0.8419 0.7454 0.3338
C13 C 0.68885(19) 0.3977(2) 0.49798(18)
H10 H 0.6652 0.4537 0.5667
H11 H 0.6550 0.3058 0.4869
C14 C 0.8410(2) 0.4371(3) 0.5352(2)
H12 H 0.8661 0.3814 0.4687
H13 H 0.8767 0.4255 0.6103
H14 H 0.8764 0.5292 0.5503
C15 C 0.6633(2) 0.77615(18) 0.45599(18)
C16 C 0.7708(2) 0.8785(2) 0.5565(2)
C17 C 0.8454(2) 0.8564(2) 0.6663(2)
H15 H 0.7959 0.7681 0.6575
C18 C 0.9860(3) 0.8535(4) 0.6647(3)
H16 H 0.9797 0.7844 0.5870
H17 H 1.0296 0.8357 0.7335
H18 H 1.0371 0.9386 0.6725
C19 C 0.8500(4) 0.9599(3) 0.7916(3)
H19 H 0.8956 1.0481 0.8019
H20 H 0.8972 0.9421 0.8590
H21 H 0.7601 0.9546 0.7925
C20 C 0.5863(2) 0.7992(2) 0.3592(2)
C21 C 0.4618(2) 0.6929(2) 0.2563(2)
H22 H 0.4459 0.6142 0.2755
C22 C 0.4805(3) 0.6493(3) 0.1281(3)
H23 H 0.4979 0.7249 0.1073
H24 H 0.4004 0.5811 0.0660
H25 H 0.5549 0.6142 0.1301
C23 C 0.3366(3) 0.7392(4) 0.2516(3)
H26 H 0.3231 0.7627 0.3317
H27 H 0.2595 0.6679 0.1882
H28 H 0.3488 0.8158 0.2319
C24 C 0.6270(3) 0.9251(3) 0.3596(3)
H29 H 0.5786 0.9422 0.2954
C25 C 0.7371(4) 1.0250(3) 0.4528(3)
H30 H 0.7645 1.1076 0.4496
C26 C 0.8062(3) 1.0028(2) 0.5499(3)
H31 H 0.8789 1.0721 0.6137
C27 C 0.75137(18) 0.55655(19) 0.30775(17)
loop_
_geom_bond_atom_site_label_1
_geom_bond_atom_site_label_2
_geom_bond_site_symmetry_1
_geom_bond_site_symmetry_2
Cl1 C1 1_555 1_555
Cl2 C1 1_555 1_555
C1 H1 1_555 1_555
H2 C1 1_555 1_555
O1 H3 1_555 1_555
N1 C2 1_555 1_555
C2 C3 1_555 1_555
C3 O1 1_555 1_555
C4 C3 1_555 1_555
C5 C4 1_555 1_555
H4 C5 1_555 1_555
C6 C5 1_555 1_555
H5 C6 1_555 1_555
C7 C6 1_555 1_555
H6 C7 1_555 1_555
C8 C7 1_555 1_555
C9 C4 1_555 1_555
C10 C8 1_555 1_555
H7 C10 1_555 1_555
C11 C10 1_555 1_555
H8 C11 1_555 1_555
C12 C11 1_555 1_555
H9 C12 1_555 1_555
C13 C3 1_555 1_555
H10 C13 1_555 1_555
H11 C13 1_555 1_555
C14 C13 1_555 1_555
H12 C14 1_555 1_555
H13 C14 1_555 1_555
H14 C14 1_555 1_555
C15 N1 1_555 1_555
C16 C15 1_555 1_555
C17 C16 1_555 1_555
H15 C17 1_555 1_555
C18 C17 1_555 1_555
H16 C18 1_555 1_555
H17 C18 1_555 1_555
H18 C18 1_555 1_555
C19 C17 1_555 1_555
H19 C19 1_555 1_555
H20 C19 1_555 1_555
H21 C19 1_555 1_555
C20 C15 1_555 1_555
C21 C20 1_555 1_555
H22 C21 1_555 1_555
C22 C21 1_555 1_555
H23 C22 1_555 1_555
H24 C22 1_555 1_555
H25 C22 1_555 1_555
C23 C21 1_555 1_555
H26 C23 1_555 1_555
H27 C23 1_555 1_555
H28 C23 1_555 1_555
C24 C20 1_555 1_555
H29 C24 1_555 1_555
C25 C24 1_555 1_555
H30 C25 1_555 1_555
C26 C16 1_555 1_555
H31 C26 1_555 1_555
C27 C2 1_555 1_555
C8 C9 1_555 1_555
C9 C27 1_555 1_555
C12 C27 1_555 1_555
C25 C26 1_555 1_555

#END
