
#######################################################################
#
#                 Cambridge Crystallographic Data Centre
#                                CCDC 
#
#######################################################################
#
# If this CIF has been generated from an entry in the Cambridge 
# Structural Database, then it will include bibliographic, chemical, 
# crystal, experimental, refinement or atomic coordinate data resulting 
# from the CCDC's data processing and validation procedures.
#
#######################################################################

data_ZURCAS
_chemical_name_common            
'(Rp,9S)-9-Hydroxy-1-(2-oxo-2-([2.2]paracyclophan-4-yl)ethyl)cinchonanium bromide ethanol solvate'
_chemical_formula_moiety         'C37 H39 N2 O2 1+,0.5(C2 H6 O1),Br1 1-'
_chemical_name_systematic        
'2-(9-Hydroxycinchonan-1-ium-1-yl)-1-(tricyclo[8.2.2.2^4,7^]hexadeca-1(12),4,6,10,13,15-hexaen-5-yl)ethanone bromide ethanol solvate'
_symmetry_cell_setting           orthorhombic
_symmetry_space_group_name_H-M   'P 21 21 21'
_symmetry_Int_Tables_number      19
_space_group_name_Hall           'P 2ac 2ab'
loop_
_symmetry_equiv_pos_site_id
_symmetry_equiv_pos_as_xyz
1 x,y,z
2 1/2-x,-y,1/2+z
3 -x,1/2+y,1/2-z
4 1/2+x,1/2-y,-z
_cell_length_a                   10.0742(3)
_cell_length_b                   10.5328(4)
_cell_length_c                   30.971(2)
_cell_angle_alpha                90
_cell_angle_beta                 90
_cell_angle_gamma                90
_cell_volume                     3286.32
_exptl_crystal_colour            colorless
_exptl_crystal_description       Block
_chemical_melting_point          '482-483 K'
_cell_formula_units_Z            4
_chemical_properties_physical    Hygroscopic
_exptl_crystal_recrystallization_method 'ethanol/ethyl acetate/hexane'
loop_
_atom_site_label
_atom_site_type_symbol
_atom_site_fract_x
_atom_site_fract_y
_atom_site_fract_z
Br1 Br 0.60383(12) 0.64324(9) 0.90176(4)
N1 N 0.0185(7) -0.2021(5) 0.91356(18)
O1 O 0.0284(7) -0.0384(5) 0.84160(17)
C1 C -0.0844(15) 0.0012(12) 0.7455(3)
H1 H -0.0586 0.0290 0.7169
H2 H -0.0175 -0.0581 0.7556
O2 O -0.0339(6) -0.0178(4) 0.98223(15)
H3 H -0.0694 0.0464 0.9917
N2 N 0.3413(7) 0.2938(5) 0.9944(2)
C2 C -0.0859(13) 0.1171(10) 0.7758(3)
H4 H -0.0014 0.1230 0.7907
H5 H -0.0974 0.1937 0.7588
C3 C -0.1966(12) 0.1076(8) 0.8087(3)
C4 C -0.2023(10) 0.0161(7) 0.8421(2)
C5 C -0.3293(10) -0.0225(7) 0.8567(2)
H6 H -0.3351 -0.0845 0.8780
C6 C -0.4441(10) 0.0288(8) 0.8404(3)
C7 C -0.4340(11) 0.1390(8) 0.8156(3)
H7 H -0.5092 0.1861 0.8088
C8 C -0.3096(12) 0.1772(8) 0.8014(3)
H8 H -0.3026 0.2531 0.7862
C9 C -0.5725(11) -0.0465(10) 0.8406(3)
H9 H -0.6465 0.0111 0.8447
H10 H -0.5714 -0.1055 0.8647
C10 C -0.5932(15) -0.1230(12) 0.7972(4)
H11 H -0.6198 -0.2091 0.8042
H12 H -0.6650 -0.0842 0.7810
C11 C -0.4728(17) -0.1279(12) 0.7693(4)
C12 C -0.3636(16) -0.2027(11) 0.7799(4)
H13 H -0.3768 -0.2757 0.7962
C13 C -0.2383(18) -0.1725(11) 0.7672(3)
H14 H -0.1685 -0.2252 0.7752
C14 C -0.2115(18) -0.0651(13) 0.7425(3)
C15 C -0.3248(18) -0.0071(13) 0.7240(4)
H15 H -0.3130 0.0533 0.7024
C16 C -0.4534(18) -0.0376(12) 0.7370(4)
H16 H -0.5258 0.0021 0.7242
C17 C -0.0870(10) -0.0526(7) 0.8570(2)
C18 C -0.1079(8) -0.1455(6) 0.8943(2)
H17 H -0.1559 -0.1020 0.9170
H18 H -0.1636 -0.2145 0.8842
C19 C 0.1204(8) -0.1034(6) 0.9305(2)
H19 H 0.1757 -0.0772 0.9061
C20 C 0.2086(7) -0.1748(6) 0.9618(3)
H20 H 0.1737 -0.1662 0.9909
H21 H 0.2971 -0.1385 0.9614
C21 C 0.2160(8) -0.3170(6) 0.9497(3)
H22 H 0.2926 -0.3585 0.9631
C22 C 0.0842(10) -0.3781(7) 0.9642(2)
H23 H 0.0734 -0.4577 0.9482
C23 C -0.0277(9) -0.2894(6) 0.9508(2)
H24 H -0.0546 -0.2381 0.9753
H25 H -0.1037 -0.3389 0.9415
C24 C 0.0913(10) -0.2870(7) 0.8815(2)
H26 H 0.0373 -0.3607 0.8748
H27 H 0.1073 -0.2408 0.8549
C25 C 0.2203(10) -0.3284(7) 0.9007(3)
H28 H 0.2916 -0.2761 0.8894
H29 H 0.2380 -0.4158 0.8927
C26 C 0.0551(8) 0.0157(6) 0.9489(2)
H30 H 0.0037 0.0556 0.9257
C27 C 0.2798(9) 0.2140(7) 1.0205(2)
H31 H 0.2962 0.2207 1.0500
C28 C 0.1918(9) 0.1204(7) 1.0066(2)
H32 H 0.1545 0.0647 1.0265
C29 C 0.1602(9) 0.1102(6) 0.9637(2)
C30 C 0.2252(8) 0.1930(6) 0.9340(2)
C31 C 0.2031(9) 0.1911(7) 0.8891(2)
H33 H 0.1423 0.1339 0.8776
C32 C 0.2704(10) 0.2730(7) 0.8620(3)
H34 H 0.2543 0.2713 0.8324
C33 C 0.3636(9) 0.3594(7) 0.8792(2)
H35 H 0.4104 0.4131 0.8609
C34 C 0.3854(9) 0.3644(7) 0.9229(2)
H36 H 0.4461 0.4223 0.9340
C35 C 0.3173(9) 0.2833(6) 0.9508(2)
C36 C 0.0764(9) -0.4087(7) 1.0116(2)
H37 H 0.0859 -0.3422 1.0310
C37 C 0.0571(10) -0.5226(8) 1.0272(3)
H38 H 0.0471 -0.5914 1.0087
H39 H 0.0533 -0.5348 1.0570
O3 O 0.8245(16) 0.5716(13) 0.8355(5)
H40 H 0.7750 0.6007 0.8540
C38 C 0.8246(18) 0.4460(17) 0.8379(6)
H41 H 0.8451 0.4120 0.8096
H42 H 0.7358 0.4179 0.8454
C39 C 0.915(2) 0.3943(18) 0.8680(7)
H43 H 0.9114 0.3033 0.8667
H44 H 0.8915 0.4219 0.8965
H45 H 1.0031 0.4225 0.8613
loop_
_geom_bond_atom_site_label_1
_geom_bond_atom_site_label_2
_geom_bond_site_symmetry_1
_geom_bond_site_symmetry_2
N1 C18 1_555 1_555
O1 C17 1_555 1_555
C1 H1 1_555 1_555
H2 C1 1_555 1_555
O2 H3 1_555 1_555
N2 C27 1_555 1_555
C2 C1 1_555 1_555
H4 C2 1_555 1_555
H5 C2 1_555 1_555
C3 C2 1_555 1_555
C4 C3 1_555 1_555
C5 C4 1_555 1_555
H6 C5 1_555 1_555
C6 C5 1_555 1_555
C7 C6 1_555 1_555
H7 C7 1_555 1_555
C8 C3 1_555 1_555
H8 C8 1_555 1_555
C9 C6 1_555 1_555
H9 C9 1_555 1_555
H10 C9 1_555 1_555
C10 C9 1_555 1_555
H11 C10 1_555 1_555
H12 C10 1_555 1_555
C11 C10 1_555 1_555
C12 C11 1_555 1_555
H13 C12 1_555 1_555
C13 C12 1_555 1_555
H14 C13 1_555 1_555
C14 C1 1_555 1_555
C15 C14 1_555 1_555
H15 C15 1_555 1_555
C16 C11 1_555 1_555
H16 C16 1_555 1_555
C17 C4 1_555 1_555
C18 C17 1_555 1_555
H17 C18 1_555 1_555
H18 C18 1_555 1_555
C19 N1 1_555 1_555
H19 C19 1_555 1_555
C20 C19 1_555 1_555
H20 C20 1_555 1_555
H21 C20 1_555 1_555
C21 C20 1_555 1_555
H22 C21 1_555 1_555
C22 C21 1_555 1_555
H23 C22 1_555 1_555
C23 N1 1_555 1_555
H24 C23 1_555 1_555
H25 C23 1_555 1_555
C24 N1 1_555 1_555
H26 C24 1_555 1_555
H27 C24 1_555 1_555
C25 C21 1_555 1_555
H28 C25 1_555 1_555
H29 C25 1_555 1_555
C26 O2 1_555 1_555
H30 C26 1_555 1_555
C27 H31 1_555 1_555
C28 C27 1_555 1_555
H32 C28 1_555 1_555
C29 C26 1_555 1_555
C30 C29 1_555 1_555
C31 C30 1_555 1_555
H33 C31 1_555 1_555
C32 C31 1_555 1_555
H34 C32 1_555 1_555
C33 C32 1_555 1_555
H35 C33 1_555 1_555
C34 C33 1_555 1_555
H36 C34 1_555 1_555
C35 N2 1_555 1_555
C36 C22 1_555 1_555
H37 C36 1_555 1_555
C37 C36 1_555 1_555
H38 C37 1_555 1_555
H39 C37 1_555 1_555
O3 H40 1_555 1_555
C38 O3 1_555 1_555
H41 C38 1_555 1_555
H42 C38 1_555 1_555
C39 C38 1_555 1_555
H43 C39 1_555 1_555
H44 C39 1_555 1_555
H45 C39 1_555 1_555
C7 C8 1_555 1_555
C13 C14 1_555 1_555
C15 C16 1_555 1_555
C19 C26 1_555 1_555
C22 C23 1_555 1_555
C24 C25 1_555 1_555
C28 C29 1_555 1_555
C30 C35 1_555 1_555
C34 C35 1_555 1_555

#END
