
#######################################################################
#
#                 Cambridge Crystallographic Data Centre
#                                CCDC 
#
#######################################################################
#
# If this CIF has been generated from an entry in the Cambridge 
# Structural Database, then it will include bibliographic, chemical, 
# crystal, experimental, refinement or atomic coordinate data resulting 
# from the CCDC's data processing and validation procedures.
#
#######################################################################

data_ZURCEW
_chemical_formula_moiety         'C25 H27 N1 O1'
_chemical_name_systematic        
2-((2,6-Di-isopropylphenyl)imino)-1-methyl-1,2-dihydroacenaphthylen-1-ol
_symmetry_cell_setting           triclinic
_symmetry_space_group_name_H-M   'P -1'
_symmetry_Int_Tables_number      2
_space_group_name_Hall           '-P 1'
loop_
_symmetry_equiv_pos_site_id
_symmetry_equiv_pos_as_xyz
1 x,y,z
2 -x,-y,-z
_cell_length_a                   8.6868(10)
_cell_length_b                   8.9781(12)
_cell_length_c                   14.0518(19)
_cell_angle_alpha                92.717(11)
_cell_angle_beta                 105.543(11)
_cell_angle_gamma                107.993(11)
_cell_volume                     994.014
_cell_formula_units_Z            2
loop_
_atom_site_label
_atom_site_type_symbol
_atom_site_fract_x
_atom_site_fract_y
_atom_site_fract_z
O1 O 0.32468(12) 0.85884(11) 0.51986(7)
H1 H 0.3483 0.8853 0.4690
N1 N 0.67759(13) 1.00092(12) 0.66541(7)
C1 C 0.56110(15) 0.87448(14) 0.66757(9)
C2 C 0.43104(16) 0.77461(14) 0.56830(9)
C3 C 0.52504(17) 0.72498(16) 0.50254(9)
H2 H 0.4447 0.6556 0.4443
H3 H 0.5963 0.6709 0.5391
H4 H 0.5935 0.8171 0.4827
C4 C 0.32565(16) 0.63449(15) 0.60535(9)
C5 C 0.19382(17) 0.50152(15) 0.55509(10)
H5 H 0.1559 0.4847 0.4857
C6 C 0.11621(17) 0.38984(16) 0.61090(11)
H6 H 0.0256 0.3003 0.5769
C7 C 0.17012(17) 0.40942(15) 0.71304(10)
H7 H 0.1157 0.3341 0.7472
C8 C 0.30927(16) 0.54464(15) 0.76719(10)
C9 C 0.38174(17) 0.58153(16) 0.87197(10)
H8 H 0.3367 0.5141 0.9133
C10 C 0.51882(17) 0.71699(17) 0.91302(10)
H9 H 0.5645 0.7384 0.9821
C11 C 0.59269(16) 0.82440(15) 0.85465(9)
H10 H 0.6857 0.9144 0.8845
C12 C 0.52370(15) 0.79282(14) 0.75223(9)
C13 C 0.38313(15) 0.65358(14) 0.71018(9)
C14 C 0.80541(15) 1.07883(14) 0.75738(9)
C15 C 0.94271(16) 1.02326(15) 0.79203(10)
C16 C 0.95969(17) 0.88796(16) 0.73066(11)
H11 H 0.8473 0.8066 0.7063
C17 C 1.0812(2) 0.81011(18) 0.78993(14)
H12 H 1.1947 0.8841 0.8097
H13 H 1.0758 0.7187 0.7491
H14 H 1.0494 0.7786 0.8482
C18 C 1.0118(2) 0.94423(19) 0.63925(12)
H15 H 0.9293 0.9848 0.5997
H16 H 1.0182 0.8571 0.6000
H17 H 1.1205 1.0261 0.6606
C19 C 1.06121(17) 1.09713(16) 0.88366(10)
H18 H 1.1518 1.0614 0.9088
C20 C 1.04715(17) 1.22257(17) 0.93810(10)
H19 H 1.1264 1.2686 0.9997
C21 C 0.91517(17) 1.27900(16) 0.90062(10)
H20 H 0.9076 1.3646 0.9368
C22 C 0.64685(17) 1.27061(15) 0.77033(10)
H21 H 0.5846 1.2166 0.7022
C23 C 0.79308(16) 1.20951(14) 0.80933(9)
C24 C 0.5249(2) 1.2304(2) 0.83310(14)
H22 H 0.4852 1.1181 0.8333
H23 H 0.4303 1.2650 0.8053
H24 H 0.5825 1.2829 0.9002
C25 C 0.7084(2) 1.44780(17) 0.76584(12)
H25 H 0.7632 1.5041 0.8323
H26 H 0.6135 1.4801 0.7348
H27 H 0.7874 1.4708 0.7276
loop_
_geom_bond_atom_site_label_1
_geom_bond_atom_site_label_2
_geom_bond_site_symmetry_1
_geom_bond_site_symmetry_2
O1 H1 1_555 1_555
N1 C1 1_555 1_555
C1 C2 1_555 1_555
C2 O1 1_555 1_555
C3 C2 1_555 1_555
H2 C3 1_555 1_555
H3 C3 1_555 1_555
H4 C3 1_555 1_555
C4 C2 1_555 1_555
C5 C4 1_555 1_555
H5 C5 1_555 1_555
C6 C5 1_555 1_555
H6 C6 1_555 1_555
C7 C6 1_555 1_555
H7 C7 1_555 1_555
C8 C7 1_555 1_555
C9 C8 1_555 1_555
H8 C9 1_555 1_555
C10 C9 1_555 1_555
H9 C10 1_555 1_555
C11 C10 1_555 1_555
H10 C11 1_555 1_555
C12 C1 1_555 1_555
C13 C4 1_555 1_555
C14 N1 1_555 1_555
C15 C14 1_555 1_555
C16 C15 1_555 1_555
H11 C16 1_555 1_555
C17 C16 1_555 1_555
H12 C17 1_555 1_555
H13 C17 1_555 1_555
H14 C17 1_555 1_555
C18 C16 1_555 1_555
H15 C18 1_555 1_555
H16 C18 1_555 1_555
H17 C18 1_555 1_555
C19 C15 1_555 1_555
H18 C19 1_555 1_555
C20 C19 1_555 1_555
H19 C20 1_555 1_555
C21 C20 1_555 1_555
H20 C21 1_555 1_555
C22 H21 1_555 1_555
C23 C14 1_555 1_555
C24 C22 1_555 1_555
H22 C24 1_555 1_555
H23 C24 1_555 1_555
H24 C24 1_555 1_555
C25 C22 1_555 1_555
H25 C25 1_555 1_555
H26 C25 1_555 1_555
H27 C25 1_555 1_555
C8 C13 1_555 1_555
C11 C12 1_555 1_555
C12 C13 1_555 1_555
C21 C23 1_555 1_555
C22 C23 1_555 1_555

#END
