
#######################################################################
#
#                 Cambridge Crystallographic Data Centre
#                                CCDC 
#
#######################################################################
#
# If this CIF has been generated from an entry in the Cambridge 
# Structural Database, then it will include bibliographic, chemical, 
# crystal, experimental, refinement or atomic coordinate data resulting 
# from the CCDC's data processing and validation procedures.
#
#######################################################################

data_ZURYES
_chemical_formula_moiety         'C34 H36 Br2 N4 O2'
_chemical_name_systematic        
6,7-Dibromo-1,12,17,17,26,26-hexamethyl-3,10-dioxa-31,32,33,34-tetra-azaheptacyclo[10.9.9.1^13,16^.1^18,21^.1^22,25^.1^27,30^.0^4,9^]tetratriaconta-4,6,8,13,15,18,20,22,24,27,29-undecaene
_symmetry_cell_setting           monoclinic
_symmetry_space_group_name_H-M   'C 2/c'
_symmetry_Int_Tables_number      15
_space_group_name_Hall           '-C 2yn'
loop_
_symmetry_equiv_pos_site_id
_symmetry_equiv_pos_as_xyz
1 x,y,z
2 -x,y,1/2-z
3 1/2+x,1/2+y,z
4 1/2-x,1/2+y,1/2-z
5 -x,-y,-z
6 x,-y,1/2+z
7 1/2-x,1/2-y,-z
8 1/2+x,1/2-y,1/2+z
_cell_length_a                   16.0463(14)
_cell_length_b                   12.8356(11)
_cell_length_c                   16.4379(14)
_cell_angle_alpha                90
_cell_angle_beta                 112.073(2)
_cell_angle_gamma                90
_cell_volume                     3137.47
_exptl_crystal_colour            colorless
_exptl_crystal_description       needle
_cell_formula_units_Z            4
loop_
_atom_site_label
_atom_site_type_symbol
_atom_site_fract_x
_atom_site_fract_y
_atom_site_fract_z
Br1 Br 0.03948(3) 0.04826(3) 0.36072(3)
O1 O 0.03346(17) 0.45587(18) 0.33500(15)
N1 N -0.0330(2) 0.6443(3) 0.3691(2)
C1 C 0.0879(3) 0.4621(3) 0.4269(2)
N2 N 0.1428(3) 0.6684(3) 0.3237(2)
C2 C 0.0170(2) 0.3604(3) 0.2961(2)
C3 C 0.0166(2) 0.1739(3) 0.2951(2)
C4 C -0.0840(3) 0.7315(3) 0.3661(3)
C5 C 0.0327(3) 0.2666(3) 0.3407(3)
C6 C 0.0501(4) 0.7416(4) 0.4778(3)
H1 H 0.0974 0.7668 0.5265
C7 C 0.1752(3) 0.6025(3) 0.3930(3)
C8 C 0.0487(3) 0.6503(3) 0.4367(2)
C9 C 0.1983(3) 0.6764(3) 0.2778(3)
C10 C 0.1229(3) 0.5731(3) 0.4495(2)
C11 C -0.0326(4) 0.7919(4) 0.4339(3)
H2 H -0.0492 0.8562 0.4490
C12 C -0.1774(3) 0.7460(3) 0.3002(3)
C13 C 0.2546(3) 0.5679(3) 0.3921(4)
H3 H 0.2935 0.5219 0.4323
C14 C 0.2685(3) 0.6133(4) 0.3203(4)
H4 H 0.3178 0.6017 0.3047
C15 C 0.1865(3) 0.5723(4) 0.5466(3)
H5 H 0.2111 0.6408 0.5634
H6 H 0.2345 0.5238 0.5547
H7 H 0.1537 0.5520 0.5822
H8 H -0.052(2) 0.596(3) 0.336(2)
H9 H 0.102(3) 0.701(3) 0.314(3)
C16 C -0.1872(4) 0.8608(4) 0.2702(4)
H10 H -0.1490 0.8740 0.2384
H11 H -0.1703 0.9055 0.3206
H12 H -0.2486 0.8743 0.2329
C17 C -0.2438(4) 0.7256(5) 0.3455(4)
H13 H -0.3033 0.7452 0.3069
H14 H -0.2267 0.7660 0.3985
H15 H -0.2431 0.6530 0.3595
H16 H 0.059(3) 0.438(3) 0.461(3)
H17 H 0.053(3) 0.268(3) 0.398(3)
H18 H 0.139(3) 0.414(3) 0.440(2)
Br1A Br -0.03948(3) 0.04826(3) 0.13928(3)
O1A O -0.03346(17) 0.45587(18) 0.16500(15)
N1A N 0.0330(2) 0.6443(3) 0.1309(2)
C1A C -0.0879(3) 0.4621(3) 0.0731(2)
N2A N -0.1428(3) 0.6684(3) 0.1763(2)
C2A C -0.0170(2) 0.3604(3) 0.2039(2)
C3A C -0.0166(2) 0.1739(3) 0.2049(2)
C4A C 0.0840(3) 0.7315(3) 0.1339(3)
C5A C -0.0327(3) 0.2666(3) 0.1593(3)
C6A C -0.0501(4) 0.7416(4) 0.0222(3)
H1A H -0.0974 0.7668 -0.0265
C7A C -0.1752(3) 0.6025(3) 0.1070(3)
C8A C -0.0487(3) 0.6503(3) 0.0633(2)
C9A C -0.1983(3) 0.6764(3) 0.2222(3)
C10A C -0.1229(3) 0.5731(3) 0.0505(2)
C11A C 0.0326(4) 0.7919(4) 0.0661(3)
H2A H 0.0492 0.8562 0.0510
C12A C 0.1774(3) 0.7460(3) 0.1998(3)
C13A C -0.2546(3) 0.5679(3) 0.1079(4)
H3A H -0.2935 0.5219 0.0677
C14A C -0.2685(3) 0.6133(4) 0.1797(4)
H4A H -0.3178 0.6017 0.1953
C15A C -0.1865(3) 0.5723(4) -0.0466(3)
H5A H -0.2111 0.6408 -0.0634
H6A H -0.2345 0.5238 -0.0547
H7A H -0.1537 0.5520 -0.0822
H8A H 0.052(2) 0.596(3) 0.164(2)
H9A H -0.102(3) 0.701(3) 0.186(3)
C16A C 0.1872(4) 0.8608(4) 0.2298(4)
H10A H 0.1490 0.8740 0.2616
H11A H 0.1703 0.9055 0.1794
H12A H 0.2486 0.8743 0.2671
C17A C 0.2438(4) 0.7256(5) 0.1545(4)
H13A H 0.3033 0.7452 0.1931
H14A H 0.2267 0.7660 0.1015
H15A H 0.2431 0.6530 0.1405
H16A H -0.059(3) 0.438(3) 0.039(3)
H17A H -0.053(3) 0.268(3) 0.102(3)
H18A H -0.139(3) 0.414(3) 0.060(2)
loop_
_geom_bond_atom_site_label_1
_geom_bond_atom_site_label_2
_geom_bond_site_symmetry_1
_geom_bond_site_symmetry_2
Br1 C3 1_555 1_555
O1 C1 1_555 1_555
N1 C4 1_555 1_555
C1 C10 1_555 1_555
N2 C7 1_555 1_555
C2 O1 1_555 1_555
C3 C5 1_555 1_555
C4 C11 1_555 1_555
C5 C2 1_555 1_555
C6 H1 1_555 1_555
C7 C10 1_555 1_555
C8 N1 1_555 1_555
C9 N2 1_555 1_555
C10 C8 1_555 1_555
C11 C6 1_555 1_555
H2 C11 1_555 1_555
C12 C4 1_555 1_555
C13 C7 1_555 1_555
H3 C13 1_555 1_555
C14 C9 1_555 1_555
H4 C14 1_555 1_555
C15 C10 1_555 1_555
H5 C15 1_555 1_555
H6 C15 1_555 1_555
H7 C15 1_555 1_555
H8 N1 1_555 1_555
H9 N2 1_555 1_555
C16 C12 1_555 1_555
H10 C16 1_555 1_555
H11 C16 1_555 1_555
H12 C16 1_555 1_555
C17 C12 1_555 1_555
H13 C17 1_555 1_555
H14 C17 1_555 1_555
H15 C17 1_555 1_555
H16 C1 1_555 1_555
H17 C5 1_555 1_555
H18 C1 1_555 1_555
Br1A C3A 1_555 1_555
O1A C1A 1_555 1_555
N1A C4A 1_555 1_555
C1A C10A 1_555 1_555
N2A C7A 1_555 1_555
C2A C2 1_555 1_555
C3A C3 1_555 1_555
C4A C11A 1_555 1_555
C5A C2A 1_555 1_555
C6A H1A 1_555 1_555
C7A C10A 1_555 1_555
C8A N1A 1_555 1_555
C9A C12 1_555 1_555
C10A C8A 1_555 1_555
C11A C6A 1_555 1_555
H2A C11A 1_555 1_555
C12A C9 1_555 1_555
C13A C7A 1_555 1_555
H3A C13A 1_555 1_555
C14A C9A 1_555 1_555
H4A C14A 1_555 1_555
C15A C10A 1_555 1_555
H5A C15A 1_555 1_555
H6A C15A 1_555 1_555
H7A C15A 1_555 1_555
H8A N1A 1_555 1_555
H9A N2A 1_555 1_555
C16A C12A 1_555 1_555
H10A C16A 1_555 1_555
H11A C16A 1_555 1_555
H12A C16A 1_555 1_555
C17A C12A 1_555 1_555
H13A C17A 1_555 1_555
H14A C17A 1_555 1_555
H15A C17A 1_555 1_555
H16A C1A 1_555 1_555
H17A C5A 1_555 1_555
H18A C1A 1_555 1_555
C6 C8 1_555 1_555
C13 C14 1_555 1_555
O1A C2A 1_555 1_555
N2A C9A 1_555 1_555
C3A C5A 1_555 1_555
C4A C12A 1_555 1_555
C6A C8A 1_555 1_555
C13A C14A 1_555 1_555

#END
