
#######################################################################
#
#                 Cambridge Crystallographic Data Centre
#                                CCDC 
#
#######################################################################
#
# If this CIF has been generated from an entry in the Cambridge 
# Structural Database, then it will include bibliographic, chemical, 
# crystal, experimental, refinement or atomic coordinate data resulting 
# from the CCDC's data processing and validation procedures.
#
#######################################################################

data_ZUSCAT
_chemical_formula_moiety         'C40 H34 Br1 N3 O3'
_chemical_name_systematic        
"Ethyl anilino(1,1'-dibenzyl-5-bromo-2'-oxo-1',2'-dihydro-1H,3'H-3,3'-biindol-3'-yl)acetate"
_symmetry_cell_setting           orthorhombic
_symmetry_space_group_name_H-M   'P 21 21 21'
_symmetry_Int_Tables_number      19
_space_group_name_Hall           'P 2ac 2ab'
loop_
_symmetry_equiv_pos_site_id
_symmetry_equiv_pos_as_xyz
1 x,y,z
2 1/2-x,-y,1/2+z
3 -x,1/2+y,1/2-z
4 1/2+x,1/2-y,-z
_cell_length_a                   12.8306(6)
_cell_length_b                   13.8096(6)
_cell_length_c                   19.0540(9)
_cell_angle_alpha                90
_cell_angle_beta                 90
_cell_angle_gamma                90
_cell_volume                     3376.09
_exptl_crystal_colour            colorless
_exptl_crystal_description       block
_cell_formula_units_Z            4
loop_
_atom_site_label
_atom_site_type_symbol
_atom_site_fract_x
_atom_site_fract_y
_atom_site_fract_z
Br1 Br 0.07682(5) 0.16831(5) 0.06276(3)
O1 O -0.3118(3) -0.1530(3) 0.2603(2)
O2 O -0.1735(3) -0.1238(3) 0.1901(2)
O3 O -0.1567(3) 0.2026(2) 0.27646(18)
N1 N -0.2121(3) 0.1662(3) 0.38711(19)
N2 N 0.0857(3) -0.0808(3) 0.3197(2)
N3 N -0.3493(3) 0.0494(3) 0.2586(2)
H1 H -0.3744 0.0527 0.3004
C1 C 0.2629(2) -0.0889(3) 0.3690(2)
C2 C 0.3580(3) -0.1326(3) 0.35441(19)
H2 H 0.3598 -0.1936 0.3338
C3 C 0.4504(2) -0.0851(4) 0.3706(2)
H3 H 0.5141 -0.1143 0.3609
C4 C 0.4477(3) 0.0061(4) 0.4014(2)
H4 H 0.5096 0.0379 0.4123
C5 C 0.3526(4) 0.0499(3) 0.4160(2)
H5 H 0.3507 0.1109 0.4366
C6 C 0.2601(3) 0.0024(3) 0.3998(2)
H6 H 0.1965 0.0316 0.4095
C7 C -0.4093(3) 0.0828(3) 0.2024(2)
C8 C -0.5135(4) 0.1087(4) 0.2157(3)
H7 H -0.5408 0.1012 0.2606
C9 C -0.5751(4) 0.1448(4) 0.1634(3)
H8 H -0.6436 0.1622 0.1732
C10 C -0.5375(5) 0.1555(5) 0.0973(3)
H9 H -0.5803 0.1793 0.0619
C11 C -0.4351(5) 0.1309(5) 0.0829(3)
H10 H -0.4084 0.1393 0.0379
C12 C -0.3726(4) 0.0936(4) 0.1357(2)
H11 H -0.3045 0.0757 0.1254
C13 C -0.3403(4) 0.2957(4) 0.4119(3)
C14 C -0.3805(6) 0.3471(6) 0.4672(3)
H12 H -0.3388 0.3623 0.5055
C15 C -0.4840(7) 0.3764(6) 0.4654(4)
H13 H -0.5118 0.4102 0.5033
C16 C -0.5448(6) 0.3565(5) 0.4095(4)
H14 H -0.6137 0.3774 0.4087
C17 C -0.5060(5) 0.3064(5) 0.3549(4)
H15 H -0.5479 0.2918 0.3165
C18 C -0.4023(5) 0.2767(5) 0.3565(3)
H16 H -0.3752 0.2428 0.3184
C19 C -0.1795(3) 0.1435(4) 0.3212(3)
C20 C -0.1761(3) 0.0330(3) 0.3137(2)
C21 C -0.2248(3) 0.0011(4) 0.3830(2)
C22 C -0.2504(4) -0.0888(4) 0.4090(3)
H17 H -0.2361 -0.1445 0.3834
C23 C -0.2989(4) -0.0948(5) 0.4754(3)
H18 H -0.3164 -0.1552 0.4935
C24 C -0.3203(4) -0.0133(6) 0.5132(3)
H19 H -0.3535 -0.0190 0.5564
C25 C -0.2938(4) 0.0770(5) 0.4887(2)
H20 H -0.3072 0.1322 0.5152
C26 C -0.2459(3) 0.0838(4) 0.4227(2)
C27 C -0.0130(3) -0.0627(4) 0.3459(2)
H21 H -0.0394 -0.0893 0.3871
C28 C 0.1629(4) -0.1427(4) 0.3519(3)
H22 H 0.1787 -0.1959 0.3203
H23 H 0.1344 -0.1700 0.3947
C29 C -0.0670(3) -0.0004(3) 0.3030(2)
C30 C 0.0033(3) 0.0227(3) 0.2461(2)
C31 C 0.0968(3) -0.0300(3) 0.2579(2)
C32 C 0.1784(4) -0.0263(4) 0.2123(3)
H24 H 0.2386 -0.0618 0.2210
C33 C 0.1706(4) 0.0301(4) 0.1539(3)
H25 H 0.2249 0.0312 0.1217
C34 C 0.0830(4) 0.0855(4) 0.1421(2)
C35 C -0.0023(4) 0.0824(4) 0.1871(2)
H26 H -0.0615 0.1192 0.1782
C36 C -0.2257(4) 0.2646(4) 0.4129(3)
H27 H -0.1854 0.3086 0.3839
H28 H -0.1994 0.2688 0.4605
C37 C -0.2460(3) 0.0093(3) 0.2485(2)
H29 H -0.2150 0.0404 0.2072
C38 C -0.2508(5) -0.0990(5) 0.2350(3)
C39 C -0.1590(6) -0.2292(5) 0.1823(5)
H30 H -0.1544 -0.2597 0.2280
H31 H -0.2173 -0.2572 0.1571
C40 C -0.0630(6) -0.2437(6) 0.1434(5)
H32 H -0.0501 -0.3118 0.1383
H33 H -0.0062 -0.2143 0.1684
H34 H -0.0691 -0.2146 0.0979
loop_
_geom_bond_atom_site_label_1
_geom_bond_atom_site_label_2
_geom_bond_site_symmetry_1
_geom_bond_site_symmetry_2
Br1 C34 1_555 1_555
O1 C38 1_555 1_555
O2 C38 1_555 1_555
O3 C19 1_555 1_555
N1 C19 1_555 1_555
N2 C27 1_555 1_555
N3 H1 1_555 1_555
C1 C2 1_555 1_555
C2 H2 1_555 1_555
C3 C2 1_555 1_555
H3 C3 1_555 1_555
C4 C3 1_555 1_555
H4 C4 1_555 1_555
C5 C4 1_555 1_555
H5 C5 1_555 1_555
C6 C1 1_555 1_555
H6 C6 1_555 1_555
C7 N3 1_555 1_555
C8 C7 1_555 1_555
H7 C8 1_555 1_555
C9 C8 1_555 1_555
H8 C9 1_555 1_555
C10 C9 1_555 1_555
H9 C10 1_555 1_555
C11 C10 1_555 1_555
H10 C11 1_555 1_555
C12 C7 1_555 1_555
H11 C12 1_555 1_555
C13 C14 1_555 1_555
C14 H12 1_555 1_555
C15 C14 1_555 1_555
H13 C15 1_555 1_555
C16 C15 1_555 1_555
H14 C16 1_555 1_555
C17 C16 1_555 1_555
H15 C17 1_555 1_555
C18 C13 1_555 1_555
H16 C18 1_555 1_555
C19 C20 1_555 1_555
C20 C21 1_555 1_555
C21 C22 1_555 1_555
C22 H17 1_555 1_555
C23 C22 1_555 1_555
H18 C23 1_555 1_555
C24 C23 1_555 1_555
H19 C24 1_555 1_555
C25 C24 1_555 1_555
H20 C25 1_555 1_555
C26 N1 1_555 1_555
C27 H21 1_555 1_555
C28 N2 1_555 1_555
H22 C28 1_555 1_555
H23 C28 1_555 1_555
C29 C20 1_555 1_555
C30 C29 1_555 1_555
C31 N2 1_555 1_555
C32 C31 1_555 1_555
H24 C32 1_555 1_555
C33 C32 1_555 1_555
H25 C33 1_555 1_555
C34 C33 1_555 1_555
C35 C30 1_555 1_555
H26 C35 1_555 1_555
C36 N1 1_555 1_555
H27 C36 1_555 1_555
H28 C36 1_555 1_555
C37 N3 1_555 1_555
H29 C37 1_555 1_555
C38 C37 1_555 1_555
C39 O2 1_555 1_555
H30 C39 1_555 1_555
H31 C39 1_555 1_555
C40 C39 1_555 1_555
H32 C40 1_555 1_555
H33 C40 1_555 1_555
H34 C40 1_555 1_555
C1 C28 1_555 1_555
C5 C6 1_555 1_555
C11 C12 1_555 1_555
C13 C36 1_555 1_555
C17 C18 1_555 1_555
C20 C37 1_555 1_555
C21 C26 1_555 1_555
C25 C26 1_555 1_555
C27 C29 1_555 1_555
C30 C31 1_555 1_555
C34 C35 1_555 1_555

#END
