
#######################################################################
#
#                 Cambridge Crystallographic Data Centre
#                                CCDC 
#
#######################################################################
#
# If this CIF has been generated from an entry in the Cambridge 
# Structural Database, then it will include bibliographic, chemical, 
# crystal, experimental, refinement or atomic coordinate data resulting 
# from the CCDC's data processing and validation procedures.
#
#######################################################################

data_ZUSCOH
_chemical_formula_moiety         'C18 H20 O5'
_chemical_name_systematic        
'Dimethyl 11-methyl-14-oxatricyclo[9.2.1.0^3,8^]tetradeca-3,5,7,9-tetraene-12,12-dicarboxylate'
_symmetry_cell_setting           monoclinic
_symmetry_space_group_name_H-M   'P 21/c'
_symmetry_Int_Tables_number      14
_space_group_name_Hall           '-P 2ybc'
loop_
_symmetry_equiv_pos_site_id
_symmetry_equiv_pos_as_xyz
1 x,y,z
2 -x,1/2+y,1/2-z
3 -x,-y,-z
4 x,1/2-y,1/2+z
_cell_length_a                   10.526(2)
_cell_length_b                   19.394(4)
_cell_length_c                   7.8119(16)
_cell_angle_alpha                90
_cell_angle_beta                 96.58(3)
_cell_angle_gamma                90
_cell_volume                     1584.23
_cell_formula_units_Z            4
loop_
_atom_site_label
_atom_site_type_symbol
_atom_site_fract_x
_atom_site_fract_y
_atom_site_fract_z
O1 O 0.53368(8) 0.17242(4) 0.26294(10)
O2 O 0.80493(9) 0.21140(5) 0.42074(12)
O3 O 0.84002(8) 0.11027(5) 0.55953(11)
O4 O 0.87903(10) 0.02953(5) 0.19649(14)
O5 O 0.74471(8) -0.01126(4) 0.37575(12)
C1 C 0.55132(11) 0.09881(6) 0.50710(15)
H1 H 0.5942 0.1369 0.5727
H2 H 0.5860 0.0549 0.5533
H3 H 0.4593 0.1006 0.5166
C2 C 0.57371(11) 0.10507(6) 0.31797(15)
C3 C 0.49662(11) 0.04950(6) 0.21615(15)
H4 H 0.5342 0.0049 0.2173
C4 C 0.38174(12) 0.05624(6) 0.12508(16)
H5 H 0.3431 0.0142 0.0845
C5 C 0.30475(11) 0.11921(6) 0.07716(15)
C6 C 0.17690(12) 0.12106(7) 0.11110(16)
H6 H 0.1422 0.0831 0.1671
C7 C 0.10021(12) 0.17800(7) 0.06348(17)
H7 H 0.0147 0.1796 0.0911
C8 C 0.14874(13) 0.23250(7) -0.02441(17)
H8 H 0.0963 0.2712 -0.0576
C9 C 0.27416(12) 0.23034(7) -0.06382(16)
H9 H 0.3065 0.2673 -0.1257
C10 C 0.35320(11) 0.17429(6) -0.01332(15)
C11 C 0.48934(11) 0.17186(6) -0.05521(15)
H10 H 0.5003 0.2059 -0.1468
H11 H 0.5072 0.1255 -0.1000
C12 C 0.58650(11) 0.18757(6) 0.10414(15)
H12 H 0.6089 0.2377 0.1030
C13 C 0.71076(11) 0.14520(6) 0.11097(16)
H13 H 0.7857 0.1758 0.1073
H14 H 0.7069 0.1125 0.0131
C14 C 0.71896(11) 0.10618(6) 0.28377(15)
C15 C 0.79291(11) 0.14960(6) 0.42626(16)
C16 C 0.89900(13) 0.14706(7) 0.71018(17)
H15 H 0.9708 0.1746 0.6785
H16 H 0.9302 0.1139 0.7999
H17 H 0.8358 0.1776 0.7537
C17 C 0.78958(11) 0.03728(6) 0.27751(16)
C18 C 0.81832(13) -0.07468(7) 0.39152(19)
H18 H 0.8192 -0.0956 0.2774
H19 H 0.7793 -0.1068 0.4671
H20 H 0.9062 -0.0645 0.4407
loop_
_geom_bond_atom_site_label_1
_geom_bond_atom_site_label_2
_geom_bond_site_symmetry_1
_geom_bond_site_symmetry_2
O1 C2 1_555 1_555
O2 C15 1_555 1_555
O3 C15 1_555 1_555
O4 C17 1_555 1_555
O5 C17 1_555 1_555
C1 H1 1_555 1_555
H2 C1 1_555 1_555
H3 C1 1_555 1_555
C2 C1 1_555 1_555
C3 C2 1_555 1_555
H4 C3 1_555 1_555
C4 C3 1_555 1_555
H5 C4 1_555 1_555
C5 C4 1_555 1_555
C6 C5 1_555 1_555
H6 C6 1_555 1_555
C7 C6 1_555 1_555
H7 C7 1_555 1_555
C8 C7 1_555 1_555
H8 C8 1_555 1_555
C9 C8 1_555 1_555
H9 C9 1_555 1_555
C10 C5 1_555 1_555
C11 C10 1_555 1_555
H10 C11 1_555 1_555
H11 C11 1_555 1_555
C12 O1 1_555 1_555
H12 C12 1_555 1_555
C13 C12 1_555 1_555
H13 C13 1_555 1_555
H14 C13 1_555 1_555
C14 C2 1_555 1_555
C15 C14 1_555 1_555
C16 O3 1_555 1_555
H15 C16 1_555 1_555
H16 C16 1_555 1_555
H17 C16 1_555 1_555
C17 C14 1_555 1_555
C18 O5 1_555 1_555
H18 C18 1_555 1_555
H19 C18 1_555 1_555
H20 C18 1_555 1_555
C9 C10 1_555 1_555
C11 C12 1_555 1_555
C13 C14 1_555 1_555

#END
