
#######################################################################
#
#                 Cambridge Crystallographic Data Centre
#                                CCDC 
#
#######################################################################
#
# If this CIF has been generated from an entry in the Cambridge 
# Structural Database, then it will include bibliographic, chemical, 
# crystal, experimental, refinement or atomic coordinate data resulting 
# from the CCDC's data processing and validation procedures.
#
#######################################################################

data_ZUSDEY
_chemical_formula_moiety         'C24 H20 N2 O2 S2'
_chemical_name_systematic        
"9'-methyl-4'-phenyl-4',9'-dihydro-3'H-spiro[1,2-benzothiazole-3,2'-thiopyrano[2,3-b]indole] 1,1-dioxide"
_symmetry_cell_setting           monoclinic
_symmetry_space_group_name_H-M   'P 21/c'
_symmetry_Int_Tables_number      14
_space_group_name_Hall           '-P 2ybc'
loop_
_symmetry_equiv_pos_site_id
_symmetry_equiv_pos_as_xyz
1 x,y,z
2 -x,1/2+y,1/2-z
3 -x,-y,-z
4 x,1/2-y,1/2+z
_cell_length_a                   8.3103(4)
_cell_length_b                   22.0934(10)
_cell_length_c                   11.8386(6)
_cell_angle_alpha                90
_cell_angle_beta                 104.267(5)
_cell_angle_gamma                90
_cell_volume                     2106.56
_exptl_crystal_colour            colorless
_exptl_crystal_description       block
_cell_formula_units_Z            4
loop_
_atom_site_label
_atom_site_type_symbol
_atom_site_fract_x
_atom_site_fract_y
_atom_site_fract_z
S1 S 0.79854(7) 0.49413(2) 0.08017(5)
S2 S 1.04080(6) 0.57003(2) 0.35635(4)
O1 O 1.18684(18) 0.56308(7) 0.31519(14)
O2 O 1.0673(2) 0.58091(8) 0.47873(13)
N1 N 0.7765(2) 0.37424(8) 0.03101(15)
N2 N 0.9092(2) 0.51411(8) 0.31796(16)
C1 C 0.7694(2) 0.52595(9) 0.21814(17)
C2 C 0.6086(3) 0.50227(9) 0.24247(19)
H1 H 0.5175 0.5089 0.1732
H2 H 0.5842 0.5257 0.3065
C3 C 0.6146(2) 0.43450(9) 0.27457(18)
H3 H 0.7008 0.4292 0.3482
C4 C 0.4491(2) 0.41641(9) 0.29732(18)
C5 C 0.4298(3) 0.41700(10) 0.4101(2)
H4 H 0.5192 0.4285 0.4719
C6 C 0.2800(3) 0.40072(11) 0.4326(2)
H5 H 0.2682 0.4013 0.5096
C7 C 0.1487(3) 0.38376(10) 0.3435(2)
H6 H 0.0476 0.3722 0.3593
C8 C 0.1655(3) 0.38368(10) 0.2313(2)
H7 H 0.0753 0.3724 0.1699
C9 C 0.3144(3) 0.40008(10) 0.2080(2)
H8 H 0.3245 0.4002 0.1306
C10 C 0.6650(2) 0.39734(9) 0.18237(17)
C11 C 0.7406(2) 0.41962(9) 0.10102(18)
C12 C 0.7225(2) 0.32045(9) 0.06826(19)
C13 C 0.7266(3) 0.26220(10) 0.0228(2)
H9 H 0.7743 0.2547 -0.0400
C14 C 0.6575(3) 0.21637(10) 0.0741(2)
H10 H 0.6570 0.1767 0.0452
C15 C 0.5884(3) 0.22741(10) 0.1676(2)
H11 H 0.5428 0.1950 0.2008
C16 C 0.5851(3) 0.28489(10) 0.2130(2)
H12 H 0.5382 0.2916 0.2765
C17 C 0.6526(2) 0.33300(9) 0.16277(18)
C18 C 0.8510(3) 0.38131(12) -0.0664(2)
H13 H 0.9536 0.3584 -0.0519
H14 H 0.8744 0.4238 -0.0758
H15 H 0.7751 0.3665 -0.1368
C19 C 0.7711(2) 0.59380(9) 0.19997(17)
C20 C 0.6571(3) 0.62739(10) 0.1186(2)
H16 H 0.5650 0.6085 0.0689
C21 C 0.6809(3) 0.68859(10) 0.1119(2)
H17 H 0.6049 0.7115 0.0564
C22 C 0.8153(3) 0.71727(10) 0.1857(2)
H18 H 0.8280 0.7594 0.1805
C23 C 0.9303(3) 0.68441(10) 0.2663(2)
H19 H 1.0221 0.7033 0.3162
C24 C 0.9057(2) 0.62282(9) 0.27113(18)
loop_
_geom_bond_atom_site_label_1
_geom_bond_atom_site_label_2
_geom_bond_site_symmetry_1
_geom_bond_site_symmetry_2
S1 C1 1_555 1_555
S2 O1 1_555 1_555
O2 S2 1_555 1_555
N1 C11 1_555 1_555
N2 S2 1_555 1_555
C1 N2 1_555 1_555
C2 C1 1_555 1_555
H1 C2 1_555 1_555
H2 C2 1_555 1_555
C3 C2 1_555 1_555
H3 C3 1_555 1_555
C4 C3 1_555 1_555
C5 C4 1_555 1_555
H4 C5 1_555 1_555
C6 C5 1_555 1_555
H5 C6 1_555 1_555
C7 C6 1_555 1_555
H6 C7 1_555 1_555
C8 C7 1_555 1_555
H7 C8 1_555 1_555
C9 C4 1_555 1_555
H8 C9 1_555 1_555
C10 C3 1_555 1_555
C11 S1 1_555 1_555
C12 N1 1_555 1_555
C13 C12 1_555 1_555
H9 C13 1_555 1_555
C14 C13 1_555 1_555
H10 C14 1_555 1_555
C15 C14 1_555 1_555
H11 C15 1_555 1_555
C16 C15 1_555 1_555
H12 C16 1_555 1_555
C17 C10 1_555 1_555
C18 N1 1_555 1_555
H13 C18 1_555 1_555
H14 C18 1_555 1_555
H15 C18 1_555 1_555
C19 C1 1_555 1_555
C20 C19 1_555 1_555
H16 C20 1_555 1_555
C21 C20 1_555 1_555
H17 C21 1_555 1_555
C22 C21 1_555 1_555
H18 C22 1_555 1_555
C23 C22 1_555 1_555
H19 C23 1_555 1_555
C24 S2 1_555 1_555
C8 C9 1_555 1_555
C10 C11 1_555 1_555
C12 C17 1_555 1_555
C16 C17 1_555 1_555
C19 C24 1_555 1_555
C23 C24 1_555 1_555

#END
