
#######################################################################
#
#                 Cambridge Crystallographic Data Centre
#                                CCDC 
#
#######################################################################
#
# If this CIF has been generated from an entry in the Cambridge 
# Structural Database, then it will include bibliographic, chemical, 
# crystal, experimental, refinement or atomic coordinate data resulting 
# from the CCDC's data processing and validation procedures.
#
#######################################################################

data_ZUSFAW
_chemical_formula_moiety         'C22 H35 N1 O3'
_chemical_name_systematic        
3-(1-(but-2-en-2-yl)-3-hydroxy-7-methyl-3,4,4a,5,8,8a-hexahydro-1H-isochromen-3-yl)-5-isobutylpyrrolidin-2-one
_symmetry_cell_setting           orthorhombic
_symmetry_space_group_name_H-M   'P 21 21 21'
_symmetry_Int_Tables_number      19
_space_group_name_Hall           'P 2ac 2ab'
loop_
_symmetry_equiv_pos_site_id
_symmetry_equiv_pos_as_xyz
1 x,y,z
2 1/2-x,-y,1/2+z
3 1/2+x,1/2-y,-z
4 -x,1/2+y,1/2-z
_cell_length_a                   6.212(2)
_cell_length_b                   12.231(3)
_cell_length_c                   28.133(7)
_cell_angle_alpha                90
_cell_angle_beta                 90
_cell_angle_gamma                90
_cell_volume                     2137.52
_exptl_crystal_colour            colorless
_exptl_crystal_description       prism
_cell_formula_units_Z            4
loop_
_atom_site_label
_atom_site_type_symbol
_atom_site_fract_x
_atom_site_fract_y
_atom_site_fract_z
N1 N 0.7203(2) -0.23870(11) 0.23997(4)
H1 H 0.6796 -0.2973 0.2543
O1 O 0.51411(15) -0.03749(8) 0.15206(3)
O2 O 0.41888(18) 0.05746(8) 0.22059(3)
H2 H 0.3869 0.0078 0.2389
O3 O 0.43199(19) -0.13444(9) 0.26237(4)
C1 C 0.6979(3) 0.29431(12) 0.12275(5)
H3 H 0.7171 0.3464 0.1484
H4 H 0.8395 0.2712 0.1123
C2 C 0.5843(3) 0.34940(12) 0.08233(5)
H5 H 0.6283 0.4194 0.0739
C3 C 0.4240(3) 0.30405(12) 0.05772(5)
C4 C 0.3455(2) 0.18955(12) 0.06787(5)
H6 H 0.3295 0.1507 0.0380
H7 H 0.2046 0.1937 0.0826
C5 C 0.3824(2) 0.02130(11) 0.11866(4)
H8 H 0.2475 0.0423 0.1342
C6 C 0.5921(2) 0.02360(11) 0.19120(4)
C7 C 0.7098(2) 0.12582(12) 0.17488(5)
H9 H 0.8417 0.1048 0.1589
H10 H 0.7485 0.1692 0.2024
C8 C 0.4953(2) 0.12469(11) 0.10012(4)
H11 H 0.6206 0.1021 0.0814
C9 C 0.5744(2) 0.19479(11) 0.14149(4)
H12 H 0.4484 0.2211 0.1591
C10 C 0.7377(2) -0.05537(12) 0.21887(5)
H13 H 0.8129 -0.0138 0.2436
C11 C 0.9066(3) -0.11839(12) 0.18956(5)
H14 H 1.0460 -0.0831 0.1918
H15 H 0.8645 -0.1215 0.1564
C12 C 0.9160(3) -0.23446(12) 0.21100(5)
H16 H 1.0435 -0.2419 0.2313
C13 C 0.6101(3) -0.14612(12) 0.24269(5)
C14 C 0.9106(3) -0.32662(14) 0.17420(6)
H17 H 0.9072 -0.3958 0.1911
H18 H 0.7772 -0.3207 0.1565
C15 C 1.0954(3) -0.33004(14) 0.13893(6)
H19 H 1.1071 -0.2577 0.1242
C16 C 1.3057(4) -0.3552(3) 0.16247(9)
H20 H 1.4179 -0.3567 0.1390
H21 H 1.2970 -0.4251 0.1778
H22 H 1.3371 -0.2999 0.1857
C17 C 1.0524(4) -0.4131(2) 0.09971(8)
H23 H 1.1713 -0.4137 0.0779
H24 H 0.9232 -0.3934 0.0831
H25 H 1.0357 -0.4844 0.1135
C18 C 0.3333(2) -0.05869(11) 0.07928(4)
C19 C 0.5219(2) -0.11923(14) 0.05897(6)
H26 H 0.4731 -0.1679 0.0344
H27 H 0.5908 -0.1607 0.0836
H28 H 0.6226 -0.0680 0.0458
C20 C 0.1349(2) -0.07084(12) 0.06280(5)
H29 H 0.0264 -0.0306 0.0774
C21 C 0.0714(3) -0.14488(14) 0.02229(5)
H30 H -0.0810 -0.1396 0.0171
H31 H 0.1083 -0.2190 0.0300
H32 H 0.1463 -0.1231 -0.0060
C22 C 0.3100(3) 0.36189(15) 0.01806(6)
H33 H 0.3697 0.4337 0.0142
H34 H 0.1595 0.3676 0.0255
H35 H 0.3276 0.3213 -0.0109
loop_
_geom_bond_atom_site_label_1
_geom_bond_atom_site_label_2
_geom_bond_site_symmetry_1
_geom_bond_site_symmetry_2
N1 H1 1_555 1_555
O1 C5 1_555 1_555
O2 H2 1_555 1_555
O3 C13 1_555 1_555
C1 H3 1_555 1_555
H4 C1 1_555 1_555
C2 C1 1_555 1_555
H5 C2 1_555 1_555
C3 C2 1_555 1_555
C4 C3 1_555 1_555
H6 C4 1_555 1_555
H7 C4 1_555 1_555
C5 H8 1_555 1_555
C6 O1 1_555 1_555
C7 C6 1_555 1_555
H9 C7 1_555 1_555
H10 C7 1_555 1_555
C8 C4 1_555 1_555
H11 C8 1_555 1_555
C9 C1 1_555 1_555
H12 C9 1_555 1_555
C10 C6 1_555 1_555
H13 C10 1_555 1_555
C11 C10 1_555 1_555
H14 C11 1_555 1_555
H15 C11 1_555 1_555
C12 N1 1_555 1_555
H16 C12 1_555 1_555
C13 N1 1_555 1_555
C14 C12 1_555 1_555
H17 C14 1_555 1_555
H18 C14 1_555 1_555
C15 C14 1_555 1_555
H19 C15 1_555 1_555
C16 C15 1_555 1_555
H20 C16 1_555 1_555
H21 C16 1_555 1_555
H22 C16 1_555 1_555
C17 C15 1_555 1_555
H23 C17 1_555 1_555
H24 C17 1_555 1_555
H25 C17 1_555 1_555
C18 C5 1_555 1_555
C19 C18 1_555 1_555
H26 C19 1_555 1_555
H27 C19 1_555 1_555
H28 C19 1_555 1_555
C20 C18 1_555 1_555
H29 C20 1_555 1_555
C21 C20 1_555 1_555
H30 C21 1_555 1_555
H31 C21 1_555 1_555
H32 C21 1_555 1_555
C22 C3 1_555 1_555
H33 C22 1_555 1_555
H34 C22 1_555 1_555
H35 C22 1_555 1_555
O2 C6 1_555 1_555
C5 C8 1_555 1_555
C7 C9 1_555 1_555
C8 C9 1_555 1_555
C10 C13 1_555 1_555
C11 C12 1_555 1_555

#END
