
#######################################################################
#
#                 Cambridge Crystallographic Data Centre
#                                CCDC 
#
#######################################################################
#
# If this CIF has been generated from an entry in the Cambridge 
# Structural Database, then it will include bibliographic, chemical, 
# crystal, experimental, refinement or atomic coordinate data resulting 
# from the CCDC's data processing and validation procedures.
#
#######################################################################

data_ZUSLIK
_chemical_formula_moiety         'C5 Cl5 N1'
_chemical_name_systematic        pentachloropyridine
_symmetry_cell_setting           monoclinic
_symmetry_space_group_name_H-M   'P c'
_symmetry_Int_Tables_number      7
_space_group_name_Hall           'P -2yc'
loop_
_symmetry_equiv_pos_site_id
_symmetry_equiv_pos_as_xyz
1 x,y,z
2 x,-y,1/2+z
_cell_length_a                   5.3191(16)
_cell_length_b                   5.1827(16)
_cell_length_c                   14.894(5)
_cell_angle_alpha                90
_cell_angle_beta                 99.704(5)
_cell_angle_gamma                90
_cell_volume                     404.713
_exptl_crystal_colour            colorless
_exptl_crystal_description       plate
_cell_formula_units_Z            2
loop_
_atom_site_label
_atom_site_type_symbol
_atom_site_fract_x
_atom_site_fract_y
_atom_site_fract_z
Cl1 Cl 0.1125(2) 0.6767(3) 0.33176(9)
Cl2 Cl 0.5279(2) 1.1081(3) 0.32354(8)
Cl3 Cl 0.9619(3) 1.1754(2) 0.49192(10)
Cl4 Cl 0.9719(2) 0.8141(3) 0.66042(9)
Cl5 Cl 0.5366(3) 0.3961(3) 0.65471(9)
C1 C 0.3565(10) 0.7238(10) 0.4211(3)
C2 C 0.5379(12) 0.9144(11) 0.4172(4)
C3 C 0.7342(11) 0.9464(11) 0.4927(4)
C4 C 0.7366(11) 0.7841(10) 0.5675(4)
C5 C 0.5429(12) 0.6016(10) 0.5638(4)
N1 N 0.3621(10) 0.5711(9) 0.4940(3)
loop_
_geom_bond_atom_site_label_1
_geom_bond_atom_site_label_2
_geom_bond_site_symmetry_1
_geom_bond_site_symmetry_2
Cl1 C1 1_555 1_555
Cl2 C2 1_555 1_555
Cl3 C3 1_555 1_555
Cl4 C4 1_555 1_555
Cl5 C5 1_555 1_555
C1 C2 1_555 1_555
C2 C3 1_555 1_555
C3 C4 1_555 1_555
C4 C5 1_555 1_555
C5 N1 1_555 1_555
N1 C1 1_555 1_555

#END
