
#######################################################################
#
#                 Cambridge Crystallographic Data Centre
#                                CCDC 
#
#######################################################################
#
# If this CIF has been generated from an entry in the Cambridge 
# Structural Database, then it will include bibliographic, chemical, 
# crystal, experimental, refinement or atomic coordinate data resulting 
# from the CCDC's data processing and validation procedures.
#
#######################################################################

data_ZUSREM
_chemical_formula_moiety         'C156 H58 N2,C1 H1 Cl3'
_chemical_name_systematic        
'bi-((7-methylene-12-phenyl-7-azadodecane-8,12,12-triyl)C60-fullerene) chloroform solvate'
_symmetry_cell_setting           monoclinic
_symmetry_space_group_name_H-M   'P n'
_symmetry_Int_Tables_number      7
_space_group_name_Hall           'P -2yac'
loop_
_symmetry_equiv_pos_site_id
_symmetry_equiv_pos_as_xyz
1 x,y,z
2 1/2+x,-y,1/2+z
_cell_length_a                   17.530(3)
_cell_length_b                   9.800(2)
_cell_length_c                   26.749(5)
_cell_angle_alpha                90
_cell_angle_beta                 92.39(3)
_cell_angle_gamma                90
_cell_volume                     4591.32
_exptl_crystal_colour            brown
_exptl_crystal_description       needle
_cell_formula_units_Z            2
loop_
_atom_site_label
_atom_site_type_symbol
_atom_site_fract_x
_atom_site_fract_y
_atom_site_fract_z
Cl1 Cl 0.2752(6) 1.1466(13) 0.1644(5)
Cl2 Cl 0.2278(7) 0.9433(17) 0.0896(6)
Cl3 Cl 0.3782(4) 0.9577(12) 0.1305(3)
C157 C 0.2819(11) 0.986(3) 0.1387(11)
H59 H 0.2680 0.9226 0.1652
N1 N 0.2989(7) 0.3227(14) -0.0189(4)
C1 C -0.0887(8) 0.7660(17) 0.2139(6)
C2 C 0.2362(7) 0.2471(13) -0.0955(5)
C3 C -0.0656(7) 0.8147(12) 0.1279(6)
C4 C -0.2628(7) 0.5788(13) 0.1011(5)
C5 C -0.1137(10) 0.1867(16) 0.0759(8)
C6 C 0.1730(8) 0.2472(15) -0.0509(5)
C7 C 0.0433(9) 0.724(2) 0.0945(7)
C8 C -0.0839(10) 0.029(2) -0.0556(9)
C9 C 0.0302(11) 0.485(2) 0.0360(10)
C10 C 0.1202(11) -0.2916(18) -0.0666(7)
C11 C -0.0995(9) 0.5315(18) 0.0207(6)
C12 C 0.2537(7) -0.1346(14) -0.1436(5)
C13 C -0.0875(9) 0.3823(17) 0.0214(8)
C14 C -0.2089(8) 0.3629(14) 0.0629(6)
C15 C -0.2147(8) 0.5013(14) 0.0648(6)
C16 C -0.1436(8) 0.6755(17) 0.2362(6)
C17 C -0.2224(8) 0.2751(14) 0.1094(6)
C18 C 0.1208(8) 0.1115(18) -0.2586(6)
C19 C -0.4644(8) 0.2371(18) 0.0829(7)
H1 H -0.4905 0.1682 0.0990
C20 C 0.2647(8) 0.0968(14) -0.0918(5)
C21 C -0.4214(8) 0.3326(17) 0.1118(7)
H2 H -0.4179 0.3284 0.1466
C22 C 0.2223(7) 0.0184(13) -0.0561(5)
C23 C -0.3419(7) 0.5399(14) 0.1138(5)
C24 C 0.1704(10) -0.3007(15) -0.1081(6)
N2 N -0.2877(7) 0.8135(12) 0.0290(4)
C25 C 0.0923(8) 0.3190(18) -0.0607(7)
H3 H 0.0981 0.4113 -0.0469
C26 C -0.3601(8) 0.8784(16) 0.1040(6)
H4 H -0.3827 0.9529 0.0846
H5 H -0.3499 0.9114 0.1378
C27 C -0.2725(6) 0.4867(13) 0.1498(5)
C28 C -0.1971(7) 0.7666(13) 0.1585(5)
H6 H -0.2254 0.8480 0.1682
C29 C 0.1720(9) -0.2651(17) -0.2026(6)
C30 C -0.2442(7) 0.5375(12) 0.1973(5)
C31 C 0.4339(10) -0.1566(17) -0.0011(6)
H7 H 0.4368 -0.1559 0.0337
C32 C -0.2179(7) 0.4300(15) 0.2261(5)
C33 C 0.0736(12) 0.257(3) 0.0881(9)
C34 C -0.0125(10) 0.121(2) 0.1306(9)
C35 C -0.0328(8) 0.297(2) -0.1726(8)
C36 C 0.0131(10) 0.284(2) -0.2151(9)
C37 C -0.1236(11) -0.087(3) -0.1838(11)
C38 C -0.1107(9) -0.072(2) -0.0884(9)
C39 C -0.1600(8) 0.5829(15) 0.0441(5)
C40 C 0.0818(9) 0.224(2) 0.1799(8)
C41 C 0.0168(10) 0.637(3) 0.2555(8)
C42 C 0.0165(9) 0.213(2) 0.0482(8)
C43 C -0.2508(7) 0.3430(14) 0.1479(6)
C44 C -0.1426(9) 0.1366(18) 0.1602(9)
C45 C -0.0640(11) -0.284(2) -0.1370(10)
C46 C -0.3917(7) 0.6430(16) 0.1404(6)
H8 H -0.3628 0.6811 0.1688
H9 H -0.4357 0.5963 0.1530
C47 C 0.0149(9) 0.792(2) 0.1342(7)
C48 C -0.1207(9) 0.127(3) -0.1358(10)
C49 C -0.0378(9) 0.551(2) 0.2774(6)
C50 C -0.0878(9) 0.7932(17) 0.0724(6)
H10 H -0.0849 0.8813 0.0553
C51 C 0.1028(9) -0.118(2) -0.2666(7)
C52 C -0.2837(8) 0.8389(15) 0.0813(5)
H11 H -0.2536 0.9231 0.0842
C53 C -0.0915(8) 0.154(2) -0.0892(9)
C54 C -0.1686(9) 0.1708(15) 0.1157(8)
C55 C -0.3343(11) 0.9199(19) -0.0011(6)
H12 H -0.3133 1.0102 0.0052
H13 H -0.3868 0.9194 0.0091
C56 C 0.1472(8) 0.2122(16) -0.2282(6)
C57 C -0.1671(9) 0.7293(16) 0.0597(6)
C58 C 0.2908(8) 0.3532(15) -0.0752(5)
H14 H 0.2623 0.4391 -0.0776
C59 C 0.1457(9) -0.1832(15) -0.0369(6)
C60 C 0.4237(10) 0.2732(17) -0.0976(7)
H15 H 0.4311 0.2377 -0.0639
H16 H 0.4720 0.3094 -0.1081
C61 C 0.0630(10) -0.3628(15) -0.1687(8)
C62 C 0.1354(9) 0.425(2) 0.1377(10)
C63 C 0.2231(8) -0.1669(16) -0.1928(6)
C64 C 0.2081(8) -0.1252(14) -0.0587(5)
C65 C 0.1594(8) -0.0218(17) -0.2550(6)
C66 C -0.2049(7) 0.6661(14) 0.1998(5)
C67 C 0.0252(10) -0.055(2) -0.2733(8)
C68 C 0.2472(7) 0.0742(15) -0.1910(5)
C69 C 0.1060(10) -0.2455(19) -0.2395(8)
C70 C 0.1031(9) 0.0439(17) -0.0146(7)
C71 C 0.2135(7) 0.1884(15) -0.1927(5)
C72 C 0.3432(7) 0.0551(15) -0.1107(5)
C73 C 0.1218(9) 0.3303(17) -0.1544(7)
C74 C 0.0322(9) 0.1276(19) -0.0068(9)
C75 C 0.0425(12) -0.3126(18) -0.0781(8)
C76 C -0.4327(9) 0.3464(18) 0.0050(7)
H17 H -0.4360 0.3508 -0.0297
C77 C 0.1663(8) 0.1053(15) -0.0361(5)
C78 C 0.4686(10) -0.2579(19) -0.0245(7)
H18 H 0.4944 -0.3263 -0.0066
C79 C 0.2181(8) 0.3252(13) -0.0072(5)
H19 H 0.2001 0.4185 -0.0051
H20 H 0.2105 0.2804 0.0245
C80 C -0.4685(9) 0.2433(17) 0.0325(7)
H21 H -0.4963 0.1766 0.0150
C81 C 0.3888(8) -0.0516(15) -0.0798(5)
C82 C -0.0144(9) 0.7036(19) 0.0588(8)
C83 C 0.3919(8) -0.0477(17) -0.0263(6)
H22 H 0.3682 0.0210 -0.0087
C84 C -0.0280(10) -0.246(2) -0.2198(10)
C85 C 0.2834(7) 0.0074(14) -0.1412(5)
C86 C 0.2293(8) -0.2004(14) -0.1018(5)
C87 C 0.4249(8) -0.1555(16) -0.1019(6)
H23 H 0.4226 -0.1582 -0.1367
C88 C -0.4191(7) 0.7596(15) 0.1056(5)
H24 H -0.4671 0.7949 0.1169
H25 H -0.4282 0.7240 0.0720
C89 C -0.0395(11) 0.162(3) 0.2168(10)
C90 C -0.1216(8) 0.574(2) 0.2687(6)
C91 C 0.0743(8) 0.3380(14) -0.1157(7)
C92 C -0.0054(9) 0.3143(17) -0.1286(8)
C93 C 0.0968(10) 0.618(2) 0.0955(10)
C94 C -0.3317(12) 0.885(3) -0.0573(6)
H26 H -0.3531 0.7957 -0.0641
H27 H -0.2796 0.8874 -0.0681
C95 C -0.0988(8) 0.337(2) 0.2703(7)
C96 C -0.1660(10) 0.2037(19) 0.2048(8)
C97 C 0.2194(7) -0.0379(16) -0.2236(5)
C98 C -0.2069(9) 0.8031(19) 0.0179(6)
H28 H -0.1852 0.8935 0.0145
H29 H -0.2012 0.7541 -0.0132
C99 C 0.0908(10) -0.0938(18) -0.0157(6)
C100 C -0.1393(9) 0.3029(16) 0.0435(8)
C101 C 0.0416(10) 0.092(2) -0.2717(9)
C102 C -0.1160(8) 0.8014(13) 0.1649(6)
C103 C -0.3823(15) 1.002(3) -0.0853(8)
H30 H -0.4323 1.0038 -0.0712
H31 H -0.3584 1.0896 -0.0791
C104 C -0.3831(7) 0.4377(15) 0.0840(6)
C105 C -0.2282(8) 0.7281(13) 0.1040(5)
C106 C 0.3415(10) 0.430(2) 0.0116(7)
H32 H 0.3938 0.4339 0.0012
H33 H 0.3183 0.5183 0.0046
C107 C 0.3651(9) 0.3830(17) -0.0986(7)
H34 H 0.3541 0.4079 -0.1332
H35 H 0.3874 0.4624 -0.0820
C108 C -0.0385(10) -0.104(3) -0.2547(9)
C109 C -0.1574(8) 0.4461(18) 0.2658(6)
C110 C 0.1375(9) -0.3364(14) -0.1577(7)
C111 C -0.3904(8) 0.4450(15) 0.0357(6)
H36 H -0.3673 0.5175 0.0198
C112 C 0.0572(11) 0.177(2) 0.1355(8)
C113 C 0.0451(10) 0.758(2) 0.1854(8)
C114 C -0.0915(10) -0.022(3) -0.2306(10)
C115 C 0.3420(11) 0.405(3) 0.0656(8)
H37 H 0.3591 0.3129 0.0725
H38 H 0.2905 0.4143 0.0771
C116 C 0.0083(13) -0.126(2) -0.0195(10)
C117 C 0.4649(12) -0.258(2) -0.0773(7)
H39 H 0.4890 -0.3256 -0.0952
C118 C 0.0989(11) 0.651(3) 0.1873(10)
C119 C -0.0818(10) 0.117(3) -0.2236(11)
C120 C -0.0985(9) 0.185(3) -0.1816(10)
C121 C 0.3975(14) 0.511(4) 0.0959(9)
H40 H 0.4497 0.4956 0.0867
H41 H 0.3838 0.6037 0.0859
C122 C 0.3969(7) 0.1608(14) -0.1326(5)
H42 H 0.4414 0.1135 -0.1442
H43 H 0.3711 0.2022 -0.1616
C123 C -0.1052(9) 0.222(2) 0.2418(8)
C124 C -0.0089(10) 0.351(2) 0.0176(9)
C125 C 0.0813(9) 0.577(3) 0.2374(10)
C126 C -0.2206(9) 0.3103(16) 0.2006(6)
C127 C -0.0369(10) 0.2508(19) -0.0828(8)
C128 C 0.0211(9) 0.261(2) -0.0380(8)
C129 C 0.2090(7) 0.2958(16) -0.1492(5)
H44 H 0.2383 0.3770 -0.1580
C130 C 0.0911(9) 0.2986(17) -0.2044(6)
C131 C -0.0099(10) 0.173(2) -0.2489(9)
C132 C -0.0839(11) -0.227(3) -0.1847(11)
C133 C -0.0786(12) -0.215(2) -0.0894(10)
C134 C 0.0125(12) -0.3452(19) -0.1238(9)
C135 C -0.0098(9) 0.749(2) 0.2252(7)
C136 C 0.0383(9) 0.341(3) 0.2565(9)
C137 C -0.0289(10) 0.404(3) 0.2806(9)
C138 C -0.0583(12) 0.110(2) 0.1692(10)
C139 C -0.0232(11) 0.588(2) 0.0293(9)
C140 C -0.0149(14) -0.224(3) -0.0515(11)
C141 C 0.0376(11) -0.309(2) -0.2183(9)
C142 C -0.0419(11) 0.1587(18) 0.0814(9)
C143 C 0.1113(11) 0.370(3) 0.0960(9)
C144 C 0.1268(10) 0.580(3) 0.1476(10)
C145 C 0.0844(11) 0.493(2) 0.0657(9)
C146 C 0.0348(11) 0.220(3) 0.2281(9)
C147 C 0.1190(10) 0.356(3) 0.1902(10)
C148 C 0.3244(17) 0.552(5) 0.1736(7)
H45 H 0.2799 0.5077 0.1580
H46 H 0.3202 0.6491 0.1676
C149 C 0.3932(18) 0.500(5) 0.1520(11)
H47 H 0.3984 0.4040 0.1610
H48 H 0.4366 0.5474 0.1674
C150 C 0.3270(14) 0.524(3) 0.2294(6)
H49 H 0.2815 0.5589 0.2436
H50 H 0.3306 0.4278 0.2353
H51 H 0.3708 0.5689 0.2448
C151 C 0.0960(12) 0.424(3) 0.2355(11)
C152 C -0.1353(9) -0.025(3) -0.1436(10)
C153 C -0.0264(10) 0.013(2) -0.0213(9)
C154 C -0.346(7) 1.068(11) -0.1745(19)
H52 H -0.3656 1.1608 -0.1728
H53 H -0.3549 1.0371 -0.2086
C155 C -0.392(5) 0.981(7) -0.1412(11)
H54 H -0.3798 0.8860 -0.1482
H55 H -0.4454 0.9938 -0.1506
C156 C -0.261(6) 1.07(3) -0.164(10)
H56 H -0.2385 1.1337 -0.1879
H57 H -0.2507 1.1086 -0.1309
H58 H -0.2399 0.9845 -0.1669
loop_
_geom_bond_atom_site_label_1
_geom_bond_atom_site_label_2
_geom_bond_site_symmetry_1
_geom_bond_site_symmetry_2
N1 C58 1_555 1_555
C1 C16 1_555 1_555
C2 C6 1_555 1_555
C3 C47 1_555 1_555
C4 C15 1_555 1_555
C5 C54 1_555 1_555
C6 C25 1_555 1_555
C7 C47 1_555 1_555
C8 C38 1_555 1_555
C9 C124 1_555 1_555
C10 C24 1_555 1_555
C11 C13 1_555 1_555
C12 C63 1_555 1_555
C13 C100 1_555 1_555
C14 C15 1_555 1_555
C15 C39 1_555 1_555
C16 C66 1_555 1_555
C17 C14 1_555 1_555
C18 C56 1_555 1_555
C19 H1 1_555 1_555
C20 C2 1_555 1_555
C21 C19 1_555 1_555
H2 C21 1_555 1_555
C22 C20 1_555 1_555
C23 C4 1_555 1_555
C24 C86 1_555 1_555
N2 C52 1_555 1_555
C25 H3 1_555 1_555
C26 H4 1_555 1_555
H5 C26 1_555 1_555
C27 C4 1_555 1_555
C28 H6 1_555 1_555
C29 C63 1_555 1_555
C30 C27 1_555 1_555
C31 H7 1_555 1_555
C32 C30 1_555 1_555
C33 C42 1_555 1_555
C34 C112 1_555 1_555
C35 C36 1_555 1_555
C36 C130 1_555 1_555
C37 C114 1_555 1_555
C38 C133 1_555 1_555
C39 C11 1_555 1_555
C40 C112 1_555 1_555
C41 C49 1_555 1_555
C42 C74 1_555 1_555
C43 C17 1_555 1_555
C44 C54 1_555 1_555
C45 C132 1_555 1_555
C46 C23 1_555 1_555
H8 C46 1_555 1_555
H9 C46 1_555 1_555
C47 C113 1_555 1_555
C48 C53 1_555 1_555
C49 C90 1_555 1_555
C50 C3 1_555 1_555
H10 C50 1_555 1_555
C51 C65 1_555 1_555
C52 C26 1_555 1_555
H11 C52 1_555 1_555
C53 C8 1_555 1_555
C54 C17 1_555 1_555
C55 N2 1_555 1_555
H12 C55 1_555 1_555
H13 C55 1_555 1_555
C56 C71 1_555 1_555
C57 C39 1_555 1_555
C58 C2 1_555 1_555
H14 C58 1_555 1_555
C59 C10 1_555 1_555
C60 H15 1_555 1_555
H16 C60 1_555 1_555
C61 C110 1_555 1_555
C62 C143 1_555 1_555
C63 C97 1_555 1_555
C64 C22 1_555 1_555
C65 C18 1_555 1_555
C66 C28 1_555 1_555
C67 C51 1_555 1_555
C68 C71 1_555 1_555
C69 C29 1_555 1_555
C70 C74 1_555 1_555
C71 C129 1_555 1_555
C72 C20 1_555 1_555
C73 C91 1_555 1_555
C74 C128 1_555 1_555
C75 C10 1_555 1_555
C76 H17 1_555 1_555
C77 C6 1_555 1_555
C78 C31 1_555 1_555
H18 C78 1_555 1_555
C79 N1 1_555 1_555
H19 C79 1_555 1_555
H20 C79 1_555 1_555
C80 C19 1_555 1_555
H21 C80 1_555 1_555
C81 C72 1_555 1_555
C82 C7 1_555 1_555
C83 C31 1_555 1_555
H22 C83 1_555 1_555
C84 C108 1_555 1_555
C85 C12 1_555 1_555
C86 C12 1_555 1_555
C87 C81 1_555 1_555
H23 C87 1_555 1_555
C88 C26 1_555 1_555
H24 C88 1_555 1_555
H25 C88 1_555 1_555
C89 C123 1_555 1_555
C90 C16 1_555 1_555
C91 C25 1_555 1_555
C92 C35 1_555 1_555
C93 C7 1_555 1_555
C94 C55 1_555 1_555
H26 C94 1_555 1_555
H27 C94 1_555 1_555
C95 C109 1_555 1_555
C96 C44 1_555 1_555
C97 C65 1_555 1_555
C98 N2 1_555 1_555
H28 C98 1_555 1_555
H29 C98 1_555 1_555
C99 C59 1_555 1_555
C100 C5 1_555 1_555
C101 C18 1_555 1_555
C102 C1 1_555 1_555
C103 C94 1_555 1_555
H30 C103 1_555 1_555
H31 C103 1_555 1_555
C104 C21 1_555 1_555
C105 C4 1_555 1_555
C106 N1 1_555 1_555
H32 C106 1_555 1_555
H33 C106 1_555 1_555
C107 C58 1_555 1_555
H34 C107 1_555 1_555
H35 C107 1_555 1_555
C108 C67 1_555 1_555
C109 C32 1_555 1_555
C110 C24 1_555 1_555
C111 C76 1_555 1_555
H36 C111 1_555 1_555
C112 C33 1_555 1_555
C113 C118 1_555 1_555
C114 C108 1_555 1_555
C115 C106 1_555 1_555
H37 C115 1_555 1_555
H38 C115 1_555 1_555
C116 C99 1_555 1_555
C117 C78 1_555 1_555
H39 C117 1_555 1_555
C118 C125 1_555 1_555
C119 C114 1_555 1_555
C120 C35 1_555 1_555
C121 C115 1_555 1_555
H40 C121 1_555 1_555
H41 C121 1_555 1_555
C122 C60 1_555 1_555
H42 C122 1_555 1_555
H43 C122 1_555 1_555
C123 C95 1_555 1_555
C124 C13 1_555 1_555
C125 C41 1_555 1_555
C126 C32 1_555 1_555
C127 C53 1_555 1_555
C128 C25 1_555 1_555
C129 C2 1_555 1_555
H44 C129 1_555 1_555
C130 C56 1_555 1_555
C131 C36 1_555 1_555
C132 C37 1_555 1_555
C133 C45 1_555 1_555
C134 C45 1_555 1_555
C135 C1 1_555 1_555
C136 C137 1_555 1_555
C137 C49 1_555 1_555
C138 C34 1_555 1_555
C139 C9 1_555 1_555
C140 C75 1_555 1_555
C141 C61 1_555 1_555
C142 C5 1_555 1_555
C143 C33 1_555 1_555
C144 C62 1_555 1_555
C145 C9 1_555 1_555
C146 C40 1_555 1_555
C147 C40 1_555 1_555
C148 H45 1_555 1_555
H46 C148 1_555 1_555
C149 C121 1_555 1_555
H47 C149 1_555 1_555
H48 C149 1_555 1_555
C150 C148 1_555 1_555
H49 C150 1_555 1_555
H50 C150 1_555 1_555
H51 C150 1_555 1_555
C151 C125 1_555 1_555
C152 C37 1_555 1_555
C153 C8 1_555 1_555
C154 H52 1_555 1_555
H53 C154 1_555 1_555
C155 C103 1_555 1_555
H54 C155 1_555 1_555
H55 C155 1_555 1_555
C156 C154 1_555 1_555
H56 C156 1_555 1_555
H57 C156 1_555 1_555
H58 C156 1_555 1_555
Cl1 C157 1_555 1_555
Cl2 C157 1_555 1_555
Cl3 C157 1_555 1_555
C157 H59 1_555 1_555
C3 C102 1_555 1_555
C6 C79 1_555 1_555
C11 C139 1_555 1_555
C14 C100 1_555 1_555
C20 C85 1_555 1_555
C22 C77 1_555 1_555
C23 C27 1_555 1_555
C23 C104 1_555 1_555
C27 C43 1_555 1_555
C28 C102 1_555 1_555
C28 C105 1_555 1_555
C29 C110 1_555 1_555
C30 C66 1_555 1_555
C34 C142 1_555 1_555
C38 C152 1_555 1_555
C41 C135 1_555 1_555
C42 C124 1_555 1_555
C42 C142 1_555 1_555
C43 C126 1_555 1_555
C44 C138 1_555 1_555
C46 C88 1_555 1_555
C48 C120 1_555 1_555
C48 C152 1_555 1_555
C50 C57 1_555 1_555
C50 C82 1_555 1_555
C51 C69 1_555 1_555
C52 C105 1_555 1_555
C57 C98 1_555 1_555
C57 C105 1_555 1_555
C59 C64 1_555 1_555
C60 C107 1_555 1_555
C61 C134 1_555 1_555
C62 C147 1_555 1_555
C64 C86 1_555 1_555
C67 C101 1_555 1_555
C68 C85 1_555 1_555
C68 C97 1_555 1_555
C69 C141 1_555 1_555
C70 C77 1_555 1_555
C70 C99 1_555 1_555
C72 C85 1_555 1_555
C72 C122 1_555 1_555
C73 C129 1_555 1_555
C73 C130 1_555 1_555
C74 C153 1_555 1_555
C75 C134 1_555 1_555
C76 C80 1_555 1_555
C81 C83 1_555 1_555
C82 C139 1_555 1_555
C84 C132 1_555 1_555
C84 C141 1_555 1_555
C87 C117 1_555 1_555
C89 C138 1_555 1_555
C89 C146 1_555 1_555
C90 C109 1_555 1_555
C91 C92 1_555 1_555
C92 C127 1_555 1_555
C93 C144 1_555 1_555
C93 C145 1_555 1_555
C95 C137 1_555 1_555
C96 C123 1_555 1_555
C96 C126 1_555 1_555
C101 C131 1_555 1_555
C104 C111 1_555 1_555
C113 C135 1_555 1_555
C116 C140 1_555 1_555
C116 C153 1_555 1_555
C118 C144 1_555 1_555
C119 C120 1_555 1_555
C119 C131 1_555 1_555
C127 C128 1_555 1_555
C133 C140 1_555 1_555
C136 C146 1_555 1_555
C136 C151 1_555 1_555
C143 C145 1_555 1_555
C147 C151 1_555 1_555
C148 C149 1_555 1_555
C154 C155 1_555 1_555

#END
