
#######################################################################
#
#                 Cambridge Crystallographic Data Centre
#                                CCDC 
#
#######################################################################
#
# If this CIF has been generated from an entry in the Cambridge 
# Structural Database, then it will include bibliographic, chemical, 
# crystal, experimental, refinement or atomic coordinate data resulting 
# from the CCDC's data processing and validation procedures.
#
#######################################################################

data_ZUSSEN
_chemical_formula_moiety         'C19 H14 Cl1 N2 O1 P1'
_chemical_name_systematic        
2-Chloro-3-(diphenylphosphoryl)imidazo[1,2-a]pyridine
_symmetry_cell_setting           monoclinic
_symmetry_space_group_name_H-M   'P 21/c'
_symmetry_Int_Tables_number      14
_space_group_name_Hall           '-P 2ybc'
loop_
_symmetry_equiv_pos_site_id
_symmetry_equiv_pos_as_xyz
1 x,y,z
2 -x,1/2+y,1/2-z
3 -x,-y,-z
4 x,1/2-y,1/2+z
_cell_length_a                   11.949(2)
_cell_length_b                   8.5662(17)
_cell_length_c                   17.479(3)
_cell_angle_alpha                90
_cell_angle_beta                 103.621(2)
_cell_angle_gamma                90
_cell_volume                     1738.79
_exptl_crystal_colour            colorless
_exptl_crystal_description       block
_cell_formula_units_Z            4
loop_
_atom_site_label
_atom_site_type_symbol
_atom_site_fract_x
_atom_site_fract_y
_atom_site_fract_z
P1 P 0.72744(3) 0.91713(4) 0.12849(2)
Cl1 Cl 0.95990(4) 1.02956(5) 0.29692(2)
N1 N 1.07618(10) 0.93319(15) 0.19436(8)
C1 C 0.88136(11) 0.90229(15) 0.14872(8)
C2 C 0.69386(11) 1.11678(16) 0.09895(8)
N2 N 0.93796(10) 0.84763(14) 0.09229(7)
O1 O 0.67218(9) 0.80575(12) 0.06587(7)
C3 C 0.73772(13) 1.24368(18) 0.14649(10)
H1 H 0.7833 1.2270 0.1968
C4 C 0.97152(12) 0.95177(16) 0.20862(8)
C5 C 0.62530(12) 1.14317(18) 0.02415(9)
H2 H 0.5955 1.0593 -0.0080
C6 C 0.68754(12) 0.88514(17) 0.22019(9)
C7 C 0.64591(14) 1.41984(19) 0.04459(12)
H3 H 0.6304 1.5213 0.0262
C8 C 1.05494(12) 0.86847(18) 0.12322(10)
C9 C 0.73136(14) 0.75706(19) 0.26642(10)
H4 H 0.7888 0.6965 0.2535
C10 C 0.60126(14) 1.2957(2) -0.00260(11)
H5 H 0.5548 1.3134 -0.0526
C11 C 0.60179(16) 0.9744(2) 0.24081(12)
H6 H 0.5719 1.0609 0.2108
C12 C 0.89586(16) 0.7793(2) 0.02029(10)
H7 H 0.8171 0.7653 0.0008
C13 C 0.60535(19) 0.8083(3) 0.35161(12)
H8 H 0.5783 0.7831 0.3958
C14 C 0.71366(14) 1.39457(18) 0.11908(11)
H9 H 0.7432 1.4789 0.1510
C15 C 0.68991(18) 0.7193(2) 0.33158(11)
H10 H 0.7195 0.6332 0.3621
C16 C 0.5611(2) 0.9342(3) 0.30613(14)
H11 H 0.5031 0.9934 0.3192
C17 C 1.13232(16) 0.8170(2) 0.07879(13)
H12 H 1.2113 0.8288 0.0982
C18 C 1.0906(2) 0.7504(3) 0.00779(15)
H13 H 1.1412 0.7159 -0.0217
C19 C 0.9721(2) 0.7327(3) -0.02180(12)
H14 H 0.9449 0.6883 -0.0712
loop_
_geom_bond_atom_site_label_1
_geom_bond_atom_site_label_2
_geom_bond_site_symmetry_1
_geom_bond_site_symmetry_2
P1 C1 1_555 1_555
Cl1 C4 1_555 1_555
N1 C4 1_555 1_555
C1 N2 1_555 1_555
C2 P1 1_555 1_555
N2 C8 1_555 1_555
O1 P1 1_555 1_555
C3 C2 1_555 1_555
H1 C3 1_555 1_555
C4 C1 1_555 1_555
C5 C2 1_555 1_555
H2 C5 1_555 1_555
C6 P1 1_555 1_555
C7 H3 1_555 1_555
C8 N1 1_555 1_555
C9 C6 1_555 1_555
H4 C9 1_555 1_555
C10 C5 1_555 1_555
H5 C10 1_555 1_555
C11 C6 1_555 1_555
H6 C11 1_555 1_555
C12 N2 1_555 1_555
H7 C12 1_555 1_555
C13 H8 1_555 1_555
C14 C3 1_555 1_555
H9 C14 1_555 1_555
C15 C9 1_555 1_555
H10 C15 1_555 1_555
C16 C11 1_555 1_555
H11 C16 1_555 1_555
C17 C8 1_555 1_555
H12 C17 1_555 1_555
C18 C17 1_555 1_555
H13 C18 1_555 1_555
C19 C12 1_555 1_555
H14 C19 1_555 1_555
C7 C10 1_555 1_555
C7 C14 1_555 1_555
C13 C15 1_555 1_555
C13 C16 1_555 1_555
C18 C19 1_555 1_555

#END
