
#######################################################################
#
#                 Cambridge Crystallographic Data Centre
#                                CCDC 
#
#######################################################################
#
# If this CIF has been generated from an entry in the Cambridge 
# Structural Database, then it will include bibliographic, chemical, 
# crystal, experimental, refinement or atomic coordinate data resulting 
# from the CCDC's data processing and validation procedures.
#
#######################################################################

data_ZUSSAJ
_chemical_formula_moiety         'C14 H11 Cl1 N2'
_chemical_name_systematic        
3-Chloro-2-(4-methylphenyl)imidazo[1,2-a]pyridine
_symmetry_cell_setting           monoclinic
_symmetry_space_group_name_H-M   'P 21/n'
_symmetry_Int_Tables_number      14
_space_group_name_Hall           '-P 2yn'
loop_
_symmetry_equiv_pos_site_id
_symmetry_equiv_pos_as_xyz
1 x,y,z
2 1/2-x,1/2+y,1/2-z
3 -x,-y,-z
4 1/2+x,1/2-y,1/2+z
_cell_length_a                   15.4081(5)
_cell_length_b                   7.7461(3)
_cell_length_c                   19.9246(6)
_cell_angle_alpha                90
_cell_angle_beta                 98.208(3)
_cell_angle_gamma                90
_cell_volume                     2353.69
_exptl_crystal_colour            colorless
_exptl_crystal_description       plane
_cell_formula_units_Z            8
loop_
_atom_site_label
_atom_site_type_symbol
_atom_site_fract_x
_atom_site_fract_y
_atom_site_fract_z
Cl1 Cl 0.12305(4) 0.61179(10) 0.18266(3)
N1 N -0.03627(11) 0.4944(2) 0.19372(8)
N2 N -0.07343(12) 0.3169(2) 0.10548(9)
C1 C -0.04751(15) 0.5813(3) 0.25250(11)
H1 H -0.0041 0.6539 0.2739
C2 C -0.12292(16) 0.5579(4) 0.27796(11)
H2 H -0.1311 0.6129 0.3181
C3 C -0.18958(16) 0.4516(4) 0.24485(12)
H3 H -0.2418 0.4397 0.2628
C4 C -0.17910(16) 0.3660(4) 0.18704(12)
H4 H -0.2235 0.2956 0.1656
C5 C -0.10007(14) 0.3856(3) 0.16018(10)
C6 C 0.00880(13) 0.3828(3) 0.10218(10)
C7 C 0.03199(13) 0.4916(3) 0.15622(10)
C8 C 0.05650(14) 0.3324(3) 0.04650(10)
C9 C 0.13976(16) 0.3923(4) 0.03939(12)
H5 H 0.1681 0.4689 0.0712
C10 C 0.18095(16) 0.3395(4) -0.01425(13)
H6 H 0.2362 0.3831 -0.0183
C11 C 0.14211(15) 0.2232(3) -0.06230(11)
C12 C 0.05890(18) 0.1675(4) -0.05598(13)
H7 H 0.0304 0.0922 -0.0882
C13 C 0.01659(17) 0.2207(4) -0.00278(13)
H8 H -0.0397 0.1807 -0.0001
C14 C 0.18772(19) 0.1620(4) -0.11971(13)
H9 H 0.2451 0.2126 -0.1157
H10 H 0.1543 0.1957 -0.1621
H11 H 0.1929 0.0385 -0.1180
Cl2 Cl 0.58782(4) 0.80126(9) 0.04711(3)
N3 N 0.41367(12) 0.8082(2) 0.03611(9)
N4 N 0.36345(13) 0.6881(3) -0.06436(10)
C15 C 0.40760(18) 0.8893(3) 0.09661(12)
H12 H 0.4579 0.9181 0.1260
C16 C 0.32841(19) 0.9260(4) 0.11252(13)
H13 H 0.3235 0.9797 0.1536
C17 C 0.25141(19) 0.8836(4) 0.06709(13)
H14 H 0.1966 0.9119 0.0783
C18 C 0.25721(17) 0.8027(4) 0.00800(13)
H15 H 0.2067 0.7738 -0.0212
C19 C 0.34050(15) 0.7622(3) -0.00933(11)
C20 C 0.45395(15) 0.6857(3) -0.05549(11)
C21 C 0.48525(14) 0.7606(3) 0.00634(11)
C22 C 0.50035(15) 0.6137(3) -0.10790(11)
C23 C 0.59058(16) 0.6350(4) -0.10783(13)
H16 H 0.6236 0.6940 -0.0724
C24 C 0.63113(17) 0.5689(4) -0.16010(13)
H17 H 0.6910 0.5865 -0.1593
C25 C 0.58560(18) 0.4782(3) -0.21302(13)
C26 C 0.49597(18) 0.4558(4) -0.21271(13)
H18 H 0.4633 0.3956 -0.2480
C27 C 0.45507(16) 0.5205(3) -0.16153(12)
H19 H 0.3953 0.5017 -0.1626
C28 C 0.6314(2) 0.4075(5) -0.26945(16)
H20 H 0.6926 0.4360 -0.2608
H21 H 0.6059 0.4574 -0.3118
H22 H 0.6246 0.2844 -0.2716
loop_
_geom_bond_atom_site_label_1
_geom_bond_atom_site_label_2
_geom_bond_site_symmetry_1
_geom_bond_site_symmetry_2
Cl1 C7 1_555 1_555
N1 C1 1_555 1_555
N2 C5 1_555 1_555
C1 H1 1_555 1_555
C2 C1 1_555 1_555
H2 C2 1_555 1_555
C3 C2 1_555 1_555
H3 C3 1_555 1_555
C4 C3 1_555 1_555
H4 C4 1_555 1_555
C5 N1 1_555 1_555
C6 N2 1_555 1_555
C7 N1 1_555 1_555
C8 C6 1_555 1_555
C9 C8 1_555 1_555
H5 C9 1_555 1_555
C10 C9 1_555 1_555
H6 C10 1_555 1_555
C11 C10 1_555 1_555
C12 C11 1_555 1_555
H7 C12 1_555 1_555
C13 C8 1_555 1_555
H8 C13 1_555 1_555
C14 C11 1_555 1_555
H9 C14 1_555 1_555
H10 C14 1_555 1_555
H11 C14 1_555 1_555
Cl2 C21 1_555 1_555
N3 C15 1_555 1_555
N4 C19 1_555 1_555
C15 H12 1_555 1_555
C16 C15 1_555 1_555
H13 C16 1_555 1_555
C17 C16 1_555 1_555
H14 C17 1_555 1_555
C18 C17 1_555 1_555
H15 C18 1_555 1_555
C19 N3 1_555 1_555
C20 N4 1_555 1_555
C21 N3 1_555 1_555
C22 C20 1_555 1_555
C23 C22 1_555 1_555
H16 C23 1_555 1_555
C24 C23 1_555 1_555
H17 C24 1_555 1_555
C25 C24 1_555 1_555
C26 C25 1_555 1_555
H18 C26 1_555 1_555
C27 C22 1_555 1_555
H19 C27 1_555 1_555
C28 C25 1_555 1_555
H20 C28 1_555 1_555
H21 C28 1_555 1_555
H22 C28 1_555 1_555
C4 C5 1_555 1_555
C6 C7 1_555 1_555
C12 C13 1_555 1_555
C18 C19 1_555 1_555
C20 C21 1_555 1_555
C26 C27 1_555 1_555

#END
