
#######################################################################
#
#                 Cambridge Crystallographic Data Centre
#                                CCDC 
#
#######################################################################
#
# If this CIF has been generated from an entry in the Cambridge 
# Structural Database, then it will include bibliographic, chemical, 
# crystal, experimental, refinement or atomic coordinate data resulting 
# from the CCDC's data processing and validation procedures.
#
#######################################################################

data_ZUSVEQ
_chemical_formula_moiety         'C41 H36 N2 O9'
_chemical_name_systematic        
3,4-Dimethoxy-6-methyl-15-(13-methyl-13,14-dihydro[1,3]benzodioxolo[5,6-c][1,3]dioxolo[4,5-i]phenanthridin-14-yl)-5,7,8,15-tetrahydrobenzo[c][1,3]benzodioxolo[5,6-g]azecin-14(6H)-one
_symmetry_cell_setting           monoclinic
_symmetry_space_group_name_H-M   'P 21/c'
_symmetry_Int_Tables_number      14
_space_group_name_Hall           '-P 2ybc'
loop_
_symmetry_equiv_pos_site_id
_symmetry_equiv_pos_as_xyz
1 x,y,z
2 -x,1/2+y,1/2-z
3 -x,-y,-z
4 x,1/2-y,1/2+z
_cell_length_a                   19.0503(4)
_cell_length_b                   11.68507(17)
_cell_length_c                   14.8134(3)
_cell_angle_alpha                90
_cell_angle_beta                 92.9390(19)
_cell_angle_gamma                90
_cell_volume                     3293.19
_cell_formula_units_Z            4
loop_
_atom_site_label
_atom_site_type_symbol
_atom_site_fract_x
_atom_site_fract_y
_atom_site_fract_z
O1 O 0.38308(6) 0.92184(10) 0.28801(7)
O2 O 0.04162(6) 1.27076(10) -0.03018(8)
O3 O 0.49199(6) 0.86115(11) 0.24272(8)
O4 O -0.01543(6) 1.32922(11) 0.12380(8)
O5 O 0.16858(6) 1.67026(10) -0.01975(9)
O6 O 0.43172(6) 0.63043(10) 0.03858(8)
O7 O 0.13208(6) 1.58962(10) 0.11290(8)
O8 O 0.37888(6) 0.60814(10) 0.17559(8)
N1 N 0.29351(7) 1.24902(11) 0.19911(8)
O9 O 0.18842(6) 0.91202(10) 0.19059(8)
C1 C 0.27873(8) 1.39096(13) 0.07921(10)
C2 C 0.50474(8) 1.01023(14) 0.12693(11)
H1 H 0.5493 0.9850 0.1088
C3 C 0.37017(8) 1.24349(13) 0.07147(10)
C4 C 0.39087(8) 1.29300(14) -0.01023(10)
H2 H 0.4283 1.2596 -0.0411
C5 C 0.21517(8) 0.95782(14) -0.09910(10)
H3 H 0.2104 1.0008 -0.1567
H4 H 0.2034 0.8768 -0.1122
C6 C 0.18954(8) 1.53157(14) 0.08507(11)
C7 C 0.47032(8) 0.95544(14) 0.19354(10)
C8 C 0.09462(9) 0.95869(15) -0.05488(13)
H5 H 0.0766 0.9851 -0.1144
H6 H 0.0638 0.9860 -0.0085
H7 H 0.0959 0.8749 -0.0541
C9 C 0.43897(9) 0.84078(14) 0.30565(11)
H8 H 0.4589 0.8501 0.3683
H9 H 0.4208 0.7618 0.2987
C10 C 0.30067(8) 1.43917(13) -0.00327(11)
N2 N 0.16561(7) 1.00355(11) -0.03650(9)
C11 C 0.04543(8) 1.26706(14) 0.13225(11)
C12 C 0.07848(8) 1.23220(15) 0.21354(11)
H10 H 0.0585 1.2505 0.2692
C13 C 0.26463(9) 1.53622(14) -0.04179(11)
H11 H 0.2777 1.5686 -0.0973
C14 C 0.43546(9) 0.57002(16) 0.12318(12)
H12 H 0.4316 0.4866 0.1123
H13 H 0.4810 0.5855 0.1560
C15 C 0.40514(8) 0.99169(13) 0.22009(10)
C16 C 0.36987(8) 1.08282(13) 0.18047(10)
C17 C 0.28111(8) 0.86811(13) 0.09689(10)
C18 C 0.22053(8) 1.43795(14) 0.12318(10)
H14 H 0.2042 1.4050 0.1769
C19 C 0.35788(9) 1.38793(14) -0.04538(10)
H15 H 0.3737 1.4205 -0.0995
C20 C 0.29971(8) 0.77504(14) 0.15481(10)
H16 H 0.2770 0.7640 0.2098
C21 C 0.13627(8) 1.17228(13) 0.05049(10)
C22 C -0.05046(10) 1.35223(19) 0.20473(13)
H17 H -0.0950 1.3916 0.1897
H18 H -0.0206 1.4009 0.2446
H19 H -0.0599 1.2800 0.2355
C23 C 0.31545(8) 1.29385(13) 0.11545(10)
C24 C 0.06032(10) 1.38499(15) -0.05500(12)
H20 H 0.0308 1.4092 -0.1077
H21 H 0.1098 1.3869 -0.0699
H22 H 0.0531 1.4369 -0.0044
C25 C 0.21133(9) 1.58004(14) 0.00388(11)
C26 C 0.35097(8) 0.70171(13) 0.12966(11)
C27 C 0.40508(8) 1.14203(13) 0.11240(10)
C28 C 0.17065(8) 1.14086(13) 0.13285(10)
C29 C 0.47081(8) 1.10526(14) 0.08711(10)
H23 H 0.4934 1.1460 0.0413
C30 C 0.36239(8) 0.79959(14) -0.01116(11)
H24 H 0.3830 0.8045 -0.0681
C31 C 0.12633(9) 1.68973(14) 0.05646(12)
H25 H 0.0767 1.7026 0.0358
H26 H 0.1434 1.7580 0.0905
C32 C 0.14104(8) 1.17033(14) 0.21303(10)
H27 H 0.1638 1.1479 0.2688
C33 C 0.38240(8) 0.71451(14) 0.04856(11)
C34 C 0.16373(8) 1.12973(13) -0.03743(10)
H28 H 0.1328 1.1567 -0.0888
H29 H 0.2116 1.1603 -0.0449
C35 C 0.29140(8) 0.96556(14) -0.06125(10)
H30 H 0.3230 0.9549 -0.1116
H31 H 0.2996 1.0435 -0.0367
C36 C 0.07522(8) 1.23712(14) 0.05090(11)
C37 C 0.23082(8) 0.94896(14) 0.13955(10)
C38 C 0.29686(8) 1.12380(13) 0.20192(10)
H32 H 0.2855 1.0965 0.2634
C39 C 0.31129(8) 0.87934(13) 0.01227(11)
C40 C 0.24031(8) 1.07805(13) 0.13039(10)
H33 H 0.2589 1.0921 0.0694
C41 C 0.32652(9) 1.30643(14) 0.27784(10)
H34 H 0.3764 1.2855 0.2838
H35 H 0.3032 1.2829 0.3323
H36 H 0.3222 1.3895 0.2703
loop_
_geom_bond_atom_site_label_1
_geom_bond_atom_site_label_2
_geom_bond_site_symmetry_1
_geom_bond_site_symmetry_2
O1 C9 1_555 1_555
O2 C24 1_555 1_555
O3 C7 1_555 1_555
O4 C11 1_555 1_555
O5 C25 1_555 1_555
O6 C14 1_555 1_555
O7 C6 1_555 1_555
O8 C14 1_555 1_555
N1 C23 1_555 1_555
O9 C37 1_555 1_555
C1 C10 1_555 1_555
C2 H1 1_555 1_555
C3 C4 1_555 1_555
C4 H2 1_555 1_555
C5 H3 1_555 1_555
H4 C5 1_555 1_555
C6 C18 1_555 1_555
C7 C2 1_555 1_555
C8 H5 1_555 1_555
H6 C8 1_555 1_555
H7 C8 1_555 1_555
C9 O3 1_555 1_555
H8 C9 1_555 1_555
H9 C9 1_555 1_555
C10 C13 1_555 1_555
N2 C5 1_555 1_555
C11 C12 1_555 1_555
C12 H10 1_555 1_555
C13 H11 1_555 1_555
C14 H12 1_555 1_555
H13 C14 1_555 1_555
C15 O1 1_555 1_555
C16 C15 1_555 1_555
C17 C20 1_555 1_555
C18 C1 1_555 1_555
H14 C18 1_555 1_555
C19 C4 1_555 1_555
H15 C19 1_555 1_555
C20 H16 1_555 1_555
C21 C28 1_555 1_555
C22 O4 1_555 1_555
H17 C22 1_555 1_555
H18 C22 1_555 1_555
H19 C22 1_555 1_555
C23 C1 1_555 1_555
C24 H20 1_555 1_555
H21 C24 1_555 1_555
H22 C24 1_555 1_555
C25 C6 1_555 1_555
C26 O8 1_555 1_555
C27 C3 1_555 1_555
C28 C32 1_555 1_555
C29 C2 1_555 1_555
H23 C29 1_555 1_555
C30 H24 1_555 1_555
C31 O5 1_555 1_555
H25 C31 1_555 1_555
H26 C31 1_555 1_555
C32 C12 1_555 1_555
H27 C32 1_555 1_555
C33 O6 1_555 1_555
C34 N2 1_555 1_555
H28 C34 1_555 1_555
H29 C34 1_555 1_555
C35 C5 1_555 1_555
H30 C35 1_555 1_555
H31 C35 1_555 1_555
C36 O2 1_555 1_555
C37 C17 1_555 1_555
C38 N1 1_555 1_555
H32 C38 1_555 1_555
C39 C17 1_555 1_555
C40 C28 1_555 1_555
H33 C40 1_555 1_555
C41 N1 1_555 1_555
H34 C41 1_555 1_555
H35 C41 1_555 1_555
H36 C41 1_555 1_555
O7 C31 1_555 1_555
C3 C23 1_555 1_555
C7 C15 1_555 1_555
C8 N2 1_555 1_555
C10 C19 1_555 1_555
C11 C36 1_555 1_555
C13 C25 1_555 1_555
C16 C27 1_555 1_555
C16 C38 1_555 1_555
C20 C26 1_555 1_555
C21 C34 1_555 1_555
C21 C36 1_555 1_555
C26 C33 1_555 1_555
C27 C29 1_555 1_555
C30 C33 1_555 1_555
C30 C39 1_555 1_555
C35 C39 1_555 1_555
C37 C40 1_555 1_555
C38 C40 1_555 1_555

#END
