
#######################################################################
#
#                 Cambridge Crystallographic Data Centre
#                                CCDC 
#
#######################################################################
#
# If this CIF has been generated from an entry in the Cambridge 
# Structural Database, then it will include bibliographic, chemical, 
# crystal, experimental, refinement or atomic coordinate data resulting 
# from the CCDC's data processing and validation procedures.
#
#######################################################################

data_ZUSXUI
_chemical_formula_moiety         'C24 H25 F3 I1 N1 O4 S1'
_chemical_name_systematic        
'ethyl 2,2-difluoro-3-(4-((2-fluorophenyl)(iodo)methylene)-3-methyl-1-((4-methylphenyl)sulfonyl)pyrrolidin-3-yl)propanoate'
_symmetry_cell_setting           monoclinic
_symmetry_space_group_name_H-M   'P 21/c'
_symmetry_Int_Tables_number      14
_space_group_name_Hall           '-P 2ybc'
loop_
_symmetry_equiv_pos_site_id
_symmetry_equiv_pos_as_xyz
1 x,y,z
2 -x,1/2+y,1/2-z
3 -x,-y,-z
4 x,1/2-y,1/2+z
_cell_length_a                   13.4658(3)
_cell_length_b                   20.2837(7)
_cell_length_c                   19.4390(5)
_cell_angle_alpha                90
_cell_angle_beta                 100.921(2)
_cell_angle_gamma                90
_cell_volume                     5213.34
_cell_formula_units_Z            8
loop_
_atom_site_label
_atom_site_type_symbol
_atom_site_fract_x
_atom_site_fract_y
_atom_site_fract_z
I1 I 0.09104(3) 0.33735(3) -0.08748(2)
S1 S 0.05407(15) 0.35687(11) 0.20598(9)
F1 F -0.1756(4) 0.2768(3) -0.1326(2)
F2 F -0.3608(3) 0.4308(2) 0.0461(2)
F3 F -0.3214(3) 0.3345(3) 0.0890(2)
O1 O 0.1564(4) 0.3782(3) 0.2094(3)
O2 O -0.0035(4) 0.3805(3) 0.2548(2)
O3 O -0.4476(4) 0.2825(3) -0.0168(3)
O4 O -0.4674(5) 0.3789(3) -0.0669(3)
N1 N -0.0067(4) 0.3798(3) 0.1292(3)
C1 C -0.1902(6) 0.3395(4) -0.1555(3)
C2 C -0.2685(5) 0.3503(5) -0.2078(3)
H1 H -0.3101 0.3159 -0.2273
C3 C -0.2857(5) 0.4137(5) -0.2317(4)
H2 H -0.3411 0.4233 -0.2668
C4 C -0.2197(6) 0.4633(4) -0.2031(3)
H3 H -0.2293 0.5060 -0.2206
C5 C -0.1389(5) 0.4500(4) -0.1481(3)
H4 H -0.0949 0.4834 -0.1292
C6 C -0.1252(5) 0.3863(4) -0.1221(3)
C7 C -0.0451(4) 0.3712(3) -0.0600(3)
C8 C -0.0516(4) 0.3766(3) 0.0067(3)
C9 C 0.0343(5) 0.3629(4) 0.0661(3)
H5 H 0.0542 0.3169 0.0667
H6 H 0.0924 0.3902 0.0627
C10 C -0.1159(4) 0.3684(4) 0.1106(3)
H7 H -0.1513 0.3907 0.1429
H8 H -0.1314 0.3217 0.1102
C11 C -0.1440(5) 0.3980(3) 0.0366(3)
C12 C -0.1471(5) 0.4737(3) 0.0399(4)
H9 H -0.0824 0.4899 0.0630
H10 H -0.1980 0.4871 0.0656
H11 H -0.1629 0.4912 -0.0067
C13 C -0.2431(4) 0.3676(3) -0.0049(3)
H12 H -0.2595 0.3901 -0.0497
H13 H -0.2297 0.3219 -0.0145
C14 C -0.3352(5) 0.3697(4) 0.0285(3)
C15 C -0.4257(5) 0.3379(4) -0.0197(4)
C16 C -0.5428(9) 0.3529(6) -0.1280(6)
H14 H -0.5192 0.3610 -0.1714
H15 H -0.5514 0.3058 -0.1232
C17 C -0.6308(10) 0.3839(9) -0.1291(8)
H16 H -0.6542 0.3749 -0.0864
H17 H -0.6798 0.3686 -0.1682
H18 H -0.6213 0.4305 -0.1333
C18 C 0.0541(5) 0.2712(4) 0.2080(3)
C19 C -0.0286(5) 0.2376(4) 0.2222(3)
H19 H -0.0836 0.2608 0.2324
C20 C -0.0298(5) 0.1702(5) 0.2213(3)
H20 H -0.0853 0.1480 0.2321
C21 C 0.0490(6) 0.1349(4) 0.2050(3)
C22 C 0.1303(6) 0.1678(5) 0.1902(4)
H21 H 0.1844 0.1442 0.1791
C23 C 0.1337(6) 0.2355(5) 0.1915(4)
H22 H 0.1899 0.2574 0.1813
C24 C 0.0460(7) 0.0600(5) 0.2041(5)
H23 H 0.0895 0.0437 0.1741
H24 H -0.0220 0.0454 0.1870
H25 H 0.0687 0.0436 0.2508
I2 I -0.63540(3) 0.13093(3) -0.17511(2)
S2 S -0.58340(15) 0.15818(11) 0.12734(10)
F4 F -0.3776(4) 0.2096(3) -0.1656(2)
F5 F -0.2132(3) 0.1951(3) 0.0965(2)
F6 F -0.1742(3) 0.0927(3) 0.0878(2)
O5 O -0.6835(4) 0.1331(3) 0.1064(3)
O6 O -0.5235(4) 0.1409(3) 0.1942(2)
O7 O -0.0615(5) 0.1215(3) -0.0035(4)
O8 O -0.0767(4) 0.2254(3) 0.0233(3)
N2 N -0.5208(4) 0.1316(3) 0.0691(2)
C25 C -0.1960(5) 0.1475(4) 0.0500(4)
C26 C -0.3549(5) 0.1463(4) -0.1770(3)
C27 C -0.2778(6) 0.1337(5) -0.2110(4)
H26 H -0.2401 0.1676 -0.2255
C28 C -0.2577(7) 0.0693(5) -0.2230(4)
H27 H -0.2058 0.0585 -0.2464
C29 C -0.3144(7) 0.0203(5) -0.2005(4)
H28 H -0.2998 -0.0235 -0.2086
C30 C -0.3932(6) 0.0348(4) -0.1657(4)
H29 H -0.4324 0.0011 -0.1522
C31 C -0.4911(5) 0.1163(3) -0.1111(3)
C32 C -0.4124(5) 0.0995(4) -0.1514(3)
C33 C -0.4801(4) 0.1219(3) -0.0422(3)
C34 C -0.5661(4) 0.1394(3) -0.0052(3)
H30 H -0.5886 0.1844 -0.0155
H31 H -0.6230 0.1098 -0.0188
C35 C -0.4112(4) 0.1476(3) 0.0779(3)
H32 H -0.3733 0.1306 0.1217
H33 H -0.4000 0.1947 0.0753
C36 C -0.3843(4) 0.1111(3) 0.0143(3)
C37 C -0.2879(4) 0.1397(3) -0.0079(3)
H34 H -0.2697 0.1113 -0.0436
H35 H -0.3046 0.1826 -0.0291
C38 C -0.1044(6) 0.1698(5) 0.0216(4)
C39 C 0.0243(10) 0.1372(7) -0.0398(8)
H36 H -0.0026 0.1517 -0.0872
H37 H 0.0638 0.1730 -0.0154
C40 C 0.0823(12) 0.0865(10) -0.0418(9)
H38 H 0.1113 0.0732 0.0051
H39 H 0.1354 0.0980 -0.0664
H40 H 0.0432 0.0509 -0.0657
C41 C -0.5898(5) 0.2447(4) 0.1208(3)
C42 C -0.5136(6) 0.2816(5) 0.1602(3)
H41 H -0.4609 0.2610 0.1904
C43 C -0.5165(6) 0.3499(5) 0.1542(4)
H42 H -0.4651 0.3749 0.1806
C44 C -0.5938(6) 0.3810(5) 0.1101(4)
C45 C -0.6699(6) 0.3425(5) 0.0721(4)
H43 H -0.7232 0.3627 0.0421
C46 C -0.6679(5) 0.2748(5) 0.0779(4)
H44 H -0.7201 0.2497 0.0525
C47 C -0.5965(7) 0.4558(5) 0.1026(5)
H45 H -0.5921 0.4675 0.0554
H46 H -0.5404 0.4747 0.1344
H47 H -0.6586 0.4724 0.1132
C48 C -0.3717(5) 0.0368(3) 0.0295(3)
H48 H -0.3638 0.0140 -0.0124
H49 H -0.4304 0.0203 0.0452
H50 H -0.3129 0.0296 0.0653
loop_
_geom_bond_atom_site_label_1
_geom_bond_atom_site_label_2
_geom_bond_site_symmetry_1
_geom_bond_site_symmetry_2
I1 C7 1_555 1_555
S1 O1 1_555 1_555
F1 C1 1_555 1_555
F2 C14 1_555 1_555
F3 C14 1_555 1_555
O2 S1 1_555 1_555
O3 C15 1_555 1_555
O4 C15 1_555 1_555
N1 S1 1_555 1_555
C1 C2 1_555 1_555
C2 H1 1_555 1_555
C3 C2 1_555 1_555
H2 C3 1_555 1_555
C4 C3 1_555 1_555
H3 C4 1_555 1_555
C5 C4 1_555 1_555
H4 C5 1_555 1_555
C6 C1 1_555 1_555
C7 C6 1_555 1_555
C8 C7 1_555 1_555
C9 N1 1_555 1_555
H5 C9 1_555 1_555
H6 C9 1_555 1_555
C10 N1 1_555 1_555
H7 C10 1_555 1_555
H8 C10 1_555 1_555
C11 C8 1_555 1_555
C12 C11 1_555 1_555
H9 C12 1_555 1_555
H10 C12 1_555 1_555
H11 C12 1_555 1_555
C13 C11 1_555 1_555
H12 C13 1_555 1_555
H13 C13 1_555 1_555
C14 C13 1_555 1_555
C15 C14 1_555 1_555
C16 O4 1_555 1_555
H14 C16 1_555 1_555
H15 C16 1_555 1_555
C17 C16 1_555 1_555
H16 C17 1_555 1_555
H17 C17 1_555 1_555
H18 C17 1_555 1_555
C18 S1 1_555 1_555
C19 C18 1_555 1_555
H19 C19 1_555 1_555
C20 C19 1_555 1_555
H20 C20 1_555 1_555
C21 C20 1_555 1_555
C22 C21 1_555 1_555
H21 C22 1_555 1_555
C23 C18 1_555 1_555
H22 C23 1_555 1_555
C24 C21 1_555 1_555
H23 C24 1_555 1_555
H24 C24 1_555 1_555
H25 C24 1_555 1_555
I2 C31 1_555 1_555
S2 O5 1_555 1_555
F4 C26 1_555 1_555
F5 C25 1_555 1_555
F6 C25 1_555 1_555
O6 S2 1_555 1_555
O7 C38 1_555 1_555
O8 C38 1_555 1_555
N2 S2 1_555 1_555
C25 C37 1_555 1_555
C26 C27 1_555 1_555
C27 H26 1_555 1_555
C28 C27 1_555 1_555
H27 C28 1_555 1_555
C29 C28 1_555 1_555
H28 C29 1_555 1_555
C30 C29 1_555 1_555
H29 C30 1_555 1_555
C31 C32 1_555 1_555
C32 C26 1_555 1_555
C33 C31 1_555 1_555
C34 N2 1_555 1_555
H30 C34 1_555 1_555
H31 C34 1_555 1_555
C35 N2 1_555 1_555
H32 C35 1_555 1_555
H33 C35 1_555 1_555
C36 C33 1_555 1_555
C37 C36 1_555 1_555
H34 C37 1_555 1_555
H35 C37 1_555 1_555
C38 C25 1_555 1_555
C39 O7 1_555 1_555
H36 C39 1_555 1_555
H37 C39 1_555 1_555
C40 C39 1_555 1_555
H38 C40 1_555 1_555
H39 C40 1_555 1_555
H40 C40 1_555 1_555
C41 S2 1_555 1_555
C42 C41 1_555 1_555
H41 C42 1_555 1_555
C43 C42 1_555 1_555
H42 C43 1_555 1_555
C44 C43 1_555 1_555
C45 C44 1_555 1_555
H43 C45 1_555 1_555
C46 C41 1_555 1_555
H44 C46 1_555 1_555
C47 C44 1_555 1_555
H45 C47 1_555 1_555
H46 C47 1_555 1_555
H47 C47 1_555 1_555
C48 C36 1_555 1_555
H48 C48 1_555 1_555
H49 C48 1_555 1_555
H50 C48 1_555 1_555
C5 C6 1_555 1_555
C8 C9 1_555 1_555
C10 C11 1_555 1_555
C22 C23 1_555 1_555
C30 C32 1_555 1_555
C33 C34 1_555 1_555
C35 C36 1_555 1_555
C45 C46 1_555 1_555

#END
