
#######################################################################
#
#                 Cambridge Crystallographic Data Centre
#                                CCDC 
#
#######################################################################
#
# If this CIF has been generated from an entry in the Cambridge 
# Structural Database, then it will include bibliographic, chemical, 
# crystal, experimental, refinement or atomic coordinate data resulting 
# from the CCDC's data processing and validation procedures.
#
#######################################################################

data_ZUTDEZ
_chemical_formula_moiety         'C22 H19 N1 O4 S1'
_chemical_name_systematic        
'(E)-N-((E)-3-(2-(p-Tosyloxy)phenyl)allylidene)aniline oxide'
_symmetry_cell_setting           monoclinic
_symmetry_space_group_name_H-M   'P 21/n'
_symmetry_Int_Tables_number      14
_space_group_name_Hall           '-P 2yn'
loop_
_symmetry_equiv_pos_site_id
_symmetry_equiv_pos_as_xyz
1 x,y,z
2 1/2-x,1/2+y,1/2-z
3 -x,-y,-z
4 1/2+x,1/2-y,1/2+z
_cell_length_a                   11.6836(2)
_cell_length_b                   7.53790(10)
_cell_length_c                   21.9834(15)
_cell_angle_alpha                90
_cell_angle_beta                 99.688(7)
_cell_angle_gamma                90
_cell_volume                     1908.46
_exptl_crystal_colour            yellow
_exptl_crystal_description       block
_cell_formula_units_Z            4
loop_
_atom_site_label
_atom_site_type_symbol
_atom_site_fract_x
_atom_site_fract_y
_atom_site_fract_z
S1 S 0.34529(6) 0.68332(10) 0.16123(3)
O1 O 0.39335(14) 0.4828(3) 0.17035(8)
O2 O -0.10642(17) 0.0652(3) 0.04956(9)
O3 O 0.39005(18) 0.7635(3) 0.11183(11)
O4 O 0.3724(2) 0.7542(4) 0.22180(11)
N1 N -0.07077(18) 0.0667(3) 0.10814(10)
C1 C 0.3421(2) 0.1719(4) 0.04011(14)
H1 H 0.2882 0.0883 0.0222
C2 C 0.3233(2) 0.2609(4) 0.09341(12)
C3 C -0.1546(2) 0.0132(4) 0.14661(12)
C4 C 0.1423(3) 0.6840(4) 0.08025(13)
H2 H 0.1845 0.7245 0.0507
C5 C 0.1232(2) 0.1505(4) 0.09745(13)
H3 H 0.1110 0.1229 0.0556
C6 C 0.2241(2) 0.2238(4) 0.12368(13)
H4 H 0.2315 0.2539 0.1652
C7 C 0.1963(2) 0.6557(4) 0.14062(12)
C8 C 0.0348(2) 0.1145(4) 0.13286(13)
H5 H 0.0525 0.1254 0.1756
C9 C -0.2713(2) 0.0303(4) 0.12224(14)
H6 H -0.2941 0.0824 0.0838
C10 C -0.1199(3) -0.0617(4) 0.20404(14)
H7 H -0.0416 -0.0717 0.2206
C11 C 0.4078(2) 0.3856(4) 0.11709(12)
C12 C 0.5219(2) 0.3238(4) 0.03981(15)
H8 H 0.5882 0.3419 0.0224
C13 C 0.5067(2) 0.4156(4) 0.09195(14)
H9 H 0.5622 0.4967 0.1100
C14 C -0.0390(2) 0.5892(4) 0.10734(16)
C15 C 0.0161(3) 0.5649(4) 0.16760(16)
H10 H -0.0266 0.5256 0.1971
C16 C 0.1330(2) 0.5979(4) 0.18466(13)
H11 H 0.1690 0.5816 0.2253
C17 C 0.0248(3) 0.6511(5) 0.06482(15)
H12 H -0.0121 0.6714 0.0245
C18 C -0.3202(3) -0.1078(5) 0.21196(17)
H13 H -0.3760 -0.1509 0.2337
C19 C -0.3534(3) -0.0303(5) 0.15540(16)
H14 H -0.4319 -0.0186 0.1393
C20 C 0.4384(3) 0.2048(4) 0.01346(15)
H15 H 0.4473 0.1462 -0.0227
C21 C -0.2044(3) -0.1219(5) 0.23651(15)
H16 H -0.1823 -0.1724 0.2753
C22 C -0.1668(3) 0.5491(6) 0.0892(2)
H17 H -0.1907 0.5732 0.0461
H18 H -0.2104 0.6222 0.1128
H19 H -0.1805 0.4264 0.0972
loop_
_geom_bond_atom_site_label_1
_geom_bond_atom_site_label_2
_geom_bond_site_symmetry_1
_geom_bond_site_symmetry_2
S1 O1 1_555 1_555
O1 C11 1_555 1_555
O2 N1 1_555 1_555
O3 S1 1_555 1_555
O4 S1 1_555 1_555
N1 C3 1_555 1_555
C1 H1 1_555 1_555
C2 C1 1_555 1_555
C3 C9 1_555 1_555
C4 H2 1_555 1_555
C5 H3 1_555 1_555
C6 C2 1_555 1_555
H4 C6 1_555 1_555
C7 S1 1_555 1_555
C8 N1 1_555 1_555
H5 C8 1_555 1_555
C9 H6 1_555 1_555
C10 C3 1_555 1_555
H7 C10 1_555 1_555
C11 C2 1_555 1_555
C12 H8 1_555 1_555
C13 C11 1_555 1_555
H9 C13 1_555 1_555
C14 C15 1_555 1_555
C15 H10 1_555 1_555
C16 C7 1_555 1_555
H11 C16 1_555 1_555
C17 C4 1_555 1_555
H12 C17 1_555 1_555
C18 H13 1_555 1_555
C19 C9 1_555 1_555
H14 C19 1_555 1_555
C20 C1 1_555 1_555
H15 C20 1_555 1_555
C21 C10 1_555 1_555
H16 C21 1_555 1_555
C22 C14 1_555 1_555
H17 C22 1_555 1_555
H18 C22 1_555 1_555
H19 C22 1_555 1_555
C4 C7 1_555 1_555
C5 C6 1_555 1_555
C5 C8 1_555 1_555
C12 C13 1_555 1_555
C12 C20 1_555 1_555
C14 C17 1_555 1_555
C15 C16 1_555 1_555
C18 C19 1_555 1_555
C18 C21 1_555 1_555

#END
