
#######################################################################
#
#                 Cambridge Crystallographic Data Centre
#                                CCDC 
#
#######################################################################
#
# If this CIF has been generated from an entry in the Cambridge 
# Structural Database, then it will include bibliographic, chemical, 
# crystal, experimental, refinement or atomic coordinate data resulting 
# from the CCDC's data processing and validation procedures.
#
#######################################################################

data_ZUTDID
_chemical_formula_moiety         'C20 H16 Br2 N2 O3'
_chemical_name_systematic        
3,6-Dibromo-8-methyl-5-phenyl-6,6a,6b,9a-tetrahydropyrrolo[3',4':4,5][1,2]oxazolo[2,3-a]quinoline-7,9(5H,8H)-dione
_symmetry_cell_setting           monoclinic
_symmetry_space_group_name_H-M   'P 21/c'
_symmetry_Int_Tables_number      14
_space_group_name_Hall           '-P 2ybc'
loop_
_symmetry_equiv_pos_site_id
_symmetry_equiv_pos_as_xyz
1 x,y,z
2 -x,1/2+y,1/2-z
3 -x,-y,-z
4 x,1/2-y,1/2+z
_cell_length_a                   10.199
_cell_length_b                   22.476
_cell_length_c                   8.841
_cell_angle_alpha                90
_cell_angle_beta                 107.61
_cell_angle_gamma                90
_cell_volume                     1931.67
_exptl_crystal_colour            colorless
_exptl_crystal_description       prism
_cell_formula_units_Z            4
loop_
_atom_site_label
_atom_site_type_symbol
_atom_site_fract_x
_atom_site_fract_y
_atom_site_fract_z
Br1 Br -0.10803(6) 1.14286(2) 0.13013(7)
Br2 Br -0.11036(6) 0.78505(3) 0.29455(10)
O1 O 0.2496(4) 0.91852(14) 0.5081(3)
N1 N 0.2003(3) 0.91157(16) 0.3326(4)
O2 O 0.5492(4) 0.8810(2) 0.6434(5)
C1 C 0.3279(5) 0.7862(2) 0.3808(6)
O3 O 0.3073(4) 0.74880(17) 0.2769(5)
N2 N 0.4540(4) 0.80806(18) 0.4587(5)
C2 C -0.0135(5) 1.0693(2) 0.1816(5)
C3 C -0.0192(4) 0.96387(18) 0.2079(4)
C4 C -0.0211(4) 0.86313(18) 0.3207(5)
H1 H -0.0176 0.8798 0.4242
C5 C 0.1245(4) 0.85528(18) 0.3108(5)
H2 H 0.1195 0.8389 0.2064
C6 C 0.1296(5) 1.0703(2) 0.2464(5)
H3 H 0.1782 1.1059 0.2591
C7 C 0.3026(5) 0.8604(2) 0.5623(5)
H4 H 0.2927 0.8520 0.6671
C8 C 0.1959(5) 1.0172(2) 0.2905(5)
H5 H 0.2913 1.0168 0.3313
C9 C -0.0996(4) 0.9054(2) 0.1887(5)
H6 H -0.0978 0.8877 0.0880
C10 C -0.2496(4) 0.9135(2) 0.1790(5)
C11 C 0.1240(4) 0.96399(19) 0.2756(4)
C12 C 0.4512(5) 0.8536(2) 0.5646(5)
C13 C -0.3519(5) 0.8935(3) 0.0472(6)
H7 H -0.3282 0.8751 -0.0350
C14 C -0.2890(5) 0.9414(3) 0.2984(6)
H8 H -0.2222 0.9553 0.3881
C15 C -0.0869(4) 1.0172(2) 0.1596(5)
H9 H -0.1817 1.0177 0.1125
C16 C 0.2193(4) 0.8163(2) 0.4387(5)
H10 H 0.1682 0.7880 0.4838
C17 C 0.5809(6) 0.7886(3) 0.4285(9)
H11 H 0.6059 0.7498 0.4736
H12 H 0.6534 0.8162 0.4759
H13 H 0.5665 0.7869 0.3161
C18 C -0.5257(5) 0.9281(3) 0.1556(7)
H14 H -0.6180 0.9326 0.1483
C19 C -0.4262(6) 0.9486(3) 0.2853(6)
H15 H -0.4510 0.9677 0.3659
C20 C -0.4893(5) 0.9007(4) 0.0363(7)
H16 H -0.5571 0.8868 -0.0526
loop_
_geom_bond_atom_site_label_1
_geom_bond_atom_site_label_2
_geom_bond_site_symmetry_1
_geom_bond_site_symmetry_2
Br1 C2 1_555 1_555
Br2 C4 1_555 1_555
O1 N1 1_555 1_555
N1 C5 1_555 1_555
O2 C12 1_555 1_555
C1 O3 1_555 1_555
N2 C1 1_555 1_555
C2 C6 1_555 1_555
C3 C9 1_555 1_555
C4 H1 1_555 1_555
C5 C4 1_555 1_555
H2 C5 1_555 1_555
C6 H3 1_555 1_555
C7 O1 1_555 1_555
H4 C7 1_555 1_555
C8 C6 1_555 1_555
H5 C8 1_555 1_555
C9 C4 1_555 1_555
H6 C9 1_555 1_555
C10 C9 1_555 1_555
C11 N1 1_555 1_555
C12 N2 1_555 1_555
C13 C10 1_555 1_555
H7 C13 1_555 1_555
C14 C10 1_555 1_555
H8 C14 1_555 1_555
C15 C2 1_555 1_555
H9 C15 1_555 1_555
C16 C1 1_555 1_555
H10 C16 1_555 1_555
C17 N2 1_555 1_555
H11 C17 1_555 1_555
H12 C17 1_555 1_555
H13 C17 1_555 1_555
C18 H14 1_555 1_555
C19 C14 1_555 1_555
H15 C19 1_555 1_555
C20 C13 1_555 1_555
H16 C20 1_555 1_555
C3 C11 1_555 1_555
C3 C15 1_555 1_555
C5 C16 1_555 1_555
C7 C12 1_555 1_555
C7 C16 1_555 1_555
C8 C11 1_555 1_555
C18 C19 1_555 1_555
C18 C20 1_555 1_555

#END
