
#######################################################################
#
#                 Cambridge Crystallographic Data Centre
#                                CCDC 
#
#######################################################################
#
# If this CIF has been generated from an entry in the Cambridge 
# Structural Database, then it will include bibliographic, chemical, 
# crystal, experimental, refinement or atomic coordinate data resulting 
# from the CCDC's data processing and validation procedures.
#
#######################################################################

data_ZUTFUR
_chemical_formula_moiety         'C28 H24 F3 N1 O4 S1'
_chemical_name_systematic        
'Methyl 4-((4-methylphenyl)sulfonyl)-3,6-diphenyl-1-(trifluoromethyl)-2-azabicyclo[3.2.0]hept-2-ene-7-carboxylate'
_symmetry_cell_setting           monoclinic
_symmetry_space_group_name_H-M   'P 21/n'
_symmetry_Int_Tables_number      14
_space_group_name_Hall           '-P 2yn'
loop_
_symmetry_equiv_pos_site_id
_symmetry_equiv_pos_as_xyz
1 x,y,z
2 1/2-x,1/2+y,1/2-z
3 -x,-y,-z
4 1/2+x,1/2-y,1/2+z
_cell_length_a                   15.6589(11)
_cell_length_b                   9.9834(7)
_cell_length_c                   16.2519(12)
_cell_angle_alpha                90
_cell_angle_beta                 92.274(2)
_cell_angle_gamma                90
_cell_volume                     2538.64
_exptl_crystal_colour            colorless
_exptl_crystal_description       prismatic
_cell_formula_units_Z            4
loop_
_atom_site_label
_atom_site_type_symbol
_atom_site_fract_x
_atom_site_fract_y
_atom_site_fract_z
S1 S 0.59372(4) 0.58671(8) 0.20055(4)
F1 F 0.56827(11) 0.98614(17) 0.33326(12)
F2 F 0.43740(11) 0.99926(17) 0.36116(11)
F3 F 0.47330(12) 0.91626(18) 0.24653(9)
N1 N 0.42993(12) 0.6990(2) 0.33718(12)
O1 O 0.44058(12) 0.6590(2) 0.55764(11)
O2 O 0.38050(12) 0.8423(2) 0.50340(11)
O3 O 0.53430(13) 0.6643(2) 0.15004(11)
O4 O 0.68094(12) 0.6282(2) 0.20845(12)
C1 C 0.50097(14) 0.7845(3) 0.36517(13)
C2 C 0.51727(14) 0.7856(3) 0.46063(13)
H1 H 0.5442 0.8699 0.4785
C3 C 0.58558(14) 0.6745(3) 0.45159(13)
H2 H 0.5603 0.5869 0.4628
C4 C 0.58318(14) 0.7002(3) 0.35658(13)
H3 H 0.6323 0.7494 0.3364
C5 C 0.55512(14) 0.5802(3) 0.30472(13)
H4 H 0.5741 0.4971 0.3318
C6 C 0.45821(14) 0.5913(3) 0.30548(13)
C7 C 0.40062(15) 0.4887(3) 0.26811(14)
C8 C 0.41768(17) 0.3537(3) 0.27521(16)
H5 H 0.4660 0.3247 0.3052
C9 C 0.36300(18) 0.2614(3) 0.23778(17)
H6 H 0.3743 0.1703 0.2432
C10 C 0.29243(19) 0.3036(3) 0.19279(17)
H7 H 0.2560 0.2412 0.1675
C11 C 0.27542(17) 0.4371(3) 0.18500(17)
H8 H 0.2278 0.4655 0.1537
C12 C 0.32856(16) 0.5301(3) 0.22338(15)
H9 H 0.3159 0.6209 0.2191
C13 C 0.67013(15) 0.6871(3) 0.49818(14)
C14 C 0.71960(17) 0.8007(3) 0.49233(16)
H10 H 0.7000 0.8720 0.4599
C15 C 0.79824(18) 0.8099(4) 0.53417(18)
H11 H 0.8307 0.8874 0.5301
C16 C 0.82823(19) 0.7054(4) 0.58136(18)
H12 H 0.8813 0.7113 0.6089
C17 C 0.77964(19) 0.5916(4) 0.58803(18)
H13 H 0.7996 0.5206 0.6205
C18 C 0.70087(16) 0.5826(3) 0.54647(15)
H14 H 0.6683 0.5053 0.5512
C19 C 0.44321(16) 0.7532(3) 0.51281(15)
C20 C 0.30415(18) 0.8146(3) 0.5490(2)
H15 H 0.2838 0.7261 0.5359
H16 H 0.2606 0.8789 0.5340
H17 H 0.3177 0.8207 0.6070
C21 C 0.49423(18) 0.9203(3) 0.32597(17)
C22 C 0.59107(16) 0.4205(3) 0.16688(15)
C23 C 0.64955(19) 0.3295(4) 0.20011(17)
H18 H 0.6914 0.3578 0.2384
C24 C 0.6457(2) 0.1972(4) 0.1764(2)
H19 H 0.6845 0.1364 0.1999
C25 C 0.5862(3) 0.1535(4) 0.1191(2)
C26 C 0.5287(2) 0.2442(4) 0.0863(2)
H20 H 0.4874 0.2153 0.0475
C27 C 0.53032(18) 0.3780(4) 0.10957(17)
H21 H 0.4907 0.4381 0.0866
C28 C 0.5854(3) 0.0072(4) 0.0924(3)
H22 H 0.5274 -0.0213 0.0817
H23 H 0.6112 -0.0469 0.1354
H24 H 0.6169 -0.0024 0.0432
loop_
_geom_bond_atom_site_label_1
_geom_bond_atom_site_label_2
_geom_bond_site_symmetry_1
_geom_bond_site_symmetry_2
S1 O3 1_555 1_555
F1 C21 1_555 1_555
F2 C21 1_555 1_555
F3 C21 1_555 1_555
N1 C1 1_555 1_555
O1 C19 1_555 1_555
O2 C19 1_555 1_555
O4 S1 1_555 1_555
C1 C2 1_555 1_555
C2 H1 1_555 1_555
C3 C2 1_555 1_555
H2 C3 1_555 1_555
C4 C1 1_555 1_555
H3 C4 1_555 1_555
C5 S1 1_555 1_555
H4 C5 1_555 1_555
C6 N1 1_555 1_555
C7 C6 1_555 1_555
C8 C7 1_555 1_555
H5 C8 1_555 1_555
C9 C8 1_555 1_555
H6 C9 1_555 1_555
C10 C9 1_555 1_555
H7 C10 1_555 1_555
C11 C10 1_555 1_555
H8 C11 1_555 1_555
C12 C7 1_555 1_555
H9 C12 1_555 1_555
C13 C3 1_555 1_555
C14 C13 1_555 1_555
H10 C14 1_555 1_555
C15 C14 1_555 1_555
H11 C15 1_555 1_555
C16 C15 1_555 1_555
H12 C16 1_555 1_555
C17 C16 1_555 1_555
H13 C17 1_555 1_555
C18 C13 1_555 1_555
H14 C18 1_555 1_555
C19 C2 1_555 1_555
C20 O2 1_555 1_555
H15 C20 1_555 1_555
H16 C20 1_555 1_555
H17 C20 1_555 1_555
C21 C1 1_555 1_555
C22 S1 1_555 1_555
C23 C22 1_555 1_555
H18 C23 1_555 1_555
C24 C23 1_555 1_555
H19 C24 1_555 1_555
C25 C24 1_555 1_555
C26 C25 1_555 1_555
H20 C26 1_555 1_555
C27 C22 1_555 1_555
H21 C27 1_555 1_555
C28 C25 1_555 1_555
H22 C28 1_555 1_555
H23 C28 1_555 1_555
H24 C28 1_555 1_555
C3 C4 1_555 1_555
C4 C5 1_555 1_555
C5 C6 1_555 1_555
C11 C12 1_555 1_555
C17 C18 1_555 1_555
C26 C27 1_555 1_555

#END
