
#######################################################################
#
#                 Cambridge Crystallographic Data Centre
#                                CCDC 
#
#######################################################################
#
# If this CIF has been generated from an entry in the Cambridge 
# Structural Database, then it will include bibliographic, chemical, 
# crystal, experimental, refinement or atomic coordinate data resulting 
# from the CCDC's data processing and validation procedures.
#
#######################################################################

data_ZUTGUS
_chemical_formula_moiety         'C22 H18 F3 N1 O4 S1'
_chemical_name_systematic        
'Methyl 4-(1-((4-methylphenyl)sulfonyl)vinyl)-5-phenyl-2-(trifluoromethyl)-1H-pyrrole-3-carboxylate'
_symmetry_cell_setting           monoclinic
_symmetry_space_group_name_H-M   'P 21/c'
_symmetry_Int_Tables_number      14
_space_group_name_Hall           '-P 2ybc'
loop_
_symmetry_equiv_pos_site_id
_symmetry_equiv_pos_as_xyz
1 x,y,z
2 -x,1/2+y,1/2-z
3 -x,-y,-z
4 x,1/2-y,1/2+z
_cell_length_a                   15.900(2)
_cell_length_b                   21.601(3)
_cell_length_c                   19.802(3)
_cell_angle_alpha                90
_cell_angle_beta                 110.332(3)
_cell_angle_gamma                90
_cell_volume                     6377.37
_exptl_crystal_colour            colorless
_exptl_crystal_description       prismatic
_cell_formula_units_Z            12
loop_
_atom_site_label
_atom_site_type_symbol
_atom_site_fract_x
_atom_site_fract_y
_atom_site_fract_z
S1 S 0.48133(11) 0.27695(8) 0.91584(9)
N1 N 0.5738(4) 0.4596(3) 0.8405(3)
O1 O 0.3300(4) 0.4641(3) 0.8884(3)
O2 O 0.4214(3) 0.4170(2) 0.9851(3)
O3 O 0.3985(2) 0.3034(2) 0.8677(2)
O4 O 0.4786(3) 0.2315(2) 0.9685(2)
F1 F 0.4271(4) 0.5717(2) 0.8546(2)
F2 F 0.5019(4) 0.5669(2) 0.7859(3)
F3 F 0.3772(3) 0.52315(19) 0.7571(2)
C1 C 0.5516(4) 0.3389(3) 0.9615(3)
C2 C 0.5974(5) 0.3324(4) 1.0306(3)
H1 H 0.6333 0.3646 1.0561
H2 H 0.5940 0.2956 1.0539
C3 C 0.5500(4) 0.3941(3) 0.9172(3)
C4 C 0.6061(4) 0.4074(3) 0.8805(3)
C5 C 0.4969(4) 0.4778(3) 0.8485(4)
C6 C 0.4786(4) 0.4395(3) 0.8969(3)
C7 C 0.4020(5) 0.4424(4) 0.9204(4)
C8 C 0.3526(5) 0.4123(4) 1.0162(4)
H3 H 0.3347 0.4530 1.0251
H4 H 0.3751 0.3898 1.0607
H5 H 0.3018 0.3908 0.9835
C9 C 0.4508(6) 0.5355(4) 0.8123(5)
C10 C 0.6888(4) 0.3769(2) 0.8785(3)
C11 C 0.7537(4) 0.3570(3) 0.9421(3)
H6 H 0.7464 0.3642 0.9861
C12 C 0.8292(4) 0.3264(3) 0.9400(3)
H7 H 0.8715 0.3120 0.9826
C13 C 0.8426(4) 0.3170(2) 0.8759(3)
H8 H 0.8934 0.2963 0.8748
C14 C 0.7793(4) 0.3387(2) 0.8131(3)
H9 H 0.7884 0.3335 0.7695
C15 C 0.7027(4) 0.3679(2) 0.8144(3)
H10 H 0.6602 0.3817 0.7716
C16 C 0.5412(4) 0.2469(3) 0.8639(3)
C17 C 0.6237(5) 0.2189(3) 0.8994(3)
H11 H 0.6441 0.2142 0.9491
C18 C 0.6744(4) 0.1985(3) 0.8601(4)
H12 H 0.7302 0.1806 0.8838
C19 C 0.6440(5) 0.2040(3) 0.7862(4)
C20 C 0.5636(5) 0.2309(3) 0.7533(3)
H13 H 0.5426 0.2348 0.7034
C21 C 0.5110(4) 0.2530(3) 0.7914(4)
H14 H 0.4560 0.2716 0.7674
C22 C 0.7036(5) 0.1835(3) 0.7451(4)
H15 H 0.7117 0.1395 0.7493
H16 H 0.7608 0.2037 0.7646
H17 H 0.6759 0.1944 0.6952
H18 H 0.609(4) 0.478(2) 0.820(3)
S2 S 0.22323(11) 0.42403(7) 0.19426(9)
N2 N 0.1718(3) 0.5698(2) 0.3459(2)
O5 O 0.4388(3) 0.5420(2) 0.3445(3)
O6 O 0.4066(3) 0.4497(2) 0.3782(3)
O7 O 0.2903(3) 0.46926(18) 0.1936(2)
O8 O 0.2294(3) 0.36221(19) 0.1696(3)
F4 F 0.3330(3) 0.66998(17) 0.35886(18)
F5 F 0.3850(3) 0.61769(16) 0.45376(19)
F6 F 0.2611(3) 0.66419(17) 0.4303(2)
C23 C 0.2213(4) 0.4204(3) 0.2839(3)
C24 C 0.2300(5) 0.3660(3) 0.3139(4)
H19 H 0.2354 0.3625 0.3621
H20 H 0.2307 0.3307 0.2873
C25 C 0.2186(4) 0.4818(2) 0.3172(3)
C26 C 0.1440(4) 0.5127(2) 0.3166(3)
C27 C 0.2620(4) 0.5753(2) 0.3644(3)
C28 C 0.2937(4) 0.5214(3) 0.3464(3)
C29 C 0.3877(5) 0.5073(3) 0.3563(3)
C30 C 0.4968(5) 0.4284(4) 0.3873(5)
H21 H 0.5043 0.4272 0.3413
H22 H 0.5055 0.3876 0.4080
H23 H 0.5399 0.4562 0.4187
C31 C 0.3105(5) 0.6309(3) 0.4004(3)
C32 C 0.0483(4) 0.4976(3) 0.2904(3)
C33 C -0.0165(4) 0.5405(3) 0.2537(3)
H24 H 0.0010 0.5799 0.2450
C34 C -0.1065(4) 0.5255(4) 0.2299(3)
H25 H -0.1493 0.5551 0.2066
C35 C -0.1320(5) 0.4676(4) 0.2407(4)
H26 H -0.1925 0.4572 0.2225
C36 C -0.0715(5) 0.4245(4) 0.2772(4)
H27 H -0.0907 0.3857 0.2861
C37 C 0.0201(4) 0.4387(3) 0.3015(3)
H28 H 0.0621 0.4088 0.3251
C38 C 0.1172(4) 0.4537(3) 0.1457(3)
C39 C 0.1064(5) 0.5156(3) 0.1262(3)
H29 H 0.1561 0.5416 0.1384
C40 C 0.0223(5) 0.5386(3) 0.0888(3)
H30 H 0.0154 0.5800 0.0751
C41 C -0.0525(5) 0.5002(3) 0.0715(3)
C42 C -0.0403(5) 0.4398(4) 0.0925(3)
H31 H -0.0901 0.4141 0.0820
C43 C 0.0436(5) 0.4154(3) 0.1289(3)
H32 H 0.0502 0.3738 0.1418
C44 C -0.1445(5) 0.5265(4) 0.0339(4)
H33 H -0.1777 0.4992 -0.0043
H34 H -0.1392 0.5663 0.0142
H35 H -0.1751 0.5307 0.0677
H36 H 0.140(3) 0.598(2) 0.356(2)
S3 S -0.01174(10) 0.33978(7) 0.54286(8)
N3 N 0.2126(4) 0.3020(2) 0.7672(3)
O9 O -0.0616(3) 0.2813(3) 0.7450(3)
O10 O -0.0595(3) 0.22387(17) 0.6528(2)
O11 O -0.0585(2) 0.35831(16) 0.5909(2)
O12 O -0.0641(3) 0.32251(18) 0.46975(19)
F7 F 0.2194(3) 0.2852(2) 0.90277(18)
F8 F 0.0988(3) 0.2362(2) 0.86898(19)
F9 F 0.0960(3) 0.3329(2) 0.87390(19)
C45 C 0.0605(3) 0.2771(2) 0.5839(3)
C46 C 0.0675(4) 0.2317(3) 0.5416(3)
H37 H 0.1055 0.1985 0.5608
H38 H 0.0345 0.2329 0.4926
C47 C 0.1084(4) 0.2816(2) 0.6622(3)
C48 C 0.1977(4) 0.2981(2) 0.6950(3)
C49 C 0.1363(4) 0.2881(2) 0.7812(3)
C50 C 0.0706(4) 0.2763(2) 0.7170(3)
C51 C -0.0228(4) 0.2621(3) 0.7080(3)
C52 C -0.1532(4) 0.2083(3) 0.6364(4)
H39 H -0.1725 0.2225 0.6746
H40 H -0.1606 0.1642 0.6317
H41 H -0.1886 0.2277 0.5921
C53 C 0.1375(5) 0.2866(4) 0.8554(3)
C54 C 0.2682(4) 0.3142(3) 0.6662(3)
C55 C 0.2896(4) 0.2763(3) 0.6173(3)
H42 H 0.2594 0.2389 0.6035
C56 C 0.3540(5) 0.2928(3) 0.5889(3)
H43 H 0.3657 0.2676 0.5552
C57 C 0.4009(4) 0.3468(4) 0.6108(4)
H44 H 0.4447 0.3580 0.5920
C58 C 0.3837(5) 0.3840(3) 0.6600(4)
H45 H 0.4163 0.4203 0.6748
C59 C 0.3175(4) 0.3683(3) 0.6884(3)
H46 H 0.3064 0.3939 0.7220
C60 C 0.0639(4) 0.3987(3) 0.5416(3)
C61 C 0.1170(5) 0.3910(3) 0.5010(3)
H47 H 0.1119 0.3555 0.4732
C62 C 0.1781(5) 0.4362(4) 0.5013(4)
H48 H 0.2147 0.4307 0.4740
C63 C 0.1860(5) 0.4891(3) 0.5411(3)
C64 C 0.1316(6) 0.4963(3) 0.5794(4)
H49 H 0.1349 0.5326 0.6054
C65 C 0.0707(5) 0.4510(3) 0.5810(3)
H50 H 0.0348 0.4565 0.6089
C66 C 0.2559(5) 0.5377(3) 0.5430(4)
H51 H 0.2266 0.5740 0.5178
H52 H 0.2956 0.5215 0.5202
H53 H 0.2897 0.5481 0.5921
H54 H 0.265(3) 0.3069(18) 0.799(2)
loop_
_geom_bond_atom_site_label_1
_geom_bond_atom_site_label_2
_geom_bond_site_symmetry_1
_geom_bond_site_symmetry_2
S1 O3 1_555 1_555
N1 C4 1_555 1_555
O1 C7 1_555 1_555
O2 C7 1_555 1_555
O4 S1 1_555 1_555
F1 C9 1_555 1_555
F2 C9 1_555 1_555
F3 C9 1_555 1_555
C1 S1 1_555 1_555
C2 C1 1_555 1_555
H1 C2 1_555 1_555
H2 C2 1_555 1_555
C3 C1 1_555 1_555
C4 C3 1_555 1_555
C5 N1 1_555 1_555
C6 C3 1_555 1_555
C7 C6 1_555 1_555
C8 O2 1_555 1_555
H3 C8 1_555 1_555
H4 C8 1_555 1_555
H5 C8 1_555 1_555
C9 C5 1_555 1_555
C10 C4 1_555 1_555
C11 C10 1_555 1_555
H6 C11 1_555 1_555
C12 C11 1_555 1_555
H7 C12 1_555 1_555
C13 C12 1_555 1_555
H8 C13 1_555 1_555
C14 C13 1_555 1_555
H9 C14 1_555 1_555
C15 C10 1_555 1_555
H10 C15 1_555 1_555
C16 S1 1_555 1_555
C17 C16 1_555 1_555
H11 C17 1_555 1_555
C18 C17 1_555 1_555
H12 C18 1_555 1_555
C19 C18 1_555 1_555
C20 C19 1_555 1_555
H13 C20 1_555 1_555
C21 C16 1_555 1_555
H14 C21 1_555 1_555
C22 C19 1_555 1_555
H15 C22 1_555 1_555
H16 C22 1_555 1_555
H17 C22 1_555 1_555
H18 N1 1_555 1_555
S2 O7 1_555 1_555
N2 C26 1_555 1_555
O5 C29 1_555 1_555
O6 C29 1_555 1_555
O8 S2 1_555 1_555
F4 C31 1_555 1_555
F5 C31 1_555 1_555
F6 C31 1_555 1_555
C23 S2 1_555 1_555
C24 C23 1_555 1_555
H19 C24 1_555 1_555
H20 C24 1_555 1_555
C25 C23 1_555 1_555
C26 C25 1_555 1_555
C27 N2 1_555 1_555
C28 C25 1_555 1_555
C29 C28 1_555 1_555
C30 O6 1_555 1_555
H21 C30 1_555 1_555
H22 C30 1_555 1_555
H23 C30 1_555 1_555
C31 C27 1_555 1_555
C32 C26 1_555 1_555
C33 C32 1_555 1_555
H24 C33 1_555 1_555
C34 C33 1_555 1_555
H25 C34 1_555 1_555
C35 C34 1_555 1_555
H26 C35 1_555 1_555
C36 C35 1_555 1_555
H27 C36 1_555 1_555
C37 C32 1_555 1_555
H28 C37 1_555 1_555
C38 S2 1_555 1_555
C39 C38 1_555 1_555
H29 C39 1_555 1_555
C40 C39 1_555 1_555
H30 C40 1_555 1_555
C41 C40 1_555 1_555
C42 C41 1_555 1_555
H31 C42 1_555 1_555
C43 C38 1_555 1_555
H32 C43 1_555 1_555
C44 C41 1_555 1_555
H33 C44 1_555 1_555
H34 C44 1_555 1_555
H35 C44 1_555 1_555
H36 N2 1_555 1_555
S3 O11 1_555 1_555
N3 C48 1_555 1_555
O9 C51 1_555 1_555
O10 C51 1_555 1_555
O12 S3 1_555 1_555
F7 C53 1_555 1_555
F8 C53 1_555 1_555
F9 C53 1_555 1_555
C45 S3 1_555 1_555
C46 C45 1_555 1_555
H37 C46 1_555 1_555
H38 C46 1_555 1_555
C47 C45 1_555 1_555
C48 C47 1_555 1_555
C49 N3 1_555 1_555
C50 C47 1_555 1_555
C51 C50 1_555 1_555
C52 O10 1_555 1_555
H39 C52 1_555 1_555
H40 C52 1_555 1_555
H41 C52 1_555 1_555
C53 C49 1_555 1_555
C54 C48 1_555 1_555
C55 C54 1_555 1_555
H42 C55 1_555 1_555
C56 C55 1_555 1_555
H43 C56 1_555 1_555
C57 C56 1_555 1_555
H44 C57 1_555 1_555
C58 C57 1_555 1_555
H45 C58 1_555 1_555
C59 C54 1_555 1_555
H46 C59 1_555 1_555
C60 S3 1_555 1_555
C61 C60 1_555 1_555
H47 C61 1_555 1_555
C62 C61 1_555 1_555
H48 C62 1_555 1_555
C63 C62 1_555 1_555
C64 C63 1_555 1_555
H49 C64 1_555 1_555
C65 C60 1_555 1_555
H50 C65 1_555 1_555
C66 C63 1_555 1_555
H51 C66 1_555 1_555
H52 C66 1_555 1_555
H53 C66 1_555 1_555
H54 N3 1_555 1_555
C5 C6 1_555 1_555
C14 C15 1_555 1_555
C20 C21 1_555 1_555
C27 C28 1_555 1_555
C36 C37 1_555 1_555
C42 C43 1_555 1_555
C49 C50 1_555 1_555
C58 C59 1_555 1_555
C64 C65 1_555 1_555

#END
