
#######################################################################
#
#                 Cambridge Crystallographic Data Centre
#                                CCDC 
#
#######################################################################
#
# If this CIF has been generated from an entry in the Cambridge 
# Structural Database, then it will include bibliographic, chemical, 
# crystal, experimental, refinement or atomic coordinate data resulting 
# from the CCDC's data processing and validation procedures.
#
#######################################################################

data_ZUTGOM
_chemical_formula_moiety         'C28 H24 F3 N1 O5 S1'
_chemical_name_systematic        
'Methyl 4,4,4-trifluoro-3-(((4-methylphenyl)sulfonyl)(4-phenoxy-1-phenylbut-2-yn-1-yl)amino)but-2-enoate'
_symmetry_cell_setting           triclinic
_symmetry_space_group_name_H-M   'P -1'
_symmetry_Int_Tables_number      2
_space_group_name_Hall           '-P 1'
loop_
_symmetry_equiv_pos_site_id
_symmetry_equiv_pos_as_xyz
1 x,y,z
2 -x,-y,-z
_cell_length_a                   12.978(4)
_cell_length_b                   13.576(4)
_cell_length_c                   16.636(5)
_cell_angle_alpha                84.126(6)
_cell_angle_beta                 79.909(7)
_cell_angle_gamma                65.828(7)
_cell_volume                     2631.19
_exptl_crystal_colour            colorless
_exptl_crystal_description       prismatic
_cell_formula_units_Z            4
loop_
_atom_site_label
_atom_site_type_symbol
_atom_site_fract_x
_atom_site_fract_y
_atom_site_fract_z
S1 S 0.79874(9) 0.73741(8) 1.13029(5)
N1 N 0.7422(2) 0.6780(2) 1.08124(15)
O1 O 0.8870(3) 0.6473(2) 0.74729(15)
O2 O 0.4324(3) 0.9206(4) 0.9910(2)
O3 O 0.5034(2) 0.8137(2) 0.88851(17)
O4 O 0.7045(2) 0.8208(2) 1.17276(16)
O5 O 0.8803(3) 0.6542(2) 1.17299(16)
F1 F 0.4599(3) 0.7195(3) 1.0931(2)
F2 F 0.4769(2) 0.8333(2) 1.15802(18)
F3 F 0.5663(3) 0.6727(3) 1.18435(18)
C1 C 0.6317(3) 0.7394(3) 1.0594(2)
C2 C 0.5323(4) 0.7418(3) 1.1228(3)
C3 C 0.6164(3) 0.7853(3) 0.9870(2)
H1 H 0.6819 0.7779 0.9503
C4 C 0.5060(4) 0.8478(3) 0.9572(3)
C5 C 0.4021(4) 0.8737(4) 0.8499(3)
H2 H 0.3363 0.8705 0.8849
H3 H 0.4105 0.8425 0.7987
H4 H 0.3928 0.9476 0.8407
C6 C 0.8173(3) 0.5767(2) 1.03908(19)
H5 H 0.8812 0.5398 1.0700
C7 C 0.8667(3) 0.5950(2) 0.9553(2)
C8 C 0.9086(3) 0.6074(3) 0.8886(2)
C9 C 0.9618(4) 0.6220(3) 0.8055(2)
H6 H 0.9882 0.6795 0.8047
H7 H 1.0280 0.5561 0.7904
C10 C 0.7991(4) 0.7470(3) 0.7489(2)
C11 C 0.7814(4) 0.8258(3) 0.8002(2)
H8 H 0.8311 0.8135 0.8377
C12 C 0.6896(4) 0.9243(3) 0.7967(3)
H9 H 0.6773 0.9772 0.8328
C13 C 0.6172(5) 0.9448(4) 0.7416(4)
H10 H 0.5556 1.0111 0.7399
C14 C 0.6359(5) 0.8668(5) 0.6889(3)
H11 H 0.5875 0.8809 0.6501
C15 C 0.7264(5) 0.7665(4) 0.6920(3)
H12 H 0.7380 0.7133 0.6563
C16 C 0.7537(3) 0.5051(2) 1.0448(2)
C17 C 0.7331(4) 0.4548(3) 1.1186(2)
H13 H 0.7619 0.4631 1.1637
C18 C 0.6712(4) 0.3933(4) 1.1262(3)
H14 H 0.6576 0.3599 1.1762
C19 C 0.6291(4) 0.3809(4) 1.0602(4)
H15 H 0.5851 0.3404 1.0656
C20 C 0.6509(4) 0.4274(4) 0.9865(3)
H16 H 0.6239 0.4168 0.9413
C21 C 0.7125(3) 0.4895(3) 0.9789(2)
H17 H 0.7266 0.5216 0.9285
C22 C 0.8718(3) 0.7959(3) 1.0571(2)
C23 C 0.8128(3) 0.8923(3) 1.0181(3)
H18 H 0.7340 0.9267 1.0314
C24 C 0.8699(4) 0.9372(3) 0.9600(3)
H19 H 0.8290 1.0025 0.9344
C25 C 0.9867(4) 0.8886(4) 0.9379(2)
C26 C 1.0432(4) 0.7926(4) 0.9787(3)
H20 H 1.1221 0.7582 0.9657
C27 C 0.9877(4) 0.7460(3) 1.0373(3)
H21 H 1.0284 0.6812 1.0635
C28 C 1.0504(5) 0.9365(5) 0.8735(3)
H22 H 0.9987 1.0058 0.8554
H23 H 1.0835 0.8895 0.8281
H24 H 1.1097 0.9448 0.8957
S2 S 0.13157(9) 0.74025(7) 0.63109(5)
N2 N 0.2134(2) 0.8000(2) 0.58384(16)
O6 O 0.1191(2) 0.8649(2) 0.27012(16)
O7 O 0.5677(3) 0.5738(4) 0.5008(2)
O8 O 0.5277(2) 0.6732(2) 0.39044(18)
O9 O 0.2054(3) 0.6475(2) 0.67116(15)
O10 O 0.0369(2) 0.8200(2) 0.67699(15)
F4 F 0.3381(3) 0.7843(2) 0.69525(17)
F5 F 0.4471(3) 0.6273(2) 0.66089(16)
F6 F 0.4860(3) 0.7583(3) 0.6063(2)
C29 C 0.3329(3) 0.7384(3) 0.5647(2)
C30 C 0.4025(5) 0.7267(4) 0.6318(3)
C31 C 0.3787(3) 0.7001(3) 0.4927(2)
H25 H 0.3289 0.7103 0.4558
C32 C 0.5019(4) 0.6419(4) 0.4632(3)
C33 C 0.6472(4) 0.6243(5) 0.3545(3)
H26 H 0.6944 0.6237 0.3932
H27 H 0.6604 0.6653 0.3063
H28 H 0.6658 0.5515 0.3404
C34 C 0.1606(3) 0.9107(2) 0.54797(19)
H29 H 0.0799 0.9402 0.5720
C35 C 0.1642(3) 0.9121(2) 0.4590(2)
C36 C 0.1665(3) 0.9160(3) 0.3876(2)
C37 C 0.1672(4) 0.9270(3) 0.2990(2)
H30 H 0.1255 1.0024 0.2844
H31 H 0.2454 0.9059 0.2722
C38 C 0.1817(4) 0.7555(3) 0.2646(2)
C39 C 0.1284(4) 0.7001(4) 0.2361(2)
H32 H 0.0550 0.7363 0.2230
C40 C 0.1839(6) 0.5924(5) 0.2272(3)
H33 H 0.1486 0.5544 0.2076
C41 C 0.2906(7) 0.5391(4) 0.2468(3)
H34 H 0.3279 0.4648 0.2406
C42 C 0.3431(5) 0.5934(4) 0.2752(3)
H35 H 0.4161 0.5562 0.2889
C43 C 0.2896(4) 0.7022(3) 0.2840(2)
H36 H 0.3260 0.7398 0.3030
C44 C 0.2128(3) 0.9803(3) 0.5744(2)
C45 C 0.1753(4) 1.0199(3) 0.6519(2)
H37 H 0.1156 1.0071 0.6843
C46 C 0.2235(6) 1.0767(4) 0.6819(3)
H38 H 0.1971 1.1028 0.7344
C47 C 0.3108(5) 1.0959(4) 0.6350(4)
H39 H 0.3456 1.1334 0.6560
C48 C 0.3477(4) 1.0600(4) 0.5569(4)
H40 H 0.4059 1.0749 0.5244
C49 C 0.2984(4) 1.0016(3) 0.5264(3)
H41 H 0.3234 0.9769 0.4734
C50 C 0.0808(3) 0.6993(3) 0.5559(2)
C51 C -0.0299(4) 0.7543(3) 0.5427(3)
H42 H -0.0782 0.8145 0.5727
C52 C -0.0686(4) 0.7189(4) 0.4841(3)
H43 H -0.1438 0.7565 0.4749
C53 C -0.0002(4) 0.6302(3) 0.4390(2)
C54 C 0.1120(4) 0.5783(3) 0.4526(2)
H44 H 0.1612 0.5194 0.4216
C55 C 0.1523(3) 0.6115(3) 0.5105(2)
H45 H 0.2279 0.5749 0.5191
C56 C -0.0463(4) 0.5916(4) 0.3778(3)
H46 H -0.1234 0.6008 0.3985
H47 H -0.0001 0.5165 0.3685
H48 H -0.0448 0.6327 0.3274
loop_
_geom_bond_atom_site_label_1
_geom_bond_atom_site_label_2
_geom_bond_site_symmetry_1
_geom_bond_site_symmetry_2
S1 N1 1_555 1_555
N1 C1 1_555 1_555
O1 C9 1_555 1_555
O2 C4 1_555 1_555
O3 C4 1_555 1_555
O4 S1 1_555 1_555
O5 S1 1_555 1_555
F1 C2 1_555 1_555
F2 C2 1_555 1_555
F3 C2 1_555 1_555
C1 C2 1_555 1_555
C3 C1 1_555 1_555
H1 C3 1_555 1_555
C4 C3 1_555 1_555
C5 O3 1_555 1_555
H2 C5 1_555 1_555
H3 C5 1_555 1_555
H4 C5 1_555 1_555
C6 N1 1_555 1_555
H5 C6 1_555 1_555
C7 C6 1_555 1_555
C8 C7 1_555 1_555
C9 C8 1_555 1_555
H6 C9 1_555 1_555
H7 C9 1_555 1_555
C10 O1 1_555 1_555
C11 C10 1_555 1_555
H8 C11 1_555 1_555
C12 C11 1_555 1_555
H9 C12 1_555 1_555
C13 C12 1_555 1_555
H10 C13 1_555 1_555
C14 C13 1_555 1_555
H11 C14 1_555 1_555
C15 C10 1_555 1_555
H12 C15 1_555 1_555
C16 C6 1_555 1_555
C17 C16 1_555 1_555
H13 C17 1_555 1_555
C18 C17 1_555 1_555
H14 C18 1_555 1_555
C19 C18 1_555 1_555
H15 C19 1_555 1_555
C20 C19 1_555 1_555
H16 C20 1_555 1_555
C21 C16 1_555 1_555
H17 C21 1_555 1_555
C22 S1 1_555 1_555
C23 C22 1_555 1_555
H18 C23 1_555 1_555
C24 C23 1_555 1_555
H19 C24 1_555 1_555
C25 C24 1_555 1_555
C26 C25 1_555 1_555
H20 C26 1_555 1_555
C27 C22 1_555 1_555
H21 C27 1_555 1_555
C28 C25 1_555 1_555
H22 C28 1_555 1_555
H23 C28 1_555 1_555
H24 C28 1_555 1_555
S2 N2 1_555 1_555
N2 C29 1_555 1_555
O6 C37 1_555 1_555
O7 C32 1_555 1_555
O8 C32 1_555 1_555
O9 S2 1_555 1_555
O10 S2 1_555 1_555
F4 C30 1_555 1_555
F5 C30 1_555 1_555
F6 C30 1_555 1_555
C29 C30 1_555 1_555
C31 C29 1_555 1_555
H25 C31 1_555 1_555
C32 C31 1_555 1_555
C33 O8 1_555 1_555
H26 C33 1_555 1_555
H27 C33 1_555 1_555
H28 C33 1_555 1_555
C34 N2 1_555 1_555
H29 C34 1_555 1_555
C35 C34 1_555 1_555
C36 C35 1_555 1_555
C37 C36 1_555 1_555
H30 C37 1_555 1_555
H31 C37 1_555 1_555
C38 O6 1_555 1_555
C39 C38 1_555 1_555
H32 C39 1_555 1_555
C40 C39 1_555 1_555
H33 C40 1_555 1_555
C41 C40 1_555 1_555
H34 C41 1_555 1_555
C42 C41 1_555 1_555
H35 C42 1_555 1_555
C43 C38 1_555 1_555
H36 C43 1_555 1_555
C44 C34 1_555 1_555
C45 C44 1_555 1_555
H37 C45 1_555 1_555
C46 C45 1_555 1_555
H38 C46 1_555 1_555
C47 C46 1_555 1_555
H39 C47 1_555 1_555
C48 C47 1_555 1_555
H40 C48 1_555 1_555
C49 C44 1_555 1_555
H41 C49 1_555 1_555
C50 S2 1_555 1_555
C51 C50 1_555 1_555
H42 C51 1_555 1_555
C52 C51 1_555 1_555
H43 C52 1_555 1_555
C53 C52 1_555 1_555
C54 C53 1_555 1_555
H44 C54 1_555 1_555
C55 C50 1_555 1_555
H45 C55 1_555 1_555
C56 C53 1_555 1_555
H46 C56 1_555 1_555
H47 C56 1_555 1_555
H48 C56 1_555 1_555
C14 C15 1_555 1_555
C20 C21 1_555 1_555
C26 C27 1_555 1_555
C42 C43 1_555 1_555
C48 C49 1_555 1_555
C54 C55 1_555 1_555

#END
