
#######################################################################
#
#                 Cambridge Crystallographic Data Centre
#                                CCDC 
#
#######################################################################
#
# If this CIF has been generated from an entry in the Cambridge 
# Structural Database, then it will include bibliographic, chemical, 
# crystal, experimental, refinement or atomic coordinate data resulting 
# from the CCDC's data processing and validation procedures.
#
#######################################################################

data_ZUTYOE
_chemical_formula_moiety         'C29 H23 Cl2 N1 O1'
_chemical_name_systematic        
4-(4-Chlorobutyl)-2-(4-chlorophenyl)-3-(1-naphthyl)isoquinolin-1(2H)-one
_symmetry_cell_setting           monoclinic
_symmetry_space_group_name_H-M   'P 21'
_symmetry_Int_Tables_number      4
_space_group_name_Hall           'P 2yb'
loop_
_symmetry_equiv_pos_site_id
_symmetry_equiv_pos_as_xyz
1 x,y,z
2 -x,1/2+y,-z
_cell_length_a                   12.8462(9)
_cell_length_b                   13.6932(10)
_cell_length_c                   13.7939(10)
_cell_angle_alpha                90
_cell_angle_beta                 97.6800(10)
_cell_angle_gamma                90
_cell_volume                     2404.66
_exptl_crystal_description       block
_cell_formula_units_Z            4
loop_
_atom_site_label
_atom_site_type_symbol
_atom_site_fract_x
_atom_site_fract_y
_atom_site_fract_z
Cl1 Cl 1.27249(10) 1.00119(7) 0.12145(8)
Cl2 Cl 0.69746(10) 0.24255(8) 0.24709(8)
N1 N 1.05677(19) 0.65755(17) 0.26099(16)
C1 C 1.2078(3) 0.8990(2) 0.1581(2)
O1 O 1.13956(19) 0.70209(17) 0.41119(16)
C2 C 1.2041(2) 0.7284(2) 0.1894(2)
H1 H 1.2346 0.6668 0.1892
C3 C 1.1074(2) 0.7402(2) 0.22203(18)
C4 C 1.0806(2) 0.6450(2) 0.3618(2)
C5 C 0.9871(2) 0.5983(2) 0.1995(2)
C6 C 1.0334(2) 0.5596(3) 0.4008(2)
C7 C 1.0964(2) 0.5443(2) 0.0304(3)
H2 H 1.1147 0.5120 0.0895
C8 C 1.2552(3) 0.8091(2) 0.1572(2)
H3 H 1.3202 0.8025 0.1353
C9 C 0.9701(3) 0.4949(3) 0.3380(3)
C10 C 0.8751(3) 0.7001(2) 0.0811(3)
H4 H 0.8371 0.7141 0.1323
C11 C 1.0621(3) 0.8304(2) 0.2209(2)
H5 H 0.9968 0.8377 0.2423
C12 C 0.9461(3) 0.5156(3) 0.2351(3)
C13 C 0.9560(2) 0.6365(2) 0.0971(2)
C14 C 0.9864(3) 0.6593(2) -0.0709(2)
C15 C 1.0129(2) 0.6134(2) 0.0207(2)
C16 C 1.1120(3) 0.9106(2) 0.1886(3)
H6 H 1.0807 0.9719 0.1874
C17 C 0.7129(3) 0.2838(3) 0.1267(3)
H7 H 0.7847 0.2724 0.1150
H8 H 0.6670 0.2463 0.0790
C18 C 0.8745(3) 0.4477(3) 0.1669(3)
H9 H 0.8834 0.4622 0.0997
H10 H 0.8963 0.3807 0.1801
C19 C 0.6886(3) 0.3869(4) 0.1132(4)
H11 H 0.6171 0.3977 0.1262
H12 H 0.6914 0.4036 0.0453
C20 C 0.8463(3) 0.7455(3) -0.0083(3)
H13 H 0.7898 0.7885 -0.0168
C21 C 0.9020(3) 0.7264(3) -0.0833(3)
H14 H 0.8845 0.7577 -0.1431
C22 C 1.0558(3) 0.5440(4) 0.5023(3)
H15 H 1.0979 0.5879 0.5412
C23 C 0.9521(4) 0.3997(5) 0.4842(5)
H16 H 0.9230 0.3466 0.5129
C24 C 1.1500(3) 0.5252(3) -0.0468(3)
H17 H 1.2045 0.4800 -0.0397
C25 C 1.0457(4) 0.6379(3) -0.1487(3)
H18 H 1.0296 0.6698 -0.2083
C26 C 1.1231(4) 0.5734(3) -0.1377(3)
H19 H 1.1601 0.5598 -0.1897
C27 C 0.9308(3) 0.4117(3) 0.3832(4)
H20 H 0.8909 0.3654 0.3454
C28 C 0.7618(3) 0.4570(3) 0.1781(3)
H21 H 0.7396 0.5236 0.1627
H22 H 0.7536 0.4451 0.2460
C29 C 1.0152(4) 0.4638(5) 0.5435(4)
H23 H 1.0298 0.4526 0.6104
Cl3 Cl 0.17095(12) 0.13957(9) 0.38076(9)
N2 N 0.39661(17) 0.46970(14) 0.22796(16)
Cl4 Cl 0.75217(15) 0.88236(11) 0.25133(13)
C30 C 0.4464(2) 0.54554(19) 0.28511(19)
C31 C 0.2393(3) 0.2380(3) 0.3418(2)
C32 C 0.4419(2) 0.54237(19) 0.39255(19)
O2 O 0.35063(19) 0.39591(17) 0.08144(16)
C33 C 0.3944(2) 0.4638(2) 0.1276(2)
C34 C 0.2472(2) 0.4061(2) 0.3013(2)
H24 H 0.2167 0.4678 0.2968
C35 C 0.4477(2) 0.5423(2) 0.0821(2)
C36 C 0.4939(2) 0.6190(2) 0.2422(2)
C37 C 0.4963(2) 0.6178(2) 0.1376(2)
C38 C 0.3446(2) 0.39147(19) 0.27243(19)
C39 C 0.3898(3) 0.2997(2) 0.2797(2)
H25 H 0.4560 0.2902 0.2611
C40 C 0.5165(2) 0.48638(19) 0.45512(19)
C41 C 0.5475(3) 0.6857(3) -0.0108(3)
H26 H 0.5818 0.7338 -0.0422
C42 C 0.5928(2) 0.4276(2) 0.4193(2)
H27 H 0.5949 0.4241 0.3523
C43 C 0.3680(3) 0.6017(3) 0.5332(3)
H28 H 0.3181 0.6396 0.5587
C44 C 0.4496(2) 0.5390(3) -0.0199(2)
H29 H 0.4167 0.4881 -0.0566
C45 C 0.5455(3) 0.6916(3) 0.0880(2)
H30 H 0.5768 0.7445 0.1229
C46 C 0.1957(3) 0.3290(3) 0.3368(2)
H31 H 0.1306 0.3389 0.3576
C47 C 0.6640(3) 0.3753(3) 0.4816(3)
H32 H 0.7135 0.3366 0.4565
C48 C 0.5143(2) 0.4908(2) 0.5572(2)
C49 C 0.3701(2) 0.5984(2) 0.4318(2)
H33 H 0.3217 0.6349 0.3907
C50 C 0.6625(3) 0.3800(3) 0.5824(3)
H34 H 0.7113 0.3448 0.6245
C51 C 0.4995(3) 0.6100(3) -0.0641(2)
H35 H 0.5012 0.6073 -0.1312
C52 C 0.3378(3) 0.2232(2) 0.3140(3)
H36 H 0.3682 0.1615 0.3188
C53 C 0.6715(3) 0.6799(3) 0.3208(3)
H37 H 0.6983 0.6819 0.2584
H38 H 0.6847 0.6150 0.3479
C54 C 0.5531(3) 0.6978(3) 0.3040(3)
H39 H 0.5271 0.7008 0.3668
H40 H 0.5395 0.7604 0.2720
C55 C 0.4381(3) 0.5501(3) 0.5931(2)
H41 H 0.4366 0.5535 0.6603
C56 C 0.5897(3) 0.4360(3) 0.6188(3)
H42 H 0.5893 0.4384 0.6862
C57 C 0.7214(5) 0.8522(4) 0.3688(4)
H43 H 0.7671 0.8888 0.4174
H44 H 0.6497 0.8720 0.3732
C58 C 0.7315(5) 0.7548(5) 0.3901(3)
H45 H 0.7106 0.7450 0.4544
H46 H 0.8056 0.7388 0.3951
loop_
_geom_bond_atom_site_label_1
_geom_bond_atom_site_label_2
_geom_bond_site_symmetry_1
_geom_bond_site_symmetry_2
Cl1 C1 1_555 1_555
Cl2 C17 1_555 1_555
N1 C3 1_555 1_555
C1 C8 1_555 1_555
O1 C4 1_555 1_555
C2 H1 1_555 1_555
C3 C2 1_555 1_555
C4 N1 1_555 1_555
C5 N1 1_555 1_555
C6 C4 1_555 1_555
C7 H2 1_555 1_555
C8 C2 1_555 1_555
H3 C8 1_555 1_555
C9 C6 1_555 1_555
C10 H4 1_555 1_555
C11 C3 1_555 1_555
H5 C11 1_555 1_555
C12 C5 1_555 1_555
C13 C5 1_555 1_555
C14 C15 1_555 1_555
C15 C7 1_555 1_555
C16 C1 1_555 1_555
H6 C16 1_555 1_555
C17 H7 1_555 1_555
H8 C17 1_555 1_555
C18 C12 1_555 1_555
H9 C18 1_555 1_555
H10 C18 1_555 1_555
C19 C17 1_555 1_555
H11 C19 1_555 1_555
H12 C19 1_555 1_555
C20 C10 1_555 1_555
H13 C20 1_555 1_555
C21 C14 1_555 1_555
H14 C21 1_555 1_555
C22 C6 1_555 1_555
H15 C22 1_555 1_555
C23 H16 1_555 1_555
C24 C7 1_555 1_555
H17 C24 1_555 1_555
C25 C14 1_555 1_555
H18 C25 1_555 1_555
C26 C24 1_555 1_555
H19 C26 1_555 1_555
C27 C9 1_555 1_555
H20 C27 1_555 1_555
C28 C18 1_555 1_555
H21 C28 1_555 1_555
H22 C28 1_555 1_555
C29 C22 1_555 1_555
H23 C29 1_555 1_555
Cl3 C31 1_555 1_555
N2 C30 1_555 1_555
Cl4 C57 1_555 1_555
C30 C32 1_555 1_555
C31 C46 1_555 1_555
C32 C40 1_555 1_555
O2 C33 1_555 1_555
C33 N2 1_555 1_555
C34 H24 1_555 1_555
C35 C33 1_555 1_555
C36 C30 1_555 1_555
C37 C35 1_555 1_555
C38 N2 1_555 1_555
C39 C38 1_555 1_555
H25 C39 1_555 1_555
C40 C42 1_555 1_555
C41 H26 1_555 1_555
C42 H27 1_555 1_555
C43 H28 1_555 1_555
C44 C35 1_555 1_555
H29 C44 1_555 1_555
C45 C37 1_555 1_555
H30 C45 1_555 1_555
C46 C34 1_555 1_555
H31 C46 1_555 1_555
C47 C42 1_555 1_555
H32 C47 1_555 1_555
C48 C40 1_555 1_555
C49 C32 1_555 1_555
H33 C49 1_555 1_555
C50 C47 1_555 1_555
H34 C50 1_555 1_555
C51 C41 1_555 1_555
H35 C51 1_555 1_555
C52 C31 1_555 1_555
H36 C52 1_555 1_555
C53 H37 1_555 1_555
H38 C53 1_555 1_555
C54 C36 1_555 1_555
H39 C54 1_555 1_555
H40 C54 1_555 1_555
C55 C43 1_555 1_555
H41 C55 1_555 1_555
C56 C48 1_555 1_555
H42 C56 1_555 1_555
C57 H43 1_555 1_555
H44 C57 1_555 1_555
C58 C53 1_555 1_555
H45 C58 1_555 1_555
H46 C58 1_555 1_555
C9 C12 1_555 1_555
C10 C13 1_555 1_555
C11 C16 1_555 1_555
C13 C15 1_555 1_555
C19 C28 1_555 1_555
C20 C21 1_555 1_555
C23 C27 1_555 1_555
C23 C29 1_555 1_555
C25 C26 1_555 1_555
C34 C38 1_555 1_555
C36 C37 1_555 1_555
C39 C52 1_555 1_555
C41 C45 1_555 1_555
C43 C49 1_555 1_555
C44 C51 1_555 1_555
C48 C55 1_555 1_555
C50 C56 1_555 1_555
C53 C54 1_555 1_555
C57 C58 1_555 1_555

#END
