
#######################################################################
#
#                 Cambridge Crystallographic Data Centre
#                                CCDC 
#
#######################################################################
#
# If this CIF has been generated from an entry in the Cambridge 
# Structural Database, then it will include bibliographic, chemical, 
# crystal, experimental, refinement or atomic coordinate data resulting 
# from the CCDC's data processing and validation procedures.
#
#######################################################################

data_ZUVPIR
_chemical_formula_moiety         'C18 H18 N2 O4 S1'
_chemical_name_systematic        
2-(4-methoxyphenyl)-3-((4-methylphenyl)sulfonyl)-5,6-dihydropyrimidin-4(3H)-one
_symmetry_cell_setting           triclinic
_symmetry_space_group_name_H-M   'P -1'
_symmetry_Int_Tables_number      2
_space_group_name_Hall           '-P 1'
loop_
_symmetry_equiv_pos_site_id
_symmetry_equiv_pos_as_xyz
1 x,y,z
2 -x,-y,-z
_cell_length_a                   7.5283(6)
_cell_length_b                   10.4136(8)
_cell_length_c                   12.1829(9)
_cell_angle_alpha                114.304(7)
_cell_angle_beta                 97.336(6)
_cell_angle_gamma                90.168(6)
_cell_volume                     861.7
_exptl_crystal_colour            yellow
_exptl_crystal_description       block
_cell_formula_units_Z            2
loop_
_atom_site_label
_atom_site_type_symbol
_atom_site_fract_x
_atom_site_fract_y
_atom_site_fract_z
S1 S 0.33745(6) 0.28309(5) 0.12639(4)
O1 O 0.41972(18) 0.16527(15) 0.13639(13)
O2 O 0.43082(17) 0.36763(16) 0.08335(13)
O3 O 0.02432(18) 0.13441(14) 0.14754(13)
O4 O 0.6361(2) 0.11715(17) -0.38823(16)
N1 N 0.14095(18) 0.22797(16) 0.03136(13)
N2 N -0.0399(2) 0.29382(19) -0.10800(16)
C1 C 0.1762(4) 0.6899(4) 0.6178(3)
H1 H 0.0931 0.6492 0.6499
H2 H 0.1288 0.7727 0.6120
H3 H 0.2886 0.7152 0.6708
C2 C 0.3082(3) 0.3615(3) 0.3648(2)
H4 H 0.3549 0.2759 0.3563
C3 C 0.2744(3) 0.4582(3) 0.4769(2)
H5 H 0.3000 0.4365 0.5439
C4 C 0.2049(3) 0.5841(3) 0.4932(2)
C5 C 0.1644(3) 0.6125(2) 0.3922(3)
H6 H 0.1127 0.6965 0.4007
C6 C 0.1988(3) 0.5194(2) 0.2790(2)
H7 H 0.1730 0.5411 0.2121
C7 C 0.2720(2) 0.39382(19) 0.26637(17)
C8 C -0.0026(2) 0.17770(19) 0.06969(18)
C9 C -0.1811(3) 0.1907(2) 0.0078(2)
H8 H -0.2707 0.2037 0.0615
H9 H -0.2154 0.1048 -0.0649
C10 C -0.1738(3) 0.3148(2) -0.0258(2)
H10 H -0.2906 0.3234 -0.0654
H11 H -0.1421 0.4012 0.0470
C11 C 0.1081(2) 0.25211(19) -0.07839(17)
C12 C 0.2503(2) 0.2149(2) -0.15735(17)
C13 C 0.2840(3) 0.2948(2) -0.2209(2)
H12 H 0.2177 0.3727 -0.2125
C14 C 0.4137(3) 0.2600(2) -0.2956(2)
H13 H 0.4370 0.3157 -0.3359
C15 C 0.5107(3) 0.1423(2) -0.31169(19)
C16 C 0.4771(3) 0.0606(2) -0.25127(19)
H14 H 0.5404 -0.0193 -0.2624
C17 C 0.3485(3) 0.0981(2) -0.17379(18)
H15 H 0.3277 0.0436 -0.1319
C18 C 0.7535(4) 0.0080(3) -0.3974(3)
H16 H 0.8376 0.0041 -0.4515
H17 H 0.6851 -0.0807 -0.4284
H18 H 0.8172 0.0267 -0.3184
loop_
_geom_bond_atom_site_label_1
_geom_bond_atom_site_label_2
_geom_bond_site_symmetry_1
_geom_bond_site_symmetry_2
S1 O1 1_555 1_555
O2 S1 1_555 1_555
O3 C8 1_555 1_555
O4 C15 1_555 1_555
N1 S1 1_555 1_555
N2 C10 1_555 1_555
C1 H1 1_555 1_555
H2 C1 1_555 1_555
H3 C1 1_555 1_555
C2 H4 1_555 1_555
C3 C2 1_555 1_555
H5 C3 1_555 1_555
C4 C1 1_555 1_555
C5 C4 1_555 1_555
H6 C5 1_555 1_555
C6 C5 1_555 1_555
H7 C6 1_555 1_555
C7 S1 1_555 1_555
C8 N1 1_555 1_555
C9 C8 1_555 1_555
H8 C9 1_555 1_555
H9 C9 1_555 1_555
C10 C9 1_555 1_555
H10 C10 1_555 1_555
H11 C10 1_555 1_555
C11 N1 1_555 1_555
C12 C11 1_555 1_555
C13 C12 1_555 1_555
H12 C13 1_555 1_555
C14 C13 1_555 1_555
H13 C14 1_555 1_555
C15 C14 1_555 1_555
C16 C15 1_555 1_555
H14 C16 1_555 1_555
C17 C12 1_555 1_555
H15 C17 1_555 1_555
C18 O4 1_555 1_555
H16 C18 1_555 1_555
H17 C18 1_555 1_555
H18 C18 1_555 1_555
N2 C11 1_555 1_555
C2 C7 1_555 1_555
C3 C4 1_555 1_555
C6 C7 1_555 1_555
C16 C17 1_555 1_555

#END
