
#######################################################################
#
#                 Cambridge Crystallographic Data Centre
#                                CCDC 
#
#######################################################################
#
# If this CIF has been generated from an entry in the Cambridge 
# Structural Database, then it will include bibliographic, chemical, 
# crystal, experimental, refinement or atomic coordinate data resulting 
# from the CCDC's data processing and validation procedures.
#
#######################################################################

data_ZUVQOW
_chemical_formula_moiety         'C32 H30 B2 F18 N12 Na2 O2'
_chemical_name_systematic        
'bis((\m~2~-Hydrogen tris(3-(trifluoromethyl)pyrazol-2-yl)borate)-tetrahydrofuran-sodium)'
_symmetry_cell_setting           triclinic
_symmetry_space_group_name_H-M   'P -1'
_symmetry_Int_Tables_number      2
_space_group_name_Hall           '-P 1'
loop_
_symmetry_equiv_pos_site_id
_symmetry_equiv_pos_as_xyz
1 x,y,z
2 -x,-y,-z
_cell_length_a                   9.063(3)
_cell_length_b                   10.183(2)
_cell_length_c                   12.129(2)
_cell_angle_alpha                94.61(1)
_cell_angle_beta                 101.16(2)
_cell_angle_gamma                95.66(2)
_cell_volume                     1087.16
_exptl_crystal_colour            colorless
_chemical_melting_point          '280 deg.C (dec)'
_cell_formula_units_Z            1
loop_
_atom_site_label
_atom_site_type_symbol
_atom_site_fract_x
_atom_site_fract_y
_atom_site_fract_z
Na1 Na 0.1199(1) 0.1868(1) 0.2598(1)
N1 N -0.0297(3) 0.4588(2) 0.1932(2)
N2 N 0.1067(3) 0.4119(2) 0.2017(2)
N3 N -0.2176(3) 0.2520(2) 0.1472(2)
N4 N -0.1396(3) 0.1442(2) 0.1531(2)
N5 N -0.1306(3) 0.3534(2) 0.3510(2)
N6 N -0.0187(3) 0.2798(3) 0.3917(2)
C1 C 0.1936(4) 0.5061(3) 0.1650(3)
C2 C 0.1165(4) 0.6122(3) 0.1330(3)
C3 C -0.0252(4) 0.5782(3) 0.1520(3)
C4 C 0.3530(5) 0.4875(4) 0.1646(4)
C5 C -0.2168(3) 0.0568(3) 0.0692(3)
C6 C -0.3431(4) 0.1052(3) 0.0077(3)
C7 C -0.3393(3) 0.2301(3) 0.0612(3)
C8 C -0.1732(4) -0.0796(3) 0.0559(3)
C9 C -0.0203(4) 0.2780(3) 0.5012(3)
C10 C -0.1310(4) 0.3489(3) 0.5331(3)
C11 C -0.1983(4) 0.3958(3) 0.4351(3)
C12 C 0.0914(4) 0.2076(3) 0.5715(3)
F1 F 0.4406(11) 0.5941(7) 0.1793(10)
F2 F 0.3644(6) 0.4489(9) 0.0491(5)
F3 F 0.3996(11) 0.3925(11) 0.2135(11)
F7 F 0.1886(3) 0.1255(2) 0.0526(2)
F8 F -0.0299(3) -0.0871(2) 0.1049(2)
F9 F -0.2583(3) -0.1666(2) 0.1004(2)
F10 F 0.1584(3) 0.1273(3) 0.5109(2)
F11 F 0.0303(3) 0.1325(3) 0.6392(2)
F12 F 0.2007(3) 0.2874(2) 0.6402(2)
B1 B -0.1677(4) 0.3829(4) 0.2268(3)
O1 O 0.3331(3) 0.0805(2) 0.3050(2)
C13 C 0.3325(4) -0.0584(4) 0.3122(4)
C14 C 0.4923(5) -0.0882(4) 0.3219(4)
C15 C 0.5836(5) 0.0403(5) 0.3304(5)
C16 C 0.4847(5) 0.1398(5) 0.3314(5)
H1 H 0.1545 0.6909 0.1041
H2 H -0.1086 0.6301 0.1384
H3 H -0.4153 0.0609 -0.0562
H4 H -0.4106 0.2920 0.0405
H5 H -0.1544 0.3621 0.6067
H6 H -0.2803 0.4496 0.4270
H7 H -0.2736 0.4198 0.1824
H8 H 0.2685 -0.1066 0.2461
H9 H 0.2949 -0.0824 0.3774
H10 H 0.5022 -0.1431 0.2562
H11 H 0.5235 -0.1333 0.3875
H12 H 0.6324 0.0452 0.2671
H13 H 0.6603 0.0516 0.3983
H14 H 0.5049 0.1884 0.4049
H15 H 0.5010 0.2005 0.2772
C8A C 0.1732(4) 0.0796(3) -0.0559(3)
C5A C 0.2168(3) -0.0568(3) -0.0692(3)
N4A N 0.1396(3) -0.1442(2) -0.1531(2)
Na1A Na -0.1199(1) -0.1868(1) -0.2598(1)
N2A N -0.1067(3) -0.4119(2) -0.2017(2)
N1A N 0.0297(3) -0.4588(2) -0.1932(2)
C3A C 0.0252(4) -0.5782(3) -0.1520(3)
C2A C -0.1165(4) -0.6122(3) -0.1330(3)
C1A C -0.1936(4) -0.5061(3) -0.1650(3)
C4A C -0.3530(5) -0.4875(4) -0.1646(4)
F1A F -0.4406(11) -0.5941(7) -0.1793(10)
F2A F -0.3644(6) -0.4489(9) -0.0491(5)
F3A F -0.3996(11) -0.3925(11) -0.2135(11)
H1A H -0.1545 -0.6909 -0.1041
H2A H 0.1086 -0.6301 -0.1384
B1A B 0.1677(4) -0.3829(4) -0.2268(3)
N3A N 0.2176(3) -0.2520(2) -0.1472(2)
C7A C 0.3393(3) -0.2301(3) -0.0612(3)
C6A C 0.3431(4) -0.1052(3) -0.0077(3)
H3A H 0.4153 -0.0609 0.0562
H4A H 0.4106 -0.2920 -0.0405
N5A N 0.1306(3) -0.3534(2) -0.3510(2)
N6A N 0.0187(3) -0.2798(3) -0.3917(2)
F7A F -0.1886(3) -0.1255(2) -0.0526(2)
O1A O -0.3331(3) -0.0805(2) -0.3050(2)
C13A C -0.3325(4) 0.0584(4) -0.3122(4)
C14A C -0.4923(5) 0.0882(4) -0.3219(4)
C15A C -0.5836(5) -0.0403(5) -0.3304(5)
C16A C -0.4847(5) -0.1398(5) -0.3314(5)
H14A H -0.5049 -0.1884 -0.4049
H15A H -0.5010 -0.2005 -0.2772
H12A H -0.6324 -0.0452 -0.2671
H13A H -0.6603 -0.0516 -0.3983
H10A H -0.5022 0.1431 -0.2562
H11A H -0.5235 0.1333 -0.3875
H8A H -0.2685 0.1066 -0.2461
H9A H -0.2949 0.0824 -0.3774
C9A C 0.0203(4) -0.2780(3) -0.5012(3)
C10A C 0.1310(4) -0.3489(3) -0.5331(3)
C11A C 0.1983(4) -0.3958(3) -0.4351(3)
H6A H 0.2803 -0.4496 -0.4270
H5A H 0.1544 -0.3621 -0.6067
C12A C -0.0914(4) -0.2076(3) -0.5715(3)
F10A F -0.1584(3) -0.1273(3) -0.5109(2)
F11A F -0.0303(3) -0.1325(3) -0.6392(2)
F12A F -0.2007(3) -0.2874(2) -0.6402(2)
H7A H 0.2736 -0.4198 -0.1824
F8A F 0.0299(3) 0.0871(2) -0.1049(2)
F9A F 0.2583(3) 0.1666(2) -0.1004(2)
F4? F 0.4311(18) 0.5764(18) 0.1328(19)
F5? F 0.3853(16) 0.3760(11) 0.1439(19)
F6? F 0.4393(9) 0.5053(18) 0.2859(8)
loop_
_geom_bond_atom_site_label_1
_geom_bond_atom_site_label_2
_geom_bond_site_symmetry_1
_geom_bond_site_symmetry_2
Na1 N2 1_555 1_555
N1 N2 1_555 1_555
N2 C1 1_555 1_555
N3 N4 1_555 1_555
N4 Na1 1_555 1_555
N5 N6 1_555 1_555
N6 Na1 1_555 1_555
C1 C2 1_555 1_555
C2 C3 1_555 1_555
C3 N1 1_555 1_555
C4 C1 1_555 1_555
C5 N4 1_555 1_555
C6 C5 1_555 1_555
C7 N3 1_555 1_555
C8 C5 1_555 1_555
C9 N6 1_555 1_555
C10 C9 1_555 1_555
C11 N5 1_555 1_555
C12 C9 1_555 1_555
F1 C4 1_555 1_555
F2 C4 1_555 1_555
F3 C4 1_555 1_555
F7 Na1 1_555 1_555
F8 C8 1_555 1_555
F9 C8 1_555 1_555
F10 C12 1_555 1_555
F11 C12 1_555 1_555
F12 C12 1_555 1_555
B1 N1 1_555 1_555
O1 Na1 1_555 1_555
C13 O1 1_555 1_555
C14 C13 1_555 1_555
C15 C14 1_555 1_555
C16 O1 1_555 1_555
H1 C2 1_555 1_555
H2 C3 1_555 1_555
H3 C6 1_555 1_555
H4 C7 1_555 1_555
H5 C10 1_555 1_555
H6 C11 1_555 1_555
H7 B1 1_555 1_555
H8 C13 1_555 1_555
H9 C13 1_555 1_555
H10 C14 1_555 1_555
H11 C14 1_555 1_555
H12 C15 1_555 1_555
H13 C15 1_555 1_555
H14 C16 1_555 1_555
H15 C16 1_555 1_555
C8A F7 1_555 1_555
C5A C8A 1_555 1_555
N4A C5A 1_555 1_555
Na1A N4A 1_555 1_555
N2A Na1A 1_555 1_555
N1A N2A 1_555 1_555
C3A N1A 1_555 1_555
C2A C3A 1_555 1_555
C1A N2A 1_555 1_555
C4A C1A 1_555 1_555
F1A C4A 1_555 1_555
F2A C4A 1_555 1_555
F3A C4A 1_555 1_555
H1A C2A 1_555 1_555
H2A C3A 1_555 1_555
B1A N1A 1_555 1_555
N3A N4A 1_555 1_555
C7A N3A 1_555 1_555
C6A C5A 1_555 1_555
H3A C6A 1_555 1_555
H4A C7A 1_555 1_555
N5A B1A 1_555 1_555
N6A Na1A 1_555 1_555
F7A C8 1_555 1_555
O1A Na1A 1_555 1_555
C13A O1A 1_555 1_555
C14A C13A 1_555 1_555
C15A C14A 1_555 1_555
C16A O1A 1_555 1_555
H14A C16A 1_555 1_555
H15A C16A 1_555 1_555
H12A C15A 1_555 1_555
H13A C15A 1_555 1_555
H10A C14A 1_555 1_555
H11A C14A 1_555 1_555
H8A C13A 1_555 1_555
H9A C13A 1_555 1_555
C9A N6A 1_555 1_555
C10A C9A 1_555 1_555
C11A N5A 1_555 1_555
H6A C11A 1_555 1_555
H5A C10A 1_555 1_555
C12A C9A 1_555 1_555
F10A C12A 1_555 1_555
F11A C12A 1_555 1_555
F12A C12A 1_555 1_555
H7A B1A 1_555 1_555
F8A C8A 1_555 1_555
F9A C8A 1_555 1_555
N3 B1 1_555 1_555
N5 B1 1_555 1_555
C6 C7 1_555 1_555
C10 C11 1_555 1_555
C15 C16 1_555 1_555
Na1A F7A 1_555 1_555
C2A C1A 1_555 1_555
B1A N3A 1_555 1_555
C7A C6A 1_555 1_555
N5A N6A 1_555 1_555
C15A C16A 1_555 1_555
C10A C11A 1_555 1_555

#END
