
#######################################################################
#
#                 Cambridge Crystallographic Data Centre
#                                CCDC 
#
#######################################################################
#
# If this CIF has been generated from an entry in the Cambridge 
# Structural Database, then it will include bibliographic, chemical, 
# crystal, experimental, refinement or atomic coordinate data resulting 
# from the CCDC's data processing and validation procedures.
#
#######################################################################

data_ZUVRUF
_chemical_formula_moiety         'C21 H15 Br1 N2 S1'
_chemical_name_systematic        
4-(5-bromo-1,3-thiazol-2-yl)-N,N-diphenylaniline
_symmetry_cell_setting           triclinic
_symmetry_space_group_name_H-M   'P -1'
_symmetry_Int_Tables_number      2
_space_group_name_Hall           '-P 1'
loop_
_symmetry_equiv_pos_site_id
_symmetry_equiv_pos_as_xyz
1 x,y,z
2 -x,-y,-z
_cell_length_a                   10.0378(9)
_cell_length_b                   10.1977(9)
_cell_length_c                   10.4509(9)
_cell_angle_alpha                71.289(2)
_cell_angle_beta                 72.671(2)
_cell_angle_gamma                65.0660(10)
_cell_volume                     902.181
_exptl_crystal_colour            yellow
_exptl_crystal_description       block
_cell_formula_units_Z            2
loop_
_atom_site_label
_atom_site_type_symbol
_atom_site_fract_x
_atom_site_fract_y
_atom_site_fract_z
Br1 Br 0.37254(4) 0.31902(4) 1.27524(3)
C1 C 0.4205(4) 0.3331(4) 1.0848(3)
C2 C 0.3638(4) 0.4490(4) 0.9862(3)
H1 H 0.2916 0.5382 1.0052
C3 C 0.5188(3) 0.2944(3) 0.8537(3)
C4 C 0.5999(3) 0.2371(3) 0.7286(3)
C5 C 0.6100(3) 0.3369(3) 0.6017(3)
H2 H 0.5701 0.4382 0.5981
C6 C 0.6781(3) 0.2879(3) 0.4818(3)
H3 H 0.6807 0.3566 0.3981
C7 C 0.7432(3) 0.1367(3) 0.4841(3)
C8 C 0.7336(3) 0.0372(3) 0.6105(3)
H4 H 0.7756 -0.0642 0.6142
C9 C 0.6628(3) 0.0864(3) 0.7307(3)
H5 H 0.6570 0.0178 0.8141
C10 C 0.8995(3) 0.1572(3) 0.2499(3)
C11 C 0.9631(3) 0.2479(3) 0.2656(3)
H6 H 0.9499 0.2639 0.3520
C12 C 1.0458(4) 0.3142(4) 0.1525(3)
H7 H 1.0852 0.3768 0.1638
C13 C 1.0709(4) 0.2897(4) 0.0252(4)
H8 H 1.1295 0.3322 -0.0492
C14 C 1.0080(5) 0.2012(4) 0.0083(3)
H9 H 1.0236 0.1844 -0.0783
C15 C 0.9213(4) 0.1365(4) 0.1197(3)
H10 H 0.8776 0.0788 0.1064
C16 C 0.8332(3) -0.0627(3) 0.3629(3)
C17 C 0.9713(3) -0.1754(3) 0.3593(3)
H11 H 1.0555 -0.1565 0.3554
C18 C 0.9846(4) -0.3162(4) 0.3615(3)
H12 H 1.0780 -0.3920 0.3582
C19 C 0.8609(5) -0.3448(4) 0.3683(4)
H13 H 0.8700 -0.4403 0.3714
C20 C 0.7243(5) -0.2331(5) 0.3708(4)
H14 H 0.6406 -0.2525 0.3739
C21 C 0.7091(4) -0.0926(4) 0.3687(3)
H15 H 0.6154 -0.0172 0.3712
N1 N 0.4201(3) 0.4269(3) 0.8543(3)
N2 N 0.8174(3) 0.0837(3) 0.3627(2)
S1 S 0.55121(10) 0.18644(9) 1.01623(8)
loop_
_geom_bond_atom_site_label_1
_geom_bond_atom_site_label_2
_geom_bond_site_symmetry_1
_geom_bond_site_symmetry_2
Br1 C1 1_555 1_555
C1 C2 1_555 1_555
C2 H1 1_555 1_555
C3 C4 1_555 1_555
C4 C5 1_555 1_555
C5 H2 1_555 1_555
C6 C5 1_555 1_555
H3 C6 1_555 1_555
C7 C6 1_555 1_555
C8 C7 1_555 1_555
H4 C8 1_555 1_555
C9 C4 1_555 1_555
H5 C9 1_555 1_555
C10 C11 1_555 1_555
C11 H6 1_555 1_555
C12 C11 1_555 1_555
H7 C12 1_555 1_555
C13 C12 1_555 1_555
H8 C13 1_555 1_555
C14 C13 1_555 1_555
H9 C14 1_555 1_555
C15 C10 1_555 1_555
H10 C15 1_555 1_555
C16 C17 1_555 1_555
C17 H11 1_555 1_555
C18 C17 1_555 1_555
H12 C18 1_555 1_555
C19 C18 1_555 1_555
H13 C19 1_555 1_555
C20 C19 1_555 1_555
H14 C20 1_555 1_555
C21 C16 1_555 1_555
H15 C21 1_555 1_555
N1 C2 1_555 1_555
N2 C7 1_555 1_555
S1 C1 1_555 1_555
C3 N1 1_555 1_555
C3 S1 1_555 1_555
C8 C9 1_555 1_555
C10 N2 1_555 1_555
C14 C15 1_555 1_555
C16 N2 1_555 1_555
C20 C21 1_555 1_555

#END
