
#######################################################################
#
#                 Cambridge Crystallographic Data Centre
#                                CCDC 
#
#######################################################################
#
# If this CIF has been generated from an entry in the Cambridge 
# Structural Database, then it will include bibliographic, chemical, 
# crystal, experimental, refinement or atomic coordinate data resulting 
# from the CCDC's data processing and validation procedures.
#
#######################################################################

data_ZUVSAM
_chemical_formula_moiety         '2(C26 H19 N3 S1),C2 H3 N1'
_chemical_name_systematic        
'N,N-diphenyl-4-(5-(pyridin-4-yl)-1,3-thiazol-2-yl)aniline acetonitrile solvate'
_symmetry_cell_setting           triclinic
_symmetry_space_group_name_H-M   'P -1'
_symmetry_Int_Tables_number      2
_space_group_name_Hall           '-P 1'
loop_
_symmetry_equiv_pos_site_id
_symmetry_equiv_pos_as_xyz
1 x,y,z
2 -x,-y,-z
_cell_length_a                   10.2017(14)
_cell_length_b                   12.9072(17)
_cell_length_c                   17.458(2)
_cell_angle_alpha                85.786(2)
_cell_angle_beta                 85.243(2)
_cell_angle_gamma                73.689(2)
_cell_volume                     2195.64
_exptl_crystal_colour            yellow
_exptl_crystal_description       block
_cell_formula_units_Z            2
loop_
_atom_site_label
_atom_site_type_symbol
_atom_site_fract_x
_atom_site_fract_y
_atom_site_fract_z
C1 C 0.1359(3) 0.2679(2) 0.88589(15)
C2 C 0.2429(4) 0.2334(3) 0.93335(17)
H1 H 0.3165 0.2631 0.9267
C3 C 0.2398(4) 0.1544(3) 0.9909(2)
H2 H 0.3117 0.1310 1.0231
C4 C 0.1316(4) 0.1100(3) 1.00076(19)
H3 H 0.1296 0.0574 1.0399
C5 C 0.0266(4) 0.1439(2) 0.9526(2)
H4 H -0.0456 0.1126 0.9584
C6 C 0.0268(3) 0.2235(2) 0.89576(18)
H5 H -0.0460 0.2474 0.8642
C7 C 0.1678(3) 0.4464(2) 0.84180(16)
C8 C 0.2410(3) 0.4969(2) 0.78863(18)
H6 H 0.2731 0.4669 0.7415
C9 C 0.2666(3) 0.5927(2) 0.8057(2)
H7 H 0.3144 0.6274 0.7696
C10 C 0.2214(4) 0.6363(3) 0.8759(3)
H8 H 0.2387 0.7003 0.8874
C11 C 0.1511(4) 0.5853(3) 0.9283(2)
H9 H 0.1213 0.6146 0.9759
C12 C 0.1231(4) 0.4906(2) 0.91204(18)
H10 H 0.0744 0.4570 0.9483
C13 C 0.1148(3) 0.3284(2) 0.75081(15)
C14 C 0.0517(3) 0.4127(2) 0.69912(16)
H11 H 0.0228 0.4833 0.7149
C15 C 0.0324(3) 0.3919(2) 0.62596(15)
H12 H -0.0086 0.4490 0.5925
C16 C 0.0726(3) 0.2871(2) 0.60016(15)
C17 C 0.1328(3) 0.2041(2) 0.65183(17)
H13 H 0.1589 0.1333 0.6364
C18 C 0.1548(3) 0.2239(2) 0.72588(16)
H14 H 0.1968 0.1668 0.7591
C19 C 0.0508(3) 0.2683(2) 0.52169(16)
C20 C -0.0037(4) 0.3026(2) 0.40219(18)
H15 H -0.0352 0.3472 0.3595
C21 C 0.0359(3) 0.1944(2) 0.39880(16)
C22 C 0.0466(3) 0.1301(2) 0.33250(16)
C23 C 0.0164(4) 0.1802(3) 0.25988(17)
H16 H -0.0142 0.2551 0.2539
C24 C 0.0322(4) 0.1183(3) 0.1976(2)
H17 H 0.0111 0.1538 0.1500
C25 C 0.1014(4) -0.0366(3) 0.2689(2)
H18 H 0.1302 -0.1118 0.2727
C26 C 0.0883(4) 0.0185(2) 0.33567(18)
H19 H 0.1075 -0.0197 0.3826
N1 N 0.1393(3) 0.34823(18) 0.82529(13)
N2 N 0.0042(4) 0.3446(2) 0.47092(15)
N3 N 0.0754(4) 0.0117(2) 0.20028(16)
S1 S 0.08287(9) 0.13999(6) 0.48853(4)
C27 C 0.6093(3) 0.3209(2) 0.87061(17)
C28 C 0.5226(3) 0.3911(2) 0.92062(18)
H20 H 0.4864 0.4631 0.9047
C29 C 0.4891(4) 0.3556(3) 0.99348(19)
H21 H 0.4316 0.4039 1.0269
C30 C 0.5398(4) 0.2496(3) 1.0173(2)
H22 H 0.5182 0.2260 1.0671
C31 C 0.6231(4) 0.1782(3) 0.9673(2)
H23 H 0.6545 0.1055 0.9828
C32 C 0.6602(3) 0.2132(2) 0.8946(2)
H24 H 0.7192 0.1649 0.8617
C33 C 0.6774(3) 0.4624(2) 0.78943(17)
C34 C 0.6238(4) 0.5384(2) 0.7319(2)
H25 H 0.5697 0.5225 0.6966
C35 C 0.6504(4) 0.6373(3) 0.7267(3)
H26 H 0.6165 0.6872 0.6870
C36 C 0.7268(4) 0.6633(3) 0.7800(3)
H27 H 0.7417 0.7313 0.7774
C37 C 0.7804(4) 0.5885(3) 0.8366(2)
H28 H 0.8333 0.6052 0.8722
C38 C 0.7567(3) 0.4889(3) 0.8412(2)
H29 H 0.7946 0.4383 0.8797
C39 C 0.6306(3) 0.3114(2) 0.72955(17)
C40 C 0.7167(3) 0.3131(2) 0.66328(18)
H30 H 0.7882 0.3446 0.6637
C41 C 0.6970(3) 0.2689(2) 0.59777(19)
H31 H 0.7553 0.2711 0.5542
C42 C 0.5915(3) 0.2208(2) 0.59512(18)
C43 C 0.5074(3) 0.2183(2) 0.66111(19)
H32 H 0.4366 0.1862 0.6606
C44 C 0.5258(3) 0.2622(2) 0.72781(19)
H33 H 0.4682 0.2589 0.7716
C45 C 0.5629(3) 0.1773(2) 0.52470(19)
C46 C 0.4486(4) 0.1153(4) 0.4467(2)
H34 H 0.3758 0.0917 0.4335
C47 C 0.5566(3) 0.1150(2) 0.39621(18)
C48 C 0.5753(4) 0.0842(2) 0.31630(19)
C49 C 0.6862(4) 0.0918(3) 0.2680(2)
H35 H 0.7555 0.1153 0.2863
C50 C 0.6946(5) 0.0645(4) 0.1928(2)
H36 H 0.7719 0.0690 0.1620
C51 C 0.4926(6) 0.0259(3) 0.2070(3)
H37 H 0.4240 0.0041 0.1864
C52 C 0.4767(5) 0.0498(3) 0.2831(2)
H38 H 0.3992 0.0429 0.3127
N4 N 0.6499(3) 0.36001(18) 0.79597(14)
N5 N 0.4506(3) 0.1515(3) 0.51767(19)
N6 N 0.6009(5) 0.0324(3) 0.1614(2)
S2 S 0.67014(9) 0.15966(8) 0.44232(5)
C53 C 0.6910(5) 0.5585(3) 0.5058(3)
H39 H 0.6355 0.5516 0.5520
H40 H 0.6749 0.6335 0.4898
H41 H 0.7858 0.5283 0.5154
C54 C 0.6567(4) 0.5025(4) 0.4469(3)
N7 N 0.6303(5) 0.4556(4) 0.4003(3)
loop_
_geom_bond_atom_site_label_1
_geom_bond_atom_site_label_2
_geom_bond_site_symmetry_1
_geom_bond_site_symmetry_2
C1 C2 1_555 1_555
C2 H1 1_555 1_555
C3 C2 1_555 1_555
H2 C3 1_555 1_555
C4 C3 1_555 1_555
H3 C4 1_555 1_555
C5 C4 1_555 1_555
H4 C5 1_555 1_555
C6 C1 1_555 1_555
H5 C6 1_555 1_555
C7 C8 1_555 1_555
C8 H6 1_555 1_555
C9 C8 1_555 1_555
H7 C9 1_555 1_555
C10 C9 1_555 1_555
H8 C10 1_555 1_555
C11 C10 1_555 1_555
H9 C11 1_555 1_555
C12 C7 1_555 1_555
H10 C12 1_555 1_555
C13 C14 1_555 1_555
C14 H11 1_555 1_555
C15 C14 1_555 1_555
H12 C15 1_555 1_555
C16 C15 1_555 1_555
C17 C16 1_555 1_555
H13 C17 1_555 1_555
C18 C13 1_555 1_555
H14 C18 1_555 1_555
C19 C16 1_555 1_555
C20 H15 1_555 1_555
C21 C20 1_555 1_555
C22 C21 1_555 1_555
C23 C22 1_555 1_555
H16 C23 1_555 1_555
C24 C23 1_555 1_555
H17 C24 1_555 1_555
C25 H18 1_555 1_555
C26 C22 1_555 1_555
H19 C26 1_555 1_555
N1 C1 1_555 1_555
N2 C19 1_555 1_555
N3 C24 1_555 1_555
S1 C19 1_555 1_555
C27 C28 1_555 1_555
C28 H20 1_555 1_555
C29 C28 1_555 1_555
H21 C29 1_555 1_555
C30 C29 1_555 1_555
H22 C30 1_555 1_555
C31 C30 1_555 1_555
H23 C31 1_555 1_555
C32 C27 1_555 1_555
H24 C32 1_555 1_555
C33 C34 1_555 1_555
C34 H25 1_555 1_555
C35 C34 1_555 1_555
H26 C35 1_555 1_555
C36 C35 1_555 1_555
H27 C36 1_555 1_555
C37 C36 1_555 1_555
H28 C37 1_555 1_555
C38 C33 1_555 1_555
H29 C38 1_555 1_555
C39 C40 1_555 1_555
C40 H30 1_555 1_555
C41 C40 1_555 1_555
H31 C41 1_555 1_555
C42 C41 1_555 1_555
C43 C42 1_555 1_555
H32 C43 1_555 1_555
C44 C39 1_555 1_555
H33 C44 1_555 1_555
C45 C42 1_555 1_555
C46 H34 1_555 1_555
C47 C46 1_555 1_555
C48 C47 1_555 1_555
C49 C48 1_555 1_555
H35 C49 1_555 1_555
C50 C49 1_555 1_555
H36 C50 1_555 1_555
C51 H37 1_555 1_555
C52 C48 1_555 1_555
H38 C52 1_555 1_555
N4 C27 1_555 1_555
N5 C45 1_555 1_555
N6 C50 1_555 1_555
S2 C45 1_555 1_555
C53 H39 1_555 1_555
H40 C53 1_555 1_555
H41 C53 1_555 1_555
C54 C53 1_555 1_555
N7 C54 1_555 1_555
C5 C6 1_555 1_555
C7 N1 1_555 1_555
C11 C12 1_555 1_555
C13 N1 1_555 1_555
C17 C18 1_555 1_555
C20 N2 1_555 1_555
C21 S1 1_555 1_555
C25 C26 1_555 1_555
C25 N3 1_555 1_555
C31 C32 1_555 1_555
C33 N4 1_555 1_555
C37 C38 1_555 1_555
C39 N4 1_555 1_555
C43 C44 1_555 1_555
C46 N5 1_555 1_555
C47 S2 1_555 1_555
C51 C52 1_555 1_555
C51 N6 1_555 1_555

#END
