
#######################################################################
#
#                 Cambridge Crystallographic Data Centre
#                                CCDC 
#
#######################################################################
#
# If this CIF has been generated from an entry in the Cambridge 
# Structural Database, then it will include bibliographic, chemical, 
# crystal, experimental, refinement or atomic coordinate data resulting 
# from the CCDC's data processing and validation procedures.
#
#######################################################################

data_ZUVSOA
_chemical_formula_moiety         'C8 H5 Br1 N2 S1'
_chemical_name_systematic        4-(5-bromo-1,3-thiazol-2-yl)pyridine
_symmetry_cell_setting           triclinic
_symmetry_space_group_name_H-M   'P -1'
_symmetry_Int_Tables_number      2
_space_group_name_Hall           '-P 1'
loop_
_symmetry_equiv_pos_site_id
_symmetry_equiv_pos_as_xyz
1 x,y,z
2 -x,-y,-z
_cell_length_a                   5.8778(18)
_cell_length_b                   7.415(2)
_cell_length_c                   9.975(3)
_cell_angle_alpha                84.049(5)
_cell_angle_beta                 87.505(5)
_cell_angle_gamma                77.632(4)
_cell_volume                     422.269
_exptl_crystal_colour            colorless
_exptl_crystal_description       block
_cell_formula_units_Z            2
loop_
_atom_site_label
_atom_site_type_symbol
_atom_site_fract_x
_atom_site_fract_y
_atom_site_fract_z
Br1 Br 0.43045(8) 0.73792(7) -0.39670(5)
C1 C 0.2101(9) 0.7637(7) -0.2574(5)
C2 C -0.0214(9) 0.8394(7) -0.2613(5)
H1 H -0.0954 0.8883 -0.3416
C3 C 0.0019(8) 0.7633(6) -0.0420(5)
C4 C -0.0704(7) 0.7446(5) 0.1012(4)
C5 C -0.3015(9) 0.8181(6) 0.1401(5)
H2 H -0.4100 0.8798 0.0768
C6 C -0.3625(9) 0.7962(7) 0.2740(6)
H3 H -0.5165 0.8435 0.2985
C7 C -0.0029(10) 0.6421(8) 0.3324(6)
H4 H 0.1013 0.5801 0.3979
C8 C 0.0771(9) 0.6551(7) 0.2003(5)
H5 H 0.2311 0.6029 0.1789
N1 N -0.1384(8) 0.8393(7) -0.1409(5)
N2 N -0.2190(8) 0.7127(6) 0.3716(5)
S1 S 0.2872(2) 0.69053(18) -0.09352(13)
loop_
_geom_bond_atom_site_label_1
_geom_bond_atom_site_label_2
_geom_bond_site_symmetry_1
_geom_bond_site_symmetry_2
Br1 C1 1_555 1_555
C1 C2 1_555 1_555
C2 H1 1_555 1_555
C3 C4 1_555 1_555
C4 C5 1_555 1_555
C5 H2 1_555 1_555
C6 C5 1_555 1_555
H3 C6 1_555 1_555
C7 H4 1_555 1_555
C8 C4 1_555 1_555
H5 C8 1_555 1_555
N1 C2 1_555 1_555
N2 C6 1_555 1_555
S1 C1 1_555 1_555
C3 N1 1_555 1_555
C3 S1 1_555 1_555
C7 C8 1_555 1_555
C7 N2 1_555 1_555

#END
