
#######################################################################
#
#                 Cambridge Crystallographic Data Centre
#                                CCDC 
#
#######################################################################
#
# If this CIF has been generated from an entry in the Cambridge 
# Structural Database, then it will include bibliographic, chemical, 
# crystal, experimental, refinement or atomic coordinate data resulting 
# from the CCDC's data processing and validation procedures.
#
#######################################################################

data_ZUVXEV
_chemical_formula_moiety         'C17 H20 O2'
_chemical_name_systematic        3-Cyclo-octyl-2H-chromen-2-one
_symmetry_cell_setting           triclinic
_symmetry_space_group_name_H-M   'P -1'
_symmetry_Int_Tables_number      2
_space_group_name_Hall           '-P 1'
loop_
_symmetry_equiv_pos_site_id
_symmetry_equiv_pos_as_xyz
1 x,y,z
2 -x,-y,-z
_cell_length_a                   6.7321(3)
_cell_length_b                   9.3720(4)
_cell_length_c                   11.4758(5)
_cell_angle_alpha                95.498(3)
_cell_angle_beta                 99.490(3)
_cell_angle_gamma                104.725(3)
_cell_volume                     683.446
_exptl_crystal_colour            colorless
_exptl_crystal_description       needle
_cell_formula_units_Z            2
loop_
_atom_site_label
_atom_site_type_symbol
_atom_site_fract_x
_atom_site_fract_y
_atom_site_fract_z
C1 C 0.0481(2) 0.71578(14) 0.50746(12)
C2 C -0.1918(2) 0.57059(14) 0.32772(12)
C3 C -0.0242(2) 0.55335(15) 0.27799(12)
C4 C -0.1491(2) 0.65681(14) 0.44480(12)
H1 H -0.2605 0.6721 0.4779
C5 C 0.1099(2) 0.81575(14) 0.62737(11)
H2 H 0.2024 0.7745 0.6812
C6 C 0.2220(2) 0.68489(15) 0.45764(12)
C7 C -0.3941(2) 0.50595(16) 0.26026(14)
H3 H -0.5096 0.5150 0.2919
C8 C -0.0517(3) 0.47838(17) 0.16396(14)
H4 H 0.0633 0.4700 0.1314
C9 C 0.2377(2) 0.97426(15) 0.61192(12)
H5 H 0.2757 0.9687 0.5340
H6 H 0.1477 1.0402 0.6129
C10 C -0.0817(2) 0.81659(16) 0.68247(12)
H7 H -0.1602 0.7137 0.6799
H8 H -0.1697 0.8621 0.6312
C11 C -0.2524(3) 0.41640(18) 0.09969(14)
H9 H -0.2730 0.3654 0.0232
C12 C -0.4234(3) 0.42910(17) 0.14752(14)
H10 H -0.5582 0.3858 0.1036
C13 C 0.4371(2) 1.04383(18) 0.70609(14)
H11 H 0.5422 0.9949 0.6893
H12 H 0.4883 1.1477 0.6965
C14 C -0.0487(3) 0.89499(17) 0.81053(14)
H13 H -0.1829 0.8723 0.8353
H14 H 0.0427 0.8520 0.8620
C15 C 0.2790(3) 1.12108(18) 0.88493(14)
H15 H 0.3265 1.2243 0.8727
H16 H 0.2984 1.1198 0.9704
C16 C 0.4203(3) 1.03741(19) 0.83633(14)
H17 H 0.3707 0.9336 0.8463
H18 H 0.5599 1.0762 0.8849
C17 C 0.0438(3) 1.06458(18) 0.83265(15)
H19 H -0.0302 1.1067 0.8865
H20 H 0.0170 1.1023 0.7575
O1 O 0.17791(15) 0.61006(11) 0.34205(9)
O2 O 0.40281(16) 0.71910(13) 0.50789(10)
loop_
_geom_bond_atom_site_label_1
_geom_bond_atom_site_label_2
_geom_bond_site_symmetry_1
_geom_bond_site_symmetry_2
C1 C4 1_555 1_555
C2 C3 1_555 1_555
C3 C8 1_555 1_555
C4 C2 1_555 1_555
H1 C4 1_555 1_555
C5 C1 1_555 1_555
H2 C5 1_555 1_555
C6 C1 1_555 1_555
C7 C2 1_555 1_555
H3 C7 1_555 1_555
C8 H4 1_555 1_555
C9 C5 1_555 1_555
H5 C9 1_555 1_555
H6 C9 1_555 1_555
C10 C5 1_555 1_555
H7 C10 1_555 1_555
H8 C10 1_555 1_555
C11 C8 1_555 1_555
H9 C11 1_555 1_555
C12 C7 1_555 1_555
H10 C12 1_555 1_555
C13 C9 1_555 1_555
H11 C13 1_555 1_555
H12 C13 1_555 1_555
C14 C10 1_555 1_555
H13 C14 1_555 1_555
H14 C14 1_555 1_555
C15 H15 1_555 1_555
H16 C15 1_555 1_555
C16 C13 1_555 1_555
H17 C16 1_555 1_555
H18 C16 1_555 1_555
C17 C14 1_555 1_555
H19 C17 1_555 1_555
H20 C17 1_555 1_555
O1 C3 1_555 1_555
O2 C6 1_555 1_555
C6 O1 1_555 1_555
C11 C12 1_555 1_555
C15 C16 1_555 1_555
C15 C17 1_555 1_555

#END
