
#######################################################################
#
#                 Cambridge Crystallographic Data Centre
#                                CCDC 
#
#######################################################################
#
# If this CIF has been generated from an entry in the Cambridge 
# Structural Database, then it will include bibliographic, chemical, 
# crystal, experimental, refinement or atomic coordinate data resulting 
# from the CCDC's data processing and validation procedures.
#
#######################################################################

data_ZUVYUM
_chemical_formula_moiety         
'C68 H72 N4 O10,7.7(C2 H3 N1),0.3(C1 H2 Cl2),2(H2 O1)'
_chemical_name_systematic        
'anti-10,18,38,46-Tetra-n-butoxy-30,54,58,60-tetraoxa-13,15,41,43-tetra-azatridecacyclo[47.7.1.1^3,55^.1^25,29^.1^27,31^.0^2,7^.0^6,11^.0^17,22^.0^21,26^.0^34,39^.0^35,59^.0^45,50^.0^53,57^]hexaconta-2,4,6,8,10,17,19,21,23,25,31(59),32,34,36,38,45,47,49,51,53(57)-icosaene-14,42-dione acetonitrile dichloromethane solvate dihydrate'
_symmetry_cell_setting           triclinic
_symmetry_space_group_name_H-M   'P -1'
_symmetry_Int_Tables_number      2
_space_group_name_Hall           '-P 1'
loop_
_symmetry_equiv_pos_site_id
_symmetry_equiv_pos_as_xyz
1 x,y,z
2 -x,-y,-z
_cell_length_a                   11.6914(4)
_cell_length_b                   13.3995(3)
_cell_length_c                   13.6649(5)
_cell_angle_alpha                105.227(3)
_cell_angle_beta                 99.554(3)
_cell_angle_gamma                102.607(2)
_cell_volume                     1958.27
_exptl_crystal_colour            colorless
_exptl_crystal_description       block
_cell_formula_units_Z            1
loop_
_atom_site_label
_atom_site_type_symbol
_atom_site_fract_x
_atom_site_fract_y
_atom_site_fract_z
C36 C 1.1389(3) 1.1832(3) 0.3219(3)
C37 C 1.2238(3) 1.2877(4) 0.3375(3)
H42 H 1.2842 1.3067 0.4012
H43 H 1.1810 1.3416 0.3416
H44 H 1.2618 1.2830 0.2800
N3 N 1.0715(4) 1.1019(3) 0.3104(3)
C38 C 0.9310(3) 1.4162(2) 0.3592(3)
C39 C 0.8160(3) 1.3785(2) 0.3814(3)
H45 H 0.7537 1.3896 0.3335
H46 H 0.8172 1.4175 0.4515
H47 H 0.8005 1.3031 0.3739
N4 N 1.0232(3) 1.4494(3) 0.3471(3)
C40 C 0.7766(5) 0.9594(3) 0.1722(3)
H48 H 0.7682 0.9230 0.0997
H49 H 0.7240 0.9146 0.2002
H50 H 0.8586 0.9740 0.2096
C41 C 0.7448(5) 1.0596(5) 0.1829(4)
N5 N 0.7159(5) 1.1316(5) 0.1877(4)
C43 C 0.3992(3) 0.98000(18) 0.06845(17)
C44 C 0.3982(3) 0.8697(2) 0.0601(2)
H53 H 0.3411 0.8222 -0.0025
H54 H 0.3756 0.8529 0.1195
H55 H 0.4771 0.8611 0.0578
N6 N 0.4006(3) 1.06756(15) 0.07498(16)
O6 O 0.53865(17) 0.60296(12) 0.42640(12)
H56 H 0.534(3) 0.541(3) 0.409(2)
H57 H 0.504(2) 0.611(2) 0.483(2)
C1 C 0.53829(19) 0.62201(13) -0.06496(13)
C2 C 0.43599(18) 0.61275(13) -0.02073(13)
C3 C 0.45122(17) 0.63822(12) 0.09012(13)
C4 C 0.57041(18) 0.66847(13) 0.15091(13)
H1 H 0.5829 0.6833 0.2229
C5 C 0.66837(19) 0.67674(14) 0.10787(15)
H2 H 0.7456 0.6960 0.1505
C6 C 0.65273(19) 0.65621(13) -0.00093(15)
C7 C 0.3164(2) 0.57929(15) -0.08357(14)
H3 H 0.3043 0.5648 -0.1555
C8 C 0.2193(2) 0.56811(16) -0.04065(15)
H4 H 0.1417 0.5438 -0.0834
C9 C 0.23613(19) 0.59349(14) 0.06890(15)
C10 C 0.34875(17) 0.63188(12) 0.13522(13)
C11 C 0.8679(2) 0.6998(2) 0.0145(2)
H5 H 0.8805 0.6466 0.0485
H6 H 0.8824 0.7682 0.0679
C12 C 0.9526(3) 0.7099(2) -0.0572(3)
H7 H 0.9283 0.6689 -0.1273
C13 C 1.0662(5) 0.7809(5) -0.0172(5)
H8 H 1.1106 0.7712 -0.0714
H9 H 1.1070 0.7606 0.0392
C14 C 1.0753(4) 0.9004(3) 0.0240(3)
H10 H 1.1586 0.9407 0.0494
H11 H 1.0382 0.9232 -0.0313
H12 H 1.0347 0.9126 0.0798
C15 C 0.35886(17) 0.66851(13) 0.25307(13)
H13 H 0.4321 0.6585 0.2911
C16 C 0.24580(19) 0.60294(14) 0.27393(15)
H14 H 0.2433 0.5273 0.2545
H15 H 0.2464 0.6273 0.3475
C17 C 0.13767(19) 0.61898(15) 0.20941(16)
H16 H 0.0651 0.5800 0.2249
C18 C 0.55828(17) 1.07257(13) 0.39964(12)
C19 C 0.45350(17) 0.98331(13) 0.35467(12)
C20 C 0.46257(16) 0.87524(13) 0.33700(12)
C21 C 0.57748(17) 0.86226(13) 0.37265(13)
H17 H 0.5852 0.7933 0.3661
C22 C 0.67787(17) 0.94838(14) 0.41652(14)
H18 H 0.7521 0.9371 0.4394
C23 C 0.66934(17) 1.05442(13) 0.42728(13)
C24 C 0.33743(18) 0.99826(13) 0.32724(13)
H19 H 0.3298 1.0675 0.3357
C25 C 0.23662(18) 0.91292(15) 0.28863(14)
H20 H 0.1609 0.9245 0.2743
C26 C 0.24734(17) 0.80743(14) 0.27058(13)
C27 C 0.35731(17) 0.78607(13) 0.28876(12)
C28 C 0.88368(18) 1.12763(15) 0.50000(15)
H21 H 0.9055 1.0825 0.4420
H22 H 0.8829 1.0934 0.5543
C29 C 0.97265(18) 1.23790(15) 0.54121(15)
H23 H 0.9799 1.2669 0.4838
H24 H 0.9421 1.2853 0.5906
C30 C 1.0956(2) 1.23587(19) 0.5941(2)
H25 H 1.1272 1.1897 0.5444
H26 H 1.0885 1.2060 0.6509
C31 C 1.1824(2) 1.3475(2) 0.6364(2)
H27 H 1.1881 1.3780 0.5805
H28 H 1.2606 1.3433 0.6670
H29 H 1.1537 1.3922 0.6885
C32 C 0.54833(18) 1.18615(13) 0.41673(13)
H30 H 0.4845 1.1964 0.4522
H31 H 0.6234 1.2370 0.4602
C33 C 0.51669(17) 1.30179(13) 0.30635(13)
C34 C 0.4767(2) 1.40067(14) 0.18118(14)
H32 H 0.5457 1.4621 0.2183
H33 H 0.4055 1.4169 0.2012
N1 N 0.52207(16) 1.20519(11) 0.31616(11)
H34 H 0.5094 1.1522 0.2603
N2 N 0.49475(18) 1.30555(12) 0.20760(12)
H35 H 0.4912 1.2493 0.1578
O1 O 0.74709(15) 0.66731(12) -0.04819(12)
O2 O 0.76730(13) 1.14251(10) 0.46633(11)
O3 O 0.12932(13) 0.57714(12) 0.10096(11)
O4 O 0.13809(13) 0.72888(10) 0.23196(11)
O5 O 0.53331(15) 1.38172(10) 0.38316(10)
C1A C 0.46171(19) 1.37799(13) 0.06496(13)
C2A C 0.56401(18) 1.38725(13) 0.02073(13)
C3A C 0.54878(17) 1.36178(12) -0.09012(13)
C4A C 0.42959(18) 1.33153(13) -0.15091(13)
H1A H 0.4171 1.3167 -0.2229
C5A C 0.33163(19) 1.32326(14) -0.10787(15)
H2A H 0.2544 1.3040 -0.1505
C6A C 0.34727(19) 1.34379(13) 0.00093(15)
C7A C 0.6836(2) 1.42071(15) 0.08357(14)
H3A H 0.6957 1.4352 0.1555
C8A C 0.7807(2) 1.43189(16) 0.04065(15)
H4A H 0.8583 1.4562 0.0834
C9A C 0.76387(19) 1.40651(14) -0.06890(15)
C10A C 0.65125(17) 1.36812(12) -0.13522(13)
C11A C 0.1321(2) 1.3002(2) -0.0145(2)
H5A H 0.1195 1.3534 -0.0485
H6A H 0.1176 1.2318 -0.0679
C12A C 0.0474(3) 1.2901(2) 0.0572(3)
H7A H 0.0717 1.3311 0.1273
C13A C -0.0662(5) 1.2191(5) 0.0172(5)
H8A H -0.1106 1.2288 0.0714
H9A H -0.1070 1.2394 -0.0392
C14A C -0.0753(4) 1.0996(3) -0.0240(3)
H10A H -0.1586 1.0593 -0.0494
H11A H -0.0382 1.0768 0.0313
H12A H -0.0347 1.0874 -0.0798
C15A C 0.64114(17) 1.33149(13) -0.25307(13)
H13A H 0.5679 1.3415 -0.2911
C16A C 0.75420(19) 1.39706(14) -0.27393(15)
H14A H 0.7567 1.4727 -0.2545
H15A H 0.7536 1.3727 -0.3475
C17A C 0.86233(19) 1.38102(15) -0.20941(16)
H16A H 0.9349 1.4200 -0.2249
C18A C 0.44172(17) 0.92743(13) -0.39964(12)
C19A C 0.54650(17) 1.01669(13) -0.35467(12)
C20A C 0.53743(16) 1.12476(13) -0.33700(12)
C21A C 0.42252(17) 1.13774(13) -0.37265(13)
H17A H 0.4148 1.2067 -0.3661
C22A C 0.32213(17) 1.05162(14) -0.41652(14)
H18A H 0.2479 1.0629 -0.4394
C23A C 0.33066(17) 0.94558(13) -0.42728(13)
C24A C 0.66257(18) 1.00174(13) -0.32724(13)
H19A H 0.6702 0.9325 -0.3357
C25A C 0.76338(18) 1.08708(15) -0.28863(14)
H20A H 0.8391 1.0755 -0.2743
C26A C 0.75266(17) 1.19257(14) -0.27058(13)
C27A C 0.64269(17) 1.21393(13) -0.28876(12)
C28A C 0.11632(18) 0.87237(15) -0.50000(15)
H21A H 0.0945 0.9175 -0.4420
H22A H 0.1171 0.9066 -0.5543
C29A C 0.02735(18) 0.76210(15) -0.54121(15)
H23A H 0.0201 0.7331 -0.4838
H24A H 0.0579 0.7147 -0.5906
C30A C -0.0956(2) 0.76413(19) -0.5941(2)
H25A H -0.1272 0.8103 -0.5444
H26A H -0.0885 0.7940 -0.6509
C31A C -0.1824(2) 0.6525(2) -0.6364(2)
H27A H -0.1881 0.6220 -0.5805
H28A H -0.2606 0.6567 -0.6670
H29A H -0.1537 0.6078 -0.6885
C32A C 0.45167(18) 0.81385(13) -0.41673(13)
H30A H 0.5155 0.8036 -0.4522
H31A H 0.3766 0.7630 -0.4602
C33A C 0.48331(17) 0.69821(13) -0.30635(13)
C34A C 0.5233(2) 0.59933(14) -0.18118(14)
H32A H 0.4543 0.5379 -0.2183
H33A H 0.5945 0.5831 -0.2012
N1A N 0.47793(16) 0.79481(11) -0.31616(11)
H34A H 0.4906 0.8478 -0.2603
N2A N 0.50525(18) 0.69445(12) -0.20760(12)
H35A H 0.5088 0.7507 -0.1578
O1A O 0.25291(15) 1.33269(12) 0.04819(12)
O2A O 0.23270(13) 0.85749(10) -0.46633(11)
O3A O 0.87068(13) 1.42286(12) -0.10096(11)
O4A O 0.86191(13) 1.27112(10) -0.23196(11)
O5A O 0.46669(15) 0.61828(10) -0.38316(10)
H36? H 0.9816 0.6533 -0.0886
C35? C 0.9833(5) 0.8077(4) -0.0726(4)
H37? H 0.9104 0.8294 -0.0892
H38? H 1.0187 0.8004 -0.1326
H39? H 1.0922 0.9663 0.0069
H40? H 1.0404 0.9100 0.0835
H41? H 1.1488 0.8809 0.0400
C42? C 0.742(3) 0.980(3) 0.182(2)
H51? H 0.7162 0.9432 0.1071
H52? H 0.6817 0.9492 0.2147
Cl1? Cl 0.8966(4) 0.9642(4) 0.2376(3)
Cl2? Cl 0.7563(14) 1.1079(9) 0.2051(11)
loop_
_geom_bond_atom_site_label_1
_geom_bond_atom_site_label_2
_geom_bond_site_symmetry_1
_geom_bond_site_symmetry_2
C1 C2 1_555 1_555
C2 C3 1_555 1_555
C3 C4 1_555 1_555
C4 H1 1_555 1_555
C5 C4 1_555 1_555
H2 C5 1_555 1_555
C6 C1 1_555 1_555
C7 C2 1_555 1_555
H3 C7 1_555 1_555
C8 C7 1_555 1_555
H4 C8 1_555 1_555
C9 C8 1_555 1_555
C10 C3 1_555 1_555
C11 H5 1_555 1_555
H6 C11 1_555 1_555
C12 C11 1_555 1_555
H7 C12 1_555 1_555
C13 C12 1_555 1_555
H8 C13 1_555 1_555
H9 C13 1_555 1_555
C14 C13 1_555 1_555
H10 C14 1_555 1_555
H11 C14 1_555 1_555
H12 C14 1_555 1_555
C15 C10 1_555 1_555
H13 C15 1_555 1_555
C16 C15 1_555 1_555
H14 C16 1_555 1_555
H15 C16 1_555 1_555
C17 C16 1_555 1_555
H16 C17 1_555 1_555
C18 C19 1_555 1_555
C19 C20 1_555 1_555
C20 C21 1_555 1_555
C21 H17 1_555 1_555
C22 C21 1_555 1_555
H18 C22 1_555 1_555
C23 C18 1_555 1_555
C24 C19 1_555 1_555
H19 C24 1_555 1_555
C25 C24 1_555 1_555
H20 C25 1_555 1_555
C26 C25 1_555 1_555
C27 C15 1_555 1_555
C28 H21 1_555 1_555
H22 C28 1_555 1_555
C29 C28 1_555 1_555
H23 C29 1_555 1_555
H24 C29 1_555 1_555
C30 C29 1_555 1_555
H25 C30 1_555 1_555
H26 C30 1_555 1_555
C31 C30 1_555 1_555
H27 C31 1_555 1_555
H28 C31 1_555 1_555
H29 C31 1_555 1_555
C32 C18 1_555 1_555
H30 C32 1_555 1_555
H31 C32 1_555 1_555
C33 N1 1_555 1_555
C34 H32 1_555 1_555
H33 C34 1_555 1_555
N1 C32 1_555 1_555
H34 N1 1_555 1_555
N2 C33 1_555 1_555
H35 N2 1_555 1_555
O1 C6 1_555 1_555
O2 C23 1_555 1_555
O3 C9 1_555 1_555
O4 C17 1_555 1_555
O5 C33 1_555 1_555
C36 C37 1_555 1_555
C37 H42 1_555 1_555
H43 C37 1_555 1_555
H44 C37 1_555 1_555
N3 C36 1_555 1_555
C38 C39 1_555 1_555
C39 H45 1_555 1_555
H46 C39 1_555 1_555
H47 C39 1_555 1_555
N4 C38 1_555 1_555
C40 H48 1_555 1_555
H49 C40 1_555 1_555
H50 C40 1_555 1_555
C41 C40 1_555 1_555
N5 C41 1_555 1_555
C43 C44 1_555 1_555
C44 H53 1_555 1_555
H54 C44 1_555 1_555
H55 C44 1_555 1_555
N6 C43 1_555 1_555
O6 H56 1_555 1_555
H57 O6 1_555 1_555
C1A C34 1_555 1_555
C2A C1A 1_555 1_555
C3A C2A 1_555 1_555
C4A C3A 1_555 1_555
H1A C4A 1_555 1_555
C5A C4A 1_555 1_555
H2A C5A 1_555 1_555
C6A C1A 1_555 1_555
C7A C2A 1_555 1_555
H3A C7A 1_555 1_555
C8A C7A 1_555 1_555
H4A C8A 1_555 1_555
C9A C8A 1_555 1_555
C10A C3A 1_555 1_555
C11A H5A 1_555 1_555
H6A C11A 1_555 1_555
C12A C11A 1_555 1_555
H7A C12A 1_555 1_555
C13A C12A 1_555 1_555
H8A C13A 1_555 1_555
H9A C13A 1_555 1_555
C14A C13A 1_555 1_555
H10A C14A 1_555 1_555
H11A C14A 1_555 1_555
H12A C14A 1_555 1_555
C15A C10A 1_555 1_555
H13A C15A 1_555 1_555
C16A C15A 1_555 1_555
H14A C16A 1_555 1_555
H15A C16A 1_555 1_555
C17A C16A 1_555 1_555
H16A C17A 1_555 1_555
C18A C19A 1_555 1_555
C19A C20A 1_555 1_555
C20A C21A 1_555 1_555
C21A H17A 1_555 1_555
C22A C21A 1_555 1_555
H18A C22A 1_555 1_555
C23A C18A 1_555 1_555
C24A C19A 1_555 1_555
H19A C24A 1_555 1_555
C25A C24A 1_555 1_555
H20A C25A 1_555 1_555
C26A C25A 1_555 1_555
C27A C15A 1_555 1_555
C28A H21A 1_555 1_555
H22A C28A 1_555 1_555
C29A C28A 1_555 1_555
H23A C29A 1_555 1_555
H24A C29A 1_555 1_555
C30A C29A 1_555 1_555
H25A C30A 1_555 1_555
H26A C30A 1_555 1_555
C31A C30A 1_555 1_555
H27A C31A 1_555 1_555
H28A C31A 1_555 1_555
H29A C31A 1_555 1_555
C32A C18A 1_555 1_555
H30A C32A 1_555 1_555
H31A C32A 1_555 1_555
C33A N1A 1_555 1_555
C34A C1 1_555 1_555
H32A C34A 1_555 1_555
H33A C34A 1_555 1_555
N1A C32A 1_555 1_555
H34A N1A 1_555 1_555
N2A C33A 1_555 1_555
H35A N2A 1_555 1_555
O1A C6A 1_555 1_555
O2A C23A 1_555 1_555
O3A C9A 1_555 1_555
O4A C17A 1_555 1_555
O5A C33A 1_555 1_555
C5 C6 1_555 1_555
C9 C10 1_555 1_555
C11 O1 1_555 1_555
C17 O3 1_555 1_555
C20 C27 1_555 1_555
C22 C23 1_555 1_555
C26 C27 1_555 1_555
C26 O4 1_555 1_555
C28 O2 1_555 1_555
C34 N2 1_555 1_555
C5A C6A 1_555 1_555
C9A C10A 1_555 1_555
C11A O1A 1_555 1_555
C17A O3A 1_555 1_555
C20A C27A 1_555 1_555
C22A C23A 1_555 1_555
C26A C27A 1_555 1_555
C26A O4A 1_555 1_555
C28A O2A 1_555 1_555
C34A N2A 1_555 1_555

#END
