
#######################################################################
#
#                 Cambridge Crystallographic Data Centre
#                                CCDC 
#
#######################################################################
#
# If this CIF has been generated from an entry in the Cambridge 
# Structural Database, then it will include bibliographic, chemical, 
# crystal, experimental, refinement or atomic coordinate data resulting 
# from the CCDC's data processing and validation procedures.
#
#######################################################################

data_ZUVZEX
_chemical_formula_moiety         'C68 H72 N4 O10,C4 H8 O2,2(C1 H1 Cl3)'
_chemical_name_systematic        
'anti-10,18,38,46-Tetra-n-butoxy-30,54,58,60-tetraoxa-13,15,41,43-tetra-azatridecacyclo[47.7.1.1^3,55^.1^25,29^.1^27,31^.0^2,7^.0^6,11^.0^17,22^.0^21,26^.0^34,39^.0^35,59^.0^45,50^.0^53,57^]hexaconta-2,4,6,8,10,17,19,21,23,25,31(59),32,34,36,38,45,47,49,51,53(57)-icosaene-14,42-dione acetonitrile chloroform 1,4-dioxane solvate'
_symmetry_cell_setting           triclinic
_symmetry_space_group_name_H-M   'P -1'
_symmetry_Int_Tables_number      2
_space_group_name_Hall           '-P 1'
loop_
_symmetry_equiv_pos_site_id
_symmetry_equiv_pos_as_xyz
1 x,y,z
2 -x,-y,-z
_cell_length_a                   11.992(4)
_cell_length_b                   12.642(5)
_cell_length_c                   13.390(4)
_cell_angle_alpha                78.03(3)
_cell_angle_beta                 69.89(3)
_cell_angle_gamma                65.52(3)
_cell_volume                     1729.83
_exptl_crystal_colour            colorless
_exptl_crystal_description       needle
_cell_formula_units_Z            1
loop_
_atom_site_label
_atom_site_type_symbol
_atom_site_fract_x
_atom_site_fract_y
_atom_site_fract_z
C1 C 1.1547(10) 0.4830(9) 0.1070(7)
C2 C 1.0224(10) 0.5189(10) 0.1267(7)
C3 C 0.9433(10) 0.6398(9) 0.1353(7)
C4 C 1.0036(11) 0.7187(10) 0.1216(8)
H1 H 0.9524 0.7993 0.1273
C5 C 1.1330(11) 0.6834(9) 0.1005(8)
H2 H 1.1723 0.7385 0.0875
C6 C 1.2082(10) 0.5607(11) 0.0984(8)
C7 C 0.9617(10) 0.4395(10) 0.1373(7)
H3 H 1.0121 0.3585 0.1343
C8 C 0.8356(11) 0.4759(10) 0.1513(8)
H4 H 0.7986 0.4220 0.1528
C9 C 0.7578(10) 0.5953(10) 0.1640(7)
C10 C 0.8074(10) 0.6774(9) 0.1566(7)
C11 C 1.3896(10) 0.5689(10) 0.1317(8)
H5 H 1.3540 0.6551 0.1222
H6 H 1.4836 0.5431 0.1000
C12 C 1.361(2) 0.532(2) 0.2574(15)
H7 H 1.3993 0.5671 0.2897
H8 H 1.2677 0.5603 0.2921
C13 C 1.420(2) 0.396(2) 0.2750(19)
H9 H 1.3910 0.3740 0.3521
H10 H 1.3859 0.3628 0.2372
C14 C 1.563(2) 0.343(2) 0.238(2)
H11 H 1.5916 0.2595 0.2597
H12 H 1.5986 0.3803 0.2702
H13 H 1.5929 0.3548 0.1602
C15 C 0.7148(10) 0.8039(9) 0.1731(8)
H14 H 0.7552 0.8588 0.1263
C16 C 0.5924(10) 0.8209(10) 0.1467(8)
H15 H 0.5266 0.8992 0.1645
H16 H 0.6120 0.8140 0.0696
C17 C 0.5457(10) 0.7310(9) 0.2096(7)
H17 H 0.4620 0.7469 0.1980
C18 C 0.7216(10) 0.9588(9) 0.4923(8)
C19 C 0.7995(12) 1.0138(11) 0.4284(9)
C20 C 0.8310(11) 1.0145(10) 0.3136(8)
H18 H 0.8799 1.0584 0.2686
C21 C 0.7927(11) 0.9549(10) 0.2702(9)
H19 H 0.8178 0.9551 0.1947
C22 C 0.7160(10) 0.8915(9) 0.3323(8)
C23 C 0.6758(9) 0.8970(9) 0.4477(8)
C24 C 0.6719(10) 0.8294(9) 0.2920(8)
C25 C 0.5841(10) 0.7841(9) 0.3565(8)
C26 C 0.5416(10) 0.7908(9) 0.4686(8)
H20 H 0.4809 0.7581 0.5129
C27 C 0.5891(9) 0.8442(9) 0.5104(8)
H21 H 0.5632 0.8465 0.5857
C28 C 0.944(2) 1.120(2) 0.4300(19)
H22 H 1.0128 1.0807 0.3678
H23 H 0.9857 1.1270 0.4795
C29 C 0.866(2) 1.241(2) 0.3927(19)
H24 H 0.8169 1.2348 0.3490
H25 H 0.9230 1.2814 0.3479
C30 C 0.774(3) 1.309(2) 0.489(2)
H26 H 0.7295 1.2598 0.5390
H27 H 0.8248 1.3236 0.5251
C31 C 0.6816(12) 1.4158(11) 0.4663(10)
H28 H 0.6274 1.4530 0.5329
H29 H 0.7241 1.4666 0.4183
H30 H 0.6285 1.4026 0.4322
C32 C 0.6848(10) 0.9606(9) 0.6115(7)
H31 H 0.7057 1.0209 0.6295
H32 H 0.5917 0.9791 0.6425
C33 C 0.7217(10) 0.8130(10) 0.7610(9)
C34 C 0.7613(10) 0.6478(9) 0.8943(7)
H33 H 0.6696 0.6588 0.9220
H34 H 0.7805 0.6853 0.9410
N1 N 0.7561(8) 0.8457(7) 0.6545(6)
H35 H 0.8222 0.7967 0.6111
N2 N 0.7897(8) 0.6997(7) 0.7848(6)
H36 H 0.8512 0.6571 0.7340
O1 O 1.3408(7) 0.5252(7) 0.0705(6)
O2 O 0.6292(7) 0.6178(6) 0.1780(5)
O3 O 0.5244(7) 0.7283(6) 0.3221(5)
O4 O 0.8675(18) 1.0478(16) 0.4842(13)
O5 O 0.6391(7) 0.8804(6) 0.8279(5)
C1A C 0.8453(10) 0.5170(9) 0.8930(7)
C2A C 0.9776(10) 0.4811(10) 0.8733(7)
C3A C 1.0567(10) 0.3602(9) 0.8647(7)
C4A C 0.9964(11) 0.2813(10) 0.8784(8)
H1A H 1.0476 0.2007 0.8727
C5A C 0.8670(11) 0.3166(9) 0.8995(8)
H2A H 0.8277 0.2615 0.9125
C6A C 0.7918(10) 0.4393(11) 0.9016(8)
C7A C 1.0383(10) 0.5605(10) 0.8627(7)
H3A H 0.9879 0.6415 0.8657
C8A C 1.1644(11) 0.5241(10) 0.8487(8)
H4A H 1.2014 0.5780 0.8472
C9A C 1.2422(10) 0.4047(10) 0.8360(7)
C10A C 1.1926(10) 0.3226(9) 0.8434(7)
C11A C 0.6104(10) 0.4311(10) 0.8683(8)
H5A H 0.6460 0.3449 0.8778
H6A H 0.5164 0.4569 0.9000
C12A C 0.639(2) 0.468(2) 0.7426(15)
H7A H 0.6007 0.4329 0.7103
H8A H 0.7323 0.4397 0.7079
C13A C 0.580(2) 0.604(2) 0.7250(19)
H9A H 0.6090 0.6260 0.6479
H10A H 0.6141 0.6372 0.7628
C14A C 0.437(2) 0.657(2) 0.762(2)
H11A H 0.4084 0.7405 0.7403
H12A H 0.4014 0.6197 0.7298
H13A H 0.4071 0.6452 0.8398
C15A C 1.2852(10) 0.1961(9) 0.8269(8)
H14A H 1.2448 0.1412 0.8737
C16A C 1.4076(10) 0.1791(10) 0.8533(8)
H15A H 1.4734 0.1008 0.8355
H16A H 1.3880 0.1860 0.9304
C17A C 1.4543(10) 0.2690(9) 0.7904(7)
H17A H 1.5380 0.2531 0.8020
C18A C 1.2784(10) 0.0412(9) 0.5077(8)
C19A C 1.2005(12) -0.0138(11) 0.5716(9)
C20A C 1.1690(11) -0.0145(10) 0.6864(8)
H18A H 1.1201 -0.0584 0.7314
C21A C 1.2073(11) 0.0451(10) 0.7298(9)
H19A H 1.1822 0.0449 0.8053
C22A C 1.2840(10) 0.1085(9) 0.6677(8)
C23A C 1.3242(9) 0.1030(9) 0.5523(8)
C24A C 1.3281(10) 0.1706(9) 0.7080(8)
C25A C 1.4159(10) 0.2159(9) 0.6435(8)
C26A C 1.4584(10) 0.2092(9) 0.5314(8)
H20A H 1.5191 0.2419 0.4871
C27A C 1.4109(9) 0.1558(9) 0.4896(8)
H21A H 1.4368 0.1535 0.4143
C28A C 1.056(2) -0.120(2) 0.5700(19)
H22A H 0.9872 -0.0807 0.6322
H23A H 1.0143 -0.1270 0.5205
C29A C 1.134(2) -0.241(2) 0.6073(19)
H24A H 1.1831 -0.2348 0.6510
H25A H 1.0770 -0.2814 0.6521
C30A C 1.226(3) -0.309(2) 0.511(2)
H26A H 1.2705 -0.2598 0.4610
H27A H 1.1752 -0.3236 0.4749
C31A C 1.3184(12) -0.4158(11) 0.5337(10)
H28A H 1.3726 -0.4530 0.4671
H29A H 1.2759 -0.4666 0.5817
H30A H 1.3715 -0.4026 0.5678
C32A C 1.3152(10) 0.0394(9) 0.3885(7)
H31A H 1.2943 -0.0209 0.3705
H32A H 1.4083 0.0209 0.3575
C33A C 1.2783(10) 0.1870(10) 0.2390(9)
C34A C 1.2387(10) 0.3522(9) 0.1057(7)
H33A H 1.3304 0.3412 0.0780
H34A H 1.2195 0.3147 0.0590
N1A N 1.2439(8) 0.1543(7) 0.3455(6)
H35A H 1.1778 0.2033 0.3889
N2A N 1.2103(8) 0.3003(7) 0.2152(6)
H36A H 1.1488 0.3429 0.2660
O1A O 0.6592(7) 0.4748(7) 0.9295(6)
O2A O 1.3708(7) 0.3822(6) 0.8220(5)
O3A O 1.4756(7) 0.2717(6) 0.6779(5)
O4A O 1.1325(18) -0.0478(16) 0.5158(13)
O5A O 1.3609(7) 0.1196(6) 0.1721(5)
C41 C 0.9688(12) 0.5288(11) 0.4086(9)
H55 H 1.0152 0.5815 0.3717
H56 H 0.9240 0.5242 0.3608
C42 C 1.1211(13) 0.4232(12) 0.4999(10)
H57 H 1.1802 0.3451 0.5188
H58 H 1.1720 0.4726 0.4648
O7 O 1.0624(7) 0.4126(7) 0.4258(6)
C41A C 1.0312(12) 0.4712(11) 0.5914(9)
H55A H 0.9848 0.4185 0.6283
H56A H 1.0760 0.4758 0.6392
C42A C 0.8789(13) 0.5768(12) 0.5001(10)
H57A H 0.8198 0.6549 0.4812
H58A H 0.8280 0.5274 0.5352
O7A O 0.9376(7) 0.5874(7) 0.5742(6)
C43 C 0.7585(10) 1.0176(10) 0.8858(8)
H59 H 0.7100 0.9785 0.8695
Cl1 Cl 0.6611(3) 1.0979(3) 0.9951(2)
Cl2 Cl 0.8035(3) 1.1078(3) 0.7720(2)
Cl3 Cl 0.8976(3) 0.9093(3) 0.9131(2)
H37? H 1.3228 0.6384 0.1683
H38? H 1.4645 0.5881 0.0861
C35? C 1.428(3) 0.464(3) 0.211(3)
H39? H 1.3546 0.4383 0.2467
H40? H 1.4480 0.4871 0.2672
C36? C 1.547(3) 0.360(3) 0.154(2)
H41? H 1.5242 0.3356 0.1001
H42? H 1.6173 0.3883 0.1147
C37? C 1.593(3) 0.262(3) 0.221(2)
H43? H 1.6025 0.2867 0.2809
H44? H 1.6761 0.2089 0.1807
H45? H 1.5321 0.2225 0.2470
C38? C 0.888(3) 1.166(2) 0.3988(18)
H46? H 0.8391 1.2207 0.3504
H47? H 0.9742 1.1197 0.3550
C39? C 0.899(2) 1.2321(19) 0.4726(17)
H48? H 0.9459 1.2829 0.4302
H49? H 0.9500 1.1761 0.5189
C40? C 0.766(2) 1.310(2) 0.5453(19)
H50? H 0.7793 1.3464 0.5963
H51? H 0.7163 1.2606 0.5866
H52? H 0.5988 1.4641 0.5113
H53? H 0.7305 1.4647 0.4262
H54? H 0.6676 1.3790 0.4165
O6? O 0.8236(17) 1.0914(17) 0.4620(14)
loop_
_geom_bond_atom_site_label_1
_geom_bond_atom_site_label_2
_geom_bond_site_symmetry_1
_geom_bond_site_symmetry_2
C1 C2 1_555 1_555
C2 C3 1_555 1_555
C3 C4 1_555 1_555
C4 H1 1_555 1_555
C5 C4 1_555 1_555
H2 C5 1_555 1_555
C6 C1 1_555 1_555
C7 C2 1_555 1_555
H3 C7 1_555 1_555
C8 C7 1_555 1_555
H4 C8 1_555 1_555
C9 C8 1_555 1_555
C10 C3 1_555 1_555
C11 H5 1_555 1_555
H6 C11 1_555 1_555
C12 C11 1_555 1_555
H7 C12 1_555 1_555
H8 C12 1_555 1_555
C13 C12 1_555 1_555
H9 C13 1_555 1_555
H10 C13 1_555 1_555
C14 C13 1_555 1_555
H11 C14 1_555 1_555
H12 C14 1_555 1_555
H13 C14 1_555 1_555
C15 C10 1_555 1_555
H14 C15 1_555 1_555
C16 C15 1_555 1_555
H15 C16 1_555 1_555
H16 C16 1_555 1_555
C17 C16 1_555 1_555
H17 C17 1_555 1_555
C18 C19 1_555 1_555
C19 C20 1_555 1_555
C20 H18 1_555 1_555
C21 C20 1_555 1_555
H19 C21 1_555 1_555
C22 C21 1_555 1_555
C23 C18 1_555 1_555
C24 C15 1_555 1_555
C25 C24 1_555 1_555
C26 C25 1_555 1_555
H20 C26 1_555 1_555
C27 C23 1_555 1_555
H21 C27 1_555 1_555
C28 H22 1_555 1_555
H23 C28 1_555 1_555
C29 C28 1_555 1_555
H24 C29 1_555 1_555
H25 C29 1_555 1_555
C30 C29 1_555 1_555
H26 C30 1_555 1_555
H27 C30 1_555 1_555
C31 C30 1_555 1_555
H28 C31 1_555 1_555
H29 C31 1_555 1_555
H30 C31 1_555 1_555
C32 C18 1_555 1_555
H31 C32 1_555 1_555
H32 C32 1_555 1_555
C33 N1 1_555 1_555
C34 H33 1_555 1_555
H34 C34 1_555 1_555
N1 C32 1_555 1_555
H35 N1 1_555 1_555
N2 C33 1_555 1_555
H36 N2 1_555 1_555
O1 C6 1_555 1_555
O2 C9 1_555 1_555
O3 C17 1_555 1_555
O4 C19 1_555 1_555
O5 C33 1_555 1_555
C41 H55 1_555 1_555
H56 C41 1_555 1_555
C42 H57 1_555 1_555
H58 C42 1_555 1_555
O7 C41 1_555 1_555
C43 H59 1_555 1_555
Cl1 C43 1_555 1_555
Cl2 C43 1_555 1_555
Cl3 C43 1_555 1_555
C1A C34 1_555 1_555
C2A C1A 1_555 1_555
C3A C2A 1_555 1_555
C4A C3A 1_555 1_555
H1A C4A 1_555 1_555
C5A C4A 1_555 1_555
H2A C5A 1_555 1_555
C6A C1A 1_555 1_555
C7A C2A 1_555 1_555
H3A C7A 1_555 1_555
C8A C7A 1_555 1_555
H4A C8A 1_555 1_555
C9A C8A 1_555 1_555
C10A C3A 1_555 1_555
C11A H5A 1_555 1_555
H6A C11A 1_555 1_555
C12A C11A 1_555 1_555
H7A C12A 1_555 1_555
H8A C12A 1_555 1_555
C13A C12A 1_555 1_555
H9A C13A 1_555 1_555
H10A C13A 1_555 1_555
C14A C13A 1_555 1_555
H11A C14A 1_555 1_555
H12A C14A 1_555 1_555
H13A C14A 1_555 1_555
C15A C10A 1_555 1_555
H14A C15A 1_555 1_555
C16A C15A 1_555 1_555
H15A C16A 1_555 1_555
H16A C16A 1_555 1_555
C17A C16A 1_555 1_555
H17A C17A 1_555 1_555
C18A C19A 1_555 1_555
C19A C20A 1_555 1_555
C20A H18A 1_555 1_555
C21A C20A 1_555 1_555
H19A C21A 1_555 1_555
C22A C21A 1_555 1_555
C23A C18A 1_555 1_555
C24A C15A 1_555 1_555
C25A C24A 1_555 1_555
C26A C25A 1_555 1_555
H20A C26A 1_555 1_555
C27A C23A 1_555 1_555
H21A C27A 1_555 1_555
C28A H22A 1_555 1_555
H23A C28A 1_555 1_555
C29A C28A 1_555 1_555
H24A C29A 1_555 1_555
H25A C29A 1_555 1_555
C30A C29A 1_555 1_555
H26A C30A 1_555 1_555
H27A C30A 1_555 1_555
C31A C30A 1_555 1_555
H28A C31A 1_555 1_555
H29A C31A 1_555 1_555
H30A C31A 1_555 1_555
C32A C18A 1_555 1_555
H31A C32A 1_555 1_555
H32A C32A 1_555 1_555
C33A N1A 1_555 1_555
C34A C1 1_555 1_555
H33A C34A 1_555 1_555
H34A C34A 1_555 1_555
N1A C32A 1_555 1_555
H35A N1A 1_555 1_555
N2A C33A 1_555 1_555
H36A N2A 1_555 1_555
O1A C6A 1_555 1_555
O2A C9A 1_555 1_555
O3A C17A 1_555 1_555
O4A C19A 1_555 1_555
O5A C33A 1_555 1_555
C41A C42 1_555 1_555
H55A C41A 1_555 1_555
H56A C41A 1_555 1_555
C42A C41 1_555 1_555
H57A C42A 1_555 1_555
H58A C42A 1_555 1_555
O7A C41A 1_555 1_555
C5 C6 1_555 1_555
C9 C10 1_555 1_555
C11 O1 1_555 1_555
C17 O2 1_555 1_555
C22 C23 1_555 1_555
C22 C24 1_555 1_555
C25 O3 1_555 1_555
C26 C27 1_555 1_555
C28 O4 1_555 1_555
C34 N2 1_555 1_555
C42 O7 1_555 1_555
C5A C6A 1_555 1_555
C9A C10A 1_555 1_555
C11A O1A 1_555 1_555
C17A O2A 1_555 1_555
C22A C23A 1_555 1_555
C22A C24A 1_555 1_555
C25A O3A 1_555 1_555
C26A C27A 1_555 1_555
C28A O4A 1_555 1_555
C34A N2A 1_555 1_555
C42A O7A 1_555 1_555

#END
