
#######################################################################
#
#                 Cambridge Crystallographic Data Centre
#                                CCDC 
#
#######################################################################
#
# If this CIF has been generated from an entry in the Cambridge 
# Structural Database, then it will include bibliographic, chemical, 
# crystal, experimental, refinement or atomic coordinate data resulting 
# from the CCDC's data processing and validation procedures.
#
#######################################################################

data_ZUVZAT
_chemical_formula_moiety         'C68 H72 N4 O10,5(C2 H3 N1),C1 H2 Cl2,2(H2 O1)'
_chemical_name_systematic        
'syn-10,18,38,46-Tetra-n-butoxy-30,54,58,60-tetraoxa-13,15,41,43-tetra-azatridecacyclo[47.7.1.1^3,55^.1^25,29^.1^27,31^.0^2,7^.0^6,11^.0^17,22^.0^21,26^.0^34,39^.0^35,59^.0^45,50^.0^53,57^]hexaconta-2,4,6,8,10,17,19,21,23,25,31(59),32,34,36,38,45,47,49,51,53(57)-icosaene-14,42-dione acetonitrile dichloromethane solvate dihydrate'
_symmetry_cell_setting           orthorhombic
_symmetry_space_group_name_H-M   'P n m a'
_symmetry_Int_Tables_number      62
_space_group_name_Hall           '-P 2ac 2n'
loop_
_symmetry_equiv_pos_site_id
_symmetry_equiv_pos_as_xyz
1 x,y,z
2 1/2-x,-y,1/2+z
3 1/2+x,1/2-y,1/2-z
4 -x,1/2+y,-z
5 -x,-y,-z
6 1/2+x,y,1/2-z
7 1/2-x,1/2+y,1/2+z
8 x,1/2-y,z
_cell_length_a                   23.8532(2)
_cell_length_b                   16.58652(16)
_cell_length_c                   19.13712(18)
_cell_angle_alpha                90
_cell_angle_beta                 90
_cell_angle_gamma                90
_cell_volume                     7571.44
_exptl_crystal_colour            colorless
_exptl_crystal_description       plate
_cell_formula_units_Z            4
loop_
_atom_site_label
_atom_site_type_symbol
_atom_site_fract_x
_atom_site_fract_y
_atom_site_fract_z
C1 C 0.81670(8) 0.47883(11) 0.23289(9)
C2 C 0.76495(8) 0.43694(11) 0.24138(9)
C3 C 0.75117(7) 0.37040(10) 0.19712(9)
C4 C 0.78909(7) 0.35221(10) 0.14213(9)
H1 H 0.7799 0.3118 0.1104
C5 C 0.83874(8) 0.39249(11) 0.13452(10)
H2 H 0.8631 0.3783 0.0987
C6 C 0.85318(8) 0.45544(11) 0.18066(10)
C7 C 0.84083(9) 0.45756(14) 0.63672(11)
C8 C 0.72576(9) 0.46024(11) 0.29342(10)
H3 H 0.7340 0.5031 0.3230
C9 C 0.67616(9) 0.42030(12) 0.30044(11)
H4 H 0.6503 0.4373 0.3337
C10 C 0.66371(8) 0.35358(12) 0.25781(10)
C11 C 0.70044(7) 0.32595(10) 0.20776(9)
C12 C 0.68453(10) 0.2500 0.16723(13)
H5 H 0.7023 0.2500 0.1211
C13 C 0.62063(11) 0.2500 0.15998(15)
H6 H 0.6084 0.2975 0.1346
C14 C 0.59624(11) 0.2500 0.23279(16)
H7 H 0.5553 0.2500 0.2286
C15 C 0.94439(8) 0.47062(13) 0.12904(11)
H8 H 0.9297 0.4651 0.0820
H9 H 0.9583 0.4186 0.1443
C16 C 0.99122(9) 0.53301(13) 0.13065(12)
H10 H 0.9782 0.5822 0.1086
H11 H 1.0003 0.5455 0.1789
C17 C 1.04347(9) 0.50431(14) 0.09391(12)
H12 H 1.0341 0.4887 0.0465
H13 H 1.0581 0.4572 0.1178
C18 C 1.08827(10) 0.56959(14) 0.09218(13)
H14 H 1.0746 0.6151 0.0663
H15 H 1.1214 0.5489 0.0701
H16 H 1.0970 0.5859 0.1391
C19 C 0.83135(9) 0.54781(12) 0.28093(10)
H17 H 0.8640 0.5759 0.2630
H18 H 0.8004 0.5857 0.2825
C20 C 0.82630(8) 0.55679(11) 0.40968(9)
C21 C 0.81673(8) 0.54913(12) 0.53783(9)
H19 H 0.7838 0.5827 0.5315
H20 H 0.8461 0.5820 0.5583
C22 C 0.80307(8) 0.48023(12) 0.58576(9)
C23 C 0.75186(8) 0.43703(11) 0.57855(9)
C24 C 0.73943(7) 0.37053(10) 0.62352(9)
C25 C 0.77859(8) 0.35316(11) 0.67713(9)
H21 H 0.7705 0.3124 0.7089
C26 C 0.82785(8) 0.39463(13) 0.68349(11)
H22 H 0.8529 0.3813 0.7189
C27 C 0.71158(8) 0.45844(11) 0.52698(9)
H23 H 0.7192 0.5003 0.4961
C28 C 0.66205(8) 0.41840(12) 0.52226(10)
H24 H 0.6355 0.4345 0.4895
C29 C 0.65051(8) 0.35297(11) 0.56633(10)
C30 C 0.68842(7) 0.32578(10) 0.61513(9)
C31 C 0.67364(10) 0.2500 0.65624(13)
H25 H 0.6928 0.2500 0.7016
C32 C 0.60988(11) 0.2500 0.66642(14)
H26 H 0.5984 0.2025 0.6923
C33 C 0.58344(11) 0.2500 0.59498(15)
H27 H 0.5426 0.2500 0.6010
C34 C 0.9304(6) 0.4830(7) 0.6905(8)
H28 H 0.9409 0.4284 0.6780
H29 H 0.9183 0.4832 0.7389
C35 C 0.97946(19) 0.5386(3) 0.6813(3)
H30 H 1.0102 0.5197 0.7101
H31 H 0.9691 0.5919 0.6977
C36 C 0.9999(2) 0.5452(4) 0.6049(3)
H32 H 0.9711 0.5726 0.5781
H33 H 1.0330 0.5790 0.6042
C37 C 1.0132(3) 0.4699(7) 0.5695(5)
H34 H 1.0293 0.4814 0.5247
H35 H 0.9796 0.4388 0.5635
H36 H 1.0396 0.4398 0.5971
N1 N 0.84312(8) 0.51832(10) 0.35141(8)
H37 H 0.8617 0.4742 0.3559
N2 N 0.83525(7) 0.51800(10) 0.47031(8)
H38 H 0.8527 0.4727 0.4693
O1 O 0.61209(6) 0.31946(9) 0.27130(8)
O2 O 0.90195(6) 0.49878(9) 0.17510(8)
O3 O 0.7937(2) 0.6176(4) 0.4064(3)
O4 O 0.59817(6) 0.31911(8) 0.55562(8)
O5 O 0.8866(2) 0.5101(3) 0.6468(3)
C1G C 0.81670(8) 0.02117(11) 0.23289(9)
C2G C 0.76495(8) 0.06306(11) 0.24138(9)
C3G C 0.75117(7) 0.12960(10) 0.19712(9)
C4G C 0.78909(7) 0.14779(10) 0.14213(9)
H1G H 0.7799 0.1882 0.1104
C5G C 0.83874(8) 0.10751(11) 0.13452(10)
H2G H 0.8631 0.1217 0.0987
C6G C 0.85318(8) 0.04456(11) 0.18066(10)
C7G C 0.84083(9) 0.04244(14) 0.63672(11)
C8G C 0.72576(9) 0.03976(11) 0.29342(10)
H3G H 0.7340 -0.0031 0.3230
C9G C 0.67616(9) 0.07970(12) 0.30044(11)
H4G H 0.6503 0.0627 0.3337
C10G C 0.66371(8) 0.14642(12) 0.25781(10)
C11G C 0.70044(7) 0.17405(10) 0.20776(9)
H6G H 0.6084 0.2025 0.1346
C15G C 0.94439(8) 0.02938(13) 0.12904(11)
H8G H 0.9297 0.0349 0.0820
H9G H 0.9583 0.0814 0.1443
C16G C 0.99122(9) -0.03301(13) 0.13065(12)
H10G H 0.9782 -0.0822 0.1086
H11G H 1.0003 -0.0455 0.1789
C17G C 1.04347(9) -0.00431(14) 0.09391(12)
H12G H 1.0341 0.0113 0.0465
H13G H 1.0581 0.0428 0.1178
C18G C 1.08827(10) -0.06959(14) 0.09218(13)
H14G H 1.0746 -0.1151 0.0663
H15G H 1.1214 -0.0489 0.0701
H16G H 1.0970 -0.0859 0.1391
C19G C 0.83135(9) -0.04781(12) 0.28093(10)
H17G H 0.8640 -0.0759 0.2630
H18G H 0.8004 -0.0857 0.2825
C20G C 0.82630(8) -0.05679(11) 0.40968(9)
C21G C 0.81673(8) -0.04913(12) 0.53783(9)
H19G H 0.7838 -0.0827 0.5315
H20G H 0.8461 -0.0820 0.5583
C22G C 0.80307(8) 0.01977(12) 0.58576(9)
C23G C 0.75186(8) 0.06297(11) 0.57855(9)
C24G C 0.73943(7) 0.12947(10) 0.62352(9)
C25G C 0.77859(8) 0.14684(11) 0.67713(9)
H21G H 0.7705 0.1876 0.7089
C26G C 0.82785(8) 0.10537(13) 0.68349(11)
H22G H 0.8529 0.1187 0.7189
C27G C 0.71158(8) 0.04156(11) 0.52698(9)
H23G H 0.7192 -0.0003 0.4961
C28G C 0.66205(8) 0.08160(12) 0.52226(10)
H24G H 0.6355 0.0655 0.4895
C29G C 0.65051(8) 0.14703(11) 0.56633(10)
C30G C 0.68842(7) 0.17422(10) 0.61513(9)
H26G H 0.5984 0.2975 0.6923
C34G C 0.9304(6) 0.0170(7) 0.6905(8)
H28G H 0.9409 0.0716 0.6780
H29G H 0.9183 0.0168 0.7389
C35G C 0.97946(19) -0.0386(3) 0.6813(3)
H30G H 1.0102 -0.0197 0.7101
H31G H 0.9691 -0.0919 0.6977
C36G C 0.9999(2) -0.0452(4) 0.6049(3)
H32G H 0.9711 -0.0726 0.5781
H33G H 1.0330 -0.0790 0.6042
C37G C 1.0132(3) 0.0301(7) 0.5695(5)
H34G H 1.0293 0.0186 0.5247
H35G H 0.9796 0.0612 0.5635
H36G H 1.0396 0.0602 0.5971
N1G N 0.84312(8) -0.01832(10) 0.35141(8)
H37G H 0.8617 0.0258 0.3559
N2G N 0.83525(7) -0.01800(10) 0.47031(8)
H38G H 0.8527 0.0273 0.4693
O1G O 0.61209(6) 0.18054(9) 0.27130(8)
O2G O 0.90195(6) 0.00122(9) 0.17510(8)
O3G O 0.7937(2) -0.1176(4) 0.4064(3)
O4G O 0.59817(6) 0.18089(8) 0.55562(8)
O5G O 0.8866(2) -0.0101(3) 0.6468(3)
C38 C 0.6620(2) 0.7500 0.3943(3)
C39 C 0.6266(3) 0.7500 0.3324(3)
N3 N 0.5992(3) 0.7500 0.2891(3)
C40 C 0.9245(3) 0.7500 0.4013(5)
H39 H 0.9009 0.7972 0.3967
Cl1 Cl 0.97627(8) 0.7500 0.33083(9)
Cl2 Cl 0.9553(3) 0.7500 0.4851(3)
H39G H 0.9009 0.7028 0.3967
C41 C 0.53842(15) 0.2500 0.40771(17)
C42 C 0.48624(16) 0.2500 0.44583(19)
N4 N 0.44538(19) 0.2500 0.4757(2)
O6 O 0.77497(15) 0.7500 0.50042(12)
H40 H 0.7855(14) 0.7079(19) 0.4725(17)
H40G H 0.7855(14) 0.7921(19) 0.4725(17)
O7 O 0.78489(12) 0.7500 0.31665(11)
H41 H 0.7911(11) 0.7098(17) 0.3453(15)
H41G H 0.7911(11) 0.7902(17) 0.3453(15)
C43? C 0.9371(7) 0.4622(8) 0.6784(8)
H42? H 0.9407 0.4039 0.6799
H43? H 0.9274 0.4813 0.7247
C44? C 0.9919(2) 0.5006(5) 0.6538(4)
H44? H 1.0208 0.4888 0.6878
H45? H 1.0028 0.4755 0.6101
C45? C 0.9896(2) 0.5868(4) 0.6435(4)
H46? H 0.9783 0.6119 0.6871
H47? H 0.9608 0.5986 0.6092
C46? C 1.0446(2) 0.6253(4) 0.6193(4)
H48? H 1.0570 0.5997 0.5770
H49? H 1.0726 0.6187 0.6548
H50? H 1.0388 0.6818 0.6108
O8? O 0.8149(3) 0.6290(4) 0.4087(4)
O9? O 0.8950(2) 0.4856(3) 0.6286(3)
H51? H 0.6084 0.2975 0.1346
H52? H 0.5984 0.2025 0.6923
Cl3? Cl 0.9593(4) 0.7013(6) 0.4684(4)
H53? H 0.9009 0.7972 0.3967
C47? C 0.8575(7) 0.2500 0.2850(10)
H54? H 0.8611 0.2715 0.3314
H55? H 0.8435 0.1958 0.2875
H56? H 0.8319 0.2827 0.2586
C48? C 0.9140(8) 0.2500 0.2498(10)
N5? N 0.9552 0.2500 0.2221
H57? H 0.6401 0.7651 0.4343
H58? H 0.6920 0.7878 0.3881
H59? H 0.6772 0.6970 0.4013
H60? H 0.5673 0.2267 0.4361
H61? H 0.5484 0.3044 0.3959
H62? H 0.5342 0.2189 0.3657
C49? C 0.88224(19) 0.2963(3) 0.5024(3)
C50? C 0.8845(2) 0.2348(4) 0.5569(3)
H63? H 0.9062 0.2544 0.5956
H64? H 0.8472 0.2226 0.5724
H65? H 0.9017 0.1869 0.5386
N6? N 0.88015(19) 0.3434(3) 0.4592(3)
C51? C 0.7253(3) 0.2459(13) 0.4184(3)
H66? H 0.7392 0.3074 0.4272
C52? C 0.7711(2) 0.3027(3) 0.4208(2)
N7? N 0.80700(19) 0.3465(2) 0.4229(2)
H67? H 0.6980 0.2598 0.4533
H68? H 0.7081 0.2476 0.3730
C53? C 0.8638(8) 0.2290(19) 0.2871(12)
H69? H 0.8416 0.1815 0.2794
H70? H 0.8699 0.2360 0.3363
H71? H 0.8446 0.2751 0.2687
C54? C 0.9147(6) 0.2207(10) 0.2538(7)
N8? N 0.9572(3) 0.2108(7) 0.2295(5)
loop_
_geom_bond_atom_site_label_1
_geom_bond_atom_site_label_2
_geom_bond_site_symmetry_1
_geom_bond_site_symmetry_2
C1 C2 1_555 1_555
C2 C3 1_555 1_555
C3 C4 1_555 1_555
C4 H1 1_555 1_555
C5 C4 1_555 1_555
H2 C5 1_555 1_555
C6 C1 1_555 1_555
C7 C22 1_555 1_555
C8 C2 1_555 1_555
H3 C8 1_555 1_555
C9 C8 1_555 1_555
H4 C9 1_555 1_555
C10 C9 1_555 1_555
C11 C3 1_555 1_555
C12 C11 1_555 1_555
H5 C12 1_555 1_555
C13 C12 1_555 1_555
H6 C13 1_555 1_555
C14 C13 1_555 1_555
H7 C14 1_555 1_555
C15 H8 1_555 1_555
H9 C15 1_555 1_555
C16 C15 1_555 1_555
H10 C16 1_555 1_555
H11 C16 1_555 1_555
C17 C16 1_555 1_555
H12 C17 1_555 1_555
H13 C17 1_555 1_555
C18 C17 1_555 1_555
H14 C18 1_555 1_555
H15 C18 1_555 1_555
H16 C18 1_555 1_555
C19 C1 1_555 1_555
H17 C19 1_555 1_555
H18 C19 1_555 1_555
C20 N1 1_555 1_555
C21 H19 1_555 1_555
H20 C21 1_555 1_555
C22 C21 1_555 1_555
C23 C22 1_555 1_555
C24 C23 1_555 1_555
C25 C24 1_555 1_555
H21 C25 1_555 1_555
C26 C7 1_555 1_555
H22 C26 1_555 1_555
C27 C23 1_555 1_555
H23 C27 1_555 1_555
C28 C27 1_555 1_555
H24 C28 1_555 1_555
C29 C28 1_555 1_555
C30 C24 1_555 1_555
C31 C30 1_555 1_555
H25 C31 1_555 1_555
C32 C31 1_555 1_555
H26 C32 1_555 1_555
C33 C32 1_555 1_555
H27 C33 1_555 1_555
C34 H28 1_555 1_555
H29 C34 1_555 1_555
C35 C34 1_555 1_555
H30 C35 1_555 1_555
H31 C35 1_555 1_555
C36 C35 1_555 1_555
H32 C36 1_555 1_555
H33 C36 1_555 1_555
C37 C36 1_555 1_555
H34 C37 1_555 1_555
H35 C37 1_555 1_555
H36 C37 1_555 1_555
N1 C19 1_555 1_555
H37 N1 1_555 1_555
N2 C20 1_555 1_555
H38 N2 1_555 1_555
O1 C10 1_555 1_555
O2 C6 1_555 1_555
O3 C20 1_555 1_555
O4 C29 1_555 1_555
O5 C7 1_555 1_555
C38 C39 1_555 1_555
C39 N3 1_555 1_555
C40 H39 1_555 1_555
Cl1 C40 1_555 1_555
Cl2 C40 1_555 1_555
C41 C42 1_555 1_555
C42 N4 1_555 1_555
O6 H40 1_555 1_555
O7 H41 1_555 1_555
C1G C2G 1_555 1_555
C2G C3G 1_555 1_555
C3G C4G 1_555 1_555
C4G H1G 1_555 1_555
C5G C4G 1_555 1_555
H2G C5G 1_555 1_555
C6G C1G 1_555 1_555
C7G C22G 1_555 1_555
C8G C2G 1_555 1_555
H3G C8G 1_555 1_555
C9G C8G 1_555 1_555
H4G C9G 1_555 1_555
C10G C9G 1_555 1_555
C11G C12 1_555 1_555
H6G C13 1_555 1_555
C15G H8G 1_555 1_555
H9G C15G 1_555 1_555
C16G C15G 1_555 1_555
H10G C16G 1_555 1_555
H11G C16G 1_555 1_555
C17G C16G 1_555 1_555
H12G C17G 1_555 1_555
H13G C17G 1_555 1_555
C18G C17G 1_555 1_555
H14G C18G 1_555 1_555
H15G C18G 1_555 1_555
H16G C18G 1_555 1_555
C19G C1G 1_555 1_555
H17G C19G 1_555 1_555
H18G C19G 1_555 1_555
C20G N1G 1_555 1_555
C21G H19G 1_555 1_555
H20G C21G 1_555 1_555
C22G C21G 1_555 1_555
C23G C22G 1_555 1_555
C24G C23G 1_555 1_555
C25G C24G 1_555 1_555
H21G C25G 1_555 1_555
C26G C7G 1_555 1_555
H22G C26G 1_555 1_555
C27G C23G 1_555 1_555
H23G C27G 1_555 1_555
C28G C27G 1_555 1_555
H24G C28G 1_555 1_555
C29G C28G 1_555 1_555
C30G C31 1_555 1_555
H26G C32 1_555 1_555
C34G H28G 1_555 1_555
H29G C34G 1_555 1_555
C35G C34G 1_555 1_555
H30G C35G 1_555 1_555
H31G C35G 1_555 1_555
C36G C35G 1_555 1_555
H32G C36G 1_555 1_555
H33G C36G 1_555 1_555
C37G C36G 1_555 1_555
H34G C37G 1_555 1_555
H35G C37G 1_555 1_555
H36G C37G 1_555 1_555
N1G C19G 1_555 1_555
H37G N1G 1_555 1_555
N2G C20G 1_555 1_555
H38G N2G 1_555 1_555
O1G C14 1_555 1_555
O2G C6G 1_555 1_555
O3G C20G 1_555 1_555
O4G C33 1_555 1_555
O5G C7G 1_555 1_555
H39G C40 1_555 1_555
H40G O6 1_555 1_555
H41G O7 1_555 1_555
C5 C6 1_555 1_555
C10 C11 1_555 1_555
C14 O1 1_555 1_555
C15 O2 1_555 1_555
C21 N2 1_555 1_555
C25 C26 1_555 1_555
C29 C30 1_555 1_555
C33 O4 1_555 1_555
C34 O5 1_555 1_555
C3G C11G 1_555 1_555
C5G C6G 1_555 1_555
C10G C11G 1_555 1_555
C10G O1G 1_555 1_555
C15G O2G 1_555 1_555
C21G N2G 1_555 1_555
C24G C30G 1_555 1_555
C25G C26G 1_555 1_555
C29G C30G 1_555 1_555
C29G O4G 1_555 1_555
C34G O5G 1_555 1_555

#END
