
#######################################################################
#
#                 Cambridge Crystallographic Data Centre
#                                CCDC 
#
#######################################################################
#
# If this CIF has been generated from an entry in the Cambridge 
# Structural Database, then it will include bibliographic, chemical, 
# crystal, experimental, refinement or atomic coordinate data resulting 
# from the CCDC's data processing and validation procedures.
#
#######################################################################

data_ZUVZIB
_chemical_formula_moiety         'C68 H72 N4 O10,2.6(C4 H8 O2),1.4(C1 H2 Cl2)'
_chemical_name_systematic        
'syn-10,18,38,46-Tetra-n-butoxy-30,54,58,60-tetraoxa-13,15,41,43-tetra-azatridecacyclo[47.7.1.1^3,55^.1^25,29^.1^27,31^.0^2,7^.0^6,11^.0^17,22^.0^21,26^.0^34,39^.0^35,59^.0^45,50^.0^53,57^]hexaconta-2,4,6,8,10,17,19,21,23,25,31(59),32,34,36,38,45,47,49,51,53(57)-icosaene-14,42-dione acetonitrile dichloromethane 1,4-dioxane solvate'
_symmetry_cell_setting           monoclinic
_symmetry_space_group_name_H-M   'P 2/n'
_symmetry_Int_Tables_number      13
_space_group_name_Hall           '-P 2yac'
loop_
_symmetry_equiv_pos_site_id
_symmetry_equiv_pos_as_xyz
1 x,y,z
2 1/2-x,y,1/2-z
3 -x,-y,-z
4 1/2+x,-y,1/2+z
_cell_length_a                   12.4884(7)
_cell_length_b                   17.1551(9)
_cell_length_c                   17.3844(8)
_cell_angle_alpha                90
_cell_angle_beta                 96.545(4)
_cell_angle_gamma                90
_cell_volume                     3700.16
_exptl_crystal_colour            colorless
_exptl_crystal_description       plate
_cell_formula_units_Z            2
loop_
_atom_site_label
_atom_site_type_symbol
_atom_site_fract_x
_atom_site_fract_y
_atom_site_fract_z
Cl1 Cl 0.6352(5) 0.3434(2) 0.2699(8)
C1 C 0.7500 0.2854(3) 0.2500
H1 H 0.7717 0.2514 0.2951
Cl1A Cl 0.8648(5) 0.3434(2) 0.2301(8)
H1A H 0.7283 0.2514 0.2049
O1 O 0.7435(2) 0.24936(15) 0.66833(13)
C2 C 0.7754(3) 0.1815(2) 0.7129(2)
H2 H 0.8549 0.1805 0.7247
H3 H 0.7531 0.1341 0.6827
C3 C 0.7741(4) 0.3172(2) 0.7126(2)
H4 H 0.7499 0.3642 0.6824
H5 H 0.8536 0.3193 0.7232
O1A O 0.7565(2) 0.24936(15) 0.83167(13)
C2A C 0.7246(3) 0.1815(2) 0.7871(2)
H2A H 0.6451 0.1805 0.7753
H3A H 0.7469 0.1341 0.8173
C3A C 0.7259(4) 0.3172(2) 0.7874(2)
H4A H 0.7501 0.3642 0.8176
H5A H 0.6464 0.3193 0.7768
O2 O 0.61003(18) -0.09610(13) 0.73645(12)
O3 O 0.92876(19) -0.10289(13) 0.63710(12)
O4 O 0.75091(18) 0.18335(15) 0.39883(11)
O5 O 0.35476(18) 0.21987(15) 0.45433(13)
O6 O 1.0683(2) 0.33443(14) 0.59476(14)
C4 C 0.4175(3) -0.0194(2) 0.75551(17)
H6 H 0.3413 -0.0008 0.7462
N1 N 0.6448(2) 0.20463(16) 0.49468(14)
H7 H 0.6363 0.2292 0.5380
N2 N 0.8181(2) 0.24996(16) 0.50727(14)
H8 H 0.8007 0.2789 0.5458
C5 C 0.4779(2) 0.00057(19) 0.68696(17)
C6 C 0.5743(3) -0.03784(19) 0.68535(17)
C7 C 0.6454(3) -0.0185(2) 0.62996(17)
H9 H 0.7123 -0.0448 0.6301
C8 C 0.6165(3) 0.03783(19) 0.57689(17)
H10 H 0.6661 0.0525 0.5419
C9 C 0.5146(3) 0.0758(2) 0.57165(17)
C10 C 0.4425(3) 0.05336(19) 0.62640(16)
C11 C 0.3369(3) 0.08370(19) 0.61499(17)
H11 H 0.2859 0.0663 0.6478
C12 C 0.3050(3) 0.1369(2) 0.55888(17)
H12 H 0.2331 0.1560 0.5530
C13 C 0.3798(3) 0.1636(2) 0.50927(17)
C14 C 0.4821(2) 0.13228(19) 0.51393(17)
C15 C 0.5581(3) 0.1568(2) 0.45682(17)
H13 H 0.5889 0.1099 0.4344
H14 H 0.5180 0.1867 0.4141
C16 C 0.7397(3) 0.21128(19) 0.46271(17)
C17 C 0.9322(2) 0.2450(2) 0.49308(18)
H15 H 0.9598 0.2977 0.4828
H16 H 0.9389 0.2120 0.4472
C18 C 0.9973(2) 0.2102(2) 0.56382(17)
C19 C 1.0614(3) 0.2571(2) 0.61400(18)
C20 C 1.1148(3) 0.2261(2) 0.68295(18)
H17 H 1.1581 0.2590 0.7177
C21 C 1.1046(3) 0.1492(2) 0.70007(18)
H18 H 1.1424 0.1295 0.7465
C22 C 1.0400(2) 0.0976(2) 0.65131(16)
C23 C 0.9848(2) 0.1300(2) 0.58200(16)
C24 C 0.9151(2) 0.0797(2) 0.53364(17)
H19 H 0.8790 0.0992 0.4865
C25 C 0.8998(3) 0.0045(2) 0.55402(17)
H20 H 0.8521 -0.0277 0.5215
C26 C 0.9539(3) -0.0263(2) 0.62275(17)
C27 C 1.0254(2) 0.0173(2) 0.67077(17)
C28 C 0.5375(3) -0.1288(2) 0.78650(18)
H21 H 0.5444 -0.1869 0.7853
C29 C 0.4209(3) -0.1079(2) 0.76367(19)
H22 H 0.3760 -0.1251 0.8039
H23 H 0.3937 -0.1331 0.7140
C30 C 0.2475(3) 0.2501(2) 0.4444(2)
H24 H 0.2294 0.2737 0.4933
H25 H 0.1953 0.2078 0.4293
C31 C 0.2431(3) 0.3116(3) 0.3807(2)
H26 H 0.2954 0.3536 0.3967
H27 H 0.2640 0.2876 0.3328
C32 C 0.1322(4) 0.3458(3) 0.3648(3)
H28 H 0.1058 0.3601 0.4144
H29 H 0.0828 0.3060 0.3394
C33 C 0.1301(5) 0.4174(3) 0.3133(4)
H30 H 0.1611 0.4045 0.2656
H31 H 0.1724 0.4591 0.3407
H32 H 0.0554 0.4348 0.3005
C34 C 1.1369(4) 0.3836(2) 0.6444(2)
H33 H 1.2118 0.3639 0.6487
H34 H 1.1130 0.3844 0.6967
C35 C 1.1315(5) 0.4637(3) 0.6106(3)
H35 H 1.0548 0.4791 0.6015
H36 H 1.1673 0.4998 0.6499
C36 C 1.1768(5) 0.4749(3) 0.5424(3)
H37 H 1.1367 0.4422 0.5020
H38 H 1.2517 0.4551 0.5502
C37 C 1.1800(6) 0.5565(3) 0.5115(4)
H39 H 1.2083 0.5557 0.4612
H40 H 1.2267 0.5887 0.5477
H41 H 1.1070 0.5783 0.5053
O2A O 0.88997(18) -0.09610(13) 0.76355(12)
O3A O 0.57124(19) -0.10289(13) 0.86290(12)
O4A O 0.74909(18) 0.18335(15) 1.10117(11)
O5A O 1.14524(18) 0.21987(15) 1.04567(13)
O6A O 0.4317(2) 0.33443(14) 0.90524(14)
C4A C 1.0825(3) -0.0194(2) 0.74449(17)
H6A H 1.1587 -0.0008 0.7538
N1A N 0.8552(2) 0.20463(16) 1.00532(14)
H7A H 0.8637 0.2292 0.9620
N2A N 0.6819(2) 0.24996(16) 0.99273(14)
H8A H 0.6993 0.2789 0.9542
C5A C 1.0221(2) 0.00057(19) 0.81304(17)
C6A C 0.9257(3) -0.03784(19) 0.81465(17)
C7A C 0.8546(3) -0.0185(2) 0.87004(17)
H9A H 0.7877 -0.0448 0.8699
C8A C 0.8835(3) 0.03783(19) 0.92311(17)
H10A H 0.8339 0.0525 0.9581
C9A C 0.9854(3) 0.0758(2) 0.92835(17)
C10A C 1.0575(3) 0.05336(19) 0.87360(16)
C11A C 1.1631(3) 0.08370(19) 0.88501(17)
H11A H 1.2141 0.0663 0.8522
C12A C 1.1950(3) 0.1369(2) 0.94112(17)
H12A H 1.2669 0.1560 0.9470
C13A C 1.1202(3) 0.1636(2) 0.99073(17)
C14A C 1.0179(2) 0.13228(19) 0.98607(17)
C15A C 0.9419(3) 0.1568(2) 1.04318(17)
H13A H 0.9111 0.1099 1.0656
H14A H 0.9820 0.1867 1.0859
C16A C 0.7603(3) 0.21128(19) 1.03729(17)
C17A C 0.5678(2) 0.2450(2) 1.00692(18)
H15A H 0.5402 0.2977 1.0172
H16A H 0.5611 0.2120 1.0528
C18A C 0.5027(2) 0.2102(2) 0.93618(17)
C19A C 0.4386(3) 0.2571(2) 0.88600(18)
C20A C 0.3852(3) 0.2261(2) 0.81705(18)
H17A H 0.3419 0.2590 0.7823
C21A C 0.3954(3) 0.1492(2) 0.79993(18)
H18A H 0.3576 0.1295 0.7535
C22A C 0.4600(2) 0.0976(2) 0.84869(16)
C23A C 0.5152(2) 0.1300(2) 0.91800(16)
C24A C 0.5849(2) 0.0797(2) 0.96636(17)
H19A H 0.6210 0.0992 1.0135
C25A C 0.6002(3) 0.0045(2) 0.94598(17)
H20A H 0.6479 -0.0277 0.9785
C26A C 0.5461(3) -0.0263(2) 0.87725(17)
C27A C 0.4746(2) 0.0173(2) 0.82923(17)
C28A C 0.9625(3) -0.1288(2) 0.71350(18)
H21A H 0.9556 -0.1869 0.7147
C29A C 1.0791(3) -0.1079(2) 0.73633(19)
H22A H 1.1240 -0.1251 0.6961
H23A H 1.1063 -0.1331 0.7860
C30A C 1.2525(3) 0.2501(2) 1.0556(2)
H24A H 1.2706 0.2737 1.0067
H25A H 1.3047 0.2078 1.0707
C31A C 1.2569(3) 0.3116(3) 1.1193(2)
H26A H 1.2046 0.3536 1.1033
H27A H 1.2360 0.2876 1.1672
C32A C 1.3678(4) 0.3458(3) 1.1352(3)
H28A H 1.3942 0.3601 1.0856
H29A H 1.4172 0.3060 1.1606
C33A C 1.3699(5) 0.4174(3) 1.1867(4)
H30A H 1.3389 0.4045 1.2344
H31A H 1.3276 0.4591 1.1593
H32A H 1.4446 0.4348 1.1995
C34A C 0.3631(4) 0.3836(2) 0.8556(2)
H33A H 0.2882 0.3639 0.8513
H34A H 0.3870 0.3844 0.8033
C35A C 0.3685(5) 0.4637(3) 0.8894(3)
H35A H 0.4452 0.4791 0.8985
H36A H 0.3327 0.4998 0.8501
C36A C 0.3232(5) 0.4749(3) 0.9576(3)
H37A H 0.3633 0.4422 0.9980
H38A H 0.2483 0.4551 0.9498
C37A C 0.3200(6) 0.5565(3) 0.9885(4)
H39A H 0.2917 0.5557 1.0388
H40A H 0.2733 0.5887 0.9523
H41A H 0.3930 0.5783 0.9947
O7 O 0.4068(3) 0.3871(2) 0.6574(2)
O8 O 0.5702(5) 0.4497(4) 0.5748(3)
C38 C 0.4669(6) 0.4541(3) 0.6838(4)
H42 H 0.5305 0.4379 0.7194
H43 H 0.4217 0.4881 0.7129
C39 C 0.5045(9) 0.3828(5) 0.5475(4)
H44 H 0.5461 0.3490 0.5156
H45 H 0.4396 0.4011 0.5145
C40 C 0.5033(7) 0.4989(4) 0.6179(4)
H46 H 0.4399 0.5172 0.5833
H47 H 0.5450 0.5451 0.6379
C41 C 0.4709(9) 0.3367(6) 0.6136(5)
H48 H 0.4279 0.2909 0.5940
H49 H 0.5352 0.3179 0.6471
Cl2? Cl 0.6322(6) 0.3333(5) 0.2241(11)
H50? H 0.7379 0.2509 0.2938
H51? H 0.7379 0.2509 0.2938
H52? H 1.0754 0.4948 0.6323
H53? H 1.1139 0.4612 0.5537
C42? C 1.2529(19) 0.5042(10) 0.6335(11)
H54? H 1.2655 0.5135 0.6900
H55? H 1.3097 0.4686 0.6190
C43? C 1.257(2) 0.5812(13) 0.5901(13)
H56? H 1.2711 0.5709 0.5366
H57? H 1.3153 0.6136 0.6157
H58? H 1.1884 0.6085 0.5900
Cl3? Cl 0.4632(9) 0.3175(6) 0.6377(5)
Cl4? Cl 0.5779(11) 0.4613(7) 0.6157(8)
C44? C 0.512(4) 0.3815(19) 0.576(2)
H59? H 0.4504 0.3999 0.5389
H60? H 0.5613 0.3530 0.5451
H61? H 0.7717 0.2514 0.2951
loop_
_geom_bond_atom_site_label_1
_geom_bond_atom_site_label_2
_geom_bond_site_symmetry_1
_geom_bond_site_symmetry_2
Cl1 C1 1_555 1_555
C1 H1 1_555 1_555
O1 C2 1_555 1_555
C2 H2 1_555 1_555
H3 C2 1_555 1_555
C3 O1 1_555 1_555
H4 C3 1_555 1_555
H5 C3 1_555 1_555
O2 C6 1_555 1_555
O3 C26 1_555 1_555
O4 C16 1_555 1_555
O5 C13 1_555 1_555
O6 C19 1_555 1_555
C4 H6 1_555 1_555
N1 H7 1_555 1_555
N2 H8 1_555 1_555
C5 C4 1_555 1_555
C6 C5 1_555 1_555
C7 C6 1_555 1_555
H9 C7 1_555 1_555
C8 C7 1_555 1_555
H10 C8 1_555 1_555
C9 C8 1_555 1_555
C10 C5 1_555 1_555
C11 C10 1_555 1_555
H11 C11 1_555 1_555
C12 C11 1_555 1_555
H12 C12 1_555 1_555
C13 C12 1_555 1_555
C14 C9 1_555 1_555
C15 N1 1_555 1_555
H13 C15 1_555 1_555
H14 C15 1_555 1_555
C16 N1 1_555 1_555
C17 N2 1_555 1_555
H15 C17 1_555 1_555
H16 C17 1_555 1_555
C18 C17 1_555 1_555
C19 C18 1_555 1_555
C20 C19 1_555 1_555
H17 C20 1_555 1_555
C21 C20 1_555 1_555
H18 C21 1_555 1_555
C22 C21 1_555 1_555
C23 C18 1_555 1_555
C24 C23 1_555 1_555
H19 C24 1_555 1_555
C25 C24 1_555 1_555
H20 C25 1_555 1_555
C26 C25 1_555 1_555
C27 C22 1_555 1_555
C28 O2 1_555 1_555
H21 C28 1_555 1_555
C29 C4 1_555 1_555
H22 C29 1_555 1_555
H23 C29 1_555 1_555
C30 O5 1_555 1_555
H24 C30 1_555 1_555
H25 C30 1_555 1_555
C31 C30 1_555 1_555
H26 C31 1_555 1_555
H27 C31 1_555 1_555
C32 C31 1_555 1_555
H28 C32 1_555 1_555
H29 C32 1_555 1_555
C33 C32 1_555 1_555
H30 C33 1_555 1_555
H31 C33 1_555 1_555
H32 C33 1_555 1_555
C34 O6 1_555 1_555
H33 C34 1_555 1_555
H34 C34 1_555 1_555
C35 C34 1_555 1_555
H35 C35 1_555 1_555
H36 C35 1_555 1_555
C36 C35 1_555 1_555
H37 C36 1_555 1_555
H38 C36 1_555 1_555
C37 C36 1_555 1_555
H39 C37 1_555 1_555
H40 C37 1_555 1_555
H41 C37 1_555 1_555
O7 C38 1_555 1_555
O8 C39 1_555 1_555
C38 H42 1_555 1_555
H43 C38 1_555 1_555
C39 H44 1_555 1_555
H45 C39 1_555 1_555
C40 O8 1_555 1_555
H46 C40 1_555 1_555
H47 C40 1_555 1_555
C41 O7 1_555 1_555
H48 C41 1_555 1_555
H49 C41 1_555 1_555
Cl1A C1 1_555 1_555
H1A C1 1_555 1_555
O1A C2A 1_555 1_555
C2A C2 1_555 1_555
H2A C2A 1_555 1_555
H3A C2A 1_555 1_555
C3A C3 1_555 1_555
H4A C3A 1_555 1_555
H5A C3A 1_555 1_555
O2A C6A 1_555 1_555
O3A C28 1_555 1_555
O4A C16A 1_555 1_555
O5A C13A 1_555 1_555
O6A C19A 1_555 1_555
C4A C27 1_555 1_555
H6A C4A 1_555 1_555
N1A H7A 1_555 1_555
N2A H8A 1_555 1_555
C5A C4A 1_555 1_555
C6A C5A 1_555 1_555
C7A C6A 1_555 1_555
H9A C7A 1_555 1_555
C8A C7A 1_555 1_555
H10A C8A 1_555 1_555
C9A C8A 1_555 1_555
C10A C5A 1_555 1_555
C11A C10A 1_555 1_555
H11A C11A 1_555 1_555
C12A C11A 1_555 1_555
H12A C12A 1_555 1_555
C13A C12A 1_555 1_555
C14A C9A 1_555 1_555
C15A N1A 1_555 1_555
H13A C15A 1_555 1_555
H14A C15A 1_555 1_555
C16A N1A 1_555 1_555
C17A N2A 1_555 1_555
H15A C17A 1_555 1_555
H16A C17A 1_555 1_555
C18A C17A 1_555 1_555
C19A C18A 1_555 1_555
C20A C19A 1_555 1_555
H17A C20A 1_555 1_555
C21A C20A 1_555 1_555
H18A C21A 1_555 1_555
C22A C21A 1_555 1_555
C23A C18A 1_555 1_555
C24A C23A 1_555 1_555
H19A C24A 1_555 1_555
C25A C24A 1_555 1_555
H20A C25A 1_555 1_555
C26A O3A 1_555 1_555
C27A C4 1_555 1_555
C28A O3 1_555 1_555
H21A C28A 1_555 1_555
C29A C4A 1_555 1_555
H22A C29A 1_555 1_555
H23A C29A 1_555 1_555
C30A O5A 1_555 1_555
H24A C30A 1_555 1_555
H25A C30A 1_555 1_555
C31A C30A 1_555 1_555
H26A C31A 1_555 1_555
H27A C31A 1_555 1_555
C32A C31A 1_555 1_555
H28A C32A 1_555 1_555
H29A C32A 1_555 1_555
C33A C32A 1_555 1_555
H30A C33A 1_555 1_555
H31A C33A 1_555 1_555
H32A C33A 1_555 1_555
C34A O6A 1_555 1_555
H33A C34A 1_555 1_555
H34A C34A 1_555 1_555
C35A C34A 1_555 1_555
H35A C35A 1_555 1_555
H36A C35A 1_555 1_555
C36A C35A 1_555 1_555
H37A C36A 1_555 1_555
H38A C36A 1_555 1_555
C37A C36A 1_555 1_555
H39A C37A 1_555 1_555
H40A C37A 1_555 1_555
H41A C37A 1_555 1_555
N2 C16 1_555 1_555
C9 C10 1_555 1_555
C13 C14 1_555 1_555
C14 C15 1_555 1_555
C22 C23 1_555 1_555
C26 C27 1_555 1_555
C28 C29 1_555 1_555
C38 C40 1_555 1_555
C39 C41 1_555 1_555
O1A C3A 1_555 1_555
O2A C28A 1_555 1_555
N2A C16A 1_555 1_555
C9A C10A 1_555 1_555
C13A C14A 1_555 1_555
C14A C15A 1_555 1_555
C22A C23A 1_555 1_555
C22A C27A 1_555 1_555
C25A C26A 1_555 1_555
C26A C27A 1_555 1_555
C28A C29A 1_555 1_555

#END
