
#######################################################################
#
#                 Cambridge Crystallographic Data Centre
#                                CCDC 
#
#######################################################################
#
# If this CIF has been generated from an entry in the Cambridge 
# Structural Database, then it will include bibliographic, chemical, 
# crystal, experimental, refinement or atomic coordinate data resulting 
# from the CCDC's data processing and validation procedures.
#
#######################################################################

data_ZUWBIE
_chemical_formula_moiety         'C12 H20 O4'
_chemical_name_systematic        
4,8-dihydroxy-12-methyloxacyclododec-5-en-2-one
_symmetry_cell_setting           orthorhombic
_symmetry_space_group_name_H-M   'P 21 21 21'
_symmetry_Int_Tables_number      19
_space_group_name_Hall           'P 2ac 2ab'
loop_
_symmetry_equiv_pos_site_id
_symmetry_equiv_pos_as_xyz
1 x,y,z
2 1/2-x,-y,1/2+z
3 1/2+x,1/2-y,-z
4 -x,1/2+y,1/2-z
_cell_length_a                   5.336
_cell_length_b                   25.071
_cell_length_c                   29.472
_cell_angle_alpha                90
_cell_angle_beta                 90
_cell_angle_gamma                90
_cell_volume                     3942.73
_exptl_crystal_colour            colorless
_exptl_crystal_description       column
_cell_formula_units_Z            12
loop_
_atom_site_label
_atom_site_type_symbol
_atom_site_fract_x
_atom_site_fract_y
_atom_site_fract_z
O1 O 0.3349(11) 1.0781(2) 0.08839(18)
O2 O 0.6460(9) 1.06401(13) 0.13642(14)
O3 O 0.6666(8) 0.85188(13) 0.18790(13)
H1 H 0.5552 0.8439 0.2058
O4 O 0.5600(10) 1.00335(14) 0.01104(13)
H2 H 0.4369 1.0045 0.0277
C1 C 0.5550(17) 1.0718(2) 0.0943(2)
C2 C 0.7488(12) 1.0698(2) 0.0592(2)
H3 H 0.9078 1.0800 0.0726
H4 H 0.7086 1.0957 0.0359
C3 C 0.7785(15) 1.0142(2) 0.0367(2)
H5 H 0.9203 1.0161 0.0157
C4 C 0.8364(12) 0.9724(2) 0.07118(19)
H6 H 0.9835 0.9768 0.0877
C5 C 0.6993(13) 0.9297(2) 0.08062(18)
H7 H 0.5538 0.9238 0.0640
C6 C 0.7693(13) 0.89042(18) 0.11710(18)
H8 H 0.9242 0.9017 0.1314
H9 H 0.7979 0.8557 0.1034
C7 C 0.5658(13) 0.88557(18) 0.15303(19)
H10 H 0.4204 0.8677 0.1395
C8 C 0.4810(12) 0.93846(18) 0.17262(18)
H11 H 0.3556 0.9314 0.1957
H12 H 0.4004 0.9588 0.1487
C9 C 0.6849(13) 0.97281(19) 0.19343(19)
H13 H 0.7574 0.9538 0.2189
H14 H 0.8163 0.9780 0.1711
C10 C 0.5961(17) 1.0267(2) 0.20958(19)
H15 H 0.4779 1.0213 0.2342
H16 H 0.7387 1.0458 0.2219
C11 C 0.4736(15) 1.0615(2) 0.1744(2)
H17 H 0.3164 1.0449 0.1644
C12 C 0.421(2) 1.1181(2) 0.1913(3)
H18 H 0.3374 1.1380 0.1679
H19 H 0.5760 1.1353 0.1988
H20 H 0.3159 1.1165 0.2177
O5 O 0.8845(12) 1.08731(18) 0.45841(19)
O6 O 0.6131(8) 1.14064(16) 0.42356(15)
O7 O 1.0286(11) 1.27043(16) 0.29390(18)
H21 H 1.0656 1.2954 0.3106
O8 O 1.0266(10) 1.03462(15) 0.36300(17)
H22 H 1.0374 1.0109 0.3821
C13 C 0.7244(16) 1.0937(3) 0.4302(3)
C14 C 0.6266(14) 1.0517(2) 0.3996(3)
H23 H 0.4527 1.0595 0.3927
H24 H 0.6315 1.0178 0.4154
C15 C 0.7715(16) 1.0461(2) 0.3547(2)
H25 H 0.6977 1.0172 0.3367
C16 C 0.7610(14) 1.0973(2) 0.3280(2)
H26 H 0.6023 1.1102 0.3210
C17 C 0.9505(15) 1.1252(2) 0.3138(2)
H27 H 1.1102 1.1112 0.3181
C18 C 0.9295(13) 1.1785(2) 0.2909(2)
H28 H 0.7543 1.1884 0.2886
H29 H 0.9976 1.1761 0.2605
C19 C 1.0697(15) 1.2207(2) 0.3174(2)
H30 H 1.2491 1.2123 0.3162
C20 C 0.9934(15) 1.2246(2) 0.3658(3)
H31 H 1.0862 1.2537 0.3796
H32 H 1.0433 1.1920 0.3810
C21 C 0.7159(16) 1.2337(2) 0.3747(2)
H33 H 0.6679 1.2670 0.3605
H34 H 0.6229 1.2055 0.3598
C22 C 0.6367(18) 1.2355(2) 0.4228(3)
H35 H 0.4567 1.2408 0.4239
H36 H 0.7145 1.2662 0.4371
C23 C 0.7016(16) 1.1859(2) 0.4505(2)
H37 H 0.8836 1.1835 0.4545
C24 C 0.571(2) 1.1837(4) 0.4970(3)
H38 H 0.6265 1.1527 0.5133
H39 H 0.3926 1.1818 0.4927
H40 H 0.6113 1.2152 0.5140
O9 O 1.1292(9) 1.34189(15) 0.04091(17)
O10 O 0.8037(7) 1.29580(11) 0.06842(12)
O11 O 0.6679(9) 1.32181(15) 0.25113(13)
H41 H 0.7719 1.3128 0.2701
O12 O 0.8997(8) 1.45199(12) 0.07145(13)
H42 H 0.9438 1.4648 0.0471
C25 C 0.9061(14) 1.33725(18) 0.04576(18)
C26 C 0.7105(11) 1.37606(17) 0.03142(17)
H43 H 0.5526 1.3574 0.0278
H44 H 0.7564 1.3908 0.0021
C27 C 0.6748(12) 1.42168(17) 0.06510(17)
H45 H 0.5467 1.4457 0.0528
C28 C 0.5867(12) 1.40255(17) 0.11014(18)
H46 H 0.4371 1.3835 0.1100
C29 C 0.6901(12) 1.40880(17) 0.14958(17)
H47 H 0.8328 1.4300 0.1509
C30 C 0.6006(12) 1.38497(18) 0.19281(17)
H48 H 0.4482 1.3650 0.1871
H49 H 0.5609 1.4133 0.2140
C31 C 0.7930(13) 1.34845(19) 0.21383(17)
H50 H 0.9301 1.3701 0.2260
C32 C 0.9028(12) 1.30668(18) 0.18153(18)
H51 H 0.9930 1.3251 0.1576
H52 H 1.0235 1.2854 0.1982
C33 C 0.7148(12) 1.26959(18) 0.1599(2)
H53 H 0.5897 1.2908 0.1442
H54 H 0.6301 1.2497 0.1836
C34 C 0.8282(15) 1.23035(19) 0.1265(2)
H55 H 0.6948 1.2088 0.1137
H56 H 0.9400 1.2067 0.1428
C35 C 0.9740(12) 1.25631(18) 0.08753(19)
H57 H 1.1231 1.2742 0.0996
C36 C 1.0509(16) 1.21641(19) 0.0517(2)
H58 H 1.1436 1.2343 0.0283
H59 H 0.9041 1.2003 0.0388
H60 H 1.1540 1.1893 0.0652
loop_
_geom_bond_atom_site_label_1
_geom_bond_atom_site_label_2
_geom_bond_site_symmetry_1
_geom_bond_site_symmetry_2
O1 C1 1_555 1_555
O2 C1 1_555 1_555
O3 H1 1_555 1_555
O4 H2 1_555 1_555
C1 C2 1_555 1_555
C2 H3 1_555 1_555
H4 C2 1_555 1_555
C3 O4 1_555 1_555
H5 C3 1_555 1_555
C4 C3 1_555 1_555
H6 C4 1_555 1_555
C5 C4 1_555 1_555
H7 C5 1_555 1_555
C6 C5 1_555 1_555
H8 C6 1_555 1_555
H9 C6 1_555 1_555
C7 O3 1_555 1_555
H10 C7 1_555 1_555
C8 C7 1_555 1_555
H11 C8 1_555 1_555
H12 C8 1_555 1_555
C9 C8 1_555 1_555
H13 C9 1_555 1_555
H14 C9 1_555 1_555
C10 C9 1_555 1_555
H15 C10 1_555 1_555
H16 C10 1_555 1_555
C11 O2 1_555 1_555
H17 C11 1_555 1_555
C12 C11 1_555 1_555
H18 C12 1_555 1_555
H19 C12 1_555 1_555
H20 C12 1_555 1_555
O5 C13 1_555 1_555
O6 C13 1_555 1_555
O7 H21 1_555 1_555
O8 H22 1_555 1_555
C13 C14 1_555 1_555
C14 H23 1_555 1_555
H24 C14 1_555 1_555
C15 O8 1_555 1_555
H25 C15 1_555 1_555
C16 C15 1_555 1_555
H26 C16 1_555 1_555
C17 C16 1_555 1_555
H27 C17 1_555 1_555
C18 C17 1_555 1_555
H28 C18 1_555 1_555
H29 C18 1_555 1_555
C19 O7 1_555 1_555
H30 C19 1_555 1_555
C20 C19 1_555 1_555
H31 C20 1_555 1_555
H32 C20 1_555 1_555
C21 C20 1_555 1_555
H33 C21 1_555 1_555
H34 C21 1_555 1_555
C22 C21 1_555 1_555
H35 C22 1_555 1_555
H36 C22 1_555 1_555
C23 O6 1_555 1_555
H37 C23 1_555 1_555
C24 C23 1_555 1_555
H38 C24 1_555 1_555
H39 C24 1_555 1_555
H40 C24 1_555 1_555
O9 C25 1_555 1_555
O10 C25 1_555 1_555
O11 H41 1_555 1_555
O12 H42 1_555 1_555
C25 C26 1_555 1_555
C26 H43 1_555 1_555
H44 C26 1_555 1_555
C27 O12 1_555 1_555
H45 C27 1_555 1_555
C28 C27 1_555 1_555
H46 C28 1_555 1_555
C29 C28 1_555 1_555
H47 C29 1_555 1_555
C30 C29 1_555 1_555
H48 C30 1_555 1_555
H49 C30 1_555 1_555
C31 O11 1_555 1_555
H50 C31 1_555 1_555
C32 C31 1_555 1_555
H51 C32 1_555 1_555
H52 C32 1_555 1_555
C33 C32 1_555 1_555
H53 C33 1_555 1_555
H54 C33 1_555 1_555
C34 C33 1_555 1_555
H55 C34 1_555 1_555
H56 C34 1_555 1_555
C35 O10 1_555 1_555
H57 C35 1_555 1_555
C36 C35 1_555 1_555
H58 C36 1_555 1_555
H59 C36 1_555 1_555
H60 C36 1_555 1_555
C2 C3 1_555 1_555
C6 C7 1_555 1_555
C10 C11 1_555 1_555
C14 C15 1_555 1_555
C18 C19 1_555 1_555
C22 C23 1_555 1_555
C26 C27 1_555 1_555
C30 C31 1_555 1_555
C34 C35 1_555 1_555

#END
