
#######################################################################
#
#                 Cambridge Crystallographic Data Centre
#                                CCDC 
#
#######################################################################
#
# If this CIF has been generated from an entry in the Cambridge 
# Structural Database, then it will include bibliographic, chemical, 
# crystal, experimental, refinement or atomic coordinate data resulting 
# from the CCDC's data processing and validation procedures.
#
#######################################################################

data_ZUWBAW
_chemical_formula_moiety         'C13 H20 O5'
_chemical_name_systematic        
4-hydroxy-10-methoxy-12-methyloxacyclododec-5-ene-2,8-dione
_symmetry_cell_setting           orthorhombic
_symmetry_space_group_name_H-M   'P 21 21 21'
_symmetry_Int_Tables_number      19
_space_group_name_Hall           'P 2ac 2ab'
loop_
_symmetry_equiv_pos_site_id
_symmetry_equiv_pos_as_xyz
1 x,y,z
2 1/2-x,-y,1/2+z
3 -x,1/2+y,1/2-z
4 1/2+x,1/2-y,-z
_cell_length_a                   7.6430(15)
_cell_length_b                   11.316(2)
_cell_length_c                   15.823(3)
_cell_angle_alpha                90
_cell_angle_beta                 90
_cell_angle_gamma                90
_cell_volume                     1368.5
_exptl_crystal_colour            colorless
_exptl_crystal_description       'irregular column'
_cell_formula_units_Z            4
loop_
_atom_site_label
_atom_site_type_symbol
_atom_site_fract_x
_atom_site_fract_y
_atom_site_fract_z
O1 O 0.97729(16) 0.99064(10) 0.64422(7)
O2 O 0.8957(3) 0.80231(13) 0.62747(10)
O3 O 1.06349(19) 0.89548(12) 0.89764(7)
H1 H 1.0380 0.9382 0.9377
O4 O 0.5081(2) 1.25823(11) 0.74386(9)
O5 O 0.51367(17) 0.96787(11) 0.53970(7)
C1 C 0.9664(3) 0.87771(16) 0.66795(10)
C2 C 1.0487(2) 0.85665(16) 0.75288(10)
H2 H 1.1749 0.8602 0.7467
H3 H 1.0190 0.7775 0.7714
C3 C 0.9936(2) 0.94437(14) 0.82169(10)
H4 H 1.0472 1.0216 0.8108
C4 C 0.7993(2) 0.95662(14) 0.82377(9)
H5 H 0.7329 0.8879 0.8268
C5 C 0.7161(2) 1.05762(14) 0.82165(10)
H6 H 0.7830 1.1260 0.8258
C6 C 0.5212(2) 1.07235(15) 0.81312(11)
H7 H 0.4735 1.1071 0.8642
H8 H 0.4663 0.9960 0.8045
C7 C 0.4852(2) 1.15249(15) 0.73790(11)
C8 C 0.4321(2) 1.09708(17) 0.65546(12)
H9 H 0.3978 1.1589 0.6164
H10 H 0.3310 1.0469 0.6649
C9 C 0.5789(2) 1.02285(14) 0.61499(9)
H11 H 0.6183 0.9622 0.6549
C10 C 0.7323(2) 1.09803(16) 0.58786(11)
H12 H 0.7613 1.1520 0.6334
H13 H 0.6975 1.1451 0.5395
C11 C 0.8945(2) 1.02818(16) 0.56476(9)
H14 H 0.8623 0.9589 0.5310
C12 C 1.0291(3) 1.1014(2) 0.51814(12)
H15 H 1.1287 1.0532 0.5050
H16 H 1.0650 1.1664 0.5531
H17 H 0.9788 1.1312 0.4668
C13 C 0.4314(4) 0.85777(19) 0.55132(13)
H18 H 0.3922 0.8281 0.4977
H19 H 0.3329 0.8671 0.5884
H20 H 0.5129 0.8031 0.5758
loop_
_geom_bond_atom_site_label_1
_geom_bond_atom_site_label_2
_geom_bond_site_symmetry_1
_geom_bond_site_symmetry_2
O1 C1 1_555 1_555
O2 C1 1_555 1_555
O3 H1 1_555 1_555
O4 C7 1_555 1_555
O5 C9 1_555 1_555
C1 C2 1_555 1_555
C2 H2 1_555 1_555
H3 C2 1_555 1_555
C3 O3 1_555 1_555
H4 C3 1_555 1_555
C4 C3 1_555 1_555
H5 C4 1_555 1_555
C5 C4 1_555 1_555
H6 C5 1_555 1_555
C6 C5 1_555 1_555
H7 C6 1_555 1_555
H8 C6 1_555 1_555
C7 C6 1_555 1_555
C8 C7 1_555 1_555
H9 C8 1_555 1_555
H10 C8 1_555 1_555
C9 C8 1_555 1_555
H11 C9 1_555 1_555
C10 C9 1_555 1_555
H12 C10 1_555 1_555
H13 C10 1_555 1_555
C11 O1 1_555 1_555
H14 C11 1_555 1_555
C12 C11 1_555 1_555
H15 C12 1_555 1_555
H16 C12 1_555 1_555
H17 C12 1_555 1_555
C13 O5 1_555 1_555
H18 C13 1_555 1_555
H19 C13 1_555 1_555
H20 C13 1_555 1_555
C2 C3 1_555 1_555
C10 C11 1_555 1_555

#END
