
#######################################################################
#
#                 Cambridge Crystallographic Data Centre
#                                CCDC 
#
#######################################################################
#
# If this CIF has been generated from an entry in the Cambridge 
# Structural Database, then it will include bibliographic, chemical, 
# crystal, experimental, refinement or atomic coordinate data resulting 
# from the CCDC's data processing and validation procedures.
#
#######################################################################

data_ZUWBEA
_chemical_formula_moiety         'C12 H18 O5'
_chemical_name_systematic        
4,10-dihydroxy-12-methyloxacyclododec-5-ene-2,8-dione
_symmetry_cell_setting           monoclinic
_symmetry_space_group_name_H-M   'P 21'
_symmetry_Int_Tables_number      4
_space_group_name_Hall           'P 2yb'
loop_
_symmetry_equiv_pos_site_id
_symmetry_equiv_pos_as_xyz
1 x,y,z
2 -x,1/2+y,-z
_cell_length_a                   7.2552(15)
_cell_length_b                   5.7296(11)
_cell_length_c                   14.708(3)
_cell_angle_alpha                90
_cell_angle_beta                 98.35(3)
_cell_angle_gamma                90
_cell_volume                     604.921
_exptl_crystal_colour            colorless
_exptl_crystal_description       column
_cell_formula_units_Z            2
loop_
_atom_site_label
_atom_site_type_symbol
_atom_site_fract_x
_atom_site_fract_y
_atom_site_fract_z
O1 O 0.2946(2) 0.1001(3) 0.85590(11)
O2 O 0.2554(3) 0.4744(4) 0.89156(16)
O3 O 0.5945(3) 0.6997(4) 0.84759(16)
H1 H 0.4817 0.7082 0.8313
O4 O 0.2105(3) 0.3284(5) 0.47514(12)
O5 O 0.1816(3) -0.1781(4) 0.59324(11)
H2 H 0.0715 -0.2021 0.5738
C1 C 0.3552(3) 0.3073(5) 0.88810(14)
C2 C 0.5627(3) 0.3149(5) 0.91684(15)
H3 H 0.6131 0.1578 0.9190
H4 H 0.5910 0.3828 0.9777
C3 C 0.6513(3) 0.4619(5) 0.84753(18)
H5 H 0.7864 0.4587 0.8668
C4 C 0.6141(3) 0.3510(5) 0.75426(16)
H6 H 0.6568 0.1990 0.7497
C5 C 0.5276(3) 0.4450(5) 0.67819(18)
H7 H 0.4935 0.6011 0.6806
C6 C 0.4797(4) 0.3223(6) 0.58828(16)
H8 H 0.5338 0.1672 0.5936
H9 H 0.5361 0.4060 0.5421
C7 C 0.2718(4) 0.3000(5) 0.55558(16)
C8 C 0.1485(4) 0.2332(5) 0.62552(17)
H10 H 0.0194 0.2360 0.5968
H11 H 0.1630 0.3469 0.6749
C9 C 0.1957(3) -0.0096(4) 0.66533(14)
H12 H 0.3261 -0.0063 0.6945
C10 C 0.0783(3) -0.0818(5) 0.73855(16)
H13 H -0.0513 -0.0867 0.7107
H14 H 0.1138 -0.2388 0.7587
C11 C 0.0943(3) 0.0751(4) 0.82235(15)
H15 H 0.0405 0.2283 0.8048
C12 C 0.0035(3) -0.0247(6) 0.89918(17)
H16 H 0.0174 0.0825 0.9499
H17 H 0.0616 -0.1705 0.9186
H18 H -0.1265 -0.0498 0.8782
loop_
_geom_bond_atom_site_label_1
_geom_bond_atom_site_label_2
_geom_bond_site_symmetry_1
_geom_bond_site_symmetry_2
O1 C1 1_555 1_555
O2 C1 1_555 1_555
O3 H1 1_555 1_555
O4 C7 1_555 1_555
O5 H2 1_555 1_555
C1 C2 1_555 1_555
C2 H3 1_555 1_555
H4 C2 1_555 1_555
C3 O3 1_555 1_555
H5 C3 1_555 1_555
C4 C3 1_555 1_555
H6 C4 1_555 1_555
C5 C4 1_555 1_555
H7 C5 1_555 1_555
C6 C5 1_555 1_555
H8 C6 1_555 1_555
H9 C6 1_555 1_555
C7 C6 1_555 1_555
C8 C7 1_555 1_555
H10 C8 1_555 1_555
H11 C8 1_555 1_555
C9 O5 1_555 1_555
H12 C9 1_555 1_555
C10 C9 1_555 1_555
H13 C10 1_555 1_555
H14 C10 1_555 1_555
C11 O1 1_555 1_555
H15 C11 1_555 1_555
C12 C11 1_555 1_555
H16 C12 1_555 1_555
H17 C12 1_555 1_555
H18 C12 1_555 1_555
C2 C3 1_555 1_555
C8 C9 1_555 1_555
C10 C11 1_555 1_555

#END
