
#######################################################################
#
#                 Cambridge Crystallographic Data Centre
#                                CCDC 
#
#######################################################################
#
# If this CIF has been generated from an entry in the Cambridge 
# Structural Database, then it will include bibliographic, chemical, 
# crystal, experimental, refinement or atomic coordinate data resulting 
# from the CCDC's data processing and validation procedures.
#
#######################################################################

data_ZUWFUU
_chemical_formula_moiety         'C16 H15 Br1 O1'
_chemical_name_systematic        
2-Bromo-7-phenyl-1,2,3,4-tetrahydronaphthalen-1-ol
_symmetry_cell_setting           monoclinic
_symmetry_space_group_name_H-M   'C 2'
_symmetry_Int_Tables_number      5
_space_group_name_Hall           'C 2y'
loop_
_symmetry_equiv_pos_site_id
_symmetry_equiv_pos_as_xyz
1 x,y,z
2 -x,y,-z
3 1/2+x,1/2+y,z
4 1/2-x,1/2+y,-z
_cell_length_a                   33.334(10)
_cell_length_b                   4.7429(13)
_cell_length_c                   19.753(6)
_cell_angle_alpha                90
_cell_angle_beta                 123.496(3)
_cell_angle_gamma                90
_cell_volume                     2604.3
_exptl_crystal_colour            colorless
_exptl_crystal_description       rod
_cell_formula_units_Z            8
loop_
_atom_site_label
_atom_site_type_symbol
_atom_site_fract_x
_atom_site_fract_y
_atom_site_fract_z
Br1 Br 0.77308(2) 0.14995(11) 0.87182(3)
O1 O 0.73421(12) 0.5320(9) 0.9547(2)
H1 H 0.7484 0.4014 0.9864
C1 C 0.69819(17) 0.4216(13) 0.8769(3)
H2 H 0.6898 0.2319 0.8849
C2 C 0.71643(18) 0.3979(15) 0.8216(3)
H3 H 0.7257 0.5857 0.8141
C3 C 0.67725(18) 0.2837(16) 0.7400(3)
H4 H 0.6662 0.1042 0.7473
H5 H 0.6900 0.2522 0.7068
C4 C 0.63552(19) 0.4866(14) 0.6973(3)
H6 H 0.6076 0.3869 0.6542
H7 H 0.6433 0.6344 0.6724
C5 C 0.62277(17) 0.6207(15) 0.7527(3)
C6 C 0.58091(18) 0.7767(14) 0.7197(3)
H8 H 0.5604 0.7896 0.6635
C7 C 0.5687(2) 0.9135(15) 0.7674(4)
H9 H 0.5402 1.0158 0.7431
C8 C 0.59874(18) 0.8996(14) 0.8519(3)
C9 C 0.64081(16) 0.7426(14) 0.8854(3)
H10 H 0.6613 0.7322 0.9416
C10 C 0.65350(16) 0.5996(13) 0.8379(3)
C11 C 0.58579(18) 1.0481(13) 0.9036(3)
C12 C 0.53822(19) 1.0590(15) 0.8807(4)
H11 H 0.5147 0.9669 0.8336
C13 C 0.52509(19) 1.2032(18) 0.9261(4)
H12 H 0.4931 1.2047 0.9100
C14 C 0.5592(2) 1.3451(16) 0.9950(4)
H13 H 0.5503 1.4472 1.0249
C15 C 0.6069(2) 1.3345(15) 1.0194(4)
H14 H 0.6302 1.4275 1.0665
C16 C 0.62008(17) 1.1862(16) 0.9742(3)
H15 H 0.6523 1.1793 0.9915
Br2 Br 0.77774(2) 1.23152(10) 0.37292(3)
O2 O 0.7284(4) 0.997(3) 0.4604(6)
H16 H 0.7395 0.8647 0.4923
C17 C 0.7088(5) 0.895(4) 0.3790(8)
H17 H 0.7281 0.7338 0.3823
C18 C 0.6883(5) 1.036(4) 0.2412(8)
H18 H 0.7045 0.8722 0.2379
H19 H 0.6918 1.1893 0.2125
C19 C 0.6354(2) 0.9693(16) 0.2003(4)
H20 H 0.6174 1.1442 0.1821
H21 H 0.6251 0.8551 0.1526
C20 C 0.62327(18) 0.8157(13) 0.2537(3)
C21 C 0.57876(17) 0.6880(17) 0.2199(3)
H22 H 0.5566 0.6987 0.1641
C22 C 0.56631(19) 0.5459(16) 0.2665(3)
H23 H 0.5362 0.4614 0.2416
C23 C 0.59840(18) 0.5268(13) 0.3507(3)
C24 C 0.64307(16) 0.6548(15) 0.3845(3)
H24 H 0.6651 0.6452 0.4403
C25 C 0.65605(17) 0.7966(12) 0.3376(3)
C26 C 0.58436(18) 0.3804(13) 0.4002(3)
C27 C 0.5381(2) 0.4060(14) 0.3831(4)
H25 H 0.5161 0.5221 0.3407
C28 C 0.52399(19) 0.2617(16) 0.4280(4)
H26 H 0.4928 0.2814 0.4152
C29 C 0.5560(2) 0.0903(16) 0.4910(3)
H27 H 0.5467 -0.0098 0.5206
C30 C 0.6024(2) 0.0693(17) 0.5098(4)
H28 H 0.6245 -0.0433 0.5532
C31 C 0.61668(18) 0.2113(18) 0.4658(3)
H29 H 0.6482 0.1942 0.4799
C32 C 0.7115(4) 1.116(4) 0.3278(7)
H30 H 0.6943 1.2817 0.3290
C33? C 0.7179(7) 1.002(5) 0.3226(11)
H31? H 0.7242 0.8088 0.3136
H32? H 0.6383 0.8299 0.1672
H33? H 0.6083 1.0891 0.1636
C34? C 0.6787(6) 1.143(5) 0.2394(11)
H34? H 0.6713 1.3312 0.2489
H35? H 0.6907 1.1585 0.2046
O3? O 0.7346(6) 0.882(4) 0.4557(9)
H36? H 0.7337 0.7099 0.4510
C35? C 0.7003(7) 1.003(6) 0.3786(13)
H37? H 0.6910 1.1931 0.3844
loop_
_geom_bond_atom_site_label_1
_geom_bond_atom_site_label_2
_geom_bond_site_symmetry_1
_geom_bond_site_symmetry_2
Br1 C2 1_555 1_555
O1 H1 1_555 1_555
C1 O1 1_555 1_555
H2 C1 1_555 1_555
C2 C1 1_555 1_555
H3 C2 1_555 1_555
C3 C2 1_555 1_555
H4 C3 1_555 1_555
H5 C3 1_555 1_555
C4 C3 1_555 1_555
H6 C4 1_555 1_555
H7 C4 1_555 1_555
C5 C4 1_555 1_555
C6 C5 1_555 1_555
H8 C6 1_555 1_555
C7 C6 1_555 1_555
H9 C7 1_555 1_555
C8 C7 1_555 1_555
C9 C8 1_555 1_555
H10 C9 1_555 1_555
C10 C1 1_555 1_555
C11 C8 1_555 1_555
C12 C11 1_555 1_555
H11 C12 1_555 1_555
C13 C12 1_555 1_555
H12 C13 1_555 1_555
C14 C13 1_555 1_555
H13 C14 1_555 1_555
C15 C14 1_555 1_555
H14 C15 1_555 1_555
C16 C11 1_555 1_555
H15 C16 1_555 1_555
Br2 C32 1_555 1_555
O2 H16 1_555 1_555
C17 O2 1_555 1_555
H17 C17 1_555 1_555
C18 H18 1_555 1_555
H19 C18 1_555 1_555
C19 C18 1_555 1_555
H20 C19 1_555 1_555
H21 C19 1_555 1_555
C20 C19 1_555 1_555
C21 C20 1_555 1_555
H22 C21 1_555 1_555
C22 C21 1_555 1_555
H23 C22 1_555 1_555
C23 C22 1_555 1_555
C24 C23 1_555 1_555
H24 C24 1_555 1_555
C25 C17 1_555 1_555
C26 C23 1_555 1_555
C27 C26 1_555 1_555
H25 C27 1_555 1_555
C28 C27 1_555 1_555
H26 C28 1_555 1_555
C29 C28 1_555 1_555
H27 C29 1_555 1_555
C30 C29 1_555 1_555
H28 C30 1_555 1_555
C31 C26 1_555 1_555
H29 C31 1_555 1_555
C32 C17 1_555 1_555
H30 C32 1_555 1_555
C5 C10 1_555 1_555
C9 C10 1_555 1_555
C15 C16 1_555 1_555
C18 C32 1_555 1_555
C20 C25 1_555 1_555
C24 C25 1_555 1_555
C30 C31 1_555 1_555

#END
