
#######################################################################
#
#                 Cambridge Crystallographic Data Centre
#                                CCDC 
#
#######################################################################
#
# If this CIF has been generated from an entry in the Cambridge 
# Structural Database, then it will include bibliographic, chemical, 
# crystal, experimental, refinement or atomic coordinate data resulting 
# from the CCDC's data processing and validation procedures.
#
#######################################################################

data_ZUWHOQ
_chemical_formula_moiety         'C30 H26 Cl1 N1 O1'
_chemical_name_systematic        
4-(4-Chlorobutyl)-2-(4-methylphenyl)-3-(1-naphthyl)isoquinolin-1(2H)-one
_symmetry_cell_setting           monoclinic
_symmetry_space_group_name_H-M   'P 21'
_symmetry_Int_Tables_number      4
_space_group_name_Hall           'P 2yb'
loop_
_symmetry_equiv_pos_site_id
_symmetry_equiv_pos_as_xyz
1 x,y,z
2 -x,1/2+y,-z
_cell_length_a                   12.848(3)
_cell_length_b                   13.662(3)
_cell_length_c                   13.758(3)
_cell_angle_alpha                90
_cell_angle_beta                 97.002(3)
_cell_angle_gamma                90
_cell_volume                     2396.92
_exptl_crystal_colour            colorless
_exptl_crystal_description       block
_cell_formula_units_Z            4
loop_
_atom_site_label
_atom_site_type_symbol
_atom_site_fract_x
_atom_site_fract_y
_atom_site_fract_z
Cl1 Cl 0.2964(2) -0.09217(16) 0.24969(15)
O1 O -0.1428(3) 0.3702(3) 0.0871(3)
N1 N -0.0640(4) 0.3222(3) 0.2366(4)
C1 C -0.0860(5) 0.3108(5) 0.1349(5)
C2 C -0.0373(5) 0.2273(5) 0.0950(5)
C3 C -0.0578(5) 0.2133(6) -0.0055(6)
H1 H -0.0998 0.2576 -0.0437
C4 C -0.0156(7) 0.1329(9) -0.0492(7)
H2 H -0.0298 0.1225 -0.1164
C5 C 0.0469(7) 0.0698(7) 0.0082(9)
H3 H 0.0777 0.0181 -0.0217
C6 C 0.0668(6) 0.0791(7) 0.1090(7)
H4 H 0.1070 0.0328 0.1462
C7 C 0.0241(5) 0.1613(5) 0.1545(6)
C8 C 0.0450(6) 0.1813(5) 0.2585(6)
C9 C 0.0057(5) 0.2615(5) 0.2961(4)
C10 C 0.0409(5) 0.3032(5) 0.4010(5)
C11 C 0.1209(6) 0.3657(5) 0.4173(5)
H5 H 0.1573 0.3806 0.3648
C12 C 0.1537(6) 0.4095(6) 0.5052(7)
H6 H 0.2113 0.4512 0.5114
C13 C 0.0996(8) 0.3907(6) 0.5857(7)
H7 H 0.1181 0.4201 0.6463
C14 C 0.0136(6) 0.3232(5) 0.5686(5)
C15 C -0.0434(9) 0.3027(8) 0.6506(7)
H8 H -0.0275 0.3334 0.7109
C16 C -0.1194(9) 0.2377(8) 0.6344(10)
H9 H -0.1571 0.2220 0.6858
C17 C -0.1473(7) 0.1901(6) 0.5434(8)
H10 H -0.2017 0.1448 0.5382
C18 C -0.0984(5) 0.2077(5) 0.4641(7)
H11 H -0.1179 0.1767 0.4045
C19 C -0.0112(6) 0.2800(5) 0.4776(6)
C20 C -0.1129(5) 0.4040(4) 0.2769(4)
C21 C -0.2091(5) 0.3940(4) 0.3089(4)
H12 H -0.2408 0.3327 0.3084
C22 C -0.2594(5) 0.4751(5) 0.3421(4)
H13 H -0.3248 0.4683 0.3637
C23 C -0.2117(5) 0.5663(4) 0.3429(4)
C24 C -0.1150(6) 0.5739(4) 0.3130(5)
H14 H -0.0817 0.6344 0.3154
C25 C -0.0649(5) 0.4931(5) 0.2790(5)
H15 H 0.0008 0.4997 0.2578
C26 C -0.2679(6) 0.6553(5) 0.3751(5)
H16 H -0.2248 0.6871 0.4277
H17 H -0.3329 0.6357 0.3970
H18 H -0.2818 0.6998 0.3210
C27 C 0.1175(6) 0.1084(7) 0.3265(6)
H19 H 0.1064 0.1188 0.3942
H20 H 0.0975 0.0415 0.3093
C28 C 0.2278(7) 0.1219(6) 0.3168(6)
H21 H 0.2479 0.1885 0.3346
H22 H 0.2388 0.1121 0.2490
C29 C 0.2990(8) 0.0495(7) 0.3828(7)
H23 H 0.3713 0.0625 0.3734
H24 H 0.2917 0.0642 0.4506
C30 C 0.2800(8) -0.0508(7) 0.3677(6)
H25 H 0.2089 -0.0650 0.3801
H26 H 0.3271 -0.0873 0.4150
Cl2 Cl 0.2495(3) 0.5504(2) 0.2542(2)
O2 O 0.6508(4) 0.0606(3) 0.4182(3)
N2 N 0.6024(3) 0.1340(3) 0.2719(3)
C31 C 0.6053(4) 0.1276(4) 0.3732(4)
C32 C 0.5528(4) 0.2075(4) 0.4188(4)
C33 C 0.5541(5) 0.2053(5) 0.5206(5)
H27 H 0.5889 0.1551 0.5569
C34 C 0.5042(5) 0.2771(6) 0.5670(5)
H28 H 0.5046 0.2753 0.6346
C35 C 0.4545(5) 0.3501(6) 0.5142(6)
H29 H 0.4202 0.3984 0.5458
C36 C 0.4542(5) 0.3539(4) 0.4153(4)
H30 H 0.4208 0.4058 0.3804
C37 C 0.5026(4) 0.2819(4) 0.3652(4)
C38 C 0.5032(4) 0.2834(4) 0.2596(4)
C39 C 0.5503(4) 0.2096(4) 0.2165(4)
C40 C 0.5564(4) 0.2071(3) 0.1079(4)
C41 C 0.6287(5) 0.2632(4) 0.0698(4)
H31 H 0.6759 0.3004 0.1111
C42 C 0.6325(6) 0.2653(5) -0.0323(5)
H32 H 0.6828 0.3033 -0.0576
C43 C 0.5654(5) 0.2138(5) -0.0922(4)
H33 H 0.5699 0.2158 -0.1591
C44 C 0.4869(5) 0.1556(4) -0.0572(4)
C45 C 0.4143(6) 0.1012(5) -0.1195(5)
H34 H 0.4160 0.1038 -0.1869
C46 C 0.3415(6) 0.0448(6) -0.0826(6)
H35 H 0.2947 0.0082 -0.1250
C47 C 0.3358(5) 0.0410(5) 0.0177(5)
H36 H 0.2847 0.0031 0.0420
C48 C 0.4055(5) 0.0930(4) 0.0800(5)
H37 H 0.4016 0.0899 0.1470
C49 C 0.4838(4) 0.1517(4) 0.0447(4)
C50 C 0.6522(4) 0.0544(4) 0.2254(4)
C51 C 0.6052(5) -0.0364(4) 0.2165(5)
H38 H 0.5388 -0.0458 0.2353
C52 C 0.6568(6) -0.1116(5) 0.1801(5)
H39 H 0.6236 -0.1721 0.1736
C53 C 0.7548(6) -0.1038(5) 0.1525(5)
C54 C 0.7999(5) -0.0123(5) 0.1588(5)
H40 H 0.8647 -0.0028 0.1367
C55 C 0.7492(5) 0.0671(4) 0.1984(4)
H41 H 0.7821 0.1278 0.2060
C56 C 0.8117(7) -0.1892(6) 0.1160(6)
H42 H 0.8695 -0.1661 0.0841
H43 H 0.7646 -0.2260 0.0702
H44 H 0.8375 -0.2305 0.1701
C57 C 0.4421(6) 0.3619(5) 0.1982(5)
H45 H 0.4560 0.4247 0.2300
H46 H 0.4681 0.3651 0.1349
C58 C 0.3257(6) 0.3461(7) 0.1820(6)
H47 H 0.2989 0.3483 0.2449
H48 H 0.3121 0.2810 0.1551
C59 C 0.2656(8) 0.4199(8) 0.1140(7)
H49 H 0.2853 0.4101 0.0488
H50 H 0.1915 0.4047 0.1109
C60 C 0.2778(8) 0.5152(7) 0.1359(7)
H51 H 0.2330 0.5526 0.0876
H52 H 0.3497 0.5333 0.1298
loop_
_geom_bond_atom_site_label_1
_geom_bond_atom_site_label_2
_geom_bond_site_symmetry_1
_geom_bond_site_symmetry_2
Cl1 C30 1_555 1_555
O1 C1 1_555 1_555
N1 C1 1_555 1_555
C1 C2 1_555 1_555
C2 C3 1_555 1_555
C3 H1 1_555 1_555
C4 C3 1_555 1_555
H2 C4 1_555 1_555
C5 C4 1_555 1_555
H3 C5 1_555 1_555
C6 C5 1_555 1_555
H4 C6 1_555 1_555
C7 C2 1_555 1_555
C8 C7 1_555 1_555
C9 N1 1_555 1_555
C10 C9 1_555 1_555
C11 C10 1_555 1_555
H5 C11 1_555 1_555
C12 C11 1_555 1_555
H6 C12 1_555 1_555
C13 C12 1_555 1_555
H7 C13 1_555 1_555
C14 C13 1_555 1_555
C15 C14 1_555 1_555
H8 C15 1_555 1_555
C16 C15 1_555 1_555
H9 C16 1_555 1_555
C17 C16 1_555 1_555
H10 C17 1_555 1_555
C18 C17 1_555 1_555
H11 C18 1_555 1_555
C19 C10 1_555 1_555
C20 N1 1_555 1_555
C21 C20 1_555 1_555
H12 C21 1_555 1_555
C22 C21 1_555 1_555
H13 C22 1_555 1_555
C23 C22 1_555 1_555
C24 C23 1_555 1_555
H14 C24 1_555 1_555
C25 C20 1_555 1_555
H15 C25 1_555 1_555
C26 C23 1_555 1_555
H16 C26 1_555 1_555
H17 C26 1_555 1_555
H18 C26 1_555 1_555
C27 C8 1_555 1_555
H19 C27 1_555 1_555
H20 C27 1_555 1_555
C28 C27 1_555 1_555
H21 C28 1_555 1_555
H22 C28 1_555 1_555
C29 C28 1_555 1_555
H23 C29 1_555 1_555
H24 C29 1_555 1_555
C30 C29 1_555 1_555
H25 C30 1_555 1_555
H26 C30 1_555 1_555
Cl2 C60 1_555 1_555
O2 C31 1_555 1_555
N2 C31 1_555 1_555
C31 C32 1_555 1_555
C32 C33 1_555 1_555
C33 H27 1_555 1_555
C34 C33 1_555 1_555
H28 C34 1_555 1_555
C35 C34 1_555 1_555
H29 C35 1_555 1_555
C36 C35 1_555 1_555
H30 C36 1_555 1_555
C37 C32 1_555 1_555
C38 C37 1_555 1_555
C39 N2 1_555 1_555
C40 C39 1_555 1_555
C41 C40 1_555 1_555
H31 C41 1_555 1_555
C42 C41 1_555 1_555
H32 C42 1_555 1_555
C43 C42 1_555 1_555
H33 C43 1_555 1_555
C44 C43 1_555 1_555
C45 C44 1_555 1_555
H34 C45 1_555 1_555
C46 C45 1_555 1_555
H35 C46 1_555 1_555
C47 C46 1_555 1_555
H36 C47 1_555 1_555
C48 C47 1_555 1_555
H37 C48 1_555 1_555
C49 C40 1_555 1_555
C50 N2 1_555 1_555
C51 C50 1_555 1_555
H38 C51 1_555 1_555
C52 C51 1_555 1_555
H39 C52 1_555 1_555
C53 C52 1_555 1_555
C54 C53 1_555 1_555
H40 C54 1_555 1_555
C55 C50 1_555 1_555
H41 C55 1_555 1_555
C56 C53 1_555 1_555
H42 C56 1_555 1_555
H43 C56 1_555 1_555
H44 C56 1_555 1_555
C57 C38 1_555 1_555
H45 C57 1_555 1_555
H46 C57 1_555 1_555
C58 C57 1_555 1_555
H47 C58 1_555 1_555
H48 C58 1_555 1_555
C59 C58 1_555 1_555
H49 C59 1_555 1_555
H50 C59 1_555 1_555
C60 C59 1_555 1_555
H51 C60 1_555 1_555
H52 C60 1_555 1_555
C6 C7 1_555 1_555
C8 C9 1_555 1_555
C14 C19 1_555 1_555
C18 C19 1_555 1_555
C24 C25 1_555 1_555
C36 C37 1_555 1_555
C38 C39 1_555 1_555
C44 C49 1_555 1_555
C48 C49 1_555 1_555
C54 C55 1_555 1_555

#END
