
#######################################################################
#
#                 Cambridge Crystallographic Data Centre
#                                CCDC 
#
#######################################################################
#
# If this CIF has been generated from an entry in the Cambridge 
# Structural Database, then it will include bibliographic, chemical, 
# crystal, experimental, refinement or atomic coordinate data resulting 
# from the CCDC's data processing and validation procedures.
#
#######################################################################

data_ZUWMEL
_chemical_formula_moiety         'C21 H19 N1 O2'
_chemical_name_systematic        
2-hydroxy-N-(4-methylphenyl)-2,2-diphenylacetamide
_symmetry_cell_setting           monoclinic
_symmetry_space_group_name_H-M   'P 21/c'
_symmetry_Int_Tables_number      14
_space_group_name_Hall           '-P 2ybc'
loop_
_symmetry_equiv_pos_site_id
_symmetry_equiv_pos_as_xyz
1 x,y,z
2 -x,1/2+y,1/2-z
3 -x,-y,-z
4 x,1/2-y,1/2+z
_cell_length_a                   13.406(3)
_cell_length_b                   11.180(3)
_cell_length_c                   11.221(3)
_cell_angle_alpha                90
_cell_angle_beta                 95.914(4)
_cell_angle_gamma                90
_cell_volume                     1672.84
_exptl_crystal_colour            colorless
_exptl_crystal_description       block
_cell_formula_units_Z            4
loop_
_atom_site_label
_atom_site_type_symbol
_atom_site_fract_x
_atom_site_fract_y
_atom_site_fract_z
C1 C 0.19743(17) 0.36153(19) 0.6353(2)
C2 C 0.2855(2) 0.4199(2) 0.6734(3)
H1 H 0.3278 0.3888 0.7367
C3 C 0.3115(3) 0.5240(3) 0.6183(4)
H2 H 0.3720 0.5614 0.6435
C4 C 0.2494(3) 0.5723(3) 0.5273(4)
H3 H 0.2666 0.6435 0.4917
C5 C 0.1611(3) 0.5156(3) 0.4883(3)
H4 H 0.1189 0.5479 0.4256
C6 C 0.1348(2) 0.4105(2) 0.5421(2)
H5 H 0.0748 0.3726 0.5156
C7 C 0.17256(16) 0.24210(19) 0.69178(18)
C8 C 0.06042(17) 0.2261(2) 0.6993(2)
C9 C 0.0135(2) 0.3010(3) 0.7720(3)
H6 H 0.0502 0.3610 0.8139
C10 C -0.0875(3) 0.2891(4) 0.7842(3)
H7 H -0.1177 0.3398 0.8355
C11 C -0.1428(2) 0.2042(3) 0.7220(3)
H8 H -0.2110 0.1964 0.7295
C12 C -0.0967(3) 0.1305(3) 0.6483(4)
H9 H -0.1342 0.0725 0.6044
C13 C 0.0034(2) 0.1400(3) 0.6372(3)
H10 H 0.0333 0.0876 0.5872
C14 C 0.21489(16) 0.14397(19) 0.6139(2)
C15 C 0.33757(16) -0.02317(19) 0.6310(2)
C16 C 0.39191(19) -0.0943(2) 0.7141(2)
H11 H 0.3855 -0.0840 0.7952
C17 C 0.45557(19) -0.1804(2) 0.6781(2)
H12 H 0.4912 -0.2278 0.7358
C18 C 0.46832(17) -0.1986(2) 0.5593(2)
C19 C 0.41257(19) -0.1271(2) 0.4774(2)
H13 H 0.4183 -0.1381 0.3963
C20 C 0.34833(18) -0.0394(2) 0.5115(2)
H14 H 0.3127 0.0082 0.4539
C21 C 0.5398(2) -0.2911(3) 0.5217(3)
H15 H 0.5027 -0.3589 0.4886
H16 H 0.5839 -0.3159 0.5900
H17 H 0.5784 -0.2577 0.4623
N1 N 0.27759(15) 0.06727(17) 0.67493(16)
H18 H 0.2819 0.0740 0.7516
O1 O 0.22664(13) 0.22913(16) 0.80731(13)
H19 H 0.1997 0.2693 0.8561
O2 O 0.19220(12) 0.13963(13) 0.50572(13)
loop_
_geom_bond_atom_site_label_1
_geom_bond_atom_site_label_2
_geom_bond_site_symmetry_1
_geom_bond_site_symmetry_2
C1 C2 1_555 1_555
C2 H1 1_555 1_555
C3 C2 1_555 1_555
H2 C3 1_555 1_555
C4 C3 1_555 1_555
H3 C4 1_555 1_555
C5 C4 1_555 1_555
H4 C5 1_555 1_555
C6 C1 1_555 1_555
H5 C6 1_555 1_555
C7 C1 1_555 1_555
C8 C7 1_555 1_555
C9 C8 1_555 1_555
H6 C9 1_555 1_555
C10 C9 1_555 1_555
H7 C10 1_555 1_555
C11 C10 1_555 1_555
H8 C11 1_555 1_555
C12 C11 1_555 1_555
H9 C12 1_555 1_555
C13 C8 1_555 1_555
H10 C13 1_555 1_555
C14 C7 1_555 1_555
C15 C16 1_555 1_555
C16 H11 1_555 1_555
C17 C16 1_555 1_555
H12 C17 1_555 1_555
C18 C17 1_555 1_555
C19 C18 1_555 1_555
H13 C19 1_555 1_555
C20 C15 1_555 1_555
H14 C20 1_555 1_555
C21 C18 1_555 1_555
H15 C21 1_555 1_555
H16 C21 1_555 1_555
H17 C21 1_555 1_555
N1 C14 1_555 1_555
H18 N1 1_555 1_555
O1 C7 1_555 1_555
H19 O1 1_555 1_555
O2 C14 1_555 1_555
C5 C6 1_555 1_555
C12 C13 1_555 1_555
C15 N1 1_555 1_555
C19 C20 1_555 1_555

#END
