
#######################################################################
#
#                 Cambridge Crystallographic Data Centre
#                                CCDC 
#
#######################################################################
#
# If this CIF has been generated from an entry in the Cambridge 
# Structural Database, then it will include bibliographic, chemical, 
# crystal, experimental, refinement or atomic coordinate data resulting 
# from the CCDC's data processing and validation procedures.
#
#######################################################################

data_ZUWMUB
_chemical_formula_moiety         'C23 H26 Br1 N1 O1'
_chemical_name_systematic        
2-(2-bromo-4-methylphenyl)-N,N-diisopropyl-5-phenylfuran-3-amine
_symmetry_cell_setting           triclinic
_symmetry_space_group_name_H-M   'P -1'
_symmetry_Int_Tables_number      2
_space_group_name_Hall           '-P 1'
loop_
_symmetry_equiv_pos_site_id
_symmetry_equiv_pos_as_xyz
1 x,y,z
2 -x,-y,-z
_cell_length_a                   10.2984(10)
_cell_length_b                   10.7386(11)
_cell_length_c                   11.0409(11)
_cell_angle_alpha                117.583(2)
_cell_angle_beta                 107.719(2)
_cell_angle_gamma                91.208(2)
_cell_volume                     1011.74
_exptl_crystal_colour            colorless
_exptl_crystal_description       prismatic
_cell_formula_units_Z            2
loop_
_atom_site_label
_atom_site_type_symbol
_atom_site_fract_x
_atom_site_fract_y
_atom_site_fract_z
Br1 Br 0.66619(3) -0.24638(3) 0.55915(3)
N1 N 0.59057(18) 0.20908(18) 0.94948(19)
O1 O 0.79929(15) 0.08451(15) 0.72158(16)
C1 C 0.7411(2) 0.0786(2) 0.8165(2)
C2 C 0.6645(2) 0.1828(2) 0.8530(2)
C3 C 0.6763(2) 0.2567(2) 0.7758(2)
H1 H 0.6346 0.3333 0.7780
C4 C 0.7585(2) 0.1950(2) 0.6998(2)
C5 C 0.8178(2) 0.2287(2) 0.6112(2)
C6 C 0.7694(3) 0.3266(2) 0.5684(2)
H2 H 0.6954 0.3670 0.5914
C7 C 0.8303(3) 0.3648(3) 0.4913(3)
H3 H 0.7980 0.4316 0.4642
C8 C 0.9388(3) 0.3037(3) 0.4550(3)
H4 H 0.9796 0.3292 0.4032
C9 C 0.9866(3) 0.2056(3) 0.4953(3)
H5 H 1.0596 0.1642 0.4703
C10 C 0.9269(3) 0.1676(3) 0.5730(3)
H6 H 0.9600 0.1007 0.5998
C11 C 0.7758(2) -0.0289(2) 0.8607(2)
C12 C 0.8321(2) 0.0115(2) 1.0082(2)
H7 H 0.8440 0.1071 1.0776
C13 C 0.8710(2) -0.0856(2) 1.0548(3)
H8 H 0.9074 -0.0546 1.1544
C14 C 0.8565(2) -0.2286(2) 0.9554(3)
C15 C 0.7986(2) -0.2710(2) 0.8086(3)
H9 H 0.7870 -0.3666 0.7396
C16 C 0.7578(2) -0.1738(2) 0.7628(2)
C17 C 0.9005(3) -0.3355(3) 1.0047(3)
H10 H 0.8623 -0.4308 0.9238
H11 H 0.8673 -0.3219 1.0814
H12 H 1.0001 -0.3220 1.0401
C18 C 0.6166(2) 0.3631(2) 1.0581(2)
H13 H 0.5862 0.4164 1.0059
C19 C 0.7702(3) 0.4163(3) 1.1454(3)
H14 H 0.8020 0.3623 1.1940
H15 H 0.7864 0.5157 1.2166
H16 H 0.8196 0.4046 1.0810
C20 C 0.5378(3) 0.3908(3) 1.1610(3)
H17 H 0.4399 0.3710 1.1077
H18 H 0.5659 0.4892 1.2370
H19 H 0.5577 0.3299 1.2035
C21 C 0.4416(2) 0.1376(2) 0.8719(3)
H20 H 0.4005 0.1609 0.9473
C22 C 0.3578(3) 0.1882(4) 0.7704(4)
H21 H 0.3666 0.2903 0.8236
H22 H 0.2618 0.1435 0.7316
H23 H 0.3917 0.1630 0.6917
C23 C 0.4286(3) -0.0231(3) 0.7932(3)
H24 H 0.4562 -0.0520 0.7099
H25 H 0.3339 -0.0680 0.7615
H26 H 0.4874 -0.0516 0.8582
loop_
_geom_bond_atom_site_label_1
_geom_bond_atom_site_label_2
_geom_bond_site_symmetry_1
_geom_bond_site_symmetry_2
Br1 C16 1_555 1_555
N1 C2 1_555 1_555
O1 C1 1_555 1_555
C1 C2 1_555 1_555
C2 C3 1_555 1_555
C3 H1 1_555 1_555
C4 O1 1_555 1_555
C5 C4 1_555 1_555
C6 C5 1_555 1_555
H2 C6 1_555 1_555
C7 C6 1_555 1_555
H3 C7 1_555 1_555
C8 C7 1_555 1_555
H4 C8 1_555 1_555
C9 C8 1_555 1_555
H5 C9 1_555 1_555
C10 C5 1_555 1_555
H6 C10 1_555 1_555
C11 C1 1_555 1_555
C12 C11 1_555 1_555
H7 C12 1_555 1_555
C13 C12 1_555 1_555
H8 C13 1_555 1_555
C14 C13 1_555 1_555
C15 C14 1_555 1_555
H9 C15 1_555 1_555
C16 C11 1_555 1_555
C17 C14 1_555 1_555
H10 C17 1_555 1_555
H11 C17 1_555 1_555
H12 C17 1_555 1_555
C18 N1 1_555 1_555
H13 C18 1_555 1_555
C19 C18 1_555 1_555
H14 C19 1_555 1_555
H15 C19 1_555 1_555
H16 C19 1_555 1_555
C20 C18 1_555 1_555
H17 C20 1_555 1_555
H18 C20 1_555 1_555
H19 C20 1_555 1_555
C21 N1 1_555 1_555
H20 C21 1_555 1_555
C22 C21 1_555 1_555
H21 C22 1_555 1_555
H22 C22 1_555 1_555
H23 C22 1_555 1_555
C23 C21 1_555 1_555
H24 C23 1_555 1_555
H25 C23 1_555 1_555
H26 C23 1_555 1_555
C3 C4 1_555 1_555
C9 C10 1_555 1_555
C15 C16 1_555 1_555

#END
