
#######################################################################
#
#                 Cambridge Crystallographic Data Centre
#                                CCDC 
#
#######################################################################
#
# If this CIF has been generated from an entry in the Cambridge 
# Structural Database, then it will include bibliographic, chemical, 
# crystal, experimental, refinement or atomic coordinate data resulting 
# from the CCDC's data processing and validation procedures.
#
#######################################################################

data_ZUWPOY
_chemical_formula_moiety         'C30 H25 Br1 N2 O3 S1'
_chemical_name_systematic        
'(S,E)-N-(3-(2-(2-(4-Bromophenyl)vinyl)-3-methyl-3H-indol-3-yl)-4-hydroxyphenyl)-4-methylbenzenesulfonamide unknown solvate'
_symmetry_cell_setting           monoclinic
_symmetry_space_group_name_H-M   'P 21'
_symmetry_Int_Tables_number      4
_space_group_name_Hall           'P 2yb'
loop_
_symmetry_equiv_pos_site_id
_symmetry_equiv_pos_as_xyz
1 x,y,z
2 -x,1/2+y,-z
_cell_length_a                   15.4471(8)
_cell_length_b                   8.9128(5)
_cell_length_c                   22.8902(11)
_cell_angle_alpha                90
_cell_angle_beta                 100.467(3)
_cell_angle_gamma                90
_cell_volume                     3099.01
_exptl_crystal_colour            colorless
_exptl_crystal_description       block
_cell_formula_units_Z            4
loop_
_atom_site_label
_atom_site_type_symbol
_atom_site_fract_x
_atom_site_fract_y
_atom_site_fract_z
Br1 Br 0.25811(6) 0.32459(13) 0.18954(4)
S1 S 0.47009(15) -0.5098(3) 0.53425(10)
O1 O 0.0716(3) -0.2384(6) 0.5012(3)
H1 H 0.0398 -0.3124 0.5004
O2 O 0.5589(4) -0.5082(9) 0.5247(3)
O3 O 0.4256(5) -0.6500(7) 0.5303(3)
N1 N 0.0705(3) 0.0903(6) 0.5491(2)
N2 N 0.4161(4) -0.3954(7) 0.4838(3)
H2 H 0.4405 -0.3583 0.4561
C1 C 0.0868(4) 0.0057(8) 0.6034(3)
C2 C 0.0403(5) 0.0057(9) 0.6501(4)
H3 H -0.0090 0.0663 0.6490
C3 C 0.0692(5) -0.0865(10) 0.6980(4)
H4 H 0.0376 -0.0905 0.7289
C4 C 0.1434(6) -0.1721(10) 0.7011(3)
H5 H 0.1613 -0.2324 0.7343
C5 C 0.1916(5) -0.1710(9) 0.6567(3)
H6 H 0.2415 -0.2307 0.6591
C6 C 0.1642(4) -0.0780(8) 0.6075(3)
C7 C 0.2044(4) -0.0433(7) 0.5546(3)
C8 C 0.2889(4) 0.0549(8) 0.5755(3)
H7 H 0.3277 0.0035 0.6066
H8 H 0.2721 0.1495 0.5901
H9 H 0.3184 0.0717 0.5426
C9 C 0.1337(4) 0.0559(7) 0.5209(3)
C10 C 0.1382(5) 0.1265(8) 0.4634(3)
H10 H 0.0975 0.2007 0.4492
C11 C 0.1975(5) 0.0891(9) 0.4313(3)
H11 H 0.2375 0.0156 0.4476
C12 C 0.2092(4) 0.1482(8) 0.3729(3)
C13 C 0.1645(5) 0.2684(9) 0.3472(3)
H12 H 0.1238 0.3162 0.3662
C14 C 0.1789(6) 0.3216(11) 0.2926(4)
H13 H 0.1471 0.4038 0.2753
C15 C 0.2369(5) 0.2572(9) 0.2652(3)
C16 C 0.2849(6) 0.1317(9) 0.2909(3)
H14 H 0.3264 0.0847 0.2724
C17 C 0.2678(6) 0.0823(10) 0.3441(4)
H15 H 0.2982 -0.0013 0.3613
C18 C 0.2239(4) -0.1876(7) 0.5215(2)
C19 C 0.1549(5) -0.2828(8) 0.4968(3)
C20 C 0.1718(5) -0.4138(9) 0.4697(4)
H16 H 0.1258 -0.4780 0.4544
C21 C 0.2557(6) -0.4501(9) 0.4651(3)
H17 H 0.2665 -0.5384 0.4460
C22 C 0.3238(5) -0.3593(8) 0.4880(3)
C23 C 0.3071(4) -0.2314(7) 0.5169(3)
H18 H 0.3543 -0.1718 0.5342
C24 C 0.4654(5) -0.4310(10) 0.6030(4)
C25 C 0.4144(6) -0.4953(12) 0.6399(5)
H19 H 0.3814 -0.5810 0.6281
C26 C 0.4130(9) -0.4299(17) 0.6950(6)
H20 H 0.3802 -0.4756 0.7203
C27 C 0.4582(10) -0.3006(19) 0.7134(5)
C28 C 0.5037(7) -0.2371(13) 0.6760(6)
H21 H 0.5330 -0.1473 0.6868
C29 C 0.5093(6) -0.3018(12) 0.6202(4)
H22 H 0.5428 -0.2558 0.5954
C30 C 0.4568(10) -0.2307(18) 0.7755(5)
H23 H 0.3972 -0.2256 0.7820
H24 H 0.4814 -0.1315 0.7772
H25 H 0.4910 -0.2920 0.8057
Br2 Br 0.39677(11) 0.68586(16) 0.32681(5)
S2 S 0.45452(14) 1.5262(3) -0.03783(10)
O4 O 0.0787(3) 1.2759(6) 0.0073(3)
H26 H 0.0605 1.2973 0.0378
O5 O 0.4120(4) 1.6699(7) -0.0418(3)
O6 O 0.5488(3) 1.5223(8) -0.0298(3)
N3 N 0.0471(3) 0.9507(6) -0.0396(3)
N4 N 0.4288(4) 1.4351(7) 0.0182(3)
H27 H 0.4685 1.4121 0.0483
C31 C 0.0395(4) 1.0277(8) -0.0920(3)
C32 C -0.0294(5) 1.0243(11) -0.1383(4)
H28 H -0.0782 0.9643 -0.1370
C33 C -0.0248(8) 1.1141(13) -0.1884(4)
H29 H -0.0730 1.1193 -0.2192
C34 C 0.0519(7) 1.1958(12) -0.1922(4)
H30 H 0.0549 1.2528 -0.2258
C35 C 0.1220(5) 1.1907(10) -0.1460(4)
H31 H 0.1732 1.2444 -0.1477
C36 C 0.1154(4) 1.1054(8) -0.0977(3)
C37 C 0.1817(4) 1.0757(7) -0.0429(3)
C38 C 0.2524(4) 0.9725(8) -0.0608(3)
H32 H 0.2274 0.8756 -0.0716
H33 H 0.3005 0.9621 -0.0280
H34 H 0.2736 1.0153 -0.0941
C39 C 0.1240(4) 0.9785(8) -0.0094(3)
C40 C 0.1542(5) 0.9150(8) 0.0489(3)
H35 H 0.1157 0.8529 0.0646
C41 C 0.2355(5) 0.9401(8) 0.0825(4)
H36 H 0.2727 1.0028 0.0660
C42 C 0.2711(6) 0.8790(9) 0.1421(4)
C43 C 0.3581(6) 0.8897(12) 0.1623(4)
H37 H 0.3938 0.9378 0.1395
C44 C 0.3962(7) 0.8277(18) 0.2186(5)
H38 H 0.4565 0.8354 0.2323
C45 C 0.3450(11) 0.7584(11) 0.2516(5)
C46 C 0.2585(9) 0.7485(13) 0.2301(6)
H39 H 0.2224 0.7039 0.2535
C47 C 0.2208(7) 0.8009(12) 0.1751(5)
H40 H 0.1615 0.7837 0.1603
C48 C 0.2186(4) 1.2208(7) -0.0113(3)
C49 C 0.1641(4) 1.3188(8) 0.0129(3)
C50 C 0.1957(5) 1.4512(9) 0.0360(4)
H41 H 0.1579 1.5165 0.0508
C51 C 0.2825(5) 1.4928(9) 0.0386(3)
H42 H 0.3035 1.5842 0.0549
C52 C 0.3372(4) 1.3935(8) 0.0161(3)
C53 C 0.3056(4) 1.2583(8) -0.0080(3)
H43 H 0.3434 1.1919 -0.0221
C54 C 0.4104(5) 1.4180(10) -0.1011(4)
C55 C 0.3386(6) 1.4716(11) -0.1402(4)
H44 H 0.3123 1.5627 -0.1340
C56 C 0.3074(6) 1.3821(16) -0.1896(4)
H45 H 0.2600 1.4175 -0.2171
C57 C 0.3426(8) 1.2435(17) -0.2002(5)
C58 C 0.4125(8) 1.1971(14) -0.1606(5)
H46 H 0.4380 1.1050 -0.1663
C59 C 0.4486(5) 1.2851(11) -0.1100(4)
H47 H 0.4977 1.2518 -0.0835
C60 C 0.3092(9) 1.1547(15) -0.2502(5)
H48 H 0.2623 1.2075 -0.2752
H49 H 0.2871 1.0620 -0.2374
H50 H 0.3553 1.1341 -0.2721
loop_
_geom_bond_atom_site_label_1
_geom_bond_atom_site_label_2
_geom_bond_site_symmetry_1
_geom_bond_site_symmetry_2
Br1 C15 1_555 1_555
S1 O2 1_555 1_555
O1 H1 1_555 1_555
O3 S1 1_555 1_555
N1 C1 1_555 1_555
N2 S1 1_555 1_555
H2 N2 1_555 1_555
C1 C2 1_555 1_555
C2 H3 1_555 1_555
C3 C2 1_555 1_555
H4 C3 1_555 1_555
C4 C3 1_555 1_555
H5 C4 1_555 1_555
C5 C4 1_555 1_555
H6 C5 1_555 1_555
C6 C1 1_555 1_555
C7 C6 1_555 1_555
C8 C7 1_555 1_555
H7 C8 1_555 1_555
H8 C8 1_555 1_555
H9 C8 1_555 1_555
C9 N1 1_555 1_555
C10 C9 1_555 1_555
H10 C10 1_555 1_555
C11 C10 1_555 1_555
H11 C11 1_555 1_555
C12 C11 1_555 1_555
C13 C12 1_555 1_555
H12 C13 1_555 1_555
C14 C13 1_555 1_555
H13 C14 1_555 1_555
C15 C14 1_555 1_555
C16 C15 1_555 1_555
H14 C16 1_555 1_555
C17 C12 1_555 1_555
H15 C17 1_555 1_555
C18 C7 1_555 1_555
C19 O1 1_555 1_555
C20 C19 1_555 1_555
H16 C20 1_555 1_555
C21 C20 1_555 1_555
H17 C21 1_555 1_555
C22 N2 1_555 1_555
C23 C18 1_555 1_555
H18 C23 1_555 1_555
C24 S1 1_555 1_555
C25 C24 1_555 1_555
H19 C25 1_555 1_555
C26 C25 1_555 1_555
H20 C26 1_555 1_555
C27 C26 1_555 1_555
C28 C27 1_555 1_555
H21 C28 1_555 1_555
C29 C24 1_555 1_555
H22 C29 1_555 1_555
C30 C27 1_555 1_555
H23 C30 1_555 1_555
H24 C30 1_555 1_555
H25 C30 1_555 1_555
Br2 C45 1_555 1_555
S2 O5 1_555 1_555
O4 H26 1_555 1_555
O6 S2 1_555 1_555
N3 C31 1_555 1_555
N4 S2 1_555 1_555
H27 N4 1_555 1_555
C31 C32 1_555 1_555
C32 H28 1_555 1_555
C33 C32 1_555 1_555
H29 C33 1_555 1_555
C34 C33 1_555 1_555
H30 C34 1_555 1_555
C35 C34 1_555 1_555
H31 C35 1_555 1_555
C36 C31 1_555 1_555
C37 C36 1_555 1_555
C38 C37 1_555 1_555
H32 C38 1_555 1_555
H33 C38 1_555 1_555
H34 C38 1_555 1_555
C39 N3 1_555 1_555
C40 C39 1_555 1_555
H35 C40 1_555 1_555
C41 C40 1_555 1_555
H36 C41 1_555 1_555
C42 C41 1_555 1_555
C43 C42 1_555 1_555
H37 C43 1_555 1_555
C44 C43 1_555 1_555
H38 C44 1_555 1_555
C45 C44 1_555 1_555
C46 C45 1_555 1_555
H39 C46 1_555 1_555
C47 C42 1_555 1_555
H40 C47 1_555 1_555
C48 C37 1_555 1_555
C49 O4 1_555 1_555
C50 C49 1_555 1_555
H41 C50 1_555 1_555
C51 C50 1_555 1_555
H42 C51 1_555 1_555
C52 N4 1_555 1_555
C53 C48 1_555 1_555
H43 C53 1_555 1_555
C54 S2 1_555 1_555
C55 C54 1_555 1_555
H44 C55 1_555 1_555
C56 C55 1_555 1_555
H45 C56 1_555 1_555
C57 C56 1_555 1_555
C58 C57 1_555 1_555
H46 C58 1_555 1_555
C59 C54 1_555 1_555
H47 C59 1_555 1_555
C60 C57 1_555 1_555
H48 C60 1_555 1_555
H49 C60 1_555 1_555
H50 C60 1_555 1_555
C5 C6 1_555 1_555
C7 C9 1_555 1_555
C16 C17 1_555 1_555
C18 C19 1_555 1_555
C21 C22 1_555 1_555
C22 C23 1_555 1_555
C28 C29 1_555 1_555
C35 C36 1_555 1_555
C37 C39 1_555 1_555
C46 C47 1_555 1_555
C48 C49 1_555 1_555
C51 C52 1_555 1_555
C52 C53 1_555 1_555
C58 C59 1_555 1_555

#END
