
#######################################################################
#
#                 Cambridge Crystallographic Data Centre
#                                CCDC 
#
#######################################################################
#
# If this CIF has been generated from an entry in the Cambridge 
# Structural Database, then it will include bibliographic, chemical, 
# crystal, experimental, refinement or atomic coordinate data resulting 
# from the CCDC's data processing and validation procedures.
#
#######################################################################

data_ZUWPEO
_chemical_formula_moiety         'C21 H23 Br1 O5'
_chemical_name_systematic        
'Methyl 5-bromo-2-hydroxy-6,8-dimethoxy-2-methyl-1-phenyl-1,2,3,4-tetrahydronaphthalene-1-carboxylate'
_symmetry_cell_setting           monoclinic
_symmetry_space_group_name_H-M   'P 21/c'
_symmetry_Int_Tables_number      14
_space_group_name_Hall           '-P 2ybc'
loop_
_symmetry_equiv_pos_site_id
_symmetry_equiv_pos_as_xyz
1 x,y,z
2 -x,1/2+y,1/2-z
3 -x,-y,-z
4 x,1/2-y,1/2+z
_cell_length_a                   9.2166(3)
_cell_length_b                   9.0685(3)
_cell_length_c                   23.2491(8)
_cell_angle_alpha                90
_cell_angle_beta                 99.0800(10)
_cell_angle_gamma                90
_cell_volume                     1918.83
_exptl_crystal_colour            colorless
_exptl_crystal_description       block
_cell_formula_units_Z            4
loop_
_atom_site_label
_atom_site_type_symbol
_atom_site_fract_x
_atom_site_fract_y
_atom_site_fract_z
Br1 Br 0.40949(8) 0.55082(8) 0.21379(3)
O1 O 0.9900(7) 0.2367(7) 0.0501(3)
O2 O 0.9354(5) 0.4362(5) 0.0965(3)
O3 O 0.9675(4) 0.2353(5) 0.19074(19)
O4 O 0.6568(6) 0.4389(4) 0.0266(2)
H1 H 0.7365 0.4677 0.0436
O5 O 0.6633(6) 0.5010(6) 0.3052(2)
C1 C 0.7305(6) 0.3097(6) 0.1486(2)
C2 C 0.8416(6) 0.3045(6) 0.1976(3)
C3 C 0.8209(6) 0.3649(7) 0.2503(3)
H2 H 0.8949 0.3584 0.2824
C4 C 0.6900(7) 0.4350(6) 0.2554(3)
C5 C 0.5836(7) 0.4421(6) 0.2067(3)
C6 C 0.5973(6) 0.3747(6) 0.1549(2)
C7 C 0.4680(7) 0.3692(7) 0.1060(3)
H3 H 0.3812 0.3397 0.1218
H4 H 0.4506 0.4675 0.0899
C8 C 0.4895(7) 0.2655(7) 0.0581(3)
H5 H 0.4132 0.2827 0.0250
H6 H 0.4792 0.1651 0.0713
C9 C 0.6394(7) 0.2827(7) 0.0388(3)
C10 C 0.7641(6) 0.2387(6) 0.0912(2)
C11 C 0.7641(6) 0.0662(6) 0.0984(2)
C12 C 0.6830(7) 0.0039(7) 0.1372(3)
H7 H 0.6333 0.0651 0.1596
C13 C 0.6736(8) -0.1483(8) 0.1436(3)
H8 H 0.6164 -0.1873 0.1695
C14 C 0.7476(9) -0.2406(8) 0.1122(3)
H9 H 0.7444 -0.3423 0.1171
C15 C 0.8274(8) -0.1791(8) 0.0727(3)
H10 H 0.8756 -0.2410 0.0500
C16 C 0.8376(8) -0.0278(7) 0.0659(3)
H11 H 0.8937 0.0106 0.0396
C17 C 0.6506(9) 0.2003(8) -0.0162(3)
H12 H 0.5727 0.2307 -0.0462
H13 H 0.6428 0.0964 -0.0094
H14 H 0.7436 0.2212 -0.0281
C18 C 0.9086(7) 0.2975(8) 0.0774(3)
C19 C 1.0736(9) 0.4985(11) 0.0859(5)
H15 H 1.0827 0.5975 0.1006
H16 H 1.0761 0.4993 0.0447
H17 H 1.1534 0.4399 0.1052
C20 C 1.0960(8) 0.2611(10) 0.2324(4)
H18 H 1.1764 0.2050 0.2220
H19 H 1.0782 0.2316 0.2703
H20 H 1.1201 0.3642 0.2329
C21 C 0.7651(11) 0.4821(11) 0.3571(3)
H21 H 0.7314 0.5348 0.3883
H22 H 0.8593 0.5195 0.3515
H23 H 0.7735 0.3792 0.3667
loop_
_geom_bond_atom_site_label_1
_geom_bond_atom_site_label_2
_geom_bond_site_symmetry_1
_geom_bond_site_symmetry_2
Br1 C5 1_555 1_555
O1 C18 1_555 1_555
O2 C18 1_555 1_555
O3 C2 1_555 1_555
O4 H1 1_555 1_555
O5 C4 1_555 1_555
C1 C2 1_555 1_555
C2 C3 1_555 1_555
C3 H2 1_555 1_555
C4 C3 1_555 1_555
C5 C4 1_555 1_555
C6 C1 1_555 1_555
C7 C6 1_555 1_555
H3 C7 1_555 1_555
H4 C7 1_555 1_555
C8 C7 1_555 1_555
H5 C8 1_555 1_555
H6 C8 1_555 1_555
C9 O4 1_555 1_555
C10 C1 1_555 1_555
C11 C10 1_555 1_555
C12 C11 1_555 1_555
H7 C12 1_555 1_555
C13 C12 1_555 1_555
H8 C13 1_555 1_555
C14 C13 1_555 1_555
H9 C14 1_555 1_555
C15 C14 1_555 1_555
H10 C15 1_555 1_555
C16 C11 1_555 1_555
H11 C16 1_555 1_555
C17 C9 1_555 1_555
H12 C17 1_555 1_555
H13 C17 1_555 1_555
H14 C17 1_555 1_555
C18 C10 1_555 1_555
C19 O2 1_555 1_555
H15 C19 1_555 1_555
H16 C19 1_555 1_555
H17 C19 1_555 1_555
C20 O3 1_555 1_555
H18 C20 1_555 1_555
H19 C20 1_555 1_555
H20 C20 1_555 1_555
C21 O5 1_555 1_555
H21 C21 1_555 1_555
H22 C21 1_555 1_555
H23 C21 1_555 1_555
C5 C6 1_555 1_555
C8 C9 1_555 1_555
C9 C10 1_555 1_555
C15 C16 1_555 1_555

#END
