
#######################################################################
#
#                 Cambridge Crystallographic Data Centre
#                                CCDC 
#
#######################################################################
#
# If this CIF has been generated from an entry in the Cambridge 
# Structural Database, then it will include bibliographic, chemical, 
# crystal, experimental, refinement or atomic coordinate data resulting 
# from the CCDC's data processing and validation procedures.
#
#######################################################################

data_ZUWQIT
_chemical_formula_moiety         'C26 H28 N2 O6'
_chemical_name_systematic        
"Diethyl 1-methyl-2'-(4-methylphenyl)-2,6'-dioxo-1,2-dihydrospiro[indole-3,3'-piperidine]-4',5'-dicarboxylate"
_symmetry_cell_setting           monoclinic
_symmetry_space_group_name_H-M   'P 21'
_symmetry_Int_Tables_number      4
_space_group_name_Hall           'P 2yb'
loop_
_symmetry_equiv_pos_site_id
_symmetry_equiv_pos_as_xyz
1 x,y,z
2 -x,1/2+y,-z
_cell_length_a                   10.5619(3)
_cell_length_b                   14.9978(3)
_cell_length_c                   16.0073(5)
_cell_angle_alpha                90
_cell_angle_beta                 109.011(4)
_cell_angle_gamma                90
_cell_volume                     2397.34
_exptl_crystal_colour            colorless
_exptl_crystal_description       needle
_cell_formula_units_Z            4
loop_
_atom_site_label
_atom_site_type_symbol
_atom_site_fract_x
_atom_site_fract_y
_atom_site_fract_z
O1 O 0.7879(4) 0.6426(3) 0.6403(3)
O2 O 0.9882(5) 0.3276(3) 0.8692(3)
O3 O 1.1354(7) 0.6254(4) 0.9448(5)
O4 O 1.1807(5) 0.4818(4) 0.9567(3)
O5 O 1.0526(5) 0.7383(3) 0.7516(4)
O6 O 1.1008(5) 0.5999(3) 0.7149(3)
N1 N 0.7380(5) 0.5244(4) 0.7107(3)
H1 H 0.6574 0.5232 0.6711
N2 N 0.9370(6) 0.3845(4) 0.9880(4)
C1 C 0.7697(6) 0.4501(4) 0.7734(4)
H2 H 0.8051 0.4007 0.7453
C2 C 0.8821(6) 0.4748(4) 0.8602(4)
C3 C 0.9943(6) 0.5264(4) 0.8365(4)
H3 H 1.0292 0.4874 0.7983
C4 C 0.9362(6) 0.6109(4) 0.7851(4)
H4 H 0.9103 0.6525 0.8255
C5 C 0.8134(6) 0.5933(4) 0.7051(4)
C6 C 0.9450(6) 0.3855(4) 0.9037(4)
C7 C 0.8773(6) 0.4625(5) 1.0053(4)
C8 C 0.8543(8) 0.4847(6) 1.0836(5)
H5 H 0.8816 0.4462 1.1334
C9 C 0.7907(9) 0.5646(6) 1.0865(5)
H6 H 0.7738 0.5813 1.1392
C10 C 0.7505(8) 0.6215(6) 1.0128(5)
H7 H 0.7068 0.6762 1.0159
C11 C 0.7746(7) 0.5979(5) 0.9348(5)
H8 H 0.7469 0.6357 0.8845
C12 C 0.8397(6) 0.5184(4) 0.9325(4)
C13 C 0.6408(7) 0.4159(4) 0.7863(4)
C14 C 0.6292(7) 0.3240(5) 0.7990(5)
H9 H 0.7001 0.2846 0.8001
C15 C 0.5120(8) 0.2914(5) 0.8101(5)
H10 H 0.5030 0.2291 0.8171
C16 C 0.4091(8) 0.3473(6) 0.8112(5)
C17 C 0.4233(8) 0.4376(5) 0.7999(5)
H11 H 0.3539 0.4774 0.8010
C18 C 0.5387(7) 0.4708(5) 0.7869(4)
H12 H 0.5461 0.5330 0.7784
C19 C 1.1108(7) 0.5511(4) 0.9194(4)
C20 C 1.2915(8) 0.4957(6) 1.0393(5)
H13 H 1.2627 0.5375 1.0775
H14 H 1.3148 0.4382 1.0711
C21 C 1.4097(9) 0.5317(8) 1.0226(7)
H15 H 1.4440 0.4877 0.9901
H16 H 1.4790 0.5452 1.0789
H17 H 1.3853 0.5864 0.9874
C22 C 1.0378(6) 0.6592(4) 0.7493(4)
C23 C 1.1794(8) 0.6386(6) 0.6623(6)
H18 H 1.2229 0.6945 0.6901
H19 H 1.2502 0.5963 0.6600
C24 C 1.0890(10) 0.6569(7) 0.5724(6)
H20 H 1.1415 0.6770 0.5355
H21 H 1.0250 0.7034 0.5746
H22 H 1.0403 0.6023 0.5472
C25 C 0.9963(9) 0.3144(6) 1.0508(6)
H23 H 1.0194 0.2638 1.0197
H24 H 0.9322 0.2950 1.0796
H25 H 1.0775 0.3369 1.0954
C26 C 0.2833(9) 0.3120(7) 0.8249(6)
H26 H 0.2859 0.3246 0.8855
H27 H 0.2774 0.2475 0.8148
H28 H 0.2049 0.3411 0.7832
O7 O 0.3050(6) 0.2623(4) 0.2170(4)
O8 O 0.5318(5) 0.4770(3) 0.5516(3)
O9 O 0.5339(7) 0.5619(4) 0.2632(4)
O10 O 0.6287(6) 0.5717(4) 0.4092(3)
O11 O 0.6411(6) 0.3188(4) 0.3044(3)
O12 O 0.5291(5) 0.3474(4) 0.1637(3)
N3 N 0.2755(6) 0.3251(4) 0.3373(4)
H29 H 0.2043 0.2917 0.3303
N4 N 0.3972(6) 0.5953(4) 0.4888(4)
C27 C 0.3193(7) 0.3796(4) 0.4168(4)
H30 H 0.3922 0.3465 0.4621
C28 C 0.3779(6) 0.4689(4) 0.3985(4)
C29 C 0.4875(6) 0.4484(4) 0.3559(4)
H31 H 0.5586 0.4116 0.3986
C30 C 0.4303(6) 0.3948(4) 0.2702(4)
H32 H 0.3847 0.4366 0.2209
C31 C 0.3325(6) 0.3203(5) 0.2732(4)
C32 C 0.4467(6) 0.5128(4) 0.4894(4)
C33 C 0.2999(7) 0.6144(4) 0.4067(4)
C34 C 0.2277(8) 0.6928(5) 0.3802(5)
H33 H 0.2418 0.7429 0.4184
C35 C 0.1346(7) 0.6953(5) 0.2959(5)
H34 H 0.0834 0.7479 0.2764
C36 C 0.1148(7) 0.6235(6) 0.2402(5)
H35 H 0.0505 0.6270 0.1828
C37 C 0.1881(7) 0.5457(5) 0.2671(4)
H36 H 0.1751 0.4965 0.2278
C38 C 0.2805(6) 0.5399(4) 0.3517(4)
C39 C 0.2028(7) 0.3913(4) 0.4532(4)
C40 C 0.0699(7) 0.3964(5) 0.3984(4)
H37 H 0.0493 0.3931 0.3361
C41 C -0.0310(8) 0.4060(5) 0.4338(5)
H38 H -0.1210 0.4078 0.3953
C42 C -0.0058(8) 0.4133(5) 0.5250(5)
C43 C 0.1260(9) 0.4088(5) 0.5779(5)
H39 H 0.1463 0.4140 0.6400
C44 C 0.2303(7) 0.3970(5) 0.5442(5)
H40 H 0.3199 0.3929 0.5830
C45 C 0.5527(7) 0.5325(5) 0.3357(4)
C46 C 0.6943(11) 0.6549(6) 0.4006(6)
H41 H 0.6281 0.6944 0.3589
H42 H 0.7251 0.6851 0.4588
C47 C 0.8081(10) 0.6429(7) 0.3695(7)
H43 H 0.7760 0.6325 0.3056
H44 H 0.8609 0.5915 0.3994
H45 H 0.8641 0.6965 0.3826
C48 C 0.5457(7) 0.3490(5) 0.2494(4)
C49 C 0.6282(8) 0.2971(7) 0.1371(6)
H46 H 0.6273 0.2339 0.1546
H47 H 0.7188 0.3215 0.1673
C50 C 0.5975(10) 0.3032(8) 0.0406(6)
H48 H 0.5099 0.2762 0.0109
H49 H 0.6664 0.2715 0.0235
H50 H 0.5959 0.3660 0.0233
C51 C 0.4487(8) 0.6601(5) 0.5600(5)
H51 H 0.4345 0.6377 0.6138
H52 H 0.4013 0.7168 0.5429
H53 H 0.5446 0.6692 0.5711
C52 C -0.1194(10) 0.4272(6) 0.5618(7)
H54 H -0.0932 0.4044 0.6225
H55 H -0.1990 0.3953 0.5251
H56 H -0.1395 0.4910 0.5617
loop_
_geom_bond_atom_site_label_1
_geom_bond_atom_site_label_2
_geom_bond_site_symmetry_1
_geom_bond_site_symmetry_2
O1 C5 1_555 1_555
O2 C6 1_555 1_555
O3 C19 1_555 1_555
O4 C19 1_555 1_555
O5 C22 1_555 1_555
O6 C22 1_555 1_555
N1 H1 1_555 1_555
N2 C6 1_555 1_555
C1 N1 1_555 1_555
H2 C1 1_555 1_555
C2 C1 1_555 1_555
C3 C2 1_555 1_555
H3 C3 1_555 1_555
C4 C3 1_555 1_555
H4 C4 1_555 1_555
C5 N1 1_555 1_555
C6 C2 1_555 1_555
C7 N2 1_555 1_555
C8 C7 1_555 1_555
H5 C8 1_555 1_555
C9 C8 1_555 1_555
H6 C9 1_555 1_555
C10 C9 1_555 1_555
H7 C10 1_555 1_555
C11 C10 1_555 1_555
H8 C11 1_555 1_555
C12 C2 1_555 1_555
C13 C1 1_555 1_555
C14 C13 1_555 1_555
H9 C14 1_555 1_555
C15 C14 1_555 1_555
H10 C15 1_555 1_555
C16 C15 1_555 1_555
C17 C16 1_555 1_555
H11 C17 1_555 1_555
C18 C13 1_555 1_555
H12 C18 1_555 1_555
C19 C3 1_555 1_555
C20 O4 1_555 1_555
H13 C20 1_555 1_555
H14 C20 1_555 1_555
C21 C20 1_555 1_555
H15 C21 1_555 1_555
H16 C21 1_555 1_555
H17 C21 1_555 1_555
C22 C4 1_555 1_555
C23 O6 1_555 1_555
H18 C23 1_555 1_555
H19 C23 1_555 1_555
C24 C23 1_555 1_555
H20 C24 1_555 1_555
H21 C24 1_555 1_555
H22 C24 1_555 1_555
C25 N2 1_555 1_555
H23 C25 1_555 1_555
H24 C25 1_555 1_555
H25 C25 1_555 1_555
C26 C16 1_555 1_555
H26 C26 1_555 1_555
H27 C26 1_555 1_555
H28 C26 1_555 1_555
O7 C31 1_555 1_555
O8 C32 1_555 1_555
O9 C45 1_555 1_555
O10 C45 1_555 1_555
O11 C48 1_555 1_555
O12 C48 1_555 1_555
N3 H29 1_555 1_555
N4 C32 1_555 1_555
C27 N3 1_555 1_555
H30 C27 1_555 1_555
C28 C27 1_555 1_555
C29 C28 1_555 1_555
H31 C29 1_555 1_555
C30 C29 1_555 1_555
H32 C30 1_555 1_555
C31 N3 1_555 1_555
C32 C28 1_555 1_555
C33 N4 1_555 1_555
C34 C33 1_555 1_555
H33 C34 1_555 1_555
C35 C34 1_555 1_555
H34 C35 1_555 1_555
C36 C35 1_555 1_555
H35 C36 1_555 1_555
C37 C36 1_555 1_555
H36 C37 1_555 1_555
C38 C28 1_555 1_555
C39 C27 1_555 1_555
C40 C39 1_555 1_555
H37 C40 1_555 1_555
C41 C40 1_555 1_555
H38 C41 1_555 1_555
C42 C41 1_555 1_555
C43 C42 1_555 1_555
H39 C43 1_555 1_555
C44 C39 1_555 1_555
H40 C44 1_555 1_555
C45 C29 1_555 1_555
C46 O10 1_555 1_555
H41 C46 1_555 1_555
H42 C46 1_555 1_555
C47 C46 1_555 1_555
H43 C47 1_555 1_555
H44 C47 1_555 1_555
H45 C47 1_555 1_555
C48 C30 1_555 1_555
C49 O12 1_555 1_555
H46 C49 1_555 1_555
H47 C49 1_555 1_555
C50 C49 1_555 1_555
H48 C50 1_555 1_555
H49 C50 1_555 1_555
H50 C50 1_555 1_555
C51 N4 1_555 1_555
H51 C51 1_555 1_555
H52 C51 1_555 1_555
H53 C51 1_555 1_555
C52 C42 1_555 1_555
H54 C52 1_555 1_555
H55 C52 1_555 1_555
H56 C52 1_555 1_555
C4 C5 1_555 1_555
C7 C12 1_555 1_555
C11 C12 1_555 1_555
C17 C18 1_555 1_555
C30 C31 1_555 1_555
C33 C38 1_555 1_555
C37 C38 1_555 1_555
C43 C44 1_555 1_555

#END
