
#######################################################################
#
#                 Cambridge Crystallographic Data Centre
#                                CCDC 
#
#######################################################################
#
# If this CIF has been generated from an entry in the Cambridge 
# Structural Database, then it will include bibliographic, chemical, 
# crystal, experimental, refinement or atomic coordinate data resulting 
# from the CCDC's data processing and validation procedures.
#
#######################################################################

data_ZUWWEV
_chemical_formula_moiety         'C25 H25 N1 O6 S1'
_chemical_name_systematic        
4-(4-(Methylsulfinyl)phenyl)-3-phenoxy-1-(3,4,5-trimethoxyphenyl)azetidin-2-one
_chemical_properties_biological  'antiproliferative activity'
_symmetry_cell_setting           triclinic
_symmetry_space_group_name_H-M   'P -1'
_symmetry_Int_Tables_number      2
_space_group_name_Hall           '-P 1'
loop_
_symmetry_equiv_pos_site_id
_symmetry_equiv_pos_as_xyz
1 x,y,z
2 -x,-y,-z
_cell_length_a                   9.5399(12)
_cell_length_b                   11.3922(14)
_cell_length_c                   11.7932(15)
_cell_angle_alpha                114.756(2)
_cell_angle_beta                 101.185(2)
_cell_angle_gamma                93.536(2)
_cell_volume                     1127.01
_exptl_crystal_colour            colorless
_exptl_crystal_description       plate
_cell_formula_units_Z            2
loop_
_atom_site_label
_atom_site_type_symbol
_atom_site_fract_x
_atom_site_fract_y
_atom_site_fract_z
O1 O 0.0611(3) 0.8790(2) 0.5293(2)
O2 O 0.2211(3) 0.9971(2) 0.7708(2)
O3 O 0.3851(3) 0.8688(2) 0.8716(2)
O4 O 0.3801(3) 0.3845(2) 0.5912(2)
O5 O 0.2625(3) 0.1860(2) 0.2843(2)
N1 N 0.2241(3) 0.4702(2) 0.4760(2)
C1 C 0.3100(5) -0.1538(4) 0.1754(4)
H1 H 0.3104 -0.2267 0.0970
C2 C 0.3308(5) -0.1675(4) 0.2881(5)
H2 H 0.3449 -0.2497 0.2872
C3 C 0.3310(4) -0.0633(4) 0.4001(4)
H3 H 0.3455 -0.0733 0.4774
C4 C 0.3104(4) 0.0573(3) 0.4038(4)
H4 H 0.3120 0.1301 0.4829
C5 C 0.2874(4) 0.0701(3) 0.2906(3)
C6 C 0.2888(4) -0.0347(3) 0.1758(4)
H5 H 0.2754 -0.0250 0.0984
C7 C 0.1944(3) 0.2676(3) 0.3766(3)
H6 H 0.1205 0.2157 0.3944
C8 C 0.2887(4) 0.3774(3) 0.5011(3)
C9 C 0.2267(3) 0.6043(3) 0.5496(3)
C10 C 0.1429(3) 0.6715(3) 0.4953(3)
H7 H 0.0877 0.6283 0.4087
C11 C 0.1414(3) 0.8034(3) 0.5704(3)
C12 C 0.2222(4) 0.8663(3) 0.6971(3)
C13 C 0.3093(4) 0.7982(3) 0.7482(3)
C14 C 0.3115(4) 0.6660(3) 0.6745(3)
H8 H 0.3701 0.6188 0.7093
C15 C 0.4953(4) 0.8117(3) 0.9202(3)
H9 H 0.5636 0.7894 0.8650
H10 H 0.4516 0.7322 0.9213
H11 H 0.5467 0.8742 1.0079
C16 C 0.1150(5) 1.0183(4) 0.8434(4)
H12 H 0.1165 0.9577 0.8828
H13 H 0.0192 1.0033 0.7866
H14 H 0.1361 1.1087 0.9110
C17 C -0.0227(4) 0.8191(3) 0.3999(3)
H15 H -0.0930 0.7457 0.3873
H16 H 0.0413 0.7869 0.3415
H17 H -0.0740 0.8836 0.3816
C18 C 0.2988(4) 0.4489(3) 0.2413(3)
H18 H 0.3741 0.4763 0.3171
C19 C 0.3259(5) 0.4623(3) 0.1364(3)
H19 H 0.4196 0.4995 0.1401
C20 C 0.2177(5) 0.4221(4) 0.0271(3)
C21 C 0.0790(5) 0.3690(5) 0.0208(4)
H20 H 0.0037 0.3420 -0.0549
C22 C 0.0534(4) 0.3564(4) 0.1260(3)
H21 H -0.0405 0.3204 0.1230
C23 C 0.1632(4) 0.3958(3) 0.2366(3)
C24 C 0.1316(3) 0.3784(3) 0.3486(3)
H22 H 0.0264 0.3756 0.3478
S1 S 0.2260(3) 0.4272(2) -0.12086(19)
O6 O 0.3215(5) 0.5580(4) -0.0710(4)
C25 C 0.348(3) 0.3102(17) -0.164(2)
H23 H 0.4304 0.3331 -0.0901
H24 H 0.3838 0.3115 -0.2362
H25 H 0.2973 0.2224 -0.1893
S2? S 0.2888(5) 0.4631(4) -0.0899(3)
O7? O 0.1557(7) 0.4600(6) -0.1810(6)
C26? C 0.348(2) 0.3074(17) -0.168(2)
H26? H 0.2710 0.2364 -0.1851
H27? H 0.4353 0.3032 -0.1113
H28? H 0.3685 0.2982 -0.2489
loop_
_geom_bond_atom_site_label_1
_geom_bond_atom_site_label_2
_geom_bond_site_symmetry_1
_geom_bond_site_symmetry_2
O1 C11 1_555 1_555
O2 C12 1_555 1_555
O3 C13 1_555 1_555
O4 C8 1_555 1_555
O5 C5 1_555 1_555
N1 C8 1_555 1_555
C1 H1 1_555 1_555
C2 C1 1_555 1_555
H2 C2 1_555 1_555
C3 C2 1_555 1_555
H3 C3 1_555 1_555
C4 C3 1_555 1_555
H4 C4 1_555 1_555
C5 C4 1_555 1_555
C6 C1 1_555 1_555
H5 C6 1_555 1_555
C7 O5 1_555 1_555
H6 C7 1_555 1_555
C8 C7 1_555 1_555
C9 N1 1_555 1_555
C10 C9 1_555 1_555
H7 C10 1_555 1_555
C11 C10 1_555 1_555
C12 C11 1_555 1_555
C13 C12 1_555 1_555
C14 C9 1_555 1_555
H8 C14 1_555 1_555
C15 O3 1_555 1_555
H9 C15 1_555 1_555
H10 C15 1_555 1_555
H11 C15 1_555 1_555
C16 O2 1_555 1_555
H12 C16 1_555 1_555
H13 C16 1_555 1_555
H14 C16 1_555 1_555
C17 O1 1_555 1_555
H15 C17 1_555 1_555
H16 C17 1_555 1_555
H17 C17 1_555 1_555
C18 H18 1_555 1_555
C19 C18 1_555 1_555
H19 C19 1_555 1_555
C20 C19 1_555 1_555
C21 C20 1_555 1_555
H20 C21 1_555 1_555
C22 C21 1_555 1_555
H21 C22 1_555 1_555
C23 C18 1_555 1_555
C24 N1 1_555 1_555
H22 C24 1_555 1_555
S1 C20 1_555 1_555
O6 S1 1_555 1_555
C25 S1 1_555 1_555
H23 C25 1_555 1_555
H24 C25 1_555 1_555
H25 C25 1_555 1_555
C5 C6 1_555 1_555
C7 C24 1_555 1_555
C13 C14 1_555 1_555
C22 C23 1_555 1_555
C23 C24 1_555 1_555

#END
