
#######################################################################
#
#                 Cambridge Crystallographic Data Centre
#                                CCDC 
#
#######################################################################
#
# If this CIF has been generated from an entry in the Cambridge 
# Structural Database, then it will include bibliographic, chemical, 
# crystal, experimental, refinement or atomic coordinate data resulting 
# from the CCDC's data processing and validation procedures.
#
#######################################################################

data_ZUWWUL
_chemical_formula_moiety         'C25 H26 N2 O6'
_chemical_name_systematic        
4-(3-Amino-4-methoxyphenyl)-3-phenoxy-1-(3,4,5-trimethoxyphenyl)azetidin-2-one
_chemical_properties_biological  'antiproliferative activity'
_symmetry_cell_setting           orthorhombic
_symmetry_space_group_name_H-M   'P b c a'
_symmetry_Int_Tables_number      61
_space_group_name_Hall           '-P 2ac 2ab'
loop_
_symmetry_equiv_pos_site_id
_symmetry_equiv_pos_as_xyz
1 x,y,z
2 1/2-x,-y,1/2+z
3 1/2+x,1/2-y,-z
4 -x,1/2+y,1/2-z
5 -x,-y,-z
6 1/2+x,y,1/2-z
7 1/2-x,1/2+y,z
8 x,1/2-y,1/2+z
_cell_length_a                   21.8994(19)
_cell_length_b                   7.6060(7)
_cell_length_c                   28.035(2)
_cell_angle_alpha                90
_cell_angle_beta                 90
_cell_angle_gamma                90
_cell_volume                     4669.7
_exptl_crystal_colour            colorless
_exptl_crystal_description       plate
_cell_formula_units_Z            8
loop_
_atom_site_label
_atom_site_type_symbol
_atom_site_fract_x
_atom_site_fract_y
_atom_site_fract_z
O1 O 0.77262(5) 0.54348(14) -0.02836(4)
N1 N 0.79669(5) 0.60255(16) 0.07994(4)
C1 C 0.81667(8) 0.3994(2) -0.14647(6)
H1 H 0.8003 0.3286 -0.1713
O2 O 0.69736(4) 0.68734(14) 0.05682(4)
N2 N 0.94494(7) 1.14813(19) 0.08258(6)
H2 H 0.9094(10) 1.194(3) 0.0792(8)
H3 H 0.9772(10) 1.215(3) 0.0748(8)
C2 C 0.87302(8) 0.4796(3) -0.15229(6)
H4 H 0.8953 0.4637 -0.1810
O3 O 1.05471(5) 1.00647(15) 0.06606(4)
C3 C 0.89668(8) 0.5824(3) -0.11632(6)
H5 H 0.9352 0.6378 -0.1206
O4 O 0.91126(6) 0.4464(2) 0.22114(4)
C4 C 0.86488(7) 0.6062(2) -0.07383(5)
H6 H 0.8816 0.6759 -0.0489
O5 O 0.80829(6) 0.43959(19) 0.27278(4)
C5 C 0.80846(7) 0.52649(19) -0.06850(5)
O6 O 0.69973(6) 0.4956(2) 0.23219(4)
C6 C 0.78431(7) 0.4224(2) -0.10461(5)
H7 H 0.7457 0.3673 -0.1005
C7 C 0.79381(6) 0.65877(19) 0.00739(5)
H8 H 0.8026 0.7799 -0.0047
C8 C 0.84390(6) 0.58708(18) 0.04213(5)
H9 H 0.8539 0.4613 0.0352
C9 C 0.75107(6) 0.65643(18) 0.05048(5)
C10 C 0.90064(6) 0.69436(18) 0.04929(5)
C11 C 0.95738(6) 0.62068(19) 0.04174(5)
H10 H 0.9606 0.5005 0.0329
C12 C 1.01008(7) 0.7216(2) 0.04705(5)
H11 H 1.0490 0.6700 0.0418
C13 C 1.00583(6) 0.89631(19) 0.05990(5)
C14 C 0.94835(7) 0.97333(19) 0.06791(5)
C15 C 0.89676(6) 0.87042(19) 0.06273(5)
H12 H 0.8578 0.9208 0.0685
C16 C 1.11361(7) 0.9296(2) 0.06028(7)
H13 H 1.1177 0.8288 0.0818
H14 H 1.1451 1.0169 0.0678
H15 H 1.1186 0.8902 0.0272
C17 C 0.96600(9) 0.4418(4) 0.19385(8)
H16 H 0.9610 0.3603 0.1671
H17 H 0.9998 0.4023 0.2141
H18 H 0.9749 0.5598 0.1816
C18 C 0.83158(10) 0.5816(3) 0.30111(6)
H19 H 0.8740 0.6056 0.2920
H20 H 0.8300 0.5492 0.3349
H21 H 0.8067 0.6869 0.2958
C19 C 0.64178(8) 0.4968(3) 0.20948(7)
H22 H 0.6343 0.6132 0.1957
H23 H 0.6100 0.4700 0.2330
H24 H 0.6411 0.4081 0.1841
C20 C 0.79940(7) 0.55918(19) 0.12886(5)
C21 C 0.74581(7) 0.5526(2) 0.15523(5)
H25 H 0.7075 0.5763 0.1407
C22 C 0.74933(8) 0.5106(2) 0.20334(5)
C23 C 0.80556(8) 0.4799(2) 0.22501(6)
C24 C 0.85831(8) 0.4835(2) 0.19732(6)
C25 C 0.85563(7) 0.5227(2) 0.14892(5)
H26 H 0.8917 0.5243 0.1301
loop_
_geom_bond_atom_site_label_1
_geom_bond_atom_site_label_2
_geom_bond_site_symmetry_1
_geom_bond_site_symmetry_2
O1 C5 1_555 1_555
N1 C8 1_555 1_555
C1 H1 1_555 1_555
O2 C9 1_555 1_555
N2 H2 1_555 1_555
H3 N2 1_555 1_555
C2 C1 1_555 1_555
H4 C2 1_555 1_555
O3 C13 1_555 1_555
C3 C2 1_555 1_555
H5 C3 1_555 1_555
O4 C17 1_555 1_555
C4 C3 1_555 1_555
H6 C4 1_555 1_555
O5 C18 1_555 1_555
C5 C4 1_555 1_555
O6 C19 1_555 1_555
C6 C1 1_555 1_555
H7 C6 1_555 1_555
C7 O1 1_555 1_555
H8 C7 1_555 1_555
C8 C7 1_555 1_555
H9 C8 1_555 1_555
C9 N1 1_555 1_555
C10 C8 1_555 1_555
C11 C10 1_555 1_555
H10 C11 1_555 1_555
C12 C11 1_555 1_555
H11 C12 1_555 1_555
C13 C12 1_555 1_555
C14 N2 1_555 1_555
C15 C10 1_555 1_555
H12 C15 1_555 1_555
C16 O3 1_555 1_555
H13 C16 1_555 1_555
H14 C16 1_555 1_555
H15 C16 1_555 1_555
C17 H16 1_555 1_555
H17 C17 1_555 1_555
H18 C17 1_555 1_555
C18 H19 1_555 1_555
H20 C18 1_555 1_555
H21 C18 1_555 1_555
C19 H22 1_555 1_555
H23 C19 1_555 1_555
H24 C19 1_555 1_555
C20 N1 1_555 1_555
C21 C20 1_555 1_555
H25 C21 1_555 1_555
C22 O6 1_555 1_555
C23 O5 1_555 1_555
C24 O4 1_555 1_555
C25 C20 1_555 1_555
H26 C25 1_555 1_555
C5 C6 1_555 1_555
C7 C9 1_555 1_555
C13 C14 1_555 1_555
C14 C15 1_555 1_555
C21 C22 1_555 1_555
C22 C23 1_555 1_555
C23 C24 1_555 1_555
C24 C25 1_555 1_555

#END
