
#######################################################################
#
#                 Cambridge Crystallographic Data Centre
#                                CCDC 
#
#######################################################################
#
# If this CIF has been generated from an entry in the Cambridge 
# Structural Database, then it will include bibliographic, chemical, 
# crystal, experimental, refinement or atomic coordinate data resulting 
# from the CCDC's data processing and validation procedures.
#
#######################################################################

data_ZUWXEW
_chemical_formula_moiety         'C25 H22 N2 O5'
_chemical_name_systematic        
4-(4-Oxo-3-phenoxy-1-(3,4,5-trimethoxyphenyl)azetidin-2-yl)benzonitrile
_chemical_properties_biological  'antiproliferative activity'
_symmetry_cell_setting           monoclinic
_symmetry_space_group_name_H-M   'P 21/c'
_symmetry_Int_Tables_number      14
_space_group_name_Hall           '-P 2ybc'
loop_
_symmetry_equiv_pos_site_id
_symmetry_equiv_pos_as_xyz
1 x,y,z
2 -x,1/2+y,1/2-z
3 -x,-y,-z
4 x,1/2-y,1/2+z
_cell_length_a                   14.9002(9)
_cell_length_b                   14.0903(8)
_cell_length_c                   21.0318(12)
_cell_angle_alpha                90
_cell_angle_beta                 94.6700(10)
_cell_angle_gamma                90
_cell_volume                     4400.93
_exptl_crystal_colour            colorless
_exptl_crystal_description       prism
_cell_formula_units_Z            8
loop_
_atom_site_label
_atom_site_type_symbol
_atom_site_fract_x
_atom_site_fract_y
_atom_site_fract_z
C1 C 0.10630(7) 0.12249(8) 0.32175(6)
O1 O 0.23842(5) -0.00292(6) 0.10993(4)
O2 O -0.06429(6) 0.26891(6) 0.39197(4)
O3 O 0.09085(6) 0.18209(7) 0.42847(4)
N1 N 0.11326(6) 0.06384(7) 0.21495(5)
O4 O -0.13165(6) 0.26682(7) 0.27000(4)
O5 O 0.24283(6) -0.01030(6) 0.26466(4)
C2 C 0.06984(7) 0.11930(8) 0.25882(5)
C3 C -0.02041(7) 0.21861(8) 0.34767(6)
C4 C 0.17085(7) -0.02594(8) 0.15096(5)
C5 C -0.00020(7) 0.00794(8) 0.12598(5)
C6 C -0.00878(8) 0.16764(8) 0.23861(6)
H1 H -0.0313 0.1669 0.1950
C7 C 0.06099(7) 0.17292(8) 0.36592(5)
C8 C 0.31315(7) -0.06111(8) 0.11197(5)
C9 C 0.32646(8) -0.13967(8) 0.15145(6)
H2 H 0.2825 -0.1572 0.1796
C10 C -0.03969(7) -0.06007(8) 0.16271(6)
H3 H -0.0098 -0.0793 0.2022
C11 C 0.09206(7) 0.04671(8) 0.14596(5)
C12 C 0.18772(7) 0.00613(8) 0.22081(6)
C13 C -0.12187(7) -0.10017(8) 0.14248(6)
H4 H -0.1484 -0.1465 0.1679
C14 C -0.04499(8) 0.03720(9) 0.06882(6)
H5 H -0.0191 0.0849 0.0441
C15 C -0.12712(8) -0.00260(10) 0.04756(6)
H6 H -0.1572 0.0171 0.0082
N2 N -0.31817(8) -0.14613(9) 0.04409(6)
C16 C -0.05364(7) 0.21710(8) 0.28371(6)
C17 C -0.25042(8) -0.11394(9) 0.06194(6)
C18 C 0.37758(8) -0.03511(8) 0.07103(6)
H7 H 0.3678 0.0181 0.0436
C19 C 0.17776(9) 0.14286(11) 0.44678(7)
H8 H 0.1753 0.0736 0.4425
H9 H 0.1957 0.1597 0.4912
H10 H 0.2218 0.1684 0.4191
C20 C 0.40503(8) -0.19223(9) 0.14916(6)
H11 H 0.4141 -0.2469 0.1753
C21 C 0.45617(8) -0.08740(9) 0.07046(6)
H12 H 0.5009 -0.0690 0.0431
C22 C -0.16511(7) -0.07166(9) 0.08441(6)
C23 C 0.47025(9) -0.16613(9) 0.10932(7)
H13 H 0.5242 -0.2019 0.1086
C24 C -0.16986(11) 0.26421(13) 0.20575(7)
H14 H -0.1266 0.2900 0.1775
H15 H -0.2250 0.3024 0.2018
H16 H -0.1843 0.1984 0.1936
C25 C -0.13322(10) 0.21472(12) 0.41844(8)
H17 H -0.1816 0.2015 0.3852
H18 H -0.1575 0.2507 0.4530
H19 H -0.1079 0.1547 0.4353
H20 H 0.1069(9) 0.0998(10) 0.1210(6)
H21 H 0.1506(9) -0.0906(10) 0.1459(6)
H22 H 0.1592(10) 0.0911(10) 0.3327(7)
O6 O 0.37448(5) 0.47686(6) 0.11597(4)
O7 O 0.78184(5) 0.74482(6) 0.36824(4)
O8 O 0.35819(6) 0.48270(7) 0.24109(4)
O9 O 0.50957(6) 0.56386(6) 0.06409(4)
O10 O 0.73090(6) 0.75696(6) 0.21327(4)
N3 N 0.62367(6) 0.67997(7) 0.27203(5)
C26 C 0.62384(7) 0.70194(8) 0.34082(5)
C27 C 0.69402(7) 0.73891(8) 0.26093(6)
C28 C 0.57322(7) 0.62110(8) 0.16718(5)
C29 C 0.49355(8) 0.57877(8) 0.25974(6)
C30 C 0.56343(7) 0.62528(8) 0.23242(5)
C31 C 0.43665(7) 0.52749(8) 0.15452(5)
C32 C 0.85336(7) 0.80718(8) 0.37009(5)
C33 C 0.43002(7) 0.53037(8) 0.22003(6)
C34 C 0.53821(7) 0.74498(8) 0.36132(5)
C35 C 0.50882(7) 0.57197(8) 0.12839(5)
C36 C 0.38121(8) 0.82452(9) 0.40027(6)
C37 C 0.70239(7) 0.77148(8) 0.33104(6)
C38 C 0.29850(8) 0.86311(10) 0.42094(6)
C39 C 0.50946(8) 0.72270(9) 0.42049(6)
H23 H 0.5438 0.6801 0.4478
N4 N 0.23285(8) 0.89190(10) 0.43778(6)
C40 C 0.58787(8) 0.59663(9) 0.03587(6)
H24 H 0.5945 0.6652 0.0427
H25 H 0.5817 0.5833 -0.0100
H26 H 0.6411 0.5639 0.0556
C41 C 0.40974(8) 0.84868(8) 0.34101(6)
H27 H 0.3761 0.8922 0.3141
C42 C 0.43107(9) 0.76197(10) 0.44034(6)
H28 H 0.4116 0.7463 0.4809
C43 C 0.48802(8) 0.80826(8) 0.32185(6)
H29 H 0.5077 0.8239 0.2813
C44 C 0.85943(8) 0.88267(9) 0.32842(6)
H30 H 0.8128 0.8944 0.2958
C45 C 0.93478(9) 0.94077(10) 0.33514(7)
H31 H 0.9390 0.9937 0.3076
C46 C 0.92150(8) 0.78932(9) 0.41754(6)
H32 H 0.9164 0.7381 0.4464
C47 C 0.99691(9) 0.84678(11) 0.42243(8)
H33 H 1.0444 0.8341 0.4542
C48 C 1.00371(10) 0.92257(12) 0.38147(8)
H34 H 1.0556 0.9620 0.3851
C49 C 0.34381(10) 0.49117(12) 0.30676(7)
H35 H 0.3960 0.4656 0.3326
H36 H 0.2897 0.4555 0.3156
H37 H 0.3358 0.5582 0.3174
C50 C 0.29923(9) 0.53354(11) 0.09294(7)
H38 H 0.2674 0.5560 0.1291
H39 H 0.2582 0.4954 0.0645
H40 H 0.3204 0.5881 0.0695
H41 H 0.6876(9) 0.8356(10) 0.3367(6)
H42 H 0.6240(9) 0.6528(10) 0.1518(6)
H43 H 0.6417(9) 0.6490(10) 0.3670(7)
H44 H 0.4908(10) 0.5798(10) 0.3042(7)
loop_
_geom_bond_atom_site_label_1
_geom_bond_atom_site_label_2
_geom_bond_site_symmetry_1
_geom_bond_site_symmetry_2
C1 C2 1_555 1_555
O1 C4 1_555 1_555
O2 C3 1_555 1_555
O3 C7 1_555 1_555
N1 C2 1_555 1_555
O4 C16 1_555 1_555
O5 C12 1_555 1_555
C2 C6 1_555 1_555
C3 C7 1_555 1_555
C4 C11 1_555 1_555
C5 C10 1_555 1_555
C6 H1 1_555 1_555
C7 C1 1_555 1_555
C8 O1 1_555 1_555
C9 C8 1_555 1_555
H2 C9 1_555 1_555
C10 H3 1_555 1_555
C11 N1 1_555 1_555
C12 N1 1_555 1_555
C13 C10 1_555 1_555
H4 C13 1_555 1_555
C14 C5 1_555 1_555
H5 C14 1_555 1_555
C15 C14 1_555 1_555
H6 C15 1_555 1_555
N2 C17 1_555 1_555
C16 C3 1_555 1_555
C17 C22 1_555 1_555
C18 C8 1_555 1_555
H7 C18 1_555 1_555
C19 O3 1_555 1_555
H8 C19 1_555 1_555
H9 C19 1_555 1_555
H10 C19 1_555 1_555
C20 C9 1_555 1_555
H11 C20 1_555 1_555
C21 C18 1_555 1_555
H12 C21 1_555 1_555
C22 C13 1_555 1_555
C23 C20 1_555 1_555
H13 C23 1_555 1_555
C24 O4 1_555 1_555
H14 C24 1_555 1_555
H15 C24 1_555 1_555
H16 C24 1_555 1_555
C25 O2 1_555 1_555
H17 C25 1_555 1_555
H18 C25 1_555 1_555
H19 C25 1_555 1_555
H20 C11 1_555 1_555
H21 C4 1_555 1_555
H22 C1 1_555 1_555
O6 C31 1_555 1_555
O7 C32 1_555 1_555
O8 C33 1_555 1_555
O9 C35 1_555 1_555
O10 C27 1_555 1_555
N3 C26 1_555 1_555
C26 C34 1_555 1_555
C27 N3 1_555 1_555
C28 C30 1_555 1_555
C29 C30 1_555 1_555
C30 N3 1_555 1_555
C31 C33 1_555 1_555
C32 C44 1_555 1_555
C33 C29 1_555 1_555
C34 C39 1_555 1_555
C35 C28 1_555 1_555
C36 C38 1_555 1_555
C37 O7 1_555 1_555
C38 N4 1_555 1_555
C39 H23 1_555 1_555
C40 O9 1_555 1_555
H24 C40 1_555 1_555
H25 C40 1_555 1_555
H26 C40 1_555 1_555
C41 C36 1_555 1_555
H27 C41 1_555 1_555
C42 C36 1_555 1_555
H28 C42 1_555 1_555
C43 C34 1_555 1_555
H29 C43 1_555 1_555
C44 H30 1_555 1_555
C45 C44 1_555 1_555
H31 C45 1_555 1_555
C46 C32 1_555 1_555
H32 C46 1_555 1_555
C47 C46 1_555 1_555
H33 C47 1_555 1_555
C48 C45 1_555 1_555
H34 C48 1_555 1_555
C49 O8 1_555 1_555
H35 C49 1_555 1_555
H36 C49 1_555 1_555
H37 C49 1_555 1_555
C50 O6 1_555 1_555
H38 C50 1_555 1_555
H39 C50 1_555 1_555
H40 C50 1_555 1_555
H41 C37 1_555 1_555
H42 C28 1_555 1_555
H43 C26 1_555 1_555
H44 C29 1_555 1_555
C4 C12 1_555 1_555
C5 C11 1_555 1_555
C6 C16 1_555 1_555
C15 C22 1_555 1_555
C21 C23 1_555 1_555
C26 C37 1_555 1_555
C27 C37 1_555 1_555
C31 C35 1_555 1_555
C39 C42 1_555 1_555
C41 C43 1_555 1_555
C47 C48 1_555 1_555

#END
