
#######################################################################
#
#                 Cambridge Crystallographic Data Centre
#                                CCDC 
#
#######################################################################
#
# If this CIF has been generated from an entry in the Cambridge 
# Structural Database, then it will include bibliographic, chemical, 
# crystal, experimental, refinement or atomic coordinate data resulting 
# from the CCDC's data processing and validation procedures.
#
#######################################################################

data_ZUXCEC
_chemical_formula_moiety         'C30 H21 Cl2 N1 O3 S1'
_chemical_name_systematic        
12-(4-Chlorophenyl)-5-((4-chlorophenyl)sulfonyl)-6a-methyl-6a,7-dihydrobenzo[j]phenanthridin-6(5H)-one
_symmetry_cell_setting           triclinic
_symmetry_space_group_name_H-M   'P -1'
_symmetry_Int_Tables_number      2
_space_group_name_Hall           '-P 1'
loop_
_symmetry_equiv_pos_site_id
_symmetry_equiv_pos_as_xyz
1 x,y,z
2 -x,-y,-z
_cell_length_a                   7.3264(4)
_cell_length_b                   7.7051(6)
_cell_length_c                   23.3320(14)
_cell_angle_alpha                84.5940(10)
_cell_angle_beta                 88.837(2)
_cell_angle_gamma                82.4040(10)
_cell_volume                     1299.7
_exptl_crystal_colour            white
_exptl_crystal_description       block
_cell_formula_units_Z            2
loop_
_atom_site_label
_atom_site_type_symbol
_atom_site_fract_x
_atom_site_fract_y
_atom_site_fract_z
S1 S 0.5219(3) 0.2798(3) 0.38406(9)
Cl1 Cl 0.7649(5) 0.6870(4) 0.01634(13)
Cl2 Cl 0.9542(4) 0.2999(5) 0.61222(11)
N1 N 0.6449(9) 0.1409(9) 0.3430(3)
O1 O 0.5641(9) -0.1270(7) 0.3804(2)
O2 O 0.3586(8) 0.2044(8) 0.3997(2)
O3 O 0.5087(9) 0.4508(7) 0.3520(2)
C1 C 0.6006(11) -0.0334(11) 0.3390(4)
C2 C 0.5884(11) -0.0859(10) 0.2761(3)
C3 C 0.6335(11) 0.0631(10) 0.2321(3)
C4 C 0.7842(11) 0.1583(10) 0.2463(3)
C5 C 0.7888(11) 0.1991(11) 0.3045(3)
C6 C 0.9283(12) 0.2850(10) 0.3237(4)
H1 H 0.9291 0.3114 0.3617
C7 C 1.0636(12) 0.3302(11) 0.2865(4)
H2 H 1.1565 0.3880 0.2994
C8 C 1.0642(12) 0.2909(11) 0.2297(4)
H3 H 1.1563 0.3242 0.2046
C9 C 0.9301(11) 0.2035(10) 0.2103(4)
H4 H 0.9356 0.1735 0.1726
C10 C 0.3895(11) -0.1215(11) 0.2705(3)
H5 H 0.3751 -0.2328 0.2921
H6 H 0.3086 -0.0304 0.2878
C11 C 0.3292(11) -0.1276(10) 0.2096(3)
C12 C 0.1996(12) -0.2341(11) 0.1976(4)
H7 H 0.1617 -0.3140 0.2263
C13 C 0.1244(13) -0.2217(14) 0.1416(5)
H8 H 0.0367 -0.2927 0.1335
C14 C 0.1828(13) -0.1026(13) 0.0988(4)
H9 H 0.1331 -0.0919 0.0620
C15 C 0.3156(12) -0.0004(12) 0.1114(4)
H10 H 0.3534 0.0800 0.0829
C16 C 0.3941(11) -0.0150(11) 0.1658(3)
C17 C 0.5393(11) 0.0960(10) 0.1795(3)
C18 C 0.5867(11) 0.2436(11) 0.1359(3)
C19 C 0.5469(12) 0.4176(11) 0.1495(4)
H11 H 0.4857 0.4434 0.1836
C20 C 0.6006(13) 0.5513(12) 0.1112(4)
H12 H 0.5739 0.6671 0.1201
C21 C 0.6890(13) 0.5186(14) 0.0620(4)
C22 C 0.7285(14) 0.3455(14) 0.0472(4)
H13 H 0.7900 0.3233 0.0128
C23 C 0.6755(13) 0.2052(12) 0.0840(4)
H14 H 0.6987 0.0901 0.0741
C24 C 0.7293(12) -0.2502(11) 0.2689(4)
H15 H 0.8509 -0.2242 0.2762
H16 H 0.7237 -0.2832 0.2304
H17 H 0.7010 -0.3453 0.2958
C25 C 0.6509(11) 0.2847(12) 0.4466(3)
C26 C 0.7014(13) 0.1310(13) 0.4817(4)
H18 H 0.6730 0.0240 0.4714
C27 C 0.7948(13) 0.1386(14) 0.5326(4)
H19 H 0.8288 0.0359 0.5563
C28 C 0.8371(12) 0.2953(15) 0.5482(4)
C29 C 0.7827(12) 0.4471(13) 0.5137(4)
H20 H 0.8071 0.5541 0.5252
C30 C 0.6931(12) 0.4445(12) 0.4627(4)
H21 H 0.6610 0.5480 0.4392
loop_
_geom_bond_atom_site_label_1
_geom_bond_atom_site_label_2
_geom_bond_site_symmetry_1
_geom_bond_site_symmetry_2
S1 N1 1_555 1_555
Cl1 C21 1_555 1_555
Cl2 C28 1_555 1_555
N1 C1 1_555 1_555
O1 C1 1_555 1_555
O2 S1 1_555 1_555
O3 S1 1_555 1_555
C1 C2 1_555 1_555
C2 C3 1_555 1_555
C3 C4 1_555 1_555
C4 C5 1_555 1_555
C5 N1 1_555 1_555
C6 C5 1_555 1_555
H1 C6 1_555 1_555
C7 C6 1_555 1_555
H2 C7 1_555 1_555
C8 C7 1_555 1_555
H3 C8 1_555 1_555
C9 C4 1_555 1_555
H4 C9 1_555 1_555
C10 C2 1_555 1_555
H5 C10 1_555 1_555
H6 C10 1_555 1_555
C11 C10 1_555 1_555
C12 C11 1_555 1_555
H7 C12 1_555 1_555
C13 C12 1_555 1_555
H8 C13 1_555 1_555
C14 C13 1_555 1_555
H9 C14 1_555 1_555
C15 C14 1_555 1_555
H10 C15 1_555 1_555
C16 C11 1_555 1_555
C17 C3 1_555 1_555
C18 C17 1_555 1_555
C19 C18 1_555 1_555
H11 C19 1_555 1_555
C20 C19 1_555 1_555
H12 C20 1_555 1_555
C21 C20 1_555 1_555
C22 C21 1_555 1_555
H13 C22 1_555 1_555
C23 C18 1_555 1_555
H14 C23 1_555 1_555
C24 C2 1_555 1_555
H15 C24 1_555 1_555
H16 C24 1_555 1_555
H17 C24 1_555 1_555
C25 S1 1_555 1_555
C26 C25 1_555 1_555
H18 C26 1_555 1_555
C27 C26 1_555 1_555
H19 C27 1_555 1_555
C28 C27 1_555 1_555
C29 C28 1_555 1_555
H20 C29 1_555 1_555
C30 C25 1_555 1_555
H21 C30 1_555 1_555
C8 C9 1_555 1_555
C15 C16 1_555 1_555
C16 C17 1_555 1_555
C22 C23 1_555 1_555
C29 C30 1_555 1_555

#END
