
#######################################################################
#
#                 Cambridge Crystallographic Data Centre
#                                CCDC 
#
#######################################################################
#
# If this CIF has been generated from an entry in the Cambridge 
# Structural Database, then it will include bibliographic, chemical, 
# crystal, experimental, refinement or atomic coordinate data resulting 
# from the CCDC's data processing and validation procedures.
#
#######################################################################

data_ZUXDIH
_chemical_formula_moiety         'C82 H54 N4'
_chemical_name_systematic        
syn-4,12-Diphenyl-5,11-bis(4-(triphenylvinyl)phenyl)-4,12-dihydroimidazo[4',5':9,10]pyreno[4,5-d]imidazole
_symmetry_cell_setting           triclinic
_symmetry_space_group_name_H-M   'P -1'
_symmetry_Int_Tables_number      2
_space_group_name_Hall           '-P 1'
loop_
_symmetry_equiv_pos_site_id
_symmetry_equiv_pos_as_xyz
1 x,y,z
2 -x,-y,-z
_cell_length_a                   10.0347(8)
_cell_length_b                   11.9855(10)
_cell_length_c                   25.329(2)
_cell_angle_alpha                77.339(2)
_cell_angle_beta                 87.855(2)
_cell_angle_gamma                87.767(2)
_cell_volume                     2968.71
_exptl_crystal_colour            blue
_exptl_crystal_description       block
_cell_formula_units_Z            2
loop_
_atom_site_label
_atom_site_type_symbol
_atom_site_fract_x
_atom_site_fract_y
_atom_site_fract_z
C1 C 0.0112(2) 1.0654(2) 0.22610(8)
H1 H 0.0878 1.0904 0.2388
C2 C -0.1070(3) 1.0601(2) 0.25671(9)
H2 H -0.1096 1.0837 0.2894
C3 C -0.2193(3) 1.0208(2) 0.23935(10)
H3 H -0.2974 1.0152 0.2606
C4 C -0.2164(2) 0.9899(3) 0.19087(11)
H4 H -0.2931 0.9637 0.1787
C5 C -0.1004(2) 0.9971(2) 0.15972(9)
H5 H -0.1002 0.9768 0.1263
C6 C 0.0156(2) 1.03363(18) 0.17699(8)
C7 C 0.1384(2) 1.04256(19) 0.14123(8)
C8 C 0.1218(2) 1.1149(2) 0.08555(8)
C9 C 0.0928(2) 1.2310(2) 0.07804(10)
H6 H 0.0845 1.2642 0.1080
C10 C 0.0758(3) 1.2989(3) 0.02655(13)
H7 H 0.0589 1.3773 0.0220
C11 C 0.0839(3) 1.2499(3) -0.01724(11)
H8 H 0.0715 1.2946 -0.0518
C12 C 0.1102(3) 1.1354(4) -0.01037(10)
H9 H 0.1151 1.1021 -0.0403
C13 C 0.1297(3) 1.0685(3) 0.04041(9)
H10 H 0.1486 0.9906 0.0443
C14 C 0.4249(2) 1.1248(2) 0.10293(10)
H11 H 0.3798 1.1844 0.1148
C15 C 0.5367(3) 1.1471(3) 0.06965(11)
H12 H 0.5663 1.2215 0.0588
C16 C 0.6038(3) 1.0597(3) 0.05259(11)
H13 H 0.6787 1.0751 0.0298
C17 C 0.5627(3) 0.9503(3) 0.06851(11)
H14 H 0.6095 0.8912 0.0568
C18 C 0.4499(2) 0.9274(2) 0.10244(10)
H15 H 0.4224 0.8525 0.1140
C19 C 0.3789(2) 1.0150(2) 0.11896(8)
C20 C 0.2572(2) 0.99068(19) 0.15588(8)
C21 C 0.28089(19) 0.90669(18) 0.20770(8)
C22 C 0.4009(2) 0.90604(19) 0.23297(8)
H16 H 0.4621 0.9618 0.2185
C23 C 0.4325(2) 0.82556(19) 0.27869(8)
H17 H 0.5134 0.8289 0.2950
C24 C 0.34549(19) 0.73940(18) 0.30094(8)
C25 C 0.2226(2) 0.74063(19) 0.27653(8)
H18 H 0.1611 0.6854 0.2912
C26 C 0.1914(2) 0.82232(19) 0.23109(8)
H19 H 0.1090 0.8213 0.2156
C27 C 0.3745(2) 0.64683(18) 0.34750(8)
C28 C 0.61947(19) 0.62310(17) 0.32503(7)
C29 C 0.6366(2) 0.5878(2) 0.27756(8)
H20 H 0.5702 0.5480 0.2657
C30 C 0.7533(3) 0.6117(3) 0.24732(10)
H21 H 0.7661 0.5868 0.2152
C31 C 0.8500(3) 0.6715(3) 0.26413(11)
H22 H 0.9286 0.6868 0.2436
C32 C 0.8319(3) 0.7086(3) 0.31066(13)
H23 H 0.8974 0.7504 0.3218
C33 C 0.7158(2) 0.6843(2) 0.34168(10)
H24 H 0.7033 0.7095 0.3738
C34 C 0.48364(19) 0.50421(18) 0.40216(7)
C35 C 0.57630(19) 0.41747(19) 0.42862(7)
C36 C 0.7119(2) 0.4115(2) 0.41520(8)
H25 H 0.7480 0.4676 0.3876
C37 C 0.7927(2) 0.3245(2) 0.44193(8)
H26 H 0.8827 0.3221 0.4320
C38 C 0.7433(2) 0.2402(2) 0.48335(8)
H27 H 0.8000 0.1816 0.5009
C39 C 0.6084(2) 0.24265(19) 0.49900(7)
C40 C 0.52104(19) 0.33145(18) 0.47135(7)
C41 C 0.5473(2) 0.15857(19) 0.54174(7)
C42 C 0.4124(2) 0.15715(19) 0.55329(7)
C43 C 0.32391(19) 0.24529(18) 0.52616(7)
C44 C 0.1877(2) 0.2487(2) 0.53869(8)
H28 H 0.1514 0.1901 0.5649
C45 C 0.1061(2) 0.3371(2) 0.51299(8)
H29 H 0.0157 0.3383 0.5225
C46 C 0.1569(2) 0.4238(2) 0.47333(8)
H30 H 0.1008 0.4832 0.4561
C47 C 0.29264(19) 0.42271(18) 0.45896(7)
C48 C 0.37963(18) 0.33418(18) 0.48549(7)
C49 C 0.34970(19) 0.50855(18) 0.41587(7)
C50 C 0.4953(2) 0.01155(19) 0.60866(8)
C51 C 0.7389(2) 0.02748(19) 0.58254(7)
C52 C 0.7828(2) -0.0652(2) 0.56243(10)
H31 H 0.7244 -0.1037 0.5455
C53 C 0.9148(3) -0.1004(3) 0.56770(12)
H32 H 0.9457 -0.1629 0.5541
C54 C 1.0011(3) -0.0448(3) 0.59261(11)
H33 H 1.0902 -0.0691 0.5956
C55 C 0.9565(2) 0.0461(3) 0.61302(9)
H34 H 1.0147 0.0826 0.6309
C56 C 0.8250(2) 0.0845(2) 0.60728(8)
H35 H 0.7953 0.1484 0.6201
C57 C 0.5122(2) -0.08863(19) 0.65360(7)
C58 C 0.6120(2) -0.09515(19) 0.69067(8)
H36 H 0.6731 -0.0371 0.6859
C59 C 0.6221(2) -0.18626(19) 0.73444(8)
H37 H 0.6894 -0.1878 0.7589
C60 C 0.5347(2) -0.27562(18) 0.74295(7)
C61 C 0.4332(2) -0.2679(2) 0.70602(8)
H38 H 0.3715 -0.3255 0.7110
C62 C 0.4222(2) -0.1769(2) 0.66230(8)
H39 H 0.3538 -0.1744 0.6382
C63 C 0.5494(2) -0.37105(18) 0.79113(7)
C64 C 0.4271(2) -0.3978(2) 0.82672(7)
C65 C 0.3962(2) -0.5091(2) 0.85210(9)
H40 H 0.4505 -0.5700 0.8461
C66 C 0.2849(3) -0.5297(3) 0.88631(10)
H41 H 0.2653 -0.6044 0.9034
C67 C 0.2035(3) -0.4411(3) 0.89525(11)
H42 H 0.1295 -0.4555 0.9186
C68 C 0.2308(3) -0.3324(3) 0.87009(11)
H43 H 0.1747 -0.2723 0.8759
C69 C 0.3420(2) -0.3100(2) 0.83570(9)
H44 H 0.3595 -0.2350 0.8185
C70 C 0.6691(2) -0.42599(18) 0.80372(8)
C71 C 0.6948(2) -0.5038(2) 0.85718(8)
C72 C 0.7535(3) -0.6115(2) 0.86045(11)
H45 H 0.7763 -0.6358 0.8288
C73 C 0.7787(3) -0.6829(3) 0.90938(15)
H46 H 0.8167 -0.7554 0.9106
C74 C 0.7482(3) -0.6485(3) 0.95653(13)
H47 H 0.7655 -0.6971 0.9897
C75 C 0.6923(3) -0.5421(3) 0.95442(10)
H48 H 0.6719 -0.5181 0.9864
C76 C 0.6658(2) -0.4699(2) 0.90530(9)
H49 H 0.6279 -0.3975 0.9045
C77 C 0.7872(2) -0.40939(19) 0.76577(8)
C78 C 0.7790(2) -0.4151(2) 0.71174(8)
H50 H 0.6982 -0.4312 0.6986
C79 C 0.8898(3) -0.3971(3) 0.67755(10)
H51 H 0.8835 -0.4024 0.6416
C80 C 1.0096(3) -0.3713(3) 0.69595(11)
H52 H 1.0833 -0.3570 0.6724
C81 C 1.0197(3) -0.3669(3) 0.74911(11)
H53 H 1.1007 -0.3504 0.7619
C82 C 0.9104(2) -0.3868(2) 0.78370(9)
H54 H 0.9190 -0.3852 0.8200
N1 N 0.50012(16) 0.59502(15) 0.35761(6)
N2 N 0.28281(16) 0.59629(15) 0.38233(6)
N3 N 0.38018(17) 0.06526(16) 0.59492(6)
N4 N 0.60103(16) 0.06516(15) 0.57755(6)
loop_
_geom_bond_atom_site_label_1
_geom_bond_atom_site_label_2
_geom_bond_site_symmetry_1
_geom_bond_site_symmetry_2
C1 H1 1_555 1_555
C2 C1 1_555 1_555
H2 C2 1_555 1_555
C3 C2 1_555 1_555
H3 C3 1_555 1_555
C4 C3 1_555 1_555
H4 C4 1_555 1_555
C5 C4 1_555 1_555
H5 C5 1_555 1_555
C6 C1 1_555 1_555
C7 C6 1_555 1_555
C8 C7 1_555 1_555
C9 C8 1_555 1_555
H6 C9 1_555 1_555
C10 C9 1_555 1_555
H7 C10 1_555 1_555
C11 C10 1_555 1_555
H8 C11 1_555 1_555
C12 C11 1_555 1_555
H9 C12 1_555 1_555
C13 C8 1_555 1_555
H10 C13 1_555 1_555
C14 H11 1_555 1_555
C15 C14 1_555 1_555
H12 C15 1_555 1_555
C16 C15 1_555 1_555
H13 C16 1_555 1_555
C17 C16 1_555 1_555
H14 C17 1_555 1_555
C18 C17 1_555 1_555
H15 C18 1_555 1_555
C19 C14 1_555 1_555
C20 C7 1_555 1_555
C21 C20 1_555 1_555
C22 C21 1_555 1_555
H16 C22 1_555 1_555
C23 C22 1_555 1_555
H17 C23 1_555 1_555
C24 C23 1_555 1_555
C25 C24 1_555 1_555
H18 C25 1_555 1_555
C26 C21 1_555 1_555
H19 C26 1_555 1_555
C27 C24 1_555 1_555
C28 C29 1_555 1_555
C29 H20 1_555 1_555
C30 C29 1_555 1_555
H21 C30 1_555 1_555
C31 C30 1_555 1_555
H22 C31 1_555 1_555
C32 C31 1_555 1_555
H23 C32 1_555 1_555
C33 C28 1_555 1_555
H24 C33 1_555 1_555
C34 C35 1_555 1_555
C35 C36 1_555 1_555
C36 H25 1_555 1_555
C37 C36 1_555 1_555
H26 C37 1_555 1_555
C38 C37 1_555 1_555
H27 C38 1_555 1_555
C39 C38 1_555 1_555
C40 C35 1_555 1_555
C41 C39 1_555 1_555
C42 C41 1_555 1_555
C43 C42 1_555 1_555
C44 C43 1_555 1_555
H28 C44 1_555 1_555
C45 C44 1_555 1_555
H29 C45 1_555 1_555
C46 C45 1_555 1_555
H30 C46 1_555 1_555
C47 C46 1_555 1_555
C48 C40 1_555 1_555
C49 C34 1_555 1_555
C50 C57 1_555 1_555
C51 C52 1_555 1_555
C52 H31 1_555 1_555
C53 C52 1_555 1_555
H32 C53 1_555 1_555
C54 C53 1_555 1_555
H33 C54 1_555 1_555
C55 C54 1_555 1_555
H34 C55 1_555 1_555
C56 C51 1_555 1_555
H35 C56 1_555 1_555
C57 C58 1_555 1_555
C58 H36 1_555 1_555
C59 C58 1_555 1_555
H37 C59 1_555 1_555
C60 C59 1_555 1_555
C61 C60 1_555 1_555
H38 C61 1_555 1_555
C62 C57 1_555 1_555
H39 C62 1_555 1_555
C63 C60 1_555 1_555
C64 C63 1_555 1_555
C65 C64 1_555 1_555
H40 C65 1_555 1_555
C66 C65 1_555 1_555
H41 C66 1_555 1_555
C67 C66 1_555 1_555
H42 C67 1_555 1_555
C68 C67 1_555 1_555
H43 C68 1_555 1_555
C69 C64 1_555 1_555
H44 C69 1_555 1_555
C70 C63 1_555 1_555
C71 C70 1_555 1_555
C72 C71 1_555 1_555
H45 C72 1_555 1_555
C73 C72 1_555 1_555
H46 C73 1_555 1_555
C74 C73 1_555 1_555
H47 C74 1_555 1_555
C75 C74 1_555 1_555
H48 C75 1_555 1_555
C76 C71 1_555 1_555
H49 C76 1_555 1_555
C77 C70 1_555 1_555
C78 C77 1_555 1_555
H50 C78 1_555 1_555
C79 C78 1_555 1_555
H51 C79 1_555 1_555
C80 C79 1_555 1_555
H52 C80 1_555 1_555
C81 C80 1_555 1_555
H53 C81 1_555 1_555
C82 C77 1_555 1_555
H54 C82 1_555 1_555
N1 C27 1_555 1_555
N2 C27 1_555 1_555
N3 C42 1_555 1_555
N4 C41 1_555 1_555
C5 C6 1_555 1_555
C12 C13 1_555 1_555
C18 C19 1_555 1_555
C19 C20 1_555 1_555
C25 C26 1_555 1_555
C28 N1 1_555 1_555
C32 C33 1_555 1_555
C34 N1 1_555 1_555
C39 C40 1_555 1_555
C43 C48 1_555 1_555
C47 C48 1_555 1_555
C47 C49 1_555 1_555
C49 N2 1_555 1_555
C50 N3 1_555 1_555
C50 N4 1_555 1_555
C51 N4 1_555 1_555
C55 C56 1_555 1_555
C61 C62 1_555 1_555
C68 C69 1_555 1_555
C75 C76 1_555 1_555
C81 C82 1_555 1_555

#END
