
#######################################################################
#
#                 Cambridge Crystallographic Data Centre
#                                CCDC 
#
#######################################################################
#
# If this CIF has been generated from an entry in the Cambridge 
# Structural Database, then it will include bibliographic, chemical, 
# crystal, experimental, refinement or atomic coordinate data resulting 
# from the CCDC's data processing and validation procedures.
#
#######################################################################

data_ZUXFOP
_chemical_formula_moiety         'C21 H18 N2 O2 S1'
_chemical_name_systematic        
'6-methyl-3-(prop-1-en-2-yl)-2-(quinolin-8-yl)-2H-1,2-benzothiazine 1,1-dioxide'
_symmetry_cell_setting           triclinic
_symmetry_space_group_name_H-M   'P -1'
_symmetry_Int_Tables_number      2
_space_group_name_Hall           '-P 1'
loop_
_symmetry_equiv_pos_site_id
_symmetry_equiv_pos_as_xyz
1 x,y,z
2 -x,-y,-z
_cell_length_a                   7.754(3)
_cell_length_b                   11.381(4)
_cell_length_c                   11.791(4)
_cell_angle_alpha                99.494(6)
_cell_angle_beta                 109.022(6)
_cell_angle_gamma                102.707(6)
_cell_volume                     927.494
_exptl_crystal_colour            colorless
_exptl_crystal_description       block
_cell_formula_units_Z            2
loop_
_atom_site_label
_atom_site_type_symbol
_atom_site_fract_x
_atom_site_fract_y
_atom_site_fract_z
S1 S 1.1094(2) 0.78315(11) 0.18069(11)
O1 O 1.1416(6) 0.9103(3) 0.2419(3)
N1 N 1.2812(6) 0.8464(4) 0.4880(4)
C1 C 0.9583(8) 0.7408(4) 0.3472(4)
N2 N 1.0276(7) 0.6901(4) 0.2566(4)
O2 O 1.2617(6) 0.7453(3) 0.1610(3)
C2 C 0.7651(8) 0.7117(5) 0.3215(5)
H1 H 0.6782 0.6599 0.2426
C3 C 0.6933(9) 0.7576(5) 0.4108(5)
H2 H 0.5597 0.7363 0.3919
C4 C 0.8184(9) 0.8329(5) 0.5243(5)
H3 H 0.7708 0.8631 0.5844
C5 C 1.0157(9) 0.8659(5) 0.5531(4)
C6 C 1.1532(10) 0.9488(5) 0.6675(4)
H4 H 1.1118 0.9833 0.7293
C7 C 1.3405(9) 0.9782(5) 0.6883(5)
H5 H 1.4324 1.0346 0.7634
C8 C 1.3955(8) 0.9239(5) 0.5970(5)
H6 H 1.5286 0.9442 0.6143
C9 C 1.0907(8) 0.8197(4) 0.4648(4)
C10 C 0.9453(8) 0.5608(4) 0.1915(4)
C11 C 0.8544(8) 0.5269(4) 0.0680(4)
H7 H 0.8077 0.4403 0.0281
C12 C 0.8223(7) 0.6123(4) -0.0092(4)
C13 C 0.6902(8) 0.5743(5) -0.1327(4)
H8 H 0.6263 0.4880 -0.1693
C14 C 0.6500(8) 0.6592(5) -0.2031(5)
C15 C 0.7387(10) 0.7861(5) -0.1473(5)
H9 H 0.7057 0.8453 -0.1920
C16 C 0.8743(10) 0.8268(5) -0.0273(5)
H10 H 0.9356 0.9133 0.0093
C17 C 0.9202(8) 0.7409(4) 0.0390(4)
C18 C 0.9722(9) 0.4711(5) 0.2681(5)
C19 C 1.0997(10) 0.5052(6) 0.3833(5)
H11 H 1.1767 0.5894 0.4186
H12 H 1.1140 0.4455 0.4305
C20 C 0.8537(10) 0.3382(5) 0.2065(6)
H13 H 0.8833 0.2871 0.2653
H14 H 0.8822 0.3075 0.1340
H15 H 0.7181 0.3333 0.1800
C21 C 0.5116(10) 0.6143(6) -0.3348(5)
H16 H 0.4123 0.5392 -0.3441
H17 H 0.5789 0.5949 -0.3895
H18 H 0.4528 0.6794 -0.3571
loop_
_geom_bond_atom_site_label_1
_geom_bond_atom_site_label_2
_geom_bond_site_symmetry_1
_geom_bond_site_symmetry_2
S1 O1 1_555 1_555
N1 C8 1_555 1_555
C1 N2 1_555 1_555
N2 S1 1_555 1_555
O2 S1 1_555 1_555
C2 C1 1_555 1_555
H1 C2 1_555 1_555
C3 C2 1_555 1_555
H2 C3 1_555 1_555
C4 C3 1_555 1_555
H3 C4 1_555 1_555
C5 C4 1_555 1_555
C6 C5 1_555 1_555
H4 C6 1_555 1_555
C7 C6 1_555 1_555
H5 C7 1_555 1_555
C8 C7 1_555 1_555
H6 C8 1_555 1_555
C9 N1 1_555 1_555
C10 N2 1_555 1_555
C11 C10 1_555 1_555
H7 C11 1_555 1_555
C12 C11 1_555 1_555
C13 C12 1_555 1_555
H8 C13 1_555 1_555
C14 C13 1_555 1_555
C15 C14 1_555 1_555
H9 C15 1_555 1_555
C16 C15 1_555 1_555
H10 C16 1_555 1_555
C17 S1 1_555 1_555
C18 C10 1_555 1_555
C19 C18 1_555 1_555
H11 C19 1_555 1_555
H12 C19 1_555 1_555
C20 C18 1_555 1_555
H13 C20 1_555 1_555
H14 C20 1_555 1_555
H15 C20 1_555 1_555
C21 C14 1_555 1_555
H16 C21 1_555 1_555
H17 C21 1_555 1_555
H18 C21 1_555 1_555
C1 C9 1_555 1_555
C5 C9 1_555 1_555
C12 C17 1_555 1_555
C16 C17 1_555 1_555

#END
