
#######################################################################
#
#                 Cambridge Crystallographic Data Centre
#                                CCDC 
#
#######################################################################
#
# If this CIF has been generated from an entry in the Cambridge 
# Structural Database, then it will include bibliographic, chemical, 
# crystal, experimental, refinement or atomic coordinate data resulting 
# from the CCDC's data processing and validation procedures.
#
#######################################################################

data_ZUXFIJ
_chemical_formula_moiety         'C24 H18 N2 O2 S1'
_chemical_name_systematic        
'6-methyl-3-phenyl-2-(quinolin-8-yl)-2H-1,2-benzothiazine 1,1-dioxide'
_symmetry_cell_setting           orthorhombic
_symmetry_space_group_name_H-M   'P b c a'
_symmetry_Int_Tables_number      61
_space_group_name_Hall           '-P 2ac 2ab'
loop_
_symmetry_equiv_pos_site_id
_symmetry_equiv_pos_as_xyz
1 x,y,z
2 1/2-x,-y,1/2+z
3 -x,1/2+y,1/2-z
4 1/2+x,1/2-y,-z
5 -x,-y,-z
6 1/2+x,y,1/2-z
7 x,1/2-y,1/2+z
8 1/2-x,1/2+y,z
_cell_length_a                   13.2726(13)
_cell_length_b                   15.6962(16)
_cell_length_c                   18.9250(19)
_cell_angle_alpha                90
_cell_angle_beta                 90
_cell_angle_gamma                90
_cell_volume                     3942.63
_exptl_crystal_colour            colorless
_exptl_crystal_description       prism
_cell_formula_units_Z            8
loop_
_atom_site_label
_atom_site_type_symbol
_atom_site_fract_x
_atom_site_fract_y
_atom_site_fract_z
S1 S 0.59955(3) 0.21920(3) 0.47495(2)
O1 O 0.65748(9) 0.16514(8) 0.42983(7)
N1 N 0.60764(12) 0.38064(11) 0.36676(9)
C1 C 0.46351(13) 0.33698(11) 0.43407(9)
O2 O 0.64628(10) 0.29223(8) 0.50585(7)
N2 N 0.49856(10) 0.25007(9) 0.43018(8)
C2 C 0.37446(14) 0.35462(13) 0.46653(10)
H1 H 0.3372 0.3098 0.4879
C3 C 0.33692(16) 0.43839(14) 0.46887(12)
H2 H 0.2741 0.4498 0.4910
C4 C 0.39089(18) 0.50328(14) 0.43926(12)
H3 H 0.3661 0.5600 0.4419
C5 C 0.48335(16) 0.48681(12) 0.40463(10)
C6 C 0.5433(2) 0.55058(14) 0.37321(13)
H4 H 0.5223 0.6084 0.3746
C7 C 0.6308(2) 0.52937(16) 0.34113(14)
H5 H 0.6723 0.5720 0.3206
C8 C 0.65913(18) 0.44405(15) 0.33872(12)
H6 H 0.7202 0.4304 0.3151
C9 C 0.52055(14) 0.40201(12) 0.40101(9)
C10 C 0.42675(13) 0.18593(11) 0.41235(9)
C11 C 0.41257(13) 0.11830(11) 0.45456(9)
H7 H 0.3683 0.0747 0.4388
C12 C 0.46103(13) 0.10783(11) 0.52311(9)
C13 C 0.42435(14) 0.05087(12) 0.57424(10)
H8 H 0.3672 0.0169 0.5635
C14 C 0.46922(15) 0.04292(12) 0.63981(10)
C15 C 0.55353(16) 0.09310(13) 0.65549(10)
H9 H 0.5847 0.0880 0.7005
C16 C 0.59211(15) 0.14977(13) 0.60683(10)
H10 H 0.6490 0.1839 0.6181
C17 C 0.54610(13) 0.15600(11) 0.54094(9)
C18 C 0.37161(13) 0.20157(11) 0.34545(9)
C19 C 0.27158(14) 0.17582(12) 0.33851(10)
H11 H 0.2392 0.1471 0.3764
C20 C 0.21913(16) 0.19207(14) 0.27645(11)
H12 H 0.1511 0.1740 0.2721
C21 C 0.26465(18) 0.23405(13) 0.22134(11)
H13 H 0.2279 0.2461 0.1794
C22 C 0.36446(18) 0.25875(13) 0.22732(11)
H14 H 0.3966 0.2866 0.1889
C23 C 0.41796(15) 0.24308(12) 0.28911(10)
H15 H 0.4862 0.2607 0.2929
C24 C 0.42918(18) -0.01900(15) 0.69383(11)
H16 H 0.3778 -0.0552 0.6720
H17 H 0.3993 0.0126 0.7333
H18 H 0.4845 -0.0546 0.7114
loop_
_geom_bond_atom_site_label_1
_geom_bond_atom_site_label_2
_geom_bond_site_symmetry_1
_geom_bond_site_symmetry_2
S1 O1 1_555 1_555
N1 C8 1_555 1_555
C1 N2 1_555 1_555
O2 S1 1_555 1_555
N2 S1 1_555 1_555
C2 C1 1_555 1_555
H1 C2 1_555 1_555
C3 C2 1_555 1_555
H2 C3 1_555 1_555
C4 C3 1_555 1_555
H3 C4 1_555 1_555
C5 C4 1_555 1_555
C6 C5 1_555 1_555
H4 C6 1_555 1_555
C7 C6 1_555 1_555
H5 C7 1_555 1_555
C8 C7 1_555 1_555
H6 C8 1_555 1_555
C9 N1 1_555 1_555
C10 N2 1_555 1_555
C11 C10 1_555 1_555
H7 C11 1_555 1_555
C12 C11 1_555 1_555
C13 C12 1_555 1_555
H8 C13 1_555 1_555
C14 C13 1_555 1_555
C15 C14 1_555 1_555
H9 C15 1_555 1_555
C16 C15 1_555 1_555
H10 C16 1_555 1_555
C17 S1 1_555 1_555
C18 C10 1_555 1_555
C19 C18 1_555 1_555
H11 C19 1_555 1_555
C20 C19 1_555 1_555
H12 C20 1_555 1_555
C21 C20 1_555 1_555
H13 C21 1_555 1_555
C22 C21 1_555 1_555
H14 C22 1_555 1_555
C23 C18 1_555 1_555
H15 C23 1_555 1_555
C24 C14 1_555 1_555
H16 C24 1_555 1_555
H17 C24 1_555 1_555
H18 C24 1_555 1_555
C1 C9 1_555 1_555
C5 C9 1_555 1_555
C12 C17 1_555 1_555
C16 C17 1_555 1_555
C22 C23 1_555 1_555

#END
