
#######################################################################
#
#                 Cambridge Crystallographic Data Centre
#                                CCDC 
#
#######################################################################
#
# If this CIF has been generated from an entry in the Cambridge 
# Structural Database, then it will include bibliographic, chemical, 
# crystal, experimental, refinement or atomic coordinate data resulting 
# from the CCDC's data processing and validation procedures.
#
#######################################################################

data_ZUXYIC
_chemical_formula_moiety         'C16 H15 N1 O3'
_chemical_name_systematic        3-benzyl-3-hydroxy-2-methoxyisoindolin-1-one
_symmetry_cell_setting           orthorhombic
_symmetry_space_group_name_H-M   'P 21 21 21'
_symmetry_Int_Tables_number      19
_space_group_name_Hall           'P 2ac 2ab'
loop_
_symmetry_equiv_pos_site_id
_symmetry_equiv_pos_as_xyz
1 x,y,z
2 1/2-x,-y,1/2+z
3 1/2+x,1/2-y,-z
4 -x,1/2+y,1/2-z
_cell_length_a                   9.0510(18)
_cell_length_b                   10.638(2)
_cell_length_c                   14.281(3)
_cell_angle_alpha                90
_cell_angle_beta                 90
_cell_angle_gamma                90
_cell_volume                     1375.04
_exptl_crystal_colour            colorless
_exptl_crystal_description       prism
_cell_formula_units_Z            4
loop_
_atom_site_label
_atom_site_type_symbol
_atom_site_fract_x
_atom_site_fract_y
_atom_site_fract_z
O1 O 0.43782(17) 0.57477(15) 0.25714(12)
N1 N 0.5911(2) 0.58154(17) 0.26503(14)
C1 C 0.3933(3) 0.6076(3) 0.16350(17)
H1 H 0.4278 0.6927 0.1488
H2 H 0.2853 0.6047 0.1589
H3 H 0.4364 0.5478 0.1190
O2 O 0.65760(18) 0.79842(16) 0.27454(12)
C2 C 0.6585(2) 0.6828(2) 0.32124(16)
O3 O 0.63180(17) 0.37395(15) 0.22574(12)
C3 C 0.8153(2) 0.6336(2) 0.32560(15)
C4 C 0.8227(2) 0.5124(2) 0.29043(15)
C5 C 0.6738(2) 0.4753(2) 0.25705(15)
C6 C 0.9542(3) 0.4464(2) 0.28695(16)
H4 H 0.9575 0.3624 0.2644
C7 C 1.0812(2) 0.5069(2) 0.31742(17)
H5 H 1.1734 0.4644 0.3149
C8 C 1.0747(3) 0.6294(2) 0.35172(17)
H6 H 1.1630 0.6696 0.3716
C9 C 0.9412(3) 0.6941(2) 0.35737(16)
H7 H 0.9366 0.7769 0.3822
C10 C 0.5835(3) 0.6925(2) 0.41836(17)
H8 H 0.6398 0.7527 0.4574
H9 H 0.4826 0.7267 0.4102
C11 C 0.5736(3) 0.5685(2) 0.46938(16)
C12 C 0.4445(3) 0.4975(3) 0.46567(16)
H10 H 0.3608 0.5298 0.4336
C13 C 0.4360(3) 0.3809(3) 0.50777(18)
H11 H 0.3468 0.3340 0.5047
C14 C 0.5577(3) 0.3321(3) 0.55453(18)
H12 H 0.5525 0.2515 0.5829
C15 C 0.6867(3) 0.4019(3) 0.55950(17)
H13 H 0.7703 0.3690 0.5915
C16 C 0.6943(3) 0.5196(2) 0.51793(16)
H14 H 0.7826 0.5674 0.5226
H15 H 0.570(4) 0.824(3) 0.278(3)
loop_
_geom_bond_atom_site_label_1
_geom_bond_atom_site_label_2
_geom_bond_site_symmetry_1
_geom_bond_site_symmetry_2
O1 N1 1_555 1_555
N1 C2 1_555 1_555
C1 O1 1_555 1_555
H1 C1 1_555 1_555
H2 C1 1_555 1_555
H3 C1 1_555 1_555
O2 C2 1_555 1_555
C2 C3 1_555 1_555
O3 C5 1_555 1_555
C3 C4 1_555 1_555
C4 C5 1_555 1_555
C5 N1 1_555 1_555
C6 C4 1_555 1_555
H4 C6 1_555 1_555
C7 C6 1_555 1_555
H5 C7 1_555 1_555
C8 C7 1_555 1_555
H6 C8 1_555 1_555
C9 C3 1_555 1_555
H7 C9 1_555 1_555
C10 C2 1_555 1_555
H8 C10 1_555 1_555
H9 C10 1_555 1_555
C11 C10 1_555 1_555
C12 C11 1_555 1_555
H10 C12 1_555 1_555
C13 C12 1_555 1_555
H11 C13 1_555 1_555
C14 C13 1_555 1_555
H12 C14 1_555 1_555
C15 C14 1_555 1_555
H13 C15 1_555 1_555
C16 C11 1_555 1_555
H14 C16 1_555 1_555
H15 O2 1_555 1_555
C8 C9 1_555 1_555
C15 C16 1_555 1_555

#END
