
#######################################################################
#
#                 Cambridge Crystallographic Data Centre
#                                CCDC 
#
#######################################################################
#
# If this CIF has been generated from an entry in the Cambridge 
# Structural Database, then it will include bibliographic, chemical, 
# crystal, experimental, refinement or atomic coordinate data resulting 
# from the CCDC's data processing and validation procedures.
#
#######################################################################

data_ZUXYOI
_chemical_formula_moiety         'C16 H15 N1 O3'
_chemical_name_systematic        '4-allyl-2-methoxyphenyl nicotinate'
_symmetry_cell_setting           monoclinic
_symmetry_space_group_name_H-M   'P 21/n'
_symmetry_Int_Tables_number      14
_space_group_name_Hall           '-P 2yn'
loop_
_symmetry_equiv_pos_site_id
_symmetry_equiv_pos_as_xyz
1 x,y,z
2 1/2-x,1/2+y,1/2-z
3 -x,-y,-z
4 1/2+x,1/2-y,1/2+z
_cell_length_a                   11.179(2)
_cell_length_b                   9.5007(19)
_cell_length_c                   13.953(3)
_cell_angle_alpha                90
_cell_angle_beta                 107.56(3)
_cell_angle_gamma                90
_cell_volume                     1412.87
_cell_formula_units_Z            4
loop_
_atom_site_label
_atom_site_type_symbol
_atom_site_fract_x
_atom_site_fract_y
_atom_site_fract_z
O1 O 0.52466(14) 0.78305(16) 0.12691(11)
O2 O 0.47229(13) 0.97874(14) 0.24550(10)
O3 O 0.37900(16) 0.78788(17) 0.28547(12)
N1 N 0.73002(19) 1.0060(2) 0.52092(16)
C1 C 0.0402(4) 1.1403(4) -0.2566(3)
H1 H 0.0931 1.1929 -0.2830
H2 H -0.0434 1.1662 -0.2699
C2 C 0.0809(8) 1.0365(8) -0.2043(4)
H3 H 0.0206 0.9914 -0.1818
C3 C 0.2022(3) 0.9698(3) -0.17045(18)
H4 H 0.2562 1.0149 -0.2042
H5 H 0.1923 0.8725 -0.1924
C4 C 0.2695(2) 0.9712(2) -0.05879(16)
C5 C 0.2400(2) 1.0663(2) 0.00552(18)
H6 H 0.1761 1.1313 -0.0198
C6 C 0.3046(2) 1.0658(2) 0.10747(17)
H7 H 0.2840 1.1298 0.1504
C7 C 0.3985(2) 0.9706(2) 0.14414(15)
C8 C 0.42949(19) 0.8731(2) 0.08172(15)
C9 C 0.3646(2) 0.8749(2) -0.01944(15)
H8 H 0.3851 0.8102 -0.0620
C10 C 0.4593(2) 0.8757(2) 0.30862(15)
C11 C 0.55474(18) 0.8876(2) 0.40786(14)
C12 C 0.6437(2) 0.9928(2) 0.43188(17)
H9 H 0.6434 1.0587 0.3826
C13 C 0.5570(2) 0.7898(2) 0.48160(17)
H10 H 0.4993 0.7165 0.4688
C14 C 0.6454(2) 0.8020(3) 0.57399(18)
H11 H 0.6483 0.7375 0.6248
C15 C 0.7290(2) 0.9104(3) 0.58984(18)
H12 H 0.7886 0.9177 0.6526
C16 C 0.5549(2) 0.6768(3) 0.06572(19)
H13 H 0.6212 0.6187 0.1063
H14 H 0.5816 0.7202 0.0135
H15 H 0.4821 0.6198 0.0362
C17? C 0.0402(4) 1.1403(4) -0.2566(3)
H16? H -0.0234 1.0768 -0.2576
H17? H 0.0204 1.2294 -0.2844
C18? C 0.1581(5) 1.1041(6) -0.2161(4)
H18? H 0.2186 1.1709 -0.2169
C19? C 0.2022(3) 0.9698(3) -0.17045(18)
H19? H 0.2585 0.9303 -0.2044
H20? H 0.1308 0.9070 -0.1826
loop_
_geom_bond_atom_site_label_1
_geom_bond_atom_site_label_2
_geom_bond_site_symmetry_1
_geom_bond_site_symmetry_2
O1 C8 1_555 1_555
O2 C7 1_555 1_555
O3 C10 1_555 1_555
N1 C12 1_555 1_555
C1 H1 1_555 1_555
H2 C1 1_555 1_555
C2 C1 1_555 1_555
H3 C2 1_555 1_555
C3 C2 1_555 1_555
H4 C3 1_555 1_555
H5 C3 1_555 1_555
C4 C3 1_555 1_555
C5 C4 1_555 1_555
H6 C5 1_555 1_555
C6 C5 1_555 1_555
H7 C6 1_555 1_555
C7 C6 1_555 1_555
C8 C7 1_555 1_555
C9 C4 1_555 1_555
H8 C9 1_555 1_555
C10 O2 1_555 1_555
C11 C10 1_555 1_555
C12 C11 1_555 1_555
H9 C12 1_555 1_555
C13 C11 1_555 1_555
H10 C13 1_555 1_555
C14 C13 1_555 1_555
H11 C14 1_555 1_555
C15 N1 1_555 1_555
H12 C15 1_555 1_555
C16 O1 1_555 1_555
H13 C16 1_555 1_555
H14 C16 1_555 1_555
H15 C16 1_555 1_555
C8 C9 1_555 1_555
C14 C15 1_555 1_555

#END
