
#######################################################################
#
#                 Cambridge Crystallographic Data Centre
#                                CCDC 
#
#######################################################################
#
# If this CIF has been generated from an entry in the Cambridge 
# Structural Database, then it will include bibliographic, chemical, 
# crystal, experimental, refinement or atomic coordinate data resulting 
# from the CCDC's data processing and validation procedures.
#
#######################################################################

data_ZUXYEY
_chemical_formula_moiety         'C14 H13 N1 O3 S1'
_chemical_name_systematic        
3-hydroxy-2-methoxy-3-(2-thienylmethyl)isoindolin-1-one
_symmetry_cell_setting           orthorhombic
_symmetry_space_group_name_H-M   'P 21 21 21'
_symmetry_Int_Tables_number      19
_space_group_name_Hall           'P 2ac 2ab'
loop_
_symmetry_equiv_pos_site_id
_symmetry_equiv_pos_as_xyz
1 x,y,z
2 1/2-x,-y,1/2+z
3 1/2+x,1/2-y,-z
4 -x,1/2+y,1/2-z
_cell_length_a                   8.9390(18)
_cell_length_b                   10.588(2)
_cell_length_c                   13.799(3)
_cell_angle_alpha                90
_cell_angle_beta                 90
_cell_angle_gamma                90
_cell_volume                     1306.02
_exptl_crystal_colour            colorless
_exptl_crystal_description       prism
_cell_formula_units_Z            4
loop_
_atom_site_label
_atom_site_type_symbol
_atom_site_fract_x
_atom_site_fract_y
_atom_site_fract_z
S1 S 0.57503(17) 0.43291(14) 0.46950(11)
O1 O 0.5613(2) 0.5442(2) 0.25340(14)
N1 N 0.4063(3) 0.5530(2) 0.26042(17)
C1 C 0.6092(4) 0.5826(3) 0.1577(2)
H1 H 0.5637 0.5272 0.1091
H2 H 0.7184 0.5768 0.1533
H3 H 0.5780 0.6700 0.1459
O2 O 0.3424(2) 0.77089(19) 0.27949(16)
C2 C 0.3414(3) 0.6522(3) 0.3232(2)
O3 O 0.3630(2) 0.3457(2) 0.21785(17)
C3 C 0.1824(3) 0.6033(3) 0.3288(2)
C4 C 0.1726(3) 0.4837(3) 0.2883(2)
C5 C 0.3214(3) 0.4469(3) 0.2516(2)
C6 C 0.0580(3) 0.6623(3) 0.3669(2)
H4 H 0.0650 0.7435 0.3959
C7 C -0.0778(3) 0.5989(3) 0.3614(2)
H5 H -0.1655 0.6382 0.3860
C8 C -0.0881(4) 0.4782(3) 0.3206(2)
H6 H -0.1823 0.4368 0.3177
C9 C 0.0382(3) 0.4190(3) 0.2843(2)
H7 H 0.0327 0.3365 0.2575
C10 C 0.4214(3) 0.6555(3) 0.4222(2)
H8 H 0.5256 0.6843 0.4122
H9 H 0.3710 0.7184 0.4640
C11 C 0.4247(3) 0.5308(3) 0.4745(2)
C12 C 0.3044(12) 0.4771(10) 0.5334(8)
H10 H 0.2098 0.5150 0.5451
C13 C 0.3545(8) 0.3549(7) 0.5712(5)
H11 H 0.2958 0.3044 0.6135
C14 C 0.4936(8) 0.3206(7) 0.5398(4)
H12 H 0.5398 0.2424 0.5556
H13 H 0.432(5) 0.797(3) 0.278(2)
C15? C 0.556(2) 0.4687(19) 0.4849(15)
H14? H 0.6519 0.4960 0.4638
S2? S 0.2747(10) 0.4727(9) 0.5327(8)
C16? C 0.369(3) 0.337(2) 0.5551(19)
H15? H 0.3244 0.2613 0.5782
C17? C 0.520(2) 0.3503(19) 0.5355(17)
H16? H 0.5928 0.2891 0.5530
loop_
_geom_bond_atom_site_label_1
_geom_bond_atom_site_label_2
_geom_bond_site_symmetry_1
_geom_bond_site_symmetry_2
S1 C11 1_555 1_555
O1 N1 1_555 1_555
N1 C2 1_555 1_555
C1 O1 1_555 1_555
H1 C1 1_555 1_555
H2 C1 1_555 1_555
H3 C1 1_555 1_555
O2 C2 1_555 1_555
C2 C3 1_555 1_555
O3 C5 1_555 1_555
C3 C4 1_555 1_555
C4 C5 1_555 1_555
C5 N1 1_555 1_555
C6 C3 1_555 1_555
H4 C6 1_555 1_555
C7 C6 1_555 1_555
H5 C7 1_555 1_555
C8 C7 1_555 1_555
H6 C8 1_555 1_555
C9 C4 1_555 1_555
H7 C9 1_555 1_555
C10 C2 1_555 1_555
H8 C10 1_555 1_555
H9 C10 1_555 1_555
C11 C10 1_555 1_555
C12 C11 1_555 1_555
H10 C12 1_555 1_555
C13 C12 1_555 1_555
H11 C13 1_555 1_555
C14 S1 1_555 1_555
H12 C14 1_555 1_555
H13 O2 1_555 1_555
C8 C9 1_555 1_555
C13 C14 1_555 1_555

#END
