
#######################################################################
#
#                 Cambridge Crystallographic Data Centre
#                                CCDC 
#
#######################################################################
#
# If this CIF has been generated from an entry in the Cambridge 
# Structural Database, then it will include bibliographic, chemical, 
# crystal, experimental, refinement or atomic coordinate data resulting 
# from the CCDC's data processing and validation procedures.
#
#######################################################################

data_ZUYFEG
_chemical_formula_moiety         'C38 H54 O5'
_chemical_name_systematic        
'oct-1-en-3-yl 7-(4-methoxyphenyl)-6-methyl-2-oxo-4-(1,2,4a-trimethyl-5-methylenedecahydronaphthalen-1-yl)-3-oxabicyclo[4.2.0]octane-8-carboxylate'
_symmetry_cell_setting           orthorhombic
_symmetry_space_group_name_H-M   'P 21 21 21'
_symmetry_Int_Tables_number      19
_space_group_name_Hall           'P 2ac 2ab'
loop_
_symmetry_equiv_pos_site_id
_symmetry_equiv_pos_as_xyz
1 x,y,z
2 1/2+x,1/2-y,-z
3 -x,1/2+y,1/2-z
4 1/2-x,-y,1/2+z
_cell_length_a                   10.0955(6)
_cell_length_b                   13.4185(8)
_cell_length_c                   24.9270(15)
_cell_angle_alpha                90
_cell_angle_beta                 90
_cell_angle_gamma                90
_cell_volume                     3376.77
_exptl_crystal_colour            colorless
_exptl_crystal_description       prism
_cell_formula_units_Z            4
loop_
_atom_site_label
_atom_site_type_symbol
_atom_site_fract_x
_atom_site_fract_y
_atom_site_fract_z
O1 O 0.63224(18) 0.90958(13) 1.04632(6)
O2 O 0.44792(18) 0.87881(13) 0.85941(6)
O3 O 0.42401(18) 0.85089(14) 1.03946(6)
O4 O 0.4980(2) 0.96462(14) 0.93198(6)
O5 O 0.56653(18) 0.34293(14) 1.10453(6)
C1 C 0.5595(4) 1.3481(2) 0.91803(11)
H1 H 0.4943 1.3174 0.8941
H2 H 0.6237 1.3861 0.8968
H3 H 0.5143 1.3928 0.9431
C2 C 0.6316(3) 1.2669(2) 0.94939(9)
H4 H 0.6776 1.2223 0.9238
H5 H 0.6997 1.2983 0.9725
C3 C 0.5391(3) 1.2056(2) 0.98407(9)
H6 H 0.4729 1.1724 0.9608
H7 H 0.4909 1.2505 1.0088
C4 C 0.6116(3) 1.1270(2) 1.01668(9)
H8 H 0.6830 1.1596 1.0375
H9 H 0.6535 1.0788 0.9919
C5 C 0.5212(3) 1.0709(2) 1.05504(9)
H10 H 0.4854 1.1186 1.0816
H11 H 0.4454 1.0438 1.0345
C6 C 0.5878(3) 0.98604(18) 1.08478(9)
H12 H 0.5239 0.9558 1.1107
C7 C 0.5387(3) 0.85043(19) 1.02567(8)
C8 C 0.5947(3) 0.77680(18) 0.98577(9)
H13 H 0.6843 0.7537 0.9976
C9 C 0.5966(3) 0.80259(18) 0.92460(8)
H14 H 0.6893 0.8097 0.9109
C10 C 0.5113(3) 0.88805(19) 0.90700(9)
C11 C 0.4553(3) 0.78186(19) 0.83242(9)
H15 H 0.5497 0.7719 0.8215
C12 C 0.3714(3) 0.7852(2) 0.77977(8)
C13 C 0.2221(3) 0.76864(19) 0.79251(8)
H16 H 0.2205 0.7075 0.8154
C14 C 0.1300(3) 0.7424(2) 0.74357(9)
C15 C -0.0058(3) 0.7135(2) 0.76687(8)
C16 C -0.0649(3) 0.6273(2) 0.75772(10)
H17 H -0.1484 0.6135 0.7736
H18 H -0.0240 0.5792 0.7352
C17 C 0.5394(3) 0.69624(19) 0.91242(8)
C18 C 0.4235(3) 0.7018(2) 0.87390(9)
H19 H 0.3414 0.7192 0.8935
H20 H 0.4103 0.6367 0.8560
C19 C 0.4023(3) 0.8851(2) 0.75217(9)
H21 H 0.3765 0.8815 0.7143
H22 H 0.4974 0.8989 0.7548
H23 H 0.3526 0.9386 0.7698
C20 C 0.4239(3) 0.6962(2) 0.74518(9)
H24 H 0.4206 0.6355 0.7684
C21 C 0.5663(3) 0.7061(3) 0.72521(10)
H25 H 0.5931 0.6442 0.7074
H26 H 0.6251 0.7190 0.7557
H27 H 0.5720 0.7615 0.6997
C22 C 0.3347(3) 0.6758(2) 0.69695(9)
H28 H 0.3375 0.7339 0.6725
H29 H 0.3694 0.6174 0.6771
C23 C 0.1920(3) 0.6558(2) 0.71261(9)
H30 H 0.1883 0.5949 0.7350
H31 H 0.1394 0.6433 0.6798
C24 C -0.0699(3) 0.7902(2) 0.80246(10)
H32 H -0.1530 0.7629 0.8175
H33 H -0.0924 0.8500 0.7810
C25 C 0.0239(3) 0.8197(2) 0.84844(10)
H34 H -0.0151 0.8760 0.8687
H35 H 0.0337 0.7628 0.8734
C26 C 0.1594(3) 0.8498(2) 0.82756(9)
H36 H 0.2185 0.8638 0.8583
H37 H 0.1509 0.9118 0.8063
C27 C 0.1067(3) 0.8294(2) 0.70384(9)
H38 H 0.1879 0.8418 0.6834
H39 H 0.0824 0.8896 0.7239
H40 H 0.0349 0.8119 0.6791
C28 C 0.5046(3) 0.68648(19) 0.97396(8)
H41 H 0.4106 0.7079 0.9790
C29 C 0.5263(3) 0.59264(19) 1.00604(8)
C30 C 0.4166(3) 0.53759(19) 1.02345(8)
H42 H 0.3301 0.5571 1.0127
C31 C 0.4330(3) 0.4549(2) 1.05615(8)
H43 H 0.3581 0.4180 1.0679
C32 C 0.5604(3) 0.42625(19) 1.07165(8)
C33 C 0.6701(3) 0.47818(18) 1.05455(8)
H44 H 0.7566 0.4578 1.0648
C34 C 0.6514(3) 0.56195(19) 1.02165(8)
H45 H 0.7265 0.5985 1.0098
C35 C 0.6918(3) 0.3202(2) 1.12611(10)
H46 H 0.7528 0.3028 1.0970
H47 H 0.6838 0.2637 1.1508
H48 H 0.7261 0.3782 1.1455
C36 C 0.6441(3) 0.6242(2) 0.89220(9)
H49 H 0.6106 0.5558 0.8949
H50 H 0.7244 0.6309 0.9140
H51 H 0.6647 0.6393 0.8547
C37 C 0.7111(3) 1.01653(19) 1.11382(9)
H52 H 0.7897 1.0261 1.0935
C38 C 0.7168(3) 1.0309(2) 1.16629(10)
H53 H 0.6398 1.0220 1.1877
H54 H 0.7979 1.0503 1.1826
loop_
_geom_bond_atom_site_label_1
_geom_bond_atom_site_label_2
_geom_bond_site_symmetry_1
_geom_bond_site_symmetry_2
O1 C6 1_555 1_555
O2 C10 1_555 1_555
O3 C7 1_555 1_555
O4 C10 1_555 1_555
O5 C32 1_555 1_555
C1 H1 1_555 1_555
H2 C1 1_555 1_555
H3 C1 1_555 1_555
C2 C1 1_555 1_555
H4 C2 1_555 1_555
H5 C2 1_555 1_555
C3 C2 1_555 1_555
H6 C3 1_555 1_555
H7 C3 1_555 1_555
C4 C3 1_555 1_555
H8 C4 1_555 1_555
H9 C4 1_555 1_555
C5 C4 1_555 1_555
H10 C5 1_555 1_555
H11 C5 1_555 1_555
C6 C5 1_555 1_555
H12 C6 1_555 1_555
C7 O1 1_555 1_555
C8 C7 1_555 1_555
H13 C8 1_555 1_555
C9 C8 1_555 1_555
H14 C9 1_555 1_555
C10 C9 1_555 1_555
C11 O2 1_555 1_555
H15 C11 1_555 1_555
C12 C11 1_555 1_555
C13 C12 1_555 1_555
H16 C13 1_555 1_555
C14 C13 1_555 1_555
C15 C14 1_555 1_555
C16 C15 1_555 1_555
H17 C16 1_555 1_555
H18 C16 1_555 1_555
C17 C9 1_555 1_555
C18 C11 1_555 1_555
H19 C18 1_555 1_555
H20 C18 1_555 1_555
C19 C12 1_555 1_555
H21 C19 1_555 1_555
H22 C19 1_555 1_555
H23 C19 1_555 1_555
C20 C12 1_555 1_555
H24 C20 1_555 1_555
C21 C20 1_555 1_555
H25 C21 1_555 1_555
H26 C21 1_555 1_555
H27 C21 1_555 1_555
C22 C20 1_555 1_555
H28 C22 1_555 1_555
H29 C22 1_555 1_555
C23 C14 1_555 1_555
H30 C23 1_555 1_555
H31 C23 1_555 1_555
C24 C15 1_555 1_555
H32 C24 1_555 1_555
H33 C24 1_555 1_555
C25 C24 1_555 1_555
H34 C25 1_555 1_555
H35 C25 1_555 1_555
C26 C13 1_555 1_555
H36 C26 1_555 1_555
H37 C26 1_555 1_555
C27 C14 1_555 1_555
H38 C27 1_555 1_555
H39 C27 1_555 1_555
H40 C27 1_555 1_555
C28 C8 1_555 1_555
H41 C28 1_555 1_555
C29 C28 1_555 1_555
C30 C29 1_555 1_555
H42 C30 1_555 1_555
C31 C30 1_555 1_555
H43 C31 1_555 1_555
C32 C31 1_555 1_555
C33 C32 1_555 1_555
H44 C33 1_555 1_555
C34 C29 1_555 1_555
H45 C34 1_555 1_555
C35 O5 1_555 1_555
H46 C35 1_555 1_555
H47 C35 1_555 1_555
H48 C35 1_555 1_555
C36 C17 1_555 1_555
H49 C36 1_555 1_555
H50 C36 1_555 1_555
H51 C36 1_555 1_555
C37 C6 1_555 1_555
H52 C37 1_555 1_555
C38 C37 1_555 1_555
H53 C38 1_555 1_555
H54 C38 1_555 1_555
C17 C18 1_555 1_555
C17 C28 1_555 1_555
C22 C23 1_555 1_555
C25 C26 1_555 1_555
C33 C34 1_555 1_555

#END
