
#######################################################################
#
#                 Cambridge Crystallographic Data Centre
#                                CCDC 
#
#######################################################################
#
# If this CIF has been generated from an entry in the Cambridge 
# Structural Database, then it will include bibliographic, chemical, 
# crystal, experimental, refinement or atomic coordinate data resulting 
# from the CCDC's data processing and validation procedures.
#
#######################################################################

data_ZUYFAC
_chemical_formula_moiety         'C20 H30 O2'
_chemical_name_systematic        
4-methyl-6-(1,2,4a-trimethyl-5-methylenedecahydronaphthalen-1-yl)-5,6-dihydro-2H-pyran-2-one
_symmetry_cell_setting           monoclinic
_symmetry_space_group_name_H-M   'C 2'
_symmetry_Int_Tables_number      5
_space_group_name_Hall           'C 2y'
loop_
_symmetry_equiv_pos_site_id
_symmetry_equiv_pos_as_xyz
1 x,y,z
2 -x,y,-z
3 1/2+x,1/2+y,z
4 1/2-x,1/2+y,-z
_cell_length_a                   20.0748(7)
_cell_length_b                   6.8584(3)
_cell_length_c                   25.9078(9)
_cell_angle_alpha                90
_cell_angle_beta                 106.3990(10)
_cell_angle_gamma                90
_cell_volume                     3421.9
_exptl_crystal_colour            colorless
_exptl_crystal_description       prism
_cell_formula_units_Z            8
loop_
_atom_site_label
_atom_site_type_symbol
_atom_site_fract_x
_atom_site_fract_y
_atom_site_fract_z
O1 O 0.73470(12) 1.0041(3) 0.68671(10)
O2 O 0.79419(10) 0.7555(3) 0.66941(8)
C1 C 0.73752(15) 0.8289(5) 0.68081(12)
C2 C 0.80127(15) 0.5420(5) 0.66893(11)
H1 H 0.8096 0.4969 0.7069
C3 C 0.86789(14) 0.4919(5) 0.65210(12)
C4 C 0.85504(14) 0.5129(4) 0.58983(11)
H2 H 0.8140 0.4282 0.5734
C5 C 0.83342(15) 0.7182(5) 0.56753(12)
H3 H 0.7948 0.7647 0.5811
H4 H 0.8730 0.8084 0.5809
C6 C 0.81059(15) 0.7225(6) 0.50634(13)
H5 H 0.8011 0.8590 0.4940
H6 H 0.7669 0.6477 0.4931
C7 C 0.86519(17) 0.6371(5) 0.48230(12)
H7 H 0.8460 0.6272 0.4427
H8 H 0.9061 0.7243 0.4901
C8 C 0.92538(15) 0.6256(5) 0.68566(12)
H9 H 0.9219 0.7539 0.6685
H10 H 0.9709 0.5683 0.6880
H11 H 0.9200 0.6399 0.7219
C9 C 0.91494(15) 0.4314(5) 0.56740(11)
C10 C 0.98280(15) 0.5530(5) 0.58280(13)
H12 H 1.0125 0.5090 0.6177
H13 H 0.9715 0.6911 0.5851
H14 H 1.0073 0.5358 0.5553
C11 C 0.88707(14) 0.4370(5) 0.50563(11)
C12 C 0.88340(18) 0.2817(6) 0.47362(14)
H15 H 0.8669 0.2962 0.4357
H16 H 0.8973 0.1571 0.4889
C13 C 0.93128(15) 0.2224(5) 0.58689(12)
H17 H 0.8913 0.1381 0.5693
H18 H 0.9719 0.1758 0.5759
C14 C 0.94667(15) 0.2032(5) 0.64770(12)
H19 H 0.9884 0.2811 0.6654
H20 H 0.9567 0.0651 0.6581
C15 C 0.88507(15) 0.2734(5) 0.66709(12)
H21 H 0.8437 0.1952 0.6473
C16 C 0.89961(16) 0.2238(5) 0.72699(12)
H22 H 0.9100 0.0845 0.7324
H23 H 0.8587 0.2554 0.7389
H24 H 0.9394 0.3000 0.7479
C17 C 0.73329(13) 0.4504(5) 0.63654(11)
H25 H 0.7235 0.4875 0.5982
H26 H 0.7367 0.3065 0.6391
C18 C 0.67608(15) 0.5207(5) 0.65846(11)
C19 C 0.68156(14) 0.6938(5) 0.68236(10)
H27 H 0.6487 0.7305 0.7007
C20 C 0.61421(15) 0.3908(5) 0.65079(13)
H28 H 0.5798 0.4545 0.6654
H29 H 0.6285 0.2672 0.6696
H30 H 0.5938 0.3656 0.6123
O3 O 0.77446(12) 0.8344(4) 0.81543(10)
O4 O 0.71377(10) 0.5854(3) 0.83100(8)
C21 C 0.77161(15) 0.6600(5) 0.82260(12)
C22 C 0.70710(15) 0.3722(5) 0.83121(11)
H31 H 0.7015 0.3270 0.7935
C23 C 0.63848(14) 0.3189(4) 0.84516(12)
C24 C 0.64698(14) 0.3405(4) 0.90703(11)
H32 H 0.6881 0.2578 0.9249
C25 C 0.58608(14) 0.2566(5) 0.92730(11)
C26 C 0.61100(14) 0.2637(5) 0.98993(11)
C27 C 0.61342(17) 0.1086(6) 1.02094(14)
H33 H 0.6283 0.1217 1.0590
H34 H 0.6003 -0.0156 1.0051
C28 C 0.83118(15) 0.5286(5) 0.82542(11)
H35 H 0.8672 0.5690 0.8107
C29 C 0.77335(14) 0.2820(5) 0.86590(12)
H36 H 0.7795 0.3171 0.9040
H37 H 0.7703 0.1383 0.8628
C30 C 0.83437(14) 0.3532(5) 0.84863(11)
C31 C 0.89742(14) 0.2256(6) 0.86046(12)
H38 H 0.9356 0.2966 0.8524
H39 H 0.8870 0.1079 0.8382
H40 H 0.9109 0.1889 0.8986
C32 C 0.57197(15) 0.0473(5) 0.90807(11)
H41 H 0.5304 -0.0010 0.9174
H42 H 0.6118 -0.0352 0.9271
C33 C 0.56028(14) 0.0271(5) 0.84713(12)
H43 H 0.5190 0.1039 0.8279
H44 H 0.5512 -0.1113 0.8366
C34 C 0.62373(15) 0.0987(5) 0.83029(11)
H45 H 0.6648 0.0231 0.8519
C35 C 0.61421(15) 0.0484(5) 0.77145(12)
H46 H 0.6040 -0.0910 0.7658
H47 H 0.6569 0.0792 0.7619
H48 H 0.5756 0.1246 0.7488
C36 C 0.63115(17) 0.4630(6) 1.01280(12)
H49 H 0.6488 0.4541 1.0525
H50 H 0.5897 0.5484 1.0039
C37 C 0.68704(16) 0.5524(6) 0.99045(12)
H51 H 0.6951 0.6892 1.0028
H52 H 0.7310 0.4799 1.0049
C38 C 0.66702(16) 0.5480(5) 0.92921(12)
H53 H 0.7065 0.5953 0.9169
H54 H 0.6273 0.6370 0.9147
C39 C 0.51762(14) 0.3741(5) 0.90965(12)
H55 H 0.4909 0.3331 0.8735
H56 H 0.5282 0.5135 0.9093
H57 H 0.4903 0.3501 0.9350
C40 C 0.58134(14) 0.4498(5) 0.80950(12)
H58 H 0.5827 0.5782 0.8264
H59 H 0.5358 0.3898 0.8054
H60 H 0.5891 0.4647 0.7740
loop_
_geom_bond_atom_site_label_1
_geom_bond_atom_site_label_2
_geom_bond_site_symmetry_1
_geom_bond_site_symmetry_2
O1 C1 1_555 1_555
O2 C1 1_555 1_555
C1 C19 1_555 1_555
C2 O2 1_555 1_555
H1 C2 1_555 1_555
C3 C2 1_555 1_555
C4 C3 1_555 1_555
H2 C4 1_555 1_555
C5 C4 1_555 1_555
H3 C5 1_555 1_555
H4 C5 1_555 1_555
C6 C5 1_555 1_555
H5 C6 1_555 1_555
H6 C6 1_555 1_555
C7 C6 1_555 1_555
H7 C7 1_555 1_555
H8 C7 1_555 1_555
C8 C3 1_555 1_555
H9 C8 1_555 1_555
H10 C8 1_555 1_555
H11 C8 1_555 1_555
C9 C4 1_555 1_555
C10 C9 1_555 1_555
H12 C10 1_555 1_555
H13 C10 1_555 1_555
H14 C10 1_555 1_555
C11 C7 1_555 1_555
C12 C11 1_555 1_555
H15 C12 1_555 1_555
H16 C12 1_555 1_555
C13 C9 1_555 1_555
H17 C13 1_555 1_555
H18 C13 1_555 1_555
C14 C13 1_555 1_555
H19 C14 1_555 1_555
H20 C14 1_555 1_555
C15 C3 1_555 1_555
H21 C15 1_555 1_555
C16 C15 1_555 1_555
H22 C16 1_555 1_555
H23 C16 1_555 1_555
H24 C16 1_555 1_555
C17 C2 1_555 1_555
H25 C17 1_555 1_555
H26 C17 1_555 1_555
C18 C17 1_555 1_555
C19 C18 1_555 1_555
H27 C19 1_555 1_555
C20 C18 1_555 1_555
H28 C20 1_555 1_555
H29 C20 1_555 1_555
H30 C20 1_555 1_555
O3 C21 1_555 1_555
O4 C21 1_555 1_555
C21 C28 1_555 1_555
C22 O4 1_555 1_555
H31 C22 1_555 1_555
C23 C22 1_555 1_555
C24 C23 1_555 1_555
H32 C24 1_555 1_555
C25 C24 1_555 1_555
C26 C25 1_555 1_555
C27 C26 1_555 1_555
H33 C27 1_555 1_555
H34 C27 1_555 1_555
C28 H35 1_555 1_555
C29 C22 1_555 1_555
H36 C29 1_555 1_555
H37 C29 1_555 1_555
C30 C28 1_555 1_555
C31 C30 1_555 1_555
H38 C31 1_555 1_555
H39 C31 1_555 1_555
H40 C31 1_555 1_555
C32 C25 1_555 1_555
H41 C32 1_555 1_555
H42 C32 1_555 1_555
C33 C32 1_555 1_555
H43 C33 1_555 1_555
H44 C33 1_555 1_555
C34 C23 1_555 1_555
H45 C34 1_555 1_555
C35 C34 1_555 1_555
H46 C35 1_555 1_555
H47 C35 1_555 1_555
H48 C35 1_555 1_555
C36 C26 1_555 1_555
H49 C36 1_555 1_555
H50 C36 1_555 1_555
C37 C36 1_555 1_555
H51 C37 1_555 1_555
H52 C37 1_555 1_555
C38 C24 1_555 1_555
H53 C38 1_555 1_555
H54 C38 1_555 1_555
C39 C25 1_555 1_555
H55 C39 1_555 1_555
H56 C39 1_555 1_555
H57 C39 1_555 1_555
C40 C23 1_555 1_555
H58 C40 1_555 1_555
H59 C40 1_555 1_555
H60 C40 1_555 1_555
C9 C11 1_555 1_555
C14 C15 1_555 1_555
C29 C30 1_555 1_555
C33 C34 1_555 1_555
C37 C38 1_555 1_555

#END
