
#######################################################################
#
#                 Cambridge Crystallographic Data Centre
#                                CCDC 
#
#######################################################################
#
# If this CIF has been generated from an entry in the Cambridge 
# Structural Database, then it will include bibliographic, chemical, 
# crystal, experimental, refinement or atomic coordinate data resulting 
# from the CCDC's data processing and validation procedures.
#
#######################################################################

data_ZUYFOQ
_chemical_formula_moiety         'C24 H36 O4'
_chemical_name_systematic        
'methyl 6-methyl-2-oxo-4-(1,2,4a-trimethyl-5-methylenedecahydronaphthalen-1-yl)-3-oxabicyclo[4.2.0]octane-8-carboxylate'
_symmetry_cell_setting           monoclinic
_symmetry_space_group_name_H-M   'P 21'
_symmetry_Int_Tables_number      4
_space_group_name_Hall           'P 2yb'
loop_
_symmetry_equiv_pos_site_id
_symmetry_equiv_pos_as_xyz
1 x,y,z
2 -x,1/2+y,-z
_cell_length_a                   10.270(2)
_cell_length_b                   7.2570(16)
_cell_length_c                   14.424(3)
_cell_angle_alpha                90
_cell_angle_beta                 92.479(3)
_cell_angle_gamma                90
_cell_volume                     1074.01
_exptl_crystal_colour            colorless
_exptl_crystal_description       piece
_cell_formula_units_Z            2
loop_
_atom_site_label
_atom_site_type_symbol
_atom_site_fract_x
_atom_site_fract_y
_atom_site_fract_z
O1 O 0.68290(11) 0.74695(18) -0.23113(8)
O2 O 0.60977(12) 0.69132(19) -0.08897(9)
O3 O 0.90889(11) 0.69620(17) -0.05325(7)
O4 O 0.89175(10) 0.80487(16) 0.08812(7)
C1 C 0.6375(2) 0.5657(3) -0.25854(16)
H1 H 0.6834 0.4725 -0.2204
H2 H 0.6546 0.5452 -0.3241
H3 H 0.5436 0.5567 -0.2497
C2 C 0.66275(14) 0.7920(3) -0.14235(11)
C3 C 0.70972(15) 0.9839(2) -0.12010(10)
H4 H 0.7285 1.0554 -0.1773
C4 C 0.61995(15) 1.0923(2) -0.05492(10)
H5 H 0.5870 1.2096 -0.0820
H6 H 0.5474 1.0174 -0.0321
C5 C 0.73383(15) 1.1186(2) 0.01825(10)
C6 C 0.71855(14) 1.0237(2) 0.11184(10)
H7 H 0.6814 1.1108 0.1565
H8 H 0.6590 0.9169 0.1045
C7 C 0.85292(14) 0.9596(2) 0.14750(10)
H9 H 0.9151 1.0630 0.1375
C8 C 0.87041(14) 0.9004(2) 0.25152(10)
C9 C 0.74826(14) 0.7877(2) 0.28095(10)
H10 H 0.6719 0.8629 0.2579
C10 C 0.72858(15) 0.7649(2) 0.38770(10)
C11 C 0.59249(16) 0.6810(2) 0.39588(10)
C12 C 0.49573(16) 0.7637(3) 0.43835(11)
H11 H 0.4123 0.7074 0.4387
H12 H 0.5102 0.8790 0.4683
C13 C 0.57154(16) 0.4980(2) 0.34801(11)
H13 H 0.4807 0.4564 0.3550
H14 H 0.6308 0.4046 0.3767
C14 C 0.87950(14) 1.0846(2) 0.30791(10)
H15 H 0.8048 1.1636 0.2854
C15 C 1.00505(16) 1.1964(3) 0.29518(11)
H16 H 0.9980 1.3160 0.3262
H17 H 1.0171 1.2157 0.2289
H18 H 1.0799 1.1287 0.3224
C16 C 0.86489(15) 1.0547(2) 0.41192(10)
H19 H 0.9397 0.9814 0.4370
H20 H 0.8669 1.1756 0.4437
C17 C 0.73847(16) 0.9554(2) 0.43302(10)
H21 H 0.6635 1.0314 0.4105
H22 H 0.7333 0.9417 0.5011
C18 C 0.82279(15) 1.0012(2) -0.04343(10)
H23 H 0.8949 1.0789 -0.0666
C19 C 0.87643(14) 0.8227(2) -0.00501(10)
C20 C 0.77449(16) 1.3189(2) 0.02884(11)
H24 H 0.7017 1.3908 0.0517
H25 H 0.7987 1.3673 -0.0315
H26 H 0.8493 1.3278 0.0732
C21 C 0.99947(14) 0.7920(2) 0.26280(10)
H27 H 0.9865 0.6665 0.2391
H28 H 1.0272 0.7870 0.3286
H29 H 1.0667 0.8538 0.2279
C22 C 0.73189(15) 0.6027(2) 0.23020(11)
H30 H 0.7427 0.6216 0.1630
H31 H 0.8006 0.5164 0.2533
C23 C 0.59842(16) 0.5182(2) 0.24481(10)
H32 H 0.5937 0.3954 0.2149
H33 H 0.5303 0.5969 0.2146
C24 C 0.82765(17) 0.6333(3) 0.43782(11)
H34 H 0.8000 0.6088 0.5008
H35 H 0.9141 0.6907 0.4409
H36 H 0.8314 0.5171 0.4034
loop_
_geom_bond_atom_site_label_1
_geom_bond_atom_site_label_2
_geom_bond_site_symmetry_1
_geom_bond_site_symmetry_2
O1 C1 1_555 1_555
O2 C2 1_555 1_555
O3 C19 1_555 1_555
O4 C7 1_555 1_555
C1 H1 1_555 1_555
H2 C1 1_555 1_555
H3 C1 1_555 1_555
C2 O1 1_555 1_555
C3 C2 1_555 1_555
H4 C3 1_555 1_555
C4 C3 1_555 1_555
H5 C4 1_555 1_555
H6 C4 1_555 1_555
C5 C4 1_555 1_555
C6 C5 1_555 1_555
H7 C6 1_555 1_555
H8 C6 1_555 1_555
C7 C6 1_555 1_555
H9 C7 1_555 1_555
C8 C7 1_555 1_555
C9 C8 1_555 1_555
H10 C9 1_555 1_555
C10 C9 1_555 1_555
C11 C10 1_555 1_555
C12 C11 1_555 1_555
H11 C12 1_555 1_555
H12 C12 1_555 1_555
C13 C11 1_555 1_555
H13 C13 1_555 1_555
H14 C13 1_555 1_555
C14 C8 1_555 1_555
H15 C14 1_555 1_555
C15 C14 1_555 1_555
H16 C15 1_555 1_555
H17 C15 1_555 1_555
H18 C15 1_555 1_555
C16 C14 1_555 1_555
H19 C16 1_555 1_555
H20 C16 1_555 1_555
C17 C10 1_555 1_555
H21 C17 1_555 1_555
H22 C17 1_555 1_555
C18 C3 1_555 1_555
H23 C18 1_555 1_555
C19 O4 1_555 1_555
C20 C5 1_555 1_555
H24 C20 1_555 1_555
H25 C20 1_555 1_555
H26 C20 1_555 1_555
C21 C8 1_555 1_555
H27 C21 1_555 1_555
H28 C21 1_555 1_555
H29 C21 1_555 1_555
C22 C9 1_555 1_555
H30 C22 1_555 1_555
H31 C22 1_555 1_555
C23 C13 1_555 1_555
H32 C23 1_555 1_555
H33 C23 1_555 1_555
C24 C10 1_555 1_555
H34 C24 1_555 1_555
H35 C24 1_555 1_555
H36 C24 1_555 1_555
C5 C18 1_555 1_555
C16 C17 1_555 1_555
C18 C19 1_555 1_555
C22 C23 1_555 1_555

#END
