
#######################################################################
#
#                 Cambridge Crystallographic Data Centre
#                                CCDC 
#
#######################################################################
#
# If this CIF has been generated from an entry in the Cambridge 
# Structural Database, then it will include bibliographic, chemical, 
# crystal, experimental, refinement or atomic coordinate data resulting 
# from the CCDC's data processing and validation procedures.
#
#######################################################################

data_ZUYFUW
_chemical_formula_moiety         'C24 H36 O4'
_chemical_name_systematic        
'methyl 6-methyl-2-oxo-4-(1,2,4a-trimethyl-5-methylenedecahydronaphthalen-1-yl)-3-oxabicyclo[4.2.0]octane-7-carboxylate'
_symmetry_cell_setting           monoclinic
_symmetry_space_group_name_H-M   'P 21'
_symmetry_Int_Tables_number      4
_space_group_name_Hall           'P 2yb'
loop_
_symmetry_equiv_pos_site_id
_symmetry_equiv_pos_as_xyz
1 x,y,z
2 -x,1/2+y,-z
_cell_length_a                   11.623(3)
_cell_length_b                   7.3026(16)
_cell_length_c                   12.673(3)
_cell_angle_alpha                90
_cell_angle_beta                 95.271(3)
_cell_angle_gamma                90
_cell_volume                     1071.11
_exptl_crystal_colour            colorless
_exptl_crystal_description       prism
_cell_formula_units_Z            2
loop_
_atom_site_label
_atom_site_type_symbol
_atom_site_fract_x
_atom_site_fract_y
_atom_site_fract_z
O1 O 1.14891(14) 0.0692(2) 0.39477(13)
O2 O 1.27952(14) 0.0684(3) 0.27455(14)
O3 O 0.92806(11) 0.64235(18) 0.11379(10)
O4 O 1.09683(13) 0.7453(2) 0.07620(12)
C1 C 1.1869(3) -0.1153(4) 0.4263(3)
H1 H 1.1730 -0.1984 0.3658
H2 H 1.1436 -0.1577 0.4844
H3 H 1.2696 -0.1133 0.4498
C2 C 1.20317(18) 0.1427(3) 0.31498(17)
C3 C 1.15061(16) 0.3252(3) 0.28385(16)
H4 H 1.1417 0.4048 0.3468
C4 C 1.03483(15) 0.3110(3) 0.20856(15)
C5 C 0.92829(15) 0.4050(3) 0.24678(14)
H5 H 0.8804 0.3150 0.2815
H6 H 0.9521 0.5024 0.2985
C6 C 0.85980(15) 0.4869(3) 0.14975(15)
H7 H 0.8557 0.3921 0.0926
C7 C 0.73406(15) 0.5537(3) 0.16075(14)
C8 C 0.72658(15) 0.6562(3) 0.26822(14)
H8 H 0.7622 0.5704 0.3235
C9 C 0.80111(17) 0.8309(3) 0.28008(16)
H9 H 0.8796 0.8035 0.2599
H10 H 0.7668 0.9261 0.2312
C10 C 0.80998(16) 0.9042(3) 0.39303(16)
H11 H 0.8548 1.0197 0.3966
H12 H 0.8517 0.8145 0.4411
C11 C 0.69015(18) 0.9395(3) 0.42974(17)
H13 H 0.6979 0.9753 0.5054
H14 H 0.6526 1.0416 0.3883
C12 C 0.65881(15) 0.3759(3) 0.16046(15)
H15 H 0.6961 0.2930 0.2164
C13 C 0.64872(17) 0.2678(3) 0.05556(16)
H16 H 0.6030 0.1568 0.0636
H17 H 0.7261 0.2338 0.0374
H18 H 0.6107 0.3440 -0.0010
C14 C 0.53590(15) 0.4157(3) 0.18981(15)
H19 H 0.4954 0.4938 0.1344
H20 H 0.4928 0.2991 0.1921
C15 C 0.53642(16) 0.5115(3) 0.29684(15)
H21 H 0.5726 0.4297 0.3526
H22 H 0.4556 0.5336 0.3123
C16 C 0.60140(15) 0.6943(3) 0.30119(15)
C17 C 0.61632(15) 0.7706(3) 0.41534(16)
C18 C 0.56919(17) 0.6949(3) 0.49632(16)
H23 H 0.5818 0.7474 0.5650
H24 H 0.5228 0.5882 0.4856
C19 C 0.53114(18) 0.8373(3) 0.23251(17)
H25 H 0.5078 0.7849 0.1626
H26 H 0.5788 0.9461 0.2243
H27 H 0.4622 0.8716 0.2670
C20 C 0.69832(17) 0.6712(3) 0.06164(15)
H28 H 0.7286 0.7956 0.0726
H29 H 0.6139 0.6756 0.0498
H30 H 0.7298 0.6168 -0.0003
C21 C 1.04082(16) 0.6168(3) 0.10375(15)
C22 C 1.09193(15) 0.4295(3) 0.12606(15)
H31 H 1.0979 0.3600 0.0588
C23 C 1.20810(17) 0.4287(4) 0.19535(18)
H32 H 1.2362 0.5525 0.2166
H33 H 1.2693 0.3574 0.1646
C24 C 1.00658(17) 0.1175(3) 0.16979(16)
H34 H 0.9890 0.0409 0.2298
H35 H 1.0730 0.0663 0.1376
H36 H 0.9395 0.1206 0.1170
loop_
_geom_bond_atom_site_label_1
_geom_bond_atom_site_label_2
_geom_bond_site_symmetry_1
_geom_bond_site_symmetry_2
O1 C1 1_555 1_555
O2 C2 1_555 1_555
O3 C6 1_555 1_555
O4 C21 1_555 1_555
C1 H1 1_555 1_555
H2 C1 1_555 1_555
H3 C1 1_555 1_555
C2 O1 1_555 1_555
C3 C2 1_555 1_555
H4 C3 1_555 1_555
C4 C3 1_555 1_555
C5 C4 1_555 1_555
H5 C5 1_555 1_555
H6 C5 1_555 1_555
C6 C5 1_555 1_555
H7 C6 1_555 1_555
C7 C6 1_555 1_555
C8 C7 1_555 1_555
H8 C8 1_555 1_555
C9 C8 1_555 1_555
H9 C9 1_555 1_555
H10 C9 1_555 1_555
C10 C9 1_555 1_555
H11 C10 1_555 1_555
H12 C10 1_555 1_555
C11 C10 1_555 1_555
H13 C11 1_555 1_555
H14 C11 1_555 1_555
C12 C7 1_555 1_555
H15 C12 1_555 1_555
C13 C12 1_555 1_555
H16 C13 1_555 1_555
H17 C13 1_555 1_555
H18 C13 1_555 1_555
C14 C12 1_555 1_555
H19 C14 1_555 1_555
H20 C14 1_555 1_555
C15 C14 1_555 1_555
H21 C15 1_555 1_555
H22 C15 1_555 1_555
C16 C8 1_555 1_555
C17 C11 1_555 1_555
C18 C17 1_555 1_555
H23 C18 1_555 1_555
H24 C18 1_555 1_555
C19 C16 1_555 1_555
H25 C19 1_555 1_555
H26 C19 1_555 1_555
H27 C19 1_555 1_555
C20 C7 1_555 1_555
H28 C20 1_555 1_555
H29 C20 1_555 1_555
H30 C20 1_555 1_555
C21 O3 1_555 1_555
C22 C4 1_555 1_555
H31 C22 1_555 1_555
C23 C3 1_555 1_555
H32 C23 1_555 1_555
H33 C23 1_555 1_555
C24 C4 1_555 1_555
H34 C24 1_555 1_555
H35 C24 1_555 1_555
H36 C24 1_555 1_555
C15 C16 1_555 1_555
C16 C17 1_555 1_555
C21 C22 1_555 1_555
C22 C23 1_555 1_555

#END
