
#######################################################################
#
#                 Cambridge Crystallographic Data Centre
#                                CCDC 
#
#######################################################################
#
# If this CIF has been generated from an entry in the Cambridge 
# Structural Database, then it will include bibliographic, chemical, 
# crystal, experimental, refinement or atomic coordinate data resulting 
# from the CCDC's data processing and validation procedures.
#
#######################################################################

data_ZUYGUX
_chemical_formula_moiety         'C49 H59 N3 O10,C2 H6 O1 S1'
_chemical_name_systematic        
'4-(2-isopropyl-5-methylcyclohexyl) 2-methyl 1-((5-(methoxycarbonyl)-1-((5-(methoxycarbonyl)-2-phenylpyrrolidin-3-yl)carbonyl)-2-phenylpyrrolidin-3-yl)carbonyl)-5-phenylpyrrolidine-2,4-dicarboxylate dimethyl sulfoxide solvate'
_symmetry_cell_setting           orthorhombic
_symmetry_space_group_name_H-M   'P 21 21 21'
_symmetry_Int_Tables_number      19
_space_group_name_Hall           'P 2ac 2ab'
loop_
_symmetry_equiv_pos_site_id
_symmetry_equiv_pos_as_xyz
1 x,y,z
2 1/2-x,-y,1/2+z
3 -x,1/2+y,1/2-z
4 1/2+x,1/2-y,-z
_cell_length_a                   10.0307(7)
_cell_length_b                   20.7683(15)
_cell_length_c                   24.3956(18)
_cell_angle_alpha                90
_cell_angle_beta                 90
_cell_angle_gamma                90
_cell_volume                     5082.11
_exptl_crystal_colour            colorless
_exptl_crystal_description       block
_cell_formula_units_Z            4
loop_
_atom_site_label
_atom_site_type_symbol
_atom_site_fract_x
_atom_site_fract_y
_atom_site_fract_z
N1 N 0.66479(15) 0.01178(7) 0.91112(6)
N2 N 0.94207(15) 0.17536(7) 0.85694(6)
N3 N 1.36327(16) 0.20758(9) 0.87682(7)
H1 H 1.321(2) 0.2446(11) 0.8789(9)
O1 O 0.92074(14) -0.07705(7) 1.03037(6)
O2 O 0.72650(16) -0.12556(9) 1.05081(7)
O3 O 0.39180(14) -0.07205(8) 0.85112(6)
O4 O 0.37683(14) 0.00100(7) 0.91783(6)
O5 O 0.58316(13) 0.06492(7) 0.83868(6)
O6 O 0.82611(15) 0.33214(7) 0.84189(6)
O7 O 0.82520(15) 0.26195(7) 0.77227(6)
O8 O 1.09079(13) 0.25124(6) 0.83375(6)
O9 O 1.4411(2) 0.24438(10) 0.73558(7)
O10 O 1.4429(2) 0.30682(9) 0.80996(7)
C1 C 0.75273(19) 0.00386(9) 0.95914(8)
H2 H 0.8441 0.0193 0.9494
C2 C 0.75553(19) -0.07091(10) 0.96429(8)
H3 H 0.8217 -0.0878 0.9372
C3 C 0.6168(2) -0.09145(10) 0.94546(9)
H4 H 0.5499 -0.0848 0.9748
H5 H 0.6157 -0.1372 0.9341
C4 C 0.59078(19) -0.04679(9) 0.89664(8)
H6 H 0.6278 -0.0661 0.8623
C5 C 0.7043(2) 0.04077(9) 1.00889(8)
C6 C 0.7969(2) 0.06936(10) 1.04302(9)
H7 H 0.8892 0.0647 1.0352
C7 C 0.7577(3) 0.10462(11) 1.08834(9)
H8 H 0.8229 0.1233 1.1117
C8 C 0.6240(3) 0.11265(10) 1.09966(8)
H9 H 0.5966 0.1368 1.1308
C9 C 0.5308(2) 0.08536(12) 1.06544(9)
H10 H 0.4386 0.0912 1.0728
C10 C 0.5696(2) 0.04960(11) 1.02046(9)
H11 H 0.5040 0.0309 0.9973
C11 C 0.7951(2) -0.09469(10) 1.02033(9)
C12 C 1.1577(2) -0.15564(12) 1.02324(10)
H12 H 1.0977 -0.1452 0.9917
C13 C 1.3001(3) -0.15117(16) 1.00203(13)
H13 H 1.3177 -0.1072 0.9893
H14 H 1.3120 -0.1813 0.9715
H15 H 1.3623 -0.1621 1.0316
C14 C 1.1244(3) -0.22435(13) 1.04104(13)
H16 H 1.1356 -0.2536 1.0099
H17 H 1.0319 -0.2262 1.0539
H18 H 1.1844 -0.2373 1.0708
C15 C 1.0120(3) -0.00096(16) 1.21722(11)
H19 H 1.0694 -0.0062 1.2494
H20 H 0.9184 -0.0023 1.2286
H21 H 1.0310 0.0405 1.1997
C16 C 0.4420(2) -0.03422(9) 0.89011(8)
C17 C 0.2487(2) -0.06590(16) 0.84322(12)
H22 H 0.2189 -0.0973 0.8158
H23 H 0.2279 -0.0223 0.8305
H24 H 0.2029 -0.0740 0.8780
C18 C 0.65951(18) 0.06351(9) 0.87762(8)
C19 C 0.89738(18) 0.10843(9) 0.86569(8)
H25 H 0.9556 0.0874 0.8937
C20 C 0.75490(18) 0.11863(9) 0.89005(8)
H26 H 0.7617 0.1244 0.9306
C21 C 0.71047(18) 0.18191(9) 0.86395(8)
H27 H 0.6379 0.2021 0.8854
H28 H 0.6796 0.1751 0.8258
C22 C 0.83666(18) 0.22306(9) 0.86538(7)
H29 H 0.8467 0.2441 0.9020
C23 C 0.83206(18) 0.27351(9) 0.82045(8)
C24 C 0.8128(3) 0.38385(12) 0.80258(12)
H30 H 0.8311 0.4251 0.8206
H31 H 0.7219 0.3841 0.7879
H32 H 0.8764 0.3774 0.7726
C25 C 0.89823(19) 0.06868(10) 0.81353(9)
C26 C 0.9103(2) 0.00214(10) 0.81736(11)
H33 H 0.9228 -0.0176 0.8521
C27 C 0.9039(3) -0.03531(14) 0.77037(14)
H34 H 0.9105 -0.0808 0.7731
C28 C 0.8882(3) -0.00696(16) 0.72007(14)
H35 H 0.8835 -0.0330 0.6881
C29 C 0.8792(3) 0.05873(15) 0.71560(11)
H36 H 0.8700 0.0781 0.6805
C30 C 0.8834(2) 0.09695(12) 0.76240(9)
H37 H 0.8760 0.1424 0.7593
C31 C 1.06704(18) 0.19434(9) 0.84404(7)
C32 C 1.38989(19) 0.19483(10) 0.81880(8)
H38 H 1.4699 0.1662 0.8172
C33 C 1.2712(2) 0.15612(11) 0.79476(8)
H39 H 1.2258 0.1809 0.7656
H40 H 1.3020 0.1146 0.7793
C34 C 1.17744(18) 0.14493(9) 0.84340(8)
H41 H 1.1407 0.1002 0.8431
C35 C 1.27337(18) 0.15564(9) 0.89367(8)
H42 H 1.3289 0.1159 0.8971
C36 C 1.20725(18) 0.16620(10) 0.94855(8)
C37 C 1.1465(2) 0.22427(11) 0.96298(9)
H43 H 1.1480 0.2593 0.9380
C38 C 1.0842(2) 0.23149(11) 1.01313(9)
H44 H 1.0414 0.2710 1.0218
C39 C 1.0836(2) 0.18186(11) 1.05054(9)
H45 H 1.0416 0.1871 1.0852
C40 C 1.1447(2) 0.12448(11) 1.03723(9)
H46 H 1.1456 0.0902 1.0630
C41 C 1.2050(2) 0.11647(10) 0.98645(8)
H47 H 1.2453 0.0764 0.9776
C42 C 1.4254(2) 0.25553(12) 0.78930(9)
C43 C 1.4872(4) 0.29915(19) 0.70383(12)
H48 H 1.4955 0.2867 0.6652
H49 H 1.5741 0.3132 0.7177
H50 H 1.4229 0.3345 0.7072
C44 C 0.9844(2) -0.09632(11) 1.08167(9)
H51 H 0.9464 -0.1382 1.0944
C45 C 1.1313(2) -0.10474(11) 1.06787(9)
H52 H 1.1621 -0.0627 1.0525
C46 C 1.2100(2) -0.11527(13) 1.12091(10)
H53 H 1.1831 -0.1567 1.1377
H54 H 1.3064 -0.1177 1.1123
C47 C 1.1859(3) -0.06096(14) 1.16158(10)
H55 H 1.2387 -0.0689 1.1952
H56 H 1.2165 -0.0198 1.1454
C48 C 1.0392(3) -0.05531(13) 1.17667(10)
H57 H 1.0101 -0.0968 1.1937
C49 C 0.9588(2) -0.04487(12) 1.12413(9)
H58 H 0.8626 -0.0444 1.1333
H59 H 0.9819 -0.0023 1.1085
S1 S 0.52706(10) 0.21745(5) 0.37959(4)
O11 O 0.5327(3) 0.14894(12) 0.37567(11)
C50 C 0.5906(4) 0.25061(19) 0.31664(13)
H60 H 0.6840 0.2412 0.3136
H61 H 0.5440 0.2320 0.2861
H62 H 0.5778 0.2964 0.3166
C51 C 0.3621(4) 0.24390(18) 0.36993(14)
H63 H 0.3087 0.2304 0.4005
H64 H 0.3607 0.2900 0.3673
H65 H 0.3269 0.2256 0.3368
S2? S 0.4857(4) 0.19097(17) 0.34195(16)
H66? H 0.6678 0.2306 0.2989
H67? H 0.6209 0.2780 0.3469
H68? H 0.5422 0.2769 0.2899
H69? H 0.2906 0.2184 0.3866
H70? H 0.3251 0.2707 0.3406
H71? H 0.4031 0.2715 0.3978
loop_
_geom_bond_atom_site_label_1
_geom_bond_atom_site_label_2
_geom_bond_site_symmetry_1
_geom_bond_site_symmetry_2
N1 C1 1_555 1_555
N2 C19 1_555 1_555
N3 H1 1_555 1_555
O1 C11 1_555 1_555
O2 C11 1_555 1_555
O3 C16 1_555 1_555
O4 C16 1_555 1_555
O5 C18 1_555 1_555
O6 C23 1_555 1_555
O7 C23 1_555 1_555
O8 C31 1_555 1_555
O9 C42 1_555 1_555
O10 C42 1_555 1_555
C1 H2 1_555 1_555
C2 C1 1_555 1_555
H3 C2 1_555 1_555
C3 C2 1_555 1_555
H4 C3 1_555 1_555
H5 C3 1_555 1_555
C4 N1 1_555 1_555
H6 C4 1_555 1_555
C5 C1 1_555 1_555
C6 C5 1_555 1_555
H7 C6 1_555 1_555
C7 C6 1_555 1_555
H8 C7 1_555 1_555
C8 C7 1_555 1_555
H9 C8 1_555 1_555
C9 C8 1_555 1_555
H10 C9 1_555 1_555
C10 C5 1_555 1_555
H11 C10 1_555 1_555
C11 C2 1_555 1_555
C12 H12 1_555 1_555
C13 C12 1_555 1_555
H13 C13 1_555 1_555
H14 C13 1_555 1_555
H15 C13 1_555 1_555
C14 C12 1_555 1_555
H16 C14 1_555 1_555
H17 C14 1_555 1_555
H18 C14 1_555 1_555
C15 H19 1_555 1_555
H20 C15 1_555 1_555
H21 C15 1_555 1_555
C16 C4 1_555 1_555
C17 O3 1_555 1_555
H22 C17 1_555 1_555
H23 C17 1_555 1_555
H24 C17 1_555 1_555
C18 N1 1_555 1_555
C19 H25 1_555 1_555
C20 C18 1_555 1_555
H26 C20 1_555 1_555
C21 C20 1_555 1_555
H27 C21 1_555 1_555
H28 C21 1_555 1_555
C22 N2 1_555 1_555
H29 C22 1_555 1_555
C23 C22 1_555 1_555
C24 O6 1_555 1_555
H30 C24 1_555 1_555
H31 C24 1_555 1_555
H32 C24 1_555 1_555
C25 C19 1_555 1_555
C26 C25 1_555 1_555
H33 C26 1_555 1_555
C27 C26 1_555 1_555
H34 C27 1_555 1_555
C28 C27 1_555 1_555
H35 C28 1_555 1_555
C29 C28 1_555 1_555
H36 C29 1_555 1_555
C30 C25 1_555 1_555
H37 C30 1_555 1_555
C31 N2 1_555 1_555
C32 N3 1_555 1_555
H38 C32 1_555 1_555
C33 C32 1_555 1_555
H39 C33 1_555 1_555
H40 C33 1_555 1_555
C34 C31 1_555 1_555
H41 C34 1_555 1_555
C35 N3 1_555 1_555
H42 C35 1_555 1_555
C36 C35 1_555 1_555
C37 C36 1_555 1_555
H43 C37 1_555 1_555
C38 C37 1_555 1_555
H44 C38 1_555 1_555
C39 C38 1_555 1_555
H45 C39 1_555 1_555
C40 C39 1_555 1_555
H46 C40 1_555 1_555
C41 C36 1_555 1_555
H47 C41 1_555 1_555
C42 C32 1_555 1_555
C43 O9 1_555 1_555
H48 C43 1_555 1_555
H49 C43 1_555 1_555
H50 C43 1_555 1_555
C44 O1 1_555 1_555
H51 C44 1_555 1_555
C45 C12 1_555 1_555
H52 C45 1_555 1_555
C46 C45 1_555 1_555
H53 C46 1_555 1_555
H54 C46 1_555 1_555
C47 C46 1_555 1_555
H55 C47 1_555 1_555
H56 C47 1_555 1_555
C48 C15 1_555 1_555
H57 C48 1_555 1_555
C49 C44 1_555 1_555
H58 C49 1_555 1_555
H59 C49 1_555 1_555
S1 O11 1_555 1_555
C50 S1 1_555 1_555
H60 C50 1_555 1_555
H61 C50 1_555 1_555
H62 C50 1_555 1_555
C51 S1 1_555 1_555
H63 C51 1_555 1_555
H64 C51 1_555 1_555
H65 C51 1_555 1_555
C3 C4 1_555 1_555
C9 C10 1_555 1_555
C19 C20 1_555 1_555
C21 C22 1_555 1_555
C29 C30 1_555 1_555
C33 C34 1_555 1_555
C34 C35 1_555 1_555
C40 C41 1_555 1_555
C44 C45 1_555 1_555
C47 C48 1_555 1_555
C48 C49 1_555 1_555

#END
