
#######################################################################
#
#                 Cambridge Crystallographic Data Centre
#                                CCDC 
#
#######################################################################
#
# If this CIF has been generated from an entry in the Cambridge 
# Structural Database, then it will include bibliographic, chemical, 
# crystal, experimental, refinement or atomic coordinate data resulting 
# from the CCDC's data processing and validation procedures.
#
#######################################################################

data_ZUYKUB
_chemical_formula_moiety         'C21 H15 N1 O3'
_chemical_name_systematic        
'benzyl 6-oxo-6H-pyrido[1,2-a]quinoline-5-carboxylate'
_symmetry_cell_setting           monoclinic
_symmetry_space_group_name_H-M   'P 21/c'
_symmetry_Int_Tables_number      14
_space_group_name_Hall           '-P 2ybc'
loop_
_symmetry_equiv_pos_site_id
_symmetry_equiv_pos_as_xyz
1 x,y,z
2 -x,1/2+y,1/2-z
3 -x,-y,-z
4 x,1/2-y,1/2+z
_cell_length_a                   15.7047(9)
_cell_length_b                   14.9474(8)
_cell_length_c                   13.1503(7)
_cell_angle_alpha                90
_cell_angle_beta                 96.337(2)
_cell_angle_gamma                90
_cell_volume                     3068.1
_exptl_crystal_colour            yellow
_exptl_crystal_description       needle
_cell_formula_units_Z            8
_exptl_crystal_recrystallization_method 'Re-crystallisation from solvent:'
loop_
_atom_site_label
_atom_site_type_symbol
_atom_site_fract_x
_atom_site_fract_y
_atom_site_fract_z
O1 O 0.65898(8) -0.08964(9) 0.21238(11)
O2 O 0.65969(8) -0.20323(9) 0.32422(11)
O3 O 0.64130(7) 0.04683(9) 0.36467(10)
N1 N 0.41097(9) -0.08424(10) 0.36874(11)
C1 C 0.87814(12) -0.09490(15) 0.13858(16)
H1 H 0.8919 -0.1558 0.1533
C2 C 0.94097(13) -0.03734(16) 0.11295(16)
H2 H 0.9977 -0.0586 0.1103
C3 C 0.92161(14) 0.05024(16) 0.09138(16)
H3 H 0.9648 0.0899 0.0734
C4 C 0.83961(14) 0.08097(15) 0.09575(18)
H4 H 0.8264 0.1419 0.0807
C5 C 0.77574(13) 0.02350(14) 0.12201(16)
H5 H 0.7193 0.0452 0.1253
C6 C 0.79469(11) -0.06475(13) 0.14311(14)
C7 C 0.72801(13) -0.13148(14) 0.16447(18)
H6 H 0.7042 -0.1601 0.0996
H7 H 0.7547 -0.1788 0.2101
C8 C 0.63108(11) -0.13336(13) 0.29167(14)
C9 C 0.55842(10) -0.08389(12) 0.32999(14)
C10 C 0.48180(11) -0.12950(13) 0.33895(13)
C11 C 0.47053(11) -0.22264(13) 0.31573(15)
H8 H 0.5165 -0.2549 0.2918
C12 C 0.39666(12) -0.26624(14) 0.32677(16)
H9 H 0.3908 -0.3279 0.3100
C13 C 0.32835(12) -0.21918(14) 0.36339(16)
H10 H 0.2770 -0.2495 0.3743
C14 C 0.33656(11) -0.13105(13) 0.38280(14)
H11 H 0.2901 -0.0998 0.4069
C15 C 0.41464(10) 0.00931(12) 0.38443(13)
C16 C 0.34085(11) 0.05876(13) 0.40067(14)
H12 H 0.2869 0.0297 0.3990
C17 C 0.34719(12) 0.14879(13) 0.41887(15)
H13 H 0.2973 0.1817 0.4300
C18 C 0.42567(12) 0.19332(13) 0.42149(15)
H14 H 0.4293 0.2556 0.4358
C19 C 0.49737(11) 0.14610(12) 0.40318(14)
H15 H 0.5507 0.1762 0.4042
C20 C 0.49298(10) 0.05396(12) 0.38298(13)
C21 C 0.57083(10) 0.00703(12) 0.35898(14)
O4 O 0.84620(8) -0.06530(9) 0.79537(10)
O5 O 0.84777(8) -0.18575(9) 0.69341(11)
O6 O 0.85580(7) 0.06147(8) 0.63030(10)
N2 N 1.09136(9) -0.06085(10) 0.63574(11)
C22 C 0.72223(13) 0.05102(14) 0.86421(16)
H16 H 0.7759 0.0751 0.8512
C23 C 0.65656(14) 0.10769(15) 0.88475(18)
H17 H 0.6656 0.1705 0.8864
C24 C 0.57834(13) 0.07352(16) 0.90274(16)
H18 H 0.5339 0.1127 0.9180
C25 C 0.56447(13) -0.01698(16) 0.89868(16)
H19 H 0.5098 -0.0404 0.9089
C26 C 0.63030(12) -0.07437(14) 0.87968(15)
H20 H 0.6210 -0.1372 0.8783
C27 C 0.70992(12) -0.04028(13) 0.86260(14)
C28 C 0.77987(12) -0.10622(14) 0.84838(17)
H21 H 0.8052 -0.1283 0.9160
H22 H 0.7554 -0.1581 0.8085
C29 C 0.87461(11) -0.11258(12) 0.71921(14)
C30 C 0.94420(10) -0.06341(12) 0.67426(13)
C31 C 1.02270(10) -0.10643(12) 0.66957(13)
C32 C 1.03784(11) -0.19693(13) 0.70179(15)
H23 H 0.9930 -0.2291 0.7282
C33 C 1.11384(12) -0.23848(14) 0.69602(16)
H24 H 1.1223 -0.2985 0.7187
C34 C 1.18021(12) -0.19102(14) 0.65575(16)
H25 H 1.2332 -0.2196 0.6485
C35 C 1.16799(11) -0.10514(13) 0.62767(14)
H26 H 1.2133 -0.0737 0.6014
C36 C 1.08340(10) 0.03121(12) 0.60990(13)
C37 C 1.15453(11) 0.08196(13) 0.58799(14)
H27 H 1.2095 0.0549 0.5909
C38 C 1.14431(12) 0.17059(13) 0.56240(15)
H28 H 1.1927 0.2046 0.5481
C39 C 1.06413(12) 0.21173(13) 0.55692(15)
H29 H 1.0577 0.2728 0.5374
C40 C 0.99475(11) 0.16296(12) 0.58010(14)
H30 H 0.9402 0.1909 0.5771
C41 C 1.00303(10) 0.07306(12) 0.60802(13)
C42 C 0.92775(10) 0.02478(12) 0.63774(13)
loop_
_geom_bond_atom_site_label_1
_geom_bond_atom_site_label_2
_geom_bond_site_symmetry_1
_geom_bond_site_symmetry_2
O1 C7 1_555 1_555
O2 C8 1_555 1_555
O3 C21 1_555 1_555
N1 C10 1_555 1_555
C1 H1 1_555 1_555
C2 C1 1_555 1_555
H2 C2 1_555 1_555
C3 C2 1_555 1_555
H3 C3 1_555 1_555
C4 C3 1_555 1_555
H4 C4 1_555 1_555
C5 C4 1_555 1_555
H5 C5 1_555 1_555
C6 C1 1_555 1_555
C7 C6 1_555 1_555
H6 C7 1_555 1_555
H7 C7 1_555 1_555
C8 O1 1_555 1_555
C9 C8 1_555 1_555
C10 C9 1_555 1_555
C11 C10 1_555 1_555
H8 C11 1_555 1_555
C12 C11 1_555 1_555
H9 C12 1_555 1_555
C13 C12 1_555 1_555
H10 C13 1_555 1_555
C14 N1 1_555 1_555
H11 C14 1_555 1_555
C15 N1 1_555 1_555
C16 C15 1_555 1_555
H12 C16 1_555 1_555
C17 C16 1_555 1_555
H13 C17 1_555 1_555
C18 C17 1_555 1_555
H14 C18 1_555 1_555
C19 C18 1_555 1_555
H15 C19 1_555 1_555
C20 C15 1_555 1_555
C21 C9 1_555 1_555
O4 C28 1_555 1_555
O5 C29 1_555 1_555
O6 C42 1_555 1_555
N2 C31 1_555 1_555
C22 H16 1_555 1_555
C23 C22 1_555 1_555
H17 C23 1_555 1_555
C24 C23 1_555 1_555
H18 C24 1_555 1_555
C25 C24 1_555 1_555
H19 C25 1_555 1_555
C26 C25 1_555 1_555
H20 C26 1_555 1_555
C27 C22 1_555 1_555
C28 C27 1_555 1_555
H21 C28 1_555 1_555
H22 C28 1_555 1_555
C29 O4 1_555 1_555
C30 C29 1_555 1_555
C31 C30 1_555 1_555
C32 C31 1_555 1_555
H23 C32 1_555 1_555
C33 C32 1_555 1_555
H24 C33 1_555 1_555
C34 C33 1_555 1_555
H25 C34 1_555 1_555
C35 N2 1_555 1_555
H26 C35 1_555 1_555
C36 N2 1_555 1_555
C37 C36 1_555 1_555
H27 C37 1_555 1_555
C38 C37 1_555 1_555
H28 C38 1_555 1_555
C39 C38 1_555 1_555
H29 C39 1_555 1_555
C40 C39 1_555 1_555
H30 C40 1_555 1_555
C41 C36 1_555 1_555
C42 C30 1_555 1_555
C5 C6 1_555 1_555
C13 C14 1_555 1_555
C19 C20 1_555 1_555
C20 C21 1_555 1_555
C26 C27 1_555 1_555
C34 C35 1_555 1_555
C40 C41 1_555 1_555
C41 C42 1_555 1_555

#END
