
#######################################################################
#
#                 Cambridge Crystallographic Data Centre
#                                CCDC 
#
#######################################################################
#
# If this CIF has been generated from an entry in the Cambridge 
# Structural Database, then it will include bibliographic, chemical, 
# crystal, experimental, refinement or atomic coordinate data resulting 
# from the CCDC's data processing and validation procedures.
#
#######################################################################

data_ZUYPOA
_chemical_formula_moiety         'C25 H30 N2 O5'
_chemical_name_systematic        
15-((3-oxo-2-oxa-9-azatetracyclo[6.5.1.0^1,5^.0^9,13^]tetradec-4-en-7-yl)oxy)-13-oxa-7-azatetracyclo[6.5.2.0^1,10^.0^2,7^]pentadec-10-en-12-one
_symmetry_cell_setting           monoclinic
_symmetry_space_group_name_H-M   'P 21'
_symmetry_Int_Tables_number      4
_space_group_name_Hall           'P 2yb'
loop_
_symmetry_equiv_pos_site_id
_symmetry_equiv_pos_as_xyz
1 x,y,z
2 -x,1/2+y,-z
_cell_length_a                   8.73000(10)
_cell_length_b                   13.8357(2)
_cell_length_c                   9.11730(10)
_cell_angle_alpha                90
_cell_angle_beta                 93.7500(10)
_cell_angle_gamma                90
_cell_volume                     1098.88
_exptl_crystal_colour            colorless
_exptl_crystal_description       block
_cell_formula_units_Z            2
loop_
_atom_site_label
_atom_site_type_symbol
_atom_site_fract_x
_atom_site_fract_y
_atom_site_fract_z
O1 O 0.40616(19) -0.23832(12) -0.07736(18)
O2 O 0.2335(2) -0.26290(19) -0.2671(2)
O3 O 0.30614(19) -0.03091(14) 0.28339(17)
O4 O 0.19327(19) 0.28549(12) 0.42535(17)
O5 O 0.3721(2) 0.39692(14) 0.3804(2)
N1 N 0.6651(2) -0.05937(15) 0.1065(2)
N2 N 0.0845(2) 0.05413(14) 0.5863(2)
C1 C 0.6263(2) -0.13154(16) -0.0078(2)
H1 H 0.6317 -0.0991 -0.1053
C2 C 0.7458(3) -0.21116(19) 0.0015(3)
H2 H 0.7201 -0.2611 -0.0738
H3 H 0.7492 -0.2421 0.0996
C3 C 0.9016(3) -0.1653(2) -0.0245(3)
H4 H 0.9835 -0.2142 -0.0062
H5 H 0.9024 -0.1448 -0.1285
C4 C 0.9359(3) -0.0781(3) 0.0749(3)
H6 H 0.9589 -0.1008 0.1769
H7 H 1.0283 -0.0447 0.0429
C5 C 0.8031(3) -0.0065(2) 0.0726(3)
H8 H 0.8253 0.0449 0.1464
H9 H 0.7883 0.0239 -0.0255
C6 C 0.5310(3) -0.00420(17) 0.1478(2)
H10 H 0.5648 0.0559 0.2014
C7 C 0.4503(2) -0.07199(18) 0.2508(2)
H11 H 0.5159 -0.0810 0.3439
C8 C 0.4259(3) -0.17055(17) 0.1726(2)
H12 H 0.4966 -0.2194 0.2185
H13 H 0.3192 -0.1931 0.1812
C9 C 0.4573(2) -0.15726(16) 0.0109(2)
C10 C 0.2939(3) -0.2071(2) -0.1797(3)
C11 C 0.2713(2) -0.1029(2) -0.1616(2)
H14 H 0.2004 -0.0636 -0.2181
C12 C 0.3678(2) -0.07299(17) -0.0518(2)
C13 C 0.4185(3) 0.02134(17) 0.0162(3)
H15 H 0.3293 0.0575 0.0496
H16 H 0.4700 0.0616 -0.0557
C14 C 0.1145(3) 0.15974(17) 0.6011(2)
H17 H 0.1858 0.1726 0.6892
C15 C -0.0414(3) 0.2085(2) 0.6193(3)
H18 H -0.0300 0.2674 0.6807
H19 H -0.0934 0.2254 0.5230
C16 C -0.1262(5) 0.1312(4) 0.6946(6)
H20 H -0.2385 0.1408 0.6804
H21 H -0.0963 0.1296 0.8012
C17 C -0.0770(4) 0.0390(3) 0.6195(4)
H22 H -0.0861 -0.0174 0.6853
H23 H -0.1419 0.0275 0.5280
C18 C 0.1175(2) 0.02582(16) 0.4346(2)
H24 H 0.0402 -0.0221 0.3938
C19 C 0.1075(2) 0.11983(17) 0.3460(2)
H25 H 0.1611 0.1152 0.2539
H26 H 0.0001 0.1409 0.3238
C20 C 0.1929(2) 0.18459(15) 0.4602(2)
C21 C 0.3426(3) 0.31475(18) 0.4129(2)
C22 C 0.4445(3) 0.2320(2) 0.4433(3)
H27 H 0.5533 0.2328 0.4426
C23 C 0.3592(2) 0.15605(17) 0.4721(2)
C24 C 0.3976(2) 0.05410(17) 0.5108(2)
H28 H 0.3980 0.0458 0.6187
H29 H 0.5017 0.0389 0.4804
C25 C 0.2809(2) -0.01610(16) 0.4350(2)
H30 H 0.2851 -0.0795 0.4877
H31? H -0.0631 0.2590 0.5439
H32? H -0.0460 0.2374 0.7183
C26? C -0.1604(9) 0.1171(7) 0.5964(11)
H33? H -0.2416 0.1208 0.6671
H34? H -0.2095 0.1170 0.4954
H35? H -0.1211 -0.0141 0.5573
H36? H -0.0809 0.0191 0.7235
loop_
_geom_bond_atom_site_label_1
_geom_bond_atom_site_label_2
_geom_bond_site_symmetry_1
_geom_bond_site_symmetry_2
O1 C9 1_555 1_555
O2 C10 1_555 1_555
O3 C7 1_555 1_555
O4 C20 1_555 1_555
O5 C21 1_555 1_555
N1 C1 1_555 1_555
N2 C14 1_555 1_555
C1 H1 1_555 1_555
C2 C1 1_555 1_555
H2 C2 1_555 1_555
H3 C2 1_555 1_555
C3 C2 1_555 1_555
H4 C3 1_555 1_555
H5 C3 1_555 1_555
C4 C3 1_555 1_555
H6 C4 1_555 1_555
H7 C4 1_555 1_555
C5 N1 1_555 1_555
H8 C5 1_555 1_555
H9 C5 1_555 1_555
C6 N1 1_555 1_555
H10 C6 1_555 1_555
C7 C6 1_555 1_555
H11 C7 1_555 1_555
C8 C7 1_555 1_555
H12 C8 1_555 1_555
H13 C8 1_555 1_555
C9 C1 1_555 1_555
C10 O1 1_555 1_555
C11 C10 1_555 1_555
H14 C11 1_555 1_555
C12 C9 1_555 1_555
C13 C6 1_555 1_555
H15 C13 1_555 1_555
H16 C13 1_555 1_555
C14 H17 1_555 1_555
C15 C14 1_555 1_555
H18 C15 1_555 1_555
H19 C15 1_555 1_555
C16 C15 1_555 1_555
H20 C16 1_555 1_555
H21 C16 1_555 1_555
C17 N2 1_555 1_555
H22 C17 1_555 1_555
H23 C17 1_555 1_555
C18 N2 1_555 1_555
H24 C18 1_555 1_555
C19 C18 1_555 1_555
H25 C19 1_555 1_555
H26 C19 1_555 1_555
C20 C14 1_555 1_555
C21 O4 1_555 1_555
C22 C21 1_555 1_555
H27 C22 1_555 1_555
C23 C20 1_555 1_555
C24 C23 1_555 1_555
H28 C24 1_555 1_555
H29 C24 1_555 1_555
C25 O3 1_555 1_555
H30 C25 1_555 1_555
C4 C5 1_555 1_555
C8 C9 1_555 1_555
C11 C12 1_555 1_555
C12 C13 1_555 1_555
C16 C17 1_555 1_555
C18 C25 1_555 1_555
C19 C20 1_555 1_555
C22 C23 1_555 1_555
C24 C25 1_555 1_555

#END
