
#######################################################################
#
#                 Cambridge Crystallographic Data Centre
#                                CCDC 
#
#######################################################################
#
# If this CIF has been generated from an entry in the Cambridge 
# Structural Database, then it will include bibliographic, chemical, 
# crystal, experimental, refinement or atomic coordinate data resulting 
# from the CCDC's data processing and validation procedures.
#
#######################################################################

data_ZUYVUM
_chemical_formula_moiety         'C18 H17 N1 O5'
_chemical_name_systematic        
'dimethyl 1-hydroxy-2-phenyl-1,2-dihydro-3H-indole-3,3-dicarboxylate'
_symmetry_cell_setting           monoclinic
_symmetry_space_group_name_H-M   'P 21/c'
_symmetry_Int_Tables_number      14
_space_group_name_Hall           '-P 2ybc'
loop_
_symmetry_equiv_pos_site_id
_symmetry_equiv_pos_as_xyz
1 x,y,z
2 -x,1/2+y,1/2-z
3 -x,-y,-z
4 x,1/2-y,1/2+z
_cell_length_a                   21.3292(8)
_cell_length_b                   8.2239(3)
_cell_length_c                   18.2075(7)
_cell_angle_alpha                90
_cell_angle_beta                 91.151(2)
_cell_angle_gamma                90
_cell_volume                     3193.12
_exptl_crystal_colour            white
_exptl_crystal_description       platy
_cell_formula_units_Z            8
loop_
_atom_site_label
_atom_site_type_symbol
_atom_site_fract_x
_atom_site_fract_y
_atom_site_fract_z
O1 O 0.30707(6) 0.33730(18) 0.78159(7)
O2 O 0.34522(6) -0.18362(16) 0.88462(8)
O3 O 0.43495(6) -0.15809(15) 0.94977(7)
O4 O 0.40679(6) 0.27271(16) 1.01924(7)
O5 O 0.35603(6) 0.03976(15) 1.04485(7)
N1 N 0.34212(7) 0.30822(18) 0.84872(8)
C1 C 0.49735(9) 0.1392(2) 0.87714(10)
H1 H 0.5157 0.0564 0.9069
C2 C 0.53428(9) 0.2375(3) 0.83309(11)
H2 H 0.5784 0.2211 0.8326
C3 C 0.50728(10) 0.3593(3) 0.78987(11)
H3 H 0.5331 0.4239 0.7596
C4 C 0.44316(9) 0.3881(2) 0.79038(10)
H4 H 0.4248 0.4721 0.7613
C5 C 0.40666(9) 0.2897(2) 0.83481(10)
C6 C 0.43302(8) 0.1654(2) 0.87647(10)
C7 C 0.38173(8) 0.0847(2) 0.92055(9)
C8 C 0.32079(8) 0.1533(2) 0.88100(9)
H5 H 0.3094 0.0780 0.8397
C9 C 0.26365(8) 0.1727(2) 0.92849(10)
C10 C 0.25676(9) 0.3083(2) 0.97335(10)
H6 H 0.2865 0.3941 0.9716
C11 C 0.20662(9) 0.3190(2) 1.02075(10)
H7 H 0.2027 0.4113 1.0517
C12 C 0.16240(9) 0.1958(2) 1.02306(11)
H8 H 0.1285 0.2027 1.0560
C13 C 0.16780(9) 0.0623(2) 0.97697(11)
H9 H 0.1370 -0.0211 0.9775
C14 C 0.21836(9) 0.0504(2) 0.92979(10)
H10 H 0.2219 -0.0413 0.8984
C15 C 0.38457(8) 0.1446(2) 1.00039(10)
C16 C 0.34739(10) 0.0958(3) 1.11968(10)
H11 H 0.3260 0.0114 1.1478
H12 H 0.3220 0.1951 1.1190
H13 H 0.3884 0.1188 1.1427
C17 C 0.38394(8) -0.1008(2) 0.91623(9)
C18 C 0.44492(10) -0.3329(2) 0.94625(12)
H14 H 0.4048 -0.3892 0.9519
H15 H 0.4740 -0.3661 0.9858
H16 H 0.4626 -0.3613 0.8987
H17 H 0.2825(12) 0.424(3) 0.7948(14)
O6 O 0.24686(7) 0.60740(17) 0.83445(8)
O7 O 0.11389(6) 0.99844(17) 0.64635(7)
O8 O 0.13078(6) 1.03729(16) 0.76745(7)
O9 O 0.08984(7) 0.5583(2) 0.63650(9)
O10 O 0.01842(6) 0.75063(18) 0.66064(8)
N2 N 0.19810(7) 0.71750(18) 0.81164(8)
C19 C 0.13552(10) 0.6447(2) 0.92247(11)
H18 H 0.1711 0.6205 0.9527
C20 C 0.07514(10) 0.6356(3) 0.94955(11)
H19 H 0.0692 0.6030 0.9990
C21 C 0.02320(10) 0.6738(3) 0.90516(12)
H20 H -0.0177 0.6680 0.9248
C22 C 0.03064(9) 0.7201(2) 0.83232(11)
H21 H -0.0048 0.7466 0.8022
C23 C 0.09034(9) 0.7270(2) 0.80445(10)
C24 C 0.14183(9) 0.6902(2) 0.84976(10)
C25 C 0.11354(8) 0.7660(2) 0.72757(10)
C26 C 0.18233(8) 0.6950(2) 0.73289(10)
H22 H 0.1806 0.5759 0.7221
C27 C 0.23046(8) 0.7723(2) 0.68417(10)
C28 C 0.23675(10) 0.7211(2) 0.61180(11)
H23 H 0.2103 0.6378 0.5926
C29 C 0.28166(10) 0.7919(3) 0.56757(12)
H24 H 0.2854 0.7576 0.5180
C30 C 0.32111(10) 0.9123(3) 0.59536(12)
H25 H 0.3524 0.9584 0.5654
C31 C 0.31451(10) 0.9648(3) 0.66698(12)
H26 H 0.3409 1.0484 0.6861
C32 C 0.26926(9) 0.8953(3) 0.71104(11)
H27 H 0.2648 0.9323 0.7601
C33 C 0.11763(8) 0.9468(2) 0.70826(10)
C34 C 0.14697(11) 1.2058(2) 0.75324(13)
H28 H 0.1559 1.2613 0.7999
H29 H 0.1118 1.2596 0.7277
H30 H 0.1841 1.2100 0.7225
C35 C 0.07403(9) 0.6781(2) 0.66889(10)
C36 C -0.02443(10) 0.6797(3) 0.60647(12)
H31 H -0.0637 0.7418 0.6051
H32 H -0.0332 0.5666 0.6198
H33 H -0.0053 0.6829 0.5580
H34 H 0.2747(14) 0.667(4) 0.8513(17)
loop_
_geom_bond_atom_site_label_1
_geom_bond_atom_site_label_2
_geom_bond_site_symmetry_1
_geom_bond_site_symmetry_2
O1 N1 1_555 1_555
O2 C17 1_555 1_555
O3 C17 1_555 1_555
O4 C15 1_555 1_555
O5 C15 1_555 1_555
N1 C5 1_555 1_555
C1 H1 1_555 1_555
C2 C1 1_555 1_555
H2 C2 1_555 1_555
C3 C2 1_555 1_555
H3 C3 1_555 1_555
C4 C3 1_555 1_555
H4 C4 1_555 1_555
C5 C4 1_555 1_555
C6 C1 1_555 1_555
C7 C6 1_555 1_555
C8 N1 1_555 1_555
H5 C8 1_555 1_555
C9 C8 1_555 1_555
C10 C9 1_555 1_555
H6 C10 1_555 1_555
C11 C10 1_555 1_555
H7 C11 1_555 1_555
C12 C11 1_555 1_555
H8 C12 1_555 1_555
C13 C12 1_555 1_555
H9 C13 1_555 1_555
C14 C9 1_555 1_555
H10 C14 1_555 1_555
C15 C7 1_555 1_555
C16 O5 1_555 1_555
H11 C16 1_555 1_555
H12 C16 1_555 1_555
H13 C16 1_555 1_555
C17 C7 1_555 1_555
C18 O3 1_555 1_555
H14 C18 1_555 1_555
H15 C18 1_555 1_555
H16 C18 1_555 1_555
H17 O1 1_555 1_555
O6 N2 1_555 1_555
O7 C33 1_555 1_555
O8 C33 1_555 1_555
O9 C35 1_555 1_555
O10 C35 1_555 1_555
N2 C24 1_555 1_555
C19 H18 1_555 1_555
C20 C19 1_555 1_555
H19 C20 1_555 1_555
C21 C20 1_555 1_555
H20 C21 1_555 1_555
C22 C21 1_555 1_555
H21 C22 1_555 1_555
C23 C22 1_555 1_555
C24 C19 1_555 1_555
C25 C23 1_555 1_555
C26 N2 1_555 1_555
H22 C26 1_555 1_555
C27 C26 1_555 1_555
C28 C27 1_555 1_555
H23 C28 1_555 1_555
C29 C28 1_555 1_555
H24 C29 1_555 1_555
C30 C29 1_555 1_555
H25 C30 1_555 1_555
C31 C30 1_555 1_555
H26 C31 1_555 1_555
C32 C27 1_555 1_555
H27 C32 1_555 1_555
C33 C25 1_555 1_555
C34 O8 1_555 1_555
H28 C34 1_555 1_555
H29 C34 1_555 1_555
H30 C34 1_555 1_555
C35 C25 1_555 1_555
C36 O10 1_555 1_555
H31 C36 1_555 1_555
H32 C36 1_555 1_555
H33 C36 1_555 1_555
H34 O6 1_555 1_555
C5 C6 1_555 1_555
C7 C8 1_555 1_555
C13 C14 1_555 1_555
C23 C24 1_555 1_555
C25 C26 1_555 1_555
C31 C32 1_555 1_555

#END
